# Generated by pormake.
# Topology gar, (4,6)-cn, num edge types: 1
# Building blocks:
#     Node 0, Type 0, BuildingBlock: QUQFOY_clean_sbu_3, # of connection points: 4
#     Node 1, Type 0, BuildingBlock: QUQFOY_clean_sbu_3, # of connection points: 4
#     Node 2, Type 0, BuildingBlock: QUQFOY_clean_sbu_3, # of connection points: 4
#     Node 3, Type 0, BuildingBlock: QUQFOY_clean_sbu_3, # of connection points: 4
#     Node 4, Type 0, BuildingBlock: QUQFOY_clean_sbu_3, # of connection points: 4
#     Node 5, Type 0, BuildingBlock: QUQFOY_clean_sbu_3, # of connection points: 4
#     Node 6, Type 0, BuildingBlock: QUQFOY_clean_sbu_3, # of connection points: 4
#     Node 7, Type 0, BuildingBlock: QUQFOY_clean_sbu_3, # of connection points: 4
#     Node 8, Type 0, BuildingBlock: QUQFOY_clean_sbu_3, # of connection points: 4
#     Node 9, Type 0, BuildingBlock: QUQFOY_clean_sbu_3, # of connection points: 4
#     Node 10, Type 0, BuildingBlock: QUQFOY_clean_sbu_3, # of connection points: 4
#     Node 11, Type 0, BuildingBlock: QUQFOY_clean_sbu_3, # of connection points: 4
#     Node 12, Type 0, BuildingBlock: QUQFOY_clean_sbu_3, # of connection points: 4
#     Node 13, Type 0, BuildingBlock: QUQFOY_clean_sbu_3, # of connection points: 4
#     Node 14, Type 0, BuildingBlock: QUQFOY_clean_sbu_3, # of connection points: 4
#     Node 15, Type 0, BuildingBlock: QUQFOY_clean_sbu_3, # of connection points: 4
#     Node 16, Type 0, BuildingBlock: QUQFOY_clean_sbu_3, # of connection points: 4
#     Node 17, Type 0, BuildingBlock: QUQFOY_clean_sbu_3, # of connection points: 4
#     Node 18, Type 0, BuildingBlock: QUQFOY_clean_sbu_3, # of connection points: 4
#     Node 19, Type 0, BuildingBlock: QUQFOY_clean_sbu_3, # of connection points: 4
#     Node 20, Type 0, BuildingBlock: QUQFOY_clean_sbu_3, # of connection points: 4
#     Node 21, Type 0, BuildingBlock: QUQFOY_clean_sbu_3, # of connection points: 4
#     Node 22, Type 0, BuildingBlock: QUQFOY_clean_sbu_3, # of connection points: 4
#     Node 23, Type 0, BuildingBlock: QUQFOY_clean_sbu_3, # of connection points: 4
#     Node 24, Type 1, BuildingBlock: KUMBOL_clean_sbu_1, # of connection points: 6
#     Node 25, Type 1, BuildingBlock: KUMBOL_clean_sbu_1, # of connection points: 6
#     Node 26, Type 1, BuildingBlock: KUMBOL_clean_sbu_1, # of connection points: 6
#     Node 27, Type 1, BuildingBlock: KUMBOL_clean_sbu_1, # of connection points: 6
#     Node 28, Type 1, BuildingBlock: KUMBOL_clean_sbu_1, # of connection points: 6
#     Node 29, Type 1, BuildingBlock: KUMBOL_clean_sbu_1, # of connection points: 6
#     Node 30, Type 1, BuildingBlock: KUMBOL_clean_sbu_1, # of connection points: 6
#     Node 31, Type 1, BuildingBlock: KUMBOL_clean_sbu_1, # of connection points: 6
#     Node 32, Type 1, BuildingBlock: KUMBOL_clean_sbu_1, # of connection points: 6
#     Node 33, Type 1, BuildingBlock: KUMBOL_clean_sbu_1, # of connection points: 6
#     Node 34, Type 1, BuildingBlock: KUMBOL_clean_sbu_1, # of connection points: 6
#     Node 35, Type 1, BuildingBlock: KUMBOL_clean_sbu_1, # of connection points: 6
#     Node 36, Type 1, BuildingBlock: KUMBOL_clean_sbu_1, # of connection points: 6
#     Node 37, Type 1, BuildingBlock: KUMBOL_clean_sbu_1, # of connection points: 6
#     Node 38, Type 1, BuildingBlock: KUMBOL_clean_sbu_1, # of connection points: 6
#     Node 39, Type 1, BuildingBlock: KUMBOL_clean_sbu_1, # of connection points: 6
#     Edge 40, Type (0, 1), BuildingBlock: XIVTED_clean_linker_0, # of connection points: 2
#     Edge 41, Type (0, 1), BuildingBlock: XIVTED_clean_linker_0, # of connection points: 2
#     Edge 42, Type (0, 1), BuildingBlock: XIVTED_clean_linker_0, # of connection points: 2
#     Edge 43, Type (0, 1), BuildingBlock: XIVTED_clean_linker_0, # of connection points: 2
#     Edge 44, Type (0, 1), BuildingBlock: XIVTED_clean_linker_0, # of connection points: 2
#     Edge 45, Type (0, 1), BuildingBlock: XIVTED_clean_linker_0, # of connection points: 2
#     Edge 46, Type (0, 1), BuildingBlock: XIVTED_clean_linker_0, # of connection points: 2
#     Edge 47, Type (0, 1), BuildingBlock: XIVTED_clean_linker_0, # of connection points: 2
#     Edge 48, Type (0, 1), BuildingBlock: XIVTED_clean_linker_0, # of connection points: 2
#     Edge 49, Type (0, 1), BuildingBlock: XIVTED_clean_linker_0, # of connection points: 2
#     Edge 50, Type (0, 1), BuildingBlock: XIVTED_clean_linker_0, # of connection points: 2
#     Edge 51, Type (0, 1), BuildingBlock: XIVTED_clean_linker_0, # of connection points: 2
#     Edge 52, Type (0, 1), BuildingBlock: XIVTED_clean_linker_0, # of connection points: 2
#     Edge 53, Type (0, 1), BuildingBlock: XIVTED_clean_linker_0, # of connection points: 2
#     Edge 54, Type (0, 1), BuildingBlock: XIVTED_clean_linker_0, # of connection points: 2
#     Edge 55, Type (0, 1), BuildingBlock: XIVTED_clean_linker_0, # of connection points: 2
#     Edge 56, Type (0, 1), BuildingBlock: XIVTED_clean_linker_0, # of connection points: 2
#     Edge 57, Type (0, 1), BuildingBlock: XIVTED_clean_linker_0, # of connection points: 2
#     Edge 58, Type (0, 1), BuildingBlock: XIVTED_clean_linker_0, # of connection points: 2
#     Edge 59, Type (0, 1), BuildingBlock: XIVTED_clean_linker_0, # of connection points: 2
#     Edge 60, Type (0, 1), BuildingBlock: XIVTED_clean_linker_0, # of connection points: 2
#     Edge 61, Type (0, 1), BuildingBlock: XIVTED_clean_linker_0, # of connection points: 2
#     Edge 62, Type (0, 1), BuildingBlock: XIVTED_clean_linker_0, # of connection points: 2
#     Edge 63, Type (0, 1), BuildingBlock: XIVTED_clean_linker_0, # of connection points: 2
#     Edge 64, Type (0, 1), BuildingBlock: XIVTED_clean_linker_0, # of connection points: 2
#     Edge 65, Type (0, 1), BuildingBlock: XIVTED_clean_linker_0, # of connection points: 2
#     Edge 66, Type (0, 1), BuildingBlock: XIVTED_clean_linker_0, # of connection points: 2
#     Edge 67, Type (0, 1), BuildingBlock: XIVTED_clean_linker_0, # of connection points: 2
#     Edge 68, Type (0, 1), BuildingBlock: XIVTED_clean_linker_0, # of connection points: 2
#     Edge 69, Type (0, 1), BuildingBlock: XIVTED_clean_linker_0, # of connection points: 2
#     Edge 70, Type (0, 1), BuildingBlock: XIVTED_clean_linker_0, # of connection points: 2
#     Edge 71, Type (0, 1), BuildingBlock: XIVTED_clean_linker_0, # of connection points: 2
#     Edge 72, Type (0, 1), BuildingBlock: XIVTED_clean_linker_0, # of connection points: 2
#     Edge 73, Type (0, 1), BuildingBlock: XIVTED_clean_linker_0, # of connection points: 2
#     Edge 74, Type (0, 1), BuildingBlock: XIVTED_clean_linker_0, # of connection points: 2
#     Edge 75, Type (0, 1), BuildingBlock: XIVTED_clean_linker_0, # of connection points: 2
#     Edge 76, Type (0, 1), BuildingBlock: XIVTED_clean_linker_0, # of connection points: 2
#     Edge 77, Type (0, 1), BuildingBlock: XIVTED_clean_linker_0, # of connection points: 2
#     Edge 78, Type (0, 1), BuildingBlock: XIVTED_clean_linker_0, # of connection points: 2
#     Edge 79, Type (0, 1), BuildingBlock: XIVTED_clean_linker_0, # of connection points: 2
#     Edge 80, Type (0, 1), BuildingBlock: XIVTED_clean_linker_0, # of connection points: 2
#     Edge 81, Type (0, 1), BuildingBlock: XIVTED_clean_linker_0, # of connection points: 2
#     Edge 82, Type (0, 1), BuildingBlock: XIVTED_clean_linker_0, # of connection points: 2
#     Edge 83, Type (0, 1), BuildingBlock: XIVTED_clean_linker_0, # of connection points: 2
#     Edge 84, Type (0, 1), BuildingBlock: XIVTED_clean_linker_0, # of connection points: 2
#     Edge 85, Type (0, 1), BuildingBlock: XIVTED_clean_linker_0, # of connection points: 2
#     Edge 86, Type (0, 1), BuildingBlock: XIVTED_clean_linker_0, # of connection points: 2
#     Edge 87, Type (0, 1), BuildingBlock: XIVTED_clean_linker_0, # of connection points: 2
#     Edge 88, Type (0, 1), BuildingBlock: XIVTED_clean_linker_0, # of connection points: 2
#     Edge 89, Type (0, 1), BuildingBlock: XIVTED_clean_linker_0, # of connection points: 2
#     Edge 90, Type (0, 1), BuildingBlock: XIVTED_clean_linker_0, # of connection points: 2
#     Edge 91, Type (0, 1), BuildingBlock: XIVTED_clean_linker_0, # of connection points: 2
#     Edge 92, Type (0, 1), BuildingBlock: XIVTED_clean_linker_0, # of connection points: 2
#     Edge 93, Type (0, 1), BuildingBlock: XIVTED_clean_linker_0, # of connection points: 2
#     Edge 94, Type (0, 1), BuildingBlock: XIVTED_clean_linker_0, # of connection points: 2
#     Edge 95, Type (0, 1), BuildingBlock: XIVTED_clean_linker_0, # of connection points: 2
#     Edge 96, Type (0, 1), BuildingBlock: XIVTED_clean_linker_0, # of connection points: 2
#     Edge 97, Type (0, 1), BuildingBlock: XIVTED_clean_linker_0, # of connection points: 2
#     Edge 98, Type (0, 1), BuildingBlock: XIVTED_clean_linker_0, # of connection points: 2
#     Edge 99, Type (0, 1), BuildingBlock: XIVTED_clean_linker_0, # of connection points: 2
#     Edge 100, Type (0, 1), BuildingBlock: XIVTED_clean_linker_0, # of connection points: 2
#     Edge 101, Type (0, 1), BuildingBlock: XIVTED_clean_linker_0, # of connection points: 2
#     Edge 102, Type (0, 1), BuildingBlock: XIVTED_clean_linker_0, # of connection points: 2
#     Edge 103, Type (0, 1), BuildingBlock: XIVTED_clean_linker_0, # of connection points: 2
#     Edge 104, Type (0, 1), BuildingBlock: XIVTED_clean_linker_0, # of connection points: 2
#     Edge 105, Type (0, 1), BuildingBlock: XIVTED_clean_linker_0, # of connection points: 2
#     Edge 106, Type (0, 1), BuildingBlock: XIVTED_clean_linker_0, # of connection points: 2
#     Edge 107, Type (0, 1), BuildingBlock: XIVTED_clean_linker_0, # of connection points: 2
#     Edge 108, Type (0, 1), BuildingBlock: XIVTED_clean_linker_0, # of connection points: 2
#     Edge 109, Type (0, 1), BuildingBlock: XIVTED_clean_linker_0, # of connection points: 2
#     Edge 110, Type (0, 1), BuildingBlock: XIVTED_clean_linker_0, # of connection points: 2
#     Edge 111, Type (0, 1), BuildingBlock: XIVTED_clean_linker_0, # of connection points: 2
#     Edge 112, Type (0, 1), BuildingBlock: XIVTED_clean_linker_0, # of connection points: 2
#     Edge 113, Type (0, 1), BuildingBlock: XIVTED_clean_linker_0, # of connection points: 2
#     Edge 114, Type (0, 1), BuildingBlock: XIVTED_clean_linker_0, # of connection points: 2
#     Edge 115, Type (0, 1), BuildingBlock: XIVTED_clean_linker_0, # of connection points: 2
#     Edge 116, Type (0, 1), BuildingBlock: XIVTED_clean_linker_0, # of connection points: 2
#     Edge 117, Type (0, 1), BuildingBlock: XIVTED_clean_linker_0, # of connection points: 2
#     Edge 118, Type (0, 1), BuildingBlock: XIVTED_clean_linker_0, # of connection points: 2
#     Edge 119, Type (0, 1), BuildingBlock: XIVTED_clean_linker_0, # of connection points: 2
#     Edge 120, Type (0, 1), BuildingBlock: XIVTED_clean_linker_0, # of connection points: 2
#     Edge 121, Type (0, 1), BuildingBlock: XIVTED_clean_linker_0, # of connection points: 2
#     Edge 122, Type (0, 1), BuildingBlock: XIVTED_clean_linker_0, # of connection points: 2
#     Edge 123, Type (0, 1), BuildingBlock: XIVTED_clean_linker_0, # of connection points: 2
#     Edge 124, Type (0, 1), BuildingBlock: XIVTED_clean_linker_0, # of connection points: 2
#     Edge 125, Type (0, 1), BuildingBlock: XIVTED_clean_linker_0, # of connection points: 2
#     Edge 126, Type (0, 1), BuildingBlock: XIVTED_clean_linker_0, # of connection points: 2
#     Edge 127, Type (0, 1), BuildingBlock: XIVTED_clean_linker_0, # of connection points: 2
#     Edge 128, Type (0, 1), BuildingBlock: XIVTED_clean_linker_0, # of connection points: 2
#     Edge 129, Type (0, 1), BuildingBlock: XIVTED_clean_linker_0, # of connection points: 2
#     Edge 130, Type (0, 1), BuildingBlock: XIVTED_clean_linker_0, # of connection points: 2
#     Edge 131, Type (0, 1), BuildingBlock: XIVTED_clean_linker_0, # of connection points: 2
#     Edge 132, Type (0, 1), BuildingBlock: XIVTED_clean_linker_0, # of connection points: 2
#     Edge 133, Type (0, 1), BuildingBlock: XIVTED_clean_linker_0, # of connection points: 2
#     Edge 134, Type (0, 1), BuildingBlock: XIVTED_clean_linker_0, # of connection points: 2
#     Edge 135, Type (0, 1), BuildingBlock: XIVTED_clean_linker_0, # of connection points: 2
# Relax obj value: 0.068
# Max RMSD: 0.183
# Mean RMSD: 0.108
data_MOF--net-gar--node1-QUQFOY_clean_sbu_3--node2-KUMBOL_clean_sbu_1--edge1-XIVTED_clean_linker_0
_symmetry_space_group_name_H-M    P1
_symmetry_Int_Tables_number       1
_symmetry_cell_setting            triclinic
loop_
_symmetry_equiv_pos_as_xyz
'x, y, z'
_cell_length_a     61.211975
_cell_length_b     62.368521
_cell_length_c     57.559704
_cell_angle_alpha  97.244473
_cell_angle_beta   96.247966
_cell_angle_gamma 101.51984
loop_
_atom_site_label
_atom_site_type_symbol
_atom_site_fract_x
_atom_site_fract_y
_atom_site_fract_z
_atom_type_partial_charge
C0 C 0.99361 0.30676 0.32553 0.0
O1 O 0.00591 0.31855 0.3135 0.0
Cd2 Cd 0.04577 0.32937 0.32793 0.0
O3 O 0.00331 0.29937 0.34279 0.0
Cd4 Cd 0.04588 0.30303 0.36084 0.0
C5 C 0.04743 0.35747 0.38236 0.0
O6 O 0.06882 0.3008 0.32604 0.0
O7 O 0.08816 0.31322 0.36011 0.0
O8 O 0.0375 0.26287 0.36394 0.0
C9 C 0.08818 0.30578 0.33853 0.0
O10 O 0.04907 0.35976 0.36093 0.0
C11 C 0.04328 0.26513 0.38613 0.0
O12 O 0.04586 0.33825 0.38828 0.0
O13 O 0.05005 0.2849 0.39669 0.0
C14 C 0.9696 0.74551 0.71992 0.0
O15 O 0.97794 0.72994 0.72674 0.0
Cd16 Cd 0.01166 0.73157 0.70618 0.0
O17 O 0.98063 0.75707 0.7064 0.0
Cd18 Cd 0.01842 0.75283 0.68873 0.0
C19 C 0.01292 0.69829 0.66336 0.0
O20 O 0.04962 0.75032 0.72378 0.0
O21 O 0.05999 0.75967 0.69122 0.0
O22 O 0.02482 0.7931 0.68694 0.0
C23 C 0.06578 0.75658 0.71212 0.0
O24 O 0.01469 0.69649 0.68511 0.0
C25 C 0.02009 0.79132 0.66465 0.0
O26 O 0.01142 0.71716 0.65768 0.0
O27 O 0.01448 0.77172 0.65339 0.0
C28 C 0.49419 0.80591 0.82679 0.0
O29 O 0.50625 0.81745 0.81435 0.0
Cd30 Cd 0.54601 0.82968 0.83008 0.0
O31 O 0.50415 0.79931 0.84444 0.0
Cd32 Cd 0.54657 0.80313 0.86224 0.0
C33 C 0.5473 0.85767 0.88406 0.0
O34 O 0.57026 0.80209 0.82748 0.0
O35 O 0.58883 0.81182 0.86228 0.0
O36 O 0.53809 0.7629 0.86541 0.0
C37 C 0.58932 0.80581 0.84046 0.0
O38 O 0.54924 0.86058 0.86286 0.0
C39 C 0.54325 0.76529 0.88771 0.0
O40 O 0.54562 0.83824 0.88945 0.0
O41 O 0.54983 0.7851 0.89821 0.0
C42 C 0.47025 0.24519 0.22014 0.0
O43 O 0.47932 0.23114 0.22936 0.0
Cd44 Cd 0.51447 0.23129 0.21215 0.0
O45 O 0.48083 0.25548 0.20541 0.0
Cd46 Cd 0.51911 0.25248 0.18868 0.0
C47 C 0.51364 0.19806 0.16581 0.0
O48 O 0.55093 0.25711 0.22434 0.0
O49 O 0.55889 0.24772 0.18959 0.0
O50 O 0.52577 0.29264 0.18622 0.0
C51 C 0.56604 0.25399 0.2114 0.0
O52 O 0.51722 0.19744 0.18781 0.0
C53 C 0.52151 0.2906 0.16388 0.0
O54 O 0.51064 0.21622 0.15931 0.0
O55 O 0.51666 0.27093 0.15288 0.0
C56 C 0.02179 0.78127 0.14088 0.0
O57 O 0.03439 0.77144 0.15273 0.0
Cd58 Cd 0.07097 0.76592 0.14936 0.0
O59 O 0.02842 0.79084 0.12364 0.0
Cd60 Cd 0.06395 0.79704 0.10277 0.0
C61 C 0.05741 0.73686 0.0918 0.0
O62 O 0.08795 0.80013 0.14 0.0
O63 O 0.10706 0.80094 0.11116 0.0
O64 O 0.06149 0.83753 0.1056 0.0
C65 C 0.10701 0.80102 0.13327 0.0
O66 O 0.06278 0.73844 0.11405 0.0
C67 C 0.05882 0.83949 0.08383 0.0
O68 O 0.05595 0.75438 0.08224 0.0
O69 O 0.05868 0.82184 0.06981 0.0
C70 C 0.45286 0.76373 0.40138 0.0
O71 O 0.4669 0.77372 0.38961 0.0
Cd72 Cd 0.50622 0.78531 0.40137 0.0
O73 O 0.45962 0.75751 0.42097 0.0
Cd74 Cd 0.49913 0.75843 0.44584 0.0
C75 C 0.50657 0.81707 0.4561 0.0
O76 O 0.52012 0.75457 0.41183 0.0
O77 O 0.54052 0.77014 0.44451 0.0
O78 O 0.48755 0.71689 0.44792 0.0
C79 C 0.53969 0.76199 0.42304 0.0
O80 O 0.51012 0.81483 0.43461 0.0
C81 C 0.49864 0.71651 0.46782 0.0
O82 O 0.50072 0.79967 0.46595 0.0
O83 O 0.50853 0.73558 0.47894 0.0
C84 C 0.5204 0.28213 0.63849 0.0
O85 O 0.53163 0.27208 0.65159 0.0
Cd86 Cd 0.56834 0.26571 0.64862 0.0
O87 O 0.5285 0.29092 0.62145 0.0
Cd88 Cd 0.56433 0.29679 0.60176 0.0
C89 C 0.55618 0.23647 0.59103 0.0
O90 O 0.58767 0.29961 0.63964 0.0
O91 O 0.60717 0.3001 0.61105 0.0
O92 O 0.56111 0.33725 0.60442 0.0
C93 C 0.60682 0.30016 0.63313 0.0
O94 O 0.56063 0.23791 0.61339 0.0
C95 C 0.55895 0.33923 0.58263 0.0
O96 O 0.55568 0.25411 0.58139 0.0
O97 O 0.55967 0.32173 0.56879 0.0
C98 C 0.95618 0.26518 0.9009 0.0
O99 O 0.97134 0.27731 0.89209 0.0
Cd100 Cd 0.01031 0.28932 0.90463 0.0
O101 O 0.96141 0.25696 0.9197 0.0
Cd102 Cd 0.00067 0.25895 0.94609 0.0
C103 C 0.00919 0.31838 0.95954 0.0
O104 O 0.02195 0.2568 0.9125 0.0
O105 O 0.04282 0.26962 0.94554 0.0
O106 O 0.99498 0.21717 0.9448 0.0
C107 C 0.04162 0.26256 0.92367 0.0
O108 O 0.01427 0.31787 0.93865 0.0
C109 C 0.00041 0.21626 0.96653 0.0
O110 O 0.00227 0.30006 0.96748 0.0
O111 O 0.00435 0.23495 0.97992 0.0
C112 C 0.42184 0.01402 0.34765 0.0
O113 O 0.43516 0.00975 0.33318 0.0
Cd114 Cd 0.42327 0.00251 0.29148 0.0
O115 O 0.40274 0.01758 0.34097 0.0
Cd116 Cd 0.3809 0.02157 0.30601 0.0
C117 C 0.37187 0.96783 0.29312 0.0
O118 O 0.40815 0.03249 0.28046 0.0
O119 O 0.37433 0.01755 0.26331 0.0
O120 O 0.38022 0.05803 0.32317 0.0
C121 C 0.39436 0.0268 0.2615 0.0
O122 O 0.39152 0.97099 0.28697 0.0
C123 C 0.35896 0.05494 0.31934 0.0
O124 O 0.36404 0.98369 0.30252 0.0
O125 O 0.34792 0.03536 0.31152 0.0
C126 C 0.29356 0.14378 0.51823 0.0
O127 O 0.28042 0.13277 0.5302 0.0
Cd128 Cd 0.24409 0.13648 0.53788 0.0
O129 O 0.28817 0.15943 0.50814 0.0
Cd130 Cd 0.25478 0.17702 0.50347 0.0
C131 C 0.25979 0.19158 0.56423 0.0
O132 O 0.22882 0.14233 0.50056 0.0
O133 O 0.21273 0.1698 0.49865 0.0
O134 O 0.26309 0.17731 0.46297 0.0
C135 C 0.21078 0.14918 0.49855 0.0
O136 O 0.25344 0.17102 0.56517 0.0
C137 C 0.26238 0.19739 0.46207 0.0
O138 O 0.26206 0.19871 0.54453 0.0
O139 O 0.25833 0.2084 0.48068 0.0
C140 C 0.0982 0.04833 0.83081 0.0
O141 O 0.08874 0.06117 0.81985 0.0
Cd142 Cd 0.09525 0.06877 0.78087 0.0
O143 O 0.11264 0.03911 0.82162 0.0
Cd144 Cd 0.12986 0.04144 0.78423 0.0
C145 C 0.14953 0.09661 0.79145 0.0
O146 O 0.09611 0.03617 0.75358 0.0
O147 O 0.12886 0.04582 0.74289 0.0
O148 O 0.13497 0.00384 0.78658 0.0
C149 C 0.10779 0.03972 0.73695 0.0
O150 O 0.12925 0.09753 0.78496 0.0
C151 C 0.15574 0.00834 0.78437 0.0
O152 O 0.15451 0.0783 0.79483 0.0
O153 O 0.16428 0.0281 0.78213 0.0
C154 C 0.33265 0.96188 0.99235 0.0
O155 O 0.32409 0.97234 0.97754 0.0
Cd156 Cd 0.28628 0.96287 0.95962 0.0
O157 O 0.32121 0.94542 -0.00051 0.0
Cd158 Cd 0.28392 0.92414 0.9934 0.0
C159 C 0.29133 0.91122 0.93789 0.0
O160 O 0.26344 0.95197 0.98853 0.0
O161 O 0.24516 0.91796 0.97733 0.0
O162 O 0.28507 0.92324 0.03518 0.0
C163 C 0.24499 0.93839 0.98074 0.0
O164 O 0.28826 0.93008 0.93395 0.0
C165 C 0.28187 0.90229 0.03314 0.0
O166 O 0.29167 0.90554 0.9583 0.0
O167 O 0.27942 0.89154 0.0124 0.0
C168 C 0.33817 0.42125 0.03725 0.0
O169 O 0.32464 0.43042 0.02587 0.0
Cd170 Cd 0.28669 0.41542 0.01203 0.0
O171 O 0.33125 0.40245 0.04378 0.0
Cd172 Cd 0.29218 0.37722 0.0421 0.0
C173 C 0.29114 0.36464 0.98285 0.0
O174 O 0.27287 0.40734 0.04757 0.0
O175 O 0.25091 0.37592 0.03422 0.0
O176 O 0.30322 0.37381 0.0836 0.0
C177 C 0.25297 0.39613 0.04251 0.0
O178 O 0.28829 0.38426 0.98243 0.0
C179 C 0.29252 0.35395 0.08236 0.0
O180 O 0.29329 0.35702 0.00233 0.0
O181 O 0.28274 0.3443 0.06206 0.0
C182 C 0.79321 0.091 0.0677 0.0
O183 O 0.77619 0.07876 0.07363 0.0
Cd184 Cd 0.74032 0.08879 0.07274 0.0
O185 O 0.79161 0.10837 0.05892 0.0
Cd186 Cd 0.76377 0.12874 0.04797 0.0
C187 C 0.75853 0.14057 0.10446 0.0
O188 O 0.73087 0.09988 0.03555 0.0
O189 O 0.72575 0.13276 0.04739 0.0
O190 O 0.77122 0.12987 0.00787 0.0
C191 C 0.71758 0.11303 0.0374 0.0
O192 O 0.74589 0.12138 0.10247 0.0
C193 C 0.77571 0.15082 0.00984 0.0
O194 O 0.76908 0.14695 0.08785 0.0
O195 O 0.77635 0.16165 0.03027 0.0
C196 C 0.14263 0.54091 0.279 0.0
O197 O 0.12956 0.54908 0.26579 0.0
Cd198 Cd 0.13731 0.5591 0.22903 0.0
O199 O 0.15996 0.53533 0.27214 0.0
Cd200 Cd 0.17618 0.53387 0.23517 0.0
C201 C 0.19174 0.58643 0.25096 0.0
O202 O 0.14534 0.52833 0.20558 0.0
O203 O 0.1777 0.54452 0.19679 0.0
O204 O 0.17372 0.49631 0.23678 0.0
C205 C 0.15732 0.53482 0.19013 0.0
O206 O 0.17154 0.58674 0.24326 0.0
C207 C 0.19419 0.49688 0.23457 0.0
O208 O 0.19873 0.56864 0.2508 0.0
O209 O 0.2066 0.51512 0.23201 0.0
C210 C 0.83855 0.91913 0.5388 0.0
O211 O 0.82617 0.9291 0.52691 0.0
Cd212 Cd 0.78775 0.91827 0.51188 0.0
O213 O 0.83048 0.90068 0.54547 0.0
Cd214 Cd 0.79107 0.87677 0.54342 0.0
C215 C 0.78822 0.86552 0.48324 0.0
O216 O 0.77462 0.90837 0.54639 0.0
O217 O 0.74986 0.87799 0.54073 0.0
O218 O 0.79962 0.87508 0.58544 0.0
C219 C 0.75415 0.89897 0.54421 0.0
O220 O 0.7866 0.88561 0.48376 0.0
C221 C 0.79214 0.8544 0.58404 0.0
O222 O 0.79034 0.85723 0.50236 0.0
O223 O 0.78534 0.8436 0.56339 0.0
C224 C 0.95869 0.00735 0.30727 0.0
O225 O 0.96774 0.99425 0.2948 0.0
Cd226 Cd 0.95764 0.98298 0.25321 0.0
O227 O 0.9434 0.01593 0.29774 0.0
Cd228 Cd 0.92408 0.01295 0.25606 0.0
C229 C 0.90287 0.95818 0.25397 0.0
O230 O 0.95671 0.01525 0.23429 0.0
O231 O 0.92396 0.00673 0.21322 0.0
O232 O 0.9239 0.05205 0.26616 0.0
C233 C 0.94513 0.01232 0.21404 0.0
O234 O 0.92266 0.95584 0.25138 0.0
C235 C 0.90328 0.04995 0.25829 0.0
O236 O 0.89838 0.97731 0.25672 0.0
O237 O 0.89224 0.03054 0.24987 0.0
C238 C 0.30051 0.59468 0.56974 0.0
O239 O 0.28554 0.58069 0.57666 0.0
Cd240 Cd 0.24795 0.58661 0.57633 0.0
O241 O 0.29539 0.6105 0.56008 0.0
Cd242 Cd 0.26419 0.62597 0.54819 0.0
C243 C 0.26115 0.63967 0.60481 0.0
O244 O 0.2324 0.59504 0.53905 0.0
O245 O 0.22643 0.62793 0.54973 0.0
O246 O 0.27004 0.62727 0.50761 0.0
C247 C 0.21862 0.60775 0.54129 0.0
O248 O 0.2527 0.61943 0.60548 0.0
C249 C 0.27351 0.64821 0.50944 0.0
O250 O 0.26795 0.6463 0.58635 0.0
O251 O 0.27368 0.65894 0.52978 0.0
C252 C 0.45741 0.50398 0.80866 0.0
O253 O 0.46409 0.48921 0.79579 0.0
Cd254 Cd 0.45431 0.48061 0.75353 0.0
O255 O 0.44398 0.51477 0.79948 0.0
Cd256 Cd 0.4237 0.5114 0.75826 0.0
C257 C 0.40039 0.45629 0.75357 0.0
O258 O 0.45601 0.51362 0.73533 0.0
O259 O 0.42299 0.50597 0.71499 0.0
O260 O 0.42406 0.55058 0.76958 0.0
C261 C 0.44412 0.51143 0.71533 0.0
O262 O 0.41885 0.45358 0.74673 0.0
C263 C 0.40357 0.5491 0.7616 0.0
O264 O 0.39789 0.47567 0.76097 0.0
O265 O 0.39224 0.52995 0.75252 0.0
C266 C 0.6448 0.04612 0.77757 0.0
O267 O 0.63363 0.05419 0.76232 0.0
Cd268 Cd 0.6393 0.0583 0.7231 0.0
O269 O 0.66185 0.03856 0.77286 0.0
Cd270 Cd 0.68079 0.03837 0.73762 0.0
C271 C 0.69082 0.09193 0.74205 0.0
O272 O 0.65084 0.02683 0.70653 0.0
O273 O 0.68144 0.04625 0.69769 0.0
O274 O 0.68438 0.00163 0.73646 0.0
C275 C 0.66226 0.03363 0.69084 0.0
O276 O 0.67136 0.08885 0.73019 0.0
C277 C 0.70559 0.00606 0.73717 0.0
O278 O 0.6982 0.07616 0.74972 0.0
O279 O 0.7157 0.02627 0.73971 0.0
C280 C 0.7973 0.64354 0.01707 0.0
O281 O 0.78364 0.63054 0.02676 0.0
Cd282 Cd 0.74804 0.63558 0.03631 0.0
O283 O 0.7925 0.6609 0.01028 0.0
Cd284 Cd 0.75932 0.67793 0.00647 0.0
C285 C 0.76173 0.68985 0.06627 0.0
O286 O 0.73276 0.64337 8e-05 0.0
O287 O 0.7176 0.67158 0.00449 0.0
O288 O 0.76557 0.67646 0.96565 0.0
C289 C 0.71502 0.65067 0.00068 0.0
O290 O 0.75411 0.66913 0.06526 0.0
C291 C 0.76643 0.69672 0.96437 0.0
O292 O 0.76698 0.69815 0.0479 0.0
O293 O 0.76422 0.7089 0.9831 0.0
C294 C 0.91715 0.50816 0.84092 0.0
O295 O 0.92648 0.50063 0.82397 0.0
Cd296 Cd 0.91563 0.499 0.78292 0.0
O297 O 0.90003 0.51653 0.83716 0.0
Cd298 Cd 0.87714 0.5225 0.80222 0.0
C299 C 0.86298 0.46811 0.78334 0.0
O300 O 0.90673 0.53367 0.77966 0.0
O301 O 0.87382 0.52422 0.75943 0.0
O302 O 0.87502 0.55817 0.8218 0.0
C303 C 0.89472 0.53179 0.75993 0.0
O304 O 0.88163 0.46993 0.77509 0.0
C305 C 0.85377 0.55502 0.8171 0.0
O306 O 0.85799 0.48435 0.79571 0.0
O307 O 0.84326 0.53594 0.80678 0.0
C308 C 0.83451 0.46185 0.49313 0.0
O309 O 0.8258 0.47571 0.48311 0.0
Cd310 Cd 0.78798 0.46481 0.46342 0.0
O311 O 0.82287 0.44373 0.49663 0.0
Cd312 Cd 0.78525 0.42407 0.49366 0.0
C313 C 0.79138 0.41321 0.43757 0.0
O314 O 0.76452 0.45204 0.49112 0.0
O315 O 0.74623 0.41801 0.47914 0.0
O316 O 0.79209 0.42608 0.53584 0.0
C317 C 0.74613 0.43846 0.48283 0.0
O318 O 0.78886 0.43265 0.43529 0.0
C319 C 0.7862 0.40531 0.53535 0.0
O320 O 0.79195 0.40638 0.45747 0.0
O321 O 0.77988 0.39328 0.51524 0.0
C322 C 0.59777 0.55059 0.33021 0.0
O323 O 0.58758 0.5619 0.3177 0.0
Cd324 Cd 0.59616 0.56998 0.27947 0.0
O325 O 0.61359 0.54248 0.32244 0.0
Cd326 Cd 0.63106 0.54309 0.28457 0.0
C327 C 0.65055 0.59851 0.2897 0.0
O328 O 0.59748 0.53708 0.25317 0.0
O329 O 0.63039 0.54497 0.24242 0.0
O330 O 0.63509 0.50514 0.28763 0.0
C331 C 0.60929 0.53944 0.23643 0.0
O332 O 0.63006 0.59907 0.28383 0.0
C333 C 0.65612 0.50923 0.28671 0.0
O334 O 0.65594 0.58034 0.29303 0.0
O335 O 0.66534 0.52897 0.28499 0.0
C336 C 0.98359 0.96556 0.981 0.0
C337 C 0.966 0.94298 0.00824 0.0
C338 C 0.97825 0.96334 0.00365 0.0
C339 C 0.95891 0.92507 0.98981 0.0
C340 C 0.97664 0.94747 0.96255 0.0
C341 C 0.96418 0.92731 0.96705 0.0
N342 N 0.9951 0.98549 0.97691 0.0
C343 C 0.0003 0.98834 0.95484 0.0
C344 C 0.98208 0.95027 0.93997 0.0
C345 C 0.99404 0.97074 0.93615 0.0
Gd346 Gd 0.05936 0.0429 0.04334 0.0
Gd347 Gd 0.0001 0.01447 0.00851 0.0
N348 N 0.98498 0.98108 0.02116 0.0
C349 C 0.96091 0.94131 0.03115 0.0
C350 C 0.97935 0.9797 0.04328 0.0
C351 C 0.96764 0.95976 0.04874 0.0
H352 H 0.98313 0.99399 0.05657 0.0
H353 H 0.96334 0.9588 0.06638 0.0
H354 H 0.08347 0.05795 -0.00343 0.0
H355 H 0.00827 0.00438 0.95123 0.0
H356 H 0.10384 0.09172 0.98425 0.0
H357 H 0.9515 0.92597 0.03535 0.0
H358 H 0.94924 0.90941 0.99296 0.0
H359 H 0.04816 0.05765 0.09853 0.0
H360 H 0.97692 0.93679 0.92532 0.0
H361 H -0.00202 0.97314 0.91865 0.0
H362 H 0.10992 0.14741 0.05131 0.0
H363 H 0.95847 0.91334 0.953 0.0
H364 H 0.07777 0.12627 0.11929 0.0
H365 H 0.05661 0.09097 0.12843 0.0
N366 N 0.06216 0.07413 0.0717 0.0
C367 C 0.074 0.09336 0.06631 0.0
C368 C 0.05598 0.07314 0.09369 0.0
C369 C 0.07332 0.11182 0.10572 0.0
C370 C 0.06128 0.09196 0.11093 0.0
C371 C 0.07993 0.11271 0.08328 0.0
H372 H 0.09767 0.14707 0.09053 0.0
N373 N 0.07595 0.07441 0.02824 0.0
C374 C 0.08098 0.09353 0.04401 0.0
C375 C 0.10163 0.11251 0.01635 0.0
C376 C 0.09399 0.11308 0.03842 0.0
C377 C 0.08469 0.0735 0.00745 0.0
C378 C 0.09708 0.09258 0.00087 0.0
O379 O 0.02168 0.98948 0.01784 0.0
O380 O 0.04862 0.00691 0.04952 0.0
O381 O 0.09318 0.03956 0.03894 0.0
O382 O 0.08444 0.04733 0.07403 0.0
O383 O 0.00191 0.03233 0.04581 0.0
O384 O 0.03463 0.02713 0.06525 0.0
O385 O 0.03597 0.06677 0.03518 0.0
O386 O 0.01346 0.04949 0.00062 0.0
O387 O 0.96842 0.02165 0.01701 0.0
O388 O 0.9722 0.01038 0.98077 0.0
O389 O 0.05815 0.02435 0.00613 0.0
O390 O 0.02541 0.02991 0.98709 0.0
C391 C 0.03676 0.9887 0.03589 0.0
C392 C 0.01404 0.02995 0.06522 0.0
C393 C 0.11368 0.02816 0.07048 0.0
C394 C 0.14336 0.00852 0.06446 0.0
C395 C 0.12708 0.0085 0.10101 0.0
C396 C 0.11263 0.02149 0.09286 0.0
C397 C 0.14245 0.00199 0.08688 0.0
C398 C 0.12922 0.0218 0.05658 0.0
C399 C 0.09988 0.04282 0.06167 0.0
C400 C 0.09973 0.13235 0.05526 0.0
C401 C 0.09278 0.13215 0.07761 0.0
H402 H 0.11174 0.12716 0.01145 0.0
C403 C 0.02322 0.06775 0.0154 0.0
C404 C 0.04557 0.02605 0.98669 0.0
C405 C 0.94631 0.03326 0.98658 0.0
C406 C 0.91773 0.05419 0.99333 0.0
C407 C 0.93123 0.05131 0.95534 0.0
C408 C 0.94571 0.03825 0.96336 0.0
C409 C 0.91714 0.05923 0.97027 0.0
C410 C 0.93236 0.04143 0.00145 0.0
C411 C 0.95927 0.01764 0.9949 0.0
H412 H 0.12632 0.00339 0.11824 0.0
H413 H 0.10087 0.02643 0.10412 0.0
H414 H 0.15328 0.99158 0.09322 0.0
H415 H 0.13046 0.02734 0.03954 0.0
H416 H 0.93053 0.05481 0.93737 0.0
H417 H 0.95599 0.03172 0.95126 0.0
H418 H 0.90539 0.06867 0.96369 0.0
H419 H 0.93212 0.0371 0.01912 0.0
C420 C 0.31032 0.73644 0.22124 0.0
C421 C 0.2799 0.71557 0.19139 0.0
C422 C 0.2885 0.73352 0.20982 0.0
C423 C 0.29361 0.70109 0.18433 0.0
C424 C 0.32391 0.72152 0.21463 0.0
C425 C 0.31555 0.70405 0.19592 0.0
N426 N 0.31796 0.75332 0.23945 0.0
C427 C 0.33883 0.7561 0.252 0.0
C428 C 0.34543 0.72442 0.22724 0.0
C429 C 0.35285 0.74171 0.2461 0.0
Gd430 Gd 0.25688 0.78065 0.30368 0.0
Gd431 Gd 0.29428 0.77784 0.24666 0.0
N432 N 0.27541 0.74757 0.2174 0.0
C433 C 0.25763 0.71245 0.18078 0.0
C434 C 0.25364 0.74444 0.2069 0.0
C435 C 0.24445 0.7269 0.18866 0.0
H436 H 0.243 0.75528 0.21199 0.0
H437 H 0.22717 0.72463 0.18056 0.0
H438 H 0.30475 0.79488 0.34381 0.0
H439 H 0.3449 0.76974 0.26625 0.0
H440 H 0.32487 0.82653 0.37288 0.0
H441 H 0.25043 0.69887 0.16662 0.0
H442 H 0.28729 0.68735 0.17013 0.0
H443 H 0.2061 0.79036 0.28877 0.0
H444 H 0.35636 0.71331 0.22269 0.0
H445 H 0.36945 0.74406 0.25599 0.0
H446 H 0.27422 0.87593 0.37565 0.0
H447 H 0.32581 0.69254 0.19049 0.0
H448 H 0.20241 0.85259 0.32725 0.0
H449 H 0.18485 0.81939 0.29795 0.0
N450 N 0.23542 0.80714 0.31213 0.0
C451 C 0.24525 0.82502 0.32861 0.0
C452 C 0.21398 0.80491 0.3013 0.0
C453 C 0.21182 0.83993 0.3232 0.0
C454 C 0.20186 0.82125 0.30661 0.0
C455 C 0.23375 0.84199 0.33447 0.0
H456 H 0.23591 0.87365 0.35601 0.0
N457 N 0.27764 0.80973 0.33318 0.0
C458 C 0.26703 0.82643 0.33933 0.0
C459 C 0.29897 0.84502 0.36829 0.0
C460 C 0.27759 0.84469 0.35672 0.0
C461 C 0.29764 0.80922 0.34591 0.0
C462 C 0.30884 0.827 0.36316 0.0
O463 O 0.28496 0.74588 0.25954 0.0
O464 O 0.25381 0.75402 0.27268 0.0
O465 O 0.25748 0.76287 0.3335 0.0
O466 O 0.2251 0.76432 0.31411 0.0
O467 O 0.25993 0.78711 0.23958 0.0
O468 O 0.23582 0.77571 0.26703 0.0
O469 O 0.26494 0.81284 0.29001 0.0
O470 O 0.29428 0.80154 0.27858 0.0
O471 O 0.29355 0.79792 0.21854 0.0
O472 O 0.3258 0.79387 0.23613 0.0
O473 O 0.29084 0.76943 0.30918 0.0
O474 O 0.3145 0.78517 0.28373 0.0
C475 C 0.26759 0.74061 0.27043 0.0
C476 C 0.23979 0.78343 0.24693 0.0
C477 C 0.22424 0.74445 0.34802 0.0
C478 C 0.22617 0.72195 0.37936 0.0
C479 C 0.19019 0.72835 0.36315 0.0
C480 C 0.20083 0.74118 0.34772 0.0
C481 C 0.20277 0.71861 0.37882 0.0
C482 C 0.23687 0.73494 0.36408 0.0
C483 C 0.23564 0.75767 0.33173 0.0
C484 C 0.2663 0.86176 0.36244 0.0
C485 C 0.24445 0.86042 0.35132 0.0
H486 H 0.3076 0.85868 0.3818 0.0
C487 C 0.28225 0.81639 0.27896 0.0
C488 C 0.31098 0.7745 0.30202 0.0
C489 C 0.3274 0.81597 0.20438 0.0
C490 C 0.32647 0.83714 0.17195 0.0
C491 C 0.36216 0.83214 0.19053 0.0
C492 C 0.35096 0.8197 0.20591 0.0
C493 C 0.34996 0.84086 0.17356 0.0
C494 C 0.31521 0.82478 0.18733 0.0
C495 C 0.3154 0.80214 0.21972 0.0
H496 H 0.17216 0.7259 0.36293 0.0
H497 H 0.1908 0.74855 0.33562 0.0
H498 H 0.19431 0.70866 0.39068 0.0
H499 H 0.25496 0.7373 0.36452 0.0
H500 H 0.38029 0.83485 0.19163 0.0
H501 H 0.36069 0.81283 0.21879 0.0
H502 H 0.35877 0.85027 0.1615 0.0
H503 H 0.297 0.82183 0.18574 0.0
C504 C 0.58216 0.07226 0.48846 0.0
C505 C 0.60891 0.09553 0.52061 0.0
C506 C 0.59231 0.0761 0.51195 0.0
C507 C 0.61465 0.11133 0.50573 0.0
C508 C 0.58889 0.08764 0.4732 0.0
C509 C 0.60473 0.10736 0.48208 0.0
N510 N 0.56693 0.05295 0.48015 0.0
C511 C 0.55986 0.04709 0.45637 0.0
C512 C 0.5802 0.0824 0.44919 0.0
C513 C 0.56598 0.06186 0.44068 0.0
Gd514 Gd 0.49521 0.02168 0.54176 0.0
Gd515 Gd 0.55836 0.02987 0.50882 0.0
N516 N 0.58663 0.06054 0.52609 0.0
C517 C 0.61971 0.09827 0.54385 0.0
C518 C 0.59838 0.06234 0.54798 0.0
C519 C 0.61469 0.0814 0.55745 0.0
H520 H 0.59586 0.04879 0.55775 0.0
H521 H 0.6237 0.08284 0.57503 0.0
H522 H 0.45528 9e-05 0.49632 0.0
H523 H 0.54975 0.03084 0.4492 0.0
H524 H 0.42656 0.96555 0.48315 0.0
H525 H 0.63253 0.11295 0.55113 0.0
H526 H 0.62723 0.1264 0.51215 0.0
H527 H 0.51268 0.02219 0.60113 0.0
H528 H 0.58509 0.09373 0.43692 0.0
H529 H 0.56 0.05725 0.42197 0.0
H530 H 0.43228 0.92458 0.54776 0.0
H531 H 0.60988 0.11941 0.47063 0.0
H532 H 0.48285 0.95911 0.61749 0.0
H533 H 0.50804 0.99598 0.6293 0.0
N534 N 0.49254 -0.00049 0.57198 0.0
C535 C 0.4775 0.97967 0.56546 0.0
C536 C 0.50265 0.00576 0.59492 0.0
C537 C 0.48536 0.97029 0.60459 0.0
C538 C 0.49965 0.99107 0.61131 0.0
C539 C 0.47364 0.96456 0.58167 0.0
H540 H 0.45464 0.93277 0.58713 0.0
N541 N 0.46831 0.98951 0.52746 0.0
C542 C 0.4648 0.97479 0.54294 0.0
C543 C 0.43472 0.95148 0.51446 0.0
C544 C 0.44811 0.95509 0.53653 0.0
C545 C 0.45417 0.98697 0.50685 0.0
C546 C 0.43751 0.96769 0.49973 0.0
O547 O 0.54961 0.0622 0.52694 0.0
O548 O 0.51563 0.05769 0.54444 0.0
O549 O 0.46968 0.03759 0.526 0.0
O550 O 0.47021 0.03043 0.56211 0.0
O551 O 0.54402 0.0174 0.54032 0.0
O552 O 0.52628 0.03313 0.56769 0.0
O553 O 0.50161 0.98947 0.52111 0.0
O554 O 0.53635 0.99482 0.50576 0.0
O555 O 0.58801 0.01638 0.52022 0.0
O556 O 0.57335 0.01255 0.48288 0.0
O557 O 0.51504 0.0286 0.51364 0.0
O558 O 0.52883 0.02631 0.481 0.0
C559 C 0.53412 0.07009 0.53832 0.0
C560 C 0.54502 0.0294 0.56087 0.0
C561 C 0.45389 0.06004 0.55359 0.0
C562 C 0.42614 0.08275 0.55008 0.0
C563 C 0.45331 0.08927 0.58556 0.0
C564 C 0.46286 0.07223 0.57606 0.0
C565 C 0.43488 0.09438 0.57276 0.0
C566 C 0.43574 0.06566 0.54042 0.0
C567 C 0.4607 0.03937 0.54555 0.0
C568 C 0.44491 0.93986 0.55246 0.0
C569 C 0.45768 0.94454 0.57489 0.0
H570 H 0.42167 0.9366 0.50898 0.0
C571 C 0.51744 0.98206 0.51011 0.0
C572 C 0.51114 0.02678 0.49102 0.0
C573 C 0.60484 0.99557 0.48978 0.0
C574 C 0.63631 0.97753 0.49636 0.0
C575 C 0.61758 0.97558 0.45658 0.0
C576 C 0.60303 0.98809 0.46535 0.0
C577 C 0.63418 0.97038 0.47195 0.0
C578 C 0.62153 0.99006 0.5054 0.0
C579 C 0.58859 0.00833 0.49821 0.0
H580 H 0.45987 0.09819 0.60311 0.0
H581 H 0.47671 0.06808 0.58667 0.0
H582 H 0.42728 0.10731 0.58061 0.0
H583 H 0.42836 0.05604 0.52334 0.0
H584 H 0.61598 0.96989 0.43778 0.0
H585 H 0.59026 0.9918 0.45287 0.0
H586 H 0.64537 0.96061 0.46479 0.0
H587 H 0.6231 0.99552 0.52426 0.0
C588 C 0.22379 0.29911 0.72502 0.0
C589 C 0.19945 0.26548 0.7028 0.0
C590 C 0.21468 0.27645 0.72292 0.0
C591 C 0.19324 0.27753 0.68508 0.0
C592 C 0.21769 0.31116 0.70712 0.0
C593 C 0.20233 0.30027 0.68723 0.0
N594 N 0.23901 0.30923 0.74423 0.0
C595 C 0.24791 0.33142 0.74719 0.0
C596 C 0.22731 0.33381 0.7097 0.0
C597 C 0.2424 0.34399 0.72986 0.0
Gd598 Gd 0.30651 0.26648 0.77451 0.0
Gd599 Gd 0.24592 0.28672 0.77245 0.0
N600 N 0.22147 0.265 0.74004 0.0
C601 C 0.19112 0.24265 0.70092 0.0
C602 C 0.21318 0.2428 0.73844 0.0
C603 C 0.198 0.23129 0.71882 0.0
H604 H 0.21797 0.23385 0.75225 0.0
H605 H 0.19152 0.21366 0.71756 0.0
H606 H 0.34164 0.3159 0.78711 0.0
H607 H 0.25892 0.33964 0.76308 0.0
H608 H 0.37011 0.33758 0.81992 0.0
H609 H 0.17939 0.23364 0.68573 0.0
H610 H 0.18153 0.26936 0.66952 0.0
H611 H 0.30012 0.21315 0.78315 0.0
H612 H 0.22306 0.34362 0.69632 0.0
H613 H 0.24962 0.36156 0.73218 0.0
H614 H 0.37556 0.28668 0.87532 0.0
H615 H 0.19744 0.30928 0.67332 0.0
H616 H 0.33465 0.21169 0.85144 0.0
H617 H 0.31009 0.19221 0.81478 0.0
N618 N 0.31701 0.24451 0.80251 0.0
C619 C 0.33169 0.25524 0.8218 0.0
C620 C 0.31005 0.222 0.79943 0.0
C621 C 0.32991 0.22105 0.8378 0.0
C622 C 0.31601 0.21 0.81717 0.0
C623 C 0.33837 0.24388 0.8401 0.0
H624 H 0.35894 0.24711 0.87403 0.0
N625 N 0.33501 0.28745 0.80404 0.0
C626 C 0.34119 0.27739 0.82249 0.0
C627 C 0.36757 0.31102 0.84076 0.0
C628 C 0.35741 0.28896 0.84154 0.0
C629 C 0.34578 0.3085 0.80248 0.0
C630 C 0.36197 0.32072 0.82096 0.0
O631 O 0.25963 0.27884 0.73779 0.0
O632 O 0.27612 0.25138 0.74786 0.0
O633 O 0.3307 0.27712 0.75054 0.0
O634 O 0.32322 0.24322 0.75659 0.0
O635 O 0.24567 0.25421 0.78555 0.0
O636 O 0.27619 0.23887 0.77628 0.0
O637 O 0.3013 0.28935 0.80652 0.0
O638 O 0.26308 0.27951 0.80658 0.0
O639 O 0.21178 0.27889 0.78202 0.0
O640 O 0.23259 0.31257 0.79129 0.0
O641 O 0.30053 0.29681 0.75904 0.0
O642 O 0.27775 0.31368 0.78117 0.0
C643 C 0.26893 0.26215 0.73167 0.0
C644 C 0.25636 0.2378 0.78384 0.0
C645 C 0.35931 0.25631 0.74627 0.0
C646 C 0.39303 0.26042 0.72654 0.0
C647 C 0.39114 0.24153 0.76091 0.0
C648 C 0.36962 0.24523 0.7627 0.0
C649 C 0.40277 0.24902 0.74293 0.0
C650 C 0.37119 0.26401 0.72818 0.0
C651 C 0.33547 0.25771 0.74635 0.0
C652 C 0.3633 0.27803 0.86039 0.0
C653 C 0.3538 0.25551 0.85967 0.0
H654 H 0.38011 0.3205 0.85505 0.0
C655 C 0.28345 0.28835 0.81749 0.0
C656 C 0.2956 0.31469 0.77007 0.0
C657 C 0.19494 0.30704 0.80252 0.0
C658 C 0.16391 0.30261 0.82631 0.0
C659 C 0.17214 0.33465 0.80612 0.0
C660 C 0.18997 0.32704 0.79727 0.0
C661 C 0.15928 0.32262 0.8206 0.0
C662 C 0.18165 0.29459 0.81691 0.0
C663 C 0.21339 0.29917 0.79193 0.0
H664 H 0.39876 0.23262 0.77336 0.0
H665 H 0.36085 0.23896 0.77664 0.0
H666 H 0.4194 0.24582 0.74172 0.0
H667 H 0.36336 0.27233 0.71521 0.0
H668 H 0.16831 0.35 0.80177 0.0
H669 H 0.19969 0.33662 0.78598 0.0
H670 H 0.14563 0.32897 0.82746 0.0
H671 H 0.18531 0.27909 0.82108 0.0
C672 C 0.00873 0.07943 0.57582 0.0
C673 C 0.04424 0.10111 0.59716 0.0
C674 C 0.03189 0.08666 0.57713 0.0
C675 C 0.03305 0.10795 0.61588 0.0
C676 C 0.99741 0.08641 0.59448 0.0
C677 C 0.0097 0.10064 0.61454 0.0
N678 N 0.99727 0.06559 0.55627 0.0
C679 C 0.97448 0.05847 0.55399 0.0
C680 C 0.97403 0.07895 0.59238 0.0
C681 C 0.96251 0.06499 0.57199 0.0
Gd682 Gd 0.0415 0.99827 0.52099 0.0
Gd683 Gd 0.01866 0.05581 0.52693 0.0
N684 N 0.04231 0.07958 0.5588 0.0
C685 C 0.06744 0.10851 0.59764 0.0
C686 C 0.06464 0.08779 0.55863 0.0
C687 C 0.07763 0.10201 0.57816 0.0
H688 H 0.0724 0.08401 0.5433 0.0
H689 H 0.09542 0.10824 0.57801 0.0
H690 H 0.98992 0.96698 0.50246 0.0
H691 H 0.96548 0.0483 0.53796 0.0
H692 H 0.97091 0.93796 0.46925 0.0
H693 H 0.07753 0.11964 0.61269 0.0
H694 H 0.04228 0.11904 0.63141 0.0
H695 H 0.09547 0.01321 0.51136 0.0
H696 H 0.96471 0.08402 0.60629 0.0
H697 H 0.94441 0.05938 0.57004 0.0
H698 H 0.02831 0.93139 0.41986 0.0
H699 H 0.00129 0.10617 0.62906 0.0
H700 H 0.10178 0.97756 0.44483 0.0
H701 H 0.11859 0.00496 0.48034 0.0
N702 N 0.06533 0.99205 0.49277 0.0
C703 C 0.05587 0.97653 0.47367 0.0
C704 C 0.08765 0.00193 0.49552 0.0
C705 C 0.09139 0.98146 0.45817 0.0
C706 C 0.10093 0.997 0.47815 0.0
C707 C 0.06868 0.97082 0.45584 0.0
H708 H 0.0681 0.95004 0.42253 0.0
N709 N 0.02109 0.9727 0.48894 0.0
C710 C 0.03329 0.96618 0.47199 0.0
C711 C 0.00044 0.93942 0.45175 0.0
C712 C 0.02316 0.9496 0.45271 0.0
C713 C -0.00088 0.96254 0.48838 0.0
C714 C 0.9884 0.94588 0.46971 0.0
O715 O 0.02654 0.04146 0.56063 0.0
O716 O 0.05563 0.02502 0.5521 0.0
O717 O 0.03179 0.97042 0.54107 0.0
O718 O 0.06554 0.97921 0.53107 0.0
O719 O 0.0493 0.05325 0.50864 0.0
O720 O 0.06722 0.03047 0.52852 0.0
O721 O 0.02858 0.00926 0.48654 0.0
O722 O 0.00269 0.03026 0.49568 0.0
O723 O 0.0289 0.08429 0.50807 0.0
O724 O 0.99431 0.07411 0.51527 0.0
O725 O 0.00945 -0.00154 0.53702 0.0
O726 O 0.99166 0.02416 0.52135 0.0
C727 C 0.04368 0.03285 0.56732 0.0
C728 C 0.06759 0.04652 0.51571 0.0
C729 C 0.05902 0.94695 0.55064 0.0
C730 C 0.05446 0.91626 0.57381 0.0
C731 C 0.08607 0.92316 0.55169 0.0
C732 C 0.07863 0.94098 0.54376 0.0
C733 C 0.07415 0.91093 0.56662 0.0
C734 C 0.04672 0.93431 0.56569 0.0
C735 C 0.05162 0.96573 0.54089 0.0
C736 C 0.03587 0.94394 0.43491 0.0
C737 C 0.05853 0.95459 0.43641 0.0
H738 H 0.99204 0.92662 0.43724 0.0
C739 C 0.01292 0.02009 0.48033 0.0
C740 C 0.9913 0.00584 0.53084 0.0
C741 C 0.00104 0.10547 0.49406 0.0
C742 C 0.00743 0.13737 0.47268 0.0
C743 C 0.96995 0.12211 0.48109 0.0
C744 C 0.9781 0.10625 0.49233 0.0
C745 C 0.98446 0.13754 0.47135 0.0
C746 C 0.01584 0.12122 0.48408 0.0
C747 C 0.00849 0.08775 0.50591 0.0
H748 H 0.10115 0.91877 0.54617 0.0
H749 H 0.08824 0.95 0.53197 0.0
H750 H 0.08028 0.89713 0.57257 0.0
H751 H 0.03147 0.93847 0.57105 0.0
H752 H 0.95225 0.12244 0.4799 0.0
H753 H 0.96625 0.09446 0.49962 0.0
H754 H 0.97771 0.14975 0.4627 0.0
H755 H 0.03356 0.12093 0.48511 0.0
C756 C 0.23634 0.72372 0.81085 0.0
C757 C 0.2087 0.69922 0.78038 0.0
C758 C 0.22927 0.71488 0.78714 0.0
C759 C 0.19482 0.69349 0.79748 0.0
C760 C 0.22289 0.71701 0.82818 0.0
C761 C 0.20187 0.7024 0.8213 0.0
N762 N 0.25692 0.73761 0.81714 0.0
C763 C 0.26602 0.7432 0.84045 0.0
C764 C 0.23133 0.72448 0.85203 0.0
C765 C 0.25316 0.73725 0.8582 0.0
Gd766 Gd 0.28476 0.81119 0.75594 0.0
Gd767 Gd 0.27582 0.74762 0.78526 0.0
N768 N 0.2429 0.72074 0.77081 0.0
C769 C 0.20286 0.68943 0.75667 0.0
C770 C 0.23771 0.71051 0.74791 0.0
C771 C 0.21759 0.69489 0.74043 0.0
H772 H 0.24912 0.71417 0.73546 0.0
H773 H 0.21354 0.68701 0.72217 0.0
H774 H 0.30603 0.8517 0.80033 0.0
H775 H 0.28311 0.75268 0.8454 0.0
H776 H 0.34172 0.87918 0.81395 0.0
H777 H 0.18726 0.6773 0.75083 0.0
H778 H 0.17884 0.68176 0.79254 0.0
H779 H 0.28434 0.7952 0.69569 0.0
H780 H 0.22147 0.71974 0.86583 0.0
H781 H 0.26016 0.74237 0.87662 0.0
H782 H 0.38573 0.86949 0.75098 0.0
H783 H 0.19123 0.69733 0.83437 0.0
H784 H 0.35034 0.82047 0.6806 0.0
H785 H 0.31186 0.79803 0.66795 0.0
N786 N 0.30773 0.81329 0.72552 0.0
C787 C 0.3284 0.82713 0.73239 0.0
C788 C 0.30138 0.80395 0.70229 0.0
C789 C 0.33853 0.81869 0.69332 0.0
C790 C 0.31685 0.80595 0.68613 0.0
C791 C 0.34434 0.83003 0.71642 0.0
H792 H 0.37764 0.84707 0.71156 0.0
N793 N 0.31769 0.83727 0.7701 0.0
C794 C 0.33326 0.83976 0.75496 0.0
C795 C 0.35704 0.86932 0.78348 0.0
C796 C 0.35371 0.85555 0.76162 0.0
C797 C 0.3199 0.85192 0.79031 0.0
C798 C 0.33983 0.86783 0.79765 0.0
O799 O 0.2435 0.7564 0.76666 0.0
O800 O 0.24821 0.7912 0.75251 0.0
O801 O 0.26751 0.8356 0.77233 0.0
O802 O 0.27746 0.83692 0.73721 0.0
O803 O 0.28926 0.76357 0.7552 0.0
O804 O 0.27352 0.78134 0.72875 0.0
O805 O 0.31642 0.8045 0.77711 0.0
O806 O 0.31133 0.77035 0.79215 0.0
O807 O 0.28473 0.71719 0.76959 0.0
O808 O 0.30028 0.73402 0.80467 0.0
O809 O 0.27753 0.7909 0.78339 0.0
O810 O 0.27502 0.77484 0.81418 0.0
C811 C 0.23557 0.77233 0.75689 0.0
C812 C 0.27779 0.76289 0.73457 0.0
C813 C 0.24706 0.85297 0.74486 0.0
C814 C 0.2254 0.8816 0.74746 0.0
C815 C 0.21923 0.85458 0.71194 0.0
C816 C 0.23545 0.8444 0.72204 0.0
C817 C 0.21433 0.87323 0.72452 0.0
C818 C 0.24171 0.87144 0.75767 0.0
C819 C 0.26731 0.84553 0.7536 0.0
C820 C 0.36984 0.85761 0.74605 0.0
C821 C 0.36522 0.84483 0.72359 0.0
H822 H 0.37244 0.88177 0.78912 0.0
C823 C 0.32397 0.78929 0.78825 0.0
C824 C 0.2761 0.79308 0.80569 0.0
C825 C 0.29984 0.69615 0.79692 0.0
C826 C 0.31852 0.66526 0.79755 0.0
C827 C 0.29573 0.6734 0.8281 0.0
C828 C 0.29076 0.6911 0.81748 0.0
C829 C 0.30976 0.66066 0.81835 0.0
C830 C 0.31338 0.6829 0.78674 0.0
C831 C 0.2988 0.71713 0.78833 0.0
H832 H 0.21078 0.84829 0.69416 0.0
H833 H 0.23951 0.83036 0.71164 0.0
H834 H 0.20198 0.88123 0.71634 0.0
H835 H 0.25086 0.87847 0.77506 0.0
H836 H 0.28908 0.66982 0.84419 0.0
H837 H 0.28054 0.7013 0.82579 0.0
H838 H 0.31376 0.64719 0.82698 0.0
H839 H 0.3208 0.68696 0.77114 0.0
C840 C 0.57345 0.9948 0.08148 0.0
C841 C 0.59003 0.02288 0.11534 0.0
C842 C 0.57303 0.01414 0.09602 0.0
C843 C 0.6079 0.01218 0.11939 0.0
C844 C 0.59077 0.98343 0.08615 0.0
C845 C 0.60823 0.99245 0.10487 0.0
N846 N 0.55653 0.98677 0.06325 0.0
C847 C 0.55486 0.96642 0.05036 0.0
C848 C 0.58982 0.96317 0.0721 0.0
C849 C 0.57158 0.95446 0.05441 0.0
Gd850 Gd 0.5278 0.0452 0.99427 0.0
Gd851 Gd 0.53104 0.00973 0.05634 0.0
N852 N 0.55575 0.02428 0.09134 0.0
C853 C 0.58834 0.04191 0.13016 0.0
C854 C 0.55301 0.04168 0.10677 0.0
C855 C 0.56948 0.05108 0.12613 0.0
H856 H 0.53806 0.04825 0.10431 0.0
H857 H 0.56756 0.0653 0.13798 0.0
H858 H 0.52082 0.00328 0.94684 0.0
H859 H 0.54058 0.95913 0.03706 0.0
H860 H 0.49085 0.98417 0.91507 0.0
H861 H 0.60111 0.04923 0.14514 0.0
H862 H 0.62129 0.01877 0.13397 0.0
H863 H 0.5186 0.09574 0.00781 0.0
H864 H 0.60276 0.95387 0.07515 0.0
H865 H 0.57033 0.93848 0.04391 0.0
H866 H 0.43703 0.03042 0.91494 0.0
H867 H 0.62186 0.98411 0.10851 0.0
H868 H 0.4569 0.09954 0.96735 0.0
H869 H 0.48947 0.11663 -0.00203 0.0
N870 N 0.50272 0.06717 0.98306 0.0
C871 C 0.48543 0.05781 0.96574 0.0
C872 C 0.50452 0.08815 0.99436 0.0
C873 C 0.46967 0.09033 0.97157 0.0
C874 C 0.48805 0.10005 0.98883 0.0
C875 C 0.46827 0.06901 0.95964 0.0
H876 H 0.43706 0.06697 0.93685 0.0
N877 N 0.50321 0.02796 0.95904 0.0
C878 C 0.48553 0.03739 0.95346 0.0
C879 C 0.46988 0.0076 0.92128 0.0
C880 C 0.46831 0.02743 0.9346 0.0
C881 C 0.50578 0.00971 0.94456 0.0
C882 C 0.48895 -0.00103 0.92597 0.0
O883 O 0.56528 0.02927 0.05378 0.0
O884 O 0.54328 0.03307 0.02377 0.0
O885 O 0.55635 0.04595 0.9755 0.0
O886 O 0.55044 0.07659 0.99294 0.0
O887 O 0.52606 0.04583 0.06229 0.0
O888 O 0.52903 0.0663 0.03004 0.0
O889 O 0.49588 0.03731 0.00977 0.0
O890 O 0.50705 0.00893 0.02389 0.0
O891 O 0.50507 0.01103 0.0789 0.0
O892 O 0.51238 0.9795 0.06563 0.0
O893 O 0.53191 0.00921 0.98708 0.0
O894 O 0.53186 0.98954 0.01987 0.0
C895 C 0.56352 0.03775 0.03471 0.0
C896 C 0.52676 0.06427 0.05248 0.0
C897 C 0.56678 0.07738 0.9575 0.0
C898 C 0.57811 0.07363 0.91845 0.0
C899 C 0.56774 0.10749 0.93446 0.0
C900 C 0.56371 0.09879 0.95517 0.0
C901 C 0.5747 0.09488 0.91602 0.0
C902 C 0.57447 0.06511 0.93923 0.0
C903 C 0.56217 0.06745 0.97868 0.0
C904 C 0.45052 0.03794 0.92917 0.0
C905 C 0.45055 0.05876 0.94161 0.0
H906 H 0.45696 -0.00065 0.90675 0.0
C907 C 0.4923 0.02126 0.02242 0.0
C908 C 0.53296 0.9912 -0.00293 0.0
C909 C 0.5004 0.98331 0.1033 0.0
C910 C 0.48295 0.98404 0.13912 0.0
C911 C 0.51151 0.96265 0.13396 0.0
C912 C 0.51377 0.96935 0.11192 0.0
C913 C 0.49603 0.96985 0.14752 0.0
C914 C 0.48516 0.99074 0.1171 0.0
C915 C 0.50142 0.98987 0.07979 0.0
H916 H 0.56539 0.12397 0.93266 0.0
H917 H 0.55815 0.10874 0.96922 0.0
H918 H 0.57775 0.10181 0.90003 0.0
H919 H 0.57726 0.04869 0.9409 0.0
H920 H 0.52171 0.95181 0.14051 0.0
H921 H 0.52581 0.96351 0.10165 0.0
H922 H 0.49439 0.96456 0.16458 0.0
H923 H 0.47481 0.00155 0.11059 0.0
C924 C 0.34389 0.32273 0.317 0.0
C925 C 0.36534 0.3458 0.29259 0.0
C926 C 0.34504 0.33208 0.29624 0.0
C927 C 0.38443 0.34964 0.30965 0.0
C928 C 0.36297 0.32721 0.33446 0.0
C929 C 0.38323 0.34045 0.33054 0.0
N930 N 0.32393 0.31027 0.3207 0.0
C931 C 0.32175 0.30295 0.34188 0.0
C932 C 0.36098 0.31888 0.35576 0.0
C933 C 0.34023 0.30687 0.35955 0.0
Gd934 Gd 0.26385 0.24772 0.25654 0.0
Gd935 Gd 0.29377 0.30718 0.29067 0.0
N936 N 0.32624 0.32853 0.28007 0.0
C937 C 0.36576 0.35579 0.27216 0.0
C938 C 0.32623 0.33964 0.26103 0.0
C939 C 0.34604 0.35289 0.25645 0.0
H940 H 0.31084 0.33894 0.24959 0.0
H941 H 0.34595 0.36129 0.2411 0.0
H942 H 0.24793 0.22362 0.30261 0.0
H943 H 0.30565 0.29503 0.34582 0.0
H944 H 0.21392 0.20115 0.31377 0.0
H945 H 0.38103 0.36638 0.26875 0.0
H946 H 0.40011 0.36012 0.3071 0.0
H947 H 0.25203 0.25051 0.19848 0.0
H948 H 0.37519 0.32216 0.36965 0.0
H949 H 0.33833 0.30106 0.37631 0.0
H950 H 0.15994 0.18819 0.24387 0.0
H951 H 0.398 0.34403 0.34378 0.0
H952 H 0.18374 0.21657 0.17516 0.0
H953 H 0.2198 0.238 0.16675 0.0
N954 N 0.23391 0.23791 0.22515 0.0
C955 C 0.21452 0.22537 0.22991 0.0
C956 C 0.23609 0.24197 0.20262 0.0
C957 C 0.19768 0.22247 0.18931 0.0
C958 C 0.21798 0.2346 0.1845 0.0
C959 C 0.19582 0.21747 0.21213 0.0
H960 H 0.16158 0.19813 0.20402 0.0
N961 N 0.23232 0.22629 0.26874 0.0
C962 C 0.2137 0.21942 0.25231 0.0
C963 C 0.19402 0.19968 0.28012 0.0
C964 C 0.19402 0.20589 0.25759 0.0
C965 C 0.23274 0.21936 0.29031 0.0
C966 C 0.21354 0.20632 0.2965 0.0
O967 O 0.31809 0.28443 0.28345 0.0
O968 O 0.29973 0.26161 0.24938 0.0
O969 O 0.27059 0.21565 0.26128 0.0
O970 O 0.27145 0.22711 0.2266 0.0
O971 O 0.29181 0.30209 0.25109 0.0
O972 O 0.25934 0.27631 0.23719 0.0
O973 O 0.23918 0.26254 0.27698 0.0
O974 O 0.25476 0.30032 0.28503 0.0
O975 O 0.28611 0.33846 0.28498 0.0
O976 O 0.29704 0.33277 0.32061 0.0
O977 O 0.28336 0.25176 0.29332 0.0
O978 O 0.27618 0.28347 0.31215 0.0
C979 C 0.31841 0.2709 0.26394 0.0
C980 C 0.27536 0.29267 0.2342 0.0
C981 C 0.2788 0.19078 0.22908 0.0
C982 C 0.29169 0.15747 0.23549 0.0
C983 C 0.28624 0.16667 0.19579 0.0
C984 C 0.27954 0.18582 0.20474 0.0
C985 C 0.29248 0.1526 0.21109 0.0
C986 C 0.28447 0.17639 0.24423 0.0
C987 C 0.27338 0.21144 0.2391 0.0
C988 C 0.17517 0.1986 0.24013 0.0
C989 C 0.1761 0.2043 0.21745 0.0
H990 H 0.17923 0.18935 0.28486 0.0
C991 C 0.23745 0.28317 0.28336 0.0
C992 C 0.2787 0.26316 0.31225 0.0
C993 C 0.27343 0.35805 0.31646 0.0
C994 C 0.25272 0.38658 0.31146 0.0
C995 C 0.25138 0.36903 0.34665 0.0
C996 C 0.26563 0.35576 0.3383 0.0
C997 C 0.24506 0.3846 0.33335 0.0
C998 C 0.26678 0.37333 0.30316 0.0
C999 C 0.28978 0.34619 0.30758 0.0
H1000 H 0.28697 0.16293 0.17705 0.0
H1001 H 0.27518 0.19681 0.1927 0.0
H1002 H 0.29834 0.13821 0.20389 0.0
H1003 H 0.28359 0.18009 0.26298 0.0
H1004 H 0.24549 0.36744 0.36353 0.0
H1005 H 0.27071 0.34404 0.349 0.0
H1006 H 0.23425 0.39502 0.34006 0.0
H1007 H 0.27323 0.3755 0.28656 0.0
C1008 C 0.50627 0.57802 0.07484 0.0
C1009 C 0.54012 0.60101 0.09842 0.0
C1010 C 0.52937 0.58671 0.07759 0.0
C1011 C 0.52741 0.60657 0.11626 0.0
C1012 C 0.49346 0.58375 0.09266 0.0
C1013 C 0.50415 0.59801 0.11337 0.0
N1014 N 0.49631 0.56407 0.05474 0.0
C1015 C 0.47358 0.55627 0.05072 0.0
C1016 C 0.4702 0.57512 0.08904 0.0
C1017 C 0.46021 0.56145 0.06789 0.0
Gd1018 Gd 0.5414 0.49806 0.02063 0.0
Gd1019 Gd 0.52004 0.55716 0.02688 0.0
N1020 N 0.54133 0.58095 0.06006 0.0
C1021 C 0.56336 0.60933 0.1007 0.0
C1022 C 0.56392 0.58935 0.06203 0.0
C1023 C 0.57528 0.60352 0.08241 0.0
H1024 H 0.57331 0.58539 0.04799 0.0
H1025 H 0.59323 0.61005 0.08394 0.0
H1026 H 0.49158 0.46291 0.00746 0.0
H1027 H 0.46566 0.54645 0.03408 0.0
H1028 H 0.47009 0.43514 0.97405 0.0
H1029 H 0.57223 0.62035 0.11643 0.0
H1030 H 0.5354 0.61757 0.13235 0.0
H1031 H 0.59525 0.5073 0.00969 0.0
H1032 H 0.45977 0.57918 0.10228 0.0
H1033 H 0.44218 0.5551 0.0647 0.0
H1034 H 0.52137 0.43382 0.91668 0.0
H1035 H 0.49457 0.60258 0.12725 0.0
H1036 H 0.59673 0.47604 0.93968 0.0
H1037 H 0.61643 0.4995 0.97683 0.0
N1038 N 0.56336 0.49122 0.99042 0.0
C1039 C 0.55251 0.477 0.97082 0.0
C1040 C 0.5862 0.49847 0.99305 0.0
C1041 C 0.5872 0.48016 0.95377 0.0
C1042 C 0.59837 0.49349 0.97465 0.0
C1043 C 0.56409 0.47127 0.95186 0.0
H1044 H 0.56112 0.45167 0.91732 0.0
N1045 N 0.51988 0.47165 0.98965 0.0
C1046 C 0.53019 0.4667 0.97054 0.0
C1047 C 0.49672 0.43966 0.95235 0.0
C1048 C 0.51877 0.45074 0.95122 0.0
C1049 C 0.49896 0.45988 0.99153 0.0
C1050 C 0.48689 0.44404 0.97274 0.0
O1051 O 0.52835 0.54227 0.06013 0.0
O1052 O 0.55708 0.52612 0.04996 0.0
O1053 O 0.5333 0.4742 0.04577 0.0
O1054 O 0.56328 0.4762 0.02824 0.0
O1055 O 0.55323 0.55853 0.01347 0.0
O1056 O 0.5694 0.52911 0.02265 0.0
O1057 O 0.51681 0.50383 0.99073 0.0
O1058 O 0.52852 0.54099 0.99277 0.0
O1059 O 0.52597 0.59093 0.01834 0.0
O1060 O 0.49351 0.56784 0.00599 0.0
O1061 O 0.51058 0.50115 0.03813 0.0
O1062 O 0.49325 0.52537 0.01939 0.0
C1063 C 0.54599 0.534 0.06606 0.0
C1064 C 0.57043 0.54882 0.01583 0.0
C1065 C 0.55862 0.44869 0.05427 0.0
C1066 C 0.55279 0.41791 0.07715 0.0
C1067 C 0.58781 0.42788 0.06106 0.0
C1068 C 0.58012 0.44478 0.05138 0.0
C1069 C 0.57429 0.41453 0.07383 0.0
C1070 C 0.54483 0.43509 0.06734 0.0
C1071 C 0.55115 0.46643 0.04255 0.0
C1072 C 0.5299 0.4459 0.93177 0.0
C1073 C 0.55253 0.45611 0.93211 0.0
H1074 H 0.48739 0.4273 0.93787 0.0
C1075 C 0.51736 0.52192 0.98118 0.0
C1076 C 0.49241 0.50738 0.0295 0.0
C1077 C 0.49758 0.60472 0.9945 0.0
C1078 C 0.5031 0.63728 0.97404 0.0
C1079 C 0.46558 0.61939 0.98023 0.0
C1080 C 0.47434 0.60385 0.99153 0.0
C1081 C 0.4798 0.63595 0.97155 0.0
C1082 C 0.5121 0.62164 0.98571 0.0
C1083 C 0.506 0.58751 0.00626 0.0
H1084 H 0.60434 0.42505 0.05857 0.0
H1085 H 0.59112 0.45476 0.04146 0.0
H1086 H 0.5806 0.4014 0.08113 0.0
H1087 H 0.52816 0.43766 0.06966 0.0
H1088 H 0.44762 0.61856 0.97813 0.0
H1089 H 0.46287 0.59113 -0.00194 0.0
H1090 H 0.47256 0.64778 0.96271 0.0
H1091 H 0.53007 0.62246 0.98764 0.0
C1092 C 0.73293 0.22452 0.30921 0.0
C1093 C 0.7064 0.20018 0.27769 0.0
C1094 C 0.72717 0.21525 0.28549 0.0
C1095 C 0.69095 0.19563 0.29367 0.0
C1096 C 0.71804 0.21863 0.32558 0.0
C1097 C 0.69676 0.20483 0.31756 0.0
N1098 N 0.75381 0.23754 0.3166 0.0
C1099 C 0.76181 0.24254 0.34025 0.0
C1100 C 0.7254 0.22583 0.3497 0.0
C1101 C 0.74756 0.23736 0.35708 0.0
Gd1102 Gd 0.78227 0.31051 0.25741 0.0
Gd1103 Gd 0.7751 0.24657 0.28599 0.0
N1104 N 0.74251 0.21964 0.2704 0.0
C1105 C 0.70216 0.18936 0.25429 0.0
C1106 C 0.73913 0.20794 0.24814 0.0
C1107 C 0.71881 0.19291 0.23961 0.0
H1108 H 0.7521 0.21009 0.23701 0.0
H1109 H 0.71607 0.18402 0.22177 0.0
H1110 H 0.8038 0.3477 0.306 0.0
H1111 H 0.77914 0.25092 0.34621 0.0
H1112 H 0.83805 0.37657 0.32026 0.0
H1113 H 0.68645 0.17763 0.24768 0.0
H1114 H 0.6748 0.18434 0.28791 0.0
H1115 H 0.78374 0.29582 0.19771 0.0
H1116 H 0.71447 0.22163 0.3628 0.0
H1117 H 0.75375 0.24207 0.37575 0.0
H1118 H 0.87998 0.37674 0.25472 0.0
H1119 H 0.68501 0.20042 0.32986 0.0
H1120 H 0.84746 0.32862 0.18291 0.0
H1121 H 0.81078 0.30276 0.16995 0.0
N1122 N 0.80583 0.31529 0.22778 0.0
C1123 C 0.82524 0.331 0.23483 0.0
C1124 C 0.80014 0.30608 0.20444 0.0
C1125 C 0.8359 0.32513 0.19561 0.0
C1126 C 0.81526 0.31043 0.18826 0.0
C1127 C 0.8409 0.33603 0.21893 0.0
H1128 H 0.87293 0.35615 0.21445 0.0
N1129 N 0.81379 0.33849 0.2728 0.0
C1130 C 0.82914 0.34306 0.25766 0.0
C1131 C 0.85215 0.37171 0.28781 0.0
C1132 C 0.84885 0.35979 0.26494 0.0
C1133 C 0.81652 0.35065 0.29472 0.0
C1134 C 0.83584 0.3672 0.3027 0.0
O1135 O 0.74393 0.25356 0.26313 0.0
O1136 O 0.74734 0.29223 0.2648 0.0
O1137 O 0.76858 0.33977 0.26906 0.0
O1138 O 0.76405 0.32414 0.23169 0.0
O1139 O 0.78908 0.26348 0.25701 0.0
O1140 O 0.77332 0.28049 0.23012 0.0
O1141 O 0.81527 0.30503 0.27772 0.0
O1142 O 0.81007 0.27009 0.29095 0.0
O1143 O 0.78611 0.21711 0.27089 0.0
O1144 O 0.79848 0.23305 0.30701 0.0
O1145 O 0.77454 0.28992 0.28464 0.0
O1146 O 0.77618 0.27394 0.31547 0.0
C1147 C 0.73524 0.27136 0.26034 0.0
C1148 C 0.77826 0.26244 0.23605 0.0
C1149 C 0.74746 0.35562 0.23863 0.0
C1150 C 0.72992 0.38714 0.24523 0.0
C1151 C 0.72874 0.36864 0.20536 0.0
C1152 C 0.74071 0.35396 0.21414 0.0
C1153 C 0.7234 0.3852 0.22079 0.0
C1154 C 0.7419 0.37229 0.25426 0.0
C1155 C 0.76026 0.33976 0.24706 0.0
C1156 C 0.86469 0.36409 0.24933 0.0
C1157 C 0.86072 0.35228 0.22642 0.0
H1158 H 0.86712 0.38457 0.29404 0.0
C1159 C 0.82288 0.28935 0.28811 0.0
C1160 C 0.77607 0.29222 0.30739 0.0
C1161 C 0.79992 0.1957 0.29853 0.0
C1162 C 0.81861 0.16487 0.29789 0.0
C1163 C 0.79614 0.1721 0.32898 0.0
C1164 C 0.79103 0.1901 0.31903 0.0
C1165 C 0.81006 0.15962 0.31859 0.0
C1166 C 0.81341 0.1828 0.2878 0.0
C1167 C 0.79878 0.21685 0.29053 0.0
H1168 H 0.72367 0.36721 0.18652 0.0
H1169 H 0.7447 0.34132 0.20161 0.0
H1170 H 0.71415 0.39657 0.21367 0.0
H1171 H 0.74696 0.37386 0.27315 0.0
H1172 H 0.78967 0.16809 0.34503 0.0
H1173 H 0.78086 0.20008 0.32779 0.0
H1174 H 0.81419 0.14589 0.32667 0.0
H1175 H 0.82068 0.18728 0.27224 0.0
C1176 C 0.07371 0.49546 0.5818 0.0
C1177 C 0.09123 0.5251 0.61382 0.0
C1178 C 0.07381 0.51561 0.59507 0.0
C1179 C 0.10882 0.51422 0.61864 0.0
C1180 C 0.09081 0.48401 0.5872 0.0
C1181 C 0.10856 0.49367 0.60543 0.0
N1182 N 0.05658 0.4868 0.56398 0.0
C1183 C 0.05465 0.4661 0.5519 0.0
C1184 C 0.08941 0.4631 0.57426 0.0
C1185 C 0.07107 0.45398 0.55677 0.0
Gd1186 Gd 0.02535 0.54484 0.49307 0.0
Gd1187 Gd 0.03159 0.50958 0.55513 0.0
N1188 N 0.05666 0.52578 0.58975 0.0
C1189 C 0.09026 0.5451 0.62734 0.0
C1190 C 0.05473 0.54432 0.60404 0.0
C1191 C 0.0717 0.55453 0.62269 0.0
H1192 H 0.0401 0.55131 0.60139 0.0
H1193 H 0.07038 0.56958 0.63354 0.0
H1194 H 0.02135 0.50799 0.44328 0.0
H1195 H 0.04043 0.45885 0.53848 0.0
H1196 H 0.99225 0.4895 0.40978 0.0
H1197 H 0.10339 0.55303 0.64179 0.0
H1198 H 0.12249 0.52136 0.63281 0.0
H1199 H 0.0141 0.59439 0.51049 0.0
H1200 H 0.10217 0.45372 0.57791 0.0
H1201 H 0.06961 0.43765 0.54697 0.0
H1202 H 0.93467 0.53145 0.41443 0.0
H1203 H 0.12202 0.48525 0.60963 0.0
H1204 H 0.95141 0.59747 0.47165 0.0
H1205 H 0.98373 0.61423 0.50266 0.0
N1206 N -0.00101 0.5664 0.48452 0.0
C1207 C 0.98193 0.55739 0.46683 0.0
C1208 C 4e-05 0.58677 0.49704 0.0
C1209 C 0.96467 0.58863 0.47508 0.0
C1210 C 0.98289 0.59814 0.49258 0.0
C1211 C 0.96413 0.5681 0.46175 0.0
H1212 H 0.93279 0.56606 0.43921 0.0
N1213 N 0.00141 0.52935 0.45743 0.0
C1214 C 0.98305 0.53804 0.45294 0.0
C1215 C 0.9693 0.51041 0.41838 0.0
C1216 C 0.96635 0.52872 0.43346 0.0
C1217 C 0.0055 0.51308 0.44139 0.0
C1218 C 0.98925 0.50292 0.42203 0.0
O1219 O 0.06559 0.52898 0.55109 0.0
O1220 O 0.04238 0.5347 0.52313 0.0
O1221 O 0.05422 0.5464 0.47465 0.0
O1222 O 0.04581 0.57677 0.48973 0.0
O1223 O 0.02466 0.54492 0.56124 0.0
O1224 O 0.02716 0.56557 0.52916 0.0
O1225 O 0.99276 0.53269 0.50641 0.0
O1226 O 0.00863 0.50791 0.52207 0.0
O1227 O 0.00439 0.51026 0.5762 0.0
O1228 O 0.01266 0.47904 0.56351 0.0
O1229 O 0.03043 0.50893 0.4849 0.0
O1230 O 0.03474 0.49057 0.51855 0.0
C1231 C 0.06301 0.53836 0.53267 0.0
C1232 C 0.02481 0.56331 0.55151 0.0
C1233 C 0.06208 0.57678 0.45424 0.0
C1234 C 0.07334 0.57206 0.41511 0.0
C1235 C 0.06426 0.60671 0.43085 0.0
C1236 C 0.05998 0.59842 0.45171 0.0
C1237 C 0.07089 0.59361 0.41257 0.0
C1238 C 0.06879 0.56375 0.43585 0.0
C1239 C 0.05834 0.56787 0.47622 0.0
C1240 C 0.94783 0.53853 0.42912 0.0
C1241 C 0.94677 0.55825 0.4432 0.0
H1242 H 0.95683 0.50267 0.40327 0.0
C1243 C 0.99218 0.51806 0.52079 0.0
C1244 C 0.03428 0.49173 0.49536 0.0
C1245 C 0.9965 0.48132 0.59912 0.0
C1246 C 0.97908 0.48445 0.63497 0.0
C1247 C 0.99757 0.45415 0.6258 0.0
C1248 C 0.003 0.46206 0.60504 0.0
C1249 C 0.98565 0.4653 0.64076 0.0
C1250 C 0.98444 0.49239 0.61419 0.0
C1251 C 0.00042 0.48896 0.57648 0.0
H1252 H 0.06278 0.62343 0.42899 0.0
H1253 H 0.0552 0.60895 0.46585 0.0
H1254 H 0.07479 0.60057 0.39681 0.0
H1255 H 0.07079 0.54713 0.4377 0.0
H1256 H 0.00247 0.43925 0.63019 0.0
H1257 H 0.01198 0.45294 0.59355 0.0
H1258 H 0.98141 0.45895 0.65675 0.0
H1259 H 0.97893 0.50702 0.60967 0.0
C1260 C 0.72304 0.7996 0.22772 0.0
C1261 C 0.69828 0.76615 0.20602 0.0
C1262 C 0.71395 0.77722 0.22577 0.0
C1263 C 0.69279 0.77781 0.18766 0.0
C1264 C 0.71668 0.81165 0.20993 0.0
C1265 C 0.702 0.80053 0.1896 0.0
N1266 N 0.73697 0.80984 0.24772 0.0
C1267 C 0.7434 0.83243 0.252 0.0
C1268 C 0.72467 0.83462 0.21347 0.0
C1269 C 0.73776 0.84509 0.23479 0.0
Gd1270 Gd 0.8097 0.76733 0.27737 0.0
Gd1271 Gd 0.74771 0.78664 0.27425 0.0
N1272 N 0.71979 0.76642 0.24371 0.0
C1273 C 0.68825 0.74384 0.20562 0.0
C1274 C 0.70918 0.74504 0.24406 0.0
C1275 C 0.69348 0.73334 0.22491 0.0
H1276 H 0.71323 0.73695 0.25891 0.0
H1277 H 0.68548 0.71623 0.225 0.0
H1278 H 0.84698 0.81664 0.29296 0.0
H1279 H 0.75312 0.84077 0.26865 0.0
H1280 H 0.87264 0.83708 0.32806 0.0
H1281 H 0.67613 0.73474 0.19078 0.0
H1282 H 0.68103 0.76954 0.17218 0.0
H1283 H 0.79784 0.71426 0.28613 0.0
H1284 H 0.72021 0.84448 0.20022 0.0
H1285 H 0.7434 0.86292 0.23805 0.0
H1286 H 0.87236 0.78425 0.38182 0.0
H1287 H 0.69715 0.80946 0.17561 0.0
H1288 H 0.82931 0.71049 0.35509 0.0
H1289 H 0.80497 0.6924 0.3178 0.0
N1290 N 0.81665 0.74473 0.30577 0.0
C1291 C 0.83112 0.75474 0.32554 0.0
C1292 C 0.80788 0.72251 0.30255 0.0
C1293 C 0.826 0.72024 0.34133 0.0
C1294 C 0.81218 0.70999 0.32035 0.0
C1295 C 0.83588 0.74283 0.34404 0.0
H1296 H 0.85428 0.74489 0.37891 0.0
N1297 N 0.83692 0.78777 0.30865 0.0
C1298 C 0.84143 0.77693 0.32709 0.0
C1299 C 0.86744 0.80985 0.34786 0.0
C1300 C 0.85662 0.78776 0.34731 0.0
C1301 C 0.84864 0.80878 0.30846 0.0
C1302 C 0.8637 0.82027 0.32818 0.0
O1303 O 0.75375 0.76377 0.2428 0.0
O1304 O 0.79152 0.77647 0.24508 0.0
O1305 O 0.84285 0.77245 0.26553 0.0
O1306 O 0.81874 0.74071 0.25474 0.0
O1307 O 0.75449 0.75727 0.29077 0.0
O1308 O 0.77776 0.74013 0.26981 0.0
O1309 O 0.7956 0.77425 0.31188 0.0
O1310 O 0.77838 0.80105 0.30095 0.0
O1311 O 0.72114 0.77483 0.2952 0.0
O1312 O 0.73333 0.80974 0.29574 0.0
O1313 O 0.81142 0.80253 0.26989 0.0
O1314 O 0.77703 0.81407 0.26981 0.0
C1315 C 0.77244 0.76493 0.23331 0.0
C1316 C 0.75955 0.7393 0.28032 0.0
C1317 C 0.85489 0.7441 0.23981 0.0
C1318 C 0.88776 0.74961 0.21878 0.0
C1319 C 0.86817 0.71246 0.22224 0.0
C1320 C 0.85293 0.72112 0.23487 0.0
C1321 C 0.88548 0.72656 0.2143 0.0
C1322 C 0.87239 0.75844 0.23161 0.0
C1323 C 0.83853 0.75266 0.25345 0.0
C1324 C 0.86085 0.77614 0.3661 0.0
C1325 C 0.85055 0.75373 0.36444 0.0
H1326 H 0.87921 0.81876 0.36307 0.0
C1327 C 0.78595 0.7908 0.31747 0.0
C1328 C 0.79877 0.81733 0.26789 0.0
C1329 C 0.69591 0.79865 0.30364 0.0
C1330 C 0.66203 0.79612 0.32311 0.0
C1331 C 0.66755 0.81904 0.29221 0.0
C1332 C 0.68797 0.81299 0.28943 0.0
C1333 C 0.65473 0.8108 0.30902 0.0
C1334 C 0.68268 0.79 0.32036 0.0
C1335 C 0.71889 0.79465 0.30296 0.0
H1336 H 0.86661 0.69472 0.21867 0.0
H1337 H 0.83971 0.7098 0.24098 0.0
H1338 H 0.8972 0.71945 0.2046 0.0
H1339 H 0.87414 0.77623 0.23527 0.0
H1340 H 0.66176 0.83039 0.28147 0.0
H1341 H 0.69778 0.81995 0.27654 0.0
H1342 H 0.63902 0.81586 0.31104 0.0
H1343 H 0.68868 0.77906 0.33156 0.0
C1344 C 0.81144 0.23594 0.71654 0.0
C1345 C 0.78058 0.21426 0.68766 0.0
C1346 C 0.78937 0.23247 0.70572 0.0
C1347 C 0.79437 0.19992 0.68041 0.0
C1348 C 0.82527 0.22142 0.70944 0.0
C1349 C 0.81665 0.20349 0.69127 0.0
N1350 N 0.81919 0.25305 0.73454 0.0
C1351 C 0.84071 0.2569 0.74571 0.0
C1352 C 0.8473 0.22516 0.72104 0.0
C1353 C 0.85507 0.24304 0.73921 0.0
Gd1354 Gd 0.75568 0.27739 0.8048 0.0
Gd1355 Gd 0.79391 0.2752 0.74494 0.0
N1356 N 0.77614 0.24615 0.71383 0.0
C1357 C 0.75803 0.21069 0.67775 0.0
C1358 C 0.7541 0.24263 0.70405 0.0
C1359 C 0.74477 0.22494 0.68598 0.0
H1360 H 0.74333 0.25305 0.71008 0.0
H1361 H 0.72725 0.22225 0.67851 0.0
H1362 H 0.80335 0.29182 0.84677 0.0
H1363 H 0.84695 0.27093 0.75939 0.0
H1364 H 0.82117 0.32251 0.8775 0.0
H1365 H 0.75066 0.19687 0.6639 0.0
H1366 H 0.78787 0.18586 0.66661 0.0
H1367 H 0.70363 0.28398 0.79166 0.0
H1368 H 0.85843 0.21437 0.71612 0.0
H1369 H 0.87213 0.24617 0.74818 0.0
H1370 H 0.76729 0.36833 0.88251 0.0
H1371 H 0.82702 0.19215 0.68564 0.0
H1372 H 0.69637 0.34367 0.83268 0.0
H1373 H 0.6805 0.31105 0.80205 0.0
N1374 N 0.73222 0.30117 0.81582 0.0
C1375 C 0.74102 0.31855 0.83312 0.0
C1376 C 0.71071 0.29822 0.80488 0.0
C1377 C 0.70655 0.33181 0.82816 0.0
C1378 C 0.69755 0.31345 0.81084 0.0
C1379 C 0.72851 0.33451 0.83962 0.0
H1380 H 0.72895 0.36508 0.86241 0.0
N1381 N 0.77392 0.30433 0.83787 0.0
C1382 C 0.76255 0.32026 0.84443 0.0
C1383 C 0.79371 0.33916 0.87422 0.0
C1384 C 0.7722 0.33817 0.8626 0.0
C1385 C 0.7945 0.30478 0.85016 0.0
C1386 C 0.80475 0.32223 0.86817 0.0
O1387 O 0.78049 0.2407 0.75107 0.0
O1388 O 0.76745 0.26304 0.77417 0.0
O1389 O 0.75569 0.25129 0.82607 0.0
O1390 O 0.72409 0.25574 0.80874 0.0
O1391 O 0.75899 0.28405 0.7394 0.0
O1392 O 0.73492 0.27458 0.76799 0.0
O1393 O 0.76573 0.31007 0.79307 0.0
O1394 O 0.79483 0.29943 0.77795 0.0
O1395 O 0.79157 0.29655 0.71847 0.0
O1396 O 0.82428 0.29565 0.7368 0.0
O1397 O 0.79074 0.26906 0.81168 0.0
O1398 O 0.81382 0.27601 0.7816 0.0
C1399 C 0.76833 0.2428 0.76754 0.0
C1400 C 0.73894 0.28099 0.74717 0.0
C1401 C 0.7248 0.24383 0.8464 0.0
C1402 C 0.72765 0.23036 0.88414 0.0
C1403 C 0.70393 0.25638 0.87701 0.0
C1404 C 0.70998 0.2568 0.85432 0.0
C1405 C 0.71297 0.24345 0.89203 0.0
C1406 C 0.7331 0.23024 0.86118 0.0
C1407 C 0.73385 0.24571 0.824 0.0
C1408 C 0.76005 0.35441 0.86875 0.0
C1409 C 0.73823 0.35256 0.85732 0.0
H1410 H 0.80172 0.35265 0.8882 0.0
C1411 C 0.78202 0.31387 0.78026 0.0
C1412 C 0.81036 0.27097 0.80305 0.0
C1413 C 0.82305 0.30696 0.69885 0.0
C1414 C 0.82331 0.32527 0.66422 0.0
C1415 C 0.85314 0.30647 0.67472 0.0
C1416 C 0.84307 0.30046 0.69429 0.0
C1417 C 0.84339 0.31901 0.65978 0.0
C1418 C 0.81315 0.31916 0.68358 0.0
C1419 C 0.81332 0.30366 0.72055 0.0
H1420 H 0.69265 0.26649 0.88318 0.0
H1421 H 0.70349 0.26758 0.84329 0.0
H1422 H 0.70863 0.24374 0.9098 0.0
H1423 H 0.74485 0.22048 0.85528 0.0
H1424 H 0.86867 0.30168 0.67131 0.0
H1425 H 0.85113 0.29118 0.70601 0.0
H1426 H 0.85143 0.32381 0.6448 0.0
H1427 H 0.79786 0.32452 0.68715 0.0
C1428 C 0.83904 0.82347 0.81416 0.0
C1429 C 0.85913 0.84297 0.78626 0.0
C1430 C 0.83944 0.82979 0.79195 0.0
C1431 C 0.87847 0.84947 0.80315 0.0
C1432 C 0.85821 0.83075 0.83148 0.0
C1433 C 0.87798 0.84348 0.82575 0.0
N1434 N 0.81948 0.81159 0.81936 0.0
C1435 C 0.81776 0.80761 0.84198 0.0
C1436 C 0.85671 0.82578 0.85435 0.0
C1437 C 0.83631 0.81437 0.85967 0.0
Gd1438 Gd 0.76187 0.74334 0.75487 0.0
Gd1439 Gd 0.78844 0.80348 0.789 0.0
N1440 N 0.82026 0.82389 0.77624 0.0
C1441 C 0.85857 0.84982 0.76401 0.0
C1442 C 0.81927 0.83173 0.75517 0.0
C1443 C 0.83847 0.84433 0.74847 0.0
H1444 H 0.80364 0.82856 0.74368 0.0
H1445 H 0.83763 0.85013 0.73152 0.0
H1446 H 0.74328 0.72675 0.80508 0.0
H1447 H 0.80183 0.80034 0.84686 0.0
H1448 H 0.70785 0.70912 0.81716 0.0
H1449 H 0.87335 0.85989 0.75895 0.0
H1450 H 0.89372 0.85963 0.79911 0.0
H1451 H 0.7485 0.75243 0.69919 0.0
H1452 H 0.87096 0.83132 0.8682 0.0
H1453 H 0.8347 0.81124 0.87755 0.0
H1454 H 0.65436 0.69695 0.74713 0.0
H1455 H 0.89283 0.84919 0.83883 0.0
H1456 H 0.67878 0.72366 0.67792 0.0
H1457 H 0.71531 0.7434 0.66882 0.0
N1458 N 0.73077 0.74001 0.72614 0.0
C1459 C 0.71095 0.72872 0.73142 0.0
C1460 C 0.7325 0.74508 0.70393 0.0
C1461 C 0.69321 0.72823 0.69161 0.0
C1462 C 0.71375 0.73948 0.68644 0.0
C1463 C 0.69159 0.72267 0.71427 0.0
H1464 H 0.65639 0.70606 0.70703 0.0
N1465 N 0.72901 0.72842 0.77017 0.0
C1466 C 0.70997 0.72298 0.75404 0.0
C1467 C 0.68867 0.70705 0.78303 0.0
C1468 C 0.68939 0.71186 0.76001 0.0
C1469 C 0.72838 0.72335 0.7925 0.0
C1470 C 0.70821 0.71296 0.79937 0.0
O1471 O 0.81274 0.78802 0.76808 0.0
O1472 O 0.80017 0.75036 0.76647 0.0
O1473 O 0.75633 0.70766 0.75149 0.0
O1474 O 0.76775 0.72436 0.72284 0.0
O1475 O 0.76985 0.79981 0.75189 0.0
O1476 O 0.7778 0.76821 0.7334 0.0
O1477 O 0.73783 0.76674 0.76324 0.0
O1478 O 0.75555 0.78532 0.79892 0.0
O1479 O 0.77017 0.82918 0.78168 0.0
O1480 O 0.78997 0.83077 0.81639 0.0
O1481 O 0.77869 0.74227 0.79163 0.0
O1482 O 0.78034 0.77722 0.812 0.0
C1483 C 0.81621 0.76767 0.76488 0.0
C1484 C 0.77392 0.78803 0.73289 0.0
C1485 C 0.77905 0.691 0.72708 0.0
C1486 C 0.80059 0.66526 0.74088 0.0
C1487 C 0.80184 0.6742 0.70121 0.0
C1488 C 0.787 0.68818 0.70513 0.0
C1489 C 0.80876 0.66285 0.71907 0.0
C1490 C 0.78577 0.67928 0.74484 0.0
C1491 C 0.76327 0.7056 0.73086 0.0
C1492 C 0.67019 0.70578 0.7429 0.0
C1493 C 0.67133 0.71103 0.72007 0.0
H1494 H 0.67314 0.69866 0.78832 0.0
C1495 C 0.73692 0.7781 0.78398 0.0
C1496 C 0.78117 0.75626 0.81139 0.0
C1497 C 0.76968 0.85938 0.81282 0.0
C1498 C 0.75749 0.89272 0.8061 0.0
C1499 C 0.76361 0.88458 0.84601 0.0
C1500 C 0.76974 0.86503 0.83725 0.0
C1501 C 0.75769 0.89859 0.83047 0.0
C1502 C 0.76318 0.87304 0.79731 0.0
C1503 C 0.7764 0.83932 0.80337 0.0
H1504 H 0.80789 0.67208 0.68427 0.0
H1505 H 0.78169 0.69676 0.69102 0.0
H1506 H 0.82012 0.65188 0.71575 0.0
H1507 H 0.77963 0.68104 0.76181 0.0
H1508 H 0.76366 0.88897 0.86482 0.0
H1509 H 0.77448 0.85438 0.8495 0.0
H1510 H 0.75331 0.91391 0.83737 0.0
H1511 H 0.76331 0.8688 0.77845 0.0
C1512 C 0.48355 0.4628 0.4835 0.0
C1513 C 0.46535 0.44143 0.51136 0.0
C1514 C 0.47729 0.46162 0.50605 0.0
C1515 C 0.45922 0.42275 0.49375 0.0
C1516 C 0.47757 0.44392 0.46592 0.0
C1517 C 0.46521 0.42402 0.4711 0.0
N1518 N 0.49526 0.48235 0.4787 0.0
C1519 C 0.50137 0.48415 0.45679 0.0
C1520 C 0.48391 0.44565 0.44346 0.0
C1521 C 0.49593 0.46582 0.43893 0.0
Gd1522 Gd 0.55777 0.54036 0.54262 0.0
Gd1523 Gd 0.49749 0.51255 0.50804 0.0
N1524 N 0.4828 0.48013 0.52271 0.0
C1525 C 0.45962 0.44063 0.53416 0.0
C1526 C 0.4767 0.47952 0.54474 0.0
C1527 C 0.46542 0.45974 0.55093 0.0
H1528 H 0.47968 0.49425 0.55737 0.0
H1529 H 0.46068 0.45939 0.56848 0.0
H1530 H 0.5837 0.55482 0.49677 0.0
H1531 H 0.50927 0.49992 0.45253 0.0
H1532 H 0.60621 0.58795 0.48517 0.0
H1533 H 0.45048 0.42542 0.53891 0.0
H1534 H 0.44974 0.40722 0.49745 0.0
H1535 H 0.54842 0.55537 0.59867 0.0
H1536 H 0.47941 0.43157 0.42945 0.0
H1537 H 0.50051 0.46741 0.42149 0.0
H1538 H 0.61547 0.64328 0.55336 0.0
H1539 H 0.46023 0.40946 0.4577 0.0
H1540 H 0.58161 0.62293 0.62072 0.0
H1541 H 0.55851 0.58824 0.62912 0.0
N1542 N 0.56369 0.57144 0.57223 0.0
C1543 C 0.57688 0.59025 0.56744 0.0
C1544 C 0.5573 0.57058 0.59416 0.0
C1545 C 0.57661 0.60866 0.60695 0.0
C1546 C 0.56348 0.58915 0.61173 0.0
C1547 C 0.58359 0.60938 0.58467 0.0
H1548 H 0.60282 0.64323 0.59244 0.0
N1549 N 0.57819 0.57137 0.52938 0.0
C1550 C 0.58436 0.5902 0.54546 0.0
C1551 C 0.6057 0.60864 0.51793 0.0
C1552 C 0.59829 0.60936 0.54011 0.0
C1553 C 0.58652 0.57024 0.50835 0.0
C1554 C 0.5999 0.58893 0.50204 0.0
O1555 O 0.52172 0.48922 0.51544 0.0
O1556 O 0.54194 0.50625 0.55091 0.0
O1557 O 0.58751 0.52789 0.53625 0.0
O1558 O 0.58406 0.54304 0.57195 0.0
O1559 O 0.49743 0.53038 0.545 0.0
O1560 O 0.53134 0.52792 0.56482 0.0
O1561 O 0.54019 0.56659 0.52892 0.0
O1562 O 0.50461 0.55014 0.50868 0.0
O1563 O 0.46204 0.51035 0.51001 0.0
O1564 O 0.47455 0.51169 0.47637 0.0
O1565 O 0.55505 0.52306 0.50471 0.0
O1566 O 0.52229 0.52972 0.48707 0.0
C1567 C 0.53372 0.48807 0.53562 0.0
C1568 C 0.51065 0.53073 0.56474 0.0
C1569 C 0.61817 0.53008 0.5676 0.0
C1570 C 0.64973 0.51357 0.56083 0.0
C1571 C 0.64747 0.53125 0.60009 0.0
C1572 C 0.62717 0.53646 0.5916 0.0
C1573 C 0.65869 0.51955 0.58476 0.0
C1574 C 0.62973 0.51897 0.55231 0.0
C1575 C 0.59626 0.53377 0.55845 0.0
C1576 C 0.60469 0.62847 0.55713 0.0
C1577 C 0.59745 0.62845 0.57937 0.0
H1578 H 0.61637 0.62302 0.51314 0.0
C1579 C 0.52087 0.56782 0.51688 0.0
C1580 C 0.54283 0.52705 0.48614 0.0
C1581 C 0.44395 0.52826 0.48206 0.0
C1582 C 0.42021 0.55335 0.49416 0.0
C1583 C 0.42681 0.54744 0.45327 0.0
C1584 C 0.44018 0.53257 0.45874 0.0
C1585 C 0.41678 0.55778 0.47087 0.0
C1586 C 0.43409 0.53889 0.49967 0.0
C1587 C 0.45742 0.51211 0.48775 0.0
H1588 H 0.65433 0.53601 0.61859 0.0
H1589 H 0.61844 0.54515 0.60378 0.0
H1590 H 0.67422 0.51524 0.59145 0.0
H1591 H 0.62288 0.51384 0.53378 0.0
H1592 H 0.42388 0.55063 0.43526 0.0
H1593 H 0.44745 0.52436 0.44476 0.0
H1594 H 0.40583 0.56867 0.46614 0.0
H1595 H 0.43691 0.53572 0.51772 0.0
C1596 C 0.08321 0.56913 0.98629 0.0
C1597 C 0.1098 0.59533 0.01641 0.0
C1598 C 0.09355 0.57533 0.00966 0.0
C1599 C 0.11501 0.60935 -0.00036 0.0
C1600 C 0.0895 0.58264 0.96918 0.0
C1601 C 0.10497 0.60298 0.97608 0.0
N1602 N 0.06823 0.54934 0.97999 0.0
C1603 C 0.06085 0.54112 0.9567 0.0
C1604 C 0.08071 0.57495 0.94545 0.0
C1605 C 0.0667 0.55393 0.93915 0.0
Gd1606 Gd 0.99501 0.52315 0.04272 0.0
Gd1607 Gd 0.05999 0.52995 0.01145 0.0
N1608 N 0.08841 0.56144 0.02559 0.0
C1609 C 0.12077 0.6004 0.03971 0.0
C1610 C 0.1002 0.56555 0.04776 0.0
C1611 C 0.11621 0.58523 0.05534 0.0
H1612 H 0.09765 0.55352 0.05943 0.0
H1613 H 0.12522 0.58854 0.07312 0.0
H1614 H 0.95711 0.50267 0.9945 0.0
H1615 H 0.05065 0.52458 0.95151 0.0
H1616 H 0.9285 0.46869 0.97902 0.0
H1617 H 0.1333 0.6156 0.04557 0.0
H1618 H 0.12726 0.62486 0.00457 0.0
H1619 H 0.00613 0.5225 0.10287 0.0
H1620 H 0.08529 0.58477 0.93177 0.0
H1621 H 0.06057 0.5475 0.92074 0.0
H1622 H 0.92737 0.42661 0.04308 0.0
H1623 H 0.10974 0.61367 0.96319 0.0
H1624 H 0.97344 0.4592 0.11612 0.0
H1625 H -0.00158 0.49585 0.13015 0.0
N1626 N 0.98855 0.50013 0.07209 0.0
C1627 C 0.97323 0.48071 0.06442 0.0
C1628 C 0.99644 0.50609 0.09575 0.0
C1629 C 0.97743 0.47056 0.10365 0.0
C1630 C 0.9916 0.49119 0.11162 0.0
C1631 C 0.96749 0.46535 0.08003 0.0
H1632 H 0.94691 0.43372 0.08373 0.0
N1633 N 0.96709 0.49182 0.02656 0.0
C1634 C 0.96197 0.47665 0.04131 0.0
C1635 C 0.93339 0.45415 0.01067 0.0
C1636 C 0.94506 0.45725 0.03356 0.0
C1637 C 0.95469 0.48956 0.00491 0.0
C1638 C 0.93803 0.47052 -0.0036 0.0
O1639 O 0.05323 0.56275 0.03046 0.0
O1640 O 0.01783 0.55814 0.04491 0.0
O1641 O 0.9658 0.53652 0.03032 0.0
O1642 O 0.97805 0.53875 0.06821 0.0
O1643 O 0.03871 0.52281 0.0387 0.0
O1644 O 0.02446 0.52917 0.07079 0.0
O1645 O 0.00181 0.4905 0.02308 0.0
O1646 O 0.03776 0.49537 0.0104 0.0
O1647 O 0.08874 0.51818 0.02722 0.0
O1648 O 0.07369 0.50633 0.99061 0.0
O1649 O 0.01022 0.5364 0.01218 0.0
O1650 O 0.02962 0.52358 0.98458 0.0
C1651 C 0.0372 0.5706 0.0408 0.0
C1652 C 0.04219 0.52719 0.06146 0.0
C1653 C 0.94539 0.55344 0.05965 0.0
C1654 C 0.91965 0.57773 0.05342 0.0
C1655 C 0.92415 0.564 0.09084 0.0
C1656 C 0.93968 0.55244 0.08257 0.0
C1657 C 0.91429 0.57676 0.07643 0.0
C1658 C 0.93496 0.56578 0.04486 0.0
C1659 C 0.96334 0.54286 0.05225 0.0
C1660 C 0.94015 0.44166 0.04884 0.0
C1661 C 0.95134 0.44568 0.07197 0.0
H1662 H 0.92035 0.43946 0.00409 0.0
C1663 C 0.01835 0.48275 0.01373 0.0
C1664 C 0.01032 0.52542 0.9914 0.0
C1665 C 0.11126 0.50403 -2e-05 0.0
C1666 C 0.14211 0.48484 0.00048 0.0
C1667 C 0.13676 0.50807 0.97052 0.0
C1668 C 0.11816 0.51325 0.98019 0.0
C1669 C 0.14863 0.49379 0.98051 0.0
C1670 C 0.12349 0.49005 0.01026 0.0
C1671 C 0.08943 0.50559 0.00749 0.0
H1672 H 0.91989 0.56321 0.10853 0.0
H1673 H 0.94743 0.54289 0.09423 0.0
H1674 H 0.90227 0.58573 0.08313 0.0
H1675 H 0.93926 0.56671 0.02717 0.0
H1676 H 0.14176 0.51484 0.95501 0.0
H1677 H 0.10871 0.52378 0.97174 0.0
H1678 H 0.16287 0.48969 0.97268 0.0
H1679 H 0.11805 0.48255 0.02526 0.0
H1680 H 0.00775 0.20645 0.01268 0.0
H1681 H 0.01186 0.07824 0.97115 0.0
H1682 H 0.00023 0.1761 0.93996 0.0
H1683 H 0.02822 0.10868 0.04409 0.0
H1684 H 0.00666 0.11376 0.96011 0.0
H1685 H 0.01365 0.17125 0.02506 0.0
C1686 C 0.00728 0.19248 -0.00075 0.0
C1687 C 0.00328 0.1946 0.97508 0.0
C1688 C 0.01128 0.11279 0.97859 0.0
C1689 C 0.01037 0.15375 0.98935 0.0
C1690 C 0.01426 0.09233 0.98497 0.0
C1691 C 0.02042 0.09004 0.00872 0.0
C1692 C 0.01404 0.13156 -0.00403 0.0
C1693 C 0.02349 0.10936 0.02556 0.0
C1694 C 0.01074 0.17228 0.00639 0.0
C1695 C 0.00297 0.17557 0.95875 0.0
N1696 N 0.02013 0.12905 0.01894 0.0
N1697 N 0.00644 0.15627 0.96611 0.0
H1698 H 0.10807 0.79423 0.17946 0.0
H1699 H 0.24051 0.7984 0.20381 0.0
H1700 H 0.15113 0.80176 0.1252 0.0
H1701 H 0.19391 0.77374 0.25032 0.0
H1702 H 0.20881 0.80217 0.17604 0.0
H1703 H 0.13979 0.78957 0.2066 0.0
C1704 C 0.12421 0.79496 0.17318 0.0
C1705 C 0.12677 0.79847 0.14983 0.0
C1706 C 0.20551 0.79607 0.19239 0.0
C1707 C 0.16358 0.79317 0.18128 0.0
C1708 C 0.22368 0.79393 0.20843 0.0
C1709 C 0.2202 0.78605 0.22996 0.0
C1710 C 0.18344 0.7906 0.19781 0.0
C1711 C 0.19776 0.7804 0.23444 0.0
C1712 C 0.14236 0.79221 0.18877 0.0
C1713 C 0.14824 0.79916 0.14295 0.0
N1714 N 0.18038 0.78291 0.21868 0.0
N1715 N 0.16576 0.79664 0.15857 0.0
H1716 H 0.48685 0.83457 0.49454 0.0
H1717 H 0.5392 0.96081 0.47811 0.0
H1718 H 0.5319 0.85427 0.44473 0.0
H1719 H 0.49058 0.94627 0.52585 0.0
H1720 H 0.53722 0.92135 0.46775 0.0
H1721 H 0.48883 0.8743 0.50869 0.0
C1722 C 0.49736 0.84707 0.48677 0.0
C1723 C 0.50913 0.8407 0.46821 0.0
C1724 C 0.52678 0.92662 0.48041 0.0
C1725 C 0.51126 0.88642 0.48419 0.0
C1726 C 0.52788 0.94938 0.48637 0.0
C1727 C 0.51476 0.95733 0.50272 0.0
C1728 C 0.51252 0.91107 0.49085 0.0
C1729 C 0.5006 0.94122 0.51275 0.0
C1730 C 0.49833 0.86983 0.49473 0.0
C1731 C 0.5223 0.85798 0.45888 0.0
N1732 N 0.49988 0.91901 0.50672 0.0
N1733 N 0.52291 0.87965 0.46681 0.0
H1734 H 0.50658 0.31685 0.66168 0.0
H1735 H 0.39175 0.2384 0.68225 0.0
H1736 H 0.48312 0.24901 0.62865 0.0
H1737 H 0.42474 0.29833 0.72889 0.0
H1738 H 0.4195 0.24671 0.65503 0.0
H1739 H 0.47126 0.31481 0.67886 0.0
C1740 C 0.49362 0.30179 0.65741 0.0
C1741 C 0.49752 0.28314 0.64357 0.0
C1742 C 0.4204 0.2583 0.67096 0.0
C1743 C 0.45746 0.28047 0.66345 0.0
C1744 C 0.40448 0.25364 0.68636 0.0
C1745 C 0.40598 0.26781 0.70766 0.0
C1746 C 0.438 0.2772 0.67704 0.0
C1747 C 0.42298 0.28714 0.71248 0.0
C1748 C 0.4736 0.30054 0.66738 0.0
C1749 C 0.48054 0.2638 0.63903 0.0
N1750 N 0.43847 0.29119 0.6974 0.0
N1751 N 0.46132 0.2629 0.64907 0.0
H1752 H -4e-05 0.79398 0.62037 0.0
H1753 H 0.06593 0.91855 0.62109 0.0
H1754 H 0.04342 0.83384 0.681 0.0
H1755 H 0.01861 0.881 0.5622 0.0
H1756 H 0.05465 0.88926 0.64479 0.0
H1757 H 0.00376 0.82654 0.60003 0.0
C1758 C 0.0103 0.80959 0.62941 0.0
C1759 C 0.0215 0.81111 0.65239 0.0
C1760 C 0.04628 0.88758 0.62688 0.0
C1761 C 0.02608 0.84853 0.6291 0.0
C1762 C 0.05253 0.90445 0.61347 0.0
C1763 C 0.04287 0.90236 0.58983 0.0
C1764 C 0.03051 0.86819 0.61647 0.0
C1765 C 0.02613 0.88342 0.58051 0.0
C1766 C 0.0124 0.82821 0.61782 0.0
C1767 C 0.03446 0.83186 0.66332 0.0
N1768 N 0.02067 0.86696 0.59374 0.0
N1769 N 0.03657 0.84963 0.65153 0.0
H1770 H 0.46137 0.78864 0.85351 0.0
H1771 H 0.358 0.80926 0.76562 0.0
H1772 H 0.46849 0.81413 0.78789 0.0
H1773 H 0.3476 0.77595 0.82589 0.0
H1774 H 0.39854 0.81284 0.77512 0.0
H1775 H 0.42029 0.78487 0.84511 0.0
C1776 C 0.4544 0.79324 0.83724 0.0
C1777 C 0.46876 0.80171 0.82144 0.0
C1778 C 0.38752 0.80493 0.7865 0.0
C1779 C 0.42132 0.79761 0.81175 0.0
C1780 C 0.3642 0.80321 0.78126 0.0
C1781 C 0.34908 0.79281 0.79524 0.0
C1782 C 0.39624 0.79622 0.80604 0.0
C1783 C 0.35846 0.78428 0.81464 0.0
C1784 C 0.43084 0.79116 0.83249 0.0
C1785 C 0.4584 0.80757 0.80075 0.0
N1786 N 0.38129 0.78624 0.81949 0.0
N1787 N 0.43559 0.80547 0.79661 0.0
H1788 H 0.53016 0.16187 0.17462 0.0
H1789 H 0.49877 0.09278 0.04432 0.0
H1790 H 0.49993 0.18915 0.11716 0.0
H1791 H 0.55117 0.08322 0.09563 0.0
H1792 H 0.49538 0.12593 0.07072 0.0
H1793 H 0.53362 0.13037 0.1466 0.0
C1794 C 0.52406 0.16121 0.15611 0.0
C1795 C 0.51467 0.17834 0.14839 0.0
C1796 C 0.50754 0.11649 0.07624 0.0
C1797 C 0.51857 0.1418 0.11588 0.0
C1798 C 0.50955 0.0976 0.06114 0.0
C1799 C 0.52483 0.0847 0.06805 0.0
C1800 C 0.5208 0.12249 0.09855 0.0
C1801 C 0.53833 0.09181 0.09007 0.0
C1802 C 0.52619 0.14319 0.14005 0.0
C1803 C 0.50727 0.17641 0.12401 0.0
N1804 N 0.53587 0.11 0.10454 0.0
N1805 N 0.50924 0.15844 0.10867 0.0
H1806 H 0.09408 0.2757 0.30091 0.0
H1807 H 0.22826 0.32081 0.30822 0.0
H1808 H 0.13193 0.32856 0.35435 0.0
H1809 H 0.19516 0.25469 0.27526 0.0
H1810 H 0.19246 0.32635 0.32094 0.0
H1811 H 0.12968 0.27009 0.28724 0.0
C1812 C 0.10979 0.28631 0.30966 0.0
C1813 C 0.10972 0.3027 0.32891 0.0
C1814 C 0.19298 0.31062 0.31089 0.0
C1815 C 0.15099 0.29652 0.31293 0.0
C1816 C 0.21353 0.30743 0.30348 0.0
C1817 C 0.21516 0.28718 0.29052 0.0
C1818 C 0.17338 0.29362 0.30508 0.0
C1819 C 0.1951 0.27059 0.28518 0.0
C1820 C 0.13021 0.28301 0.30188 0.0
C1821 C 0.1309 0.31568 0.33953 0.0
N1822 N 0.17525 0.2742 0.29229 0.0
N1823 N 0.15042 0.31247 0.33135 0.0
H1824 H 0.99004 0.02108 0.2097 0.0
H1825 H 0.9726 0.03731 0.07394 0.0
H1826 H 0.92425 0.01151 0.16928 0.0
H1827 H 0.0322 0.02024 0.10723 0.0
H1828 H 0.95579 0.03387 0.11044 0.0
H1829 H 0.00705 0.02687 0.17378 0.0
C1830 C 0.97917 0.02017 0.19328 0.0
C1831 C 0.95569 0.01568 0.19246 0.0
C1832 C 0.9726 0.03102 0.10971 0.0
C1833 C 0.97504 0.02249 0.1514 0.0
C1834 C 0.98224 0.03305 0.08893 0.0
C1835 C 0.00393 0.02921 0.0875 0.0
C1836 C 0.98484 0.02538 0.12927 0.0
C1837 C 0.01555 0.0236 0.10751 0.0
C1838 C 0.98889 0.02346 0.1728 0.0
C1839 C 0.94243 0.01482 0.1707 0.0
N1840 N 0.00591 0.02195 0.12755 0.0
N1841 N 0.9523 0.01825 0.15103 0.0
H1842 H 0.26453 0.62889 0.46329 0.0
H1843 H 0.25716 0.74281 0.41701 0.0
H1844 H 0.28405 0.69267 0.50764 0.0
H1845 H 0.22513 0.67826 0.37883 0.0
H1846 H 0.27576 0.7252 0.44703 0.0
H1847 H 0.25911 0.64737 0.42891 0.0
C1848 C 0.26816 0.64682 0.46573 0.0
C1849 C 0.27445 0.65929 0.48836 0.0
C1850 C 0.26492 0.7149 0.43191 0.0
C1851 C 0.26806 0.68049 0.44916 0.0
C1852 C 0.25437 0.72492 0.41488 0.0
C1853 C 0.2394 0.71181 0.3959 0.0
C1854 C 0.26048 0.69169 0.42966 0.0
C1855 C 0.2363 0.68878 0.39358 0.0
C1856 C 0.26497 0.65735 0.4461 0.0
C1857 C 0.27891 0.68245 0.4905 0.0
N1858 N 0.24663 0.67941 0.41041 0.0
N1859 N 0.27536 0.69233 0.47114 0.0
H1860 H 0.63756 0.9977 0.66253 0.0
H1861 H 0.5622 0.0631 0.59689 0.0
H1862 H 0.65922 0.06857 0.66813 0.0
H1863 H 0.57088 -0.00043 0.56447 0.0
H1864 H 0.59567 0.0656 0.62586 0.0
H1865 H 0.61081 0.99769 0.62785 0.0
C1866 C 0.63706 0.01312 0.65587 0.0
C1867 C 0.65058 0.03307 0.66756 0.0
C1868 C 0.59027 0.05131 0.61216 0.0
C1869 C 0.61984 0.03339 0.62906 0.0
C1870 C 0.57117 0.04976 0.59604 0.0
C1871 C 0.56414 0.03116 0.57857 0.0
C1872 C 0.6016 0.03383 0.61088 0.0
C1873 C 0.57604 0.01421 0.57774 0.0
C1874 C 0.62185 0.01316 0.63629 0.0
C1875 C 0.64919 0.05285 0.65899 0.0
N1876 N 0.59421 0.01588 0.59387 0.0
N1877 N 0.6336 0.05262 0.64031 0.0
H1878 H 0.31644 0.3774 0.94921 0.0
H1879 H 0.2536 0.27909 0.84894 0.0
H1880 H 0.26901 0.32193 0.96491 0.0
H1881 H 0.31928 0.31802 0.84441 0.0
H1882 H 0.25729 0.29556 0.89049 0.0
H1883 H 0.3165 0.35695 0.90999 0.0
C1884 C 0.30616 0.36079 0.94439 0.0
C1885 C 0.29273 0.35127 0.96024 0.0
C1886 C 0.271 0.30029 0.88047 0.0
C1887 C 0.29225 0.328 0.9152 0.0
C1888 C 0.26888 0.291 0.8567 0.0
C1889 C 0.28617 0.29719 0.84309 0.0
C1890 C 0.29037 0.31624 0.89066 0.0
C1891 C 0.30559 0.31264 0.85419 0.0
C1892 C 0.30623 0.34913 0.92206 0.0
C1893 C 0.27972 0.32973 0.95321 0.0
N1894 N 0.30705 0.32182 0.87722 0.0
N1895 N 0.27951 0.31892 0.93102 0.0
H1896 H 0.9677 0.04611 0.3392 0.0
H1897 H 0.00386 0.98407 0.44603 0.0
H1898 H 0.96319 0.97579 0.33417 0.0
H1899 H 0.00207 0.05307 0.45716 0.0
H1900 H 0.98939 0.98154 0.40466 0.0
H1901 H 0.9804 0.05012 0.38207 0.0
C1902 C 0.96913 0.03154 0.3472 0.0
C1903 C 0.96467 0.01061 0.33322 0.0
C1904 C 0.99222 0.99736 0.41598 0.0
C1905 C 0.9789 0.01496 0.38185 0.0
C1906 C 0.00076 -0.00125 0.43966 0.0
C1907 C 0.00449 0.01872 0.455 0.0
C1908 C 0.98756 0.01626 0.40729 0.0
C1909 C -0.0006 0.03728 0.44583 0.0
C1910 C 0.97641 0.03382 0.37157 0.0
C1911 C 0.96686 0.99226 0.34428 0.0
N1912 N 0.99133 0.03567 0.42248 0.0
N1913 N 0.9738 0.99487 0.36784 0.0
H1914 H 0.24741 0.67775 0.60349 0.0
H1915 H 0.30191 0.73088 0.732 0.0
H1916 H 0.27487 0.63872 0.65122 0.0
H1917 H 0.24531 0.75141 0.69679 0.0
H1918 H 0.2951 0.69826 0.70164 0.0
H1919 H 0.24908 0.70668 0.63676 0.0
C1920 C 0.25377 0.67538 0.62109 0.0
C1921 C 0.26123 0.65619 0.62491 0.0
C1922 C 0.28401 0.70976 0.70082 0.0
C1923 C 0.26336 0.6889 0.66261 0.0
C1924 C 0.28788 0.72829 0.71801 0.0
C1925 C 0.27389 0.74345 0.71682 0.0
C1926 C 0.26645 0.70692 0.68221 0.0
C1927 C 0.25639 0.73995 0.69812 0.0
C1928 C 0.25455 0.69171 0.63999 0.0
C1929 C 0.26904 0.65347 0.64785 0.0
N1930 N 0.25318 0.72197 0.68135 0.0
N1931 N 0.27026 0.66995 0.66602 0.0
H1932 H 0.64899 0.01681 0.80908 0.0
H1933 H 0.55743 0.06083 0.87352 0.0
H1934 H 0.62515 0.07619 0.79942 0.0
H1935 H 0.61576 0.05636 0.92041 0.0
H1936 H 0.57427 0.04625 0.84 0.0
H1937 H 0.63131 0.01559 0.8458 0.0
C1938 C 0.64029 0.02962 0.81483 0.0
C1939 C 0.63781 0.04626 0.80104 0.0
C1940 C 0.58304 0.04788 0.85775 0.0
C1941 C 0.61776 0.04468 0.84177 0.0
C1942 C 0.57359 0.05633 0.8767 0.0
C1943 C 0.58575 0.06048 0.89934 0.0
C1944 C 0.6049 0.04419 0.86157 0.0
C1945 C 0.60631 0.05384 0.9029 0.0
C1946 C 0.63023 0.02882 0.83551 0.0
C1947 C 0.62673 0.06267 0.80914 0.0
N1948 N 0.61575 0.0466 0.88394 0.0
N1949 N 0.61688 0.06131 0.82886 0.0
H1950 H 0.31889 0.36618 0.12526 0.0
H1951 H 0.24123 0.28927 0.19717 0.0
H1952 H 0.26095 0.31783 0.08865 0.0
H1953 H 0.31312 0.31081 0.21673 0.0
H1954 H 0.24516 0.3025 0.15888 0.0
H1955 H 0.31404 0.34981 0.16129 0.0
C1956 C 0.30523 0.35202 0.12476 0.0
C1957 C 0.29046 0.34322 0.10384 0.0
C1958 C 0.26 0.30427 0.17167 0.0
C1959 C 0.28453 0.32466 0.14522 0.0
C1960 C 0.25779 0.29671 0.19345 0.0
C1961 C 0.27682 0.29938 0.21045 0.0
C1962 C 0.28131 0.31485 0.16714 0.0
C1963 C 0.29786 0.30913 0.20464 0.0
C1964 C 0.30247 0.34268 0.14532 0.0
C1965 C 0.2729 0.32495 0.10433 0.0
N1966 N 0.29949 0.31672 0.18368 0.0
N1967 N 0.27027 0.31636 0.12476 0.0
H1968 H 0.22342 0.96536 0.95789 0.0
H1969 H 0.18774 0.00865 0.07533 0.0
H1970 H 0.22299 0.92829 0.01629 0.0
H1971 H 0.13284 0.9916 0.01771 0.0
H1972 H 0.21114 0.99199 0.04949 0.0
H1973 H 0.19701 0.98573 0.97558 0.0
C1974 C 0.21704 0.96107 0.97392 0.0
C1975 C 0.22466 0.94508 0.98565 0.0
C1976 C 0.19403 0.99233 0.0426 0.0
C1977 C 0.19664 0.96871 0.00617 0.0
C1978 C 0.18074 0.00154 0.05725 0.0
C1979 C 0.15833 0.00088 0.04869 0.0
C1980 C 0.18472 0.98259 0.01947 0.0
C1981 C 0.15009 0.99219 0.0249 0.0
C1982 C 0.20241 0.97274 0.98402 0.0
C1983 C 0.21682 0.94022 0.00664 0.0
N1984 N 0.16329 0.983 0.01102 0.0
N1985 N 0.20353 0.95244 0.01663 0.0
H1986 H 0.674 0.66102 0.00483 0.0
H1987 H 0.61356 0.54169 0.02592 0.0
H1988 H 0.70688 0.60581 -0.0017 0.0
H1989 H 0.5772 0.58761 -0.00217 0.0
H1990 H 0.64881 0.56579 0.02032 0.0
H1991 H 0.63877 0.63533 0.00762 0.0
C1992 C 0.67377 0.64352 0.00383 0.0
C1993 C 0.69333 0.63553 0.00128 0.0
C1994 C 0.633 0.57035 0.01525 0.0
C1995 C 0.65335 0.60621 0.00469 0.0
C1996 C 0.61284 0.55646 0.01815 0.0
C1997 C 0.59222 0.56224 0.01191 0.0
C1998 C 0.63249 0.59044 0.00679 0.0
C1999 C 0.59258 0.58226 0.00288 0.0
C2000 C 0.65371 0.62889 0.00541 0.0
C2001 C 0.69215 0.61268 0.00025 0.0
N2002 N 0.61236 0.5957 0.00084 0.0
N2003 N 0.67251 0.59881 0.00211 0.0
H2004 H 0.64359 0.4675 0.29801 0.0
H2005 H 0.75074 0.4303 0.25237 0.0
H2006 H 0.69833 0.51118 0.27502 0.0
H2007 H 0.69493 0.38478 0.27084 0.0
H2008 H 0.73501 0.46126 0.2682 0.0
H2009 H 0.6648 0.43807 0.29487 0.0
C2010 C 0.66011 0.47092 0.29242 0.0
C2011 C 0.66917 0.49173 0.28659 0.0
C2012 C 0.7264 0.44456 0.26933 0.0
C2013 C 0.69342 0.45824 0.2829 0.0
C2014 C 0.73552 0.42697 0.26054 0.0
C2015 C 0.72412 0.40519 0.26059 0.0
C2016 C 0.70553 0.44023 0.27783 0.0
C2017 C 0.70424 0.40148 0.27081 0.0
C2018 C 0.67222 0.45416 0.29071 0.0
C2019 C 0.69071 0.49537 0.27969 0.0
N2020 N 0.69534 0.41888 0.27877 0.0
N2021 N 0.70199 0.47873 0.27782 0.0
H2022 H 0.86367 0.43605 0.48319 0.0
H2023 H 0.9659 0.5277 0.5539 0.0
H2024 H 0.85812 0.4973 0.52371 0.0
H2025 H 0.97079 0.47972 0.49493 0.0
H2026 H 0.92734 0.50736 0.55511 0.0
H2027 H 0.90382 0.44378 0.49864 0.0
C2028 C 0.87106 0.45109 0.49544 0.0
C2029 C 0.85825 0.46658 0.50173 0.0
C2030 C 0.93705 0.50116 0.54217 0.0
C2031 C 0.90319 0.47502 0.51991 0.0
C2032 C 0.95874 0.5128 0.54139 0.0
C2033 C 0.97061 0.50551 0.5238 0.0
C2034 C 0.92751 0.48274 0.52484 0.0
C2035 C 0.9615 0.48587 0.50836 0.0
C2036 C 0.8937 0.45532 0.50443 0.0
C2037 C 0.86797 0.48552 0.51793 0.0
N2038 N 0.94013 0.47528 0.50889 0.0
N2039 N 0.89008 0.48935 0.52642 0.0
H2040 H 0.36207 0.06767 0.27802 0.0
H2041 H 0.3164 0.17059 0.27958 0.0
H2042 H 0.33513 0.08196 0.34307 0.0
H2043 H 0.28397 0.11246 0.22923 0.0
H2044 H 0.33115 0.14673 0.30521 0.0
H2045 H 0.34347 0.09423 0.26097 0.0
C2046 C 0.35243 0.07677 0.28876 0.0
C2047 C 0.34977 0.07284 0.31172 0.0
C2048 C 0.32031 0.13939 0.28881 0.0
C2049 C 0.32875 0.10279 0.29253 0.0
C2050 C 0.31196 0.15283 0.27413 0.0
C2051 C 0.29916 0.14342 0.25206 0.0
C2052 C 0.31606 0.11666 0.28102 0.0
C2053 C 0.29423 0.12041 0.24575 0.0
C2054 C 0.34184 0.09169 0.27905 0.0
C2055 C 0.33723 0.08476 0.32518 0.0
N2056 N 0.3031 0.10779 0.26001 0.0
N2057 N 0.32694 0.09949 0.31527 0.0
H2058 H 0.32405 0.14768 0.55621 0.0
H2059 H 0.42265 0.10384 0.51136 0.0
H2060 H 0.31314 0.12814 0.48058 0.0
H2061 H 0.38423 0.07372 0.56175 0.0
H2062 H 0.39063 0.12025 0.49831 0.0
H2063 H 0.35701 0.13114 0.55861 0.0
C2064 C 0.32903 0.14037 0.54006 0.0
C2065 C 0.31604 0.13912 0.51823 0.0
C2066 C 0.38912 0.10949 0.51169 0.0
C2067 C 0.35314 0.11984 0.5209 0.0
C2068 C 0.4072 0.10015 0.51905 0.0
C2069 C 0.40589 0.08772 0.53774 0.0
C2070 C 0.37013 0.10644 0.52348 0.0
C2071 C 0.38581 0.08343 0.54745 0.0
C2072 C 0.34761 0.13083 0.54145 0.0
C2073 C 0.323 0.12944 0.4977 0.0
N2074 N 0.36883 0.09315 0.54052 0.0
N2075 N 0.34112 0.11978 0.49951 0.0
H2076 H 0.64515 0.64102 0.29604 0.0
H2077 H 0.76251 0.69688 0.26162 0.0
H2078 H 0.69573 0.60267 0.28615 0.0
H2079 H 0.72437 0.73222 0.30565 0.0
H2080 H 0.73767 0.66187 0.2663 0.0
H2081 H 0.67309 0.67461 0.29506 0.0
C2082 C 0.6622 0.63967 0.29384 0.0
C2083 C 0.6681 0.61899 0.29122 0.0
C2084 C 0.73498 0.67737 0.27502 0.0
C2085 C 0.70018 0.65749 0.28971 0.0
C2086 C 0.74913 0.69734 0.2724 0.0
C2087 C 0.7456 0.71763 0.28323 0.0
C2088 C 0.71692 0.67782 0.28807 0.0
C2089 C 0.7278 0.71712 0.29681 0.0
C2090 C 0.67816 0.65888 0.29331 0.0
C2091 C 0.6905 0.61831 0.28837 0.0
N2092 N 0.71404 0.69765 0.29858 0.0
N2093 N 0.70573 0.63729 0.28742 0.0
H2094 H 0.85879 0.43382 0.74758 0.0
H2095 H 0.79299 0.3469 0.81719 0.0
H2096 H 0.83316 0.45291 0.81229 0.0
H2097 H 0.79193 0.33327 0.74181 0.0
H2098 H 0.80992 0.38564 0.81642 0.0
H2099 H 0.83631 0.39626 0.74525 0.0
C2100 C 0.84826 0.43011 0.76114 0.0
C2101 C 0.84781 0.44632 0.78019 0.0
C2102 C 0.80596 0.37417 0.80001 0.0
C2103 C 0.82258 0.4037 0.77785 0.0
C2104 C 0.79638 0.35215 0.80046 0.0
C2105 C 0.7917 0.33699 0.77955 0.0
C2106 C 0.81101 0.38088 0.77849 0.0
C2107 C 0.79631 0.34436 0.75833 0.0
C2108 C 0.83543 0.40879 0.75976 0.0
C2109 C 0.83386 0.44085 0.79726 0.0
N2110 N 0.80595 0.3659 0.7583 0.0
N2111 N 0.822 0.41984 0.79587 0.0
H2112 H 0.06827 0.88112 0.11026 0.0
H2113 H 0.01984 0.94629 0.01027 0.0
H2114 H 0.04268 0.84853 0.03922 0.0
H2115 H 0.06101 0.97908 0.07549 0.0
H2116 H 0.02515 0.91042 0.02088 0.0
H2117 H 0.06316 0.91637 0.09836 0.0
C2118 C 0.06155 0.88125 0.09209 0.0
C2119 C 0.05602 0.8614 0.07585 0.0
C2120 C 0.03307 0.92545 0.03287 0.0
C2121 C 0.04968 0.90257 0.0619 0.0
C2122 C 0.02996 0.94611 0.02685 0.0
C2123 C 0.03992 0.96621 0.0419 0.0
C2124 C 0.04609 0.92445 0.05435 0.0
C2125 C 0.05293 0.96436 0.06311 0.0
C2126 C 0.05864 0.90158 0.08526 0.0
C2127 C 0.04737 0.86315 0.0525 0.0
N2128 N 0.05549 0.94413 0.06863 0.0
N2129 N 0.04436 0.88314 0.04636 0.0
H2130 H 0.94515 0.26165 0.85377 0.0
H2131 H 0.81234 0.25302 0.84509 0.0
H2132 H 0.91384 0.2597 0.91727 0.0
H2133 H 0.85509 0.28392 0.79844 0.0
H2134 H 0.84628 0.24921 0.8703 0.0
H2135 H 0.90928 0.26174 0.83138 0.0
C2136 C 0.93061 0.26098 0.86307 0.0
C2137 C 0.9328 0.26085 0.88764 0.0
C2138 C 0.8481 0.25668 0.85443 0.0
C2139 C 0.89095 0.26117 0.86159 0.0
C2140 C 0.82873 0.25888 0.83997 0.0
C2141 C 0.83058 0.26842 0.81907 0.0
C2142 C 0.86951 0.26367 0.84777 0.0
C2143 C 0.85242 0.27574 0.81366 0.0
C2144 C 0.91004 0.26116 0.85018 0.0
C2145 C 0.91305 0.25972 0.8984 0.0
N2146 N 0.87078 0.27306 0.82767 0.0
N2147 N 0.89295 0.26008 0.88534 0.0
H2148 H 0.52367 0.20298 0.59911 0.0
H2149 H 0.56389 0.10384 0.52301 0.0
H2150 H 0.57528 0.2158 0.55442 0.0
H2151 H 0.51098 0.09429 0.56672 0.0
H2152 H 0.5681 0.14408 0.5327 0.0
H2153 H 0.51796 0.16335 0.58526 0.0
C2154 C 0.53346 0.19751 0.58584 0.0
C2155 C 0.54967 0.21311 0.57766 0.0
C2156 C 0.55559 0.1332 0.54022 0.0
C2157 C 0.54375 0.16677 0.56208 0.0
C2158 C 0.55331 0.11002 0.53487 0.0
C2159 C 0.53731 0.09512 0.5443 0.0
C2160 C 0.54172 0.14196 0.55517 0.0
C2161 C 0.5237 0.1047 0.55901 0.0
C2162 C 0.53033 0.17469 0.57808 0.0
C2163 C 0.5622 0.20465 0.56088 0.0
N2164 N 0.52626 0.1272 0.56395 0.0
N2165 N 0.55911 0.18217 0.55384 0.0
H2166 H 0.58036 0.79119 0.43703 0.0
H2167 H 0.63136 0.75706 0.3183 0.0
H2168 H 0.54499 0.73978 0.38057 0.0
H2169 H 0.65943 0.81702 0.36696 0.0
H2170 H 0.60296 0.74675 0.34434 0.0
H2171 H 0.61246 0.79746 0.41481 0.0
C2172 C 0.57944 0.78104 0.42008 0.0
C2173 C 0.55989 0.765 0.41059 0.0
C2174 C 0.61553 0.76201 0.34953 0.0
C2175 C 0.59669 0.772 0.3851 0.0
C2176 C 0.63182 0.76776 0.33479 0.0
C2177 C 0.6478 0.78777 0.34069 0.0
C2178 C 0.6152 0.77643 0.37032 0.0
C2179 C 0.64748 0.80134 0.36198 0.0
C2180 C 0.59775 0.78468 0.40737 0.0
C2181 C 0.55963 0.75245 0.38847 0.0
N2182 N 0.63139 0.79547 0.37598 0.0
N2183 N 0.5777 0.7562 0.37651 0.0
H2184 H 0.03482 0.22099 0.36763 0.0
H2185 H 0.02829 0.1792 0.49322 0.0
H2186 H 0.04903 0.26494 0.43415 0.0
H2187 H 0.0161 0.13519 0.42707 0.0
H2188 H 0.04068 0.21051 0.47241 0.0
H2189 H 0.03172 0.18933 0.38921 0.0
C2190 C 0.03732 0.22401 0.38678 0.0
C2191 C 0.04203 0.24573 0.39905 0.0
C2192 C 0.03585 0.19397 0.46245 0.0
C2193 C 0.03847 0.20939 0.42399 0.0
C2194 C 0.0291 0.17606 0.47442 0.0
C2195 C 0.02163 0.15456 0.4619 0.0
C2196 C 0.03478 0.1904 0.43768 0.0
C2197 C 0.02219 0.15147 0.43741 0.0
C2198 C 0.03562 0.20589 0.39912 0.0
C2199 C 0.0453 0.24854 0.4239 0.0
N2200 N 0.02839 0.16919 0.42608 0.0
N2201 N 0.0433 0.23063 0.4355 0.0
H2202 H 0.59303 0.28342 0.24898 0.0
H2203 H 0.70406 0.23383 0.23804 0.0
H2204 H 0.59556 0.23006 0.19471 0.0
H2205 H 0.70824 0.30161 0.26804 0.0
H2206 H 0.66321 0.2293 0.22755 0.0
H2207 H 0.63382 0.28768 0.26145 0.0
C2208 C 0.60203 0.27242 0.23985 0.0
C2209 C 0.59062 0.25634 0.22069 0.0
C2210 C 0.67305 0.24517 0.23649 0.0
C2211 C 0.63753 0.2609 0.23521 0.0
C2212 C 0.69647 0.24772 0.24268 0.0
C2213 C 0.70996 0.2681 0.25411 0.0
C2214 C 0.66261 0.26301 0.24203 0.0
C2215 C 0.6988 0.28556 0.25922 0.0
C2216 C 0.6254 0.27495 0.2469 0.0
C2217 C 0.60348 0.24276 0.20948 0.0
N2218 N 0.67597 0.28259 0.25332 0.0
N2219 N 0.62596 0.2452 0.21696 0.0
H2220 H 0.58074 0.88607 0.91563 0.0
H2221 H 0.50002 0.96431 0.96392 0.0
H2222 H 0.50943 0.87267 0.89253 0.0
H2223 H 0.56918 0.97196 0.99386 0.0
H2224 H 0.5031 0.93133 0.9371 0.0
H2225 H 0.5771 0.9181 0.94354 0.0
C2226 C 0.56429 0.88979 0.91659 0.0
C2227 C 0.54535 0.87659 0.90185 0.0
C2228 C 0.51764 0.94017 0.9495 0.0
C2229 C 0.54097 0.91344 0.9337 0.0
C2230 C 0.51587 0.95902 0.9648 0.0
C2231 C 0.5344 0.97089 0.98111 0.0
C2232 C 0.53821 0.93321 0.95024 0.0
C2233 C 0.55449 0.96325 0.98159 0.0
C2234 C 0.56218 0.9081 0.9325 0.0
C2235 C 0.52445 0.88235 0.90364 0.0
N2236 N 0.55591 0.94506 0.96634 0.0
N2237 N 0.52283 0.90027 0.91917 0.0
H2238 H 0.94924 0.78114 0.71445 0.0
H2239 H 0.83303 0.72921 0.7613 0.0
H2240 H 0.93811 0.71891 0.74112 0.0
H2241 H 0.85179 0.79798 0.75333 0.0
H2242 H 0.86976 0.72412 0.75079 0.0
H2243 H 0.91268 0.78662 0.72538 0.0
C2244 C 0.93922 0.76859 0.7226 0.0
C2245 C 0.94721 0.74952 0.72686 0.0
C2246 C 0.86592 0.74038 0.75142 0.0
C2247 C 0.90454 0.75564 0.73927 0.0
C2248 C 0.84479 0.74333 0.75746 0.0
C2249 C 0.83896 0.76418 0.75857 0.0
C2250 C 0.88164 0.75828 0.74601 0.0
C2251 C 0.85527 0.78164 0.75307 0.0
C2252 C 0.91822 0.77176 0.72889 0.0
C2253 C 0.93304 0.73395 0.7375 0.0
N2254 N 0.87556 0.77829 0.74701 0.0
N2255 N 0.9126 0.73727 0.74313 0.0
H2256 H 0.08991 0.07868 0.8648 0.0
H2257 H 0.06693 0.99773 0.96149 0.0
H2258 H 0.09451 0.01026 0.85119 0.0
H2259 H 0.0461 0.05977 0.96171 0.0
H2260 H 0.08141 0.0025 0.92355 0.0
H2261 H 0.07929 0.07304 0.90355 0.0
C2262 C 0.08853 0.0624 0.86997 0.0
C2263 C 0.09283 0.04486 0.8547 0.0
C2264 C 0.07384 0.01512 0.93208 0.0
C2265 C 0.08032 0.03812 0.89905 0.0
C2266 C 0.06573 0.01245 0.95369 0.0
C2267 C 0.05552 0.02848 0.96467 0.0
C2268 C 0.07212 0.0342 0.92189 0.0
C2269 C 0.05383 0.04702 0.95372 0.0
C2270 C 0.08247 0.05916 0.89211 0.0
C2271 C 0.09133 0.02421 0.86252 0.0
N2272 N 0.0622 0.04945 0.93313 0.0
N2273 N 0.08497 0.02132 0.88412 0.0
H2274 H 0.80691 0.42522 0.57947 0.0
H2275 H 0.78789 0.3106 0.62969 0.0
H2276 H 0.76765 0.36319 0.5408 0.0
H2277 H 0.83507 0.3696 0.66468 0.0
H2278 H 0.77335 0.33213 0.60121 0.0
H2279 H 0.81089 0.40743 0.61475 0.0
C2280 C 0.7989 0.40793 0.5785 0.0
C2281 C 0.78719 0.3955 0.55718 0.0
C2282 C 0.78673 0.34046 0.61524 0.0
C2283 C 0.79162 0.3752 0.59725 0.0
C2284 C 0.79497 0.32819 0.63136 0.0
C2285 C 0.813 0.33843 0.64881 0.0
C2286 C 0.79674 0.36301 0.61671 0.0
C2287 C 0.8215 0.36121 0.65086 0.0
C2288 C 0.80116 0.39782 0.59861 0.0
C2289 C 0.77709 0.37324 0.55683 0.0
N2290 N 0.81346 0.3728 0.63473 0.0
N2291 N 0.77969 0.36374 0.57655 0.0
H2292 H 0.40716 0.98431 0.37572 0.0
H2293 H 0.48571 0.05689 0.48799 0.0
H2294 H 0.4498 0.04833 0.37585 0.0
H2295 H 0.48864 0.98955 0.4629 0.0
H2296 H 0.45352 0.05383 0.45735 0.0
H2297 H 0.41918 0.98753 0.41854 0.0
C2298 C 0.41893 -0.00096 0.38495 0.0
C2299 C 0.42846 0.01572 0.37269 0.0
C2300 C 0.46055 0.03945 0.45946 0.0
C2301 C 0.44079 0.02 0.42072 0.0
C2302 C 0.47878 0.04119 0.47668 0.0
C2303 C 0.48924 0.02332 0.47767 0.0
C2304 C 0.45314 0.01975 0.44351 0.0
C2305 C 0.48065 0.00353 0.46238 0.0
C2306 C 0.42534 0.00102 0.40915 0.0
C2307 C 0.4429 0.0349 0.38496 0.0
N2308 N 0.46295 0.00224 0.44569 0.0
N2309 N 0.44891 0.03647 0.40851 0.0
H2310 H 0.7289 0.68959 0.09385 0.0
H2311 H 0.80712 0.76638 0.20633 0.0
H2312 H 0.79757 0.72158 0.09104 0.0
H2313 H 0.73572 0.74104 0.20281 0.0
H2314 H 0.80476 0.75037 0.1647 0.0
H2315 H 0.73152 0.7092 0.1338 0.0
C2316 C 0.74451 0.70097 0.10168 0.0
C2317 C 0.76301 0.70405 0.08918 0.0
C2318 C 0.7896 0.74851 0.17302 0.0
C2319 C 0.76644 0.72623 0.13534 0.0
C2320 C 0.79091 0.75759 0.19682 0.0
C2321 C 0.77149 0.75527 0.20814 0.0
C2322 C 0.76874 0.73692 0.16044 0.0
C2323 C 0.75106 0.74352 0.19491 0.0
C2324 C 0.74605 0.71214 0.12453 0.0
C2325 C 0.78287 0.71896 0.10007 0.0
N2326 N 0.75024 0.73482 0.17188 0.0
N2327 N 0.78417 0.72934 0.12271 0.0
H2328 H 0.12915 0.05368 0.70079 0.0
H2329 H 0.01931 0.02331 0.60324 0.0
H2330 H 0.06353 0.02397 0.71648 0.0
H2331 H 0.08674 0.04733 0.58882 0.0
H2332 H 0.03421 0.02478 0.64507 0.0
H2333 H 0.11304 0.05288 0.66012 0.0
C2334 C 0.11131 0.04687 0.69566 0.0
C2335 C 0.09769 0.03883 0.71213 0.0
C2336 C 0.04571 0.02988 0.63278 0.0
C2337 C 0.07899 0.03785 0.6652 0.0
C2338 C 0.03721 0.02915 0.60901 0.0
C2339 C 0.0519 0.03513 0.59272 0.0
C2340 C 0.06899 0.03705 0.64025 0.0
C2341 C 0.07493 0.04235 0.60086 0.0
C2342 C 0.10209 0.04645 0.67235 0.0
C2343 C 0.07464 0.03037 0.70438 0.0
N2344 N 0.08274 0.04317 0.62403 0.0
N2345 N 0.066 0.03007 0.68143 0.0
H2346 H 0.80499 0.37443 0.43699 0.0
H2347 H 0.75296 0.32503 0.30786 0.0
H2348 H 0.78054 0.41686 0.39109 0.0
H2349 H 0.8102 0.30531 0.34259 0.0
H2350 H 0.76003 0.35812 0.33819 0.0
H2351 H 0.80395 0.34718 0.40264 0.0
C2352 C 0.79964 0.37811 0.41963 0.0
C2353 C 0.79275 0.39782 0.41677 0.0
C2354 C 0.77128 0.34676 0.33874 0.0
C2355 C 0.79155 0.36681 0.37762 0.0
C2356 C 0.76728 0.32808 0.32157 0.0
C2357 C 0.78133 0.31304 0.32291 0.0
C2358 C 0.78898 0.34964 0.35731 0.0
C2359 C 0.79923 0.31688 0.34117 0.0
C2360 C 0.79919 0.36263 0.40008 0.0
C2361 C 0.78598 0.4018 0.39393 0.0
N2362 N 0.80249 0.33484 0.35789 0.0
N2363 N 0.78524 0.38617 0.37505 0.0
H2364 H 0.42923 0.05418 0.24778 0.0
H2365 H 0.44204 0.96133 0.14574 0.0
H2366 H 0.37927 0.99375 0.22419 0.0
H2367 H 0.48783 0.0249 0.16405 0.0
H2368 H 0.41623 0.97464 0.17098 0.0
H2369 H 0.44805 0.04616 0.21339 0.0
C2370 C 0.42205 0.03943 0.23506 0.0
C2371 C 0.40289 0.02452 0.23875 0.0
C2372 C 0.43183 0.98577 0.16936 0.0
C2373 C 0.42452 0.01484 0.19997 0.0
C2374 C 0.44652 0.97811 0.15514 0.0
C2375 C 0.46701 0.99204 0.15336 0.0
C2376 C 0.43798 0.00735 0.18205 0.0
C2377 C 0.47216 0.01373 0.16535 0.0
C2378 C 0.43277 0.03481 0.2155 0.0
C2379 C 0.39404 0.00569 0.22184 0.0
N2380 N 0.45782 0.02068 0.17948 0.0
N2381 N 0.40521 0.00114 0.20336 0.0
H2382 H 0.766 0.67302 0.92096 0.0
H2383 H 0.77111 0.77613 0.85274 0.0
H2384 H 0.77402 0.73992 0.95644 0.0
H2385 H 0.78828 0.71592 0.82195 0.0
H2386 H 0.76965 0.7622 0.89001 0.0
H2387 H 0.77097 0.68728 0.88376 0.0
C2388 C 0.76896 0.69074 0.92098 0.0
C2389 C 0.76963 0.70534 0.94189 0.0
C2390 C 0.77405 0.75211 0.87525 0.0
C2391 C 0.77533 0.72167 0.89933 0.0
C2392 C 0.77526 0.7602 0.8539 0.0
C2393 C 0.78079 0.74759 0.83426 0.0
C2394 C 0.77762 0.73087 0.87698 0.0
C2395 C 0.78437 0.72639 0.8367 0.0
C2396 C 0.77185 0.69883 0.89973 0.0
C2397 C 0.77329 0.72807 0.94077 0.0
N2398 N 0.7826 0.71862 0.85768 0.0
N2399 N 0.77595 0.73553 0.91983 0.0
H2400 H 0.79863 0.04896 0.05732 0.0
H2401 H 0.91929 0.09327 0.02111 0.0
H2402 H 0.83538 0.11673 0.07578 0.0
H2403 H 0.88004 0.02677 0.00018 0.0
H2404 H 0.89195 0.1009 0.04759 0.0
H2405 H 0.83217 0.03869 0.04411 0.0
C2406 C 0.81407 0.06149 0.05942 0.0
C2407 C 0.81435 0.0837 0.06722 0.0
C2408 C 0.88936 0.08462 0.03725 0.0
C2409 C 0.8524 0.07236 0.05174 0.0
C2410 C 0.90474 0.08043 0.02205 0.0
C2411 C 0.90129 0.05964 0.00827 0.0
C2412 C 0.87058 0.06781 0.03845 0.0
C2413 C 0.88278 0.04315 0.01034 0.0
C2414 C 0.83312 0.05572 0.05164 0.0
C2415 C 0.83458 0.09945 0.06943 0.0
N2416 N 0.86795 0.04764 0.02504 0.0
N2417 N 0.85279 0.09354 0.0613 0.0
H2418 H 0.37664 0.40404 0.04272 0.0
H2419 H 0.45082 0.51182 0.01069 0.0
H2420 H 0.35418 0.4653 0.04149 0.0
H2421 H 0.48313 0.47168 0.05329 0.0
H2422 H 0.41434 0.49049 0.01608 0.0
H2423 H 0.4156 0.42463 0.04253 0.0
C2424 C 0.37993 0.42179 0.04291 0.0
C2425 C 0.36213 0.43294 0.04177 0.0
C2426 C 0.42945 0.48645 0.02437 0.0
C2427 C 0.40606 0.45618 0.04102 0.0
C2428 C 0.45031 0.49872 0.02142 0.0
C2429 C 0.47014 0.49401 0.03209 0.0
C2430 C 0.42827 0.46891 0.03758 0.0
C2431 C 0.46826 0.47612 0.04501 0.0
C2432 C 0.40205 0.43345 0.04267 0.0
C2433 C 0.36729 0.45593 0.0419 0.0
N2434 N 0.44765 0.4641 0.04732 0.0
N2435 N 0.38865 0.46668 0.04116 0.0
H2436 H 0.42146 0.59036 0.78649 0.0
H2437 H 0.30944 0.63533 0.75723 0.0
H2438 H 0.36249 0.55248 0.74016 0.0
H2439 H 0.36117 0.66464 0.81583 0.0
H2440 H 0.33238 0.60904 0.74446 0.0
H2441 H 0.40309 0.62173 0.79122 0.0
C2442 C 0.4047 0.58869 0.77718 0.0
C2443 C 0.3933 0.56865 0.76325 0.0
C2444 C 0.33885 0.62142 0.75992 0.0
C2445 C 0.37228 0.60451 0.76847 0.0
C2446 C 0.32584 0.63641 0.76709 0.0
C2447 C 0.33347 0.65182 0.78767 0.0
C2448 C 0.35962 0.62208 0.7734 0.0
C2449 C 0.35473 0.65273 0.79999 0.0
C2450 C 0.39424 0.6066 0.77988 0.0
C2451 C 0.37172 0.5675 0.7514 0.0
N2452 N 0.36705 0.63793 0.79274 0.0
N2453 N 0.36184 0.58514 0.75439 0.0
H2454 H 0.18621 0.62578 0.5592 0.0
H2455 H 0.08953 0.52378 0.50294 0.0
H2456 H 0.19631 0.57143 0.51017 0.0
H2457 H 0.07866 0.58223 0.5444 0.0
H2458 H 0.12707 0.54391 0.49852 0.0
H2459 H 0.14575 0.61244 0.54927 0.0
C2460 C 0.17981 0.61112 0.54613 0.0
C2461 C 0.1944 0.59952 0.53552 0.0
C2462 C 0.1163 0.55257 0.50804 0.0
C2463 C 0.1483 0.58436 0.52384 0.0
C2464 C 0.09497 0.54114 0.51042 0.0
C2465 C 0.08159 0.5516 0.52414 0.0
C2466 C 0.12418 0.57423 0.52015 0.0
C2467 C 0.0889 0.57386 0.53375 0.0
C2468 C 0.15674 0.60361 0.54033 0.0
C2469 C 0.18545 0.58058 0.51891 0.0
N2470 N 0.11005 0.58445 0.53195 0.0
N2471 N 0.16284 0.57347 0.51362 0.0
H2472 H 0.75025 0.00948 0.75109 0.0
H2473 H 0.72434 0.88409 0.76876 0.0
H2474 H 0.68849 0.9624 0.72216 0.0
H2475 H 0.78077 0.9341 0.80558 0.0
H2476 H 0.71646 0.90968 0.74159 0.0
H2477 H 0.76766 0.97889 0.75954 0.0
C2478 C 0.74057 0.99266 0.74601 0.0
C2479 C 0.71777 0.9883 0.73688 0.0
C2480 C 0.73077 0.91494 0.75539 0.0
C2481 C 0.73722 0.95361 0.74665 0.0
C2482 C 0.73506 0.9005 0.77093 0.0
C2483 C 0.75269 0.90756 0.78963 0.0
C2484 C 0.74434 0.93639 0.75874 0.0
C2485 C 0.76655 0.92856 0.79171 0.0
C2486 C 0.75045 0.97524 0.75084 0.0
C2487 C 0.70596 0.96634 0.73009 0.0
N2488 N 0.76193 0.94242 0.77653 0.0
N2489 N 0.71571 0.94971 0.73563 0.0
H2490 H 0.71125 0.89055 0.55608 0.0
H2491 H 0.68098 0.99256 0.498 0.0
H2492 H 0.75756 0.93702 0.5256 0.0
H2493 H 0.6323 0.94777 0.52752 0.0
H2494 H 0.71054 0.97529 0.51388 0.0
H2495 H 0.68298 0.91327 0.55059 0.0
C2496 C 0.71536 0.90542 0.54812 0.0
C2497 C 0.73663 0.91187 0.54111 0.0
C2498 C 0.69352 0.96944 0.51739 0.0
C2499 C 0.70469 0.93774 0.53476 0.0
C2500 C 0.67673 0.97949 0.50853 0.0
C2501 C 0.65436 0.97157 0.51161 0.0
C2502 C 0.68782 0.95104 0.52908 0.0
C2503 C 0.64949 0.95437 0.52501 0.0
C2504 C 0.69936 0.91844 0.54514 0.0
C2505 C 0.74138 0.93145 0.53129 0.0
N2506 N 0.66608 0.94438 0.53299 0.0
N2507 N 0.7255 0.94354 0.52822 0.0
H2508 H 0.39402 0.41568 0.72703 0.0
H2509 H 0.29829 0.35564 0.79619 0.0
H2510 H 0.36651 0.45151 0.78168 0.0
H2511 H 0.32383 0.32349 0.73736 0.0
H2512 H 0.32218 0.39109 0.79136 0.0
H2513 H 0.36726 0.38204 0.73038 0.0
C2514 C 0.38222 0.41649 0.73967 0.0
C2515 C 0.38254 0.43645 0.7541 0.0
C2516 C 0.32239 0.37627 0.77944 0.0
C2517 C 0.35185 0.39769 0.75835 0.0
C2518 C 0.30874 0.35606 0.78216 0.0
C2519 C 0.30903 0.33655 0.76716 0.0
C2520 C 0.33636 0.37692 0.76157 0.0
C2521 C 0.32307 0.33802 0.74943 0.0
C2522 C 0.36691 0.39722 0.74161 0.0
C2523 C 0.36674 0.43649 0.77009 0.0
N2524 N 0.33612 0.35776 0.74718 0.0
N2525 N 0.35215 0.41734 0.77196 0.0
H2526 H 0.23034 0.60112 0.2342 0.0
H2527 H 0.24294 0.72278 0.30252 0.0
H2528 H 0.18814 0.61825 0.28574 0.0
H2529 H 0.27555 0.70578 0.24218 0.0
H2530 H 0.22915 0.68332 0.30352 0.0
H2531 H 0.25379 0.63847 0.24389 0.0
C2532 C 0.22647 0.61274 0.24799 0.0
C2533 C 0.20747 0.60717 0.25914 0.0
C2534 C 0.23943 0.68834 0.29016 0.0
C2535 C 0.23371 0.64937 0.27024 0.0
C2536 C 0.24713 0.71074 0.28955 0.0
C2537 C 0.26001 0.71736 0.27209 0.0
C2538 C 0.24449 0.67277 0.27289 0.0
C2539 C 0.26554 0.70132 0.25586 0.0
C2540 C 0.2397 0.63395 0.25348 0.0
C2541 C 0.20266 0.62244 0.27668 0.0
N2542 N 0.25747 0.6797 0.25646 0.0
N2543 N 0.2157 0.64311 0.28164 0.0
H2544 H 0.47182 0.67447 0.45373 0.0
H2545 H 0.54955 0.60965 0.52938 0.0
H2546 H 0.53118 0.70837 0.50155 0.0
H2547 H 0.48456 0.57811 0.49033 0.0
H2548 H 0.54417 0.64525 0.5185 0.0
H2549 H 0.47689 0.63926 0.46608 0.0
C2550 C 0.48591 0.67463 0.46692 0.0
C2551 C 0.50093 0.69483 0.47661 0.0
C2552 C 0.53101 0.63058 0.51235 0.0
C2553 C 0.50724 0.65373 0.49073 0.0
C2554 C 0.53411 0.61002 0.51856 0.0
C2555 C 0.51759 0.59031 0.5109 0.0
C2556 C 0.51117 0.63191 0.49816 0.0
C2557 C 0.49793 0.5925 0.49684 0.0
C2558 C 0.48883 0.65435 0.47399 0.0
C2559 C 0.51891 0.69351 0.49365 0.0
N2560 N 0.49538 0.61263 0.49098 0.0
N2561 N 0.52161 0.67352 0.49995 0.0
H2562 H 0.60861 0.29705 0.68042 0.0
H2563 H 0.73939 0.29266 0.70239 0.0
H2564 H 0.65014 0.29766 0.62453 0.0
H2565 H 0.69341 0.2756 0.75221 0.0
H2566 H 0.70794 0.29706 0.67476 0.0
H2567 H 0.64022 0.29234 0.7078 0.0
C2568 C 0.62438 0.29623 0.67383 0.0
C2569 C 0.62653 0.29779 0.64995 0.0
C2570 C 0.70473 0.29249 0.69181 0.0
C2571 C 0.6632 0.29234 0.68161 0.0
C2572 C 0.72278 0.28997 0.70778 0.0
C2573 C 0.71944 0.28395 0.73019 0.0
C2574 C 0.68292 0.28938 0.69814 0.0
C2575 C 0.69722 0.28065 0.7356 0.0
C2576 C 0.64247 0.29346 0.68956 0.0
C2577 C 0.64757 0.29661 0.6427 0.0
N2578 N 0.67998 0.28354 0.71987 0.0
N2579 N 0.66499 0.29401 0.6584 0.0
H2580 H 0.04462 0.35326 0.96395 0.0
H2581 H 0.98281 0.44757 0.01714 0.0
H2582 H 0.97864 0.33654 0.98479 0.0
H2583 H 0.04841 0.46023 0.99469 0.0
H2584 H 0.98058 0.40757 0.0073 0.0
H2585 H 0.04641 0.39225 0.97788 0.0
C2586 C 0.03062 0.35772 0.97198 0.0
C2587 C 0.0116 0.34123 0.97341 0.0
C2588 C 0.99547 0.41911 0.00456 0.0
C2589 C 0.01318 0.38687 0.98894 0.0
C2590 C 0.99674 0.44215 0.01017 0.0
C2591 C 0.01581 0.45786 0.00695 0.0
C2592 C 0.01346 0.41137 -0.00444 0.0
C2593 C 0.03326 0.44923 -0.00232 0.0
C2594 C 0.03157 0.38019 0.97977 0.0
C2595 C 0.99388 0.34842 0.98369 0.0
N2596 N 0.03164 0.4269 0.99243 0.0
N2597 N 0.99501 0.3706 0.99083 0.0
H2598 H 0.99686 0.81413 0.14426 0.0
H2599 H 0.93177 0.75598 0.23582 0.0
H2600 H 0.99524 0.74637 0.15384 0.0
H2601 H 0.88717 0.77332 0.18156 0.0
H2602 H 0.96354 0.76862 0.21487 0.0
H2603 H 0.96278 0.8128 0.16437 0.0
C2604 C 0.98905 0.79889 0.15 0.0
C2605 C -0.00102 0.78037 0.14764 0.0
C2606 C 0.94689 0.77035 0.20798 0.0
C2607 C 0.96093 0.77901 0.17081 0.0
C2608 C 0.92884 0.76328 0.21996 0.0
C2609 C 0.90692 0.76365 0.21038 0.0
C2610 C 0.94305 0.77776 0.1862 0.0
C2611 C 0.90392 0.77293 0.18952 0.0
C2612 C 0.96981 0.79822 0.16155 0.0
C2613 C 0.98838 0.76112 0.15562 0.0
N2614 N 0.9218 0.77929 0.17777 0.0
N2615 N 0.97024 0.76107 0.16713 0.0
H2616 H 0.50696 0.29131 0.11718 0.0
H2617 H 0.55501 0.42139 0.12489 0.0
H2618 H 0.53693 0.33457 0.18212 0.0
H2619 H 0.523 0.37892 0.06036 0.0
H2620 H 0.54368 0.39088 0.14705 0.0
H2621 H 0.50874 0.3237 0.09684 0.0
C2622 C 0.51393 0.30761 0.12718 0.0
C2623 C 0.52203 0.31015 0.15137 0.0
C2624 C 0.53858 0.38832 0.12812 0.0
C2625 C 0.5241 0.34744 0.12814 0.0
C2626 C 0.54476 0.40586 0.11554 0.0
C2627 C 0.53954 0.40275 0.09086 0.0
C2628 C 0.52743 0.36735 0.11587 0.0
C2629 C 0.52695 0.38207 0.07944 0.0
C2630 C 0.51484 0.32614 0.11556 0.0
C2631 C 0.5306 0.33176 0.16344 0.0
N2632 N 0.52157 0.36508 0.09198 0.0
N2633 N 0.53158 0.34949 0.15168 0.0
H2634 H 0.96947 0.33004 0.29915 0.0
H2635 H 0.84581 0.26124 0.30945 0.0
H2636 H 0.95936 0.27631 0.3399 0.0
H2637 H 0.85817 0.32378 0.28354 0.0
H2638 H 0.88652 0.26484 0.31882 0.0
H2639 H 0.92876 0.3262 0.29127 0.0
C2640 C 0.95875 0.31726 0.30637 0.0
C2641 C 0.96825 0.30346 0.32026 0.0
C2642 C 0.88034 0.27788 0.31123 0.0
C2643 C 0.92074 0.2989 0.31102 0.0
C2644 C 0.85692 0.2759 0.30584 0.0
C2645 C 0.84802 0.29232 0.29558 0.0
C2646 C 0.89541 0.29637 0.30626 0.0
C2647 C 0.86378 0.31071 0.29136 0.0
C2648 C 0.93533 0.31516 0.3019 0.0
C2649 C 0.95306 0.28739 0.32916 0.0
N2650 N 0.88646 0.31215 0.29655 0.0
N2651 N 0.93021 0.28549 0.3243 0.0
H2652 H 0.98994 0.68451 0.61793 0.0
H2653 H 0.05517 0.58646 0.58904 0.0
H2654 H 0.03942 0.66845 0.66812 0.0
H2655 H 0.9918 0.58735 0.54906 0.0
H2656 H 0.05234 0.61959 0.61542 0.0
H2657 H 0.99268 0.65203 0.58989 0.0
C2658 C 0.00148 0.67427 0.62298 0.0
C2659 C 0.01437 0.67916 0.6455 0.0
C2660 C 0.03891 0.61248 0.60103 0.0
C2661 C 0.01795 0.64224 0.61335 0.0
C2662 C 0.04043 0.5934 0.5861 0.0
C2663 C 0.02334 0.58368 0.56733 0.0
C2664 C 0.02026 0.62224 0.59705 0.0
C2665 C 0.00522 0.59417 0.56354 0.0
C2666 C 0.00299 0.6557 0.60702 0.0
C2667 C 0.02897 0.66521 0.6511 0.0
N2668 N 0.00409 0.6128 0.57828 0.0
N2669 N 0.03046 0.64761 0.63518 0.0
H2670 H 0.63272 0.81706 0.86404 0.0
H2671 H 0.6934 0.7649 0.759 0.0
H2672 H 0.59616 0.78662 0.79579 0.0
H2673 H 0.72903 0.8009 0.82565 0.0
H2674 H 0.6579 0.77166 0.77174 0.0
H2675 H 0.66764 0.81068 0.85008 0.0
C2676 C 0.63191 0.80903 0.84606 0.0
C2677 C 0.61106 0.80243 0.83124 0.0
C2678 C 0.67347 0.77811 0.7836 0.0
C2679 C 0.65182 0.79474 0.81487 0.0
C2680 C 0.6939 0.77418 0.77633 0.0
C2681 C 0.71464 0.78213 0.7912 0.0
C2682 C 0.67341 0.7902 0.80604 0.0
C2683 C 0.71374 0.79423 0.81343 0.0
C2684 C 0.65205 0.80536 0.83804 0.0
C2685 C 0.6116 0.79212 0.80802 0.0
N2686 N 0.69373 0.79779 0.82005 0.0
N2687 N 0.63143 0.78855 0.80068 0.0
H2688 H 0.48878 0.51884 0.7096 0.0
H2689 H 0.46935 0.53814 0.5745 0.0
H2690 H 0.42267 0.51276 0.67129 0.0
H2691 H 0.52922 0.5206 0.60644 0.0
H2692 H 0.45307 0.53428 0.61134 0.0
H2693 H 0.50512 0.52504 0.67338 0.0
C2694 C 0.47769 0.51881 0.69359 0.0
C2695 C 0.4543 0.51516 0.6935 0.0
C2696 C 0.46986 0.53149 0.61026 0.0
C2697 C 0.47293 0.52247 0.65196 0.0
C2698 C 0.4792 0.53378 0.58928 0.0
C2699 C 0.50086 0.53003 0.58734 0.0
C2700 C 0.48234 0.52565 0.62955 0.0
C2701 C 0.51269 0.52417 0.6071 0.0
C2702 C 0.48703 0.52233 0.6729 0.0
C2703 C 0.44078 0.5154 0.67218 0.0
N2704 N 0.50334 0.52226 0.6273 0.0
N2705 N 0.45028 0.51904 0.65231 0.0
H2706 H 0.79311 0.19426 0.00758 0.0
H2707 H 0.72665 0.18606 0.87844 0.0
H2708 H 0.7588 0.13257 0.96437 0.0
H2709 H 0.75421 0.24703 0.92586 0.0
H2710 H 0.74447 0.16594 0.90641 0.0
H2711 H 0.78629 0.21357 0.974 0.0
C2712 C 0.78451 0.18476 0.99088 0.0
C2713 C 0.7763 0.16189 0.98877 0.0
C2714 C 0.74678 0.18374 0.9106 0.0
C2715 C 0.76783 0.18382 0.95061 0.0
C2716 C 0.73657 0.19514 0.89474 0.0
C2717 C 0.73863 0.21804 0.90031 0.0
C2718 C 0.75929 0.19548 0.93195 0.0
C2719 C 0.75182 0.22925 0.92136 0.0
C2720 C 0.78051 0.19576 0.97177 0.0
C2721 C 0.76541 0.15027 0.96672 0.0
N2722 N 0.76158 0.21783 0.9365 0.0
N2723 N 0.7611 0.16143 0.94858 0.0
H2724 H 0.16085 0.56885 0.16474 0.0
H2725 H 0.06974 0.49908 0.06049 0.0
H2726 H 0.12918 0.50024 0.16307 0.0
H2727 H 0.06187 0.562 0.09516 0.0
H2728 H 0.10474 0.50281 0.08721 0.0
H2729 H 0.1366 0.56912 0.12767 0.0
C2730 C 0.1493 0.55375 0.15607 0.0
C2731 C 0.14668 0.53447 0.16648 0.0
C2732 C 0.09565 0.51606 0.08837 0.0
C2733 C 0.12001 0.53458 0.12493 0.0
C2734 C 0.07592 0.51397 0.07328 0.0
C2735 C 0.06376 0.5306 0.07549 0.0
C2736 C 0.10278 0.53472 0.10576 0.0
C2737 C 0.07134 0.54911 0.09299 0.0
C2738 C 0.1356 0.55396 0.13523 0.0
C2739 C 0.13146 0.51532 0.15526 0.0
N2740 N 0.09062 0.55074 0.10768 0.0
N2741 N 0.11853 0.51585 0.13493 0.0
H2742 H 0.78308 0.81998 0.47018 0.0
H2743 H 0.78534 0.83323 0.33388 0.0
H2744 H 0.79477 0.8819 0.44255 0.0
H2745 H 0.78954 0.77116 0.35785 0.0
H2746 H 0.78639 0.85002 0.37436 0.0
H2747 H 0.78318 0.80041 0.43006 0.0
C2748 C 0.78575 0.82944 0.45582 0.0
C2749 C 0.7887 0.85263 0.45979 0.0
C2750 C 0.78709 0.83271 0.37097 0.0
C2751 C 0.7889 0.83049 0.41418 0.0
C2752 C 0.78642 0.82306 0.34773 0.0
C2753 C 0.78727 0.80073 0.34246 0.0
C2754 C 0.78839 0.82 0.38935 0.0
C2755 C 0.78891 0.78849 0.36125 0.0
C2756 C 0.78582 0.81829 0.43299 0.0
C2757 C 0.79209 0.86403 0.44049 0.0
N2758 N 0.78926 0.79825 0.38396 0.0
N2759 N 0.79204 0.85289 0.41873 0.0
H2760 H 0.46133 0.47243 0.83613 0.0
H2761 H 0.51778 0.55533 0.95404 0.0
H2762 H 0.4688 0.54304 0.84009 0.0
H2763 H 0.49171 0.48547 0.95192 0.0
H2764 H 0.50128 0.55194 0.91257 0.0
H2765 H 0.47379 0.47739 0.87855 0.0
C2766 C 0.4657 0.48903 0.84599 0.0
C2767 C 0.46422 0.50736 0.83458 0.0
C2768 C 0.49919 0.53737 0.92123 0.0
C2769 C 0.47885 0.51327 0.8833 0.0
C2770 C 0.50865 0.53926 0.9449 0.0
C2771 C 0.50663 0.52049 0.95642 0.0
C2772 C 0.48775 0.51655 0.90894 0.0
C2773 C 0.49431 0.50023 0.94371 0.0
C2774 C 0.47272 0.49187 0.87025 0.0
C2775 C 0.46973 0.52848 0.84827 0.0
N2776 N 0.48556 0.49877 0.9207 0.0
N2777 N 0.4771 0.53092 0.87191 0.0
H2778 H 0.72514 0.1481 0.12974 0.0
H2779 H 0.8054 0.23354 0.23151 0.0
H2780 H 0.79655 0.16793 0.12783 0.0
H2781 H 0.74259 0.24696 0.20171 0.0
H2782 H 0.79955 0.20085 0.20122 0.0
H2783 H 0.72885 0.1766 0.16452 0.0
C2784 C 0.74159 0.15824 0.13694 0.0
C2785 C 0.76061 0.15597 0.12616 0.0
C2786 C 0.78701 0.21089 0.20156 0.0
C2787 C 0.76489 0.18767 0.16544 0.0
C2788 C 0.79028 0.22937 0.2187 0.0
C2789 C 0.77437 0.24263 0.21882 0.0
C2790 C 0.7676 0.20571 0.18487 0.0
C2791 C 0.75518 0.23699 0.20185 0.0
C2792 C 0.74363 0.1744 0.15652 0.0
C2793 C 0.78156 0.16945 0.13574 0.0
N2794 N 0.7522 0.21869 0.18545 0.0
N2795 N 0.7832 0.18477 0.15504 0.0
H2796 H 0.1461 0.57651 0.31127 0.0
H2797 H 0.1067 0.5492 0.42173 0.0
H2798 H 0.13006 0.50514 0.30127 0.0
H2799 H 0.06076 0.5652 0.36747 0.0
H2800 H 0.12703 0.53465 0.39096 0.0
H2801 H 0.13015 0.57703 0.34842 0.0
C2802 C 0.13982 0.56099 0.31739 0.0
C2803 C 0.13893 0.54076 0.30344 0.0
C2804 C 0.11201 0.54063 0.38596 0.0
C2805 C 0.12061 0.54128 0.34504 0.0
C2806 C 0.10047 0.54899 0.40333 0.0
C2807 C 0.08246 0.55896 0.39699 0.0
C2808 C 0.10526 0.54233 0.36243 0.0
C2809 C 0.07498 0.55826 0.37303 0.0
C2810 C 0.13083 0.56129 0.33841 0.0
C2811 C 0.13071 0.52098 0.31179 0.0
N2812 N 0.08679 0.55054 0.35655 0.0
N2813 N 0.1211 0.52165 0.33202 0.0
H2814 H 0.78195 0.81005 0.58752 0.0
H2815 H 0.76344 0.82707 0.7226 0.0
H2816 H 0.79663 0.87485 0.62968 0.0
H2817 H 0.78714 0.7706 0.69192 0.0
H2818 H 0.76794 0.84313 0.68617 0.0
H2819 H 0.77641 0.79343 0.62352 0.0
C2820 C 0.78414 0.82077 0.60432 0.0
C2821 C 0.78995 0.84387 0.60561 0.0
C2822 C 0.77201 0.82716 0.68748 0.0
C2823 C 0.78311 0.82501 0.64661 0.0
C2824 C 0.7694 0.81795 0.7082 0.0
C2825 C 0.77504 0.79748 0.71046 0.0
C2826 C 0.77969 0.81555 0.66863 0.0
C2827 C 0.78256 0.7864 0.69107 0.0
C2828 C 0.78095 0.81128 0.6248 0.0
C2829 C 0.79234 0.85696 0.62786 0.0
N2830 N 0.78455 0.79551 0.67095 0.0
N2831 N 0.78875 0.84736 0.64745 0.0
H2832 H 0.73948 0.47799 0.47272 0.0
H2833 H 0.65019 0.47019 0.55807 0.0
H2834 H 0.70573 0.41601 0.49089 0.0
H2835 H 0.67084 0.52788 0.52515 0.0
H2836 H 0.66553 0.44825 0.52819 0.0
H2837 H 0.70862 0.49456 0.48382 0.0
C2838 C 0.72515 0.46776 0.4784 0.0
C2839 C 0.72518 0.44596 0.48167 0.0
C2840 C 0.66659 0.46567 0.52734 0.0
C2841 C 0.69058 0.46473 0.49517 0.0
C2842 C 0.65829 0.47816 0.54463 0.0
C2843 C 0.66032 0.5008 0.54433 0.0
C2844 C 0.67717 0.47615 0.51003 0.0
C2845 C 0.66984 0.51049 0.52617 0.0
C2846 C 0.70756 0.47715 0.48476 0.0
C2847 C 0.70629 0.43307 0.48858 0.0
N2848 N 0.6783 0.49813 0.50984 0.0
N2849 N 0.68992 0.44289 0.49588 0.0
H2850 H 0.17428 0.13427 0.46488 0.0
H2851 H 0.10787 0.05393 0.54425 0.0
H2852 H 0.1993 0.13073 0.53687 0.0
H2853 H 0.07668 0.06982 0.47961 0.0
H2854 H 0.14299 0.07906 0.54005 0.0
H2855 H 0.13957 0.1078 0.46818 0.0
C2856 C 0.17222 0.1281 0.48146 0.0
C2857 C 0.18935 0.13464 0.50069 0.0
C2858 C 0.12852 0.07691 0.52668 0.0
C2859 C 0.15009 0.10452 0.50465 0.0
C2860 C 0.10857 0.06243 0.52895 0.0
C2861 C 0.08945 0.05978 0.51217 0.0
C2862 C 0.12941 0.08854 0.5073 0.0
C2863 C 0.09108 0.07147 0.49294 0.0
C2864 C 0.15255 0.11299 0.48334 0.0
C2865 C 0.18633 0.12595 0.52168 0.0
N2866 N 0.11074 0.08531 0.49099 0.0
N2867 N 0.16701 0.11134 0.52315 0.0
H2868 H 0.19491 0.0092 0.76587 0.0
H2869 H 0.19512 0.88349 0.77821 0.0
H2870 H 0.14722 0.96883 0.80113 0.0
H2871 H 0.24329 0.92433 0.74415 0.0
H2872 H 0.18094 0.91618 0.79231 0.0
H2873 H 0.21592 0.97983 0.76241 0.0
C2874 C 0.18905 0.99423 0.77317 0.0
C2875 C 0.16924 0.99129 0.78362 0.0
C2876 C 0.1949 0.91812 0.78214 0.0
C2877 C 0.19321 0.95769 0.77985 0.0
C2878 C 0.20301 0.89953 0.77426 0.0
C2879 C 0.22021 0.90148 0.76006 0.0
C2880 C 0.20398 0.93861 0.77546 0.0
C2881 C 0.22992 0.92237 0.75508 0.0
C2882 C 0.20105 0.97748 0.7712 0.0
C2883 C 0.16228 0.97158 0.79265 0.0
N2884 N 0.22148 0.94017 0.76257 0.0
N2885 N 0.17421 0.95545 0.79046 0.0
H2886 H 0.36135 0.96176 0.96071 0.0
H2887 H 0.46658 0.01157 0.05699 0.0
H2888 H 0.35761 0.96803 0.03555 0.0
H2889 H 0.46745 0.00247 0.98162 0.0
H2890 H 0.42853 0.98817 0.0507 0.0
H2891 H 0.40204 0.96788 0.9689 0.0
C2892 C 0.36935 0.96485 0.97892 0.0
C2893 C 0.35673 0.96574 -0.00237 0.0
C2894 C 0.43716 0.99121 0.03559 0.0
C2895 C 0.4028 0.97296 0.00723 0.0
C2896 C 0.45864 0.00463 0.0392 0.0
C2897 C 0.46938 0.00931 0.01969 0.0
C2898 C 0.42679 0.98281 0.01234 0.0
C2899 C 0.45902 -0.00018 -0.00306 0.0
C2900 C 0.39244 0.96801 0.98364 0.0
C2901 C 0.36728 0.96829 0.02086 0.0
N2902 N 0.43811 0.98713 0.99385 0.0
N2903 N 0.39001 0.97247 0.02515 0.0
H2904 H 0.80898 0.55423 0.80628 0.0
H2905 H 0.84263 0.66729 0.76276 0.0
H2906 H 0.87346 0.59873 0.83005 0.0
H2907 H 0.77312 0.63508 0.76075 0.0
H2908 H 0.8535 0.64405 0.79125 0.0
H2909 H 0.79383 0.58525 0.79481 0.0
C2910 C 0.81974 0.57065 0.80983 0.0
C2911 C 0.84265 0.57385 0.81845 0.0
C2912 C 0.83581 0.64229 0.78494 0.0
C2913 C 0.82566 0.60915 0.80491 0.0
C2914 C 0.82971 0.65538 0.76856 0.0
C2915 C 0.80709 0.65271 0.75937 0.0
C2916 C 0.81916 0.62613 0.79164 0.0
C2917 C 0.79078 0.63738 0.76748 0.0
C2918 C 0.81111 0.58835 0.80318 0.0
C2919 C 0.85579 0.59547 0.82297 0.0
N2920 N 0.79718 0.6243 0.78289 0.0
N2921 N 0.84727 0.61225 0.8155 0.0
H2922 H 0.80271 0.60543 0.99304 0.0
H2923 H 0.92342 0.62215 0.06097 0.0
H2924 H 0.83977 0.66816 0.03163 0.0
H2925 H 0.8902 0.56303 0.01308 0.0
H2926 H 0.89732 0.64226 0.04292 0.0
H2927 H 0.83779 0.59256 0.99225 0.0
C2928 C 0.81842 0.61656 0.00102 0.0
C2929 C 0.81857 0.63762 0.01281 0.0
C2930 C 0.89606 0.62506 0.03585 0.0
C2931 C 0.85854 0.62298 0.01263 0.0
C2932 C 0.91096 0.61365 0.04613 0.0
C2933 C 0.90856 0.59098 0.03859 0.0
C2934 C 0.87836 0.61346 0.0184 0.0
C2935 C 0.89237 0.58054 0.01936 0.0
C2936 C 0.83843 0.6093 0.00052 0.0
C2937 C 0.83916 0.6517 0.02258 0.0
N2938 N 0.87746 0.59176 0.01024 0.0
N2939 N 0.85837 0.64391 0.0228 0.0
H2940 H 0.19477 0.09992 0.78953 0.0
H2941 H 0.22133 0.23179 0.80918 0.0
H2942 H 0.14489 0.13934 0.79822 0.0
H2943 H 0.26207 0.19529 0.77009 0.0
H2944 H 0.19712 0.19712 0.81364 0.0
H2945 H 0.22329 0.13405 0.79023 0.0
C2946 C 0.18989 0.11574 0.79188 0.0
C2947 C 0.16743 0.11684 0.79381 0.0
C2948 C 0.21149 0.19666 0.80429 0.0
C2949 C 0.19982 0.15562 0.79478 0.0
C2950 C 0.2254 0.21647 0.80173 0.0
C2951 C 0.24377 0.21652 0.78909 0.0
C2952 C 0.21595 0.17659 0.79434 0.0
C2953 C 0.24825 0.19606 0.78014 0.0
C2954 C 0.20611 0.13511 0.79212 0.0
C2955 C 0.16196 0.1377 0.7966 0.0
N2956 N 0.23431 0.17682 0.78282 0.0
N2957 N 0.17804 0.15623 0.79705 0.0
H2958 H 0.37994 0.93111 0.26751 0.0
H2959 H 0.26549 0.85358 0.28756 0.0
H2960 H 0.33115 0.95405 0.30773 0.0
H2961 H 0.32168 0.82989 0.26259 0.0
H2962 H 0.28588 0.89154 0.28769 0.0
H2963 H 0.35535 0.89446 0.25889 0.0
C2964 C 0.36408 0.92842 0.27457 0.0
C2965 C 0.35757 0.94556 0.2884 0.0
C2966 C 0.29348 0.87793 0.28174 0.0
C2967 C 0.32941 0.90387 0.2785 0.0
C2968 C 0.28185 0.85634 0.28155 0.0
C2969 C 0.29202 0.83868 0.27505 0.0
C2970 C 0.31521 0.8816 0.27525 0.0
C2971 C 0.31318 0.84302 0.26744 0.0
C2972 C 0.35002 0.90756 0.26954 0.0
C2973 C 0.33678 0.94125 0.29696 0.0
N2974 N 0.3242 0.86412 0.26794 0.0
N2975 N 0.32341 0.92071 0.29193 0.0
H2976 H 0.54479 0.34775 0.53728 0.0
H2977 H 0.55478 0.47918 0.5773 0.0
H2978 H 0.56494 0.38077 0.60901 0.0
H2979 H 0.52132 0.44551 0.50887 0.0
H2980 H 0.56083 0.44375 0.58784 0.0
H2981 H 0.53836 0.38298 0.52543 0.0
C2982 C 0.54802 0.36233 0.55059 0.0
C2983 C 0.55551 0.36087 0.57433 0.0
C2984 C 0.55211 0.44398 0.5705 0.0
C2985 C 0.54821 0.40193 0.56064 0.0
C2986 C 0.54862 0.46441 0.56437 0.0
C2987 C 0.53738 0.46582 0.54203 0.0
C2988 C 0.54454 0.42425 0.55427 0.0
C2989 C 0.52998 0.44562 0.52631 0.0
C2990 C 0.54424 0.38256 0.54377 0.0
C2991 C 0.55917 0.38069 0.59054 0.0
N2992 N 0.53372 0.42593 0.53265 0.0
N2993 N 0.55562 0.40008 0.58345 0.0
H2994 H 0.42634 0.79292 0.41138 0.0
H2995 H 0.32424 0.73591 0.30815 0.0
H2996 H 0.42563 0.7312 0.36812 0.0
H2997 H 0.34343 0.80627 0.33107 0.0
H2998 H 0.35713 0.73126 0.33437 0.0
H2999 H 0.39104 0.79504 0.38781 0.0
C3000 C 0.41827 0.77936 0.39749 0.0
C3001 C 0.42862 0.76148 0.39226 0.0
C3002 C 0.35403 0.74769 0.33382 0.0
C3003 C 0.38848 0.76418 0.36448 0.0
C3004 C 0.33527 0.75034 0.31888 0.0
C3005 C 0.33097 0.77147 0.31761 0.0
C3006 C 0.3683 0.76627 0.34815 0.0
C3007 C 0.34602 0.78966 0.33162 0.0
C3008 C 0.39832 0.78077 0.38375 0.0
C3009 C 0.41788 0.7449 0.3733 0.0
N3010 N 0.36377 0.78663 0.34647 0.0
N3011 N 0.39846 0.74662 0.36015 0.0
H3012 H 0.07347 0.71751 0.05199 0.0
H3013 H 0.01389 0.59355 0.06978 0.0
H3014 H 0.02856 0.70204 0.10303 0.0
H3015 H 0.06638 0.60514 0.02577 0.0
H3016 H 0.01696 0.63342 0.07868 0.0
H3017 H 0.06854 0.67728 0.03821 0.0
C3018 C 0.0621 0.7058 0.05986 0.0
C3019 C 0.05119 0.71345 0.07858 0.0
C3020 C 0.02794 0.62738 0.06712 0.0
C3021 C 0.04592 0.6671 0.06331 0.0
C3022 C 0.02622 0.60439 0.06201 0.0
C3023 C 0.04009 0.59551 0.04716 0.0
C3024 C 0.04358 0.64219 0.05728 0.0
C3025 C 0.05559 0.61092 0.03766 0.0
C3026 C 0.05953 0.68274 0.05221 0.0
C3027 C 0.03718 0.69717 0.08843 0.0
N3028 N 0.05688 0.63331 0.04282 0.0
N3029 N 0.03504 0.67512 0.08081 0.0
H3030 H 0.04396 0.24317 0.879 0.0
H3031 H 0.16712 0.3138 0.87385 0.0
H3032 H 0.08486 0.28668 0.93897 0.0
H3033 H 0.12839 0.26678 0.81545 0.0
H3034 H 0.13909 0.30099 0.89923 0.0
H3035 H 0.07595 0.24873 0.85673 0.0
C3036 C 0.05973 0.25384 0.88754 0.0
C3037 C 0.06163 0.26462 0.91086 0.0
C3038 C 0.13687 0.29311 0.88101 0.0
C3039 C 0.09845 0.27123 0.88528 0.0
C3040 C 0.15298 0.3003 0.86659 0.0
C3041 C 0.15017 0.29113 0.84265 0.0
C3042 C 0.1175 0.27687 0.87132 0.0
C3043 C 0.13131 0.27404 0.83392 0.0
C3044 C 0.07803 0.25696 0.8748 0.0
C3045 C 0.08258 0.27806 0.92105 0.0
N3046 N 0.11557 0.26763 0.84817 0.0
N3047 N 0.10005 0.28116 0.90813 0.0
H3048 H 0.53711 0.72113 0.86991 0.0
H3049 H 0.52017 0.68006 0.9945 0.0
H3050 H 0.54518 0.76541 0.93563 0.0
H3051 H 0.51542 0.63554 0.92975 0.0
H3052 H 0.53357 0.7114 0.9741 0.0
H3053 H 0.53263 0.68966 0.89188 0.0
C3054 C 0.53796 0.72426 0.88897 0.0
C3055 C 0.54135 0.74601 0.90088 0.0
C3056 C 0.53009 0.69477 0.96441 0.0
C3057 C 0.53614 0.70991 0.92625 0.0
C3058 C 0.52271 0.67687 0.97616 0.0
C3059 C 0.51708 0.65518 0.96389 0.0
C3060 C 0.5315 0.69104 0.94004 0.0
C3061 C 0.51998 0.65199 0.93993 0.0
C3062 C 0.53547 0.70626 0.90153 0.0
C3063 C 0.54255 0.74898 0.92565 0.0
N3064 N 0.52675 0.6697 0.92873 0.0
N3065 N 0.53976 0.7312 0.93743 0.0
H3066 H 0.10063 0.78936 0.70574 0.0
H3067 H 0.20103 0.73652 0.76027 0.0
H3068 H 0.08767 0.73098 0.73916 0.0
H3069 H 0.21131 0.80159 0.74005 0.0
H3070 H 0.16018 0.73287 0.75131 0.0
H3071 H 0.14112 0.79317 0.71731 0.0
C3072 C 0.10628 0.77738 0.71569 0.0
C3073 C 0.09045 0.75995 0.72163 0.0
C3074 C 0.17136 0.74796 0.74886 0.0
C3075 C 0.13753 0.76381 0.73445 0.0
C3076 C 0.19489 0.75004 0.7539 0.0
C3077 C 0.21019 0.76931 0.75084 0.0
C3078 C 0.16266 0.7653 0.74057 0.0
C3079 C 0.20063 0.78624 0.74258 0.0
C3080 C 0.12953 0.77953 0.72226 0.0
C3081 C 0.09906 0.74491 0.73448 0.0
N3082 N 0.17778 0.78381 0.73776 0.0
N3083 N 0.12188 0.74704 0.74019 0.0
H3084 H 0.0327 0.39446 0.37291 0.0
H3085 H 0.06225 0.46299 0.50321 0.0
H3086 H 0.05779 0.36509 0.43135 0.0
H3087 H 0.0098 0.47279 0.45212 0.0
H3088 H 0.06506 0.42956 0.47692 0.0
H3089 H 0.02895 0.42611 0.40078 0.0
C3090 C 0.03762 0.39471 0.39161 0.0
C3091 C 0.04571 0.377 0.39967 0.0
C3092 C 0.05304 0.43916 0.47142 0.0
C3093 C 0.04164 0.41367 0.43193 0.0
C3094 C 0.05136 0.45822 0.48647 0.0
C3095 C 0.03622 0.47128 0.47965 0.0
C3096 C 0.03968 0.43317 0.44916 0.0
C3097 C 0.02261 0.46417 0.45763 0.0
C3098 C 0.03533 0.41279 0.40756 0.0
C3099 C 0.0515 0.3783 0.42426 0.0
N3100 N 0.02481 0.44585 0.44317 0.0
N3101 N 0.04959 0.39638 0.43946 0.0
H3102 H 0.43589 0.21603 0.23429 0.0
H3103 H 0.35854 0.30154 0.26706 0.0
H3104 H 0.45239 0.28295 0.21958 0.0
H3105 H 0.3297 0.23231 0.24445 0.0
H3106 H 0.39473 0.29569 0.25583 0.0
H3107 H 0.39915 0.22202 0.24384 0.0
C3108 C 0.43191 0.23205 0.23313 0.0
C3109 C 0.44757 0.24896 0.22602 0.0
C3110 C 0.38053 0.28174 0.25336 0.0
C3111 C 0.40515 0.25612 0.23759 0.0
C3112 C 0.35979 0.28505 0.26002 0.0
C3113 C 0.34082 0.26744 0.25705 0.0
C3114 C 0.38282 0.26043 0.24411 0.0
C3115 C 0.3437 0.24647 0.24717 0.0
C3116 C 0.41078 0.23541 0.23853 0.0
C3117 C 0.44105 0.26932 0.22484 0.0
N3118 N 0.36421 0.24352 0.24142 0.0
N3119 N 0.42062 0.27238 0.23081 0.0
H3120 H 0.56635 0.56767 0.35209 0.0
H3121 H 0.57948 0.51263 0.47017 0.0
H3122 H 0.61323 0.52523 0.36217 0.0
H3123 H 0.52728 0.54684 0.45029 0.0
H3124 H 0.59396 0.51785 0.4324 0.0
H3125 H 0.55406 0.56145 0.38977 0.0
C3126 C 0.57411 0.55697 0.3622 0.0
C3127 C 0.59083 0.5469 0.35371 0.0
C3128 C 0.57932 0.52413 0.43638 0.0
C3129 C 0.5766 0.53958 0.39747 0.0
C3130 C 0.57107 0.52119 0.45792 0.0
C3131 C 0.55213 0.52932 0.46348 0.0
C3132 C 0.56859 0.53541 0.42045 0.0
C3133 C 0.54186 0.5402 0.44688 0.0
C3134 C 0.56701 0.55339 0.38385 0.0
C3135 C 0.60026 0.53333 0.36794 0.0
N3136 N 0.55023 0.54295 0.42633 0.0
N3137 N 0.593 0.53003 0.38912 0.0
H3138 H 0.28002 0.85842 0.03451 0.0
H3139 H 0.3176 0.87808 0.17309 0.0
H3140 H 0.28474 0.92064 0.07928 0.0
H3141 H 0.30645 0.81454 0.1293 0.0
H3142 H 0.30026 0.89283 0.13993 0.0
H3143 H 0.28471 0.84084 0.06966 0.0
C3144 C 0.28172 0.86831 0.05175 0.0
C3145 C 0.28224 0.89104 0.05405 0.0
C3146 C 0.30132 0.87559 0.13761 0.0
C3147 C 0.28773 0.87112 0.09428 0.0
C3148 C 0.31121 0.86727 0.15646 0.0
C3149 C 0.31364 0.84534 0.15345 0.0
C3150 C 0.29424 0.86184 0.11567 0.0
C3151 C 0.30501 0.83168 0.13193 0.0
C3152 C 0.28437 0.85827 0.07182 0.0
C3153 C 0.28449 0.90309 0.07676 0.0
N3154 N 0.29593 0.84026 0.11364 0.0
N3155 N 0.2874 0.89301 0.09605 0.0
H3156 H 0.95307 0.49122 0.85472 0.0
H3157 H 0.97839 0.54923 0.98275 0.0
H3158 H 0.90281 0.52324 0.8824 0.0
H3159 H -0.00226 0.48774 0.96097 0.0
H3160 H 0.9493 0.54092 0.94791 0.0
H3161 H 0.97003 0.49139 0.89467 0.0
C3162 C 0.94541 0.49805 0.86921 0.0
C3163 C 0.92657 0.50732 0.86524 0.0
C3164 C 0.95948 0.52899 0.95124 0.0
C3165 C 0.94588 0.5074 0.91109 0.0
C3166 C 0.97604 0.53377 0.97088 0.0
C3167 C 0.99042 0.51921 0.97407 0.0
C3168 C 0.95799 0.50987 0.9349 0.0
C3169 C 0.98706 0.49943 0.95857 0.0
C3170 C 0.95499 0.49795 0.89205 0.0
C3171 C 0.91746 0.51606 0.88477 0.0
N3172 N 0.9713 0.49543 0.93936 0.0
N3173 N 0.92745 0.5162 0.90706 0.0
H3174 H 0.24093 0.22663 0.57845 0.0
H3175 H 0.29251 0.23258 0.71372 0.0
H3176 H 0.2895 0.18987 0.60191 0.0
H3177 H 0.24831 0.27437 0.69182 0.0
H3178 H 0.2933 0.2188 0.67238 0.0
H3179 H 0.24496 0.24638 0.61908 0.0
C3180 C 0.25291 0.22323 0.59204 0.0
C3181 C 0.26503 0.20678 0.58691 0.0
C3182 C 0.2834 0.231 0.67653 0.0
C3183 C 0.26951 0.2289 0.6333 0.0
C3184 C 0.28292 0.23888 0.70023 0.0
C3185 C 0.27008 0.25449 0.70639 0.0
C3186 C 0.27069 0.23849 0.65863 0.0
C3187 C 0.25821 0.26216 0.68798 0.0
C3188 C 0.25508 0.23433 0.61524 0.0
C3189 C 0.27989 0.2025 0.6052 0.0
N3190 N 0.2586 0.25392 0.66497 0.0
N3191 N 0.28164 0.2134 0.62753 0.0
H3192 H 0.63144 0.54159 0.19791 0.0
H3193 H 0.5238 0.53979 0.10479 0.0
H3194 H 0.56452 0.53293 0.2175 0.0
H3195 H 0.58751 0.52983 0.08516 0.0
H3196 H 0.53835 0.54004 0.1464 0.0
H3197 H 0.61565 0.53999 0.15685 0.0
C3198 C 0.61337 0.53925 0.19358 0.0
C3199 C 0.59931 0.5374 0.21128 0.0
C3200 C 0.54909 0.53778 0.13294 0.0
C3201 C 0.58102 0.53571 0.16396 0.0
C3202 C 0.54084 0.53773 0.10921 0.0
C3203 C 0.55443 0.53473 0.09142 0.0
C3204 C 0.57121 0.5352 0.13895 0.0
C3205 C 0.57636 0.53207 0.0982 0.0
C3206 C 0.60435 0.53832 0.17005 0.0
C3207 C 0.576 0.53442 0.20447 0.0
N3208 N 0.58405 0.53249 0.12135 0.0
N3209 N 0.56759 0.53379 0.18136 0.0
H3210 H 0.27487 0.86735 0.93399 0.0
H3211 H 0.31571 0.81946 0.82517 0.0
H3212 H 0.30846 0.91777 0.89705 0.0
H3213 H 0.24384 0.81088 0.82293 0.0
H3214 H 0.32102 0.85118 0.85669 0.0
H3215 H 0.27137 0.84003 0.89864 0.0
C3216 C 0.28181 0.87254 0.91854 0.0
C3217 C 0.29182 0.89467 0.91807 0.0
C3218 C 0.30416 0.8426 0.84878 0.0
C3219 C 0.28796 0.86394 0.87844 0.0
C3220 C 0.30113 0.82478 0.8309 0.0
C3221 C 0.27935 0.81374 0.82095 0.0
C3222 C 0.28524 0.84805 0.85741 0.0
C3223 C 0.26082 0.81998 0.82969 0.0
C3224 C 0.27959 0.8571 0.89853 0.0
C3225 C 0.30046 0.90077 0.89775 0.0
N3226 N 0.26417 0.83673 0.84792 0.0
N3227 N 0.29845 0.88529 0.87848 0.0
H3228 H 0.87557 0.51203 0.71512 0.0
H3229 H 0.99583 0.51591 0.673 0.0
H3230 H 0.93821 0.54901 0.75569 0.0
H3231 H 0.93372 0.47894 0.63183 0.0
H3232 H 0.97431 0.53283 0.70082 0.0
H3233 H 0.89566 0.50458 0.68157 0.0
C3234 C 0.89345 0.51903 0.71676 0.0
C3235 C 0.90533 0.53097 0.73823 0.0
C3236 C 0.96532 0.52119 0.6856 0.0
C3237 C 0.9284 0.52229 0.70019 0.0
C3238 C 0.9776 0.51157 0.66984 0.0
C3239 C 0.96634 0.49598 0.65052 0.0
C3240 C 0.94168 0.51491 0.68199 0.0
C3241 C 0.94281 0.49084 0.6468 0.0
C3242 C 0.90494 0.51467 0.69767 0.0
C3243 C 0.92848 0.53954 0.73949 0.0
N3244 N 0.93117 0.50013 0.6626 0.0
N3245 N 0.93931 0.53481 0.72082 0.0
H3246 H 0.2721 0.17759 0.42037 0.0
H3247 H 0.2627 0.27959 0.35169 0.0
H3248 H 0.26029 0.23941 0.45374 0.0
H3249 H 0.29087 0.22514 0.32389 0.0
H3250 H 0.25972 0.26411 0.38831 0.0
H3251 H 0.27688 0.19361 0.38411 0.0
C3252 C 0.2706 0.19457 0.42012 0.0
C3253 C 0.2658 0.20718 0.44019 0.0
C3254 C 0.26662 0.25555 0.37426 0.0
C3255 C 0.27118 0.22559 0.39859 0.0
C3256 C 0.26834 0.26438 0.35328 0.0
C3257 C 0.27712 0.25369 0.33462 0.0
C3258 C 0.27342 0.23566 0.37664 0.0
C3259 C 0.284 0.23395 0.33777 0.0
C3260 C 0.27337 0.20371 0.3994 0.0
C3261 C 0.26397 0.22907 0.43874 0.0
N3262 N 0.28189 0.22551 0.35833 0.0
N3263 N 0.26658 0.23754 0.41829 0.0
H3264 H 0.31686 0.55811 0.57797 0.0
H3265 H 0.41415 0.59566 0.50393 0.0
H3266 H 0.33691 0.62462 0.56243 0.0
H3267 H 0.39882 0.53132 0.52603 0.0
H3268 H 0.39097 0.60897 0.53211 0.0
H3269 H 0.35253 0.55066 0.56763 0.0
C3270 C 0.32898 0.57127 0.57292 0.0
C3271 C 0.32365 0.59166 0.57008 0.0
C3272 C 0.39304 0.59205 0.53113 0.0
C3273 C 0.36403 0.58326 0.55789 0.0
C3274 C 0.40605 0.58444 0.51488 0.0
C3275 C 0.40811 0.56235 0.51249 0.0
C3276 C 0.3818 0.57732 0.54474 0.0
C3277 C 0.39769 0.54852 0.52736 0.0
C3278 C 0.34931 0.56703 0.56695 0.0
C3279 C 0.34008 0.60836 0.56399 0.0
N3280 N 0.3847 0.55616 0.54264 0.0
N3281 N 0.35935 0.60361 0.55752 0.0
H3282 H 0.87597 0.90066 0.53725 0.0
H3283 H 0.94919 0.01376 0.51983 0.0
H3284 H 0.85543 0.96257 0.55278 0.0
H3285 H 0.98306 0.96672 0.54912 0.0
H3286 H 0.91351 0.99226 0.52696 0.0
H3287 H 0.91497 0.92158 0.53808 0.0
C3288 C 0.8798 0.91854 0.54152 0.0
C3289 C 0.86256 0.93 0.54472 0.0
C3290 C 0.92881 0.98678 0.53203 0.0
C3291 C 0.90639 0.9537 0.54513 0.0
C3292 C 0.94927 -0.00081 0.52816 0.0
C3293 C 0.96936 0.99256 0.53458 0.0
C3294 C 0.92821 0.96712 0.54165 0.0
C3295 C 0.96804 0.97271 0.54421 0.0
C3296 C 0.90191 0.93042 0.54184 0.0
C3297 C 0.86823 0.95316 0.54987 0.0
N3298 N 0.94776 0.96053 0.54726 0.0
N3299 N 0.88956 0.96425 0.54955 0.0
H3300 H 0.86152 0.05157 0.23736 0.0
H3301 H 0.86332 0.16861 0.3111 0.0
H3302 H 0.92059 0.09194 0.28157 0.0
H3303 H 0.807 0.13149 0.26093 0.0
H3304 H 0.88632 0.14307 0.29679 0.0
H3305 H 0.84279 0.0826 0.24209 0.0
C3306 C 0.87058 0.06701 0.24799 0.0
C3307 C 0.89248 0.06909 0.25945 0.0
C3308 C 0.86903 0.14064 0.28866 0.0
C3309 C 0.87115 0.10462 0.26503 0.0
C3310 C 0.85599 0.15518 0.29682 0.0
C3311 C 0.83335 0.15177 0.28724 0.0
C3312 C 0.85912 0.12246 0.27112 0.0
C3313 C 0.82444 0.13439 0.26875 0.0
C3314 C 0.85992 0.08476 0.2506 0.0
C3315 C 0.90359 0.08957 0.27266 0.0
N3316 N 0.83728 0.12013 0.26147 0.0
N3317 N 0.89268 0.10647 0.27535 0.0
H3318 H 0.69532 0.07885 0.00396 0.0
H3319 H 0.57892 0.08081 0.05206 0.0
H3320 H 0.68523 0.12861 0.0586 0.0
H3321 H 0.59042 0.02722 0.00327 0.0
H3322 H 0.61541 0.10309 0.04732 0.0
H3323 H 0.65472 0.06383 -0.00326 0.0
C3324 C 0.68445 0.08663 0.0143 0.0
C3325 C 0.69336 0.10482 0.0319 0.0
C3326 C 0.60977 0.08666 0.0372 0.0
C3327 C 0.64736 0.08783 0.02401 0.0
C3328 C 0.58901 0.07411 0.03984 0.0
C3329 C 0.58211 0.05251 0.02791 0.0
C3330 C 0.6236 0.07714 0.02293 0.0
C3331 C 0.5955 0.04403 0.01258 0.0
C3332 C 0.66137 0.07817 0.01014 0.0
C3333 C 0.67882 0.11459 0.04475 0.0
N3334 N 0.6159 0.05635 0.01068 0.0
N3335 N 0.65646 0.10575 0.04075 0.0
H3336 H 0.22381 0.47671 0.21214 0.0
H3337 H 0.25956 0.43059 0.32585 0.0
H3338 H 0.18727 0.47757 0.27222 0.0
H3339 H 0.23514 0.37999 0.26504 0.0
H3340 H 0.24994 0.45821 0.30208 0.0
H3341 H 0.2428 0.44885 0.22787 0.0
C3342 C 0.21978 0.47087 0.22844 0.0
C3343 C 0.20405 0.47897 0.24101 0.0
C3344 C 0.24717 0.44105 0.29398 0.0
C3345 C 0.22585 0.44897 0.25905 0.0
C3346 C 0.25216 0.4254 0.30753 0.0
C3347 C 0.2473 0.40316 0.29743 0.0
C3348 C 0.23723 0.43421 0.27044 0.0
C3349 C 0.23859 0.3971 0.27338 0.0
C3350 C 0.23052 0.45526 0.23729 0.0
C3351 C 0.19913 0.47131 0.26199 0.0
N3352 N 0.23333 0.41262 0.26061 0.0
N3353 N 0.2103 0.4569 0.27059 0.0
H3354 H 0.25258 0.43781 0.06285 0.0
H3355 H 0.13666 0.44047 0.98716 0.0
H3356 H 0.21005 0.37998 0.01928 0.0
H3357 H 0.17627 0.4956 0.03676 0.0
H3358 H 0.16106 0.41673 0.00159 0.0
H3359 H 0.22276 0.458 0.05668 0.0
C3360 C 0.23684 0.42929 0.05216 0.0
C3361 C 0.23387 0.40728 0.0413 0.0
C3362 C 0.16426 0.43394 0.00956 0.0
C3363 C 0.19968 0.43038 0.03393 0.0
C3364 C 0.15037 0.4474 0.00133 0.0
C3365 C 0.15473 0.46986 0.01083 0.0
C3366 C 0.18271 0.44321 0.02714 0.0
C3367 C 0.17255 0.47829 0.02908 0.0
C3368 C 0.21979 0.44082 0.04866 0.0
C3369 C 0.21306 0.39698 0.02784 0.0
N3370 N 0.18608 0.465 0.0365 0.0
N3371 N 0.19684 0.40873 0.02425 0.0
H3372 H 0.90811 0.92727 0.28158 0.0
H3373 H 0.79549 0.84028 0.23055 0.0
H3374 H 0.85915 0.94478 0.2319 0.0
H3375 H 0.82813 0.8456 0.30183 0.0
H3376 H 0.81931 0.8765 0.22734 0.0
H3377 H 0.88039 0.89439 0.28579 0.0
C3378 C 0.89148 0.92406 0.27149 0.0
C3379 C 0.88582 0.93859 0.25635 0.0
C3380 C 0.82109 0.86972 0.24369 0.0
C3381 C 0.85415 0.90092 0.26079 0.0
C3382 C 0.80759 0.84918 0.2455 0.0
C3383 C 0.81054 0.83986 0.26621 0.0
C3384 C 0.83762 0.88061 0.26269 0.0
C3385 C 0.82613 0.85192 0.28525 0.0
C3386 C 0.87565 0.90542 0.27399 0.0
C3387 C 0.86402 0.9339 0.24381 0.0
N3388 N 0.83933 0.87153 0.28293 0.0
N3389 N 0.84895 0.91521 0.24605 0.0
H3390 H 0.68621 0.12738 0.72093 0.0
H3391 H 0.78619 0.21288 0.78879 0.0
H3392 H 0.72426 0.10775 0.77931 0.0
H3393 H 0.72369 0.23007 0.76473 0.0
H3394 H 0.76575 0.17478 0.78865 0.0
H3395 H 0.70333 0.16586 0.73618 0.0
C3396 C 0.69816 0.13122 0.73699 0.0
C3397 C 0.70363 0.11456 0.74914 0.0
C3398 C 0.75644 0.18716 0.78441 0.0
C3399 C 0.72278 0.1583 0.76686 0.0
C3400 C 0.76801 0.20873 0.78454 0.0
C3401 C 0.75636 0.22411 0.77662 0.0
C3402 C 0.73349 0.18133 0.77546 0.0
C3403 C 0.73302 0.21844 0.77104 0.0
C3404 C 0.70765 0.15312 0.74585 0.0
C3405 C 0.71963 0.12028 0.76954 0.0
N3406 N 0.72228 0.19716 0.76997 0.0
N3407 N 0.72878 0.14189 0.77787 0.0
loop_
_geom_bond_atom_site_label_1
_geom_bond_atom_site_label_2
_geom_bond_distance
_geom_bond_site_symmetry_2
_ccdc_geom_bond_type
C0 O1 1.304 1_655 S
C0 O3 1.158 1_655 S
O1 C0 1.304 1_455 S
O1 Cd2 2.228 . S
Cd2 O1 2.228 . S
Cd2 O6 2.273 . S
Cd2 O10 2.277 . S
O3 C0 1.158 1_455 S
O3 Cd4 2.203 . S
Cd4 O3 2.203 . S
Cd4 O6 2.411 . S
Cd4 O7 2.333 . S
Cd4 O8 2.352 . S
Cd4 O12 2.277 . S
Cd4 O13 2.356 . S
C5 O10 1.209 . S
C5 O12 1.226 . S
O6 Cd2 2.273 . S
O6 Cd4 2.411 . S
O6 C9 1.320 . S
O7 Cd4 2.333 . S
O7 C9 1.214 . S
O8 Cd4 2.352 . S
O8 C11 1.258 . S
C9 O6 1.320 . S
C9 O7 1.214 . S
O10 Cd2 2.277 . S
O10 C5 1.209 . S
C11 O8 1.258 . S
C11 O13 1.282 . S
O12 Cd4 2.277 . S
O12 C5 1.226 . S
O13 Cd4 2.356 . S
O13 C11 1.282 . S
C14 O15 1.306 . S
C14 O17 1.160 . S
O15 C14 1.306 . S
O15 Cd16 2.228 1_655 S
Cd16 O15 2.228 1_455 S
Cd16 O20 2.273 . S
Cd16 O24 2.277 . S
O17 C14 1.160 . S
O17 Cd18 2.203 1_655 S
Cd18 O17 2.203 1_455 S
Cd18 O20 2.411 . S
Cd18 O21 2.333 . S
Cd18 O22 2.352 . S
Cd18 O26 2.277 . S
Cd18 O27 2.356 . S
C19 O24 1.209 . S
C19 O26 1.226 . S
O20 Cd16 2.273 . S
O20 Cd18 2.411 . S
O20 C23 1.320 . S
O21 Cd18 2.333 . S
O21 C23 1.214 . S
O22 Cd18 2.352 . S
O22 C25 1.258 . S
C23 O20 1.320 . S
C23 O21 1.214 . S
O24 Cd16 2.277 . S
O24 C19 1.209 . S
C25 O22 1.258 . S
C25 O27 1.282 . S
O26 Cd18 2.277 . S
O26 C19 1.226 . S
O27 Cd18 2.356 . S
O27 C25 1.282 . S
C28 O29 1.306 . S
C28 O31 1.160 . S
O29 C28 1.306 . S
O29 Cd30 2.228 . S
Cd30 O29 2.228 . S
Cd30 O34 2.273 . S
Cd30 O38 2.277 . S
O31 C28 1.160 . S
O31 Cd32 2.203 . S
Cd32 O31 2.203 . S
Cd32 O34 2.411 . S
Cd32 O35 2.333 . S
Cd32 O36 2.352 . S
Cd32 O40 2.277 . S
Cd32 O41 2.356 . S
C33 O38 1.209 . S
C33 O40 1.226 . S
O34 Cd30 2.273 . S
O34 Cd32 2.411 . S
O34 C37 1.320 . S
O35 Cd32 2.333 . S
O35 C37 1.214 . S
O36 Cd32 2.352 . S
O36 C39 1.258 . S
C37 O34 1.320 . S
C37 O35 1.214 . S
O38 Cd30 2.277 . S
O38 C33 1.209 . S
C39 O36 1.258 . S
C39 O41 1.282 . S
O40 Cd32 2.277 . S
O40 C33 1.226 . S
O41 Cd32 2.356 . S
O41 C39 1.282 . S
C42 O43 1.306 . S
C42 O45 1.160 . S
O43 C42 1.306 . S
O43 Cd44 2.228 . S
Cd44 O43 2.228 . S
Cd44 O48 2.273 . S
Cd44 O52 2.277 . S
O45 C42 1.160 . S
O45 Cd46 2.203 . S
Cd46 O45 2.203 . S
Cd46 O48 2.411 . S
Cd46 O49 2.333 . S
Cd46 O50 2.352 . S
Cd46 O54 2.277 . S
Cd46 O55 2.356 . S
C47 O52 1.209 . S
C47 O54 1.226 . S
O48 Cd44 2.273 . S
O48 Cd46 2.411 . S
O48 C51 1.320 . S
O49 Cd46 2.333 . S
O49 C51 1.214 . S
O50 Cd46 2.352 . S
O50 C53 1.258 . S
C51 O48 1.320 . S
C51 O49 1.214 . S
O52 Cd44 2.277 . S
O52 C47 1.209 . S
C53 O50 1.258 . S
C53 O55 1.282 . S
O54 Cd46 2.277 . S
O54 C47 1.226 . S
O55 Cd46 2.356 . S
O55 C53 1.282 . S
C56 O57 1.306 . S
C56 O59 1.160 . S
O57 C56 1.306 . S
O57 Cd58 2.228 . S
Cd58 O57 2.228 . S
Cd58 O62 2.273 . S
Cd58 O66 2.277 . S
O59 C56 1.160 . S
O59 Cd60 2.203 . S
Cd60 O59 2.203 . S
Cd60 O62 2.411 . S
Cd60 O63 2.333 . S
Cd60 O64 2.352 . S
Cd60 O68 2.277 . S
Cd60 O69 2.356 . S
C61 O66 1.209 . S
C61 O68 1.226 . S
O62 Cd58 2.273 . S
O62 Cd60 2.411 . S
O62 C65 1.320 . S
O63 Cd60 2.333 . S
O63 C65 1.214 . S
O64 Cd60 2.352 . S
O64 C67 1.258 . S
C65 O62 1.320 . S
C65 O63 1.214 . S
O66 Cd58 2.277 . S
O66 C61 1.209 . S
C67 O64 1.258 . S
C67 O69 1.282 . S
O68 Cd60 2.277 . S
O68 C61 1.226 . S
O69 Cd60 2.356 . S
O69 C67 1.282 . S
C70 O71 1.306 . S
C70 O73 1.160 . S
O71 C70 1.306 . S
O71 Cd72 2.228 . S
Cd72 O71 2.228 . S
Cd72 O76 2.273 . S
Cd72 O80 2.277 . S
O73 C70 1.160 . S
O73 Cd74 2.203 . S
Cd74 O73 2.203 . S
Cd74 O76 2.411 . S
Cd74 O77 2.333 . S
Cd74 O78 2.352 . S
Cd74 O82 2.277 . S
Cd74 O83 2.356 . S
C75 O80 1.209 . S
C75 O82 1.226 . S
O76 Cd72 2.273 . S
O76 Cd74 2.411 . S
O76 C79 1.320 . S
O77 Cd74 2.333 . S
O77 C79 1.214 . S
O78 Cd74 2.352 . S
O78 C81 1.258 . S
C79 O76 1.320 . S
C79 O77 1.214 . S
O80 Cd72 2.277 . S
O80 C75 1.209 . S
C81 O78 1.258 . S
C81 O83 1.282 . S
O82 Cd74 2.277 . S
O82 C75 1.226 . S
O83 Cd74 2.356 . S
O83 C81 1.282 . S
C84 O85 1.306 . S
C84 O87 1.160 . S
O85 C84 1.306 . S
O85 Cd86 2.228 . S
Cd86 O85 2.228 . S
Cd86 O90 2.273 . S
Cd86 O94 2.277 . S
O87 C84 1.160 . S
O87 Cd88 2.203 . S
Cd88 O87 2.203 . S
Cd88 O90 2.411 . S
Cd88 O91 2.333 . S
Cd88 O92 2.352 . S
Cd88 O96 2.277 . S
Cd88 O97 2.356 . S
C89 O94 1.209 . S
C89 O96 1.226 . S
O90 Cd86 2.273 . S
O90 Cd88 2.411 . S
O90 C93 1.320 . S
O91 Cd88 2.333 . S
O91 C93 1.214 . S
O92 Cd88 2.352 . S
O92 C95 1.258 . S
C93 O90 1.320 . S
C93 O91 1.214 . S
O94 Cd86 2.277 . S
O94 C89 1.209 . S
C95 O92 1.258 . S
C95 O97 1.282 . S
O96 Cd88 2.277 . S
O96 C89 1.226 . S
O97 Cd88 2.356 . S
O97 C95 1.282 . S
C98 O99 1.306 . S
C98 O101 1.160 . S
O99 C98 1.306 . S
O99 Cd100 2.228 1_655 S
Cd100 O99 2.228 1_455 S
Cd100 O104 2.273 . S
Cd100 O108 2.277 . S
O101 C98 1.160 . S
O101 Cd102 2.203 1_655 S
Cd102 O101 2.203 1_455 S
Cd102 O104 2.411 . S
Cd102 O105 2.333 . S
Cd102 O106 2.352 1_455 S
Cd102 O110 2.277 . S
Cd102 O111 2.356 . S
C103 O108 1.209 . S
C103 O110 1.226 . S
O104 Cd100 2.273 . S
O104 Cd102 2.411 . S
O104 C107 1.320 . S
O105 Cd102 2.333 . S
O105 C107 1.214 . S
O106 Cd102 2.352 1_655 S
O106 C109 1.261 . S
C107 O104 1.320 . S
C107 O105 1.214 . S
O108 Cd100 2.277 . S
O108 C103 1.209 . S
C109 O106 1.261 . S
C109 O111 1.281 1_655 S
O110 Cd102 2.277 . S
O110 C103 1.226 . S
O111 Cd102 2.356 . S
O111 C109 1.281 1_455 S
C112 O113 1.320 . S
C112 O115 1.160 . S
O113 C112 1.320 . S
O113 Cd114 2.212 1_545 S
Cd114 O113 2.212 1_565 S
Cd114 O118 2.273 1_565 S
Cd114 O122 2.277 . S
O115 C112 1.160 . S
O115 Cd116 2.203 . S
Cd116 O115 2.203 . S
Cd116 O118 2.411 . S
Cd116 O119 2.333 . S
Cd116 O120 2.352 . S
Cd116 O124 2.277 1_545 S
Cd116 O125 2.356 . S
C117 O122 1.209 . S
C117 O124 1.226 . S
O118 Cd114 2.273 1_545 S
O118 Cd116 2.411 . S
O118 C121 1.320 . S
O119 Cd116 2.333 . S
O119 C121 1.214 . S
O120 Cd116 2.352 . S
O120 C123 1.258 . S
C121 O118 1.320 . S
C121 O119 1.214 . S
O122 Cd114 2.277 . S
O122 C117 1.209 . S
C123 O120 1.258 . S
C123 O125 1.282 . S
O124 Cd116 2.277 1_565 S
O124 C117 1.226 . S
O125 Cd116 2.356 . S
O125 C123 1.282 . S
C126 O127 1.306 . S
C126 O129 1.160 . S
O127 C126 1.306 . S
O127 Cd128 2.228 . S
Cd128 O127 2.228 . S
Cd128 O132 2.273 . S
Cd128 O136 2.277 . S
O129 C126 1.160 . S
O129 Cd130 2.203 . S
Cd130 O129 2.203 . S
Cd130 O132 2.411 . S
Cd130 O133 2.333 . S
Cd130 O134 2.352 . S
Cd130 O138 2.277 . S
Cd130 O139 2.356 . S
C131 O136 1.209 . S
C131 O138 1.226 . S
O132 Cd128 2.273 . S
O132 Cd130 2.411 . S
O132 C135 1.320 . S
O133 Cd130 2.333 . S
O133 C135 1.214 . S
O134 Cd130 2.352 . S
O134 C137 1.258 . S
C135 O132 1.320 . S
C135 O133 1.214 . S
O136 Cd128 2.277 . S
O136 C131 1.209 . S
C137 O134 1.258 . S
C137 O139 1.282 . S
O138 Cd130 2.277 . S
O138 C131 1.226 . S
O139 Cd130 2.356 . S
O139 C137 1.282 . S
C140 O141 1.306 . S
C140 O143 1.160 . S
O141 C140 1.306 . S
O141 Cd142 2.228 . S
Cd142 O141 2.228 . S
Cd142 O146 2.273 . S
Cd142 O150 2.277 . S
O143 C140 1.160 . S
O143 Cd144 2.203 . S
Cd144 O143 2.203 . S
Cd144 O146 2.411 . S
Cd144 O147 2.333 . S
Cd144 O148 2.352 . S
Cd144 O152 2.277 . S
Cd144 O153 2.356 . S
C145 O150 1.209 . S
C145 O152 1.226 . S
O146 Cd142 2.273 . S
O146 Cd144 2.411 . S
O146 C149 1.320 . S
O147 Cd144 2.333 . S
O147 C149 1.214 . S
O148 Cd144 2.352 . S
O148 C151 1.258 . S
C149 O146 1.320 . S
C149 O147 1.214 . S
O150 Cd142 2.277 . S
O150 C145 1.209 . S
C151 O148 1.258 . S
C151 O153 1.282 . S
O152 Cd144 2.277 . S
O152 C145 1.226 . S
O153 Cd144 2.356 . S
O153 C151 1.282 . S
C154 O155 1.306 1_554 S
C154 O157 1.160 . S
O155 C154 1.306 1_556 S
O155 Cd156 2.228 . S
Cd156 O155 2.228 . S
Cd156 O160 2.278 . S
Cd156 O164 2.277 . S
O157 C154 1.160 . S
O157 Cd158 2.203 . S
Cd158 O157 2.203 . S
Cd158 O160 2.410 1_554 S
Cd158 O161 2.331 . S
Cd158 O162 2.352 . S
Cd158 O166 2.277 1_554 S
Cd158 O167 2.356 . S
C159 O164 1.209 . S
C159 O166 1.226 . S
O160 Cd156 2.278 . S
O160 Cd158 2.410 1_556 S
O160 C163 1.324 . S
O161 Cd158 2.331 . S
O161 C163 1.203 1_554 S
O162 Cd158 2.352 . S
O162 C165 1.258 . S
C163 O160 1.324 . S
C163 O161 1.203 1_556 S
O164 Cd156 2.277 . S
O164 C159 1.209 . S
C165 O162 1.258 . S
C165 O167 1.282 . S
O166 Cd158 2.277 1_556 S
O166 C159 1.226 . S
O167 Cd158 2.356 . S
O167 C165 1.282 . S
C168 O169 1.306 . S
C168 O171 1.160 . S
O169 C168 1.306 . S
O169 Cd170 2.228 . S
Cd170 O169 2.228 . S
Cd170 O174 2.273 . S
Cd170 O178 2.279 . S
O171 C168 1.160 . S
O171 Cd172 2.203 . S
Cd172 O171 2.203 . S
Cd172 O174 2.411 . S
Cd172 O175 2.333 . S
Cd172 O176 2.352 . S
Cd172 O180 2.277 . S
Cd172 O181 2.356 . S
C173 O178 1.209 1_556 S
C173 O180 1.226 1_556 S
O174 Cd170 2.273 . S
O174 Cd172 2.411 . S
O174 C177 1.320 . S
O175 Cd172 2.333 . S
O175 C177 1.214 . S
O176 Cd172 2.352 . S
O176 C179 1.258 . S
C177 O174 1.320 . S
C177 O175 1.214 . S
O178 Cd170 2.279 . S
O178 C173 1.209 1_554 S
C179 O176 1.258 . S
C179 O181 1.282 . S
O180 Cd172 2.277 . S
O180 C173 1.226 1_554 S
O181 Cd172 2.356 . S
O181 C179 1.282 . S
C182 O183 1.306 . S
C182 O185 1.160 . S
O183 C182 1.306 . S
O183 Cd184 2.228 . S
Cd184 O183 2.228 . S
Cd184 O188 2.273 . S
Cd184 O192 2.277 . S
O185 C182 1.160 . S
O185 Cd186 2.203 . S
Cd186 O185 2.203 . S
Cd186 O188 2.411 . S
Cd186 O189 2.333 . S
Cd186 O190 2.352 . S
Cd186 O194 2.277 . S
Cd186 O195 2.356 . S
C187 O192 1.209 . S
C187 O194 1.226 . S
O188 Cd184 2.273 . S
O188 Cd186 2.411 . S
O188 C191 1.320 . S
O189 Cd186 2.333 . S
O189 C191 1.214 . S
O190 Cd186 2.352 . S
O190 C193 1.258 . S
C191 O188 1.320 . S
C191 O189 1.214 . S
O192 Cd184 2.277 . S
O192 C187 1.209 . S
C193 O190 1.258 . S
C193 O195 1.282 . S
O194 Cd186 2.277 . S
O194 C187 1.226 . S
O195 Cd186 2.356 . S
O195 C193 1.282 . S
C196 O197 1.306 . S
C196 O199 1.160 . S
O197 C196 1.306 . S
O197 Cd198 2.228 . S
Cd198 O197 2.228 . S
Cd198 O202 2.273 . S
Cd198 O206 2.277 . S
O199 C196 1.160 . S
O199 Cd200 2.203 . S
Cd200 O199 2.203 . S
Cd200 O202 2.411 . S
Cd200 O203 2.333 . S
Cd200 O204 2.352 . S
Cd200 O208 2.277 . S
Cd200 O209 2.356 . S
C201 O206 1.209 . S
C201 O208 1.226 . S
O202 Cd198 2.273 . S
O202 Cd200 2.411 . S
O202 C205 1.320 . S
O203 Cd200 2.333 . S
O203 C205 1.214 . S
O204 Cd200 2.352 . S
O204 C207 1.258 . S
C205 O202 1.320 . S
C205 O203 1.214 . S
O206 Cd198 2.277 . S
O206 C201 1.209 . S
C207 O204 1.258 . S
C207 O209 1.282 . S
O208 Cd200 2.277 . S
O208 C201 1.226 . S
O209 Cd200 2.356 . S
O209 C207 1.282 . S
C210 O211 1.306 . S
C210 O213 1.160 . S
O211 C210 1.306 . S
O211 Cd212 2.228 . S
Cd212 O211 2.228 . S
Cd212 O216 2.273 . S
Cd212 O220 2.277 . S
O213 C210 1.160 . S
O213 Cd214 2.203 . S
Cd214 O213 2.203 . S
Cd214 O216 2.411 . S
Cd214 O217 2.333 . S
Cd214 O218 2.352 . S
Cd214 O222 2.277 . S
Cd214 O223 2.356 . S
C215 O220 1.209 . S
C215 O222 1.226 . S
O216 Cd212 2.273 . S
O216 Cd214 2.411 . S
O216 C219 1.320 . S
O217 Cd214 2.333 . S
O217 C219 1.214 . S
O218 Cd214 2.352 . S
O218 C221 1.258 . S
C219 O216 1.320 . S
C219 O217 1.214 . S
O220 Cd212 2.277 . S
O220 C215 1.209 . S
C221 O218 1.258 . S
C221 O223 1.282 . S
O222 Cd214 2.277 . S
O222 C215 1.226 . S
O223 Cd214 2.356 . S
O223 C221 1.282 . S
C224 O225 1.306 . S
C224 O227 1.160 . S
O225 C224 1.306 . S
O225 Cd226 2.228 1_545 S
Cd226 O225 2.228 1_565 S
Cd226 O230 2.273 1_565 S
Cd226 O234 2.277 . S
O227 C224 1.160 . S
O227 Cd228 2.203 . S
Cd228 O227 2.203 . S
Cd228 O230 2.411 . S
Cd228 O231 2.333 . S
Cd228 O232 2.352 . S
Cd228 O236 2.277 1_545 S
Cd228 O237 2.356 . S
C229 O234 1.209 . S
C229 O236 1.226 . S
O230 Cd226 2.273 1_545 S
O230 Cd228 2.411 . S
O230 C233 1.320 . S
O231 Cd228 2.333 . S
O231 C233 1.214 . S
O232 Cd228 2.352 . S
O232 C235 1.258 . S
C233 O230 1.320 . S
C233 O231 1.214 . S
O234 Cd226 2.277 . S
O234 C229 1.209 . S
C235 O232 1.258 . S
C235 O237 1.282 . S
O236 Cd228 2.277 1_565 S
O236 C229 1.226 . S
O237 Cd228 2.356 . S
O237 C235 1.282 . S
C238 O239 1.306 . S
C238 O241 1.160 . S
O239 C238 1.306 . S
O239 Cd240 2.228 . S
Cd240 O239 2.228 . S
Cd240 O244 2.273 . S
Cd240 O248 2.277 . S
O241 C238 1.160 . S
O241 Cd242 2.203 . S
Cd242 O241 2.203 . S
Cd242 O244 2.411 . S
Cd242 O245 2.333 . S
Cd242 O246 2.352 . S
Cd242 O250 2.277 . S
Cd242 O251 2.356 . S
C243 O248 1.209 . S
C243 O250 1.226 . S
O244 Cd240 2.273 . S
O244 Cd242 2.411 . S
O244 C247 1.320 . S
O245 Cd242 2.333 . S
O245 C247 1.214 . S
O246 Cd242 2.352 . S
O246 C249 1.258 . S
C247 O244 1.320 . S
C247 O245 1.214 . S
O248 Cd240 2.277 . S
O248 C243 1.209 . S
C249 O246 1.258 . S
C249 O251 1.282 . S
O250 Cd242 2.277 . S
O250 C243 1.226 . S
O251 Cd242 2.356 . S
O251 C249 1.282 . S
C252 O253 1.306 . S
C252 O255 1.160 . S
O253 C252 1.306 . S
O253 Cd254 2.228 . S
Cd254 O253 2.228 . S
Cd254 O258 2.273 . S
Cd254 O262 2.277 . S
O255 C252 1.160 . S
O255 Cd256 2.203 . S
Cd256 O255 2.203 . S
Cd256 O258 2.411 . S
Cd256 O259 2.333 . S
Cd256 O260 2.352 . S
Cd256 O264 2.277 . S
Cd256 O265 2.356 . S
C257 O262 1.209 . S
C257 O264 1.226 . S
O258 Cd254 2.273 . S
O258 Cd256 2.411 . S
O258 C261 1.320 . S
O259 Cd256 2.333 . S
O259 C261 1.214 . S
O260 Cd256 2.352 . S
O260 C263 1.258 . S
C261 O258 1.320 . S
C261 O259 1.214 . S
O262 Cd254 2.277 . S
O262 C257 1.209 . S
C263 O260 1.258 . S
C263 O265 1.282 . S
O264 Cd256 2.277 . S
O264 C257 1.226 . S
O265 Cd256 2.356 . S
O265 C263 1.282 . S
C266 O267 1.306 . S
C266 O269 1.160 . S
O267 C266 1.306 . S
O267 Cd268 2.228 . S
Cd268 O267 2.228 . S
Cd268 O272 2.273 . S
Cd268 O276 2.277 . S
O269 C266 1.160 . S
O269 Cd270 2.203 . S
Cd270 O269 2.203 . S
Cd270 O272 2.411 . S
Cd270 O273 2.333 . S
Cd270 O274 2.352 . S
Cd270 O278 2.277 . S
Cd270 O279 2.356 . S
C271 O276 1.209 . S
C271 O278 1.226 . S
O272 Cd268 2.273 . S
O272 Cd270 2.411 . S
O272 C275 1.320 . S
O273 Cd270 2.333 . S
O273 C275 1.214 . S
O274 Cd270 2.352 . S
O274 C277 1.258 . S
C275 O272 1.320 . S
C275 O273 1.214 . S
O276 Cd268 2.277 . S
O276 C271 1.209 . S
C277 O274 1.258 . S
C277 O279 1.282 . S
O278 Cd270 2.277 . S
O278 C271 1.226 . S
O279 Cd270 2.356 . S
O279 C277 1.282 . S
C280 O281 1.306 . S
C280 O283 1.160 . S
O281 C280 1.306 . S
O281 Cd282 2.228 . S
Cd282 O281 2.228 . S
Cd282 O286 2.273 . S
Cd282 O290 2.277 . S
O283 C280 1.160 . S
O283 Cd284 2.203 . S
Cd284 O283 2.203 . S
Cd284 O286 2.411 . S
Cd284 O287 2.333 . S
Cd284 O288 2.352 1_554 S
Cd284 O292 2.277 . S
Cd284 O293 2.356 1_554 S
C285 O290 1.209 . S
C285 O292 1.226 . S
O286 Cd282 2.273 . S
O286 Cd284 2.411 . S
O286 C289 1.320 . S
O287 Cd284 2.333 . S
O287 C289 1.214 . S
O288 Cd284 2.352 1_556 S
O288 C291 1.258 . S
C289 O286 1.320 . S
C289 O287 1.214 . S
O290 Cd282 2.277 . S
O290 C285 1.209 . S
C291 O288 1.258 . S
C291 O293 1.282 . S
O292 Cd284 2.277 . S
O292 C285 1.226 . S
O293 Cd284 2.356 1_556 S
O293 C291 1.282 . S
C294 O295 1.306 . S
C294 O297 1.160 . S
O295 C294 1.306 . S
O295 Cd296 2.228 . S
Cd296 O295 2.228 . S
Cd296 O300 2.273 . S
Cd296 O304 2.277 . S
O297 C294 1.160 . S
O297 Cd298 2.203 . S
Cd298 O297 2.203 . S
Cd298 O300 2.411 . S
Cd298 O301 2.333 . S
Cd298 O302 2.352 . S
Cd298 O306 2.277 . S
Cd298 O307 2.356 . S
C299 O304 1.209 . S
C299 O306 1.226 . S
O300 Cd296 2.273 . S
O300 Cd298 2.411 . S
O300 C303 1.320 . S
O301 Cd298 2.333 . S
O301 C303 1.214 . S
O302 Cd298 2.352 . S
O302 C305 1.258 . S
C303 O300 1.320 . S
C303 O301 1.214 . S
O304 Cd296 2.277 . S
O304 C299 1.209 . S
C305 O302 1.258 . S
C305 O307 1.282 . S
O306 Cd298 2.277 . S
O306 C299 1.226 . S
O307 Cd298 2.356 . S
O307 C305 1.282 . S
C308 O309 1.306 . S
C308 O311 1.160 . S
O309 C308 1.306 . S
O309 Cd310 2.228 . S
Cd310 O309 2.228 . S
Cd310 O314 2.273 . S
Cd310 O318 2.277 . S
O311 C308 1.160 . S
O311 Cd312 2.203 . S
Cd312 O311 2.203 . S
Cd312 O314 2.411 . S
Cd312 O315 2.333 . S
Cd312 O316 2.352 . S
Cd312 O320 2.277 . S
Cd312 O321 2.356 . S
C313 O318 1.209 . S
C313 O320 1.226 . S
O314 Cd310 2.273 . S
O314 Cd312 2.411 . S
O314 C317 1.320 . S
O315 Cd312 2.333 . S
O315 C317 1.214 . S
O316 Cd312 2.352 . S
O316 C319 1.258 . S
C317 O314 1.320 . S
C317 O315 1.214 . S
O318 Cd310 2.277 . S
O318 C313 1.209 . S
C319 O316 1.258 . S
C319 O321 1.282 . S
O320 Cd312 2.277 . S
O320 C313 1.226 . S
O321 Cd312 2.356 . S
O321 C319 1.282 . S
C322 O323 1.306 . S
C322 O325 1.160 . S
O323 C322 1.306 . S
O323 Cd324 2.228 . S
Cd324 O323 2.228 . S
Cd324 O328 2.273 . S
Cd324 O332 2.277 . S
O325 C322 1.160 . S
O325 Cd326 2.203 . S
Cd326 O325 2.203 . S
Cd326 O328 2.411 . S
Cd326 O329 2.333 . S
Cd326 O330 2.352 . S
Cd326 O334 2.277 . S
Cd326 O335 2.356 . S
C327 O332 1.209 . S
C327 O334 1.226 . S
O328 Cd324 2.273 . S
O328 Cd326 2.411 . S
O328 C331 1.320 . S
O329 Cd326 2.333 . S
O329 C331 1.214 . S
O330 Cd326 2.352 . S
O330 C333 1.258 . S
C331 O328 1.320 . S
C331 O329 1.214 . S
O332 Cd324 2.277 . S
O332 C327 1.209 . S
C333 O330 1.258 . S
C333 O335 1.282 . S
O334 Cd326 2.277 . S
O334 C327 1.226 . S
O335 Cd326 2.356 . S
O335 C333 1.282 . S
C336 C338 1.422 1_556 S
C336 C340 1.415 . S
C336 N342 1.369 . S
C337 C338 1.421 . S
C337 C339 1.417 1_554 S
C337 C349 1.422 . S
C338 C336 1.422 1_554 S
C338 C337 1.421 . S
C338 N348 1.359 . S
C339 C337 1.417 1_556 S
C339 C341 1.329 . S
C339 H358 0.930 . S
C340 C336 1.415 . S
C340 C341 1.437 . S
C340 C344 1.413 . S
C341 C339 1.329 . S
C341 C340 1.437 . S
C341 H363 0.929 . S
N342 C336 1.369 . S
N342 C343 1.338 . S
N342 Gd347 2.622 1_566 S
C343 N342 1.338 . S
C343 C345 1.378 . S
C343 H355 0.929 . S
C344 C340 1.413 . S
C344 C345 1.348 . S
C344 H360 0.931 . S
C345 C343 1.378 . S
C345 C344 1.348 . S
C345 H361 0.930 . S
Gd346 N366 2.622 . S
Gd346 N373 2.570 . S
Gd346 O380 2.353 . S
Gd346 O381 2.468 . S
Gd346 O382 2.427 . S
Gd346 O384 2.388 . S
Gd346 O385 2.386 . S
Gd346 O389 2.307 . S
Gd346 C399 2.805 . S
Gd347 N342 2.622 1_544 S
Gd347 N348 2.570 1_545 S
Gd347 O379 2.386 1_645 S
Gd347 O383 2.307 1_655 S
Gd347 O386 2.353 1_655 S
Gd347 O387 2.468 . S
Gd347 O388 2.427 1_554 S
Gd347 O390 2.388 1_654 S
Gd347 C411 2.805 . S
N348 C338 1.359 . S
N348 Gd347 2.570 1_565 S
N348 C350 1.343 . S
C349 C337 1.422 . S
C349 C351 1.321 . S
C349 H357 0.931 . S
C350 N348 1.343 . S
C350 C351 1.390 . S
C350 H352 0.931 . S
C351 C349 1.321 . S
C351 C350 1.390 . S
C351 H353 0.930 . S
H352 C350 0.931 . S
H353 C351 0.930 . S
H354 C377 0.931 . S
H355 C343 0.929 . S
H356 C378 0.930 1_556 S
H357 C349 0.931 . S
H358 C339 0.930 . S
H359 C368 0.929 . S
H360 C344 0.931 . S
H361 C345 0.930 . S
H362 C400 0.930 . S
H363 C341 0.929 . S
H364 C369 0.931 . S
H365 C370 0.930 . S
N366 Gd346 2.622 . S
N366 C367 1.369 . S
N366 C368 1.338 . S
C367 N366 1.369 . S
C367 C371 1.415 . S
C367 C374 1.422 . S
C368 H359 0.929 . S
C368 N366 1.338 . S
C368 C370 1.378 . S
C369 H364 0.931 . S
C369 C370 1.348 . S
C369 C371 1.413 . S
C370 H365 0.930 . S
C370 C368 1.378 . S
C370 C369 1.348 . S
C371 C367 1.415 . S
C371 C369 1.413 . S
C371 C401 1.437 . S
H372 C401 0.929 . S
N373 Gd346 2.570 . S
N373 C374 1.359 . S
N373 C377 1.343 . S
C374 C367 1.422 . S
C374 N373 1.359 . S
C374 C376 1.421 . S
C375 C376 1.422 . S
C375 C378 1.321 . S
C375 H402 0.931 . S
C376 C374 1.421 . S
C376 C375 1.422 . S
C376 C400 1.417 . S
C377 H354 0.931 . S
C377 N373 1.343 . S
C377 C378 1.390 . S
C378 H356 0.930 1_554 S
C378 C375 1.321 . S
C378 C377 1.390 . S
O379 Gd347 2.386 1_465 S
O379 C391 1.265 . S
O380 Gd346 2.353 . S
O380 C391 1.242 1_545 S
O381 Gd346 2.468 . S
O381 C399 1.263 . S
O382 Gd346 2.427 . S
O382 C399 1.252 . S
O383 Gd347 2.307 1_455 S
O383 C392 1.261 . S
O384 Gd346 2.388 . S
O384 C392 1.252 . S
O385 Gd346 2.386 . S
O385 C403 1.265 . S
O386 Gd347 2.353 1_455 S
O386 C403 1.242 . S
O387 Gd347 2.468 . S
O387 C411 1.263 . S
O388 Gd347 2.427 1_556 S
O388 C411 1.252 1_556 S
O389 Gd346 2.307 . S
O389 C404 1.261 1_554 S
O390 Gd347 2.388 1_456 S
O390 C404 1.252 . S
C391 O379 1.265 . S
C391 O380 1.242 1_565 S
C392 O383 1.261 . S
C392 O384 1.252 . S
C393 C396 1.394 . S
C393 C398 1.370 . S
C393 C399 1.500 . S
C394 C397 1.383 . S
C394 C398 1.395 . S
C395 C396 1.396 . S
C395 C397 1.365 . S
C395 H412 0.929 . S
C396 C393 1.394 . S
C396 C395 1.396 . S
C396 H413 0.930 . S
C397 C394 1.383 . S
C397 C395 1.365 . S
C397 H414 0.931 . S
C398 C393 1.370 . S
C398 C394 1.395 . S
C398 H415 0.930 . S
C399 Gd346 2.805 . S
C399 O381 1.263 . S
C399 O382 1.252 . S
C399 C393 1.500 . S
C400 H362 0.930 . S
C400 C376 1.417 . S
C400 C401 1.329 . S
C401 C371 1.437 . S
C401 H372 0.929 . S
C401 C400 1.329 . S
H402 C375 0.931 . S
C403 O385 1.265 . S
C403 O386 1.242 . S
C404 O389 1.261 1_556 S
C404 O390 1.252 . S
C405 C408 1.394 1_554 S
C405 C410 1.370 . S
C405 C411 1.500 . S
C406 C409 1.383 1_554 S
C406 C410 1.395 . S
C407 C408 1.396 . S
C407 C409 1.365 . S
C407 H416 0.929 . S
C408 C405 1.394 1_556 S
C408 C407 1.396 . S
C408 H417 0.930 . S
C409 C406 1.383 1_556 S
C409 C407 1.365 . S
C409 H418 0.931 . S
C410 C405 1.370 . S
C410 C406 1.395 . S
C410 H419 0.930 . S
C411 Gd347 2.805 . S
C411 O387 1.263 . S
C411 O388 1.252 1_554 S
C411 C405 1.500 . S
H412 C395 0.929 . S
H413 C396 0.930 . S
H414 C397 0.931 . S
H415 C398 0.930 . S
H416 C407 0.929 . S
H417 C408 0.930 . S
H418 C409 0.931 . S
H419 C410 0.930 . S
C420 C422 1.422 . S
C420 C424 1.415 . S
C420 N426 1.369 . S
C421 C422 1.421 . S
C421 C423 1.417 . S
C421 C433 1.422 . S
C422 C420 1.422 . S
C422 C421 1.421 . S
C422 N432 1.359 . S
C423 C421 1.417 . S
C423 C425 1.329 . S
C423 H442 0.930 . S
C424 C420 1.415 . S
C424 C425 1.437 . S
C424 C428 1.413 . S
C425 C423 1.329 . S
C425 C424 1.437 . S
C425 H447 0.929 . S
N426 C420 1.369 . S
N426 C427 1.338 . S
N426 Gd431 2.622 . S
C427 N426 1.338 . S
C427 C429 1.378 . S
C427 H439 0.929 . S
C428 C424 1.413 . S
C428 C429 1.348 . S
C428 H444 0.931 . S
C429 C427 1.378 . S
C429 C428 1.348 . S
C429 H445 0.930 . S
Gd430 N450 2.622 . S
Gd430 N457 2.570 . S
Gd430 O464 2.353 . S
Gd430 O465 2.468 . S
Gd430 O466 2.427 . S
Gd430 O468 2.388 . S
Gd430 O469 2.386 . S
Gd430 O473 2.307 . S
Gd430 C483 2.805 . S
Gd431 N426 2.622 . S
Gd431 N432 2.570 . S
Gd431 O463 2.386 . S
Gd431 O467 2.307 . S
Gd431 O470 2.353 . S
Gd431 O471 2.468 . S
Gd431 O472 2.427 . S
Gd431 O474 2.388 . S
Gd431 C495 2.805 . S
N432 C422 1.359 . S
N432 Gd431 2.570 . S
N432 C434 1.343 . S
C433 C421 1.422 . S
C433 C435 1.321 . S
C433 H441 0.931 . S
C434 N432 1.343 . S
C434 C435 1.390 . S
C434 H436 0.931 . S
C435 C433 1.321 . S
C435 C434 1.390 . S
C435 H437 0.930 . S
H436 C434 0.931 . S
H437 C435 0.930 . S
H438 C461 0.931 . S
H439 C427 0.929 . S
H440 C462 0.930 . S
H441 C433 0.931 . S
H442 C423 0.930 . S
H443 C452 0.929 . S
H444 C428 0.931 . S
H445 C429 0.930 . S
H446 C484 0.930 . S
H447 C425 0.929 . S
H448 C453 0.931 . S
H449 C454 0.930 . S
N450 Gd430 2.622 . S
N450 C451 1.369 . S
N450 C452 1.338 . S
C451 N450 1.369 . S
C451 C455 1.415 . S
C451 C458 1.422 . S
C452 H443 0.929 . S
C452 N450 1.338 . S
C452 C454 1.378 . S
C453 H448 0.931 . S
C453 C454 1.348 . S
C453 C455 1.413 . S
C454 H449 0.930 . S
C454 C452 1.378 . S
C454 C453 1.348 . S
C455 C451 1.415 . S
C455 C453 1.413 . S
C455 C485 1.437 . S
H456 C485 0.929 . S
N457 Gd430 2.570 . S
N457 C458 1.359 . S
N457 C461 1.343 . S
C458 C451 1.422 . S
C458 N457 1.359 . S
C458 C460 1.421 . S
C459 C460 1.422 . S
C459 C462 1.321 . S
C459 H486 0.931 . S
C460 C458 1.421 . S
C460 C459 1.422 . S
C460 C484 1.417 . S
C461 H438 0.931 . S
C461 N457 1.343 . S
C461 C462 1.390 . S
C462 H440 0.930 . S
C462 C459 1.321 . S
C462 C461 1.390 . S
O463 Gd431 2.386 . S
O463 C475 1.265 . S
O464 Gd430 2.353 . S
O464 C475 1.242 . S
O465 Gd430 2.468 . S
O465 C483 1.263 . S
O466 Gd430 2.427 . S
O466 C483 1.252 . S
O467 Gd431 2.307 . S
O467 C476 1.261 . S
O468 Gd430 2.388 . S
O468 C476 1.252 . S
O469 Gd430 2.386 . S
O469 C487 1.265 . S
O470 Gd431 2.353 . S
O470 C487 1.242 . S
O471 Gd431 2.468 . S
O471 C495 1.263 . S
O472 Gd431 2.427 . S
O472 C495 1.252 . S
O473 Gd430 2.307 . S
O473 C488 1.261 . S
O474 Gd431 2.388 . S
O474 C488 1.252 . S
C475 O463 1.265 . S
C475 O464 1.242 . S
C476 O467 1.261 . S
C476 O468 1.252 . S
C477 C480 1.394 . S
C477 C482 1.370 . S
C477 C483 1.500 . S
C478 C481 1.383 . S
C478 C482 1.395 . S
C479 C480 1.396 . S
C479 C481 1.365 . S
C479 H496 0.929 . S
C480 C477 1.394 . S
C480 C479 1.396 . S
C480 H497 0.930 . S
C481 C478 1.383 . S
C481 C479 1.365 . S
C481 H498 0.931 . S
C482 C477 1.370 . S
C482 C478 1.395 . S
C482 H499 0.930 . S
C483 Gd430 2.805 . S
C483 O465 1.263 . S
C483 O466 1.252 . S
C483 C477 1.500 . S
C484 H446 0.930 . S
C484 C460 1.417 . S
C484 C485 1.329 . S
C485 C455 1.437 . S
C485 H456 0.929 . S
C485 C484 1.329 . S
H486 C459 0.931 . S
C487 O469 1.265 . S
C487 O470 1.242 . S
C488 O473 1.261 . S
C488 O474 1.252 . S
C489 C492 1.394 . S
C489 C494 1.370 . S
C489 C495 1.500 . S
C490 C493 1.383 . S
C490 C494 1.395 . S
C491 C492 1.396 . S
C491 C493 1.365 . S
C491 H500 0.929 . S
C492 C489 1.394 . S
C492 C491 1.396 . S
C492 H501 0.930 . S
C493 C490 1.383 . S
C493 C491 1.365 . S
C493 H502 0.931 . S
C494 C489 1.370 . S
C494 C490 1.395 . S
C494 H503 0.930 . S
C495 Gd431 2.805 . S
C495 O471 1.263 . S
C495 O472 1.252 . S
C495 C489 1.500 . S
H496 C479 0.929 . S
H497 C480 0.930 . S
H498 C481 0.931 . S
H499 C482 0.930 . S
H500 C491 0.929 . S
H501 C492 0.930 . S
H502 C493 0.931 . S
H503 C494 0.930 . S
C504 C506 1.422 . S
C504 C508 1.415 . S
C504 N510 1.369 . S
C505 C506 1.421 . S
C505 C507 1.417 . S
C505 C517 1.422 . S
C506 C504 1.422 . S
C506 C505 1.421 . S
C506 N516 1.359 . S
C507 C505 1.417 . S
C507 C509 1.329 . S
C507 H526 0.930 . S
C508 C504 1.415 . S
C508 C509 1.437 . S
C508 C512 1.413 . S
C509 C507 1.329 . S
C509 C508 1.437 . S
C509 H531 0.929 . S
N510 C504 1.369 . S
N510 C511 1.338 . S
N510 Gd515 2.622 . S
C511 N510 1.338 . S
C511 C513 1.378 . S
C511 H523 0.929 . S
C512 C508 1.413 . S
C512 C513 1.348 . S
C512 H528 0.931 . S
C513 C511 1.378 . S
C513 C512 1.348 . S
C513 H529 0.930 . S
Gd514 N534 2.628 . S
Gd514 N541 2.570 1_545 S
Gd514 O548 2.353 . S
Gd514 O549 2.468 . S
Gd514 O550 2.427 . S
Gd514 O552 2.388 . S
Gd514 O553 2.386 1_545 S
Gd514 O557 2.307 . S
Gd514 C567 2.805 . S
Gd515 N510 2.622 . S
Gd515 N516 2.570 . S
Gd515 O547 2.386 . S
Gd515 O551 2.307 . S
Gd515 O554 2.353 1_545 S
Gd515 O555 2.468 . S
Gd515 O556 2.427 . S
Gd515 O558 2.388 . S
Gd515 C579 2.805 . S
N516 C506 1.359 . S
N516 Gd515 2.570 . S
N516 C518 1.343 . S
C517 C505 1.422 . S
C517 C519 1.321 . S
C517 H525 0.931 . S
C518 N516 1.343 . S
C518 C519 1.390 . S
C518 H520 0.931 . S
C519 C517 1.321 . S
C519 C518 1.390 . S
C519 H521 0.930 . S
H520 C518 0.931 . S
H521 C519 0.930 . S
H522 C545 0.931 . S
H523 C511 0.929 . S
H524 C546 0.930 . S
H525 C517 0.931 . S
H526 C507 0.930 . S
H527 C536 0.929 . S
H528 C512 0.931 . S
H529 C513 0.930 . S
H530 C568 0.930 . S
H531 C509 0.929 . S
H532 C537 0.931 . S
H533 C538 0.930 . S
N534 Gd514 2.628 . S
N534 C535 1.363 1_545 S
N534 C536 1.337 . S
C535 N534 1.363 1_565 S
C535 C539 1.415 . S
C535 C542 1.422 . S
C536 H527 0.929 . S
C536 N534 1.337 . S
C536 C538 1.378 1_545 S
C537 H532 0.931 . S
C537 C538 1.348 . S
C537 C539 1.413 . S
C538 H533 0.930 . S
C538 C536 1.378 1_565 S
C538 C537 1.348 . S
C539 C535 1.415 . S
C539 C537 1.413 . S
C539 C569 1.437 . S
H540 C569 0.929 . S
N541 Gd514 2.570 1_565 S
N541 C542 1.359 . S
N541 C545 1.343 . S
C542 C535 1.422 . S
C542 N541 1.359 . S
C542 C544 1.421 . S
C543 C544 1.422 . S
C543 C546 1.321 . S
C543 H570 0.931 . S
C544 C542 1.421 . S
C544 C543 1.422 . S
C544 C568 1.417 . S
C545 H522 0.931 . S
C545 N541 1.343 . S
C545 C546 1.390 . S
C546 H524 0.930 . S
C546 C543 1.321 . S
C546 C545 1.390 . S
O547 Gd515 2.386 . S
O547 C559 1.265 . S
O548 Gd514 2.353 . S
O548 C559 1.242 . S
O549 Gd514 2.468 . S
O549 C567 1.263 . S
O550 Gd514 2.427 . S
O550 C567 1.252 . S
O551 Gd515 2.307 . S
O551 C560 1.261 . S
O552 Gd514 2.388 . S
O552 C560 1.252 . S
O553 Gd514 2.386 1_565 S
O553 C571 1.265 . S
O554 Gd515 2.353 1_565 S
O554 C571 1.242 . S
O555 Gd515 2.468 . S
O555 C579 1.263 . S
O556 Gd515 2.427 . S
O556 C579 1.252 . S
O557 Gd514 2.307 . S
O557 C572 1.261 . S
O558 Gd515 2.388 . S
O558 C572 1.252 . S
C559 O547 1.265 . S
C559 O548 1.242 . S
C560 O551 1.261 . S
C560 O552 1.252 . S
C561 C564 1.394 . S
C561 C566 1.370 . S
C561 C567 1.500 . S
C562 C565 1.383 . S
C562 C566 1.395 . S
C563 C564 1.396 . S
C563 C565 1.365 . S
C563 H580 0.929 . S
C564 C561 1.394 . S
C564 C563 1.396 . S
C564 H581 0.930 . S
C565 C562 1.383 . S
C565 C563 1.365 . S
C565 H582 0.931 . S
C566 C561 1.370 . S
C566 C562 1.395 . S
C566 H583 0.930 . S
C567 Gd514 2.805 . S
C567 O549 1.263 . S
C567 O550 1.252 . S
C567 C561 1.500 . S
C568 H530 0.930 . S
C568 C544 1.417 . S
C568 C569 1.329 . S
C569 C539 1.437 . S
C569 H540 0.929 . S
C569 C568 1.329 . S
H570 C543 0.931 . S
C571 O553 1.265 . S
C571 O554 1.242 . S
C572 O557 1.261 . S
C572 O558 1.252 . S
C573 C576 1.394 . S
C573 C578 1.370 . S
C573 C579 1.500 1_565 S
C574 C577 1.383 . S
C574 C578 1.395 . S
C575 C576 1.396 . S
C575 C577 1.365 . S
C575 H584 0.929 . S
C576 C573 1.394 . S
C576 C575 1.396 . S
C576 H585 0.930 . S
C577 C574 1.383 . S
C577 C575 1.365 . S
C577 H586 0.931 . S
C578 C573 1.370 . S
C578 C574 1.395 . S
C578 H587 0.930 . S
C579 Gd515 2.805 . S
C579 O555 1.263 . S
C579 O556 1.252 . S
C579 C573 1.500 1_545 S
H580 C563 0.929 . S
H581 C564 0.930 . S
H582 C565 0.931 . S
H583 C566 0.930 . S
H584 C575 0.929 . S
H585 C576 0.930 . S
H586 C577 0.931 . S
H587 C578 0.930 . S
C588 C590 1.422 . S
C588 C592 1.415 . S
C588 N594 1.369 . S
C589 C590 1.421 . S
C589 C591 1.417 . S
C589 C601 1.422 . S
C590 C588 1.422 . S
C590 C589 1.421 . S
C590 N600 1.359 . S
C591 C589 1.417 . S
C591 C593 1.329 . S
C591 H610 0.930 . S
C592 C588 1.415 . S
C592 C593 1.437 . S
C592 C596 1.413 . S
C593 C591 1.329 . S
C593 C592 1.437 . S
C593 H615 0.929 . S
N594 C588 1.369 . S
N594 C595 1.338 . S
N594 Gd599 2.622 . S
C595 N594 1.338 . S
C595 C597 1.378 . S
C595 H607 0.929 . S
C596 C592 1.413 . S
C596 C597 1.348 . S
C596 H612 0.931 . S
C597 C595 1.378 . S
C597 C596 1.348 . S
C597 H613 0.930 . S
Gd598 N618 2.622 . S
Gd598 N625 2.570 . S
Gd598 O632 2.353 . S
Gd598 O633 2.468 . S
Gd598 O634 2.427 . S
Gd598 O636 2.388 . S
Gd598 O637 2.386 . S
Gd598 O641 2.307 . S
Gd598 C651 2.805 . S
Gd599 N594 2.622 . S
Gd599 N600 2.570 . S
Gd599 O631 2.386 . S
Gd599 O635 2.307 . S
Gd599 O638 2.353 . S
Gd599 O639 2.468 . S
Gd599 O640 2.427 . S
Gd599 O642 2.388 . S
Gd599 C663 2.805 . S
N600 C590 1.359 . S
N600 Gd599 2.570 . S
N600 C602 1.343 . S
C601 C589 1.422 . S
C601 C603 1.321 . S
C601 H609 0.931 . S
C602 N600 1.343 . S
C602 C603 1.390 . S
C602 H604 0.931 . S
C603 C601 1.321 . S
C603 C602 1.390 . S
C603 H605 0.930 . S
H604 C602 0.931 . S
H605 C603 0.930 . S
H606 C629 0.931 . S
H607 C595 0.929 . S
H608 C630 0.930 . S
H609 C601 0.931 . S
H610 C591 0.930 . S
H611 C620 0.929 . S
H612 C596 0.931 . S
H613 C597 0.930 . S
H614 C652 0.930 . S
H615 C593 0.929 . S
H616 C621 0.931 . S
H617 C622 0.930 . S
N618 Gd598 2.622 . S
N618 C619 1.369 . S
N618 C620 1.338 . S
C619 N618 1.369 . S
C619 C623 1.415 . S
C619 C626 1.422 . S
C620 H611 0.929 . S
C620 N618 1.338 . S
C620 C622 1.378 . S
C621 H616 0.931 . S
C621 C622 1.348 . S
C621 C623 1.413 . S
C622 H617 0.930 . S
C622 C620 1.378 . S
C622 C621 1.348 . S
C623 C619 1.415 . S
C623 C621 1.413 . S
C623 C653 1.437 . S
H624 C653 0.929 . S
N625 Gd598 2.570 . S
N625 C626 1.359 . S
N625 C629 1.343 . S
C626 C619 1.422 . S
C626 N625 1.359 . S
C626 C628 1.421 . S
C627 C628 1.422 . S
C627 C630 1.321 . S
C627 H654 0.931 . S
C628 C626 1.421 . S
C628 C627 1.422 . S
C628 C652 1.417 . S
C629 H606 0.931 . S
C629 N625 1.343 . S
C629 C630 1.390 . S
C630 H608 0.930 . S
C630 C627 1.321 . S
C630 C629 1.390 . S
O631 Gd599 2.386 . S
O631 C643 1.265 . S
O632 Gd598 2.353 . S
O632 C643 1.242 . S
O633 Gd598 2.468 . S
O633 C651 1.263 . S
O634 Gd598 2.427 . S
O634 C651 1.252 . S
O635 Gd599 2.307 . S
O635 C644 1.261 . S
O636 Gd598 2.388 . S
O636 C644 1.252 . S
O637 Gd598 2.386 . S
O637 C655 1.265 . S
O638 Gd599 2.353 . S
O638 C655 1.242 . S
O639 Gd599 2.468 . S
O639 C663 1.263 . S
O640 Gd599 2.427 . S
O640 C663 1.252 . S
O641 Gd598 2.307 . S
O641 C656 1.261 . S
O642 Gd599 2.388 . S
O642 C656 1.252 . S
C643 O631 1.265 . S
C643 O632 1.242 . S
C644 O635 1.261 . S
C644 O636 1.252 . S
C645 C648 1.394 . S
C645 C650 1.370 . S
C645 C651 1.500 . S
C646 C649 1.383 . S
C646 C650 1.395 . S
C647 C648 1.396 . S
C647 C649 1.365 . S
C647 H664 0.929 . S
C648 C645 1.394 . S
C648 C647 1.396 . S
C648 H665 0.930 . S
C649 C646 1.383 . S
C649 C647 1.365 . S
C649 H666 0.931 . S
C650 C645 1.370 . S
C650 C646 1.395 . S
C650 H667 0.930 . S
C651 Gd598 2.805 . S
C651 O633 1.263 . S
C651 O634 1.252 . S
C651 C645 1.500 . S
C652 H614 0.930 . S
C652 C628 1.417 . S
C652 C653 1.329 . S
C653 C623 1.437 . S
C653 H624 0.929 . S
C653 C652 1.329 . S
H654 C627 0.931 . S
C655 O637 1.265 . S
C655 O638 1.242 . S
C656 O641 1.261 . S
C656 O642 1.252 . S
C657 C660 1.394 . S
C657 C662 1.370 . S
C657 C663 1.500 . S
C658 C661 1.383 . S
C658 C662 1.395 . S
C659 C660 1.396 . S
C659 C661 1.365 . S
C659 H668 0.929 . S
C660 C657 1.394 . S
C660 C659 1.396 . S
C660 H669 0.930 . S
C661 C658 1.383 . S
C661 C659 1.365 . S
C661 H670 0.931 . S
C662 C657 1.370 . S
C662 C658 1.395 . S
C662 H671 0.930 . S
C663 Gd599 2.805 . S
C663 O639 1.263 . S
C663 O640 1.252 . S
C663 C657 1.500 . S
H664 C647 0.929 . S
H665 C648 0.930 . S
H666 C649 0.931 . S
H667 C650 0.930 . S
H668 C659 0.929 . S
H669 C660 0.930 . S
H670 C661 0.931 . S
H671 C662 0.930 . S
C672 C674 1.422 . S
C672 C676 1.415 1_455 S
C672 N678 1.369 1_455 S
C673 C674 1.421 . S
C673 C675 1.417 . S
C673 C685 1.422 . S
C674 C672 1.422 . S
C674 C673 1.421 . S
C674 N684 1.359 . S
C675 C673 1.417 . S
C675 C677 1.329 . S
C675 H694 0.930 . S
C676 C672 1.415 1_655 S
C676 C677 1.437 1_655 S
C676 C680 1.413 . S
C677 C675 1.329 . S
C677 C676 1.437 1_455 S
C677 H699 0.917 1_455 S
N678 C672 1.369 1_655 S
N678 C679 1.338 . S
N678 Gd683 2.622 1_655 S
C679 N678 1.338 . S
C679 C681 1.378 . S
C679 H691 0.929 . S
C680 C676 1.413 . S
C680 C681 1.348 . S
C680 H696 0.931 . S
C681 C679 1.378 . S
C681 C680 1.348 . S
C681 H697 0.930 . S
Gd682 N702 2.622 . S
Gd682 N709 2.570 . S
Gd682 O716 2.353 1_565 S
Gd682 O717 2.468 . S
Gd682 O718 2.427 . S
Gd682 O720 2.388 1_565 S
Gd682 O721 2.386 1_565 S
Gd682 O725 2.307 1_565 S
Gd682 C735 2.805 . S
Gd683 N678 2.622 1_455 S
Gd683 N684 2.570 . S
Gd683 O715 2.386 . S
Gd683 O719 2.307 . S
Gd683 O722 2.353 . S
Gd683 O723 2.468 . S
Gd683 O724 2.427 1_455 S
Gd683 O726 2.388 1_455 S
Gd683 C747 2.805 . S
N684 C674 1.359 . S
N684 Gd683 2.570 . S
N684 C686 1.343 . S
C685 C673 1.422 . S
C685 C687 1.321 . S
C685 H693 0.931 . S
C686 N684 1.343 . S
C686 C687 1.390 . S
C686 H688 0.931 . S
C687 C685 1.321 . S
C687 C686 1.390 . S
C687 H689 0.930 . S
H688 C686 0.931 . S
H689 C687 0.930 . S
H690 C713 0.931 1_655 S
H691 C679 0.929 . S
H692 C714 0.930 . S
H693 C685 0.931 . S
H694 C675 0.930 . S
H695 C704 0.929 1_545 S
H696 C680 0.931 . S
H697 C681 0.930 . S
H698 C736 0.930 . S
H699 C677 0.917 1_655 S
H700 C705 0.931 . S
H701 C706 0.930 . S
N702 Gd682 2.622 . S
N702 C703 1.369 . S
N702 C704 1.338 . S
C703 N702 1.369 . S
C703 C707 1.415 . S
C703 C710 1.422 . S
C704 H695 0.929 1_565 S
C704 N702 1.338 . S
C704 C706 1.378 . S
C705 H700 0.931 . S
C705 C706 1.348 . S
C705 C707 1.413 . S
C706 H701 0.930 . S
C706 C704 1.378 . S
C706 C705 1.348 . S
C707 C703 1.415 . S
C707 C705 1.413 . S
C707 C737 1.437 . S
H708 C737 0.929 . S
N709 Gd682 2.570 . S
N709 C710 1.359 . S
N709 C713 1.343 . S
C710 C703 1.422 . S
C710 N709 1.359 . S
C710 C712 1.421 . S
C711 C712 1.466 . S
C711 C714 1.293 1_455 S
C711 H738 0.917 1_455 S
C712 C710 1.421 . S
C712 C711 1.466 . S
C712 C736 1.417 . S
C713 H690 0.931 1_455 S
C713 N709 1.343 . S
C713 C714 1.390 1_455 S
C714 H692 0.930 . S
C714 C711 1.293 1_655 S
C714 C713 1.390 1_655 S
O715 Gd683 2.386 . S
O715 C727 1.265 . S
O716 Gd682 2.353 1_545 S
O716 C727 1.242 . S
O717 Gd682 2.468 . S
O717 C735 1.263 . S
O718 Gd682 2.427 . S
O718 C735 1.252 . S
O719 Gd683 2.307 . S
O719 C728 1.261 . S
O720 Gd682 2.388 1_545 S
O720 C728 1.252 . S
O721 Gd682 2.386 1_545 S
O721 C739 1.265 . S
O722 Gd683 2.353 . S
O722 C739 1.242 . S
O723 Gd683 2.468 . S
O723 C747 1.263 . S
O724 Gd683 2.427 1_655 S
O724 C747 1.252 1_655 S
O725 Gd682 2.307 1_545 S
O725 C740 1.261 1_455 S
O726 Gd683 2.388 1_655 S
O726 C740 1.252 . S
C727 O715 1.265 . S
C727 O716 1.242 . S
C728 O719 1.261 . S
C728 O720 1.252 . S
C729 C732 1.394 . S
C729 C734 1.370 . S
C729 C735 1.500 . S
C730 C733 1.383 . S
C730 C734 1.395 . S
C731 C732 1.396 . S
C731 C733 1.365 . S
C731 H748 0.929 . S
C732 C729 1.394 . S
C732 C731 1.396 . S
C732 H749 0.930 . S
C733 C730 1.383 . S
C733 C731 1.365 . S
C733 H750 0.931 . S
C734 C729 1.370 . S
C734 C730 1.395 . S
C734 H751 0.930 . S
C735 Gd682 2.805 . S
C735 O717 1.263 . S
C735 O718 1.252 . S
C735 C729 1.500 . S
C736 H698 0.930 . S
C736 C712 1.417 . S
C736 C737 1.329 . S
C737 C707 1.437 . S
C737 H708 0.929 . S
C737 C736 1.329 . S
H738 C711 0.917 1_655 S
C739 O721 1.265 . S
C739 O722 1.242 . S
C740 O725 1.261 1_655 S
C740 O726 1.252 . S
C741 C744 1.394 1_455 S
C741 C746 1.370 . S
C741 C747 1.500 . S
C742 C745 1.383 . S
C742 C746 1.395 . S
C743 C744 1.396 . S
C743 C745 1.366 1_655 S
C743 H752 0.929 . S
C744 C741 1.394 1_655 S
C744 C743 1.396 . S
C744 H753 0.930 . S
C745 C742 1.383 . S
C745 C743 1.366 1_455 S
C745 H754 0.931 1_455 S
C746 C741 1.370 . S
C746 C742 1.395 . S
C746 H755 0.930 . S
C747 Gd683 2.805 . S
C747 O723 1.263 . S
C747 O724 1.252 1_455 S
C747 C741 1.500 . S
H748 C731 0.929 . S
H749 C732 0.930 . S
H750 C733 0.931 . S
H751 C734 0.930 . S
H752 C743 0.929 . S
H753 C744 0.930 . S
H754 C745 0.931 1_655 S
H755 C746 0.930 . S
C756 C758 1.422 . S
C756 C760 1.415 . S
C756 N762 1.369 . S
C757 C758 1.421 . S
C757 C759 1.417 . S
C757 C769 1.422 . S
C758 C756 1.422 . S
C758 C757 1.421 . S
C758 N768 1.359 . S
C759 C757 1.417 . S
C759 C761 1.329 . S
C759 H778 0.930 . S
C760 C756 1.415 . S
C760 C761 1.437 . S
C760 C764 1.413 . S
C761 C759 1.329 . S
C761 C760 1.437 . S
C761 H783 0.929 . S
N762 C756 1.369 . S
N762 C763 1.338 . S
N762 Gd767 2.622 . S
C763 N762 1.338 . S
C763 C765 1.378 . S
C763 H775 0.929 . S
C764 C760 1.413 . S
C764 C765 1.348 . S
C764 H780 0.931 . S
C765 C763 1.378 . S
C765 C764 1.348 . S
C765 H781 0.930 . S
Gd766 N786 2.622 . S
Gd766 N793 2.570 . S
Gd766 O800 2.353 . S
Gd766 O801 2.468 . S
Gd766 O802 2.427 . S
Gd766 O804 2.388 . S
Gd766 O805 2.386 . S
Gd766 O809 2.307 . S
Gd766 C819 2.805 . S
Gd767 N762 2.622 . S
Gd767 N768 2.570 . S
Gd767 O799 2.386 . S
Gd767 O803 2.307 . S
Gd767 O806 2.353 . S
Gd767 O807 2.468 . S
Gd767 O808 2.427 . S
Gd767 O810 2.388 . S
Gd767 C831 2.805 . S
N768 C758 1.359 . S
N768 Gd767 2.570 . S
N768 C770 1.343 . S
C769 C757 1.422 . S
C769 C771 1.321 . S
C769 H777 0.931 . S
C770 N768 1.343 . S
C770 C771 1.390 . S
C770 H772 0.931 . S
C771 C769 1.321 . S
C771 C770 1.390 . S
C771 H773 0.930 . S
H772 C770 0.931 . S
H773 C771 0.930 . S
H774 C797 0.931 . S
H775 C763 0.929 . S
H776 C798 0.930 . S
H777 C769 0.931 . S
H778 C759 0.930 . S
H779 C788 0.929 . S
H780 C764 0.931 . S
H781 C765 0.930 . S
H782 C820 0.930 . S
H783 C761 0.929 . S
H784 C789 0.931 . S
H785 C790 0.930 . S
N786 Gd766 2.622 . S
N786 C787 1.369 . S
N786 C788 1.338 . S
C787 N786 1.369 . S
C787 C791 1.415 . S
C787 C794 1.422 . S
C788 H779 0.929 . S
C788 N786 1.338 . S
C788 C790 1.378 . S
C789 H784 0.931 . S
C789 C790 1.348 . S
C789 C791 1.413 . S
C790 H785 0.930 . S
C790 C788 1.378 . S
C790 C789 1.348 . S
C791 C787 1.415 . S
C791 C789 1.413 . S
C791 C821 1.437 . S
H792 C821 0.929 . S
N793 Gd766 2.570 . S
N793 C794 1.359 . S
N793 C797 1.343 . S
C794 C787 1.422 . S
C794 N793 1.359 . S
C794 C796 1.421 . S
C795 C796 1.422 . S
C795 C798 1.321 . S
C795 H822 0.931 . S
C796 C794 1.421 . S
C796 C795 1.422 . S
C796 C820 1.417 . S
C797 H774 0.931 . S
C797 N793 1.343 . S
C797 C798 1.390 . S
C798 H776 0.930 . S
C798 C795 1.321 . S
C798 C797 1.390 . S
O799 Gd767 2.386 . S
O799 C811 1.265 . S
O800 Gd766 2.353 . S
O800 C811 1.242 . S
O801 Gd766 2.468 . S
O801 C819 1.263 . S
O802 Gd766 2.427 . S
O802 C819 1.252 . S
O803 Gd767 2.307 . S
O803 C812 1.261 . S
O804 Gd766 2.388 . S
O804 C812 1.252 . S
O805 Gd766 2.386 . S
O805 C823 1.265 . S
O806 Gd767 2.353 . S
O806 C823 1.242 . S
O807 Gd767 2.468 . S
O807 C831 1.263 . S
O808 Gd767 2.427 . S
O808 C831 1.252 . S
O809 Gd766 2.307 . S
O809 C824 1.261 . S
O810 Gd767 2.388 . S
O810 C824 1.252 . S
C811 O799 1.265 . S
C811 O800 1.242 . S
C812 O803 1.261 . S
C812 O804 1.252 . S
C813 C816 1.394 . S
C813 C818 1.370 . S
C813 C819 1.500 . S
C814 C817 1.383 . S
C814 C818 1.395 . S
C815 C816 1.396 . S
C815 C817 1.365 . S
C815 H832 0.929 . S
C816 C813 1.394 . S
C816 C815 1.396 . S
C816 H833 0.930 . S
C817 C814 1.383 . S
C817 C815 1.365 . S
C817 H834 0.931 . S
C818 C813 1.370 . S
C818 C814 1.395 . S
C818 H835 0.930 . S
C819 Gd766 2.805 . S
C819 O801 1.263 . S
C819 O802 1.252 . S
C819 C813 1.500 . S
C820 H782 0.930 . S
C820 C796 1.417 . S
C820 C821 1.329 . S
C821 C791 1.437 . S
C821 H792 0.929 . S
C821 C820 1.329 . S
H822 C795 0.931 . S
C823 O805 1.265 . S
C823 O806 1.242 . S
C824 O809 1.261 . S
C824 O810 1.252 . S
C825 C828 1.394 . S
C825 C830 1.370 . S
C825 C831 1.500 . S
C826 C829 1.383 . S
C826 C830 1.395 . S
C827 C828 1.396 . S
C827 C829 1.365 . S
C827 H836 0.929 . S
C828 C825 1.394 . S
C828 C827 1.396 . S
C828 H837 0.930 . S
C829 C826 1.383 . S
C829 C827 1.365 . S
C829 H838 0.931 . S
C830 C825 1.370 . S
C830 C826 1.395 . S
C830 H839 0.930 . S
C831 Gd767 2.805 . S
C831 O807 1.263 . S
C831 O808 1.252 . S
C831 C825 1.500 . S
H832 C815 0.929 . S
H833 C816 0.930 . S
H834 C817 0.931 . S
H835 C818 0.930 . S
H836 C827 0.929 . S
H837 C828 0.930 . S
H838 C829 0.931 . S
H839 C830 0.930 . S
C840 C842 1.422 . S
C840 C844 1.415 1_545 S
C840 N846 1.369 1_545 S
C841 C842 1.421 . S
C841 C843 1.417 . S
C841 C853 1.422 . S
C842 C840 1.422 . S
C842 C841 1.421 . S
C842 N852 1.359 . S
C843 C841 1.417 . S
C843 C845 1.329 . S
C843 H862 0.930 . S
C844 C840 1.415 1_565 S
C844 C845 1.437 1_565 S
C844 C848 1.413 . S
C845 C843 1.329 . S
C845 C844 1.437 1_545 S
C845 H867 0.929 1_545 S
N846 C840 1.369 1_565 S
N846 C847 1.338 . S
N846 Gd851 2.622 1_565 S
C847 N846 1.338 . S
C847 C849 1.378 . S
C847 H859 0.929 . S
C848 C844 1.413 . S
C848 C849 1.348 . S
C848 H864 0.931 . S
C849 C847 1.378 . S
C849 C848 1.348 . S
C849 H865 0.930 . S
Gd850 N870 2.622 . S
Gd850 N877 2.570 . S
Gd850 O884 2.353 1_556 S
Gd850 O885 2.468 . S
Gd850 O886 2.427 . S
Gd850 O888 2.388 1_556 S
Gd850 O889 2.386 1_556 S
Gd850 O893 2.312 . S
Gd850 C903 2.805 . S
Gd851 N846 2.622 1_545 S
Gd851 N852 2.570 . S
Gd851 O883 2.386 . S
Gd851 O887 2.307 . S
Gd851 O890 2.353 . S
Gd851 O891 2.468 . S
Gd851 O892 2.427 1_545 S
Gd851 O894 2.388 1_545 S
Gd851 C915 2.805 . S
N852 C842 1.359 . S
N852 Gd851 2.570 . S
N852 C854 1.343 . S
C853 C841 1.422 . S
C853 C855 1.321 . S
C853 H861 0.931 . S
C854 N852 1.343 . S
C854 C855 1.390 . S
C854 H856 0.931 . S
C855 C853 1.321 . S
C855 C854 1.390 . S
C855 H857 0.930 . S
H856 C854 0.931 . S
H857 C855 0.930 . S
H858 C881 0.927 1_565 S
H859 C847 0.929 . S
H860 C882 0.930 . S
H861 C853 0.931 . S
H862 C843 0.930 . S
H863 C872 0.929 1_554 S
H864 C848 0.931 . S
H865 C849 0.930 . S
H866 C904 0.930 . S
H867 C845 0.929 1_565 S
H868 C873 0.931 . S
H869 C874 0.930 . S
N870 Gd850 2.622 . S
N870 C871 1.369 . S
N870 C872 1.338 . S
C871 N870 1.369 . S
C871 C875 1.415 . S
C871 C878 1.422 . S
C872 H863 0.929 1_556 S
C872 N870 1.338 . S
C872 C874 1.378 . S
C873 H868 0.931 . S
C873 C874 1.348 . S
C873 C875 1.413 . S
C874 H869 0.930 . S
C874 C872 1.378 . S
C874 C873 1.348 . S
C875 C871 1.415 . S
C875 C873 1.413 . S
C875 C905 1.437 . S
H876 C905 0.929 . S
N877 Gd850 2.570 . S
N877 C878 1.359 . S
N877 C881 1.343 . S
C878 C871 1.422 . S
C878 N877 1.359 . S
C878 C880 1.421 . S
C879 C880 1.422 . S
C879 C882 1.321 1_545 S
C879 H906 0.931 1_545 S
C880 C878 1.421 . S
C880 C879 1.422 . S
C880 C904 1.417 . S
C881 H858 0.927 1_545 S
C881 N877 1.343 . S
C881 C882 1.390 1_545 S
C882 H860 0.930 . S
C882 C879 1.321 1_565 S
C882 C881 1.390 1_565 S
O883 Gd851 2.386 . S
O883 C895 1.265 . S
O884 Gd850 2.353 1_554 S
O884 C895 1.242 . S
O885 Gd850 2.468 . S
O885 C903 1.263 . S
O886 Gd850 2.427 . S
O886 C903 1.252 . S
O887 Gd851 2.307 . S
O887 C896 1.261 . S
O888 Gd850 2.388 1_554 S
O888 C896 1.252 . S
O889 Gd850 2.386 1_554 S
O889 C907 1.265 . S
O890 Gd851 2.353 . S
O890 C907 1.242 . S
O891 Gd851 2.468 . S
O891 C915 1.263 . S
O892 Gd851 2.427 1_565 S
O892 C915 1.252 1_565 S
O893 Gd850 2.312 . S
O893 C908 1.251 1_546 S
O894 Gd851 2.388 1_565 S
O894 C908 1.252 . S
C895 O883 1.265 . S
C895 O884 1.242 . S
C896 O887 1.261 . S
C896 O888 1.252 . S
C897 C900 1.394 . S
C897 C902 1.370 . S
C897 C903 1.500 . S
C898 C901 1.383 . S
C898 C902 1.395 . S
C899 C900 1.396 . S
C899 C901 1.365 . S
C899 H916 0.929 . S
C900 C897 1.394 . S
C900 C899 1.396 . S
C900 H917 0.930 . S
C901 C898 1.383 . S
C901 C899 1.365 . S
C901 H918 0.931 . S
C902 C897 1.370 . S
C902 C898 1.395 . S
C902 H919 0.930 . S
C903 Gd850 2.805 . S
C903 O885 1.263 . S
C903 O886 1.252 . S
C903 C897 1.500 . S
C904 H866 0.930 . S
C904 C880 1.417 . S
C904 C905 1.329 . S
C905 C875 1.437 . S
C905 H876 0.929 . S
C905 C904 1.329 . S
H906 C879 0.931 1_565 S
C907 O889 1.265 . S
C907 O890 1.242 . S
C908 O893 1.251 1_564 S
C908 O894 1.252 . S
C909 C912 1.394 . S
C909 C914 1.370 1_565 S
C909 C915 1.500 1_565 S
C910 C913 1.383 1_545 S
C910 C914 1.395 . S
C911 C912 1.396 . S
C911 C913 1.365 . S
C911 H920 0.929 . S
C912 C909 1.394 . S
C912 C911 1.396 . S
C912 H921 0.930 . S
C913 C910 1.383 1_565 S
C913 C911 1.365 . S
C913 H922 0.931 . S
C914 C909 1.370 1_545 S
C914 C910 1.395 . S
C914 H923 0.930 . S
C915 Gd851 2.805 . S
C915 O891 1.263 . S
C915 O892 1.252 1_545 S
C915 C909 1.500 1_545 S
H916 C899 0.929 . S
H917 C900 0.930 . S
H918 C901 0.931 . S
H919 C902 0.930 . S
H920 C911 0.929 . S
H921 C912 0.930 . S
H922 C913 0.931 . S
H923 C914 0.930 . S
C924 C926 1.422 . S
C924 C928 1.415 . S
C924 N930 1.369 . S
C925 C926 1.421 . S
C925 C927 1.417 . S
C925 C937 1.422 . S
C926 C924 1.422 . S
C926 C925 1.421 . S
C926 N936 1.359 . S
C927 C925 1.417 . S
C927 C929 1.329 . S
C927 H946 0.930 . S
C928 C924 1.415 . S
C928 C929 1.437 . S
C928 C932 1.413 . S
C929 C927 1.329 . S
C929 C928 1.437 . S
C929 H951 0.929 . S
N930 C924 1.369 . S
N930 C931 1.338 . S
N930 Gd935 2.622 . S
C931 N930 1.338 . S
C931 C933 1.378 . S
C931 H943 0.929 . S
C932 C928 1.413 . S
C932 C933 1.348 . S
C932 H948 0.931 . S
C933 C931 1.378 . S
C933 C932 1.348 . S
C933 H949 0.930 . S
Gd934 N954 2.622 . S
Gd934 N961 2.570 . S
Gd934 O968 2.353 . S
Gd934 O969 2.468 . S
Gd934 O970 2.427 . S
Gd934 O972 2.388 . S
Gd934 O973 2.386 . S
Gd934 O977 2.307 . S
Gd934 C987 2.805 . S
Gd935 N930 2.622 . S
Gd935 N936 2.570 . S
Gd935 O967 2.386 . S
Gd935 O971 2.307 . S
Gd935 O974 2.353 . S
Gd935 O975 2.468 . S
Gd935 O976 2.427 . S
Gd935 O978 2.388 . S
Gd935 C999 2.805 . S
N936 C926 1.359 . S
N936 Gd935 2.570 . S
N936 C938 1.343 . S
C937 C925 1.422 . S
C937 C939 1.321 . S
C937 H945 0.931 . S
C938 N936 1.343 . S
C938 C939 1.390 . S
C938 H940 0.931 . S
C939 C937 1.321 . S
C939 C938 1.390 . S
C939 H941 0.930 . S
H940 C938 0.931 . S
H941 C939 0.930 . S
H942 C965 0.931 . S
H943 C931 0.929 . S
H944 C966 0.930 . S
H945 C937 0.931 . S
H946 C927 0.930 . S
H947 C956 0.929 . S
H948 C932 0.931 . S
H949 C933 0.930 . S
H950 C988 0.930 . S
H951 C929 0.929 . S
H952 C957 0.931 . S
H953 C958 0.930 . S
N954 Gd934 2.622 . S
N954 C955 1.369 . S
N954 C956 1.338 . S
C955 N954 1.369 . S
C955 C959 1.415 . S
C955 C962 1.422 . S
C956 H947 0.929 . S
C956 N954 1.338 . S
C956 C958 1.378 . S
C957 H952 0.931 . S
C957 C958 1.348 . S
C957 C959 1.413 . S
C958 H953 0.930 . S
C958 C956 1.378 . S
C958 C957 1.348 . S
C959 C955 1.415 . S
C959 C957 1.413 . S
C959 C989 1.437 . S
H960 C989 0.929 . S
N961 Gd934 2.570 . S
N961 C962 1.359 . S
N961 C965 1.343 . S
C962 C955 1.422 . S
C962 N961 1.359 . S
C962 C964 1.421 . S
C963 C964 1.422 . S
C963 C966 1.321 . S
C963 H990 0.931 . S
C964 C962 1.421 . S
C964 C963 1.422 . S
C964 C988 1.417 . S
C965 H942 0.931 . S
C965 N961 1.343 . S
C965 C966 1.390 . S
C966 H944 0.930 . S
C966 C963 1.321 . S
C966 C965 1.390 . S
O967 Gd935 2.386 . S
O967 C979 1.265 . S
O968 Gd934 2.353 . S
O968 C979 1.242 . S
O969 Gd934 2.468 . S
O969 C987 1.263 . S
O970 Gd934 2.427 . S
O970 C987 1.252 . S
O971 Gd935 2.307 . S
O971 C980 1.261 . S
O972 Gd934 2.388 . S
O972 C980 1.252 . S
O973 Gd934 2.386 . S
O973 C991 1.265 . S
O974 Gd935 2.353 . S
O974 C991 1.242 . S
O975 Gd935 2.468 . S
O975 C999 1.263 . S
O976 Gd935 2.427 . S
O976 C999 1.252 . S
O977 Gd934 2.307 . S
O977 C992 1.261 . S
O978 Gd935 2.388 . S
O978 C992 1.252 . S
C979 O967 1.265 . S
C979 O968 1.242 . S
C980 O971 1.261 . S
C980 O972 1.252 . S
C981 C984 1.394 . S
C981 C986 1.370 . S
C981 C987 1.500 . S
C982 C985 1.383 . S
C982 C986 1.395 . S
C983 C984 1.396 . S
C983 C985 1.365 . S
C983 H1000 0.929 . S
C984 C981 1.394 . S
C984 C983 1.396 . S
C984 H1001 0.930 . S
C985 C982 1.383 . S
C985 C983 1.365 . S
C985 H1002 0.931 . S
C986 C981 1.370 . S
C986 C982 1.395 . S
C986 H1003 0.930 . S
C987 Gd934 2.805 . S
C987 O969 1.263 . S
C987 O970 1.252 . S
C987 C981 1.500 . S
C988 H950 0.930 . S
C988 C964 1.417 . S
C988 C989 1.329 . S
C989 C959 1.437 . S
C989 H960 0.929 . S
C989 C988 1.329 . S
H990 C963 0.931 . S
C991 O973 1.265 . S
C991 O974 1.242 . S
C992 O977 1.261 . S
C992 O978 1.252 . S
C993 C996 1.394 . S
C993 C998 1.370 . S
C993 C999 1.500 . S
C994 C997 1.383 . S
C994 C998 1.395 . S
C995 C996 1.396 . S
C995 C997 1.365 . S
C995 H1004 0.929 . S
C996 C993 1.394 . S
C996 C995 1.396 . S
C996 H1005 0.930 . S
C997 C994 1.383 . S
C997 C995 1.365 . S
C997 H1006 0.931 . S
C998 C993 1.370 . S
C998 C994 1.395 . S
C998 H1007 0.930 . S
C999 Gd935 2.805 . S
C999 O975 1.263 . S
C999 O976 1.252 . S
C999 C993 1.500 . S
H1000 C983 0.929 . S
H1001 C984 0.930 . S
H1002 C985 0.931 . S
H1003 C986 0.930 . S
H1004 C995 0.929 . S
H1005 C996 0.930 . S
H1006 C997 0.931 . S
H1007 C998 0.930 . S
C1008 C1010 1.422 . S
C1008 C1012 1.415 . S
C1008 N1014 1.369 . S
C1009 C1010 1.421 . S
C1009 C1011 1.417 . S
C1009 C1021 1.422 . S
C1010 C1008 1.422 . S
C1010 C1009 1.421 . S
C1010 N1020 1.359 . S
C1011 C1009 1.417 . S
C1011 C1013 1.329 . S
C1011 H1030 0.930 . S
C1012 C1008 1.415 . S
C1012 C1013 1.437 . S
C1012 C1016 1.413 . S
C1013 C1011 1.329 . S
C1013 C1012 1.437 . S
C1013 H1035 0.929 . S
N1014 C1008 1.369 . S
N1014 C1015 1.338 . S
N1014 Gd1019 2.622 . S
C1015 N1014 1.338 . S
C1015 C1017 1.378 . S
C1015 H1027 0.929 . S
C1016 C1012 1.413 . S
C1016 C1017 1.348 . S
C1016 H1032 0.931 . S
C1017 C1015 1.378 . S
C1017 C1016 1.348 . S
C1017 H1033 0.930 . S
Gd1018 N1038 2.622 1_554 S
Gd1018 N1045 2.570 1_554 S
Gd1018 O1052 2.353 . S
Gd1018 O1053 2.468 . S
Gd1018 O1054 2.427 . S
Gd1018 O1056 2.388 . S
Gd1018 O1057 2.386 1_554 S
Gd1018 O1061 2.307 . S
Gd1018 C1071 2.805 . S
Gd1019 N1014 2.622 . S
Gd1019 N1020 2.570 . S
Gd1019 O1051 2.386 . S
Gd1019 O1055 2.307 . S
Gd1019 O1058 2.353 1_554 S
Gd1019 O1059 2.468 . S
Gd1019 O1060 2.427 . S
Gd1019 O1062 2.388 . S
Gd1019 C1083 2.805 . S
N1020 C1010 1.359 . S
N1020 Gd1019 2.570 . S
N1020 C1022 1.343 . S
C1021 C1009 1.422 . S
C1021 C1023 1.321 . S
C1021 H1029 0.931 . S
C1022 N1020 1.343 . S
C1022 C1023 1.390 . S
C1022 H1024 0.931 . S
C1023 C1021 1.321 . S
C1023 C1022 1.390 . S
C1023 H1025 0.930 . S
H1024 C1022 0.931 . S
H1025 C1023 0.930 . S
H1026 C1049 0.931 1_554 S
H1027 C1015 0.929 . S
H1028 C1050 0.930 . S
H1029 C1021 0.931 . S
H1030 C1011 0.930 . S
H1031 C1040 0.929 1_554 S
H1032 C1016 0.931 . S
H1033 C1017 0.930 . S
H1034 C1072 0.930 . S
H1035 C1013 0.929 . S
H1036 C1041 0.931 . S
H1037 C1042 0.930 . S
N1038 Gd1018 2.622 1_556 S
N1038 C1039 1.369 . S
N1038 C1040 1.338 . S
C1039 N1038 1.369 . S
C1039 C1043 1.415 . S
C1039 C1046 1.422 . S
C1040 H1031 0.929 1_556 S
C1040 N1038 1.338 . S
C1040 C1042 1.378 . S
C1041 H1036 0.931 . S
C1041 C1042 1.348 . S
C1041 C1043 1.413 . S
C1042 H1037 0.930 . S
C1042 C1040 1.378 . S
C1042 C1041 1.348 . S
C1043 C1039 1.415 . S
C1043 C1041 1.413 . S
C1043 C1073 1.437 . S
H1044 C1073 0.929 . S
N1045 Gd1018 2.570 1_556 S
N1045 C1046 1.359 . S
N1045 C1049 1.343 . S
C1046 C1039 1.422 . S
C1046 N1045 1.359 . S
C1046 C1048 1.421 . S
C1047 C1048 1.422 . S
C1047 C1050 1.321 . S
C1047 H1074 0.931 . S
C1048 C1046 1.421 . S
C1048 C1047 1.422 . S
C1048 C1072 1.417 . S
C1049 H1026 0.931 1_556 S
C1049 N1045 1.343 . S
C1049 C1050 1.390 . S
C1050 H1028 0.930 . S
C1050 C1047 1.321 . S
C1050 C1049 1.390 . S
O1051 Gd1019 2.386 . S
O1051 C1063 1.265 . S
O1052 Gd1018 2.353 . S
O1052 C1063 1.242 . S
O1053 Gd1018 2.468 . S
O1053 C1071 1.263 . S
O1054 Gd1018 2.427 . S
O1054 C1071 1.252 . S
O1055 Gd1019 2.307 . S
O1055 C1064 1.261 . S
O1056 Gd1018 2.388 . S
O1056 C1064 1.252 . S
O1057 Gd1018 2.386 1_556 S
O1057 C1075 1.265 . S
O1058 Gd1019 2.353 1_556 S
O1058 C1075 1.242 . S
O1059 Gd1019 2.468 . S
O1059 C1083 1.263 . S
O1060 Gd1019 2.427 . S
O1060 C1083 1.252 . S
O1061 Gd1018 2.307 . S
O1061 C1076 1.261 . S
O1062 Gd1019 2.388 . S
O1062 C1076 1.252 . S
C1063 O1051 1.265 . S
C1063 O1052 1.242 . S
C1064 O1055 1.261 . S
C1064 O1056 1.252 . S
C1065 C1068 1.394 . S
C1065 C1070 1.370 . S
C1065 C1071 1.500 . S
C1066 C1069 1.383 . S
C1066 C1070 1.395 . S
C1067 C1068 1.396 . S
C1067 C1069 1.365 . S
C1067 H1084 0.929 . S
C1068 C1065 1.394 . S
C1068 C1067 1.396 . S
C1068 H1085 0.930 . S
C1069 C1066 1.383 . S
C1069 C1067 1.365 . S
C1069 H1086 0.931 . S
C1070 C1065 1.370 . S
C1070 C1066 1.395 . S
C1070 H1087 0.930 . S
C1071 Gd1018 2.805 . S
C1071 O1053 1.263 . S
C1071 O1054 1.252 . S
C1071 C1065 1.500 . S
C1072 H1034 0.930 . S
C1072 C1048 1.417 . S
C1072 C1073 1.329 . S
C1073 C1043 1.437 . S
C1073 H1044 0.929 . S
C1073 C1072 1.329 . S
H1074 C1047 0.931 . S
C1075 O1057 1.265 . S
C1075 O1058 1.242 . S
C1076 O1061 1.261 . S
C1076 O1062 1.252 . S
C1077 C1080 1.394 . S
C1077 C1082 1.370 . S
C1077 C1083 1.500 1_556 S
C1078 C1081 1.383 . S
C1078 C1082 1.395 . S
C1079 C1080 1.396 . S
C1079 C1081 1.365 . S
C1079 H1088 0.929 . S
C1080 C1077 1.394 . S
C1080 C1079 1.396 . S
C1080 H1089 0.934 . S
C1081 C1078 1.383 . S
C1081 C1079 1.365 . S
C1081 H1090 0.931 . S
C1082 C1077 1.370 . S
C1082 C1078 1.395 . S
C1082 H1091 0.930 . S
C1083 Gd1019 2.805 . S
C1083 O1059 1.263 . S
C1083 O1060 1.252 . S
C1083 C1077 1.500 1_554 S
H1084 C1067 0.929 . S
H1085 C1068 0.930 . S
H1086 C1069 0.931 . S
H1087 C1070 0.930 . S
H1088 C1079 0.929 . S
H1089 C1080 0.934 . S
H1090 C1081 0.931 . S
H1091 C1082 0.930 . S
C1092 C1094 1.422 . S
C1092 C1096 1.415 . S
C1092 N1098 1.369 . S
C1093 C1094 1.421 . S
C1093 C1095 1.417 . S
C1093 C1105 1.422 . S
C1094 C1092 1.422 . S
C1094 C1093 1.421 . S
C1094 N1104 1.359 . S
C1095 C1093 1.417 . S
C1095 C1097 1.329 . S
C1095 H1114 0.930 . S
C1096 C1092 1.415 . S
C1096 C1097 1.437 . S
C1096 C1100 1.413 . S
C1097 C1095 1.329 . S
C1097 C1096 1.437 . S
C1097 H1119 0.929 . S
N1098 C1092 1.369 . S
N1098 C1099 1.338 . S
N1098 Gd1103 2.622 . S
C1099 N1098 1.338 . S
C1099 C1101 1.378 . S
C1099 H1111 0.929 . S
C1100 C1096 1.413 . S
C1100 C1101 1.348 . S
C1100 H1116 0.931 . S
C1101 C1099 1.378 . S
C1101 C1100 1.348 . S
C1101 H1117 0.930 . S
Gd1102 N1122 2.622 . S
Gd1102 N1129 2.570 . S
Gd1102 O1136 2.353 . S
Gd1102 O1137 2.468 . S
Gd1102 O1138 2.427 . S
Gd1102 O1140 2.388 . S
Gd1102 O1141 2.386 . S
Gd1102 O1145 2.307 . S
Gd1102 C1155 2.805 . S
Gd1103 N1098 2.622 . S
Gd1103 N1104 2.570 . S
Gd1103 O1135 2.386 . S
Gd1103 O1139 2.307 . S
Gd1103 O1142 2.353 . S
Gd1103 O1143 2.468 . S
Gd1103 O1144 2.427 . S
Gd1103 O1146 2.388 . S
Gd1103 C1167 2.805 . S
N1104 C1094 1.359 . S
N1104 Gd1103 2.570 . S
N1104 C1106 1.343 . S
C1105 C1093 1.422 . S
C1105 C1107 1.321 . S
C1105 H1113 0.931 . S
C1106 N1104 1.343 . S
C1106 C1107 1.390 . S
C1106 H1108 0.931 . S
C1107 C1105 1.321 . S
C1107 C1106 1.390 . S
C1107 H1109 0.930 . S
H1108 C1106 0.931 . S
H1109 C1107 0.930 . S
H1110 C1133 0.931 . S
H1111 C1099 0.929 . S
H1112 C1134 0.930 . S
H1113 C1105 0.931 . S
H1114 C1095 0.930 . S
H1115 C1124 0.929 . S
H1116 C1100 0.931 . S
H1117 C1101 0.930 . S
H1118 C1156 0.930 . S
H1119 C1097 0.929 . S
H1120 C1125 0.931 . S
H1121 C1126 0.930 . S
N1122 Gd1102 2.622 . S
N1122 C1123 1.369 . S
N1122 C1124 1.338 . S
C1123 N1122 1.369 . S
C1123 C1127 1.415 . S
C1123 C1130 1.422 . S
C1124 H1115 0.929 . S
C1124 N1122 1.338 . S
C1124 C1126 1.378 . S
C1125 H1120 0.931 . S
C1125 C1126 1.348 . S
C1125 C1127 1.413 . S
C1126 H1121 0.930 . S
C1126 C1124 1.378 . S
C1126 C1125 1.348 . S
C1127 C1123 1.415 . S
C1127 C1125 1.413 . S
C1127 C1157 1.437 . S
H1128 C1157 0.929 . S
N1129 Gd1102 2.570 . S
N1129 C1130 1.359 . S
N1129 C1133 1.343 . S
C1130 C1123 1.422 . S
C1130 N1129 1.359 . S
C1130 C1132 1.421 . S
C1131 C1132 1.422 . S
C1131 C1134 1.321 . S
C1131 H1158 0.931 . S
C1132 C1130 1.421 . S
C1132 C1131 1.422 . S
C1132 C1156 1.417 . S
C1133 H1110 0.931 . S
C1133 N1129 1.343 . S
C1133 C1134 1.390 . S
C1134 H1112 0.930 . S
C1134 C1131 1.321 . S
C1134 C1133 1.390 . S
O1135 Gd1103 2.386 . S
O1135 C1147 1.265 . S
O1136 Gd1102 2.353 . S
O1136 C1147 1.242 . S
O1137 Gd1102 2.468 . S
O1137 C1155 1.263 . S
O1138 Gd1102 2.427 . S
O1138 C1155 1.252 . S
O1139 Gd1103 2.307 . S
O1139 C1148 1.261 . S
O1140 Gd1102 2.388 . S
O1140 C1148 1.252 . S
O1141 Gd1102 2.386 . S
O1141 C1159 1.265 . S
O1142 Gd1103 2.353 . S
O1142 C1159 1.242 . S
O1143 Gd1103 2.468 . S
O1143 C1167 1.263 . S
O1144 Gd1103 2.427 . S
O1144 C1167 1.252 . S
O1145 Gd1102 2.307 . S
O1145 C1160 1.261 . S
O1146 Gd1103 2.388 . S
O1146 C1160 1.252 . S
C1147 O1135 1.265 . S
C1147 O1136 1.242 . S
C1148 O1139 1.261 . S
C1148 O1140 1.252 . S
C1149 C1152 1.394 . S
C1149 C1154 1.370 . S
C1149 C1155 1.500 . S
C1150 C1153 1.383 . S
C1150 C1154 1.395 . S
C1151 C1152 1.396 . S
C1151 C1153 1.365 . S
C1151 H1168 0.929 . S
C1152 C1149 1.394 . S
C1152 C1151 1.396 . S
C1152 H1169 0.930 . S
C1153 C1150 1.383 . S
C1153 C1151 1.365 . S
C1153 H1170 0.931 . S
C1154 C1149 1.370 . S
C1154 C1150 1.395 . S
C1154 H1171 0.930 . S
C1155 Gd1102 2.805 . S
C1155 O1137 1.263 . S
C1155 O1138 1.252 . S
C1155 C1149 1.500 . S
C1156 H1118 0.930 . S
C1156 C1132 1.417 . S
C1156 C1157 1.329 . S
C1157 C1127 1.437 . S
C1157 H1128 0.929 . S
C1157 C1156 1.329 . S
H1158 C1131 0.931 . S
C1159 O1141 1.265 . S
C1159 O1142 1.242 . S
C1160 O1145 1.261 . S
C1160 O1146 1.252 . S
C1161 C1164 1.394 . S
C1161 C1166 1.370 . S
C1161 C1167 1.500 . S
C1162 C1165 1.383 . S
C1162 C1166 1.395 . S
C1163 C1164 1.396 . S
C1163 C1165 1.365 . S
C1163 H1172 0.929 . S
C1164 C1161 1.394 . S
C1164 C1163 1.396 . S
C1164 H1173 0.930 . S
C1165 C1162 1.383 . S
C1165 C1163 1.365 . S
C1165 H1174 0.931 . S
C1166 C1161 1.370 . S
C1166 C1162 1.395 . S
C1166 H1175 0.930 . S
C1167 Gd1103 2.805 . S
C1167 O1143 1.263 . S
C1167 O1144 1.252 . S
C1167 C1161 1.500 . S
H1168 C1151 0.929 . S
H1169 C1152 0.930 . S
H1170 C1153 0.931 . S
H1171 C1154 0.930 . S
H1172 C1163 0.929 . S
H1173 C1164 0.930 . S
H1174 C1165 0.931 . S
H1175 C1166 0.930 . S
C1176 C1178 1.422 . S
C1176 C1180 1.415 . S
C1176 N1182 1.369 . S
C1177 C1178 1.421 . S
C1177 C1179 1.417 . S
C1177 C1189 1.422 . S
C1178 C1176 1.422 . S
C1178 C1177 1.421 . S
C1178 N1188 1.359 . S
C1179 C1177 1.417 . S
C1179 C1181 1.329 . S
C1179 H1198 0.930 . S
C1180 C1176 1.415 . S
C1180 C1181 1.437 . S
C1180 C1184 1.413 . S
C1181 C1179 1.329 . S
C1181 C1180 1.437 . S
C1181 H1203 0.929 . S
N1182 C1176 1.369 . S
N1182 C1183 1.338 . S
N1182 Gd1187 2.622 . S
C1183 N1182 1.338 . S
C1183 C1185 1.378 . S
C1183 H1195 0.929 . S
C1184 C1180 1.413 . S
C1184 C1185 1.348 . S
C1184 H1200 0.931 . S
C1185 C1183 1.378 . S
C1185 C1184 1.348 . S
C1185 H1201 0.930 . S
Gd1186 N1206 2.622 1_455 S
Gd1186 N1213 2.570 1_455 S
Gd1186 O1220 2.353 . S
Gd1186 O1221 2.468 . S
Gd1186 O1222 2.427 . S
Gd1186 O1224 2.388 . S
Gd1186 O1225 2.386 1_455 S
Gd1186 O1229 2.307 . S
Gd1186 C1239 2.805 . S
Gd1187 N1182 2.622 . S
Gd1187 N1188 2.570 . S
Gd1187 O1219 2.386 . S
Gd1187 O1223 2.307 . S
Gd1187 O1226 2.353 1_455 S
Gd1187 O1227 2.468 . S
Gd1187 O1228 2.427 . S
Gd1187 O1230 2.388 . S
Gd1187 C1251 2.805 . S
N1188 C1178 1.359 . S
N1188 Gd1187 2.570 . S
N1188 C1190 1.343 . S
C1189 C1177 1.422 . S
C1189 C1191 1.321 . S
C1189 H1197 0.931 . S
C1190 N1188 1.343 . S
C1190 C1191 1.390 . S
C1190 H1192 0.931 . S
C1191 C1189 1.321 . S
C1191 C1190 1.390 . S
C1191 H1193 0.930 . S
H1192 C1190 0.931 . S
H1193 C1191 0.930 . S
H1194 C1217 0.931 1_455 S
H1195 C1183 0.929 . S
H1196 C1218 0.930 . S
H1197 C1189 0.931 . S
H1198 C1179 0.930 . S
H1199 C1208 0.902 1_455 S
H1200 C1184 0.931 . S
H1201 C1185 0.930 . S
H1202 C1240 0.930 . S
H1203 C1181 0.929 . S
H1204 C1209 0.931 . S
H1205 C1210 0.930 . S
N1206 Gd1186 2.622 1_655 S
N1206 C1207 1.369 . S
N1206 C1208 1.330 . S
C1207 N1206 1.369 . S
C1207 C1211 1.415 . S
C1207 C1214 1.422 . S
C1208 H1199 0.902 1_655 S
C1208 N1206 1.330 . S
C1208 C1210 1.413 . S
C1209 H1204 0.931 . S
C1209 C1210 1.348 . S
C1209 C1211 1.413 . S
C1210 H1205 0.930 . S
C1210 C1208 1.413 . S
C1210 C1209 1.348 . S
C1211 C1207 1.415 . S
C1211 C1209 1.413 . S
C1211 C1241 1.437 . S
H1212 C1241 0.929 . S
N1213 Gd1186 2.570 1_655 S
N1213 C1214 1.359 . S
N1213 C1217 1.343 . S
C1214 C1207 1.422 . S
C1214 N1213 1.359 . S
C1214 C1216 1.421 . S
C1215 C1216 1.422 . S
C1215 C1218 1.321 . S
C1215 H1242 0.931 . S
C1216 C1214 1.421 . S
C1216 C1215 1.422 . S
C1216 C1240 1.417 . S
C1217 H1194 0.931 1_655 S
C1217 N1213 1.343 . S
C1217 C1218 1.390 . S
C1218 H1196 0.930 . S
C1218 C1215 1.321 . S
C1218 C1217 1.390 . S
O1219 Gd1187 2.386 . S
O1219 C1231 1.265 . S
O1220 Gd1186 2.353 . S
O1220 C1231 1.242 . S
O1221 Gd1186 2.468 . S
O1221 C1239 1.263 . S
O1222 Gd1186 2.427 . S
O1222 C1239 1.252 . S
O1223 Gd1187 2.307 . S
O1223 C1232 1.261 . S
O1224 Gd1186 2.388 . S
O1224 C1232 1.252 . S
O1225 Gd1186 2.386 1_655 S
O1225 C1243 1.265 . S
O1226 Gd1187 2.353 1_655 S
O1226 C1243 1.242 . S
O1227 Gd1187 2.468 . S
O1227 C1251 1.263 . S
O1228 Gd1187 2.427 . S
O1228 C1251 1.252 . S
O1229 Gd1186 2.307 . S
O1229 C1244 1.261 . S
O1230 Gd1187 2.388 . S
O1230 C1244 1.252 . S
C1231 O1219 1.265 . S
C1231 O1220 1.242 . S
C1232 O1223 1.261 . S
C1232 O1224 1.252 . S
C1233 C1236 1.394 . S
C1233 C1238 1.370 . S
C1233 C1239 1.500 . S
C1234 C1237 1.383 . S
C1234 C1238 1.395 . S
C1235 C1236 1.396 . S
C1235 C1237 1.365 . S
C1235 H1252 0.929 . S
C1236 C1233 1.394 . S
C1236 C1235 1.396 . S
C1236 H1253 0.930 . S
C1237 C1234 1.383 . S
C1237 C1235 1.365 . S
C1237 H1254 0.931 . S
C1238 C1233 1.370 . S
C1238 C1234 1.395 . S
C1238 H1255 0.930 . S
C1239 Gd1186 2.805 . S
C1239 O1221 1.263 . S
C1239 O1222 1.252 . S
C1239 C1233 1.500 . S
C1240 H1202 0.930 . S
C1240 C1216 1.417 . S
C1240 C1241 1.329 . S
C1241 C1211 1.437 . S
C1241 H1212 0.929 . S
C1241 C1240 1.329 . S
H1242 C1215 0.931 . S
C1243 O1225 1.265 . S
C1243 O1226 1.242 . S
C1244 O1229 1.261 . S
C1244 O1230 1.252 . S
C1245 C1248 1.394 . S
C1245 C1250 1.370 . S
C1245 C1251 1.500 1_655 S
C1246 C1249 1.383 . S
C1246 C1250 1.395 . S
C1247 C1248 1.396 . S
C1247 C1249 1.365 . S
C1247 H1256 0.929 . S
C1248 C1245 1.394 . S
C1248 C1247 1.396 . S
C1248 H1257 0.930 . S
C1249 C1246 1.383 . S
C1249 C1247 1.365 . S
C1249 H1258 0.931 . S
C1250 C1245 1.370 . S
C1250 C1246 1.395 . S
C1250 H1259 0.930 . S
C1251 Gd1187 2.805 . S
C1251 O1227 1.263 . S
C1251 O1228 1.252 . S
C1251 C1245 1.500 1_455 S
H1252 C1235 0.929 . S
H1253 C1236 0.930 . S
H1254 C1237 0.931 . S
H1255 C1238 0.930 . S
H1256 C1247 0.929 . S
H1257 C1248 0.930 . S
H1258 C1249 0.931 . S
H1259 C1250 0.930 . S
C1260 C1262 1.422 . S
C1260 C1264 1.415 . S
C1260 N1266 1.369 . S
C1261 C1262 1.421 . S
C1261 C1263 1.417 . S
C1261 C1273 1.422 . S
C1262 C1260 1.422 . S
C1262 C1261 1.421 . S
C1262 N1272 1.359 . S
C1263 C1261 1.417 . S
C1263 C1265 1.329 . S
C1263 H1282 0.930 . S
C1264 C1260 1.415 . S
C1264 C1265 1.437 . S
C1264 C1268 1.413 . S
C1265 C1263 1.329 . S
C1265 C1264 1.437 . S
C1265 H1287 0.929 . S
N1266 C1260 1.369 . S
N1266 C1267 1.338 . S
N1266 Gd1271 2.622 . S
C1267 N1266 1.338 . S
C1267 C1269 1.378 . S
C1267 H1279 0.929 . S
C1268 C1264 1.413 . S
C1268 C1269 1.348 . S
C1268 H1284 0.931 . S
C1269 C1267 1.378 . S
C1269 C1268 1.348 . S
C1269 H1285 0.930 . S
Gd1270 N1290 2.622 . S
Gd1270 N1297 2.570 . S
Gd1270 O1304 2.353 . S
Gd1270 O1305 2.468 . S
Gd1270 O1306 2.427 . S
Gd1270 O1308 2.388 . S
Gd1270 O1309 2.386 . S
Gd1270 O1313 2.307 . S
Gd1270 C1323 2.805 . S
Gd1271 N1266 2.622 . S
Gd1271 N1272 2.570 . S
Gd1271 O1303 2.386 . S
Gd1271 O1307 2.307 . S
Gd1271 O1310 2.353 . S
Gd1271 O1311 2.468 . S
Gd1271 O1312 2.427 . S
Gd1271 O1314 2.388 . S
Gd1271 C1335 2.805 . S
N1272 C1262 1.359 . S
N1272 Gd1271 2.570 . S
N1272 C1274 1.343 . S
C1273 C1261 1.422 . S
C1273 C1275 1.321 . S
C1273 H1281 0.931 . S
C1274 N1272 1.343 . S
C1274 C1275 1.390 . S
C1274 H1276 0.931 . S
C1275 C1273 1.321 . S
C1275 C1274 1.390 . S
C1275 H1277 0.930 . S
H1276 C1274 0.931 . S
H1277 C1275 0.930 . S
H1278 C1301 0.931 . S
H1279 C1267 0.929 . S
H1280 C1302 0.930 . S
H1281 C1273 0.931 . S
H1282 C1263 0.930 . S
H1283 C1292 0.929 . S
H1284 C1268 0.931 . S
H1285 C1269 0.930 . S
H1286 C1324 0.930 . S
H1287 C1265 0.929 . S
H1288 C1293 0.931 . S
H1289 C1294 0.930 . S
N1290 Gd1270 2.622 . S
N1290 C1291 1.369 . S
N1290 C1292 1.338 . S
C1291 N1290 1.369 . S
C1291 C1295 1.415 . S
C1291 C1298 1.422 . S
C1292 H1283 0.929 . S
C1292 N1290 1.338 . S
C1292 C1294 1.378 . S
C1293 H1288 0.931 . S
C1293 C1294 1.348 . S
C1293 C1295 1.413 . S
C1294 H1289 0.930 . S
C1294 C1292 1.378 . S
C1294 C1293 1.348 . S
C1295 C1291 1.415 . S
C1295 C1293 1.413 . S
C1295 C1325 1.437 . S
H1296 C1325 0.929 . S
N1297 Gd1270 2.570 . S
N1297 C1298 1.359 . S
N1297 C1301 1.343 . S
C1298 C1291 1.422 . S
C1298 N1297 1.359 . S
C1298 C1300 1.421 . S
C1299 C1300 1.422 . S
C1299 C1302 1.321 . S
C1299 H1326 0.931 . S
C1300 C1298 1.421 . S
C1300 C1299 1.422 . S
C1300 C1324 1.417 . S
C1301 H1278 0.931 . S
C1301 N1297 1.343 . S
C1301 C1302 1.390 . S
C1302 H1280 0.930 . S
C1302 C1299 1.321 . S
C1302 C1301 1.390 . S
O1303 Gd1271 2.386 . S
O1303 C1315 1.265 . S
O1304 Gd1270 2.353 . S
O1304 C1315 1.242 . S
O1305 Gd1270 2.468 . S
O1305 C1323 1.263 . S
O1306 Gd1270 2.427 . S
O1306 C1323 1.252 . S
O1307 Gd1271 2.307 . S
O1307 C1316 1.261 . S
O1308 Gd1270 2.388 . S
O1308 C1316 1.252 . S
O1309 Gd1270 2.386 . S
O1309 C1327 1.265 . S
O1310 Gd1271 2.353 . S
O1310 C1327 1.242 . S
O1311 Gd1271 2.468 . S
O1311 C1335 1.263 . S
O1312 Gd1271 2.427 . S
O1312 C1335 1.252 . S
O1313 Gd1270 2.307 . S
O1313 C1328 1.261 . S
O1314 Gd1271 2.388 . S
O1314 C1328 1.252 . S
C1315 O1303 1.265 . S
C1315 O1304 1.242 . S
C1316 O1307 1.261 . S
C1316 O1308 1.252 . S
C1317 C1320 1.394 . S
C1317 C1322 1.370 . S
C1317 C1323 1.500 . S
C1318 C1321 1.383 . S
C1318 C1322 1.395 . S
C1319 C1320 1.396 . S
C1319 C1321 1.365 . S
C1319 H1336 0.929 . S
C1320 C1317 1.394 . S
C1320 C1319 1.396 . S
C1320 H1337 0.930 . S
C1321 C1318 1.383 . S
C1321 C1319 1.365 . S
C1321 H1338 0.931 . S
C1322 C1317 1.370 . S
C1322 C1318 1.395 . S
C1322 H1339 0.930 . S
C1323 Gd1270 2.805 . S
C1323 O1305 1.263 . S
C1323 O1306 1.252 . S
C1323 C1317 1.500 . S
C1324 H1286 0.930 . S
C1324 C1300 1.417 . S
C1324 C1325 1.329 . S
C1325 C1295 1.437 . S
C1325 H1296 0.929 . S
C1325 C1324 1.329 . S
H1326 C1299 0.931 . S
C1327 O1309 1.265 . S
C1327 O1310 1.242 . S
C1328 O1313 1.261 . S
C1328 O1314 1.252 . S
C1329 C1332 1.394 . S
C1329 C1334 1.370 . S
C1329 C1335 1.500 . S
C1330 C1333 1.383 . S
C1330 C1334 1.395 . S
C1331 C1332 1.396 . S
C1331 C1333 1.365 . S
C1331 H1340 0.929 . S
C1332 C1329 1.394 . S
C1332 C1331 1.396 . S
C1332 H1341 0.930 . S
C1333 C1330 1.383 . S
C1333 C1331 1.365 . S
C1333 H1342 0.931 . S
C1334 C1329 1.370 . S
C1334 C1330 1.395 . S
C1334 H1343 0.930 . S
C1335 Gd1271 2.805 . S
C1335 O1311 1.263 . S
C1335 O1312 1.252 . S
C1335 C1329 1.500 . S
H1336 C1319 0.929 . S
H1337 C1320 0.930 . S
H1338 C1321 0.931 . S
H1339 C1322 0.930 . S
H1340 C1331 0.929 . S
H1341 C1332 0.930 . S
H1342 C1333 0.931 . S
H1343 C1334 0.930 . S
C1344 C1346 1.422 . S
C1344 C1348 1.415 . S
C1344 N1350 1.369 . S
C1345 C1346 1.421 . S
C1345 C1347 1.417 . S
C1345 C1357 1.422 . S
C1346 C1344 1.422 . S
C1346 C1345 1.421 . S
C1346 N1356 1.359 . S
C1347 C1345 1.417 . S
C1347 C1349 1.329 . S
C1347 H1366 0.930 . S
C1348 C1344 1.415 . S
C1348 C1349 1.437 . S
C1348 C1352 1.413 . S
C1349 C1347 1.329 . S
C1349 C1348 1.437 . S
C1349 H1371 0.929 . S
N1350 C1344 1.369 . S
N1350 C1351 1.338 . S
N1350 Gd1355 2.622 . S
C1351 N1350 1.338 . S
C1351 C1353 1.378 . S
C1351 H1363 0.929 . S
C1352 C1348 1.413 . S
C1352 C1353 1.348 . S
C1352 H1368 0.931 . S
C1353 C1351 1.378 . S
C1353 C1352 1.348 . S
C1353 H1369 0.930 . S
Gd1354 N1374 2.622 . S
Gd1354 N1381 2.570 . S
Gd1354 O1388 2.353 . S
Gd1354 O1389 2.468 . S
Gd1354 O1390 2.427 . S
Gd1354 O1392 2.388 . S
Gd1354 O1393 2.386 . S
Gd1354 O1397 2.307 . S
Gd1354 C1407 2.805 . S
Gd1355 N1350 2.622 . S
Gd1355 N1356 2.570 . S
Gd1355 O1387 2.386 . S
Gd1355 O1391 2.307 . S
Gd1355 O1394 2.353 . S
Gd1355 O1395 2.468 . S
Gd1355 O1396 2.427 . S
Gd1355 O1398 2.388 . S
Gd1355 C1419 2.805 . S
N1356 C1346 1.359 . S
N1356 Gd1355 2.570 . S
N1356 C1358 1.343 . S
C1357 C1345 1.422 . S
C1357 C1359 1.321 . S
C1357 H1365 0.931 . S
C1358 N1356 1.343 . S
C1358 C1359 1.390 . S
C1358 H1360 0.931 . S
C1359 C1357 1.321 . S
C1359 C1358 1.390 . S
C1359 H1361 0.930 . S
H1360 C1358 0.931 . S
H1361 C1359 0.930 . S
H1362 C1385 0.931 . S
H1363 C1351 0.929 . S
H1364 C1386 0.930 . S
H1365 C1357 0.931 . S
H1366 C1347 0.930 . S
H1367 C1376 0.929 . S
H1368 C1352 0.931 . S
H1369 C1353 0.930 . S
H1370 C1408 0.930 . S
H1371 C1349 0.929 . S
H1372 C1377 0.931 . S
H1373 C1378 0.930 . S
N1374 Gd1354 2.622 . S
N1374 C1375 1.369 . S
N1374 C1376 1.338 . S
C1375 N1374 1.369 . S
C1375 C1379 1.415 . S
C1375 C1382 1.422 . S
C1376 H1367 0.929 . S
C1376 N1374 1.338 . S
C1376 C1378 1.378 . S
C1377 H1372 0.931 . S
C1377 C1378 1.348 . S
C1377 C1379 1.413 . S
C1378 H1373 0.930 . S
C1378 C1376 1.378 . S
C1378 C1377 1.348 . S
C1379 C1375 1.415 . S
C1379 C1377 1.413 . S
C1379 C1409 1.437 . S
H1380 C1409 0.929 . S
N1381 Gd1354 2.570 . S
N1381 C1382 1.359 . S
N1381 C1385 1.343 . S
C1382 C1375 1.422 . S
C1382 N1381 1.359 . S
C1382 C1384 1.421 . S
C1383 C1384 1.422 . S
C1383 C1386 1.321 . S
C1383 H1410 0.931 . S
C1384 C1382 1.421 . S
C1384 C1383 1.422 . S
C1384 C1408 1.417 . S
C1385 H1362 0.931 . S
C1385 N1381 1.343 . S
C1385 C1386 1.390 . S
C1386 H1364 0.930 . S
C1386 C1383 1.321 . S
C1386 C1385 1.390 . S
O1387 Gd1355 2.386 . S
O1387 C1399 1.265 . S
O1388 Gd1354 2.353 . S
O1388 C1399 1.242 . S
O1389 Gd1354 2.468 . S
O1389 C1407 1.263 . S
O1390 Gd1354 2.427 . S
O1390 C1407 1.252 . S
O1391 Gd1355 2.307 . S
O1391 C1400 1.261 . S
O1392 Gd1354 2.388 . S
O1392 C1400 1.252 . S
O1393 Gd1354 2.386 . S
O1393 C1411 1.265 . S
O1394 Gd1355 2.353 . S
O1394 C1411 1.242 . S
O1395 Gd1355 2.468 . S
O1395 C1419 1.263 . S
O1396 Gd1355 2.427 . S
O1396 C1419 1.252 . S
O1397 Gd1354 2.307 . S
O1397 C1412 1.261 . S
O1398 Gd1355 2.388 . S
O1398 C1412 1.252 . S
C1399 O1387 1.265 . S
C1399 O1388 1.242 . S
C1400 O1391 1.261 . S
C1400 O1392 1.252 . S
C1401 C1404 1.394 . S
C1401 C1406 1.370 . S
C1401 C1407 1.500 . S
C1402 C1405 1.383 . S
C1402 C1406 1.395 . S
C1403 C1404 1.396 . S
C1403 C1405 1.365 . S
C1403 H1420 0.929 . S
C1404 C1401 1.394 . S
C1404 C1403 1.396 . S
C1404 H1421 0.930 . S
C1405 C1402 1.383 . S
C1405 C1403 1.365 . S
C1405 H1422 0.931 . S
C1406 C1401 1.370 . S
C1406 C1402 1.395 . S
C1406 H1423 0.930 . S
C1407 Gd1354 2.805 . S
C1407 O1389 1.263 . S
C1407 O1390 1.252 . S
C1407 C1401 1.500 . S
C1408 H1370 0.930 . S
C1408 C1384 1.417 . S
C1408 C1409 1.329 . S
C1409 C1379 1.437 . S
C1409 H1380 0.929 . S
C1409 C1408 1.329 . S
H1410 C1383 0.931 . S
C1411 O1393 1.265 . S
C1411 O1394 1.242 . S
C1412 O1397 1.261 . S
C1412 O1398 1.252 . S
C1413 C1416 1.394 . S
C1413 C1418 1.370 . S
C1413 C1419 1.500 . S
C1414 C1417 1.383 . S
C1414 C1418 1.395 . S
C1415 C1416 1.396 . S
C1415 C1417 1.365 . S
C1415 H1424 0.929 . S
C1416 C1413 1.394 . S
C1416 C1415 1.396 . S
C1416 H1425 0.930 . S
C1417 C1414 1.383 . S
C1417 C1415 1.365 . S
C1417 H1426 0.931 . S
C1418 C1413 1.370 . S
C1418 C1414 1.395 . S
C1418 H1427 0.930 . S
C1419 Gd1355 2.805 . S
C1419 O1395 1.263 . S
C1419 O1396 1.252 . S
C1419 C1413 1.500 . S
H1420 C1403 0.929 . S
H1421 C1404 0.930 . S
H1422 C1405 0.931 . S
H1423 C1406 0.930 . S
H1424 C1415 0.929 . S
H1425 C1416 0.930 . S
H1426 C1417 0.931 . S
H1427 C1418 0.930 . S
C1428 C1430 1.422 . S
C1428 C1432 1.415 . S
C1428 N1434 1.369 . S
C1429 C1430 1.421 . S
C1429 C1431 1.417 . S
C1429 C1441 1.422 . S
C1430 C1428 1.422 . S
C1430 C1429 1.421 . S
C1430 N1440 1.359 . S
C1431 C1429 1.417 . S
C1431 C1433 1.329 . S
C1431 H1450 0.930 . S
C1432 C1428 1.415 . S
C1432 C1433 1.437 . S
C1432 C1436 1.413 . S
C1433 C1431 1.329 . S
C1433 C1432 1.437 . S
C1433 H1455 0.929 . S
N1434 C1428 1.369 . S
N1434 C1435 1.338 . S
N1434 Gd1439 2.622 . S
C1435 N1434 1.338 . S
C1435 C1437 1.378 . S
C1435 H1447 0.929 . S
C1436 C1432 1.413 . S
C1436 C1437 1.348 . S
C1436 H1452 0.931 . S
C1437 C1435 1.378 . S
C1437 C1436 1.348 . S
C1437 H1453 0.930 . S
Gd1438 N1458 2.622 . S
Gd1438 N1465 2.570 . S
Gd1438 O1472 2.353 . S
Gd1438 O1473 2.468 . S
Gd1438 O1474 2.427 . S
Gd1438 O1476 2.388 . S
Gd1438 O1477 2.386 . S
Gd1438 O1481 2.307 . S
Gd1438 C1491 2.805 . S
Gd1439 N1434 2.622 . S
Gd1439 N1440 2.570 . S
Gd1439 O1471 2.386 . S
Gd1439 O1475 2.307 . S
Gd1439 O1478 2.353 . S
Gd1439 O1479 2.468 . S
Gd1439 O1480 2.427 . S
Gd1439 O1482 2.388 . S
Gd1439 C1503 2.805 . S
N1440 C1430 1.359 . S
N1440 Gd1439 2.570 . S
N1440 C1442 1.343 . S
C1441 C1429 1.422 . S
C1441 C1443 1.321 . S
C1441 H1449 0.931 . S
C1442 N1440 1.343 . S
C1442 C1443 1.390 . S
C1442 H1444 0.931 . S
C1443 C1441 1.321 . S
C1443 C1442 1.390 . S
C1443 H1445 0.930 . S
H1444 C1442 0.931 . S
H1445 C1443 0.930 . S
H1446 C1469 0.931 . S
H1447 C1435 0.929 . S
H1448 C1470 0.930 . S
H1449 C1441 0.931 . S
H1450 C1431 0.930 . S
H1451 C1460 0.929 . S
H1452 C1436 0.931 . S
H1453 C1437 0.930 . S
H1454 C1492 0.930 . S
H1455 C1433 0.929 . S
H1456 C1461 0.931 . S
H1457 C1462 0.930 . S
N1458 Gd1438 2.622 . S
N1458 C1459 1.369 . S
N1458 C1460 1.338 . S
C1459 N1458 1.369 . S
C1459 C1463 1.415 . S
C1459 C1466 1.422 . S
C1460 H1451 0.929 . S
C1460 N1458 1.338 . S
C1460 C1462 1.378 . S
C1461 H1456 0.931 . S
C1461 C1462 1.348 . S
C1461 C1463 1.413 . S
C1462 H1457 0.930 . S
C1462 C1460 1.378 . S
C1462 C1461 1.348 . S
C1463 C1459 1.415 . S
C1463 C1461 1.413 . S
C1463 C1493 1.437 . S
H1464 C1493 0.929 . S
N1465 Gd1438 2.570 . S
N1465 C1466 1.359 . S
N1465 C1469 1.343 . S
C1466 C1459 1.422 . S
C1466 N1465 1.359 . S
C1466 C1468 1.421 . S
C1467 C1468 1.422 . S
C1467 C1470 1.321 . S
C1467 H1494 0.931 . S
C1468 C1466 1.421 . S
C1468 C1467 1.422 . S
C1468 C1492 1.417 . S
C1469 H1446 0.931 . S
C1469 N1465 1.343 . S
C1469 C1470 1.390 . S
C1470 H1448 0.930 . S
C1470 C1467 1.321 . S
C1470 C1469 1.390 . S
O1471 Gd1439 2.386 . S
O1471 C1483 1.265 . S
O1472 Gd1438 2.353 . S
O1472 C1483 1.242 . S
O1473 Gd1438 2.468 . S
O1473 C1491 1.263 . S
O1474 Gd1438 2.427 . S
O1474 C1491 1.252 . S
O1475 Gd1439 2.307 . S
O1475 C1484 1.261 . S
O1476 Gd1438 2.388 . S
O1476 C1484 1.252 . S
O1477 Gd1438 2.386 . S
O1477 C1495 1.265 . S
O1478 Gd1439 2.353 . S
O1478 C1495 1.242 . S
O1479 Gd1439 2.468 . S
O1479 C1503 1.263 . S
O1480 Gd1439 2.427 . S
O1480 C1503 1.252 . S
O1481 Gd1438 2.307 . S
O1481 C1496 1.261 . S
O1482 Gd1439 2.388 . S
O1482 C1496 1.252 . S
C1483 O1471 1.265 . S
C1483 O1472 1.242 . S
C1484 O1475 1.261 . S
C1484 O1476 1.252 . S
C1485 C1488 1.394 . S
C1485 C1490 1.370 . S
C1485 C1491 1.500 . S
C1486 C1489 1.383 . S
C1486 C1490 1.395 . S
C1487 C1488 1.396 . S
C1487 C1489 1.365 . S
C1487 H1504 0.929 . S
C1488 C1485 1.394 . S
C1488 C1487 1.396 . S
C1488 H1505 0.930 . S
C1489 C1486 1.383 . S
C1489 C1487 1.365 . S
C1489 H1506 0.931 . S
C1490 C1485 1.370 . S
C1490 C1486 1.395 . S
C1490 H1507 0.930 . S
C1491 Gd1438 2.805 . S
C1491 O1473 1.263 . S
C1491 O1474 1.252 . S
C1491 C1485 1.500 . S
C1492 H1454 0.930 . S
C1492 C1468 1.417 . S
C1492 C1493 1.329 . S
C1493 C1463 1.437 . S
C1493 H1464 0.929 . S
C1493 C1492 1.329 . S
H1494 C1467 0.931 . S
C1495 O1477 1.265 . S
C1495 O1478 1.242 . S
C1496 O1481 1.261 . S
C1496 O1482 1.252 . S
C1497 C1500 1.394 . S
C1497 C1502 1.370 . S
C1497 C1503 1.500 . S
C1498 C1501 1.383 . S
C1498 C1502 1.395 . S
C1499 C1500 1.396 . S
C1499 C1501 1.365 . S
C1499 H1508 0.929 . S
C1500 C1497 1.394 . S
C1500 C1499 1.396 . S
C1500 H1509 0.930 . S
C1501 C1498 1.383 . S
C1501 C1499 1.365 . S
C1501 H1510 0.931 . S
C1502 C1497 1.370 . S
C1502 C1498 1.395 . S
C1502 H1511 0.930 . S
C1503 Gd1439 2.805 . S
C1503 O1479 1.263 . S
C1503 O1480 1.252 . S
C1503 C1497 1.500 . S
H1504 C1487 0.929 . S
H1505 C1488 0.930 . S
H1506 C1489 0.931 . S
H1507 C1490 0.930 . S
H1508 C1499 0.929 . S
H1509 C1500 0.930 . S
H1510 C1501 0.931 . S
H1511 C1502 0.930 . S
C1512 C1514 1.422 . S
C1512 C1516 1.415 . S
C1512 N1518 1.369 . S
C1513 C1514 1.421 . S
C1513 C1515 1.417 . S
C1513 C1525 1.422 . S
C1514 C1512 1.422 . S
C1514 C1513 1.421 . S
C1514 N1524 1.359 . S
C1515 C1513 1.417 . S
C1515 C1517 1.329 . S
C1515 H1534 0.930 . S
C1516 C1512 1.415 . S
C1516 C1517 1.437 . S
C1516 C1520 1.413 . S
C1517 C1515 1.329 . S
C1517 C1516 1.437 . S
C1517 H1539 0.929 . S
N1518 C1512 1.369 . S
N1518 C1519 1.338 . S
N1518 Gd1523 2.622 . S
C1519 N1518 1.338 . S
C1519 C1521 1.378 . S
C1519 H1531 0.929 . S
C1520 C1516 1.413 . S
C1520 C1521 1.348 . S
C1520 H1536 0.931 . S
C1521 C1519 1.378 . S
C1521 C1520 1.348 . S
C1521 H1537 0.930 . S
Gd1522 N1542 2.622 . S
Gd1522 N1549 2.570 . S
Gd1522 O1556 2.353 . S
Gd1522 O1557 2.468 . S
Gd1522 O1558 2.427 . S
Gd1522 O1560 2.388 . S
Gd1522 O1561 2.386 . S
Gd1522 O1565 2.307 . S
Gd1522 C1575 2.805 . S
Gd1523 N1518 2.622 . S
Gd1523 N1524 2.570 . S
Gd1523 O1555 2.386 . S
Gd1523 O1559 2.307 . S
Gd1523 O1562 2.353 . S
Gd1523 O1563 2.468 . S
Gd1523 O1564 2.427 . S
Gd1523 O1566 2.388 . S
Gd1523 C1587 2.805 . S
N1524 C1514 1.359 . S
N1524 Gd1523 2.570 . S
N1524 C1526 1.343 . S
C1525 C1513 1.422 . S
C1525 C1527 1.321 . S
C1525 H1533 0.931 . S
C1526 N1524 1.343 . S
C1526 C1527 1.390 . S
C1526 H1528 0.931 . S
C1527 C1525 1.321 . S
C1527 C1526 1.390 . S
C1527 H1529 0.930 . S
H1528 C1526 0.931 . S
H1529 C1527 0.930 . S
H1530 C1553 0.931 . S
H1531 C1519 0.929 . S
H1532 C1554 0.930 . S
H1533 C1525 0.931 . S
H1534 C1515 0.930 . S
H1535 C1544 0.929 . S
H1536 C1520 0.931 . S
H1537 C1521 0.930 . S
H1538 C1576 0.930 . S
H1539 C1517 0.929 . S
H1540 C1545 0.931 . S
H1541 C1546 0.930 . S
N1542 Gd1522 2.622 . S
N1542 C1543 1.369 . S
N1542 C1544 1.338 . S
C1543 N1542 1.369 . S
C1543 C1547 1.415 . S
C1543 C1550 1.422 . S
C1544 H1535 0.929 . S
C1544 N1542 1.338 . S
C1544 C1546 1.378 . S
C1545 H1540 0.931 . S
C1545 C1546 1.348 . S
C1545 C1547 1.413 . S
C1546 H1541 0.930 . S
C1546 C1544 1.378 . S
C1546 C1545 1.348 . S
C1547 C1543 1.415 . S
C1547 C1545 1.413 . S
C1547 C1577 1.437 . S
H1548 C1577 0.929 . S
N1549 Gd1522 2.570 . S
N1549 C1550 1.359 . S
N1549 C1553 1.343 . S
C1550 C1543 1.422 . S
C1550 N1549 1.359 . S
C1550 C1552 1.421 . S
C1551 C1552 1.422 . S
C1551 C1554 1.321 . S
C1551 H1578 0.931 . S
C1552 C1550 1.421 . S
C1552 C1551 1.422 . S
C1552 C1576 1.417 . S
C1553 H1530 0.931 . S
C1553 N1549 1.343 . S
C1553 C1554 1.390 . S
C1554 H1532 0.930 . S
C1554 C1551 1.321 . S
C1554 C1553 1.390 . S
O1555 Gd1523 2.386 . S
O1555 C1567 1.265 . S
O1556 Gd1522 2.353 . S
O1556 C1567 1.242 . S
O1557 Gd1522 2.468 . S
O1557 C1575 1.263 . S
O1558 Gd1522 2.427 . S
O1558 C1575 1.252 . S
O1559 Gd1523 2.307 . S
O1559 C1568 1.261 . S
O1560 Gd1522 2.388 . S
O1560 C1568 1.252 . S
O1561 Gd1522 2.386 . S
O1561 C1579 1.265 . S
O1562 Gd1523 2.353 . S
O1562 C1579 1.242 . S
O1563 Gd1523 2.468 . S
O1563 C1587 1.263 . S
O1564 Gd1523 2.427 . S
O1564 C1587 1.252 . S
O1565 Gd1522 2.307 . S
O1565 C1580 1.261 . S
O1566 Gd1523 2.388 . S
O1566 C1580 1.252 . S
C1567 O1555 1.265 . S
C1567 O1556 1.242 . S
C1568 O1559 1.261 . S
C1568 O1560 1.252 . S
C1569 C1572 1.394 . S
C1569 C1574 1.370 . S
C1569 C1575 1.500 . S
C1570 C1573 1.383 . S
C1570 C1574 1.395 . S
C1571 C1572 1.396 . S
C1571 C1573 1.365 . S
C1571 H1588 0.929 . S
C1572 C1569 1.394 . S
C1572 C1571 1.396 . S
C1572 H1589 0.930 . S
C1573 C1570 1.383 . S
C1573 C1571 1.365 . S
C1573 H1590 0.931 . S
C1574 C1569 1.370 . S
C1574 C1570 1.395 . S
C1574 H1591 0.930 . S
C1575 Gd1522 2.805 . S
C1575 O1557 1.263 . S
C1575 O1558 1.252 . S
C1575 C1569 1.500 . S
C1576 H1538 0.930 . S
C1576 C1552 1.417 . S
C1576 C1577 1.329 . S
C1577 C1547 1.437 . S
C1577 H1548 0.929 . S
C1577 C1576 1.329 . S
H1578 C1551 0.931 . S
C1579 O1561 1.265 . S
C1579 O1562 1.242 . S
C1580 O1565 1.261 . S
C1580 O1566 1.252 . S
C1581 C1584 1.394 . S
C1581 C1586 1.370 . S
C1581 C1587 1.500 . S
C1582 C1585 1.383 . S
C1582 C1586 1.395 . S
C1583 C1584 1.396 . S
C1583 C1585 1.365 . S
C1583 H1592 0.929 . S
C1584 C1581 1.394 . S
C1584 C1583 1.396 . S
C1584 H1593 0.930 . S
C1585 C1582 1.383 . S
C1585 C1583 1.365 . S
C1585 H1594 0.931 . S
C1586 C1581 1.370 . S
C1586 C1582 1.395 . S
C1586 H1595 0.930 . S
C1587 Gd1523 2.805 . S
C1587 O1563 1.263 . S
C1587 O1564 1.252 . S
C1587 C1581 1.500 . S
H1588 C1571 0.929 . S
H1589 C1572 0.930 . S
H1590 C1573 0.931 . S
H1591 C1574 0.930 . S
H1592 C1583 0.929 . S
H1593 C1584 0.930 . S
H1594 C1585 0.931 . S
H1595 C1586 0.930 . S
C1596 C1598 1.422 1_556 S
C1596 C1600 1.415 . S
C1596 N1602 1.369 . S
C1597 C1598 1.421 . S
C1597 C1599 1.417 . S
C1597 C1609 1.422 . S
C1598 C1596 1.422 1_554 S
C1598 C1597 1.421 . S
C1598 N1608 1.359 . S
C1599 C1597 1.417 . S
C1599 C1601 1.329 1_554 S
C1599 H1618 0.930 . S
C1600 C1596 1.415 . S
C1600 C1601 1.437 . S
C1600 C1604 1.413 . S
C1601 C1599 1.329 1_556 S
C1601 C1600 1.437 . S
C1601 H1623 0.929 . S
N1602 C1596 1.369 . S
N1602 C1603 1.338 . S
N1602 Gd1607 2.622 1_556 S
C1603 N1602 1.338 . S
C1603 C1605 1.378 . S
C1603 H1615 0.929 . S
C1604 C1600 1.413 . S
C1604 C1605 1.348 . S
C1604 H1620 0.931 . S
C1605 C1603 1.378 . S
C1605 C1604 1.348 . S
C1605 H1621 0.930 . S
Gd1606 N1626 2.609 1_455 S
Gd1606 N1633 2.538 1_455 S
Gd1606 O1640 2.368 . S
Gd1606 O1641 2.425 1_455 S
Gd1606 O1642 2.392 1_455 S
Gd1606 O1644 2.423 . S
Gd1606 O1645 2.414 . S
Gd1606 O1649 2.317 . S
Gd1606 C1659 2.761 1_455 S
Gd1607 N1602 2.622 1_554 S
Gd1607 N1608 2.570 . S
Gd1607 O1639 2.386 . S
Gd1607 O1643 2.307 . S
Gd1607 O1646 2.353 . S
Gd1607 O1647 2.468 . S
Gd1607 O1648 2.427 1_554 S
Gd1607 O1650 2.388 1_554 S
Gd1607 C1671 2.805 . S
N1608 C1598 1.359 . S
N1608 Gd1607 2.570 . S
N1608 C1610 1.343 . S
C1609 C1597 1.422 . S
C1609 C1611 1.321 . S
C1609 H1617 0.931 . S
C1610 N1608 1.343 . S
C1610 C1611 1.390 . S
C1610 H1612 0.931 . S
C1611 C1609 1.321 . S
C1611 C1610 1.390 . S
C1611 H1613 0.930 . S
H1612 C1610 0.931 . S
H1613 C1611 0.930 . S
H1614 C1637 0.931 . S
H1615 C1603 0.929 . S
H1616 C1638 0.930 1_556 S
H1617 C1609 0.931 . S
H1618 C1599 0.930 . S
H1619 C1628 0.929 1_455 S
H1620 C1604 0.931 . S
H1621 C1605 0.930 . S
H1622 C1660 0.930 . S
H1623 C1601 0.929 . S
H1624 C1629 0.931 . S
H1625 C1630 0.925 1_455 S
N1626 Gd1606 2.609 1_655 S
N1626 C1627 1.369 . S
N1626 C1628 1.338 . S
C1627 N1626 1.369 . S
C1627 C1631 1.415 . S
C1627 C1634 1.422 . S
C1628 H1619 0.929 1_655 S
C1628 N1626 1.338 . S
C1628 C1630 1.378 . S
C1629 H1624 0.931 . S
C1629 C1630 1.348 . S
C1629 C1631 1.413 . S
C1630 H1625 0.925 1_655 S
C1630 C1628 1.378 . S
C1630 C1629 1.348 . S
C1631 C1627 1.415 . S
C1631 C1629 1.413 . S
C1631 C1661 1.437 . S
H1632 C1661 0.929 . S
N1633 Gd1606 2.538 1_655 S
N1633 C1634 1.359 . S
N1633 C1637 1.343 . S
C1634 C1627 1.422 . S
C1634 N1633 1.359 . S
C1634 C1636 1.421 . S
C1635 C1636 1.422 . S
C1635 C1638 1.321 . S
C1635 H1662 0.931 . S
C1636 C1634 1.421 . S
C1636 C1635 1.422 . S
C1636 C1660 1.417 . S
C1637 H1614 0.931 . S
C1637 N1633 1.343 . S
C1637 C1638 1.390 . S
C1638 H1616 0.930 1_554 S
C1638 C1635 1.321 . S
C1638 C1637 1.390 . S
O1639 Gd1607 2.386 . S
O1639 C1651 1.265 . S
O1640 Gd1606 2.368 . S
O1640 C1651 1.242 . S
O1641 Gd1606 2.425 1_655 S
O1641 C1659 1.263 . S
O1642 Gd1606 2.392 1_655 S
O1642 C1659 1.252 . S
O1643 Gd1607 2.307 . S
O1643 C1652 1.261 . S
O1644 Gd1606 2.423 . S
O1644 C1652 1.252 . S
O1645 Gd1606 2.414 . S
O1645 C1663 1.265 . S
O1646 Gd1607 2.353 . S
O1646 C1663 1.242 . S
O1647 Gd1607 2.468 . S
O1647 C1671 1.263 . S
O1648 Gd1607 2.427 1_556 S
O1648 C1671 1.252 1_556 S
O1649 Gd1606 2.317 . S
O1649 C1664 1.261 1_554 S
O1650 Gd1607 2.388 1_556 S
O1650 C1664 1.252 . S
C1651 O1639 1.265 . S
C1651 O1640 1.242 . S
C1652 O1643 1.261 . S
C1652 O1644 1.252 . S
C1653 C1656 1.394 . S
C1653 C1658 1.370 . S
C1653 C1659 1.500 . S
C1654 C1657 1.383 . S
C1654 C1658 1.395 . S
C1655 C1656 1.396 . S
C1655 C1657 1.365 . S
C1655 H1672 0.929 . S
C1656 C1653 1.394 . S
C1656 C1655 1.396 . S
C1656 H1673 0.930 . S
C1657 C1654 1.383 . S
C1657 C1655 1.365 . S
C1657 H1674 0.931 . S
C1658 C1653 1.370 . S
C1658 C1654 1.395 . S
C1658 H1675 0.930 . S
C1659 Gd1606 2.761 1_655 S
C1659 O1641 1.263 . S
C1659 O1642 1.252 . S
C1659 C1653 1.500 . S
C1660 H1622 0.930 . S
C1660 C1636 1.417 . S
C1660 C1661 1.329 . S
C1661 C1631 1.437 . S
C1661 H1632 0.929 . S
C1661 C1660 1.329 . S
H1662 C1635 0.931 . S
C1663 O1645 1.265 . S
C1663 O1646 1.242 . S
C1664 O1649 1.261 1_556 S
C1664 O1650 1.252 . S
C1665 C1668 1.398 . S
C1665 C1670 1.367 1_556 S
C1665 C1671 1.499 1_556 S
C1666 C1669 1.383 1_554 S
C1666 C1670 1.395 . S
C1667 C1668 1.396 . S
C1667 C1669 1.365 . S
C1667 H1676 0.929 . S
C1668 C1665 1.398 . S
C1668 C1667 1.396 . S
C1668 H1677 0.930 . S
C1669 C1666 1.383 1_556 S
C1669 C1667 1.365 . S
C1669 H1678 0.931 . S
C1670 C1665 1.367 1_554 S
C1670 C1666 1.395 . S
C1670 H1679 0.930 . S
C1671 Gd1607 2.805 . S
C1671 O1647 1.263 . S
C1671 O1648 1.252 1_554 S
C1671 C1665 1.499 1_554 S
H1672 C1655 0.929 . S
H1673 C1656 0.930 . S
H1674 C1657 0.931 . S
H1675 C1658 0.930 . S
H1676 C1667 0.929 . S
H1677 C1668 0.930 . S
H1678 C1669 0.931 . S
H1679 C1670 0.930 . S
H1680 C1686 0.922 1_554 S
H1681 C1690 0.930 . S
H1682 C1695 0.929 . S
H1683 C1693 0.929 . S
H1684 C1688 0.929 . S
H1685 C1694 0.929 . S
C1686 H1680 0.922 1_556 S
C1686 C1687 1.382 1_655 S
C1686 C1694 1.371 1_556 S
C1687 C1686 1.382 1_455 S
C1687 C1695 1.433 . S
C1688 H1684 0.929 . S
C1688 C1690 1.378 . S
C1688 C1692 1.350 1_556 S
C1689 C1692 1.463 1_556 S
C1689 C1694 1.350 1_456 S
C1689 N1697 1.427 . S
C1690 H1681 0.930 . S
C1690 C1688 1.378 . S
C1690 C1691 1.367 1_556 S
C1691 C1690 1.367 1_554 S
C1691 C1693 1.433 . S
C1692 C1688 1.350 1_554 S
C1692 C1689 1.463 1_554 S
C1692 N1696 1.427 . S
C1693 H1683 0.929 . S
C1693 C1691 1.433 . S
C1693 N1696 1.384 . S
C1694 H1685 0.929 . S
C1694 C1686 1.371 1_554 S
C1694 C1689 1.350 1_654 S
C1695 H1682 0.929 . S
C1695 C1687 1.433 . S
C1695 N1697 1.384 . S
N1696 C1692 1.427 . S
N1696 C1693 1.384 . S
N1697 C1689 1.427 . S
N1697 C1695 1.384 . S
H1698 C1704 0.930 . S
H1699 C1708 0.930 . S
H1700 C1713 0.929 . S
H1701 C1711 0.929 . S
H1702 C1706 0.929 . S
H1703 C1712 0.929 . S
C1704 H1698 0.930 . S
C1704 C1705 1.367 . S
C1704 C1712 1.378 . S
C1705 C1704 1.367 . S
C1705 C1713 1.433 . S
C1706 H1702 0.929 . S
C1706 C1708 1.378 . S
C1706 C1710 1.350 . S
C1707 C1710 1.463 . S
C1707 C1712 1.350 . S
C1707 N1715 1.427 . S
C1708 H1699 0.930 . S
C1708 C1706 1.378 . S
C1708 C1709 1.367 . S
C1709 C1708 1.367 . S
C1709 C1711 1.433 . S
C1710 C1706 1.350 . S
C1710 C1707 1.463 . S
C1710 N1714 1.427 . S
C1711 H1701 0.929 . S
C1711 C1709 1.433 . S
C1711 N1714 1.384 . S
C1712 H1703 0.929 . S
C1712 C1704 1.378 . S
C1712 C1707 1.350 . S
C1713 H1700 0.929 . S
C1713 C1705 1.433 . S
C1713 N1715 1.384 . S
N1714 C1710 1.427 . S
N1714 C1711 1.384 . S
N1715 C1707 1.427 . S
N1715 C1713 1.384 . S
H1716 C1722 0.930 . S
H1717 C1726 0.930 . S
H1718 C1731 0.929 . S
H1719 C1729 0.929 . S
H1720 C1724 0.929 . S
H1721 C1730 0.929 . S
C1722 H1716 0.930 . S
C1722 C1723 1.367 . S
C1722 C1730 1.378 . S
C1723 C1722 1.367 . S
C1723 C1731 1.433 . S
C1724 H1720 0.929 . S
C1724 C1726 1.378 . S
C1724 C1728 1.350 . S
C1725 C1728 1.463 . S
C1725 C1730 1.350 . S
C1725 N1733 1.427 . S
C1726 H1717 0.930 . S
C1726 C1724 1.378 . S
C1726 C1727 1.367 . S
C1727 C1726 1.367 . S
C1727 C1729 1.433 . S
C1728 C1724 1.350 . S
C1728 C1725 1.463 . S
C1728 N1732 1.427 . S
C1729 H1719 0.929 . S
C1729 C1727 1.433 . S
C1729 N1732 1.384 . S
C1730 H1721 0.929 . S
C1730 C1722 1.378 . S
C1730 C1725 1.350 . S
C1731 H1718 0.929 . S
C1731 C1723 1.433 . S
C1731 N1733 1.384 . S
N1732 C1728 1.427 . S
N1732 C1729 1.384 . S
N1733 C1725 1.427 . S
N1733 C1731 1.384 . S
H1734 C1740 0.930 . S
H1735 C1744 0.930 . S
H1736 C1749 0.929 . S
H1737 C1747 0.929 . S
H1738 C1742 0.929 . S
H1739 C1748 0.929 . S
C1740 H1734 0.930 . S
C1740 C1741 1.367 . S
C1740 C1748 1.378 . S
C1741 C1740 1.367 . S
C1741 C1749 1.433 . S
C1742 H1738 0.929 . S
C1742 C1744 1.378 . S
C1742 C1746 1.350 . S
C1743 C1746 1.463 . S
C1743 C1748 1.350 . S
C1743 N1751 1.427 . S
C1744 H1735 0.930 . S
C1744 C1742 1.378 . S
C1744 C1745 1.367 . S
C1745 C1744 1.367 . S
C1745 C1747 1.433 . S
C1746 C1742 1.350 . S
C1746 C1743 1.463 . S
C1746 N1750 1.427 . S
C1747 H1737 0.929 . S
C1747 C1745 1.433 . S
C1747 N1750 1.384 . S
C1748 H1739 0.929 . S
C1748 C1740 1.378 . S
C1748 C1743 1.350 . S
C1749 H1736 0.929 . S
C1749 C1741 1.433 . S
C1749 N1751 1.384 . S
N1750 C1746 1.427 . S
N1750 C1747 1.384 . S
N1751 C1743 1.427 . S
N1751 C1749 1.384 . S
H1752 C1758 0.930 1_655 S
H1753 C1762 0.930 . S
H1754 C1767 0.929 . S
H1755 C1765 0.897 1_655 S
H1756 C1760 0.929 . S
H1757 C1766 0.929 1_655 S
C1758 H1752 0.930 1_455 S
C1758 C1759 1.367 . S
C1758 C1766 1.378 . S
C1759 C1758 1.367 . S
C1759 C1767 1.433 . S
C1760 H1756 0.929 . S
C1760 C1762 1.378 . S
C1760 C1764 1.350 . S
C1761 C1764 1.463 . S
C1761 C1766 1.350 . S
C1761 N1769 1.427 . S
C1762 H1753 0.930 . S
C1762 C1760 1.378 . S
C1762 C1763 1.367 . S
C1763 C1762 1.367 . S
C1763 C1765 1.433 . S
C1764 C1760 1.350 . S
C1764 C1761 1.463 . S
C1764 N1768 1.427 . S
C1765 H1755 0.897 1_455 S
C1765 C1763 1.433 . S
C1765 N1768 1.384 . S
C1766 H1757 0.929 1_455 S
C1766 C1758 1.378 . S
C1766 C1761 1.350 . S
C1767 H1754 0.929 . S
C1767 C1759 1.433 . S
C1767 N1769 1.384 . S
N1768 C1764 1.427 . S
N1768 C1765 1.384 . S
N1769 C1761 1.427 . S
N1769 C1767 1.384 . S
H1770 C1776 0.930 . S
H1771 C1780 0.930 . S
H1772 C1785 0.929 . S
H1773 C1783 0.929 . S
H1774 C1778 0.929 . S
H1775 C1784 0.929 . S
C1776 H1770 0.930 . S
C1776 C1777 1.367 . S
C1776 C1784 1.378 . S
C1777 C1776 1.367 . S
C1777 C1785 1.433 . S
C1778 H1774 0.929 . S
C1778 C1780 1.378 . S
C1778 C1782 1.350 . S
C1779 C1782 1.463 . S
C1779 C1784 1.350 . S
C1779 N1787 1.427 . S
C1780 H1771 0.930 . S
C1780 C1778 1.378 . S
C1780 C1781 1.367 . S
C1781 C1780 1.367 . S
C1781 C1783 1.433 . S
C1782 C1778 1.350 . S
C1782 C1779 1.463 . S
C1782 N1786 1.427 . S
C1783 H1773 0.929 . S
C1783 C1781 1.433 . S
C1783 N1786 1.384 . S
C1784 H1775 0.929 . S
C1784 C1776 1.378 . S
C1784 C1779 1.350 . S
C1785 H1772 0.929 . S
C1785 C1777 1.433 . S
C1785 N1787 1.384 . S
N1786 C1782 1.427 . S
N1786 C1783 1.384 . S
N1787 C1779 1.427 . S
N1787 C1785 1.384 . S
H1788 C1794 0.930 . S
H1789 C1798 0.930 . S
H1790 C1803 0.929 . S
H1791 C1801 0.929 . S
H1792 C1796 0.929 . S
H1793 C1802 0.929 . S
C1794 H1788 0.930 . S
C1794 C1795 1.367 . S
C1794 C1802 1.378 . S
C1795 C1794 1.367 . S
C1795 C1803 1.433 . S
C1796 H1792 0.929 . S
C1796 C1798 1.378 . S
C1796 C1800 1.350 . S
C1797 C1800 1.463 . S
C1797 C1802 1.350 . S
C1797 N1805 1.427 . S
C1798 H1789 0.930 . S
C1798 C1796 1.378 . S
C1798 C1799 1.367 . S
C1799 C1798 1.367 . S
C1799 C1801 1.433 . S
C1800 C1796 1.350 . S
C1800 C1797 1.463 . S
C1800 N1804 1.427 . S
C1801 H1791 0.929 . S
C1801 C1799 1.433 . S
C1801 N1804 1.384 . S
C1802 H1793 0.929 . S
C1802 C1794 1.378 . S
C1802 C1797 1.350 . S
C1803 H1790 0.929 . S
C1803 C1795 1.433 . S
C1803 N1805 1.384 . S
N1804 C1800 1.427 . S
N1804 C1801 1.384 . S
N1805 C1797 1.427 . S
N1805 C1803 1.384 . S
H1806 C1812 0.930 . S
H1807 C1816 0.930 . S
H1808 C1821 0.929 . S
H1809 C1819 0.929 . S
H1810 C1814 0.929 . S
H1811 C1820 0.929 . S
C1812 H1806 0.930 . S
C1812 C1813 1.367 . S
C1812 C1820 1.378 . S
C1813 C1812 1.367 . S
C1813 C1821 1.433 . S
C1814 H1810 0.929 . S
C1814 C1816 1.378 . S
C1814 C1818 1.350 . S
C1815 C1818 1.463 . S
C1815 C1820 1.350 . S
C1815 N1823 1.427 . S
C1816 H1807 0.930 . S
C1816 C1814 1.378 . S
C1816 C1817 1.367 . S
C1817 C1816 1.367 . S
C1817 C1819 1.433 . S
C1818 C1814 1.350 . S
C1818 C1815 1.463 . S
C1818 N1822 1.427 . S
C1819 H1809 0.929 . S
C1819 C1817 1.433 . S
C1819 N1822 1.384 . S
C1820 H1811 0.929 . S
C1820 C1812 1.378 . S
C1820 C1815 1.350 . S
C1821 H1808 0.929 . S
C1821 C1813 1.433 . S
C1821 N1823 1.384 . S
N1822 C1818 1.427 . S
N1822 C1819 1.384 . S
N1823 C1815 1.427 . S
N1823 C1821 1.384 . S
H1824 C1830 0.930 . S
H1825 C1834 0.930 . S
H1826 C1839 0.923 1_565 S
H1827 C1837 0.929 . S
H1828 C1832 0.929 . S
H1829 C1838 0.929 1_455 S
C1830 H1824 0.930 . S
C1830 C1831 1.367 . S
C1830 C1838 1.378 . S
C1831 C1830 1.367 . S
C1831 C1839 1.433 . S
C1832 H1828 0.929 . S
C1832 C1834 1.378 . S
C1832 C1836 1.350 . S
C1833 C1836 1.463 . S
C1833 C1838 1.350 . S
C1833 N1841 1.427 . S
C1834 H1825 0.930 . S
C1834 C1832 1.378 . S
C1834 C1835 1.367 1_655 S
C1835 C1834 1.367 1_455 S
C1835 C1837 1.433 . S
C1836 C1832 1.350 . S
C1836 C1833 1.463 . S
C1836 N1840 1.427 1_655 S
C1837 H1827 0.929 . S
C1837 C1835 1.433 . S
C1837 N1840 1.384 . S
C1838 H1829 0.929 1_655 S
C1838 C1830 1.378 . S
C1838 C1833 1.350 . S
C1839 H1826 0.923 1_545 S
C1839 C1831 1.433 . S
C1839 N1841 1.384 . S
N1840 C1836 1.427 1_455 S
N1840 C1837 1.384 . S
N1841 C1833 1.427 . S
N1841 C1839 1.384 . S
H1842 C1848 0.930 . S
H1843 C1852 0.930 . S
H1844 C1857 0.929 . S
H1845 C1855 0.929 . S
H1846 C1850 0.929 . S
H1847 C1856 0.929 . S
C1848 H1842 0.930 . S
C1848 C1849 1.367 . S
C1848 C1856 1.378 . S
C1849 C1848 1.367 . S
C1849 C1857 1.433 . S
C1850 H1846 0.929 . S
C1850 C1852 1.378 . S
C1850 C1854 1.350 . S
C1851 C1854 1.463 . S
C1851 C1856 1.350 . S
C1851 N1859 1.427 . S
C1852 H1843 0.930 . S
C1852 C1850 1.378 . S
C1852 C1853 1.367 . S
C1853 C1852 1.367 . S
C1853 C1855 1.433 . S
C1854 C1850 1.350 . S
C1854 C1851 1.463 . S
C1854 N1858 1.427 . S
C1855 H1845 0.929 . S
C1855 C1853 1.433 . S
C1855 N1858 1.384 . S
C1856 H1847 0.929 . S
C1856 C1848 1.378 . S
C1856 C1851 1.350 . S
C1857 H1844 0.929 . S
C1857 C1849 1.433 . S
C1857 N1859 1.384 . S
N1858 C1854 1.427 . S
N1858 C1855 1.384 . S
N1859 C1851 1.427 . S
N1859 C1857 1.384 . S
H1860 C1866 0.930 . S
H1861 C1870 0.930 . S
H1862 C1875 0.929 . S
H1863 C1873 0.929 1_565 S
H1864 C1868 0.929 . S
H1865 C1874 0.929 . S
C1866 H1860 0.930 . S
C1866 C1867 1.367 . S
C1866 C1874 1.378 . S
C1867 C1866 1.367 . S
C1867 C1875 1.433 . S
C1868 H1864 0.929 . S
C1868 C1870 1.378 . S
C1868 C1872 1.350 . S
C1869 C1872 1.463 . S
C1869 C1874 1.350 . S
C1869 N1877 1.427 . S
C1870 H1861 0.930 . S
C1870 C1868 1.378 . S
C1870 C1871 1.367 . S
C1871 C1870 1.367 . S
C1871 C1873 1.433 . S
C1872 C1868 1.350 . S
C1872 C1869 1.463 . S
C1872 N1876 1.427 . S
C1873 H1863 0.929 1_545 S
C1873 C1871 1.433 . S
C1873 N1876 1.384 . S
C1874 H1865 0.929 . S
C1874 C1866 1.378 . S
C1874 C1869 1.350 . S
C1875 H1862 0.929 . S
C1875 C1867 1.433 . S
C1875 N1877 1.384 . S
N1876 C1872 1.427 . S
N1876 C1873 1.384 . S
N1877 C1869 1.427 . S
N1877 C1875 1.384 . S
H1878 C1884 0.930 . S
H1879 C1888 0.930 . S
H1880 C1893 0.929 . S
H1881 C1891 0.929 . S
H1882 C1886 0.929 . S
H1883 C1892 0.929 . S
C1884 H1878 0.930 . S
C1884 C1885 1.367 . S
C1884 C1892 1.378 . S
C1885 C1884 1.367 . S
C1885 C1893 1.433 . S
C1886 H1882 0.929 . S
C1886 C1888 1.378 . S
C1886 C1890 1.350 . S
C1887 C1890 1.463 . S
C1887 C1892 1.350 . S
C1887 N1895 1.427 . S
C1888 H1879 0.930 . S
C1888 C1886 1.378 . S
C1888 C1889 1.367 . S
C1889 C1888 1.367 . S
C1889 C1891 1.433 . S
C1890 C1886 1.350 . S
C1890 C1887 1.463 . S
C1890 N1894 1.427 . S
C1891 H1881 0.929 . S
C1891 C1889 1.433 . S
C1891 N1894 1.384 . S
C1892 H1883 0.929 . S
C1892 C1884 1.378 . S
C1892 C1887 1.350 . S
C1893 H1880 0.929 . S
C1893 C1885 1.433 . S
C1893 N1895 1.384 . S
N1894 C1890 1.427 . S
N1894 C1891 1.384 . S
N1895 C1887 1.427 . S
N1895 C1893 1.384 . S
H1896 C1902 0.930 . S
H1897 C1906 0.930 1_565 S
H1898 C1911 0.948 . S
H1899 C1909 0.929 . S
H1900 C1904 0.929 1_565 S
H1901 C1910 0.929 . S
C1902 H1896 0.930 . S
C1902 C1903 1.367 . S
C1902 C1910 1.378 . S
C1903 C1902 1.367 . S
C1903 C1911 1.410 1_545 S
C1904 H1900 0.929 1_545 S
C1904 C1906 1.378 . S
C1904 C1908 1.350 . S
C1905 C1908 1.463 . S
C1905 C1910 1.350 . S
C1905 N1913 1.451 . S
C1906 H1897 0.930 1_545 S
C1906 C1904 1.378 . S
C1906 C1907 1.367 1_655 S
C1907 C1906 1.367 1_455 S
C1907 C1909 1.433 . S
C1908 C1904 1.350 . S
C1908 C1905 1.463 . S
C1908 N1912 1.427 1_655 S
C1909 H1899 0.929 . S
C1909 C1907 1.433 . S
C1909 N1912 1.384 . S
C1910 H1901 0.929 . S
C1910 C1902 1.378 . S
C1910 C1905 1.350 . S
C1911 H1898 0.948 . S
C1911 C1903 1.410 1_565 S
C1911 N1913 1.394 1_565 S
N1912 C1908 1.427 1_455 S
N1912 C1909 1.384 . S
N1913 C1905 1.451 . S
N1913 C1911 1.394 1_545 S
H1914 C1920 0.930 . S
H1915 C1924 0.930 . S
H1916 C1929 0.929 . S
H1917 C1927 0.929 . S
H1918 C1922 0.929 . S
H1919 C1928 0.929 . S
C1920 H1914 0.930 . S
C1920 C1921 1.367 . S
C1920 C1928 1.378 . S
C1921 C1920 1.367 . S
C1921 C1929 1.433 . S
C1922 H1918 0.929 . S
C1922 C1924 1.378 . S
C1922 C1926 1.350 . S
C1923 C1926 1.463 . S
C1923 C1928 1.350 . S
C1923 N1931 1.427 . S
C1924 H1915 0.930 . S
C1924 C1922 1.378 . S
C1924 C1925 1.367 . S
C1925 C1924 1.367 . S
C1925 C1927 1.433 . S
C1926 C1922 1.350 . S
C1926 C1923 1.463 . S
C1926 N1930 1.427 . S
C1927 H1917 0.929 . S
C1927 C1925 1.433 . S
C1927 N1930 1.384 . S
C1928 H1919 0.929 . S
C1928 C1920 1.378 . S
C1928 C1923 1.350 . S
C1929 H1916 0.929 . S
C1929 C1921 1.433 . S
C1929 N1931 1.384 . S
N1930 C1926 1.427 . S
N1930 C1927 1.384 . S
N1931 C1923 1.427 . S
N1931 C1929 1.384 . S
H1932 C1938 0.930 . S
H1933 C1942 0.930 . S
H1934 C1947 0.929 . S
H1935 C1945 0.929 . S
H1936 C1940 0.929 . S
H1937 C1946 0.929 . S
C1938 H1932 0.930 . S
C1938 C1939 1.367 . S
C1938 C1946 1.378 . S
C1939 C1938 1.367 . S
C1939 C1947 1.433 . S
C1940 H1936 0.929 . S
C1940 C1942 1.378 . S
C1940 C1944 1.350 . S
C1941 C1944 1.463 . S
C1941 C1946 1.350 . S
C1941 N1949 1.427 . S
C1942 H1933 0.930 . S
C1942 C1940 1.378 . S
C1942 C1943 1.367 . S
C1943 C1942 1.367 . S
C1943 C1945 1.433 . S
C1944 C1940 1.350 . S
C1944 C1941 1.463 . S
C1944 N1948 1.427 . S
C1945 H1935 0.929 . S
C1945 C1943 1.433 . S
C1945 N1948 1.384 . S
C1946 H1937 0.929 . S
C1946 C1938 1.378 . S
C1946 C1941 1.350 . S
C1947 H1934 0.929 . S
C1947 C1939 1.433 . S
C1947 N1949 1.384 . S
N1948 C1944 1.427 . S
N1948 C1945 1.384 . S
N1949 C1941 1.427 . S
N1949 C1947 1.384 . S
H1950 C1956 0.930 . S
H1951 C1960 0.930 . S
H1952 C1965 0.929 . S
H1953 C1963 0.929 . S
H1954 C1958 0.929 . S
H1955 C1964 0.929 . S
C1956 H1950 0.930 . S
C1956 C1957 1.367 . S
C1956 C1964 1.378 . S
C1957 C1956 1.367 . S
C1957 C1965 1.433 . S
C1958 H1954 0.929 . S
C1958 C1960 1.378 . S
C1958 C1962 1.350 . S
C1959 C1962 1.463 . S
C1959 C1964 1.350 . S
C1959 N1967 1.427 . S
C1960 H1951 0.930 . S
C1960 C1958 1.378 . S
C1960 C1961 1.367 . S
C1961 C1960 1.367 . S
C1961 C1963 1.433 . S
C1962 C1958 1.350 . S
C1962 C1959 1.463 . S
C1962 N1966 1.427 . S
C1963 H1953 0.929 . S
C1963 C1961 1.433 . S
C1963 N1966 1.384 . S
C1964 H1955 0.929 . S
C1964 C1956 1.378 . S
C1964 C1959 1.350 . S
C1965 H1952 0.929 . S
C1965 C1957 1.433 . S
C1965 N1967 1.384 . S
N1966 C1962 1.427 . S
N1966 C1963 1.384 . S
N1967 C1959 1.427 . S
N1967 C1965 1.384 . S
H1968 C1974 0.930 . S
H1969 C1978 0.930 . S
H1970 C1983 0.929 . S
H1971 C1981 0.929 1_556 S
H1972 C1976 0.929 . S
H1973 C1982 0.929 . S
C1974 H1968 0.930 . S
C1974 C1975 1.367 . S
C1974 C1982 1.378 . S
C1975 C1974 1.367 . S
C1975 C1983 1.433 1_556 S
C1976 H1972 0.929 . S
C1976 C1978 1.378 . S
C1976 C1980 1.350 . S
C1977 C1980 1.463 . S
C1977 C1982 1.350 1_554 S
C1977 N1985 1.427 . S
C1978 H1969 0.930 . S
C1978 C1976 1.378 . S
C1978 C1979 1.387 . S
C1979 C1978 1.387 . S
C1979 C1981 1.442 . S
C1980 C1976 1.350 . S
C1980 C1977 1.463 . S
C1980 N1984 1.427 . S
C1981 H1971 0.929 1_554 S
C1981 C1979 1.442 . S
C1981 N1984 1.384 . S
C1982 H1973 0.929 . S
C1982 C1974 1.378 . S
C1982 C1977 1.350 1_556 S
C1983 H1970 0.929 . S
C1983 C1975 1.433 1_554 S
C1983 N1985 1.384 . S
N1984 C1980 1.427 . S
N1984 C1981 1.384 . S
N1985 C1977 1.427 . S
N1985 C1983 1.384 . S
H1986 C1992 0.930 . S
H1987 C1996 0.930 . S
H1988 C2001 0.929 1_556 S
H1989 C1999 0.929 . S
H1990 C1994 0.929 . S
H1991 C2000 0.929 . S
C1992 H1986 0.930 . S
C1992 C1993 1.367 . S
C1992 C2000 1.378 . S
C1993 C1992 1.367 . S
C1993 C2001 1.433 . S
C1994 H1990 0.929 . S
C1994 C1996 1.378 . S
C1994 C1998 1.350 . S
C1995 C1998 1.463 . S
C1995 C2000 1.350 . S
C1995 N2003 1.427 . S
C1996 H1987 0.930 . S
C1996 C1994 1.378 . S
C1996 C1997 1.367 . S
C1997 C1996 1.367 . S
C1997 C1999 1.433 . S
C1998 C1994 1.350 . S
C1998 C1995 1.463 . S
C1998 N2002 1.427 . S
C1999 H1989 0.929 . S
C1999 C1997 1.433 . S
C1999 N2002 1.384 . S
C2000 H1991 0.929 . S
C2000 C1992 1.378 . S
C2000 C1995 1.350 . S
C2001 H1988 0.929 1_554 S
C2001 C1993 1.433 . S
C2001 N2003 1.384 . S
N2002 C1998 1.427 . S
N2002 C1999 1.384 . S
N2003 C1995 1.427 . S
N2003 C2001 1.384 . S
H2004 C2010 0.930 . S
H2005 C2014 0.930 . S
H2006 C2019 0.929 . S
H2007 C2017 0.929 . S
H2008 C2012 0.929 . S
H2009 C2018 0.929 . S
C2010 H2004 0.930 . S
C2010 C2011 1.367 . S
C2010 C2018 1.378 . S
C2011 C2010 1.367 . S
C2011 C2019 1.433 . S
C2012 H2008 0.929 . S
C2012 C2014 1.378 . S
C2012 C2016 1.350 . S
C2013 C2016 1.463 . S
C2013 C2018 1.350 . S
C2013 N2021 1.427 . S
C2014 H2005 0.930 . S
C2014 C2012 1.378 . S
C2014 C2015 1.367 . S
C2015 C2014 1.367 . S
C2015 C2017 1.433 . S
C2016 C2012 1.350 . S
C2016 C2013 1.463 . S
C2016 N2020 1.427 . S
C2017 H2007 0.929 . S
C2017 C2015 1.433 . S
C2017 N2020 1.384 . S
C2018 H2009 0.929 . S
C2018 C2010 1.378 . S
C2018 C2013 1.350 . S
C2019 H2006 0.929 . S
C2019 C2011 1.433 . S
C2019 N2021 1.384 . S
N2020 C2016 1.427 . S
N2020 C2017 1.384 . S
N2021 C2013 1.427 . S
N2021 C2019 1.384 . S
H2022 C2028 0.930 . S
H2023 C2032 0.930 . S
H2024 C2037 0.929 . S
H2025 C2035 0.929 . S
H2026 C2030 0.929 . S
H2027 C2036 0.929 . S
C2028 H2022 0.930 . S
C2028 C2029 1.367 . S
C2028 C2036 1.378 . S
C2029 C2028 1.367 . S
C2029 C2037 1.433 . S
C2030 H2026 0.929 . S
C2030 C2032 1.378 . S
C2030 C2034 1.350 . S
C2031 C2034 1.463 . S
C2031 C2036 1.350 . S
C2031 N2039 1.427 . S
C2032 H2023 0.930 . S
C2032 C2030 1.378 . S
C2032 C2033 1.367 . S
C2033 C2032 1.367 . S
C2033 C2035 1.433 . S
C2034 C2030 1.350 . S
C2034 C2031 1.463 . S
C2034 N2038 1.427 . S
C2035 H2025 0.929 . S
C2035 C2033 1.433 . S
C2035 N2038 1.384 . S
C2036 H2027 0.929 . S
C2036 C2028 1.378 . S
C2036 C2031 1.350 . S
C2037 H2024 0.929 . S
C2037 C2029 1.433 . S
C2037 N2039 1.384 . S
N2038 C2034 1.427 . S
N2038 C2035 1.384 . S
N2039 C2031 1.427 . S
N2039 C2037 1.384 . S
H2040 C2046 0.930 . S
H2041 C2050 0.930 . S
H2042 C2055 0.929 . S
H2043 C2053 0.929 . S
H2044 C2048 0.929 . S
H2045 C2054 0.929 . S
C2046 H2040 0.930 . S
C2046 C2047 1.367 . S
C2046 C2054 1.378 . S
C2047 C2046 1.367 . S
C2047 C2055 1.433 . S
C2048 H2044 0.929 . S
C2048 C2050 1.378 . S
C2048 C2052 1.350 . S
C2049 C2052 1.463 . S
C2049 C2054 1.350 . S
C2049 N2057 1.427 . S
C2050 H2041 0.930 . S
C2050 C2048 1.378 . S
C2050 C2051 1.367 . S
C2051 C2050 1.367 . S
C2051 C2053 1.433 . S
C2052 C2048 1.350 . S
C2052 C2049 1.463 . S
C2052 N2056 1.427 . S
C2053 H2043 0.929 . S
C2053 C2051 1.433 . S
C2053 N2056 1.384 . S
C2054 H2045 0.929 . S
C2054 C2046 1.378 . S
C2054 C2049 1.350 . S
C2055 H2042 0.929 . S
C2055 C2047 1.433 . S
C2055 N2057 1.384 . S
N2056 C2052 1.427 . S
N2056 C2053 1.384 . S
N2057 C2049 1.427 . S
N2057 C2055 1.384 . S
H2058 C2064 0.930 . S
H2059 C2068 0.930 . S
H2060 C2073 0.929 . S
H2061 C2071 0.929 . S
H2062 C2066 0.929 . S
H2063 C2072 0.929 . S
C2064 H2058 0.930 . S
C2064 C2065 1.367 . S
C2064 C2072 1.378 . S
C2065 C2064 1.367 . S
C2065 C2073 1.433 . S
C2066 H2062 0.929 . S
C2066 C2068 1.378 . S
C2066 C2070 1.350 . S
C2067 C2070 1.463 . S
C2067 C2072 1.350 . S
C2067 N2075 1.427 . S
C2068 H2059 0.930 . S
C2068 C2066 1.378 . S
C2068 C2069 1.367 . S
C2069 C2068 1.367 . S
C2069 C2071 1.433 . S
C2070 C2066 1.350 . S
C2070 C2067 1.463 . S
C2070 N2074 1.427 . S
C2071 H2061 0.929 . S
C2071 C2069 1.433 . S
C2071 N2074 1.384 . S
C2072 H2063 0.929 . S
C2072 C2064 1.378 . S
C2072 C2067 1.350 . S
C2073 H2060 0.929 . S
C2073 C2065 1.433 . S
C2073 N2075 1.384 . S
N2074 C2070 1.427 . S
N2074 C2071 1.384 . S
N2075 C2067 1.427 . S
N2075 C2073 1.384 . S
H2076 C2082 0.930 . S
H2077 C2086 0.930 . S
H2078 C2091 0.929 . S
H2079 C2089 0.929 . S
H2080 C2084 0.929 . S
H2081 C2090 0.929 . S
C2082 H2076 0.930 . S
C2082 C2083 1.367 . S
C2082 C2090 1.378 . S
C2083 C2082 1.367 . S
C2083 C2091 1.433 . S
C2084 H2080 0.929 . S
C2084 C2086 1.378 . S
C2084 C2088 1.350 . S
C2085 C2088 1.463 . S
C2085 C2090 1.350 . S
C2085 N2093 1.427 . S
C2086 H2077 0.930 . S
C2086 C2084 1.378 . S
C2086 C2087 1.367 . S
C2087 C2086 1.367 . S
C2087 C2089 1.433 . S
C2088 C2084 1.350 . S
C2088 C2085 1.463 . S
C2088 N2092 1.427 . S
C2089 H2079 0.929 . S
C2089 C2087 1.433 . S
C2089 N2092 1.384 . S
C2090 H2081 0.929 . S
C2090 C2082 1.378 . S
C2090 C2085 1.350 . S
C2091 H2078 0.929 . S
C2091 C2083 1.433 . S
C2091 N2093 1.384 . S
N2092 C2088 1.427 . S
N2092 C2089 1.384 . S
N2093 C2085 1.427 . S
N2093 C2091 1.384 . S
H2094 C2100 0.930 . S
H2095 C2104 0.930 . S
H2096 C2109 0.929 . S
H2097 C2107 0.929 . S
H2098 C2102 0.929 . S
H2099 C2108 0.929 . S
C2100 H2094 0.930 . S
C2100 C2101 1.367 . S
C2100 C2108 1.378 . S
C2101 C2100 1.367 . S
C2101 C2109 1.433 . S
C2102 H2098 0.929 . S
C2102 C2104 1.378 . S
C2102 C2106 1.350 . S
C2103 C2106 1.463 . S
C2103 C2108 1.350 . S
C2103 N2111 1.427 . S
C2104 H2095 0.930 . S
C2104 C2102 1.378 . S
C2104 C2105 1.367 . S
C2105 C2104 1.367 . S
C2105 C2107 1.433 . S
C2106 C2102 1.350 . S
C2106 C2103 1.463 . S
C2106 N2110 1.427 . S
C2107 H2097 0.929 . S
C2107 C2105 1.433 . S
C2107 N2110 1.384 . S
C2108 H2099 0.929 . S
C2108 C2100 1.378 . S
C2108 C2103 1.350 . S
C2109 H2096 0.929 . S
C2109 C2101 1.433 . S
C2109 N2111 1.384 . S
N2110 C2106 1.427 . S
N2110 C2107 1.384 . S
N2111 C2103 1.427 . S
N2111 C2109 1.384 . S
H2112 C2118 0.930 . S
H2113 C2122 0.930 . S
H2114 C2127 0.929 . S
H2115 C2125 0.929 . S
H2116 C2120 0.929 . S
H2117 C2126 0.929 . S
C2118 H2112 0.930 . S
C2118 C2119 1.367 . S
C2118 C2126 1.378 . S
C2119 C2118 1.367 . S
C2119 C2127 1.433 . S
C2120 H2116 0.929 . S
C2120 C2122 1.378 . S
C2120 C2124 1.350 . S
C2121 C2124 1.463 . S
C2121 C2126 1.350 . S
C2121 N2129 1.427 . S
C2122 H2113 0.930 . S
C2122 C2120 1.378 . S
C2122 C2123 1.367 . S
C2123 C2122 1.367 . S
C2123 C2125 1.433 . S
C2124 C2120 1.350 . S
C2124 C2121 1.463 . S
C2124 N2128 1.427 . S
C2125 H2115 0.929 . S
C2125 C2123 1.433 . S
C2125 N2128 1.384 . S
C2126 H2117 0.929 . S
C2126 C2118 1.378 . S
C2126 C2121 1.350 . S
C2127 H2114 0.929 . S
C2127 C2119 1.433 . S
C2127 N2129 1.384 . S
N2128 C2124 1.427 . S
N2128 C2125 1.384 . S
N2129 C2121 1.427 . S
N2129 C2127 1.384 . S
H2130 C2136 0.930 . S
H2131 C2140 0.930 . S
H2132 C2145 0.929 . S
H2133 C2143 0.929 . S
H2134 C2138 0.929 . S
H2135 C2144 0.929 . S
C2136 H2130 0.930 . S
C2136 C2137 1.367 . S
C2136 C2144 1.378 . S
C2137 C2136 1.367 . S
C2137 C2145 1.433 . S
C2138 H2134 0.929 . S
C2138 C2140 1.378 . S
C2138 C2142 1.350 . S
C2139 C2142 1.463 . S
C2139 C2144 1.350 . S
C2139 N2147 1.427 . S
C2140 H2131 0.930 . S
C2140 C2138 1.378 . S
C2140 C2141 1.367 . S
C2141 C2140 1.367 . S
C2141 C2143 1.433 . S
C2142 C2138 1.350 . S
C2142 C2139 1.463 . S
C2142 N2146 1.427 . S
C2143 H2133 0.929 . S
C2143 C2141 1.433 . S
C2143 N2146 1.384 . S
C2144 H2135 0.929 . S
C2144 C2136 1.378 . S
C2144 C2139 1.350 . S
C2145 H2132 0.929 . S
C2145 C2137 1.433 . S
C2145 N2147 1.384 . S
N2146 C2142 1.427 . S
N2146 C2143 1.384 . S
N2147 C2139 1.427 . S
N2147 C2145 1.384 . S
H2148 C2154 0.930 . S
H2149 C2158 0.930 . S
H2150 C2163 0.929 . S
H2151 C2161 0.929 . S
H2152 C2156 0.929 . S
H2153 C2162 0.929 . S
C2154 H2148 0.930 . S
C2154 C2155 1.367 . S
C2154 C2162 1.378 . S
C2155 C2154 1.367 . S
C2155 C2163 1.433 . S
C2156 H2152 0.929 . S
C2156 C2158 1.378 . S
C2156 C2160 1.350 . S
C2157 C2160 1.463 . S
C2157 C2162 1.350 . S
C2157 N2165 1.427 . S
C2158 H2149 0.930 . S
C2158 C2156 1.378 . S
C2158 C2159 1.367 . S
C2159 C2158 1.367 . S
C2159 C2161 1.433 . S
C2160 C2156 1.350 . S
C2160 C2157 1.463 . S
C2160 N2164 1.427 . S
C2161 H2151 0.929 . S
C2161 C2159 1.433 . S
C2161 N2164 1.384 . S
C2162 H2153 0.929 . S
C2162 C2154 1.378 . S
C2162 C2157 1.350 . S
C2163 H2150 0.929 . S
C2163 C2155 1.433 . S
C2163 N2165 1.384 . S
N2164 C2160 1.427 . S
N2164 C2161 1.384 . S
N2165 C2157 1.427 . S
N2165 C2163 1.384 . S
H2166 C2172 0.930 . S
H2167 C2176 0.930 . S
H2168 C2181 0.929 . S
H2169 C2179 0.929 . S
H2170 C2174 0.929 . S
H2171 C2180 0.929 . S
C2172 H2166 0.930 . S
C2172 C2173 1.367 . S
C2172 C2180 1.378 . S
C2173 C2172 1.367 . S
C2173 C2181 1.433 . S
C2174 H2170 0.929 . S
C2174 C2176 1.378 . S
C2174 C2178 1.350 . S
C2175 C2178 1.463 . S
C2175 C2180 1.350 . S
C2175 N2183 1.427 . S
C2176 H2167 0.930 . S
C2176 C2174 1.378 . S
C2176 C2177 1.367 . S
C2177 C2176 1.367 . S
C2177 C2179 1.433 . S
C2178 C2174 1.350 . S
C2178 C2175 1.463 . S
C2178 N2182 1.427 . S
C2179 H2169 0.929 . S
C2179 C2177 1.433 . S
C2179 N2182 1.384 . S
C2180 H2171 0.929 . S
C2180 C2172 1.378 . S
C2180 C2175 1.350 . S
C2181 H2168 0.929 . S
C2181 C2173 1.433 . S
C2181 N2183 1.384 . S
N2182 C2178 1.427 . S
N2182 C2179 1.384 . S
N2183 C2175 1.427 . S
N2183 C2181 1.384 . S
H2184 C2190 0.930 . S
H2185 C2194 0.930 . S
H2186 C2199 0.929 . S
H2187 C2197 0.929 . S
H2188 C2192 0.929 . S
H2189 C2198 0.929 . S
C2190 H2184 0.930 . S
C2190 C2191 1.367 . S
C2190 C2198 1.378 . S
C2191 C2190 1.367 . S
C2191 C2199 1.433 . S
C2192 H2188 0.929 . S
C2192 C2194 1.378 . S
C2192 C2196 1.350 . S
C2193 C2196 1.463 . S
C2193 C2198 1.350 . S
C2193 N2201 1.427 . S
C2194 H2185 0.930 . S
C2194 C2192 1.378 . S
C2194 C2195 1.367 . S
C2195 C2194 1.367 . S
C2195 C2197 1.433 . S
C2196 C2192 1.350 . S
C2196 C2193 1.463 . S
C2196 N2200 1.427 . S
C2197 H2187 0.929 . S
C2197 C2195 1.433 . S
C2197 N2200 1.384 . S
C2198 H2189 0.929 . S
C2198 C2190 1.378 . S
C2198 C2193 1.350 . S
C2199 H2186 0.929 . S
C2199 C2191 1.433 . S
C2199 N2201 1.384 . S
N2200 C2196 1.427 . S
N2200 C2197 1.384 . S
N2201 C2193 1.427 . S
N2201 C2199 1.384 . S
H2202 C2208 0.930 . S
H2203 C2212 0.930 . S
H2204 C2217 0.929 . S
H2205 C2215 0.929 . S
H2206 C2210 0.929 . S
H2207 C2216 0.929 . S
C2208 H2202 0.930 . S
C2208 C2209 1.367 . S
C2208 C2216 1.378 . S
C2209 C2208 1.367 . S
C2209 C2217 1.433 . S
C2210 H2206 0.929 . S
C2210 C2212 1.378 . S
C2210 C2214 1.350 . S
C2211 C2214 1.463 . S
C2211 C2216 1.350 . S
C2211 N2219 1.427 . S
C2212 H2203 0.930 . S
C2212 C2210 1.378 . S
C2212 C2213 1.367 . S
C2213 C2212 1.367 . S
C2213 C2215 1.433 . S
C2214 C2210 1.350 . S
C2214 C2211 1.463 . S
C2214 N2218 1.427 . S
C2215 H2205 0.929 . S
C2215 C2213 1.433 . S
C2215 N2218 1.384 . S
C2216 H2207 0.929 . S
C2216 C2208 1.378 . S
C2216 C2211 1.350 . S
C2217 H2204 0.929 . S
C2217 C2209 1.433 . S
C2217 N2219 1.384 . S
N2218 C2214 1.427 . S
N2218 C2215 1.384 . S
N2219 C2211 1.427 . S
N2219 C2217 1.384 . S
H2220 C2226 0.930 . S
H2221 C2230 0.930 . S
H2222 C2235 0.929 . S
H2223 C2233 0.929 . S
H2224 C2228 0.929 . S
H2225 C2234 0.929 . S
C2226 H2220 0.930 . S
C2226 C2227 1.367 . S
C2226 C2234 1.378 . S
C2227 C2226 1.367 . S
C2227 C2235 1.433 . S
C2228 H2224 0.929 . S
C2228 C2230 1.378 . S
C2228 C2232 1.350 . S
C2229 C2232 1.463 . S
C2229 C2234 1.350 . S
C2229 N2237 1.427 . S
C2230 H2221 0.930 . S
C2230 C2228 1.378 . S
C2230 C2231 1.367 . S
C2231 C2230 1.367 . S
C2231 C2233 1.433 . S
C2232 C2228 1.350 . S
C2232 C2229 1.463 . S
C2232 N2236 1.427 . S
C2233 H2223 0.929 . S
C2233 C2231 1.433 . S
C2233 N2236 1.384 . S
C2234 H2225 0.929 . S
C2234 C2226 1.378 . S
C2234 C2229 1.350 . S
C2235 H2222 0.929 . S
C2235 C2227 1.433 . S
C2235 N2237 1.384 . S
N2236 C2232 1.427 . S
N2236 C2233 1.384 . S
N2237 C2229 1.427 . S
N2237 C2235 1.384 . S
H2238 C2244 0.930 . S
H2239 C2248 0.930 . S
H2240 C2253 0.929 . S
H2241 C2251 0.929 . S
H2242 C2246 0.929 . S
H2243 C2252 0.929 . S
C2244 H2238 0.930 . S
C2244 C2245 1.367 . S
C2244 C2252 1.378 . S
C2245 C2244 1.367 . S
C2245 C2253 1.433 . S
C2246 H2242 0.929 . S
C2246 C2248 1.378 . S
C2246 C2250 1.350 . S
C2247 C2250 1.463 . S
C2247 C2252 1.350 . S
C2247 N2255 1.427 . S
C2248 H2239 0.930 . S
C2248 C2246 1.378 . S
C2248 C2249 1.367 . S
C2249 C2248 1.367 . S
C2249 C2251 1.433 . S
C2250 C2246 1.350 . S
C2250 C2247 1.463 . S
C2250 N2254 1.427 . S
C2251 H2241 0.929 . S
C2251 C2249 1.433 . S
C2251 N2254 1.384 . S
C2252 H2243 0.929 . S
C2252 C2244 1.378 . S
C2252 C2247 1.350 . S
C2253 H2240 0.929 . S
C2253 C2245 1.433 . S
C2253 N2255 1.384 . S
N2254 C2250 1.427 . S
N2254 C2251 1.384 . S
N2255 C2247 1.427 . S
N2255 C2253 1.384 . S
H2256 C2262 0.930 . S
H2257 C2266 0.930 1_565 S
H2258 C2271 0.929 . S
H2259 C2269 0.929 . S
H2260 C2264 0.929 . S
H2261 C2270 0.929 . S
C2262 H2256 0.930 . S
C2262 C2263 1.367 . S
C2262 C2270 1.378 . S
C2263 C2262 1.367 . S
C2263 C2271 1.433 . S
C2264 H2260 0.929 . S
C2264 C2266 1.378 . S
C2264 C2268 1.350 . S
C2265 C2268 1.463 . S
C2265 C2270 1.350 . S
C2265 N2273 1.427 . S
C2266 H2257 0.930 1_545 S
C2266 C2264 1.378 . S
C2266 C2267 1.367 . S
C2267 C2266 1.367 . S
C2267 C2269 1.433 . S
C2268 C2264 1.350 . S
C2268 C2265 1.463 . S
C2268 N2272 1.427 . S
C2269 H2259 0.929 . S
C2269 C2267 1.433 . S
C2269 N2272 1.384 . S
C2270 H2261 0.929 . S
C2270 C2262 1.378 . S
C2270 C2265 1.350 . S
C2271 H2258 0.929 . S
C2271 C2263 1.433 . S
C2271 N2273 1.384 . S
N2272 C2268 1.427 . S
N2272 C2269 1.384 . S
N2273 C2265 1.427 . S
N2273 C2271 1.384 . S
H2274 C2280 0.930 . S
H2275 C2284 0.930 . S
H2276 C2289 0.929 . S
H2277 C2287 0.929 . S
H2278 C2282 0.929 . S
H2279 C2288 0.929 . S
C2280 H2274 0.930 . S
C2280 C2281 1.367 . S
C2280 C2288 1.378 . S
C2281 C2280 1.367 . S
C2281 C2289 1.433 . S
C2282 H2278 0.929 . S
C2282 C2284 1.378 . S
C2282 C2286 1.350 . S
C2283 C2286 1.463 . S
C2283 C2288 1.350 . S
C2283 N2291 1.427 . S
C2284 H2275 0.930 . S
C2284 C2282 1.378 . S
C2284 C2285 1.367 . S
C2285 C2284 1.367 . S
C2285 C2287 1.433 . S
C2286 C2282 1.350 . S
C2286 C2283 1.463 . S
C2286 N2290 1.427 . S
C2287 H2277 0.929 . S
C2287 C2285 1.433 . S
C2287 N2290 1.384 . S
C2288 H2279 0.929 . S
C2288 C2280 1.378 . S
C2288 C2283 1.350 . S
C2289 H2276 0.929 . S
C2289 C2281 1.433 . S
C2289 N2291 1.384 . S
N2290 C2286 1.427 . S
N2290 C2287 1.384 . S
N2291 C2283 1.427 . S
N2291 C2289 1.384 . S
H2292 C2298 0.941 . S
H2293 C2302 0.930 . S
H2294 C2307 0.929 . S
H2295 C2305 0.929 . S
H2296 C2300 0.929 . S
H2297 C2306 0.929 1_565 S
C2298 H2292 0.941 . S
C2298 C2299 1.354 1_565 S
C2298 C2306 1.380 1_565 S
C2299 C2298 1.354 1_545 S
C2299 C2307 1.433 . S
C2300 H2296 0.929 . S
C2300 C2302 1.378 . S
C2300 C2304 1.350 . S
C2301 C2304 1.463 . S
C2301 C2306 1.350 . S
C2301 N2309 1.427 . S
C2302 H2293 0.930 . S
C2302 C2300 1.378 . S
C2302 C2303 1.367 . S
C2303 C2302 1.367 . S
C2303 C2305 1.433 . S
C2304 C2300 1.350 . S
C2304 C2301 1.463 . S
C2304 N2308 1.427 . S
C2305 H2295 0.929 . S
C2305 C2303 1.433 . S
C2305 N2308 1.384 . S
C2306 H2297 0.929 1_545 S
C2306 C2298 1.380 1_545 S
C2306 C2301 1.350 . S
C2307 H2294 0.929 . S
C2307 C2299 1.433 . S
C2307 N2309 1.384 . S
N2308 C2304 1.427 . S
N2308 C2305 1.384 . S
N2309 C2301 1.427 . S
N2309 C2307 1.384 . S
H2310 C2316 0.930 . S
H2311 C2320 0.930 . S
H2312 C2325 0.929 . S
H2313 C2323 0.929 . S
H2314 C2318 0.929 . S
H2315 C2324 0.929 . S
C2316 H2310 0.930 . S
C2316 C2317 1.367 . S
C2316 C2324 1.378 . S
C2317 C2316 1.367 . S
C2317 C2325 1.433 . S
C2318 H2314 0.929 . S
C2318 C2320 1.378 . S
C2318 C2322 1.350 . S
C2319 C2322 1.463 . S
C2319 C2324 1.350 . S
C2319 N2327 1.427 . S
C2320 H2311 0.930 . S
C2320 C2318 1.378 . S
C2320 C2321 1.367 . S
C2321 C2320 1.367 . S
C2321 C2323 1.433 . S
C2322 C2318 1.350 . S
C2322 C2319 1.463 . S
C2322 N2326 1.427 . S
C2323 H2313 0.929 . S
C2323 C2321 1.433 . S
C2323 N2326 1.384 . S
C2324 H2315 0.929 . S
C2324 C2316 1.378 . S
C2324 C2319 1.350 . S
C2325 H2312 0.929 . S
C2325 C2317 1.433 . S
C2325 N2327 1.384 . S
N2326 C2322 1.427 . S
N2326 C2323 1.384 . S
N2327 C2319 1.427 . S
N2327 C2325 1.384 . S
H2328 C2334 0.930 . S
H2329 C2338 0.930 . S
H2330 C2343 0.929 . S
H2331 C2341 0.929 . S
H2332 C2336 0.929 . S
H2333 C2342 0.929 . S
C2334 H2328 0.930 . S
C2334 C2335 1.367 . S
C2334 C2342 1.378 . S
C2335 C2334 1.367 . S
C2335 C2343 1.433 . S
C2336 H2332 0.929 . S
C2336 C2338 1.378 . S
C2336 C2340 1.350 . S
C2337 C2340 1.463 . S
C2337 C2342 1.350 . S
C2337 N2345 1.427 . S
C2338 H2329 0.930 . S
C2338 C2336 1.378 . S
C2338 C2339 1.367 . S
C2339 C2338 1.367 . S
C2339 C2341 1.433 . S
C2340 C2336 1.350 . S
C2340 C2337 1.463 . S
C2340 N2344 1.427 . S
C2341 H2331 0.929 . S
C2341 C2339 1.433 . S
C2341 N2344 1.384 . S
C2342 H2333 0.929 . S
C2342 C2334 1.378 . S
C2342 C2337 1.350 . S
C2343 H2330 0.929 . S
C2343 C2335 1.433 . S
C2343 N2345 1.384 . S
N2344 C2340 1.427 . S
N2344 C2341 1.384 . S
N2345 C2337 1.427 . S
N2345 C2343 1.384 . S
H2346 C2352 0.930 . S
H2347 C2356 0.930 . S
H2348 C2361 0.929 . S
H2349 C2359 0.929 . S
H2350 C2354 0.929 . S
H2351 C2360 0.929 . S
C2352 H2346 0.930 . S
C2352 C2353 1.367 . S
C2352 C2360 1.378 . S
C2353 C2352 1.367 . S
C2353 C2361 1.433 . S
C2354 H2350 0.929 . S
C2354 C2356 1.378 . S
C2354 C2358 1.350 . S
C2355 C2358 1.463 . S
C2355 C2360 1.350 . S
C2355 N2363 1.427 . S
C2356 H2347 0.930 . S
C2356 C2354 1.378 . S
C2356 C2357 1.367 . S
C2357 C2356 1.367 . S
C2357 C2359 1.433 . S
C2358 C2354 1.350 . S
C2358 C2355 1.463 . S
C2358 N2362 1.427 . S
C2359 H2349 0.929 . S
C2359 C2357 1.433 . S
C2359 N2362 1.384 . S
C2360 H2351 0.929 . S
C2360 C2352 1.378 . S
C2360 C2355 1.350 . S
C2361 H2348 0.929 . S
C2361 C2353 1.433 . S
C2361 N2363 1.384 . S
N2362 C2358 1.427 . S
N2362 C2359 1.384 . S
N2363 C2355 1.427 . S
N2363 C2361 1.384 . S
H2364 C2370 0.930 . S
H2365 C2374 0.930 . S
H2366 C2379 0.929 . S
H2367 C2377 0.929 . S
H2368 C2372 0.929 . S
H2369 C2378 0.929 . S
C2370 H2364 0.930 . S
C2370 C2371 1.367 . S
C2370 C2378 1.378 . S
C2371 C2370 1.367 . S
C2371 C2379 1.433 1_545 S
C2372 H2368 0.929 . S
C2372 C2374 1.378 . S
C2372 C2376 1.350 1_565 S
C2373 C2376 1.463 . S
C2373 C2378 1.350 . S
C2373 N2381 1.427 1_545 S
C2374 H2365 0.930 . S
C2374 C2372 1.378 . S
C2374 C2375 1.367 1_565 S
C2375 C2374 1.367 1_545 S
C2375 C2377 1.433 . S
C2376 C2372 1.350 1_545 S
C2376 C2373 1.463 . S
C2376 N2380 1.427 . S
C2377 H2367 0.929 . S
C2377 C2375 1.433 . S
C2377 N2380 1.384 . S
C2378 H2369 0.929 . S
C2378 C2370 1.378 . S
C2378 C2373 1.350 . S
C2379 H2366 0.929 . S
C2379 C2371 1.433 1_565 S
C2379 N2381 1.384 . S
N2380 C2376 1.427 . S
N2380 C2377 1.384 . S
N2381 C2373 1.427 1_565 S
N2381 C2379 1.384 . S
H2382 C2388 0.930 . S
H2383 C2392 0.930 . S
H2384 C2397 0.929 . S
H2385 C2395 0.929 . S
H2386 C2390 0.929 . S
H2387 C2396 0.929 . S
C2388 H2382 0.930 . S
C2388 C2389 1.367 . S
C2388 C2396 1.378 . S
C2389 C2388 1.367 . S
C2389 C2397 1.433 . S
C2390 H2386 0.929 . S
C2390 C2392 1.378 . S
C2390 C2394 1.350 . S
C2391 C2394 1.463 . S
C2391 C2396 1.350 . S
C2391 N2399 1.427 . S
C2392 H2383 0.930 . S
C2392 C2390 1.378 . S
C2392 C2393 1.367 . S
C2393 C2392 1.367 . S
C2393 C2395 1.433 . S
C2394 C2390 1.350 . S
C2394 C2391 1.463 . S
C2394 N2398 1.427 . S
C2395 H2385 0.929 . S
C2395 C2393 1.433 . S
C2395 N2398 1.384 . S
C2396 H2387 0.929 . S
C2396 C2388 1.378 . S
C2396 C2391 1.350 . S
C2397 H2384 0.929 . S
C2397 C2389 1.433 . S
C2397 N2399 1.384 . S
N2398 C2394 1.427 . S
N2398 C2395 1.384 . S
N2399 C2391 1.427 . S
N2399 C2397 1.384 . S
H2400 C2406 0.930 . S
H2401 C2410 0.930 . S
H2402 C2415 0.929 . S
H2403 C2413 0.929 . S
H2404 C2408 0.929 . S
H2405 C2414 0.929 . S
C2406 H2400 0.930 . S
C2406 C2407 1.367 . S
C2406 C2414 1.378 . S
C2407 C2406 1.367 . S
C2407 C2415 1.433 . S
C2408 H2404 0.929 . S
C2408 C2410 1.378 . S
C2408 C2412 1.350 . S
C2409 C2412 1.463 . S
C2409 C2414 1.350 . S
C2409 N2417 1.427 . S
C2410 H2401 0.930 . S
C2410 C2408 1.378 . S
C2410 C2411 1.367 . S
C2411 C2410 1.367 . S
C2411 C2413 1.433 . S
C2412 C2408 1.350 . S
C2412 C2409 1.463 . S
C2412 N2416 1.427 . S
C2413 H2403 0.929 . S
C2413 C2411 1.433 . S
C2413 N2416 1.384 . S
C2414 H2405 0.929 . S
C2414 C2406 1.378 . S
C2414 C2409 1.350 . S
C2415 H2402 0.929 . S
C2415 C2407 1.433 . S
C2415 N2417 1.384 . S
N2416 C2412 1.427 . S
N2416 C2413 1.384 . S
N2417 C2409 1.427 . S
N2417 C2415 1.384 . S
H2418 C2424 0.930 . S
H2419 C2428 0.930 . S
H2420 C2433 0.929 . S
H2421 C2431 0.929 . S
H2422 C2426 0.929 . S
H2423 C2432 0.929 . S
C2424 H2418 0.930 . S
C2424 C2425 1.367 . S
C2424 C2432 1.378 . S
C2425 C2424 1.367 . S
C2425 C2433 1.433 . S
C2426 H2422 0.929 . S
C2426 C2428 1.378 . S
C2426 C2430 1.350 . S
C2427 C2430 1.463 . S
C2427 C2432 1.350 . S
C2427 N2435 1.427 . S
C2428 H2419 0.930 . S
C2428 C2426 1.378 . S
C2428 C2429 1.367 . S
C2429 C2428 1.367 . S
C2429 C2431 1.433 . S
C2430 C2426 1.350 . S
C2430 C2427 1.463 . S
C2430 N2434 1.427 . S
C2431 H2421 0.929 . S
C2431 C2429 1.433 . S
C2431 N2434 1.384 . S
C2432 H2423 0.929 . S
C2432 C2424 1.378 . S
C2432 C2427 1.350 . S
C2433 H2420 0.929 . S
C2433 C2425 1.433 . S
C2433 N2435 1.384 . S
N2434 C2430 1.427 . S
N2434 C2431 1.384 . S
N2435 C2427 1.427 . S
N2435 C2433 1.384 . S
H2436 C2442 0.930 . S
H2437 C2446 0.930 . S
H2438 C2451 0.929 . S
H2439 C2449 0.929 . S
H2440 C2444 0.929 . S
H2441 C2450 0.929 . S
C2442 H2436 0.930 . S
C2442 C2443 1.367 . S
C2442 C2450 1.378 . S
C2443 C2442 1.367 . S
C2443 C2451 1.433 . S
C2444 H2440 0.929 . S
C2444 C2446 1.378 . S
C2444 C2448 1.350 . S
C2445 C2448 1.463 . S
C2445 C2450 1.350 . S
C2445 N2453 1.427 . S
C2446 H2437 0.930 . S
C2446 C2444 1.378 . S
C2446 C2447 1.367 . S
C2447 C2446 1.367 . S
C2447 C2449 1.433 . S
C2448 C2444 1.350 . S
C2448 C2445 1.463 . S
C2448 N2452 1.427 . S
C2449 H2439 0.929 . S
C2449 C2447 1.433 . S
C2449 N2452 1.384 . S
C2450 H2441 0.929 . S
C2450 C2442 1.378 . S
C2450 C2445 1.350 . S
C2451 H2438 0.929 . S
C2451 C2443 1.433 . S
C2451 N2453 1.384 . S
N2452 C2448 1.427 . S
N2452 C2449 1.384 . S
N2453 C2445 1.427 . S
N2453 C2451 1.384 . S
H2454 C2460 0.930 . S
H2455 C2464 0.930 . S
H2456 C2469 0.929 . S
H2457 C2467 0.929 . S
H2458 C2462 0.929 . S
H2459 C2468 0.929 . S
C2460 H2454 0.930 . S
C2460 C2461 1.367 . S
C2460 C2468 1.378 . S
C2461 C2460 1.367 . S
C2461 C2469 1.433 . S
C2462 H2458 0.929 . S
C2462 C2464 1.378 . S
C2462 C2466 1.350 . S
C2463 C2466 1.463 . S
C2463 C2468 1.350 . S
C2463 N2471 1.427 . S
C2464 H2455 0.930 . S
C2464 C2462 1.378 . S
C2464 C2465 1.367 . S
C2465 C2464 1.367 . S
C2465 C2467 1.433 . S
C2466 C2462 1.350 . S
C2466 C2463 1.463 . S
C2466 N2470 1.427 . S
C2467 H2457 0.929 . S
C2467 C2465 1.433 . S
C2467 N2470 1.384 . S
C2468 H2459 0.929 . S
C2468 C2460 1.378 . S
C2468 C2463 1.350 . S
C2469 H2456 0.929 . S
C2469 C2461 1.433 . S
C2469 N2471 1.384 . S
N2470 C2466 1.427 . S
N2470 C2467 1.384 . S
N2471 C2463 1.427 . S
N2471 C2469 1.384 . S
H2472 C2478 0.961 . S
H2473 C2482 0.930 . S
H2474 C2487 0.929 . S
H2475 C2485 0.929 . S
H2476 C2480 0.929 . S
H2477 C2486 0.929 . S
C2478 H2472 0.961 . S
C2478 C2479 1.370 1_545 S
C2478 C2486 1.345 1_545 S
C2479 C2478 1.370 1_565 S
C2479 C2487 1.433 . S
C2480 H2476 0.929 . S
C2480 C2482 1.378 . S
C2480 C2484 1.350 . S
C2481 C2484 1.463 . S
C2481 C2486 1.350 . S
C2481 N2489 1.427 . S
C2482 H2473 0.930 . S
C2482 C2480 1.378 . S
C2482 C2483 1.367 . S
C2483 C2482 1.367 . S
C2483 C2485 1.433 . S
C2484 C2480 1.350 . S
C2484 C2481 1.463 . S
C2484 N2488 1.427 . S
C2485 H2475 0.929 . S
C2485 C2483 1.433 . S
C2485 N2488 1.384 . S
C2486 H2477 0.929 . S
C2486 C2478 1.345 1_565 S
C2486 C2481 1.350 . S
C2487 H2474 0.929 . S
C2487 C2479 1.433 . S
C2487 N2489 1.384 . S
N2488 C2484 1.427 . S
N2488 C2485 1.384 . S
N2489 C2481 1.427 . S
N2489 C2487 1.384 . S
H2490 C2496 0.930 . S
H2491 C2500 0.930 . S
H2492 C2505 0.929 . S
H2493 C2503 0.929 . S
H2494 C2498 0.929 . S
H2495 C2504 0.929 . S
C2496 H2490 0.930 . S
C2496 C2497 1.367 . S
C2496 C2504 1.378 . S
C2497 C2496 1.367 . S
C2497 C2505 1.433 . S
C2498 H2494 0.929 . S
C2498 C2500 1.378 . S
C2498 C2502 1.350 . S
C2499 C2502 1.463 . S
C2499 C2504 1.350 . S
C2499 N2507 1.427 . S
C2500 H2491 0.930 . S
C2500 C2498 1.378 . S
C2500 C2501 1.367 . S
C2501 C2500 1.367 . S
C2501 C2503 1.433 . S
C2502 C2498 1.350 . S
C2502 C2499 1.463 . S
C2502 N2506 1.427 . S
C2503 H2493 0.929 . S
C2503 C2501 1.433 . S
C2503 N2506 1.384 . S
C2504 H2495 0.929 . S
C2504 C2496 1.378 . S
C2504 C2499 1.350 . S
C2505 H2492 0.929 . S
C2505 C2497 1.433 . S
C2505 N2507 1.384 . S
N2506 C2502 1.427 . S
N2506 C2503 1.384 . S
N2507 C2499 1.427 . S
N2507 C2505 1.384 . S
H2508 C2514 0.930 . S
H2509 C2518 0.930 . S
H2510 C2523 0.929 . S
H2511 C2521 0.929 . S
H2512 C2516 0.929 . S
H2513 C2522 0.929 . S
C2514 H2508 0.930 . S
C2514 C2515 1.367 . S
C2514 C2522 1.378 . S
C2515 C2514 1.367 . S
C2515 C2523 1.433 . S
C2516 H2512 0.929 . S
C2516 C2518 1.378 . S
C2516 C2520 1.350 . S
C2517 C2520 1.463 . S
C2517 C2522 1.350 . S
C2517 N2525 1.427 . S
C2518 H2509 0.930 . S
C2518 C2516 1.378 . S
C2518 C2519 1.367 . S
C2519 C2518 1.367 . S
C2519 C2521 1.433 . S
C2520 C2516 1.350 . S
C2520 C2517 1.463 . S
C2520 N2524 1.427 . S
C2521 H2511 0.929 . S
C2521 C2519 1.433 . S
C2521 N2524 1.384 . S
C2522 H2513 0.929 . S
C2522 C2514 1.378 . S
C2522 C2517 1.350 . S
C2523 H2510 0.929 . S
C2523 C2515 1.433 . S
C2523 N2525 1.384 . S
N2524 C2520 1.427 . S
N2524 C2521 1.384 . S
N2525 C2517 1.427 . S
N2525 C2523 1.384 . S
H2526 C2532 0.930 . S
H2527 C2536 0.930 . S
H2528 C2541 0.929 . S
H2529 C2539 0.929 . S
H2530 C2534 0.929 . S
H2531 C2540 0.929 . S
C2532 H2526 0.930 . S
C2532 C2533 1.367 . S
C2532 C2540 1.378 . S
C2533 C2532 1.367 . S
C2533 C2541 1.433 . S
C2534 H2530 0.929 . S
C2534 C2536 1.378 . S
C2534 C2538 1.350 . S
C2535 C2538 1.463 . S
C2535 C2540 1.350 . S
C2535 N2543 1.427 . S
C2536 H2527 0.930 . S
C2536 C2534 1.378 . S
C2536 C2537 1.367 . S
C2537 C2536 1.367 . S
C2537 C2539 1.433 . S
C2538 C2534 1.350 . S
C2538 C2535 1.463 . S
C2538 N2542 1.427 . S
C2539 H2529 0.929 . S
C2539 C2537 1.433 . S
C2539 N2542 1.384 . S
C2540 H2531 0.929 . S
C2540 C2532 1.378 . S
C2540 C2535 1.350 . S
C2541 H2528 0.929 . S
C2541 C2533 1.433 . S
C2541 N2543 1.384 . S
N2542 C2538 1.427 . S
N2542 C2539 1.384 . S
N2543 C2535 1.427 . S
N2543 C2541 1.384 . S
H2544 C2550 0.930 . S
H2545 C2554 0.930 . S
H2546 C2559 0.929 . S
H2547 C2557 0.929 . S
H2548 C2552 0.929 . S
H2549 C2558 0.929 . S
C2550 H2544 0.930 . S
C2550 C2551 1.367 . S
C2550 C2558 1.378 . S
C2551 C2550 1.367 . S
C2551 C2559 1.433 . S
C2552 H2548 0.929 . S
C2552 C2554 1.378 . S
C2552 C2556 1.350 . S
C2553 C2556 1.463 . S
C2553 C2558 1.350 . S
C2553 N2561 1.427 . S
C2554 H2545 0.930 . S
C2554 C2552 1.378 . S
C2554 C2555 1.367 . S
C2555 C2554 1.367 . S
C2555 C2557 1.433 . S
C2556 C2552 1.350 . S
C2556 C2553 1.463 . S
C2556 N2560 1.427 . S
C2557 H2547 0.929 . S
C2557 C2555 1.433 . S
C2557 N2560 1.384 . S
C2558 H2549 0.929 . S
C2558 C2550 1.378 . S
C2558 C2553 1.350 . S
C2559 H2546 0.929 . S
C2559 C2551 1.433 . S
C2559 N2561 1.384 . S
N2560 C2556 1.427 . S
N2560 C2557 1.384 . S
N2561 C2553 1.427 . S
N2561 C2559 1.384 . S
H2562 C2568 0.930 . S
H2563 C2572 0.930 . S
H2564 C2577 0.929 . S
H2565 C2575 0.929 . S
H2566 C2570 0.929 . S
H2567 C2576 0.929 . S
C2568 H2562 0.930 . S
C2568 C2569 1.367 . S
C2568 C2576 1.378 . S
C2569 C2568 1.367 . S
C2569 C2577 1.433 . S
C2570 H2566 0.929 . S
C2570 C2572 1.378 . S
C2570 C2574 1.350 . S
C2571 C2574 1.463 . S
C2571 C2576 1.350 . S
C2571 N2579 1.427 . S
C2572 H2563 0.930 . S
C2572 C2570 1.378 . S
C2572 C2573 1.367 . S
C2573 C2572 1.367 . S
C2573 C2575 1.433 . S
C2574 C2570 1.350 . S
C2574 C2571 1.463 . S
C2574 N2578 1.427 . S
C2575 H2565 0.929 . S
C2575 C2573 1.433 . S
C2575 N2578 1.384 . S
C2576 H2567 0.929 . S
C2576 C2568 1.378 . S
C2576 C2571 1.350 . S
C2577 H2564 0.929 . S
C2577 C2569 1.433 . S
C2577 N2579 1.384 . S
N2578 C2574 1.427 . S
N2578 C2575 1.384 . S
N2579 C2571 1.427 . S
N2579 C2577 1.384 . S
H2580 C2586 0.930 . S
H2581 C2590 0.930 1_655 S
H2582 C2595 0.929 . S
H2583 C2593 0.929 . S
H2584 C2588 0.929 . S
H2585 C2594 0.929 . S
C2586 H2580 0.930 . S
C2586 C2587 1.367 . S
C2586 C2594 1.378 . S
C2587 C2586 1.367 . S
C2587 C2595 1.433 1_455 S
C2588 H2584 0.929 . S
C2588 C2590 1.378 1_655 S
C2588 C2592 1.352 1_655 S
C2589 C2592 1.462 1_556 S
C2589 C2594 1.350 . S
C2589 N2597 1.427 1_455 S
C2590 H2581 0.930 1_455 S
C2590 C2588 1.378 1_455 S
C2590 C2591 1.367 . S
C2591 C2590 1.367 . S
C2591 C2593 1.433 . S
C2592 C2588 1.352 1_455 S
C2592 C2589 1.462 1_554 S
C2592 N2596 1.426 1_554 S
C2593 H2583 0.929 . S
C2593 C2591 1.433 . S
C2593 N2596 1.384 1_554 S
C2594 H2585 0.929 . S
C2594 C2586 1.378 . S
C2594 C2589 1.350 . S
C2595 H2582 0.929 . S
C2595 C2587 1.433 1_655 S
C2595 N2597 1.384 . S
N2596 C2592 1.426 1_556 S
N2596 C2593 1.384 1_556 S
N2597 C2589 1.427 1_655 S
N2597 C2595 1.384 . S
H2598 C2604 0.930 . S
H2599 C2608 0.930 . S
H2600 C2613 0.896 1_455 S
H2601 C2611 0.929 . S
H2602 C2606 0.929 . S
H2603 C2612 0.929 . S
C2604 H2598 0.930 . S
C2604 C2605 1.336 1_655 S
C2604 C2612 1.378 . S
C2605 C2604 1.336 1_455 S
C2605 C2613 1.426 1_455 S
C2606 H2602 0.929 . S
C2606 C2608 1.378 . S
C2606 C2610 1.350 . S
C2607 C2610 1.463 . S
C2607 C2612 1.350 . S
C2607 N2615 1.427 . S
C2608 H2599 0.930 . S
C2608 C2606 1.378 . S
C2608 C2609 1.367 . S
C2609 C2608 1.367 . S
C2609 C2611 1.433 . S
C2610 C2606 1.350 . S
C2610 C2607 1.463 . S
C2610 N2614 1.427 . S
C2611 H2601 0.929 . S
C2611 C2609 1.433 . S
C2611 N2614 1.384 . S
C2612 H2603 0.929 . S
C2612 C2604 1.378 . S
C2612 C2607 1.350 . S
C2613 H2600 0.896 1_655 S
C2613 C2605 1.426 1_655 S
C2613 N2615 1.384 . S
N2614 C2610 1.427 . S
N2614 C2611 1.384 . S
N2615 C2607 1.427 . S
N2615 C2613 1.384 . S
H2616 C2622 0.930 . S
H2617 C2626 0.930 . S
H2618 C2631 0.929 . S
H2619 C2629 0.929 . S
H2620 C2624 0.929 . S
H2621 C2630 0.929 . S
C2622 H2616 0.930 . S
C2622 C2623 1.367 . S
C2622 C2630 1.378 . S
C2623 C2622 1.367 . S
C2623 C2631 1.433 . S
C2624 H2620 0.929 . S
C2624 C2626 1.378 . S
C2624 C2628 1.350 . S
C2625 C2628 1.463 . S
C2625 C2630 1.350 . S
C2625 N2633 1.427 . S
C2626 H2617 0.930 . S
C2626 C2624 1.378 . S
C2626 C2627 1.367 . S
C2627 C2626 1.367 . S
C2627 C2629 1.433 . S
C2628 C2624 1.350 . S
C2628 C2625 1.463 . S
C2628 N2632 1.427 . S
C2629 H2619 0.929 . S
C2629 C2627 1.433 . S
C2629 N2632 1.384 . S
C2630 H2621 0.929 . S
C2630 C2622 1.378 . S
C2630 C2625 1.350 . S
C2631 H2618 0.929 . S
C2631 C2623 1.433 . S
C2631 N2633 1.384 . S
N2632 C2628 1.427 . S
N2632 C2629 1.384 . S
N2633 C2625 1.427 . S
N2633 C2631 1.384 . S
H2634 C2640 0.930 . S
H2635 C2644 0.930 . S
H2636 C2649 0.929 . S
H2637 C2647 0.929 . S
H2638 C2642 0.929 . S
H2639 C2648 0.929 . S
C2640 H2634 0.930 . S
C2640 C2641 1.367 . S
C2640 C2648 1.378 . S
C2641 C2640 1.367 . S
C2641 C2649 1.433 . S
C2642 H2638 0.929 . S
C2642 C2644 1.378 . S
C2642 C2646 1.350 . S
C2643 C2646 1.463 . S
C2643 C2648 1.350 . S
C2643 N2651 1.427 . S
C2644 H2635 0.930 . S
C2644 C2642 1.378 . S
C2644 C2645 1.367 . S
C2645 C2644 1.367 . S
C2645 C2647 1.433 . S
C2646 C2642 1.350 . S
C2646 C2643 1.463 . S
C2646 N2650 1.427 . S
C2647 H2637 0.929 . S
C2647 C2645 1.433 . S
C2647 N2650 1.384 . S
C2648 H2639 0.929 . S
C2648 C2640 1.378 . S
C2648 C2643 1.350 . S
C2649 H2636 0.929 . S
C2649 C2641 1.433 . S
C2649 N2651 1.384 . S
N2650 C2646 1.427 . S
N2650 C2647 1.384 . S
N2651 C2643 1.427 . S
N2651 C2649 1.384 . S
H2652 C2658 0.930 . S
H2653 C2662 0.930 . S
H2654 C2667 0.929 . S
H2655 C2665 0.911 1_655 S
H2656 C2660 0.929 . S
H2657 C2666 0.929 . S
C2658 H2652 0.930 . S
C2658 C2659 1.367 1_655 S
C2658 C2666 1.378 . S
C2659 C2658 1.367 1_455 S
C2659 C2667 1.433 . S
C2660 H2656 0.929 . S
C2660 C2662 1.378 . S
C2660 C2664 1.350 . S
C2661 C2664 1.463 . S
C2661 C2666 1.350 1_455 S
C2661 N2669 1.427 . S
C2662 H2653 0.930 . S
C2662 C2660 1.378 . S
C2662 C2663 1.367 . S
C2663 C2662 1.367 . S
C2663 C2665 1.461 . S
C2664 C2660 1.350 . S
C2664 C2661 1.463 . S
C2664 N2668 1.401 1_455 S
C2665 H2655 0.911 1_455 S
C2665 C2663 1.461 . S
C2665 N2668 1.364 1_455 S
C2666 H2657 0.929 . S
C2666 C2658 1.378 . S
C2666 C2661 1.350 1_655 S
C2667 H2654 0.929 . S
C2667 C2659 1.433 . S
C2667 N2669 1.384 . S
N2668 C2664 1.401 1_655 S
N2668 C2665 1.364 1_655 S
N2669 C2661 1.427 . S
N2669 C2667 1.384 . S
H2670 C2676 0.930 . S
H2671 C2680 0.930 . S
H2672 C2685 0.929 . S
H2673 C2683 0.929 . S
H2674 C2678 0.929 . S
H2675 C2684 0.929 . S
C2676 H2670 0.930 . S
C2676 C2677 1.367 . S
C2676 C2684 1.378 . S
C2677 C2676 1.367 . S
C2677 C2685 1.433 . S
C2678 H2674 0.929 . S
C2678 C2680 1.378 . S
C2678 C2682 1.350 . S
C2679 C2682 1.463 . S
C2679 C2684 1.350 . S
C2679 N2687 1.427 . S
C2680 H2671 0.930 . S
C2680 C2678 1.378 . S
C2680 C2681 1.367 . S
C2681 C2680 1.367 . S
C2681 C2683 1.433 . S
C2682 C2678 1.350 . S
C2682 C2679 1.463 . S
C2682 N2686 1.427 . S
C2683 H2673 0.929 . S
C2683 C2681 1.433 . S
C2683 N2686 1.384 . S
C2684 H2675 0.929 . S
C2684 C2676 1.378 . S
C2684 C2679 1.350 . S
C2685 H2672 0.929 . S
C2685 C2677 1.433 . S
C2685 N2687 1.384 . S
N2686 C2682 1.427 . S
N2686 C2683 1.384 . S
N2687 C2679 1.427 . S
N2687 C2685 1.384 . S
H2688 C2694 0.930 . S
H2689 C2698 0.930 . S
H2690 C2703 0.929 . S
H2691 C2701 0.929 . S
H2692 C2696 0.929 . S
H2693 C2702 0.929 . S
C2694 H2688 0.930 . S
C2694 C2695 1.367 . S
C2694 C2702 1.378 . S
C2695 C2694 1.367 . S
C2695 C2703 1.433 . S
C2696 H2692 0.929 . S
C2696 C2698 1.378 . S
C2696 C2700 1.350 . S
C2697 C2700 1.463 . S
C2697 C2702 1.350 . S
C2697 N2705 1.427 . S
C2698 H2689 0.930 . S
C2698 C2696 1.378 . S
C2698 C2699 1.367 . S
C2699 C2698 1.367 . S
C2699 C2701 1.433 . S
C2700 C2696 1.350 . S
C2700 C2697 1.463 . S
C2700 N2704 1.427 . S
C2701 H2691 0.929 . S
C2701 C2699 1.433 . S
C2701 N2704 1.384 . S
C2702 H2693 0.929 . S
C2702 C2694 1.378 . S
C2702 C2697 1.350 . S
C2703 H2690 0.929 . S
C2703 C2695 1.433 . S
C2703 N2705 1.384 . S
N2704 C2700 1.427 . S
N2704 C2701 1.384 . S
N2705 C2697 1.427 . S
N2705 C2703 1.384 . S
H2706 C2712 0.930 1_554 S
H2707 C2716 0.930 . S
H2708 C2721 0.929 . S
H2709 C2719 0.929 . S
H2710 C2714 0.929 . S
H2711 C2720 0.929 . S
C2712 H2706 0.930 1_556 S
C2712 C2713 1.367 . S
C2712 C2720 1.378 . S
C2713 C2712 1.367 . S
C2713 C2721 1.433 . S
C2714 H2710 0.929 . S
C2714 C2716 1.378 . S
C2714 C2718 1.350 . S
C2715 C2718 1.463 . S
C2715 C2720 1.350 . S
C2715 N2723 1.427 . S
C2716 H2707 0.930 . S
C2716 C2714 1.378 . S
C2716 C2717 1.367 . S
C2717 C2716 1.367 . S
C2717 C2719 1.433 . S
C2718 C2714 1.350 . S
C2718 C2715 1.463 . S
C2718 N2722 1.427 . S
C2719 H2709 0.929 . S
C2719 C2717 1.433 . S
C2719 N2722 1.384 . S
C2720 H2711 0.929 . S
C2720 C2712 1.378 . S
C2720 C2715 1.350 . S
C2721 H2708 0.929 . S
C2721 C2713 1.433 . S
C2721 N2723 1.384 . S
N2722 C2718 1.427 . S
N2722 C2719 1.384 . S
N2723 C2715 1.427 . S
N2723 C2721 1.384 . S
H2724 C2730 0.930 . S
H2725 C2734 0.930 . S
H2726 C2739 0.929 . S
H2727 C2737 0.929 . S
H2728 C2732 0.929 . S
H2729 C2738 0.929 . S
C2730 H2724 0.930 . S
C2730 C2731 1.367 . S
C2730 C2738 1.378 . S
C2731 C2730 1.367 . S
C2731 C2739 1.433 . S
C2732 H2728 0.929 . S
C2732 C2734 1.378 . S
C2732 C2736 1.350 . S
C2733 C2736 1.463 . S
C2733 C2738 1.350 . S
C2733 N2741 1.427 . S
C2734 H2725 0.930 . S
C2734 C2732 1.378 . S
C2734 C2735 1.367 . S
C2735 C2734 1.367 . S
C2735 C2737 1.433 . S
C2736 C2732 1.350 . S
C2736 C2733 1.463 . S
C2736 N2740 1.427 . S
C2737 H2727 0.929 . S
C2737 C2735 1.433 . S
C2737 N2740 1.384 . S
C2738 H2729 0.929 . S
C2738 C2730 1.378 . S
C2738 C2733 1.350 . S
C2739 H2726 0.929 . S
C2739 C2731 1.433 . S
C2739 N2741 1.384 . S
N2740 C2736 1.427 . S
N2740 C2737 1.384 . S
N2741 C2733 1.427 . S
N2741 C2739 1.384 . S
H2742 C2748 0.930 . S
H2743 C2752 0.930 . S
H2744 C2757 0.929 . S
H2745 C2755 0.929 . S
H2746 C2750 0.929 . S
H2747 C2756 0.929 . S
C2748 H2742 0.930 . S
C2748 C2749 1.367 . S
C2748 C2756 1.378 . S
C2749 C2748 1.367 . S
C2749 C2757 1.433 . S
C2750 H2746 0.929 . S
C2750 C2752 1.378 . S
C2750 C2754 1.350 . S
C2751 C2754 1.463 . S
C2751 C2756 1.350 . S
C2751 N2759 1.427 . S
C2752 H2743 0.930 . S
C2752 C2750 1.378 . S
C2752 C2753 1.367 . S
C2753 C2752 1.367 . S
C2753 C2755 1.433 . S
C2754 C2750 1.350 . S
C2754 C2751 1.463 . S
C2754 N2758 1.427 . S
C2755 H2745 0.929 . S
C2755 C2753 1.433 . S
C2755 N2758 1.384 . S
C2756 H2747 0.929 . S
C2756 C2748 1.378 . S
C2756 C2751 1.350 . S
C2757 H2744 0.929 . S
C2757 C2749 1.433 . S
C2757 N2759 1.384 . S
N2758 C2754 1.427 . S
N2758 C2755 1.384 . S
N2759 C2751 1.427 . S
N2759 C2757 1.384 . S
H2760 C2766 0.930 . S
H2761 C2770 0.930 . S
H2762 C2775 0.929 . S
H2763 C2773 0.929 . S
H2764 C2768 0.929 . S
H2765 C2774 0.929 . S
C2766 H2760 0.930 . S
C2766 C2767 1.367 . S
C2766 C2774 1.378 . S
C2767 C2766 1.367 . S
C2767 C2775 1.433 . S
C2768 H2764 0.929 . S
C2768 C2770 1.378 . S
C2768 C2772 1.350 . S
C2769 C2772 1.463 . S
C2769 C2774 1.350 . S
C2769 N2777 1.427 . S
C2770 H2761 0.930 . S
C2770 C2768 1.378 . S
C2770 C2771 1.367 . S
C2771 C2770 1.367 . S
C2771 C2773 1.433 . S
C2772 C2768 1.350 . S
C2772 C2769 1.463 . S
C2772 N2776 1.427 . S
C2773 H2763 0.929 . S
C2773 C2771 1.433 . S
C2773 N2776 1.384 . S
C2774 H2765 0.929 . S
C2774 C2766 1.378 . S
C2774 C2769 1.350 . S
C2775 H2762 0.929 . S
C2775 C2767 1.433 . S
C2775 N2777 1.384 . S
N2776 C2772 1.427 . S
N2776 C2773 1.384 . S
N2777 C2769 1.427 . S
N2777 C2775 1.384 . S
H2778 C2784 0.930 . S
H2779 C2788 0.930 . S
H2780 C2793 0.929 . S
H2781 C2791 0.929 . S
H2782 C2786 0.929 . S
H2783 C2792 0.929 . S
C2784 H2778 0.930 . S
C2784 C2785 1.367 . S
C2784 C2792 1.378 . S
C2785 C2784 1.367 . S
C2785 C2793 1.433 . S
C2786 H2782 0.929 . S
C2786 C2788 1.378 . S
C2786 C2790 1.350 . S
C2787 C2790 1.463 . S
C2787 C2792 1.350 . S
C2787 N2795 1.427 . S
C2788 H2779 0.930 . S
C2788 C2786 1.378 . S
C2788 C2789 1.367 . S
C2789 C2788 1.367 . S
C2789 C2791 1.433 . S
C2790 C2786 1.350 . S
C2790 C2787 1.463 . S
C2790 N2794 1.427 . S
C2791 H2781 0.929 . S
C2791 C2789 1.433 . S
C2791 N2794 1.384 . S
C2792 H2783 0.929 . S
C2792 C2784 1.378 . S
C2792 C2787 1.350 . S
C2793 H2780 0.929 . S
C2793 C2785 1.433 . S
C2793 N2795 1.384 . S
N2794 C2790 1.427 . S
N2794 C2791 1.384 . S
N2795 C2787 1.427 . S
N2795 C2793 1.384 . S
H2796 C2802 0.930 . S
H2797 C2806 0.930 . S
H2798 C2811 0.929 . S
H2799 C2809 0.929 . S
H2800 C2804 0.929 . S
H2801 C2810 0.929 . S
C2802 H2796 0.930 . S
C2802 C2803 1.367 . S
C2802 C2810 1.378 . S
C2803 C2802 1.367 . S
C2803 C2811 1.433 . S
C2804 H2800 0.929 . S
C2804 C2806 1.378 . S
C2804 C2808 1.350 . S
C2805 C2808 1.463 . S
C2805 C2810 1.350 . S
C2805 N2813 1.427 . S
C2806 H2797 0.930 . S
C2806 C2804 1.378 . S
C2806 C2807 1.367 . S
C2807 C2806 1.367 . S
C2807 C2809 1.433 . S
C2808 C2804 1.350 . S
C2808 C2805 1.463 . S
C2808 N2812 1.427 . S
C2809 H2799 0.929 . S
C2809 C2807 1.433 . S
C2809 N2812 1.384 . S
C2810 H2801 0.929 . S
C2810 C2802 1.378 . S
C2810 C2805 1.350 . S
C2811 H2798 0.929 . S
C2811 C2803 1.433 . S
C2811 N2813 1.384 . S
N2812 C2808 1.427 . S
N2812 C2809 1.384 . S
N2813 C2805 1.427 . S
N2813 C2811 1.384 . S
H2814 C2820 0.930 . S
H2815 C2824 0.930 . S
H2816 C2829 0.929 . S
H2817 C2827 0.929 . S
H2818 C2822 0.929 . S
H2819 C2828 0.929 . S
C2820 H2814 0.930 . S
C2820 C2821 1.367 . S
C2820 C2828 1.378 . S
C2821 C2820 1.367 . S
C2821 C2829 1.433 . S
C2822 H2818 0.929 . S
C2822 C2824 1.378 . S
C2822 C2826 1.350 . S
C2823 C2826 1.463 . S
C2823 C2828 1.350 . S
C2823 N2831 1.427 . S
C2824 H2815 0.930 . S
C2824 C2822 1.378 . S
C2824 C2825 1.367 . S
C2825 C2824 1.367 . S
C2825 C2827 1.433 . S
C2826 C2822 1.350 . S
C2826 C2823 1.463 . S
C2826 N2830 1.427 . S
C2827 H2817 0.929 . S
C2827 C2825 1.433 . S
C2827 N2830 1.384 . S
C2828 H2819 0.929 . S
C2828 C2820 1.378 . S
C2828 C2823 1.350 . S
C2829 H2816 0.929 . S
C2829 C2821 1.433 . S
C2829 N2831 1.384 . S
N2830 C2826 1.427 . S
N2830 C2827 1.384 . S
N2831 C2823 1.427 . S
N2831 C2829 1.384 . S
H2832 C2838 0.930 . S
H2833 C2842 0.930 . S
H2834 C2847 0.929 . S
H2835 C2845 0.929 . S
H2836 C2840 0.929 . S
H2837 C2846 0.929 . S
C2838 H2832 0.930 . S
C2838 C2839 1.367 . S
C2838 C2846 1.378 . S
C2839 C2838 1.367 . S
C2839 C2847 1.433 . S
C2840 H2836 0.929 . S
C2840 C2842 1.378 . S
C2840 C2844 1.350 . S
C2841 C2844 1.463 . S
C2841 C2846 1.350 . S
C2841 N2849 1.427 . S
C2842 H2833 0.930 . S
C2842 C2840 1.378 . S
C2842 C2843 1.367 . S
C2843 C2842 1.367 . S
C2843 C2845 1.433 . S
C2844 C2840 1.350 . S
C2844 C2841 1.463 . S
C2844 N2848 1.427 . S
C2845 H2835 0.929 . S
C2845 C2843 1.433 . S
C2845 N2848 1.384 . S
C2846 H2837 0.929 . S
C2846 C2838 1.378 . S
C2846 C2841 1.350 . S
C2847 H2834 0.929 . S
C2847 C2839 1.433 . S
C2847 N2849 1.384 . S
N2848 C2844 1.427 . S
N2848 C2845 1.384 . S
N2849 C2841 1.427 . S
N2849 C2847 1.384 . S
H2850 C2856 0.930 . S
H2851 C2860 0.930 . S
H2852 C2865 0.929 . S
H2853 C2863 0.929 . S
H2854 C2858 0.929 . S
H2855 C2864 0.929 . S
C2856 H2850 0.930 . S
C2856 C2857 1.367 . S
C2856 C2864 1.378 . S
C2857 C2856 1.367 . S
C2857 C2865 1.433 . S
C2858 H2854 0.929 . S
C2858 C2860 1.378 . S
C2858 C2862 1.350 . S
C2859 C2862 1.463 . S
C2859 C2864 1.350 . S
C2859 N2867 1.427 . S
C2860 H2851 0.930 . S
C2860 C2858 1.378 . S
C2860 C2861 1.367 . S
C2861 C2860 1.367 . S
C2861 C2863 1.433 . S
C2862 C2858 1.350 . S
C2862 C2859 1.463 . S
C2862 N2866 1.427 . S
C2863 H2853 0.929 . S
C2863 C2861 1.433 . S
C2863 N2866 1.384 . S
C2864 H2855 0.929 . S
C2864 C2856 1.378 . S
C2864 C2859 1.350 . S
C2865 H2852 0.929 . S
C2865 C2857 1.433 . S
C2865 N2867 1.384 . S
N2866 C2862 1.427 . S
N2866 C2863 1.384 . S
N2867 C2859 1.427 . S
N2867 C2865 1.384 . S
H2868 C2874 0.930 . S
H2869 C2878 0.930 . S
H2870 C2883 0.929 . S
H2871 C2881 0.929 . S
H2872 C2876 0.929 . S
H2873 C2882 0.929 . S
C2874 H2868 0.930 . S
C2874 C2875 1.367 . S
C2874 C2882 1.378 . S
C2875 C2874 1.367 . S
C2875 C2883 1.433 . S
C2876 H2872 0.929 . S
C2876 C2878 1.378 . S
C2876 C2880 1.350 . S
C2877 C2880 1.463 . S
C2877 C2882 1.350 . S
C2877 N2885 1.427 . S
C2878 H2869 0.930 . S
C2878 C2876 1.378 . S
C2878 C2879 1.367 . S
C2879 C2878 1.367 . S
C2879 C2881 1.433 . S
C2880 C2876 1.350 . S
C2880 C2877 1.463 . S
C2880 N2884 1.427 . S
C2881 H2871 0.929 . S
C2881 C2879 1.433 . S
C2881 N2884 1.384 . S
C2882 H2873 0.929 . S
C2882 C2874 1.378 . S
C2882 C2877 1.350 . S
C2883 H2870 0.929 . S
C2883 C2875 1.433 . S
C2883 N2885 1.384 . S
N2884 C2880 1.427 . S
N2884 C2881 1.384 . S
N2885 C2877 1.427 . S
N2885 C2883 1.384 . S
H2886 C2892 0.930 . S
H2887 C2896 0.930 1_545 S
H2888 C2901 0.929 . S
H2889 C2899 0.965 . S
H2890 C2894 0.929 . S
H2891 C2900 0.929 . S
C2892 H2886 0.930 . S
C2892 C2893 1.367 1_556 S
C2892 C2900 1.378 . S
C2893 C2892 1.367 1_554 S
C2893 C2901 1.433 . S
C2894 H2890 0.929 . S
C2894 C2896 1.376 . S
C2894 C2898 1.350 . S
C2895 C2898 1.463 . S
C2895 C2900 1.350 1_554 S
C2895 N2903 1.427 . S
C2896 H2887 0.930 1_565 S
C2896 C2894 1.376 . S
C2896 C2897 1.369 1_565 S
C2897 C2896 1.369 1_545 S
C2897 C2899 1.398 1_554 S
C2898 C2894 1.350 . S
C2898 C2895 1.463 . S
C2898 N2902 1.433 1_554 S
C2899 H2889 0.965 . S
C2899 C2897 1.398 1_556 S
C2899 N2902 1.380 1_545 S
C2900 H2891 0.929 . S
C2900 C2892 1.378 . S
C2900 C2895 1.350 1_556 S
C2901 H2888 0.929 . S
C2901 C2893 1.433 . S
C2901 N2903 1.384 . S
N2902 C2898 1.433 1_556 S
N2902 C2899 1.380 1_565 S
N2903 C2895 1.427 . S
N2903 C2901 1.384 . S
H2904 C2910 0.930 . S
H2905 C2914 0.930 . S
H2906 C2919 0.929 . S
H2907 C2917 0.929 . S
H2908 C2912 0.929 . S
H2909 C2918 0.929 . S
C2910 H2904 0.930 . S
C2910 C2911 1.367 . S
C2910 C2918 1.378 . S
C2911 C2910 1.367 . S
C2911 C2919 1.433 . S
C2912 H2908 0.929 . S
C2912 C2914 1.378 . S
C2912 C2916 1.350 . S
C2913 C2916 1.463 . S
C2913 C2918 1.350 . S
C2913 N2921 1.427 . S
C2914 H2905 0.930 . S
C2914 C2912 1.378 . S
C2914 C2915 1.367 . S
C2915 C2914 1.367 . S
C2915 C2917 1.433 . S
C2916 C2912 1.350 . S
C2916 C2913 1.463 . S
C2916 N2920 1.427 . S
C2917 H2907 0.929 . S
C2917 C2915 1.433 . S
C2917 N2920 1.384 . S
C2918 H2909 0.929 . S
C2918 C2910 1.378 . S
C2918 C2913 1.350 . S
C2919 H2906 0.929 . S
C2919 C2911 1.433 . S
C2919 N2921 1.384 . S
N2920 C2916 1.427 . S
N2920 C2917 1.384 . S
N2921 C2913 1.427 . S
N2921 C2919 1.384 . S
H2922 C2928 0.930 1_556 S
H2923 C2932 0.930 . S
H2924 C2937 0.929 . S
H2925 C2935 0.929 . S
H2926 C2930 0.929 . S
H2927 C2936 0.929 1_556 S
C2928 H2922 0.930 1_554 S
C2928 C2929 1.367 . S
C2928 C2936 1.378 . S
C2929 C2928 1.367 . S
C2929 C2937 1.433 . S
C2930 H2926 0.929 . S
C2930 C2932 1.378 . S
C2930 C2934 1.350 . S
C2931 C2934 1.463 . S
C2931 C2936 1.350 . S
C2931 N2939 1.427 . S
C2932 H2923 0.930 . S
C2932 C2930 1.378 . S
C2932 C2933 1.367 . S
C2933 C2932 1.367 . S
C2933 C2935 1.433 . S
C2934 C2930 1.350 . S
C2934 C2931 1.463 . S
C2934 N2938 1.427 . S
C2935 H2925 0.929 . S
C2935 C2933 1.433 . S
C2935 N2938 1.384 . S
C2936 H2927 0.929 1_554 S
C2936 C2928 1.378 . S
C2936 C2931 1.350 . S
C2937 H2924 0.929 . S
C2937 C2929 1.433 . S
C2937 N2939 1.384 . S
N2938 C2934 1.427 . S
N2938 C2935 1.384 . S
N2939 C2931 1.427 . S
N2939 C2937 1.384 . S
H2940 C2946 0.930 . S
H2941 C2950 0.930 . S
H2942 C2955 0.929 . S
H2943 C2953 0.929 . S
H2944 C2948 0.929 . S
H2945 C2954 0.929 . S
C2946 H2940 0.930 . S
C2946 C2947 1.367 . S
C2946 C2954 1.378 . S
C2947 C2946 1.367 . S
C2947 C2955 1.433 . S
C2948 H2944 0.929 . S
C2948 C2950 1.378 . S
C2948 C2952 1.350 . S
C2949 C2952 1.463 . S
C2949 C2954 1.350 . S
C2949 N2957 1.427 . S
C2950 H2941 0.930 . S
C2950 C2948 1.378 . S
C2950 C2951 1.367 . S
C2951 C2950 1.367 . S
C2951 C2953 1.433 . S
C2952 C2948 1.350 . S
C2952 C2949 1.463 . S
C2952 N2956 1.427 . S
C2953 H2943 0.929 . S
C2953 C2951 1.433 . S
C2953 N2956 1.384 . S
C2954 H2945 0.929 . S
C2954 C2946 1.378 . S
C2954 C2949 1.350 . S
C2955 H2942 0.929 . S
C2955 C2947 1.433 . S
C2955 N2957 1.384 . S
N2956 C2952 1.427 . S
N2956 C2953 1.384 . S
N2957 C2949 1.427 . S
N2957 C2955 1.384 . S
H2958 C2964 0.930 . S
H2959 C2968 0.930 . S
H2960 C2973 0.929 . S
H2961 C2971 0.929 . S
H2962 C2966 0.929 . S
H2963 C2972 0.929 . S
C2964 H2958 0.930 . S
C2964 C2965 1.367 . S
C2964 C2972 1.378 . S
C2965 C2964 1.367 . S
C2965 C2973 1.433 . S
C2966 H2962 0.929 . S
C2966 C2968 1.378 . S
C2966 C2970 1.350 . S
C2967 C2970 1.463 . S
C2967 C2972 1.350 . S
C2967 N2975 1.427 . S
C2968 H2959 0.930 . S
C2968 C2966 1.378 . S
C2968 C2969 1.367 . S
C2969 C2968 1.367 . S
C2969 C2971 1.433 . S
C2970 C2966 1.350 . S
C2970 C2967 1.463 . S
C2970 N2974 1.427 . S
C2971 H2961 0.929 . S
C2971 C2969 1.433 . S
C2971 N2974 1.384 . S
C2972 H2963 0.929 . S
C2972 C2964 1.378 . S
C2972 C2967 1.350 . S
C2973 H2960 0.929 . S
C2973 C2965 1.433 . S
C2973 N2975 1.384 . S
N2974 C2970 1.427 . S
N2974 C2971 1.384 . S
N2975 C2967 1.427 . S
N2975 C2973 1.384 . S
H2976 C2982 0.930 . S
H2977 C2986 0.930 . S
H2978 C2991 0.929 . S
H2979 C2989 0.929 . S
H2980 C2984 0.929 . S
H2981 C2990 0.929 . S
C2982 H2976 0.930 . S
C2982 C2983 1.367 . S
C2982 C2990 1.378 . S
C2983 C2982 1.367 . S
C2983 C2991 1.433 . S
C2984 H2980 0.929 . S
C2984 C2986 1.378 . S
C2984 C2988 1.350 . S
C2985 C2988 1.463 . S
C2985 C2990 1.350 . S
C2985 N2993 1.427 . S
C2986 H2977 0.930 . S
C2986 C2984 1.378 . S
C2986 C2987 1.367 . S
C2987 C2986 1.367 . S
C2987 C2989 1.433 . S
C2988 C2984 1.350 . S
C2988 C2985 1.463 . S
C2988 N2992 1.427 . S
C2989 H2979 0.929 . S
C2989 C2987 1.433 . S
C2989 N2992 1.384 . S
C2990 H2981 0.929 . S
C2990 C2982 1.378 . S
C2990 C2985 1.350 . S
C2991 H2978 0.929 . S
C2991 C2983 1.433 . S
C2991 N2993 1.384 . S
N2992 C2988 1.427 . S
N2992 C2989 1.384 . S
N2993 C2985 1.427 . S
N2993 C2991 1.384 . S
H2994 C3000 0.930 . S
H2995 C3004 0.930 . S
H2996 C3009 0.929 . S
H2997 C3007 0.929 . S
H2998 C3002 0.929 . S
H2999 C3008 0.929 . S
C3000 H2994 0.930 . S
C3000 C3001 1.367 . S
C3000 C3008 1.378 . S
C3001 C3000 1.367 . S
C3001 C3009 1.433 . S
C3002 H2998 0.929 . S
C3002 C3004 1.378 . S
C3002 C3006 1.350 . S
C3003 C3006 1.463 . S
C3003 C3008 1.350 . S
C3003 N3011 1.427 . S
C3004 H2995 0.930 . S
C3004 C3002 1.378 . S
C3004 C3005 1.367 . S
C3005 C3004 1.367 . S
C3005 C3007 1.433 . S
C3006 C3002 1.350 . S
C3006 C3003 1.463 . S
C3006 N3010 1.427 . S
C3007 H2997 0.929 . S
C3007 C3005 1.433 . S
C3007 N3010 1.384 . S
C3008 H2999 0.929 . S
C3008 C3000 1.378 . S
C3008 C3003 1.350 . S
C3009 H2996 0.929 . S
C3009 C3001 1.433 . S
C3009 N3011 1.384 . S
N3010 C3006 1.427 . S
N3010 C3007 1.384 . S
N3011 C3003 1.427 . S
N3011 C3009 1.384 . S
H3012 C3018 0.930 . S
H3013 C3022 0.930 . S
H3014 C3027 0.929 . S
H3015 C3025 0.929 . S
H3016 C3020 0.929 . S
H3017 C3026 0.929 . S
C3018 H3012 0.930 . S
C3018 C3019 1.367 . S
C3018 C3026 1.378 . S
C3019 C3018 1.367 . S
C3019 C3027 1.433 . S
C3020 H3016 0.929 . S
C3020 C3022 1.378 . S
C3020 C3024 1.350 . S
C3021 C3024 1.463 . S
C3021 C3026 1.350 . S
C3021 N3029 1.427 . S
C3022 H3013 0.930 . S
C3022 C3020 1.378 . S
C3022 C3023 1.367 . S
C3023 C3022 1.367 . S
C3023 C3025 1.433 . S
C3024 C3020 1.350 . S
C3024 C3021 1.463 . S
C3024 N3028 1.427 . S
C3025 H3015 0.929 . S
C3025 C3023 1.433 . S
C3025 N3028 1.384 . S
C3026 H3017 0.929 . S
C3026 C3018 1.378 . S
C3026 C3021 1.350 . S
C3027 H3014 0.929 . S
C3027 C3019 1.433 . S
C3027 N3029 1.384 . S
N3028 C3024 1.427 . S
N3028 C3025 1.384 . S
N3029 C3021 1.427 . S
N3029 C3027 1.384 . S
H3030 C3036 0.930 . S
H3031 C3040 0.930 . S
H3032 C3045 0.929 . S
H3033 C3043 0.929 . S
H3034 C3038 0.929 . S
H3035 C3044 0.929 . S
C3036 H3030 0.930 . S
C3036 C3037 1.367 . S
C3036 C3044 1.378 . S
C3037 C3036 1.367 . S
C3037 C3045 1.433 . S
C3038 H3034 0.929 . S
C3038 C3040 1.378 . S
C3038 C3042 1.350 . S
C3039 C3042 1.463 . S
C3039 C3044 1.350 . S
C3039 N3047 1.427 . S
C3040 H3031 0.930 . S
C3040 C3038 1.378 . S
C3040 C3041 1.367 . S
C3041 C3040 1.367 . S
C3041 C3043 1.433 . S
C3042 C3038 1.350 . S
C3042 C3039 1.463 . S
C3042 N3046 1.427 . S
C3043 H3033 0.929 . S
C3043 C3041 1.433 . S
C3043 N3046 1.384 . S
C3044 H3035 0.929 . S
C3044 C3036 1.378 . S
C3044 C3039 1.350 . S
C3045 H3032 0.929 . S
C3045 C3037 1.433 . S
C3045 N3047 1.384 . S
N3046 C3042 1.427 . S
N3046 C3043 1.384 . S
N3047 C3039 1.427 . S
N3047 C3045 1.384 . S
H3048 C3054 0.930 . S
H3049 C3058 0.930 . S
H3050 C3063 0.929 . S
H3051 C3061 0.929 . S
H3052 C3056 0.929 . S
H3053 C3062 0.929 . S
C3054 H3048 0.930 . S
C3054 C3055 1.367 . S
C3054 C3062 1.378 . S
C3055 C3054 1.367 . S
C3055 C3063 1.433 . S
C3056 H3052 0.929 . S
C3056 C3058 1.378 . S
C3056 C3060 1.350 . S
C3057 C3060 1.463 . S
C3057 C3062 1.350 . S
C3057 N3065 1.427 . S
C3058 H3049 0.930 . S
C3058 C3056 1.378 . S
C3058 C3059 1.367 . S
C3059 C3058 1.367 . S
C3059 C3061 1.433 . S
C3060 C3056 1.350 . S
C3060 C3057 1.463 . S
C3060 N3064 1.427 . S
C3061 H3051 0.929 . S
C3061 C3059 1.433 . S
C3061 N3064 1.384 . S
C3062 H3053 0.929 . S
C3062 C3054 1.378 . S
C3062 C3057 1.350 . S
C3063 H3050 0.929 . S
C3063 C3055 1.433 . S
C3063 N3065 1.384 . S
N3064 C3060 1.427 . S
N3064 C3061 1.384 . S
N3065 C3057 1.427 . S
N3065 C3063 1.384 . S
H3066 C3072 0.930 . S
H3067 C3076 0.930 . S
H3068 C3081 0.929 . S
H3069 C3079 0.929 . S
H3070 C3074 0.929 . S
H3071 C3080 0.929 . S
C3072 H3066 0.930 . S
C3072 C3073 1.367 . S
C3072 C3080 1.378 . S
C3073 C3072 1.367 . S
C3073 C3081 1.433 . S
C3074 H3070 0.929 . S
C3074 C3076 1.378 . S
C3074 C3078 1.350 . S
C3075 C3078 1.463 . S
C3075 C3080 1.350 . S
C3075 N3083 1.427 . S
C3076 H3067 0.930 . S
C3076 C3074 1.378 . S
C3076 C3077 1.367 . S
C3077 C3076 1.367 . S
C3077 C3079 1.433 . S
C3078 C3074 1.350 . S
C3078 C3075 1.463 . S
C3078 N3082 1.427 . S
C3079 H3069 0.929 . S
C3079 C3077 1.433 . S
C3079 N3082 1.384 . S
C3080 H3071 0.929 . S
C3080 C3072 1.378 . S
C3080 C3075 1.350 . S
C3081 H3068 0.929 . S
C3081 C3073 1.433 . S
C3081 N3083 1.384 . S
N3082 C3078 1.427 . S
N3082 C3079 1.384 . S
N3083 C3075 1.427 . S
N3083 C3081 1.384 . S
H3084 C3090 0.930 . S
H3085 C3094 0.930 . S
H3086 C3099 0.929 . S
H3087 C3097 0.929 . S
H3088 C3092 0.929 . S
H3089 C3098 0.929 . S
C3090 H3084 0.930 . S
C3090 C3091 1.367 . S
C3090 C3098 1.378 . S
C3091 C3090 1.367 . S
C3091 C3099 1.433 . S
C3092 H3088 0.929 . S
C3092 C3094 1.378 . S
C3092 C3096 1.350 . S
C3093 C3096 1.463 . S
C3093 C3098 1.350 . S
C3093 N3101 1.427 . S
C3094 H3085 0.930 . S
C3094 C3092 1.378 . S
C3094 C3095 1.367 . S
C3095 C3094 1.367 . S
C3095 C3097 1.433 . S
C3096 C3092 1.350 . S
C3096 C3093 1.463 . S
C3096 N3100 1.427 . S
C3097 H3087 0.929 . S
C3097 C3095 1.433 . S
C3097 N3100 1.384 . S
C3098 H3089 0.929 . S
C3098 C3090 1.378 . S
C3098 C3093 1.350 . S
C3099 H3086 0.929 . S
C3099 C3091 1.433 . S
C3099 N3101 1.384 . S
N3100 C3096 1.427 . S
N3100 C3097 1.384 . S
N3101 C3093 1.427 . S
N3101 C3099 1.384 . S
H3102 C3108 0.930 . S
H3103 C3112 0.930 . S
H3104 C3117 0.929 . S
H3105 C3115 0.929 . S
H3106 C3110 0.929 . S
H3107 C3116 0.929 . S
C3108 H3102 0.930 . S
C3108 C3109 1.367 . S
C3108 C3116 1.378 . S
C3109 C3108 1.367 . S
C3109 C3117 1.433 . S
C3110 H3106 0.929 . S
C3110 C3112 1.378 . S
C3110 C3114 1.350 . S
C3111 C3114 1.463 . S
C3111 C3116 1.350 . S
C3111 N3119 1.427 . S
C3112 H3103 0.930 . S
C3112 C3110 1.378 . S
C3112 C3113 1.367 . S
C3113 C3112 1.367 . S
C3113 C3115 1.433 . S
C3114 C3110 1.350 . S
C3114 C3111 1.463 . S
C3114 N3118 1.427 . S
C3115 H3105 0.929 . S
C3115 C3113 1.433 . S
C3115 N3118 1.384 . S
C3116 H3107 0.929 . S
C3116 C3108 1.378 . S
C3116 C3111 1.350 . S
C3117 H3104 0.929 . S
C3117 C3109 1.433 . S
C3117 N3119 1.384 . S
N3118 C3114 1.427 . S
N3118 C3115 1.384 . S
N3119 C3111 1.427 . S
N3119 C3117 1.384 . S
H3120 C3126 0.930 . S
H3121 C3130 0.930 . S
H3122 C3135 0.929 . S
H3123 C3133 0.929 . S
H3124 C3128 0.929 . S
H3125 C3134 0.929 . S
C3126 H3120 0.930 . S
C3126 C3127 1.367 . S
C3126 C3134 1.378 . S
C3127 C3126 1.367 . S
C3127 C3135 1.433 . S
C3128 H3124 0.929 . S
C3128 C3130 1.378 . S
C3128 C3132 1.350 . S
C3129 C3132 1.463 . S
C3129 C3134 1.350 . S
C3129 N3137 1.427 . S
C3130 H3121 0.930 . S
C3130 C3128 1.378 . S
C3130 C3131 1.367 . S
C3131 C3130 1.367 . S
C3131 C3133 1.433 . S
C3132 C3128 1.350 . S
C3132 C3129 1.463 . S
C3132 N3136 1.427 . S
C3133 H3123 0.929 . S
C3133 C3131 1.433 . S
C3133 N3136 1.384 . S
C3134 H3125 0.929 . S
C3134 C3126 1.378 . S
C3134 C3129 1.350 . S
C3135 H3122 0.929 . S
C3135 C3127 1.433 . S
C3135 N3137 1.384 . S
N3136 C3132 1.427 . S
N3136 C3133 1.384 . S
N3137 C3129 1.427 . S
N3137 C3135 1.384 . S
H3138 C3144 0.930 . S
H3139 C3148 0.930 . S
H3140 C3153 0.929 . S
H3141 C3151 0.929 . S
H3142 C3146 0.929 . S
H3143 C3152 0.929 . S
C3144 H3138 0.930 . S
C3144 C3145 1.367 . S
C3144 C3152 1.378 . S
C3145 C3144 1.367 . S
C3145 C3153 1.433 . S
C3146 H3142 0.929 . S
C3146 C3148 1.378 . S
C3146 C3150 1.350 . S
C3147 C3150 1.463 . S
C3147 C3152 1.350 . S
C3147 N3155 1.427 . S
C3148 H3139 0.930 . S
C3148 C3146 1.378 . S
C3148 C3149 1.367 . S
C3149 C3148 1.367 . S
C3149 C3151 1.433 . S
C3150 C3146 1.350 . S
C3150 C3147 1.463 . S
C3150 N3154 1.427 . S
C3151 H3141 0.929 . S
C3151 C3149 1.433 . S
C3151 N3154 1.384 . S
C3152 H3143 0.929 . S
C3152 C3144 1.378 . S
C3152 C3147 1.350 . S
C3153 H3140 0.929 . S
C3153 C3145 1.433 . S
C3153 N3155 1.384 . S
N3154 C3150 1.427 . S
N3154 C3151 1.384 . S
N3155 C3147 1.427 . S
N3155 C3153 1.384 . S
H3156 C3162 0.930 . S
H3157 C3166 0.930 . S
H3158 C3171 0.929 . S
H3159 C3169 0.929 . S
H3160 C3164 0.929 . S
H3161 C3170 0.929 . S
C3162 H3156 0.930 . S
C3162 C3163 1.367 . S
C3162 C3170 1.378 . S
C3163 C3162 1.367 . S
C3163 C3171 1.433 . S
C3164 H3160 0.929 . S
C3164 C3166 1.378 . S
C3164 C3168 1.350 . S
C3165 C3168 1.463 . S
C3165 C3170 1.350 . S
C3165 N3173 1.427 . S
C3166 H3157 0.930 . S
C3166 C3164 1.378 . S
C3166 C3167 1.367 . S
C3167 C3166 1.367 . S
C3167 C3169 1.433 1_655 S
C3168 C3164 1.350 . S
C3168 C3165 1.463 . S
C3168 N3172 1.427 . S
C3169 H3159 0.929 . S
C3169 C3167 1.433 1_455 S
C3169 N3172 1.384 1_455 S
C3170 H3161 0.929 . S
C3170 C3162 1.378 . S
C3170 C3165 1.350 . S
C3171 H3158 0.929 . S
C3171 C3163 1.433 . S
C3171 N3173 1.384 . S
N3172 C3168 1.427 . S
N3172 C3169 1.384 1_655 S
N3173 C3165 1.427 . S
N3173 C3171 1.384 . S
H3174 C3180 0.930 . S
H3175 C3184 0.930 . S
H3176 C3189 0.929 . S
H3177 C3187 0.929 . S
H3178 C3182 0.929 . S
H3179 C3188 0.929 . S
C3180 H3174 0.930 . S
C3180 C3181 1.367 . S
C3180 C3188 1.378 . S
C3181 C3180 1.367 . S
C3181 C3189 1.433 . S
C3182 H3178 0.929 . S
C3182 C3184 1.378 . S
C3182 C3186 1.350 . S
C3183 C3186 1.463 . S
C3183 C3188 1.350 . S
C3183 N3191 1.427 . S
C3184 H3175 0.930 . S
C3184 C3182 1.378 . S
C3184 C3185 1.367 . S
C3185 C3184 1.367 . S
C3185 C3187 1.433 . S
C3186 C3182 1.350 . S
C3186 C3183 1.463 . S
C3186 N3190 1.427 . S
C3187 H3177 0.929 . S
C3187 C3185 1.433 . S
C3187 N3190 1.384 . S
C3188 H3179 0.929 . S
C3188 C3180 1.378 . S
C3188 C3183 1.350 . S
C3189 H3176 0.929 . S
C3189 C3181 1.433 . S
C3189 N3191 1.384 . S
N3190 C3186 1.427 . S
N3190 C3187 1.384 . S
N3191 C3183 1.427 . S
N3191 C3189 1.384 . S
H3192 C3198 0.930 . S
H3193 C3202 0.930 . S
H3194 C3207 0.929 . S
H3195 C3205 0.929 . S
H3196 C3200 0.929 . S
H3197 C3206 0.929 . S
C3198 H3192 0.930 . S
C3198 C3199 1.367 . S
C3198 C3206 1.378 . S
C3199 C3198 1.367 . S
C3199 C3207 1.433 . S
C3200 H3196 0.929 . S
C3200 C3202 1.378 . S
C3200 C3204 1.350 . S
C3201 C3204 1.463 . S
C3201 C3206 1.350 . S
C3201 N3209 1.427 . S
C3202 H3193 0.930 . S
C3202 C3200 1.378 . S
C3202 C3203 1.367 . S
C3203 C3202 1.367 . S
C3203 C3205 1.433 . S
C3204 C3200 1.350 . S
C3204 C3201 1.463 . S
C3204 N3208 1.427 . S
C3205 H3195 0.929 . S
C3205 C3203 1.433 . S
C3205 N3208 1.384 . S
C3206 H3197 0.929 . S
C3206 C3198 1.378 . S
C3206 C3201 1.350 . S
C3207 H3194 0.929 . S
C3207 C3199 1.433 . S
C3207 N3209 1.384 . S
N3208 C3204 1.427 . S
N3208 C3205 1.384 . S
N3209 C3201 1.427 . S
N3209 C3207 1.384 . S
H3210 C3216 0.930 . S
H3211 C3220 0.930 . S
H3212 C3225 0.929 . S
H3213 C3223 0.929 . S
H3214 C3218 0.929 . S
H3215 C3224 0.929 . S
C3216 H3210 0.930 . S
C3216 C3217 1.367 . S
C3216 C3224 1.378 . S
C3217 C3216 1.367 . S
C3217 C3225 1.433 . S
C3218 H3214 0.929 . S
C3218 C3220 1.378 . S
C3218 C3222 1.350 . S
C3219 C3222 1.463 . S
C3219 C3224 1.350 . S
C3219 N3227 1.427 . S
C3220 H3211 0.930 . S
C3220 C3218 1.378 . S
C3220 C3221 1.367 . S
C3221 C3220 1.367 . S
C3221 C3223 1.433 . S
C3222 C3218 1.350 . S
C3222 C3219 1.463 . S
C3222 N3226 1.427 . S
C3223 H3213 0.929 . S
C3223 C3221 1.433 . S
C3223 N3226 1.384 . S
C3224 H3215 0.929 . S
C3224 C3216 1.378 . S
C3224 C3219 1.350 . S
C3225 H3212 0.929 . S
C3225 C3217 1.433 . S
C3225 N3227 1.384 . S
N3226 C3222 1.427 . S
N3226 C3223 1.384 . S
N3227 C3219 1.427 . S
N3227 C3225 1.384 . S
H3228 C3234 0.930 . S
H3229 C3238 0.930 . S
H3230 C3243 0.929 . S
H3231 C3241 0.929 . S
H3232 C3236 0.929 . S
H3233 C3242 0.929 . S
C3234 H3228 0.930 . S
C3234 C3235 1.367 . S
C3234 C3242 1.378 . S
C3235 C3234 1.367 . S
C3235 C3243 1.433 . S
C3236 H3232 0.929 . S
C3236 C3238 1.378 . S
C3236 C3240 1.350 . S
C3237 C3240 1.463 . S
C3237 C3242 1.350 . S
C3237 N3245 1.427 . S
C3238 H3229 0.930 . S
C3238 C3236 1.378 . S
C3238 C3239 1.367 . S
C3239 C3238 1.367 . S
C3239 C3241 1.433 . S
C3240 C3236 1.350 . S
C3240 C3237 1.463 . S
C3240 N3244 1.427 . S
C3241 H3231 0.929 . S
C3241 C3239 1.433 . S
C3241 N3244 1.384 . S
C3242 H3233 0.929 . S
C3242 C3234 1.378 . S
C3242 C3237 1.350 . S
C3243 H3230 0.929 . S
C3243 C3235 1.433 . S
C3243 N3245 1.384 . S
N3244 C3240 1.427 . S
N3244 C3241 1.384 . S
N3245 C3237 1.427 . S
N3245 C3243 1.384 . S
H3246 C3252 0.930 . S
H3247 C3256 0.930 . S
H3248 C3261 0.929 . S
H3249 C3259 0.929 . S
H3250 C3254 0.929 . S
H3251 C3260 0.929 . S
C3252 H3246 0.930 . S
C3252 C3253 1.367 . S
C3252 C3260 1.378 . S
C3253 C3252 1.367 . S
C3253 C3261 1.433 . S
C3254 H3250 0.929 . S
C3254 C3256 1.378 . S
C3254 C3258 1.350 . S
C3255 C3258 1.463 . S
C3255 C3260 1.350 . S
C3255 N3263 1.427 . S
C3256 H3247 0.930 . S
C3256 C3254 1.378 . S
C3256 C3257 1.367 . S
C3257 C3256 1.367 . S
C3257 C3259 1.433 . S
C3258 C3254 1.350 . S
C3258 C3255 1.463 . S
C3258 N3262 1.427 . S
C3259 H3249 0.929 . S
C3259 C3257 1.433 . S
C3259 N3262 1.384 . S
C3260 H3251 0.929 . S
C3260 C3252 1.378 . S
C3260 C3255 1.350 . S
C3261 H3248 0.929 . S
C3261 C3253 1.433 . S
C3261 N3263 1.384 . S
N3262 C3258 1.427 . S
N3262 C3259 1.384 . S
N3263 C3255 1.427 . S
N3263 C3261 1.384 . S
H3264 C3270 0.930 . S
H3265 C3274 0.930 . S
H3266 C3279 0.929 . S
H3267 C3277 0.929 . S
H3268 C3272 0.929 . S
H3269 C3278 0.929 . S
C3270 H3264 0.930 . S
C3270 C3271 1.367 . S
C3270 C3278 1.378 . S
C3271 C3270 1.367 . S
C3271 C3279 1.433 . S
C3272 H3268 0.929 . S
C3272 C3274 1.378 . S
C3272 C3276 1.350 . S
C3273 C3276 1.463 . S
C3273 C3278 1.350 . S
C3273 N3281 1.427 . S
C3274 H3265 0.930 . S
C3274 C3272 1.378 . S
C3274 C3275 1.367 . S
C3275 C3274 1.367 . S
C3275 C3277 1.433 . S
C3276 C3272 1.350 . S
C3276 C3273 1.463 . S
C3276 N3280 1.427 . S
C3277 H3267 0.929 . S
C3277 C3275 1.433 . S
C3277 N3280 1.384 . S
C3278 H3269 0.929 . S
C3278 C3270 1.378 . S
C3278 C3273 1.350 . S
C3279 H3266 0.929 . S
C3279 C3271 1.433 . S
C3279 N3281 1.384 . S
N3280 C3276 1.427 . S
N3280 C3277 1.384 . S
N3281 C3273 1.427 . S
N3281 C3279 1.384 . S
H3282 C3288 0.930 . S
H3283 C3292 0.951 . S
H3284 C3297 0.929 . S
H3285 C3295 0.929 . S
H3286 C3290 0.929 . S
H3287 C3296 0.929 . S
C3288 H3282 0.930 . S
C3288 C3289 1.367 . S
C3288 C3296 1.378 . S
C3289 C3288 1.367 . S
C3289 C3297 1.433 . S
C3290 H3286 0.929 . S
C3290 C3292 1.368 1_565 S
C3290 C3294 1.350 . S
C3291 C3294 1.463 . S
C3291 C3296 1.350 . S
C3291 N3299 1.427 . S
C3292 H3283 0.951 . S
C3292 C3290 1.368 1_545 S
C3292 C3293 1.356 1_545 S
C3293 C3292 1.356 1_565 S
C3293 C3295 1.433 . S
C3294 C3290 1.350 . S
C3294 C3291 1.463 . S
C3294 N3298 1.427 . S
C3295 H3285 0.929 . S
C3295 C3293 1.433 . S
C3295 N3298 1.384 . S
C3296 H3287 0.929 . S
C3296 C3288 1.378 . S
C3296 C3291 1.350 . S
C3297 H3284 0.929 . S
C3297 C3289 1.433 . S
C3297 N3299 1.384 . S
N3298 C3294 1.427 . S
N3298 C3295 1.384 . S
N3299 C3291 1.427 . S
N3299 C3297 1.384 . S
H3300 C3306 0.930 . S
H3301 C3310 0.930 . S
H3302 C3315 0.929 . S
H3303 C3313 0.929 . S
H3304 C3308 0.929 . S
H3305 C3314 0.929 . S
C3306 H3300 0.930 . S
C3306 C3307 1.367 . S
C3306 C3314 1.378 . S
C3307 C3306 1.367 . S
C3307 C3315 1.433 . S
C3308 H3304 0.929 . S
C3308 C3310 1.378 . S
C3308 C3312 1.350 . S
C3309 C3312 1.463 . S
C3309 C3314 1.350 . S
C3309 N3317 1.427 . S
C3310 H3301 0.930 . S
C3310 C3308 1.378 . S
C3310 C3311 1.367 . S
C3311 C3310 1.367 . S
C3311 C3313 1.433 . S
C3312 C3308 1.350 . S
C3312 C3309 1.463 . S
C3312 N3316 1.427 . S
C3313 H3303 0.929 . S
C3313 C3311 1.433 . S
C3313 N3316 1.384 . S
C3314 H3305 0.929 . S
C3314 C3306 1.378 . S
C3314 C3309 1.350 . S
C3315 H3302 0.929 . S
C3315 C3307 1.433 . S
C3315 N3317 1.384 . S
N3316 C3312 1.427 . S
N3316 C3313 1.384 . S
N3317 C3309 1.427 . S
N3317 C3315 1.384 . S
H3318 C3324 0.930 . S
H3319 C3328 0.930 . S
H3320 C3333 0.929 . S
H3321 C3331 0.909 1_556 S
H3322 C3326 0.929 . S
H3323 C3332 0.929 . S
C3324 H3318 0.930 . S
C3324 C3325 1.367 . S
C3324 C3332 1.378 . S
C3325 C3324 1.367 . S
C3325 C3333 1.433 . S
C3326 H3322 0.929 . S
C3326 C3328 1.378 . S
C3326 C3330 1.350 . S
C3327 C3330 1.463 . S
C3327 C3332 1.350 . S
C3327 N3335 1.427 . S
C3328 H3319 0.930 . S
C3328 C3326 1.378 . S
C3328 C3329 1.367 . S
C3329 C3328 1.367 . S
C3329 C3331 1.433 . S
C3330 C3326 1.350 . S
C3330 C3327 1.463 . S
C3330 N3334 1.427 . S
C3331 H3321 0.909 1_554 S
C3331 C3329 1.433 . S
C3331 N3334 1.384 . S
C3332 H3323 0.929 . S
C3332 C3324 1.378 . S
C3332 C3327 1.350 . S
C3333 H3320 0.929 . S
C3333 C3325 1.433 . S
C3333 N3335 1.384 . S
N3334 C3330 1.427 . S
N3334 C3331 1.384 . S
N3335 C3327 1.427 . S
N3335 C3333 1.384 . S
H3336 C3342 0.930 . S
H3337 C3346 0.930 . S
H3338 C3351 0.929 . S
H3339 C3349 0.929 . S
H3340 C3344 0.929 . S
H3341 C3350 0.929 . S
C3342 H3336 0.930 . S
C3342 C3343 1.367 . S
C3342 C3350 1.378 . S
C3343 C3342 1.367 . S
C3343 C3351 1.433 . S
C3344 H3340 0.929 . S
C3344 C3346 1.378 . S
C3344 C3348 1.350 . S
C3345 C3348 1.463 . S
C3345 C3350 1.350 . S
C3345 N3353 1.427 . S
C3346 H3337 0.930 . S
C3346 C3344 1.378 . S
C3346 C3347 1.367 . S
C3347 C3346 1.367 . S
C3347 C3349 1.433 . S
C3348 C3344 1.350 . S
C3348 C3345 1.463 . S
C3348 N3352 1.427 . S
C3349 H3339 0.929 . S
C3349 C3347 1.433 . S
C3349 N3352 1.384 . S
C3350 H3341 0.929 . S
C3350 C3342 1.378 . S
C3350 C3345 1.350 . S
C3351 H3338 0.929 . S
C3351 C3343 1.433 . S
C3351 N3353 1.384 . S
N3352 C3348 1.427 . S
N3352 C3349 1.384 . S
N3353 C3345 1.427 . S
N3353 C3351 1.384 . S
H3354 C3360 0.930 . S
H3355 C3364 0.930 1_556 S
H3356 C3369 0.929 . S
H3357 C3367 0.929 . S
H3358 C3362 0.942 . S
H3359 C3368 0.929 . S
C3360 H3354 0.930 . S
C3360 C3361 1.367 . S
C3360 C3368 1.378 . S
C3361 C3360 1.367 . S
C3361 C3369 1.433 . S
C3362 H3358 0.942 . S
C3362 C3364 1.378 . S
C3362 C3366 1.350 . S
C3363 C3366 1.463 . S
C3363 C3368 1.350 . S
C3363 N3371 1.427 . S
C3364 H3355 0.930 1_554 S
C3364 C3362 1.378 . S
C3364 C3365 1.367 . S
C3365 C3364 1.367 . S
C3365 C3367 1.433 . S
C3366 C3362 1.350 . S
C3366 C3363 1.463 . S
C3366 N3370 1.427 . S
C3367 H3357 0.929 . S
C3367 C3365 1.433 . S
C3367 N3370 1.384 . S
C3368 H3359 0.929 . S
C3368 C3360 1.378 . S
C3368 C3363 1.350 . S
C3369 H3356 0.929 . S
C3369 C3361 1.433 . S
C3369 N3371 1.384 . S
N3370 C3366 1.427 . S
N3370 C3367 1.384 . S
N3371 C3363 1.427 . S
N3371 C3369 1.384 . S
H3372 C3378 0.930 . S
H3373 C3382 0.930 . S
H3374 C3387 0.929 . S
H3375 C3385 0.929 . S
H3376 C3380 0.929 . S
H3377 C3386 0.929 . S
C3378 H3372 0.930 . S
C3378 C3379 1.367 . S
C3378 C3386 1.378 . S
C3379 C3378 1.367 . S
C3379 C3387 1.433 . S
C3380 H3376 0.929 . S
C3380 C3382 1.378 . S
C3380 C3384 1.350 . S
C3381 C3384 1.463 . S
C3381 C3386 1.350 . S
C3381 N3389 1.427 . S
C3382 H3373 0.930 . S
C3382 C3380 1.378 . S
C3382 C3383 1.367 . S
C3383 C3382 1.367 . S
C3383 C3385 1.433 . S
C3384 C3380 1.350 . S
C3384 C3381 1.463 . S
C3384 N3388 1.427 . S
C3385 H3375 0.929 . S
C3385 C3383 1.433 . S
C3385 N3388 1.384 . S
C3386 H3377 0.929 . S
C3386 C3378 1.378 . S
C3386 C3381 1.350 . S
C3387 H3374 0.929 . S
C3387 C3379 1.433 . S
C3387 N3389 1.384 . S
N3388 C3384 1.427 . S
N3388 C3385 1.384 . S
N3389 C3381 1.427 . S
N3389 C3387 1.384 . S
H3390 C3396 0.930 . S
H3391 C3400 0.930 . S
H3392 C3405 0.929 . S
H3393 C3403 0.929 . S
H3394 C3398 0.929 . S
H3395 C3404 0.929 . S
C3396 H3390 0.930 . S
C3396 C3397 1.367 . S
C3396 C3404 1.378 . S
C3397 C3396 1.367 . S
C3397 C3405 1.433 . S
C3398 H3394 0.929 . S
C3398 C3400 1.378 . S
C3398 C3402 1.350 . S
C3399 C3402 1.463 . S
C3399 C3404 1.350 . S
C3399 N3407 1.427 . S
C3400 H3391 0.930 . S
C3400 C3398 1.378 . S
C3400 C3401 1.367 . S
C3401 C3400 1.367 . S
C3401 C3403 1.433 . S
C3402 C3398 1.350 . S
C3402 C3399 1.463 . S
C3402 N3406 1.427 . S
C3403 H3393 0.929 . S
C3403 C3401 1.433 . S
C3403 N3406 1.384 . S
C3404 H3395 0.929 . S
C3404 C3396 1.378 . S
C3404 C3399 1.350 . S
C3405 H3392 0.929 . S
C3405 C3397 1.433 . S
C3405 N3407 1.384 . S
N3406 C3402 1.427 . S
N3406 C3403 1.384 . S
N3407 C3399 1.427 . S
N3407 C3405 1.384 . S
C1687 C109 2.081 1_455 S
C1691 C403 2.099 . S
C1705 C65 1.885 . S
C1709 C476 1.876 . S
C1723 C75 1.868 . S
C1727 C571 1.871 . S
C1745 C646 1.399 . S
C1741 C84 1.510 . S
C1759 C25 1.488 . S
C1763 C730 1.390 . S
C1781 C823 1.821 . S
C1777 C28 1.815 . S
C1799 C896 1.897 . S
C1795 C47 1.892 . S
C1813 C9 2.075 . S
C1817 C991 2.106 . S
C1835 C392 1.756 . S
C1831 C233 1.792 . S
C1849 C249 0.899 . S
C1853 C478 0.876 . S
C1871 C560 1.168 . S
C1867 C275 1.185 . S
C1889 C655 1.631 . S
C1885 C173 1.634 . S
C1903 C224 1.678 . S
C1907 C739 1.683 . S
C1925 C812 1.188 . S
C1921 C243 1.183 . S
C1943 C898 0.876 . S
C1939 C266 0.932 . S
C1961 C980 1.626 . S
C1957 C179 1.657 . S
C1979 C394 0.995 1_565 S
C1975 C163 1.054 . S
C1993 C289 1.676 . S
C1997 C1064 1.656 . S
C2015 C1150 1.281 . S
C2011 C333 1.349 . S
C2033 C1243 0.775 . S
C2029 C308 0.775 . S
C2047 C123 1.012 . S
C2051 C982 1.014 . S
C2065 C126 1.406 . S
C2069 C562 1.363 . S
C2083 C327 1.706 . S
C2087 C1316 1.694 . S
C2105 C1411 0.893 . S
C2101 C299 0.890 . S
C2123 C391 2.118 . S
C2119 C67 2.116 . S
C2141 C1412 1.912 . S
C2137 C98 1.872 . S
C2155 C89 1.896 . S
C2159 C559 1.906 . S
C2173 C79 1.564 . S
C2177 C1330 1.456 . S
C2195 C742 1.413 . S
C2191 C11 1.517 . S
C2209 C51 1.840 . S
C2213 C1147 1.863 . S
C2231 C908 1.945 1_556 S
C2227 C33 1.946 . S
C2249 C1483 2.112 . S
C2245 C14 2.116 . S
C2267 C404 1.754 . S
C2263 C140 1.803 . S
C2285 C1414 0.886 . S
C2281 C319 0.913 . S
C2299 C112 1.192 . S
C2303 C572 1.196 . S
C2317 C285 1.656 . S
C2321 C1315 1.654 . S
C2335 C149 1.714 . S
C2339 C727 1.719 . S
C2357 C1160 1.226 . S
C2353 C313 1.226 . S
C2371 C121 0.984 . S
C2375 C910 0.918 . S
C2389 C291 1.701 . S
C2393 C1496 1.662 . S
C2407 C182 1.042 . S
C2411 C406 1.016 . S
C2425 C168 1.674 . S
C2429 C1076 1.675 . S
C2443 C263 1.378 . S
C2447 C826 1.319 . S
C2461 C247 0.828 . S
C2465 C1231 0.826 . S
C2483 C1498 1.004 . S
C2479 C277 1.015 1_565 S
C2497 C219 1.453 . S
C2501 C574 1.356 . S
C2519 C656 1.733 . S
C2515 C257 1.751 . S
C2537 C475 0.900 . S
C2533 C201 0.903 . S
C2551 C81 2.090 . S
C2555 C1579 2.101 . S
C2573 C1400 1.875 . S
C2569 C93 1.885 . S
C2587 C103 1.866 . S
C2591 C1663 1.873 . S
C2605 C56 1.557 . S
C2609 C1318 1.400 . S
C2623 C53 1.486 . S
C2627 C1066 1.393 . S
C2645 C1159 1.820 . S
C2641 C0 1.820 . S
C2663 C1232 1.894 . S
C2659 C19 1.892 . S
C2681 C1495 2.110 . S
C2677 C37 2.077 . S
C2699 C1568 1.757 . S
C2695 C261 1.792 . S
C2713 C193 0.890 1_556 S
C2717 C1402 0.854 . S
C2735 C1652 1.179 . S
C2731 C205 1.190 . S
C2753 C1327 1.633 . S
C2749 C215 1.636 . S
C2771 C1075 1.679 . S
C2767 C252 1.673 . S
C2785 C187 1.186 . S
C2789 C1148 1.189 . S
C2807 C1234 0.906 . S
C2803 C196 0.923 . S
C2821 C221 1.650 . S
C2825 C1484 1.622 . S
C2843 C1570 1.015 . S
C2839 C317 1.053 . S
C2857 C135 1.677 . S
C2861 C728 1.652 . S
C2879 C814 1.297 . S
C2875 C151 1.340 1_565 S
C2897 C907 0.775 . S
C2893 C154 0.774 . S
C2915 C1486 1.004 . S
C2911 C305 1.015 . S
C2929 C280 1.411 . S
C2933 C1654 1.345 . S
C2951 C644 1.697 . S
C2947 C145 1.703 . S
C2969 C487 0.893 . S
C2965 C117 0.890 . S
C2983 C95 2.114 . S
C2987 C1567 2.116 . S
C3005 C488 1.912 . S
C3001 C70 1.875 . S
C3019 C61 1.899 . S
C3023 C1651 1.905 . S
C3037 C107 1.561 . S
C3041 C658 1.436 . S
C3055 C39 1.516 . S
C3059 C1078 1.410 . S
C3077 C811 1.863 . S
C3073 C23 1.837 . S
C3091 C5 1.944 . S
C3095 C1244 1.948 . S
C3109 C42 2.118 . S
C3113 C979 2.115 . S
C3131 C1580 1.756 . S
C3127 C322 1.801 . S
C3145 C165 0.900 . S
C3149 C490 0.875 . S
C3167 C1664 1.195 1_655 S
C3163 C294 1.183 . S
C3181 C131 1.656 . S
C3185 C643 1.654 . S
C3199 C331 1.714 . S
C3203 C1063 1.720 . S
C3221 C824 1.223 . S
C3217 C159 1.231 . S
C3235 C303 0.989 . S
C3239 C1246 0.942 . S
C3257 C992 1.659 . S
C3253 C137 1.701 . S
C3275 C1582 1.005 . S
C3271 C238 1.045 . S
C3293 C740 1.677 1_565 S
C3289 C210 1.671 . S
C3307 C235 1.375 . S
C3311 C1162 1.300 . S
C3329 C895 0.829 . S
C3325 C191 0.823 . S
C3343 C207 1.026 . S
C3347 C994 0.984 . S
C3361 C177 1.453 . S
C3365 C1666 1.356 . S
C3383 C1328 1.739 . S
C3379 C229 1.747 . S
C3401 C1399 0.900 . S
C3397 C271 0.901 . S
