# Generated by pormake.
# Topology csq, (4,8)-cn, num edge types: 1
# Building blocks:
#     Node 0, Type 0, BuildingBlock: NAWXER_clean_sbu_0, # of connection points: 4
#     Node 1, Type 0, BuildingBlock: NAWXER_clean_sbu_0, # of connection points: 4
#     Node 2, Type 0, BuildingBlock: NAWXER_clean_sbu_0, # of connection points: 4
#     Node 3, Type 0, BuildingBlock: NAWXER_clean_sbu_0, # of connection points: 4
#     Node 4, Type 0, BuildingBlock: NAWXER_clean_sbu_0, # of connection points: 4
#     Node 5, Type 0, BuildingBlock: NAWXER_clean_sbu_0, # of connection points: 4
#     Node 6, Type 1, BuildingBlock: TAGTUT_clean_sbu_1, # of connection points: 8
#     Node 7, Type 1, BuildingBlock: TAGTUT_clean_sbu_1, # of connection points: 8
#     Node 8, Type 1, BuildingBlock: TAGTUT_clean_sbu_1, # of connection points: 8
#     Edge 9, Type (0, 1), BuildingBlock: EZIPEK_clean_linker_0, # of connection points: 2
#     Edge 10, Type (0, 1), BuildingBlock: EZIPEK_clean_linker_0, # of connection points: 2
#     Edge 11, Type (0, 1), BuildingBlock: EZIPEK_clean_linker_0, # of connection points: 2
#     Edge 12, Type (0, 1), BuildingBlock: EZIPEK_clean_linker_0, # of connection points: 2
#     Edge 13, Type (0, 1), BuildingBlock: EZIPEK_clean_linker_0, # of connection points: 2
#     Edge 14, Type (0, 1), BuildingBlock: EZIPEK_clean_linker_0, # of connection points: 2
#     Edge 15, Type (0, 1), BuildingBlock: EZIPEK_clean_linker_0, # of connection points: 2
#     Edge 16, Type (0, 1), BuildingBlock: EZIPEK_clean_linker_0, # of connection points: 2
#     Edge 17, Type (0, 1), BuildingBlock: EZIPEK_clean_linker_0, # of connection points: 2
#     Edge 18, Type (0, 1), BuildingBlock: EZIPEK_clean_linker_0, # of connection points: 2
#     Edge 19, Type (0, 1), BuildingBlock: EZIPEK_clean_linker_0, # of connection points: 2
#     Edge 20, Type (0, 1), BuildingBlock: EZIPEK_clean_linker_0, # of connection points: 2
#     Edge 21, Type (0, 1), BuildingBlock: EZIPEK_clean_linker_0, # of connection points: 2
#     Edge 22, Type (0, 1), BuildingBlock: EZIPEK_clean_linker_0, # of connection points: 2
#     Edge 23, Type (0, 1), BuildingBlock: EZIPEK_clean_linker_0, # of connection points: 2
#     Edge 24, Type (0, 1), BuildingBlock: EZIPEK_clean_linker_0, # of connection points: 2
#     Edge 25, Type (0, 1), BuildingBlock: EZIPEK_clean_linker_0, # of connection points: 2
#     Edge 26, Type (0, 1), BuildingBlock: EZIPEK_clean_linker_0, # of connection points: 2
#     Edge 27, Type (0, 1), BuildingBlock: EZIPEK_clean_linker_0, # of connection points: 2
#     Edge 28, Type (0, 1), BuildingBlock: EZIPEK_clean_linker_0, # of connection points: 2
#     Edge 29, Type (0, 1), BuildingBlock: EZIPEK_clean_linker_0, # of connection points: 2
#     Edge 30, Type (0, 1), BuildingBlock: EZIPEK_clean_linker_0, # of connection points: 2
#     Edge 31, Type (0, 1), BuildingBlock: EZIPEK_clean_linker_0, # of connection points: 2
#     Edge 32, Type (0, 1), BuildingBlock: EZIPEK_clean_linker_0, # of connection points: 2
# Relax obj value: 0.042
# Max RMSD: 0.125
# Mean RMSD: 0.070
data_MOF--net-csq--node1-NAWXER_clean_sbu_0--node2-TAGTUT_clean_sbu_1--edge1-EZIPEK_clean_linker_0
_symmetry_space_group_name_H-M    P1
_symmetry_Int_Tables_number       1
_symmetry_cell_setting            triclinic
loop_
_symmetry_equiv_pos_as_xyz
'x, y, z'
_cell_length_a     37.361999
_cell_length_b     37.188169
_cell_length_c     14.74127
_cell_angle_alpha  93.318416
_cell_angle_beta   92.464772
_cell_angle_gamma 120.14983
loop_
_atom_site_label
_atom_site_type_symbol
_atom_site_fract_x
_atom_site_fract_y
_atom_site_fract_z
_atom_type_partial_charge
C0 C 0.29058 0.46273 0.10351 0.0
C1 C 0.18855 0.45954 0.32311 0.0
O2 O 0.29725 0.49782 0.13926 0.0
Zn3 Zn 0.26857 0.52233 0.22145 0.0
O4 O 0.25988 0.4294 0.12768 0.0
Zn5 Zn 0.23654 0.45401 0.21459 0.0
O6 O 0.21296 0.47697 0.11741 0.0
O7 O 0.24873 0.54573 0.12888 0.0
O8 O 0.18628 0.42617 0.28754 0.0
O9 O 0.21779 0.49464 0.30233 0.0
O10 O 0.31168 0.55464 0.31803 0.0
O11 O 0.28482 0.48665 0.32108 0.0
C12 C 0.21972 0.51133 0.0888 0.0
C13 C 0.31027 0.52403 0.35573 0.0
C14 C 0.72075 0.17279 0.02945 0.0
C15 C 0.8324 0.26568 0.27009 0.0
O16 O 0.75316 0.17111 0.05205 0.0
Zn17 Zn 0.77746 0.21555 0.15221 0.0
O18 O 0.71475 0.20023 0.07181 0.0
Zn19 Zn 0.74616 0.25031 0.17878 0.0
O20 O 0.76182 0.30071 0.11807 0.0
O21 O 0.79717 0.26938 0.08226 0.0
O22 O 0.8028 0.27291 0.2567 0.0
O23 O 0.83086 0.23422 0.22618 0.0
O24 O 0.73395 0.19161 0.25247 0.0
O25 O 0.71155 0.23524 0.27999 0.0
C26 C 0.79046 0.29962 0.07625 0.0
C27 C 0.71279 0.20297 0.29959 0.0
C28 C 0.57838 0.84217 0.15936 0.0
C29 C 0.57474 0.7447 0.92679 0.0
O30 O 0.6095 0.84266 0.12666 0.0
Zn31 Zn 0.57761 0.79387 0.04238 0.0
O32 O 0.54148 0.81227 0.13549 0.0
Zn33 Zn 0.5111 0.75818 0.04248 0.0
O34 O 0.48599 0.71274 0.12201 0.0
O35 O 0.55376 0.74177 0.1227 0.0
O36 O 0.53838 0.73476 0.9493 0.0
O37 O 0.60667 0.77838 0.96048 0.0
O38 O 0.54503 0.81419 0.95745 0.0
O39 O 0.47748 0.77256 0.96513 0.0
C40 C 0.51915 0.71297 0.14694 0.0
C41 C 0.50753 0.80425 0.93505 0.0
C42 C 0.7914 0.48686 0.91669 0.0
C43 C 0.69738 0.49012 0.15071 0.0
O44 O 0.80269 0.52132 0.96381 0.0
Zn45 Zn 0.78054 0.5487 0.05857 0.0
O46 O 0.75712 0.45497 0.9325 0.0
Zn47 Zn 0.7404 0.48108 0.03176 0.0
O48 O 0.72507 0.51597 0.94984 0.0
O49 O 0.77021 0.58316 0.9777 0.0
O50 O 0.69147 0.45649 0.10745 0.0
O51 O 0.72837 0.52489 0.13466 0.0
O52 O 0.82226 0.56855 0.1604 0.0
O53 O 0.78889 0.49992 0.13428 0.0
C54 C 0.73809 0.5535 0.93196 0.0
C55 C 0.81655 0.53324 0.18084 0.0
C56 C 0.15572 0.7346 0.22734 0.0
C57 C 0.24956 0.83222 0.0236 0.0
O58 O 0.15512 0.767 0.20576 0.0
Zn59 Zn 0.20324 0.78774 0.13376 0.0
O60 O 0.18483 0.72832 0.2047 0.0
Zn61 Zn 0.23671 0.75441 0.12813 0.0
O62 O 0.28246 0.77111 0.2201 0.0
O63 O 0.25682 0.81304 0.23084 0.0
O64 O 0.25948 0.80586 0.04889 0.0
O65 O 0.21809 0.83217 0.05386 0.0
O66 O 0.17844 0.73652 0.03337 0.0
O67 O 0.21845 0.70874 0.03201 0.0
C68 C 0.28424 0.80385 0.25706 0.0
C69 C 0.18642 0.7092 0.99985 0.0
C70 C 0.54124 0.32319 0.38034 0.0
C71 C 0.52998 0.22652 0.1292 0.0
O72 O 0.57265 0.32348 0.34894 0.0
Zn73 Zn 0.54095 0.27629 0.25781 0.0
O74 O 0.50438 0.295 0.35109 0.0
Zn75 Zn 0.47242 0.24473 0.25253 0.0
O76 O 0.44417 0.19548 0.31987 0.0
O77 O 0.51248 0.22291 0.33301 0.0
O78 O 0.49643 0.22158 0.15872 0.0
O79 O 0.56479 0.25672 0.16413 0.0
O80 O 0.51401 0.30326 0.17797 0.0
O81 O 0.44562 0.26657 0.17245 0.0
C82 C 0.47614 0.19424 0.34908 0.0
C83 C 0.47872 0.29793 0.14991 0.0
C84 C 0.93737 0.40096 0.90984 0.0
C85 C 0.07095 0.46211 0.86355 0.0
C86 C 0.05306 0.58278 0.74883 0.0
Mg87 Mg 0.98908 0.40517 0.74486 0.0
O88 O 0.98224 0.45153 0.73847 0.0
Mg89 Mg 0.00263 0.49528 0.84559 0.0
Mg90 Mg 5e-05 0.48806 0.63814 0.0
O91 O 0.01751 0.52693 0.54406 0.0
Mg92 Mg 0.00064 0.56638 0.56857 0.0
Mg93 Mg 0.99055 0.4874 0.43386 0.0
C94 C 0.95685 0.39621 0.52919 0.0
C95 C 0.06522 0.4746 0.5176 0.0
O96 O 0.95828 0.44092 0.92525 0.0
O97 O 0.94447 0.38082 0.84619 0.0
O98 O 0.05554 0.48529 0.87808 0.0
O99 O 0.05187 0.42864 0.80938 0.0
O100 O 0.96686 0.38246 0.59879 0.0
O101 O 0.9605 0.43278 0.53272 0.0
C102 C 0.92856 0.4999 0.74061 0.0
O103 O 0.94143 0.49438 0.66478 0.0
O104 O 0.94855 0.50405 0.81583 0.0
O105 O 0.02808 0.54968 0.36021 0.0
O106 O 0.03047 0.59993 0.45907 0.0
O107 O 0.93569 0.49955 0.42142 0.0
C108 C 0.039 0.58811 0.38415 0.0
O109 O 0.93628 0.54218 0.535 0.0
O110 O 0.03341 0.59567 0.6999 0.0
C111 C 0.91976 0.51908 0.46081 0.0
O112 O 0.0415 0.54384 0.74433 0.0
O113 O 0.05607 0.47808 0.60002 0.0
O114 O 0.04514 0.47772 0.44891 0.0
C115 C 0.47211 0.07192 0.9187 0.0
C116 C 0.37682 0.94546 0.81234 0.0
C117 C 0.52364 0.94202 0.74984 0.0
Mg118 Mg 0.4298 0.02759 0.72858 0.0
O119 O 0.47322 0.01736 0.73984 0.0
Mg120 Mg 0.48176 0.99152 0.84749 0.0
Mg121 Mg 0.4958 -0.00057 0.64246 0.0
O122 O 0.52127 0.9826 0.54782 0.0
Mg123 Mg 0.57565 0.99682 0.59038 0.0
Mg124 Mg 0.51593 0.01401 0.44722 0.0
C125 C 0.46565 0.05896 0.54023 0.0
C126 C 0.42457 0.93728 0.4804 0.0
O127 O 0.47649 0.04123 0.93971 0.0
O128 O 0.45569 0.0726 0.84143 0.0
O129 O 0.41047 0.94729 0.84238 0.0
O130 O 0.37636 0.97259 0.76391 0.0
O131 O 0.4391 0.05326 0.59822 0.0
O132 O 0.49101 0.04508 0.54911 0.0
C133 C 0.57475 0.05686 0.79817 0.0
O134 O 0.56208 0.05056 0.71324 0.0
O135 O 0.55008 0.03686 0.85684 0.0
O136 O 0.54317 0.97856 0.36528 0.0
O137 O 0.58454 0.97049 0.46895 0.0
O138 O 0.58012 0.06966 0.47862 0.0
C139 C 0.56786 0.96516 0.38801 0.0
O140 O 0.61815 0.06407 0.59086 0.0
O141 O 0.55612 0.95655 0.70457 0.0
C142 C 0.61309 0.08542 0.53207 0.0
O143 O 0.49595 0.95248 0.73772 0.0
O144 O 0.43228 0.94705 0.56723 0.0
O145 O 0.45106 0.95823 0.42442 0.0
C146 C 0.53233 0.58809 0.34308 0.0
C147 C 0.59685 0.52099 0.40127 0.0
C148 C 0.47609 0.41277 0.5486 0.0
Mg149 Mg 0.57766 0.5814 0.51871 0.0
O150 O 0.52313 0.53994 0.52667 0.0
Mg151 Mg 0.49775 0.49443 0.42378 0.0
Mg152 Mg 0.5083 0.50769 0.63638 0.0
O153 O 0.49404 0.473 0.74104 0.0
Mg154 Mg 0.44361 0.4223 0.7375 0.0
Mg155 Mg 0.51307 0.51569 0.84507 0.0
C156 C 0.55889 0.60093 0.72611 0.0
C157 C 0.59576 0.53074 0.74755 0.0
O158 O 0.51068 0.54794 0.32841 0.0
O159 O 0.55844 0.60642 0.41299 0.0
O160 O 0.55767 0.49742 0.38842 0.0
O161 O 0.61309 0.55476 0.45488 0.0
O162 O 0.58134 0.6095 0.65736 0.0
O163 O 0.52633 0.56486 0.73243 0.0
C164 C 0.42471 0.49652 0.5312 0.0
O165 O 0.44319 0.49958 0.60889 0.0
O166 O 0.43898 0.49269 0.4566 0.0
O167 O 0.50261 0.46218 0.93901 0.0
O168 O 0.45792 0.40119 0.85709 0.0
O169 O 0.44393 0.49631 0.8682 0.0
C170 C 0.48107 0.42193 0.92922 0.0
O171 O 0.39821 0.43848 0.77918 0.0
O172 O 0.45304 0.39399 0.61237 0.0
C173 C 0.40644 0.46749 0.84206 0.0
O174 O 0.48894 0.4512 0.53984 0.0
O175 O 0.57629 0.52195 0.66799 0.0
O176 O 0.57796 0.52938 0.82036 0.0
C177 C 0.13668 0.4329 0.44932 0.0
C178 C 0.15654 0.46066 0.38111 0.0
C179 C 0.12986 0.50461 0.4421 0.0
C180 C 0.10327 0.47331 0.4957 0.0
N181 N 0.07915 0.40522 0.54696 0.0
N182 N 0.15667 0.51436 0.2958 0.0
C183 C 0.10616 0.43669 0.49904 0.0
C184 C 0.14915 0.4944 0.37339 0.0
N185 N 0.14747 0.40404 0.46881 0.0
N186 N 0.13448 0.54347 0.45284 0.0
H187 H 0.16413 0.5033 0.23735 0.0
H188 H 0.14894 0.53723 0.28564 0.0
H189 H 0.12046 0.5516 0.50355 0.0
H190 H 0.15555 0.5682 0.41815 0.0
H191 H 0.13645 0.38558 0.52296 0.0
H192 H 0.17027 0.40125 0.43622 0.0
H193 H 0.07672 0.37601 0.54423 0.0
H194 H 0.05783 0.40805 0.5858 0.0
C195 C 0.70932 0.16061 0.43374 0.0
C196 C 0.69136 0.17931 0.37852 0.0
C197 C 0.63317 0.1535 0.4754 0.0
C198 C 0.64633 0.12798 0.51439 0.0
N199 N 0.70483 0.12296 0.56701 0.0
N200 N 0.63135 0.18683 0.34207 0.0
C201 C 0.68694 0.13625 0.50471 0.0
C202 C 0.65252 0.17504 0.39965 0.0
N203 N 0.74674 0.16438 0.41712 0.0
N204 N 0.60071 0.15536 0.50944 0.0
H205 H 0.64091 0.19783 0.27922 0.0
H206 H 0.60129 0.18057 0.35081 0.0
H207 H 0.58651 0.13912 0.56503 0.0
H208 H 0.59135 0.17604 0.48966 0.0
H209 H 0.75728 0.14572 0.44374 0.0
H210 H 0.76741 0.18483 0.37465 0.0
H211 H 0.73579 0.13073 0.56997 0.0
H212 H 0.69004 0.10872 0.6239 0.0
C213 C 0.55634 0.68861 0.25002 0.0
C214 C 0.51927 0.67927 0.19812 0.0
C215 C 0.48777 0.60736 0.24212 0.0
C216 C 0.5272 0.61587 0.28082 0.0
N217 N 0.60159 0.66205 0.28621 0.0
N218 N 0.45358 0.62372 0.12254 0.0
C219 C 0.56234 0.65562 0.27289 0.0
C220 C 0.48591 0.63689 0.18735 0.0
N221 N 0.58526 0.72868 0.28162 0.0
N222 N 0.45189 0.57259 0.25976 0.0
H223 H 0.45213 0.64255 0.07477 0.0
H224 H 0.43076 0.59234 0.1088 0.0
H225 H 0.45077 0.551 0.303 0.0
H226 H 0.42265 0.56773 0.23877 0.0
H227 H 0.61148 0.73588 0.32413 0.0
H228 H 0.58017 0.75361 0.27634 0.0
H229 H 0.62786 0.69028 0.27538 0.0
H230 H 0.60728 0.63776 0.29645 0.0
C231 C 0.82332 0.4965 0.31574 0.0
C232 C 0.8416 0.52992 0.25779 0.0
C233 C 0.90658 0.56129 0.35474 0.0
C234 C 0.89032 0.5253 0.4038 0.0
N235 N 0.83507 0.4564 0.4253 0.0
N236 N 0.90486 0.58644 0.20871 0.0
C237 C 0.8492 0.49224 0.38263 0.0
C238 C 0.88434 0.56042 0.27385 0.0
N239 N 0.78138 0.46944 0.30983 0.0
N240 N 0.94369 0.59618 0.38386 0.0
H241 H 0.89117 0.58408 0.14387 0.0
H242 H 0.93691 0.60662 0.21436 0.0
H243 H 0.96114 0.59873 0.44326 0.0
H244 H 0.9548 0.6243 0.3544 0.0
H245 H 0.76671 0.44845 0.35815 0.0
H246 H 0.76024 0.46959 0.26212 0.0
H247 H 0.80733 0.42895 0.40419 0.0
H248 H 0.85243 0.45341 0.47867 0.0
C249 C 0.36092 0.8441 0.31136 0.0
C250 C 0.3194 0.83342 0.32524 0.0
C251 C 0.34612 0.88893 0.45264 0.0
C252 C 0.38708 0.89772 0.44068 0.0
N253 N 0.43051 0.87254 0.38185 0.0
N254 N 0.27263 0.83794 0.42749 0.0
C255 C 0.39334 0.87138 0.37796 0.0
C256 C 0.31201 0.85344 0.40175 0.0
N257 N 0.37044 0.8314 0.23171 0.0
N258 N 0.33968 0.91523 0.50897 0.0
H259 H 0.24732 0.81102 0.39463 0.0
H260 H 0.26592 0.84896 0.4872 0.0
H261 H 0.36374 0.94124 0.54755 0.0
H262 H 0.31076 0.91281 0.51242 0.0
H263 H 0.40094 0.84195 0.21631 0.0
H264 H 0.34888 0.81483 0.17629 0.0
H265 H 0.43554 0.85155 0.34238 0.0
H266 H 0.45445 0.89121 0.43203 0.0
C267 C 0.53892 0.3586 0.52478 0.0
C268 C 0.54426 0.35981 0.43094 0.0
C269 C 0.50711 0.39779 0.41357 0.0
C270 C 0.50005 0.3951 0.50731 0.0
N271 N 0.52624 0.39028 0.65742 0.0
N272 N 0.54757 0.39267 0.29381 0.0
C273 C 0.52115 0.38082 0.56503 0.0
C274 C 0.5338 0.38446 0.37864 0.0
N275 N 0.5493 0.33481 0.57439 0.0
N276 N 0.48684 0.41101 0.35752 0.0
H277 H 0.56731 0.38293 0.2685 0.0
H278 H 0.54281 0.412 0.25282 0.0
H279 H 0.46422 0.4173 0.37949 0.0
H280 H 0.49026 0.41315 0.28807 0.0
H281 H 0.54142 0.32859 0.64099 0.0
H282 H 0.56419 0.31989 0.54641 0.0
H283 H 0.54419 0.38318 0.70066 0.0
H284 H 0.51722 0.40976 0.68983 0.0
C285 C 0.5049 0.86969 0.93835 0.0
C286 C 0.501 0.83436 0.88651 0.0
C287 C 0.50217 0.86647 0.74565 0.0
C288 C 0.51291 0.90438 0.7981 0.0
N289 N 0.52686 0.9432 0.94453 0.0
N290 N 0.49773 0.79898 0.74194 0.0
C291 C 0.51438 0.90618 0.89461 0.0
C292 C 0.49972 0.83251 0.79028 0.0
N293 N 0.49973 0.86824 0.02959 0.0
N294 N 0.49347 0.86271 0.65334 0.0
H295 H 0.49401 0.77282 0.77259 0.0
H296 H 0.50196 0.79801 0.67266 0.0
H297 H 0.49429 0.88669 0.6184 0.0
H298 H 0.48175 0.83472 0.61252 0.0
H299 H 0.49869 0.89152 0.07014 0.0
H300 H 0.49264 0.84184 0.06332 0.0
H301 H 0.53342 0.94792 0.015 0.0
H302 H 0.53362 0.97024 0.9144 0.0
C303 C 0.70071 0.58927 0.87022 0.0
C304 C 0.71372 0.55959 0.85799 0.0
C305 C 0.65578 0.51808 0.74102 0.0
C306 C 0.64083 0.54557 0.75995 0.0
N307 N 0.65832 0.61563 0.80869 0.0
N308 N 0.7141 0.50679 0.75528 0.0
C309 C 0.66664 0.58406 0.81314 0.0
C310 C 0.69486 0.5279 0.7836 0.0
N311 N 0.71838 0.62057 0.93948 0.0
N312 N 0.63165 0.48141 0.68798 0.0
H313 H 0.7429 0.51367 0.78502 0.0
H314 H 0.70365 0.48577 0.69712 0.0
H315 H 0.60349 0.47401 0.65357 0.0
H316 H 0.63871 0.45767 0.68134 0.0
H317 H 0.70547 0.63868 0.95907 0.0
H318 H 0.74496 0.62782 0.98004 0.0
H319 H 0.67769 0.64571 0.83991 0.0
H320 H 0.63455 0.6126 0.76409 0.0
C321 C 0.14129 0.63427 0.93645 0.0
C322 C 0.1564 0.67721 0.92775 0.0
C323 C 0.11225 0.6577 0.78401 0.0
C324 C 0.09336 0.61499 0.80095 0.0
N325 N 0.11516 0.56794 0.85155 0.0
N326 N 0.15272 0.72987 0.84368 0.0
C327 C 0.11474 0.60423 0.86525 0.0
C328 C 0.14102 0.68904 0.85155 0.0
N329 N 0.14934 0.62116 0.01516 0.0
N330 N 0.10739 0.66813 0.69872 0.0
H331 H 0.17526 0.75477 0.88699 0.0
H332 H 0.13765 0.7389 0.79706 0.0
H333 H 0.09304 0.64593 0.6428 0.0
H334 H 0.12348 0.69849 0.6796 0.0
H335 H 0.13383 0.5896 0.02581 0.0
H336 H 0.16664 0.64118 0.07261 0.0
H337 H 0.13417 0.56143 0.89291 0.0
H338 H 0.1035 0.54889 0.79048 0.0
C339 C 0.54737 0.17229 0.06742 0.0
C340 C 0.52464 0.19338 0.0598 0.0
C341 C 0.46575 0.13056 0.98269 0.0
C342 C 0.48913 0.11039 0.98097 0.0
N343 N 0.55726 0.11722 0.00202 0.0
N344 N 0.46934 0.19655 0.97635 0.0
C345 C 0.53147 0.13256 0.01775 0.0
C346 C 0.48644 0.17383 0.00494 0.0
N347 N 0.58313 0.18886 0.12324 0.0
N348 N 0.4236 0.10832 0.96421 0.0
H349 H 0.48453 0.22883 0.99009 0.0
H350 H 0.4427 0.18381 0.93136 0.0
H351 H 0.40702 0.07581 0.95226 0.0
H352 H 0.40507 0.12178 0.97125 0.0
H353 H 0.59729 0.17174 0.13925 0.0
H354 H 0.59797 0.21884 0.15615 0.0
H355 H 0.58932 0.1348 0.01755 0.0
H356 H 0.54753 0.08848 0.96679 0.0
C357 C 0.33157 0.43267 0.02987 0.0
C358 C 0.31831 0.46244 0.03196 0.0
C359 C 0.36297 0.49566 0.90681 0.0
C360 C 0.37274 0.46352 0.89955 0.0
N361 N 0.36021 0.39682 0.94494 0.0
N362 N 0.31695 0.51887 0.95822 0.0
C363 C 0.35468 0.43037 0.95733 0.0
C364 C 0.33284 0.49305 0.96665 0.0
N365 N 0.32545 0.40888 0.10134 0.0
N366 N 0.38286 0.52919 0.85689 0.0
H367 H 0.29571 0.51994 0.99962 0.0
H368 H 0.32212 0.53721 0.90403 0.0
H369 H 0.40239 0.53066 0.80691 0.0
H370 H 0.38205 0.55665 0.8689 0.0
H371 H 0.33844 0.39001 0.10839 0.0
H372 H 0.31181 0.41163 0.15948 0.0
H373 H 0.3433 0.36956 0.97688 0.0
H374 H 0.37944 0.39467 0.89865 0.0
C375 C 0.85935 0.3631 0.0899 0.0
C376 C 0.82235 0.33581 0.03449 0.0
C377 C 0.85965 0.35682 0.89747 0.0
C378 C 0.89788 0.37868 0.95359 0.0
N379 N 0.9347 0.40101 0.1031 0.0
N380 N 0.78513 0.30781 0.88793 0.0
C381 C 0.8979 0.38202 0.04995 0.0
C382 C 0.8219 0.33334 0.93868 0.0
N383 N 0.85734 0.3699 0.18116 0.0
N384 N 0.85936 0.35952 0.8053 0.0
H385 H 0.75687 0.29382 0.91756 0.0
H386 H 0.78239 0.29976 0.81819 0.0
H387 H 0.88559 0.37923 0.77289 0.0
H388 H 0.83268 0.34479 0.76071 0.0
H389 H 0.88253 0.39165 0.2252 0.0
H390 H 0.82921 0.35632 0.21123 0.0
H391 H 0.93688 0.40099 0.17371 0.0
H392 H 0.96352 0.41401 0.07606 0.0
C393 C 0.82071 0.45123 0.80965 0.0
C394 C 0.81915 0.48719 0.84379 0.0
C395 C 0.88504 0.53191 0.77619 0.0
C396 C 0.88726 0.49645 0.74677 0.0
N397 N 0.84872 0.42345 0.69797 0.0
N398 N 0.83988 0.55842 0.81316 0.0
C399 C 0.8521 0.45645 0.75077 0.0
C400 C 0.84816 0.52657 0.81236 0.0
N401 N 0.7946 0.41253 0.8362 0.0
N402 N 0.91844 0.57081 0.77117 0.0
H403 H 0.81164 0.55495 0.8302 0.0
H404 H 0.85871 0.58635 0.78503 0.0
H405 H 0.94485 0.57551 0.73999 0.0
H406 H 0.92041 0.59783 0.80162 0.0
H407 H 0.79824 0.38698 0.81993 0.0
H408 H 0.77108 0.40576 0.87881 0.0
H409 H 0.82147 0.39445 0.68917 0.0
H410 H 0.87132 0.42706 0.65435 0.0
C411 C 0.29703 0.90588 0.98671 0.0
C412 C 0.27587 0.86231 0.95961 0.0
C413 C 0.31386 0.87576 0.82135 0.0
C414 C 0.33883 0.9179 0.85566 0.0
N415 N 0.35652 0.97415 0.97138 0.0
N416 N 0.26574 0.80511 0.85297 0.0
C417 C 0.33059 0.93345 0.9376 0.0
C418 C 0.28442 0.84709 0.87687 0.0
N419 N 0.2861 0.92097 0.06077 0.0
N420 N 0.31826 0.86334 0.73545 0.0
H421 H 0.24304 0.78272 0.88914 0.0
H422 H 0.2746 0.79212 0.80036 0.0
H423 H 0.34009 0.88389 0.69415 0.0
H424 H 0.29807 0.83396 0.702 0.0
H425 H 0.29657 0.95254 0.07634 0.0
H426 H 0.26456 0.90217 0.10438 0.0
H427 H 0.35604 0.98612 0.03661 0.0
H428 H 0.38061 0.99584 0.93628 0.0
C429 C 0.50583 0.345 0.02347 0.0
C430 C 0.47845 0.33016 0.09446 0.0
C431 C 0.45708 0.38161 0.06623 0.0
C432 C 0.48555 0.39693 0.99833 0.0
N433 N 0.54317 0.4001 0.92531 0.0
N434 N 0.43382 0.33988 0.19493 0.0
C435 C 0.51195 0.38082 0.98153 0.0
C436 C 0.45546 0.34987 0.11894 0.0
N437 N 0.52447 0.3236 0.9924 0.0
N438 N 0.43143 0.39736 0.07954 0.0
H439 H 0.43378 0.31891 0.23877 0.0
H440 H 0.41884 0.3551 0.21998 0.0
H441 H 0.43456 0.42296 0.0474 0.0
H442 H 0.40625 0.38431 0.11914 0.0
H443 H 0.54044 0.32984 0.93383 0.0
H444 H 0.52097 0.29701 0.01969 0.0
H445 H 0.56651 0.39289 0.91781 0.0
H446 H 0.54834 0.42643 0.89335 0.0
C447 C 0.15996 0.51959 0.04544 0.0
C448 C 0.18914 0.50877 0.01744 0.0
C449 C 0.14374 0.47234 0.8772 0.0
C450 C 0.11116 0.47527 0.91624 0.0
N451 N 0.08668 0.49124 0.05447 0.0
N452 N 0.20515 0.46797 0.91024 0.0
C453 C 0.11877 0.496 0.0054 0.0
C454 C 0.18011 0.48323 0.93402 0.0
N455 N 0.17085 0.551 0.11239 0.0
N456 N 0.14098 0.46063 0.78649 0.0
H457 H 0.23163 0.47458 0.95036 0.0
H458 H 0.19747 0.446 0.85469 0.0
H459 H 0.11596 0.45456 0.74135 0.0
H460 H 0.16575 0.46151 0.75458 0.0
H461 H 0.15014 0.55992 0.13481 0.0
H462 H 0.2013 0.57023 0.14041 0.0
H463 H 0.09116 0.50362 0.12205 0.0
H464 H 0.05562 0.47031 0.03249 0.0
C465 C 0.66983 0.099 0.96153 0.0
C466 C 0.68888 0.14272 0.95611 0.0
C467 C 0.63754 0.13018 0.82889 0.0
C468 C 0.61887 0.08649 0.83419 0.0
N469 N 0.62593 0.0298 0.88478 0.0
N470 N 0.69835 0.19887 0.86748 0.0
C471 C 0.63818 0.07123 0.89346 0.0
C472 C 0.67507 0.15796 0.88412 0.0
N473 N 0.67954 0.08374 0.03494 0.0
N474 N 0.61839 0.1454 0.77537 0.0
H475 H 0.72653 0.21939 0.90475 0.0
H476 H 0.69207 0.21115 0.81126 0.0
H477 H 0.59146 0.12617 0.733 0.0
H478 H 0.62782 0.17699 0.77714 0.0
H479 H 0.66306 0.05237 0.04725 0.0
H480 H 0.70138 0.10264 0.08837 0.0
H481 H 0.64111 0.0172 0.92032 0.0
H482 H 0.6034 0.00901 0.83442 0.0
C483 C 0.56821 0.70604 0.78001 0.0
C484 C 0.57897 0.71264 0.87456 0.0
C485 C 0.5779 0.64624 0.87401 0.0
C486 C 0.56359 0.63786 0.78042 0.0
N487 N 0.53868 0.65654 0.64687 0.0
N488 N 0.59326 0.69016 0.01489 0.0
C489 C 0.55719 0.66702 0.73391 0.0
C490 C 0.58403 0.68324 0.92246 0.0
N491 N 0.56892 0.7374 0.73455 0.0
N492 N 0.58639 0.61931 0.91593 0.0
H493 H 0.60168 0.71851 0.05131 0.0
H494 H 0.59143 0.66761 0.05618 0.0
H495 H 0.57961 0.59081 0.88371 0.0
H496 H 0.60183 0.62583 0.9805 0.0
H497 H 0.56545 0.73631 0.66382 0.0
H498 H 0.57692 0.76638 0.76756 0.0
H499 H 0.5289 0.67435 0.61326 0.0
H500 H 0.52968 0.62812 0.61035 0.0
C501 C 0.49079 0.16634 0.48707 0.0
C502 C 0.47267 0.15861 0.39646 0.0
C503 C 0.45501 0.08518 0.39346 0.0
C504 C 0.47457 0.09345 0.48269 0.0
N505 N 0.51759 0.14302 0.60896 0.0
N506 N 0.44541 0.11343 0.25611 0.0
C507 C 0.49474 0.13455 0.52736 0.0
C508 C 0.45696 0.11876 0.3474 0.0
N509 N 0.50268 0.20359 0.53588 0.0
N510 N 0.43351 0.04505 0.35405 0.0
H511 H 0.44611 0.13707 0.22008 0.0
H512 H 0.43812 0.08663 0.21461 0.0
H513 H 0.43314 0.02031 0.38487 0.0
H514 H 0.41444 0.03602 0.29362 0.0
H515 H 0.51208 0.20974 0.60527 0.0
H516 H 0.49974 0.2274 0.5089 0.0
H517 H 0.53654 0.17302 0.6408 0.0
H518 H 0.52086 0.1204 0.64096 0.0
C519 C 0.32401 0.49595 0.49381 0.0
C520 C 0.33837 0.52928 0.43681 0.0
C521 C 0.40982 0.55146 0.48976 0.0
C522 C 0.3952 0.5118 0.52359 0.0
N523 N 0.33941 0.44869 0.5713 0.0
N524 N 0.39432 0.59651 0.40406 0.0
C525 C 0.35253 0.48516 0.532 0.0
C526 C 0.38113 0.5601 0.44376 0.0
N527 N 0.28302 0.47477 0.50993 0.0
N528 N 0.45134 0.58019 0.50071 0.0
H529 H 0.37433 0.60692 0.38385 0.0
H530 H 0.42516 0.61746 0.39426 0.0
H531 H 0.47255 0.57402 0.5341 0.0
H532 H 0.46466 0.61061 0.4825 0.0
H533 H 0.27066 0.45172 0.55496 0.0
H534 H 0.26229 0.48357 0.48438 0.0
H535 H 0.30833 0.42556 0.5709 0.0
H536 H 0.36024 0.44118 0.60193 0.0
C537 C 0.85571 0.30427 0.42471 0.0
C538 C 0.86677 0.29492 0.33901 0.0
C539 C 0.93898 0.35143 0.37946 0.0
C540 C 0.92642 0.36332 0.45973 0.0
N541 N 0.8718 0.35437 0.55411 0.0
N542 N 0.91784 0.31399 0.22859 0.0
C543 C 0.88449 0.34065 0.48083 0.0
C544 C 0.90825 0.31945 0.31477 0.0
N545 N 0.81767 0.27774 0.45367 0.0
N546 N 0.98021 0.37022 0.36574 0.0
H547 H 0.89636 0.29121 0.17927 0.0
H548 H 0.94623 0.33404 0.20383 0.0
H549 H 0.00312 0.39402 0.41127 0.0
H550 H 0.99181 0.36013 0.31332 0.0
H551 H 0.80973 0.27976 0.51985 0.0
H552 H 0.79504 0.25138 0.41402 0.0
H553 H 0.84074 0.34263 0.56589 0.0
H554 H 0.89204 0.37983 0.59983 0.0
C555 C 0.5927 0.91542 0.18624 0.0
C556 C 0.58298 0.87689 0.22081 0.0
C557 C 0.55744 0.89448 0.35516 0.0
C558 C 0.57085 0.9347 0.32562 0.0
N559 N 0.60638 0.98608 0.22008 0.0
N560 N 0.56464 0.83339 0.3452 0.0
C561 C 0.59 0.94604 0.24304 0.0
C562 C 0.56818 0.86771 0.30778 0.0
N563 N 0.60245 0.92191 0.09808 0.0
N564 N 0.53276 0.8811 0.42607 0.0
H565 H 0.57284 0.81337 0.31195 0.0
H566 H 0.55776 0.82729 0.41232 0.0
H567 H 0.52268 0.89915 0.46093 0.0
H568 H 0.51866 0.85054 0.44412 0.0
H569 H 0.60489 0.9472 0.06602 0.0
H570 H 0.60533 0.90051 0.05469 0.0
H571 H 0.6245 0.99725 0.16538 0.0
H572 H 0.60431 0.00902 0.2598 0.0
C573 C 0.62992 0.48508 0.18784 0.0
C574 C 0.6692 0.49131 0.21891 0.0
C575 C 0.65874 0.51172 0.37398 0.0
C576 C 0.62253 0.51127 0.33975 0.0
N577 N 0.58051 0.50822 0.20624 0.0
N578 N 0.72494 0.51997 0.33967 0.0
C579 C 0.60974 0.50054 0.24456 0.0
C580 C 0.68473 0.50723 0.31157 0.0
N581 N 0.61235 0.46579 0.10295 0.0
N582 N 0.66806 0.51555 0.46592 0.0
H583 H 0.74559 0.51884 0.29628 0.0
H584 H 0.73887 0.53555 0.40359 0.0
H585 H 0.64952 0.51837 0.51342 0.0
H586 H 0.69184 0.51182 0.49466 0.0
H587 H 0.58194 0.45687 0.0808 0.0
H588 H 0.62665 0.45531 0.05797 0.0
H589 H 0.57285 0.50457 0.1362 0.0
H590 H 0.56774 0.52337 0.24239 0.0
C591 C 0.08491 0.6708 0.21662 0.0
C592 C 0.12161 0.70077 0.27065 0.0
C593 C 0.10782 0.65116 0.38402 0.0
C594 C 0.06917 0.62265 0.33503 0.0
N595 N 0.01787 0.60693 0.21128 0.0
N596 N 0.16339 0.72302 0.4133 0.0
C597 C 0.05677 0.63283 0.25292 0.0
C598 C 0.13152 0.69195 0.35689 0.0
N599 N 0.07783 0.67786 0.12952 0.0
N600 N 0.1221 0.63881 0.45586 0.0
H601 H 0.18029 0.75357 0.3954 0.0
H602 H 0.16999 0.71964 0.4806 0.0
H603 H 0.10575 0.60871 0.47663 0.0
H604 H 0.15174 0.65691 0.48903 0.0
H605 H 0.05444 0.65513 0.08317 0.0
H606 H 0.09688 0.70589 0.10189 0.0
H607 H 0.00539 0.61482 0.15665 0.0
H608 H 0.99716 0.57838 0.235 0.0
loop_
_geom_bond_atom_site_label_1
_geom_bond_atom_site_label_2
_geom_bond_distance
_geom_bond_site_symmetry_2
_ccdc_geom_bond_type
C0 O2 1.247 . S
C0 O4 1.258 . S
C1 O8 1.247 . S
C1 O9 1.258 . S
O2 C0 1.247 . S
O2 Zn3 2.028 . S
Zn3 O2 2.028 . S
Zn3 O7 2.035 . S
Zn3 O9 2.035 . S
Zn3 O10 2.028 . S
O4 C0 1.258 . S
O4 Zn5 2.035 . S
Zn5 O4 2.035 . S
Zn5 O6 2.028 . S
Zn5 O8 2.028 . S
Zn5 O11 2.035 . S
O6 Zn5 2.028 . S
O6 C12 1.247 . S
O7 Zn3 2.035 . S
O7 C12 1.258 . S
O8 C1 1.247 . S
O8 Zn5 2.028 . S
O9 C1 1.258 . S
O9 Zn3 2.035 . S
O10 Zn3 2.028 . S
O10 C13 1.247 . S
O11 Zn5 2.035 . S
O11 C13 1.258 . S
C12 O6 1.247 . S
C12 O7 1.258 . S
C13 O10 1.247 . S
C13 O11 1.258 . S
C14 O16 1.247 . S
C14 O18 1.258 . S
C15 O22 1.247 . S
C15 O23 1.258 . S
O16 C14 1.247 . S
O16 Zn17 2.028 . S
Zn17 O16 2.028 . S
Zn17 O21 2.035 . S
Zn17 O23 2.035 . S
Zn17 O24 2.028 . S
O18 C14 1.258 . S
O18 Zn19 2.035 . S
Zn19 O18 2.035 . S
Zn19 O20 2.028 . S
Zn19 O22 2.028 . S
Zn19 O25 2.035 . S
O20 Zn19 2.028 . S
O20 C26 1.247 . S
O21 Zn17 2.035 . S
O21 C26 1.258 . S
O22 C15 1.247 . S
O22 Zn19 2.028 . S
O23 C15 1.258 . S
O23 Zn17 2.035 . S
O24 Zn17 2.028 . S
O24 C27 1.247 . S
O25 Zn19 2.035 . S
O25 C27 1.258 . S
C26 O20 1.247 . S
C26 O21 1.258 . S
C27 O24 1.247 . S
C27 O25 1.258 . S
C28 O30 1.247 . S
C28 O32 1.258 . S
C29 O36 1.247 . S
C29 O37 1.258 . S
O30 C28 1.247 . S
O30 Zn31 2.028 . S
Zn31 O30 2.028 . S
Zn31 O35 2.035 . S
Zn31 O37 2.035 1_554 S
Zn31 O38 2.028 1_554 S
O32 C28 1.258 . S
O32 Zn33 2.035 . S
Zn33 O32 2.035 . S
Zn33 O34 2.028 . S
Zn33 O36 2.028 1_554 S
Zn33 O39 2.035 1_554 S
O34 Zn33 2.028 . S
O34 C40 1.247 . S
O35 Zn31 2.035 . S
O35 C40 1.258 . S
O36 C29 1.247 . S
O36 Zn33 2.028 1_556 S
O37 C29 1.258 . S
O37 Zn31 2.035 1_556 S
O38 Zn31 2.028 1_556 S
O38 C41 1.247 . S
O39 Zn33 2.035 1_556 S
O39 C41 1.258 . S
C40 O34 1.247 . S
C40 O35 1.258 . S
C41 O38 1.247 . S
C41 O39 1.258 . S
C42 O44 1.247 . S
C42 O46 1.258 . S
C43 O50 1.247 . S
C43 O51 1.258 . S
O44 C42 1.247 . S
O44 Zn45 2.028 1_556 S
Zn45 O44 2.028 1_554 S
Zn45 O49 2.035 1_554 S
Zn45 O51 2.035 . S
Zn45 O52 2.028 . S
O46 C42 1.258 . S
O46 Zn47 2.035 1_556 S
Zn47 O46 2.035 1_554 S
Zn47 O48 2.028 1_554 S
Zn47 O50 2.028 . S
Zn47 O53 2.035 . S
O48 Zn47 2.028 1_556 S
O48 C54 1.247 . S
O49 Zn45 2.035 1_556 S
O49 C54 1.258 . S
O50 C43 1.247 . S
O50 Zn47 2.028 . S
O51 C43 1.258 . S
O51 Zn45 2.035 . S
O52 Zn45 2.028 . S
O52 C55 1.247 . S
O53 Zn47 2.035 . S
O53 C55 1.258 . S
C54 O48 1.247 . S
C54 O49 1.258 . S
C55 O52 1.247 . S
C55 O53 1.258 . S
C56 O58 1.247 . S
C56 O60 1.258 . S
C57 O64 1.247 . S
C57 O65 1.258 . S
O58 C56 1.247 . S
O58 Zn59 2.028 . S
Zn59 O58 2.028 . S
Zn59 O63 2.035 . S
Zn59 O65 2.035 . S
Zn59 O66 2.028 . S
O60 C56 1.258 . S
O60 Zn61 2.035 . S
Zn61 O60 2.035 . S
Zn61 O62 2.028 . S
Zn61 O64 2.028 . S
Zn61 O67 2.035 . S
O62 Zn61 2.028 . S
O62 C68 1.247 . S
O63 Zn59 2.035 . S
O63 C68 1.258 . S
O64 C57 1.247 . S
O64 Zn61 2.028 . S
O65 C57 1.258 . S
O65 Zn59 2.035 . S
O66 Zn59 2.028 . S
O66 C69 1.247 1_554 S
O67 Zn61 2.035 . S
O67 C69 1.258 1_554 S
C68 O62 1.247 . S
C68 O63 1.258 . S
C69 O66 1.247 1_556 S
C69 O67 1.258 1_556 S
C70 O72 1.247 . S
C70 O74 1.258 . S
C71 O78 1.247 . S
C71 O79 1.258 . S
O72 C70 1.247 . S
O72 Zn73 2.028 . S
Zn73 O72 2.028 . S
Zn73 O77 2.035 . S
Zn73 O79 2.035 . S
Zn73 O80 2.028 . S
O74 C70 1.258 . S
O74 Zn75 2.035 . S
Zn75 O74 2.035 . S
Zn75 O76 2.028 . S
Zn75 O78 2.028 . S
Zn75 O81 2.035 . S
O76 Zn75 2.028 . S
O76 C82 1.247 . S
O77 Zn73 2.035 . S
O77 C82 1.258 . S
O78 C71 1.247 . S
O78 Zn75 2.028 . S
O79 C71 1.258 . S
O79 Zn73 2.035 . S
O80 Zn73 2.028 . S
O80 C83 1.247 . S
O81 Zn75 2.035 . S
O81 C83 1.258 . S
C82 O76 1.247 . S
C82 O77 1.258 . S
C83 O80 1.247 . S
C83 O81 1.258 . S
C84 O96 1.241 . S
C84 O97 1.280 . S
C85 O98 1.277 . S
C85 O99 1.245 . S
C86 O110 1.247 . S
C86 O112 1.289 . S
Mg87 O88 1.926 . S
Mg87 O97 1.984 . S
Mg87 O99 1.988 1_655 S
Mg87 O100 2.061 . S
O88 Mg87 1.926 . S
O88 Mg89 1.986 1_655 S
O88 Mg90 1.917 1_655 S
Mg89 O88 1.986 1_455 S
Mg89 O96 2.042 1_455 S
Mg89 O98 2.041 . S
Mg89 O104 2.038 1_455 S
Mg89 O112 2.238 . S
Mg90 O88 1.917 1_455 S
Mg90 O91 1.917 . S
Mg90 O101 2.106 1_455 S
Mg90 O103 2.079 1_455 S
Mg90 O112 2.106 . S
Mg90 O113 2.079 . S
O91 Mg90 1.917 . S
O91 Mg92 1.926 . S
O91 Mg93 1.986 . S
Mg92 O91 1.926 . S
Mg92 O106 1.984 . S
Mg92 O109 1.988 1_455 S
Mg92 O110 2.061 . S
Mg93 O91 1.986 . S
Mg93 O101 2.238 1_455 S
Mg93 O105 2.042 . S
Mg93 O107 2.041 1_455 S
Mg93 O114 2.038 . S
C94 O100 1.247 . S
C94 O101 1.289 . S
C95 O113 1.245 . S
C95 O114 1.274 . S
O96 C84 1.241 . S
O96 Mg89 2.042 1_655 S
O97 C84 1.280 . S
O97 Mg87 1.984 . S
O98 C85 1.277 . S
O98 Mg89 2.041 . S
O99 C85 1.245 . S
O99 Mg87 1.988 1_455 S
O100 Mg87 2.061 . S
O100 C94 1.247 . S
O101 Mg90 2.106 1_655 S
O101 Mg93 2.238 1_655 S
O101 C94 1.289 . S
C102 O103 1.245 . S
C102 O104 1.274 . S
O103 Mg90 2.079 1_655 S
O103 C102 1.245 . S
O104 Mg89 2.038 1_655 S
O104 C102 1.274 . S
O105 Mg93 2.042 . S
O105 C108 1.241 . S
O106 Mg92 1.984 . S
O106 C108 1.280 . S
O107 Mg93 2.041 1_655 S
O107 C111 1.277 . S
C108 O105 1.241 . S
C108 O106 1.280 . S
O109 Mg92 1.988 1_655 S
O109 C111 1.245 . S
O110 C86 1.247 . S
O110 Mg92 2.061 . S
C111 O107 1.277 . S
C111 O109 1.245 . S
O112 C86 1.289 . S
O112 Mg89 2.238 . S
O112 Mg90 2.106 . S
O113 Mg90 2.079 . S
O113 C95 1.245 . S
O114 Mg93 2.038 . S
O114 C95 1.274 . S
C115 O127 1.241 . S
C115 O128 1.280 . S
C116 O129 1.277 . S
C116 O130 1.245 . S
C117 O141 1.247 . S
C117 O143 1.289 . S
Mg118 O119 1.926 . S
Mg118 O128 1.984 . S
Mg118 O130 1.988 1_545 S
Mg118 O131 2.061 . S
O119 Mg118 1.926 . S
O119 Mg120 1.986 . S
O119 Mg121 1.917 . S
Mg120 O119 1.986 . S
Mg120 O127 2.042 . S
Mg120 O129 2.041 1_545 S
Mg120 O135 2.038 . S
Mg120 O143 2.238 1_545 S
Mg121 O119 1.917 . S
Mg121 O122 1.917 1_545 S
Mg121 O132 2.106 . S
Mg121 O134 2.079 . S
Mg121 O143 2.106 1_545 S
Mg121 O144 2.079 1_545 S
O122 Mg121 1.917 1_565 S
O122 Mg123 1.926 . S
O122 Mg124 1.986 1_565 S
Mg123 O122 1.926 . S
Mg123 O137 1.984 . S
Mg123 O140 1.988 1_565 S
Mg123 O141 2.061 . S
Mg124 O122 1.986 1_545 S
Mg124 O132 2.238 . S
Mg124 O136 2.042 1_545 S
Mg124 O138 2.041 . S
Mg124 O145 2.038 1_545 S
C125 O131 1.247 . S
C125 O132 1.289 . S
C126 O144 1.245 . S
C126 O145 1.274 . S
O127 C115 1.241 . S
O127 Mg120 2.042 . S
O128 C115 1.280 . S
O128 Mg118 1.984 . S
O129 C116 1.277 . S
O129 Mg120 2.041 1_565 S
O130 C116 1.245 . S
O130 Mg118 1.988 1_565 S
O131 Mg118 2.061 . S
O131 C125 1.247 . S
O132 Mg121 2.106 . S
O132 Mg124 2.238 . S
O132 C125 1.289 . S
C133 O134 1.245 . S
C133 O135 1.274 . S
O134 Mg121 2.079 . S
O134 C133 1.245 . S
O135 Mg120 2.038 . S
O135 C133 1.274 . S
O136 Mg124 2.042 1_565 S
O136 C139 1.241 . S
O137 Mg123 1.984 . S
O137 C139 1.280 . S
O138 Mg124 2.041 . S
O138 C142 1.277 . S
C139 O136 1.241 . S
C139 O137 1.280 . S
O140 Mg123 1.988 1_545 S
O140 C142 1.245 . S
O141 C117 1.247 . S
O141 Mg123 2.061 . S
C142 O138 1.277 . S
C142 O140 1.245 . S
O143 C117 1.289 . S
O143 Mg120 2.238 1_565 S
O143 Mg121 2.106 1_565 S
O144 Mg121 2.079 1_565 S
O144 C126 1.245 . S
O145 Mg124 2.038 1_565 S
O145 C126 1.274 . S
C146 O158 1.241 . S
C146 O159 1.280 . S
C147 O160 1.277 . S
C147 O161 1.245 . S
C148 O172 1.247 . S
C148 O174 1.289 . S
Mg149 O150 1.926 . S
Mg149 O159 1.984 . S
Mg149 O161 1.988 . S
Mg149 O162 2.061 . S
O150 Mg149 1.926 . S
O150 Mg151 1.986 . S
O150 Mg152 1.917 . S
Mg151 O150 1.986 . S
Mg151 O158 2.042 . S
Mg151 O160 2.041 . S
Mg151 O166 2.038 . S
Mg151 O174 2.238 . S
Mg152 O150 1.917 . S
Mg152 O153 1.917 . S
Mg152 O163 2.106 . S
Mg152 O165 2.079 . S
Mg152 O174 2.106 . S
Mg152 O175 2.079 . S
O153 Mg152 1.917 . S
O153 Mg154 1.926 . S
O153 Mg155 1.986 . S
Mg154 O153 1.926 . S
Mg154 O168 1.984 . S
Mg154 O171 1.988 . S
Mg154 O172 2.061 . S
Mg155 O153 1.986 . S
Mg155 O163 2.238 . S
Mg155 O167 2.042 . S
Mg155 O169 2.041 . S
Mg155 O176 2.038 . S
C156 O162 1.247 . S
C156 O163 1.289 . S
C157 O175 1.245 . S
C157 O176 1.274 . S
O158 C146 1.241 . S
O158 Mg151 2.042 . S
O159 C146 1.280 . S
O159 Mg149 1.984 . S
O160 C147 1.277 . S
O160 Mg151 2.041 . S
O161 C147 1.245 . S
O161 Mg149 1.988 . S
O162 Mg149 2.061 . S
O162 C156 1.247 . S
O163 Mg152 2.106 . S
O163 Mg155 2.238 . S
O163 C156 1.289 . S
C164 O165 1.245 . S
C164 O166 1.274 . S
O165 Mg152 2.079 . S
O165 C164 1.245 . S
O166 Mg151 2.038 . S
O166 C164 1.274 . S
O167 Mg155 2.042 . S
O167 C170 1.241 . S
O168 Mg154 1.984 . S
O168 C170 1.280 . S
O169 Mg155 2.041 . S
O169 C173 1.277 . S
C170 O167 1.241 . S
C170 O168 1.280 . S
O171 Mg154 1.988 . S
O171 C173 1.245 . S
O172 C148 1.247 . S
O172 Mg154 2.061 . S
C173 O169 1.277 . S
C173 O171 1.245 . S
O174 C148 1.289 . S
O174 Mg151 2.238 . S
O174 Mg152 2.106 . S
O175 Mg152 2.079 . S
O175 C157 1.245 . S
O176 Mg155 2.038 . S
O176 C157 1.274 . S
C177 C178 1.363 . S
C177 C183 1.379 . S
C177 N185 1.356 . S
C178 C177 1.363 . S
C178 C184 1.363 . S
C179 C180 1.363 . S
C179 C184 1.379 . S
C179 N186 1.356 . S
C180 C179 1.363 . S
C180 C183 1.363 . S
N181 C183 1.356 . S
N181 H193 0.984 . S
N181 H194 0.985 . S
N182 C184 1.356 . S
N182 H187 0.984 . S
N182 H188 0.985 . S
C183 C177 1.379 . S
C183 C180 1.363 . S
C183 N181 1.356 . S
C184 C178 1.363 . S
C184 C179 1.379 . S
C184 N182 1.356 . S
N185 C177 1.356 . S
N185 H191 0.984 . S
N185 H192 0.984 . S
N186 C179 1.356 . S
N186 H189 0.984 . S
N186 H190 0.985 . S
H187 N182 0.984 . S
H188 N182 0.985 . S
H189 N186 0.984 . S
H190 N186 0.985 . S
H191 N185 0.984 . S
H192 N185 0.984 . S
H193 N181 0.984 . S
H194 N181 0.985 . S
C195 C196 1.363 . S
C195 C201 1.379 . S
C195 N203 1.356 . S
C196 C195 1.363 . S
C196 C202 1.363 . S
C197 C198 1.363 . S
C197 C202 1.379 . S
C197 N204 1.356 . S
C198 C197 1.363 . S
C198 C201 1.363 . S
N199 C201 1.356 . S
N199 H211 0.984 . S
N199 H212 0.985 . S
N200 C202 1.356 . S
N200 H205 0.984 . S
N200 H206 0.985 . S
C201 C195 1.379 . S
C201 C198 1.363 . S
C201 N199 1.356 . S
C202 C196 1.363 . S
C202 C197 1.379 . S
C202 N200 1.356 . S
N203 C195 1.356 . S
N203 H209 0.984 . S
N203 H210 0.984 . S
N204 C197 1.356 . S
N204 H207 0.984 . S
N204 H208 0.985 . S
H205 N200 0.984 . S
H206 N200 0.985 . S
H207 N204 0.984 . S
H208 N204 0.985 . S
H209 N203 0.984 . S
H210 N203 0.984 . S
H211 N199 0.984 . S
H212 N199 0.985 . S
C213 C214 1.363 . S
C213 C219 1.379 . S
C213 N221 1.356 . S
C214 C213 1.363 . S
C214 C220 1.363 . S
C215 C216 1.363 . S
C215 C220 1.379 . S
C215 N222 1.356 . S
C216 C215 1.363 . S
C216 C219 1.363 . S
N217 C219 1.356 . S
N217 H229 0.984 . S
N217 H230 0.985 . S
N218 C220 1.356 . S
N218 H223 0.984 . S
N218 H224 0.985 . S
C219 C213 1.379 . S
C219 C216 1.363 . S
C219 N217 1.356 . S
C220 C214 1.363 . S
C220 C215 1.379 . S
C220 N218 1.356 . S
N221 C213 1.356 . S
N221 H227 0.984 . S
N221 H228 0.984 . S
N222 C215 1.356 . S
N222 H225 0.984 . S
N222 H226 0.985 . S
H223 N218 0.984 . S
H224 N218 0.985 . S
H225 N222 0.984 . S
H226 N222 0.985 . S
H227 N221 0.984 . S
H228 N221 0.984 . S
H229 N217 0.984 . S
H230 N217 0.985 . S
C231 C232 1.363 . S
C231 C237 1.379 . S
C231 N239 1.356 . S
C232 C231 1.363 . S
C232 C238 1.363 . S
C233 C234 1.363 . S
C233 C238 1.379 . S
C233 N240 1.356 . S
C234 C233 1.363 . S
C234 C237 1.363 . S
N235 C237 1.356 . S
N235 H247 0.984 . S
N235 H248 0.985 . S
N236 C238 1.356 . S
N236 H241 0.984 . S
N236 H242 0.985 . S
C237 C231 1.379 . S
C237 C234 1.363 . S
C237 N235 1.356 . S
C238 C232 1.363 . S
C238 C233 1.379 . S
C238 N236 1.356 . S
N239 C231 1.356 . S
N239 H245 0.984 . S
N239 H246 0.984 . S
N240 C233 1.356 . S
N240 H243 0.984 . S
N240 H244 0.985 . S
H241 N236 0.984 . S
H242 N236 0.985 . S
H243 N240 0.984 . S
H244 N240 0.985 . S
H245 N239 0.984 . S
H246 N239 0.984 . S
H247 N235 0.984 . S
H248 N235 0.985 . S
C249 C250 1.363 . S
C249 C255 1.379 . S
C249 N257 1.356 . S
C250 C249 1.363 . S
C250 C256 1.363 . S
C251 C252 1.363 . S
C251 C256 1.379 . S
C251 N258 1.356 . S
C252 C251 1.363 . S
C252 C255 1.363 . S
N253 C255 1.356 . S
N253 H265 0.984 . S
N253 H266 0.985 . S
N254 C256 1.356 . S
N254 H259 0.984 . S
N254 H260 0.985 . S
C255 C249 1.379 . S
C255 C252 1.363 . S
C255 N253 1.356 . S
C256 C250 1.363 . S
C256 C251 1.379 . S
C256 N254 1.356 . S
N257 C249 1.356 . S
N257 H263 0.984 . S
N257 H264 0.984 . S
N258 C251 1.356 . S
N258 H261 0.984 . S
N258 H262 0.985 . S
H259 N254 0.984 . S
H260 N254 0.985 . S
H261 N258 0.984 . S
H262 N258 0.985 . S
H263 N257 0.984 . S
H264 N257 0.984 . S
H265 N253 0.984 . S
H266 N253 0.985 . S
C267 C268 1.363 . S
C267 C273 1.379 . S
C267 N275 1.356 . S
C268 C267 1.363 . S
C268 C274 1.363 . S
C269 C270 1.363 . S
C269 C274 1.379 . S
C269 N276 1.356 . S
C270 C269 1.363 . S
C270 C273 1.363 . S
N271 C273 1.356 . S
N271 H283 0.984 . S
N271 H284 0.985 . S
N272 C274 1.356 . S
N272 H277 0.984 . S
N272 H278 0.985 . S
C273 C267 1.379 . S
C273 C270 1.363 . S
C273 N271 1.356 . S
C274 C268 1.363 . S
C274 C269 1.379 . S
C274 N272 1.356 . S
N275 C267 1.356 . S
N275 H281 0.984 . S
N275 H282 0.984 . S
N276 C269 1.356 . S
N276 H279 0.984 . S
N276 H280 0.985 . S
H277 N272 0.984 . S
H278 N272 0.985 . S
H279 N276 0.984 . S
H280 N276 0.985 . S
H281 N275 0.984 . S
H282 N275 0.984 . S
H283 N271 0.984 . S
H284 N271 0.985 . S
C285 C286 1.363 . S
C285 C291 1.379 . S
C285 N293 1.356 . S
C286 C285 1.363 . S
C286 C292 1.363 . S
C287 C288 1.363 . S
C287 C292 1.379 . S
C287 N294 1.356 . S
C288 C287 1.363 . S
C288 C291 1.363 . S
N289 C291 1.356 . S
N289 H301 0.984 . S
N289 H302 0.985 . S
N290 C292 1.356 . S
N290 H295 0.984 . S
N290 H296 0.985 . S
C291 C285 1.379 . S
C291 C288 1.363 . S
C291 N289 1.356 . S
C292 C286 1.363 . S
C292 C287 1.379 . S
C292 N290 1.356 . S
N293 C285 1.356 . S
N293 H299 0.984 1_556 S
N293 H300 0.984 . S
N294 C287 1.356 . S
N294 H297 0.984 . S
N294 H298 0.985 . S
H295 N290 0.984 . S
H296 N290 0.985 . S
H297 N294 0.984 . S
H298 N294 0.985 . S
H299 N293 0.984 1_554 S
H300 N293 0.984 . S
H301 N289 0.984 . S
H302 N289 0.985 . S
C303 C304 1.363 . S
C303 C309 1.379 . S
C303 N311 1.356 1_556 S
C304 C303 1.363 . S
C304 C310 1.363 . S
C305 C306 1.363 . S
C305 C310 1.379 . S
C305 N312 1.356 . S
C306 C305 1.363 . S
C306 C309 1.363 . S
N307 C309 1.356 . S
N307 H319 0.984 . S
N307 H320 0.985 . S
N308 C310 1.356 . S
N308 H313 0.984 . S
N308 H314 0.985 . S
C309 C303 1.379 . S
C309 C306 1.363 . S
C309 N307 1.356 . S
C310 C304 1.363 . S
C310 C305 1.379 . S
C310 N308 1.356 . S
N311 C303 1.356 1_554 S
N311 H317 0.984 . S
N311 H318 0.984 . S
N312 C305 1.356 . S
N312 H315 0.984 . S
N312 H316 0.985 . S
H313 N308 0.984 . S
H314 N308 0.985 . S
H315 N312 0.984 . S
H316 N312 0.985 . S
H317 N311 0.984 . S
H318 N311 0.984 . S
H319 N307 0.984 . S
H320 N307 0.985 . S
C321 C322 1.363 . S
C321 C327 1.379 . S
C321 N329 1.356 1_556 S
C322 C321 1.363 . S
C322 C328 1.363 . S
C323 C324 1.363 . S
C323 C328 1.379 . S
C323 N330 1.356 . S
C324 C323 1.363 . S
C324 C327 1.363 . S
N325 C327 1.356 . S
N325 H337 0.984 . S
N325 H338 0.985 . S
N326 C328 1.356 . S
N326 H331 0.984 . S
N326 H332 0.985 . S
C327 C321 1.379 . S
C327 C324 1.363 . S
C327 N325 1.356 . S
C328 C322 1.363 . S
C328 C323 1.379 . S
C328 N326 1.356 . S
N329 C321 1.356 1_554 S
N329 H335 0.984 . S
N329 H336 0.984 . S
N330 C323 1.356 . S
N330 H333 0.984 . S
N330 H334 0.985 . S
H331 N326 0.984 . S
H332 N326 0.985 . S
H333 N330 0.984 . S
H334 N330 0.985 . S
H335 N329 0.984 . S
H336 N329 0.984 . S
H337 N325 0.984 . S
H338 N325 0.985 . S
C339 C340 1.363 . S
C339 C345 1.379 . S
C339 N347 1.356 . S
C340 C339 1.363 . S
C340 C346 1.363 . S
C341 C342 1.363 . S
C341 C346 1.379 1_556 S
C341 N348 1.356 . S
C342 C341 1.363 . S
C342 C345 1.363 1_556 S
N343 C345 1.356 . S
N343 H355 0.984 . S
N343 H356 0.985 1_554 S
N344 C346 1.356 . S
N344 H349 0.984 . S
N344 H350 0.985 1_554 S
C345 C339 1.379 . S
C345 C342 1.363 1_554 S
C345 N343 1.356 . S
C346 C340 1.363 . S
C346 C341 1.379 1_554 S
C346 N344 1.356 . S
N347 C339 1.356 . S
N347 H353 0.984 . S
N347 H354 0.984 . S
N348 C341 1.356 . S
N348 H351 0.984 . S
N348 H352 0.985 . S
H349 N344 0.984 . S
H350 N344 0.985 1_556 S
H351 N348 0.984 . S
H352 N348 0.985 . S
H353 N347 0.984 . S
H354 N347 0.984 . S
H355 N343 0.984 . S
H356 N343 0.985 1_556 S
C357 C358 1.363 1_556 S
C357 C363 1.379 . S
C357 N365 1.356 1_556 S
C358 C357 1.363 1_554 S
C358 C364 1.363 1_554 S
C359 C360 1.363 . S
C359 C364 1.379 . S
C359 N366 1.356 . S
C360 C359 1.363 . S
C360 C363 1.363 . S
N361 C363 1.356 . S
N361 H373 0.984 . S
N361 H374 0.985 . S
N362 C364 1.356 . S
N362 H367 0.984 1_556 S
N362 H368 0.985 . S
C363 C357 1.379 . S
C363 C360 1.363 . S
C363 N361 1.356 . S
C364 C358 1.363 1_556 S
C364 C359 1.379 . S
C364 N362 1.356 . S
N365 C357 1.356 1_554 S
N365 H371 0.984 . S
N365 H372 0.984 . S
N366 C359 1.356 . S
N366 H369 0.984 . S
N366 H370 0.985 . S
H367 N362 0.984 1_554 S
H368 N362 0.985 . S
H369 N366 0.984 . S
H370 N366 0.985 . S
H371 N365 0.984 . S
H372 N365 0.984 . S
H373 N361 0.984 . S
H374 N361 0.985 . S
C375 C376 1.363 . S
C375 C381 1.379 1_554 S
C375 N383 1.356 . S
C376 C375 1.363 . S
C376 C382 1.363 1_554 S
C377 C378 1.363 . S
C377 C382 1.379 . S
C377 N384 1.356 . S
C378 C377 1.363 . S
C378 C381 1.363 . S
N379 C381 1.356 1_554 S
N379 H391 0.984 . S
N379 H392 0.985 1_554 S
N380 C382 1.356 . S
N380 H385 0.984 . S
N380 H386 0.985 . S
C381 C375 1.379 1_556 S
C381 C378 1.363 . S
C381 N379 1.356 1_556 S
C382 C376 1.363 1_556 S
C382 C377 1.379 . S
C382 N380 1.356 . S
N383 C375 1.356 . S
N383 H389 0.984 . S
N383 H390 0.984 . S
N384 C377 1.356 . S
N384 H387 0.984 . S
N384 H388 0.985 . S
H385 N380 0.984 . S
H386 N380 0.985 . S
H387 N384 0.984 . S
H388 N384 0.985 . S
H389 N383 0.984 . S
H390 N383 0.984 . S
H391 N379 0.984 . S
H392 N379 0.985 1_556 S
C393 C394 1.363 . S
C393 C399 1.379 . S
C393 N401 1.356 . S
C394 C393 1.363 . S
C394 C400 1.363 . S
C395 C396 1.363 . S
C395 C400 1.379 . S
C395 N402 1.356 . S
C396 C395 1.363 . S
C396 C399 1.363 . S
N397 C399 1.356 . S
N397 H409 0.984 . S
N397 H410 0.985 . S
N398 C400 1.356 . S
N398 H403 0.984 . S
N398 H404 0.985 . S
C399 C393 1.379 . S
C399 C396 1.363 . S
C399 N397 1.356 . S
C400 C394 1.363 . S
C400 C395 1.379 . S
C400 N398 1.356 . S
N401 C393 1.356 . S
N401 H407 0.984 1_556 S
N401 H408 0.984 1_556 S
N402 C395 1.356 . S
N402 H405 0.984 . S
N402 H406 0.985 . S
H403 N398 0.984 . S
H404 N398 0.985 . S
H405 N402 0.984 . S
H406 N402 0.985 . S
H407 N401 0.984 1_554 S
H408 N401 0.984 1_554 S
H409 N397 0.984 . S
H410 N397 0.985 . S
C411 C412 1.363 . S
C411 C417 1.379 . S
C411 N419 1.356 1_556 S
C412 C411 1.363 . S
C412 C418 1.363 . S
C413 C414 1.363 . S
C413 C418 1.379 . S
C413 N420 1.356 . S
C414 C413 1.363 . S
C414 C417 1.363 . S
N415 C417 1.356 . S
N415 H427 0.984 . S
N415 H428 0.985 . S
N416 C418 1.356 . S
N416 H421 0.984 . S
N416 H422 0.985 . S
C417 C411 1.379 . S
C417 C414 1.363 . S
C417 N415 1.356 . S
C418 C412 1.363 . S
C418 C413 1.379 . S
C418 N416 1.356 . S
N419 C411 1.356 1_554 S
N419 H425 0.984 . S
N419 H426 0.984 . S
N420 C413 1.356 . S
N420 H423 0.984 . S
N420 H424 0.985 . S
H421 N416 0.984 . S
H422 N416 0.985 . S
H423 N420 0.984 . S
H424 N420 0.985 . S
H425 N419 0.984 . S
H426 N419 0.984 . S
H427 N415 0.984 . S
H428 N415 0.985 . S
C429 C430 1.363 1_556 S
C429 C435 1.379 . S
C429 N437 1.356 . S
C430 C429 1.363 1_554 S
C430 C436 1.363 . S
C431 C432 1.363 1_554 S
C431 C436 1.379 . S
C431 N438 1.356 . S
C432 C431 1.363 1_556 S
C432 C435 1.363 . S
N433 C435 1.356 . S
N433 H445 0.984 . S
N433 H446 0.985 . S
N434 C436 1.356 . S
N434 H439 0.984 . S
N434 H440 0.985 . S
C435 C429 1.379 . S
C435 C432 1.363 . S
C435 N433 1.356 . S
C436 C430 1.363 . S
C436 C431 1.379 . S
C436 N434 1.356 . S
N437 C429 1.356 . S
N437 H443 0.984 . S
N437 H444 0.984 1_556 S
N438 C431 1.356 . S
N438 H441 0.984 1_554 S
N438 H442 0.985 . S
H439 N434 0.984 . S
H440 N434 0.985 . S
H441 N438 0.984 1_556 S
H442 N438 0.985 . S
H443 N437 0.984 . S
H444 N437 0.984 1_554 S
H445 N433 0.984 . S
H446 N433 0.985 . S
C447 C448 1.363 . S
C447 C453 1.379 1_554 S
C447 N455 1.356 . S
C448 C447 1.363 . S
C448 C454 1.363 1_554 S
C449 C450 1.363 . S
C449 C454 1.379 . S
C449 N456 1.356 . S
C450 C449 1.363 . S
C450 C453 1.363 . S
N451 C453 1.356 . S
N451 H463 0.984 1_556 S
N451 H464 0.985 . S
N452 C454 1.356 . S
N452 H457 0.994 . S
N452 H458 0.985 . S
C453 C447 1.379 1_556 S
C453 C450 1.363 . S
C453 N451 1.356 . S
C454 C448 1.363 1_556 S
C454 C449 1.379 . S
C454 N452 1.356 . S
N455 C447 1.356 . S
N455 H461 0.984 . S
N455 H462 0.984 . S
N456 C449 1.356 . S
N456 H459 0.984 . S
N456 H460 0.985 . S
H457 N452 0.994 . S
H458 N452 0.985 . S
H459 N456 0.984 . S
H460 N456 0.985 . S
H461 N455 0.984 . S
H462 N455 0.984 . S
H463 N451 0.984 1_554 S
H464 N451 0.985 . S
C465 C466 1.363 . S
C465 C471 1.379 . S
C465 N473 1.356 . S
C466 C465 1.363 . S
C466 C472 1.363 . S
C467 C468 1.363 . S
C467 C472 1.379 . S
C467 N474 1.356 . S
C468 C467 1.363 . S
C468 C471 1.363 . S
N469 C471 1.356 . S
N469 H481 0.984 . S
N469 H482 0.985 . S
N470 C472 1.356 1_554 S
N470 H475 0.984 . S
N470 H476 0.985 . S
C471 C465 1.379 . S
C471 C468 1.363 . S
C471 N469 1.356 . S
C472 C466 1.363 . S
C472 C467 1.379 . S
C472 N470 1.356 1_556 S
N473 C465 1.356 . S
N473 H479 0.984 . S
N473 H480 0.984 . S
N474 C467 1.356 . S
N474 H477 0.984 . S
N474 H478 0.985 . S
H475 N470 0.984 . S
H476 N470 0.985 . S
H477 N474 0.984 . S
H478 N474 0.985 . S
H479 N473 0.984 . S
H480 N473 0.984 . S
H481 N469 0.984 . S
H482 N469 0.985 . S
C483 C484 1.363 . S
C483 C489 1.379 . S
C483 N491 1.356 . S
C484 C483 1.363 . S
C484 C490 1.363 . S
C485 C486 1.363 . S
C485 C490 1.379 . S
C485 N492 1.356 . S
C486 C485 1.363 . S
C486 C489 1.363 . S
N487 C489 1.356 . S
N487 H499 0.984 . S
N487 H500 0.985 . S
N488 C490 1.360 . S
N488 H493 0.984 1_556 S
N488 H494 0.981 1_556 S
C489 C483 1.379 . S
C489 C486 1.363 . S
C489 N487 1.356 . S
C490 C484 1.363 . S
C490 C485 1.379 . S
C490 N488 1.360 . S
N491 C483 1.356 . S
N491 H497 0.984 . S
N491 H498 0.984 . S
N492 C485 1.356 . S
N492 H495 0.984 . S
N492 H496 0.985 . S
H493 N488 0.984 1_554 S
H494 N488 0.981 1_554 S
H495 N492 0.984 . S
H496 N492 0.985 . S
H497 N491 0.984 . S
H498 N491 0.984 . S
H499 N487 0.984 . S
H500 N487 0.985 . S
C501 C502 1.363 . S
C501 C507 1.379 . S
C501 N509 1.356 . S
C502 C501 1.363 . S
C502 C508 1.363 . S
C503 C504 1.363 . S
C503 C508 1.379 . S
C503 N510 1.356 . S
C504 C503 1.363 . S
C504 C507 1.363 . S
N505 C507 1.356 . S
N505 H517 0.984 . S
N505 H518 0.985 . S
N506 C508 1.356 . S
N506 H511 0.984 . S
N506 H512 0.985 . S
C507 C501 1.379 . S
C507 C504 1.363 . S
C507 N505 1.356 . S
C508 C502 1.363 . S
C508 C503 1.379 . S
C508 N506 1.356 . S
N509 C501 1.356 . S
N509 H515 0.984 . S
N509 H516 0.984 . S
N510 C503 1.356 . S
N510 H513 0.984 . S
N510 H514 0.985 . S
H511 N506 0.984 . S
H512 N506 0.985 . S
H513 N510 0.984 . S
H514 N510 0.985 . S
H515 N509 0.984 . S
H516 N509 0.984 . S
H517 N505 0.984 . S
H518 N505 0.985 . S
C519 C520 1.363 . S
C519 C525 1.379 . S
C519 N527 1.356 . S
C520 C519 1.363 . S
C520 C526 1.363 . S
C521 C522 1.363 . S
C521 C526 1.379 . S
C521 N528 1.356 . S
C522 C521 1.363 . S
C522 C525 1.363 . S
N523 C525 1.356 . S
N523 H535 0.984 . S
N523 H536 0.985 . S
N524 C526 1.356 . S
N524 H529 0.984 . S
N524 H530 0.985 . S
C525 C519 1.379 . S
C525 C522 1.363 . S
C525 N523 1.356 . S
C526 C520 1.363 . S
C526 C521 1.379 . S
C526 N524 1.356 . S
N527 C519 1.356 . S
N527 H533 0.984 . S
N527 H534 0.984 . S
N528 C521 1.356 . S
N528 H531 0.984 . S
N528 H532 0.985 . S
H529 N524 0.984 . S
H530 N524 0.985 . S
H531 N528 0.984 . S
H532 N528 0.985 . S
H533 N527 0.984 . S
H534 N527 0.984 . S
H535 N523 0.984 . S
H536 N523 0.985 . S
C537 C538 1.363 . S
C537 C543 1.379 . S
C537 N545 1.356 . S
C538 C537 1.363 . S
C538 C544 1.363 . S
C539 C540 1.363 . S
C539 C544 1.379 . S
C539 N546 1.356 . S
C540 C539 1.363 . S
C540 C543 1.363 . S
N541 C543 1.356 . S
N541 H553 0.984 . S
N541 H554 0.985 . S
N542 C544 1.356 . S
N542 H547 0.984 . S
N542 H548 0.985 . S
C543 C537 1.379 . S
C543 C540 1.363 . S
C543 N541 1.356 . S
C544 C538 1.363 . S
C544 C539 1.379 . S
C544 N542 1.356 . S
N545 C537 1.356 . S
N545 H551 0.984 . S
N545 H552 0.984 . S
N546 C539 1.356 . S
N546 H549 0.984 . S
N546 H550 0.993 . S
H547 N542 0.984 . S
H548 N542 0.985 . S
H549 N546 0.984 . S
H550 N546 0.993 . S
H551 N545 0.984 . S
H552 N545 0.984 . S
H553 N541 0.984 . S
H554 N541 0.985 . S
C555 C556 1.363 . S
C555 C561 1.379 . S
C555 N563 1.356 . S
C556 C555 1.363 . S
C556 C562 1.363 . S
C557 C558 1.363 . S
C557 C562 1.379 . S
C557 N564 1.356 . S
C558 C557 1.363 . S
C558 C561 1.363 . S
N559 C561 1.356 . S
N559 H571 0.984 . S
N559 H572 0.985 . S
N560 C562 1.356 . S
N560 H565 0.984 . S
N560 H566 0.985 . S
C561 C555 1.379 . S
C561 C558 1.363 . S
C561 N559 1.356 . S
C562 C556 1.363 . S
C562 C557 1.379 . S
C562 N560 1.356 . S
N563 C555 1.356 . S
N563 H569 0.984 . S
N563 H570 0.984 . S
N564 C557 1.356 . S
N564 H567 0.984 . S
N564 H568 0.985 . S
H565 N560 0.984 . S
H566 N560 0.985 . S
H567 N564 0.984 . S
H568 N564 0.985 . S
H569 N563 0.984 . S
H570 N563 0.984 . S
H571 N559 0.984 . S
H572 N559 0.985 . S
C573 C574 1.363 . S
C573 C579 1.379 . S
C573 N581 1.356 . S
C574 C573 1.363 . S
C574 C580 1.363 . S
C575 C576 1.363 . S
C575 C580 1.379 . S
C575 N582 1.356 . S
C576 C575 1.363 . S
C576 C579 1.363 . S
N577 C579 1.356 . S
N577 H589 0.984 . S
N577 H590 0.985 . S
N578 C580 1.356 . S
N578 H583 0.984 . S
N578 H584 0.985 . S
C579 C573 1.379 . S
C579 C576 1.363 . S
C579 N577 1.356 . S
C580 C574 1.363 . S
C580 C575 1.379 . S
C580 N578 1.356 . S
N581 C573 1.356 . S
N581 H587 0.984 . S
N581 H588 0.984 . S
N582 C575 1.356 . S
N582 H585 0.984 . S
N582 H586 0.985 . S
H583 N578 0.984 . S
H584 N578 0.985 . S
H585 N582 0.984 . S
H586 N582 0.985 . S
H587 N581 0.984 . S
H588 N581 0.984 . S
H589 N577 0.984 . S
H590 N577 0.985 . S
C591 C592 1.363 . S
C591 C597 1.379 . S
C591 N599 1.356 . S
C592 C591 1.363 . S
C592 C598 1.363 . S
C593 C594 1.363 . S
C593 C598 1.379 . S
C593 N600 1.356 . S
C594 C593 1.363 . S
C594 C597 1.363 . S
N595 C597 1.356 . S
N595 H607 0.984 . S
N595 H608 0.985 . S
N596 C598 1.356 . S
N596 H601 0.984 . S
N596 H602 0.985 . S
C597 C591 1.379 . S
C597 C594 1.363 . S
C597 N595 1.356 . S
C598 C592 1.363 . S
C598 C593 1.379 . S
C598 N596 1.356 . S
N599 C591 1.356 . S
N599 H605 0.984 . S
N599 H606 0.984 . S
N600 C593 1.356 . S
N600 H603 0.984 . S
N600 H604 0.985 . S
H601 N596 0.984 . S
H602 N596 0.985 . S
H603 N600 0.984 . S
H604 N600 0.985 . S
H605 N599 0.984 . S
H606 N599 0.984 . S
H607 N595 0.984 . S
H608 N595 0.985 . S
C178 C1 1.814 . S
C180 C95 1.736 . S
C196 C27 1.524 . S
C198 C142 1.488 . S
C216 C146 1.618 . S
C214 C40 1.678 . S
C234 C111 1.412 . S
C232 C55 1.455 . S
C250 C68 1.750 . S
C252 C126 1.668 . S
C270 C148 1.137 . S
C268 C70 1.176 . S
C288 C117 1.480 . S
C286 C41 1.544 . S
C304 C54 1.434 . S
C306 C157 1.389 . S
C324 C86 1.399 . S
C322 C69 1.468 . S
C340 C71 1.375 . S
C342 C115 1.332 . S
C358 C0 1.771 . S
C360 C173 1.713 . S
C378 C84 1.405 . S
C376 C26 1.448 . S
C396 C102 1.736 . S
C394 C42 1.814 . S
C414 C116 1.488 . S
C412 C57 1.523 1_556 S
C432 C170 1.618 . S
C430 C83 1.678 . S
C450 C85 1.412 . S
C448 C12 1.455 . S
C468 C133 1.668 . S
C466 C14 1.753 1_556 S
C484 C29 1.176 . S
C486 C156 1.137 . S
C504 C125 1.480 . S
C502 C82 1.544 . S
C522 C164 1.389 . S
C520 C13 1.434 . S
C540 C94 1.400 . S
C538 C15 1.466 . S
C558 C139 1.332 . S
C556 C28 1.375 . S
C574 C43 1.771 . S
C576 C147 1.713 . S
C592 C56 1.449 . S
C594 C108 1.405 . S
