# Generated by pormake.
# Topology zzz, (3,6)-cn, num edge types: 1
# Building blocks:
#     Node 0, Type 0, BuildingBlock: WUSLED_clean_sbu_0, # of connection points: 3
#     Node 1, Type 0, BuildingBlock: WUSLED_clean_sbu_0, # of connection points: 3
#     Node 2, Type 0, BuildingBlock: WUSLED_clean_sbu_0, # of connection points: 3
#     Node 3, Type 0, BuildingBlock: WUSLED_clean_sbu_0, # of connection points: 3
#     Node 4, Type 0, BuildingBlock: WUSLED_clean_sbu_0, # of connection points: 3
#     Node 5, Type 0, BuildingBlock: WUSLED_clean_sbu_0, # of connection points: 3
#     Node 6, Type 0, BuildingBlock: WUSLED_clean_sbu_0, # of connection points: 3
#     Node 7, Type 0, BuildingBlock: WUSLED_clean_sbu_0, # of connection points: 3
#     Node 8, Type 1, BuildingBlock: PAMTUU_clean_sbu_0, # of connection points: 6
#     Node 9, Type 1, BuildingBlock: PAMTUU_clean_sbu_0, # of connection points: 6
#     Node 10, Type 1, BuildingBlock: PAMTUU_clean_sbu_0, # of connection points: 6
#     Node 11, Type 1, BuildingBlock: PAMTUU_clean_sbu_0, # of connection points: 6
#     Edge 12, Type (0, 1), BuildingBlock: UVAHIK_clean_linker_0, # of connection points: 2
#     Edge 13, Type (0, 1), BuildingBlock: UVAHIK_clean_linker_0, # of connection points: 2
#     Edge 14, Type (0, 1), BuildingBlock: UVAHIK_clean_linker_0, # of connection points: 2
#     Edge 15, Type (0, 1), BuildingBlock: UVAHIK_clean_linker_0, # of connection points: 2
#     Edge 16, Type (0, 1), BuildingBlock: UVAHIK_clean_linker_0, # of connection points: 2
#     Edge 17, Type (0, 1), BuildingBlock: UVAHIK_clean_linker_0, # of connection points: 2
#     Edge 18, Type (0, 1), BuildingBlock: UVAHIK_clean_linker_0, # of connection points: 2
#     Edge 19, Type (0, 1), BuildingBlock: UVAHIK_clean_linker_0, # of connection points: 2
#     Edge 20, Type (0, 1), BuildingBlock: UVAHIK_clean_linker_0, # of connection points: 2
#     Edge 21, Type (0, 1), BuildingBlock: UVAHIK_clean_linker_0, # of connection points: 2
#     Edge 22, Type (0, 1), BuildingBlock: UVAHIK_clean_linker_0, # of connection points: 2
#     Edge 23, Type (0, 1), BuildingBlock: UVAHIK_clean_linker_0, # of connection points: 2
#     Edge 24, Type (0, 1), BuildingBlock: UVAHIK_clean_linker_0, # of connection points: 2
#     Edge 25, Type (0, 1), BuildingBlock: UVAHIK_clean_linker_0, # of connection points: 2
#     Edge 26, Type (0, 1), BuildingBlock: UVAHIK_clean_linker_0, # of connection points: 2
#     Edge 27, Type (0, 1), BuildingBlock: UVAHIK_clean_linker_0, # of connection points: 2
#     Edge 28, Type (0, 1), BuildingBlock: UVAHIK_clean_linker_0, # of connection points: 2
#     Edge 29, Type (0, 1), BuildingBlock: UVAHIK_clean_linker_0, # of connection points: 2
#     Edge 30, Type (0, 1), BuildingBlock: UVAHIK_clean_linker_0, # of connection points: 2
#     Edge 31, Type (0, 1), BuildingBlock: UVAHIK_clean_linker_0, # of connection points: 2
#     Edge 32, Type (0, 1), BuildingBlock: UVAHIK_clean_linker_0, # of connection points: 2
#     Edge 33, Type (0, 1), BuildingBlock: UVAHIK_clean_linker_0, # of connection points: 2
#     Edge 34, Type (0, 1), BuildingBlock: UVAHIK_clean_linker_0, # of connection points: 2
#     Edge 35, Type (0, 1), BuildingBlock: UVAHIK_clean_linker_0, # of connection points: 2
# Relax obj value: 0.338
# Max RMSD: 0.250
# Mean RMSD: 0.213
data_MOF--net-zzz--node1-WUSLED_clean_sbu_0--node2-PAMTUU_clean_sbu_0--edge1-UVAHIK_clean_linker_0
_symmetry_space_group_name_H-M    P1
_symmetry_Int_Tables_number       1
_symmetry_cell_setting            triclinic
loop_
_symmetry_equiv_pos_as_xyz
'x, y, z'
_cell_length_a     77.163918
_cell_length_b     79.798808
_cell_length_c     26.764664
_cell_angle_alpha  96.429555
_cell_angle_beta   90.086949
_cell_angle_gamma 90.811067
loop_
_atom_site_label
_atom_site_type_symbol
_atom_site_fract_x
_atom_site_fract_y
_atom_site_fract_z
_atom_type_partial_charge
C0 C 0.78265 0.50944 0.41828 0.0
C1 C 0.79732 0.50725 0.38736 0.0
C2 C 0.81601 0.5073 0.461 0.0
C3 C 0.81384 0.50628 0.40851 0.0
C4 C 0.80121 0.50914 0.49174 0.0
C5 C 0.7847 0.51025 0.47055 0.0
U6 U 0.75136 0.50207 0.30774 0.0
O7 O 0.72343 0.49603 0.30467 0.0
O8 O 0.73304 0.51968 0.27921 0.0
C9 C 0.71957 0.50972 0.28406 0.0
C10 C 0.76527 0.51124 0.39645 0.0
C11 C 0.70729 0.50763 0.24152 0.0
C12 C 0.68 0.51551 0.20592 0.0
C13 C 0.69227 0.51734 0.24463 0.0
C14 C 0.69771 0.49432 0.15962 0.0
C15 C 0.68243 0.50387 0.16307 0.0
C16 C 0.71004 0.49617 0.19861 0.0
C17 C 0.77186 0.47752 0.18834 0.0
C18 C 0.76775 0.47917 0.09903 0.0
C19 C 0.78805 0.45934 0.12734 0.0
C20 C 0.78358 0.46446 0.17702 0.0
C21 C 0.78079 0.46714 0.08765 0.0
C22 C 0.76339 0.48442 0.14912 0.0
C23 C 0.77101 0.48516 0.24073 0.0
O24 O 0.76457 0.52117 0.36052 0.0
O25 O 0.75619 0.49722 0.38615 0.0
O26 O 0.76091 0.47778 0.27142 0.0
O27 O 0.77075 0.50172 0.24797 0.0
H28 H 0.79603 0.50645 0.34684 0.0
H29 H 0.82492 0.50462 0.38373 0.0
H30 H 0.80242 0.5101 0.53228 0.0
H31 H 0.77355 0.51192 0.49505 0.0
H32 H 0.66862 0.52333 0.20952 0.0
H33 H 0.68997 0.52633 0.2773 0.0
H34 H 0.69997 0.48518 0.12732 0.0
H35 H 0.72161 0.48858 0.1955 0.0
H36 H 0.76159 0.4852 0.06951 0.0
H37 H 0.79829 0.45024 0.12078 0.0
H38 H 0.79027 0.45902 0.20687 0.0
H39 H 0.75418 0.49447 0.15723 0.0
C40 C 0.95531 0.77086 0.41979 0.0
C41 C 0.96023 0.78394 0.39163 0.0
C42 C 0.95772 0.80443 0.46573 0.0
C43 C 0.96146 0.80054 0.41434 0.0
C44 C 0.95255 0.79127 0.49369 0.0
C45 C 0.95137 0.77461 0.47085 0.0
U46 U 0.96103 0.74146 0.3023 0.0
O47 O 0.97387 0.717 0.29041 0.0
O48 O 0.94644 0.71885 0.2697 0.0
C49 C 0.96019 0.70926 0.26881 0.0
C50 C 0.95485 0.75337 0.39575 0.0
C51 C 0.96322 0.69794 0.22211 0.0
C52 C 0.95382 0.67353 0.16533 0.0
C53 C 0.95053 0.68578 0.20566 0.0
C54 C 0.98244 0.68565 0.15629 0.0
C55 C 0.96995 0.67311 0.14091 0.0
C56 C 0.97909 0.69799 0.19638 0.0
C57 C 0.97309 0.76737 0.18986 0.0
C58 C 0.9937 0.76708 0.12112 0.0
C59 C 0.96988 0.78662 0.12655 0.0
C60 C 0.96391 0.78002 0.16947 0.0
C61 C 0.9852 0.78067 0.10274 0.0
C62 C 0.98775 0.76053 0.16452 0.0
C63 C 0.96866 0.76396 0.24128 0.0
O64 O 0.94251 0.74992 0.36209 0.0
O65 O 0.97 0.74756 0.38031 0.0
O66 O 0.98039 0.75685 0.26736 0.0
O67 O 0.9527 0.75899 0.24934 0.0
H68 H 0.96339 0.78126 0.35214 0.0
H69 H 0.96575 0.81025 0.39181 0.0
H70 H 0.94939 0.79384 0.53318 0.0
H71 H 0.94753 0.76465 0.49311 0.0
H72 H 0.94399 0.66396 0.15468 0.0
H73 H 0.93825 0.68541 0.2251 0.0
H74 H 0.9949 0.68577 0.13776 0.0
H75 H 0.98912 0.70725 0.20802 0.0
H76 H 1.00536 0.76198 0.10325 0.0
H77 H 0.96308 0.79723 0.11434 0.0
H78 H 0.95269 0.78562 0.1887 0.0
H79 H 0.99506 0.75073 0.17949 0.0
C80 C 0.75172 0.99366 0.41436 0.0
C81 C 0.7374 0.99768 0.38576 0.0
C82 C 0.71788 0.99365 0.45538 0.0
C83 C 0.72066 0.99772 0.40611 0.0
C84 C 0.73233 0.98962 0.48376 0.0
C85 C 0.74905 0.98965 0.46345 0.0
U86 U 0.78225 0.99464 0.30279 0.0
O87 O 0.80737 0.00766 0.29648 0.0
O88 O 0.80584 0.98 0.28398 0.0
C89 C 0.81561 0.99358 0.28275 0.0
C90 C 0.76942 0.99343 0.39332 0.0
C91 C 0.82767 0.99354 0.23977 0.0
C92 C 0.85498 0.98418 0.20164 0.0
C93 C 0.84265 0.98382 0.23975 0.0
C94 C 0.8374 0.00381 0.16189 0.0
C95 C 0.85269 0.99436 0.16251 0.0
C96 C 0.825 0.00342 0.20017 0.0
C97 C 0.75926 0.99786 0.17478 0.0
C98 C 0.76533 0.01265 0.10196 0.0
C99 C 0.74225 0.99165 0.09866 0.0
C100 C 0.74621 0.98854 0.14752 0.0
C101 C 0.75132 0.0042 0.07586 0.0
C102 C 0.76927 0.00953 0.15116 0.0
C103 C 0.7603 0.9967 0.22912 0.0
O104 O 0.77323 0.97991 0.36289 0.0
O105 O 0.77476 0.00748 0.37657 0.0
O106 O 0.76655 0.00995 0.25744 0.0
O107 O 0.76528 0.98224 0.24306 0.0
H108 H 0.73917 1.00072 0.34763 0.0
H109 H 0.70985 1.00069 0.38294 0.0
H110 H 0.73075 0.98664 0.522 0.0
H111 H 0.75993 0.98652 0.48614 0.0
H112 H 0.86636 0.97644 0.20293 0.0
H113 H 0.84495 0.97605 0.26975 0.0
H114 H 0.83521 0.01186 0.13258 0.0
H115 H 0.81351 0.01101 0.19924 0.0
H116 H 0.77273 0.02221 0.08527 0.0
H117 H 0.73121 0.98504 0.08038 0.0
H118 H 0.7383 0.97954 0.16516 0.0
H119 H 0.77953 0.0168 0.17144 0.0
C120 C 0.5657 0.74648 0.27539 0.0
C121 C 0.56705 0.72994 0.25179 0.0
C122 C 0.567 0.71882 0.33278 0.0
C123 C 0.56771 0.71632 0.28001 0.0
C124 C 0.5656 0.73544 0.35659 0.0
C125 C 0.56496 0.74918 0.32804 0.0
U126 U 0.55663 0.75693 0.14784 0.0
O127 O 0.54123 0.77588 0.11441 0.0
O128 O 0.56893 0.77312 0.09637 0.0
C129 C 0.55458 0.78134 0.08996 0.0
C130 C 0.56409 0.7604 0.24378 0.0
C131 C 0.55614 0.79963 0.0852 0.0
C132 C 0.54216 0.82667 0.08119 0.0
C133 C 0.54218 0.81051 0.09705 0.0
C134 C 0.57037 0.82168 0.04351 0.0
C135 C 0.55599 0.83218 0.05267 0.0
C136 C 0.57042 0.8056 0.05949 0.0
C137 C 0.54717 0.71613 0.05918 0.0
C138 C 0.53008 0.71122 0.98242 0.0
C139 C 0.55006 0.69003 0.00447 0.0
C140 C 0.55486 0.70041 0.04771 0.0
C141 C 0.53743 0.69519 0.97168 0.0
C142 C 0.53496 0.72167 0.02587 0.0
C143 C 0.55137 0.72578 0.1077 0.0
O144 O 0.57599 0.76061 0.2087 0.0
O145 O 0.54834 0.76239 0.22673 0.0
O146 O 0.53906 0.73526 0.12912 0.0
O147 O 0.5668 0.73298 0.11141 0.0
H148 H 0.56738 0.72751 0.21119 0.0
H149 H 0.56837 0.70374 0.26022 0.0
H150 H 0.56507 0.73781 0.39719 0.0
H151 H 0.56376 0.76183 0.34696 0.0
H152 H 0.53084 0.83441 0.08859 0.0
H153 H 0.53085 0.80626 0.11613 0.0
H154 H 0.58133 0.82565 0.02225 0.0
H155 H 0.58127 0.79747 0.04914 0.0
H156 H 0.52041 0.71556 0.95769 0.0
H157 H 0.55574 0.67765 0.99792 0.0
H158 H 0.56423 0.69591 0.07312 0.0
H159 H 0.52893 0.73384 0.03399 0.0
C160 C 0.25207 0.49302 0.04794 0.0
C161 C 0.23808 0.49966 0.07678 0.0
C162 C 0.21885 0.4946 0.00397 0.0
C163 C 0.22163 0.50046 0.05502 0.0
C164 C 0.23302 0.48811 0.97521 0.0
C165 C 0.24945 0.48733 0.99702 0.0
U166 U 0.28187 0.4999 0.16178 0.0
O167 O 0.30116 0.48284 0.18848 0.0
O168 O 0.30935 0.50765 0.16811 0.0
C169 C 0.31389 0.49395 0.18773 0.0
C170 C 0.26928 0.4916 0.07094 0.0
C171 C 0.32545 0.49607 0.23244 0.0
C172 C 0.34396 0.48316 0.29084 0.0
C173 C 0.3318 0.48168 0.25175 0.0
C174 C 0.34367 0.51354 0.29266 0.0
C175 C 0.35023 0.49909 0.31143 0.0
C176 C 0.33142 0.51206 0.25363 0.0
C177 C 0.2599 0.5212 0.28389 0.0
C178 C 0.25514 0.54562 0.34508 0.0
C179 C 0.24991 0.51753 0.36821 0.0
C180 C 0.25523 0.51065 0.3205 0.0
C181 C 0.24906 0.53511 0.38023 0.0
C182 C 0.26042 0.53874 0.29732 0.0
C183 C 0.26097 0.51435 0.23029 0.0
O184 O 0.27751 0.50594 0.08442 0.0
O185 O 0.27003 0.48105 0.10518 0.0
O186 O 0.26218 0.49791 0.21999 0.0
O187 O 0.27038 0.52286 0.20055 0.0
H188 H 0.23985 0.50407 0.11627 0.0
H189 H 0.21102 0.50534 0.07849 0.0
H190 H 0.23144 0.48372 0.93567 0.0
H191 H 0.26011 0.48219 0.97415 0.0
H192 H 0.34889 0.47176 0.30381 0.0
H193 H 0.32764 0.4692 0.23572 0.0
H194 H 0.34808 0.52601 0.308 0.0
H195 H 0.32687 0.52342 0.23956 0.0
H196 H 0.25485 0.55921 0.35347 0.0
H197 H 0.24516 0.50905 0.39416 0.0
H198 H 0.25453 0.49708 0.31137 0.0
H199 H 0.26386 0.54723 0.26992 0.0
C200 C 0.08592 0.22701 0.06541 0.0
C201 C 0.0736 0.21649 0.08523 0.0
C202 C 0.07967 0.19406 0.01862 0.0
C203 C 0.07044 0.20021 0.06193 0.0
C204 C 0.09232 0.20448 0.99954 0.0
C205 C 0.09537 0.22089 0.02271 0.0
U206 U 0.08022 0.25864 0.17879 0.0
O207 O 0.09735 0.27877 0.21525 0.0
O208 O 0.07235 0.28506 0.18309 0.0
C209 C 0.0862 0.29066 0.20868 0.0
C210 C 0.08873 0.24433 0.08939 0.0
C211 C 0.08304 0.30323 0.25201 0.0
C212 C 0.0876 0.33181 0.29161 0.0
C213 C 0.0916 0.31888 0.25407 0.0
C214 C 0.06681 0.31338 0.32685 0.0
C215 C 0.07492 0.32934 0.32787 0.0
C216 C 0.07082 0.30041 0.28906 0.0
C217 C 0.0572 0.23764 0.28859 0.0
C218 C 0.03147 0.23142 0.33603 0.0
C219 C 0.05987 0.22575 0.36809 0.0
C220 C 0.06752 0.2322 0.32685 0.0
C221 C 0.04173 0.22452 0.37186 0.0
C222 C 0.03912 0.23784 0.2947 0.0
C223 C 0.06478 0.23922 0.23853 0.0
O224 O 0.0745 0.25302 0.0982 0.0
O225 O 0.09952 0.24587 0.12771 0.0
O226 O 0.08171 0.24094 0.23568 0.0
O227 O 0.05628 0.24779 0.20738 0.0
H228 H 0.06631 0.22094 0.11856 0.0
H229 H 0.06081 0.19238 0.07792 0.0
H230 H 0.09957 0.20007 0.96612 0.0
H231 H 0.10499 0.22883 0.00708 0.0
H232 H 0.0943 0.34384 0.29188 0.0
H233 H 0.10109 0.32125 0.2258 0.0
H234 H 0.05694 0.31112 0.35411 0.0
H235 H 0.06406 0.28838 0.28791 0.0
H236 H 0.01746 0.23094 0.33833 0.0
H237 H 0.06819 0.22045 0.39471 0.0
H238 H 0.08148 0.23168 0.32316 0.0
H239 H 0.03078 0.24183 0.26578 0.0
C240 C 0.28407 0.01507 0.061 0.0
C241 C 0.2987 0.01837 0.09205 0.0
C242 C 0.31779 0.01438 0.01906 0.0
C243 C 0.31538 0.0181 0.07128 0.0
C244 C 0.30305 0.01102 0.98824 0.0
C245 C 0.28639 0.01138 0.00901 0.0
U246 U 0.25338 0.01325 0.17215 0.0
O247 O 0.22969 0.02763 0.19155 0.0
O248 O 0.22828 1.00003 0.17667 0.0
C249 C 0.2199 0.014 0.19078 0.0
C250 C 0.26639 0.01525 0.0822 0.0
C251 C 0.20762 0.01352 0.23287 0.0
C252 C 0.1783 0.01788 0.26441 0.0
C253 C 0.19046 0.01828 0.22588 0.0
C254 C 0.2003 0.00789 0.31801 0.0
C255 C 0.18302 0.0127 0.31108 0.0
C256 C 0.21252 0.00834 0.27926 0.0
C257 C 0.2764 0.00837 0.29946 0.0
C258 C 0.27057 0.9923 0.36974 0.0
C259 C 0.29409 0.01285 0.37475 0.0
C260 C 0.28981 0.01699 0.32712 0.0
C261 C 0.28499 0.99997 0.39591 0.0
C262 C 0.26633 0.99644 0.32174 0.0
C263 C 0.2752 0.01032 0.24559 0.0
O264 O 0.26099 1.00101 0.09762 0.0
O265 O 0.26258 0.02852 0.11367 0.0
O266 O 0.27016 0.025 0.23344 0.0
O267 O 0.26899 0.99738 0.21591 0.0
H268 H 0.29721 0.02112 0.13238 0.0
H269 H 0.32642 0.02053 0.09621 0.0
H270 H 0.30438 0.0083 0.94788 0.0
H271 H 0.27528 0.00879 0.9844 0.0
H272 H 0.1651 0.02139 0.25726 0.0
H273 H 0.1864 0.02224 0.1903 0.0
H274 H 0.20444 0.00397 0.35354 0.0
H275 H 0.22574 0.00465 0.28545 0.0
H276 H 0.2631 0.98254 0.38524 0.0
H277 H 0.30542 0.0189 0.39307 0.0
H278 H 0.29778 0.02618 0.31048 0.0
H279 H 0.25582 0.98967 0.30112 0.0
C280 C 0.46897 0.25426 0.187 0.0
C281 C 0.46984 0.2708 0.21107 0.0
C282 C 0.47189 0.28201 0.1305 0.0
C283 C 0.47133 0.2845 0.18324 0.0
C284 C 0.47048 0.26545 0.10613 0.0
C285 C 0.46915 0.25163 0.13429 0.0
U286 U 0.46989 0.24303 0.31651 0.0
O287 O 0.45671 0.2243 0.35858 0.0
O288 O 0.48521 0.22572 0.35633 0.0
C289 C 0.47143 0.21795 0.37203 0.0
C290 C 0.46871 0.24017 0.21822 0.0
C291 C 0.47228 0.19946 0.37327 0.0
C292 C 0.46057 0.17475 0.40809 0.0
C293 C 0.45858 0.19113 0.39523 0.0
C294 C 0.48971 0.1743 0.37474 0.0
C295 C 0.47638 0.16637 0.39964 0.0
C296 C 0.4877 0.19068 0.36176 0.0
C297 C 0.47249 0.28336 0.41119 0.0
C298 C 0.48766 0.28881 0.49105 0.0
C299 C 0.46844 0.30977 0.46368 0.0
C300 C 0.46448 0.29902 0.42033 0.0
C301 C 0.48055 0.30503 0.49867 0.0
C302 C 0.48364 0.27802 0.4476 0.0
C303 C 0.47072 0.27402 0.36096 0.0
O304 O 0.48313 0.23874 0.24352 0.0
O305 O 0.45476 0.23922 0.24609 0.0
O306 O 0.45619 0.2655 0.35104 0.0
O307 O 0.48455 0.26597 0.34337 0.0
H308 H 0.46964 0.27313 0.25168 0.0
H309 H 0.47208 0.29709 0.2031 0.0
H310 H 0.47089 0.26318 0.06549 0.0
H311 H 0.46852 0.23895 0.11503 0.0
H312 H 0.45009 0.16909 0.42757 0.0
H313 H 0.44666 0.19766 0.4053 0.0
H314 H 0.50196 0.16809 0.36698 0.0
H315 H 0.49858 0.19672 0.34512 0.0
H316 H 0.49687 0.28474 0.51764 0.0
H317 H 0.46287 0.32223 0.46798 0.0
H318 H 0.45589 0.30336 0.39254 0.0
H319 H 0.48988 0.2659 0.44133 0.0
Tb320 Tb 1.00542 0.01081 0.69883 0.0
Tb321 Tb 0.03016 0.99021 0.7705 0.0
C322 C 0.99101 0.99842 0.79734 0.0
C323 C 0.99142 0.04553 0.63027 0.0
C324 C 0.99774 0.07823 0.60345 0.0
C325 C 0.98137 0.07041 0.595 0.0
C326 C 0.97825 0.05416 0.60826 0.0
C327 C 0.00771 0.05333 0.63919 0.0
C328 C 0.01087 0.06951 0.62575 0.0
C329 C 0.98808 0.02865 0.64537 0.0
O330 O 0.01469 0.02861 0.76093 0.0
O331 O 0.03994 0.01603 0.78067 0.0
O332 O 0.04327 0.99037 0.69846 0.0
O333 O 0.03198 0.01456 0.67457 0.0
O334 O 0.0388 0.9857 0.84244 0.0
O335 O 0.04891 0.97174 0.77563 0.0
O336 O 0.01148 0.97191 0.73609 0.0
O337 O 1.0043 0.98452 0.66601 0.0
O338 O 0.9877 0.99991 0.74988 0.0
O339 O 0.00703 0.99775 0.81393 0.0
C340 C 0.03013 0.02938 0.78179 0.0
O341 O 0.99867 0.01694 0.62711 0.0
O342 O 0.98551 0.02818 0.69328 0.0
C343 C 0.04397 0.00299 0.67095 0.0
C344 C 0.04466 0.95694 0.84524 0.0
C345 C 0.03914 0.92518 0.87925 0.0
C346 C 0.05345 0.93531 0.89665 0.0
C347 C 0.05626 0.95106 0.87942 0.0
C348 C 0.03009 0.94708 0.82915 0.0
C349 C 0.02743 0.93127 0.84562 0.0
C350 C 0.0481 0.97293 0.82447 0.0
C351 C 1.00504 0.97113 0.69045 0.0
H352 H 0.97105 0.07675 0.57747 0.0
H353 H 0.96557 0.04834 0.60138 0.0
H354 H 0.01798 0.04692 0.65675 0.0
H355 H 0.02353 0.07527 0.63338 0.0
H356 H 0.06267 0.93087 0.92258 0.0
H357 H 0.06758 0.95853 0.89222 0.0
H358 H 0.02089 0.95154 0.80334 0.0
H359 H 0.01616 0.92381 0.83225 0.0
Tb360 Tb 0.50852 0.98826 0.69253 0.0
Tb361 Tb 0.5264 0.01546 0.77856 0.0
C362 C 0.52678 0.97657 0.78539 0.0
C363 C 0.47361 0.96594 0.62041 0.0
C364 C 0.43765 0.96244 0.60393 0.0
C365 C 0.44923 0.95147 0.57653 0.0
C366 C 0.46711 0.95318 0.5849 0.0
C367 C 0.46212 0.97693 0.64766 0.0
C368 C 0.4443 0.97516 0.63967 0.0
C369 C 0.49227 0.96764 0.63054 0.0
O370 O 0.49022 0.99238 0.75457 0.0
O371 O 0.4987 0.01863 0.79126 0.0
O372 O 0.52162 0.02851 0.71296 0.0
O373 O 0.49854 0.0128 0.68001 0.0
O374 O 0.53396 0.02237 0.8537 0.0
O375 O 0.54004 0.03833 0.79648 0.0
O376 O 0.54753 0.00283 0.7365 0.0
O377 O 0.53375 0.99436 0.66176 0.0
O378 O 0.52552 0.97398 0.73627 0.0
O379 O 0.52375 0.99146 0.80949 0.0
C380 C 0.48705 0.00638 0.78377 0.0
O381 O 0.4996 0.98148 0.61867 0.0
O382 O 0.49689 0.9644 0.67524 0.0
C383 C 0.50798 0.02667 0.68347 0.0
C384 C 0.56178 0.03469 0.85459 0.0
C385 C 0.59803 0.03451 0.86848 0.0
C386 C 0.58828 0.04868 0.88703 0.0
C387 C 0.57029 0.0488 0.87974 0.0
C388 C 0.57136 0.02044 0.83726 0.0
C389 C 0.58927 0.0204 0.84352 0.0
C390 C 0.54327 0.0351 0.84209 0.0
C391 C 0.54802 0.99813 0.68788 0.0
H392 H 0.44445 0.94151 0.54892 0.0
H393 H 0.47583 0.94455 0.56378 0.0
H394 H 0.46696 0.98691 0.6751 0.0
H395 H 0.43574 0.98397 0.66074 0.0
H396 H 0.59449 0.05967 0.9072 0.0
H397 H 0.56308 0.05996 0.89318 0.0
H398 H 0.56503 0.00938 0.81788 0.0
H399 H 0.59624 0.00939 0.82772 0.0
Tb400 Tb 0.50486 0.49571 0.77566 0.0
Tb401 Tb 0.53157 0.5057 0.6863 0.0
C402 C 0.49189 0.50183 0.6674 0.0
C403 C 0.48495 0.46942 0.8662 0.0
C404 C 0.48372 0.43834 0.90736 0.0
C405 C 0.46855 0.44763 0.90279 0.0
C406 C 0.46917 0.46303 0.88246 0.0
C407 C 0.50016 0.46027 0.87098 0.0
C408 C 0.49957 0.44492 0.89165 0.0
C409 C 0.48509 0.48482 0.84057 0.0
O410 O 0.52039 0.47386 0.75313 0.0
O411 O 0.52634 0.47865 0.67205 0.0
O412 O 0.54766 0.49764 0.74591 0.0
O413 O 0.52921 0.50417 0.81202 0.0
O414 O 0.5381 0.50539 0.60995 0.0
O415 O 0.5549 0.51744 0.66817 0.0
O416 O 0.52473 0.52912 0.73032 0.0
O417 O 0.49965 0.52214 0.77104 0.0
O418 O 0.49106 0.49212 0.70389 0.0
O419 O 0.50571 0.51108 0.66105 0.0
C420 C 0.52435 0.46832 0.7067 0.0
O421 O 0.49775 0.49559 0.85157 0.0
O422 O 0.48237 0.48234 0.79236 0.0
C423 C 0.54485 0.50097 0.79441 0.0
C424 C 0.55225 0.53086 0.59509 0.0
C425 C 0.55454 0.56192 0.55372 0.0
C426 C 0.56912 0.55153 0.55501 0.0
C427 C 0.56796 0.53616 0.57549 0.0
C428 C 0.53763 0.54108 0.59372 0.0
C429 C 0.53874 0.55642 0.57309 0.0
C430 C 0.55152 0.51534 0.62015 0.0
C431 C 0.51043 0.53326 0.75505 0.0
H432 H 0.45618 0.44299 0.915 0.0
H433 H 0.45728 0.46983 0.87863 0.0
H434 H 0.51244 0.46485 0.85788 0.0
H435 H 0.51145 0.43798 0.89412 0.0
H436 H 0.58156 0.55543 0.54128 0.0
H437 H 0.57944 0.52855 0.57686 0.0
H438 H 0.52539 0.53728 0.60911 0.0
H439 H 0.5272 0.56394 0.57222 0.0
Tb440 Tb 0.0259 0.51216 0.6918 0.0
Tb441 Tb 0.00911 0.48801 0.77127 0.0
C442 C 0.00919 0.52693 0.79289 0.0
C443 C 0.0597 0.53534 0.63116 0.0
C444 C 0.09493 0.54508 0.62695 0.0
C445 C 0.08174 0.55648 0.61856 0.0
C446 C 0.06427 0.55163 0.62062 0.0
C447 C 0.0728 0.52405 0.64044 0.0
C448 C 0.0902 0.52883 0.63815 0.0
C449 C 0.04132 0.53029 0.63394 0.0
O450 O 0.04789 0.50232 0.72959 0.0
O451 O 0.03479 0.49507 0.80148 0.0
O452 O 0.02555 0.47237 0.72024 0.0
O453 O 0.02169 0.487 0.65285 0.0
O454 O 1.00253 0.4834 0.84465 0.0
O455 O 0.99691 0.46493 0.78113 0.0
O456 O 0.98935 0.49007 0.71407 0.0
O457 O 0.99814 0.51401 0.67984 0.0
O458 O 0.02288 0.52723 0.76402 0.0
O459 O 0.99957 0.51326 0.79256 0.0
C460 C 0.04875 0.49852 0.77608 0.0
O461 O 0.03788 0.5143 0.6225 0.0
O462 O 0.03313 0.53638 0.67424 0.0
C463 C 0.02575 0.47306 0.67158 0.0
C464 C 0.97569 0.46854 0.8438 0.0
C465 C 0.93989 0.46659 0.86349 0.0
C466 C 0.94914 0.45194 0.84733 0.0
C467 C 0.96692 0.45291 0.83779 0.0
C468 C 0.96645 0.48318 0.86016 0.0
C469 C 0.94875 0.48219 0.87019 0.0
C470 C 0.99399 0.46959 0.82856 0.0
C471 C 0.9863 0.5025 0.68698 0.0
H472 H 0.08491 0.56916 0.61047 0.0
H473 H 0.05434 0.56059 0.61398 0.0
H474 H 0.06961 0.51142 0.649 0.0
H475 H 0.09994 0.51959 0.64394 0.0
H476 H 0.94263 0.43975 0.84221 0.0
H477 H 0.97378 0.4415 0.82474 0.0
H478 H 0.97279 0.49546 0.86426 0.0
H479 H 0.9419 0.4937 0.88204 0.0
C480 C 0.15739 0.02505 0.35971 0.0
C481 C 0.1698 0.01227 0.35174 0.0
C482 C 0.14432 0.02424 0.39557 0.0
C483 C 0.13168 0.00376 0.50845 0.0
H484 H 0.08539 0.01654 0.47255 0.0
C485 C 0.0715 0.99181 0.63018 0.0
C486 C 0.05865 0.00423 0.63543 0.0
C487 C 0.08527 0.9929 0.59655 0.0
C488 C 0.09826 0.01313 0.48356 0.0
H489 H 0.17822 0.9887 0.37627 0.0
H490 H 0.15541 0.98729 0.43896 0.0
H491 H 0.10902 0.01827 0.41312 0.0
H492 H 0.0504 0.02764 0.60938 0.0
H493 H 0.07445 0.02962 0.55128 0.0
H494 H 0.12088 0.99861 0.57895 0.0
C495 C 0.1559 0.99804 0.41763 0.0
C496 C 0.11186 0.01411 0.44937 0.0
C497 C 0.16901 0.99886 0.38166 0.0
C498 C 0.05999 0.0178 0.60626 0.0
C499 C 0.07376 0.01889 0.57264 0.0
C500 C 0.11807 0.00279 0.54272 0.0
C501 C 0.14324 0.01063 0.42464 0.0
C502 C 0.12878 0.00948 0.46133 0.0
C503 C 0.08659 0.00643 0.5672 0.0
C504 C 0.10116 0.00748 0.53079 0.0
H505 H 0.15778 0.03576 0.33819 0.0
H506 H 0.13506 0.03436 0.40062 0.0
H507 H 0.14456 1.00029 0.51928 0.0
H508 H 0.0709 0.98115 0.65188 0.0
H509 H 0.09473 0.98295 0.59298 0.0
C510 C 0.46661 0.13761 0.42017 0.0
C511 C 0.47953 0.15026 0.42123 0.0
C512 C 0.46923 0.12312 0.44419 0.0
C513 C 0.50382 0.09858 0.49924 0.0
H514 H 0.46601 0.08179 0.57593 0.0
C515 C 0.51509 0.05415 0.65073 0.0
C516 C 0.50373 0.04028 0.65212 0.0
C517 C 0.5116 0.06671 0.61992 0.0
C518 C 0.47664 0.08621 0.55421 0.0
H519 H 0.50529 0.15759 0.4488 0.0
H520 H 0.50981 0.13254 0.49068 0.0
H521 H 0.46106 0.10504 0.52575 0.0
H522 H 0.47956 0.02893 0.6226 0.0
H523 H 0.4734 0.05104 0.56892 0.0
H524 H 0.51948 0.08003 0.52868 0.0
C525 C 0.49779 0.13354 0.47037 0.0
C526 C 0.4738 0.09951 0.5253 0.0
C527 C 0.4952 0.14795 0.44624 0.0
C528 C 0.48861 0.03943 0.62243 0.0
C529 C 0.48504 0.05212 0.59182 0.0
C530 C 0.50667 0.08539 0.52834 0.0
C531 C 0.48481 0.12097 0.47003 0.0
C532 C 0.48742 0.10602 0.49794 0.0
C533 C 0.49659 0.06582 0.58987 0.0
C534 C 0.49318 0.07919 0.55669 0.0
H535 H 0.45444 0.13894 0.4009 0.0
H536 H 0.45904 0.1136 0.4425 0.0
H537 H 0.51453 0.10299 0.47784 0.0
H538 H 0.52685 0.05526 0.6731 0.0
H539 H 0.52063 0.07723 0.61989 0.0
C540 C 0.3636 0.49003 0.38986 0.0
C541 C 0.364 0.5005 0.35096 0.0
C542 C 0.377 0.4907 0.42537 0.0
C543 C 0.41409 0.5173 0.47854 0.0
H544 H 0.43008 0.47515 0.52021 0.0
C545 C 0.4773 0.51271 0.59356 0.0
C546 C 0.47701 0.50209 0.63215 0.0
C547 C 0.46332 0.51285 0.56017 0.0
C548 C 0.42566 0.48706 0.50946 0.0
H549 H 0.37887 0.51997 0.31918 0.0
H550 H 0.40225 0.52111 0.38088 0.0
H551 H 0.40606 0.47493 0.46103 0.0
H552 H 0.46163 0.48338 0.6659 0.0
H553 H 0.43729 0.48371 0.60794 0.0
H554 H 0.43384 0.5294 0.52677 0.0
C555 C 0.39144 0.51253 0.38447 0.0
C556 C 0.41184 0.48694 0.4755 0.0
C557 C 0.37801 0.51189 0.34902 0.0
C558 C 0.46236 0.49168 0.63658 0.0
C559 C 0.44841 0.49179 0.60312 0.0
C560 C 0.42796 0.51741 0.51245 0.0
C561 C 0.3912 0.50184 0.42289 0.0
C562 C 0.40585 0.50205 0.45956 0.0
C563 C 0.44871 0.50235 0.5644 0.0
C564 C 0.43392 0.50229 0.52837 0.0
H565 H 0.35288 0.4813 0.39297 0.0
H566 H 0.37618 0.48252 0.45495 0.0
H567 H 0.40969 0.52921 0.46773 0.0
H568 H 0.48836 0.5209 0.58894 0.0
H569 H 0.46409 0.52101 0.53049 0.0
C570 C 0.06699 0.34147 0.41575 0.0
C571 C 0.06974 0.34366 0.36496 0.0
C572 C 0.06238 0.35516 0.45037 0.0
C573 C 0.06317 0.40198 0.46779 0.0
H574 H 0.02887 0.39664 0.57073 0.0
C575 C 0.03266 0.45892 0.58564 0.0
C576 C 0.03069 0.45798 0.63745 0.0
C577 C 0.03758 0.44475 0.55355 0.0
C578 C 0.0386 0.39829 0.54251 0.0
H579 H 0.06914 0.36179 0.31039 0.0
H580 H 0.061 0.38551 0.37034 0.0
H581 H 0.03717 0.37223 0.51288 0.0
H582 H 0.03223 0.44134 0.6961 0.0
H583 H 0.04081 0.41664 0.64001 0.0
H584 H 0.06447 0.42805 0.49703 0.0
C585 C 0.06285 0.37337 0.38389 0.0
C586 C 0.04338 0.3843 0.5094 0.0
C587 C 0.0675 0.35975 0.34945 0.0
C588 C 0.03363 0.44251 0.65637 0.0
C589 C 0.03845 0.42832 0.62421 0.0
C590 C 0.05834 0.41595 0.50071 0.0
C591 C 0.06034 0.3713 0.43486 0.0
C592 C 0.05564 0.386 0.47138 0.0
C593 C 0.04056 0.4293 0.57246 0.0
C594 C 0.04592 0.4143 0.53824 0.0
H595 H 0.06873 0.32925 0.42891 0.0
H596 H 0.06072 0.35314 0.48943 0.0
H597 H 0.07292 0.40369 0.43967 0.0
H598 H 0.03049 0.47062 0.56977 0.0
H599 H 0.03888 0.44587 0.51376 0.0
C600 C 0.88408 0.99522 0.13686 0.0
C601 C 0.86643 0.99526 0.12342 0.0
C602 C 0.89705 0.99551 0.1005 0.0
C603 C 0.90579 0.00599 0.97127 0.0
H604 H 0.94579 0.97772 0.98174 0.0
C605 C 0.95906 0.99835 0.81718 0.0
C606 C 0.97638 0.9977 0.83336 0.0
C607 C 0.94534 0.99786 0.85135 0.0
C608 C 0.93483 0.98585 0.97848 0.0
H609 H 0.84873 0.99585 0.06064 0.0
H610 H 0.87142 0.99646 0.99713 0.0
H611 H 0.92254 0.97743 0.04302 0.0
H612 H 0.99273 0.99607 0.8986 0.0
H613 H 0.96895 0.99543 0.95796 0.0
H614 H 0.91817 0.0145 0.90683 0.0
C615 C 0.87518 0.99629 0.03607 0.0
C616 C 0.92145 0.98568 0.0137 0.0
C617 C 0.86216 0.99595 0.07254 0.0
C618 C 0.97959 0.99652 0.8846 0.0
C619 C 0.9659 0.99605 0.91871 0.0
C620 C 0.91921 0.0062 0.93602 0.0
C621 C 0.89281 0.99592 0.04953 0.0
C622 C 0.90679 0.99582 0.01085 0.0
C623 C 0.94856 0.99671 0.90264 0.0
C624 C 0.93399 0.99621 0.93932 0.0
H625 H 0.88793 0.9951 0.17574 0.0
H626 H 0.91046 0.9956 0.11251 0.0
H627 H 0.8948 0.01411 0.96817 0.0
H628 H 0.95605 0.99922 0.77803 0.0
H629 H 0.93219 0.99818 0.83738 0.0
C630 C 0.55935 0.84818 0.97776 0.0
C631 C 0.55474 0.84804 0.02851 0.0
C632 C 0.5573 0.86267 0.95362 0.0
C633 C 0.53338 0.90293 0.96345 0.0
H634 H 0.56582 0.91356 0.86061 0.0
C635 C 0.52964 0.96422 0.86713 0.0
C636 C 0.53116 0.96241 0.81443 0.0
C637 C 0.5332 0.95074 0.89458 0.0
C638 C 0.55659 0.91069 0.88901 0.0
H639 H 0.54467 0.86318 0.094 0.0
H640 H 0.54142 0.88867 0.05221 0.0
H641 H 0.57115 0.88958 0.90727 0.0
H642 H 0.53789 0.94503 0.74939 0.0
H643 H 0.54423 0.92154 0.79743 0.0
H644 H 0.51894 0.92419 0.94533 0.0
C645 C 0.5463 0.87743 0.0307 0.0
C646 C 0.55961 0.89692 0.91575 0.0
C647 C 0.54822 0.86285 0.05478 0.0
C648 C 0.53657 0.94686 0.78991 0.0
C649 C 0.54029 0.93343 0.81745 0.0
C650 C 0.53046 0.9168 0.93701 0.0
C651 C 0.55068 0.87749 0.97963 0.0
C652 C 0.54796 0.89273 0.95301 0.0
C653 C 0.53852 0.93518 0.87006 0.0
C654 C 0.54195 0.92075 0.8992 0.0
H655 H 0.56406 0.83688 0.9561 0.0
H656 H 0.56048 0.86206 0.91407 0.0
H657 H 0.52395 0.89997 0.99118 0.0
H658 H 0.52551 0.97601 0.88729 0.0
H659 H 0.53188 0.95254 0.9351 0.0
C660 C 0.67341 0.49981 0.07157 0.0
C661 C 0.6689 0.50174 0.1228 0.0
C662 C 0.66056 0.49862 0.03415 0.0
C663 C 0.61334 0.48983 0.01344 0.0
H664 H 0.6197 0.51422 0.89728 0.0
C665 C 0.55653 0.50225 0.88249 0.0
C666 C 0.55953 0.5006 0.83036 0.0
C667 C 0.57025 0.50164 0.91645 0.0
C668 C 0.61779 0.50717 0.92918 0.0
H669 H 0.64721 0.5033 0.17452 0.0
H670 H 0.62496 0.50164 0.10978 0.0
H671 H 0.64297 0.51413 0.95915 0.0
H672 H 0.57948 0.49712 0.77324 0.0
H673 H 0.60342 0.49606 0.83258 0.0
H674 H 0.58808 0.48307 0.98388 0.0
C675 C 0.6384 0.5009 0.09826 0.0
C676 C 0.63116 0.50709 0.96466 0.0
C677 C 0.65121 0.50209 0.13553 0.0
C678 C 0.57666 0.49844 0.81311 0.0
C679 C 0.59042 0.49792 0.84715 0.0
C680 C 0.59997 0.48996 0.9781 0.0
C681 C 0.64286 0.49926 0.04703 0.0
C682 C 0.62905 0.49856 0.00758 0.0
C683 C 0.58738 0.49944 0.89927 0.0
C684 C 0.60194 0.49877 0.93576 0.0
H685 H 0.68689 0.49959 0.06035 0.0
H686 H 0.66449 0.49718 0.99511 0.0
H687 H 0.61134 0.48282 0.0454 0.0
H688 H 0.54353 0.50394 0.89725 0.0
H689 H 0.56745 0.50309 0.95633 0.0
C690 C 0.98999 0.65075 0.10283 0.0
C691 C 0.97407 0.65904 0.10167 0.0
C692 C 0.99359 0.6369 0.06784 0.0
C693 C 0.97201 0.60419 0.97813 0.0
H694 H 0.01891 0.5969 0.92974 0.0
C695 C 0.9924 0.54151 0.86506 0.0
C696 C 1.00472 0.54225 0.82671 0.0
C697 C 0.98842 0.55596 0.89735 0.0
C698 C 1.00568 0.5988 0.94232 0.0
H699 H 0.94961 0.65955 0.06208 0.0
H700 H 0.95601 0.63561 1.00015 0.0
H701 H 0.01246 0.62206 0.98596 0.0
H702 H 0.02223 0.55887 0.79152 0.0
H703 H 0.01499 0.58409 0.84674 0.0
H704 H 0.96513 0.58119 0.93314 0.0
C705 C 0.96558 0.63954 0.02887 0.0
C706 C 1.00203 0.61316 0.97527 0.0
C707 C 0.96193 0.65332 0.06421 0.0
C708 C 0.0128 0.55781 0.82099 0.0
C709 C 0.00871 0.57228 0.85291 0.0
C710 C 0.97564 0.58989 0.94482 0.0
C711 C 0.98142 0.63105 0.03045 0.0
C712 C 0.98516 0.61601 0.99393 0.0
C713 C 0.99655 0.57155 0.89179 0.0
C714 C 0.99256 0.58694 0.92664 0.0
H715 H 0.9995 0.65467 0.13177 0.0
H716 H 1.00577 0.63053 0.07097 0.0
H717 H 0.95891 0.60582 0.9921 0.0
H718 H 0.98598 0.5297 0.87064 0.0
H719 H 0.9792 0.55482 0.92726 0.0
C720 C 0.02054 0.20219 0.39169 0.0
C721 C 0.03378 0.21382 0.40803 0.0
C722 C 0.01495 0.19007 0.42203 0.0
C723 C 0.0314 0.16666 0.52219 0.0
H724 H 0.98474 0.14787 0.51665 0.0
C725 C 0.01682 0.09887 0.56449 0.0
C726 C 1.00123 0.09534 0.58854 0.0
C727 C 0.02008 0.11486 0.54975 0.0
C728 C 0.99779 0.15307 0.51932 0.0
H729 H 0.05071 0.22251 0.47061 0.0
H730 H 0.04082 0.20136 0.52397 0.0
H731 H 0.99071 0.17407 0.48078 0.0
H732 H 0.977 0.10595 0.61702 0.0
H733 H 0.98274 0.13396 0.5916 0.0
H734 H 0.03848 0.1457 0.56082 0.0
C735 C 0.035 0.20145 0.48716 0.0
C736 C 1.00125 0.16802 0.49824 0.0
C737 C 0.04063 0.2136 0.45667 0.0
C738 C 0.98903 0.10822 0.59794 0.0
C739 C 0.99233 0.12427 0.58339 0.0
C740 C 0.02792 0.15176 0.54346 0.0
C741 C 0.02242 0.18924 0.4696 0.0
C742 C 0.01819 0.17478 0.4983 0.0
C743 C 0.00787 0.12776 0.55891 0.0
C744 C 0.01116 0.14455 0.54118 0.0
H745 H 0.01518 0.20175 0.35414 0.0
H746 H 1.00544 0.18074 0.40686 0.0
H747 H 0.04463 0.17139 0.52261 0.0
H748 H 0.02636 0.08915 0.55604 0.0
H749 H 0.03202 0.11696 0.53004 0.0
C750 C 0.30151 0.00349 0.47749 0.0
C751 C 0.2924 0.99296 0.44048 0.0
C752 C 0.31292 0.99667 0.51007 0.0
C753 C 0.33997 0.959 0.50439 0.0
H754 H 0.35976 0.98339 0.62484 0.0
C755 C 0.41255 0.95926 0.54425 0.0
C756 C 0.41874 0.96119 0.5939 0.0
C757 C 0.3948 0.95962 0.53447 0.0
C758 C 0.35428 0.97616 0.59179 0.0
H759 H 0.28625 0.96682 0.41391 0.0
H760 H 0.30524 0.95498 0.47269 0.0
H761 H 0.3308 0.99017 0.59803 0.0
H762 H 0.41119 0.96419 0.67235 0.0
H763 H 0.38009 0.96458 0.65528 0.0
H764 H 0.36339 0.94497 0.49818 0.0
C765 C 0.3043 0.96856 0.47482 0.0
C766 C 0.33771 0.9802 0.57602 0.0
C767 C 0.29314 0.97539 0.44153 0.0
C768 C 0.40677 0.96288 0.63365 0.0
C769 C 0.38897 0.96313 0.62387 0.0
C770 C 0.35639 0.95482 0.52051 0.0
C771 C 0.31521 0.97912 0.50712 0.0
C772 C 0.33067 0.97221 0.53083 0.0
C773 C 0.38278 0.96177 0.57412 0.0
C774 C 0.36409 0.96387 0.56304 0.0
H775 H 0.30084 0.01708 0.47883 0.0
H776 H 0.32096 0.0053 0.53448 0.0
H777 H 0.33517 0.95257 0.46924 0.0
H778 H 0.42146 0.95818 0.51285 0.0
H779 H 0.39059 0.9589 0.49567 0.0
C780 C 0.47615 0.32975 0.56379 0.0
C781 C 0.48729 0.31784 0.5387 0.0
C782 C 0.48289 0.34393 0.59307 0.0
C783 C 0.50022 0.37177 0.66286 0.0
H784 H 0.53694 0.39326 0.59307 0.0
C785 C 0.52407 0.43897 0.73084 0.0
C786 C 0.52525 0.44989 0.69314 0.0
C787 C 0.52257 0.42157 0.71819 0.0
C788 C 0.52672 0.38741 0.61307 0.0
H789 H 0.51421 0.31082 0.5279 0.0
H790 H 0.52592 0.33534 0.58009 0.0
H791 H 0.52777 0.36455 0.56344 0.0
H792 H 0.52664 0.45102 0.61268 0.0
H793 H 0.52382 0.42064 0.59052 0.0
H794 H 0.49851 0.39499 0.71072 0.0
C795 C 0.51199 0.33388 0.57626 0.0
C796 C 0.52161 0.37087 0.59654 0.0
C797 C 0.50525 0.31971 0.54687 0.0
C798 C 0.52578 0.44296 0.64259 0.0
C799 C 0.52423 0.42553 0.62992 0.0
C800 C 0.50533 0.38833 0.67936 0.0
C801 C 0.50091 0.34647 0.59799 0.0
C802 C 0.50802 0.363 0.6205 0.0
C803 C 0.52219 0.41468 0.66757 0.0
C804 C 0.51835 0.39647 0.65388 0.0
H805 H 0.46224 0.32853 0.55876 0.0
H806 H 0.47397 0.35341 0.60914 0.0
H807 H 0.48983 0.366 0.6824 0.0
H808 H 0.52379 0.44386 0.77025 0.0
H809 H 0.52132 0.41353 0.74807 0.0
C810 C 0.22681 0.55465 0.42031 0.0
C811 C 0.23921 0.54221 0.4252 0.0
C812 C 0.21487 0.55894 0.45848 0.0
C813 C 0.1929 0.53862 0.55711 0.0
H814 H 0.16843 0.58099 0.57422 0.0
C815 C 0.12626 0.54356 0.65225 0.0
C816 C 0.11354 0.54963 0.62134 0.0
C817 C 0.14387 0.54588 0.64248 0.0
C818 C 0.17522 0.56913 0.57016 0.0
H819 H 0.24983 0.52564 0.47599 0.0
H820 H 0.22905 0.5333 0.54325 0.0
H821 H 0.1967 0.5796 0.53312 0.0
H822 H 0.10949 0.56368 0.55749 0.0
H823 H 0.14013 0.56793 0.5411 0.0
H824 H 0.17119 0.52804 0.59266 0.0
C825 C 0.22832 0.53946 0.50927 0.0
C826 C 0.19138 0.5683 0.54653 0.0
C827 C 0.24025 0.5351 0.47083 0.0
C828 C 0.11887 0.55899 0.58244 0.0
C829 C 0.13647 0.56144 0.573 0.0
C830 C 0.17684 0.5395 0.58115 0.0
C831 C 0.21504 0.55093 0.50269 0.0
C832 C 0.20007 0.55286 0.53779 0.0
C833 C 0.14914 0.55449 0.60201 0.0
C834 C 0.16754 0.55459 0.58613 0.0
H835 H 0.22544 0.56022 0.38544 0.0
H836 H 0.20473 0.56764 0.45156 0.0
H837 H 0.19905 0.52646 0.5506 0.0
H838 H 0.12262 0.53664 0.68327 0.0
H839 H 0.15337 0.54055 0.66578 0.0
C840 C 0.01123 0.7932 0.06349 0.0
C841 C 0.99323 0.79016 0.06356 0.0
C842 C 0.01841 0.80495 0.03418 0.0
C843 C 0.00775 0.83359 0.93655 0.0
H844 H 0.04284 0.86211 0.00822 0.0
C845 C 0.03308 0.89423 0.86034 0.0
C846 C 0.03639 0.90826 0.89579 0.0
C847 C 0.0299 0.87833 0.8759 0.0
C848 C 0.03294 0.85438 0.98781 0.0
H849 H 0.96895 0.79587 0.02859 0.0
H850 H 0.98122 0.81695 0.97996 0.0
H851 H 0.03328 0.83655 0.0414 0.0
H852 H 0.03896 0.91676 0.97513 0.0
H853 H 0.03276 0.88922 0.00268 0.0
H854 H 1.00651 0.85213 0.885 0.0
C855 C 0.98993 0.81017 0.00195 0.0
C856 C 0.02767 0.83946 0.00636 0.0
C857 C 0.9828 0.79819 0.03054 0.0
C858 C 0.03661 0.9061 0.94706 0.0
C859 C 0.03315 0.89026 0.96272 0.0
C860 C 0.01283 0.84868 0.91842 0.0
C861 C 0.00775 0.81418 0.00482 0.0
C862 C 0.01478 0.82897 0.98148 0.0
C863 C 0.02968 0.87615 0.92736 0.0
C864 C 0.02528 0.85943 0.9443 0.0
H865 H 0.01973 0.78731 0.08839 0.0
H866 H 0.03226 0.8073 0.03625 0.0
H867 H 0.99803 0.82574 0.91577 0.0
H868 H 0.03304 0.89556 0.8205 0.0
H869 H 0.02764 0.86776 0.84749 0.0
C870 C 0.73594 0.99849 0.99289 0.0
C871 C 0.74424 0.00999 0.02908 0.0
C872 C 0.72462 0.00415 0.95793 0.0
C873 C 0.69603 0.04048 0.95499 0.0
H874 H 0.67762 0.01259 0.83857 0.0
C875 C 0.62739 0.04903 0.8734 0.0
C876 C 0.61722 0.03429 0.87482 0.0
C877 C 0.6454 0.04865 0.8795 0.0
C878 C 0.68276 0.02064 0.87063 0.0
H879 H 0.74919 0.03662 0.05174 0.0
H880 H 0.73035 0.04648 0.98882 0.0
H881 H 0.707 0.00792 0.86756 0.0
H882 H 0.61825 0.00762 0.8845 0.0
H883 H 0.64953 0.00693 0.8931 0.0
H884 H 0.67159 0.05293 0.95835 0.0
C885 C 0.73183 0.03302 0.98915 0.0
C886 C 0.69953 0.01792 0.88749 0.0
C887 C 0.7429 0.02734 0.02483 0.0
C888 C 0.62558 0.01915 0.88183 0.0
C889 C 0.64354 0.01872 0.88684 0.0
C890 C 0.67941 0.04339 0.9375 0.0
C891 C 0.72163 0.02151 0.95762 0.0
C892 C 0.70605 0.02723 0.93149 0.0
C893 C 0.6536 0.03346 0.88605 0.0
C894 C 0.67237 0.03299 0.89665 0.0
H895 H 0.7371 0.98502 0.99408 0.0
H896 H 0.71715 0.99479 0.93429 0.0
H897 H 0.70037 0.04783 0.98928 0.0
H898 H 0.6215 0.06086 0.86725 0.0
H899 H 0.65293 0.06019 0.87904 0.0
C900 C 0.54284 0.67241 0.90162 0.0
C901 C 0.53114 0.68313 0.92907 0.0
C902 C 0.53683 0.65874 0.86892 0.0
C903 C 0.49879 0.63039 0.85459 0.0
H904 H 0.5272 0.60855 0.748 0.0
C905 C 0.50092 0.55844 0.81158 0.0
C906 C 0.50661 0.55131 0.76439 0.0
C907 C 0.49984 0.57597 0.82203 0.0
C908 C 0.51876 0.61448 0.7768 0.0
H909 H 0.50393 0.68884 0.94024 0.0
H910 H 0.4934 0.66532 0.88149 0.0
H911 H 0.53274 0.63782 0.7783 0.0
H912 H 0.5141 0.55647 0.68963 0.0
H913 H 0.51122 0.58688 0.70659 0.0
H914 H 0.4846 0.60713 0.85244 0.0
C915 C 0.50725 0.66717 0.88649 0.0
C916 C 0.52216 0.63129 0.79479 0.0
C917 C 0.51329 0.68079 0.91968 0.0
C918 C 0.50997 0.56177 0.72666 0.0
C919 C 0.50843 0.57921 0.73658 0.0
C920 C 0.49516 0.61365 0.83589 0.0
C921 C 0.51894 0.65557 0.86232 0.0
C922 C 0.51277 0.63922 0.83552 0.0
C923 C 0.50402 0.58662 0.78499 0.0
C924 C 0.50559 0.60523 0.79829 0.0
H925 H 0.55669 0.67408 0.90733 0.0
H926 H 0.5463 0.65009 0.85144 0.0
H927 H 0.49126 0.63601 0.88605 0.0
H928 H 0.49832 0.55057 0.84123 0.0
H929 H 0.49662 0.58111 0.85997 0.0
C930 C 0.79732 0.44955 0.02028 0.0
C931 C 0.78909 0.46477 0.03707 0.0
C932 C 0.80999 0.44906 0.98296 0.0
C933 C 0.8411 0.47978 0.94035 0.0
H934 H 0.8613 0.43933 0.87209 0.0
C935 C 0.91415 0.47446 0.91695 0.0
C936 C 0.92103 0.46575 0.87319 0.0
C937 C 0.89635 0.47425 0.92569 0.0
C938 C 0.85575 0.45083 0.89021 0.0
H939 H 0.78562 0.49062 0.021 0.0
H940 H 0.80653 0.48933 0.95352 0.0
H941 H 0.83115 0.43879 0.89902 0.0
H942 H 0.91472 0.44994 0.80419 0.0
H943 H 0.88343 0.44974 0.81914 0.0
H944 H 0.86553 0.49187 0.93114 0.0
C945 C 0.80411 0.47805 0.97161 0.0
C946 C 0.83848 0.45048 0.90618 0.0
C947 C 0.79179 0.47869 0.00993 0.0
C948 C 0.90974 0.45666 0.83848 0.0
C949 C 0.89185 0.45655 0.84703 0.0
C950 C 0.85819 0.48018 0.92383 0.0
C951 C 0.81435 0.46367 0.96048 0.0
C952 C 0.83113 0.46478 0.93328 0.0
C953 C 0.88493 0.46548 0.89061 0.0
C954 C 0.86597 0.46555 0.90053 0.0
H955 H 0.79505 0.43834 0.03882 0.0
H956 H 0.81734 0.43761 0.97523 0.0
H957 H 0.83616 0.49106 0.96144 0.0
H958 H 0.92257 0.48135 0.94472 0.0
H959 H 0.89157 0.48085 0.96038 0.0
C960 C 0.05844 0.17161 0.98499 0.0
C961 C 0.07573 0.17693 0.99323 0.0
C962 C 0.05453 0.15534 0.96271 0.0
C963 C 0.07331 0.11822 0.88684 0.0
H964 H 0.03292 0.09559 0.93539 0.0
C965 C 0.05391 0.04834 0.82122 0.0
C966 C 0.0364 0.04576 0.80741 0.0
C967 C 0.05967 0.06399 0.84482 0.0
C968 C 0.0442 0.10178 0.92132 0.0
H969 H 0.10252 0.16944 0.98421 0.0
H970 H 0.09571 0.14081 0.94599 0.0
H971 H 0.04133 0.12349 0.97486 0.0
H972 H 0.01122 0.05759 0.80772 0.0
H973 H 0.02124 0.08467 0.8493 0.0
H974 H 0.07617 0.09625 0.83358 0.0
C975 C 0.08515 0.14932 0.95603 0.0
C976 C 0.04899 0.11781 0.94375 0.0
C977 C 0.08907 0.1657 0.97799 0.0
C978 C 0.02479 0.05911 0.81787 0.0
C979 C 0.0305 0.07462 0.84194 0.0
C980 C 0.06859 0.10206 0.86469 0.0
C981 C 0.06781 0.14389 0.9485 0.0
C982 C 0.06343 0.12638 0.92627 0.0
C983 C 0.04798 0.07724 0.85567 0.0
C984 C 0.05382 0.09381 0.88122 0.0
H985 H 0.04789 0.18009 0.99551 0.0
H986 H 0.04104 0.15179 0.95634 0.0
H987 H 0.08441 0.12448 0.87208 0.0
H988 H 0.06319 0.03833 0.81348 0.0
H989 H 0.07321 0.06566 0.85519 0.0
C990 C 0.33995 1.00122 0.95822 0.0
C991 C 0.33555 0.01389 0.99677 0.0
C992 C 0.35654 1.00076 0.93704 0.0
C993 C 0.39534 0.0273 0.91935 0.0
H994 H 0.4178 0.98423 0.8891 0.0
C995 C 0.4663 0.02162 0.84561 0.0
C996 C 0.4699 0.00799 0.80923 0.0
C997 C 0.45016 0.02273 0.86988 0.0
C998 C 0.41167 0.99637 0.89667 0.0
H999 H 0.34526 0.03613 0.04286 0.0
H1000 H 0.37426 0.03525 0.00614 0.0
H1001 H 0.38937 0.98537 0.92847 0.0
H1002 H 0.45905 0.98503 0.76928 0.0
H1003 H 0.43107 0.98715 0.81045 0.0
H1004 H 0.41759 0.03829 0.88699 0.0
C1005 C 0.36481 0.02571 0.99213 0.0
C1006 C 0.39533 0.99701 0.91938 0.0
C1007 C 0.34822 0.0261 0.01355 0.0
C1008 C 0.45688 0.99565 0.79734 0.0
C1009 C 0.44079 0.9968 0.82132 0.0
C1010 C 0.41169 0.02666 0.89639 0.0
C1011 C 0.3692 0.013 0.95363 0.0
C1012 C 0.38687 0.01247 0.93074 0.0
C1013 C 0.4372 0.01027 0.85825 0.0
C1014 C 0.42003 0.01115 0.88435 0.0
H1015 H 0.3306 0.99151 0.94466 0.0
H1016 H 0.35938 0.99089 0.90714 0.0
H1017 H 0.38915 0.03941 0.92706 0.0
H1018 H 0.47601 0.03134 0.85581 0.0
H1019 H 0.44797 0.0332 0.8984 0.0
C1020 C 0.46356 0.29917 0.06085 0.0
C1021 C 0.47426 0.29682 0.10194 0.0
C1022 C 0.46493 0.31399 0.03732 0.0
C1023 C 0.48133 0.35822 0.06204 0.0
H1024 H 0.47489 0.35873 0.91856 0.0
C1025 C 0.49533 0.41764 0.96289 0.0
C1026 C 0.48295 0.42175 0.92782 0.0
C1027 C 0.49443 0.40214 0.98265 0.0
C1028 C 0.47659 0.35879 0.95876 0.0
H1029 H 0.49545 0.30765 0.14865 0.0
H1030 H 0.49814 0.33317 0.10718 0.0
H1031 H 0.47327 0.33197 0.95479 0.0
H1032 H 0.46016 0.41261 0.88511 0.0
H1033 H 0.45858 0.38556 0.91969 0.0
H1034 H 0.4848 0.385 0.06593 0.0
C1035 C 0.48827 0.32393 0.094 0.0
C1036 C 0.47562 0.34346 0.97958 0.0
C1037 C 0.4868 0.30925 0.11766 0.0
C1038 C 0.46978 0.4099 0.91248 0.0
C1039 C 0.46898 0.39433 0.9319 0.0
C1040 C 0.48241 0.3735 0.04121 0.0
C1041 C 0.47714 0.32669 0.05416 0.0
C1042 C 0.47803 0.34296 0.03153 0.0
C1043 C 0.48122 0.39032 0.96747 0.0
C1044 C 0.48008 0.37398 0.98933 0.0
H1045 H 0.45372 0.28985 0.04811 0.0
H1046 H 0.45605 0.3157 0.00702 0.0
H1047 H 0.48285 0.35844 0.10234 0.0
H1048 H 0.50557 0.42653 0.97567 0.0
H1049 H 0.50415 0.39937 0.00965 0.0
C1050 C 0.19031 0.50887 0.99325 0.0
C1051 C 0.20124 0.49506 0.98096 0.0
C1052 C 0.17379 0.50924 0.97168 0.0
C1053 C 0.14757 0.49032 0.86288 0.0
H1054 H 0.10874 0.50781 0.94342 0.0
C1055 C 0.08114 0.50223 0.77429 0.0
C1056 C 0.06611 0.49805 0.80019 0.0
C1057 C 0.09749 0.50189 0.79673 0.0
C1058 C 0.11941 0.50276 0.92046 0.0
H1059 H 0.20307 0.47062 0.93692 0.0
H1060 H 0.17435 0.47128 0.89935 0.0
H1061 H 0.13735 0.50693 0.98191 0.0
H1062 H 0.05662 0.49025 0.87039 0.0
H1063 H 0.08518 0.48948 0.90933 0.0
H1064 H 0.1296 0.48588 0.80167 0.0
C1065 C 0.17866 0.48198 0.92505 0.0
C1066 C 0.13588 0.50245 0.9424 0.0
C1067 C 0.19517 0.48161 0.94661 0.0
C1068 C 0.06788 0.49356 0.84928 0.0
C1069 C 0.08428 0.49322 0.87176 0.0
C1070 C 0.13112 0.49067 0.84094 0.0
C1071 C 0.16775 0.49581 0.93722 0.0
C1072 C 0.15018 0.49621 0.91391 0.0
C1073 C 0.09931 0.49735 0.84574 0.0
C1074 C 0.11681 0.4969 0.86939 0.0
H1075 H 0.19463 0.51956 0.01898 0.0
H1076 H 0.16586 0.52021 0.98139 0.0
H1077 H 0.1583 0.4856 0.83961 0.0
H1078 H 0.08033 0.50585 0.73658 0.0
H1079 H 0.10872 0.50541 0.7758 0.0
C1080 C 0.95517 0.8358 0.46438 0.0
C1081 C 0.95981 0.82207 0.49008 0.0
C1082 C 0.95822 0.85237 0.48584 0.0
C1083 C 0.96696 0.87833 0.60671 0.0
H1084 H 0.98841 0.90951 0.52336 0.0
C1085 C 0.99973 0.94015 0.69168 0.0
C1086 C 0.99825 0.95464 0.66663 0.0
C1087 C 0.9936 0.92452 0.66964 0.0
C1088 C 0.98216 0.90107 0.54699 0.0
H1089 H 0.97113 0.81512 0.55897 0.0
H1090 H 0.97624 0.84401 0.59658 0.0
H1091 H 0.98004 0.88122 0.48634 0.0
H1092 H 0.98894 0.964 0.59858 0.0
H1093 H 0.978 0.93664 0.56022 0.0
H1094 H 0.96913 0.89809 0.66742 0.0
C1095 C 0.97012 0.84193 0.55993 0.0
C1096 C 0.97739 0.88484 0.52577 0.0
C1097 C 0.96715 0.82536 0.53837 0.0
C1098 C 0.99035 0.9531 0.61891 0.0
C1099 C 0.98415 0.9374 0.59681 0.0
C1100 C 0.97166 0.89457 0.62787 0.0
C1101 C 0.96587 0.85563 0.53367 0.0
C1102 C 0.96994 0.87321 0.55554 0.0
C1103 C 0.98572 0.92291 0.62195 0.0
C1104 C 0.97956 0.90607 0.59847 0.0
H1105 H 0.9492 0.83375 0.42752 0.0
H1106 H 0.95455 0.86266 0.46499 0.0
H1107 H 0.96098 0.86976 0.63045 0.0
H1108 H 1.00579 0.94077 0.72832 0.0
H1109 H 0.99534 0.91361 0.68974 0.0
C1110 C 0.68812 0.00613 0.46882 0.0
C1111 C 0.70005 0.99355 0.47716 0.0
C1112 C 0.67152 0.00618 0.49011 0.0
C1113 C 0.64661 0.98935 0.59297 0.0
H1114 H 0.60673 0.00303 0.52001 0.0
C1115 C 0.58042 0.00184 0.68968 0.0
C1116 C 0.56521 0.99694 0.66249 0.0
C1117 C 0.59662 1.00109 0.66618 0.0
C1118 C 0.61768 0.99902 0.5408 0.0
H1119 H 0.70355 0.97085 0.51343 0.0
H1120 H 0.67469 0.97087 0.55016 0.0
H1121 H 0.63518 0.00203 0.48022 0.0
H1122 H 0.55526 0.98734 0.58884 0.0
H1123 H 0.58357 0.98578 0.54793 0.0
H1124 H 0.62912 0.986 0.65313 0.0
C1125 C 0.67825 0.98094 0.52805 0.0
C1126 C 0.63408 0.99866 0.51817 0.0
C1127 C 0.69484 0.98092 0.5069 0.0
C1128 C 0.56667 0.99123 0.61102 0.0
C1129 C 0.58293 0.99044 0.58745 0.0
C1130 C 0.63024 0.9897 0.61554 0.0
C1131 C 0.66636 0.99362 0.52024 0.0
C1132 C 0.6488 0.99385 0.54398 0.0
C1133 C 0.59814 0.99536 0.61473 0.0
C1134 C 0.61553 0.99461 0.58992 0.0
H1135 H 0.69173 0.01618 0.44667 0.0
H1136 H 0.66286 0.0163 0.48379 0.0
H1137 H 0.65762 0.98577 0.61437 0.0
H1138 H 0.57987 0.00644 0.72924 0.0
H1139 H 0.60794 0.00527 0.68834 0.0
C1140 C 0.57797 0.69019 0.34655 0.0
C1141 C 0.56727 0.70394 0.36191 0.0
C1142 C 0.57694 0.67541 0.36986 0.0
C1143 C 0.56216 0.65726 0.4836 0.0
H1144 H 0.56021 0.61554 0.39412 0.0
C1145 C 0.54694 0.59263 0.55514 0.0
C1146 C 0.55588 0.57847 0.5328 0.0
C1147 C 0.54829 0.60816 0.5356 0.0
C1148 C 0.56098 0.62702 0.4198 0.0
H1149 H 0.54757 0.71308 0.41547 0.0
H1150 H 0.54595 0.68724 0.45678 0.0
H1151 H 0.56317 0.6423 0.35928 0.0
H1152 H 0.57316 0.56967 0.47187 0.0
H1153 H 0.57596 0.59675 0.43894 0.0
H1154 H 0.56018 0.64194 0.54422 0.0
C1155 C 0.55512 0.68797 0.42648 0.0
C1156 C 0.56264 0.64239 0.39975 0.0
C1157 C 0.55609 0.70279 0.4029 0.0
C1158 C 0.56624 0.58029 0.49048 0.0
C1159 C 0.56765 0.59583 0.47112 0.0
C1160 C 0.56062 0.64183 0.50375 0.0
C1161 C 0.56527 0.67398 0.40945 0.0
C1162 C 0.56333 0.6577 0.43136 0.0
C1163 C 0.55866 0.60998 0.49329 0.0
C1164 C 0.56007 0.62648 0.4721 0.0
H1165 H 0.58703 0.69076 0.31589 0.0
H1166 H 0.58522 0.665 0.35658 0.0
H1167 H 0.56278 0.66882 0.50897 0.0
H1168 H 0.53903 0.5918 0.58816 0.0
H1169 H 0.54103 0.61869 0.55341 0.0
C1170 C 0.83667 0.49715 0.52375 0.0
C1171 C 0.83364 0.50669 0.48357 0.0
C1172 C 0.85323 0.49668 0.54505 0.0
C1173 C 0.89475 0.52033 0.55999 0.0
H1174 H 0.91311 0.47783 0.59189 0.0
C1175 C 0.96572 0.51429 0.62702 0.0
C1176 C 0.96889 0.50331 0.66349 0.0
C1177 C 0.94932 0.51477 0.6046 0.0
C1178 C 0.90813 0.48986 0.58391 0.0
H1179 H 0.84566 0.52338 0.43475 0.0
H1180 H 0.87454 0.52252 0.47182 0.0
H1181 H 0.88438 0.47851 0.55431 0.0
H1182 H 0.95708 0.48446 0.70568 0.0
H1183 H 0.92857 0.48556 0.66763 0.0
H1184 H 0.91834 0.53176 0.5902 0.0
C1185 C 0.86409 0.51543 0.48691 0.0
C1186 C 0.89164 0.49023 0.56221 0.0
C1187 C 0.84758 0.51578 0.46533 0.0
C1188 C 0.9552 0.49296 0.67735 0.0
C1189 C 0.93881 0.49352 0.65524 0.0
C1190 C 0.9112 0.51999 0.58202 0.0
C1191 C 0.86713 0.50585 0.52701 0.0
C1192 C 0.88473 0.50547 0.54998 0.0
C1193 C 0.93563 0.50436 0.61833 0.0
C1194 C 0.91813 0.50475 0.59437 0.0
H1195 H 0.82626 0.4899 0.53846 0.0
H1196 H 0.85508 0.48929 0.57614 0.0
H1197 H 0.88973 0.53232 0.55164 0.0
H1198 H 0.97595 0.52239 0.61527 0.0
H1199 H 0.94748 0.52312 0.57589 0.0
loop_
_geom_bond_atom_site_label_1
_geom_bond_atom_site_label_2
_geom_bond_distance
_geom_bond_site_symmetry_2
_ccdc_geom_bond_type
C0 C1 1.264 . S
C0 C5 1.479 . S
C0 C10 1.465 . S
C1 C0 1.264 . S
C1 C3 1.339 . S
C1 H28 0.931 . S
C2 C3 1.395 . S
C2 C4 1.320 . S
C3 C1 1.339 . S
C3 C2 1.395 . S
C3 H29 0.929 . S
C4 C2 1.320 . S
C4 C5 1.405 . S
C4 H30 0.930 . S
C5 C0 1.479 . S
C5 C4 1.405 . S
C5 H31 0.931 . S
U6 O7 2.454 . S
U6 O8 2.458 . S
U6 C9 2.984 . S
U6 C10 2.847 . S
U6 C23 2.882 . S
U6 O24 2.441 . S
U6 O25 2.420 . S
U6 O26 2.455 . S
U6 O27 2.449 . S
O7 U6 2.454 . S
O7 C9 1.353 . S
O8 U6 2.458 . S
O8 C9 1.286 . S
C9 U6 2.984 . S
C9 O7 1.353 . S
C9 O8 1.286 . S
C9 C11 1.363 . S
C10 C0 1.465 . S
C10 U6 2.847 . S
C10 O24 1.249 . S
C10 O25 1.202 . S
C11 C9 1.363 . S
C11 C13 1.408 . S
C11 C16 1.342 . S
C12 C13 1.310 . S
C12 C15 1.461 . S
C12 H32 0.932 . S
C13 C11 1.408 . S
C13 C12 1.310 . S
C13 H33 0.930 . S
C14 C15 1.474 . S
C14 C16 1.285 . S
C14 H34 0.929 . S
C15 C12 1.461 . S
C15 C14 1.474 . S
C16 C11 1.342 . S
C16 C14 1.285 . S
C16 H35 0.930 . S
C17 C20 1.424 . S
C17 C22 1.245 . S
C17 C23 1.428 . S
C18 C21 1.260 . S
C18 C22 1.477 . S
C18 H36 0.932 . S
C19 C20 1.384 . S
C19 C21 1.479 . S
C19 H37 0.929 . S
C20 C17 1.424 . S
C20 C19 1.384 . S
C20 H38 0.928 . S
C21 C18 1.260 . S
C21 C19 1.479 . S
C22 C17 1.245 . S
C22 C18 1.477 . S
C22 H39 0.932 . S
C23 U6 2.882 . S
C23 C17 1.428 . S
C23 O26 1.301 . S
C23 O27 1.282 . S
O24 U6 2.441 . S
O24 C10 1.249 . S
O25 U6 2.420 . S
O25 C10 1.202 . S
O26 U6 2.455 . S
O26 C23 1.301 . S
O27 U6 2.449 . S
O27 C23 1.282 . S
H28 C1 0.931 . S
H29 C3 0.929 . S
H30 C4 0.930 . S
H31 C5 0.931 . S
H32 C12 0.932 . S
H33 C13 0.930 . S
H34 C14 0.929 . S
H35 C16 0.930 . S
H36 C18 0.932 . S
H37 C19 0.929 . S
H38 C20 0.928 . S
H39 C22 0.932 . S
C40 C41 1.264 . S
C40 C45 1.479 . S
C40 C50 1.465 . S
C41 C40 1.264 . S
C41 C43 1.339 . S
C41 H68 0.931 . S
C42 C43 1.395 . S
C42 C44 1.320 . S
C43 C41 1.339 . S
C43 C42 1.395 . S
C43 H69 0.929 . S
C44 C42 1.320 . S
C44 C45 1.405 . S
C44 H70 0.930 . S
C45 C40 1.479 . S
C45 C44 1.405 . S
C45 H71 0.931 . S
U46 O47 2.454 . S
U46 O48 2.458 . S
U46 C49 2.984 . S
U46 C50 2.847 . S
U46 C63 2.882 . S
U46 O64 2.441 . S
U46 O65 2.420 . S
U46 O66 2.455 . S
U46 O67 2.449 . S
O47 U46 2.454 . S
O47 C49 1.353 . S
O48 U46 2.458 . S
O48 C49 1.286 . S
C49 U46 2.984 . S
C49 O47 1.353 . S
C49 O48 1.286 . S
C49 C51 1.363 . S
C50 C40 1.465 . S
C50 U46 2.847 . S
C50 O64 1.249 . S
C50 O65 1.202 . S
C51 C49 1.363 . S
C51 C53 1.408 . S
C51 C56 1.342 . S
C52 C53 1.310 . S
C52 C55 1.461 . S
C52 H72 0.932 . S
C53 C51 1.408 . S
C53 C52 1.310 . S
C53 H73 0.930 . S
C54 C55 1.474 . S
C54 C56 1.285 . S
C54 H74 0.929 . S
C55 C52 1.461 . S
C55 C54 1.474 . S
C56 C51 1.342 . S
C56 C54 1.285 . S
C56 H75 0.930 . S
C57 C60 1.424 . S
C57 C62 1.245 . S
C57 C63 1.428 . S
C58 C61 1.260 . S
C58 C62 1.477 . S
C58 H76 0.932 . S
C59 C60 1.384 . S
C59 C61 1.479 . S
C59 H77 0.929 . S
C60 C57 1.424 . S
C60 C59 1.384 . S
C60 H78 0.928 . S
C61 C58 1.260 . S
C61 C59 1.479 . S
C62 C57 1.245 . S
C62 C58 1.477 . S
C62 H79 0.932 . S
C63 U46 2.882 . S
C63 C57 1.428 . S
C63 O66 1.301 . S
C63 O67 1.282 . S
O64 U46 2.441 . S
O64 C50 1.249 . S
O65 U46 2.420 . S
O65 C50 1.202 . S
O66 U46 2.455 . S
O66 C63 1.301 . S
O67 U46 2.449 . S
O67 C63 1.282 . S
H68 C41 0.931 . S
H69 C43 0.929 . S
H70 C44 0.930 . S
H71 C45 0.931 . S
H72 C52 0.932 . S
H73 C53 0.930 . S
H74 C54 0.929 . S
H75 C56 0.930 . S
H76 C58 0.932 . S
H77 C59 0.929 . S
H78 C60 0.928 . S
H79 C62 0.932 . S
C80 C81 1.264 . S
C80 C85 1.479 . S
C80 C90 1.465 . S
C81 C80 1.264 . S
C81 C83 1.339 . S
C81 H108 0.931 . S
C82 C83 1.395 . S
C82 C84 1.320 . S
C83 C81 1.339 . S
C83 C82 1.395 . S
C83 H109 0.929 . S
C84 C82 1.320 . S
C84 C85 1.405 . S
C84 H110 0.916 1_545 S
C85 C80 1.479 . S
C85 C84 1.405 . S
C85 H111 0.931 . S
U86 O87 2.454 . S
U86 O88 2.458 . S
U86 C89 2.984 . S
U86 C90 2.847 . S
U86 C103 2.882 . S
U86 O104 2.441 . S
U86 O105 2.420 . S
U86 O106 2.455 . S
U86 O107 2.449 . S
O87 U86 2.454 . S
O87 C89 1.353 . S
O88 U86 2.458 . S
O88 C89 1.286 . S
C89 U86 2.984 . S
C89 O87 1.353 . S
C89 O88 1.286 . S
C89 C91 1.363 . S
C90 C80 1.465 . S
C90 U86 2.847 . S
C90 O104 1.249 . S
C90 O105 1.202 . S
C91 C89 1.363 . S
C91 C93 1.408 . S
C91 C96 1.342 . S
C92 C93 1.310 . S
C92 C95 1.461 . S
C92 H112 0.942 . S
C93 C91 1.408 . S
C93 C92 1.310 . S
C93 H113 0.930 . S
C94 C95 1.475 1_565 S
C94 C96 1.285 1_565 S
C94 H114 0.929 . S
C95 C92 1.461 . S
C95 C94 1.475 1_545 S
C96 C91 1.342 . S
C96 C94 1.285 1_545 S
C96 H115 0.929 . S
C97 C100 1.424 . S
C97 C102 1.245 . S
C97 C103 1.428 . S
C98 C101 1.260 . S
C98 C102 1.477 . S
C98 H116 0.932 . S
C99 C100 1.384 . S
C99 C101 1.479 . S
C99 H117 0.929 . S
C100 C97 1.424 . S
C100 C99 1.384 . S
C100 H118 0.928 . S
C101 C98 1.260 . S
C101 C99 1.479 . S
C102 C97 1.245 . S
C102 C98 1.477 . S
C102 H119 0.932 . S
C103 U86 2.882 . S
C103 C97 1.428 . S
C103 O106 1.301 . S
C103 O107 1.282 . S
O104 U86 2.441 . S
O104 C90 1.249 . S
O105 U86 2.420 . S
O105 C90 1.202 . S
O106 U86 2.455 . S
O106 C103 1.301 . S
O107 U86 2.449 . S
O107 C103 1.282 . S
H108 C81 0.931 . S
H109 C83 0.929 . S
H110 C84 0.916 1_565 S
H111 C85 0.931 . S
H112 C92 0.942 . S
H113 C93 0.930 . S
H114 C94 0.929 . S
H115 C96 0.929 . S
H116 C98 0.932 . S
H117 C99 0.929 . S
H118 C100 0.928 . S
H119 C102 0.932 . S
C120 C121 1.264 . S
C120 C125 1.479 . S
C120 C130 1.465 . S
C121 C120 1.264 . S
C121 C123 1.339 . S
C121 H148 0.931 . S
C122 C123 1.395 . S
C122 C124 1.320 . S
C123 C121 1.339 . S
C123 C122 1.395 . S
C123 H149 0.929 . S
C124 C122 1.320 . S
C124 C125 1.405 . S
C124 H150 0.930 . S
C125 C120 1.479 . S
C125 C124 1.405 . S
C125 H151 0.931 . S
U126 O127 2.454 . S
U126 O128 2.458 1_554 S
U126 C129 2.984 1_554 S
U126 C130 2.847 . S
U126 C143 2.882 1_554 S
U126 O144 2.441 . S
U126 O145 2.420 . S
U126 O146 2.455 1_554 S
U126 O147 2.449 1_554 S
O127 U126 2.454 . S
O127 C129 1.353 1_554 S
O128 U126 2.458 1_556 S
O128 C129 1.286 . S
C129 U126 2.984 1_556 S
C129 O127 1.353 1_556 S
C129 O128 1.286 . S
C129 C131 1.363 . S
C130 C120 1.465 . S
C130 U126 2.847 . S
C130 O144 1.249 . S
C130 O145 1.202 . S
C131 C129 1.363 . S
C131 C133 1.408 1_556 S
C131 C136 1.342 . S
C132 C133 1.310 . S
C132 C135 1.461 1_554 S
C132 H152 0.932 . S
C133 C131 1.408 1_554 S
C133 C132 1.310 . S
C133 H153 0.930 . S
C134 C135 1.474 . S
C134 C136 1.285 . S
C134 H154 0.929 . S
C135 C132 1.461 1_556 S
C135 C134 1.474 . S
C136 C131 1.342 . S
C136 C134 1.285 . S
C136 H155 0.930 . S
C137 C140 1.424 . S
C137 C142 1.245 . S
C137 C143 1.428 . S
C138 C141 1.260 . S
C138 C142 1.477 . S
C138 H156 0.932 . S
C139 C140 1.384 . S
C139 C141 1.479 . S
C139 H157 0.929 . S
C140 C137 1.424 . S
C140 C139 1.384 . S
C140 H158 0.928 . S
C141 C138 1.260 . S
C141 C139 1.479 . S
C142 C137 1.245 . S
C142 C138 1.477 . S
C142 H159 0.932 . S
C143 U126 2.882 1_556 S
C143 C137 1.428 . S
C143 O146 1.301 . S
C143 O147 1.282 . S
O144 U126 2.441 . S
O144 C130 1.249 . S
O145 U126 2.420 . S
O145 C130 1.202 . S
O146 U126 2.455 1_556 S
O146 C143 1.301 . S
O147 U126 2.449 1_556 S
O147 C143 1.282 . S
H148 C121 0.931 . S
H149 C123 0.929 . S
H150 C124 0.930 . S
H151 C125 0.931 . S
H152 C132 0.932 . S
H153 C133 0.930 . S
H154 C134 0.929 . S
H155 C136 0.930 . S
H156 C138 0.932 . S
H157 C139 0.929 . S
H158 C140 0.928 . S
H159 C142 0.932 . S
C160 C161 1.264 . S
C160 C165 1.479 1_554 S
C160 C170 1.465 . S
C161 C160 1.264 . S
C161 C163 1.339 1_554 S
C161 H188 0.931 . S
C162 C163 1.395 . S
C162 C164 1.320 . S
C163 C161 1.339 1_556 S
C163 C162 1.395 . S
C163 H189 0.929 . S
C164 C162 1.320 . S
C164 C165 1.405 . S
C164 H190 0.930 . S
C165 C160 1.479 1_556 S
C165 C164 1.405 . S
C165 H191 0.931 . S
U166 O167 2.454 . S
U166 O168 2.458 . S
U166 C169 2.984 . S
U166 C170 2.847 . S
U166 C183 2.882 . S
U166 O184 2.441 . S
U166 O185 2.420 . S
U166 O186 2.455 . S
U166 O187 2.449 . S
O167 U166 2.454 . S
O167 C169 1.353 . S
O168 U166 2.458 . S
O168 C169 1.286 . S
C169 U166 2.984 . S
C169 O167 1.353 . S
C169 O168 1.286 . S
C169 C171 1.363 . S
C170 C160 1.465 . S
C170 U166 2.847 . S
C170 O184 1.249 . S
C170 O185 1.202 . S
C171 C169 1.363 . S
C171 C173 1.408 . S
C171 C176 1.342 . S
C172 C173 1.310 . S
C172 C175 1.461 . S
C172 H192 0.932 . S
C173 C171 1.408 . S
C173 C172 1.310 . S
C173 H193 0.930 . S
C174 C175 1.474 . S
C174 C176 1.285 . S
C174 H194 0.929 . S
C175 C172 1.461 . S
C175 C174 1.474 . S
C176 C171 1.342 . S
C176 C174 1.285 . S
C176 H195 0.930 . S
C177 C180 1.424 . S
C177 C182 1.245 . S
C177 C183 1.428 . S
C178 C181 1.260 . S
C178 C182 1.477 . S
C178 H196 0.932 . S
C179 C180 1.384 . S
C179 C181 1.479 . S
C179 H197 0.929 . S
C180 C177 1.424 . S
C180 C179 1.384 . S
C180 H198 0.928 . S
C181 C178 1.260 . S
C181 C179 1.479 . S
C182 C177 1.245 . S
C182 C178 1.477 . S
C182 H199 0.932 . S
C183 U166 2.882 . S
C183 C177 1.428 . S
C183 O186 1.301 . S
C183 O187 1.282 . S
O184 U166 2.441 . S
O184 C170 1.249 . S
O185 U166 2.420 . S
O185 C170 1.202 . S
O186 U166 2.455 . S
O186 C183 1.301 . S
O187 U166 2.449 . S
O187 C183 1.282 . S
H188 C161 0.931 . S
H189 C163 0.929 . S
H190 C164 0.930 . S
H191 C165 0.931 . S
H192 C172 0.932 . S
H193 C173 0.930 . S
H194 C174 0.929 . S
H195 C176 0.930 . S
H196 C178 0.932 . S
H197 C179 0.929 . S
H198 C180 0.928 . S
H199 C182 0.932 . S
C200 C201 1.264 . S
C200 C205 1.479 . S
C200 C210 1.465 . S
C201 C200 1.264 . S
C201 C203 1.339 . S
C201 H228 0.931 . S
C202 C203 1.395 1_556 S
C202 C204 1.320 . S
C203 C201 1.339 . S
C203 C202 1.395 1_554 S
C203 H229 0.929 . S
C204 C202 1.320 . S
C204 C205 1.405 1_556 S
C204 H230 0.930 . S
C205 C200 1.479 . S
C205 C204 1.405 1_554 S
C205 H231 0.931 . S
U206 O207 2.454 . S
U206 O208 2.458 . S
U206 C209 2.984 . S
U206 C210 2.847 . S
U206 C223 2.882 . S
U206 O224 2.441 . S
U206 O225 2.420 . S
U206 O226 2.455 . S
U206 O227 2.449 . S
O207 U206 2.454 . S
O207 C209 1.353 . S
O208 U206 2.458 . S
O208 C209 1.286 . S
C209 U206 2.984 . S
C209 O207 1.353 . S
C209 O208 1.286 . S
C209 C211 1.363 . S
C210 C200 1.465 . S
C210 U206 2.847 . S
C210 O224 1.249 . S
C210 O225 1.202 . S
C211 C209 1.363 . S
C211 C213 1.408 . S
C211 C216 1.342 . S
C212 C213 1.310 . S
C212 C215 1.461 . S
C212 H232 0.932 . S
C213 C211 1.408 . S
C213 C212 1.310 . S
C213 H233 0.930 . S
C214 C215 1.474 . S
C214 C216 1.285 . S
C214 H234 0.929 . S
C215 C212 1.461 . S
C215 C214 1.474 . S
C216 C211 1.342 . S
C216 C214 1.285 . S
C216 H235 0.930 . S
C217 C220 1.424 . S
C217 C222 1.245 . S
C217 C223 1.428 . S
C218 C221 1.260 . S
C218 C222 1.477 . S
C218 H236 0.932 . S
C219 C220 1.384 . S
C219 C221 1.479 . S
C219 H237 0.929 . S
C220 C217 1.424 . S
C220 C219 1.384 . S
C220 H238 0.928 . S
C221 C218 1.260 . S
C221 C219 1.479 . S
C222 C217 1.245 . S
C222 C218 1.477 . S
C222 H239 0.932 . S
C223 U206 2.882 . S
C223 C217 1.428 . S
C223 O226 1.301 . S
C223 O227 1.282 . S
O224 U206 2.441 . S
O224 C210 1.249 . S
O225 U206 2.420 . S
O225 C210 1.202 . S
O226 U206 2.455 . S
O226 C223 1.301 . S
O227 U206 2.449 . S
O227 C223 1.282 . S
H228 C201 0.931 . S
H229 C203 0.929 . S
H230 C204 0.930 . S
H231 C205 0.931 . S
H232 C212 0.932 . S
H233 C213 0.930 . S
H234 C214 0.929 . S
H235 C216 0.930 . S
H236 C218 0.932 . S
H237 C219 0.929 . S
H238 C220 0.928 . S
H239 C222 0.932 . S
C240 C241 1.264 . S
C240 C245 1.479 1_554 S
C240 C250 1.465 . S
C241 C240 1.264 . S
C241 C243 1.339 1_554 S
C241 H268 0.931 . S
C242 C243 1.395 . S
C242 C244 1.320 . S
C243 C241 1.339 1_556 S
C243 C242 1.395 . S
C243 H269 0.929 . S
C244 C242 1.320 . S
C244 C245 1.405 . S
C244 H270 0.927 1_545 S
C245 C240 1.479 1_556 S
C245 C244 1.405 . S
C245 H271 0.931 . S
U246 O247 2.454 . S
U246 O248 2.458 . S
U246 C249 2.984 . S
U246 C250 2.847 . S
U246 C263 2.882 . S
U246 O264 2.441 . S
U246 O265 2.420 . S
U246 O266 2.455 . S
U246 O267 2.449 . S
O247 U246 2.454 . S
O247 C249 1.353 . S
O248 U246 2.458 . S
O248 C249 1.286 . S
C249 U246 2.984 . S
C249 O247 1.353 . S
C249 O248 1.286 . S
C249 C251 1.363 . S
C250 C240 1.465 . S
C250 U246 2.847 . S
C250 O264 1.249 . S
C250 O265 1.202 . S
C251 C249 1.363 . S
C251 C253 1.408 . S
C251 C256 1.342 . S
C252 C253 1.310 . S
C252 C255 1.464 . S
C252 H272 0.932 . S
C253 C251 1.408 . S
C253 C252 1.310 . S
C253 H273 0.930 . S
C254 C255 1.473 1_565 S
C254 C256 1.286 1_565 S
C254 H274 0.928 . S
C255 C252 1.464 . S
C255 C254 1.473 1_545 S
C256 C251 1.342 . S
C256 C254 1.286 1_545 S
C256 H275 0.938 . S
C257 C260 1.424 . S
C257 C262 1.245 . S
C257 C263 1.428 . S
C258 C261 1.260 . S
C258 C262 1.477 . S
C258 H276 0.932 . S
C259 C260 1.384 . S
C259 C261 1.479 . S
C259 H277 0.929 . S
C260 C257 1.424 . S
C260 C259 1.384 . S
C260 H278 0.928 . S
C261 C258 1.260 . S
C261 C259 1.479 . S
C262 C257 1.245 . S
C262 C258 1.477 . S
C262 H279 0.932 . S
C263 U246 2.882 . S
C263 C257 1.428 . S
C263 O266 1.301 . S
C263 O267 1.282 . S
O264 U246 2.441 . S
O264 C250 1.249 . S
O265 U246 2.420 . S
O265 C250 1.202 . S
O266 U246 2.455 . S
O266 C263 1.301 . S
O267 U246 2.449 . S
O267 C263 1.282 . S
H268 C241 0.931 . S
H269 C243 0.929 . S
H270 C244 0.927 1_565 S
H271 C245 0.931 . S
H272 C252 0.932 . S
H273 C253 0.930 . S
H274 C254 0.928 . S
H275 C256 0.938 . S
H276 C258 0.932 . S
H277 C259 0.929 . S
H278 C260 0.928 . S
H279 C262 0.932 . S
C280 C281 1.264 . S
C280 C285 1.479 . S
C280 C290 1.465 . S
C281 C280 1.264 . S
C281 C283 1.339 . S
C281 H308 0.931 . S
C282 C283 1.395 . S
C282 C284 1.320 . S
C283 C281 1.339 . S
C283 C282 1.395 . S
C283 H309 0.929 . S
C284 C282 1.320 . S
C284 C285 1.405 . S
C284 H310 0.930 . S
C285 C280 1.479 . S
C285 C284 1.405 . S
C285 H311 0.931 . S
U286 O287 2.454 . S
U286 O288 2.458 . S
U286 C289 2.984 . S
U286 C290 2.847 . S
U286 C303 2.882 . S
U286 O304 2.441 . S
U286 O305 2.420 . S
U286 O306 2.455 . S
U286 O307 2.449 . S
O287 U286 2.454 . S
O287 C289 1.353 . S
O288 U286 2.458 . S
O288 C289 1.286 . S
C289 U286 2.984 . S
C289 O287 1.353 . S
C289 O288 1.286 . S
C289 C291 1.363 . S
C290 C280 1.465 . S
C290 U286 2.847 . S
C290 O304 1.249 . S
C290 O305 1.202 . S
C291 C289 1.363 . S
C291 C293 1.408 . S
C291 C296 1.342 . S
C292 C293 1.310 . S
C292 C295 1.461 . S
C292 H312 0.932 . S
C293 C291 1.408 . S
C293 C292 1.310 . S
C293 H313 0.930 . S
C294 C295 1.474 . S
C294 C296 1.285 . S
C294 H314 0.929 . S
C295 C292 1.461 . S
C295 C294 1.474 . S
C296 C291 1.342 . S
C296 C294 1.285 . S
C296 H315 0.930 . S
C297 C300 1.424 . S
C297 C302 1.245 . S
C297 C303 1.428 . S
C298 C301 1.260 . S
C298 C302 1.477 . S
C298 H316 0.932 . S
C299 C300 1.384 . S
C299 C301 1.479 . S
C299 H317 0.929 . S
C300 C297 1.424 . S
C300 C299 1.384 . S
C300 H318 0.928 . S
C301 C298 1.260 . S
C301 C299 1.479 . S
C302 C297 1.245 . S
C302 C298 1.477 . S
C302 H319 0.932 . S
C303 U286 2.882 . S
C303 C297 1.428 . S
C303 O306 1.301 . S
C303 O307 1.282 . S
O304 U286 2.441 . S
O304 C290 1.249 . S
O305 U286 2.420 . S
O305 C290 1.202 . S
O306 U286 2.455 . S
O306 C303 1.301 . S
O307 U286 2.449 . S
O307 C303 1.282 . S
H308 C281 0.931 . S
H309 C283 0.929 . S
H310 C284 0.930 . S
H311 C285 0.931 . S
H312 C292 0.932 . S
H313 C293 0.930 . S
H314 C294 0.929 . S
H315 C296 0.930 . S
H316 C298 0.932 . S
H317 C299 0.929 . S
H318 C300 0.928 . S
H319 C302 0.932 . S
Tb320 C329 2.764 1_655 S
Tb320 O330 2.322 1_655 S
Tb320 O333 2.297 1_655 S
Tb320 O337 2.324 1_545 S
Tb320 O338 2.355 . S
Tb320 O341 2.411 1_655 S
Tb320 O342 2.402 . S
Tb321 O331 2.322 1_565 S
Tb321 O332 2.349 . S
Tb321 O334 2.415 . S
Tb321 O335 2.399 . S
Tb321 O336 2.325 . S
Tb321 O339 2.303 1_455 S
Tb321 C350 2.764 . S
C322 O338 1.261 . S
C322 O339 1.257 1_545 S
C323 C326 1.358 1_455 S
C323 C327 1.332 . S
C323 C329 1.504 . S
C324 C325 1.373 1_455 S
C324 C328 1.308 . S
C325 C324 1.373 1_655 S
C325 C326 1.429 . S
C325 H352 0.932 . S
C326 C323 1.358 1_655 S
C326 C325 1.429 . S
C326 H353 0.930 . S
C327 C323 1.332 . S
C327 C328 1.394 . S
C327 H354 0.932 . S
C328 C324 1.308 . S
C328 C327 1.394 . S
C328 H355 0.929 . S
C329 Tb320 2.764 1_455 S
C329 C323 1.504 . S
C329 O341 1.239 . S
C329 O342 1.263 1_455 S
O330 Tb320 2.322 1_455 S
O330 C340 1.236 . S
O331 Tb321 2.322 1_545 S
O331 C340 1.257 . S
O332 Tb321 2.349 . S
O332 C343 1.261 . S
O333 Tb320 2.297 1_455 S
O333 C343 1.257 1_545 S
O334 Tb321 2.415 . S
O334 C350 1.239 . S
O335 Tb321 2.399 . S
O335 C350 1.263 . S
O336 Tb321 2.325 . S
O336 C351 1.236 1_455 S
O337 Tb320 2.324 1_565 S
O337 C351 1.257 . S
O338 Tb320 2.355 . S
O338 C322 1.261 . S
O339 Tb321 2.303 1_655 S
O339 C322 1.257 1_565 S
C340 O330 1.236 . S
C340 O331 1.257 . S
O341 Tb320 2.411 1_455 S
O341 C329 1.239 . S
O342 Tb320 2.402 . S
O342 C329 1.263 1_655 S
C343 O332 1.261 . S
C343 O333 1.257 1_565 S
C344 C347 1.358 . S
C344 C348 1.332 . S
C344 C350 1.504 . S
C345 C346 1.373 . S
C345 C349 1.328 . S
C346 C345 1.373 . S
C346 C347 1.429 . S
C346 H356 0.932 . S
C347 C344 1.358 . S
C347 C346 1.429 . S
C347 H357 0.930 . S
C348 C344 1.332 . S
C348 C349 1.396 . S
C348 H358 0.932 1_455 S
C349 C345 1.328 . S
C349 C348 1.396 . S
C349 H359 0.907 1_455 S
C350 Tb321 2.764 . S
C350 O334 1.239 . S
C350 O335 1.263 . S
C350 C344 1.504 . S
C351 O336 1.236 1_655 S
C351 O337 1.257 . S
H352 C325 0.932 . S
H353 C326 0.930 . S
H354 C327 0.932 . S
H355 C328 0.929 . S
H356 C346 0.932 . S
H357 C347 0.930 . S
H358 C348 0.932 1_655 S
H359 C349 0.907 1_655 S
Tb360 C369 2.764 . S
Tb360 O370 2.325 . S
Tb360 O373 2.303 1_565 S
Tb360 O377 2.322 . S
Tb360 O378 2.349 . S
Tb360 O381 2.415 1_565 S
Tb360 O382 2.399 . S
Tb361 O371 2.322 . S
Tb361 O372 2.349 . S
Tb361 O374 2.415 1_545 S
Tb361 O375 2.399 . S
Tb361 O376 2.325 . S
Tb361 O379 2.303 1_545 S
Tb361 C390 2.764 . S
C362 O378 1.261 . S
C362 O379 1.257 . S
C363 C366 1.358 . S
C363 C367 1.332 . S
C363 C369 1.504 . S
C364 C365 1.373 . S
C364 C368 1.308 . S
C365 C364 1.373 . S
C365 C366 1.429 . S
C365 H392 0.932 . S
C366 C363 1.358 . S
C366 C365 1.429 . S
C366 H393 0.930 . S
C367 C363 1.332 . S
C367 C368 1.394 . S
C367 H394 0.932 1_565 S
C368 C364 1.308 . S
C368 C367 1.394 . S
C368 H395 0.929 1_565 S
C369 Tb360 2.764 . S
C369 C363 1.504 . S
C369 O381 1.239 1_565 S
C369 O382 1.263 . S
O370 Tb360 2.325 . S
O370 C380 1.236 1_565 S
O371 Tb361 2.322 . S
O371 C380 1.257 . S
O372 Tb361 2.349 . S
O372 C383 1.261 . S
O373 Tb360 2.303 1_545 S
O373 C383 1.257 . S
O374 Tb361 2.415 1_565 S
O374 C390 1.239 1_565 S
O375 Tb361 2.399 . S
O375 C390 1.263 . S
O376 Tb361 2.325 . S
O376 C391 1.236 1_545 S
O377 Tb360 2.322 . S
O377 C391 1.257 . S
O378 Tb360 2.349 . S
O378 C362 1.261 . S
O379 Tb361 2.303 1_565 S
O379 C362 1.257 . S
C380 O370 1.236 1_545 S
C380 O371 1.257 . S
O381 Tb360 2.415 1_545 S
O381 C369 1.239 1_545 S
O382 Tb360 2.399 . S
O382 C369 1.263 . S
C383 O372 1.261 . S
C383 O373 1.257 . S
C384 C387 1.358 . S
C384 C388 1.332 . S
C384 C390 1.504 . S
C385 C386 1.373 . S
C385 C389 1.308 . S
C386 C385 1.373 . S
C386 C387 1.429 . S
C386 H396 0.932 . S
C387 C384 1.358 . S
C387 C386 1.429 . S
C387 H397 0.930 . S
C388 C384 1.332 . S
C388 C389 1.394 . S
C388 H398 0.932 1_545 S
C389 C385 1.308 . S
C389 C388 1.394 . S
C389 H399 0.929 1_545 S
C390 Tb361 2.764 . S
C390 O374 1.239 1_545 S
C390 O375 1.263 . S
C390 C384 1.504 . S
C391 O376 1.236 1_565 S
C391 O377 1.257 . S
H392 C365 0.932 . S
H393 C366 0.930 . S
H394 C367 0.932 1_545 S
H395 C368 0.929 1_545 S
H396 C386 0.932 . S
H397 C387 0.930 . S
H398 C388 0.932 1_565 S
H399 C389 0.929 1_565 S
Tb400 C409 2.764 . S
Tb400 O410 2.325 . S
Tb400 O413 2.303 . S
Tb400 O417 2.322 . S
Tb400 O418 2.349 . S
Tb400 O421 2.415 . S
Tb400 O422 2.399 . S
Tb401 O411 2.322 . S
Tb401 O412 2.349 . S
Tb401 O414 2.415 . S
Tb401 O415 2.399 . S
Tb401 O416 2.325 . S
Tb401 O419 2.303 . S
Tb401 C430 2.764 . S
C402 O418 1.261 . S
C402 O419 1.257 . S
C403 C406 1.358 . S
C403 C407 1.332 . S
C403 C409 1.504 . S
C404 C405 1.373 . S
C404 C408 1.308 . S
C405 C404 1.373 . S
C405 C406 1.429 . S
C405 H432 0.932 . S
C406 C403 1.358 . S
C406 C405 1.429 . S
C406 H433 0.930 . S
C407 C403 1.332 . S
C407 C408 1.394 . S
C407 H434 0.932 . S
C408 C404 1.308 . S
C408 C407 1.394 . S
C408 H435 0.929 . S
C409 Tb400 2.764 . S
C409 C403 1.504 . S
C409 O421 1.239 . S
C409 O422 1.263 . S
O410 Tb400 2.325 . S
O410 C420 1.236 . S
O411 Tb401 2.322 . S
O411 C420 1.257 . S
O412 Tb401 2.349 . S
O412 C423 1.261 . S
O413 Tb400 2.303 . S
O413 C423 1.257 . S
O414 Tb401 2.415 . S
O414 C430 1.239 . S
O415 Tb401 2.399 . S
O415 C430 1.263 . S
O416 Tb401 2.325 . S
O416 C431 1.236 . S
O417 Tb400 2.322 . S
O417 C431 1.257 . S
O418 Tb400 2.349 . S
O418 C402 1.261 . S
O419 Tb401 2.303 . S
O419 C402 1.257 . S
C420 O410 1.236 . S
C420 O411 1.257 . S
O421 Tb400 2.415 . S
O421 C409 1.239 . S
O422 Tb400 2.399 . S
O422 C409 1.263 . S
C423 O412 1.261 . S
C423 O413 1.257 . S
C424 C427 1.358 . S
C424 C428 1.332 . S
C424 C430 1.504 . S
C425 C426 1.373 . S
C425 C429 1.308 . S
C426 C425 1.373 . S
C426 C427 1.429 . S
C426 H436 0.932 . S
C427 C424 1.358 . S
C427 C426 1.429 . S
C427 H437 0.930 . S
C428 C424 1.332 . S
C428 C429 1.394 . S
C428 H438 0.932 . S
C429 C425 1.308 . S
C429 C428 1.394 . S
C429 H439 0.929 . S
C430 Tb401 2.764 . S
C430 O414 1.239 . S
C430 O415 1.263 . S
C430 C424 1.504 . S
C431 O416 1.236 . S
C431 O417 1.257 . S
H432 C405 0.932 . S
H433 C406 0.930 . S
H434 C407 0.932 . S
H435 C408 0.929 . S
H436 C426 0.932 . S
H437 C427 0.930 . S
H438 C428 0.932 . S
H439 C429 0.929 . S
Tb440 C449 2.764 . S
Tb440 O450 2.325 . S
Tb440 O453 2.303 . S
Tb440 O457 2.322 1_455 S
Tb440 O458 2.349 . S
Tb440 O461 2.415 . S
Tb440 O462 2.399 . S
Tb441 O451 2.325 . S
Tb441 O452 2.350 . S
Tb441 O454 2.413 1_455 S
Tb441 O455 2.397 1_455 S
Tb441 O456 2.324 1_455 S
Tb441 O459 2.303 . S
Tb441 C470 2.762 1_455 S
C442 O458 1.261 . S
C442 O459 1.257 . S
C443 C446 1.358 . S
C443 C447 1.332 . S
C443 C449 1.504 . S
C444 C445 1.373 . S
C444 C448 1.308 . S
C445 C444 1.373 . S
C445 C446 1.429 . S
C445 H472 0.932 . S
C446 C443 1.358 . S
C446 C445 1.429 . S
C446 H473 0.930 . S
C447 C443 1.332 . S
C447 C448 1.394 . S
C447 H474 0.932 . S
C448 C444 1.308 . S
C448 C447 1.394 . S
C448 H475 0.929 . S
C449 Tb440 2.764 . S
C449 C443 1.504 . S
C449 O461 1.239 . S
C449 O462 1.263 . S
O450 Tb440 2.325 . S
O450 C460 1.236 . S
O451 Tb441 2.325 . S
O451 C460 1.257 . S
O452 Tb441 2.350 . S
O452 C463 1.261 . S
O453 Tb440 2.303 . S
O453 C463 1.257 . S
O454 Tb441 2.413 1_655 S
O454 C470 1.239 . S
O455 Tb441 2.397 1_655 S
O455 C470 1.263 . S
O456 Tb441 2.324 1_655 S
O456 C471 1.236 . S
O457 Tb440 2.322 1_655 S
O457 C471 1.257 . S
O458 Tb440 2.349 . S
O458 C442 1.261 . S
O459 Tb441 2.303 . S
O459 C442 1.257 . S
C460 O450 1.236 . S
C460 O451 1.257 . S
O461 Tb440 2.415 . S
O461 C449 1.239 . S
O462 Tb440 2.399 . S
O462 C449 1.263 . S
C463 O452 1.261 . S
C463 O453 1.257 . S
C464 C467 1.358 . S
C464 C468 1.332 . S
C464 C470 1.504 . S
C465 C466 1.373 . S
C465 C469 1.308 . S
C466 C465 1.373 . S
C466 C467 1.429 . S
C466 H476 0.932 . S
C467 C464 1.358 . S
C467 C466 1.429 . S
C467 H477 0.930 . S
C468 C464 1.332 . S
C468 C469 1.394 . S
C468 H478 0.932 . S
C469 C465 1.308 . S
C469 C468 1.394 . S
C469 H479 0.929 . S
C470 Tb441 2.762 1_655 S
C470 O454 1.239 . S
C470 O455 1.263 . S
C470 C464 1.504 . S
C471 O456 1.236 . S
C471 O457 1.257 . S
H472 C445 0.932 . S
H473 C446 0.930 . S
H474 C447 0.932 . S
H475 C448 0.929 . S
H476 C466 0.932 . S
H477 C467 0.930 . S
H478 C468 0.932 . S
H479 C469 0.929 . S
C480 C481 1.349 1_545 S
C480 C482 1.327 . S
C480 H505 0.950 . S
C481 C480 1.349 1_565 S
C481 C497 1.349 . S
C482 C480 1.327 . S
C482 C501 1.400 1_545 S
C482 H506 0.950 . S
C483 C500 1.574 . S
C483 C502 1.415 . S
C483 H507 0.949 . S
H484 C488 0.949 . S
C485 C486 1.349 . S
C485 C487 1.327 . S
C485 H508 0.950 . S
C486 C485 1.349 . S
C486 C498 1.349 1_565 S
C487 C485 1.327 . S
C487 C503 1.429 . S
C487 H509 0.950 . S
C488 H484 0.949 . S
C488 C496 1.574 . S
C488 C504 1.368 1_545 S
H489 C497 0.950 . S
H490 C495 0.950 . S
H491 C496 0.949 . S
H492 C498 0.950 . S
H493 C499 0.950 . S
H494 C500 0.949 . S
C495 H490 0.950 . S
C495 C497 1.327 . S
C495 C501 1.453 . S
C496 C488 1.574 . S
C496 H491 0.949 . S
C496 C502 1.326 1_545 S
C497 C481 1.349 . S
C497 H489 0.950 . S
C497 C495 1.327 . S
C498 C486 1.349 1_545 S
C498 H492 0.950 . S
C498 C499 1.327 . S
C499 H493 0.950 . S
C499 C498 1.327 . S
C499 C503 1.429 1_545 S
C500 C483 1.574 . S
C500 H494 0.949 . S
C500 C504 1.368 . S
C501 C482 1.400 1_565 S
C501 C495 1.453 . S
C501 C502 1.521 . S
C502 C483 1.415 . S
C502 C496 1.326 1_565 S
C502 C501 1.521 . S
C503 C487 1.429 . S
C503 C499 1.429 1_565 S
C503 C504 1.523 . S
C504 C488 1.368 1_565 S
C504 C500 1.368 . S
C504 C503 1.523 . S
H505 C480 0.950 . S
H506 C482 0.950 . S
H507 C483 0.949 . S
H508 C485 0.950 . S
H509 C487 0.950 . S
C510 C511 1.349 . S
C510 C512 1.327 . S
C510 H535 0.950 . S
C511 C510 1.349 . S
C511 C527 1.349 . S
C512 C510 1.327 . S
C512 C531 1.429 . S
C512 H536 0.950 . S
C513 C530 1.574 . S
C513 C532 1.368 . S
C513 H537 0.949 . S
H514 C518 0.949 . S
C515 C516 1.349 . S
C515 C517 1.327 . S
C515 H538 0.950 . S
C516 C515 1.349 . S
C516 C528 1.349 . S
C517 C515 1.327 . S
C517 C533 1.429 . S
C517 H539 0.950 . S
C518 H514 0.949 . S
C518 C526 1.574 . S
C518 C534 1.368 . S
H519 C527 0.950 . S
H520 C525 0.950 . S
H521 C526 0.949 . S
H522 C528 0.950 . S
H523 C529 0.950 . S
H524 C530 0.949 . S
C525 H520 0.950 . S
C525 C527 1.327 . S
C525 C531 1.429 . S
C526 C518 1.574 . S
C526 H521 0.949 . S
C526 C532 1.368 . S
C527 C511 1.349 . S
C527 H519 0.950 . S
C527 C525 1.327 . S
C528 C516 1.349 . S
C528 H522 0.950 . S
C528 C529 1.327 . S
C529 H523 0.950 . S
C529 C528 1.327 . S
C529 C533 1.429 . S
C530 C513 1.574 . S
C530 H524 0.949 . S
C530 C534 1.368 . S
C531 C512 1.429 . S
C531 C525 1.429 . S
C531 C532 1.523 . S
C532 C513 1.368 . S
C532 C526 1.368 . S
C532 C531 1.523 . S
C533 C517 1.429 . S
C533 C529 1.429 . S
C533 C534 1.523 . S
C534 C518 1.368 . S
C534 C530 1.368 . S
C534 C533 1.523 . S
H535 C510 0.950 . S
H536 C512 0.950 . S
H537 C513 0.949 . S
H538 C515 0.950 . S
H539 C517 0.950 . S
C540 C541 1.349 . S
C540 C542 1.327 . S
C540 H565 0.950 . S
C541 C540 1.349 . S
C541 C557 1.349 . S
C542 C540 1.327 . S
C542 C561 1.429 . S
C542 H566 0.950 . S
C543 C560 1.574 . S
C543 C562 1.368 . S
C543 H567 0.949 . S
H544 C548 0.949 . S
C545 C546 1.349 . S
C545 C547 1.327 . S
C545 H568 0.950 . S
C546 C545 1.349 . S
C546 C558 1.349 . S
C547 C545 1.327 . S
C547 C563 1.429 . S
C547 H569 0.950 . S
C548 H544 0.949 . S
C548 C556 1.574 . S
C548 C564 1.368 . S
H549 C557 0.950 . S
H550 C555 0.950 . S
H551 C556 0.949 . S
H552 C558 0.950 . S
H553 C559 0.950 . S
H554 C560 0.949 . S
C555 H550 0.950 . S
C555 C557 1.327 . S
C555 C561 1.429 . S
C556 C548 1.574 . S
C556 H551 0.949 . S
C556 C562 1.368 . S
C557 C541 1.349 . S
C557 H549 0.950 . S
C557 C555 1.327 . S
C558 C546 1.349 . S
C558 H552 0.950 . S
C558 C559 1.327 . S
C559 H553 0.950 . S
C559 C558 1.327 . S
C559 C563 1.429 . S
C560 C543 1.574 . S
C560 H554 0.949 . S
C560 C564 1.368 . S
C561 C542 1.429 . S
C561 C555 1.429 . S
C561 C562 1.523 . S
C562 C543 1.368 . S
C562 C556 1.368 . S
C562 C561 1.523 . S
C563 C547 1.429 . S
C563 C559 1.429 . S
C563 C564 1.523 . S
C564 C548 1.368 . S
C564 C560 1.368 . S
C564 C563 1.523 . S
H565 C540 0.950 . S
H566 C542 0.950 . S
H567 C543 0.949 . S
H568 C545 0.950 . S
H569 C547 0.950 . S
C570 C571 1.349 . S
C570 C572 1.327 . S
C570 H595 0.950 . S
C571 C570 1.349 . S
C571 C587 1.349 . S
C572 C570 1.327 . S
C572 C591 1.429 . S
C572 H596 0.950 . S
C573 C590 1.574 . S
C573 C592 1.368 . S
C573 H597 0.949 . S
H574 C578 0.949 . S
C575 C576 1.349 . S
C575 C577 1.327 . S
C575 H598 0.950 . S
C576 C575 1.349 . S
C576 C588 1.349 . S
C577 C575 1.327 . S
C577 C593 1.429 . S
C577 H599 0.950 . S
C578 H574 0.949 . S
C578 C586 1.574 . S
C578 C594 1.368 . S
H579 C587 0.950 . S
H580 C585 0.950 . S
H581 C586 0.949 . S
H582 C588 0.950 . S
H583 C589 0.950 . S
H584 C590 0.949 . S
C585 H580 0.950 . S
C585 C587 1.327 . S
C585 C591 1.429 . S
C586 C578 1.574 . S
C586 H581 0.949 . S
C586 C592 1.368 . S
C587 C571 1.349 . S
C587 H579 0.950 . S
C587 C585 1.327 . S
C588 C576 1.349 . S
C588 H582 0.950 . S
C588 C589 1.327 . S
C589 H583 0.950 . S
C589 C588 1.327 . S
C589 C593 1.429 . S
C590 C573 1.574 . S
C590 H584 0.949 . S
C590 C594 1.368 . S
C591 C572 1.429 . S
C591 C585 1.429 . S
C591 C592 1.523 . S
C592 C573 1.368 . S
C592 C586 1.368 . S
C592 C591 1.523 . S
C593 C577 1.429 . S
C593 C589 1.429 . S
C593 C594 1.523 . S
C594 C578 1.368 . S
C594 C590 1.368 . S
C594 C593 1.523 . S
H595 C570 0.950 . S
H596 C572 0.950 . S
H597 C573 0.949 . S
H598 C575 0.950 . S
H599 C577 0.950 . S
C600 C601 1.361 . S
C600 C602 1.327 . S
C600 H625 0.950 . S
C601 C600 1.361 . S
C601 C617 1.339 1_545 S
C602 C600 1.327 . S
C602 C621 1.459 . S
C602 H626 0.950 . S
C603 C620 1.574 1_554 S
C603 C622 1.323 1_565 S
C603 H627 0.949 . S
H604 C608 0.949 1_556 S
C605 C606 1.349 1_565 S
C605 C607 1.327 . S
C605 H628 0.950 . S
C606 C605 1.349 1_545 S
C606 C618 1.349 . S
C607 C605 1.327 . S
C607 C623 1.429 1_565 S
C607 H629 0.950 . S
C608 H604 0.949 1_554 S
C608 C616 1.574 . S
C608 C624 1.368 1_554 S
H609 C617 0.950 . S
H610 C615 0.950 . S
H611 C616 0.949 . S
H612 C618 0.950 . S
H613 C619 0.950 . S
H614 C620 0.949 . S
C615 H610 0.950 . S
C615 C617 1.327 . S
C615 C621 1.394 1_565 S
C616 C608 1.574 . S
C616 H611 0.949 . S
C616 C622 1.421 . S
C617 C601 1.339 1_565 S
C617 H609 0.950 . S
C617 C615 1.327 . S
C618 C606 1.349 . S
C618 H612 0.950 . S
C618 C619 1.327 . S
C619 H613 0.950 . S
C619 C618 1.327 . S
C619 C623 1.429 . S
C620 C603 1.574 1_556 S
C620 H614 0.949 . S
C620 C624 1.368 1_565 S
C621 C602 1.459 . S
C621 C615 1.394 1_545 S
C621 C622 1.521 . S
C622 C603 1.323 1_545 S
C622 C616 1.421 . S
C622 C621 1.521 . S
C623 C607 1.429 1_545 S
C623 C619 1.429 . S
C623 C624 1.523 . S
C624 C608 1.368 1_556 S
C624 C620 1.368 1_545 S
C624 C623 1.523 . S
H625 C600 0.950 . S
H626 C602 0.950 . S
H627 C603 0.949 . S
H628 C605 0.950 . S
H629 C607 0.950 . S
C630 C631 1.349 . S
C630 C632 1.327 . S
C630 H655 0.950 . S
C631 C630 1.349 . S
C631 C647 1.349 . S
C632 C630 1.327 . S
C632 C651 1.429 . S
C632 H656 0.950 . S
C633 C650 1.574 . S
C633 C652 1.368 . S
C633 H657 0.949 . S
H634 C638 0.949 . S
C635 C636 1.349 . S
C635 C637 1.327 . S
C635 H658 0.950 . S
C636 C635 1.349 . S
C636 C648 1.349 . S
C637 C635 1.327 . S
C637 C653 1.429 . S
C637 H659 0.950 . S
C638 H634 0.949 . S
C638 C646 1.574 . S
C638 C654 1.368 . S
H639 C647 0.950 . S
H640 C645 0.950 . S
H641 C646 0.949 . S
H642 C648 0.950 . S
H643 C649 0.950 . S
H644 C650 0.949 . S
C645 H640 0.950 . S
C645 C647 1.327 . S
C645 C651 1.429 . S
C646 C638 1.574 . S
C646 H641 0.949 . S
C646 C652 1.368 . S
C647 C631 1.349 . S
C647 H639 0.950 . S
C647 C645 1.327 . S
C648 C636 1.349 . S
C648 H642 0.950 . S
C648 C649 1.327 . S
C649 H643 0.950 . S
C649 C648 1.327 . S
C649 C653 1.429 . S
C650 C633 1.574 . S
C650 H644 0.949 . S
C650 C654 1.368 . S
C651 C632 1.429 . S
C651 C645 1.429 . S
C651 C652 1.523 . S
C652 C633 1.368 . S
C652 C646 1.368 . S
C652 C651 1.523 . S
C653 C637 1.429 . S
C653 C649 1.429 . S
C653 C654 1.523 . S
C654 C638 1.368 . S
C654 C650 1.368 . S
C654 C653 1.523 . S
H655 C630 0.950 . S
H656 C632 0.950 . S
H657 C633 0.949 . S
H658 C635 0.950 . S
H659 C637 0.950 . S
C660 C661 1.349 . S
C660 C662 1.327 . S
C660 H685 0.950 . S
C661 C660 1.349 . S
C661 C677 1.349 . S
C662 C660 1.327 . S
C662 C681 1.429 . S
C662 H686 0.950 . S
C663 C680 1.574 1_554 S
C663 C682 1.368 . S
C663 H687 0.949 . S
H664 C668 0.949 . S
C665 C666 1.349 . S
C665 C667 1.327 . S
C665 H688 0.950 . S
C666 C665 1.349 . S
C666 C678 1.349 . S
C667 C665 1.327 . S
C667 C683 1.429 . S
C667 H689 0.950 . S
C668 H664 0.949 . S
C668 C676 1.574 1_556 S
C668 C684 1.368 . S
H669 C677 0.950 . S
H670 C675 0.950 . S
H671 C676 0.949 . S
H672 C678 0.950 . S
H673 C679 0.950 . S
H674 C680 0.949 . S
C675 H670 0.950 . S
C675 C677 1.327 . S
C675 C681 1.429 . S
C676 C668 1.574 1_554 S
C676 H671 0.949 . S
C676 C682 1.368 . S
C677 C661 1.349 . S
C677 H669 0.950 . S
C677 C675 1.327 . S
C678 C666 1.349 . S
C678 H672 0.950 . S
C678 C679 1.327 . S
C679 H673 0.950 . S
C679 C678 1.327 . S
C679 C683 1.429 . S
C680 C663 1.574 1_556 S
C680 H674 0.949 . S
C680 C684 1.368 . S
C681 C662 1.429 . S
C681 C675 1.429 . S
C681 C682 1.523 . S
C682 C663 1.368 . S
C682 C676 1.368 . S
C682 C681 1.523 . S
C683 C667 1.429 . S
C683 C679 1.429 . S
C683 C684 1.523 . S
C684 C668 1.368 . S
C684 C680 1.368 . S
C684 C683 1.523 . S
H685 C660 0.950 . S
H686 C662 0.950 . S
H687 C663 0.949 . S
H688 C665 0.950 . S
H689 C667 0.950 . S
C690 C691 1.349 . S
C690 C692 1.327 . S
C690 H715 0.950 . S
C691 C690 1.349 . S
C691 C707 1.349 . S
C692 C690 1.327 . S
C692 C711 1.429 . S
C692 H716 0.950 . S
C693 C710 1.574 1_554 S
C693 C712 1.368 . S
C693 H717 0.949 . S
H694 C698 0.949 . S
C695 C696 1.349 . S
C695 C697 1.327 . S
C695 H718 0.950 . S
C696 C695 1.349 . S
C696 C708 1.349 . S
C697 C695 1.327 . S
C697 C713 1.429 . S
C697 H719 0.950 . S
C698 H694 0.949 . S
C698 C706 1.574 . S
C698 C714 1.368 . S
H699 C707 0.950 . S
H700 C705 0.950 . S
H701 C706 0.949 . S
H702 C708 0.950 . S
H703 C709 0.950 . S
H704 C710 0.949 . S
C705 H700 0.950 . S
C705 C707 1.327 . S
C705 C711 1.429 . S
C706 C698 1.574 . S
C706 H701 0.949 . S
C706 C712 1.368 1_556 S
C707 C691 1.349 . S
C707 H699 0.950 . S
C707 C705 1.327 . S
C708 C696 1.349 . S
C708 H702 0.950 . S
C708 C709 1.327 . S
C709 H703 0.950 . S
C709 C708 1.327 . S
C709 C713 1.429 . S
C710 C693 1.574 1_556 S
C710 H704 0.949 . S
C710 C714 1.368 . S
C711 C692 1.429 . S
C711 C705 1.429 . S
C711 C712 1.523 . S
C712 C693 1.368 . S
C712 C706 1.368 1_554 S
C712 C711 1.523 . S
C713 C697 1.429 . S
C713 C709 1.429 . S
C713 C714 1.523 . S
C714 C698 1.368 . S
C714 C710 1.368 . S
C714 C713 1.523 . S
H715 C690 0.950 . S
H716 C692 0.950 . S
H717 C693 0.949 . S
H718 C695 0.950 . S
H719 C697 0.950 . S
C720 C721 1.349 . S
C720 C722 1.327 . S
C720 H745 0.950 . S
C721 C720 1.349 . S
C721 C737 1.349 . S
C722 C720 1.327 . S
C722 C741 1.429 . S
C722 H746 0.950 . S
C723 C740 1.574 . S
C723 C742 1.368 . S
C723 H747 0.949 . S
H724 C728 0.949 . S
C725 C726 1.349 . S
C725 C727 1.327 . S
C725 H748 0.950 . S
C726 C725 1.349 . S
C726 C738 1.363 . S
C727 C725 1.327 . S
C727 C743 1.429 . S
C727 H749 0.950 . S
C728 H724 0.949 . S
C728 C736 1.574 . S
C728 C744 1.368 . S
H729 C737 0.950 . S
H730 C735 0.950 . S
H731 C736 0.949 . S
H732 C738 0.905 1_655 S
H733 C739 0.950 . S
H734 C740 0.949 . S
C735 H730 0.950 . S
C735 C737 1.327 . S
C735 C741 1.429 . S
C736 C728 1.574 . S
C736 H731 0.949 . S
C736 C742 1.368 . S
C737 C721 1.349 . S
C737 H729 0.950 . S
C737 C735 1.327 . S
C738 C726 1.363 . S
C738 H732 0.905 1_455 S
C738 C739 1.360 . S
C739 H733 0.950 . S
C739 C738 1.360 . S
C739 C743 1.429 . S
C740 C723 1.574 . S
C740 H734 0.949 . S
C740 C744 1.368 . S
C741 C722 1.429 . S
C741 C735 1.429 . S
C741 C742 1.523 . S
C742 C723 1.368 . S
C742 C736 1.368 . S
C742 C741 1.523 . S
C743 C727 1.429 . S
C743 C739 1.429 . S
C743 C744 1.523 . S
C744 C728 1.368 . S
C744 C740 1.368 . S
C744 C743 1.523 . S
H745 C720 0.950 . S
H746 C722 0.950 . S
H747 C723 0.949 . S
H748 C725 0.950 . S
H749 C727 0.950 . S
C750 C751 1.349 . S
C750 C752 1.327 . S
C750 H775 0.950 . S
C751 C750 1.349 . S
C751 C767 1.349 1_545 S
C752 C750 1.327 . S
C752 C771 1.429 1_545 S
C752 H776 0.950 . S
C753 C770 1.574 . S
C753 C772 1.368 . S
C753 H777 0.949 . S
H754 C758 0.949 . S
C755 C756 1.349 . S
C755 C757 1.327 . S
C755 H778 0.950 . S
C756 C755 1.349 . S
C756 C768 1.349 . S
C757 C755 1.327 . S
C757 C773 1.429 . S
C757 H779 0.950 . S
C758 H754 0.949 . S
C758 C766 1.574 . S
C758 C774 1.368 1_545 S
H759 C767 0.950 . S
H760 C765 0.950 . S
H761 C766 0.949 . S
H762 C768 0.920 1_545 S
H763 C769 0.950 1_545 S
H764 C770 0.949 . S
C765 H760 0.950 . S
C765 C767 1.327 . S
C765 C771 1.429 . S
C766 C758 1.574 . S
C766 H761 0.949 . S
C766 C772 1.368 1_545 S
C767 C751 1.349 1_565 S
C767 H759 0.950 . S
C767 C765 1.327 . S
C768 C756 1.349 . S
C768 H762 0.920 1_565 S
C768 C769 1.327 . S
C769 H763 0.950 1_565 S
C769 C768 1.327 . S
C769 C773 1.429 . S
C770 C753 1.574 . S
C770 H764 0.949 . S
C770 C774 1.368 . S
C771 C752 1.429 1_565 S
C771 C765 1.429 . S
C771 C772 1.523 . S
C772 C753 1.368 . S
C772 C766 1.368 1_565 S
C772 C771 1.523 . S
C773 C757 1.429 . S
C773 C769 1.429 . S
C773 C774 1.523 . S
C774 C758 1.368 1_565 S
C774 C770 1.368 . S
C774 C773 1.523 . S
H775 C750 0.950 . S
H776 C752 0.950 . S
H777 C753 0.949 . S
H778 C755 0.950 . S
H779 C757 0.950 . S
C780 C781 1.349 . S
C780 C782 1.327 . S
C780 H805 0.950 . S
C781 C780 1.349 . S
C781 C797 1.349 . S
C782 C780 1.327 . S
C782 C801 1.429 . S
C782 H806 0.950 . S
C783 C800 1.574 . S
C783 C802 1.368 . S
C783 H807 0.949 . S
H784 C788 0.949 . S
C785 C786 1.349 . S
C785 C787 1.327 . S
C785 H808 0.950 . S
C786 C785 1.349 . S
C786 C798 1.349 . S
C787 C785 1.327 . S
C787 C803 1.429 . S
C787 H809 0.950 . S
C788 H784 0.949 . S
C788 C796 1.574 . S
C788 C804 1.368 . S
H789 C797 0.950 . S
H790 C795 0.950 . S
H791 C796 0.949 . S
H792 C798 0.950 . S
H793 C799 0.950 . S
H794 C800 0.949 . S
C795 H790 0.950 . S
C795 C797 1.327 . S
C795 C801 1.429 . S
C796 C788 1.574 . S
C796 H791 0.949 . S
C796 C802 1.368 . S
C797 C781 1.349 . S
C797 H789 0.950 . S
C797 C795 1.327 . S
C798 C786 1.349 . S
C798 H792 0.950 . S
C798 C799 1.327 . S
C799 H793 0.950 . S
C799 C798 1.327 . S
C799 C803 1.429 . S
C800 C783 1.574 . S
C800 H794 0.949 . S
C800 C804 1.368 . S
C801 C782 1.429 . S
C801 C795 1.429 . S
C801 C802 1.523 . S
C802 C783 1.368 . S
C802 C796 1.368 . S
C802 C801 1.523 . S
C803 C787 1.429 . S
C803 C799 1.429 . S
C803 C804 1.523 . S
C804 C788 1.368 . S
C804 C800 1.368 . S
C804 C803 1.523 . S
H805 C780 0.950 . S
H806 C782 0.950 . S
H807 C783 0.949 . S
H808 C785 0.950 . S
H809 C787 0.950 . S
C810 C811 1.349 . S
C810 C812 1.327 . S
C810 H835 0.950 . S
C811 C810 1.349 . S
C811 C827 1.349 . S
C812 C810 1.327 . S
C812 C831 1.429 . S
C812 H836 0.950 . S
C813 C830 1.574 . S
C813 C832 1.368 . S
C813 H837 0.949 . S
H814 C818 0.949 . S
C815 C816 1.349 . S
C815 C817 1.327 . S
C815 H838 0.950 . S
C816 C815 1.349 . S
C816 C828 1.349 . S
C817 C815 1.327 . S
C817 C833 1.429 . S
C817 H839 0.950 . S
C818 H814 0.949 . S
C818 C826 1.574 . S
C818 C834 1.368 . S
H819 C827 0.950 . S
H820 C825 0.950 . S
H821 C826 0.949 . S
H822 C828 0.950 . S
H823 C829 0.950 . S
H824 C830 0.949 . S
C825 H820 0.950 . S
C825 C827 1.327 . S
C825 C831 1.429 . S
C826 C818 1.574 . S
C826 H821 0.949 . S
C826 C832 1.368 . S
C827 C811 1.349 . S
C827 H819 0.950 . S
C827 C825 1.327 . S
C828 C816 1.349 . S
C828 H822 0.950 . S
C828 C829 1.327 . S
C829 H823 0.950 . S
C829 C828 1.327 . S
C829 C833 1.429 . S
C830 C813 1.574 . S
C830 H824 0.949 . S
C830 C834 1.368 . S
C831 C812 1.429 . S
C831 C825 1.429 . S
C831 C832 1.523 . S
C832 C813 1.368 . S
C832 C826 1.368 . S
C832 C831 1.523 . S
C833 C817 1.429 . S
C833 C829 1.429 . S
C833 C834 1.523 . S
C834 C818 1.368 . S
C834 C830 1.368 . S
C834 C833 1.523 . S
H835 C810 0.950 . S
H836 C812 0.950 . S
H837 C813 0.949 . S
H838 C815 0.950 . S
H839 C817 0.950 . S
C840 C841 1.349 . S
C840 C842 1.327 . S
C840 H865 0.950 . S
C841 C840 1.349 . S
C841 C857 1.349 . S
C842 C840 1.327 . S
C842 C861 1.429 . S
C842 H866 0.950 . S
C843 C860 1.574 . S
C843 C862 1.368 . S
C843 H867 0.949 . S
H844 C848 0.949 1_454 S
C845 C846 1.349 . S
C845 C847 1.327 1_455 S
C845 H868 0.950 1_455 S
C846 C845 1.349 . S
C846 C858 1.349 . S
C847 C845 1.327 1_655 S
C847 C863 1.429 . S
C847 H869 0.950 . S
C848 H844 0.949 1_656 S
C848 C856 1.574 1_556 S
C848 C864 1.368 . S
H849 C857 0.950 1_556 S
H850 C855 0.950 . S
H851 C856 0.949 . S
H852 C858 0.950 . S
H853 C859 0.950 . S
H854 C860 0.949 . S
C855 H850 0.950 . S
C855 C857 1.327 1_556 S
C855 C861 1.429 1_556 S
C856 C848 1.574 1_554 S
C856 H851 0.949 . S
C856 C862 1.368 1_554 S
C857 C841 1.349 . S
C857 H849 0.950 1_554 S
C857 C855 1.327 1_554 S
C858 C846 1.349 . S
C858 H852 0.950 . S
C858 C859 1.327 . S
C859 H853 0.950 . S
C859 C858 1.327 . S
C859 C863 1.429 1_455 S
C860 C843 1.574 . S
C860 H854 0.949 . S
C860 C864 1.368 . S
C861 C842 1.429 . S
C861 C855 1.429 1_554 S
C861 C862 1.523 1_554 S
C862 C843 1.368 . S
C862 C856 1.368 1_556 S
C862 C861 1.523 1_556 S
C863 C847 1.429 . S
C863 C859 1.429 1_655 S
C863 C864 1.523 . S
C864 C848 1.368 . S
C864 C860 1.368 . S
C864 C863 1.523 . S
H865 C840 0.950 . S
H866 C842 0.950 . S
H867 C843 0.949 . S
H868 C845 0.950 1_655 S
H869 C847 0.950 . S
C870 C871 1.349 . S
C870 C872 1.327 . S
C870 H895 0.950 . S
C871 C870 1.349 . S
C871 C887 1.349 1_565 S
C872 C870 1.327 . S
C872 C891 1.429 1_565 S
C872 H896 0.950 . S
C873 C890 1.574 . S
C873 C892 1.368 . S
C873 H897 0.949 . S
H874 C878 0.949 . S
C875 C876 1.349 . S
C875 C877 1.327 . S
C875 H898 0.950 . S
C876 C875 1.349 . S
C876 C888 1.349 . S
C877 C875 1.327 . S
C877 C893 1.429 . S
C877 H899 0.950 . S
C878 H874 0.949 . S
C878 C886 1.574 1_556 S
C878 C894 1.368 1_565 S
H879 C887 0.950 . S
H880 C885 0.950 . S
H881 C886 0.949 . S
H882 C888 0.950 1_565 S
H883 C889 0.950 1_565 S
H884 C890 0.953 . S
C885 H880 0.950 . S
C885 C887 1.327 . S
C885 C891 1.429 . S
C886 C878 1.574 1_554 S
C886 H881 0.949 . S
C886 C892 1.368 1_565 S
C887 C871 1.349 1_545 S
C887 H879 0.950 . S
C887 C885 1.327 . S
C888 C876 1.349 . S
C888 H882 0.950 1_545 S
C888 C889 1.327 . S
C889 H883 0.950 1_545 S
C889 C888 1.327 . S
C889 C893 1.429 . S
C890 C873 1.574 . S
C890 H884 0.953 . S
C890 C894 1.368 1_554 S
C891 C872 1.429 1_545 S
C891 C885 1.429 . S
C891 C892 1.523 . S
C892 C873 1.368 . S
C892 C886 1.368 1_545 S
C892 C891 1.523 . S
C893 C877 1.429 . S
C893 C889 1.429 . S
C893 C894 1.523 . S
C894 C878 1.368 1_545 S
C894 C890 1.368 1_556 S
C894 C893 1.523 . S
H895 C870 0.950 . S
H896 C872 0.950 . S
H897 C873 0.949 . S
H898 C875 0.950 . S
H899 C877 0.950 . S
C900 C901 1.349 . S
C900 C902 1.327 . S
C900 H925 0.950 . S
C901 C900 1.349 . S
C901 C917 1.349 . S
C902 C900 1.327 . S
C902 C921 1.429 . S
C902 H926 0.950 . S
C903 C920 1.574 . S
C903 C922 1.368 . S
C903 H927 0.949 . S
H904 C908 0.949 . S
C905 C906 1.349 . S
C905 C907 1.327 . S
C905 H928 0.950 . S
C906 C905 1.349 . S
C906 C918 1.349 . S
C907 C905 1.327 . S
C907 C923 1.429 . S
C907 H929 0.950 . S
C908 H904 0.949 . S
C908 C916 1.574 . S
C908 C924 1.368 . S
H909 C917 0.950 . S
H910 C915 0.950 . S
H911 C916 0.949 . S
H912 C918 0.950 . S
H913 C919 0.950 . S
H914 C920 0.949 . S
C915 H910 0.950 . S
C915 C917 1.327 . S
C915 C921 1.429 . S
C916 C908 1.574 . S
C916 H911 0.949 . S
C916 C922 1.368 . S
C917 C901 1.349 . S
C917 H909 0.950 . S
C917 C915 1.327 . S
C918 C906 1.349 . S
C918 H912 0.950 . S
C918 C919 1.327 . S
C919 H913 0.950 . S
C919 C918 1.327 . S
C919 C923 1.429 . S
C920 C903 1.574 . S
C920 H914 0.949 . S
C920 C924 1.368 . S
C921 C902 1.429 . S
C921 C915 1.429 . S
C921 C922 1.523 . S
C922 C903 1.368 . S
C922 C916 1.368 . S
C922 C921 1.523 . S
C923 C907 1.429 . S
C923 C919 1.429 . S
C923 C924 1.523 . S
C924 C908 1.368 . S
C924 C920 1.368 . S
C924 C923 1.523 . S
H925 C900 0.950 . S
H926 C902 0.950 . S
H927 C903 0.949 . S
H928 C905 0.950 . S
H929 C907 0.950 . S
C930 C931 1.349 . S
C930 C932 1.327 . S
C930 H955 0.950 . S
C931 C930 1.349 . S
C931 C947 1.349 . S
C932 C930 1.327 . S
C932 C951 1.429 . S
C932 H956 0.950 . S
C933 C950 1.574 . S
C933 C952 1.368 . S
C933 H957 0.949 . S
H934 C938 0.949 . S
C935 C936 1.349 . S
C935 C937 1.327 . S
C935 H958 0.950 . S
C936 C935 1.349 . S
C936 C948 1.349 . S
C937 C935 1.327 . S
C937 C953 1.429 . S
C937 H959 0.950 . S
C938 H934 0.949 . S
C938 C946 1.574 . S
C938 C954 1.368 . S
H939 C947 0.950 . S
H940 C945 0.950 . S
H941 C946 0.949 . S
H942 C948 0.950 . S
H943 C949 0.950 . S
H944 C950 0.949 . S
C945 H940 0.950 . S
C945 C947 1.327 . S
C945 C951 1.429 . S
C946 C938 1.574 . S
C946 H941 0.949 . S
C946 C952 1.368 1_556 S
C947 C931 1.349 . S
C947 H939 0.950 . S
C947 C945 1.327 . S
C948 C936 1.349 . S
C948 H942 0.950 . S
C948 C949 1.327 . S
C949 H943 0.950 . S
C949 C948 1.327 . S
C949 C953 1.429 . S
C950 C933 1.574 . S
C950 H944 0.949 . S
C950 C954 1.368 1_554 S
C951 C932 1.429 . S
C951 C945 1.429 . S
C951 C952 1.523 . S
C952 C933 1.368 . S
C952 C946 1.368 1_554 S
C952 C951 1.523 . S
C953 C937 1.429 . S
C953 C949 1.429 . S
C953 C954 1.523 . S
C954 C938 1.368 . S
C954 C950 1.368 1_556 S
C954 C953 1.523 . S
H955 C930 0.950 . S
H956 C932 0.950 . S
H957 C933 0.949 . S
H958 C935 0.950 . S
H959 C937 0.950 . S
C960 C961 1.349 . S
C960 C962 1.327 . S
C960 H985 0.950 . S
C961 C960 1.349 . S
C961 C977 1.349 . S
C962 C960 1.327 . S
C962 C981 1.429 . S
C962 H986 0.950 . S
C963 C980 1.574 . S
C963 C982 1.368 . S
C963 H987 0.949 . S
H964 C968 0.949 . S
C965 C966 1.349 . S
C965 C967 1.327 . S
C965 H988 0.950 . S
C966 C965 1.349 . S
C966 C978 1.349 . S
C967 C965 1.327 . S
C967 C983 1.429 . S
C967 H989 0.950 . S
C968 H964 0.949 . S
C968 C976 1.574 . S
C968 C984 1.368 . S
H969 C977 0.950 . S
H970 C975 0.950 . S
H971 C976 0.949 . S
H972 C978 0.950 . S
H973 C979 0.950 . S
H974 C980 0.949 . S
C975 H970 0.950 . S
C975 C977 1.327 . S
C975 C981 1.429 . S
C976 C968 1.574 . S
C976 H971 0.949 . S
C976 C982 1.368 . S
C977 C961 1.349 . S
C977 H969 0.950 . S
C977 C975 1.327 . S
C978 C966 1.349 . S
C978 H972 0.950 . S
C978 C979 1.327 . S
C979 H973 0.950 . S
C979 C978 1.327 . S
C979 C983 1.429 . S
C980 C963 1.574 . S
C980 H974 0.949 . S
C980 C984 1.368 . S
C981 C962 1.429 . S
C981 C975 1.429 . S
C981 C982 1.523 . S
C982 C963 1.368 . S
C982 C976 1.368 . S
C982 C981 1.523 . S
C983 C967 1.429 . S
C983 C979 1.429 . S
C983 C984 1.523 . S
C984 C968 1.368 . S
C984 C980 1.368 . S
C984 C983 1.523 . S
H985 C960 0.950 . S
H986 C962 0.950 . S
H987 C963 0.949 . S
H988 C965 0.950 . S
H989 C967 0.950 . S
C990 C991 1.310 1_565 S
C990 C992 1.327 . S
C990 H1015 0.950 . S
C991 C990 1.310 1_545 S
C991 C1007 1.390 . S
C992 C990 1.327 . S
C992 C1011 1.429 1_565 S
C992 H1016 0.950 . S
C993 C1010 1.574 . S
C993 C1012 1.368 . S
C993 H1017 0.949 . S
H994 C998 0.949 . S
C995 C996 1.349 . S
C995 C997 1.327 . S
C995 H1018 0.950 . S
C996 C995 1.349 . S
C996 C1008 1.349 1_545 S
C997 C995 1.327 . S
C997 C1013 1.429 . S
C997 H1019 0.950 . S
C998 H994 0.949 . S
C998 C1006 1.574 . S
C998 C1014 1.368 1_565 S
H999 C1007 0.950 . S
H1000 C1005 0.950 . S
H1001 C1006 0.949 . S
H1002 C1008 0.950 . S
H1003 C1009 0.950 . S
H1004 C1010 0.949 . S
C1005 H1000 0.950 . S
C1005 C1007 1.327 . S
C1005 C1011 1.429 . S
C1006 C998 1.574 . S
C1006 H1001 0.949 . S
C1006 C1012 1.368 1_565 S
C1007 C991 1.390 . S
C1007 H999 0.950 . S
C1007 C1005 1.327 . S
C1008 C996 1.349 1_565 S
C1008 H1002 0.950 . S
C1008 C1009 1.327 . S
C1009 H1003 0.950 . S
C1009 C1008 1.327 . S
C1009 C1013 1.429 1_565 S
C1010 C993 1.574 . S
C1010 H1004 0.949 . S
C1010 C1014 1.368 . S
C1011 C992 1.429 1_545 S
C1011 C1005 1.429 . S
C1011 C1012 1.523 . S
C1012 C993 1.368 . S
C1012 C1006 1.368 1_545 S
C1012 C1011 1.523 . S
C1013 C997 1.429 . S
C1013 C1009 1.429 1_545 S
C1013 C1014 1.523 . S
C1014 C998 1.368 1_545 S
C1014 C1010 1.368 . S
C1014 C1013 1.523 . S
H1015 C990 0.950 . S
H1016 C992 0.950 . S
H1017 C993 0.949 . S
H1018 C995 0.950 . S
H1019 C997 0.950 . S
C1020 C1021 1.349 . S
C1020 C1022 1.327 . S
C1020 H1045 0.950 . S
C1021 C1020 1.349 . S
C1021 C1037 1.349 . S
C1022 C1020 1.327 . S
C1022 C1041 1.429 . S
C1022 H1046 0.950 . S
C1023 C1040 1.574 . S
C1023 C1042 1.368 . S
C1023 H1047 0.949 . S
H1024 C1028 0.949 1_556 S
C1025 C1026 1.349 1_554 S
C1025 C1027 1.327 . S
C1025 H1048 0.950 . S
C1026 C1025 1.349 1_556 S
C1026 C1038 1.349 . S
C1027 C1025 1.327 . S
C1027 C1043 1.429 . S
C1027 H1049 0.950 . S
C1028 H1024 0.949 1_554 S
C1028 C1036 1.574 . S
C1028 C1044 1.368 . S
H1029 C1037 0.950 . S
H1030 C1035 0.950 . S
H1031 C1036 0.949 . S
H1032 C1038 0.950 . S
H1033 C1039 0.950 . S
H1034 C1040 0.949 . S
C1035 H1030 0.950 . S
C1035 C1037 1.327 . S
C1035 C1041 1.429 . S
C1036 C1028 1.574 . S
C1036 H1031 0.949 . S
C1036 C1042 1.368 . S
C1037 C1021 1.349 . S
C1037 H1029 0.950 . S
C1037 C1035 1.327 . S
C1038 C1026 1.349 . S
C1038 H1032 0.950 . S
C1038 C1039 1.327 . S
C1039 H1033 0.950 . S
C1039 C1038 1.327 . S
C1039 C1043 1.429 1_556 S
C1040 C1023 1.574 . S
C1040 H1034 0.949 . S
C1040 C1044 1.368 . S
C1041 C1022 1.429 . S
C1041 C1035 1.429 . S
C1041 C1042 1.523 . S
C1042 C1023 1.368 . S
C1042 C1036 1.368 . S
C1042 C1041 1.523 . S
C1043 C1027 1.429 . S
C1043 C1039 1.429 1_554 S
C1043 C1044 1.523 . S
C1044 C1028 1.368 . S
C1044 C1040 1.368 . S
C1044 C1043 1.523 . S
H1045 C1020 0.950 . S
H1046 C1022 0.950 . S
H1047 C1023 0.949 . S
H1048 C1025 0.950 . S
H1049 C1027 0.950 . S
C1050 C1051 1.349 . S
C1050 C1052 1.327 . S
C1050 H1075 0.950 . S
C1051 C1050 1.349 . S
C1051 C1067 1.349 . S
C1052 C1050 1.327 . S
C1052 C1071 1.429 . S
C1052 H1076 0.950 . S
C1053 C1070 1.574 . S
C1053 C1072 1.368 . S
C1053 H1077 0.949 . S
H1054 C1058 0.949 . S
C1055 C1056 1.349 . S
C1055 C1057 1.327 . S
C1055 H1078 0.950 . S
C1056 C1055 1.349 . S
C1056 C1068 1.349 . S
C1057 C1055 1.327 . S
C1057 C1073 1.429 . S
C1057 H1079 0.950 . S
C1058 H1054 0.949 . S
C1058 C1066 1.574 . S
C1058 C1074 1.368 . S
H1059 C1067 0.950 . S
H1060 C1065 0.950 . S
H1061 C1066 0.949 . S
H1062 C1068 0.950 . S
H1063 C1069 0.950 . S
H1064 C1070 0.949 . S
C1065 H1060 0.950 . S
C1065 C1067 1.327 . S
C1065 C1071 1.429 . S
C1066 C1058 1.574 . S
C1066 H1061 0.949 . S
C1066 C1072 1.368 . S
C1067 C1051 1.349 . S
C1067 H1059 0.950 . S
C1067 C1065 1.327 . S
C1068 C1056 1.349 . S
C1068 H1062 0.950 . S
C1068 C1069 1.327 . S
C1069 H1063 0.950 . S
C1069 C1068 1.327 . S
C1069 C1073 1.429 . S
C1070 C1053 1.574 . S
C1070 H1064 0.949 . S
C1070 C1074 1.368 . S
C1071 C1052 1.429 . S
C1071 C1065 1.429 . S
C1071 C1072 1.523 . S
C1072 C1053 1.368 . S
C1072 C1066 1.368 . S
C1072 C1071 1.523 . S
C1073 C1057 1.429 . S
C1073 C1069 1.429 . S
C1073 C1074 1.523 . S
C1074 C1058 1.368 . S
C1074 C1070 1.368 . S
C1074 C1073 1.523 . S
H1075 C1050 0.950 . S
H1076 C1052 0.950 . S
H1077 C1053 0.949 . S
H1078 C1055 0.950 . S
H1079 C1057 0.950 . S
C1080 C1081 1.349 . S
C1080 C1082 1.327 . S
C1080 H1105 0.950 . S
C1081 C1080 1.349 . S
C1081 C1097 1.349 . S
C1082 C1080 1.327 . S
C1082 C1101 1.429 . S
C1082 H1106 0.950 . S
C1083 C1100 1.574 . S
C1083 C1102 1.368 . S
C1083 H1107 0.949 . S
H1084 C1088 0.949 . S
C1085 C1086 1.349 . S
C1085 C1087 1.327 . S
C1085 H1108 0.950 1_655 S
C1086 C1085 1.349 . S
C1086 C1098 1.349 . S
C1087 C1085 1.327 . S
C1087 C1103 1.429 . S
C1087 H1109 0.956 . S
C1088 H1084 0.949 . S
C1088 C1096 1.574 . S
C1088 C1104 1.368 . S
H1089 C1097 0.950 . S
H1090 C1095 0.950 . S
H1091 C1096 0.949 . S
H1092 C1098 0.950 . S
H1093 C1099 0.950 . S
H1094 C1100 0.949 . S
C1095 H1090 0.950 . S
C1095 C1097 1.327 . S
C1095 C1101 1.429 . S
C1096 C1088 1.574 . S
C1096 H1091 0.949 . S
C1096 C1102 1.368 . S
C1097 C1081 1.349 . S
C1097 H1089 0.950 . S
C1097 C1095 1.327 . S
C1098 C1086 1.349 . S
C1098 H1092 0.950 . S
C1098 C1099 1.327 . S
C1099 H1093 0.950 . S
C1099 C1098 1.327 . S
C1099 C1103 1.429 . S
C1100 C1083 1.574 . S
C1100 H1094 0.949 . S
C1100 C1104 1.368 . S
C1101 C1082 1.429 . S
C1101 C1095 1.429 . S
C1101 C1102 1.523 . S
C1102 C1083 1.368 . S
C1102 C1096 1.368 . S
C1102 C1101 1.523 . S
C1103 C1087 1.429 . S
C1103 C1099 1.429 . S
C1103 C1104 1.523 . S
C1104 C1088 1.368 . S
C1104 C1100 1.368 . S
C1104 C1103 1.523 . S
H1105 C1080 0.950 . S
H1106 C1082 0.950 . S
H1107 C1083 0.949 . S
H1108 C1085 0.950 1_455 S
H1109 C1087 0.956 . S
C1110 C1111 1.327 1_545 S
C1110 C1112 1.327 . S
C1110 H1135 0.950 . S
C1111 C1110 1.327 1_565 S
C1111 C1127 1.372 . S
C1112 C1110 1.327 . S
C1112 C1131 1.429 1_545 S
C1112 H1136 0.950 . S
C1113 C1130 1.574 . S
C1113 C1132 1.368 . S
C1113 H1137 0.949 . S
H1114 C1118 0.949 . S
C1115 C1116 1.349 . S
C1115 C1117 1.327 . S
C1115 H1138 0.950 . S
C1116 C1115 1.349 . S
C1116 C1128 1.349 1_565 S
C1117 C1115 1.327 . S
C1117 C1133 1.429 . S
C1117 H1139 0.950 . S
C1118 H1114 0.949 . S
C1118 C1126 1.574 . S
C1118 C1134 1.368 1_545 S
H1119 C1127 0.950 . S
H1120 C1125 0.950 . S
H1121 C1126 0.949 . S
H1122 C1128 0.950 . S
H1123 C1129 0.950 . S
H1124 C1130 0.949 . S
C1125 H1120 0.950 . S
C1125 C1127 1.327 . S
C1125 C1131 1.429 . S
C1126 C1118 1.574 . S
C1126 H1121 0.949 . S
C1126 C1132 1.368 1_545 S
C1127 C1111 1.372 . S
C1127 H1119 0.950 . S
C1127 C1125 1.327 . S
C1128 C1116 1.349 1_545 S
C1128 H1122 0.950 . S
C1128 C1129 1.327 . S
C1129 H1123 0.950 . S
C1129 C1128 1.327 . S
C1129 C1133 1.429 1_545 S
C1130 C1113 1.574 . S
C1130 H1124 0.949 . S
C1130 C1134 1.368 . S
C1131 C1112 1.429 1_565 S
C1131 C1125 1.429 . S
C1131 C1132 1.523 . S
C1132 C1113 1.368 . S
C1132 C1126 1.368 1_565 S
C1132 C1131 1.523 . S
C1133 C1117 1.429 . S
C1133 C1129 1.429 1_565 S
C1133 C1134 1.523 . S
C1134 C1118 1.368 1_565 S
C1134 C1130 1.368 . S
C1134 C1133 1.523 . S
H1135 C1110 0.950 . S
H1136 C1112 0.950 . S
H1137 C1113 0.949 . S
H1138 C1115 0.950 . S
H1139 C1117 0.950 . S
C1140 C1141 1.349 . S
C1140 C1142 1.327 . S
C1140 H1165 0.950 . S
C1141 C1140 1.349 . S
C1141 C1157 1.349 . S
C1142 C1140 1.327 . S
C1142 C1161 1.429 . S
C1142 H1166 0.950 . S
C1143 C1160 1.574 . S
C1143 C1162 1.368 . S
C1143 H1167 0.949 . S
H1144 C1148 0.949 . S
C1145 C1146 1.349 . S
C1145 C1147 1.327 . S
C1145 H1168 0.950 . S
C1146 C1145 1.349 . S
C1146 C1158 1.349 . S
C1147 C1145 1.327 . S
C1147 C1163 1.429 . S
C1147 H1169 0.950 . S
C1148 H1144 0.949 . S
C1148 C1156 1.574 . S
C1148 C1164 1.368 . S
H1149 C1157 0.950 . S
H1150 C1155 0.950 . S
H1151 C1156 0.949 . S
H1152 C1158 0.950 . S
H1153 C1159 0.950 . S
H1154 C1160 0.949 . S
C1155 H1150 0.950 . S
C1155 C1157 1.327 . S
C1155 C1161 1.429 . S
C1156 C1148 1.574 . S
C1156 H1151 0.949 . S
C1156 C1162 1.368 . S
C1157 C1141 1.349 . S
C1157 H1149 0.950 . S
C1157 C1155 1.327 . S
C1158 C1146 1.349 . S
C1158 H1152 0.950 . S
C1158 C1159 1.327 . S
C1159 H1153 0.950 . S
C1159 C1158 1.327 . S
C1159 C1163 1.429 . S
C1160 C1143 1.574 . S
C1160 H1154 0.949 . S
C1160 C1164 1.368 . S
C1161 C1142 1.429 . S
C1161 C1155 1.429 . S
C1161 C1162 1.523 . S
C1162 C1143 1.368 . S
C1162 C1156 1.368 . S
C1162 C1161 1.523 . S
C1163 C1147 1.429 . S
C1163 C1159 1.429 . S
C1163 C1164 1.523 . S
C1164 C1148 1.368 . S
C1164 C1160 1.368 . S
C1164 C1163 1.523 . S
H1165 C1140 0.950 . S
H1166 C1142 0.950 . S
H1167 C1143 0.949 . S
H1168 C1145 0.950 . S
H1169 C1147 0.950 . S
C1170 C1171 1.349 . S
C1170 C1172 1.327 . S
C1170 H1195 0.950 . S
C1171 C1170 1.349 . S
C1171 C1187 1.349 . S
C1172 C1170 1.327 . S
C1172 C1191 1.429 . S
C1172 H1196 0.950 . S
C1173 C1190 1.574 . S
C1173 C1192 1.368 . S
C1173 H1197 0.949 . S
H1174 C1178 0.949 . S
C1175 C1176 1.349 . S
C1175 C1177 1.327 . S
C1175 H1198 0.950 . S
C1176 C1175 1.349 . S
C1176 C1188 1.349 . S
C1177 C1175 1.327 . S
C1177 C1193 1.429 . S
C1177 H1199 0.950 . S
C1178 H1174 0.949 . S
C1178 C1186 1.574 . S
C1178 C1194 1.368 . S
H1179 C1187 0.950 . S
H1180 C1185 0.950 . S
H1181 C1186 0.949 . S
H1182 C1188 0.950 . S
H1183 C1189 0.950 . S
H1184 C1190 0.949 . S
C1185 H1180 0.950 . S
C1185 C1187 1.327 . S
C1185 C1191 1.429 . S
C1186 C1178 1.574 . S
C1186 H1181 0.949 . S
C1186 C1192 1.368 . S
C1187 C1171 1.349 . S
C1187 H1179 0.950 . S
C1187 C1185 1.327 . S
C1188 C1176 1.349 . S
C1188 H1182 0.950 . S
C1188 C1189 1.327 . S
C1189 H1183 0.950 . S
C1189 C1188 1.327 . S
C1189 C1193 1.429 . S
C1190 C1173 1.574 . S
C1190 H1184 0.949 . S
C1190 C1194 1.368 . S
C1191 C1172 1.429 . S
C1191 C1185 1.429 . S
C1191 C1192 1.523 . S
C1192 C1173 1.368 . S
C1192 C1186 1.368 . S
C1192 C1191 1.523 . S
C1193 C1177 1.429 . S
C1193 C1189 1.429 . S
C1193 C1194 1.523 . S
C1194 C1178 1.368 . S
C1194 C1190 1.368 . S
C1194 C1193 1.523 . S
H1195 C1170 0.950 . S
H1196 C1172 0.950 . S
H1197 C1173 0.949 . S
H1198 C1175 0.950 . S
H1199 C1177 0.950 . S
C481 C255 1.967 1_565 S
C486 C343 2.084 . S
C516 C383 1.605 . S
C511 C295 1.568 . S
C546 C402 2.176 . S
C541 C175 2.044 . S
C576 C463 1.767 . S
C571 C215 1.666 . S
C606 C322 2.086 . S
C601 C95 1.970 . S
C631 C135 1.569 . S
C636 C362 1.612 . S
C661 C15 2.047 . S
C666 C423 2.176 . S
C691 C55 1.659 . S
C696 C442 1.767 1_655 S
C726 C324 0.560 . S
C721 C221 0.517 . S
C756 C364 0.361 . S
C751 C261 0.342 . S
C786 C420 0.651 . S
C781 C301 0.674 . S
C811 C181 0.352 . S
C816 C444 0.261 . S
C841 C61 0.610 . S
C846 C345 0.566 . S
C876 C385 0.361 . S
C871 C101 0.464 1_565 S
C906 C431 0.651 . S
C901 C141 0.703 . S
C931 C21 0.334 . S
C936 C465 0.261 . S
C961 C202 2.473 . S
C966 C340 2.632 . S
C991 C242 2.890 . S
C996 C380 3.115 . S
C1026 C404 1.951 . S
C1021 C282 1.912 . S
C1056 C460 3.078 . S
C1051 C162 2.834 . S
C1081 C42 2.405 . S
C1086 C351 2.646 . S
C1116 C391 3.116 . S
C1111 C82 2.890 1_565 S
C1146 C425 1.950 . S
C1141 C122 1.886 . S
C1171 C2 2.882 . S
C1176 C471 3.077 . S
