# Generated by pormake.
# Topology anh, (6,3)-cn, num edge types: 1
# Building blocks:
#     Node 0, Type 0, BuildingBlock: MIFKUJ_clean_sbu_0, # of connection points: 6
#     Node 1, Type 0, BuildingBlock: MIFKUJ_clean_sbu_0, # of connection points: 6
#     Node 2, Type 0, BuildingBlock: MIFKUJ_clean_sbu_0, # of connection points: 6
#     Node 3, Type 1, BuildingBlock: WUSLED_clean_sbu_0, # of connection points: 3
#     Node 4, Type 1, BuildingBlock: WUSLED_clean_sbu_0, # of connection points: 3
#     Node 5, Type 1, BuildingBlock: WUSLED_clean_sbu_0, # of connection points: 3
#     Node 6, Type 1, BuildingBlock: WUSLED_clean_sbu_0, # of connection points: 3
#     Node 7, Type 1, BuildingBlock: WUSLED_clean_sbu_0, # of connection points: 3
#     Node 8, Type 1, BuildingBlock: WUSLED_clean_sbu_0, # of connection points: 3
#     Edge 9, Type (0, 1), BuildingBlock: UVAHIK_clean_linker_0, # of connection points: 2
#     Edge 10, Type (0, 1), BuildingBlock: UVAHIK_clean_linker_0, # of connection points: 2
#     Edge 11, Type (0, 1), BuildingBlock: UVAHIK_clean_linker_0, # of connection points: 2
#     Edge 12, Type (0, 1), BuildingBlock: UVAHIK_clean_linker_0, # of connection points: 2
#     Edge 13, Type (0, 1), BuildingBlock: UVAHIK_clean_linker_0, # of connection points: 2
#     Edge 14, Type (0, 1), BuildingBlock: UVAHIK_clean_linker_0, # of connection points: 2
#     Edge 15, Type (0, 1), BuildingBlock: UVAHIK_clean_linker_0, # of connection points: 2
#     Edge 16, Type (0, 1), BuildingBlock: UVAHIK_clean_linker_0, # of connection points: 2
#     Edge 17, Type (0, 1), BuildingBlock: UVAHIK_clean_linker_0, # of connection points: 2
#     Edge 18, Type (0, 1), BuildingBlock: UVAHIK_clean_linker_0, # of connection points: 2
#     Edge 19, Type (0, 1), BuildingBlock: UVAHIK_clean_linker_0, # of connection points: 2
#     Edge 20, Type (0, 1), BuildingBlock: UVAHIK_clean_linker_0, # of connection points: 2
#     Edge 21, Type (0, 1), BuildingBlock: UVAHIK_clean_linker_0, # of connection points: 2
#     Edge 22, Type (0, 1), BuildingBlock: UVAHIK_clean_linker_0, # of connection points: 2
#     Edge 23, Type (0, 1), BuildingBlock: UVAHIK_clean_linker_0, # of connection points: 2
#     Edge 24, Type (0, 1), BuildingBlock: UVAHIK_clean_linker_0, # of connection points: 2
#     Edge 25, Type (0, 1), BuildingBlock: UVAHIK_clean_linker_0, # of connection points: 2
#     Edge 26, Type (0, 1), BuildingBlock: UVAHIK_clean_linker_0, # of connection points: 2
# Relax obj value: 0.128
# Max RMSD: 0.179
# Mean RMSD: 0.135
data_MOF--net-anh--node1-MIFKUJ_clean_sbu_0--node2-WUSLED_clean_sbu_0--edge1-UVAHIK_clean_linker_0
_symmetry_space_group_name_H-M    P1
_symmetry_Int_Tables_number       1
_symmetry_cell_setting            triclinic
loop_
_symmetry_equiv_pos_as_xyz
'x, y, z'
_cell_length_a     48.295286
_cell_length_b     48.264794
_cell_length_c     84.37101
_cell_angle_alpha  93.603202
_cell_angle_beta   91.159889
_cell_angle_gamma 119.75123
loop_
_atom_site_label
_atom_site_type_symbol
_atom_site_fract_x
_atom_site_fract_y
_atom_site_fract_z
_atom_type_partial_charge
Zn0 Zn 0.04378 0.55054 0.16261 0.0
Zn1 Zn 0.95335 0.48782 0.16153 0.0
C2 C 0.09318 0.53538 0.16684 0.0
O3 O 0.09385 0.54841 0.18109 0.0
C4 C 0.91154 0.50663 0.14705 0.0
O5 O 0.91328 0.4894 0.13483 0.0
O6 O 0.0742 0.59801 0.16523 0.0
O7 O 0.01206 0.54241 0.14435 0.0
O8 O 0.97745 0.49062 0.14198 0.0
C9 C 0.09199 0.61109 0.15393 0.0
O10 O 0.08864 0.59348 0.14073 0.0
O11 O 0.07204 0.53192 0.1564 0.0
C12 C 0.89937 0.4364 0.17281 0.0
O13 O 0.90375 0.46027 0.18292 0.0
O14 O 0.91888 0.44188 0.16195 0.0
O15 O 0.97677 0.49975 0.18293 0.0
O16 O 0.02796 0.53732 0.18436 0.0
O17 O 0.92861 0.5114 0.15971 0.0
C18 C 0.99764 0.51583 0.13593 0.0
C19 C 0.00299 0.51772 0.19092 0.0
Zn20 Zn 0.55216 0.05339 0.49531 0.0
Zn21 Zn 0.52902 0.96375 0.49214 0.0
C22 C 0.61639 0.10211 0.50023 0.0
O23 O 0.60397 0.10557 0.51341 0.0
C24 C 0.47084 0.91426 0.47654 0.0
O25 O 0.49147 0.9144 0.46657 0.0
O26 O 0.5377 0.08596 0.49694 0.0
O27 O 0.52511 0.01986 0.47778 0.0
O28 O 0.54672 0.98969 0.47327 0.0
C29 C 0.54357 0.10426 0.48577 0.0
O30 O 0.55692 0.09983 0.47317 0.0
O31 O 0.59869 0.079 0.49 0.0
C32 C 0.5675 0.9355 0.50202 0.0
O33 O 0.58192 0.96073 0.51234 0.0
O34 O 0.54557 0.93282 0.49239 0.0
O35 O 0.53808 0.98659 0.51417 0.0
O36 O 0.54957 0.03738 0.51695 0.0
O37 O 0.48108 0.93495 0.48847 0.0
C38 C 0.53921 0.00972 0.46861 0.0
C39 C 0.54478 0.01189 0.52288 0.0
Zn40 Zn 0.5587 0.51524 0.82734 0.0
Zn41 Zn 0.49736 0.54263 0.82695 0.0
C42 C 0.54264 0.45067 0.83061 0.0
O43 O 0.55291 0.46327 0.84527 0.0
C44 C 0.5197 0.60051 0.81158 0.0
O45 O 0.50181 0.57961 0.7998 0.0
O46 O 0.60608 0.53318 0.82996 0.0
O47 O 0.5513 0.53797 0.80991 0.0
O48 O 0.4992 0.51709 0.80747 0.0
C49 C 0.61977 0.52737 0.81857 0.0
O50 O 0.60272 0.51132 0.80544 0.0
O51 O 0.54125 0.46819 0.82031 0.0
C52 C 0.44975 0.55571 0.83646 0.0
O53 O 0.47516 0.57839 0.84472 0.0
O54 O 0.45251 0.53521 0.82744 0.0
O55 O 0.50662 0.53307 0.84869 0.0
O56 O 0.54365 0.51864 0.84902 0.0
O57 O 0.52396 0.59028 0.82442 0.0
C58 C 0.52541 0.52398 0.80131 0.0
C59 C 0.52413 0.52479 0.85612 0.0
C60 C 0.5566 0.08117 0.19429 0.0
C61 C 0.57862 0.1016 0.20658 0.0
C62 C 0.61171 0.1378 0.18743 0.0
C63 C 0.60589 0.12959 0.2032 0.0
C64 C 0.58977 0.11705 0.17508 0.0
C65 C 0.56229 0.0889 0.17851 0.0
U66 U 0.51065 0.03107 0.2263 0.0
O67 O 0.4597 0.00599 0.23105 0.0
O68 O 0.48538 0.97913 0.22853 0.0
C69 C 0.45773 0.97775 0.23017 0.0
C70 C 0.5279 0.05209 0.19828 0.0
C71 C 0.43062 0.95194 0.22036 0.0
C72 C 0.39248 0.93257 0.1975 0.0
C73 C 0.41905 0.9576 0.20624 0.0
C74 C 0.38938 0.89603 0.21673 0.0
C75 C 0.37735 0.90152 0.20269 0.0
C76 C 0.41574 0.92102 0.22548 0.0
C77 C 0.54792 0.06149 0.26849 0.0
C78 C 0.51905 0.04361 0.2924 0.0
C79 C 0.5769 0.07014 0.29382 0.0
C80 C 0.57682 0.07325 0.27747 0.0
C81 C 0.54802 0.05537 0.30146 0.0
C82 C 0.51898 0.04647 0.27602 0.0
C83 C 0.54841 0.06466 0.25127 0.0
O84 O 0.53353 0.03059 0.20408 0.0
O85 O 0.50796 0.05742 0.20653 0.0
O86 O 0.52663 0.0703 0.24513 0.0
O87 O 0.55194 0.04315 0.24262 0.0
H88 H 0.57466 0.09587 0.21884 0.0
H89 H 0.62259 0.14469 0.21295 0.0
H90 H 0.59357 0.12284 0.16283 0.0
H91 H 0.54548 0.07332 0.16889 0.0
H92 H 0.38388 0.93744 0.18665 0.0
H93 H 0.43039 0.98133 0.20203 0.0
H94 H 0.37799 0.87251 0.22117 0.0
H95 H 0.42432 0.91625 0.23637 0.0
H96 H 0.49643 0.03178 0.29795 0.0
H97 H 0.59957 0.07963 0.30053 0.0
H98 H 0.59936 0.08483 0.27183 0.0
H99 H 0.49636 0.03689 0.26925 0.0
C100 C 0.57943 0.59235 0.52715 0.0
C101 C 0.58184 0.61445 0.53948 0.0
C102 C 0.58635 0.65177 0.52024 0.0
C103 C 0.5853 0.64388 0.53607 0.0
C104 C 0.58387 0.62948 0.5079 0.0
C105 C 0.58048 0.59997 0.51135 0.0
U106 U 0.56651 0.53555 0.55813 0.0
O107 O 0.53585 0.48348 0.55841 0.0
O108 O 0.58787 0.50556 0.56272 0.0
C109 C 0.56026 0.47885 0.56058 0.0
C110 C 0.57529 0.56129 0.53094 0.0
C111 C 0.56004 0.45274 0.55049 0.0
C112 C 0.54272 0.41619 0.52654 0.0
C113 C 0.5442 0.44255 0.53531 0.0
C114 C 0.57369 0.41066 0.5478 0.0
C115 C 0.55726 0.39982 0.53276 0.0
C116 C 0.575 0.43682 0.55656 0.0
C117 C 0.55987 0.5611 0.60069 0.0
C118 C 0.53755 0.52386 0.62111 0.0
C119 C 0.57116 0.58068 0.62859 0.0
C120 C 0.57474 0.58652 0.61253 0.0
C121 C 0.55244 0.5493 0.63303 0.0
C122 C 0.5414 0.52968 0.60506 0.0
C123 C 0.56434 0.56761 0.58387 0.0
O124 O 0.59871 0.56302 0.53996 0.0
O125 O 0.54686 0.54117 0.53558 0.0
O126 O 0.53937 0.54972 0.574 0.0
O127 O 0.5912 0.57126 0.57849 0.0
H128 H 0.58082 0.60882 0.55176 0.0
H129 H 0.58656 0.66023 0.54583 0.0
H130 H 0.58481 0.63495 0.4956 0.0
H131 H 0.5786 0.58311 0.5017 0.0
H132 H 0.53015 0.40856 0.51493 0.0
H133 H 0.53262 0.45463 0.53034 0.0
H134 H 0.58475 0.39833 0.55302 0.0
H135 H 0.58723 0.44426 0.56827 0.0
H136 H 0.52332 0.49942 0.6242 0.0
H137 H 0.5827 0.60074 0.63753 0.0
H138 H 0.58918 0.61088 0.60936 0.0
H139 H 0.53004 0.50965 0.59609 0.0
C140 C 0.9767 0.54476 0.85861 0.0
C141 C 0.9537 0.54052 0.86954 0.0
C142 C 0.92339 0.5504 0.84955 0.0
C143 C 0.92729 0.54326 0.86505 0.0
C144 C 0.94631 0.55422 0.83854 0.0
C145 C 0.97288 0.55151 0.84307 0.0
U146 U 0.02281 0.53618 0.89209 0.0
O147 O 0.04898 0.51 0.89403 0.0
O148 O 0.07398 0.56223 0.89956 0.0
C149 C 0.07648 0.53634 0.8976 0.0
C150 C 0.005 0.54319 0.8638 0.0
C151 C 0.1038 0.53975 0.8888 0.0
C152 C 0.12661 0.52905 0.86537 0.0
C153 C 0.10008 0.52629 0.87311 0.0
C154 C 0.16074 0.55936 0.8888 0.0
C155 C 0.15721 0.54558 0.87318 0.0
C156 C 0.13428 0.55642 0.89652 0.0
C157 C 0.98894 0.52677 0.93281 0.0
C158 C 0.021 0.53418 0.95693 0.0
C159 C 0.9636 0.51087 0.95773 0.0
C160 C 0.9614 0.51367 0.94143 0.0
C161 C 0.99345 0.52131 0.96567 0.0
C162 C 0.01874 0.53674 0.94061 0.0
C163 C 0.98637 0.53004 0.91575 0.0
O164 O 0.02515 0.56744 0.87369 0.0
O165 O 0.99904 0.51529 0.86838 0.0
O166 O 0.98259 0.50562 0.90625 0.0
O167 O 0.00734 0.55791 0.911 0.0
H168 H 0.95632 0.53528 0.8816 0.0
H169 H 0.9098 0.53959 0.87372 0.0
H170 H 0.94403 0.55991 0.82654 0.0
H171 H 0.99054 0.55499 0.83453 0.0
H172 H 0.12324 0.51838 0.8533 0.0
H173 H 0.07671 0.51347 0.86689 0.0
H174 H 0.1839 0.57179 0.89523 0.0
H175 H 0.13758 0.56689 0.90864 0.0
H176 H 0.04426 0.54207 0.9627 0.0
H177 H 0.94201 0.50113 0.96419 0.0
H178 H 0.93822 0.50581 0.93557 0.0
H179 H 0.04026 0.54665 0.93408 0.0
C180 C 0.96812 0.44031 0.4652 0.0
C181 C 0.94361 0.42452 0.45318 0.0
C182 C 0.91276 0.38188 0.47024 0.0
C183 C 0.91618 0.39567 0.45568 0.0
C184 C 0.9375 0.39777 0.48224 0.0
C185 C 0.96492 0.42675 0.47974 0.0
U186 U 0.01863 0.4985 0.43616 0.0
O187 O 0.07043 0.52417 0.43312 0.0
O188 O 0.04518 0.55112 0.4371 0.0
C189 C 0.07283 0.55254 0.43528 0.0
C190 C 0.99727 0.47034 0.46237 0.0
C191 C 0.10114 0.5781 0.44489 0.0
C192 C 0.12877 0.63153 0.45881 0.0
C193 C 0.10049 0.60453 0.45252 0.0
C194 C 0.15881 0.6058 0.45055 0.0
C195 C 0.15839 0.63284 0.45753 0.0
C196 C 0.13057 0.57885 0.44426 0.0
C197 C 0.98779 0.47822 0.3926 0.0
C198 C 0.02054 0.49913 0.37008 0.0
C199 C 0.96294 0.47405 0.3666 0.0
C200 C 0.96038 0.46864 0.38272 0.0
C201 C 0.99303 0.489 0.36002 0.0
C202 C 0.01795 0.49391 0.38624 0.0
C203 C 0.98443 0.4712 0.4094 0.0
O204 O 0.01798 0.46668 0.45392 0.0
O205 O 0.99252 0.49332 0.45786 0.0
O206 O 0.98008 0.49106 0.41898 0.0
O207 O 0.00478 0.46351 0.41543 0.0
H208 H 0.9458 0.43446 0.4418 0.0
H209 H 0.89787 0.38389 0.4461 0.0
H210 H 0.93552 0.388 0.49364 0.0
H211 H 0.98365 0.43854 0.48914 0.0
H212 H 0.12752 0.65175 0.46429 0.0
H213 H 0.07834 0.60499 0.45307 0.0
H214 H 0.18117 0.60606 0.44915 0.0
H215 H 0.13206 0.55922 0.43819 0.0
H216 H 0.04406 0.5104 0.36542 0.0
H217 H 0.94129 0.46652 0.35931 0.0
H218 H 0.93693 0.45674 0.38747 0.0
H219 H 0.03948 0.50171 0.3937 0.0
C220 C 0.5352 0.96263 0.79957 0.0
C221 C 0.51707 0.93493 0.78924 0.0
C222 C 0.53546 0.90532 0.8045 0.0
C223 C 0.51704 0.90657 0.79173 0.0
C224 C 0.55362 0.93308 0.81484 0.0
C225 C 0.5534 0.96145 0.81242 0.0
U226 U 0.53669 0.017 0.76931 0.0
O227 O 0.51286 0.04532 0.76682 0.0
O228 O 0.56533 0.06921 0.76774 0.0
C229 C 0.53994 0.07257 0.76697 0.0
C230 C 0.53685 0.99315 0.79633 0.0
C231 C 0.54195 0.10082 0.776 0.0
C232 C 0.52036 0.12539 0.79429 0.0
C233 C 0.52067 0.0981 0.78773 0.0
C234 C 0.56318 0.15842 0.77787 0.0
C235 C 0.54125 0.15585 0.78922 0.0
C236 C 0.56349 0.13125 0.77136 0.0
C237 C 0.53344 0.98695 0.72587 0.0
C238 C 0.55098 0.02007 0.70359 0.0
C239 C 0.51764 0.96249 0.6988 0.0
C240 C 0.517 0.95968 0.71519 0.0
C241 C 0.53496 0.99268 0.69278 0.0
C242 C 0.55013 0.01724 0.71999 0.0
C243 C 0.5335 0.98319 0.74303 0.0
O244 O 0.56319 0.01376 0.79002 0.0
O245 O 0.51091 0.99059 0.78943 0.0
O246 O 0.50807 0.97957 0.75011 0.0
O247 O 0.5604 0.00274 0.75129 0.0
H248 H 0.50329 0.93531 0.77904 0.0
H249 H 0.50322 0.8858 0.7834 0.0
H250 H 0.56793 0.93282 0.82482 0.0
H251 H 0.56779 0.98261 0.82045 0.0
H252 H 0.50345 0.12255 0.80316 0.0
H253 H 0.50372 0.07488 0.79151 0.0
H254 H 0.57928 0.18129 0.77346 0.0
H255 H 0.57983 0.1339 0.76219 0.0
H256 H 0.56479 0.04365 0.69939 0.0
H257 H 0.5045 0.94096 0.69086 0.0
H258 H 0.50381 0.93613 0.71952 0.0
H259 H 0.56288 0.03865 0.72806 0.0
C260 C 0.56242 0.51924 0.13313 0.0
C261 C 0.57162 0.50202 0.12257 0.0
C262 C 0.62239 0.52283 0.13783 0.0
C263 C 0.60109 0.5036 0.12495 0.0
C264 C 0.61289 0.53973 0.14855 0.0
C265 C 0.58319 0.53794 0.1462 0.0
U266 U 0.50401 0.51663 0.10246 0.0
O267 O 0.45158 0.49132 0.09957 0.0
O268 O 0.47878 0.54388 0.10024 0.0
C269 C 0.45041 0.51799 0.0996 0.0
C270 C 0.53246 0.51963 0.12979 0.0
C271 C 0.4256 0.52004 0.1088 0.0
C272 C 0.38083 0.49719 0.12593 0.0
C273 C 0.40694 0.49687 0.11914 0.0
C274 C 0.39218 0.5443 0.11255 0.0
C275 C 0.37283 0.52065 0.12252 0.0
C276 C 0.41816 0.54393 0.10576 0.0
C277 C 0.52753 0.51137 0.05951 0.0
C278 C 0.49524 0.50557 0.03574 0.0
C279 C 0.54879 0.51399 0.03353 0.0
C280 C 0.55238 0.51505 0.05004 0.0
C281 C 0.52016 0.50912 0.02615 0.0
C282 C 0.49891 0.50669 0.05232 0.0
C283 C 0.53235 0.5129 0.07684 0.0
O284 O 0.53613 0.54521 0.1233 0.0
O285 O 0.50864 0.49284 0.12294 0.0
O286 O 0.51175 0.48769 0.08379 0.0
O287 O 0.53905 0.54015 0.0846 0.0
H288 H 0.55621 0.48765 0.11228 0.0
H289 H 0.6072 0.48976 0.11662 0.0
H290 H 0.62875 0.55506 0.15849 0.0
H291 H 0.57673 0.55172 0.15439 0.0
H292 H 0.36669 0.47885 0.13372 0.0
H293 H 0.41198 0.47804 0.12168 0.0
H294 H 0.38654 0.56245 0.10945 0.0
H295 H 0.43187 0.5618 0.09766 0.0
H296 H 0.47281 0.50156 0.03043 0.0
H297 H 0.5687 0.51747 0.02656 0.0
H298 H 0.57471 0.51891 0.05543 0.0
H299 H 0.47949 0.50389 0.05952 0.0
C300 C 0.12352 0.5218 0.14682 0.0
C301 C 0.11877 0.5281 0.16273 0.0
C302 C 0.14975 0.51822 0.143 0.0
C303 C 0.23044 0.53988 0.15944 0.0
H304 H 0.22641 0.48128 0.12469 0.0
C305 C 0.34402 0.54835 0.13364 0.0
C306 C 0.3437 0.51981 0.12869 0.0
C307 C 0.31618 0.54779 0.1384 0.0
C308 C 0.22792 0.49756 0.13454 0.0
H309 H 0.13707 0.53407 0.18714 0.0
H310 H 0.18218 0.52715 0.18054 0.0
H311 H 0.17791 0.48171 0.13181 0.0
H312 H 0.31364 0.46819 0.12504 0.0
H313 H 0.26527 0.46715 0.13371 0.0
H314 H 0.28027 0.5554 0.16235 0.0
C315 C 0.1662 0.52579 0.17095 0.0
C316 C 0.20013 0.49808 0.1385 0.0
C317 C 0.14015 0.52954 0.17475 0.0
C318 C 0.31489 0.49062 0.12893 0.0
C319 C 0.28702 0.49005 0.1337 0.0
C320 C 0.25816 0.53933 0.1555 0.0
C321 C 0.17176 0.52072 0.15501 0.0
C322 C 0.20104 0.51935 0.15097 0.0
C323 C 0.28722 0.51867 0.13837 0.0
C324 C 0.25735 0.51832 0.14293 0.0
H325 H 0.10758 0.52068 0.13727 0.0
H326 H 0.15337 0.5146 0.13059 0.0
H327 H 0.23224 0.5569 0.16897 0.0
H328 H 0.36582 0.57125 0.13377 0.0
H329 H 0.31725 0.57034 0.14177 0.0
C330 C 0.66826 0.1516 0.5086 0.0
C331 C 0.6493 0.12678 0.49688 0.0
C332 C 0.69817 0.17661 0.50527 0.0
C333 C 0.74445 0.21906 0.4718 0.0
H334 H 0.81428 0.2587 0.50411 0.0
C335 C 0.85317 0.34518 0.46746 0.0
C336 C 0.88352 0.35106 0.47284 0.0
C337 C 0.82569 0.31626 0.46983 0.0
C338 C 0.79521 0.24777 0.49486 0.0
H339 H 0.64742 0.10841 0.47253 0.0
H340 H 0.69998 0.15206 0.46673 0.0
H341 H 0.7654 0.21007 0.50914 0.0
H342 H 0.90868 0.33073 0.4847 0.0
H343 H 0.86078 0.28022 0.48878 0.0
H344 H 0.77439 0.25663 0.45746 0.0
C345 C 0.69143 0.1523 0.47848 0.0
C346 C 0.76699 0.22002 0.49782 0.0
C347 C 0.66141 0.12715 0.48183 0.0
C348 C 0.88566 0.3272 0.48062 0.0
C349 C 0.85816 0.29821 0.48295 0.0
C350 C 0.77271 0.24681 0.46883 0.0
C351 C 0.71004 0.17756 0.49012 0.0
C352 C 0.74105 0.20553 0.48642 0.0
C353 C 0.82778 0.29235 0.47761 0.0
C354 C 0.79833 0.26179 0.4804 0.0
H355 H 0.65972 0.15216 0.52033 0.0
H356 H 0.71153 0.19579 0.51448 0.0
H357 H 0.72492 0.20876 0.46279 0.0
H358 H 0.85057 0.3632 0.46163 0.0
H359 H 0.8027 0.31291 0.46582 0.0
C360 C 0.52781 0.64646 0.79624 0.0
C361 C 0.52943 0.63477 0.81086 0.0
C362 C 0.53223 0.67729 0.79568 0.0
C363 C 0.55963 0.75514 0.8197 0.0
H364 H 0.50171 0.76183 0.78975 0.0
C365 C 0.56518 0.87596 0.80986 0.0
C366 C 0.53614 0.87527 0.80666 0.0
C367 C 0.56592 0.84745 0.8108 0.0
C368 C 0.51787 0.7604 0.79831 0.0
H369 H 0.53821 0.64682 0.83634 0.0
H370 H 0.54527 0.70033 0.83542 0.0
H371 H 0.50129 0.71147 0.7905 0.0
H372 H 0.48498 0.84416 0.80266 0.0
H373 H 0.48611 0.7946 0.80459 0.0
H374 H 0.57531 0.80389 0.8279 0.0
C375 C 0.54111 0.68593 0.82432 0.0
C376 C 0.51802 0.73155 0.79856 0.0
C377 C 0.537 0.65516 0.82486 0.0
C378 C 0.50779 0.84548 0.80487 0.0
C379 C 0.50849 0.81704 0.80592 0.0
C380 C 0.55937 0.78404 0.81951 0.0
C381 C 0.538 0.69712 0.80975 0.0
C382 C 0.53886 0.72844 0.80926 0.0
C383 C 0.53761 0.81756 0.80865 0.0
C384 C 0.53835 0.787 0.80886 0.0
H385 H 0.52228 0.63146 0.78522 0.0
H386 H 0.53048 0.68532 0.78419 0.0
H387 H 0.57621 0.7538 0.82802 0.0
H388 H 0.58747 0.89851 0.81113 0.0
H389 H 0.58882 0.84884 0.81274 0.0
C390 C 0.87682 0.52435 0.16105 0.0
C391 C 0.88664 0.5161 0.1468 0.0
C392 C 0.8506 0.52931 0.16092 0.0
C393 C 0.79929 0.54666 0.13508 0.0
H394 H 0.73396 0.50038 0.1643 0.0
C395 C 0.67166 0.52637 0.12635 0.0
C396 C 0.65456 0.5257 0.13977 0.0
C397 C 0.70139 0.5282 0.12798 0.0
C398 C 0.75213 0.51397 0.15624 0.0
H399 H 0.87743 0.50796 0.12119 0.0
H400 H 0.83206 0.5171 0.12095 0.0
H401 H 0.78397 0.4995 0.16583 0.0
H402 H 0.6559 0.52687 0.16552 0.0
H403 H 0.70825 0.53112 0.16842 0.0
H404 H 0.76767 0.56126 0.12548 0.0
C405 C 0.84455 0.51962 0.13223 0.0
C406 C 0.78082 0.5134 0.15711 0.0
C407 C 0.87049 0.51426 0.13237 0.0
C408 C 0.66839 0.52754 0.15492 0.0
C409 C 0.69831 0.52958 0.15656 0.0
C410 C 0.77075 0.5475 0.1343 0.0
C411 C 0.8339 0.52657 0.14652 0.0
C412 C 0.80454 0.52935 0.14639 0.0
C413 C 0.71515 0.52975 0.1431 0.0
C414 C 0.74652 0.53074 0.1447 0.0
H415 H 0.88865 0.52584 0.17238 0.0
H416 H 0.84314 0.53493 0.17211 0.0
H417 H 0.81728 0.55955 0.12679 0.0
H418 H 0.66214 0.52558 0.11449 0.0
H419 H 0.7133 0.52782 0.11731 0.0
C420 C 0.42641 0.86502 0.46172 0.0
C421 C 0.437 0.88812 0.47478 0.0
C422 C 0.39552 0.8386 0.46068 0.0
C423 C 0.31497 0.80683 0.47616 0.0
H424 H 0.30652 0.7249 0.46185 0.0
C425 C 0.19292 0.6928 0.45863 0.0
C426 C 0.18895 0.663 0.46223 0.0
C427 C 0.22252 0.72083 0.46156 0.0
C428 C 0.30843 0.7475 0.46604 0.0
H429 H 0.42289 0.902 0.49678 0.0
H430 H 0.36888 0.8557 0.49499 0.0
H431 H 0.359 0.77281 0.46395 0.0
H432 H 0.21275 0.63971 0.47251 0.0
H433 H 0.26433 0.68858 0.47766 0.0
H434 H 0.26429 0.7813 0.47839 0.0
C435 C 0.38451 0.85817 0.4855 0.0
C436 C 0.33852 0.77509 0.46703 0.0
C437 C 0.41551 0.88468 0.48654 0.0
C438 C 0.21507 0.66214 0.46935 0.0
C439 C 0.24467 0.69017 0.47228 0.0
C440 C 0.28478 0.77917 0.47513 0.0
C441 C 0.37434 0.83451 0.47269 0.0
C442 C 0.34219 0.80516 0.47199 0.0
C443 C 0.24893 0.7198 0.46817 0.0
C444 C 0.28111 0.74916 0.46998 0.0
H445 H 0.4422 0.86698 0.45238 0.0
H446 H 0.38828 0.82121 0.45048 0.0
H447 H 0.3169 0.82961 0.47996 0.0
H448 H 0.17352 0.69436 0.45291 0.0
H449 H 0.22499 0.74312 0.45807 0.0
C450 C 0.53457 0.39771 0.8378 0.0
C451 C 0.53624 0.41774 0.82601 0.0
C452 C 0.53171 0.36785 0.83367 0.0
C453 C 0.55075 0.32557 0.80197 0.0
H454 H 0.49768 0.25031 0.82408 0.0
C455 C 0.56703 0.21487 0.79754 0.0
C456 C 0.53924 0.18466 0.79498 0.0
C457 C 0.56504 0.24238 0.80149 0.0
C458 C 0.5125 0.27106 0.81774 0.0
H459 H 0.53527 0.42164 0.80057 0.0
H460 H 0.53037 0.36943 0.79334 0.0
H461 H 0.49533 0.29935 0.82998 0.0
H462 H 0.48748 0.15987 0.79493 0.0
H463 H 0.4841 0.20785 0.80211 0.0
H464 H 0.56803 0.29741 0.78978 0.0
C465 C 0.53145 0.37699 0.80581 0.0
C466 C 0.51131 0.29921 0.82119 0.0
C467 C 0.53402 0.40679 0.80994 0.0
C468 C 0.50943 0.18261 0.79702 0.0
C469 C 0.50746 0.21015 0.80107 0.0
C470 C 0.55213 0.29754 0.79862 0.0
C471 C 0.5307 0.35736 0.81764 0.0
C472 C 0.53054 0.32685 0.81339 0.0
C473 C 0.53522 0.24043 0.8031 0.0
C474 C 0.53318 0.27 0.80653 0.0
H475 H 0.53615 0.40536 0.8503 0.0
H476 H 0.53147 0.35348 0.84308 0.0
H477 H 0.56612 0.3465 0.79587 0.0
H478 H 0.59043 0.21734 0.79639 0.0
H479 H 0.58692 0.26525 0.80329 0.0
C480 C 0.59713 0.91046 0.51375 0.0
C481 C 0.57475 0.90911 0.50237 0.0
C482 C 0.60215 0.88446 0.51477 0.0
C483 C 0.58863 0.80928 0.49277 0.0
H484 H 0.59257 0.78365 0.53502 0.0
C485 C 0.5706 0.68459 0.50431 0.0
C486 C 0.58937 0.68292 0.51676 0.0
C487 C 0.57186 0.71355 0.50179 0.0
C488 C 0.592 0.79073 0.52314 0.0
H489 H 0.54073 0.87968 0.48283 0.0
H490 H 0.54926 0.83435 0.48473 0.0
H491 H 0.58977 0.83203 0.53199 0.0
H492 H 0.62531 0.71067 0.53583 0.0
H493 H 0.62753 0.76115 0.53142 0.0
H494 H 0.59033 0.76758 0.48394 0.0
C495 C 0.5632 0.85559 0.49276 0.0
C496 C 0.59042 0.81851 0.52141 0.0
C497 C 0.55817 0.88155 0.49174 0.0
C498 C 0.61011 0.71104 0.52632 0.0
C499 C 0.61137 0.73996 0.52381 0.0
C500 C 0.59019 0.78145 0.49451 0.0
C501 C 0.58493 0.85655 0.50442 0.0
C502 C 0.58848 0.828 0.5062 0.0
C503 C 0.59194 0.74147 0.51166 0.0
C504 C 0.59167 0.77174 0.50972 0.0
H505 H 0.61039 0.93137 0.52207 0.0
H506 H 0.6194 0.88613 0.52374 0.0
H507 H 0.58758 0.81616 0.4809 0.0
H508 H 0.55412 0.66329 0.49685 0.0
H509 H 0.55631 0.71382 0.49245 0.0
C510 C 0.672 0.55303 0.83459 0.0
C511 C 0.65366 0.53592 0.82058 0.0
C512 C 0.70318 0.5588 0.83702 0.0
C513 C 0.77024 0.55804 0.81656 0.0
H514 H 0.79281 0.54402 0.85849 0.0
C515 C 0.87795 0.53981 0.83042 0.0
C516 C 0.89538 0.55373 0.84505 0.0
C517 C 0.85017 0.54098 0.82682 0.0
C518 C 0.78709 0.54847 0.84678 0.0
H519 H 0.65402 0.51229 0.79789 0.0
H520 H 0.70818 0.5219 0.80224 0.0
H521 H 0.74136 0.54041 0.85337 0.0
H522 H 0.8984 0.58142 0.86695 0.0
H523 H 0.84999 0.58339 0.86068 0.0
H524 H 0.81591 0.56544 0.80995 0.0
C525 C 0.69866 0.53124 0.81128 0.0
C526 C 0.75759 0.54646 0.84384 0.0
C527 C 0.66751 0.52558 0.80883 0.0
C528 C 0.88511 0.56985 0.85573 0.0
C529 C 0.8574 0.571 0.85214 0.0
C530 C 0.79978 0.55996 0.8195 0.0
C531 C 0.71667 0.54747 0.82551 0.0
C532 C 0.74873 0.5511 0.82869 0.0
C533 C 0.83931 0.55611 0.83777 0.0
C534 C 0.80846 0.5551 0.83463 0.0
H535 H 0.66211 0.56153 0.84383 0.0
H536 H 0.71662 0.57187 0.848 0.0
H537 H 0.7643 0.56211 0.80481 0.0
H538 H 0.88514 0.52702 0.822 0.0
H539 H 0.83659 0.52905 0.81571 0.0
C540 C 0.12449 0.66249 0.17097 0.0
C541 C 0.11825 0.64475 0.15618 0.0
C542 C 0.15117 0.69314 0.17355 0.0
C543 C 0.23109 0.74199 0.15901 0.0
H544 H 0.23129 0.80946 0.18659 0.0
C545 C 0.32358 0.87948 0.18833 0.0
C546 C 0.34859 0.87493 0.19384 0.0
C547 C 0.29528 0.85361 0.18132 0.0
C548 C 0.23159 0.79108 0.17867 0.0
H549 H 0.13429 0.6459 0.13227 0.0
H550 H 0.18062 0.69952 0.13673 0.0
H551 H 0.18087 0.7608 0.17872 0.0
H552 H 0.36419 0.8401 0.19559 0.0
H553 H 0.3148 0.79499 0.18361 0.0
H554 H 0.2818 0.77216 0.15902 0.0
C555 C 0.1652 0.6895 0.14641 0.0
C556 C 0.20274 0.76303 0.17431 0.0
C557 C 0.13855 0.65883 0.14384 0.0
C558 C 0.34519 0.84427 0.19164 0.0
C559 C 0.31701 0.81849 0.18461 0.0
C560 C 0.25992 0.77001 0.16336 0.0
C561 C 0.17216 0.70677 0.16139 0.0
C562 C 0.20223 0.73791 0.16468 0.0
C563 C 0.29151 0.82273 0.1796 0.0
C564 C 0.26059 0.7946 0.1735 0.0
H565 H 0.10935 0.65234 0.18073 0.0
H566 H 0.15601 0.70561 0.18528 0.0
H567 H 0.23163 0.72304 0.15168 0.0
H568 H 0.32544 0.90279 0.18994 0.0
H569 H 0.27619 0.8577 0.17744 0.0
C570 C 0.52789 0.13915 0.50188 0.0
C571 C 0.5389 0.13233 0.48769 0.0
C572 C 0.52651 0.16733 0.50432 0.0
C573 C 0.56376 0.24897 0.49158 0.0
H574 H 0.49742 0.25305 0.51498 0.0
C575 C 0.52466 0.34678 0.51691 0.0
C576 C 0.55425 0.37066 0.52405 0.0
C577 C 0.52109 0.31791 0.51013 0.0
C578 C 0.51591 0.25231 0.50823 0.0
H579 H 0.55583 0.14914 0.46465 0.0
H580 H 0.5531 0.19816 0.46887 0.0
H581 H 0.49247 0.20114 0.50733 0.0
H582 H 0.60367 0.38367 0.52893 0.0
H583 H 0.59738 0.33324 0.51731 0.0
H584 H 0.58728 0.30014 0.49255 0.0
C585 C 0.54602 0.18194 0.47821 0.0
C586 C 0.51325 0.22258 0.50401 0.0
C587 C 0.5474 0.15375 0.47576 0.0
C588 C 0.58048 0.36557 0.52369 0.0
C589 C 0.57694 0.33679 0.51687 0.0
C590 C 0.56644 0.2787 0.49582 0.0
C591 C 0.53608 0.18932 0.49262 0.0
C592 C 0.53739 0.22059 0.49586 0.0
C593 C 0.54708 0.3124 0.51027 0.0
C594 C 0.5428 0.28075 0.50442 0.0
H595 H 0.5212 0.12319 0.51133 0.0
H596 H 0.51907 0.17244 0.51564 0.0
H597 H 0.58293 0.24834 0.48543 0.0
H598 H 0.50395 0.3499 0.51709 0.0
H599 H 0.49787 0.29973 0.50497 0.0
C600 C 0.38997 0.5273 0.83206 0.0
C601 C 0.41878 0.55463 0.8377 0.0
C602 C 0.36076 0.52627 0.83406 0.0
C603 C 0.32575 0.56493 0.85931 0.0
H604 H 0.25465 0.52471 0.82768 0.0
C605 C 0.21483 0.57642 0.86718 0.0
C606 C 0.18544 0.54768 0.86546 0.0
C607 C 0.24245 0.57751 0.86184 0.0
C608 C 0.2743 0.53588 0.83663 0.0
H609 H 0.43972 0.60283 0.84913 0.0
H610 H 0.38919 0.60134 0.85224 0.0
H611 H 0.30484 0.52591 0.82216 0.0
H612 H 0.1616 0.49795 0.85602 0.0
H613 H 0.21008 0.4999 0.8466 0.0
H614 H 0.29551 0.57503 0.87375 0.0
C615 C 0.38889 0.5803 0.84673 0.0
C616 C 0.30297 0.53649 0.8335 0.0
C617 C 0.41791 0.58121 0.84488 0.0
C618 C 0.18391 0.52048 0.85744 0.0
C619 C 0.21163 0.52158 0.85206 0.0
C620 C 0.29732 0.56451 0.86237 0.0
C621 C 0.35991 0.55264 0.84163 0.0
C622 C 0.32909 0.55124 0.84479 0.0
C623 C 0.24131 0.54988 0.85464 0.0
C624 C 0.27136 0.55019 0.85104 0.0
H625 H 0.38993 0.50647 0.82646 0.0
H626 H 0.33886 0.50453 0.83008 0.0
H627 H 0.34503 0.57573 0.86845 0.0
H628 H 0.21662 0.59795 0.87302 0.0
H629 H 0.26491 0.59983 0.86368 0.0
C630 C 0.86505 0.37872 0.16246 0.0
C631 C 0.87141 0.40414 0.17378 0.0
C632 C 0.83792 0.3486 0.16323 0.0
C633 C 0.77804 0.29921 0.19102 0.0
H634 H 0.72495 0.25313 0.15275 0.0
C635 C 0.65034 0.19604 0.19414 0.0
C636 C 0.64069 0.16802 0.18414 0.0
C637 C 0.67889 0.22392 0.19204 0.0
C638 C 0.73975 0.26555 0.1635 0.0
H639 H 0.85436 0.41783 0.19479 0.0
H640 H 0.80716 0.36563 0.19605 0.0
H641 H 0.77497 0.30334 0.15087 0.0
H642 H 0.65296 0.14759 0.16371 0.0
H643 H 0.70304 0.19665 0.15994 0.0
H644 H 0.74277 0.26182 0.20369 0.0
C645 C 0.82326 0.36874 0.1867 0.0
C646 C 0.76839 0.29425 0.16243 0.0
C647 C 0.85027 0.39876 0.18592 0.0
C648 C 0.65968 0.16886 0.17156 0.0
C649 C 0.68835 0.1969 0.16942 0.0
C650 C 0.74948 0.27067 0.19209 0.0
C651 C 0.81672 0.34332 0.17537 0.0
C652 C 0.78758 0.31164 0.17622 0.0
C653 C 0.69851 0.22452 0.17984 0.0
C654 C 0.72975 0.25379 0.17839 0.0
H655 H 0.8809 0.38212 0.15295 0.0
H656 H 0.83367 0.32941 0.15441 0.0
H657 H 0.79262 0.31165 0.20183 0.0
H658 H 0.63587 0.19638 0.20372 0.0
H659 H 0.68569 0.24504 0.20002 0.0
C660 C 0.97965 0.48696 0.10872 0.0
C661 C 0.99966 0.51515 0.11843 0.0
C662 C 0.9804 0.48666 0.09218 0.0
C663 C 0.02958 0.52902 0.05956 0.0
H664 H 0.94825 0.49021 0.03523 0.0
C665 C 0.01953 0.54537 0.99283 0.0
C666 C 0.99586 0.51929 0.98306 0.0
C667 C 0.02104 0.54396 0.0093 0.0
C668 C 0.97118 0.50071 0.04179 0.0
H669 H 0.03673 0.56491 0.11831 0.0
H670 H 0.03808 0.56427 0.0894 0.0
H671 H 0.94929 0.48924 0.06404 0.0
H672 H 0.95592 0.47091 0.98278 0.0
H673 H 0.95881 0.46819 0.01149 0.0
H674 H 0.05151 0.5404 0.03731 0.0
C675 C 0.02189 0.54242 0.09464 0.0
C676 C 0.97175 0.5002 0.05832 0.0
C677 C 0.021 0.5428 0.1112 0.0
C678 C 0.97411 0.49155 0.99005 0.0
C679 C 0.97575 0.49004 0.0065 0.0
C680 C 0.02903 0.52936 0.043 0.0
C681 C 0.00132 0.51444 0.08496 0.0
C682 C 0.00094 0.51445 0.06738 0.0
C683 C 0.99903 0.51635 0.01634 0.0
C684 C 0.9998 0.51531 0.03392 0.0
H685 H 0.96302 0.46517 0.11386 0.0
H686 H 0.96456 0.46463 0.08502 0.0
H687 H 0.05243 0.53988 0.06623 0.0
H688 H 0.03638 0.56721 0.98779 0.0
H689 H 0.03897 0.56484 0.01653 0.0
C690 C 0.52799 0.03363 0.44553 0.0
C691 C 0.54271 0.01751 0.45182 0.0
C692 C 0.52977 0.03941 0.42947 0.0
C693 C 0.57581 0.04585 0.39439 0.0
H694 H 0.497 0.02388 0.37065 0.0
C695 C 0.5674 0.04156 0.32588 0.0
C696 C 0.54811 0.05215 0.31881 0.0
C697 C 0.56733 0.03831 0.34222 0.0
C698 C 0.51933 0.03062 0.37713 0.0
H699 H 0.57166 0.9957 0.44626 0.0
H700 H 0.57487 0.00599 0.41821 0.0
H701 H 0.49651 0.01748 0.39907 0.0
H702 H 0.51413 0.06824 0.3233 0.0
H703 H 0.51442 0.06319 0.35187 0.0
H704 H 0.59877 0.05932 0.37252 0.0
C705 C 0.56196 0.0141 0.42574 0.0
C706 C 0.519 0.02688 0.39341 0.0
C707 C 0.55996 0.00807 0.44178 0.0
C708 C 0.52891 0.05962 0.32841 0.0
C709 C 0.52905 0.05664 0.34477 0.0
C710 C 0.57621 0.04987 0.37812 0.0
C711 C 0.54655 0.02948 0.41938 0.0
C712 C 0.5472 0.03432 0.40219 0.0
C713 C 0.54818 0.04584 0.35188 0.0
C714 C 0.54793 0.04216 0.36926 0.0
H715 H 0.51456 0.04129 0.45294 0.0
H716 H 0.51797 0.05165 0.42493 0.0
H717 H 0.59797 0.05211 0.40091 0.0
H718 H 0.58213 0.03524 0.31872 0.0
H719 H 0.58192 0.02937 0.34722 0.0
C720 C 0.55613 0.53488 0.77674 0.0
C721 C 0.52656 0.52161 0.78378 0.0
C722 C 0.55751 0.5344 0.76023 0.0
C723 C 0.5098 0.52715 0.72378 0.0
H724 H 0.57628 0.51859 0.70287 0.0
C725 C 0.51809 0.52286 0.65544 0.0
C726 C 0.54847 0.54314 0.65005 0.0
C727 C 0.51427 0.51762 0.67155 0.0
C728 C 0.55767 0.52114 0.70857 0.0
H729 H 0.47518 0.49634 0.77892 0.0
H730 H 0.47756 0.49483 0.75006 0.0
H731 H 0.57114 0.51297 0.73135 0.0
H732 H 0.59873 0.57326 0.6572 0.0
H733 H 0.59208 0.56404 0.68537 0.0
H734 H 0.49633 0.53517 0.70092 0.0
C735 C 0.49974 0.50633 0.75734 0.0
C736 C 0.55475 0.51801 0.72489 0.0
C737 C 0.49836 0.50702 0.77389 0.0
C738 C 0.57501 0.55773 0.66105 0.0
C739 C 0.57124 0.55222 0.67713 0.0
C740 C 0.51255 0.52998 0.70743 0.0
C741 C 0.52935 0.52035 0.75031 0.0
C742 C 0.53106 0.52141 0.73275 0.0
C743 C 0.54081 0.53227 0.68255 0.0
C744 C 0.53677 0.52742 0.69971 0.0
H745 H 0.57835 0.54633 0.78399 0.0
H746 H 0.58075 0.54586 0.75527 0.0
H747 H 0.4916 0.53043 0.72945 0.0
H748 H 0.4972 0.51147 0.64723 0.0
H749 H 0.49058 0.50199 0.67541 0.0
C750 C 0.54437 0.98471 0.54732 0.0
C751 C 0.54597 0.01119 0.54041 0.0
C752 C 0.54433 0.98349 0.56382 0.0
C753 C 0.56284 0.03398 0.6019 0.0
H754 H 0.50705 0.95254 0.61863 0.0
C755 C 0.53613 0.02106 0.66852 0.0
C756 C 0.53673 0.99545 0.67531 0.0
C757 C 0.5379 0.02357 0.6521 0.0
C758 C 0.52296 0.97539 0.61414 0.0
H759 H 0.54913 0.05735 0.54551 0.0
H760 H 0.54837 0.05489 0.57425 0.0
H761 H 0.50919 0.95596 0.58996 0.0
H762 H 0.54044 0.95282 0.67008 0.0
H763 H 0.54293 0.95695 0.64147 0.0
H764 H 0.57616 0.0534 0.62618 0.0
C765 C 0.5477 0.03529 0.56693 0.0
C766 C 0.52428 0.97736 0.5977 0.0
C767 C 0.54796 0.03662 0.55042 0.0
C768 C 0.53922 0.97249 0.66526 0.0
C769 C 0.54076 0.97488 0.64886 0.0
C770 C 0.56134 0.03204 0.61836 0.0
C771 C 0.54565 0.0086 0.57383 0.0
C772 C 0.54432 0.00665 0.59136 0.0
C773 C 0.54009 0.00042 0.6421 0.0
C774 C 0.54146 0.00269 0.62464 0.0
H775 H 0.54309 0.96482 0.53999 0.0
H776 H 0.54336 0.96285 0.56873 0.0
H777 H 0.57887 0.05682 0.59745 0.0
H778 H 0.53378 0.03893 0.67585 0.0
H779 H 0.53696 0.04332 0.6472 0.0
C780 C 0.53724 0.50859 0.8816 0.0
C781 C 0.52182 0.52224 0.87352 0.0
C782 C 0.53541 0.50641 0.89801 0.0
C783 C 0.48917 0.50918 0.9321 0.0
H784 H 0.56495 0.5247 0.95669 0.0
C785 C 0.50203 0.5234 0.00128 0.0
C786 C 0.51676 0.50815 0.00853 0.0
C787 C 0.50087 0.52419 0.98474 0.0
C788 C 0.54349 0.52 0.94997 0.0
H789 H 0.49227 0.54425 0.87642 0.0
H790 H 0.48969 0.54108 0.90513 0.0
H791 H 0.56673 0.5285 0.92808 0.0
H792 H 0.54028 0.48033 0.00395 0.0
H793 H 0.53858 0.48207 0.97519 0.0
H794 H 0.46618 0.50117 0.95418 0.0
C795 C 0.50272 0.53152 0.89871 0.0
C796 C 0.54447 0.5221 0.93355 0.0
C797 C 0.50436 0.5335 0.88225 0.0
C798 C 0.52942 0.49292 -0.00119 0.0
C799 C 0.52842 0.49386 0.98232 0.0
C800 C 0.48827 0.50728 0.94859 0.0
C801 C 0.51835 0.51807 0.90681 0.0
C802 C 0.51727 0.51647 0.92437 0.0
C803 C 0.51455 0.50989 0.97511 0.0
C804 C 0.51536 0.51242 0.95767 0.0
H805 H 0.55065 0.4994 0.87525 0.0
H806 H 0.54722 0.49533 0.90378 0.0
H807 H 0.46767 0.50433 0.92539 0.0
H808 H 0.4923 0.53561 0.00842 0.0
H809 H 0.49021 0.53689 0.97952 0.0
C810 C 0.97857 0.49061 0.21539 0.0
C811 C 0.0042 0.51564 0.20836 0.0
C812 C 0.97939 0.48848 0.23179 0.0
C813 C 0.01479 0.53609 0.26967 0.0
H814 H 0.98877 0.45369 0.28581 0.0
C815 C 0.02074 0.52088 0.33704 0.0
C816 C 0.99559 0.49319 0.34268 0.0
C817 C 0.02338 0.52432 0.32071 0.0
C818 C 0.99573 0.47682 0.28152 0.0
H819 H 0.05078 0.55814 0.21313 0.0
H820 H 0.05198 0.5545 0.24191 0.0
H821 H 0.99053 0.45842 0.25723 0.0
H822 H 0.95361 0.44731 0.33543 0.0
H823 H 0.95748 0.45384 0.30712 0.0
H824 H 0.01926 0.55438 0.29393 0.0
C825 C 0.03131 0.53658 0.23463 0.0
C826 C 0.99685 0.47952 0.26514 0.0
C827 C 0.03066 0.53855 0.21816 0.0
C828 C 0.97305 0.46916 0.33157 0.0
C829 C 0.97557 0.47269 0.31528 0.0
C830 C 0.01341 0.53334 0.28608 0.0
C831 C 0.00571 0.51145 0.24159 0.0
C832 C 0.00612 0.5091 0.25903 0.0
C833 C 0.00086 0.50021 0.30962 0.0
C834 C 0.00358 0.50358 0.29221 0.0
H835 H 0.95781 0.47252 0.20822 0.0
H836 H 0.95916 0.46905 0.23684 0.0
H837 H 0.02174 0.55913 0.26528 0.0
H838 H 0.03834 0.54004 0.34525 0.0
H839 H 0.04332 0.54572 0.31678 0.0
loop_
_geom_bond_atom_site_label_1
_geom_bond_atom_site_label_2
_geom_bond_distance
_geom_bond_site_symmetry_2
_ccdc_geom_bond_type
Zn0 O6 1.969 . S
Zn0 O7 1.965 . S
Zn0 O11 2.024 . S
Zn0 O16 1.969 . S
Zn1 O8 1.969 . S
Zn1 O14 1.969 . S
Zn1 O15 1.965 . S
Zn1 O17 2.024 . S
C2 O3 1.229 . S
C2 O11 1.058 . S
O3 C2 1.229 . S
C4 O5 1.229 . S
C4 O17 1.058 . S
O5 C4 1.229 . S
O6 Zn0 1.969 . S
O6 C9 1.267 . S
O7 Zn0 1.965 . S
O7 C18 1.260 1_455 S
O8 Zn1 1.969 . S
O8 C18 1.258 . S
C9 O6 1.267 . S
C9 O10 1.228 . S
O10 C9 1.228 . S
O11 Zn0 2.024 . S
O11 C2 1.058 . S
C12 O13 1.228 . S
C12 O14 1.267 . S
O13 C12 1.228 . S
O14 Zn1 1.969 . S
O14 C12 1.267 . S
O15 Zn1 1.965 . S
O15 C19 1.260 1_655 S
O16 Zn0 1.969 . S
O16 C19 1.258 . S
O17 Zn1 2.024 . S
O17 C4 1.058 . S
C18 O7 1.260 1_655 S
C18 O8 1.258 . S
C19 O15 1.260 1_455 S
C19 O16 1.258 . S
Zn20 O26 1.969 . S
Zn20 O27 1.965 . S
Zn20 O31 2.024 . S
Zn20 O36 1.969 . S
Zn21 O28 1.969 . S
Zn21 O34 1.969 . S
Zn21 O35 1.977 . S
Zn21 O37 2.024 . S
C22 O23 1.229 . S
C22 O31 1.058 . S
O23 C22 1.229 . S
C24 O25 1.229 . S
C24 O37 1.058 . S
O25 C24 1.229 . S
O26 Zn20 1.969 . S
O26 C29 1.267 . S
O27 Zn20 1.965 . S
O27 C38 1.260 . S
O28 Zn21 1.969 . S
O28 C38 1.258 1_565 S
C29 O26 1.267 . S
C29 O30 1.228 . S
O30 C29 1.228 . S
O31 Zn20 2.024 . S
O31 C22 1.058 . S
C32 O33 1.228 . S
C32 O34 1.267 . S
O33 C32 1.228 . S
O34 Zn21 1.969 . S
O34 C32 1.267 . S
O35 Zn21 1.977 . S
O35 C39 1.242 1_565 S
O36 Zn20 1.969 . S
O36 C39 1.258 . S
O37 Zn21 2.024 . S
O37 C24 1.058 . S
C38 O27 1.260 . S
C38 O28 1.258 1_545 S
C39 O35 1.242 1_545 S
C39 O36 1.258 . S
Zn40 O46 1.969 . S
Zn40 O47 1.965 . S
Zn40 O51 2.024 . S
Zn40 O56 1.969 . S
Zn41 O48 1.969 . S
Zn41 O54 1.969 . S
Zn41 O55 1.965 . S
Zn41 O57 2.024 . S
C42 O43 1.229 . S
C42 O51 1.058 . S
O43 C42 1.229 . S
C44 O45 1.229 . S
C44 O57 1.058 . S
O45 C44 1.229 . S
O46 Zn40 1.969 . S
O46 C49 1.267 . S
O47 Zn40 1.965 . S
O47 C58 1.260 . S
O48 Zn41 1.969 . S
O48 C58 1.258 . S
C49 O46 1.267 . S
C49 O50 1.228 . S
O50 C49 1.228 . S
O51 Zn40 2.024 . S
O51 C42 1.058 . S
C52 O53 1.228 . S
C52 O54 1.267 . S
O53 C52 1.228 . S
O54 Zn41 1.969 . S
O54 C52 1.267 . S
O55 Zn41 1.965 . S
O55 C59 1.260 . S
O56 Zn40 1.969 . S
O56 C59 1.258 . S
O57 Zn41 2.024 . S
O57 C44 1.058 . S
C58 O47 1.260 . S
C58 O48 1.258 . S
C59 O55 1.260 . S
C59 O56 1.258 . S
C60 C61 1.264 . S
C60 C65 1.479 . S
C60 C70 1.465 . S
C61 C60 1.264 . S
C61 C63 1.339 . S
C61 H88 0.931 . S
C62 C63 1.395 . S
C62 C64 1.320 . S
C63 C61 1.339 . S
C63 C62 1.395 . S
C63 H89 0.929 . S
C64 C62 1.320 . S
C64 C65 1.405 . S
C64 H90 0.930 . S
C65 C60 1.479 . S
C65 C64 1.405 . S
C65 H91 0.931 . S
U66 O67 2.454 . S
U66 O68 2.458 1_545 S
U66 C69 2.984 1_545 S
U66 C70 2.847 . S
U66 C83 2.882 . S
U66 O84 2.441 . S
U66 O85 2.420 . S
U66 O86 2.455 . S
U66 O87 2.449 . S
O67 U66 2.454 . S
O67 C69 1.353 1_545 S
O68 U66 2.458 1_565 S
O68 C69 1.286 . S
C69 U66 2.984 1_565 S
C69 O67 1.353 1_565 S
C69 O68 1.286 . S
C69 C71 1.363 . S
C70 C60 1.465 . S
C70 U66 2.847 . S
C70 O84 1.249 . S
C70 O85 1.202 . S
C71 C69 1.363 . S
C71 C73 1.408 . S
C71 C76 1.342 . S
C72 C73 1.310 . S
C72 C75 1.461 . S
C72 H92 0.932 . S
C73 C71 1.408 . S
C73 C72 1.310 . S
C73 H93 0.930 . S
C74 C75 1.474 . S
C74 C76 1.285 . S
C74 H94 0.929 . S
C75 C72 1.461 . S
C75 C74 1.474 . S
C76 C71 1.342 . S
C76 C74 1.285 . S
C76 H95 0.930 . S
C77 C80 1.424 . S
C77 C82 1.245 . S
C77 C83 1.428 . S
C78 C81 1.260 . S
C78 C82 1.477 . S
C78 H96 0.932 . S
C79 C80 1.384 . S
C79 C81 1.479 . S
C79 H97 0.929 . S
C80 C77 1.424 . S
C80 C79 1.384 . S
C80 H98 0.928 . S
C81 C78 1.260 . S
C81 C79 1.479 . S
C82 C77 1.245 . S
C82 C78 1.477 . S
C82 H99 0.932 1_545 S
C83 U66 2.882 . S
C83 C77 1.428 . S
C83 O86 1.301 . S
C83 O87 1.282 . S
O84 U66 2.441 . S
O84 C70 1.249 . S
O85 U66 2.420 . S
O85 C70 1.202 . S
O86 U66 2.455 . S
O86 C83 1.301 . S
O87 U66 2.449 . S
O87 C83 1.282 . S
H88 C61 0.931 . S
H89 C63 0.929 . S
H90 C64 0.930 . S
H91 C65 0.931 . S
H92 C72 0.932 . S
H93 C73 0.930 . S
H94 C74 0.929 . S
H95 C76 0.930 . S
H96 C78 0.932 . S
H97 C79 0.929 . S
H98 C80 0.928 . S
H99 C82 0.932 1_565 S
C100 C101 1.264 . S
C100 C105 1.479 . S
C100 C110 1.465 . S
C101 C100 1.264 . S
C101 C103 1.339 . S
C101 H128 0.931 . S
C102 C103 1.395 . S
C102 C104 1.320 . S
C103 C101 1.339 . S
C103 C102 1.395 . S
C103 H129 0.929 . S
C104 C102 1.320 . S
C104 C105 1.405 . S
C104 H130 0.930 . S
C105 C100 1.479 . S
C105 C104 1.405 . S
C105 H131 0.931 . S
U106 O107 2.454 . S
U106 O108 2.458 . S
U106 C109 2.984 . S
U106 C110 2.847 . S
U106 C123 2.882 . S
U106 O124 2.441 . S
U106 O125 2.420 . S
U106 O126 2.455 . S
U106 O127 2.449 . S
O107 U106 2.454 . S
O107 C109 1.353 . S
O108 U106 2.458 . S
O108 C109 1.286 . S
C109 U106 2.984 . S
C109 O107 1.353 . S
C109 O108 1.286 . S
C109 C111 1.363 . S
C110 C100 1.465 . S
C110 U106 2.847 . S
C110 O124 1.249 . S
C110 O125 1.202 . S
C111 C109 1.363 . S
C111 C113 1.408 . S
C111 C116 1.342 . S
C112 C113 1.310 . S
C112 C115 1.461 . S
C112 H132 0.932 . S
C113 C111 1.408 . S
C113 C112 1.310 . S
C113 H133 0.930 . S
C114 C115 1.474 . S
C114 C116 1.285 . S
C114 H134 0.929 . S
C115 C112 1.461 . S
C115 C114 1.474 . S
C116 C111 1.342 . S
C116 C114 1.285 . S
C116 H135 0.930 . S
C117 C120 1.424 . S
C117 C122 1.245 . S
C117 C123 1.428 . S
C118 C121 1.260 . S
C118 C122 1.477 . S
C118 H136 0.932 . S
C119 C120 1.384 . S
C119 C121 1.479 . S
C119 H137 0.929 . S
C120 C117 1.424 . S
C120 C119 1.384 . S
C120 H138 0.928 . S
C121 C118 1.260 . S
C121 C119 1.479 . S
C122 C117 1.245 . S
C122 C118 1.477 . S
C122 H139 0.932 . S
C123 U106 2.882 . S
C123 C117 1.428 . S
C123 O126 1.301 . S
C123 O127 1.282 . S
O124 U106 2.441 . S
O124 C110 1.249 . S
O125 U106 2.420 . S
O125 C110 1.202 . S
O126 U106 2.455 . S
O126 C123 1.301 . S
O127 U106 2.449 . S
O127 C123 1.282 . S
H128 C101 0.931 . S
H129 C103 0.929 . S
H130 C104 0.930 . S
H131 C105 0.931 . S
H132 C112 0.932 . S
H133 C113 0.930 . S
H134 C114 0.929 . S
H135 C116 0.930 . S
H136 C118 0.932 . S
H137 C119 0.929 . S
H138 C120 0.928 . S
H139 C122 0.932 . S
C140 C141 1.264 . S
C140 C145 1.479 . S
C140 C150 1.465 . S
C141 C140 1.264 . S
C141 C143 1.339 . S
C141 H168 0.931 . S
C142 C143 1.395 . S
C142 C144 1.320 . S
C143 C141 1.339 . S
C143 C142 1.395 . S
C143 H169 0.929 . S
C144 C142 1.320 . S
C144 C145 1.405 . S
C144 H170 0.930 . S
C145 C140 1.479 . S
C145 C144 1.405 . S
C145 H171 0.931 . S
U146 O147 2.454 . S
U146 O148 2.458 . S
U146 C149 2.984 . S
U146 C150 2.847 1_455 S
U146 C163 2.882 . S
U146 O164 2.441 . S
U146 O165 2.420 1_455 S
U146 O166 2.455 . S
U146 O167 2.449 . S
O147 U146 2.454 . S
O147 C149 1.353 . S
O148 U146 2.458 . S
O148 C149 1.286 . S
C149 U146 2.984 . S
C149 O147 1.353 . S
C149 O148 1.286 . S
C149 C151 1.363 . S
C150 C140 1.465 . S
C150 U146 2.847 1_655 S
C150 O164 1.249 1_655 S
C150 O165 1.202 . S
C151 C149 1.363 . S
C151 C153 1.408 . S
C151 C156 1.342 . S
C152 C153 1.310 . S
C152 C155 1.461 . S
C152 H172 0.932 . S
C153 C151 1.408 . S
C153 C152 1.310 . S
C153 H173 0.930 . S
C154 C155 1.474 . S
C154 C156 1.285 . S
C154 H174 0.929 . S
C155 C152 1.461 . S
C155 C154 1.474 . S
C156 C151 1.342 . S
C156 C154 1.285 . S
C156 H175 0.930 . S
C157 C160 1.424 . S
C157 C162 1.245 . S
C157 C163 1.428 . S
C158 C161 1.260 . S
C158 C162 1.477 . S
C158 H176 0.932 . S
C159 C160 1.384 . S
C159 C161 1.479 . S
C159 H177 0.929 1_455 S
C160 C157 1.424 . S
C160 C159 1.384 . S
C160 H178 0.928 1_455 S
C161 C158 1.260 . S
C161 C159 1.479 . S
C162 C157 1.245 . S
C162 C158 1.477 . S
C162 H179 0.932 . S
C163 U146 2.882 . S
C163 C157 1.428 . S
C163 O166 1.301 . S
C163 O167 1.282 . S
O164 U146 2.441 . S
O164 C150 1.249 1_455 S
O165 U146 2.420 1_655 S
O165 C150 1.202 . S
O166 U146 2.455 . S
O166 C163 1.301 . S
O167 U146 2.449 . S
O167 C163 1.282 . S
H168 C141 0.931 . S
H169 C143 0.929 . S
H170 C144 0.930 . S
H171 C145 0.931 . S
H172 C152 0.932 . S
H173 C153 0.930 . S
H174 C154 0.929 . S
H175 C156 0.930 . S
H176 C158 0.932 . S
H177 C159 0.929 1_655 S
H178 C160 0.928 1_655 S
H179 C162 0.932 . S
C180 C181 1.264 . S
C180 C185 1.479 . S
C180 C190 1.465 . S
C181 C180 1.264 . S
C181 C183 1.339 . S
C181 H208 0.931 . S
C182 C183 1.395 . S
C182 C184 1.320 . S
C183 C181 1.339 . S
C183 C182 1.395 . S
C183 H209 0.929 . S
C184 C182 1.320 . S
C184 C185 1.405 . S
C184 H210 0.930 . S
C185 C180 1.479 . S
C185 C184 1.405 . S
C185 H211 0.931 . S
U186 O187 2.454 . S
U186 O188 2.458 . S
U186 C189 2.984 . S
U186 C190 2.847 1_455 S
U186 C203 2.882 . S
U186 O204 2.441 1_455 S
U186 O205 2.420 1_455 S
U186 O206 2.455 . S
U186 O207 2.449 1_455 S
O187 U186 2.454 . S
O187 C189 1.353 . S
O188 U186 2.458 . S
O188 C189 1.286 . S
C189 U186 2.984 . S
C189 O187 1.353 . S
C189 O188 1.286 . S
C189 C191 1.363 . S
C190 C180 1.465 . S
C190 U186 2.847 1_655 S
C190 O204 1.249 . S
C190 O205 1.202 . S
C191 C189 1.363 . S
C191 C193 1.408 . S
C191 C196 1.342 . S
C192 C193 1.310 . S
C192 C195 1.461 . S
C192 H212 0.932 . S
C193 C191 1.408 . S
C193 C192 1.310 . S
C193 H213 0.930 . S
C194 C195 1.474 . S
C194 C196 1.285 . S
C194 H214 0.929 . S
C195 C192 1.461 . S
C195 C194 1.474 . S
C196 C191 1.342 . S
C196 C194 1.285 . S
C196 H215 0.930 . S
C197 C200 1.424 1_455 S
C197 C202 1.245 . S
C197 C203 1.428 . S
C198 C201 1.260 . S
C198 C202 1.477 . S
C198 H216 0.932 . S
C199 C200 1.384 . S
C199 C201 1.479 1_655 S
C199 H217 0.929 . S
C200 C197 1.424 1_655 S
C200 C199 1.384 . S
C200 H218 0.928 . S
C201 C198 1.260 . S
C201 C199 1.479 1_455 S
C202 C197 1.245 . S
C202 C198 1.477 . S
C202 H219 0.932 . S
C203 U186 2.882 . S
C203 C197 1.428 . S
C203 O206 1.301 . S
C203 O207 1.282 1_455 S
O204 U186 2.441 1_655 S
O204 C190 1.249 . S
O205 U186 2.420 1_655 S
O205 C190 1.202 . S
O206 U186 2.455 . S
O206 C203 1.301 . S
O207 U186 2.449 1_655 S
O207 C203 1.282 1_655 S
H208 C181 0.931 . S
H209 C183 0.929 . S
H210 C184 0.930 . S
H211 C185 0.931 . S
H212 C192 0.932 . S
H213 C193 0.930 . S
H214 C194 0.929 . S
H215 C196 0.930 . S
H216 C198 0.932 . S
H217 C199 0.929 . S
H218 C200 0.928 . S
H219 C202 0.932 . S
C220 C221 1.264 . S
C220 C225 1.479 . S
C220 C230 1.465 . S
C221 C220 1.264 . S
C221 C223 1.339 . S
C221 H248 0.931 . S
C222 C223 1.395 . S
C222 C224 1.320 . S
C223 C221 1.339 . S
C223 C222 1.395 . S
C223 H249 0.929 . S
C224 C222 1.320 . S
C224 C225 1.405 . S
C224 H250 0.930 . S
C225 C220 1.479 . S
C225 C224 1.405 . S
C225 H251 0.931 . S
U226 O227 2.454 . S
U226 O228 2.458 . S
U226 C229 2.984 . S
U226 C230 2.847 1_545 S
U226 C243 2.882 . S
U226 O244 2.441 1_545 S
U226 O245 2.420 1_545 S
U226 O246 2.455 . S
U226 O247 2.449 1_545 S
O227 U226 2.454 . S
O227 C229 1.353 . S
O228 U226 2.458 . S
O228 C229 1.286 . S
C229 U226 2.984 . S
C229 O227 1.353 . S
C229 O228 1.286 . S
C229 C231 1.363 . S
C230 C220 1.465 . S
C230 U226 2.847 1_565 S
C230 O244 1.249 . S
C230 O245 1.202 . S
C231 C229 1.363 . S
C231 C233 1.408 . S
C231 C236 1.342 . S
C232 C233 1.310 . S
C232 C235 1.461 . S
C232 H252 0.932 . S
C233 C231 1.408 . S
C233 C232 1.310 . S
C233 H253 0.930 . S
C234 C235 1.474 . S
C234 C236 1.285 . S
C234 H254 0.929 . S
C235 C232 1.461 . S
C235 C234 1.474 . S
C236 C231 1.342 . S
C236 C234 1.285 . S
C236 H255 0.930 . S
C237 C240 1.424 1_545 S
C237 C242 1.245 . S
C237 C243 1.428 . S
C238 C241 1.260 . S
C238 C242 1.477 . S
C238 H256 0.932 . S
C239 C240 1.384 . S
C239 C241 1.479 1_565 S
C239 H257 0.929 . S
C240 C237 1.424 1_565 S
C240 C239 1.384 . S
C240 H258 0.928 . S
C241 C238 1.260 . S
C241 C239 1.479 1_545 S
C242 C237 1.245 . S
C242 C238 1.477 . S
C242 H259 0.932 . S
C243 U226 2.882 . S
C243 C237 1.428 . S
C243 O246 1.301 . S
C243 O247 1.282 1_545 S
O244 U226 2.441 1_565 S
O244 C230 1.249 . S
O245 U226 2.420 1_565 S
O245 C230 1.202 . S
O246 U226 2.455 . S
O246 C243 1.301 . S
O247 U226 2.449 1_565 S
O247 C243 1.282 1_565 S
H248 C221 0.931 . S
H249 C223 0.929 . S
H250 C224 0.930 . S
H251 C225 0.931 . S
H252 C232 0.932 . S
H253 C233 0.930 . S
H254 C234 0.929 . S
H255 C236 0.930 . S
H256 C238 0.932 . S
H257 C239 0.929 . S
H258 C240 0.928 . S
H259 C242 0.932 . S
C260 C261 1.264 . S
C260 C265 1.479 . S
C260 C270 1.465 . S
C261 C260 1.264 . S
C261 C263 1.339 . S
C261 H288 0.931 . S
C262 C263 1.395 . S
C262 C264 1.320 . S
C263 C261 1.339 . S
C263 C262 1.395 . S
C263 H289 0.929 . S
C264 C262 1.320 . S
C264 C265 1.405 . S
C264 H290 0.930 . S
C265 C260 1.479 . S
C265 C264 1.405 . S
C265 H291 0.931 . S
U266 O267 2.454 . S
U266 O268 2.458 . S
U266 C269 2.984 . S
U266 C270 2.847 . S
U266 C283 2.882 . S
U266 O284 2.441 . S
U266 O285 2.420 . S
U266 O286 2.455 . S
U266 O287 2.449 . S
O267 U266 2.454 . S
O267 C269 1.353 . S
O268 U266 2.458 . S
O268 C269 1.286 . S
C269 U266 2.984 . S
C269 O267 1.353 . S
C269 O268 1.286 . S
C269 C271 1.363 . S
C270 C260 1.465 . S
C270 U266 2.847 . S
C270 O284 1.249 . S
C270 O285 1.202 . S
C271 C269 1.363 . S
C271 C273 1.408 . S
C271 C276 1.342 . S
C272 C273 1.310 . S
C272 C275 1.461 . S
C272 H292 0.932 . S
C273 C271 1.408 . S
C273 C272 1.310 . S
C273 H293 0.930 . S
C274 C275 1.474 . S
C274 C276 1.285 . S
C274 H294 0.929 . S
C275 C272 1.461 . S
C275 C274 1.474 . S
C276 C271 1.342 . S
C276 C274 1.285 . S
C276 H295 0.930 . S
C277 C280 1.424 . S
C277 C282 1.245 . S
C277 C283 1.428 . S
C278 C281 1.260 . S
C278 C282 1.477 . S
C278 H296 0.932 . S
C279 C280 1.384 . S
C279 C281 1.479 . S
C279 H297 0.929 . S
C280 C277 1.424 . S
C280 C279 1.384 . S
C280 H298 0.928 . S
C281 C278 1.260 . S
C281 C279 1.479 . S
C282 C277 1.245 . S
C282 C278 1.477 . S
C282 H299 0.932 . S
C283 U266 2.882 . S
C283 C277 1.428 . S
C283 O286 1.301 . S
C283 O287 1.282 . S
O284 U266 2.441 . S
O284 C270 1.249 . S
O285 U266 2.420 . S
O285 C270 1.202 . S
O286 U266 2.455 . S
O286 C283 1.301 . S
O287 U266 2.449 . S
O287 C283 1.282 . S
H288 C261 0.931 . S
H289 C263 0.929 . S
H290 C264 0.930 . S
H291 C265 0.931 . S
H292 C272 0.932 . S
H293 C273 0.930 . S
H294 C274 0.929 . S
H295 C276 0.930 . S
H296 C278 0.932 . S
H297 C279 0.929 . S
H298 C280 0.928 . S
H299 C282 0.932 . S
C300 C301 1.349 . S
C300 C302 1.327 . S
C300 H325 0.950 . S
C301 C300 1.349 . S
C301 C317 1.349 . S
C302 C300 1.327 . S
C302 C321 1.429 . S
C302 H326 0.950 . S
C303 C320 1.574 . S
C303 C322 1.368 . S
C303 H327 0.949 . S
H304 C308 0.949 . S
C305 C306 1.349 . S
C305 C307 1.327 . S
C305 H328 0.950 . S
C306 C305 1.349 . S
C306 C318 1.349 . S
C307 C305 1.327 . S
C307 C323 1.429 . S
C307 H329 0.950 . S
C308 H304 0.949 . S
C308 C316 1.574 . S
C308 C324 1.368 . S
H309 C317 0.950 . S
H310 C315 0.950 . S
H311 C316 0.949 . S
H312 C318 0.950 . S
H313 C319 0.950 . S
H314 C320 0.949 . S
C315 H310 0.950 . S
C315 C317 1.327 . S
C315 C321 1.429 . S
C316 C308 1.574 . S
C316 H311 0.949 . S
C316 C322 1.368 . S
C317 C301 1.349 . S
C317 H309 0.950 . S
C317 C315 1.327 . S
C318 C306 1.349 . S
C318 H312 0.950 . S
C318 C319 1.327 . S
C319 H313 0.950 . S
C319 C318 1.327 . S
C319 C323 1.429 . S
C320 C303 1.574 . S
C320 H314 0.949 . S
C320 C324 1.368 . S
C321 C302 1.429 . S
C321 C315 1.429 . S
C321 C322 1.523 . S
C322 C303 1.368 . S
C322 C316 1.368 . S
C322 C321 1.523 . S
C323 C307 1.429 . S
C323 C319 1.429 . S
C323 C324 1.523 . S
C324 C308 1.368 . S
C324 C320 1.368 . S
C324 C323 1.523 . S
H325 C300 0.950 . S
H326 C302 0.950 . S
H327 C303 0.949 . S
H328 C305 0.950 . S
H329 C307 0.950 . S
C330 C331 1.349 . S
C330 C332 1.327 . S
C330 H355 0.950 . S
C331 C330 1.349 . S
C331 C347 1.349 . S
C332 C330 1.327 . S
C332 C351 1.429 . S
C332 H356 0.950 . S
C333 C350 1.574 . S
C333 C352 1.368 . S
C333 H357 0.949 . S
H334 C338 0.949 . S
C335 C336 1.349 . S
C335 C337 1.327 . S
C335 H358 0.950 . S
C336 C335 1.349 . S
C336 C348 1.349 . S
C337 C335 1.327 . S
C337 C353 1.429 . S
C337 H359 0.950 . S
C338 H334 0.949 . S
C338 C346 1.574 . S
C338 C354 1.368 . S
H339 C347 0.950 . S
H340 C345 0.950 . S
H341 C346 0.949 . S
H342 C348 0.950 . S
H343 C349 0.950 . S
H344 C350 0.949 . S
C345 H340 0.950 . S
C345 C347 1.327 . S
C345 C351 1.429 . S
C346 C338 1.574 . S
C346 H341 0.949 . S
C346 C352 1.368 . S
C347 C331 1.349 . S
C347 H339 0.950 . S
C347 C345 1.327 . S
C348 C336 1.349 . S
C348 H342 0.950 . S
C348 C349 1.327 . S
C349 H343 0.950 . S
C349 C348 1.327 . S
C349 C353 1.429 . S
C350 C333 1.574 . S
C350 H344 0.949 . S
C350 C354 1.368 . S
C351 C332 1.429 . S
C351 C345 1.429 . S
C351 C352 1.523 . S
C352 C333 1.368 . S
C352 C346 1.368 . S
C352 C351 1.523 . S
C353 C337 1.429 . S
C353 C349 1.429 . S
C353 C354 1.523 . S
C354 C338 1.368 . S
C354 C350 1.368 . S
C354 C353 1.523 . S
H355 C330 0.950 . S
H356 C332 0.950 . S
H357 C333 0.949 . S
H358 C335 0.950 . S
H359 C337 0.950 . S
C360 C361 1.349 . S
C360 C362 1.327 . S
C360 H385 0.950 . S
C361 C360 1.349 . S
C361 C377 1.349 . S
C362 C360 1.327 . S
C362 C381 1.429 . S
C362 H386 0.950 . S
C363 C380 1.574 . S
C363 C382 1.368 . S
C363 H387 0.949 . S
H364 C368 0.949 . S
C365 C366 1.349 . S
C365 C367 1.327 . S
C365 H388 0.950 . S
C366 C365 1.349 . S
C366 C378 1.349 . S
C367 C365 1.327 . S
C367 C383 1.429 . S
C367 H389 0.950 . S
C368 H364 0.949 . S
C368 C376 1.574 . S
C368 C384 1.368 . S
H369 C377 0.950 . S
H370 C375 0.950 . S
H371 C376 0.949 . S
H372 C378 0.950 . S
H373 C379 0.950 . S
H374 C380 0.949 . S
C375 H370 0.950 . S
C375 C377 1.327 . S
C375 C381 1.429 . S
C376 C368 1.574 . S
C376 H371 0.949 . S
C376 C382 1.368 . S
C377 C361 1.349 . S
C377 H369 0.950 . S
C377 C375 1.327 . S
C378 C366 1.349 . S
C378 H372 0.950 . S
C378 C379 1.327 . S
C379 H373 0.950 . S
C379 C378 1.327 . S
C379 C383 1.429 . S
C380 C363 1.574 . S
C380 H374 0.949 . S
C380 C384 1.368 . S
C381 C362 1.429 . S
C381 C375 1.429 . S
C381 C382 1.523 . S
C382 C363 1.368 . S
C382 C376 1.368 . S
C382 C381 1.523 . S
C383 C367 1.429 . S
C383 C379 1.429 . S
C383 C384 1.523 . S
C384 C368 1.368 . S
C384 C380 1.368 . S
C384 C383 1.523 . S
H385 C360 0.950 . S
H386 C362 0.950 . S
H387 C363 0.949 . S
H388 C365 0.950 . S
H389 C367 0.950 . S
C390 C391 1.349 . S
C390 C392 1.327 . S
C390 H415 0.950 . S
C391 C390 1.349 . S
C391 C407 1.349 . S
C392 C390 1.327 . S
C392 C411 1.429 . S
C392 H416 0.950 . S
C393 C410 1.574 . S
C393 C412 1.368 . S
C393 H417 0.949 . S
H394 C398 0.949 . S
C395 C396 1.349 . S
C395 C397 1.327 . S
C395 H418 0.950 . S
C396 C395 1.349 . S
C396 C408 1.349 . S
C397 C395 1.327 . S
C397 C413 1.429 . S
C397 H419 0.950 . S
C398 H394 0.949 . S
C398 C406 1.574 . S
C398 C414 1.368 . S
H399 C407 0.950 . S
H400 C405 0.950 . S
H401 C406 0.949 . S
H402 C408 0.950 . S
H403 C409 0.950 . S
H404 C410 0.949 . S
C405 H400 0.950 . S
C405 C407 1.327 . S
C405 C411 1.429 . S
C406 C398 1.574 . S
C406 H401 0.949 . S
C406 C412 1.368 . S
C407 C391 1.349 . S
C407 H399 0.950 . S
C407 C405 1.327 . S
C408 C396 1.349 . S
C408 H402 0.950 . S
C408 C409 1.327 . S
C409 H403 0.950 . S
C409 C408 1.327 . S
C409 C413 1.429 . S
C410 C393 1.574 . S
C410 H404 0.949 . S
C410 C414 1.368 . S
C411 C392 1.429 . S
C411 C405 1.429 . S
C411 C412 1.523 . S
C412 C393 1.368 . S
C412 C406 1.368 . S
C412 C411 1.523 . S
C413 C397 1.429 . S
C413 C409 1.429 . S
C413 C414 1.523 . S
C414 C398 1.368 . S
C414 C410 1.368 . S
C414 C413 1.523 . S
H415 C390 0.950 . S
H416 C392 0.950 . S
H417 C393 0.949 . S
H418 C395 0.950 . S
H419 C397 0.950 . S
C420 C421 1.349 . S
C420 C422 1.327 . S
C420 H445 0.950 . S
C421 C420 1.349 . S
C421 C437 1.349 . S
C422 C420 1.327 . S
C422 C441 1.429 . S
C422 H446 0.950 . S
C423 C440 1.574 . S
C423 C442 1.368 . S
C423 H447 0.949 . S
H424 C428 0.949 . S
C425 C426 1.349 . S
C425 C427 1.327 . S
C425 H448 0.950 . S
C426 C425 1.349 . S
C426 C438 1.349 . S
C427 C425 1.327 . S
C427 C443 1.429 . S
C427 H449 0.950 . S
C428 H424 0.949 . S
C428 C436 1.574 . S
C428 C444 1.368 . S
H429 C437 0.950 . S
H430 C435 0.950 . S
H431 C436 0.949 . S
H432 C438 0.950 . S
H433 C439 0.950 . S
H434 C440 0.949 . S
C435 H430 0.950 . S
C435 C437 1.327 . S
C435 C441 1.429 . S
C436 C428 1.574 . S
C436 H431 0.949 . S
C436 C442 1.368 . S
C437 C421 1.349 . S
C437 H429 0.950 . S
C437 C435 1.327 . S
C438 C426 1.349 . S
C438 H432 0.950 . S
C438 C439 1.327 . S
C439 H433 0.950 . S
C439 C438 1.327 . S
C439 C443 1.429 . S
C440 C423 1.574 . S
C440 H434 0.949 . S
C440 C444 1.368 . S
C441 C422 1.429 . S
C441 C435 1.429 . S
C441 C442 1.523 . S
C442 C423 1.368 . S
C442 C436 1.368 . S
C442 C441 1.523 . S
C443 C427 1.429 . S
C443 C439 1.429 . S
C443 C444 1.523 . S
C444 C428 1.368 . S
C444 C440 1.368 . S
C444 C443 1.523 . S
H445 C420 0.950 . S
H446 C422 0.950 . S
H447 C423 0.949 . S
H448 C425 0.950 . S
H449 C427 0.950 . S
C450 C451 1.349 . S
C450 C452 1.327 . S
C450 H475 0.950 . S
C451 C450 1.349 . S
C451 C467 1.349 . S
C452 C450 1.327 . S
C452 C471 1.429 . S
C452 H476 0.950 . S
C453 C470 1.574 . S
C453 C472 1.368 . S
C453 H477 0.949 . S
H454 C458 0.949 . S
C455 C456 1.349 . S
C455 C457 1.327 . S
C455 H478 0.950 . S
C456 C455 1.349 . S
C456 C468 1.349 . S
C457 C455 1.327 . S
C457 C473 1.429 . S
C457 H479 0.950 . S
C458 H454 0.949 . S
C458 C466 1.574 . S
C458 C474 1.368 . S
H459 C467 0.950 . S
H460 C465 0.950 . S
H461 C466 0.949 . S
H462 C468 0.950 . S
H463 C469 0.950 . S
H464 C470 0.949 . S
C465 H460 0.950 . S
C465 C467 1.327 . S
C465 C471 1.429 . S
C466 C458 1.574 . S
C466 H461 0.949 . S
C466 C472 1.368 . S
C467 C451 1.349 . S
C467 H459 0.950 . S
C467 C465 1.327 . S
C468 C456 1.349 . S
C468 H462 0.950 . S
C468 C469 1.327 . S
C469 H463 0.950 . S
C469 C468 1.327 . S
C469 C473 1.429 . S
C470 C453 1.574 . S
C470 H464 0.949 . S
C470 C474 1.368 . S
C471 C452 1.429 . S
C471 C465 1.429 . S
C471 C472 1.523 . S
C472 C453 1.368 . S
C472 C466 1.368 . S
C472 C471 1.523 . S
C473 C457 1.429 . S
C473 C469 1.429 . S
C473 C474 1.523 . S
C474 C458 1.368 . S
C474 C470 1.368 . S
C474 C473 1.523 . S
H475 C450 0.950 . S
H476 C452 0.950 . S
H477 C453 0.949 . S
H478 C455 0.950 . S
H479 C457 0.950 . S
C480 C481 1.349 . S
C480 C482 1.327 . S
C480 H505 0.950 . S
C481 C480 1.349 . S
C481 C497 1.349 . S
C482 C480 1.327 . S
C482 C501 1.429 . S
C482 H506 0.950 . S
C483 C500 1.574 . S
C483 C502 1.368 . S
C483 H507 0.949 . S
H484 C488 0.949 . S
C485 C486 1.349 . S
C485 C487 1.327 . S
C485 H508 0.950 . S
C486 C485 1.349 . S
C486 C498 1.349 . S
C487 C485 1.327 . S
C487 C503 1.429 . S
C487 H509 0.950 . S
C488 H484 0.949 . S
C488 C496 1.574 . S
C488 C504 1.368 . S
H489 C497 0.950 . S
H490 C495 0.950 . S
H491 C496 0.949 . S
H492 C498 0.950 . S
H493 C499 0.950 . S
H494 C500 0.949 . S
C495 H490 0.950 . S
C495 C497 1.327 . S
C495 C501 1.429 . S
C496 C488 1.574 . S
C496 H491 0.949 . S
C496 C502 1.368 . S
C497 C481 1.349 . S
C497 H489 0.950 . S
C497 C495 1.327 . S
C498 C486 1.349 . S
C498 H492 0.950 . S
C498 C499 1.327 . S
C499 H493 0.950 . S
C499 C498 1.327 . S
C499 C503 1.429 . S
C500 C483 1.574 . S
C500 H494 0.949 . S
C500 C504 1.368 . S
C501 C482 1.429 . S
C501 C495 1.429 . S
C501 C502 1.523 . S
C502 C483 1.368 . S
C502 C496 1.368 . S
C502 C501 1.523 . S
C503 C487 1.429 . S
C503 C499 1.429 . S
C503 C504 1.523 . S
C504 C488 1.368 . S
C504 C500 1.368 . S
C504 C503 1.523 . S
H505 C480 0.950 . S
H506 C482 0.950 . S
H507 C483 0.949 . S
H508 C485 0.950 . S
H509 C487 0.950 . S
C510 C511 1.349 . S
C510 C512 1.327 . S
C510 H535 0.950 . S
C511 C510 1.349 . S
C511 C527 1.349 . S
C512 C510 1.327 . S
C512 C531 1.429 . S
C512 H536 0.950 . S
C513 C530 1.574 . S
C513 C532 1.368 . S
C513 H537 0.949 . S
H514 C518 0.949 . S
C515 C516 1.349 . S
C515 C517 1.327 . S
C515 H538 0.950 . S
C516 C515 1.349 . S
C516 C528 1.349 . S
C517 C515 1.327 . S
C517 C533 1.429 . S
C517 H539 0.950 . S
C518 H514 0.949 . S
C518 C526 1.574 . S
C518 C534 1.368 . S
H519 C527 0.950 . S
H520 C525 0.950 . S
H521 C526 0.949 . S
H522 C528 0.950 . S
H523 C529 0.950 . S
H524 C530 0.949 . S
C525 H520 0.950 . S
C525 C527 1.327 . S
C525 C531 1.429 . S
C526 C518 1.574 . S
C526 H521 0.949 . S
C526 C532 1.368 . S
C527 C511 1.349 . S
C527 H519 0.950 . S
C527 C525 1.327 . S
C528 C516 1.349 . S
C528 H522 0.950 . S
C528 C529 1.327 . S
C529 H523 0.950 . S
C529 C528 1.327 . S
C529 C533 1.429 . S
C530 C513 1.574 . S
C530 H524 0.949 . S
C530 C534 1.368 . S
C531 C512 1.429 . S
C531 C525 1.429 . S
C531 C532 1.523 . S
C532 C513 1.368 . S
C532 C526 1.368 . S
C532 C531 1.523 . S
C533 C517 1.429 . S
C533 C529 1.429 . S
C533 C534 1.523 . S
C534 C518 1.368 . S
C534 C530 1.368 . S
C534 C533 1.523 . S
H535 C510 0.950 . S
H536 C512 0.950 . S
H537 C513 0.949 . S
H538 C515 0.950 . S
H539 C517 0.950 . S
C540 C541 1.349 . S
C540 C542 1.327 . S
C540 H565 0.950 . S
C541 C540 1.349 . S
C541 C557 1.349 . S
C542 C540 1.327 . S
C542 C561 1.429 . S
C542 H566 0.950 . S
C543 C560 1.574 . S
C543 C562 1.368 . S
C543 H567 0.949 . S
H544 C548 0.949 . S
C545 C546 1.349 . S
C545 C547 1.327 . S
C545 H568 0.950 . S
C546 C545 1.349 . S
C546 C558 1.349 . S
C547 C545 1.327 . S
C547 C563 1.429 . S
C547 H569 0.950 . S
C548 H544 0.949 . S
C548 C556 1.574 . S
C548 C564 1.368 . S
H549 C557 0.950 . S
H550 C555 0.950 . S
H551 C556 0.949 . S
H552 C558 0.950 . S
H553 C559 0.950 . S
H554 C560 0.949 . S
C555 H550 0.950 . S
C555 C557 1.327 . S
C555 C561 1.429 . S
C556 C548 1.574 . S
C556 H551 0.949 . S
C556 C562 1.368 . S
C557 C541 1.349 . S
C557 H549 0.950 . S
C557 C555 1.327 . S
C558 C546 1.349 . S
C558 H552 0.950 . S
C558 C559 1.327 . S
C559 H553 0.950 . S
C559 C558 1.327 . S
C559 C563 1.429 . S
C560 C543 1.574 . S
C560 H554 0.949 . S
C560 C564 1.368 . S
C561 C542 1.429 . S
C561 C555 1.429 . S
C561 C562 1.523 . S
C562 C543 1.368 . S
C562 C556 1.368 . S
C562 C561 1.523 . S
C563 C547 1.429 . S
C563 C559 1.429 . S
C563 C564 1.523 . S
C564 C548 1.368 . S
C564 C560 1.368 . S
C564 C563 1.523 . S
H565 C540 0.950 . S
H566 C542 0.950 . S
H567 C543 0.949 . S
H568 C545 0.950 . S
H569 C547 0.950 . S
C570 C571 1.349 . S
C570 C572 1.327 . S
C570 H595 0.950 . S
C571 C570 1.349 . S
C571 C587 1.349 . S
C572 C570 1.327 . S
C572 C591 1.429 . S
C572 H596 0.950 . S
C573 C590 1.574 . S
C573 C592 1.368 . S
C573 H597 0.949 . S
H574 C578 0.949 . S
C575 C576 1.349 . S
C575 C577 1.327 . S
C575 H598 0.950 . S
C576 C575 1.349 . S
C576 C588 1.349 . S
C577 C575 1.327 . S
C577 C593 1.429 . S
C577 H599 0.950 . S
C578 H574 0.949 . S
C578 C586 1.574 . S
C578 C594 1.368 . S
H579 C587 0.950 . S
H580 C585 0.950 . S
H581 C586 0.949 . S
H582 C588 0.950 . S
H583 C589 0.950 . S
H584 C590 0.949 . S
C585 H580 0.950 . S
C585 C587 1.327 . S
C585 C591 1.429 . S
C586 C578 1.574 . S
C586 H581 0.949 . S
C586 C592 1.368 . S
C587 C571 1.349 . S
C587 H579 0.950 . S
C587 C585 1.327 . S
C588 C576 1.349 . S
C588 H582 0.950 . S
C588 C589 1.327 . S
C589 H583 0.950 . S
C589 C588 1.327 . S
C589 C593 1.429 . S
C590 C573 1.574 . S
C590 H584 0.949 . S
C590 C594 1.368 . S
C591 C572 1.429 . S
C591 C585 1.429 . S
C591 C592 1.523 . S
C592 C573 1.368 . S
C592 C586 1.368 . S
C592 C591 1.523 . S
C593 C577 1.429 . S
C593 C589 1.429 . S
C593 C594 1.523 . S
C594 C578 1.368 . S
C594 C590 1.368 . S
C594 C593 1.523 . S
H595 C570 0.950 . S
H596 C572 0.950 . S
H597 C573 0.949 . S
H598 C575 0.950 . S
H599 C577 0.950 . S
C600 C601 1.349 . S
C600 C602 1.327 . S
C600 H625 0.950 . S
C601 C600 1.349 . S
C601 C617 1.349 . S
C602 C600 1.327 . S
C602 C621 1.429 . S
C602 H626 0.950 . S
C603 C620 1.574 . S
C603 C622 1.368 . S
C603 H627 0.949 . S
H604 C608 0.949 . S
C605 C606 1.349 . S
C605 C607 1.327 . S
C605 H628 0.950 . S
C606 C605 1.349 . S
C606 C618 1.349 . S
C607 C605 1.327 . S
C607 C623 1.429 . S
C607 H629 0.950 . S
C608 H604 0.949 . S
C608 C616 1.574 . S
C608 C624 1.368 . S
H609 C617 0.950 . S
H610 C615 0.950 . S
H611 C616 0.949 . S
H612 C618 0.950 . S
H613 C619 0.950 . S
H614 C620 0.949 . S
C615 H610 0.950 . S
C615 C617 1.327 . S
C615 C621 1.429 . S
C616 C608 1.574 . S
C616 H611 0.949 . S
C616 C622 1.368 . S
C617 C601 1.349 . S
C617 H609 0.950 . S
C617 C615 1.327 . S
C618 C606 1.349 . S
C618 H612 0.950 . S
C618 C619 1.327 . S
C619 H613 0.950 . S
C619 C618 1.327 . S
C619 C623 1.429 . S
C620 C603 1.574 . S
C620 H614 0.949 . S
C620 C624 1.368 . S
C621 C602 1.429 . S
C621 C615 1.429 . S
C621 C622 1.523 . S
C622 C603 1.368 . S
C622 C616 1.368 . S
C622 C621 1.523 . S
C623 C607 1.429 . S
C623 C619 1.429 . S
C623 C624 1.523 . S
C624 C608 1.368 . S
C624 C620 1.368 . S
C624 C623 1.523 . S
H625 C600 0.950 . S
H626 C602 0.950 . S
H627 C603 0.949 . S
H628 C605 0.950 . S
H629 C607 0.950 . S
C630 C631 1.349 . S
C630 C632 1.327 . S
C630 H655 0.950 . S
C631 C630 1.349 . S
C631 C647 1.349 . S
C632 C630 1.327 . S
C632 C651 1.429 . S
C632 H656 0.950 . S
C633 C650 1.574 . S
C633 C652 1.368 . S
C633 H657 0.949 . S
H634 C638 0.949 . S
C635 C636 1.349 . S
C635 C637 1.327 . S
C635 H658 0.950 . S
C636 C635 1.349 . S
C636 C648 1.349 . S
C637 C635 1.327 . S
C637 C653 1.429 . S
C637 H659 0.950 . S
C638 H634 0.949 . S
C638 C646 1.574 . S
C638 C654 1.368 . S
H639 C647 0.950 . S
H640 C645 0.950 . S
H641 C646 0.949 . S
H642 C648 0.950 . S
H643 C649 0.950 . S
H644 C650 0.949 . S
C645 H640 0.950 . S
C645 C647 1.327 . S
C645 C651 1.429 . S
C646 C638 1.574 . S
C646 H641 0.949 . S
C646 C652 1.368 . S
C647 C631 1.349 . S
C647 H639 0.950 . S
C647 C645 1.327 . S
C648 C636 1.349 . S
C648 H642 0.950 . S
C648 C649 1.327 . S
C649 H643 0.950 . S
C649 C648 1.327 . S
C649 C653 1.429 . S
C650 C633 1.574 . S
C650 H644 0.949 . S
C650 C654 1.368 . S
C651 C632 1.429 . S
C651 C645 1.429 . S
C651 C652 1.523 . S
C652 C633 1.368 . S
C652 C646 1.368 . S
C652 C651 1.523 . S
C653 C637 1.429 . S
C653 C649 1.429 . S
C653 C654 1.523 . S
C654 C638 1.368 . S
C654 C650 1.368 . S
C654 C653 1.523 . S
H655 C630 0.950 . S
H656 C632 0.950 . S
H657 C633 0.949 . S
H658 C635 0.950 . S
H659 C637 0.950 . S
C660 C661 1.349 1_655 S
C660 C662 1.327 . S
C660 H685 0.950 . S
C661 C660 1.349 1_455 S
C661 C677 1.349 . S
C662 C660 1.327 . S
C662 C681 1.429 1_655 S
C662 H686 0.950 . S
C663 C680 1.574 . S
C663 C682 1.368 . S
C663 H687 0.949 . S
H664 C668 0.949 . S
C665 C666 1.349 1_554 S
C665 C667 1.327 . S
C665 H688 0.950 1_554 S
C666 C665 1.349 1_556 S
C666 C678 1.349 . S
C667 C665 1.327 . S
C667 C683 1.429 . S
C667 H689 0.950 . S
C668 H664 0.949 . S
C668 C676 1.574 . S
C668 C684 1.368 1_655 S
H669 C677 0.950 . S
H670 C675 0.950 . S
H671 C676 0.949 . S
H672 C678 0.950 1_655 S
H673 C679 0.938 1_655 S
H674 C680 0.949 . S
C675 H670 0.950 . S
C675 C677 1.327 . S
C675 C681 1.429 . S
C676 C668 1.574 . S
C676 H671 0.949 . S
C676 C682 1.368 1_655 S
C677 C661 1.349 . S
C677 H669 0.950 . S
C677 C675 1.327 . S
C678 C666 1.349 . S
C678 H672 0.950 1_455 S
C678 C679 1.329 1_556 S
C679 H673 0.938 1_455 S
C679 C678 1.329 1_554 S
C679 C683 1.438 . S
C680 C663 1.574 . S
C680 H674 0.949 . S
C680 C684 1.368 . S
C681 C662 1.429 1_455 S
C681 C675 1.429 . S
C681 C682 1.523 . S
C682 C663 1.368 . S
C682 C676 1.368 1_455 S
C682 C681 1.523 . S
C683 C667 1.429 . S
C683 C679 1.438 . S
C683 C684 1.523 . S
C684 C668 1.368 1_455 S
C684 C680 1.368 . S
C684 C683 1.523 . S
H685 C660 0.950 . S
H686 C662 0.950 . S
H687 C663 0.949 . S
H688 C665 0.950 1_556 S
H689 C667 0.950 . S
C690 C691 1.349 1_565 S
C690 C692 1.327 . S
C690 H715 0.950 . S
C691 C690 1.349 1_545 S
C691 C707 1.349 . S
C692 C690 1.327 . S
C692 C711 1.429 1_565 S
C692 H716 0.950 . S
C693 C710 1.574 . S
C693 C712 1.368 . S
C693 H717 0.949 . S
H694 C698 0.949 1_565 S
C695 C696 1.349 . S
C695 C697 1.327 . S
C695 H718 0.950 . S
C696 C695 1.349 . S
C696 C708 1.349 . S
C697 C695 1.327 . S
C697 C713 1.429 . S
C697 H719 0.950 . S
C698 H694 0.949 1_545 S
C698 C706 1.580 . S
C698 C714 1.368 . S
H699 C707 0.950 . S
H700 C705 0.950 . S
H701 C706 0.937 1_565 S
H702 C708 0.950 1_565 S
H703 C709 0.950 1_565 S
H704 C710 0.949 . S
C705 H700 0.950 . S
C705 C707 1.327 . S
C705 C711 1.429 . S
C706 C698 1.580 . S
C706 H701 0.937 1_545 S
C706 C712 1.377 . S
C707 C691 1.349 . S
C707 H699 0.950 . S
C707 C705 1.327 . S
C708 C696 1.349 . S
C708 H702 0.950 1_545 S
C708 C709 1.327 . S
C709 H703 0.950 1_545 S
C709 C708 1.327 . S
C709 C713 1.429 . S
C710 C693 1.574 . S
C710 H704 0.949 . S
C710 C714 1.368 . S
C711 C692 1.429 1_545 S
C711 C705 1.429 . S
C711 C712 1.523 . S
C712 C693 1.368 . S
C712 C706 1.377 . S
C712 C711 1.523 . S
C713 C697 1.429 . S
C713 C709 1.429 . S
C713 C714 1.523 . S
C714 C698 1.368 . S
C714 C710 1.368 . S
C714 C713 1.523 . S
H715 C690 0.950 . S
H716 C692 0.950 . S
H717 C693 0.949 . S
H718 C695 0.950 . S
H719 C697 0.950 . S
C720 C721 1.349 . S
C720 C722 1.327 . S
C720 H745 0.950 . S
C721 C720 1.349 . S
C721 C737 1.349 . S
C722 C720 1.327 . S
C722 C741 1.429 . S
C722 H746 0.950 . S
C723 C740 1.574 . S
C723 C742 1.368 . S
C723 H747 0.949 . S
H724 C728 0.949 . S
C725 C726 1.349 . S
C725 C727 1.327 . S
C725 H748 0.950 . S
C726 C725 1.349 . S
C726 C738 1.349 . S
C727 C725 1.327 . S
C727 C743 1.429 . S
C727 H749 0.950 . S
C728 H724 0.949 . S
C728 C736 1.574 . S
C728 C744 1.368 . S
H729 C737 0.950 . S
H730 C735 0.950 . S
H731 C736 0.949 . S
H732 C738 0.950 . S
H733 C739 0.950 . S
H734 C740 0.949 . S
C735 H730 0.950 . S
C735 C737 1.327 . S
C735 C741 1.429 . S
C736 C728 1.574 . S
C736 H731 0.949 . S
C736 C742 1.368 . S
C737 C721 1.349 . S
C737 H729 0.950 . S
C737 C735 1.327 . S
C738 C726 1.349 . S
C738 H732 0.950 . S
C738 C739 1.327 . S
C739 H733 0.950 . S
C739 C738 1.327 . S
C739 C743 1.429 . S
C740 C723 1.574 . S
C740 H734 0.949 . S
C740 C744 1.368 . S
C741 C722 1.429 . S
C741 C735 1.429 . S
C741 C742 1.523 . S
C742 C723 1.368 . S
C742 C736 1.368 . S
C742 C741 1.523 . S
C743 C727 1.429 . S
C743 C739 1.429 . S
C743 C744 1.523 . S
C744 C728 1.368 . S
C744 C740 1.368 . S
C744 C743 1.523 . S
H745 C720 0.950 . S
H746 C722 0.950 . S
H747 C723 0.949 . S
H748 C725 0.950 . S
H749 C727 0.950 . S
C750 C751 1.349 1_565 S
C750 C752 1.327 . S
C750 H775 0.950 . S
C751 C750 1.349 1_545 S
C751 C767 1.349 . S
C752 C750 1.327 . S
C752 C771 1.429 1_565 S
C752 H776 0.950 . S
C753 C770 1.574 . S
C753 C772 1.368 . S
C753 H777 0.949 . S
H754 C758 0.949 . S
C755 C756 1.349 . S
C755 C757 1.327 . S
C755 H778 0.950 . S
C756 C755 1.349 . S
C756 C768 1.349 1_545 S
C757 C755 1.327 . S
C757 C773 1.429 . S
C757 H779 0.950 . S
C758 H754 0.949 . S
C758 C766 1.574 . S
C758 C774 1.368 1_565 S
H759 C767 0.950 . S
H760 C765 0.950 . S
H761 C766 0.949 . S
H762 C768 0.950 . S
H763 C769 0.950 . S
H764 C770 0.949 . S
C765 H760 0.950 . S
C765 C767 1.327 . S
C765 C771 1.429 . S
C766 C758 1.574 . S
C766 H761 0.949 . S
C766 C772 1.368 1_565 S
C767 C751 1.349 . S
C767 H759 0.950 . S
C767 C765 1.327 . S
C768 C756 1.349 1_565 S
C768 H762 0.950 . S
C768 C769 1.327 . S
C769 H763 0.950 . S
C769 C768 1.327 . S
C769 C773 1.429 1_565 S
C770 C753 1.574 . S
C770 H764 0.949 . S
C770 C774 1.368 . S
C771 C752 1.429 1_545 S
C771 C765 1.429 . S
C771 C772 1.523 . S
C772 C753 1.368 . S
C772 C766 1.368 1_545 S
C772 C771 1.523 . S
C773 C757 1.429 . S
C773 C769 1.429 1_545 S
C773 C774 1.523 . S
C774 C758 1.368 1_545 S
C774 C770 1.368 . S
C774 C773 1.523 . S
H775 C750 0.950 . S
H776 C752 0.950 . S
H777 C753 0.949 . S
H778 C755 0.950 . S
H779 C757 0.950 . S
C780 C781 1.349 . S
C780 C782 1.327 . S
C780 H805 0.950 . S
C781 C780 1.349 . S
C781 C797 1.349 . S
C782 C780 1.327 . S
C782 C801 1.429 . S
C782 H806 0.950 . S
C783 C800 1.574 . S
C783 C802 1.368 . S
C783 H807 0.949 . S
H784 C788 0.949 . S
C785 C786 1.373 . S
C785 C787 1.281 1_554 S
C785 H808 0.973 . S
C786 C785 1.373 . S
C786 C798 1.342 1_554 S
C787 C785 1.281 1_556 S
C787 C803 1.429 . S
C787 H809 0.950 . S
C788 H784 0.949 . S
C788 C796 1.574 . S
C788 C804 1.368 . S
H789 C797 0.950 . S
H790 C795 0.950 . S
H791 C796 0.949 . S
H792 C798 0.942 1_554 S
H793 C799 0.950 . S
H794 C800 0.949 . S
C795 H790 0.950 . S
C795 C797 1.327 . S
C795 C801 1.429 . S
C796 C788 1.574 . S
C796 H791 0.949 . S
C796 C802 1.368 . S
C797 C781 1.349 . S
C797 H789 0.950 . S
C797 C795 1.327 . S
C798 C786 1.342 1_556 S
C798 H792 0.942 1_556 S
C798 C799 1.342 . S
C799 H793 0.950 . S
C799 C798 1.342 . S
C799 C803 1.429 . S
C800 C783 1.574 . S
C800 H794 0.949 . S
C800 C804 1.368 . S
C801 C782 1.429 . S
C801 C795 1.429 . S
C801 C802 1.523 . S
C802 C783 1.368 . S
C802 C796 1.368 . S
C802 C801 1.523 . S
C803 C787 1.429 . S
C803 C799 1.429 . S
C803 C804 1.523 . S
C804 C788 1.368 . S
C804 C800 1.368 . S
C804 C803 1.523 . S
H805 C780 0.950 . S
H806 C782 0.950 . S
H807 C783 0.949 . S
H808 C785 0.973 . S
H809 C787 0.950 . S
C810 C811 1.354 . S
C810 C812 1.327 . S
C810 H835 0.950 . S
C811 C810 1.354 . S
C811 C827 1.344 1_455 S
C812 C810 1.327 . S
C812 C831 1.429 . S
C812 H836 0.950 . S
C813 C830 1.574 . S
C813 C832 1.368 . S
C813 H837 0.949 1_455 S
H814 C818 0.949 . S
C815 C816 1.349 . S
C815 C817 1.327 . S
C815 H838 0.950 . S
C816 C815 1.349 . S
C816 C828 1.349 . S
C817 C815 1.327 . S
C817 C833 1.429 . S
C817 H839 0.965 . S
C818 H814 0.949 . S
C818 C826 1.574 . S
C818 C834 1.368 . S
H819 C827 0.950 . S
H820 C825 0.950 . S
H821 C826 0.949 . S
H822 C828 0.950 . S
H823 C829 0.950 . S
H824 C830 0.935 1_655 S
C825 H820 0.950 . S
C825 C827 1.327 . S
C825 C831 1.429 1_655 S
C826 C818 1.574 . S
C826 H821 0.949 . S
C826 C832 1.368 . S
C827 C811 1.344 1_655 S
C827 H819 0.950 . S
C827 C825 1.327 . S
C828 C816 1.349 . S
C828 H822 0.950 . S
C828 C829 1.327 . S
C829 H823 0.950 . S
C829 C828 1.327 . S
C829 C833 1.429 . S
C830 C813 1.574 . S
C830 H824 0.935 1_455 S
C830 C834 1.368 . S
C831 C812 1.429 . S
C831 C825 1.429 1_455 S
C831 C832 1.523 . S
C832 C813 1.368 . S
C832 C826 1.368 . S
C832 C831 1.523 . S
C833 C817 1.429 . S
C833 C829 1.429 . S
C833 C834 1.523 . S
C834 C818 1.368 . S
C834 C830 1.368 . S
C834 C833 1.523 . S
H835 C810 0.950 . S
H836 C812 0.950 . S
H837 C813 0.949 1_655 S
H838 C815 0.950 . S
H839 C817 0.965 . S
C301 C2 1.307 . S
C306 C275 1.372 . S
C331 C22 1.258 . S
C336 C182 1.340 . S
C361 C44 1.334 . S
C366 C222 1.409 . S
C391 C4 1.542 . S
C396 C262 1.624 . S
C426 C195 1.669 . S
C421 C24 1.613 . S
C456 C235 1.578 . S
C451 C42 1.509 . S
C481 C32 1.301 . S
C486 C102 1.308 . S
C511 C49 1.225 . S
C516 C142 1.228 . S
C541 C9 1.238 . S
C546 C75 1.241 . S
C576 C115 1.222 . S
C571 C29 1.199 . S
C606 C155 1.289 . S
C601 C52 1.257 . S
C631 C12 1.229 . S
C636 C62 1.269 . S
C666 C161 1.423 . S
C661 C18 1.429 1_455 S
C691 C38 1.430 . S
C696 C81 1.442 . S
C721 C58 1.422 . S
C726 C121 1.427 . S
C756 C241 1.493 . S
C751 C39 1.487 . S
C786 C281 1.478 . S
C781 C59 1.464 . S
C811 C19 1.471 . S
C816 C201 1.487 . S
