# Generated by pormake.
# Topology tsx, (6,3)-cn, num edge types: 1
# Building blocks:
#     Node 0, Type 0, BuildingBlock: VOLQOD_clean_sbu_1, # of connection points: 6
#     Node 1, Type 0, BuildingBlock: VOLQOD_clean_sbu_1, # of connection points: 6
#     Node 2, Type 1, BuildingBlock: OLANEW_clean_sbu_2, # of connection points: 3
#     Node 3, Type 1, BuildingBlock: OLANEW_clean_sbu_2, # of connection points: 3
#     Node 4, Type 1, BuildingBlock: OLANEW_clean_sbu_2, # of connection points: 3
#     Node 5, Type 1, BuildingBlock: OLANEW_clean_sbu_2, # of connection points: 3
#     Edge 6, Type (0, 1), BuildingBlock: ZUJKAS_clean_linker_0, # of connection points: 2
#     Edge 7, Type (0, 1), BuildingBlock: ZUJKAS_clean_linker_0, # of connection points: 2
#     Edge 8, Type (0, 1), BuildingBlock: ZUJKAS_clean_linker_0, # of connection points: 2
#     Edge 9, Type (0, 1), BuildingBlock: ZUJKAS_clean_linker_0, # of connection points: 2
#     Edge 10, Type (0, 1), BuildingBlock: ZUJKAS_clean_linker_0, # of connection points: 2
#     Edge 11, Type (0, 1), BuildingBlock: ZUJKAS_clean_linker_0, # of connection points: 2
#     Edge 12, Type (0, 1), BuildingBlock: ZUJKAS_clean_linker_0, # of connection points: 2
#     Edge 13, Type (0, 1), BuildingBlock: ZUJKAS_clean_linker_0, # of connection points: 2
#     Edge 14, Type (0, 1), BuildingBlock: ZUJKAS_clean_linker_0, # of connection points: 2
#     Edge 15, Type (0, 1), BuildingBlock: ZUJKAS_clean_linker_0, # of connection points: 2
#     Edge 16, Type (0, 1), BuildingBlock: ZUJKAS_clean_linker_0, # of connection points: 2
#     Edge 17, Type (0, 1), BuildingBlock: ZUJKAS_clean_linker_0, # of connection points: 2
# Relax obj value: 0.029
# Max RMSD: 0.078
# Mean RMSD: 0.072
data_MOF--net-tsx--node1-VOLQOD_clean_sbu_1--node2-OLANEW_clean_sbu_2--edge1-ZUJKAS_clean_linker_0
_symmetry_space_group_name_H-M    P1
_symmetry_Int_Tables_number       1
_symmetry_cell_setting            triclinic
loop_
_symmetry_equiv_pos_as_xyz
'x, y, z'
_cell_length_a     28.720493
_cell_length_b     29.713128
_cell_length_c     49.830939
_cell_angle_alpha  95.562484
_cell_angle_beta   90.062166
_cell_angle_gamma 90.026806
loop_
_atom_site_label
_atom_site_type_symbol
_atom_site_fract_x
_atom_site_fract_y
_atom_site_fract_z
_atom_type_partial_charge
O0 O 0.05201 0.01038 0.05949 0.0
Zn1 Zn 0.06417 0.00883 0.01977 0.0
O2 O 0.00638 0.01266 0.99953 0.0
Zn3 Zn 0.99808 0.9577 0.9745 0.0
Zn4 Zn 0.95436 0.01941 0.02496 0.0
Zn5 Zn 0.00931 0.06557 0.97927 0.0
O6 O 0.99522 0.97261 0.93555 0.0
O7 O 0.00792 0.04668 0.93958 0.0
O8 O 0.09802 0.95113 0.00856 0.0
O9 O 0.05243 0.91498 0.97755 0.0
O10 O 0.9398 0.92362 0.98364 0.0
O11 O 0.91368 0.96409 0.02041 0.0
O12 O 0.91438 0.0734 0.01853 0.0
O13 O 0.10696 0.06093 0.01453 0.0
O14 O 0.95369 0.10584 0.98725 0.0
O15 O 0.06804 0.10195 0.98712 0.0
C16 C 0.01616 0.01856 0.07413 0.0
C17 C 0.00116 0.00964 0.92501 0.0
C18 C 0.911 0.92968 0.00312 0.0
C19 C 0.08933 0.91698 0.99187 0.0
C20 C 0.91877 0.10466 0.0029 0.0
C21 C 0.10387 0.09541 0.00131 0.0
O22 O 0.97649 0.02512 0.06371 0.0
O23 O 0.55179 0.49292 0.57083 0.0
Zn24 Zn 0.57167 0.49278 0.53232 0.0
O25 O 0.51918 0.50212 0.5088 0.0
Zn26 Zn 0.51045 0.44793 0.48325 0.0
Zn27 Zn 0.46368 0.51374 0.53109 0.0
Zn28 Zn 0.53163 0.55471 0.48916 0.0
O29 O 0.51581 0.46389 0.44469 0.0
O30 O 0.53658 0.53627 0.44936 0.0
O31 O 0.60329 0.4338 0.52178 0.0
O32 O 0.56037 0.40123 0.48828 0.0
O33 O 0.44753 0.41888 0.48862 0.0
O34 O 0.41664 0.46524 0.52151 0.0
O35 O 0.43291 0.57257 0.52423 0.0
O36 O 0.619 0.54201 0.5313 0.0
O37 O 0.47902 0.59964 0.4939 0.0
O38 O 0.59107 0.58649 0.50183 0.0
C39 C 0.51404 0.50245 0.58344 0.0
C40 C 0.52794 0.49988 0.4345 0.0
C41 C 0.41415 0.43017 0.50474 0.0
C42 C 0.59502 0.40071 0.50426 0.0
C43 C 0.44255 0.60258 0.50849 0.0
C44 C 0.62224 0.57702 0.51861 0.0
O45 O 0.47739 0.51283 0.57097 0.0
O46 O 0.0288 0.97046 0.37153 0.0
Cd47 Cd 0.01939 0.9658 0.42001 0.0
O48 O 0.05359 0.04081 0.37683 0.0
Cd49 Cd 0.03742 0.04856 0.41971 0.0
O50 O 0.98514 0.07706 0.44804 0.0
C51 C 0.9432 0.06786 0.44145 0.0
O52 O 0.93521 0.03959 0.41998 0.0
C53 C 0.04415 0.00529 0.36146 0.0
C54 C 0.0873 0.91082 0.43997 0.0
O55 O 0.0483 0.8944 0.43113 0.0
O56 O 0.0941 0.95337 0.43949 0.0
O57 O 0.94956 0.14539 0.65129 0.0
Cd58 Cd 0.93309 0.17164 0.60726 0.0
O59 O 0.97095 0.08148 0.62951 0.0
Cd60 Cd 0.98509 0.00912 0.62371 0.0
O61 O 0.96556 0.94064 0.60861 0.0
C62 C 0.93983 0.91833 0.62324 0.0
O63 O 0.92931 0.93599 0.64769 0.0
C64 C 0.9638 0.10502 0.65181 0.0
C65 C 0.01175 0.20297 0.5823 0.0
O66 O 0.98655 0.22956 0.59802 0.0
O67 O 0.99989 0.16124 0.57848 0.0
O68 O 0.47922 0.45278 0.88089 0.0
Cd69 Cd 0.47019 0.45066 0.92969 0.0
O70 O 0.53094 0.50761 0.88511 0.0
Cd71 Cd 0.51371 0.52381 0.92748 0.0
O72 O 0.46291 0.56369 0.95197 0.0
C73 C 0.42124 0.5601 0.94341 0.0
O74 O 0.41218 0.53106 0.92245 0.0
C75 C 0.50801 0.47828 0.87021 0.0
C76 C 0.53948 0.39729 0.9499 0.0
O77 O 0.50046 0.38011 0.94166 0.0
O78 O 0.54551 0.43983 0.94889 0.0
O79 O 0.52991 0.52387 0.1336 0.0
Cd80 Cd 0.52759 0.52113 0.08428 0.0
O81 O 0.57144 0.46154 0.13245 0.0
Cd82 Cd 0.55735 0.44405 0.08965 0.0
O83 O 0.50654 0.41031 0.06193 0.0
C84 C 0.46582 0.40957 0.07184 0.0
O85 O 0.4587 0.43019 0.09603 0.0
C86 C 0.55258 0.49529 0.14589 0.0
C87 C 0.58667 0.58573 0.06539 0.0
O88 O 0.54296 0.59341 0.06826 0.0
O89 O 0.60234 0.54752 0.07128 0.0
H90 H 0.11747 0.16539 0.97006 0.0
H91 H 0.18121 0.2204 0.97309 0.0
H92 H 0.24016 0.15669 0.0395 0.0
H93 H 0.17764 0.10098 0.03612 0.0
H94 H 0.20428 0.2818 0.01282 0.0
H95 H 0.35344 0.16628 0.99368 0.0
H96 H 0.29411 0.14815 0.98738 0.0
H97 H 0.31858 0.1494 0.02077 0.0
C98 C 0.14425 0.16286 0.98516 0.0
C99 C 0.14256 0.1286 0.00275 0.0
C100 C 0.18069 0.1943 0.98683 0.0
C101 C 0.21608 0.19212 0.00613 0.0
C102 C 0.21415 0.15823 0.02387 0.0
H103 H 0.37893 0.39489 0.09085 0.0
H104 H 0.3187 0.34556 0.07012 0.0
C105 C 0.17807 0.12658 0.02205 0.0
C106 C 0.25348 0.2268 0.00902 0.0
H107 H 0.37087 0.23928 0.01752 0.0
C108 C 0.24077 0.27255 0.01337 0.0
C109 C 0.30124 0.21501 0.00907 0.0
C110 C 0.31764 0.16706 0.00215 0.0
C111 C 0.27424 0.30643 0.01951 0.0
C112 C 0.32152 0.2941 0.02211 0.0
C113 C 0.33456 0.24874 0.01599 0.0
C114 C 0.35722 0.32681 0.03341 0.0
C115 C 0.25841 0.35503 0.02346 0.0
C116 C 0.39957 0.3321 0.01996 0.0
C117 C 0.43465 0.35995 0.03203 0.0
C118 C 0.42796 0.38283 0.0578 0.0
C119 C 0.38519 0.37806 0.07092 0.0
C120 C 0.35042 0.35009 0.05897 0.0
H121 H 0.22681 0.36032 0.01127 0.0
H122 H 0.24924 0.36376 0.04496 0.0
H123 H 0.28606 0.37851 0.01786 0.0
H124 H 0.40573 0.31416 0.00031 0.0
H125 H 0.46724 0.36287 0.02141 0.0
H126 H 0.17117 0.90981 0.01924 0.0
H127 H 0.22651 0.84724 0.01512 0.0
H128 H 0.13933 0.77516 0.95493 0.0
H129 H 0.08326 0.8375 0.95903 0.0
H130 H 0.17343 0.72203 0.99604 0.0
H131 H 0.31425 0.81778 0.95029 0.0
H132 H 0.29087 0.84433 0.9813 0.0
H133 H 0.25457 0.83686 0.95182 0.0
C134 C 0.16365 0.88075 0.00506 0.0
C135 C 0.12283 0.87886 0.98932 0.0
C136 C 0.19546 0.84507 0.0027 0.0
C137 C 0.18726 0.80692 0.98449 0.0
C138 C 0.14631 0.80448 0.96904 0.0
H139 H 0.3301 0.5622 0.92819 0.0
H140 H 0.27264 0.62047 0.94151 0.0
C141 C 0.1144 0.84019 0.97136 0.0
C142 C 0.22155 0.76963 0.98149 0.0
H143 H 0.33268 0.74431 0.96115 0.0
C144 C 0.20827 0.72681 0.98842 0.0
C145 C 0.267 0.77616 0.97169 0.0
C146 C 0.28259 0.82113 0.96312 0.0
C147 C 0.23941 0.69022 0.98587 0.0
C148 C 0.28464 0.69659 0.97568 0.0
C149 C 0.29806 0.7396 0.96911 0.0
C150 C 0.31783 0.6587 0.97008 0.0
C151 C 0.22377 0.64525 0.99436 0.0
C152 C 0.36243 0.66085 0.98169 0.0
C153 C 0.3956 0.62766 0.97397 0.0
C154 C 0.38479 0.59198 0.95431 0.0
C155 C 0.33956 0.58916 0.94342 0.0
C156 C 0.3065 0.62231 0.95115 0.0
H157 H 0.19465 0.6493 0.00906 0.0
H158 H 0.21123 0.62367 0.97637 0.0
H159 H 0.25287 0.62741 0.0035 0.0
H160 H 0.37192 0.68883 0.99625 0.0
H161 H 0.43012 0.63084 0.98272 0.0
H162 H 0.86602 0.91478 0.04948 0.0
H163 H 0.80974 0.85565 0.05646 0.0
H164 H 0.81636 0.80831 0.97189 0.0
H165 H 0.87476 0.86625 0.96505 0.0
H166 H 0.72654 0.83878 0.0387 0.0
H167 H 0.83722 0.69218 0.00332 0.0
H168 H 0.85978 0.74898 0.00822 0.0
H169 H 0.82816 0.73015 0.97796 0.0
C170 C 0.85557 0.89177 0.03233 0.0
C171 C 0.87508 0.89501 0.00673 0.0
C172 C 0.82332 0.85792 0.03636 0.0
C173 C 0.80931 0.82684 0.01483 0.0
C174 C 0.82762 0.8309 0.98901 0.0
H175 H 0.56434 0.65668 0.03678 0.0
H176 H 0.61684 0.71437 0.0221 0.0
C177 C 0.86072 0.86427 0.98507 0.0
C178 C 0.77529 0.79071 0.01971 0.0
H179 H 0.7587 0.67632 0.01336 0.0
C180 C 0.73363 0.80323 0.03318 0.0
C181 C 0.78471 0.74423 0.01282 0.0
C182 C 0.83008 0.72799 1.00004 0.0
C183 C 0.70158 0.77078 0.04034 0.0
C184 C 0.71037 0.72437 0.03278 0.0
C185 C 0.75171 0.71187 0.01896 0.0
C186 C 0.67848 0.68809 0.04023 0.0
C187 C 0.65972 0.7867 0.05694 0.0
C188 C 0.69587 0.65272 0.05414 0.0
C189 C 0.66616 0.619 0.06183 0.0
C190 C 0.61831 0.62029 0.0561 0.0
C191 C 0.60098 0.65521 0.04181 0.0
C192 C 0.63092 0.68841 0.03359 0.0
H193 H 0.6655 0.82076 0.06772 0.0
H194 H 0.62928 0.78905 0.04342 0.0
H195 H 0.65109 0.76291 0.07207 0.0
H196 H 0.73242 0.65155 0.05943 0.0
H197 H 0.68052 0.59251 0.07282 0.0
H198 H 0.91581 0.17522 0.97152 0.0
H199 H 0.8516 0.22754 0.96656 0.0
H200 H 0.77218 0.16356 0.02566 0.0
H201 H 0.83646 0.11113 0.03101 0.0
H202 H 0.76204 0.20156 0.94945 0.0
H203 H 0.75862 0.29947 0.05024 0.0
H204 H 0.80819 0.26603 0.03816 0.0
H205 H 0.7578 0.23907 0.05072 0.0
C206 C 0.88498 0.17252 0.98376 0.0
C207 C 0.88135 0.13883 0.00165 0.0
C208 C 0.84828 0.20249 0.98086 0.0
C209 C 0.80731 0.19967 0.99589 0.0
C210 C 0.80382 0.1668 0.0142 0.0
H211 H 0.53788 0.30594 0.95317 0.0
H212 H 0.60191 0.25793 0.96579 0.0
C213 C 0.84055 0.13672 0.01713 0.0
C214 C 0.76719 0.22913 0.99092 0.0
H215 H 0.69602 0.31158 0.02058 0.0
C216 C 0.74762 0.22565 0.96499 0.0
C217 C 0.74873 0.26072 0.0112 0.0
C218 C 0.76957 0.267 0.0391 0.0
C219 C 0.70983 0.25268 0.95879 0.0
C220 C 0.6907 0.28361 0.97919 0.0
C221 C 0.71052 0.28748 0.00508 0.0
C222 C 0.65087 0.31299 0.97367 0.0
C223 C 0.69121 0.24854 0.93032 0.0
C224 C 0.6568 0.35998 0.97476 0.0
C225 C 0.62028 0.38755 0.9676 0.0
C226 C 0.57708 0.36857 0.95935 0.0
C227 C 0.57079 0.3216 0.95923 0.0
C228 C 0.60736 0.29408 0.96636 0.0
H229 H 0.71607 0.23086 0.91584 0.0
H230 H 0.65832 0.22884 0.92952 0.0
H231 H 0.6835 0.28239 0.92371 0.0
H232 H 0.69011 0.3752 0.98045 0.0
H233 H 0.62621 0.42362 0.96804 0.0
H234 H 0.64047 0.6568 0.49716 0.0
H235 H 0.70247 0.71106 0.51029 0.0
H236 H 0.75455 0.62302 0.56734 0.0
H237 H 0.69348 0.56839 0.55413 0.0
H238 H 0.71319 0.7539 0.56079 0.0
H239 H 0.8736 0.65868 0.53079 0.0
H240 H 0.81668 0.64133 0.51826 0.0
H241 H 0.83547 0.62817 0.55106 0.0
C242 C 0.66556 0.64863 0.51219 0.0
C243 C 0.66188 0.60828 0.52464 0.0
C244 C 0.70096 0.67967 0.51964 0.0
C245 C 0.73345 0.67078 0.53952 0.0
C246 C 0.73053 0.6301 0.55151 0.0
H247 H 0.87914 0.86502 0.6481 0.0
H248 H 0.83187 0.80293 0.62695 0.0
C249 C 0.69527 0.59905 0.54406 0.0
C250 C 0.76753 0.70577 0.54967 0.0
H251 H 0.8832 0.72449 0.5623 0.0
C252 C 0.75039 0.74763 0.56086 0.0
C253 C 0.81607 0.69761 0.54955 0.0
C254 C 0.83663 0.65417 0.53652 0.0
C255 C 0.78035 0.78111 0.57269 0.0
C256 C 0.82862 0.77212 0.57379 0.0
C257 C 0.84604 0.73089 0.5618 0.0
C258 C 0.86131 0.80558 0.58719 0.0
C259 C 0.76005 0.82592 0.58384 0.0
C260 C 0.89504 0.82599 0.57206 0.0
C261 C 0.92232 0.86133 0.5841 0.0
C262 C 0.91628 0.87671 0.61149 0.0
C263 C 0.88434 0.85429 0.62692 0.0
C264 C 0.85716 0.81895 0.61486 0.0
H265 H 0.72488 0.83147 0.57546 0.0
H266 H 0.75678 0.82653 0.60606 0.0
H267 H 0.78298 0.85436 0.57938 0.0
H268 H 0.89892 0.81584 0.55071 0.0
H269 H 0.94681 0.8777 0.57169 0.0
H270 H 0.67151 0.38833 0.53536 0.0
H271 H 0.72782 0.32668 0.53008 0.0
H272 H 0.649 0.26308 0.46314 0.0
H273 H 0.59199 0.32465 0.46828 0.0
H274 H 0.68382 0.20295 0.50279 0.0
H275 H 0.81949 0.31446 0.46481 0.0
H276 H 0.79244 0.33495 0.49615 0.0
H277 H 0.7585 0.32922 0.46572 0.0
C278 C 0.66584 0.36118 0.51957 0.0
C279 C 0.62739 0.36171 0.50205 0.0
C280 C 0.69814 0.326 0.5166 0.0
C281 C 0.69276 0.29075 0.49604 0.0
C282 C 0.6537 0.29017 0.47909 0.0
H283 H 0.85104 0.06303 0.42813 0.0
H284 H 0.7892 0.11416 0.44516 0.0
C285 C 0.62127 0.32542 0.48202 0.0
C286 C 0.7291 0.25566 0.49149 0.0
H287 H 0.84167 0.23997 0.47103 0.0
C288 C 0.71839 0.2109 0.49589 0.0
C289 C 0.77413 0.26637 0.48261 0.0
C290 C 0.78696 0.31375 0.47681 0.0
C291 C 0.75181 0.17642 0.49173 0.0
C292 C 0.79666 0.18703 0.48242 0.0
C293 C 0.80738 0.23195 0.47835 0.0
C294 C 0.83232 0.15198 0.47505 0.0
C295 C 0.73893 0.12914 0.49759 0.0
C296 C 0.87719 0.15611 0.48623 0.0
C297 C 0.9129 0.12719 0.47629 0.0
C298 C 0.90434 0.09377 0.45489 0.0
C299 C 0.85882 0.08835 0.44465 0.0
C300 C 0.82324 0.11737 0.45451 0.0
H301 H 0.71004 0.12941 0.51242 0.0
H302 H 0.72704 0.10972 0.47868 0.0
H303 H 0.7692 0.11128 0.50551 0.0
H304 H 0.88497 0.18273 0.50202 0.0
H305 H 0.94754 0.13221 0.48467 0.0
H306 H 0.40158 0.34291 0.48195 0.0
H307 H 0.33249 0.29506 0.48566 0.0
H308 H 0.26279 0.40543 0.53175 0.0
H309 H 0.33091 0.45315 0.52817 0.0
H310 H 0.29292 0.27378 0.5356 0.0
H311 H 0.1652 0.35972 0.47492 0.0
H312 H 0.22735 0.36703 0.47165 0.0
H313 H 0.19595 0.3984 0.49854 0.0
C314 C 0.37124 0.35711 0.49252 0.0
C315 C 0.37178 0.4018 0.50481 0.0
C316 C 0.33191 0.32975 0.49464 0.0
C317 C 0.29239 0.34698 0.50864 0.0
C318 C 0.29259 0.39177 0.5204 0.0
H319 H 0.04482 0.28939 0.58656 0.0
H320 H 0.11346 0.31802 0.5649 0.0
C321 C 0.33179 0.4189 0.5185 0.0
C322 C 0.25195 0.31778 0.51312 0.0
H323 H 0.13346 0.31513 0.50854 0.0
C324 C 0.2581 0.28197 0.52918 0.0
C325 C 0.2067 0.32865 0.50465 0.0
C326 C 0.19837 0.36528 0.48625 0.0
C327 C 0.21972 0.25887 0.53866 0.0
C328 C 0.17427 0.27166 0.53152 0.0
C329 C 0.16837 0.30565 0.51413 0.0
C330 C 0.13239 0.25345 0.54394 0.0
C331 C 0.22788 0.22297 0.55759 0.0
C332 C 0.12014 0.20767 0.53914 0.0
C333 C 0.08087 0.1911 0.55158 0.0
C334 C 0.0532 0.22016 0.56893 0.0
C335 C 0.06541 0.26608 0.57339 0.0
C336 C 0.10455 0.28254 0.56097 0.0
H337 H 0.26468 0.22211 0.56442 0.0
H338 H 0.20508 0.22873 0.57558 0.0
H339 H 0.21911 0.18935 0.54715 0.0
H340 H 0.14085 0.18483 0.52575 0.0
H341 H 0.07223 0.15559 0.54762 0.0
H342 H 0.35853 0.61751 0.5339 0.0
H343 H 0.29951 0.67343 0.52487 0.0
H344 H 0.39096 0.72745 0.46739 0.0
H345 H 0.45009 0.67153 0.47603 0.0
H346 H 0.30145 0.77038 0.52758 0.0
H347 H 0.27231 0.68934 0.42366 0.0
H348 H 0.30357 0.66174 0.44889 0.0
H349 H 0.3317 0.70447 0.43151 0.0
C350 C 0.36637 0.64155 0.51953 0.0
C351 C 0.40893 0.63965 0.50547 0.0
C352 C 0.33257 0.6735 0.51443 0.0
C353 C 0.34063 0.70399 0.49514 0.0
C354 C 0.38381 0.70364 0.48201 0.0
H355 H 0.17376 0.93526 0.4595 0.0
H356 H 0.23474 0.88575 0.47435 0.0
C357 C 0.41763 0.67174 0.48708 0.0
C358 C 0.3031 0.73474 0.48787 0.0
H359 H 0.23269 0.75805 0.43576 0.0
C360 C 0.28636 0.76778 0.50753 0.0
C361 C 0.28308 0.73071 0.4618 0.0
C362 C 0.29819 0.69443 0.44026 0.0
C363 C 0.25047 0.79743 0.50164 0.0
C364 C 0.2313 0.79412 0.47536 0.0
C365 C 0.24769 0.76069 0.45584 0.0
C366 C 0.19377 0.82455 0.46762 0.0
C367 C 0.23278 0.8315 0.52369 0.0
C368 C 0.15079 0.80645 0.45856 0.0
C369 C 0.11598 0.83457 0.44992 0.0
C370 C 0.12364 0.88133 0.45002 0.0
C371 C 0.16668 0.89941 0.45926 0.0
C372 C 0.20148 0.87123 0.46792 0.0
H373 H 0.24289 0.82243 0.54402 0.0
H374 H 0.24789 0.86514 0.521 0.0
H375 H 0.19428 0.8344 0.52282 0.0
H376 H 0.14425 0.77046 0.45805 0.0
H377 H 0.08326 0.81954 0.44291 0.0
H378 H 0.95403 0.05131 0.11294 0.0
H379 H 0.96188 0.0512 0.16185 0.0
H380 H 0.09513 0.985 0.15106 0.0
H381 H 0.08836 0.98641 0.10237 0.0
H382 H 0.96809 0.98275 0.19202 0.0
H383 H 0.12799 0.08624 0.20673 0.0
H384 H 0.0959 0.0813 0.17545 0.0
H385 H 0.13636 0.03785 0.18282 0.0
C386 C 0.98519 0.03709 0.12101 0.0
C387 C 0.02073 0.01922 0.10377 0.0
C388 C 0.98961 0.03701 0.14896 0.0
C389 C 0.02951 0.01888 0.16018 0.0
C390 C 0.06469 0.00043 0.14297 0.0
H391 H 0.03913 0.93346 0.32269 0.0
H392 H 0.03761 0.93591 0.27375 0.0
C393 C 0.0606 0.00101 0.11508 0.0
C394 C 0.03352 0.01762 0.1898 0.0
H395 H 0.10468 0.04608 0.24373 0.0
C396 C 0.99782 0.99685 0.20336 0.0
C397 C 0.07204 0.03655 0.20466 0.0
C398 C 0.10998 0.06215 0.19171 0.0
C399 C 0.9998 0.99396 0.23128 0.0
C400 C 0.03934 0.01103 0.24592 0.0
C401 C 0.07474 0.03235 0.23243 0.0
C402 C 0.04377 0.00878 0.27544 0.0
C403 C 0.95891 0.97367 0.24484 0.0
C404 C 0.05025 0.0486 0.29259 0.0
C405 C 0.05214 0.0472 0.3205 0.0
C406 C 0.0473 0.00591 0.33185 0.0
C407 C 0.04248 0.96584 0.31459 0.0
C408 C 0.04119 0.96724 0.28663 0.0
H409 H 0.9267 0.97452 0.23252 0.0
H410 H 0.96656 0.93777 0.24749 0.0
H411 H 0.95212 0.99182 0.26499 0.0
H412 H 0.05265 0.08102 0.28442 0.0
H413 H 0.05588 0.07871 0.3332 0.0
H414 H 0.98282 0.93932 0.88624 0.0
H415 H 0.98093 0.94203 0.83716 0.0
H416 H 0.01501 0.08398 0.84765 0.0
H417 H 0.01737 0.0817 0.8963 0.0
H418 H 0.92389 0.99576 0.80749 0.0
H419 H 0.10981 0.03343 0.79134 0.0
H420 H 0.08881 0.01193 0.82179 0.0
H421 H 0.08441 0.07126 0.81755 0.0
C422 C 0.99023 0.97103 0.87807 0.0
C423 C 0.00038 0.01025 0.89526 0.0
C424 C 0.98914 0.97249 0.85005 0.0
C425 C 0.99868 0.01301 0.83878 0.0
C426 C 0.00862 0.05211 0.85588 0.0
H427 H 0.91727 0.1301 0.69827 0.0
H428 H 0.92589 0.09998 0.74188 0.0
C429 C 0.00959 0.05076 0.88377 0.0
C430 C 0.99602 0.01568 0.80927 0.0
H431 H 0.05668 0.05238 0.75669 0.0
C432 C 0.95312 0.00736 0.79623 0.0
C433 C 0.03438 0.03006 0.79448 0.0
C434 C 0.08208 0.03673 0.80694 0.0
C435 C 0.9468 0.01585 0.76923 0.0
C436 C 0.98416 0.03375 0.75512 0.0
C437 C 0.02786 0.03925 0.76763 0.0
C438 C 0.97777 0.05018 0.72819 0.0
C439 C 0.89993 0.00633 0.7562 0.0
C440 C 0.00504 0.03306 0.70616 0.0
C441 C 0.00043 0.05053 0.68119 0.0
C442 C 0.96862 0.08553 0.67789 0.0
C443 C 0.94182 0.1029 0.7001 0.0
C444 C 0.94636 0.0854 0.72498 0.0
H445 H 0.88064 0.98005 0.76611 0.0
H446 H 0.87876 0.0377 0.75826 0.0
H447 H 0.90355 0.99499 0.73441 0.0
H448 H 0.03012 0.00644 0.70836 0.0
H449 H 0.02274 0.03753 0.66476 0.0
H450 H 0.43934 0.51578 0.61771 0.0
H451 H 0.4382 0.51029 0.66644 0.0
H452 H 0.58489 0.47934 0.66486 0.0
H453 H 0.58639 0.48414 0.6163 0.0
H454 H 0.53266 0.42143 0.69358 0.0
H455 H 0.49214 0.6015 0.72549 0.0
H456 H 0.45218 0.57402 0.70143 0.0
H457 H 0.51162 0.58243 0.69187 0.0
C458 C 0.47142 0.50804 0.62774 0.0
C459 C 0.51298 0.50053 0.61306 0.0
C460 C 0.47073 0.50509 0.65561 0.0
C461 C 0.51159 0.4949 0.66928 0.0
C462 C 0.553 0.48732 0.65469 0.0
H463 H 0.56517 0.52857 0.84092 0.0
H464 H 0.56707 0.53008 0.79199 0.0
C465 C 0.55376 0.49019 0.62691 0.0
C466 C 0.51132 0.4912 0.69872 0.0
H467 H 0.4928 0.55136 0.75965 0.0
C468 C 0.52394 0.4498 0.70806 0.0
C469 C 0.50048 0.52845 0.71751 0.0
C470 C 0.48873 0.57427 0.70868 0.0
C471 C 0.52572 0.44455 0.73573 0.0
C472 C 0.51392 0.48153 0.75451 0.0
C473 C 0.50158 0.523 0.74517 0.0
C474 C 0.51463 0.47821 0.78399 0.0
C475 C 0.54116 0.3998 0.74465 0.0
C476 C 0.48474 0.44828 0.79569 0.0
C477 C 0.48368 0.44717 0.82367 0.0
C478 C 0.51226 0.47627 0.84048 0.0
C479 C 0.54275 0.50565 0.8286 0.0
C480 C 0.5438 0.50668 0.80064 0.0
H481 H 0.56008 0.3791 0.72839 0.0
H482 H 0.56406 0.40485 0.76266 0.0
H483 H 0.51009 0.38042 0.75009 0.0
H484 H 0.46137 0.42657 0.78323 0.0
H485 H 0.45958 0.42434 0.83214 0.0
H486 H 0.51 0.43001 0.39566 0.0
H487 H 0.51701 0.43043 0.34673 0.0
H488 H 0.56145 0.56964 0.35709 0.0
H489 H 0.55497 0.5696 0.40593 0.0
H490 H 0.47087 0.48729 0.31288 0.0
H491 H 0.66293 0.50698 0.30846 0.0
H492 H 0.63336 0.4898 0.33777 0.0
H493 H 0.63402 0.54828 0.33136 0.0
C494 C 0.52145 0.46069 0.38758 0.0
C495 C 0.5321 0.49971 0.4048 0.0
C496 C 0.52539 0.46086 0.3596 0.0
C497 C 0.54037 0.49987 0.34834 0.0
C498 C 0.55067 0.53893 0.36541 0.0
H499 H 0.5096 0.55839 0.1813 0.0
H500 H 0.50751 0.56083 0.23053 0.0
C501 C 0.54668 0.53886 0.39334 0.0
C502 C 0.54413 0.50009 0.31869 0.0
H503 H 0.62114 0.51381 0.26792 0.0
C504 C 0.5037 0.493 0.30301 0.0
C505 C 0.58712 0.50717 0.30591 0.0
C506 C 0.63196 0.5131 0.32166 0.0
C507 C 0.50499 0.49337 0.27487 0.0
C508 C 0.54777 0.50158 0.26215 0.0
C509 C 0.58832 0.50805 0.27779 0.0
C510 C 0.55131 0.50202 0.23252 0.0
C511 C 0.46074 0.48417 0.25892 0.0
C512 C 0.57795 0.46911 0.21743 0.0
C513 C 0.57939 0.4677 0.18933 0.0
C514 C 0.55441 0.49939 0.17577 0.0
C515 C 0.52909 0.53336 0.19106 0.0
C516 C 0.52761 0.53466 0.21919 0.0
H517 H 0.43354 0.46859 0.27089 0.0
H518 H 0.44683 0.51652 0.25285 0.0
H519 H 0.46752 0.46143 0.24031 0.0
H520 H 0.59671 0.44379 0.22737 0.0
H521 H 0.59937 0.44118 0.17822 0.0
loop_
_geom_bond_atom_site_label_1
_geom_bond_atom_site_label_2
_geom_bond_distance
_geom_bond_site_symmetry_2
_ccdc_geom_bond_type
O0 Zn1 1.956 . S
O0 C16 1.233 . S
Zn1 O0 1.956 . S
Zn1 O2 1.949 . S
Zn1 O8 1.919 1_545 S
Zn1 O13 1.924 . S
O2 Zn1 1.949 . S
O2 Zn3 1.923 1_444 S
O2 Zn4 1.950 1_455 S
O2 Zn5 1.945 1_554 S
Zn3 O2 1.923 1_666 S
Zn3 O6 1.933 . S
Zn3 O9 1.941 1_655 S
Zn3 O10 1.965 . S
Zn4 O2 1.950 1_655 S
Zn4 O11 1.938 1_545 S
Zn4 O12 1.906 . S
Zn4 O22 1.953 . S
Zn5 O2 1.945 1_556 S
Zn5 O7 1.932 . S
Zn5 O14 1.977 1_455 S
Zn5 O15 1.919 . S
O6 Zn3 1.933 . S
O6 C17 1.226 1_665 S
O7 Zn5 1.932 . S
O7 C17 1.307 . S
O8 Zn1 1.919 1_565 S
O8 C19 1.253 1_554 S
O9 Zn3 1.941 1_455 S
O9 C19 1.283 . S
O10 Zn3 1.965 . S
O10 C18 1.303 1_556 S
O11 Zn4 1.938 1_565 S
O11 C18 1.247 . S
O12 Zn4 1.906 . S
O12 C20 1.320 . S
O13 Zn1 1.924 . S
O13 C21 1.311 . S
O14 Zn5 1.977 1_655 S
O14 C20 1.264 1_556 S
O15 Zn5 1.919 . S
O15 C21 1.208 1_556 S
C16 O0 1.233 . S
C16 O22 1.298 1_455 S
C17 O6 1.226 1_445 S
C17 O7 1.307 . S
C18 O10 1.303 1_554 S
C18 O11 1.247 . S
C19 O8 1.253 1_556 S
C19 O9 1.283 . S
C20 O12 1.320 . S
C20 O14 1.264 1_554 S
C21 O13 1.311 . S
C21 O15 1.208 1_554 S
O22 Zn4 1.953 . S
O22 C16 1.298 1_655 S
O23 Zn24 1.953 . S
O23 C39 1.225 . S
Zn24 O23 1.953 . S
Zn24 O25 1.949 . S
Zn24 O31 1.919 . S
Zn24 O36 1.924 . S
O25 Zn24 1.949 . S
O25 Zn26 1.923 . S
O25 Zn27 1.950 . S
O25 Zn28 1.945 . S
Zn26 O25 1.923 . S
Zn26 O29 1.933 . S
Zn26 O32 1.941 . S
Zn26 O33 1.965 . S
Zn27 O25 1.950 . S
Zn27 O34 1.938 . S
Zn27 O35 1.906 . S
Zn27 O45 1.953 . S
Zn28 O25 1.945 . S
Zn28 O30 1.932 . S
Zn28 O37 1.977 . S
Zn28 O38 1.910 . S
O29 Zn26 1.933 . S
O29 C40 1.226 . S
O30 Zn28 1.932 . S
O30 C40 1.307 . S
O31 Zn24 1.919 . S
O31 C42 1.253 . S
O32 Zn26 1.941 . S
O32 C42 1.283 . S
O33 Zn26 1.965 . S
O33 C41 1.303 . S
O34 Zn27 1.938 . S
O34 C41 1.247 . S
O35 Zn27 1.906 . S
O35 C43 1.304 . S
O36 Zn24 1.924 . S
O36 C44 1.311 . S
O37 Zn28 1.977 . S
O37 C43 1.272 . S
O38 Zn28 1.910 . S
O38 C44 1.231 . S
C39 O23 1.225 . S
C39 O45 1.298 . S
C40 O29 1.226 . S
C40 O30 1.307 . S
C41 O33 1.303 . S
C41 O34 1.247 . S
C42 O31 1.253 . S
C42 O32 1.283 . S
C43 O35 1.304 . S
C43 O37 1.272 . S
C44 O36 1.311 . S
C44 O38 1.231 . S
O45 Zn27 1.953 . S
O45 C39 1.298 . S
O46 Cd47 2.300 . S
O46 C53 1.275 1_565 S
Cd47 O46 2.300 . S
Cd47 O55 2.381 . S
Cd47 O56 2.378 . S
O48 Cd49 2.385 . S
O48 C53 1.255 . S
Cd49 O48 2.385 . S
Cd49 O50 2.317 1_455 S
O50 Cd49 2.317 1_655 S
O50 C51 1.232 . S
C51 O50 1.232 . S
C51 O52 1.218 . S
O52 C51 1.218 . S
C53 O46 1.275 1_545 S
C53 O48 1.255 . S
C54 O55 1.258 . S
C54 O56 1.256 . S
O55 Cd47 2.381 . S
O55 C54 1.258 . S
O56 Cd47 2.378 . S
O56 C54 1.256 . S
O57 Cd58 2.300 . S
O57 C64 1.284 . S
Cd58 O57 2.300 . S
Cd58 O66 2.381 . S
Cd58 O67 2.378 . S
O59 Cd60 2.385 . S
O59 C64 1.248 1_565 S
Cd60 O59 2.385 . S
Cd60 O61 2.317 1_455 S
O61 Cd60 2.317 1_655 S
O61 C62 1.232 . S
C62 O61 1.232 . S
C62 O63 1.218 . S
O63 C62 1.218 . S
C64 O57 1.284 . S
C64 O59 1.248 1_545 S
C65 O66 1.258 . S
C65 O67 1.256 . S
O66 Cd58 2.381 . S
O66 C65 1.258 . S
O67 Cd58 2.378 . S
O67 C65 1.256 . S
O68 Cd69 2.300 . S
O68 C75 1.275 . S
Cd69 O68 2.300 . S
Cd69 O77 2.381 . S
Cd69 O78 2.378 . S
O70 Cd71 2.385 . S
O70 C75 1.255 . S
Cd71 O70 2.385 . S
Cd71 O72 2.317 . S
O72 Cd71 2.317 . S
O72 C73 1.232 . S
C73 O72 1.232 . S
C73 O74 1.218 . S
O74 C73 1.218 . S
C75 O68 1.275 . S
C75 O70 1.255 . S
C76 O77 1.258 . S
C76 O78 1.256 . S
O77 Cd69 2.381 . S
O77 C76 1.258 . S
O78 Cd69 2.378 . S
O78 C76 1.256 . S
O79 Cd80 2.300 . S
O79 C86 1.275 . S
Cd80 O79 2.300 . S
Cd80 O88 2.381 . S
Cd80 O89 2.378 . S
O81 Cd82 2.385 . S
O81 C86 1.255 . S
Cd82 O81 2.385 . S
Cd82 O83 2.317 . S
O83 Cd82 2.317 . S
O83 C84 1.232 . S
C84 O83 1.232 . S
C84 O85 1.218 . S
O85 C84 1.218 . S
C86 O79 1.275 . S
C86 O81 1.255 . S
C87 O88 1.258 . S
C87 O89 1.256 . S
O88 Cd80 2.381 . S
O88 C87 1.258 . S
O89 Cd80 2.378 . S
O89 C87 1.256 . S
H90 C98 0.929 1_556 S
H91 C100 0.930 . S
H92 C102 0.930 . S
H93 C105 0.929 . S
H94 C108 0.930 . S
H95 C110 0.960 . S
H96 C110 0.960 . S
H97 C110 0.960 . S
C98 H90 0.929 1_554 S
C98 C99 1.377 . S
C98 C100 1.384 . S
C99 C98 1.377 . S
C99 C105 1.390 . S
C100 H91 0.930 . S
C100 C98 1.384 . S
C100 C101 1.372 . S
C101 C100 1.372 . S
C101 C102 1.400 . S
C101 C106 1.490 . S
C102 H92 0.930 . S
C102 C101 1.400 . S
C102 C105 1.386 . S
H103 C119 0.930 . S
H104 C120 0.931 . S
C105 H93 0.929 . S
C105 C99 1.390 . S
C105 C102 1.386 . S
C106 C101 1.490 . S
C106 C108 1.395 . S
C106 C109 1.403 . S
H107 C113 0.930 . S
C108 H94 0.930 . S
C108 C106 1.395 . S
C108 C111 1.403 . S
C109 C106 1.403 . S
C109 C110 1.524 . S
C109 C113 1.400 . S
C110 H95 0.960 . S
C110 H96 0.960 . S
C110 H97 0.960 . S
C110 C109 1.524 . S
C111 C108 1.403 . S
C111 C112 1.392 . S
C111 C115 1.495 . S
C112 C111 1.392 . S
C112 C113 1.385 . S
C112 C114 1.478 . S
C113 H107 0.930 . S
C113 C109 1.400 . S
C113 C112 1.385 . S
C114 C112 1.478 . S
C114 C116 1.381 . S
C114 C120 1.383 . S
C115 C111 1.495 . S
C115 H121 0.959 . S
C115 H122 0.961 . S
C115 H123 0.960 . S
C116 C114 1.381 . S
C116 C117 1.394 . S
C116 H124 0.930 . S
C117 C116 1.394 . S
C117 C118 1.383 . S
C117 H125 0.929 . S
C118 C117 1.383 . S
C118 C119 1.377 . S
C119 H103 0.930 . S
C119 C118 1.377 . S
C119 C120 1.379 . S
C120 H104 0.931 . S
C120 C114 1.383 . S
C120 C119 1.379 . S
H121 C115 0.959 . S
H122 C115 0.961 . S
H123 C115 0.960 . S
H124 C116 0.930 . S
H125 C117 0.929 . S
H126 C134 0.929 . S
H127 C136 0.930 1_554 S
H128 C138 0.930 . S
H129 C141 0.929 . S
H130 C144 0.930 . S
H131 C146 0.960 . S
H132 C146 0.960 . S
H133 C146 0.960 . S
C134 H126 0.929 . S
C134 C135 1.377 1_554 S
C134 C136 1.384 1_554 S
C135 C134 1.377 1_556 S
C135 C141 1.390 . S
C136 H127 0.930 1_556 S
C136 C134 1.384 1_556 S
C136 C137 1.372 . S
C137 C136 1.372 . S
C137 C138 1.400 . S
C137 C142 1.490 . S
C138 H128 0.930 . S
C138 C137 1.400 . S
C138 C141 1.386 . S
H139 C155 0.930 . S
H140 C156 0.931 . S
C141 H129 0.929 . S
C141 C135 1.390 . S
C141 C138 1.386 . S
C142 C137 1.490 . S
C142 C144 1.395 . S
C142 C145 1.403 . S
H143 C149 0.930 . S
C144 H130 0.930 . S
C144 C142 1.395 . S
C144 C147 1.403 . S
C145 C142 1.403 . S
C145 C146 1.524 . S
C145 C149 1.400 . S
C146 H131 0.960 . S
C146 H132 0.960 . S
C146 H133 0.960 . S
C146 C145 1.524 . S
C147 C144 1.403 . S
C147 C148 1.392 . S
C147 C151 1.495 . S
C148 C147 1.392 . S
C148 C149 1.385 . S
C148 C150 1.478 . S
C149 H143 0.930 . S
C149 C145 1.400 . S
C149 C148 1.385 . S
C150 C148 1.478 . S
C150 C152 1.381 . S
C150 C156 1.383 . S
C151 C147 1.495 . S
C151 H157 0.959 . S
C151 H158 0.961 . S
C151 H159 0.960 . S
C152 C150 1.381 . S
C152 C153 1.394 . S
C152 H160 0.930 . S
C153 C152 1.394 . S
C153 C154 1.383 . S
C153 H161 0.929 . S
C154 C153 1.383 . S
C154 C155 1.377 . S
C155 H139 0.930 . S
C155 C154 1.377 . S
C155 C156 1.379 . S
C156 H140 0.931 . S
C156 C150 1.383 . S
C156 C155 1.379 . S
H157 C151 0.959 . S
H158 C151 0.961 . S
H159 C151 0.960 . S
H160 C152 0.930 . S
H161 C153 0.929 . S
H162 C170 0.929 . S
H163 C172 0.930 . S
H164 C174 0.930 1_556 S
H165 C177 0.929 1_556 S
H166 C180 0.930 . S
H167 C182 0.960 1_556 S
H168 C182 0.960 . S
H169 C182 0.960 1_556 S
C170 H162 0.929 . S
C170 C171 1.377 . S
C170 C172 1.384 . S
C171 C170 1.377 . S
C171 C177 1.390 . S
C172 H163 0.930 . S
C172 C170 1.384 . S
C172 C173 1.372 . S
C173 C172 1.372 . S
C173 C174 1.400 . S
C173 C178 1.490 . S
C174 H164 0.930 1_554 S
C174 C173 1.400 . S
C174 C177 1.386 . S
H175 C191 0.930 . S
H176 C192 0.931 . S
C177 H165 0.929 1_554 S
C177 C171 1.390 . S
C177 C174 1.386 . S
C178 C173 1.490 . S
C178 C180 1.395 . S
C178 C181 1.403 . S
H179 C185 0.930 . S
C180 H166 0.930 . S
C180 C178 1.395 . S
C180 C183 1.403 . S
C181 C178 1.403 . S
C181 C182 1.524 . S
C181 C185 1.400 . S
C182 H167 0.960 1_554 S
C182 H168 0.960 . S
C182 H169 0.960 1_554 S
C182 C181 1.524 . S
C183 C180 1.403 . S
C183 C184 1.392 . S
C183 C187 1.495 . S
C184 C183 1.392 . S
C184 C185 1.385 . S
C184 C186 1.478 . S
C185 H179 0.930 . S
C185 C181 1.400 . S
C185 C184 1.385 . S
C186 C184 1.478 . S
C186 C188 1.381 . S
C186 C192 1.383 . S
C187 C183 1.495 . S
C187 H193 0.959 . S
C187 H194 0.961 . S
C187 H195 0.960 . S
C188 C186 1.381 . S
C188 C189 1.394 . S
C188 H196 0.930 . S
C189 C188 1.394 . S
C189 C190 1.383 . S
C189 H197 0.929 . S
C190 C189 1.383 . S
C190 C191 1.377 . S
C191 H175 0.930 . S
C191 C190 1.377 . S
C191 C192 1.379 . S
C192 H176 0.931 . S
C192 C186 1.383 . S
C192 C191 1.379 . S
H193 C187 0.959 . S
H194 C187 0.961 . S
H195 C187 0.960 . S
H196 C188 0.930 . S
H197 C189 0.929 . S
H198 C206 0.929 . S
H199 C208 0.930 . S
H200 C210 0.930 . S
H201 C213 0.929 . S
H202 C216 0.930 . S
H203 C218 0.963 . S
H204 C218 0.951 1_556 S
H205 C218 0.977 . S
C206 H198 0.929 . S
C206 C207 1.377 . S
C206 C208 1.384 . S
C207 C206 1.377 . S
C207 C213 1.390 1_556 S
C208 H199 0.930 . S
C208 C206 1.384 . S
C208 C209 1.372 . S
C209 C208 1.372 . S
C209 C210 1.400 1_556 S
C209 C214 1.490 . S
C210 H200 0.930 . S
C210 C209 1.400 1_554 S
C210 C213 1.386 . S
H211 C227 0.930 . S
H212 C228 0.931 . S
C213 H201 0.929 . S
C213 C207 1.390 1_554 S
C213 C210 1.386 . S
C214 C209 1.490 . S
C214 C216 1.395 . S
C214 C217 1.403 . S
H215 C221 0.930 . S
C216 H202 0.930 . S
C216 C214 1.395 . S
C216 C219 1.403 . S
C217 C214 1.403 . S
C217 C218 1.514 1_556 S
C217 C221 1.400 . S
C218 H203 0.963 . S
C218 H204 0.951 1_554 S
C218 H205 0.977 . S
C218 C217 1.514 1_554 S
C219 C216 1.403 . S
C219 C220 1.392 . S
C219 C223 1.495 . S
C220 C219 1.392 . S
C220 C221 1.385 . S
C220 C222 1.478 . S
C221 H215 0.930 . S
C221 C217 1.400 . S
C221 C220 1.385 . S
C222 C220 1.478 . S
C222 C224 1.381 . S
C222 C228 1.383 . S
C223 C219 1.495 . S
C223 H229 0.959 . S
C223 H230 0.961 . S
C223 H231 0.960 . S
C224 C222 1.381 . S
C224 C225 1.394 . S
C224 H232 0.930 . S
C225 C224 1.394 . S
C225 C226 1.383 . S
C225 H233 0.929 . S
C226 C225 1.383 . S
C226 C227 1.377 . S
C227 H211 0.930 . S
C227 C226 1.377 . S
C227 C228 1.379 . S
C228 H212 0.931 . S
C228 C222 1.383 . S
C228 C227 1.379 . S
H229 C223 0.959 . S
H230 C223 0.961 . S
H231 C223 0.960 . S
H232 C224 0.930 . S
H233 C225 0.929 . S
H234 C242 0.929 . S
H235 C244 0.930 . S
H236 C246 0.930 . S
H237 C249 0.929 . S
H238 C252 0.930 . S
H239 C254 0.960 . S
H240 C254 0.960 . S
H241 C254 0.960 . S
C242 H234 0.929 . S
C242 C243 1.377 . S
C242 C244 1.384 . S
C243 C242 1.377 . S
C243 C249 1.390 . S
C244 H235 0.930 . S
C244 C242 1.384 . S
C244 C245 1.372 . S
C245 C244 1.372 . S
C245 C246 1.400 . S
C245 C250 1.490 . S
C246 H236 0.930 . S
C246 C245 1.400 . S
C246 C249 1.386 . S
H247 C263 0.930 . S
H248 C264 0.931 . S
C249 H237 0.929 . S
C249 C243 1.390 . S
C249 C246 1.386 . S
C250 C245 1.490 . S
C250 C252 1.395 . S
C250 C253 1.403 . S
H251 C257 0.930 . S
C252 H238 0.930 . S
C252 C250 1.395 . S
C252 C255 1.403 . S
C253 C250 1.403 . S
C253 C254 1.524 . S
C253 C257 1.400 . S
C254 H239 0.960 . S
C254 H240 0.960 . S
C254 H241 0.960 . S
C254 C253 1.524 . S
C255 C252 1.403 . S
C255 C256 1.392 . S
C255 C259 1.495 . S
C256 C255 1.392 . S
C256 C257 1.385 . S
C256 C258 1.478 . S
C257 H251 0.930 . S
C257 C253 1.400 . S
C257 C256 1.385 . S
C258 C256 1.478 . S
C258 C260 1.381 . S
C258 C264 1.383 . S
C259 C255 1.495 . S
C259 H265 0.959 . S
C259 H266 0.961 . S
C259 H267 0.960 . S
C260 C258 1.381 . S
C260 C261 1.394 . S
C260 H268 0.930 . S
C261 C260 1.394 . S
C261 C262 1.383 . S
C261 H269 0.929 . S
C262 C261 1.383 . S
C262 C263 1.377 . S
C263 H247 0.930 . S
C263 C262 1.377 . S
C263 C264 1.379 . S
C264 H248 0.931 . S
C264 C258 1.383 . S
C264 C263 1.379 . S
H265 C259 0.959 . S
H266 C259 0.961 . S
H267 C259 0.960 . S
H268 C260 0.930 . S
H269 C261 0.929 . S
H270 C278 0.929 . S
H271 C280 0.930 . S
H272 C282 0.930 . S
H273 C285 0.929 . S
H274 C288 0.930 . S
H275 C290 0.960 . S
H276 C290 0.960 . S
H277 C290 0.960 . S
C278 H270 0.929 . S
C278 C279 1.377 . S
C278 C280 1.384 . S
C279 C278 1.377 . S
C279 C285 1.390 . S
C280 H271 0.930 . S
C280 C278 1.384 . S
C280 C281 1.372 . S
C281 C280 1.372 . S
C281 C282 1.400 . S
C281 C286 1.490 . S
C282 H272 0.930 . S
C282 C281 1.400 . S
C282 C285 1.386 . S
H283 C299 0.930 . S
H284 C300 0.931 . S
C285 H273 0.929 . S
C285 C279 1.390 . S
C285 C282 1.386 . S
C286 C281 1.490 . S
C286 C288 1.395 . S
C286 C289 1.403 . S
H287 C293 0.930 . S
C288 H274 0.930 . S
C288 C286 1.395 . S
C288 C291 1.403 . S
C289 C286 1.403 . S
C289 C290 1.524 . S
C289 C293 1.400 . S
C290 H275 0.960 . S
C290 H276 0.960 . S
C290 H277 0.960 . S
C290 C289 1.524 . S
C291 C288 1.403 . S
C291 C292 1.392 . S
C291 C295 1.495 . S
C292 C291 1.392 . S
C292 C293 1.385 . S
C292 C294 1.478 . S
C293 H287 0.930 . S
C293 C289 1.400 . S
C293 C292 1.385 . S
C294 C292 1.478 . S
C294 C296 1.381 . S
C294 C300 1.383 . S
C295 C291 1.495 . S
C295 H301 0.959 . S
C295 H302 0.961 . S
C295 H303 0.960 . S
C296 C294 1.381 . S
C296 C297 1.394 . S
C296 H304 0.930 . S
C297 C296 1.394 . S
C297 C298 1.383 . S
C297 H305 0.929 . S
C298 C297 1.383 . S
C298 C299 1.377 . S
C299 H283 0.930 . S
C299 C298 1.377 . S
C299 C300 1.379 . S
C300 H284 0.931 . S
C300 C294 1.383 . S
C300 C299 1.379 . S
H301 C295 0.959 . S
H302 C295 0.961 . S
H303 C295 0.960 . S
H304 C296 0.930 . S
H305 C297 0.929 . S
H306 C314 0.929 . S
H307 C316 0.930 . S
H308 C318 0.930 . S
H309 C321 0.929 . S
H310 C324 0.930 . S
H311 C326 0.960 . S
H312 C326 0.960 . S
H313 C326 0.960 . S
C314 H306 0.929 . S
C314 C315 1.377 . S
C314 C316 1.384 . S
C315 C314 1.377 . S
C315 C321 1.390 . S
C316 H307 0.930 . S
C316 C314 1.384 . S
C316 C317 1.372 . S
C317 C316 1.372 . S
C317 C318 1.400 . S
C317 C322 1.490 . S
C318 H308 0.930 . S
C318 C317 1.400 . S
C318 C321 1.386 . S
H319 C335 0.930 . S
H320 C336 0.931 . S
C321 H309 0.929 . S
C321 C315 1.390 . S
C321 C318 1.386 . S
C322 C317 1.490 . S
C322 C324 1.395 . S
C322 C325 1.403 . S
H323 C329 0.930 . S
C324 H310 0.930 . S
C324 C322 1.395 . S
C324 C327 1.403 . S
C325 C322 1.403 . S
C325 C326 1.524 . S
C325 C329 1.400 . S
C326 H311 0.960 . S
C326 H312 0.960 . S
C326 H313 0.960 . S
C326 C325 1.524 . S
C327 C324 1.403 . S
C327 C328 1.392 . S
C327 C331 1.495 . S
C328 C327 1.392 . S
C328 C329 1.385 . S
C328 C330 1.478 . S
C329 H323 0.930 . S
C329 C325 1.400 . S
C329 C328 1.385 . S
C330 C328 1.478 . S
C330 C332 1.381 . S
C330 C336 1.383 . S
C331 C327 1.495 . S
C331 H337 0.959 . S
C331 H338 0.961 . S
C331 H339 0.960 . S
C332 C330 1.381 . S
C332 C333 1.394 . S
C332 H340 0.930 . S
C333 C332 1.394 . S
C333 C334 1.383 . S
C333 H341 0.929 . S
C334 C333 1.383 . S
C334 C335 1.377 . S
C335 H319 0.930 . S
C335 C334 1.377 . S
C335 C336 1.379 . S
C336 H320 0.931 . S
C336 C330 1.383 . S
C336 C335 1.379 . S
H337 C331 0.959 . S
H338 C331 0.961 . S
H339 C331 0.960 . S
H340 C332 0.930 . S
H341 C333 0.929 . S
H342 C350 0.929 . S
H343 C352 0.930 . S
H344 C354 0.930 . S
H345 C357 0.929 . S
H346 C360 0.930 . S
H347 C362 0.960 . S
H348 C362 0.960 . S
H349 C362 0.960 . S
C350 H342 0.929 . S
C350 C351 1.377 . S
C350 C352 1.384 . S
C351 C350 1.377 . S
C351 C357 1.390 . S
C352 H343 0.930 . S
C352 C350 1.384 . S
C352 C353 1.372 . S
C353 C352 1.372 . S
C353 C354 1.400 . S
C353 C358 1.490 . S
C354 H344 0.930 . S
C354 C353 1.400 . S
C354 C357 1.386 . S
H355 C371 0.930 . S
H356 C372 0.931 . S
C357 H345 0.929 . S
C357 C351 1.390 . S
C357 C354 1.386 . S
C358 C353 1.490 . S
C358 C360 1.395 . S
C358 C361 1.403 . S
H359 C365 0.930 . S
C360 H346 0.930 . S
C360 C358 1.395 . S
C360 C363 1.403 . S
C361 C358 1.403 . S
C361 C362 1.524 . S
C361 C365 1.400 . S
C362 H347 0.960 . S
C362 H348 0.960 . S
C362 H349 0.960 . S
C362 C361 1.524 . S
C363 C360 1.403 . S
C363 C364 1.392 . S
C363 C367 1.495 . S
C364 C363 1.392 . S
C364 C365 1.385 . S
C364 C366 1.478 . S
C365 H359 0.930 . S
C365 C361 1.400 . S
C365 C364 1.385 . S
C366 C364 1.478 . S
C366 C368 1.381 . S
C366 C372 1.383 . S
C367 C363 1.495 . S
C367 H373 0.959 . S
C367 H374 0.961 . S
C367 H375 0.960 . S
C368 C366 1.381 . S
C368 C369 1.394 . S
C368 H376 0.930 . S
C369 C368 1.394 . S
C369 C370 1.383 . S
C369 H377 0.929 . S
C370 C369 1.383 . S
C370 C371 1.377 . S
C371 H355 0.930 . S
C371 C370 1.377 . S
C371 C372 1.379 . S
C372 H356 0.931 . S
C372 C366 1.383 . S
C372 C371 1.379 . S
H373 C367 0.959 . S
H374 C367 0.961 . S
H375 C367 0.960 . S
H376 C368 0.930 . S
H377 C369 0.929 . S
H378 C386 0.929 . S
H379 C388 0.930 . S
H380 C390 0.930 . S
H381 C393 0.929 . S
H382 C396 0.930 1_565 S
H383 C398 0.960 . S
H384 C398 0.960 . S
H385 C398 0.960 . S
C386 H378 0.929 . S
C386 C387 1.377 1_655 S
C386 C388 1.384 . S
C387 C386 1.377 1_455 S
C387 C393 1.390 1_545 S
C388 H379 0.930 . S
C388 C386 1.384 . S
C388 C389 1.372 1_655 S
C389 C388 1.372 1_455 S
C389 C390 1.400 1_545 S
C389 C394 1.490 . S
C390 H380 0.930 . S
C390 C389 1.400 1_565 S
C390 C393 1.386 . S
H391 C407 0.930 . S
H392 C408 0.931 . S
C393 H381 0.929 . S
C393 C387 1.390 1_565 S
C393 C390 1.386 . S
C394 C389 1.490 . S
C394 C396 1.395 1_455 S
C394 C397 1.403 . S
H395 C401 0.930 . S
C396 H382 0.930 1_545 S
C396 C394 1.395 1_655 S
C396 C399 1.403 . S
C397 C394 1.403 . S
C397 C398 1.524 . S
C397 C401 1.400 . S
C398 H383 0.960 . S
C398 H384 0.960 . S
C398 H385 0.960 . S
C398 C397 1.524 . S
C399 C396 1.403 . S
C399 C400 1.392 . S
C399 C403 1.495 1_545 S
C400 C399 1.392 . S
C400 C401 1.385 1_655 S
C400 C402 1.478 . S
C401 H395 0.930 . S
C401 C397 1.400 . S
C401 C400 1.385 1_455 S
C402 C400 1.478 . S
C402 C404 1.381 . S
C402 C408 1.383 1_645 S
C403 C399 1.495 1_565 S
C403 H409 0.959 . S
C403 H410 0.961 . S
C403 H411 0.960 1_565 S
C404 C402 1.381 . S
C404 C405 1.394 . S
C404 H412 0.930 . S
C405 C404 1.394 . S
C405 C406 1.383 . S
C405 H413 0.929 . S
C406 C405 1.383 . S
C406 C407 1.377 1_645 S
C407 H391 0.930 . S
C407 C406 1.377 1_465 S
C407 C408 1.379 . S
C408 H392 0.931 . S
C408 C402 1.383 1_465 S
C408 C407 1.379 . S
H409 C403 0.959 . S
H410 C403 0.961 . S
H411 C403 0.960 1_545 S
H412 C404 0.930 . S
H413 C405 0.929 . S
H414 C422 0.929 . S
H415 C424 0.930 . S
H416 C426 0.930 . S
H417 C429 0.929 . S
H418 C432 0.930 . S
H419 C434 0.960 . S
H420 C434 0.960 . S
H421 C434 0.960 . S
C422 H414 0.929 . S
C422 C423 1.377 1_565 S
C422 C424 1.384 . S
C423 C422 1.377 1_545 S
C423 C429 1.390 1_455 S
C424 H415 0.930 . S
C424 C422 1.384 . S
C424 C425 1.364 1_565 S
C425 C424 1.364 1_545 S
C425 C426 1.407 1_455 S
C425 C430 1.491 1_545 S
C426 H416 0.930 . S
C426 C425 1.407 1_655 S
C426 C429 1.386 . S
H427 C443 0.930 . S
H428 C444 0.931 . S
C429 H417 0.929 . S
C429 C423 1.390 1_655 S
C429 C426 1.386 . S
C430 C425 1.491 1_565 S
C430 C432 1.395 1_455 S
C430 C433 1.403 1_565 S
H431 C437 0.930 . S
C432 H418 0.930 . S
C432 C430 1.395 1_655 S
C432 C435 1.403 . S
C433 C430 1.403 1_545 S
C433 C434 1.524 . S
C433 C437 1.400 . S
C434 H419 0.960 . S
C434 H420 0.960 . S
C434 H421 0.960 . S
C434 C433 1.524 . S
C435 C432 1.403 . S
C435 C436 1.392 1_655 S
C435 C439 1.495 . S
C436 C435 1.392 1_455 S
C436 C437 1.385 1_565 S
C436 C438 1.478 . S
C437 H431 0.930 . S
C437 C433 1.400 . S
C437 C436 1.385 1_545 S
C438 C436 1.478 . S
C438 C440 1.381 . S
C438 C444 1.383 1_465 S
C439 C435 1.495 . S
C439 H445 0.959 . S
C439 H446 0.961 . S
C439 H447 0.960 . S
C440 C438 1.381 . S
C440 C441 1.394 . S
C440 H448 0.930 . S
C441 C440 1.394 . S
C441 C442 1.383 . S
C441 H449 0.929 . S
C442 C441 1.383 . S
C442 C443 1.377 1_465 S
C443 H427 0.930 . S
C443 C442 1.377 1_645 S
C443 C444 1.379 . S
C444 H428 0.931 . S
C444 C438 1.383 1_645 S
C444 C443 1.379 . S
H445 C439 0.959 . S
H446 C439 0.961 . S
H447 C439 0.960 . S
H448 C440 0.930 . S
H449 C441 0.929 . S
H450 C458 0.929 . S
H451 C460 0.930 . S
H452 C462 0.930 . S
H453 C465 0.929 . S
H454 C468 0.930 . S
H455 C470 0.960 . S
H456 C470 0.960 . S
H457 C470 0.960 . S
C458 H450 0.929 . S
C458 C459 1.377 . S
C458 C460 1.384 . S
C459 C458 1.377 . S
C459 C465 1.390 . S
C460 H451 0.930 . S
C460 C458 1.384 . S
C460 C461 1.372 . S
C461 C460 1.372 . S
C461 C462 1.400 . S
C461 C466 1.490 . S
C462 H452 0.930 . S
C462 C461 1.400 . S
C462 C465 1.386 . S
H463 C479 0.930 . S
H464 C480 0.931 . S
C465 H453 0.929 . S
C465 C459 1.390 . S
C465 C462 1.386 . S
C466 C461 1.490 . S
C466 C468 1.395 . S
C466 C469 1.403 . S
H467 C473 0.930 . S
C468 H454 0.930 . S
C468 C466 1.395 . S
C468 C471 1.403 . S
C469 C466 1.403 . S
C469 C470 1.524 . S
C469 C473 1.400 . S
C470 H455 0.960 . S
C470 H456 0.960 . S
C470 H457 0.960 . S
C470 C469 1.524 . S
C471 C468 1.403 . S
C471 C472 1.392 . S
C471 C475 1.495 . S
C472 C471 1.392 . S
C472 C473 1.385 . S
C472 C474 1.478 . S
C473 H467 0.930 . S
C473 C469 1.400 . S
C473 C472 1.385 . S
C474 C472 1.478 . S
C474 C476 1.381 . S
C474 C480 1.383 . S
C475 C471 1.495 . S
C475 H481 0.959 . S
C475 H482 0.961 . S
C475 H483 0.960 . S
C476 C474 1.381 . S
C476 C477 1.394 . S
C476 H484 0.930 . S
C477 C476 1.394 . S
C477 C478 1.383 . S
C477 H485 0.929 . S
C478 C477 1.383 . S
C478 C479 1.377 . S
C479 H463 0.930 . S
C479 C478 1.377 . S
C479 C480 1.379 . S
C480 H464 0.931 . S
C480 C474 1.383 . S
C480 C479 1.379 . S
H481 C475 0.959 . S
H482 C475 0.961 . S
H483 C475 0.960 . S
H484 C476 0.930 . S
H485 C477 0.929 . S
H486 C494 0.929 . S
H487 C496 0.930 . S
H488 C498 0.930 . S
H489 C501 0.929 . S
H490 C504 0.930 . S
H491 C506 0.960 . S
H492 C506 0.960 . S
H493 C506 0.960 . S
C494 H486 0.929 . S
C494 C495 1.377 . S
C494 C496 1.384 . S
C495 C494 1.377 . S
C495 C501 1.390 . S
C496 H487 0.930 . S
C496 C494 1.384 . S
C496 C497 1.372 . S
C497 C496 1.372 . S
C497 C498 1.400 . S
C497 C502 1.490 . S
C498 H488 0.930 . S
C498 C497 1.400 . S
C498 C501 1.386 . S
H499 C515 0.930 . S
H500 C516 0.931 . S
C501 H489 0.929 . S
C501 C495 1.390 . S
C501 C498 1.386 . S
C502 C497 1.490 . S
C502 C504 1.395 . S
C502 C505 1.403 . S
H503 C509 0.930 . S
C504 H490 0.930 . S
C504 C502 1.395 . S
C504 C507 1.403 . S
C505 C502 1.403 . S
C505 C506 1.524 . S
C505 C509 1.400 . S
C506 H491 0.960 . S
C506 H492 0.960 . S
C506 H493 0.960 . S
C506 C505 1.524 . S
C507 C504 1.403 . S
C507 C508 1.392 . S
C507 C511 1.495 . S
C508 C507 1.392 . S
C508 C509 1.385 . S
C508 C510 1.478 . S
C509 H503 0.930 . S
C509 C505 1.400 . S
C509 C508 1.385 . S
C510 C508 1.478 . S
C510 C512 1.381 . S
C510 C516 1.383 . S
C511 C507 1.495 . S
C511 H517 0.959 . S
C511 H518 0.961 . S
C511 H519 0.960 . S
C512 C510 1.381 . S
C512 C513 1.394 . S
C512 H520 0.930 . S
C513 C512 1.394 . S
C513 C514 1.383 . S
C513 H521 0.929 . S
C514 C513 1.383 . S
C514 C515 1.377 . S
C515 H499 0.930 . S
C515 C514 1.377 . S
C515 C516 1.379 . S
C516 H500 0.931 . S
C516 C510 1.383 . S
C516 C515 1.379 . S
H517 C511 0.959 . S
H518 C511 0.961 . S
H519 C511 0.960 . S
H520 C512 0.930 . S
H521 C513 0.929 . S
C118 C84 1.363 . S
C99 C21 1.504 . S
C135 C19 1.497 . S
C154 C73 1.345 . S
C171 C18 1.382 . S
C190 C87 1.373 . S
C207 C20 1.385 1_556 S
C226 C76 1.387 . S
C243 C44 1.505 . S
C262 C62 1.356 . S
C279 C42 1.496 . S
C298 C51 1.337 . S
C334 C65 1.366 . S
C315 C41 1.376 . S
C370 C54 1.399 . S
C351 C43 1.396 . S
C387 C16 1.520 . S
C406 C53 1.484 1_655 S
C423 C17 1.483 . S
C442 C64 1.443 1_565 S
C478 C75 1.444 . S
C459 C39 1.520 . S
C495 C40 1.483 . S
C514 C86 1.453 . S
