# Generated by pormake.
# Topology ocu, (6,8)-cn, num edge types: 1
# Building blocks:
#     Node 0, Type 0, BuildingBlock: PAMTOO_clean_sbu_0, # of connection points: 6
#     Node 1, Type 0, BuildingBlock: PAMTOO_clean_sbu_0, # of connection points: 6
#     Node 2, Type 0, BuildingBlock: PAMTOO_clean_sbu_0, # of connection points: 6
#     Node 3, Type 0, BuildingBlock: PAMTOO_clean_sbu_0, # of connection points: 6
#     Node 4, Type 0, BuildingBlock: PAMTOO_clean_sbu_0, # of connection points: 6
#     Node 5, Type 0, BuildingBlock: PAMTOO_clean_sbu_0, # of connection points: 6
#     Node 6, Type 0, BuildingBlock: PAMTOO_clean_sbu_0, # of connection points: 6
#     Node 7, Type 0, BuildingBlock: PAMTOO_clean_sbu_0, # of connection points: 6
#     Node 8, Type 1, BuildingBlock: GIZVER_clean_sbu_0, # of connection points: 8
#     Node 9, Type 1, BuildingBlock: GIZVER_clean_sbu_0, # of connection points: 8
#     Node 10, Type 1, BuildingBlock: GIZVER_clean_sbu_0, # of connection points: 8
#     Node 11, Type 1, BuildingBlock: GIZVER_clean_sbu_0, # of connection points: 8
#     Node 12, Type 1, BuildingBlock: GIZVER_clean_sbu_0, # of connection points: 8
#     Node 13, Type 1, BuildingBlock: GIZVER_clean_sbu_0, # of connection points: 8
#     Edge 14, Type (0, 1), BuildingBlock: XIVTED_clean_linker_0, # of connection points: 2
#     Edge 15, Type (0, 1), BuildingBlock: XIVTED_clean_linker_0, # of connection points: 2
#     Edge 16, Type (0, 1), BuildingBlock: XIVTED_clean_linker_0, # of connection points: 2
#     Edge 17, Type (0, 1), BuildingBlock: XIVTED_clean_linker_0, # of connection points: 2
#     Edge 18, Type (0, 1), BuildingBlock: XIVTED_clean_linker_0, # of connection points: 2
#     Edge 19, Type (0, 1), BuildingBlock: XIVTED_clean_linker_0, # of connection points: 2
#     Edge 20, Type (0, 1), BuildingBlock: XIVTED_clean_linker_0, # of connection points: 2
#     Edge 21, Type (0, 1), BuildingBlock: XIVTED_clean_linker_0, # of connection points: 2
#     Edge 22, Type (0, 1), BuildingBlock: XIVTED_clean_linker_0, # of connection points: 2
#     Edge 23, Type (0, 1), BuildingBlock: XIVTED_clean_linker_0, # of connection points: 2
#     Edge 24, Type (0, 1), BuildingBlock: XIVTED_clean_linker_0, # of connection points: 2
#     Edge 25, Type (0, 1), BuildingBlock: XIVTED_clean_linker_0, # of connection points: 2
#     Edge 26, Type (0, 1), BuildingBlock: XIVTED_clean_linker_0, # of connection points: 2
#     Edge 27, Type (0, 1), BuildingBlock: XIVTED_clean_linker_0, # of connection points: 2
#     Edge 28, Type (0, 1), BuildingBlock: XIVTED_clean_linker_0, # of connection points: 2
#     Edge 29, Type (0, 1), BuildingBlock: XIVTED_clean_linker_0, # of connection points: 2
#     Edge 30, Type (0, 1), BuildingBlock: XIVTED_clean_linker_0, # of connection points: 2
#     Edge 31, Type (0, 1), BuildingBlock: XIVTED_clean_linker_0, # of connection points: 2
#     Edge 32, Type (0, 1), BuildingBlock: XIVTED_clean_linker_0, # of connection points: 2
#     Edge 33, Type (0, 1), BuildingBlock: XIVTED_clean_linker_0, # of connection points: 2
#     Edge 34, Type (0, 1), BuildingBlock: XIVTED_clean_linker_0, # of connection points: 2
#     Edge 35, Type (0, 1), BuildingBlock: XIVTED_clean_linker_0, # of connection points: 2
#     Edge 36, Type (0, 1), BuildingBlock: XIVTED_clean_linker_0, # of connection points: 2
#     Edge 37, Type (0, 1), BuildingBlock: XIVTED_clean_linker_0, # of connection points: 2
#     Edge 38, Type (0, 1), BuildingBlock: XIVTED_clean_linker_0, # of connection points: 2
#     Edge 39, Type (0, 1), BuildingBlock: XIVTED_clean_linker_0, # of connection points: 2
#     Edge 40, Type (0, 1), BuildingBlock: XIVTED_clean_linker_0, # of connection points: 2
#     Edge 41, Type (0, 1), BuildingBlock: XIVTED_clean_linker_0, # of connection points: 2
#     Edge 42, Type (0, 1), BuildingBlock: XIVTED_clean_linker_0, # of connection points: 2
#     Edge 43, Type (0, 1), BuildingBlock: XIVTED_clean_linker_0, # of connection points: 2
#     Edge 44, Type (0, 1), BuildingBlock: XIVTED_clean_linker_0, # of connection points: 2
#     Edge 45, Type (0, 1), BuildingBlock: XIVTED_clean_linker_0, # of connection points: 2
#     Edge 46, Type (0, 1), BuildingBlock: XIVTED_clean_linker_0, # of connection points: 2
#     Edge 47, Type (0, 1), BuildingBlock: XIVTED_clean_linker_0, # of connection points: 2
#     Edge 48, Type (0, 1), BuildingBlock: XIVTED_clean_linker_0, # of connection points: 2
#     Edge 49, Type (0, 1), BuildingBlock: XIVTED_clean_linker_0, # of connection points: 2
#     Edge 50, Type (0, 1), BuildingBlock: XIVTED_clean_linker_0, # of connection points: 2
#     Edge 51, Type (0, 1), BuildingBlock: XIVTED_clean_linker_0, # of connection points: 2
#     Edge 52, Type (0, 1), BuildingBlock: XIVTED_clean_linker_0, # of connection points: 2
#     Edge 53, Type (0, 1), BuildingBlock: XIVTED_clean_linker_0, # of connection points: 2
#     Edge 54, Type (0, 1), BuildingBlock: XIVTED_clean_linker_0, # of connection points: 2
#     Edge 55, Type (0, 1), BuildingBlock: XIVTED_clean_linker_0, # of connection points: 2
#     Edge 56, Type (0, 1), BuildingBlock: XIVTED_clean_linker_0, # of connection points: 2
#     Edge 57, Type (0, 1), BuildingBlock: XIVTED_clean_linker_0, # of connection points: 2
#     Edge 58, Type (0, 1), BuildingBlock: XIVTED_clean_linker_0, # of connection points: 2
#     Edge 59, Type (0, 1), BuildingBlock: XIVTED_clean_linker_0, # of connection points: 2
#     Edge 60, Type (0, 1), BuildingBlock: XIVTED_clean_linker_0, # of connection points: 2
#     Edge 61, Type (0, 1), BuildingBlock: XIVTED_clean_linker_0, # of connection points: 2
# Relax obj value: 0.276
# Max RMSD: 0.312
# Mean RMSD: 0.196
data_MOF--net-ocu--node1-PAMTOO_clean_sbu_0--node2-GIZVER_clean_sbu_0--edge1-XIVTED_clean_linker_0
_symmetry_space_group_name_H-M    P1
_symmetry_Int_Tables_number       1
_symmetry_cell_setting            triclinic
loop_
_symmetry_equiv_pos_as_xyz
'x, y, z'
_cell_length_a     41.13081
_cell_length_b     44.529123
_cell_length_c     32.34105
_cell_angle_alpha  90.720064
_cell_angle_beta   94.047993
_cell_angle_gamma 104.9655
loop_
_atom_site_label
_atom_site_type_symbol
_atom_site_fract_x
_atom_site_fract_y
_atom_site_fract_z
_atom_type_partial_charge
Dy0 Dy 0.35982 0.32535 0.3329 0.0
Dy1 Dy 0.3048 0.31218 0.25279 0.0
C2 C 0.36586 0.27724 0.25684 0.0
O3 O 0.37701 0.36828 0.29611 0.0
O4 O 0.34556 0.35278 0.23443 0.0
O5 O 0.41075 0.33135 0.36024 0.0
O6 O 0.37097 0.33452 0.39874 0.0
O7 O 0.28718 0.34807 0.29116 0.0
O8 O 0.32234 0.35225 0.35063 0.0
O9 O 0.28042 0.27718 0.29729 0.0
O10 O 0.32363 0.28007 0.34753 0.0
O11 O 0.25441 0.30348 0.22312 0.0
O12 O 0.29636 0.30345 0.18659 0.0
C13 C 0.36999 0.37252 0.25664 0.0
O14 O 0.38151 0.29713 0.28716 0.0
O15 O 0.33415 0.27579 0.24466 0.0
C16 C 0.41224 0.31197 0.42752 0.0
C17 C 0.42998 0.27099 0.48526 0.0
C18 C 0.41036 0.25948 0.44823 0.0
C19 C 0.4015 0.27978 0.4197 0.0
C20 C 0.43147 0.32368 0.46446 0.0
C21 C 0.44034 0.30334 0.49315 0.0
C22 C 0.40212 0.33319 0.398 0.0
C23 C 0.29637 0.35894 0.32986 0.0
C24 C 0.29276 0.26729 0.33147 0.0
C25 C 0.25308 0.32283 0.1562 0.0
C26 C 0.2266 0.36151 0.10292 0.0
C27 C 0.24752 0.37397 0.13874 0.0
C28 C 0.26071 0.35482 0.16501 0.0
C29 C 0.23388 0.31037 0.11954 0.0
C30 C 0.22078 0.32961 0.09292 0.0
C31 C 0.26447 0.30254 0.18592 0.0
H32 H 0.40251 0.23478 0.44069 0.0
H33 H 0.3864 0.27037 0.3914 0.0
H34 H 0.43957 0.34852 0.47111 0.0
H35 H 0.45523 0.31293 0.52148 0.0
H36 H 0.25213 0.39823 0.14808 0.0
H37 H 0.2758 0.36479 0.19309 0.0
H38 H 0.22823 0.28567 0.11213 0.0
H39 H 0.20515 0.31936 0.06537 0.0
Dy40 Dy 0.83798 0.32819 0.2572 0.0
Dy41 Dy 0.79652 0.32818 0.33742 0.0
C42 C 0.86497 0.37786 0.32784 0.0
O43 O 0.85412 0.29194 0.29664 0.0
O44 O 0.83477 0.30103 0.35938 0.0
O45 O 0.87176 0.34923 0.21134 0.0
O46 O 0.84551 0.30024 0.20538 0.0
O47 O 0.772 0.28188 0.30565 0.0
O48 O 0.78428 0.30228 0.24299 0.0
O49 O 0.76873 0.35032 0.2879 0.0
O50 O 0.81179 0.36724 0.24585 0.0
O51 O 0.75081 0.32305 0.36897 0.0
O52 O 0.79962 0.34628 0.40002 0.0
C53 C 0.85294 0.28727 0.33688 0.0
O54 O 0.87484 0.35794 0.30489 0.0
O55 O 0.83275 0.37432 0.33092 0.0
C56 C 0.84693 0.33035 0.14587 0.0
C57 C 0.82044 0.36716 0.09027 0.0
C58 C 0.79853 0.3444 0.1121 0.0
C59 C 0.81181 0.32639 0.14035 0.0
C60 C 0.8676 0.34778 0.11752 0.0
C61 C 0.85429 0.3657 0.08919 0.0
C62 C 0.86207 0.3246 0.18657 0.0
C63 C 0.76678 0.28036 0.2651 0.0
C64 C 0.78191 0.36816 0.2578 0.0
C65 C 0.7546 0.32782 0.44229 0.0
C66 C 0.72579 0.30577 0.51584 0.0
C67 C 0.75164 0.29414 0.50061 0.0
C68 C 0.76587 0.30504 0.46401 0.0
C69 C 0.73058 0.34099 0.45867 0.0
C70 C 0.71623 0.33005 0.49521 0.0
C71 C 0.767 0.33813 0.40229 0.0
H72 H 0.77217 0.34425 0.11267 0.0
H73 H 0.79514 0.31256 0.16141 0.0
H74 H 0.89466 0.35078 0.12084 0.0
H75 H 0.87198 0.3822 0.07193 0.0
H76 H 0.75916 0.27495 0.51516 0.0
H77 H 0.78462 0.29485 0.45184 0.0
H78 H 0.72204 0.35899 0.44235 0.0
H79 H 0.69639 0.33936 0.5061 0.0
Dy80 Dy 0.79929 0.82269 0.33776 0.0
Dy81 Dy 0.82437 0.84588 0.24539 0.0
C82 C 0.87401 0.86703 0.32806 0.0
O83 O 0.77595 0.86139 0.32384 0.0
O84 O 0.81153 0.88639 0.27562 0.0
O85 O 0.80017 0.82927 0.40439 0.0
O86 O 0.77036 0.78651 0.37422 0.0
O87 O 0.76865 0.82631 0.23368 0.0
O88 O 0.75997 0.7953 0.29027 0.0
O89 O 0.81936 0.79509 0.25084 0.0
O90 O 0.83505 0.79608 0.31957 0.0
O91 O 0.84997 0.83614 0.19249 0.0
O92 O 0.8308 0.87695 0.19436 0.0
C93 C 0.7889 0.88595 0.30255 0.0
O94 O 0.84852 0.85802 0.35126 0.0
O95 O 0.87136 0.86075 0.28794 0.0
C96 C 0.80383 0.7825 0.43536 0.0
C97 C 0.85152 0.75518 0.476 0.0
C98 C 0.84596 0.78267 0.49224 0.0
C99 C 0.82239 0.7962 0.47199 0.0
C100 C 0.80794 0.75397 0.42067 0.0
C101 C 0.83158 0.74058 0.44063 0.0
C102 C 0.78482 0.80015 0.40915 0.0
C103 C 0.75036 0.80276 0.25293 0.0
C104 C 0.83147 0.78264 0.28283 0.0
C105 C 0.8268 0.85149 0.13013 0.0
C106 C 0.78726 0.85376 0.0565 0.0
C107 C 0.77336 0.83519 0.08912 0.0
C108 C 0.79305 0.8341 0.12568 0.0
C109 C 0.84204 0.86603 0.0957 0.0
C110 C 0.82248 0.86664 0.05871 0.0
C111 C 0.84368 0.85915 0.17176 0.0
H112 H 0.86067 0.79432 0.51968 0.0
H113 H 0.82017 0.81829 0.48365 0.0
H114 H 0.7944 0.74275 0.39232 0.0
H115 H 0.83553 0.71968 0.42672 0.0
H116 H 0.74649 0.82464 0.08877 0.0
H117 H 0.78107 0.82227 0.15185 0.0
H118 H 0.86834 0.87901 0.09841 0.0
H119 H 0.83425 0.88014 0.03359 0.0
Dy120 Dy 0.30824 0.83518 0.3104 0.0
Dy121 Dy 0.35129 0.78583 0.29416 0.0
C122 C 0.37829 0.84054 0.36087 0.0
O123 O 0.35327 0.86193 0.27782 0.0
O124 O 0.36676 0.82153 0.2452 0.0
O125 O 0.29109 0.87495 0.29004 0.0
O126 O 0.27969 0.85578 0.35031 0.0
O127 O 0.30044 0.76444 0.26203 0.0
O128 O 0.27959 0.80728 0.25529 0.0
O129 O 0.31998 0.76796 0.3477 0.0
O130 O 0.27693 0.79131 0.33659 0.0
O131 O 0.37837 0.75423 0.32099 0.0
O132 O 0.37383 0.75919 0.25433 0.0
C133 C 0.36943 0.85159 0.24942 0.0
O134 O 0.34649 0.83952 0.36434 0.0
O135 O 0.38694 0.82513 0.33063 0.0
C136 C 0.29653 0.90991 0.34644 0.0
C137 C 0.32293 0.96666 0.39058 0.0
C138 C 0.33832 0.94221 0.39639 0.0
C139 C 0.32537 0.91412 0.37416 0.0
C140 C 0.28236 0.93479 0.33872 0.0
C141 C 0.29554 0.96304 0.36053 0.0
C142 C 0.28102 0.87939 0.32643 0.0
C143 C 0.27741 0.77782 0.247 0.0
C144 C 0.28894 0.76926 0.35339 0.0
C145 C 0.36778 0.70916 0.27823 0.0
C146 C 0.34111 0.64963 0.24195 0.0
C147 C 0.37596 0.66048 0.2534 0.0
C148 C 0.38924 0.69027 0.27104 0.0
C149 C 0.33265 0.69683 0.27224 0.0
C150 C 0.31935 0.66725 0.25389 0.0
C151 C 0.38172 0.74274 0.28473 0.0
H152 H 0.35933 0.94436 0.4194 0.0
H153 H 0.33705 0.89528 0.37982 0.0
H154 H 0.26037 0.932 0.31707 0.0
H155 H 0.28273 0.98129 0.35592 0.0
H156 H 0.39344 0.64759 0.24423 0.0
H157 H 0.41638 0.69943 0.2757 0.0
H158 H 0.3157 0.71108 0.27828 0.0
H159 H 0.29249 0.65945 0.24538 0.0
Dy160 Dy 0.34572 0.82077 0.72384 0.0
Dy161 Dy 0.30823 0.82267 0.80778 0.0
C162 C 0.37168 0.87602 0.78892 0.0
O163 O 0.363 0.78578 0.76562 0.0
O164 O 0.35201 0.80299 0.82863 0.0
O165 O 0.3575 0.79126 0.67665 0.0
O166 O 0.37397 0.84151 0.67325 0.0
O167 O 0.28936 0.77527 0.77778 0.0
O168 O 0.29267 0.79387 0.7134 0.0
O169 O 0.28021 0.84793 0.76316 0.0
O170 O 0.31387 0.85472 0.70815 0.0
O171 O 0.26273 0.81415 0.83967 0.0
O172 O 0.31159 0.83258 0.8737 0.0
C173 C 0.36635 0.78562 0.80661 0.0
O174 O 0.38129 0.85573 0.7663 0.0
O175 O 0.34107 0.87007 0.80101 0.0
C176 C 0.41051 0.81275 0.65179 0.0
C177 C 0.47771 0.81688 0.63481 0.0
C178 C 0.47015 0.82707 0.67359 0.0
C179 C 0.43689 0.82485 0.68203 0.0
C180 C 0.41738 0.80018 0.61451 0.0
C181 C 0.45074 0.80197 0.60618 0.0
C182 C 0.37625 0.81476 0.65842 0.0
C183 C 0.28087 0.77144 0.73799 0.0
C184 C 0.28833 0.86025 0.72705 0.0
C185 C 0.27163 0.79431 0.9057 0.0
C186 C 0.25419 0.74688 0.96315 0.0
C187 C 0.24463 0.74084 0.9206 0.0
C188 C 0.25343 0.7642 0.8922 0.0
C189 C 0.28309 0.80005 0.94762 0.0
C190 C 0.27468 0.77646 0.9761 0.0
C191 C 0.27953 0.81945 0.87605 0.0
H192 H 0.48987 0.83901 0.69647 0.0
H193 H 0.43193 0.83419 0.71136 0.0
H194 H 0.39711 0.79016 0.59118 0.0
H195 H 0.45544 0.79318 0.57644 0.0
H196 H 0.22847 0.71863 0.90923 0.0
H197 H 0.24499 0.75882 0.85982 0.0
H198 H 0.29793 0.82294 0.95846 0.0
H199 H 0.28306 0.78179 1.00848 0.0
Dy200 Dy 0.34935 0.30829 0.76432 0.0
Dy201 Dy 0.3035 0.30772 0.84318 0.0
C202 C 0.27382 0.26665 0.76318 0.0
O203 O 0.32528 0.34735 0.75061 0.0
O204 O 0.28337 0.33653 0.79619 0.0
O205 O 0.35505 0.28454 0.708 0.0
O206 O 0.39226 0.32698 0.72864 0.0
O207 O 0.34339 0.35281 0.84958 0.0
O208 O 0.38354 0.33855 0.81391 0.0
O209 O 0.34244 0.28339 0.8655 0.0
O210 O 0.35765 0.26886 0.80313 0.0
O211 O 0.30033 0.31275 0.90912 0.0
O212 O 0.25476 0.30003 0.86821 0.0
C213 C 0.29685 0.35103 0.76375 0.0
O214 O 0.29539 0.28701 0.74308 0.0
O215 O 0.2788 0.26486 0.80358 0.0
C216 C 0.41092 0.28619 0.69877 0.0
C217 C 0.45034 0.24348 0.69265 0.0
C218 C 0.43376 0.25204 0.65695 0.0
C219 C 0.41418 0.27327 0.66002 0.0
C220 C 0.4287 0.27879 0.73417 0.0
C221 C 0.44842 0.25775 0.7311 0.0
C222 C 0.38477 0.30277 0.70314 0.0
C223 C 0.37497 0.35667 0.8412 0.0
C224 C 0.35837 0.26743 0.8438 0.0
C225 C 0.25599 0.33416 0.92421 0.0
C226 C 0.22836 0.38153 0.9521 0.0
C227 C 0.25621 0.38868 0.92789 0.0
C228 C 0.26982 0.36513 0.91387 0.0
C229 C 0.22932 0.32713 0.95007 0.0
C230 C 0.21556 0.35068 0.96396 0.0
C231 C 0.26782 0.30914 0.90558 0.0
H232 H 0.43509 0.24159 0.62688 0.0
H233 H 0.40028 0.27844 0.63248 0.0
H234 H 0.42594 0.28804 0.76451 0.0
H235 H 0.46059 0.25132 0.75918 0.0
H236 H 0.26629 0.41217 0.91793 0.0
H237 H 0.29037 0.37091 0.89372 0.0
H238 H 0.21845 0.30333 0.95838 0.0
H239 H 0.19426 0.34466 0.98292 0.0
Dy240 Dy 0.79962 0.32633 0.78133 0.0
Dy241 Dy 0.85661 0.29542 0.82256 0.0
C242 C 0.84181 0.35324 0.86697 0.0
O243 O 0.84082 0.33719 0.73796 0.0
O244 O 0.8834 0.33632 0.78649 0.0
O245 O 0.78897 0.3671 0.75384 0.0
O246 O 0.74787 0.32732 0.7648 0.0
O247 O 0.84127 0.2705 0.75998 0.0
O248 O 0.79069 0.28247 0.74453 0.0
O249 O 0.8085 0.26371 0.84059 0.0
O250 O 0.77439 0.29674 0.83215 0.0
O251 O 0.87289 0.25687 0.84862 0.0
O252 O 0.90894 0.30137 0.84485 0.0
C253 C 0.87298 0.34551 0.75065 0.0
O254 O 0.83006 0.35966 0.83042 0.0
O255 O 0.84731 0.32591 0.87351 0.0
C256 C 0.7479 0.37595 0.79382 0.0
C257 C 0.75739 0.41613 0.86423 0.0
C258 C 0.75332 0.38406 0.86845 0.0
C259 C 0.74755 0.36425 0.8339 0.0
C260 C 0.75057 0.4077 0.78897 0.0
C261 C 0.75464 0.42759 0.82395 0.0
C262 C 0.75725 0.35746 0.76104 0.0
C263 C 0.81186 0.26562 0.73826 0.0
C264 C 0.77985 0.27054 0.84556 0.0
C265 C 0.92155 0.25696 0.81734 0.0
C266 C 0.91671 0.21933 0.74581 0.0
C267 C 0.92226 0.25171 0.74291 0.0
C268 C 0.92545 0.27039 0.77835 0.0
C269 C 0.9209 0.2255 0.82104 0.0
C270 C 0.91881 0.2068 0.78543 0.0
C271 C 0.9046 0.27138 0.84721 0.0
H272 H 0.75613 0.37398 0.89829 0.0
H273 H 0.74596 0.33999 0.83894 0.0
H274 H 0.75163 0.41738 0.75838 0.0
H275 H 0.75655 0.45196 0.8192 0.0
H276 H 0.92092 0.26266 0.71342 0.0
H277 H 0.9261 0.29466 0.77436 0.0
H278 H 0.91796 0.21466 0.85084 0.0
H279 H 0.9164 0.18221 0.78904 0.0
Dy280 Dy 0.86211 0.82016 0.82751 0.0
Dy281 Dy 0.80744 0.80319 0.74788 0.0
C282 C 0.87372 0.77253 0.75223 0.0
O283 O 0.88713 0.85267 0.77966 0.0
O284 O 0.84463 0.84536 0.72752 0.0
O285 O 0.894 0.8062 0.87515 0.0
O286 O 0.89273 0.85443 0.87217 0.0
O287 O 0.78438 0.83402 0.78942 0.0
O288 O 0.82684 0.85081 0.84075 0.0
O289 O 0.78747 0.76549 0.79118 0.0
O290 O 0.81751 0.78598 0.85188 0.0
O291 O 0.76564 0.81168 0.70996 0.0
O292 O 0.78558 0.77309 0.69437 0.0
C293 C 0.87488 0.8599 0.74355 0.0
O294 O 0.88205 0.78459 0.79057 0.0
O295 O 0.84785 0.77876 0.73034 0.0
C296 C 0.89523 0.83331 0.93837 0.0
C297 C 0.88788 0.82585 0.02402 0.0
C298 C 0.86341 0.80812 0.99437 0.0
C299 C 0.86702 0.81192 0.9521 0.0
C300 C 0.91763 0.85346 0.96733 0.0
C301 C 0.91373 0.85006 1.00985 0.0
C302 C 0.90198 0.8334 0.89428 0.0
C303 C 0.797 0.85163 0.82331 0.0
C304 C 0.79265 0.76527 0.83162 0.0
C305 C 0.76935 0.80134 0.63948 0.0
C306 C 0.77215 0.82544 0.55929 0.0
C307 C 0.79297 0.84203 0.59288 0.0
C308 C 0.79162 0.83007 0.6324 0.0
C309 C 0.74995 0.7837 0.60593 0.0
C310 C 0.75139 0.79562 0.56601 0.0
C311 C 0.76606 0.79049 0.68203 0.0
H312 H 0.843 0.78923 1.00324 0.0
H313 H 0.84884 0.79668 0.93022 0.0
H314 H 0.93901 0.87081 0.95721 0.0
H315 H 0.93234 0.86507 0.0315 0.0
H316 H 0.80882 0.86527 0.58951 0.0
H317 H 0.80691 0.844 0.65784 0.0
H318 H 0.73298 0.76121 0.6108 0.0
H319 H 0.73538 0.782 0.54079 0.0
Co320 Co 0.13604 1.03707 0.52765 0.0
Co321 Co 0.10748 1.02524 0.59072 0.0
Co322 Co 0.07184 0.07386 0.53512 0.0
O323 O 0.11188 0.05933 0.55906 0.0
H324 H 0.12764 0.07651 0.57414 0.0
O325 O 1.0319 0.08892 0.51164 0.0
Co326 Co 1.01132 0.11552 0.54143 0.0
Co327 Co 1.03507 0.1198 0.47361 0.0
H328 H 1.01467 0.07107 0.50031 0.0
O329 O 0.13889 1.02267 0.63456 0.0
O330 O 0.13558 1.00268 0.56968 0.0
O331 O 0.06114 1.00611 0.59657 0.0
O332 O 1.03818 0.04346 0.56994 0.0
O333 O 0.08254 0.10486 0.58219 0.0
O334 O 0.98721 0.13527 0.56871 0.0
O335 O 0.96922 0.09452 0.52292 0.0
O336 O 1.05456 0.14046 0.56614 0.0
O337 O 0.10574 0.1039 0.50028 0.0
O338 O 0.08096 0.13507 0.46164 0.0
O339 O 1.01261 0.14761 0.49559 0.0
O340 O 1.0001 0.12281 0.43352 0.0
C341 C 0.18562 1.04232 0.52135 0.0
C342 C 0.06845 1.01664 0.48345 0.0
C343 C 1.03619 1.01774 0.58922 0.0
C344 C 0.14802 1.00447 0.60848 0.0
C345 C 0.96283 0.11415 0.54908 0.0
C346 C 0.07846 0.13206 0.58626 0.0
C347 C 0.10676 0.12586 0.47409 0.0
C348 C 0.99588 0.14417 0.45887 0.0
O349 O 0.16318 1.02135 0.49879 0.0
O350 O 0.17654 0.05905 0.54926 0.0
O351 O 0.06082 1.04234 0.4884 0.0
O352 O 0.0951 1.0113 0.50086 0.0
Co353 Co 0.62046 1.01608 0.97501 0.0
Co354 Co 0.58906 0.99798 0.03852 0.0
Co355 Co 0.56955 0.06193 0.035 0.0
O356 O 0.60896 1.03971 0.02761 0.0
H357 H 0.62843 0.04822 0.04669 0.0
O358 O 0.52952 0.08202 0.04162 0.0
Co359 Co 0.53055 0.12221 0.0704 0.0
Co360 Co 0.52438 0.10441 0.99528 0.0
H361 H 0.50872 0.06648 0.04515 0.0
O362 O 0.61572 0.97731 0.06794 0.0
O363 O 0.60187 0.9756 0.99891 0.0
O364 O 0.5419 0.98475 0.04545 0.0
O365 O 0.54394 1.02979 0.07624 0.0
O366 O 0.59588 0.09045 0.08207 0.0
O367 O 0.52993 0.15827 0.09883 0.0
O368 O 0.48546 0.11775 0.08525 0.0
O369 O 0.57765 0.13205 0.06222 0.0
O370 O 0.59583 0.09402 0.99612 0.0
O371 O 0.56057 0.11557 0.95962 0.0
O372 O 0.51767 0.14107 1.01594 0.0
O373 O 0.4828 0.10296 0.9737 0.0
C374 C 0.65993 0.99498 0.95043 0.0
C375 C 0.54922 1.02282 0.95548 0.0
C376 C 0.53028 1.00024 0.07093 0.0
C377 C 0.61694 0.96596 0.031 0.0
C378 C 0.498 0.1457 0.10245 0.0
C379 C 0.59779 0.11992 0.0845 0.0
C380 C 0.58992 0.11216 0.96764 0.0
C381 C 0.49131 0.1314 0.98874 0.0
O382 O 0.63157 0.99503 0.93016 0.0
O383 O 0.66573 1.01017 0.98674 0.0
O384 O 0.54227 1.03707 0.98683 0.0
O385 O 0.57736 1.01637 0.95262 0.0
Co386 Co 1.05194 0.53401 0.0446 0.0
Co387 Co 1.04179 0.51968 0.12002 0.0
Co388 Co 1.01358 0.57928 0.10326 0.0
O389 O 1.04867 0.5569 0.09354 0.0
H390 H 0.07089 0.56963 0.10235 0.0
O391 O 0.97959 0.60245 0.11424 0.0
Co392 Co 0.97868 0.62256 0.16682 0.0
Co393 Co 0.98605 0.64074 0.09383 0.0
H394 H 0.95754 0.59218 0.10183 0.0
O395 O 0.07854 0.50698 0.14133 0.0
O396 O 1.05118 0.49657 0.0776 0.0
O397 O 0.99677 0.50392 0.13615 0.0
O398 O 0.99461 0.55222 0.15009 0.0
O399 O 1.05001 0.60631 0.14153 0.0
O400 O 0.97274 0.63919 0.21469 0.0
O401 O 0.93369 0.61123 0.16692 0.0
O402 O 1.02598 0.63837 0.1729 0.0
O403 O 1.03195 0.60709 0.05701 0.0
O404 O 1.03042 0.655 0.07606 0.0
O405 O 0.97783 0.66196 0.13954 0.0
O406 O 0.94894 0.65484 0.07663 0.0
C407 C 0.09044 0.52562 1.01377 0.0
C408 C 0.97816 0.52708 0.04278 0.0
C409 C 0.9809 0.52288 0.14848 0.0
C410 C 0.07508 0.4937 0.10465 0.0
C411 C 0.94126 0.6274 0.20176 0.0
C412 C 1.05207 0.63049 0.16371 0.0
C413 C 1.04571 0.63642 0.06094 0.0
C414 C 0.95385 0.66682 0.11419 0.0
O415 O 1.0591 0.51409 1.00011 0.0
O416 O 0.0975 0.54407 0.0467 0.0
O417 O 0.97759 0.55123 0.06407 0.0
O418 O 1.00528 0.51993 0.03659 0.0
Co419 Co 0.62589 0.53065 0.04681 0.0
Co420 Co 0.61119 0.54435 0.11763 0.0
Co421 Co 0.57073 0.57768 0.0424 0.0
O422 O 0.61158 0.56511 0.06795 0.0
H423 H 0.63043 0.58338 0.0709 0.0
O424 O 0.52998 0.58997 1.0158 0.0
Co425 Co 0.5084 0.61839 0.03989 0.0
Co426 Co 0.53283 0.61715 0.9728 0.0
H427 H 0.51314 0.57115 1.00673 0.0
O428 O 0.65008 0.54185 0.15336 0.0
O429 O 0.6247 0.50869 0.10167 0.0
O430 O 0.56628 0.53282 0.1341 0.0
O431 O 0.5377 0.54892 0.08008 0.0
O432 O 0.58041 0.61212 0.08543 0.0
O433 O 0.48302 0.64006 0.06274 0.0
O434 O 0.46701 0.59576 0.02334 0.0
O435 O 0.55086 0.64504 0.06207 0.0
O436 O 0.60418 0.60625 1.00542 0.0
O437 O 0.57853 0.63315 0.96096 0.0
O438 O 0.50982 0.64618 0.98927 0.0
O439 O 0.49841 0.61661 0.93067 0.0
C440 C 0.67172 0.52378 0.03934 0.0
C441 C 0.55914 0.51493 1.00606 0.0
C442 C 0.5388 0.53455 0.11467 0.0
C443 C 0.64697 0.51558 0.1336 0.0
C444 C 0.45935 0.61664 0.04638 0.0
C445 C 0.57546 0.63927 0.08407 0.0
C446 C 0.60484 0.62616 0.97643 0.0
C447 C 0.49413 0.64004 0.95207 0.0
O448 O 0.64446 0.50238 0.02697 0.0
O449 O 0.66983 0.54948 0.05715 0.0
O450 O 0.56116 0.54341 0.99908 0.0
O451 O 0.58004 0.50703 0.03198 0.0
Co452 Co 0.149 0.51272 0.56992 0.0
Co453 Co 0.1302 0.52039 0.49737 0.0
Co454 Co 0.08824 0.55567 0.56086 0.0
O455 O 0.1056 0.51745 0.54429 0.0
H456 H 0.08798 0.49831 0.54355 0.0
O457 O 0.07122 0.59365 0.57922 0.0
Co458 Co 1.03443 0.60517 0.54748 0.0
Co459 Co 1.04003 0.59078 0.61965 0.0
H460 H 0.09007 0.61152 0.58544 0.0
O461 O 0.12939 0.4864 0.46232 0.0
O462 O 0.16915 0.50673 0.51367 0.0
O463 O 0.14382 0.56206 0.47904 0.0
O464 O 0.12013 0.58705 0.52436 0.0
O465 O 1.0533 0.54513 0.51363 0.0
O466 O 1.00486 0.61835 0.51651 0.0
O467 O 1.05223 0.64692 0.55192 0.0
O468 O 1.01119 0.56189 0.53707 0.0
O469 O 1.05586 0.52487 0.59683 0.0
O470 O 1.02231 0.54791 0.63143 0.0
O471 O 1.0059 0.60966 0.59792 0.0
O472 O 1.03854 0.62403 0.65678 0.0
C473 C 0.16898 0.47772 0.59377 0.0
C474 C 0.15521 0.57097 0.60089 0.0
C475 C 0.13938 0.58705 0.49426 0.0
C476 C 0.15875 0.48751 0.48097 0.0
C477 C 1.02483 0.64526 0.52803 0.0
C478 C 1.02189 0.54307 0.51471 0.0
C479 C 1.03139 0.52388 0.62042 0.0
C480 C 1.01305 0.62712 0.63262 0.0
O481 O 0.1862 0.5066 0.59523 0.0
O482 O 0.13821 0.47023 0.57586 0.0
O483 O 0.12392 0.5656 0.60703 0.0
O484 O 0.16553 0.55681 0.57184 0.0
Co485 Co 0.68996 1.0281 0.49554 0.0
Co486 Co 0.66486 0.06537 0.45042 0.0
Co487 Co 0.62137 0.05087 0.5298 0.0
O488 O 0.64555 1.03497 0.4872 0.0
H489 H 0.63038 1.01771 0.47156 0.0
O490 O 0.59897 0.0693 0.57125 0.0
Co491 Co 0.55326 0.06945 0.56509 0.0
Co492 Co 0.59117 0.05125 0.62088 0.0
H493 H 0.61211 0.09039 0.57766 0.0
O494 O 0.66845 0.05451 0.39511 0.0
O495 O 0.70565 0.05608 0.45001 0.0
O496 O 0.66894 0.10674 0.47199 0.0
O497 O 0.61901 0.08788 0.49609 0.0
O498 O 0.57801 1.02578 0.50063 0.0
O499 O 0.51146 0.07453 0.56055 0.0
O500 O 0.56052 0.10933 0.58095 0.0
O501 O 0.54024 1.02738 0.54615 0.0
O502 O 0.62349 1.01285 0.56242 0.0
O503 O 0.59918 1.01092 0.62282 0.0
O504 O 0.54797 0.05532 0.62291 0.0
O505 O 0.59308 0.07644 0.66746 0.0
C506 C 0.71037 0.99456 0.47387 0.0
C507 C 0.69491 0.07913 0.55864 0.0
C508 C 0.64444 0.11068 0.49137 0.0
C509 C 0.69686 0.05024 0.41071 0.0
C510 C 0.52809 0.1029 0.57172 0.0
C511 C 0.54971 1.0143 0.51566 0.0
C512 C 0.61389 0.99923 0.59587 0.0
C513 C 0.56144 0.07306 0.65533 0.0
O514 O 0.72853 1.01682 0.49876 0.0
O515 O 0.67956 0.99454 0.46159 0.0
O516 O 0.6634 0.07519 0.56005 0.0
O517 O 0.7071 0.0633 0.5338 0.0
H518 H 0.29923 0.24828 0.41248 0.0
H519 H 0.11204 0.13494 0.39252 0.0
H520 H 0.23353 0.22784 0.30003 0.0
H521 H 0.1725 0.15027 0.50894 0.0
H522 H 0.15986 0.16511 0.35813 0.0
H523 H 0.2571 0.20965 0.44816 0.0
C524 C 0.27625 0.23545 0.39512 0.0
C525 C 0.26993 0.24164 0.35312 0.0
C526 C 0.16309 0.16183 0.39114 0.0
C527 C 0.22162 0.19744 0.39384 0.0
C528 C 0.13568 0.14444 0.41083 0.0
C529 C 0.13818 0.14013 0.4537 0.0
C530 C 0.19357 0.17576 0.41434 0.0
C531 C 0.16955 0.15292 0.47577 0.0
C532 C 0.25217 0.21347 0.41559 0.0
C533 C 0.23959 0.22429 0.33241 0.0
N534 N 0.19597 0.17055 0.45593 0.0
N535 N 0.21675 0.2033 0.35292 0.0
H536 H 0.88246 0.24637 0.29819 0.0
H537 H 0.97739 0.19233 0.50117 0.0
H538 H 0.87067 0.27865 0.42096 0.0
H539 H 0.96442 0.14634 0.3809 0.0
H540 H 0.94242 0.22641 0.47385 0.0
H541 H 0.91585 0.2128 0.32852 0.0
C542 C 0.88676 0.24656 0.33162 0.0
C543 C 0.87314 0.26581 0.35661 0.0
C544 C 0.94721 0.20884 0.45344 0.0
C545 C 0.91275 0.22664 0.3924 0.0
C546 C 0.96737 0.18926 0.46908 0.0
C547 C 0.97423 0.16587 0.44371 0.0
C548 C 0.93397 0.20577 0.41157 0.0
C549 C 0.96014 0.16361 0.40221 0.0
C550 C 0.90602 0.22712 0.34908 0.0
C551 C 0.88017 0.26439 0.39999 0.0
N552 N 0.9412 0.18308 0.38774 0.0
N553 N 0.89943 0.24551 0.41626 0.0
H554 H 0.9221 0.91177 0.29308 0.0
H555 H 1.04906 0.95408 0.49617 0.0
H556 H 0.89943 0.86618 0.40844 0.0
H557 H 1.03285 1.02377 0.41154 0.0
H558 H 1.00401 0.91503 0.45623 0.0
H559 H 0.97297 0.94659 0.32852 0.0
C560 C 0.92809 0.90878 0.32567 0.0
C561 C 0.90644 0.88618 0.34792 0.0
C562 C 1.01071 0.93881 0.44622 0.0
C563 C 0.96466 0.92554 0.3883 0.0
C564 C 1.03651 0.96098 0.46871 0.0
C565 C 1.04464 0.99212 0.45702 0.0
C566 C 0.99364 0.94777 0.41126 0.0
C567 C 1.02726 0.99999 0.42158 0.0
C568 C 0.95697 0.92873 0.34585 0.0
C569 C 0.91532 0.88347 0.39021 0.0
N570 N 1.00268 0.97795 0.39984 0.0
N571 N 0.94381 0.90286 0.40903 0.0
H572 H 0.33197 1.02862 0.37545 0.0
H573 H 0.23369 1.02662 0.57235 0.0
H574 H 0.32905 0.96461 0.47486 0.0
H575 H 0.21783 0.06885 0.45618 0.0
H576 H 0.2899 1.02451 0.55319 0.0
H577 H 0.31605 0.06474 0.42259 0.0
C578 C 0.32935 1.02276 0.40768 0.0
C579 C 0.33009 0.99307 0.42085 0.0
C580 C 0.27459 1.03523 0.53256 0.0
C581 C 0.31092 1.03348 0.47417 0.0
C582 C 0.24259 1.03621 0.54335 0.0
C583 C 0.22128 0.04703 0.51502 0.0
C584 C 0.28482 0.04513 0.49328 0.0
C585 C 0.23357 0.05962 0.47816 0.0
C586 C 0.32019 0.0433 0.43456 0.0
C587 C 0.3276 0.98692 0.46312 0.0
N588 N 0.26444 0.0579 0.46801 0.0
N589 N 0.31682 1.0065 0.48806 0.0
H590 H 0.2867 0.88201 0.6465 0.0
H591 H 0.16426 0.9925 0.6896 0.0
H592 H 0.24322 0.88737 0.76288 0.0
H593 H 0.18163 0.96795 0.56528 0.0
H594 H 0.19768 0.95802 0.71679 0.0
H595 H 0.25339 0.91639 0.61659 0.0
C596 C 0.27027 0.89034 0.66593 0.0
C597 C 0.26805 0.88136 0.70759 0.0
C598 C 0.19431 0.96007 0.68353 0.0
C599 C 0.22968 0.92153 0.67316 0.0
C600 C 0.17516 0.98001 0.66778 0.0
C601 C 0.16967 0.98347 0.62474 0.0
C602 C 0.209 0.94329 0.65646 0.0
C603 C 0.18478 0.96618 0.59859 0.0
C604 C 0.2511 0.91001 0.64866 0.0
C605 C 0.246 0.89323 0.73071 0.0
N606 N 0.20374 0.94713 0.61475 0.0
N607 N 0.2281 0.91259 0.71343 0.0
H608 H 0.2467 0.27878 0.68782 0.0
H609 H 0.10875 0.11705 0.65767 0.0
H610 H 0.22918 0.21217 0.78485 0.0
H611 H 0.10387 0.19587 0.5837 0.0
H612 H 0.1536 0.15065 0.70342 0.0
H613 H 0.19616 0.24808 0.64803 0.0
C614 C 0.23227 0.25761 0.70081 0.0
C615 C 0.24251 0.24793 0.73974 0.0
C616 C 0.14252 0.16075 0.67752 0.0
C617 C 0.18427 0.21249 0.69386 0.0
C618 C 0.1169 0.14157 0.65127 0.0
C619 C 0.10249 0.15364 0.61666 0.0
C620 C 0.15457 0.19228 0.66882 0.0
C621 C 0.11407 0.18561 0.61009 0.0
C622 C 0.20321 0.24022 0.67808 0.0
C623 C 0.22238 0.2205 0.75501 0.0
N624 N 0.13976 0.20373 0.63557 0.0
N625 N 0.19446 0.20358 0.73184 0.0
H626 H 0.93198 0.23246 0.66527 0.0
H627 H 0.92711 0.07945 0.6063 0.0
H628 H 0.87509 0.15956 0.7389 0.0
H629 H 0.92118 0.1465 0.51346 0.0
H630 H 0.88944 0.0997 0.64688 0.0
H631 H 0.91411 0.19922 0.60453 0.0
C632 C 0.9153 0.20967 0.66894 0.0
C633 C 0.90587 0.19883 0.70802 0.0
C634 C 0.89478 0.10905 0.61661 0.0
C635 C 0.88634 0.15963 0.63764 0.0
C636 C 0.91624 0.09735 0.59339 0.0
C637 C 0.92829 0.1126 0.55788 0.0
C638 C 0.88721 0.13685 0.60465 0.0
C639 C 0.91343 0.13527 0.5419 0.0
C640 C 0.90484 0.19056 0.63379 0.0
C641 C 0.88459 0.16859 0.70998 0.0
N642 N 0.89439 0.14765 0.56621 0.0
N643 N 0.8764 0.14969 0.67548 0.0
H644 H 0.86744 0.87119 0.6604 0.0
H645 H 1.02326 1.02359 0.66923 0.0
H646 H 0.93021 0.90695 0.77182 0.0
H647 H 0.98138 0.97304 0.55523 0.0
H648 H 0.98154 0.98684 0.70702 0.0
H649 H 0.90202 0.91297 0.62162 0.0
C650 C 0.88833 0.8879 0.67687 0.0
C651 C 0.89582 0.88537 0.71964 0.0
C652 C 0.98092 0.98409 0.67363 0.0
C653 C 0.93553 0.93367 0.67512 0.0
C654 C 1.00439 1.00537 0.65198 0.0
C655 C 1.00519 1.00182 0.60892 0.0
C656 C 0.95808 0.95878 0.65218 0.0
C657 C 0.98101 0.97708 0.58826 0.0
C658 C 0.90814 0.91175 0.65457 0.0
C659 C 0.92351 0.90773 0.73895 0.0
N660 N 0.95852 0.95643 0.61007 0.0
N661 N 0.9422 0.93089 0.71666 0.0
H662 H 0.3403 0.22761 0.19971 0.0
H663 H 0.52116 0.19907 0.15194 0.0
H664 H 0.43455 0.27845 0.26269 0.0
H665 H 0.42733 0.13501 0.10733 0.0
H666 H 0.48972 0.22928 0.18908 0.0
H667 H 0.3706 0.19535 0.16349 0.0
C668 C 0.36734 0.23214 0.20622 0.0
C669 C 0.38442 0.25626 0.23501 0.0
C670 C 0.47578 0.20863 0.17131 0.0
C671 C 0.42009 0.21874 0.19218 0.0
C672 C 0.49387 0.19113 0.14974 0.0
C673 C 0.47738 0.16387 0.12593 0.0
C674 C 0.44022 0.19963 0.16936 0.0
C675 C 0.44166 0.15549 0.12508 0.0
C676 C 0.38475 0.21347 0.18528 0.0
C677 C 0.41975 0.26038 0.24129 0.0
N678 N 0.42456 0.17318 0.14602 0.0
N679 N 0.43609 0.24221 0.22019 0.0
H680 H 0.78958 0.39713 0.14358 0.0
H681 H 0.94793 0.46971 0.18416 0.0
H682 H 0.83689 0.41001 0.02814 0.0
H683 H 0.93044 0.54711 0.11617 0.0
H684 H 0.88868 0.44193 0.16758 0.0
H685 H 0.81957 0.44992 0.16525 0.0
C686 C 0.80448 0.41149 0.12136 0.0
C687 C 0.81358 0.39821 0.08559 0.0
C688 C 0.89768 0.46562 0.1577 0.0
C689 C 0.84661 0.45858 0.11016 0.0
C690 C 0.93138 0.48141 0.16718 0.0
C691 C 0.94421 0.51089 0.15146 0.0
C692 C 0.87717 0.47902 0.13117 0.0
C693 C 0.92172 0.52472 0.12897 0.0
C694 C 0.82172 0.44171 0.13421 0.0
C695 C 0.83132 0.41879 0.05744 0.0
N696 N 0.88955 0.5082 0.11787 0.0
N697 N 0.84904 0.44774 0.07126 0.0
H698 H 0.79847 0.91356 0.03118 0.0
H699 H 0.61079 0.91846 0.97294 0.0
H700 H 0.72342 0.82516 1.01951 0.0
H701 H 0.67597 0.96929 0.07491 0.0
H702 H 0.65289 0.88856 0.96261 0.0
H703 H 0.75489 0.93955 1.01318 0.0
C704 C 0.77318 0.89927 1.023 0.0
C705 C 0.76456 0.86699 0.02848 0.0
C706 C 0.65759 0.90623 0.98719 0.0
C707 C 0.71444 0.89717 1.008 0.0
C708 C 0.63376 0.92312 0.9932 0.0
C709 C 0.6399 0.94604 0.02513 0.0
C710 C 0.68791 0.91339 1.01238 0.0
C711 C 0.67006 0.95156 0.05033 0.0
C712 C 0.7482 0.91436 1.01308 0.0
C713 C 0.73101 0.85019 1.01717 0.0
N714 N 0.69307 0.93559 0.04311 0.0
N715 N 0.7068 0.86557 1.00855 0.0
H716 H 0.21763 0.79295 0.22719 0.0
H717 H 0.11424 0.61938 0.15659 0.0
H718 H 0.26403 0.71656 0.22092 0.0
H719 H 0.06758 0.6902 0.19615 0.0
H720 H 0.16973 0.65601 0.17101 0.0
H721 H 0.16315 0.75724 0.20472 0.0
C722 C 0.21656 0.76881 0.22042 0.0
C723 C 0.24558 0.7578 0.22629 0.0
C724 C 0.14734 0.66343 0.17676 0.0
C725 C 0.18297 0.71663 0.20098 0.0
C726 C 0.1156 0.64249 0.16873 0.0
C727 C 0.08604 0.6515 0.17566 0.0
C728 C 0.14966 0.6938 0.19142 0.0
C729 C 0.08955 0.68199 0.19084 0.0
C730 C 0.18532 0.74836 0.20793 0.0
C731 C 0.2424 0.72615 0.21709 0.0
N732 N 0.12069 0.702 0.19804 0.0
N733 N 0.21167 0.70669 0.20514 0.0
H734 H 0.36064 0.92223 0.83797 0.0
H735 H 0.55674 1.00092 0.87862 0.0
H736 H 0.4381 0.8964 0.77296 0.0
H737 H 0.48122 1.01708 0.95621 0.0
H738 H 0.51212 0.97303 0.82828 0.0
H739 H 0.40301 0.96675 0.8697 0.0
C740 C 0.3865 0.92609 0.82999 0.0
C741 C 0.39608 0.90514 0.80361 0.0
C742 C 0.5053 0.983 0.85606 0.0
C743 C 0.44451 0.95601 0.83977 0.0
C744 C 0.53074 0.99886 0.88491 0.0
C745 C 0.52261 1.01052 0.92224 0.0
C746 C 0.47151 0.97854 0.86476 0.0
C747 C 0.48857 1.00793 0.92818 0.0
C748 C 0.41063 0.95157 0.84807 0.0
C749 C 0.42976 0.91163 0.79378 0.0
N750 N 0.46417 0.99167 0.90001 0.0
N751 N 0.45291 0.93631 0.81236 0.0
H752 H 0.16097 0.37546 0.94122 0.0
H753 H 0.15739 0.53553 0.04152 0.0
H754 H 0.25481 0.44197 0.98099 0.0
H755 H 0.08272 0.48617 0.94685 0.0
H756 H 0.19462 0.50314 1.02302 0.0
H757 H 0.13128 0.41559 0.94994 0.0
C758 C 0.17528 0.39849 0.95219 0.0
C759 C 0.21033 0.40542 0.96059 0.0
C760 C 0.17039 0.50005 1.00574 0.0
C761 C 0.1766 0.45166 0.96984 0.0
C762 C 0.1492 0.51857 1.01612 0.0
C763 C 0.11663 0.51313 0.99624 0.0
C764 C 0.1585 0.4758 0.97591 0.0
C765 C 0.10733 0.49083 0.96359 0.0
C766 C 0.15841 0.42151 0.95651 0.0
C767 C 0.22772 0.43582 0.97405 0.0
N768 N 0.12785 0.47255 0.95508 0.0
N769 N 0.21061 0.4579 0.97863 0.0
H770 H 0.78493 0.21851 0.88806 0.0
H771 H 0.58607 0.15612 0.91013 0.0
H772 H 0.71248 0.269 0.84791 0.0
H773 H 0.65892 0.1173 0.97802 0.0
H774 H 0.63203 0.19428 0.88176 0.0
H775 H 0.73961 0.17907 0.91669 0.0
C776 C 0.75955 0.22146 0.88536 0.0
C777 C 0.75272 0.24737 0.86546 0.0
C778 C 0.63808 0.17739 0.90272 0.0
C779 C 0.70034 0.20168 0.89791 0.0
C780 C 0.61172 0.15529 0.91888 0.0
C781 C 0.61832 0.13314 0.94676 0.0
C782 C 0.67171 0.17757 0.914 0.0
C783 C 0.65239 0.1337 0.95665 0.0
C784 C 0.73364 0.19883 0.90178 0.0
C785 C 0.71917 0.24966 0.86306 0.0
N786 N 0.67771 0.1555 0.94034 0.0
N787 N 0.69435 0.22712 0.87877 0.0
H788 H 0.83716 0.79393 0.07218 0.0
H789 H 0.88954 0.66732 0.08821 0.0
H790 H 0.94545 0.83038 0.07574 0.0
H791 H 0.97574 0.71729 0.16737 0.0
H792 H 0.8644 0.71089 0.09491 0.0
H793 H 0.84531 0.75424 0.1205 0.0
C794 C 0.8626 0.79422 0.08369 0.0
C795 C 0.89073 0.81398 0.06682 0.0
C796 C 0.88819 0.71198 0.11226 0.0
C797 C 0.89996 0.76928 0.12266 0.0
C798 C 0.90277 0.68724 0.10783 0.0
C799 C 0.93519 0.68931 0.12606 0.0
C800 C 0.90682 0.73936 0.13377 0.0
C801 C 0.95097 0.7152 0.152 0.0
C802 C 0.86713 0.7716 0.11147 0.0
C803 C 0.92282 0.81481 0.08578 0.0
N804 N 0.93722 0.73982 0.15379 0.0
N805 N 0.92662 0.79205 0.11167 0.0
H806 H 0.16073 0.34398 0.07027 0.0
H807 H 0.14028 0.50293 0.1345 0.0
H808 H 0.24724 0.42356 0.0854 0.0
H809 H 0.06425 0.44504 0.04833 0.0
H810 H 0.17962 0.47292 0.11689 0.0
H811 H 0.12461 0.37892 0.05697 0.0
C812 C 0.17241 0.36869 0.06948 0.0
C813 C 0.20701 0.38092 0.08075 0.0
C814 C 0.15443 0.46698 0.1015 0.0
C815 C 0.16553 0.4208 0.06715 0.0
C816 C 0.13189 0.48381 0.11194 0.0
C817 C 0.09892 0.47602 0.09334 0.0
C818 C 0.14364 0.4417 0.07307 0.0
C819 C 0.08945 0.45147 0.06364 0.0
C820 C 0.15162 0.38863 0.06219 0.0
C821 C 0.22049 0.41319 0.07887 0.0
N822 N 0.11157 0.43467 0.05493 0.0
N823 N 0.19956 0.43213 0.07375 0.0
H824 H 0.23612 0.68252 0.95817 0.0
H825 H 0.08731 0.6902 0.09332 0.0
H826 H 0.23292 0.7601 0.03796 0.0
H827 H 0.08695 0.60943 1.01774 0.0
H828 H 0.14696 0.71027 0.08608 0.0
H829 H 0.18987 0.64966 0.99343 0.0
C830 C 0.22636 0.69251 0.98374 0.0
C831 C 0.23729 0.72457 0.99359 0.0
C832 C 0.13404 0.68815 0.07095 0.0
C833 C 0.18486 0.68711 0.03415 0.0
C834 C 0.09972 0.67681 0.07461 0.0
C835 C 0.08183 0.64858 0.05484 0.0
C836 C 0.15068 0.67173 0.04618 0.0
C837 C 0.09967 0.63172 0.03253 0.0
C838 C 0.20001 0.67367 1.00391 0.0
C839 C 0.22495 0.73579 0.02835 0.0
N840 N 0.13311 0.64391 0.02803 0.0
N841 N 0.19882 0.71726 0.04665 0.0
H842 H 0.37513 0.26667 0.92773 0.0
H843 H 0.46163 0.12642 0.91053 0.0
H844 H 0.38843 0.22457 0.81136 0.0
H845 H 0.47999 0.18643 1.02009 0.0
H846 H 0.4308 0.15996 0.87621 0.0
H847 H 0.40912 0.23575 0.96389 0.0
C848 C 0.38499 0.25084 0.90969 0.0
C849 C 0.37848 0.24815 0.86622 0.0
C850 C 0.44155 0.16599 0.9077 0.0
C851 C 0.4176 0.21253 0.90787 0.0
C852 C 0.45913 0.14668 0.9276 0.0
C853 C 0.47344 0.15337 0.96859 0.0
C854 C 0.43746 0.19231 0.92878 0.0
C855 C 0.46951 0.18033 0.98853 0.0
C856 C 0.40462 0.23333 0.93047 0.0
C857 C 0.39243 0.22741 0.84478 0.0
N858 N 0.4516 0.19866 0.96858 0.0
N859 N 0.41101 0.21035 0.86578 0.0
H860 H 0.83467 0.4128 0.86329 0.0
H861 H 0.95446 0.46924 0.06995 0.0
H862 H 0.87338 0.35188 0.94466 0.0
H863 H 0.9326 0.53215 0.97851 0.0
H864 H 0.91316 0.42628 0.03278 0.0
H865 H 0.85904 0.45614 0.91268 0.0
C866 C 0.84802 0.40839 0.8917 0.0
C867 C 0.85252 0.37862 0.89936 0.0
C868 C 0.91677 0.44952 1.02117 0.0
C869 C 0.88056 0.42841 0.9561 0.0
C870 C 0.94008 0.47411 0.04264 0.0
C871 C 0.94671 0.50423 0.02732 0.0
C872 C 0.90019 0.45496 0.98367 0.0
C873 C 0.92786 0.50928 0.99151 0.0
C874 C 0.86194 0.43324 0.91988 0.0
C875 C 0.86961 0.37441 0.93708 0.0
N876 N 0.90572 0.48477 0.9705 0.0
N877 N 0.88329 0.39905 0.96375 0.0
H878 H 0.81379 0.89011 0.89541 0.0
H879 H 0.6461 0.9561 0.88049 0.0
H880 H 0.73446 0.86362 0.79753 0.0
H881 H 0.72521 0.98703 0.97781 0.0
H882 H 0.67813 0.92274 0.85135 0.0
H883 H 0.78294 0.92447 0.92622 0.0
C884 C 0.78993 0.89132 0.88003 0.0
C885 C 0.77738 0.87324 0.84303 0.0
C886 C 0.68885 0.9368 0.87896 0.0
C887 C 0.74088 0.91391 0.87939 0.0
C888 C 0.67038 0.95631 0.89595 0.0
C889 C 0.68231 0.97532 0.93227 0.0
C890 C 0.72047 0.93547 0.89761 0.0
C891 C 0.71434 0.97343 0.94991 0.0
C892 C 0.77214 0.91127 0.89798 0.0
C893 C 0.74586 0.87659 0.82571 0.0
N894 N 0.73193 0.95422 0.93262 0.0
N895 N 0.72916 0.89612 0.84371 0.0
H896 H 0.86311 0.75242 0.33968 0.0
H897 H 0.87786 0.62659 0.16985 0.0
H898 H 0.81866 0.74468 0.21361 0.0
H899 H 0.94556 0.65214 0.28018 0.0
H900 H 0.84241 0.65767 0.19618 0.0
H901 H 0.88077 0.7048 0.32737 0.0
C902 C 0.85683 0.74059 0.30957 0.0
C903 C 0.84007 0.75284 0.27731 0.0
C904 C 0.86458 0.65581 0.21509 0.0
C905 C 0.85964 0.69839 0.26338 0.0
C906 C 0.88466 0.63786 0.20026 0.0
C907 C 0.91502 0.6374 0.22253 0.0
C908 C 0.87495 0.67317 0.25243 0.0
C909 C 0.92263 0.65243 0.26172 0.0
C910 C 0.86677 0.7134 0.30266 0.0
C911 C 0.83209 0.73636 0.23912 0.0
N912 N 0.90301 0.67021 0.27517 0.0
N913 N 0.84222 0.71011 0.23311 0.0
H914 H 0.40279 0.83963 0.18241 0.0
H915 H 0.50311 1.01737 0.14288 0.0
H916 H 0.38852 0.91621 0.2555 0.0
H917 H 0.49659 0.93895 0.06006 0.0
H918 H 0.46333 0.98246 0.18652 0.0
H919 H 0.43983 0.87678 0.1401 0.0
C920 C 0.40733 0.86424 0.18967 0.0
C921 C 0.3921 0.87446 0.2228 0.0
C922 C 0.47062 0.97307 0.15864 0.0
C923 C 0.43537 0.91789 0.17389 0.0
C924 C 0.4933 0.99309 0.13356 0.0
C925 C 0.50377 0.98144 0.09745 0.0
C926 C 0.45841 0.94104 0.14782 0.0
C927 C 0.48992 0.94946 0.08749 0.0
C928 C 0.42861 0.88562 0.16531 0.0
C929 C 0.3994 0.90698 0.2303 0.0
N930 N 0.4685 0.93071 0.11235 0.0
N931 N 0.42046 0.92738 0.2063 0.0
H932 H 0.73226 0.28655 0.19317 0.0
H933 H 0.63598 0.10673 0.15307 0.0
H934 H 0.73972 0.2188 0.2851 0.0
H935 H 0.6191 0.18263 0.08021 0.0
H936 H 0.6761 0.14496 0.20063 0.0
H937 H 0.69226 0.24669 0.15088 0.0
C938 C 0.72526 0.26317 0.20465 0.0
C939 C 0.73944 0.25603 0.24277 0.0
C940 C 0.6635 0.15304 0.17417 0.0
C941 C 0.69331 0.20956 0.19373 0.0
C942 C 0.64085 0.13127 0.14687 0.0
C943 C 0.62404 0.14141 0.11255 0.0
C944 C 0.66948 0.185 0.16668 0.0
C945 C 0.63115 0.17352 0.10624 0.0
C946 C 0.7023 0.24028 0.18036 0.0
C947 C 0.72916 0.22529 0.25601 0.0
N948 N 0.65317 0.19394 0.13286 0.0
N949 N 0.70684 0.203 0.23129 0.0
H950 H 0.74029 0.7179 0.79899 0.0
H951 H 0.66839 0.65387 1.01501 0.0
H952 H 0.78933 0.75793 0.91673 0.0
H953 H 0.61356 0.6344 0.89501 0.0
H954 H 0.71731 0.68595 0.98137 0.0
H955 H 0.69845 0.6812 0.83534 0.0
C956 C 0.74247 0.71898 0.83258 0.0
C957 C 0.76849 0.74143 0.85461 0.0
C958 C 0.69465 0.67431 0.96249 0.0
C959 C 0.71986 0.69887 0.89699 0.0
C960 C 0.6669 0.65578 0.98162 0.0
C961 C 0.63685 0.6414 0.95776 0.0
C962 C 0.69236 0.67801 0.91922 0.0
C963 C 0.63612 0.64509 0.91467 0.0
C964 C 0.71837 0.69789 0.85343 0.0
C965 C 0.76974 0.74119 0.8983 0.0
N966 N 0.66324 0.6629 0.89698 0.0
N967 N 0.7457 0.72038 0.91805 0.0
H968 H 0.38367 0.78284 0.89092 0.0
H969 H 0.4684 0.63885 0.87063 0.0
H970 H 0.39381 0.7401 0.77394 0.0
H971 H 0.4746 0.6907 0.98558 0.0
H972 H 0.43855 0.67375 0.83631 0.0
H973 H 0.41396 0.74846 0.92652 0.0
C974 C 0.39224 0.76634 0.87248 0.0
C975 C 0.38589 0.76485 0.82886 0.0
C976 C 0.44634 0.67763 0.86904 0.0
C977 C 0.42094 0.72448 0.87036 0.0
C978 C 0.46346 0.65747 0.88897 0.0
C979 C 0.47447 0.66142 0.93155 0.0
C980 C 0.43941 0.70231 0.89141 0.0
C981 C 0.46695 0.68642 0.95288 0.0
C982 C 0.40967 0.74658 0.89307 0.0
C983 C 0.39792 0.74256 0.80737 0.0
N984 N 0.44999 0.70564 0.93279 0.0
N985 N 0.41451 0.72344 0.82814 0.0
H986 H 0.4347 0.39062 0.8142 0.0
H987 H 0.52028 0.46016 0.03341 0.0
H988 H 0.37675 0.37739 0.92162 0.0
H989 H 0.53733 0.51513 0.92443 0.0
H990 H 0.47448 0.42185 0.99329 0.0
H991 H 0.47982 0.42926 0.85443 0.0
C992 C 0.43148 0.39587 0.84621 0.0
C993 C 0.40184 0.38096 0.86452 0.0
C994 C 0.48842 0.44227 0.97826 0.0
C995 C 0.45369 0.42431 0.9109 0.0
C996 C 0.51463 0.46395 1.00097 0.0
C997 C 0.53264 0.49075 0.98212 0.0
C998 C 0.48093 0.447 0.93616 0.0
C999 C 0.52402 0.49478 0.94012 0.0
C1000 C 0.45716 0.4179 0.86906 0.0
C1001 C 0.39903 0.38859 0.9062 0.0
N1002 N 0.49907 0.47299 0.91841 0.0
N1003 N 0.4248 0.40945 0.92816 0.0
H1004 H 0.79128 0.47876 0.87302 0.0
H1005 H 0.69881 0.48015 0.0744 0.0
H1006 H 0.73834 0.40135 0.94299 0.0
H1007 H 0.71827 0.5553 0.9895 0.0
H1008 H 0.74386 0.46117 0.04713 0.0
H1009 H 0.79133 0.51344 0.93233 0.0
C1010 C 0.78006 0.46884 0.90066 0.0
C1011 C 0.7635 0.43699 0.90187 0.0
C1012 C 0.73908 0.48241 0.03528 0.0
C1013 C 0.76544 0.47635 0.97039 0.0
C1014 C 0.71339 0.49314 0.05085 0.0
C1015 C 0.70451 0.51856 0.03303 0.0
C1016 C 0.75409 0.4961 1.00001 0.0
C1017 C 0.72418 0.53505 1.00307 0.0
C1018 C 0.78083 0.48864 0.93478 0.0
C1019 C 0.75129 0.42548 0.93964 0.0
N1020 N 0.74746 0.52286 0.98624 0.0
N1021 N 0.75218 0.44518 0.97198 0.0
H1022 H 0.80568 0.42987 0.2375 0.0
H1023 H 0.63192 0.45097 0.12385 0.0
H1024 H 0.7138 0.35652 0.23228 0.0
H1025 H 0.70847 0.52836 0.18016 0.0
H1026 H 0.66412 0.41532 0.15286 0.0
H1027 H 0.77364 0.46516 0.20706 0.0
C1028 C 0.77884 0.421 0.22961 0.0
C1029 C 0.76271 0.38987 0.23758 0.0
C1030 C 0.67395 0.44011 0.15882 0.0
C1031 C 0.72545 0.43051 0.20151 0.0
C1032 C 0.65555 0.46061 0.14204 0.0
C1033 C 0.66711 0.49308 0.14941 0.0
C1034 C 0.70488 0.45182 0.18267 0.0
C1035 C 0.69814 0.50371 0.17355 0.0
C1036 C 0.76043 0.4413 0.21232 0.0
C1037 C 0.72757 0.38018 0.2269 0.0
N1038 N 0.71581 0.4834 0.18882 0.0
N1039 N 0.71039 0.4001 0.2092 0.0
H1040 H 0.71882 0.81063 0.17706 0.0
H1041 H 0.61535 0.6331 0.1529 0.0
H1042 H 0.71421 0.74556 0.27572 0.0
H1043 H 0.58876 0.70285 0.07579 0.0
H1044 H 0.65488 0.67412 0.19522 0.0
H1045 H 0.67387 0.77197 0.13686 0.0
C1046 C 0.70817 0.78842 0.19051 0.0
C1047 C 0.72049 0.78141 0.22993 0.0
C1048 C 0.64029 0.68054 0.16921 0.0
C1049 C 0.66942 0.73695 0.18373 0.0
C1050 C 0.61776 0.65708 0.14485 0.0
C1051 C 0.5986 0.66447 0.11066 0.0
C1052 C 0.64434 0.71179 0.15909 0.0
C1053 C 0.60286 0.69607 0.10197 0.0
C1054 C 0.6825 0.76639 0.16751 0.0
C1055 C 0.70564 0.75217 0.2456 0.0
N1056 N 0.62551 0.71858 0.12579 0.0
N1057 N 0.68126 0.73099 0.22234 0.0
H1058 H 0.35306 0.59187 0.23519 0.0
H1059 H 0.41372 0.56165 0.05749 0.0
H1060 H 0.30678 0.65546 0.16909 0.0
H1061 H 0.42617 0.66086 0.0614 0.0
H1062 H 0.36226 0.55486 0.09436 0.0
H1063 H 0.3638 0.57079 0.16909 0.0
C1064 C 0.34342 0.60015 0.20671 0.0
C1065 C 0.33032 0.62624 0.20752 0.0
C1066 C 0.37567 0.57794 0.08577 0.0
C1067 C 0.34335 0.60309 0.13222 0.0
C1068 C 0.40492 0.58189 0.06477 0.0
C1069 C 0.42447 0.61197 0.05753 0.0
C1070 C 0.36596 0.60426 0.09876 0.0
C1071 C 0.41211 0.63739 0.06739 0.0
C1072 C 0.34957 0.58815 0.16885 0.0
C1073 C 0.31786 0.63589 0.16983 0.0
N1074 N 0.38376 0.63297 0.08801 0.0
N1075 N 0.32623 0.62539 0.13357 0.0
H1076 H 0.42109 0.4208 0.29165 0.0
H1077 H 0.47937 0.49729 0.07584 0.0
H1078 H 0.3676 0.3869 0.17372 0.0
H1079 H 0.52793 0.53028 0.19632 0.0
H1080 H 0.43484 0.45991 0.11001 0.0
H1081 H 0.45748 0.46347 0.25661 0.0
C1082 C 0.4168 0.42233 0.2584 0.0
C1083 C 0.39115 0.39989 0.23581 0.0
C1084 C 0.45497 0.47572 0.12893 0.0
C1085 C 0.43331 0.44915 0.19495 0.0
C1086 C 0.48017 0.49732 0.1094 0.0
C1087 C 0.50746 0.51704 0.13321 0.0
C1088 C 0.45711 0.47389 0.17254 0.0
C1089 C 0.50749 0.51552 0.17664 0.0
C1090 C 0.43769 0.44684 0.23829 0.0
C1091 C 0.38702 0.40347 0.19261 0.0
N1092 N 0.48306 0.49431 0.19471 0.0
N1093 N 0.40794 0.42739 0.17364 0.0
H1094 H 0.86419 0.74157 0.67381 0.0
H1095 H 1.02146 0.66147 0.70663 0.0
H1096 H 0.93033 0.75323 0.7853 0.0
H1097 H 0.95447 0.64365 0.59558 0.0
H1098 H 0.98894 0.69526 0.73364 0.0
H1099 H 0.896 0.7075 0.64404 0.0
C1100 C 0.88534 0.7372 0.69238 0.0
C1101 C 0.89387 0.75108 0.73288 0.0
C1102 C 0.98105 0.68411 0.70334 0.0
C1103 C 0.9316 0.71073 0.6977 0.0
C1104 C 0.99991 0.66443 0.68748 0.0
C1105 C 0.99143 0.64871 0.64814 0.0
C1106 C 0.95259 0.6892 0.68034 0.0
C1107 C 0.96264 0.65455 0.62595 0.0
C1108 C 0.9037 0.71741 0.67503 0.0
C1109 C 0.92205 0.74367 0.75427 0.0
N1110 N 0.94469 0.67397 0.6421 0.0
N1111 N 0.93941 0.72448 0.73673 0.0
H1112 H 0.4981 0.83412 0.5574 0.0
H1113 H 0.61639 0.96755 0.66739 0.0
H1114 H 0.53832 0.82488 0.68227 0.0
H1115 H 0.61369 0.95656 0.53436 0.0
H1116 H 0.60042 0.91118 0.67252 0.0
H1117 H 0.55072 0.87046 0.54428 0.0
C1118 C 0.5183 0.83869 0.58181 0.0
C1119 C 0.51282 0.82764 0.62192 0.0
C1120 C 0.60442 0.92097 0.64224 0.0
C1121 C 0.573 0.87067 0.60731 0.0
C1122 C 0.61338 0.95322 0.63935 0.0
C1123 C 0.61519 0.96664 0.60035 0.0
C1124 C 0.59603 0.90219 0.6058 0.0
C1125 C 0.6118 0.9471 0.56504 0.0
C1126 C 0.54858 0.85981 0.57424 0.0
C1127 C 0.54059 0.83434 0.65163 0.0
N1128 N 0.60121 0.91577 0.56847 0.0
N1129 N 0.56903 0.85647 0.64434 0.0
H1130 H 0.23143 0.35432 0.77024 0.0
H1131 H 0.23467 0.47771 0.59217 0.0
H1132 H 0.31741 0.3895 0.69915 0.0
H1133 H 0.14198 0.42639 0.63995 0.0
H1134 H 0.26524 0.44622 0.6322 0.0
H1135 H 0.19876 0.38184 0.72571 0.0
C1136 C 0.24363 0.36803 0.74555 0.0
C1137 C 0.27749 0.36964 0.73878 0.0
C1138 C 0.23818 0.44148 0.63373 0.0
C1139 C 0.23981 0.40115 0.68725 0.0
C1140 C 0.22063 0.45942 0.6107 0.0
C1141 C 0.18564 0.45463 0.61254 0.0
C1142 C 0.22089 0.41876 0.65972 0.0
C1143 C 0.16886 0.43065 0.63724 0.0
C1144 C 0.22477 0.38354 0.71987 0.0
C1145 C 0.29155 0.38757 0.70584 0.0
N1146 N 0.1867 0.41387 0.6603 0.0
N1147 N 0.27276 0.40264 0.68156 0.0
H1148 H 0.84574 0.22298 0.71176 0.0
H1149 H 0.67545 0.1088 0.62236 0.0
H1150 H 0.75087 0.24755 0.69435 0.0
H1151 H 0.7643 0.10697 0.55958 0.0
H1152 H 0.70771 0.15384 0.663 0.0
H1153 H 0.82129 0.17618 0.66631 0.0
C1154 C 0.8201 0.2188 0.69824 0.0
C1155 C 0.80031 0.23917 0.70746 0.0
C1156 C 0.72031 0.14357 0.6405 0.0
C1157 C 0.77239 0.18578 0.65678 0.0
C1158 C 0.70191 0.11765 0.61718 0.0
C1159 C 0.71692 0.10414 0.58671 0.0
C1160 C 0.75436 0.15631 0.63422 0.0
C1161 C 0.75162 0.11672 0.58245 0.0
C1162 C 0.80629 0.19219 0.6724 0.0
C1163 C 0.76722 0.23262 0.68885 0.0
N1164 N 0.76929 0.14233 0.6059 0.0
N1165 N 0.7543 0.20641 0.66514 0.0
H1166 H 0.93439 0.39053 0.33752 0.0
H1167 H 0.95277 0.53252 0.50102 0.0
H1168 H 0.85062 0.42416 0.37334 0.0
H1169 H 1.03662 0.49896 0.4651 0.0
H1170 H 0.91493 0.49349 0.45345 0.0
H1171 H 0.97267 0.43133 0.38238 0.0
C1172 C 0.92409 0.40662 0.35447 0.0
C1173 C 0.88924 0.40381 0.35168 0.0
C1174 C 0.94165 0.49473 0.45601 0.0
C1175 C 0.93275 0.45036 0.40339 0.0
C1176 C 0.96323 0.51698 0.48327 0.0
C1177 C 0.99797 0.51918 0.48712 0.0
C1178 C 0.95486 0.47448 0.43246 0.0
C1179 C 1.01004 0.49832 0.46319 0.0
C1180 C 0.94589 0.42983 0.38023 0.0
C1181 C 0.87729 0.42529 0.37455 0.0
N1182 N 0.98859 0.47694 0.43698 0.0
N1183 N 0.89893 0.4475 0.39947 0.0
H1184 H 0.76643 0.92487 0.24926 0.0
H1185 H 0.76161 0.04681 0.42883 0.0
H1186 H 0.79125 0.9123 0.37854 0.0
H1187 H 0.67829 1.01889 0.33555 0.0
H1188 H 0.7891 1.01093 0.39658 0.0
H1189 H 0.7487 0.9718 0.26884 0.0
C1190 C 0.76848 0.93228 0.28159 0.0
C1191 C 0.77988 0.91483 0.31252 0.0
C1192 C 0.76514 1.01326 0.38275 0.0
C1193 C 0.76113 0.96828 0.33458 0.0
C1194 C 0.74943 1.03369 0.40102 0.0
C1195 C 0.71714 1.0351 0.38556 0.0
C1196 C 0.74873 0.99461 0.34839 0.0
C1197 C 0.70292 1.01808 0.34888 0.0
C1198 C 0.75844 0.95883 0.29264 0.0
C1199 C 0.7822 0.92509 0.35396 0.0
N1200 N 0.71861 0.99808 0.33178 0.0
N1201 N 0.77307 0.95129 0.36381 0.0
H1202 H 0.30362 0.71716 0.38571 0.0
H1203 H 0.12723 0.64626 0.48736 0.0
H1204 H 0.22385 0.76396 0.37703 0.0
H1205 H 0.20081 0.59575 0.46382 0.0
H1206 H 0.16316 0.69224 0.45528 0.0
H1207 H 0.26763 0.67553 0.42254 0.0
C1208 C 0.27859 0.71892 0.39173 0.0
C1209 C 0.26704 0.74444 0.37797 0.0
C1210 C 0.17133 0.67103 0.45732 0.0
C1211 C 0.22495 0.69598 0.42076 0.0
C1212 C 0.15089 0.64481 0.47584 0.0
C1213 C 0.16063 0.61674 0.47806 0.0
C1214 C 0.20205 0.66936 0.44166 0.0
C1215 C 0.19172 0.61649 0.46246 0.0
C1216 C 0.25786 0.6949 0.4128 0.0
C1217 C 0.23403 0.74488 0.3869 0.0
N1218 N 0.21103 0.64209 0.44523 0.0
N1219 N 0.21422 0.72112 0.40764 0.0
H1220 H 0.49201 0.27868 0.52748 0.0
H1221 H 0.46045 0.09804 0.55721 0.0
H1222 H 0.39395 0.21347 0.50812 0.0
H1223 H 0.55562 0.16466 0.59092 0.0
H1224 H 0.43341 0.14071 0.55083 0.0
H1225 H 0.51321 0.23889 0.56317 0.0
C1226 C 0.4747 0.25621 0.53147 0.0
C1227 C 0.44134 0.24917 0.51375 0.0
C1228 C 0.46015 0.146 0.56007 0.0
C1229 C 0.46575 0.20321 0.55372 0.0
C1230 C 0.47562 0.12162 0.56358 0.0
C1231 C 0.51053 0.12788 0.57336 0.0
C1232 C 0.47982 0.17685 0.56585 0.0
C1233 C 0.52879 0.15883 0.5822 0.0
C1234 C 0.48691 0.23339 0.55169 0.0
C1235 C 0.42017 0.2196 0.52001 0.0
N1236 N 0.51334 0.18221 0.57753 0.0
N1237 N 0.43288 0.19754 0.53878 0.0
H1238 H 0.82088 0.86773 0.52037 0.0
H1239 H 0.67665 0.94012 0.43273 0.0
H1240 H 0.71453 0.8209 0.50839 0.0
H1241 H 0.77557 0.99043 0.48468 0.0
H1242 H 0.69677 0.89323 0.42729 0.0
H1243 H 0.81005 0.90681 0.47312 0.0
C1244 C 0.79535 0.86517 0.50711 0.0
C1245 C 0.76834 0.84172 0.52007 0.0
C1246 C 0.71427 0.91478 0.4388 0.0
C1247 C 0.75593 0.88653 0.46629 0.0
C1248 C 0.70281 0.94151 0.44211 0.0
C1249 C 0.72412 0.96876 0.46098 0.0
C1250 C 0.74716 0.9155 0.45447 0.0
C1251 C 0.75795 0.96952 0.47149 0.0
C1252 C 0.78928 0.88741 0.4799 0.0
C1253 C 0.73613 0.83887 0.50025 0.0
N1254 N 0.76828 0.94305 0.46888 0.0
N1255 N 0.73064 0.86161 0.47529 0.0
H1256 H 0.74499 0.28069 0.58804 0.0
H1257 H 0.59575 0.13922 0.51224 0.0
H1258 H 0.65682 0.28817 0.51272 0.0
H1259 H 0.70277 0.14733 0.52677 0.0
H1260 H 0.60567 0.18997 0.54925 0.0
H1261 H 0.71341 0.22977 0.60936 0.0
C1262 C 0.71851 0.27236 0.57761 0.0
C1263 C 0.70418 0.28749 0.54627 0.0
C1264 C 0.62664 0.1799 0.54552 0.0
C1265 C 0.66858 0.22956 0.56977 0.0
C1266 C 0.62114 0.15139 0.52392 0.0
C1267 C 0.64868 0.13977 0.51545 0.0
C1268 C 0.6597 0.19604 0.55961 0.0
C1269 C 0.68097 0.15591 0.53173 0.0
C1270 C 0.70048 0.24329 0.58982 0.0
C1271 C 0.66941 0.27643 0.53531 0.0
N1272 N 0.68559 0.18324 0.55285 0.0
N1273 N 0.65301 0.24731 0.54564 0.0
H1274 H 0.85249 0.69451 0.48531 0.0
H1275 H 1.02749 0.69567 0.57898 0.0
H1276 H 0.91566 0.78828 0.50452 0.0
H1277 H 0.99195 0.65543 0.45687 0.0
H1278 H 0.98736 0.72834 0.57134 0.0
H1279 H 0.90233 0.67492 0.49854 0.0
C1280 C 0.87671 0.71097 0.4928 0.0
C1281 C 0.88 0.7431 0.49282 0.0
C1282 C 0.98945 0.71315 0.5458 0.0
C1283 C 0.93671 0.72072 0.50877 0.0
C1284 C 1.01247 0.69483 0.54988 0.0
C1285 C 1.01262 0.67275 0.51856 0.0
C1286 C 0.96676 0.70878 0.51045 0.0
C1287 C 0.99226 0.67199 0.48181 0.0
C1288 C 0.90501 0.69977 0.50039 0.0
C1289 C 0.91199 0.76332 0.50408 0.0
N1290 N 0.96947 0.68913 0.47918 0.0
N1291 N 0.93941 0.75178 0.51128 0.0
H1292 H 0.37025 0.87132 0.43185 0.0
H1293 H 0.56055 0.97759 0.4517 0.0
H1294 H 0.44641 0.85943 0.35252 0.0
H1295 H 0.48483 0.98641 0.53366 0.0
H1296 H 0.52016 0.93256 0.41724 0.0
H1297 H 0.41286 0.91154 0.47193 0.0
C1298 C 0.39599 0.87697 0.42303 0.0
C1299 C 0.40465 0.8621 0.38852 0.0
C1300 C 0.51244 0.94428 0.44289 0.0
C1301 C 0.45372 0.90832 0.43435 0.0
C1302 C 0.5355 0.97007 0.46255 0.0
C1303 C 0.52608 0.98609 0.49547 0.0
C1304 C 0.47964 0.93441 0.4561 0.0
C1305 C 0.49328 0.97499 0.50832 0.0
C1306 C 0.42036 0.89997 0.44597 0.0
C1307 C 0.43853 0.87025 0.37887 0.0
N1308 N 0.47126 0.95002 0.48849 0.0
N1309 N 0.46175 0.89296 0.40143 0.0
H1310 H 0.23693 0.37499 0.30272 0.0
H1311 H 0.22273 0.47838 0.50784 0.0
H1312 H 0.3099 0.38914 0.40809 0.0
H1313 H 0.14596 0.45362 0.40662 0.0
H1314 H 0.25614 0.44826 0.47223 0.0
H1315 H 0.20524 0.40561 0.33944 0.0
C1316 C 0.24658 0.38453 0.33345 0.0
C1317 C 0.27667 0.37899 0.35167 0.0
C1318 C 0.23196 0.44943 0.45776 0.0
C1319 C 0.23958 0.415 0.39502 0.0
C1320 C 0.21272 0.4668 0.47827 0.0
C1321 C 0.18093 0.46905 0.46082 0.0
C1322 C 0.21989 0.43401 0.4189 0.0
C1323 C 0.16998 0.45301 0.42205 0.0
C1324 C 0.22822 0.40215 0.35469 0.0
C1325 C 0.28711 0.39239 0.39211 0.0
N1326 N 0.18912 0.43663 0.40284 0.0
N1327 N 0.2689 0.40951 0.412 0.0
H1328 H 0.51171 0.24133 0.72965 0.0
H1329 H 0.49324 0.06643 0.65002 0.0
H1330 H 0.42672 0.18714 0.65186 0.0
H1331 H 0.5877 0.12795 0.6989 0.0
H1332 H 0.465 0.10721 0.66372 0.0
H1333 H 0.5372 0.19731 0.72903 0.0
C1334 C 0.49845 0.22016 0.71246 0.0
C1335 C 0.46718 0.2179 0.6906 0.0
C1336 C 0.49182 0.11159 0.67202 0.0
C1337 C 0.49583 0.16744 0.69028 0.0
C1338 C 0.50789 0.08826 0.66452 0.0
C1339 C 0.54293 0.09401 0.6727 0.0
C1340 C 0.51097 0.14079 0.68789 0.0
C1341 C 0.56067 0.1226 0.69178 0.0
C1342 C 0.51295 0.19509 0.71215 0.0
C1343 C 0.45109 0.19001 0.66868 0.0
N1344 N 0.54457 0.14512 0.69818 0.0
N1345 N 0.46555 0.16583 0.6692 0.0
H1346 H 0.85885 0.37925 0.68442 0.0
H1347 H 1.0506 0.47326 0.65423 0.0
H1348 H 0.94273 0.36344 0.76093 0.0
H1349 H 0.96329 0.50583 0.61707 0.0
H1350 H 1.01292 0.42681 0.68289 0.0
H1351 H 0.89825 0.41929 0.64862 0.0
C1352 C 0.88558 0.3839 0.69349 0.0
C1353 C 0.89729 0.36793 0.72611 0.0
C1354 C 1.00211 0.44406 0.66809 0.0
C1355 C 0.94293 0.41414 0.6848 0.0
C1356 C 1.02357 0.4704 0.65149 0.0
C1357 C 1.01008 0.49354 0.63342 0.0
C1358 C 0.96695 0.4406 0.66573 0.0
C1359 C 0.97484 0.48874 0.63101 0.0
C1360 C 0.90813 0.40695 0.67306 0.0
C1361 C 0.93242 0.37524 0.73623 0.0
N1362 N 0.95466 0.46298 0.64683 0.0
N1363 N 0.95395 0.39779 0.71578 0.0
H1364 H 0.27657 0.75324 0.65693 0.0
H1365 H 0.15006 0.58967 0.67958 0.0
H1366 H 0.24663 0.71959 0.77685 0.0
H1367 H 0.2125 0.61091 0.57655 0.0
H1368 H 0.18369 0.63711 0.716 0.0
H1369 H 0.2506 0.70182 0.62635 0.0
C1370 C 0.26431 0.73506 0.67686 0.0
C1371 C 0.26347 0.74071 0.7195 0.0
C1372 C 0.19037 0.63114 0.68574 0.0
C1373 C 0.23395 0.68171 0.68454 0.0
C1374 C 0.1712 0.6042 0.66492 0.0
C1375 C 0.1785 0.5967 0.62497 0.0
C1376 C 0.2165 0.65093 0.66601 0.0
C1377 C 0.20618 0.61597 0.60736 0.0
C1378 C 0.24985 0.70561 0.65938 0.0
C1379 C 0.24764 0.71617 0.74381 0.0
N1380 N 0.22393 0.64261 0.6278 0.0
N1381 N 0.23317 0.68765 0.72586 0.0
loop_
_geom_bond_atom_site_label_1
_geom_bond_atom_site_label_2
_geom_bond_distance
_geom_bond_site_symmetry_2
_ccdc_geom_bond_type
Dy0 O3 2.307 . S
Dy0 O5 2.395 . S
Dy0 O6 2.379 . S
Dy0 O8 2.339 . S
Dy0 O10 2.298 . S
Dy0 O14 2.275 . S
Dy0 C22 2.738 . S
Dy1 O4 2.298 . S
Dy1 O7 2.275 . S
Dy1 O9 2.307 . S
Dy1 O11 2.395 . S
Dy1 O12 2.379 . S
Dy1 O15 2.339 . S
Dy1 C31 2.738 . S
C2 O14 1.254 . S
C2 O15 1.257 . S
O3 Dy0 2.307 . S
O3 C13 1.266 . S
O4 Dy1 2.298 . S
O4 C13 1.236 . S
O5 Dy0 2.395 . S
O5 C22 1.255 . S
O6 Dy0 2.379 . S
O6 C22 1.249 . S
O7 Dy1 2.275 . S
O7 C23 1.254 . S
O8 Dy0 2.339 . S
O8 C23 1.257 . S
O9 Dy1 2.307 . S
O9 C24 1.266 . S
O10 Dy0 2.298 . S
O10 C24 1.236 . S
O11 Dy1 2.395 . S
O11 C31 1.255 . S
O12 Dy1 2.379 . S
O12 C31 1.249 . S
C13 O3 1.266 . S
C13 O4 1.236 . S
O14 Dy0 2.275 . S
O14 C2 1.254 . S
O15 Dy1 2.339 . S
O15 C2 1.257 . S
C16 C19 1.344 . S
C16 C20 1.328 . S
C16 C22 1.516 . S
C17 C18 1.304 . S
C17 C21 1.323 . S
C18 C17 1.304 . S
C18 C19 1.371 . S
C18 H32 0.930 . S
C19 C16 1.344 . S
C19 C18 1.371 . S
C19 H33 0.931 . S
C20 C16 1.328 . S
C20 C21 1.433 . S
C20 H34 0.931 . S
C21 C17 1.323 . S
C21 C20 1.433 . S
C21 H35 0.933 . S
C22 Dy0 2.738 . S
C22 O5 1.255 . S
C22 O6 1.249 . S
C22 C16 1.516 . S
C23 O7 1.254 . S
C23 O8 1.257 . S
C24 O9 1.266 . S
C24 O10 1.236 . S
C25 C28 1.344 . S
C25 C29 1.328 . S
C25 C31 1.516 . S
C26 C27 1.304 . S
C26 C30 1.323 . S
C27 C26 1.304 . S
C27 C28 1.371 . S
C27 H36 0.930 . S
C28 C25 1.344 . S
C28 C27 1.371 . S
C28 H37 0.931 . S
C29 C25 1.328 . S
C29 C30 1.433 . S
C29 H38 0.931 . S
C30 C26 1.323 . S
C30 C29 1.433 . S
C30 H39 0.933 . S
C31 Dy1 2.738 . S
C31 O11 1.255 . S
C31 O12 1.249 . S
C31 C25 1.516 . S
H32 C18 0.930 . S
H33 C19 0.931 . S
H34 C20 0.931 . S
H35 C21 0.933 . S
H36 C27 0.930 . S
H37 C28 0.931 . S
H38 C29 0.931 . S
H39 C30 0.933 . S
Dy40 O43 2.307 . S
Dy40 O45 2.395 . S
Dy40 O46 2.379 . S
Dy40 O48 2.339 . S
Dy40 O50 2.298 . S
Dy40 O54 2.275 . S
Dy40 C62 2.738 . S
Dy41 O44 2.298 . S
Dy41 O47 2.275 . S
Dy41 O49 2.307 . S
Dy41 O51 2.395 . S
Dy41 O52 2.379 . S
Dy41 O55 2.339 . S
Dy41 C71 2.738 . S
C42 O54 1.254 . S
C42 O55 1.257 . S
O43 Dy40 2.307 . S
O43 C53 1.266 . S
O44 Dy41 2.298 . S
O44 C53 1.236 . S
O45 Dy40 2.395 . S
O45 C62 1.255 . S
O46 Dy40 2.379 . S
O46 C62 1.249 . S
O47 Dy41 2.275 . S
O47 C63 1.254 . S
O48 Dy40 2.339 . S
O48 C63 1.257 . S
O49 Dy41 2.307 . S
O49 C64 1.266 . S
O50 Dy40 2.298 . S
O50 C64 1.236 . S
O51 Dy41 2.395 . S
O51 C71 1.255 . S
O52 Dy41 2.379 . S
O52 C71 1.249 . S
C53 O43 1.266 . S
C53 O44 1.236 . S
O54 Dy40 2.275 . S
O54 C42 1.254 . S
O55 Dy41 2.339 . S
O55 C42 1.257 . S
C56 C59 1.344 . S
C56 C60 1.328 . S
C56 C62 1.516 . S
C57 C58 1.304 . S
C57 C61 1.323 . S
C58 C57 1.304 . S
C58 C59 1.371 . S
C58 H72 0.930 . S
C59 C56 1.344 . S
C59 C58 1.371 . S
C59 H73 0.931 . S
C60 C56 1.328 . S
C60 C61 1.433 . S
C60 H74 0.931 . S
C61 C57 1.323 . S
C61 C60 1.433 . S
C61 H75 0.933 . S
C62 Dy40 2.738 . S
C62 O45 1.255 . S
C62 O46 1.249 . S
C62 C56 1.516 . S
C63 O47 1.254 . S
C63 O48 1.257 . S
C64 O49 1.266 . S
C64 O50 1.236 . S
C65 C68 1.344 . S
C65 C69 1.328 . S
C65 C71 1.516 . S
C66 C67 1.304 . S
C66 C70 1.323 . S
C67 C66 1.304 . S
C67 C68 1.371 . S
C67 H76 0.930 . S
C68 C65 1.344 . S
C68 C67 1.371 . S
C68 H77 0.931 . S
C69 C65 1.328 . S
C69 C70 1.433 . S
C69 H78 0.931 . S
C70 C66 1.323 . S
C70 C69 1.433 . S
C70 H79 0.933 . S
C71 Dy41 2.738 . S
C71 O51 1.255 . S
C71 O52 1.249 . S
C71 C65 1.516 . S
H72 C58 0.930 . S
H73 C59 0.931 . S
H74 C60 0.931 . S
H75 C61 0.933 . S
H76 C67 0.930 . S
H77 C68 0.931 . S
H78 C69 0.931 . S
H79 C70 0.933 . S
Dy80 O83 2.307 . S
Dy80 O85 2.395 . S
Dy80 O86 2.379 . S
Dy80 O88 2.339 . S
Dy80 O90 2.298 . S
Dy80 O94 2.275 . S
Dy80 C102 2.738 . S
Dy81 O84 2.298 . S
Dy81 O87 2.275 . S
Dy81 O89 2.307 . S
Dy81 O91 2.395 . S
Dy81 O92 2.379 . S
Dy81 O95 2.339 . S
Dy81 C111 2.738 . S
C82 O94 1.254 . S
C82 O95 1.257 . S
O83 Dy80 2.307 . S
O83 C93 1.266 . S
O84 Dy81 2.298 . S
O84 C93 1.236 . S
O85 Dy80 2.395 . S
O85 C102 1.255 . S
O86 Dy80 2.379 . S
O86 C102 1.249 . S
O87 Dy81 2.275 . S
O87 C103 1.254 . S
O88 Dy80 2.339 . S
O88 C103 1.257 . S
O89 Dy81 2.307 . S
O89 C104 1.266 . S
O90 Dy80 2.298 . S
O90 C104 1.236 . S
O91 Dy81 2.395 . S
O91 C111 1.255 . S
O92 Dy81 2.379 . S
O92 C111 1.249 . S
C93 O83 1.266 . S
C93 O84 1.236 . S
O94 Dy80 2.275 . S
O94 C82 1.254 . S
O95 Dy81 2.339 . S
O95 C82 1.257 . S
C96 C99 1.344 . S
C96 C100 1.328 . S
C96 C102 1.516 . S
C97 C98 1.304 . S
C97 C101 1.323 . S
C98 C97 1.304 . S
C98 C99 1.371 . S
C98 H112 0.930 . S
C99 C96 1.344 . S
C99 C98 1.371 . S
C99 H113 0.931 . S
C100 C96 1.328 . S
C100 C101 1.433 . S
C100 H114 0.931 . S
C101 C97 1.323 . S
C101 C100 1.433 . S
C101 H115 0.933 . S
C102 Dy80 2.738 . S
C102 O85 1.255 . S
C102 O86 1.249 . S
C102 C96 1.516 . S
C103 O87 1.254 . S
C103 O88 1.257 . S
C104 O89 1.266 . S
C104 O90 1.236 . S
C105 C108 1.344 . S
C105 C109 1.328 . S
C105 C111 1.516 . S
C106 C107 1.304 . S
C106 C110 1.323 . S
C107 C106 1.304 . S
C107 C108 1.371 . S
C107 H116 0.930 . S
C108 C105 1.344 . S
C108 C107 1.371 . S
C108 H117 0.931 . S
C109 C105 1.328 . S
C109 C110 1.433 . S
C109 H118 0.931 . S
C110 C106 1.323 . S
C110 C109 1.433 . S
C110 H119 0.933 . S
C111 Dy81 2.738 . S
C111 O91 1.255 . S
C111 O92 1.249 . S
C111 C105 1.516 . S
H112 C98 0.930 . S
H113 C99 0.931 . S
H114 C100 0.931 . S
H115 C101 0.933 . S
H116 C107 0.930 . S
H117 C108 0.931 . S
H118 C109 0.931 . S
H119 C110 0.933 . S
Dy120 O123 2.307 . S
Dy120 O125 2.395 . S
Dy120 O126 2.379 . S
Dy120 O128 2.339 . S
Dy120 O130 2.298 . S
Dy120 O134 2.275 . S
Dy120 C142 2.738 . S
Dy121 O124 2.298 . S
Dy121 O127 2.275 . S
Dy121 O129 2.307 . S
Dy121 O131 2.395 . S
Dy121 O132 2.379 . S
Dy121 O135 2.339 . S
Dy121 C151 2.738 . S
C122 O134 1.254 . S
C122 O135 1.257 . S
O123 Dy120 2.307 . S
O123 C133 1.266 . S
O124 Dy121 2.298 . S
O124 C133 1.236 . S
O125 Dy120 2.395 . S
O125 C142 1.255 . S
O126 Dy120 2.379 . S
O126 C142 1.249 . S
O127 Dy121 2.275 . S
O127 C143 1.254 . S
O128 Dy120 2.339 . S
O128 C143 1.257 . S
O129 Dy121 2.307 . S
O129 C144 1.266 . S
O130 Dy120 2.298 . S
O130 C144 1.236 . S
O131 Dy121 2.395 . S
O131 C151 1.255 . S
O132 Dy121 2.379 . S
O132 C151 1.249 . S
C133 O123 1.266 . S
C133 O124 1.236 . S
O134 Dy120 2.275 . S
O134 C122 1.254 . S
O135 Dy121 2.339 . S
O135 C122 1.257 . S
C136 C139 1.344 . S
C136 C140 1.328 . S
C136 C142 1.516 . S
C137 C138 1.304 . S
C137 C141 1.323 . S
C138 C137 1.304 . S
C138 C139 1.371 . S
C138 H152 0.930 . S
C139 C136 1.344 . S
C139 C138 1.371 . S
C139 H153 0.931 . S
C140 C136 1.328 . S
C140 C141 1.433 . S
C140 H154 0.931 . S
C141 C137 1.323 . S
C141 C140 1.433 . S
C141 H155 0.933 . S
C142 Dy120 2.738 . S
C142 O125 1.255 . S
C142 O126 1.249 . S
C142 C136 1.516 . S
C143 O127 1.254 . S
C143 O128 1.257 . S
C144 O129 1.266 . S
C144 O130 1.236 . S
C145 C148 1.344 . S
C145 C149 1.328 . S
C145 C151 1.516 . S
C146 C147 1.304 . S
C146 C150 1.323 . S
C147 C146 1.304 . S
C147 C148 1.371 . S
C147 H156 0.930 . S
C148 C145 1.344 . S
C148 C147 1.371 . S
C148 H157 0.931 . S
C149 C145 1.328 . S
C149 C150 1.433 . S
C149 H158 0.931 . S
C150 C146 1.323 . S
C150 C149 1.433 . S
C150 H159 0.933 . S
C151 Dy121 2.738 . S
C151 O131 1.255 . S
C151 O132 1.249 . S
C151 C145 1.516 . S
H152 C138 0.930 . S
H153 C139 0.931 . S
H154 C140 0.931 . S
H155 C141 0.933 . S
H156 C147 0.930 . S
H157 C148 0.931 . S
H158 C149 0.931 . S
H159 C150 0.933 . S
Dy160 O163 2.307 . S
Dy160 O165 2.395 . S
Dy160 O166 2.379 . S
Dy160 O168 2.339 . S
Dy160 O170 2.298 . S
Dy160 O174 2.275 . S
Dy160 C182 2.738 . S
Dy161 O164 2.298 . S
Dy161 O167 2.275 . S
Dy161 O169 2.307 . S
Dy161 O171 2.395 . S
Dy161 O172 2.379 . S
Dy161 O175 2.339 . S
Dy161 C191 2.738 . S
C162 O174 1.254 . S
C162 O175 1.257 . S
O163 Dy160 2.307 . S
O163 C173 1.266 . S
O164 Dy161 2.298 . S
O164 C173 1.236 . S
O165 Dy160 2.395 . S
O165 C182 1.255 . S
O166 Dy160 2.379 . S
O166 C182 1.249 . S
O167 Dy161 2.275 . S
O167 C183 1.254 . S
O168 Dy160 2.339 . S
O168 C183 1.257 . S
O169 Dy161 2.307 . S
O169 C184 1.266 . S
O170 Dy160 2.298 . S
O170 C184 1.236 . S
O171 Dy161 2.395 . S
O171 C191 1.255 . S
O172 Dy161 2.379 . S
O172 C191 1.249 . S
C173 O163 1.266 . S
C173 O164 1.236 . S
O174 Dy160 2.275 . S
O174 C162 1.254 . S
O175 Dy161 2.339 . S
O175 C162 1.257 . S
C176 C179 1.344 . S
C176 C180 1.328 . S
C176 C182 1.516 . S
C177 C178 1.304 . S
C177 C181 1.323 . S
C178 C177 1.304 . S
C178 C179 1.371 . S
C178 H192 0.930 . S
C179 C176 1.344 . S
C179 C178 1.371 . S
C179 H193 0.931 . S
C180 C176 1.328 . S
C180 C181 1.433 . S
C180 H194 0.931 . S
C181 C177 1.323 . S
C181 C180 1.433 . S
C181 H195 0.933 . S
C182 Dy160 2.738 . S
C182 O165 1.255 . S
C182 O166 1.249 . S
C182 C176 1.516 . S
C183 O167 1.254 . S
C183 O168 1.257 . S
C184 O169 1.266 . S
C184 O170 1.236 . S
C185 C188 1.344 . S
C185 C189 1.328 . S
C185 C191 1.516 . S
C186 C187 1.304 . S
C186 C190 1.323 . S
C187 C186 1.304 . S
C187 C188 1.371 . S
C187 H196 0.930 . S
C188 C185 1.344 . S
C188 C187 1.371 . S
C188 H197 0.931 . S
C189 C185 1.328 . S
C189 C190 1.433 . S
C189 H198 0.931 . S
C190 C186 1.323 . S
C190 C189 1.433 . S
C190 H199 0.933 . S
C191 Dy161 2.738 . S
C191 O171 1.255 . S
C191 O172 1.249 . S
C191 C185 1.516 . S
H192 C178 0.930 . S
H193 C179 0.931 . S
H194 C180 0.931 . S
H195 C181 0.933 . S
H196 C187 0.930 . S
H197 C188 0.931 . S
H198 C189 0.931 . S
H199 C190 0.933 . S
Dy200 O203 2.307 . S
Dy200 O205 2.395 . S
Dy200 O206 2.379 . S
Dy200 O208 2.339 . S
Dy200 O210 2.298 . S
Dy200 O214 2.275 . S
Dy200 C222 2.738 . S
Dy201 O204 2.298 . S
Dy201 O207 2.275 . S
Dy201 O209 2.307 . S
Dy201 O211 2.395 . S
Dy201 O212 2.379 . S
Dy201 O215 2.339 . S
Dy201 C231 2.738 . S
C202 O214 1.254 . S
C202 O215 1.257 . S
O203 Dy200 2.307 . S
O203 C213 1.266 . S
O204 Dy201 2.298 . S
O204 C213 1.236 . S
O205 Dy200 2.395 . S
O205 C222 1.255 . S
O206 Dy200 2.379 . S
O206 C222 1.249 . S
O207 Dy201 2.275 . S
O207 C223 1.254 . S
O208 Dy200 2.339 . S
O208 C223 1.257 . S
O209 Dy201 2.307 . S
O209 C224 1.266 . S
O210 Dy200 2.298 . S
O210 C224 1.236 . S
O211 Dy201 2.395 . S
O211 C231 1.255 . S
O212 Dy201 2.379 . S
O212 C231 1.249 . S
C213 O203 1.266 . S
C213 O204 1.236 . S
O214 Dy200 2.275 . S
O214 C202 1.254 . S
O215 Dy201 2.339 . S
O215 C202 1.257 . S
C216 C219 1.344 . S
C216 C220 1.328 . S
C216 C222 1.516 . S
C217 C218 1.304 . S
C217 C221 1.323 . S
C218 C217 1.304 . S
C218 C219 1.371 . S
C218 H232 0.930 . S
C219 C216 1.344 . S
C219 C218 1.371 . S
C219 H233 0.931 . S
C220 C216 1.328 . S
C220 C221 1.433 . S
C220 H234 0.931 . S
C221 C217 1.323 . S
C221 C220 1.433 . S
C221 H235 0.933 . S
C222 Dy200 2.738 . S
C222 O205 1.255 . S
C222 O206 1.249 . S
C222 C216 1.516 . S
C223 O207 1.254 . S
C223 O208 1.257 . S
C224 O209 1.266 . S
C224 O210 1.236 . S
C225 C228 1.344 . S
C225 C229 1.328 . S
C225 C231 1.516 . S
C226 C227 1.304 . S
C226 C230 1.323 . S
C227 C226 1.304 . S
C227 C228 1.371 . S
C227 H236 0.930 . S
C228 C225 1.344 . S
C228 C227 1.371 . S
C228 H237 0.931 . S
C229 C225 1.328 . S
C229 C230 1.433 . S
C229 H238 0.931 . S
C230 C226 1.323 . S
C230 C229 1.433 . S
C230 H239 0.933 . S
C231 Dy201 2.738 . S
C231 O211 1.255 . S
C231 O212 1.249 . S
C231 C225 1.516 . S
H232 C218 0.930 . S
H233 C219 0.931 . S
H234 C220 0.931 . S
H235 C221 0.933 . S
H236 C227 0.930 . S
H237 C228 0.931 . S
H238 C229 0.931 . S
H239 C230 0.933 . S
Dy240 O243 2.307 . S
Dy240 O245 2.395 . S
Dy240 O246 2.379 . S
Dy240 O248 2.339 . S
Dy240 O250 2.298 . S
Dy240 O254 2.275 . S
Dy240 C262 2.738 . S
Dy241 O244 2.298 . S
Dy241 O247 2.275 . S
Dy241 O249 2.307 . S
Dy241 O251 2.395 . S
Dy241 O252 2.379 . S
Dy241 O255 2.339 . S
Dy241 C271 2.738 . S
C242 O254 1.254 . S
C242 O255 1.257 . S
O243 Dy240 2.307 . S
O243 C253 1.266 . S
O244 Dy241 2.298 . S
O244 C253 1.236 . S
O245 Dy240 2.395 . S
O245 C262 1.255 . S
O246 Dy240 2.379 . S
O246 C262 1.249 . S
O247 Dy241 2.275 . S
O247 C263 1.254 . S
O248 Dy240 2.339 . S
O248 C263 1.257 . S
O249 Dy241 2.307 . S
O249 C264 1.266 . S
O250 Dy240 2.298 . S
O250 C264 1.236 . S
O251 Dy241 2.395 . S
O251 C271 1.255 . S
O252 Dy241 2.379 . S
O252 C271 1.249 . S
C253 O243 1.266 . S
C253 O244 1.236 . S
O254 Dy240 2.275 . S
O254 C242 1.254 . S
O255 Dy241 2.339 . S
O255 C242 1.257 . S
C256 C259 1.344 . S
C256 C260 1.328 . S
C256 C262 1.516 . S
C257 C258 1.304 . S
C257 C261 1.323 . S
C258 C257 1.304 . S
C258 C259 1.371 . S
C258 H272 0.930 . S
C259 C256 1.344 . S
C259 C258 1.371 . S
C259 H273 0.931 . S
C260 C256 1.328 . S
C260 C261 1.433 . S
C260 H274 0.931 . S
C261 C257 1.323 . S
C261 C260 1.433 . S
C261 H275 0.933 . S
C262 Dy240 2.738 . S
C262 O245 1.255 . S
C262 O246 1.249 . S
C262 C256 1.516 . S
C263 O247 1.254 . S
C263 O248 1.257 . S
C264 O249 1.266 . S
C264 O250 1.236 . S
C265 C268 1.344 . S
C265 C269 1.328 . S
C265 C271 1.516 . S
C266 C267 1.304 . S
C266 C270 1.323 . S
C267 C266 1.304 . S
C267 C268 1.371 . S
C267 H276 0.930 . S
C268 C265 1.344 . S
C268 C267 1.371 . S
C268 H277 0.931 . S
C269 C265 1.328 . S
C269 C270 1.433 . S
C269 H278 0.931 . S
C270 C266 1.323 . S
C270 C269 1.433 . S
C270 H279 0.933 . S
C271 Dy241 2.738 . S
C271 O251 1.255 . S
C271 O252 1.249 . S
C271 C265 1.516 . S
H272 C258 0.930 . S
H273 C259 0.931 . S
H274 C260 0.931 . S
H275 C261 0.933 . S
H276 C267 0.930 . S
H277 C268 0.931 . S
H278 C269 0.931 . S
H279 C270 0.933 . S
Dy280 O283 2.307 . S
Dy280 O285 2.395 . S
Dy280 O286 2.379 . S
Dy280 O288 2.339 . S
Dy280 O290 2.298 . S
Dy280 O294 2.275 . S
Dy280 C302 2.738 . S
Dy281 O284 2.298 . S
Dy281 O287 2.275 . S
Dy281 O289 2.307 . S
Dy281 O291 2.395 . S
Dy281 O292 2.379 . S
Dy281 O295 2.339 . S
Dy281 C311 2.738 . S
C282 O294 1.254 . S
C282 O295 1.257 . S
O283 Dy280 2.307 . S
O283 C293 1.266 . S
O284 Dy281 2.298 . S
O284 C293 1.236 . S
O285 Dy280 2.395 . S
O285 C302 1.255 . S
O286 Dy280 2.379 . S
O286 C302 1.249 . S
O287 Dy281 2.275 . S
O287 C303 1.254 . S
O288 Dy280 2.339 . S
O288 C303 1.257 . S
O289 Dy281 2.307 . S
O289 C304 1.266 . S
O290 Dy280 2.298 . S
O290 C304 1.236 . S
O291 Dy281 2.395 . S
O291 C311 1.255 . S
O292 Dy281 2.379 . S
O292 C311 1.249 . S
C293 O283 1.266 . S
C293 O284 1.236 . S
O294 Dy280 2.275 . S
O294 C282 1.254 . S
O295 Dy281 2.339 . S
O295 C282 1.257 . S
C296 C299 1.344 . S
C296 C300 1.328 . S
C296 C302 1.516 . S
C297 C298 1.304 . S
C297 C301 1.323 . S
C298 C297 1.304 . S
C298 C299 1.371 . S
C298 H312 0.930 . S
C299 C296 1.344 . S
C299 C298 1.371 . S
C299 H313 0.931 . S
C300 C296 1.328 . S
C300 C301 1.433 . S
C300 H314 0.931 . S
C301 C297 1.323 . S
C301 C300 1.433 . S
C301 H315 0.933 1_556 S
C302 Dy280 2.738 . S
C302 O285 1.255 . S
C302 O286 1.249 . S
C302 C296 1.516 . S
C303 O287 1.254 . S
C303 O288 1.257 . S
C304 O289 1.266 . S
C304 O290 1.236 . S
C305 C308 1.344 . S
C305 C309 1.328 . S
C305 C311 1.516 . S
C306 C307 1.304 . S
C306 C310 1.323 . S
C307 C306 1.304 . S
C307 C308 1.371 . S
C307 H316 0.930 . S
C308 C305 1.344 . S
C308 C307 1.371 . S
C308 H317 0.931 . S
C309 C305 1.328 . S
C309 C310 1.433 . S
C309 H318 0.931 . S
C310 C306 1.323 . S
C310 C309 1.433 . S
C310 H319 0.933 . S
C311 Dy281 2.738 . S
C311 O291 1.255 . S
C311 O292 1.249 . S
C311 C305 1.516 . S
H312 C298 0.930 . S
H313 C299 0.931 . S
H314 C300 0.931 . S
H315 C301 0.933 1_554 S
H316 C307 0.930 . S
H317 C308 0.931 . S
H318 C309 0.931 . S
H319 C310 0.933 . S
Co320 O323 2.042 . S
Co320 O330 2.264 . S
Co320 O349 2.286 . S
Co320 O350 2.069 . S
Co320 O352 2.015 1_455 S
Co321 O323 2.122 . S
Co321 O329 2.073 . S
Co321 O330 2.327 . S
Co321 O331 1.976 1_455 S
Co322 O323 2.087 1_545 S
Co322 O325 2.087 1_455 S
Co322 O332 2.111 1_455 S
Co322 O333 2.143 . S
Co322 O337 2.111 . S
Co322 O351 2.143 1_445 S
O323 Co320 2.042 . S
O323 Co321 2.122 . S
O323 Co322 2.087 1_565 S
O323 H324 0.980 1_565 S
H324 O323 0.980 1_545 S
O325 Co322 2.087 1_655 S
O325 Co326 2.042 . S
O325 Co327 2.122 . S
O325 H328 0.980 . S
Co326 O325 2.042 . S
Co326 O334 2.286 . S
Co326 O335 2.069 . S
Co326 O336 2.015 1_655 S
Co326 O339 2.264 . S
Co327 O325 2.122 . S
Co327 O338 1.976 1_655 S
Co327 O339 2.327 . S
Co327 O340 2.073 . S
H328 O325 0.980 . S
O329 Co321 2.073 . S
O329 C344 1.245 . S
O330 Co320 2.264 . S
O330 Co321 2.327 . S
O330 C344 1.257 . S
O331 Co321 1.976 1_655 S
O331 C343 1.251 . S
O332 Co322 2.111 1_655 S
O332 C343 1.274 1_545 S
O333 Co322 2.143 . S
O333 C346 1.246 . S
O334 Co326 2.286 . S
O334 C345 1.259 . S
O335 Co326 2.069 . S
O335 C345 1.289 . S
O336 Co326 2.015 1_455 S
O336 C346 1.257 . S
O337 Co322 2.111 . S
O337 C347 1.274 . S
O338 Co327 1.976 1_455 S
O338 C347 1.251 . S
O339 Co326 2.264 . S
O339 Co327 2.327 . S
O339 C348 1.257 . S
O340 Co327 2.073 . S
O340 C348 1.245 . S
C341 O349 1.259 . S
C341 O350 1.289 . S
C342 O351 1.246 . S
C342 O352 1.257 . S
C343 O331 1.251 . S
C343 O332 1.274 1_565 S
C344 O329 1.245 . S
C344 O330 1.257 . S
C345 O334 1.259 . S
C345 O335 1.289 . S
C346 O333 1.246 . S
C346 O336 1.257 . S
C347 O337 1.274 . S
C347 O338 1.251 . S
C348 O339 1.257 . S
C348 O340 1.245 . S
O349 Co320 2.286 . S
O349 C341 1.259 . S
O350 Co320 2.069 . S
O350 C341 1.289 . S
O351 Co322 2.143 1_665 S
O351 C342 1.246 . S
O352 Co320 2.015 1_655 S
O352 C342 1.257 . S
Co353 O356 2.042 1_566 S
Co353 O363 2.264 1_556 S
Co353 O382 2.286 . S
Co353 O383 2.069 . S
Co353 O385 2.015 . S
Co354 O356 2.122 1_565 S
Co354 O362 2.073 . S
Co354 O363 2.327 . S
Co354 O364 1.976 . S
Co355 O356 2.087 . S
Co355 O358 2.087 1_554 S
Co355 O365 2.111 . S
Co355 O366 2.143 . S
Co355 O370 2.111 1_554 S
Co355 O384 2.143 1_554 S
O356 Co353 2.042 1_544 S
O356 Co354 2.122 1_545 S
O356 Co355 2.087 . S
O356 H357 0.980 . S
H357 O356 0.980 . S
O358 Co355 2.087 1_556 S
O358 Co359 2.042 1_556 S
O358 Co360 2.122 . S
O358 H361 0.980 . S
Co359 O358 2.042 1_554 S
Co359 O367 2.286 . S
Co359 O368 2.069 . S
Co359 O369 2.015 . S
Co359 O372 2.264 1_554 S
Co360 O358 2.122 . S
Co360 O371 1.976 . S
Co360 O372 2.327 . S
Co360 O373 2.073 . S
H361 O358 0.980 . S
O362 Co354 2.073 . S
O362 C377 1.245 . S
O363 Co353 2.264 1_554 S
O363 Co354 2.327 . S
O363 C377 1.257 . S
O364 Co354 1.976 . S
O364 C376 1.251 . S
O365 Co355 2.111 . S
O365 C376 1.274 1_545 S
O366 Co355 2.143 . S
O366 C379 1.246 . S
O367 Co359 2.286 . S
O367 C378 1.259 . S
O368 Co359 2.069 . S
O368 C378 1.289 . S
O369 Co359 2.015 . S
O369 C379 1.257 . S
O370 Co355 2.111 1_556 S
O370 C380 1.274 . S
O371 Co360 1.976 . S
O371 C380 1.251 . S
O372 Co359 2.264 1_556 S
O372 Co360 2.327 . S
O372 C381 1.257 . S
O373 Co360 2.073 . S
O373 C381 1.245 . S
C374 O382 1.259 . S
C374 O383 1.289 . S
C375 O384 1.247 1_565 S
C375 O385 1.257 . S
C376 O364 1.251 . S
C376 O365 1.274 1_565 S
C377 O362 1.245 . S
C377 O363 1.257 . S
C378 O367 1.259 . S
C378 O368 1.289 . S
C379 O366 1.246 . S
C379 O369 1.257 . S
C380 O370 1.274 . S
C380 O371 1.251 . S
C381 O372 1.257 . S
C381 O373 1.245 . S
O382 Co353 2.286 . S
O382 C374 1.259 . S
O383 Co353 2.069 . S
O383 C374 1.289 . S
O384 Co355 2.143 1_556 S
O384 C375 1.247 1_545 S
O385 Co353 2.015 . S
O385 C375 1.257 . S
Co386 O389 2.042 . S
Co386 O396 2.264 . S
Co386 O415 2.286 1_554 S
Co386 O416 2.069 . S
Co386 O418 2.015 1_455 S
Co387 O389 2.122 . S
Co387 O395 2.073 . S
Co387 O396 2.327 . S
Co387 O397 1.976 1_455 S
Co388 O389 2.087 . S
Co388 O391 2.087 1_455 S
Co388 O398 2.111 1_455 S
Co388 O399 2.143 . S
Co388 O403 2.111 . S
Co388 O417 2.143 1_455 S
O389 Co386 2.042 . S
O389 Co387 2.122 . S
O389 Co388 2.087 . S
O389 H390 0.980 . S
H390 O389 0.980 . S
O391 Co388 2.087 1_655 S
O391 Co392 2.042 . S
O391 Co393 2.122 1_554 S
O391 H394 0.980 . S
Co392 O391 2.042 . S
Co392 O400 2.286 . S
Co392 O401 2.069 . S
Co392 O402 2.015 1_655 S
Co392 O405 2.264 . S
Co393 O391 2.122 1_556 S
Co393 O404 1.976 1_656 S
Co393 O405 2.327 1_556 S
Co393 O406 2.073 . S
H394 O391 0.980 . S
O395 Co387 2.073 . S
O395 C410 1.245 . S
O396 Co386 2.264 . S
O396 Co387 2.327 . S
O396 C410 1.257 . S
O397 Co387 1.976 1_655 S
O397 C409 1.251 . S
O398 Co388 2.111 1_655 S
O398 C409 1.274 . S
O399 Co388 2.143 . S
O399 C412 1.246 . S
O400 Co392 2.286 . S
O400 C411 1.259 . S
O401 Co392 2.069 . S
O401 C411 1.289 . S
O402 Co392 2.015 1_455 S
O402 C412 1.257 . S
O403 Co388 2.111 . S
O403 C413 1.274 . S
O404 Co393 1.976 1_454 S
O404 C413 1.250 . S
O405 Co392 2.264 . S
O405 Co393 2.327 1_554 S
O405 C414 1.257 . S
O406 Co393 2.073 . S
O406 C414 1.245 1_556 S
C407 O415 1.259 1_554 S
C407 O416 1.289 . S
C408 O417 1.246 . S
C408 O418 1.257 . S
C409 O397 1.251 . S
C409 O398 1.274 . S
C410 O395 1.245 . S
C410 O396 1.257 . S
C411 O400 1.259 . S
C411 O401 1.289 . S
C412 O399 1.246 . S
C412 O402 1.257 . S
C413 O403 1.274 . S
C413 O404 1.250 . S
C414 O405 1.257 . S
C414 O406 1.245 1_554 S
O415 Co386 2.286 1_556 S
O415 C407 1.259 1_556 S
O416 Co386 2.069 . S
O416 C407 1.289 . S
O417 Co388 2.143 1_655 S
O417 C408 1.246 . S
O418 Co386 2.015 1_655 S
O418 C408 1.257 . S
Co419 O422 2.042 1_556 S
Co419 O429 2.264 1_556 S
Co419 O448 2.286 . S
Co419 O449 2.069 . S
Co419 O451 2.015 . S
Co420 O422 2.122 . S
Co420 O428 2.073 . S
Co420 O429 2.327 . S
Co420 O430 1.976 . S
Co421 O422 2.087 . S
Co421 O424 2.087 . S
Co421 O431 2.111 . S
Co421 O432 2.143 . S
Co421 O436 2.111 1_554 S
Co421 O450 2.143 1_554 S
O422 Co419 2.042 1_554 S
O422 Co420 2.122 . S
O422 Co421 2.087 . S
O422 H423 0.980 . S
H423 O422 0.980 . S
O424 Co421 2.087 . S
O424 Co425 2.042 . S
O424 Co426 2.122 1_554 S
O424 H427 0.980 . S
Co425 O424 2.042 . S
Co425 O433 2.286 . S
Co425 O434 2.069 . S
Co425 O435 2.015 . S
Co425 O438 2.264 1_554 S
Co426 O424 2.122 1_556 S
Co426 O437 1.976 . S
Co426 O438 2.327 . S
Co426 O439 2.073 . S
H427 O424 0.980 . S
O428 Co420 2.073 . S
O428 C443 1.245 . S
O429 Co419 2.264 1_554 S
O429 Co420 2.327 . S
O429 C443 1.257 . S
O430 Co420 1.976 . S
O430 C442 1.251 . S
O431 Co421 2.111 . S
O431 C442 1.274 . S
O432 Co421 2.143 . S
O432 C445 1.246 . S
O433 Co425 2.286 . S
O433 C444 1.259 . S
O434 Co425 2.069 . S
O434 C444 1.289 . S
O435 Co425 2.015 . S
O435 C445 1.257 . S
O436 Co421 2.111 1_556 S
O436 C446 1.274 . S
O437 Co426 1.976 . S
O437 C446 1.251 . S
O438 Co425 2.264 1_556 S
O438 Co426 2.327 . S
O438 C447 1.257 . S
O439 Co426 2.073 . S
O439 C447 1.245 . S
C440 O448 1.259 . S
C440 O449 1.289 . S
C441 O450 1.246 . S
C441 O451 1.257 . S
C442 O430 1.251 . S
C442 O431 1.274 . S
C443 O428 1.245 . S
C443 O429 1.257 . S
C444 O433 1.259 . S
C444 O434 1.289 . S
C445 O432 1.246 . S
C445 O435 1.257 . S
C446 O436 1.274 . S
C446 O437 1.251 . S
C447 O438 1.257 . S
C447 O439 1.245 . S
O448 Co419 2.286 . S
O448 C440 1.259 . S
O449 Co419 2.069 . S
O449 C440 1.289 . S
O450 Co421 2.143 1_556 S
O450 C441 1.246 . S
O451 Co419 2.015 . S
O451 C441 1.257 . S
Co452 O455 2.042 . S
Co452 O462 2.264 . S
Co452 O481 2.286 . S
Co452 O482 2.069 . S
Co452 O484 2.015 . S
Co453 O455 2.122 . S
Co453 O461 2.073 . S
Co453 O462 2.327 . S
Co453 O463 1.976 . S
Co454 O455 2.087 . S
Co454 O457 2.087 . S
Co454 O464 2.111 . S
Co454 O465 2.134 1_455 S
Co454 O469 2.111 . S
Co454 O483 2.143 . S
O455 Co452 2.042 . S
O455 Co453 2.122 . S
O455 Co454 2.087 . S
O455 H456 0.980 . S
H456 O455 0.980 . S
O457 Co454 2.087 . S
O457 Co458 2.042 1_455 S
O457 Co459 2.122 1_455 S
O457 H460 0.980 . S
Co458 O457 2.042 1_655 S
Co458 O466 2.286 . S
Co458 O467 2.069 . S
Co458 O468 2.015 . S
Co458 O471 2.264 . S
Co459 O457 2.122 1_655 S
Co459 O470 1.976 . S
Co459 O471 2.327 . S
Co459 O472 2.073 . S
H460 O457 0.980 . S
O461 Co453 2.073 . S
O461 C476 1.245 . S
O462 Co452 2.264 . S
O462 Co453 2.327 . S
O462 C476 1.257 . S
O463 Co453 1.976 . S
O463 C475 1.251 . S
O464 Co454 2.111 . S
O464 C475 1.274 . S
O465 Co454 2.134 1_655 S
O465 C478 1.263 . S
O466 Co458 2.286 . S
O466 C477 1.259 . S
O467 Co458 2.069 . S
O467 C477 1.289 . S
O468 Co458 2.015 . S
O468 C478 1.257 . S
O469 Co454 2.111 . S
O469 C479 1.274 1_455 S
O470 Co459 1.976 . S
O470 C479 1.251 . S
O471 Co458 2.264 . S
O471 Co459 2.327 . S
O471 C480 1.257 . S
O472 Co459 2.073 . S
O472 C480 1.245 . S
C473 O481 1.259 . S
C473 O482 1.289 . S
C474 O483 1.246 . S
C474 O484 1.257 . S
C475 O463 1.251 . S
C475 O464 1.274 . S
C476 O461 1.245 . S
C476 O462 1.257 . S
C477 O466 1.259 . S
C477 O467 1.289 . S
C478 O465 1.263 . S
C478 O468 1.257 . S
C479 O469 1.274 1_655 S
C479 O470 1.251 . S
C480 O471 1.257 . S
C480 O472 1.245 . S
O481 Co452 2.286 . S
O481 C473 1.259 . S
O482 Co452 2.069 . S
O482 C473 1.289 . S
O483 Co454 2.143 . S
O483 C474 1.246 . S
O484 Co452 2.015 . S
O484 C474 1.257 . S
Co485 O488 2.042 . S
Co485 O495 2.264 . S
Co485 O514 2.286 . S
Co485 O515 2.069 . S
Co485 O517 2.015 1_565 S
Co486 O488 2.122 . S
Co486 O494 2.073 . S
Co486 O495 2.327 . S
Co486 O496 1.976 1_565 S
Co487 O488 2.087 1_545 S
Co487 O490 2.087 . S
Co487 O497 2.111 . S
Co487 O498 2.143 1_545 S
Co487 O502 2.111 1_545 S
Co487 O516 2.143 . S
O488 Co485 2.042 . S
O488 Co486 2.122 . S
O488 Co487 2.087 1_565 S
O488 H489 0.980 . S
H489 O488 0.980 . S
O490 Co487 2.087 . S
O490 Co491 2.042 . S
O490 Co492 2.122 . S
O490 H493 0.980 . S
Co491 O490 2.042 . S
Co491 O499 2.286 . S
Co491 O500 2.069 . S
Co491 O501 2.015 1_545 S
Co491 O504 2.264 . S
Co492 O490 2.122 . S
Co492 O503 1.976 1_545 S
Co492 O504 2.327 . S
Co492 O505 2.073 . S
H493 O490 0.980 . S
O494 Co486 2.073 . S
O494 C509 1.245 . S
O495 Co485 2.264 . S
O495 Co486 2.327 . S
O495 C509 1.257 . S
O496 Co486 1.976 1_545 S
O496 C508 1.251 . S
O497 Co487 2.111 . S
O497 C508 1.274 . S
O498 Co487 2.143 1_565 S
O498 C511 1.246 . S
O499 Co491 2.286 . S
O499 C510 1.259 . S
O500 Co491 2.069 . S
O500 C510 1.289 . S
O501 Co491 2.015 1_565 S
O501 C511 1.257 . S
O502 Co487 2.111 1_565 S
O502 C512 1.274 . S
O503 Co492 1.976 1_565 S
O503 C512 1.251 . S
O504 Co491 2.264 . S
O504 Co492 2.327 . S
O504 C513 1.257 . S
O505 Co492 2.073 . S
O505 C513 1.245 . S
C506 O514 1.259 . S
C506 O515 1.289 . S
C507 O516 1.246 . S
C507 O517 1.257 . S
C508 O496 1.251 . S
C508 O497 1.274 . S
C509 O494 1.245 . S
C509 O495 1.257 . S
C510 O499 1.259 . S
C510 O500 1.289 . S
C511 O498 1.246 . S
C511 O501 1.257 . S
C512 O502 1.274 . S
C512 O503 1.251 . S
C513 O504 1.257 . S
C513 O505 1.245 . S
O514 Co485 2.286 . S
O514 C506 1.259 . S
O515 Co485 2.069 . S
O515 C506 1.289 . S
O516 Co487 2.143 . S
O516 C507 1.246 . S
O517 Co485 2.015 1_545 S
O517 C507 1.257 . S
H518 C524 0.930 . S
H519 C528 0.930 . S
H520 C533 0.929 . S
H521 C531 0.929 . S
H522 C526 0.929 . S
H523 C532 0.929 . S
C524 H518 0.930 . S
C524 C525 1.367 . S
C524 C532 1.378 . S
C525 C524 1.367 . S
C525 C533 1.433 . S
C526 H522 0.929 . S
C526 C528 1.378 . S
C526 C530 1.350 . S
C527 C530 1.463 . S
C527 C532 1.350 . S
C527 N535 1.427 . S
C528 H519 0.930 . S
C528 C526 1.378 . S
C528 C529 1.367 . S
C529 C528 1.367 . S
C529 C531 1.433 . S
C530 C526 1.350 . S
C530 C527 1.463 . S
C530 N534 1.427 . S
C531 H521 0.929 . S
C531 C529 1.433 . S
C531 N534 1.384 . S
C532 H523 0.929 . S
C532 C524 1.378 . S
C532 C527 1.350 . S
C533 H520 0.929 . S
C533 C525 1.433 . S
C533 N535 1.384 . S
N534 C530 1.427 . S
N534 C531 1.384 . S
N535 C527 1.427 . S
N535 C533 1.384 . S
H536 C542 0.930 . S
H537 C546 0.930 . S
H538 C551 0.929 . S
H539 C549 0.929 . S
H540 C544 0.929 . S
H541 C550 0.929 . S
C542 H536 0.930 . S
C542 C543 1.367 . S
C542 C550 1.378 . S
C543 C542 1.367 . S
C543 C551 1.433 . S
C544 H540 0.929 . S
C544 C546 1.378 . S
C544 C548 1.350 . S
C545 C548 1.463 . S
C545 C550 1.350 . S
C545 N553 1.427 . S
C546 H537 0.930 . S
C546 C544 1.378 . S
C546 C547 1.367 . S
C547 C546 1.367 . S
C547 C549 1.433 . S
C548 C544 1.350 . S
C548 C545 1.463 . S
C548 N552 1.427 . S
C549 H539 0.929 . S
C549 C547 1.433 . S
C549 N552 1.384 . S
C550 H541 0.929 . S
C550 C542 1.378 . S
C550 C545 1.350 . S
C551 H538 0.929 . S
C551 C543 1.433 . S
C551 N553 1.384 . S
N552 C548 1.427 . S
N552 C549 1.384 . S
N553 C545 1.427 . S
N553 C551 1.384 . S
H554 C560 0.930 . S
H555 C564 0.930 . S
H556 C569 0.929 . S
H557 C567 0.929 . S
H558 C562 0.929 . S
H559 C568 0.929 . S
C560 H554 0.930 . S
C560 C561 1.367 . S
C560 C568 1.378 . S
C561 C560 1.367 . S
C561 C569 1.433 . S
C562 H558 0.929 . S
C562 C564 1.378 . S
C562 C566 1.350 . S
C563 C566 1.463 . S
C563 C568 1.350 . S
C563 N571 1.427 . S
C564 H555 0.930 . S
C564 C562 1.378 . S
C564 C565 1.367 . S
C565 C564 1.367 . S
C565 C567 1.433 . S
C566 C562 1.350 . S
C566 C563 1.463 . S
C566 N570 1.427 . S
C567 H557 0.929 . S
C567 C565 1.433 . S
C567 N570 1.384 . S
C568 H559 0.929 . S
C568 C560 1.378 . S
C568 C563 1.350 . S
C569 H556 0.929 . S
C569 C561 1.433 . S
C569 N571 1.384 . S
N570 C566 1.427 . S
N570 C567 1.384 . S
N571 C563 1.427 . S
N571 C569 1.384 . S
H572 C578 0.930 . S
H573 C582 0.930 . S
H574 C587 0.929 . S
H575 C585 0.929 . S
H576 C580 0.929 . S
H577 C586 0.929 . S
C578 H572 0.930 . S
C578 C579 1.367 . S
C578 C586 1.378 . S
C579 C578 1.367 . S
C579 C587 1.433 . S
C580 H576 0.929 . S
C580 C582 1.378 . S
C580 C584 1.350 . S
C581 C584 1.463 . S
C581 C586 1.350 . S
C581 N589 1.427 . S
C582 H573 0.930 . S
C582 C580 1.378 . S
C582 C583 1.367 . S
C583 C582 1.367 . S
C583 C585 1.433 . S
C584 C580 1.350 . S
C584 C581 1.463 . S
C584 N588 1.427 . S
C585 H575 0.929 . S
C585 C583 1.433 . S
C585 N588 1.384 . S
C586 H577 0.929 . S
C586 C578 1.378 . S
C586 C581 1.350 . S
C587 H574 0.929 . S
C587 C579 1.433 . S
C587 N589 1.384 . S
N588 C584 1.427 . S
N588 C585 1.384 . S
N589 C581 1.427 . S
N589 C587 1.384 . S
H590 C596 0.930 . S
H591 C600 0.930 . S
H592 C605 0.929 . S
H593 C603 0.929 . S
H594 C598 0.929 . S
H595 C604 0.929 . S
C596 H590 0.930 . S
C596 C597 1.367 . S
C596 C604 1.378 . S
C597 C596 1.367 . S
C597 C605 1.433 . S
C598 H594 0.929 . S
C598 C600 1.378 . S
C598 C602 1.350 . S
C599 C602 1.463 . S
C599 C604 1.350 . S
C599 N607 1.427 . S
C600 H591 0.930 . S
C600 C598 1.378 . S
C600 C601 1.367 . S
C601 C600 1.367 . S
C601 C603 1.433 . S
C602 C598 1.350 . S
C602 C599 1.463 . S
C602 N606 1.427 . S
C603 H593 0.929 . S
C603 C601 1.433 . S
C603 N606 1.384 . S
C604 H595 0.929 . S
C604 C596 1.378 . S
C604 C599 1.350 . S
C605 H592 0.929 . S
C605 C597 1.433 . S
C605 N607 1.384 . S
N606 C602 1.427 . S
N606 C603 1.384 . S
N607 C599 1.427 . S
N607 C605 1.384 . S
H608 C614 0.930 . S
H609 C618 0.930 . S
H610 C623 0.929 . S
H611 C621 0.929 . S
H612 C616 0.929 . S
H613 C622 0.929 . S
C614 H608 0.930 . S
C614 C615 1.367 . S
C614 C622 1.378 . S
C615 C614 1.367 . S
C615 C623 1.433 . S
C616 H612 0.929 . S
C616 C618 1.378 . S
C616 C620 1.350 . S
C617 C620 1.463 . S
C617 C622 1.350 . S
C617 N625 1.427 . S
C618 H609 0.930 . S
C618 C616 1.378 . S
C618 C619 1.367 . S
C619 C618 1.367 . S
C619 C621 1.433 . S
C620 C616 1.350 . S
C620 C617 1.463 . S
C620 N624 1.427 . S
C621 H611 0.929 . S
C621 C619 1.433 . S
C621 N624 1.384 . S
C622 H613 0.929 . S
C622 C614 1.378 . S
C622 C617 1.350 . S
C623 H610 0.929 . S
C623 C615 1.433 . S
C623 N625 1.384 . S
N624 C620 1.427 . S
N624 C621 1.384 . S
N625 C617 1.427 . S
N625 C623 1.384 . S
H626 C632 0.930 . S
H627 C636 0.930 . S
H628 C641 0.929 . S
H629 C639 0.929 . S
H630 C634 0.929 . S
H631 C640 0.929 . S
C632 H626 0.930 . S
C632 C633 1.367 . S
C632 C640 1.378 . S
C633 C632 1.367 . S
C633 C641 1.433 . S
C634 H630 0.929 . S
C634 C636 1.378 . S
C634 C638 1.350 . S
C635 C638 1.463 . S
C635 C640 1.350 . S
C635 N643 1.427 . S
C636 H627 0.930 . S
C636 C634 1.378 . S
C636 C637 1.367 . S
C637 C636 1.367 . S
C637 C639 1.433 . S
C638 C634 1.350 . S
C638 C635 1.463 . S
C638 N642 1.427 . S
C639 H629 0.929 . S
C639 C637 1.433 . S
C639 N642 1.384 . S
C640 H631 0.929 . S
C640 C632 1.378 . S
C640 C635 1.350 . S
C641 H628 0.929 . S
C641 C633 1.433 . S
C641 N643 1.384 . S
N642 C638 1.427 . S
N642 C639 1.384 . S
N643 C635 1.427 . S
N643 C641 1.384 . S
H644 C650 0.930 . S
H645 C654 0.930 . S
H646 C659 0.929 . S
H647 C657 0.929 . S
H648 C652 0.929 . S
H649 C658 0.929 . S
C650 H644 0.930 . S
C650 C651 1.367 . S
C650 C658 1.378 . S
C651 C650 1.367 . S
C651 C659 1.433 . S
C652 H648 0.929 . S
C652 C654 1.378 . S
C652 C656 1.350 . S
C653 C656 1.463 . S
C653 C658 1.350 . S
C653 N661 1.427 . S
C654 H645 0.930 . S
C654 C652 1.378 . S
C654 C655 1.367 . S
C655 C654 1.367 . S
C655 C657 1.433 . S
C656 C652 1.350 . S
C656 C653 1.463 . S
C656 N660 1.427 . S
C657 H647 0.929 . S
C657 C655 1.433 . S
C657 N660 1.384 . S
C658 H649 0.929 . S
C658 C650 1.378 . S
C658 C653 1.350 . S
C659 H646 0.929 . S
C659 C651 1.433 . S
C659 N661 1.384 . S
N660 C656 1.427 . S
N660 C657 1.384 . S
N661 C653 1.427 . S
N661 C659 1.384 . S
H662 C668 0.930 . S
H663 C672 0.930 . S
H664 C677 0.929 . S
H665 C675 0.929 . S
H666 C670 0.929 . S
H667 C676 0.929 . S
C668 H662 0.930 . S
C668 C669 1.367 . S
C668 C676 1.378 . S
C669 C668 1.367 . S
C669 C677 1.433 . S
C670 H666 0.929 . S
C670 C672 1.378 . S
C670 C674 1.350 . S
C671 C674 1.463 . S
C671 C676 1.350 . S
C671 N679 1.427 . S
C672 H663 0.930 . S
C672 C670 1.378 . S
C672 C673 1.367 . S
C673 C672 1.367 . S
C673 C675 1.433 . S
C674 C670 1.350 . S
C674 C671 1.463 . S
C674 N678 1.427 . S
C675 H665 0.929 . S
C675 C673 1.433 . S
C675 N678 1.384 . S
C676 H667 0.929 . S
C676 C668 1.378 . S
C676 C671 1.350 . S
C677 H664 0.929 . S
C677 C669 1.433 . S
C677 N679 1.384 . S
N678 C674 1.427 . S
N678 C675 1.384 . S
N679 C671 1.427 . S
N679 C677 1.384 . S
H680 C686 0.930 . S
H681 C690 0.930 . S
H682 C695 0.929 . S
H683 C693 0.929 . S
H684 C688 0.929 . S
H685 C694 0.929 . S
C686 H680 0.930 . S
C686 C687 1.367 . S
C686 C694 1.378 . S
C687 C686 1.367 . S
C687 C695 1.433 . S
C688 H684 0.929 . S
C688 C690 1.378 . S
C688 C692 1.350 . S
C689 C692 1.463 . S
C689 C694 1.350 . S
C689 N697 1.427 . S
C690 H681 0.930 . S
C690 C688 1.378 . S
C690 C691 1.367 . S
C691 C690 1.367 . S
C691 C693 1.433 . S
C692 C688 1.350 . S
C692 C689 1.463 . S
C692 N696 1.427 . S
C693 H683 0.929 . S
C693 C691 1.433 . S
C693 N696 1.384 . S
C694 H685 0.929 . S
C694 C686 1.378 . S
C694 C689 1.350 . S
C695 H682 0.929 . S
C695 C687 1.433 . S
C695 N697 1.384 . S
N696 C692 1.427 . S
N696 C693 1.384 . S
N697 C689 1.427 . S
N697 C695 1.384 . S
H698 C704 0.930 . S
H699 C708 0.930 . S
H700 C713 0.929 . S
H701 C711 0.929 . S
H702 C706 0.929 . S
H703 C712 0.929 . S
C704 H698 0.930 . S
C704 C705 1.367 . S
C704 C712 1.378 . S
C705 C704 1.367 . S
C705 C713 1.433 . S
C706 H702 0.929 . S
C706 C708 1.378 . S
C706 C710 1.350 . S
C707 C710 1.463 . S
C707 C712 1.350 . S
C707 N715 1.427 . S
C708 H699 0.930 . S
C708 C706 1.378 . S
C708 C709 1.367 . S
C709 C708 1.367 . S
C709 C711 1.433 . S
C710 C706 1.350 . S
C710 C707 1.463 . S
C710 N714 1.427 . S
C711 H701 0.929 . S
C711 C709 1.433 . S
C711 N714 1.384 . S
C712 H703 0.929 . S
C712 C704 1.378 . S
C712 C707 1.350 . S
C713 H700 0.929 . S
C713 C705 1.433 . S
C713 N715 1.384 . S
N714 C710 1.427 . S
N714 C711 1.384 . S
N715 C707 1.427 . S
N715 C713 1.384 . S
H716 C722 0.930 . S
H717 C726 0.930 . S
H718 C731 0.929 . S
H719 C729 0.929 . S
H720 C724 0.929 . S
H721 C730 0.929 . S
C722 H716 0.930 . S
C722 C723 1.367 . S
C722 C730 1.378 . S
C723 C722 1.367 . S
C723 C731 1.433 . S
C724 H720 0.929 . S
C724 C726 1.378 . S
C724 C728 1.350 . S
C725 C728 1.463 . S
C725 C730 1.350 . S
C725 N733 1.427 . S
C726 H717 0.930 . S
C726 C724 1.378 . S
C726 C727 1.367 . S
C727 C726 1.367 . S
C727 C729 1.433 . S
C728 C724 1.350 . S
C728 C725 1.463 . S
C728 N732 1.427 . S
C729 H719 0.929 . S
C729 C727 1.433 . S
C729 N732 1.384 . S
C730 H721 0.929 . S
C730 C722 1.378 . S
C730 C725 1.350 . S
C731 H718 0.929 . S
C731 C723 1.433 . S
C731 N733 1.384 . S
N732 C728 1.427 . S
N732 C729 1.384 . S
N733 C725 1.427 . S
N733 C731 1.384 . S
H734 C740 0.930 . S
H735 C744 0.930 . S
H736 C749 0.929 . S
H737 C747 0.929 . S
H738 C742 0.929 . S
H739 C748 0.929 . S
C740 H734 0.930 . S
C740 C741 1.367 . S
C740 C748 1.378 . S
C741 C740 1.367 . S
C741 C749 1.433 . S
C742 H738 0.929 . S
C742 C744 1.378 . S
C742 C746 1.350 . S
C743 C746 1.463 . S
C743 C748 1.350 . S
C743 N751 1.427 . S
C744 H735 0.930 . S
C744 C742 1.378 . S
C744 C745 1.367 . S
C745 C744 1.367 . S
C745 C747 1.433 . S
C746 C742 1.350 . S
C746 C743 1.463 . S
C746 N750 1.427 . S
C747 H737 0.929 . S
C747 C745 1.433 . S
C747 N750 1.384 . S
C748 H739 0.929 . S
C748 C740 1.378 . S
C748 C743 1.350 . S
C749 H736 0.929 . S
C749 C741 1.433 . S
C749 N751 1.384 . S
N750 C746 1.427 . S
N750 C747 1.384 . S
N751 C743 1.427 . S
N751 C749 1.384 . S
H752 C758 0.930 . S
H753 C762 0.930 . S
H754 C767 0.929 . S
H755 C765 0.929 . S
H756 C760 0.931 . S
H757 C766 0.929 . S
C758 H752 0.930 . S
C758 C759 1.367 . S
C758 C766 1.378 . S
C759 C758 1.367 . S
C759 C767 1.433 . S
C760 H756 0.931 . S
C760 C762 1.380 . S
C760 C764 1.345 1_554 S
C761 C764 1.463 . S
C761 C766 1.350 . S
C761 N769 1.427 . S
C762 H753 0.930 . S
C762 C760 1.380 . S
C762 C763 1.367 1_554 S
C763 C762 1.367 1_556 S
C763 C765 1.433 . S
C764 C760 1.345 1_556 S
C764 C761 1.463 . S
C764 N768 1.427 . S
C765 H755 0.929 . S
C765 C763 1.433 . S
C765 N768 1.384 . S
C766 H757 0.929 . S
C766 C758 1.378 . S
C766 C761 1.350 . S
C767 H754 0.929 . S
C767 C759 1.433 . S
C767 N769 1.384 . S
N768 C764 1.427 . S
N768 C765 1.384 . S
N769 C761 1.427 . S
N769 C767 1.384 . S
H770 C776 0.930 . S
H771 C780 0.930 . S
H772 C785 0.929 . S
H773 C783 0.929 . S
H774 C778 0.929 . S
H775 C784 0.929 . S
C776 H770 0.930 . S
C776 C777 1.367 . S
C776 C784 1.378 . S
C777 C776 1.367 . S
C777 C785 1.433 . S
C778 H774 0.929 . S
C778 C780 1.378 . S
C778 C782 1.350 . S
C779 C782 1.463 . S
C779 C784 1.350 . S
C779 N787 1.427 . S
C780 H771 0.930 . S
C780 C778 1.378 . S
C780 C781 1.367 . S
C781 C780 1.367 . S
C781 C783 1.433 . S
C782 C778 1.350 . S
C782 C779 1.463 . S
C782 N786 1.427 . S
C783 H773 0.929 . S
C783 C781 1.433 . S
C783 N786 1.384 . S
C784 H775 0.929 . S
C784 C776 1.378 . S
C784 C779 1.350 . S
C785 H772 0.929 . S
C785 C777 1.433 . S
C785 N787 1.384 . S
N786 C782 1.427 . S
N786 C783 1.384 . S
N787 C779 1.427 . S
N787 C785 1.384 . S
H788 C794 0.930 . S
H789 C798 0.930 . S
H790 C803 0.929 . S
H791 C801 0.929 . S
H792 C796 0.929 . S
H793 C802 0.929 . S
C794 H788 0.930 . S
C794 C795 1.367 1_554 S
C794 C802 1.378 . S
C795 C794 1.367 1_556 S
C795 C803 1.433 . S
C796 H792 0.929 . S
C796 C798 1.378 . S
C796 C800 1.335 1_556 S
C797 C800 1.461 1_556 S
C797 C802 1.350 1_556 S
C797 N805 1.427 . S
C798 H789 0.930 . S
C798 C796 1.378 . S
C798 C799 1.367 1_556 S
C799 C798 1.367 1_554 S
C799 C801 1.433 . S
C800 C796 1.335 1_554 S
C800 C797 1.461 1_554 S
C800 N804 1.445 . S
C801 H791 0.929 . S
C801 C799 1.433 . S
C801 N804 1.384 . S
C802 H793 0.929 . S
C802 C794 1.378 . S
C802 C797 1.350 1_554 S
C803 H790 0.929 . S
C803 C795 1.433 . S
C803 N805 1.384 . S
N804 C800 1.445 . S
N804 C801 1.384 . S
N805 C797 1.427 . S
N805 C803 1.384 . S
H806 C812 0.930 . S
H807 C816 0.930 . S
H808 C821 0.929 . S
H809 C819 0.929 . S
H810 C814 0.929 . S
H811 C820 0.929 . S
C812 H806 0.930 . S
C812 C813 1.367 . S
C812 C820 1.378 . S
C813 C812 1.367 . S
C813 C821 1.433 . S
C814 H810 0.929 . S
C814 C816 1.378 . S
C814 C818 1.350 . S
C815 C818 1.463 . S
C815 C820 1.350 . S
C815 N823 1.427 . S
C816 H807 0.930 . S
C816 C814 1.378 . S
C816 C817 1.367 . S
C817 C816 1.367 . S
C817 C819 1.433 . S
C818 C814 1.350 . S
C818 C815 1.463 . S
C818 N822 1.427 . S
C819 H809 0.929 . S
C819 C817 1.433 . S
C819 N822 1.384 . S
C820 H811 0.929 . S
C820 C812 1.378 . S
C820 C815 1.350 . S
C821 H808 0.929 . S
C821 C813 1.433 . S
C821 N823 1.384 . S
N822 C818 1.427 . S
N822 C819 1.384 . S
N823 C815 1.427 . S
N823 C821 1.384 . S
H824 C830 0.930 . S
H825 C834 0.930 . S
H826 C839 0.929 . S
H827 C837 0.929 . S
H828 C832 0.929 . S
H829 C838 0.929 . S
C830 H824 0.930 . S
C830 C831 1.367 . S
C830 C838 1.378 . S
C831 C830 1.367 . S
C831 C839 1.433 . S
C832 H828 0.929 . S
C832 C834 1.378 . S
C832 C836 1.350 1_554 S
C833 C836 1.463 . S
C833 C838 1.350 . S
C833 N841 1.427 . S
C834 H825 0.930 . S
C834 C832 1.378 . S
C834 C835 1.367 . S
C835 C834 1.367 . S
C835 C837 1.433 . S
C836 C832 1.350 1_556 S
C836 C833 1.463 . S
C836 N840 1.427 . S
C837 H827 0.929 . S
C837 C835 1.433 . S
C837 N840 1.384 1_554 S
C838 H829 0.929 . S
C838 C830 1.378 . S
C838 C833 1.350 . S
C839 H826 0.929 . S
C839 C831 1.433 . S
C839 N841 1.384 . S
N840 C836 1.427 . S
N840 C837 1.384 1_556 S
N841 C833 1.427 . S
N841 C839 1.384 . S
H842 C848 0.930 . S
H843 C852 0.930 . S
H844 C857 0.929 . S
H845 C855 0.929 . S
H846 C850 0.929 . S
H847 C856 0.929 . S
C848 H842 0.930 . S
C848 C849 1.367 . S
C848 C856 1.378 . S
C849 C848 1.367 . S
C849 C857 1.433 . S
C850 H846 0.929 . S
C850 C852 1.378 . S
C850 C854 1.350 . S
C851 C854 1.463 . S
C851 C856 1.350 . S
C851 N859 1.427 . S
C852 H843 0.930 . S
C852 C850 1.378 . S
C852 C853 1.367 . S
C853 C852 1.367 . S
C853 C855 1.433 . S
C854 C850 1.350 . S
C854 C851 1.463 . S
C854 N858 1.427 . S
C855 H845 0.929 . S
C855 C853 1.433 . S
C855 N858 1.384 . S
C856 H847 0.929 . S
C856 C848 1.378 . S
C856 C851 1.350 . S
C857 H844 0.929 . S
C857 C849 1.433 . S
C857 N859 1.384 . S
N858 C854 1.427 . S
N858 C855 1.384 . S
N859 C851 1.427 . S
N859 C857 1.384 . S
H860 C866 0.930 . S
H861 C870 0.926 1_554 S
H862 C875 0.929 . S
H863 C873 0.929 . S
H864 C868 0.929 . S
H865 C874 0.929 . S
C866 H860 0.930 . S
C866 C867 1.367 . S
C866 C874 1.378 . S
C867 C866 1.367 . S
C867 C875 1.433 . S
C868 H864 0.929 . S
C868 C870 1.380 . S
C868 C872 1.350 . S
C869 C872 1.463 . S
C869 C874 1.350 . S
C869 N877 1.427 . S
C870 H861 0.926 1_556 S
C870 C868 1.380 . S
C870 C871 1.369 . S
C871 C870 1.369 . S
C871 C873 1.433 . S
C872 C868 1.350 . S
C872 C869 1.463 . S
C872 N876 1.427 . S
C873 H863 0.929 . S
C873 C871 1.433 . S
C873 N876 1.384 . S
C874 H865 0.929 . S
C874 C866 1.378 . S
C874 C869 1.350 . S
C875 H862 0.929 . S
C875 C867 1.433 . S
C875 N877 1.384 . S
N876 C872 1.427 . S
N876 C873 1.384 . S
N877 C869 1.427 . S
N877 C875 1.384 . S
H878 C884 0.930 . S
H879 C888 0.930 . S
H880 C893 0.929 . S
H881 C891 0.929 . S
H882 C886 0.929 . S
H883 C892 0.929 . S
C884 H878 0.930 . S
C884 C885 1.367 . S
C884 C892 1.378 . S
C885 C884 1.367 . S
C885 C893 1.433 . S
C886 H882 0.929 . S
C886 C888 1.378 . S
C886 C890 1.350 . S
C887 C890 1.463 . S
C887 C892 1.350 . S
C887 N895 1.427 . S
C888 H879 0.930 . S
C888 C886 1.378 . S
C888 C889 1.367 . S
C889 C888 1.367 . S
C889 C891 1.433 . S
C890 C886 1.350 . S
C890 C887 1.463 . S
C890 N894 1.427 . S
C891 H881 0.929 . S
C891 C889 1.433 . S
C891 N894 1.384 . S
C892 H883 0.929 . S
C892 C884 1.378 . S
C892 C887 1.350 . S
C893 H880 0.929 . S
C893 C885 1.433 . S
C893 N895 1.384 . S
N894 C890 1.427 . S
N894 C891 1.384 . S
N895 C887 1.427 . S
N895 C893 1.384 . S
H896 C902 0.930 . S
H897 C906 0.930 . S
H898 C911 0.929 . S
H899 C909 0.929 . S
H900 C904 0.929 . S
H901 C910 0.929 . S
C902 H896 0.930 . S
C902 C903 1.367 . S
C902 C910 1.378 . S
C903 C902 1.367 . S
C903 C911 1.433 . S
C904 H900 0.929 . S
C904 C906 1.378 . S
C904 C908 1.350 . S
C905 C908 1.463 . S
C905 C910 1.350 . S
C905 N913 1.427 . S
C906 H897 0.930 . S
C906 C904 1.378 . S
C906 C907 1.367 . S
C907 C906 1.367 . S
C907 C909 1.433 . S
C908 C904 1.350 . S
C908 C905 1.463 . S
C908 N912 1.427 . S
C909 H899 0.929 . S
C909 C907 1.433 . S
C909 N912 1.384 . S
C910 H901 0.929 . S
C910 C902 1.378 . S
C910 C905 1.350 . S
C911 H898 0.929 . S
C911 C903 1.433 . S
C911 N913 1.384 . S
N912 C908 1.427 . S
N912 C909 1.384 . S
N913 C905 1.427 . S
N913 C911 1.384 . S
H914 C920 0.930 . S
H915 C924 0.930 . S
H916 C929 0.929 . S
H917 C927 0.929 . S
H918 C922 0.929 . S
H919 C928 0.929 . S
C920 H914 0.930 . S
C920 C921 1.367 . S
C920 C928 1.378 . S
C921 C920 1.367 . S
C921 C929 1.433 . S
C922 H918 0.929 . S
C922 C924 1.378 . S
C922 C926 1.350 . S
C923 C926 1.463 . S
C923 C928 1.350 . S
C923 N931 1.427 . S
C924 H915 0.930 . S
C924 C922 1.378 . S
C924 C925 1.367 . S
C925 C924 1.367 . S
C925 C927 1.433 . S
C926 C922 1.350 . S
C926 C923 1.463 . S
C926 N930 1.427 . S
C927 H917 0.929 . S
C927 C925 1.433 . S
C927 N930 1.384 . S
C928 H919 0.929 . S
C928 C920 1.378 . S
C928 C923 1.350 . S
C929 H916 0.929 . S
C929 C921 1.433 . S
C929 N931 1.384 . S
N930 C926 1.427 . S
N930 C927 1.384 . S
N931 C923 1.427 . S
N931 C929 1.384 . S
H932 C938 0.930 . S
H933 C942 0.930 . S
H934 C947 0.929 . S
H935 C945 0.929 . S
H936 C940 0.929 . S
H937 C946 0.929 . S
C938 H932 0.930 . S
C938 C939 1.367 . S
C938 C946 1.378 . S
C939 C938 1.367 . S
C939 C947 1.433 . S
C940 H936 0.929 . S
C940 C942 1.378 . S
C940 C944 1.350 . S
C941 C944 1.463 . S
C941 C946 1.350 . S
C941 N949 1.427 . S
C942 H933 0.930 . S
C942 C940 1.378 . S
C942 C943 1.367 . S
C943 C942 1.367 . S
C943 C945 1.433 . S
C944 C940 1.350 . S
C944 C941 1.463 . S
C944 N948 1.427 . S
C945 H935 0.929 . S
C945 C943 1.433 . S
C945 N948 1.384 . S
C946 H937 0.929 . S
C946 C938 1.378 . S
C946 C941 1.350 . S
C947 H934 0.929 . S
C947 C939 1.433 . S
C947 N949 1.384 . S
N948 C944 1.427 . S
N948 C945 1.384 . S
N949 C941 1.427 . S
N949 C947 1.384 . S
H950 C956 0.930 . S
H951 C960 0.930 . S
H952 C965 0.929 . S
H953 C963 0.929 . S
H954 C958 0.929 . S
H955 C964 0.929 . S
C956 H950 0.930 . S
C956 C957 1.367 . S
C956 C964 1.378 . S
C957 C956 1.367 . S
C957 C965 1.433 . S
C958 H954 0.929 . S
C958 C960 1.378 . S
C958 C962 1.350 . S
C959 C962 1.463 . S
C959 C964 1.350 . S
C959 N967 1.427 . S
C960 H951 0.930 . S
C960 C958 1.378 . S
C960 C961 1.367 . S
C961 C960 1.367 . S
C961 C963 1.433 . S
C962 C958 1.350 . S
C962 C959 1.463 . S
C962 N966 1.427 . S
C963 H953 0.929 . S
C963 C961 1.433 . S
C963 N966 1.384 . S
C964 H955 0.929 . S
C964 C956 1.378 . S
C964 C959 1.350 . S
C965 H952 0.929 . S
C965 C957 1.433 . S
C965 N967 1.384 . S
N966 C962 1.427 . S
N966 C963 1.384 . S
N967 C959 1.427 . S
N967 C965 1.384 . S
H968 C974 0.930 . S
H969 C978 0.930 . S
H970 C983 0.929 . S
H971 C981 0.929 . S
H972 C976 0.929 . S
H973 C982 0.929 . S
C974 H968 0.930 . S
C974 C975 1.367 . S
C974 C982 1.378 . S
C975 C974 1.367 . S
C975 C983 1.433 . S
C976 H972 0.929 . S
C976 C978 1.378 . S
C976 C980 1.350 . S
C977 C980 1.463 . S
C977 C982 1.350 . S
C977 N985 1.427 . S
C978 H969 0.930 . S
C978 C976 1.378 . S
C978 C979 1.367 . S
C979 C978 1.367 . S
C979 C981 1.433 . S
C980 C976 1.350 . S
C980 C977 1.463 . S
C980 N984 1.427 . S
C981 H971 0.929 . S
C981 C979 1.433 . S
C981 N984 1.384 . S
C982 H973 0.929 . S
C982 C974 1.378 . S
C982 C977 1.350 . S
C983 H970 0.929 . S
C983 C975 1.433 . S
C983 N985 1.384 . S
N984 C980 1.427 . S
N984 C981 1.384 . S
N985 C977 1.427 . S
N985 C983 1.384 . S
H986 C992 0.930 . S
H987 C996 0.930 . S
H988 C1001 0.929 . S
H989 C999 0.929 . S
H990 C994 0.929 . S
H991 C1000 0.929 . S
C992 H986 0.930 . S
C992 C993 1.367 . S
C992 C1000 1.378 . S
C993 C992 1.367 . S
C993 C1001 1.433 . S
C994 H990 0.929 . S
C994 C996 1.378 . S
C994 C998 1.350 . S
C995 C998 1.463 . S
C995 C1000 1.350 . S
C995 N1003 1.427 . S
C996 H987 0.930 . S
C996 C994 1.378 . S
C996 C997 1.367 . S
C997 C996 1.367 . S
C997 C999 1.433 . S
C998 C994 1.350 . S
C998 C995 1.463 . S
C998 N1002 1.427 . S
C999 H989 0.929 . S
C999 C997 1.433 . S
C999 N1002 1.384 . S
C1000 H991 0.929 . S
C1000 C992 1.378 . S
C1000 C995 1.350 . S
C1001 H988 0.929 . S
C1001 C993 1.433 . S
C1001 N1003 1.384 . S
N1002 C998 1.427 . S
N1002 C999 1.384 . S
N1003 C995 1.427 . S
N1003 C1001 1.384 . S
H1004 C1010 0.930 . S
H1005 C1014 0.930 1_554 S
H1006 C1019 0.929 . S
H1007 C1017 0.929 . S
H1008 C1012 0.929 . S
H1009 C1018 0.929 . S
C1010 H1004 0.930 . S
C1010 C1011 1.367 . S
C1010 C1018 1.378 . S
C1011 C1010 1.367 . S
C1011 C1019 1.433 . S
C1012 H1008 0.929 . S
C1012 C1014 1.378 . S
C1012 C1016 1.350 . S
C1013 C1016 1.463 . S
C1013 C1018 1.350 . S
C1013 N1021 1.427 . S
C1014 H1005 0.930 1_556 S
C1014 C1012 1.378 . S
C1014 C1015 1.367 . S
C1015 C1014 1.367 . S
C1015 C1017 1.433 . S
C1016 C1012 1.350 . S
C1016 C1013 1.463 . S
C1016 N1020 1.427 . S
C1017 H1007 0.929 . S
C1017 C1015 1.433 . S
C1017 N1020 1.384 . S
C1018 H1009 0.929 . S
C1018 C1010 1.378 . S
C1018 C1013 1.350 . S
C1019 H1006 0.929 . S
C1019 C1011 1.433 . S
C1019 N1021 1.384 . S
N1020 C1016 1.427 . S
N1020 C1017 1.384 . S
N1021 C1013 1.427 . S
N1021 C1019 1.384 . S
H1022 C1028 0.930 . S
H1023 C1032 0.930 . S
H1024 C1037 0.929 . S
H1025 C1035 0.929 . S
H1026 C1030 0.929 . S
H1027 C1036 0.929 . S
C1028 H1022 0.930 . S
C1028 C1029 1.367 . S
C1028 C1036 1.378 . S
C1029 C1028 1.367 . S
C1029 C1037 1.433 . S
C1030 H1026 0.929 . S
C1030 C1032 1.378 . S
C1030 C1034 1.350 . S
C1031 C1034 1.463 . S
C1031 C1036 1.350 . S
C1031 N1039 1.427 . S
C1032 H1023 0.930 . S
C1032 C1030 1.378 . S
C1032 C1033 1.367 . S
C1033 C1032 1.367 . S
C1033 C1035 1.433 . S
C1034 C1030 1.350 . S
C1034 C1031 1.463 . S
C1034 N1038 1.427 . S
C1035 H1025 0.929 . S
C1035 C1033 1.433 . S
C1035 N1038 1.384 . S
C1036 H1027 0.929 . S
C1036 C1028 1.378 . S
C1036 C1031 1.350 . S
C1037 H1024 0.929 . S
C1037 C1029 1.433 . S
C1037 N1039 1.384 . S
N1038 C1034 1.427 . S
N1038 C1035 1.384 . S
N1039 C1031 1.427 . S
N1039 C1037 1.384 . S
H1040 C1046 0.930 . S
H1041 C1050 0.930 . S
H1042 C1055 0.929 . S
H1043 C1053 0.929 . S
H1044 C1048 0.929 . S
H1045 C1054 0.929 . S
C1046 H1040 0.930 . S
C1046 C1047 1.367 . S
C1046 C1054 1.378 . S
C1047 C1046 1.367 . S
C1047 C1055 1.433 . S
C1048 H1044 0.929 . S
C1048 C1050 1.378 . S
C1048 C1052 1.350 . S
C1049 C1052 1.463 . S
C1049 C1054 1.350 . S
C1049 N1057 1.427 . S
C1050 H1041 0.930 . S
C1050 C1048 1.378 . S
C1050 C1051 1.367 . S
C1051 C1050 1.367 . S
C1051 C1053 1.433 . S
C1052 C1048 1.350 . S
C1052 C1049 1.463 . S
C1052 N1056 1.427 . S
C1053 H1043 0.929 . S
C1053 C1051 1.433 . S
C1053 N1056 1.384 . S
C1054 H1045 0.929 . S
C1054 C1046 1.378 . S
C1054 C1049 1.350 . S
C1055 H1042 0.929 . S
C1055 C1047 1.433 . S
C1055 N1057 1.384 . S
N1056 C1052 1.427 . S
N1056 C1053 1.384 . S
N1057 C1049 1.427 . S
N1057 C1055 1.384 . S
H1058 C1064 0.930 . S
H1059 C1068 0.930 . S
H1060 C1073 0.929 . S
H1061 C1071 0.929 . S
H1062 C1066 0.929 . S
H1063 C1072 0.929 . S
C1064 H1058 0.930 . S
C1064 C1065 1.367 . S
C1064 C1072 1.378 . S
C1065 C1064 1.367 . S
C1065 C1073 1.433 . S
C1066 H1062 0.929 . S
C1066 C1068 1.378 . S
C1066 C1070 1.350 . S
C1067 C1070 1.463 . S
C1067 C1072 1.350 . S
C1067 N1075 1.427 . S
C1068 H1059 0.930 . S
C1068 C1066 1.378 . S
C1068 C1069 1.367 . S
C1069 C1068 1.367 . S
C1069 C1071 1.433 . S
C1070 C1066 1.350 . S
C1070 C1067 1.463 . S
C1070 N1074 1.427 . S
C1071 H1061 0.929 . S
C1071 C1069 1.433 . S
C1071 N1074 1.384 . S
C1072 H1063 0.929 . S
C1072 C1064 1.378 . S
C1072 C1067 1.350 . S
C1073 H1060 0.929 . S
C1073 C1065 1.433 . S
C1073 N1075 1.384 . S
N1074 C1070 1.427 . S
N1074 C1071 1.384 . S
N1075 C1067 1.427 . S
N1075 C1073 1.384 . S
H1076 C1082 0.930 . S
H1077 C1086 0.930 . S
H1078 C1091 0.929 . S
H1079 C1089 0.929 . S
H1080 C1084 0.929 . S
H1081 C1090 0.929 . S
C1082 H1076 0.930 . S
C1082 C1083 1.367 . S
C1082 C1090 1.378 . S
C1083 C1082 1.367 . S
C1083 C1091 1.433 . S
C1084 H1080 0.929 . S
C1084 C1086 1.378 . S
C1084 C1088 1.350 . S
C1085 C1088 1.463 . S
C1085 C1090 1.350 . S
C1085 N1093 1.427 . S
C1086 H1077 0.930 . S
C1086 C1084 1.378 . S
C1086 C1087 1.367 . S
C1087 C1086 1.367 . S
C1087 C1089 1.433 . S
C1088 C1084 1.350 . S
C1088 C1085 1.463 . S
C1088 N1092 1.427 . S
C1089 H1079 0.929 . S
C1089 C1087 1.433 . S
C1089 N1092 1.384 . S
C1090 H1081 0.929 . S
C1090 C1082 1.378 . S
C1090 C1085 1.350 . S
C1091 H1078 0.929 . S
C1091 C1083 1.433 . S
C1091 N1093 1.384 . S
N1092 C1088 1.427 . S
N1092 C1089 1.384 . S
N1093 C1085 1.427 . S
N1093 C1091 1.384 . S
H1094 C1100 0.930 . S
H1095 C1104 0.930 . S
H1096 C1109 0.929 . S
H1097 C1107 0.929 . S
H1098 C1102 0.929 . S
H1099 C1108 0.929 . S
C1100 H1094 0.930 . S
C1100 C1101 1.367 . S
C1100 C1108 1.378 . S
C1101 C1100 1.367 . S
C1101 C1109 1.433 . S
C1102 H1098 0.929 . S
C1102 C1104 1.378 . S
C1102 C1106 1.350 . S
C1103 C1106 1.463 . S
C1103 C1108 1.350 . S
C1103 N1111 1.427 . S
C1104 H1095 0.930 . S
C1104 C1102 1.378 . S
C1104 C1105 1.367 . S
C1105 C1104 1.367 . S
C1105 C1107 1.433 . S
C1106 C1102 1.350 . S
C1106 C1103 1.463 . S
C1106 N1110 1.427 . S
C1107 H1097 0.929 . S
C1107 C1105 1.433 . S
C1107 N1110 1.384 . S
C1108 H1099 0.929 . S
C1108 C1100 1.378 . S
C1108 C1103 1.350 . S
C1109 H1096 0.929 . S
C1109 C1101 1.433 . S
C1109 N1111 1.384 . S
N1110 C1106 1.427 . S
N1110 C1107 1.384 . S
N1111 C1103 1.427 . S
N1111 C1109 1.384 . S
H1112 C1118 0.930 . S
H1113 C1122 0.930 . S
H1114 C1127 0.929 . S
H1115 C1125 0.929 . S
H1116 C1120 0.929 . S
H1117 C1126 0.929 . S
C1118 H1112 0.930 . S
C1118 C1119 1.367 . S
C1118 C1126 1.378 . S
C1119 C1118 1.367 . S
C1119 C1127 1.433 . S
C1120 H1116 0.929 . S
C1120 C1122 1.378 . S
C1120 C1124 1.350 . S
C1121 C1124 1.463 . S
C1121 C1126 1.350 . S
C1121 N1129 1.427 . S
C1122 H1113 0.930 . S
C1122 C1120 1.378 . S
C1122 C1123 1.367 . S
C1123 C1122 1.367 . S
C1123 C1125 1.433 . S
C1124 C1120 1.350 . S
C1124 C1121 1.463 . S
C1124 N1128 1.427 . S
C1125 H1115 0.929 . S
C1125 C1123 1.433 . S
C1125 N1128 1.384 . S
C1126 H1117 0.929 . S
C1126 C1118 1.378 . S
C1126 C1121 1.350 . S
C1127 H1114 0.929 . S
C1127 C1119 1.433 . S
C1127 N1129 1.384 . S
N1128 C1124 1.427 . S
N1128 C1125 1.384 . S
N1129 C1121 1.427 . S
N1129 C1127 1.384 . S
H1130 C1136 0.930 . S
H1131 C1140 0.930 . S
H1132 C1145 0.929 . S
H1133 C1143 0.929 . S
H1134 C1138 0.929 . S
H1135 C1144 0.929 . S
C1136 H1130 0.930 . S
C1136 C1137 1.367 . S
C1136 C1144 1.378 . S
C1137 C1136 1.367 . S
C1137 C1145 1.433 . S
C1138 H1134 0.929 . S
C1138 C1140 1.378 . S
C1138 C1142 1.350 . S
C1139 C1142 1.463 . S
C1139 C1144 1.350 . S
C1139 N1147 1.427 . S
C1140 H1131 0.930 . S
C1140 C1138 1.378 . S
C1140 C1141 1.367 . S
C1141 C1140 1.367 . S
C1141 C1143 1.433 . S
C1142 C1138 1.350 . S
C1142 C1139 1.463 . S
C1142 N1146 1.427 . S
C1143 H1133 0.929 . S
C1143 C1141 1.433 . S
C1143 N1146 1.384 . S
C1144 H1135 0.929 . S
C1144 C1136 1.378 . S
C1144 C1139 1.350 . S
C1145 H1132 0.929 . S
C1145 C1137 1.433 . S
C1145 N1147 1.384 . S
N1146 C1142 1.427 . S
N1146 C1143 1.384 . S
N1147 C1139 1.427 . S
N1147 C1145 1.384 . S
H1148 C1154 0.930 . S
H1149 C1158 0.930 . S
H1150 C1163 0.929 . S
H1151 C1161 0.929 . S
H1152 C1156 0.929 . S
H1153 C1162 0.929 . S
C1154 H1148 0.930 . S
C1154 C1155 1.367 . S
C1154 C1162 1.378 . S
C1155 C1154 1.367 . S
C1155 C1163 1.433 . S
C1156 H1152 0.929 . S
C1156 C1158 1.378 . S
C1156 C1160 1.350 . S
C1157 C1160 1.463 . S
C1157 C1162 1.350 . S
C1157 N1165 1.427 . S
C1158 H1149 0.930 . S
C1158 C1156 1.378 . S
C1158 C1159 1.367 . S
C1159 C1158 1.367 . S
C1159 C1161 1.433 . S
C1160 C1156 1.350 . S
C1160 C1157 1.463 . S
C1160 N1164 1.427 . S
C1161 H1151 0.929 . S
C1161 C1159 1.433 . S
C1161 N1164 1.384 . S
C1162 H1153 0.929 . S
C1162 C1154 1.378 . S
C1162 C1157 1.350 . S
C1163 H1150 0.929 . S
C1163 C1155 1.433 . S
C1163 N1165 1.384 . S
N1164 C1160 1.427 . S
N1164 C1161 1.384 . S
N1165 C1157 1.427 . S
N1165 C1163 1.384 . S
H1166 C1172 0.930 . S
H1167 C1176 0.930 . S
H1168 C1181 0.929 . S
H1169 C1179 0.929 . S
H1170 C1174 0.929 . S
H1171 C1180 0.929 . S
C1172 H1166 0.930 . S
C1172 C1173 1.367 . S
C1172 C1180 1.378 . S
C1173 C1172 1.367 . S
C1173 C1181 1.433 . S
C1174 H1170 0.929 . S
C1174 C1176 1.378 . S
C1174 C1178 1.350 . S
C1175 C1178 1.463 . S
C1175 C1180 1.350 . S
C1175 N1183 1.427 . S
C1176 H1167 0.930 . S
C1176 C1174 1.378 . S
C1176 C1177 1.367 . S
C1177 C1176 1.367 . S
C1177 C1179 1.433 . S
C1178 C1174 1.350 . S
C1178 C1175 1.463 . S
C1178 N1182 1.427 . S
C1179 H1169 0.929 . S
C1179 C1177 1.433 . S
C1179 N1182 1.384 . S
C1180 H1171 0.929 . S
C1180 C1172 1.378 . S
C1180 C1175 1.350 . S
C1181 H1168 0.929 . S
C1181 C1173 1.433 . S
C1181 N1183 1.384 . S
N1182 C1178 1.427 . S
N1182 C1179 1.384 . S
N1183 C1175 1.427 . S
N1183 C1181 1.384 . S
H1184 C1190 0.930 . S
H1185 C1194 0.930 . S
H1186 C1199 0.929 . S
H1187 C1197 0.929 . S
H1188 C1192 0.929 . S
H1189 C1198 0.929 . S
C1190 H1184 0.930 . S
C1190 C1191 1.367 . S
C1190 C1198 1.378 . S
C1191 C1190 1.367 . S
C1191 C1199 1.433 . S
C1192 H1188 0.929 . S
C1192 C1194 1.378 . S
C1192 C1196 1.350 . S
C1193 C1196 1.463 . S
C1193 C1198 1.350 . S
C1193 N1201 1.427 . S
C1194 H1185 0.930 . S
C1194 C1192 1.378 . S
C1194 C1195 1.367 . S
C1195 C1194 1.367 . S
C1195 C1197 1.433 . S
C1196 C1192 1.350 . S
C1196 C1193 1.463 . S
C1196 N1200 1.427 . S
C1197 H1187 0.929 . S
C1197 C1195 1.433 . S
C1197 N1200 1.384 . S
C1198 H1189 0.929 . S
C1198 C1190 1.378 . S
C1198 C1193 1.350 . S
C1199 H1186 0.929 . S
C1199 C1191 1.433 . S
C1199 N1201 1.384 . S
N1200 C1196 1.427 . S
N1200 C1197 1.384 . S
N1201 C1193 1.427 . S
N1201 C1199 1.384 . S
H1202 C1208 0.930 . S
H1203 C1212 0.930 . S
H1204 C1217 0.929 . S
H1205 C1215 0.929 . S
H1206 C1210 0.929 . S
H1207 C1216 0.929 . S
C1208 H1202 0.930 . S
C1208 C1209 1.367 . S
C1208 C1216 1.378 . S
C1209 C1208 1.367 . S
C1209 C1217 1.433 . S
C1210 H1206 0.929 . S
C1210 C1212 1.378 . S
C1210 C1214 1.350 . S
C1211 C1214 1.463 . S
C1211 C1216 1.350 . S
C1211 N1219 1.427 . S
C1212 H1203 0.930 . S
C1212 C1210 1.378 . S
C1212 C1213 1.367 . S
C1213 C1212 1.367 . S
C1213 C1215 1.433 . S
C1214 C1210 1.350 . S
C1214 C1211 1.463 . S
C1214 N1218 1.427 . S
C1215 H1205 0.929 . S
C1215 C1213 1.433 . S
C1215 N1218 1.384 . S
C1216 H1207 0.929 . S
C1216 C1208 1.378 . S
C1216 C1211 1.350 . S
C1217 H1204 0.929 . S
C1217 C1209 1.433 . S
C1217 N1219 1.384 . S
N1218 C1214 1.427 . S
N1218 C1215 1.384 . S
N1219 C1211 1.427 . S
N1219 C1217 1.384 . S
H1220 C1226 0.930 . S
H1221 C1230 0.930 . S
H1222 C1235 0.929 . S
H1223 C1233 0.929 . S
H1224 C1228 0.929 . S
H1225 C1234 0.929 . S
C1226 H1220 0.930 . S
C1226 C1227 1.367 . S
C1226 C1234 1.378 . S
C1227 C1226 1.367 . S
C1227 C1235 1.433 . S
C1228 H1224 0.929 . S
C1228 C1230 1.378 . S
C1228 C1232 1.350 . S
C1229 C1232 1.463 . S
C1229 C1234 1.350 . S
C1229 N1237 1.427 . S
C1230 H1221 0.930 . S
C1230 C1228 1.378 . S
C1230 C1231 1.367 . S
C1231 C1230 1.367 . S
C1231 C1233 1.433 . S
C1232 C1228 1.350 . S
C1232 C1229 1.463 . S
C1232 N1236 1.427 . S
C1233 H1223 0.929 . S
C1233 C1231 1.433 . S
C1233 N1236 1.384 . S
C1234 H1225 0.929 . S
C1234 C1226 1.378 . S
C1234 C1229 1.350 . S
C1235 H1222 0.929 . S
C1235 C1227 1.433 . S
C1235 N1237 1.384 . S
N1236 C1232 1.427 . S
N1236 C1233 1.384 . S
N1237 C1229 1.427 . S
N1237 C1235 1.384 . S
H1238 C1244 0.930 . S
H1239 C1248 0.930 . S
H1240 C1253 0.929 . S
H1241 C1251 0.929 . S
H1242 C1246 0.929 . S
H1243 C1252 0.929 . S
C1244 H1238 0.930 . S
C1244 C1245 1.367 . S
C1244 C1252 1.378 . S
C1245 C1244 1.367 . S
C1245 C1253 1.433 . S
C1246 H1242 0.929 . S
C1246 C1248 1.378 . S
C1246 C1250 1.350 . S
C1247 C1250 1.463 . S
C1247 C1252 1.350 . S
C1247 N1255 1.427 . S
C1248 H1239 0.930 . S
C1248 C1246 1.378 . S
C1248 C1249 1.367 . S
C1249 C1248 1.367 . S
C1249 C1251 1.433 . S
C1250 C1246 1.350 . S
C1250 C1247 1.463 . S
C1250 N1254 1.427 . S
C1251 H1241 0.929 . S
C1251 C1249 1.433 . S
C1251 N1254 1.384 . S
C1252 H1243 0.929 . S
C1252 C1244 1.378 . S
C1252 C1247 1.350 . S
C1253 H1240 0.929 . S
C1253 C1245 1.433 . S
C1253 N1255 1.384 . S
N1254 C1250 1.427 . S
N1254 C1251 1.384 . S
N1255 C1247 1.427 . S
N1255 C1253 1.384 . S
H1256 C1262 0.930 . S
H1257 C1266 0.930 . S
H1258 C1271 0.929 . S
H1259 C1269 0.929 . S
H1260 C1264 0.929 . S
H1261 C1270 0.929 . S
C1262 H1256 0.930 . S
C1262 C1263 1.367 . S
C1262 C1270 1.378 . S
C1263 C1262 1.367 . S
C1263 C1271 1.433 . S
C1264 H1260 0.929 . S
C1264 C1266 1.378 . S
C1264 C1268 1.350 . S
C1265 C1268 1.463 . S
C1265 C1270 1.350 . S
C1265 N1273 1.427 . S
C1266 H1257 0.930 . S
C1266 C1264 1.378 . S
C1266 C1267 1.367 . S
C1267 C1266 1.367 . S
C1267 C1269 1.433 . S
C1268 C1264 1.350 . S
C1268 C1265 1.463 . S
C1268 N1272 1.427 . S
C1269 H1259 0.929 . S
C1269 C1267 1.433 . S
C1269 N1272 1.384 . S
C1270 H1261 0.929 . S
C1270 C1262 1.378 . S
C1270 C1265 1.350 . S
C1271 H1258 0.929 . S
C1271 C1263 1.433 . S
C1271 N1273 1.384 . S
N1272 C1268 1.427 . S
N1272 C1269 1.384 . S
N1273 C1265 1.427 . S
N1273 C1271 1.384 . S
H1274 C1280 0.930 . S
H1275 C1284 0.930 . S
H1276 C1289 0.929 . S
H1277 C1287 0.929 . S
H1278 C1282 0.929 . S
H1279 C1288 0.929 . S
C1280 H1274 0.930 . S
C1280 C1281 1.367 . S
C1280 C1288 1.378 . S
C1281 C1280 1.367 . S
C1281 C1289 1.433 . S
C1282 H1278 0.929 . S
C1282 C1284 1.378 . S
C1282 C1286 1.350 . S
C1283 C1286 1.463 . S
C1283 C1288 1.350 . S
C1283 N1291 1.427 . S
C1284 H1275 0.930 . S
C1284 C1282 1.378 . S
C1284 C1285 1.367 . S
C1285 C1284 1.367 . S
C1285 C1287 1.433 . S
C1286 C1282 1.350 . S
C1286 C1283 1.463 . S
C1286 N1290 1.427 . S
C1287 H1277 0.929 . S
C1287 C1285 1.433 . S
C1287 N1290 1.384 . S
C1288 H1279 0.929 . S
C1288 C1280 1.378 . S
C1288 C1283 1.350 . S
C1289 H1276 0.929 . S
C1289 C1281 1.433 . S
C1289 N1291 1.384 . S
N1290 C1286 1.427 . S
N1290 C1287 1.384 . S
N1291 C1283 1.427 . S
N1291 C1289 1.384 . S
H1292 C1298 0.930 . S
H1293 C1302 0.930 . S
H1294 C1307 0.929 . S
H1295 C1305 0.929 . S
H1296 C1300 0.929 . S
H1297 C1306 0.929 . S
C1298 H1292 0.930 . S
C1298 C1299 1.367 . S
C1298 C1306 1.378 . S
C1299 C1298 1.367 . S
C1299 C1307 1.433 . S
C1300 H1296 0.929 . S
C1300 C1302 1.378 . S
C1300 C1304 1.350 . S
C1301 C1304 1.463 . S
C1301 C1306 1.350 . S
C1301 N1309 1.427 . S
C1302 H1293 0.930 . S
C1302 C1300 1.378 . S
C1302 C1303 1.367 . S
C1303 C1302 1.367 . S
C1303 C1305 1.433 . S
C1304 C1300 1.350 . S
C1304 C1301 1.463 . S
C1304 N1308 1.427 . S
C1305 H1295 0.929 . S
C1305 C1303 1.433 . S
C1305 N1308 1.384 . S
C1306 H1297 0.929 . S
C1306 C1298 1.378 . S
C1306 C1301 1.350 . S
C1307 H1294 0.929 . S
C1307 C1299 1.433 . S
C1307 N1309 1.384 . S
N1308 C1304 1.427 . S
N1308 C1305 1.384 . S
N1309 C1301 1.427 . S
N1309 C1307 1.384 . S
H1310 C1316 0.930 . S
H1311 C1320 0.930 . S
H1312 C1325 0.929 . S
H1313 C1323 0.929 . S
H1314 C1318 0.929 . S
H1315 C1324 0.929 . S
C1316 H1310 0.930 . S
C1316 C1317 1.367 . S
C1316 C1324 1.378 . S
C1317 C1316 1.367 . S
C1317 C1325 1.433 . S
C1318 H1314 0.929 . S
C1318 C1320 1.378 . S
C1318 C1322 1.350 . S
C1319 C1322 1.463 . S
C1319 C1324 1.350 . S
C1319 N1327 1.427 . S
C1320 H1311 0.930 . S
C1320 C1318 1.378 . S
C1320 C1321 1.367 . S
C1321 C1320 1.367 . S
C1321 C1323 1.433 . S
C1322 C1318 1.350 . S
C1322 C1319 1.463 . S
C1322 N1326 1.427 . S
C1323 H1313 0.929 . S
C1323 C1321 1.433 . S
C1323 N1326 1.384 . S
C1324 H1315 0.929 . S
C1324 C1316 1.378 . S
C1324 C1319 1.350 . S
C1325 H1312 0.929 . S
C1325 C1317 1.433 . S
C1325 N1327 1.384 . S
N1326 C1322 1.427 . S
N1326 C1323 1.384 . S
N1327 C1319 1.427 . S
N1327 C1325 1.384 . S
H1328 C1334 0.930 . S
H1329 C1338 0.930 . S
H1330 C1343 0.929 . S
H1331 C1341 0.929 . S
H1332 C1336 0.929 . S
H1333 C1342 0.929 . S
C1334 H1328 0.930 . S
C1334 C1335 1.367 . S
C1334 C1342 1.378 . S
C1335 C1334 1.367 . S
C1335 C1343 1.433 . S
C1336 H1332 0.929 . S
C1336 C1338 1.378 . S
C1336 C1340 1.350 . S
C1337 C1340 1.463 . S
C1337 C1342 1.350 . S
C1337 N1345 1.427 . S
C1338 H1329 0.930 . S
C1338 C1336 1.378 . S
C1338 C1339 1.367 . S
C1339 C1338 1.367 . S
C1339 C1341 1.433 . S
C1340 C1336 1.350 . S
C1340 C1337 1.463 . S
C1340 N1344 1.427 . S
C1341 H1331 0.929 . S
C1341 C1339 1.433 . S
C1341 N1344 1.384 . S
C1342 H1333 0.929 . S
C1342 C1334 1.378 . S
C1342 C1337 1.350 . S
C1343 H1330 0.929 . S
C1343 C1335 1.433 . S
C1343 N1345 1.384 . S
N1344 C1340 1.427 . S
N1344 C1341 1.384 . S
N1345 C1337 1.427 . S
N1345 C1343 1.384 . S
H1346 C1352 0.930 . S
H1347 C1356 0.930 . S
H1348 C1361 0.929 . S
H1349 C1359 0.929 . S
H1350 C1354 0.929 . S
H1351 C1360 0.929 . S
C1352 H1346 0.930 . S
C1352 C1353 1.367 . S
C1352 C1360 1.378 . S
C1353 C1352 1.367 . S
C1353 C1361 1.433 . S
C1354 H1350 0.929 . S
C1354 C1356 1.378 . S
C1354 C1358 1.350 . S
C1355 C1358 1.463 . S
C1355 C1360 1.350 . S
C1355 N1363 1.427 . S
C1356 H1347 0.930 . S
C1356 C1354 1.378 . S
C1356 C1357 1.367 . S
C1357 C1356 1.367 . S
C1357 C1359 1.433 . S
C1358 C1354 1.350 . S
C1358 C1355 1.463 . S
C1358 N1362 1.427 . S
C1359 H1349 0.929 . S
C1359 C1357 1.433 . S
C1359 N1362 1.384 . S
C1360 H1351 0.929 . S
C1360 C1352 1.378 . S
C1360 C1355 1.350 . S
C1361 H1348 0.929 . S
C1361 C1353 1.433 . S
C1361 N1363 1.384 . S
N1362 C1358 1.427 . S
N1362 C1359 1.384 . S
N1363 C1355 1.427 . S
N1363 C1361 1.384 . S
H1364 C1370 0.930 . S
H1365 C1374 0.930 . S
H1366 C1379 0.929 . S
H1367 C1377 0.929 . S
H1368 C1372 0.929 . S
H1369 C1378 0.929 . S
C1370 H1364 0.930 . S
C1370 C1371 1.367 . S
C1370 C1378 1.378 . S
C1371 C1370 1.367 . S
C1371 C1379 1.433 . S
C1372 H1368 0.929 . S
C1372 C1374 1.378 . S
C1372 C1376 1.350 . S
C1373 C1376 1.463 . S
C1373 C1378 1.350 . S
C1373 N1381 1.427 . S
C1374 H1365 0.930 . S
C1374 C1372 1.378 . S
C1374 C1375 1.367 . S
C1375 C1374 1.367 . S
C1375 C1377 1.433 . S
C1376 C1372 1.350 . S
C1376 C1373 1.463 . S
C1376 N1380 1.427 . S
C1377 H1367 0.929 . S
C1377 C1375 1.433 . S
C1377 N1380 1.384 . S
C1378 H1369 0.929 . S
C1378 C1370 1.378 . S
C1378 C1373 1.350 . S
C1379 H1366 0.929 . S
C1379 C1371 1.433 . S
C1379 N1381 1.384 . S
N1380 C1376 1.427 . S
N1380 C1377 1.384 . S
N1381 C1373 1.427 . S
N1381 C1379 1.384 . S
C529 C347 2.346 . S
C525 C24 2.468 . S
C547 C348 3.361 . S
C543 C53 3.454 . S
C565 C342 1.346 . S
C561 C82 1.363 . S
C579 C137 0.514 . S
C583 C341 0.545 . S
C597 C184 3.253 . S
C601 C344 3.142 . S
C619 C346 1.173 . S
C615 C202 1.190 . S
C633 C266 0.480 . S
C637 C345 0.441 . S
C651 C293 2.459 . S
C655 C343 2.339 . S
C673 C378 2.834 . S
C669 C2 2.823 . S
C687 C57 0.679 . S
C691 C409 0.598 . S
C709 C377 0.754 . S
C705 C106 0.755 . S
C727 C412 0.887 . S
C723 C143 0.858 . S
C741 C162 1.195 . S
C745 C375 1.161 . S
C763 C407 0.887 1_556 S
C759 C226 0.881 . S
C777 C264 2.295 . S
C781 C380 2.283 . S
C795 C297 0.557 . S
C799 C414 0.315 . S
C813 C26 0.936 . S
C817 C410 0.977 . S
C831 C186 0.343 . S
C835 C413 0.383 . S
C853 C381 2.323 . S
C849 C224 2.401 . S
C871 C408 1.545 1_556 S
C867 C242 1.612 . S
C885 C303 3.467 . S
C889 C374 3.486 . S
C903 C104 2.205 . S
C907 C411 2.217 . S
C925 C376 2.527 . S
C921 C133 2.617 . S
C939 C63 1.711 . S
C943 C379 1.708 . S
C957 C304 2.572 . S
C961 C446 2.474 . S
C975 C173 2.932 . S
C979 C447 2.828 . S
C997 C441 1.330 . S
C993 C223 1.356 . S
C1015 C440 0.389 . S
C1011 C257 0.388 . S
C1029 C64 3.176 . S
C1033 C443 3.093 . S
C1051 C445 1.216 . S
C1047 C103 1.228 . S
C1065 C146 0.249 . S
C1069 C444 0.247 . S
C1083 C13 2.544 . S
C1087 C442 2.433 . S
C1101 C282 3.622 . S
C1105 C480 3.553 . S
C1123 C512 0.556 . S
C1119 C177 0.479 . S
C1137 C213 2.351 . S
C1141 C473 2.352 . S
C1155 C263 1.932 . S
C1159 C507 1.935 . S
C1177 C478 1.460 . S
C1173 C42 1.505 . S
C1191 C93 2.355 . S
C1195 C509 2.326 . S
C1213 C475 2.869 . S
C1209 C144 2.897 . S
C1231 C510 0.989 . S
C1227 C17 0.925 . S
C1249 C506 0.217 . S
C1245 C306 0.576 . S
C1263 C66 0.812 . S
C1267 C508 0.435 . S
C1281 C97 0.697 . S
C1285 C477 0.693 . S
C1303 C511 1.199 . S
C1299 C122 1.191 . S
C1317 C23 3.013 . S
C1321 C476 2.904 . S
C1335 C217 1.040 . S
C1339 C513 1.007 . S
C1357 C479 2.496 . S
C1353 C253 2.532 . S
C1375 C474 0.977 . S
C1371 C183 0.977 . S
