# Generated by pormake.
# Topology ssa, (4,4)-cn, num edge types: 1
# Building blocks:
#     Node 0, Type 0, BuildingBlock: ESEHIV_clean_sbu_0, # of connection points: 4
#     Node 1, Type 0, BuildingBlock: ESEHIV_clean_sbu_0, # of connection points: 4
#     Node 2, Type 0, BuildingBlock: ESEHIV_clean_sbu_0, # of connection points: 4
#     Node 3, Type 0, BuildingBlock: ESEHIV_clean_sbu_0, # of connection points: 4
#     Node 4, Type 0, BuildingBlock: ESEHIV_clean_sbu_0, # of connection points: 4
#     Node 5, Type 0, BuildingBlock: ESEHIV_clean_sbu_0, # of connection points: 4
#     Node 6, Type 1, BuildingBlock: MUDLON_clean_sbu_0, # of connection points: 4
#     Node 7, Type 1, BuildingBlock: MUDLON_clean_sbu_0, # of connection points: 4
#     Node 8, Type 1, BuildingBlock: MUDLON_clean_sbu_0, # of connection points: 4
#     Node 9, Type 1, BuildingBlock: MUDLON_clean_sbu_0, # of connection points: 4
#     Node 10, Type 1, BuildingBlock: MUDLON_clean_sbu_0, # of connection points: 4
#     Node 11, Type 1, BuildingBlock: MUDLON_clean_sbu_0, # of connection points: 4
#     Edge 12, Type (0, 1), BuildingBlock: UVAHIK_clean_linker_0, # of connection points: 2
#     Edge 13, Type (0, 1), BuildingBlock: UVAHIK_clean_linker_0, # of connection points: 2
#     Edge 14, Type (0, 1), BuildingBlock: UVAHIK_clean_linker_0, # of connection points: 2
#     Edge 15, Type (0, 1), BuildingBlock: UVAHIK_clean_linker_0, # of connection points: 2
#     Edge 16, Type (0, 1), BuildingBlock: UVAHIK_clean_linker_0, # of connection points: 2
#     Edge 17, Type (0, 1), BuildingBlock: UVAHIK_clean_linker_0, # of connection points: 2
#     Edge 18, Type (0, 1), BuildingBlock: UVAHIK_clean_linker_0, # of connection points: 2
#     Edge 19, Type (0, 1), BuildingBlock: UVAHIK_clean_linker_0, # of connection points: 2
#     Edge 20, Type (0, 1), BuildingBlock: UVAHIK_clean_linker_0, # of connection points: 2
#     Edge 21, Type (0, 1), BuildingBlock: UVAHIK_clean_linker_0, # of connection points: 2
#     Edge 22, Type (0, 1), BuildingBlock: UVAHIK_clean_linker_0, # of connection points: 2
#     Edge 23, Type (0, 1), BuildingBlock: UVAHIK_clean_linker_0, # of connection points: 2
#     Edge 24, Type (0, 1), BuildingBlock: UVAHIK_clean_linker_0, # of connection points: 2
#     Edge 25, Type (0, 1), BuildingBlock: UVAHIK_clean_linker_0, # of connection points: 2
#     Edge 26, Type (0, 1), BuildingBlock: UVAHIK_clean_linker_0, # of connection points: 2
#     Edge 27, Type (0, 1), BuildingBlock: UVAHIK_clean_linker_0, # of connection points: 2
#     Edge 28, Type (0, 1), BuildingBlock: UVAHIK_clean_linker_0, # of connection points: 2
#     Edge 29, Type (0, 1), BuildingBlock: UVAHIK_clean_linker_0, # of connection points: 2
#     Edge 30, Type (0, 1), BuildingBlock: UVAHIK_clean_linker_0, # of connection points: 2
#     Edge 31, Type (0, 1), BuildingBlock: UVAHIK_clean_linker_0, # of connection points: 2
#     Edge 32, Type (0, 1), BuildingBlock: UVAHIK_clean_linker_0, # of connection points: 2
#     Edge 33, Type (0, 1), BuildingBlock: UVAHIK_clean_linker_0, # of connection points: 2
#     Edge 34, Type (0, 1), BuildingBlock: UVAHIK_clean_linker_0, # of connection points: 2
#     Edge 35, Type (0, 1), BuildingBlock: UVAHIK_clean_linker_0, # of connection points: 2
# Relax obj value: 0.020
# Max RMSD: 0.108
# Mean RMSD: 0.059
data_MOF--net-ssa--node1-ESEHIV_clean_sbu_0--node2-MUDLON_clean_sbu_0--edge1-UVAHIK_clean_linker_0
_symmetry_space_group_name_H-M    P1
_symmetry_Int_Tables_number       1
_symmetry_cell_setting            triclinic
loop_
_symmetry_equiv_pos_as_xyz
'x, y, z'
_cell_length_a     55.471722
_cell_length_b     59.337247
_cell_length_c     53.626388
_cell_angle_alpha  88.572327
_cell_angle_beta   90.762909
_cell_angle_gamma 122.31307
loop_
_atom_site_label
_atom_site_type_symbol
_atom_site_fract_x
_atom_site_fract_y
_atom_site_fract_z
_atom_type_partial_charge
Cu0 Cu 0.03658 0.52795 0.99843 0.0
N1 N 0.04603 0.51939 0.96822 0.0
N2 N 0.03701 0.49501 0.93424 0.0
C3 C 0.03 0.4951 0.95818 0.0
C4 C 0.05851 0.52022 0.92897 0.0
C5 C 0.06421 0.53522 0.95007 0.0
O6 O 0.99564 0.51275 0.99572 0.0
C7 C 0.07475 0.52221 0.02607 0.0
O8 O 0.0909 0.53868 1.00808 0.0
H9 H 0.01191 0.47837 0.96762 0.0
H10 H 0.07934 0.55641 0.95153 0.0
N11 N 0.05551 0.56469 1.00382 0.0
N12 N 0.07689 0.6024 0.02566 0.0
C13 C 0.06242 0.57542 0.02661 0.0
C14 C 0.06567 0.5855 0.98767 0.0
C15 C 0.07888 0.60874 1.00105 0.0
C16 C 0.98845 0.52068 0.97635 0.0
O17 O 1.0085 0.53915 0.96182 0.0
H18 H 0.05677 0.56335 0.04351 0.0
H19 H 0.06378 0.58399 0.96761 0.0
O20 O 0.04815 0.51337 0.02563 0.0
H21 H 0.06855 0.52748 0.9109 0.0
H22 H 0.08945 0.6287 0.99306 0.0
Cu23 Cu 0.53453 0.03849 0.50478 0.0
N24 N 0.55266 0.03399 0.47804 0.0
N25 N 0.56032 0.01207 0.44908 0.0
C26 C 0.54545 0.01 0.46964 0.0
C27 C 0.57764 0.03851 0.44436 0.0
C28 C 0.5729 0.05202 0.46232 0.0
O29 O 0.4939 0.01396 0.49877 0.0
C30 C 0.57463 0.04183 0.53878 0.0
O31 O 0.59095 0.05142 0.5189 0.0
H32 H 0.52887 0.99136 0.47805 0.0
H33 H 0.58327 0.0734 0.46365 0.0
N34 N 0.54333 0.07345 0.50732 0.0
N35 N 0.55307 0.11022 0.52698 0.0
C36 C 0.5449 0.0844 0.52939 0.0
C37 C 0.55072 0.09299 0.49012 0.0
C38 C 0.55661 0.11572 0.50222 0.0
C39 C 0.48295 0.01972 0.4806 0.0
O40 O 0.49864 0.04284 0.46896 0.0
H41 H 0.54002 0.07344 0.54695 0.0
H42 H 0.55203 0.091 0.47027 0.0
O43 O 0.54796 0.03213 0.53635 0.0
H44 H 0.59267 0.04745 0.42908 0.0
H45 H 0.56353 0.13489 0.4935 0.0
Cu46 Cu 0.52826 0.49494 0.04139 0.0
N47 N 0.54016 0.47103 0.03819 0.0
N48 N 0.55261 0.44642 0.01762 0.0
C49 C 0.54171 0.46198 0.01591 0.0
C50 C 0.5579 0.44537 0.04214 0.0
C51 C 0.55034 0.46074 0.0548 0.0
O52 O 0.53709 0.51272 0.00876 0.0
C53 C 0.48174 0.4624 0.07107 0.0
O54 O 0.50163 0.46024 0.08229 0.0
H55 H 0.53492 0.46681 0.99868 0.0
H56 H 0.55257 0.46444 0.07459 0.0
N57 N 0.54777 0.51964 0.06643 0.0
N58 N 0.55588 0.54978 0.0949 0.0
C59 C 0.53974 0.53562 0.07537 0.0
C60 C 0.56988 0.52382 0.08072 0.0
C61 C 0.5749 0.54241 0.09838 0.0
C62 C 0.56328 0.52995 1.00413 0.0
O63 O 0.58147 0.53874 0.02276 0.0
H64 H 0.52163 0.53604 0.06824 0.0
H65 H 0.58125 0.5138 0.07873 0.0
O66 O 0.4881 0.47613 0.05084 0.0
H67 H 0.56719 0.43484 0.05027 0.0
H68 H 0.59118 0.54984 0.11269 0.0
Cu69 Cu 0.01956 0.50642 0.52933 0.0
N70 N 0.0377 0.48775 0.525 0.0
N71 N 0.05745 0.46923 0.50436 0.0
C72 C 0.04327 0.48192 0.50254 0.0
C73 C 0.06104 0.4671 0.5291 0.0
C74 C 0.04878 0.47853 0.5418 0.0
O75 O 0.03504 0.53457 0.50371 0.0
C76 C 0.96577 0.45701 0.52868 0.0
O77 O 0.9806 0.44629 0.52384 0.0
H78 H 0.03758 0.48759 0.48517 0.0
H79 H 0.04821 0.48022 0.56179 0.0
N80 N 0.02596 0.52158 0.56076 0.0
N81 N 0.01483 0.5343 0.59544 0.0
C82 C 1.00542 0.52193 0.57346 0.0
C83 C 0.04942 0.53426 0.57517 0.0
C84 C 0.04262 0.54227 0.5966 0.0
C85 C 0.06219 0.54911 0.50278 0.0
O86 O 0.07696 0.54508 0.51965 0.0
H87 H 0.98402 0.51372 0.5664 0.0
H88 H 0.06995 0.53749 0.57047 0.0
O89 O 0.97818 0.48232 0.52828 0.0
H90 H 0.07166 0.4579 0.53747 0.0
H91 H 0.05689 0.55283 0.61192 0.0
Cu92 Cu 0.51858 0.99786 1.00176 0.0
N93 N 0.49582 0.99241 0.97373 0.0
N94 N 0.47551 1.00349 0.94359 0.0
C95 C 0.49091 0.01099 0.96484 0.0
C96 C 0.47052 0.97909 0.93887 0.0
C97 C 0.48305 0.97226 0.95756 0.0
O98 O 0.5494 0.03528 0.9985 0.0
C99 C 0.47428 0.96396 0.0322 0.0
O100 O 0.46912 0.94979 0.01214 0.0
H101 H 0.49948 0.03013 0.97343 0.0
H102 H 0.48308 0.95408 0.95905 0.0
N103 N 0.53364 0.97616 1.00316 0.0
N104 N 0.55209 0.95414 0.021 0.0
C105 C 0.54321 0.97105 0.02439 0.0
C106 C 0.53642 0.96193 0.98555 0.0
C107 C 0.54782 0.94832 0.99651 0.0
C108 C 0.56784 0.04026 0.98178 0.0
O109 O 0.56648 0.02014 0.97066 0.0
H110 H 0.54284 0.97912 0.04215 0.0
H111 H 0.53063 0.96147 0.96616 0.0
O112 O 0.49539 0.98806 0.03183 0.0
H113 H 0.45878 0.96708 0.92305 0.0
H114 H 0.55268 0.93528 0.98711 0.0
Cu115 Cu 0.53005 0.5279 0.52863 0.0
N116 N 0.54894 0.56512 0.52711 0.0
N117 N 0.56916 0.60584 0.50949 0.0
C118 C 0.55644 0.57946 0.50564 0.0
C119 C 0.56962 0.60816 0.53452 0.0
C120 C 0.55717 0.58298 0.54536 0.0
O121 O 0.50343 0.51515 0.50069 0.0
C122 C 0.58306 0.53208 0.53549 0.0
O123 O 0.59322 0.5577 0.53678 0.0
H124 H 0.55197 0.57049 0.48748 0.0
H125 H 0.5544 0.57808 0.56509 0.0
N126 N 0.5094 0.513 0.55806 0.0
N127 N 0.48929 0.48276 0.58913 0.0
C128 C 0.50219 0.48871 0.56668 0.0
C129 C 0.50067 0.52293 0.57562 0.0
C130 C 0.48832 0.50429 0.59493 0.0
C131 C 0.48582 0.52273 0.50082 0.0
O132 O 0.48641 0.53664 0.51977 0.0
H133 H 0.50745 0.47609 0.55701 0.0
H134 H 0.50352 0.54244 0.57471 0.0
O135 O 0.55713 0.51638 0.52907 0.0
H136 H 0.57849 0.62669 0.54433 0.0
H137 H 0.47955 0.50649 0.61194 0.0
Mg138 Mg 0.2414 0.45481 0.26493 0.0
C139 C 0.21366 0.46103 0.22154 0.0
O140 O 0.20701 0.43619 0.22211 0.0
C141 C 0.27621 0.46289 0.30898 0.0
O142 O 0.25353 0.43867 0.31122 0.0
C143 C 0.18402 0.43524 0.28976 0.0
O144 O 0.18138 0.44783 0.27048 0.0
O145 O 0.20531 0.43258 0.29077 0.0
O146 O 0.22985 0.47643 0.23866 0.0
O147 O 0.25295 0.43341 0.23991 0.0
C148 C 0.27152 0.42762 0.24494 0.0
O149 O 0.28148 0.43062 0.26777 0.0
O150 O 0.2781 0.477 0.28989 0.0
Mg151 Mg 0.76614 0.25699 0.76399 0.0
C152 C 0.72341 0.20561 0.74188 0.0
O153 O 0.70838 0.21502 0.75018 0.0
C154 C 0.83035 0.28959 0.77644 0.0
O155 O 0.8333 0.29395 0.75222 0.0
C156 C 0.73882 0.25334 0.81405 0.0
O157 O 0.76572 0.26808 0.82069 0.0
O158 O 0.73284 0.24821 0.79106 0.0
O159 O 0.7502 0.21878 0.7459 0.0
O160 O 0.77421 0.28574 0.73376 0.0
C161 C 0.78165 0.2808 0.71324 0.0
O162 O 0.78251 0.25917 0.71198 0.0
O163 O 0.80561 0.27363 0.78546 0.0
Mg164 Mg 0.57207 0.78898 0.26879 0.0
C165 C 0.59919 0.83898 0.23638 0.0
O166 O 0.5945 0.84827 0.2565 0.0
C167 C 0.60254 0.76712 0.29749 0.0
O168 O 0.59578 0.75282 0.27732 0.0
C169 C 0.54461 0.80162 0.30987 0.0
O170 O 0.55013 0.78561 0.32248 0.0
O171 O 0.54916 0.80467 0.2865 0.0
O172 O 0.59444 0.8155 0.23711 0.0
O173 O 0.54638 0.74915 0.25382 0.0
C174 C 0.54071 0.74595 0.23064 0.0
O175 O 0.54647 0.76671 0.21661 0.0
O176 O 0.59783 0.78586 0.298 0.0
Mg177 Mg 0.75792 0.51061 0.77491 0.0
C178 C 0.7361 0.48967 0.72262 0.0
O179 O 0.76311 0.49836 0.719 0.0
C180 C 0.7665 0.49064 0.82416 0.0
O181 O 0.75923 0.50718 0.83142 0.0
C182 C 0.71224 0.51352 0.79884 0.0
O183 O 0.69893 0.4905 0.7876 0.0
O184 O 0.73921 0.52854 0.79637 0.0
O185 O 0.72779 0.49021 0.74449 0.0
O186 O 0.79901 0.53736 0.75655 0.0
C187 C 0.82133 0.53876 0.76503 0.0
O188 O 0.82005 0.52773 0.78691 0.0
O189 O 0.76544 0.48596 0.80097 0.0
Mg190 Mg 0.2593 0.78827 0.27554 0.0
C191 C 0.21382 0.7525 0.241 0.0
O192 O 0.22072 0.73727 0.2532 0.0
C193 C 0.28303 0.81898 0.32021 0.0
O194 O 0.28721 0.79918 0.32179 0.0
C195 C 0.21781 0.74618 0.30875 0.0
O196 O 0.20643 0.75972 0.3012 0.0
O197 O 0.24239 0.75329 0.30054 0.0
O198 O 0.22651 0.77705 0.2466 0.0
O199 O 0.29919 0.80295 0.25539 0.0
C200 C 0.29898 0.79593 0.23311 0.0
O201 O 0.27503 0.77629 0.22391 0.0
O202 O 0.26995 0.82049 0.30114 0.0
Mg203 Mg 0.50493 0.25662 0.77089 0.0
C204 C 0.53638 0.23708 0.74188 0.0
O205 O 0.53058 0.2222 0.76219 0.0
C206 C 0.53717 0.30732 0.80014 0.0
O207 O 0.53155 0.31661 0.77988 0.0
C208 C 0.47577 0.21271 0.8102 0.0
O209 O 0.48477 0.2335 0.82436 0.0
O210 O 0.47934 0.21635 0.78673 0.0
O211 O 0.52986 0.25463 0.74105 0.0
O212 O 0.48124 0.27287 0.75418 0.0
C213 C 0.47502 0.26989 0.73109 0.0
O214 O 0.47986 0.25407 0.71833 0.0
O215 O 0.53018 0.28311 0.80091 0.0
C216 C 0.11701 0.52379 0.04486 0.0
C217 C 0.08817 0.51564 0.04675 0.0
C218 C 0.13058 0.5188 0.06432 0.0
C219 C 0.12736 0.50416 0.13181 0.0
H220 H 0.17669 0.47914 0.11443 0.0
C221 C 0.20157 0.49355 0.20328 0.0
C222 C 0.20102 0.46964 0.20187 0.0
C223 C 0.18804 0.50029 0.18489 0.0
C224 C 0.16296 0.48608 0.11964 0.0
H225 H 0.051 0.49592 0.07078 0.0
H226 H 0.07485 0.48701 0.10499 0.0
H227 H 0.15133 0.48733 0.08171 0.0
H228 H 0.18606 0.43426 0.17992 0.0
H229 H 0.16287 0.44598 0.14821 0.0
H230 H 0.13888 0.50248 0.16991 0.0
C231 C 0.0869 0.49744 0.08835 0.0
C232 C 0.14857 0.49096 0.10085 0.0
C233 C 0.07319 0.50233 0.06869 0.0
C234 C 0.18699 0.45287 0.18163 0.0
C235 C 0.17376 0.45964 0.16331 0.0
C236 C 0.14196 0.4994 0.15069 0.0
C237 C 0.11576 0.50556 0.08631 0.0
C238 C 0.13054 0.5 0.10666 0.0
C239 C 0.17405 0.48337 0.16467 0.0
C240 C 0.15977 0.49011 0.1448 0.0
H241 H 0.1293 0.53419 0.0283 0.0
H242 H 0.15289 0.52564 0.06224 0.0
H243 H 0.11383 0.51136 0.13686 0.0
H244 H 0.21208 0.50683 0.2187 0.0
H245 H 0.18876 0.51881 0.18635 0.0
C246 C 0.61707 0.05621 0.56609 0.0
C247 C 0.58832 0.04827 0.56371 0.0
C248 C 0.63213 0.06765 0.58806 0.0
C249 C 0.62488 0.08106 0.65424 0.0
H250 H 0.69882 0.14551 0.6422 0.0
C251 C 0.67945 0.16654 0.7241 0.0
C252 C 0.70938 0.18187 0.72582 0.0
C253 C 0.66576 0.14622 0.70679 0.0
C254 C 0.67851 0.12731 0.64604 0.0
H255 H 0.55239 0.04477 0.5831 0.0
H256 H 0.57872 0.06498 0.62139 0.0
H257 H 0.67241 0.11675 0.60765 0.0
H258 H 0.74837 0.18702 0.71141 0.0
H259 H 0.7244 0.15127 0.68114 0.0
H260 H 0.63074 0.09216 0.6926 0.0
C261 C 0.5896 0.06209 0.60637 0.0
C262 C 0.66329 0.11075 0.62617 0.0
C263 C 0.57445 0.05046 0.58439 0.0
C264 C 0.72529 0.17559 0.71055 0.0
C265 C 0.71155 0.15525 0.69308 0.0
C266 C 0.64014 0.09765 0.67415 0.0
C267 C 0.61889 0.07162 0.60817 0.0
C268 C 0.63606 0.08764 0.6299 0.0
C269 C 0.68161 0.14067 0.69065 0.0
C270 C 0.66692 0.12126 0.67022 0.0
H271 H 0.62833 0.05462 0.55056 0.0
H272 H 0.65447 0.07419 0.58897 0.0
H273 H 0.60418 0.06324 0.65788 0.0
H274 H 0.66649 0.17075 0.73563 0.0
H275 H 0.64276 0.1357 0.70531 0.0
C276 C 0.55867 0.57051 0.13518 0.0
C277 C 0.55235 0.56785 0.10957 0.0
C278 C 0.55433 0.58742 0.14951 0.0
C279 C 0.51662 0.624 0.14875 0.0
H280 H 0.57102 0.66505 0.20059 0.0
C281 C 0.52794 0.71726 0.19316 0.0
C282 C 0.53378 0.72082 0.21885 0.0
C283 C 0.52628 0.69582 0.18112 0.0
C284 C 0.5554 0.65344 0.18642 0.0
H285 H 0.53718 0.58134 0.07879 0.0
H286 H 0.5303 0.61134 0.10351 0.0
H287 H 0.57701 0.63394 0.17685 0.0
H288 H 0.54087 0.70375 0.25229 0.0
H289 H 0.53805 0.66644 0.23121 0.0
H290 H 0.49564 0.64435 0.1579 0.0
C291 C 0.5378 0.5998 0.11279 0.0
C292 C 0.5588 0.63554 0.17279 0.0
C293 C 0.54187 0.58269 0.09855 0.0
C294 C 0.53639 0.70165 0.23247 0.0
C295 C 0.535 0.68038 0.22038 0.0
C296 C 0.51339 0.64211 0.16224 0.0
C297 C 0.54383 0.60232 0.13851 0.0
C298 C 0.53958 0.62069 0.15364 0.0
C299 C 0.53066 0.67763 0.19448 0.0
C300 C 0.53284 0.65712 0.18114 0.0
H301 H 0.56637 0.55904 0.14426 0.0
H302 H 0.5588 0.58849 0.16931 0.0
H303 H 0.50105 0.61255 0.1345 0.0
H304 H 0.52578 0.73162 0.18212 0.0
H305 H 0.52301 0.69429 0.16112 0.0
C306 C 0.01069 0.56072 0.62838 0.0
C307 C 0.99817 0.53805 0.6134 0.0
C308 C 0.99393 0.56489 0.64469 0.0
C309 C 0.91822 0.5431 0.65628 0.0
H310 H 0.94599 0.57236 0.72175 0.0
C311 C 0.86871 0.54458 0.75677 0.0
C312 C 0.84631 0.5475 0.74858 0.0
C313 C 0.88985 0.54825 0.74022 0.0
C314 C 0.93783 0.56408 0.70356 0.0
H315 H 0.95849 0.5014 0.60473 0.0
H316 H 0.92952 0.50829 0.6333 0.0
H317 H 0.97703 0.56775 0.69341 0.0
H318 H 0.82976 0.55842 0.71682 0.0
H319 H 0.8671 0.56559 0.68808 0.0
H320 H 0.87862 0.53814 0.66675 0.0
C321 C 0.95206 0.52339 0.63196 0.0
C322 C 0.95579 0.56171 0.68716 0.0
C323 C 0.96871 0.51935 0.61559 0.0
C324 C 0.84659 0.55584 0.72375 0.0
C325 C 0.86788 0.5597 0.70719 0.0
C326 C 0.90024 0.5453 0.67269 0.0
C327 C 0.96431 0.54638 0.64651 0.0
C328 C 0.94606 0.55074 0.66345 0.0
C329 C 0.88932 0.55516 0.71501 0.0
C330 C 0.90961 0.55545 0.69672 0.0
H331 H 0.03328 0.57558 0.62696 0.0
H332 H 1.00411 0.58292 0.65544 0.0
H333 H 0.91011 0.53508 0.638 0.0
H334 H 0.86924 0.53818 0.77576 0.0
H335 H 0.90574 0.54431 0.74698 0.0
C336 C 0.4671 0.9618 0.07891 0.0
C337 C 0.45795 0.95036 0.05529 0.0
C338 C 0.45326 0.94686 0.10063 0.0
C339 C 0.41023 0.87685 0.1226 0.0
H340 H 0.38497 0.90214 0.1761 0.0
C341 C 0.32255 0.80534 0.1914 0.0
C342 C 0.32342 0.81293 0.21617 0.0
C343 C 0.343 0.82295 0.17411 0.0
C344 C 0.39236 0.89491 0.16156 0.0
H345 H 0.42616 0.91479 0.03599 0.0
H346 H 0.40234 0.88912 0.07349 0.0
H347 H 0.41265 0.93244 0.14148 0.0
H348 H 0.34743 0.84466 0.24246 0.0
H349 H 0.38341 0.87536 0.21224 0.0
H350 H 0.38981 0.83934 0.14228 0.0
C351 C 0.42044 0.90935 0.07538 0.0
C352 C 0.40815 0.91228 0.14171 0.0
C353 C 0.43404 0.92419 0.05384 0.0
C354 C 0.3461 0.83815 0.22352 0.0
C355 C 0.36658 0.85586 0.20615 0.0
C356 C 0.39464 0.85959 0.14242 0.0
C357 C 0.43024 0.92022 0.09904 0.0
C358 C 0.41655 0.90318 0.12167 0.0
C359 C 0.36494 0.84866 0.18109 0.0
C360 C 0.38481 0.86814 0.16183 0.0
H361 H 0.48549 0.98188 0.08065 0.0
H362 H 0.4612 0.95578 0.11865 0.0
H363 H 0.41695 0.86942 0.1077 0.0
H364 H 0.30539 0.78611 0.18505 0.0
H365 H 0.34081 0.81677 0.15495 0.0
C366 C 0.48188 0.45998 0.63031 0.0
C367 C 0.48066 0.4591 0.60412 0.0
C368 C 0.47642 0.4376 0.64458 0.0
C369 C 0.47845 0.37684 0.63868 0.0
H370 H 0.43937 0.35615 0.70241 0.0
C371 C 0.46095 0.28445 0.69228 0.0
C372 C 0.46739 0.2875 0.71788 0.0
C373 C 0.45806 0.30337 0.67885 0.0
C374 C 0.45048 0.36177 0.6847 0.0
H375 H 0.47078 0.43348 0.57252 0.0
H376 H 0.46109 0.39456 0.59725 0.0
H377 H 0.44289 0.39332 0.67821 0.0
H378 H 0.47431 0.31216 0.74971 0.0
H379 H 0.46963 0.34533 0.72622 0.0
H380 H 0.48658 0.34584 0.64519 0.0
C381 C 0.46702 0.41269 0.60681 0.0
C382 C 0.45251 0.38308 0.67085 0.0
C383 C 0.47255 0.43501 0.59261 0.0
C384 C 0.46933 0.30917 0.73001 0.0
C385 C 0.46655 0.32818 0.71654 0.0
C386 C 0.47645 0.35564 0.65247 0.0
C387 C 0.46954 0.41386 0.63293 0.0
C388 C 0.46656 0.39087 0.64766 0.0
C389 C 0.46169 0.32591 0.69065 0.0
C390 C 0.46248 0.34781 0.67568 0.0
H391 H 0.48824 0.47827 0.63973 0.0
H392 H 0.47873 0.43924 0.66465 0.0
H393 H 0.48999 0.38264 0.62118 0.0
H394 H 0.45905 0.26788 0.68239 0.0
H395 H 0.45366 0.30066 0.65905 0.0
C396 C 0.56231 0.99315 0.40906 0.0
C397 C 0.55736 0.99037 0.43493 0.0
C398 C 0.5585 0.97171 0.39532 0.0
C399 C 0.55673 0.90896 0.40207 0.0
H400 H 0.51714 0.89174 0.33857 0.0
C401 C 0.53364 0.81641 0.34917 0.0
C402 C 0.53873 0.81971 0.32334 0.0
C403 C 0.53259 0.83575 0.36263 0.0
C404 C 0.52846 0.89641 0.35616 0.0
H405 H 0.54512 0.96309 0.46667 0.0
H406 H 0.53847 0.92577 0.44275 0.0
H407 H 0.52326 0.92917 0.36214 0.0
H408 H 0.54533 0.84535 0.29121 0.0
H409 H 0.54402 0.87923 0.3147 0.0
H410 H 0.56257 0.87674 0.39601 0.0
C411 C 0.54526 0.94448 0.43308 0.0
C412 C 0.53197 0.91787 0.36965 0.0
C413 C 0.54883 0.9658 0.44675 0.0
C414 C 0.54129 0.84212 0.31108 0.0
C415 C 0.54046 0.86157 0.32458 0.0
C416 C 0.5534 0.88766 0.38854 0.0
C417 C 0.54995 0.94714 0.40719 0.0
C418 C 0.54616 0.92439 0.39275 0.0
C419 C 0.53684 0.85897 0.35064 0.0
C420 C 0.53923 0.88107 0.36539 0.0
H421 H 0.56866 0.01173 0.39938 0.0
H422 H 0.56254 0.97445 0.37543 0.0
H423 H 0.56813 0.91371 0.41963 0.0
H424 H 0.53134 0.79927 0.35916 0.0
H425 H 0.52904 0.83274 0.38257 0.0
C426 C 0.55857 0.5166 0.95934 0.0
C427 C 0.57462 0.53446 0.97836 0.0
C428 C 0.5716 0.51726 0.93689 0.0
C429 C 0.638 0.55717 0.89879 0.0
H430 H 0.61974 0.48753 0.87835 0.0
C431 C 0.70979 0.541 0.83276 0.0
C432 C 0.69597 0.52003 0.81583 0.0
C433 C 0.69397 0.54489 0.85043 0.0
C434 C 0.62485 0.50715 0.88351 0.0
H435 H 0.61636 0.56827 0.98793 0.0
H436 H 0.63895 0.56943 0.94897 0.0
H437 H 0.59304 0.49085 0.91207 0.0
H438 H 0.65461 0.48762 0.80342 0.0
H439 H 0.62728 0.49459 0.83382 0.0
H440 H 0.67034 0.57342 0.87048 0.0
C441 C 0.61635 0.55491 0.95126 0.0
C442 C 0.60942 0.50905 0.90285 0.0
C443 C 0.60338 0.55418 0.97369 0.0
C444 C 0.66602 0.50379 0.81633 0.0
C445 C 0.65029 0.50768 0.83389 0.0
C446 C 0.6535 0.55527 0.87942 0.0
C447 C 0.6009 0.53587 0.93292 0.0
C448 C 0.61589 0.53407 0.91088 0.0
C449 C 0.66405 0.52789 0.85152 0.0
C450 C 0.6472 0.53022 0.87162 0.0
H451 H 0.5364 0.5011 0.96233 0.0
H452 H 0.55893 0.50258 0.92298 0.0
H453 H 0.6434 0.57676 0.90434 0.0
H454 H 0.73283 0.55382 0.8329 0.0
H455 H 0.70527 0.56056 0.86383 0.0
C456 C 0.06299 0.57545 0.46475 0.0
C457 C 0.07746 0.56894 0.48231 0.0
C458 C 0.07799 0.5939 0.44531 0.0
C459 C 0.15167 0.64785 0.42649 0.0
H460 H 0.11823 0.63719 0.36057 0.0
C461 C 0.21573 0.71347 0.34088 0.0
C462 C 0.20194 0.72352 0.32662 0.0
C463 C 0.20061 0.6934 0.35906 0.0
C464 C 0.12781 0.64046 0.37892 0.0
H465 H 0.11901 0.57646 0.49296 0.0
H466 H 0.14476 0.60778 0.45908 0.0
H467 H 0.09133 0.6051 0.39416 0.0
H468 H 0.16131 0.71972 0.3196 0.0
H469 H 0.13509 0.68474 0.35095 0.0
H470 H 0.18824 0.68309 0.41112 0.0
C471 C 0.12202 0.59933 0.46051 0.0
C472 C 0.11232 0.62216 0.39823 0.0
C473 C 0.10714 0.58116 0.47995 0.0
C474 C 0.17263 0.71252 0.33034 0.0
C475 C 0.1575 0.69232 0.34821 0.0
C476 C 0.16722 0.66599 0.40714 0.0
C477 C 0.10774 0.60607 0.44294 0.0
C478 C 0.12401 0.62565 0.42232 0.0
C479 C 0.17136 0.68277 0.36302 0.0
C480 C 0.15543 0.66259 0.38317 0.0
H481 H 0.04013 0.5664 0.46606 0.0
H482 H 0.0663 0.59882 0.43231 0.0
H483 H 0.16123 0.65153 0.44487 0.0
H484 H 0.2383 0.72158 0.33846 0.0
H485 H 0.2118 0.68627 0.37008 0.0
C486 C 0.46479 0.03886 0.93975 0.0
C487 C 0.46784 0.01931 0.92863 0.0
C488 C 0.45963 0.05572 0.92523 0.0
C489 C 0.47024 0.08416 0.86166 0.0
H490 H 0.42331 0.1095 0.8855 0.0
C491 C 0.46228 0.16512 0.80723 0.0
C492 C 0.46604 0.18619 0.82176 0.0
C493 C 0.45712 0.14143 0.8186 0.0
C494 C 0.43655 0.10267 0.8786 0.0
H495 H 0.46699 1.00171 0.89344 0.0
H496 H 0.45763 0.031 0.86802 0.0
H497 H 0.42408 0.07381 0.90837 0.0
H498 H 0.46581 0.19829 0.85955 0.0
H499 H 0.45694 0.15716 0.8793 0.0
H500 H 0.48326 0.11344 0.83225 0.0
C501 C 0.45956 0.03343 0.88804 0.0
C502 C 0.43701 0.08223 0.89172 0.0
C503 C 0.46465 0.01646 0.90262 0.0
C504 C 0.46307 0.1825 0.84779 0.0
C505 C 0.45782 0.15881 0.85913 0.0
C506 C 0.46976 0.10459 0.84853 0.0
C507 C 0.45736 0.05351 0.89915 0.0
C508 C 0.45433 0.07309 0.88371 0.0
C509 C 0.45546 0.13822 0.84473 0.0
C510 C 0.45335 0.11447 0.85712 0.0
H511 H 0.46669 0.04136 0.95975 0.0
H512 H 0.45836 0.07109 0.93444 0.0
H513 H 0.4841 0.07788 0.85511 0.0
H514 H 0.46436 0.16725 0.78713 0.0
H515 H 0.45499 0.12582 0.80695 0.0
C516 C 0.46488 0.50366 0.45863 0.0
C517 C 0.4658 0.51751 0.47989 0.0
C518 C 0.44586 0.49937 0.43907 0.0
C519 C 0.37834 0.49624 0.42695 0.0
H520 H 0.39884 0.50247 0.35715 0.0
C521 C 0.29382 0.45682 0.34998 0.0
C522 C 0.29919 0.47208 0.32791 0.0
C523 C 0.3152 0.46388 0.36766 0.0
C524 C 0.39292 0.50092 0.37657 0.0
H525 H 0.44779 0.53812 0.49696 0.0
H526 H 0.41519 0.53086 0.46316 0.0
H527 H 0.43446 0.51147 0.38946 0.0
H528 H 0.33145 0.50691 0.30717 0.0
H529 H 0.36918 0.51948 0.33846 0.0
H530 H 0.33705 0.48595 0.41432 0.0
C531 C 0.4287 0.5229 0.46161 0.0
C532 C 0.41319 0.50574 0.39506 0.0
C533 C 0.44756 0.52715 0.48102 0.0
C534 C 0.32661 0.49483 0.32404 0.0
C535 C 0.34824 0.50188 0.34183 0.0
C536 C 0.35819 0.4914 0.40857 0.0
C537 C 0.42737 0.50878 0.44047 0.0
C538 C 0.4061 0.50343 0.4205 0.0
C539 C 0.34269 0.48645 0.36388 0.0
C540 C 0.36509 0.49346 0.38315 0.0
H541 H 0.47874 0.49608 0.45713 0.0
H542 H 0.44523 0.48825 0.42309 0.0
H543 H 0.372 0.49399 0.44632 0.0
H544 H 0.273 0.43913 0.35363 0.0
H545 H 0.31026 0.45131 0.38421 0.0
C546 C 0.01367 0.47838 0.89347 0.0
C547 C 0.02118 0.47354 0.91718 0.0
C548 C 0.99566 0.45715 0.87796 0.0
C549 C 0.94289 0.38344 0.88062 0.0
H550 H 0.94567 0.39286 0.80877 0.0
C551 C 0.84945 0.30963 0.81822 0.0
C552 C 0.85457 0.30651 0.79333 0.0
C553 C 0.87162 0.32829 0.83331 0.0
C554 C 0.94477 0.38955 0.82876 0.0
H555 H 0.01686 0.44301 0.94293 0.0
H556 H 0.98679 0.40596 0.9155 0.0
H557 H 0.98184 0.42832 0.83421 0.0
H558 H 0.88736 0.31956 0.7652 0.0
H559 H 0.92634 0.35114 0.79183 0.0
H560 H 0.90664 0.34424 0.87514 0.0
C561 C 0.99371 0.42596 0.90907 0.0
C562 C 0.96535 0.41025 0.84349 0.0
C563 C 0.01119 0.44717 0.92475 0.0
C564 C 0.88266 0.32161 0.78425 0.0
C565 C 0.90499 0.33996 0.79951 0.0
C566 C 0.92266 0.36257 0.86588 0.0
C567 C 0.98514 0.43054 0.88561 0.0
C568 C 0.96445 0.40773 0.8697 0.0
C569 C 0.89971 0.34406 0.82411 0.0
C570 C 0.9229 0.36546 0.83972 0.0
H571 H 0.02072 0.49852 0.88739 0.0
H572 H 0.98925 0.46168 0.86036 0.0
H573 H 0.94104 0.38062 0.90068 0.0
H574 H 0.82803 0.29851 0.82579 0.0
H575 H 0.86635 0.331 0.85189 0.0
C576 C 0.93832 0.51 0.97564 0.0
C577 C 0.95915 0.50578 0.9666 0.0
C578 C 0.91293 0.50091 0.96224 0.0
C579 C 0.88801 0.48686 0.89719 0.0
H580 H 0.81409 0.46345 0.92546 0.0
C581 C 0.79583 0.47063 0.83381 0.0
C582 C 0.78102 0.48223 0.84208 0.0
C583 C 0.81363 0.46721 0.85014 0.0
C584 C 0.83462 0.47003 0.91727 0.0
H585 H 0.96966 0.48784 0.93749 0.0
H586 H 0.92517 0.47124 0.91456 0.0
H587 H 0.85255 0.46896 0.95267 0.0
H588 H 0.77181 0.49763 0.87444 0.0
H589 H 0.80292 0.49202 0.90264 0.0
H590 H 0.87066 0.48886 0.86202 0.0
C591 C 0.92837 0.48189 0.93162 0.0
C592 C 0.85666 0.47319 0.93288 0.0
C593 C 0.95369 0.4911 0.94488 0.0
C594 C 0.783 0.48874 0.86738 0.0
C595 C 0.80077 0.48535 0.88366 0.0
C596 C 0.86608 0.48376 0.88164 0.0
C597 C 0.90813 0.48755 0.93958 0.0
C598 C 0.88375 0.48195 0.92306 0.0
C599 C 0.817 0.47531 0.8751 0.0
C600 C 0.83918 0.47567 0.89147 0.0
H601 H 0.94242 0.52174 0.99212 0.0
H602 H 0.89794 0.50582 0.96883 0.0
H603 H 0.90872 0.49417 0.88898 0.0
H604 H 0.79474 0.46531 0.81447 0.0
H605 H 0.82539 0.45893 0.84301 0.0
C606 C 0.44225 0.00745 0.45167 0.0
C607 C 0.45502 0.99953 0.46975 0.0
C608 C 0.41855 0.98851 0.43816 0.0
C609 C 0.36228 0.91624 0.43484 0.0
H610 H 0.36802 0.9313 0.36361 0.0
C611 C 0.3052 0.83433 0.36207 0.0
C612 C 0.29545 0.83958 0.33966 0.0
C613 C 0.31998 0.85421 0.37957 0.0
C614 C 0.36568 0.92693 0.38347 0.0
H615 H 0.45197 0.96541 0.48869 0.0
H616 H 0.4107 0.93223 0.46491 0.0
H617 H 0.40244 0.96509 0.39167 0.0
H618 H 0.29255 0.86965 0.31856 0.0
H619 H 0.31848 0.90465 0.34935 0.0
H620 H 0.32592 0.87774 0.42646 0.0
C621 C 0.41885 0.95315 0.46134 0.0
C622 C 0.38549 0.94634 0.39963 0.0
C623 C 0.44255 0.97217 0.47498 0.0
C624 C 0.29981 0.86499 0.33563 0.0
C625 C 0.31483 0.88506 0.35319 0.0
C626 C 0.34244 0.89681 0.41865 0.0
C627 C 0.40706 0.96111 0.44226 0.0
C628 C 0.38436 0.94112 0.42549 0.0
C629 C 0.32553 0.88 0.37519 0.0
C630 C 0.34422 0.90173 0.39271 0.0
H631 H 0.45114 0.02838 0.44734 0.0
H632 H 0.40965 0.99537 0.42404 0.0
H633 H 0.36047 0.91167 0.45466 0.0
H634 H 0.30211 0.81493 0.36587 0.0
H635 H 0.32814 0.8496 0.39608 0.0
C636 C 0.56251 0.44528 0.973 0.0
C637 C 0.55763 0.43402 0.99722 0.0
C638 C 0.56551 0.4325 0.95285 0.0
C639 C 0.54594 0.36579 0.93306 0.0
H640 H 0.59639 0.40533 0.87758 0.0
C641 C 0.54875 0.31229 0.84589 0.0
C642 C 0.54741 0.32356 0.82293 0.0
C643 C 0.55472 0.3265 0.86793 0.0
C644 C 0.58213 0.39401 0.89289 0.0
H645 H 0.55305 0.40087 0.01931 0.0
H646 H 0.55871 0.37866 0.98414 0.0
H647 H 0.59818 0.4288 0.91498 0.0
H648 H 0.55274 0.35914 0.80503 0.0
H649 H 0.56298 0.3838 0.84339 0.0
H650 H 0.52945 0.33112 0.91081 0.0
C651 C 0.55978 0.39724 0.98072 0.0
C652 C 0.58313 0.40746 0.91433 0.0
C653 C 0.55681 0.41008 1.00092 0.0
C654 C 0.55355 0.34983 0.82238 0.0
C655 C 0.55958 0.36404 0.8444 0.0
C656 C 0.54497 0.35235 0.91165 0.0
C657 C 0.56379 0.40813 0.95638 0.0
C658 C 0.56471 0.39357 0.93452 0.0
C659 C 0.5596 0.35233 0.86752 0.0
C660 C 0.56272 0.36635 0.89114 0.0
H661 H 0.56382 0.46395 0.9695 0.0
H662 H 0.56832 0.44138 0.93439 0.0
H663 H 0.53114 0.3545 0.94806 0.0
H664 H 0.54423 0.29213 0.84699 0.0
H665 H 0.555 0.31705 0.88538 0.0
C666 C 0.05403 0.45589 0.46044 0.0
C667 C 0.06736 0.46078 0.48391 0.0
C668 C 0.06456 0.44942 0.44014 0.0
C669 C 0.11075 0.42506 0.42184 0.0
H670 H 0.1165 0.46226 0.35959 0.0
C671 C 0.17558 0.42773 0.33602 0.0
C672 C 0.16602 0.42971 0.31211 0.0
C673 C 0.16138 0.42787 0.3574 0.0
C674 C 0.1146 0.45126 0.37664 0.0
H675 H 0.10194 0.46191 0.50442 0.0
H676 H 0.12029 0.45048 0.4689 0.0
H677 H 0.09629 0.46965 0.39601 0.0
H678 H 0.13281 0.43123 0.29191 0.0
H679 H 0.10757 0.43053 0.32899 0.0
H680 H 0.12921 0.40672 0.40234 0.0
C681 C 0.10154 0.45156 0.46633 0.0
C682 C 0.10306 0.4556 0.39761 0.0
C683 C 0.091 0.45812 0.4867 0.0
C684 C 0.1409 0.42996 0.31005 0.0
C685 C 0.12658 0.42983 0.33136 0.0
C686 C 0.12221 0.42059 0.40074 0.0
C687 C 0.0887 0.44757 0.44269 0.0
C688 C 0.10094 0.44256 0.42048 0.0
C689 C 0.13719 0.42978 0.35534 0.0
C690 C 0.12425 0.43362 0.37783 0.0
H691 H 0.03538 0.45707 0.45767 0.0
H692 H 0.05378 0.44592 0.42234 0.0
H693 H 0.10922 0.41454 0.43913 0.0
H694 H 0.19497 0.42766 0.33828 0.0
H695 H 0.17029 0.42791 0.3755 0.0
C696 C 0.6101 0.07217 0.95621 0.0
C697 C 0.58726 0.06747 0.97128 0.0
C698 C 0.62511 0.09543 0.94167 0.0
C699 C 0.64258 0.1637 0.93041 0.0
H700 H 0.64981 0.14826 0.862 0.0
C701 C 0.724 0.24123 0.85884 0.0
C702 C 0.71662 0.23805 0.83339 0.0
C703 C 0.70491 0.22324 0.87684 0.0
C704 C 0.64764 0.153 0.88089 0.0
H705 H 0.56349 0.08438 0.98418 0.0
H706 H 0.59022 0.12557 0.9587 0.0
H707 H 0.62446 0.11188 0.89218 0.0
H708 H 0.68238 0.21476 0.80722 0.0
H709 H 0.64905 0.18358 0.83862 0.0
H710 H 0.66639 0.20503 0.91901 0.0
C711 C 0.59629 0.11101 0.95821 0.0
C712 C 0.63341 0.13212 0.89829 0.0
C713 C 0.58109 0.08752 0.97285 0.0
C714 C 0.68889 0.2177 0.8266 0.0
C715 C 0.66983 0.1997 0.8446 0.0
C716 C 0.65715 0.18475 0.91295 0.0
C717 C 0.61773 0.11466 0.94177 0.0
C718 C 0.63114 0.1372 0.92332 0.0
C719 C 0.67801 0.20164 0.8698 0.0
C720 C 0.66012 0.17962 0.88803 0.0
H721 H 0.61561 0.05727 0.95477 0.0
H722 H 0.64196 0.09796 0.92962 0.0
H723 H 0.6411 0.16817 0.94957 0.0
H724 H 0.74511 0.25675 0.86477 0.0
H725 H 0.71198 0.22529 0.89604 0.0
C726 C 0.58044 0.65056 0.49517 0.0
C727 C 0.57918 0.62671 0.49058 0.0
C728 C 0.5885 0.67 0.47624 0.0
C729 C 0.62337 0.69144 0.4138 0.0
H730 H 0.57713 0.72213 0.40528 0.0
C731 C 0.61332 0.73623 0.32047 0.0
C732 C 0.60965 0.7579 0.32081 0.0
C733 C 0.61508 0.72442 0.34274 0.0
C734 C 0.59064 0.71418 0.40761 0.0
H735 H 0.58672 0.60527 0.46273 0.0
H736 H 0.60007 0.63868 0.42975 0.0
H737 H 0.56964 0.69353 0.44149 0.0
H738 H 0.60667 0.78516 0.34492 0.0
H739 H 0.60994 0.76463 0.38378 0.0
H740 H 0.64376 0.71148 0.37947 0.0
C741 C 0.59506 0.64255 0.44798 0.0
C742 C 0.58633 0.69774 0.42842 0.0
C743 C 0.58698 0.62316 0.46685 0.0
C744 C 0.60942 0.76845 0.34395 0.0
C745 C 0.61106 0.75655 0.36625 0.0
C746 C 0.62764 0.70783 0.39297 0.0
C747 C 0.59562 0.6661 0.45231 0.0
C748 C 0.60226 0.68574 0.43154 0.0
C749 C 0.61314 0.73395 0.36591 0.0
C750 C 0.61097 0.71902 0.38938 0.0
H751 H 0.57446 0.65392 0.51317 0.0
H752 H 0.58899 0.68802 0.4803 0.0
H753 H 0.6364 0.68295 0.41585 0.0
H754 H 0.61361 0.72761 0.303 0.0
H755 H 0.61647 0.70694 0.34176 0.0
C756 C 0.56371 0.12305 0.57118 0.0
C757 C 0.55723 0.12787 0.54694 0.0
C758 C 0.56612 0.13906 0.5909 0.0
C759 C 0.54297 0.18387 0.61011 0.0
H760 H 0.59641 0.19946 0.66424 0.0
C761 C 0.54644 0.24238 0.69588 0.0
C762 C 0.54624 0.23069 0.71909 0.0
C763 C 0.55206 0.23372 0.67393 0.0
C764 C 0.58132 0.19521 0.64929 0.0
H765 H 0.54902 0.15388 0.5244 0.0
H766 H 0.55374 0.18222 0.5588 0.0
H767 H 0.59842 0.17738 0.62725 0.0
H768 H 0.55316 0.20163 0.73748 0.0
H769 H 0.56298 0.18661 0.69926 0.0
H770 H 0.52561 0.20135 0.63232 0.0
C771 C 0.55651 0.16572 0.56258 0.0
C772 C 0.58242 0.18251 0.6281 0.0
C773 C 0.55408 0.14965 0.5428 0.0
C774 C 0.55311 0.21105 0.71994 0.0
C775 C 0.55888 0.20251 0.69801 0.0
C776 C 0.54195 0.19667 0.63125 0.0
C777 C 0.56225 0.16043 0.58695 0.0
C778 C 0.56292 0.17624 0.60842 0.0
C779 C 0.55779 0.21332 0.67469 0.0
C780 C 0.5608 0.20208 0.65128 0.0
H781 H 0.56682 0.10679 0.57503 0.0
H782 H 0.57026 0.13417 0.60941 0.0
H783 H 0.52735 0.17903 0.59551 0.0
H784 H 0.54128 0.25758 0.69454 0.0
H785 H 0.55144 0.24269 0.65629 0.0
C786 C 0.44777 0.43557 0.10541 0.0
C787 C 0.45422 0.45214 0.08411 0.0
C788 C 0.42446 0.429 0.12042 0.0
C789 C 0.35689 0.42654 0.12485 0.0
H790 H 0.37719 0.43908 0.19482 0.0
C791 C 0.28428 0.43051 0.1997 0.0
C792 C 0.28603 0.42302 0.22444 0.0
C793 C 0.30192 0.4307 0.18112 0.0
C794 C 0.37082 0.43489 0.17548 0.0
H795 H 0.44009 0.47348 0.06109 0.0
H796 H 0.39897 0.46178 0.08748 0.0
H797 H 0.41261 0.44546 0.16468 0.0
H798 H 0.30607 0.40789 0.24861 0.0
H799 H 0.33585 0.4071 0.21615 0.0
H800 H 0.31491 0.41578 0.13577 0.0
C801 C 0.41216 0.45397 0.09245 0.0
C802 C 0.39128 0.43872 0.15813 0.0
C803 C 0.43569 0.46067 0.07735 0.0
C804 C 0.30441 0.41405 0.22981 0.0
C805 C 0.32173 0.41388 0.21119 0.0
C806 C 0.3362 0.42241 0.14232 0.0
C807 C 0.40687 0.43874 0.11458 0.0
C808 C 0.3846 0.43454 0.13263 0.0
C809 C 0.32149 0.4231 0.18677 0.0
C810 C 0.3429 0.4265 0.16793 0.0
H811 H 0.46134 0.42836 0.11104 0.0
H812 H 0.42062 0.41679 0.13706 0.0
H813 H 0.35109 0.42306 0.10532 0.0
H814 H 0.27042 0.43765 0.19492 0.0
H815 H 0.30115 0.43809 0.16266 0.0
C816 C 0.92335 0.41236 0.54075 0.0
C817 C 0.93745 0.4403 0.54081 0.0
C818 C 0.89998 0.39653 0.55641 0.0
C819 C 0.87343 0.39987 0.61712 0.0
H820 H 0.80932 0.32974 0.60066 0.0
C821 C 0.7977 0.32586 0.69367 0.0
C822 C 0.79178 0.29979 0.69163 0.0
C823 C 0.81017 0.34425 0.67369 0.0
C824 C 0.82713 0.34925 0.60561 0.0
H825 H 0.9367 0.47342 0.5562 0.0
H826 H 0.89606 0.44575 0.58368 0.0
H827 H 0.84057 0.35972 0.56753 0.0
H828 H 0.79322 0.27233 0.66662 0.0
H829 H 0.81507 0.30412 0.63231 0.0
H830 H 0.86093 0.38901 0.65529 0.0
C831 C 0.90325 0.43613 0.5716 0.0
C832 C 0.84498 0.36645 0.58659 0.0
C833 C 0.92643 0.45197 0.55569 0.0
C834 C 0.79754 0.29225 0.66892 0.0
C835 C 0.80989 0.3105 0.64906 0.0
C836 C 0.85569 0.3826 0.63618 0.0
C837 C 0.8903 0.40829 0.57266 0.0
C838 C 0.86878 0.39168 0.59218 0.0
C839 C 0.81683 0.33687 0.65124 0.0
C840 C 0.8328 0.35676 0.63075 0.0
H841 H 0.93124 0.40272 0.5295 0.0
H842 H 0.89062 0.37516 0.55685 0.0
H843 H 0.89175 0.41908 0.6221 0.0
H844 H 0.7935 0.33228 0.71092 0.0
H845 H 0.81497 0.36433 0.67594 0.0
C846 C 0.56087 0.9195 0.03699 0.0
C847 C 0.56277 0.94389 0.03995 0.0
C848 C 0.56976 0.90897 0.05605 0.0
C849 C 0.61186 0.92682 0.11516 0.0
H850 H 0.5628 0.85124 0.13055 0.0
C851 C 0.60882 0.87914 0.21124 0.0
C852 C 0.60413 0.85339 0.21213 0.0
C853 C 0.60874 0.89107 0.18844 0.0
C854 C 0.57703 0.8723 0.12627 0.0
H855 H 0.57677 0.9768 0.06505 0.0
H856 H 0.59131 0.95817 0.09835 0.0
H857 H 0.55289 0.87013 0.09398 0.0
H858 H 0.59727 0.8206 0.18954 0.0
H859 H 0.59718 0.84149 0.14977 0.0
H860 H 0.63536 0.92903 0.14805 0.0
C861 C 0.58327 0.94723 0.08123 0.0
C862 C 0.57136 0.88316 0.10525 0.0
C863 C 0.57448 0.95777 0.06219 0.0
C864 C 0.6009 0.84044 0.18957 0.0
C865 C 0.60062 0.85231 0.16677 0.0
C866 C 0.61742 0.91597 0.13627 0.0
C867 C 0.58077 0.92256 0.07855 0.0
C868 C 0.58842 0.91064 0.09963 0.0
C869 C 0.60382 0.87748 0.166 0.0
C870 C 0.59982 0.88865 0.14228 0.0
H871 H 0.55188 0.90817 0.02021 0.0
H872 H 0.56785 0.89007 0.05319 0.0
H873 H 0.62579 0.94797 0.11116 0.0
H874 H 0.61142 0.8897 0.22825 0.0
H875 H 0.61109 0.91041 0.18854 0.0
C876 C 0.58622 0.49426 0.55387 0.0
C877 C 0.59956 0.52139 0.547 0.0
C878 C 0.60041 0.48538 0.56909 0.0
C879 C 0.67183 0.50638 0.59635 0.0
H880 H 0.62692 0.45924 0.65123 0.0
C881 C 0.69089 0.48253 0.70376 0.0
C882 C 0.71694 0.48415 0.70089 0.0
C883 C 0.67503 0.48169 0.68289 0.0
C884 C 0.63983 0.47247 0.63607 0.0
H885 H 0.6389 0.56009 0.54945 0.0
H886 H 0.66335 0.54483 0.57597 0.0
H887 H 0.60342 0.46865 0.61761 0.0
H888 H 0.7457 0.48429 0.67382 0.0
H889 H 0.71767 0.48202 0.63749 0.0
H890 H 0.70842 0.51156 0.6155 0.0
C891 C 0.64207 0.53023 0.56956 0.0
C892 C 0.62626 0.47758 0.61654 0.0
C893 C 0.62795 0.53906 0.55439 0.0
C894 C 0.72586 0.48329 0.67671 0.0
C895 C 0.70987 0.48222 0.65584 0.0
C896 C 0.6854 0.50142 0.61594 0.0
C897 C 0.62826 0.50342 0.57773 0.0
C898 C 0.64216 0.4951 0.59669 0.0
C899 C 0.68465 0.4822 0.65858 0.0
C900 C 0.66968 0.48486 0.63637 0.0
H901 H 0.56434 0.48009 0.54854 0.0
H902 H 0.58926 0.46451 0.57464 0.0
H903 H 0.68475 0.51962 0.58121 0.0
H904 H 0.68338 0.48323 0.7221 0.0
H905 H 0.65594 0.48199 0.68587 0.0
C906 C 0.0887 0.61076 0.07072 0.0
C907 C 0.08815 0.62036 0.04655 0.0
C908 C 0.09928 0.62787 0.09093 0.0
C909 C 0.14807 0.69739 0.10803 0.0
H910 H 0.10749 0.67314 0.171 0.0
C911 C 0.19515 0.757 0.19918 0.0
C912 C 0.19394 0.74114 0.21963 0.0
C913 C 0.17915 0.74505 0.17755 0.0
C914 C 0.11915 0.68023 0.15358 0.0
H915 H 0.09882 0.65618 0.0252 0.0
H916 H 0.11785 0.686 0.06049 0.0
H917 H 0.08617 0.64677 0.13381 0.0
H918 H 0.17398 0.70052 0.23395 0.0
H919 H 0.14639 0.67991 0.19673 0.0
H920 H 0.18162 0.7303 0.12808 0.0
C921 C 0.10985 0.66504 0.06358 0.0
C922 C 0.10691 0.6651 0.13227 0.0
C923 C 0.09893 0.64783 0.04331 0.0
C924 C 0.17545 0.71333 0.21851 0.0
C925 C 0.15942 0.70147 0.19714 0.0
C926 C 0.16046 0.71249 0.12946 0.0
C927 C 0.10995 0.65518 0.08765 0.0
C928 C 0.12154 0.67311 0.1094 0.0
C929 C 0.16143 0.71707 0.17617 0.0
C930 C 0.14649 0.70367 0.15266 0.0
H931 H 0.08128 0.59005 0.07427 0.0
H932 H 0.09957 0.61973 0.10916 0.0
H933 H 0.15991 0.70403 0.09068 0.0
H934 H 0.20935 0.77849 0.19947 0.0
H935 H 0.18103 0.75765 0.16178 0.0
loop_
_geom_bond_atom_site_label_1
_geom_bond_atom_site_label_2
_geom_bond_distance
_geom_bond_site_symmetry_2
_ccdc_geom_bond_type
Cu0 N1 2.002 1_454 S
Cu0 O6 1.964 1_454 S
Cu0 N11 1.985 . S
Cu0 O20 1.959 . S
N1 Cu0 2.002 1_656 S
N1 C3 1.268 . S
N1 C5 1.383 1_556 S
N2 C3 1.358 . S
N2 C4 1.400 . S
C3 N1 1.268 . S
C3 N2 1.358 . S
C3 H9 0.925 . S
C4 N2 1.400 . S
C4 C5 1.351 1_556 S
C4 H21 0.930 . S
C5 N1 1.383 1_554 S
C5 C4 1.351 1_554 S
C5 H10 0.930 . S
O6 Cu0 1.964 1_656 S
O6 C16 1.279 1_655 S
C7 O8 1.261 . S
C7 O20 1.251 . S
O8 C7 1.261 . S
H9 C3 0.925 . S
H10 C5 0.930 . S
N11 Cu0 1.985 . S
N11 C13 1.335 . S
N11 C14 1.390 . S
N12 C13 1.345 . S
N12 C15 1.336 . S
C13 N11 1.335 . S
C13 N12 1.345 . S
C13 H18 0.930 . S
C14 N11 1.390 . S
C14 C15 1.346 . S
C14 H19 0.962 . S
C15 N12 1.336 . S
C15 C14 1.346 . S
C15 H22 0.929 . S
C16 O6 1.279 1_455 S
C16 O17 1.216 . S
O17 C16 1.216 . S
H18 C13 0.930 . S
H19 C14 0.962 . S
O20 Cu0 1.959 . S
O20 C7 1.251 . S
H21 C4 0.930 . S
H22 C15 0.929 . S
Cu23 N24 1.999 1_545 S
Cu23 O29 1.974 1_545 S
Cu23 N34 1.985 . S
Cu23 O43 1.959 . S
N24 Cu23 1.999 1_565 S
N24 C26 1.263 . S
N24 C28 1.389 . S
N25 C26 1.358 . S
N25 C27 1.400 . S
C26 N24 1.263 . S
C26 N25 1.358 . S
C26 H32 0.930 . S
C27 N25 1.400 . S
C27 C28 1.351 . S
C27 H44 0.930 . S
C28 N24 1.389 . S
C28 C27 1.351 . S
C28 H33 0.930 . S
O29 Cu23 1.974 1_565 S
O29 C39 1.282 . S
C30 O31 1.261 . S
C30 O43 1.251 . S
O31 C30 1.261 . S
H32 C26 0.930 . S
H33 C28 0.930 . S
N34 Cu23 1.985 . S
N34 C36 1.335 . S
N34 C37 1.390 . S
N35 C36 1.345 . S
N35 C38 1.336 . S
C36 N34 1.335 . S
C36 N35 1.345 . S
C36 H41 0.930 . S
C37 N34 1.390 . S
C37 C38 1.346 . S
C37 H42 0.930 . S
C38 N35 1.336 . S
C38 C37 1.346 . S
C38 H45 0.929 . S
C39 O29 1.282 . S
C39 O40 1.216 1_565 S
O40 C39 1.216 1_545 S
H41 C36 0.930 . S
H42 C37 0.930 . S
O43 Cu23 1.959 . S
O43 C30 1.251 . S
H44 C27 0.930 . S
H45 C38 0.929 . S
Cu46 N47 1.999 1_554 S
Cu46 O52 1.974 1_554 S
Cu46 N57 1.985 . S
Cu46 O66 1.959 . S
N47 Cu46 1.999 1_556 S
N47 C49 1.263 . S
N47 C51 1.389 . S
N48 C49 1.358 . S
N48 C50 1.400 . S
C49 N47 1.263 . S
C49 N48 1.358 . S
C49 H55 0.930 . S
C50 N48 1.400 . S
C50 C51 1.351 . S
C50 H67 0.930 . S
C51 N47 1.389 . S
C51 C50 1.351 . S
C51 H56 0.930 . S
O52 Cu46 1.974 1_556 S
O52 C62 1.282 . S
C53 O54 1.261 . S
C53 O66 1.251 . S
O54 C53 1.261 . S
H55 C49 0.930 . S
H56 C51 0.930 . S
N57 Cu46 1.985 . S
N57 C59 1.335 . S
N57 C60 1.390 . S
N58 C59 1.345 . S
N58 C61 1.336 . S
C59 N57 1.335 . S
C59 N58 1.345 . S
C59 H64 0.930 . S
C60 N57 1.390 . S
C60 C61 1.346 . S
C60 H65 0.930 . S
C61 N58 1.336 . S
C61 C60 1.346 . S
C61 H68 0.929 . S
C62 O52 1.282 . S
C62 O63 1.216 1_556 S
O63 C62 1.216 1_554 S
H64 C59 0.930 . S
H65 C60 0.930 . S
O66 Cu46 1.959 . S
O66 C53 1.251 . S
H67 C50 0.930 . S
H68 C61 0.929 . S
Cu69 N70 1.999 1_655 S
Cu69 O75 1.974 1_655 S
Cu69 N80 1.985 . S
Cu69 O89 1.959 . S
N70 Cu69 1.999 1_455 S
N70 C72 1.263 . S
N70 C74 1.389 1_455 S
N71 C72 1.358 . S
N71 C73 1.400 . S
C72 N70 1.263 . S
C72 N71 1.358 . S
C72 H78 0.930 . S
C73 N71 1.400 . S
C73 C74 1.351 1_455 S
C73 H90 0.930 1_455 S
C74 N70 1.389 1_655 S
C74 C73 1.351 1_655 S
C74 H79 0.930 . S
O75 Cu69 1.974 1_455 S
O75 C85 1.282 . S
C76 O77 1.261 1_655 S
C76 O89 1.251 . S
O77 C76 1.261 1_455 S
H78 C72 0.930 . S
H79 C74 0.930 . S
N80 Cu69 1.985 . S
N80 C82 1.335 . S
N80 C83 1.390 . S
N81 C82 1.345 . S
N81 C84 1.336 . S
C82 N80 1.335 . S
C82 N81 1.345 . S
C82 H87 0.930 . S
C83 N80 1.390 . S
C83 C84 1.346 . S
C83 H88 0.930 1_655 S
C84 N81 1.336 . S
C84 C83 1.346 . S
C84 H91 0.929 . S
C85 O75 1.282 . S
C85 O86 1.216 . S
O86 C85 1.216 . S
H87 C82 0.930 . S
H88 C83 0.930 1_455 S
O89 Cu69 1.959 . S
O89 C76 1.251 . S
H90 C73 0.930 1_655 S
H91 C84 0.929 . S
Cu92 N93 1.999 . S
Cu92 O98 1.974 1_554 S
Cu92 N103 1.985 1_545 S
Cu92 O112 1.959 1_545 S
N93 Cu92 1.999 . S
N93 C95 1.263 1_554 S
N93 C97 1.389 . S
N94 C95 1.358 . S
N94 C96 1.400 . S
C95 N93 1.263 1_556 S
C95 N94 1.358 . S
C95 H101 0.930 . S
C96 N94 1.400 . S
C96 C97 1.351 1_556 S
C96 H113 0.930 . S
C97 N93 1.389 . S
C97 C96 1.351 1_554 S
C97 H102 0.930 . S
O98 Cu92 1.974 1_556 S
O98 C108 1.282 . S
C99 O100 1.261 . S
C99 O112 1.251 . S
O100 C99 1.261 . S
H101 C95 0.930 . S
H102 C97 0.930 . S
N103 Cu92 1.985 1_565 S
N103 C105 1.335 . S
N103 C106 1.390 . S
N104 C105 1.345 . S
N104 C107 1.336 . S
C105 N103 1.335 . S
C105 N104 1.345 . S
C105 H110 0.930 . S
C106 N103 1.390 . S
C106 C107 1.346 . S
C106 H111 0.930 . S
C107 N104 1.336 . S
C107 C106 1.346 . S
C107 H114 0.929 . S
C108 O98 1.282 . S
C108 O109 1.216 1_545 S
O109 C108 1.216 1_565 S
H110 C105 0.930 . S
H111 C106 0.930 . S
O112 Cu92 1.959 1_565 S
O112 C99 1.251 . S
H113 C96 0.930 . S
H114 C107 0.929 . S
Cu115 N116 1.999 . S
Cu115 O121 1.974 . S
Cu115 N126 1.985 . S
Cu115 O135 1.959 . S
N116 Cu115 1.999 . S
N116 C118 1.263 . S
N116 C120 1.389 . S
N117 C118 1.358 . S
N117 C119 1.400 . S
C118 N116 1.263 . S
C118 N117 1.358 . S
C118 H124 0.930 . S
C119 N117 1.400 . S
C119 C120 1.351 . S
C119 H136 0.930 . S
C120 N116 1.389 . S
C120 C119 1.351 . S
C120 H125 0.930 . S
O121 Cu115 1.974 . S
O121 C131 1.282 . S
C122 O123 1.261 . S
C122 O135 1.251 . S
O123 C122 1.261 . S
H124 C118 0.930 . S
H125 C120 0.930 . S
N126 Cu115 1.985 . S
N126 C128 1.335 . S
N126 C129 1.390 . S
N127 C128 1.345 . S
N127 C130 1.336 . S
C128 N126 1.335 . S
C128 N127 1.345 . S
C128 H133 0.930 . S
C129 N126 1.390 . S
C129 C130 1.346 . S
C129 H134 0.930 . S
C130 N127 1.336 . S
C130 C129 1.346 . S
C130 H137 0.929 . S
C131 O121 1.282 . S
C131 O132 1.216 . S
O132 C131 1.216 . S
H133 C128 0.930 . S
H134 C129 0.930 . S
O135 Cu115 1.959 . S
O135 C122 1.251 . S
H136 C119 0.930 . S
H137 C130 0.929 . S
Mg138 O145 2.141 . S
Mg138 O146 2.048 . S
Mg138 O147 2.048 . S
Mg138 O150 2.141 . S
C139 O140 1.313 . S
C139 O146 1.195 . S
O140 C139 1.313 . S
C141 O142 1.245 . S
C141 O150 1.289 . S
O142 C141 1.245 . S
C143 O144 1.245 . S
C143 O145 1.289 . S
O144 C143 1.245 . S
O145 Mg138 2.141 . S
O145 C143 1.289 . S
O146 Mg138 2.048 . S
O146 C139 1.195 . S
O147 Mg138 2.048 . S
O147 C148 1.195 . S
C148 O147 1.195 . S
C148 O149 1.313 . S
O149 C148 1.313 . S
O150 Mg138 2.141 . S
O150 C141 1.289 . S
Mg151 O158 2.141 . S
Mg151 O159 2.048 . S
Mg151 O160 2.048 . S
Mg151 O163 2.141 . S
C152 O153 1.313 . S
C152 O159 1.195 . S
O153 C152 1.313 . S
C154 O155 1.245 . S
C154 O163 1.289 . S
O155 C154 1.245 . S
C156 O157 1.245 . S
C156 O158 1.289 . S
O157 C156 1.245 . S
O158 Mg151 2.141 . S
O158 C156 1.289 . S
O159 Mg151 2.048 . S
O159 C152 1.195 . S
O160 Mg151 2.048 . S
O160 C161 1.195 . S
C161 O160 1.195 . S
C161 O162 1.313 . S
O162 C161 1.313 . S
O163 Mg151 2.141 . S
O163 C154 1.289 . S
Mg164 O171 2.141 . S
Mg164 O172 2.048 . S
Mg164 O173 2.048 . S
Mg164 O176 2.141 . S
C165 O166 1.313 . S
C165 O172 1.195 . S
O166 C165 1.313 . S
C167 O168 1.245 . S
C167 O176 1.289 . S
O168 C167 1.245 . S
C169 O170 1.245 . S
C169 O171 1.289 . S
O170 C169 1.245 . S
O171 Mg164 2.141 . S
O171 C169 1.289 . S
O172 Mg164 2.048 . S
O172 C165 1.195 . S
O173 Mg164 2.048 . S
O173 C174 1.195 . S
C174 O173 1.195 . S
C174 O175 1.313 . S
O175 C174 1.313 . S
O176 Mg164 2.141 . S
O176 C167 1.289 . S
Mg177 O184 2.141 . S
Mg177 O185 2.048 . S
Mg177 O186 2.048 . S
Mg177 O189 2.141 . S
C178 O179 1.313 . S
C178 O185 1.195 . S
O179 C178 1.313 . S
C180 O181 1.245 . S
C180 O189 1.289 . S
O181 C180 1.245 . S
C182 O183 1.245 . S
C182 O184 1.289 . S
O183 C182 1.245 . S
O184 Mg177 2.141 . S
O184 C182 1.289 . S
O185 Mg177 2.048 . S
O185 C178 1.195 . S
O186 Mg177 2.048 . S
O186 C187 1.195 . S
C187 O186 1.195 . S
C187 O188 1.313 . S
O188 C187 1.313 . S
O189 Mg177 2.141 . S
O189 C180 1.289 . S
Mg190 O197 2.141 . S
Mg190 O198 2.048 . S
Mg190 O199 2.048 . S
Mg190 O202 2.141 . S
C191 O192 1.313 . S
C191 O198 1.195 . S
O192 C191 1.313 . S
C193 O194 1.245 . S
C193 O202 1.289 . S
O194 C193 1.245 . S
C195 O196 1.245 . S
C195 O197 1.289 . S
O196 C195 1.245 . S
O197 Mg190 2.141 . S
O197 C195 1.289 . S
O198 Mg190 2.048 . S
O198 C191 1.195 . S
O199 Mg190 2.048 . S
O199 C200 1.195 . S
C200 O199 1.195 . S
C200 O201 1.313 . S
O201 C200 1.313 . S
O202 Mg190 2.141 . S
O202 C193 1.289 . S
Mg203 O210 2.141 . S
Mg203 O211 2.048 . S
Mg203 O212 2.048 . S
Mg203 O215 2.141 . S
C204 O205 1.313 . S
C204 O211 1.195 . S
O205 C204 1.313 . S
C206 O207 1.245 . S
C206 O215 1.289 . S
O207 C206 1.245 . S
C208 O209 1.245 . S
C208 O210 1.289 . S
O209 C208 1.245 . S
O210 Mg203 2.141 . S
O210 C208 1.289 . S
O211 Mg203 2.048 . S
O211 C204 1.195 . S
O212 Mg203 2.048 . S
O212 C213 1.195 . S
C213 O212 1.195 . S
C213 O214 1.313 . S
O214 C213 1.313 . S
O215 Mg203 2.141 . S
O215 C206 1.289 . S
C216 C217 1.349 . S
C216 C218 1.327 . S
C216 H241 0.950 . S
C217 C216 1.349 . S
C217 C233 1.349 . S
C218 C216 1.327 . S
C218 C237 1.429 . S
C218 H242 0.950 . S
C219 C236 1.574 . S
C219 C238 1.368 . S
C219 H243 0.949 . S
H220 C224 0.949 . S
C221 C222 1.349 . S
C221 C223 1.327 . S
C221 H244 0.950 . S
C222 C221 1.349 . S
C222 C234 1.349 . S
C223 C221 1.327 . S
C223 C239 1.429 . S
C223 H245 0.950 . S
C224 H220 0.949 . S
C224 C232 1.574 . S
C224 C240 1.368 . S
H225 C233 0.950 . S
H226 C231 0.950 . S
H227 C232 0.949 . S
H228 C234 0.950 . S
H229 C235 0.950 . S
H230 C236 0.949 . S
C231 H226 0.950 . S
C231 C233 1.327 . S
C231 C237 1.429 . S
C232 C224 1.574 . S
C232 H227 0.949 . S
C232 C238 1.368 . S
C233 C217 1.349 . S
C233 H225 0.950 . S
C233 C231 1.327 . S
C234 C222 1.349 . S
C234 H228 0.950 . S
C234 C235 1.327 . S
C235 H229 0.950 . S
C235 C234 1.327 . S
C235 C239 1.429 . S
C236 C219 1.574 . S
C236 H230 0.949 . S
C236 C240 1.368 . S
C237 C218 1.429 . S
C237 C231 1.429 . S
C237 C238 1.523 . S
C238 C219 1.368 . S
C238 C232 1.368 . S
C238 C237 1.523 . S
C239 C223 1.429 . S
C239 C235 1.429 . S
C239 C240 1.523 . S
C240 C224 1.368 . S
C240 C236 1.368 . S
C240 C239 1.523 . S
H241 C216 0.950 . S
H242 C218 0.950 . S
H243 C219 0.949 . S
H244 C221 0.950 . S
H245 C223 0.950 . S
C246 C247 1.349 . S
C246 C248 1.327 . S
C246 H271 0.950 . S
C247 C246 1.349 . S
C247 C263 1.349 . S
C248 C246 1.327 . S
C248 C267 1.429 . S
C248 H272 0.950 . S
C249 C266 1.574 . S
C249 C268 1.368 . S
C249 H273 0.949 . S
H250 C254 0.949 . S
C251 C252 1.349 . S
C251 C253 1.327 . S
C251 H274 0.950 . S
C252 C251 1.349 . S
C252 C264 1.349 . S
C253 C251 1.327 . S
C253 C269 1.429 . S
C253 H275 0.950 . S
C254 H250 0.949 . S
C254 C262 1.574 . S
C254 C270 1.368 . S
H255 C263 0.950 . S
H256 C261 0.950 . S
H257 C262 0.949 . S
H258 C264 0.950 . S
H259 C265 0.950 . S
H260 C266 0.949 . S
C261 H256 0.950 . S
C261 C263 1.327 . S
C261 C267 1.429 . S
C262 C254 1.574 . S
C262 H257 0.949 . S
C262 C268 1.368 . S
C263 C247 1.349 . S
C263 H255 0.950 . S
C263 C261 1.327 . S
C264 C252 1.349 . S
C264 H258 0.950 . S
C264 C265 1.327 . S
C265 H259 0.950 . S
C265 C264 1.327 . S
C265 C269 1.429 . S
C266 C249 1.574 . S
C266 H260 0.949 . S
C266 C270 1.368 . S
C267 C248 1.429 . S
C267 C261 1.429 . S
C267 C268 1.523 . S
C268 C249 1.368 . S
C268 C262 1.368 . S
C268 C267 1.523 . S
C269 C253 1.429 . S
C269 C265 1.429 . S
C269 C270 1.523 . S
C270 C254 1.368 . S
C270 C266 1.368 . S
C270 C269 1.523 . S
H271 C246 0.950 . S
H272 C248 0.950 . S
H273 C249 0.949 . S
H274 C251 0.950 . S
H275 C253 0.950 . S
C276 C277 1.349 . S
C276 C278 1.327 . S
C276 H301 0.950 . S
C277 C276 1.349 . S
C277 C293 1.349 . S
C278 C276 1.327 . S
C278 C297 1.429 . S
C278 H302 0.950 . S
C279 C296 1.574 . S
C279 C298 1.368 . S
C279 H303 0.949 . S
H280 C284 0.949 . S
C281 C282 1.349 . S
C281 C283 1.327 . S
C281 H304 0.950 . S
C282 C281 1.349 . S
C282 C294 1.349 . S
C283 C281 1.327 . S
C283 C299 1.429 . S
C283 H305 0.950 . S
C284 H280 0.949 . S
C284 C292 1.574 . S
C284 C300 1.368 . S
H285 C293 0.950 . S
H286 C291 0.950 . S
H287 C292 0.949 . S
H288 C294 0.950 . S
H289 C295 0.950 . S
H290 C296 0.949 . S
C291 H286 0.950 . S
C291 C293 1.327 . S
C291 C297 1.429 . S
C292 C284 1.574 . S
C292 H287 0.949 . S
C292 C298 1.368 . S
C293 C277 1.349 . S
C293 H285 0.950 . S
C293 C291 1.327 . S
C294 C282 1.349 . S
C294 H288 0.950 . S
C294 C295 1.327 . S
C295 H289 0.950 . S
C295 C294 1.327 . S
C295 C299 1.429 . S
C296 C279 1.574 . S
C296 H290 0.949 . S
C296 C300 1.368 . S
C297 C278 1.429 . S
C297 C291 1.429 . S
C297 C298 1.523 . S
C298 C279 1.368 . S
C298 C292 1.368 . S
C298 C297 1.523 . S
C299 C283 1.429 . S
C299 C295 1.429 . S
C299 C300 1.523 . S
C300 C284 1.368 . S
C300 C296 1.368 . S
C300 C299 1.523 . S
H301 C276 0.950 . S
H302 C278 0.950 . S
H303 C279 0.949 . S
H304 C281 0.950 . S
H305 C283 0.950 . S
C306 C307 1.349 . S
C306 C308 1.327 . S
C306 H331 0.950 . S
C307 C306 1.349 . S
C307 C323 1.349 . S
C308 C306 1.327 . S
C308 C327 1.429 . S
C308 H332 0.950 . S
C309 C326 1.574 . S
C309 C328 1.368 . S
C309 H333 0.949 . S
H310 C314 0.949 . S
C311 C312 1.349 . S
C311 C313 1.327 . S
C311 H334 0.950 . S
C312 C311 1.349 . S
C312 C324 1.349 . S
C313 C311 1.327 . S
C313 C329 1.429 . S
C313 H335 0.950 . S
C314 H310 0.949 . S
C314 C322 1.574 . S
C314 C330 1.368 . S
H315 C323 0.950 . S
H316 C321 0.950 . S
H317 C322 0.949 . S
H318 C324 0.950 . S
H319 C325 0.950 . S
H320 C326 0.949 . S
C321 H316 0.950 . S
C321 C323 1.327 . S
C321 C327 1.429 . S
C322 C314 1.574 . S
C322 H317 0.949 . S
C322 C328 1.368 . S
C323 C307 1.349 . S
C323 H315 0.950 . S
C323 C321 1.327 . S
C324 C312 1.349 . S
C324 H318 0.950 . S
C324 C325 1.327 . S
C325 H319 0.950 . S
C325 C324 1.327 . S
C325 C329 1.429 . S
C326 C309 1.574 . S
C326 H320 0.949 . S
C326 C330 1.368 . S
C327 C308 1.429 . S
C327 C321 1.429 . S
C327 C328 1.523 . S
C328 C309 1.368 . S
C328 C322 1.368 . S
C328 C327 1.523 . S
C329 C313 1.429 . S
C329 C325 1.429 . S
C329 C330 1.523 . S
C330 C314 1.368 . S
C330 C326 1.368 . S
C330 C329 1.523 . S
H331 C306 0.950 . S
H332 C308 0.950 . S
H333 C309 0.949 . S
H334 C311 0.950 . S
H335 C313 0.950 . S
C336 C337 1.349 . S
C336 C338 1.327 . S
C336 H361 0.950 . S
C337 C336 1.349 . S
C337 C353 1.349 . S
C338 C336 1.327 . S
C338 C357 1.429 . S
C338 H362 0.950 . S
C339 C356 1.574 . S
C339 C358 1.368 . S
C339 H363 0.949 . S
H340 C344 0.949 . S
C341 C342 1.349 . S
C341 C343 1.327 . S
C341 H364 0.950 . S
C342 C341 1.349 . S
C342 C354 1.349 . S
C343 C341 1.327 . S
C343 C359 1.429 . S
C343 H365 0.950 . S
C344 H340 0.949 . S
C344 C352 1.574 . S
C344 C360 1.368 . S
H345 C353 0.950 . S
H346 C351 0.950 . S
H347 C352 0.949 . S
H348 C354 0.950 . S
H349 C355 0.950 . S
H350 C356 0.949 . S
C351 H346 0.950 . S
C351 C353 1.327 . S
C351 C357 1.429 . S
C352 C344 1.574 . S
C352 H347 0.949 . S
C352 C358 1.368 . S
C353 C337 1.349 . S
C353 H345 0.950 . S
C353 C351 1.327 . S
C354 C342 1.349 . S
C354 H348 0.950 . S
C354 C355 1.327 . S
C355 H349 0.950 . S
C355 C354 1.327 . S
C355 C359 1.429 . S
C356 C339 1.574 . S
C356 H350 0.949 . S
C356 C360 1.368 . S
C357 C338 1.429 . S
C357 C351 1.429 . S
C357 C358 1.523 . S
C358 C339 1.368 . S
C358 C352 1.368 . S
C358 C357 1.523 . S
C359 C343 1.429 . S
C359 C355 1.429 . S
C359 C360 1.523 . S
C360 C344 1.368 . S
C360 C356 1.368 . S
C360 C359 1.523 . S
H361 C336 0.950 . S
H362 C338 0.950 . S
H363 C339 0.949 . S
H364 C341 0.950 . S
H365 C343 0.950 . S
C366 C367 1.349 . S
C366 C368 1.327 . S
C366 H391 0.950 . S
C367 C366 1.349 . S
C367 C383 1.349 . S
C368 C366 1.327 . S
C368 C387 1.429 . S
C368 H392 0.950 . S
C369 C386 1.574 . S
C369 C388 1.368 . S
C369 H393 0.949 . S
H370 C374 0.949 . S
C371 C372 1.349 . S
C371 C373 1.327 . S
C371 H394 0.950 . S
C372 C371 1.349 . S
C372 C384 1.349 . S
C373 C371 1.327 . S
C373 C389 1.429 . S
C373 H395 0.950 . S
C374 H370 0.949 . S
C374 C382 1.574 . S
C374 C390 1.368 . S
H375 C383 0.950 . S
H376 C381 0.950 . S
H377 C382 0.949 . S
H378 C384 0.950 . S
H379 C385 0.950 . S
H380 C386 0.949 . S
C381 H376 0.950 . S
C381 C383 1.327 . S
C381 C387 1.429 . S
C382 C374 1.574 . S
C382 H377 0.949 . S
C382 C388 1.368 . S
C383 C367 1.349 . S
C383 H375 0.950 . S
C383 C381 1.327 . S
C384 C372 1.349 . S
C384 H378 0.950 . S
C384 C385 1.327 . S
C385 H379 0.950 . S
C385 C384 1.327 . S
C385 C389 1.429 . S
C386 C369 1.574 . S
C386 H380 0.949 . S
C386 C390 1.368 . S
C387 C368 1.429 . S
C387 C381 1.429 . S
C387 C388 1.523 . S
C388 C369 1.368 . S
C388 C382 1.368 . S
C388 C387 1.523 . S
C389 C373 1.429 . S
C389 C385 1.429 . S
C389 C390 1.523 . S
C390 C374 1.368 . S
C390 C386 1.368 . S
C390 C389 1.523 . S
H391 C366 0.950 . S
H392 C368 0.950 . S
H393 C369 0.949 . S
H394 C371 0.950 . S
H395 C373 0.950 . S
C396 C397 1.349 . S
C396 C398 1.327 . S
C396 H421 0.950 . S
C397 C396 1.349 . S
C397 C413 1.349 . S
C398 C396 1.327 . S
C398 C417 1.429 . S
C398 H422 0.950 . S
C399 C416 1.574 . S
C399 C418 1.368 . S
C399 H423 0.949 . S
H400 C404 0.949 . S
C401 C402 1.349 . S
C401 C403 1.327 . S
C401 H424 0.950 . S
C402 C401 1.349 . S
C402 C414 1.349 . S
C403 C401 1.327 . S
C403 C419 1.429 . S
C403 H425 0.950 . S
C404 H400 0.949 . S
C404 C412 1.574 . S
C404 C420 1.368 . S
H405 C413 0.950 . S
H406 C411 0.950 . S
H407 C412 0.949 . S
H408 C414 0.950 . S
H409 C415 0.950 . S
H410 C416 0.949 . S
C411 H406 0.950 . S
C411 C413 1.327 . S
C411 C417 1.429 . S
C412 C404 1.574 . S
C412 H407 0.949 . S
C412 C418 1.368 . S
C413 C397 1.349 . S
C413 H405 0.950 . S
C413 C411 1.327 . S
C414 C402 1.349 . S
C414 H408 0.950 . S
C414 C415 1.327 . S
C415 H409 0.950 . S
C415 C414 1.327 . S
C415 C419 1.429 . S
C416 C399 1.574 . S
C416 H410 0.949 . S
C416 C420 1.368 . S
C417 C398 1.429 . S
C417 C411 1.429 . S
C417 C418 1.523 . S
C418 C399 1.368 . S
C418 C412 1.368 . S
C418 C417 1.523 . S
C419 C403 1.429 . S
C419 C415 1.429 . S
C419 C420 1.523 . S
C420 C404 1.368 . S
C420 C416 1.368 . S
C420 C419 1.523 . S
H421 C396 0.950 . S
H422 C398 0.950 . S
H423 C399 0.949 . S
H424 C401 0.950 . S
H425 C403 0.950 . S
C426 C427 1.349 . S
C426 C428 1.327 . S
C426 H451 0.950 . S
C427 C426 1.349 . S
C427 C443 1.349 . S
C428 C426 1.327 . S
C428 C447 1.429 . S
C428 H452 0.950 . S
C429 C446 1.574 . S
C429 C448 1.368 . S
C429 H453 0.949 . S
H430 C434 0.949 . S
C431 C432 1.349 . S
C431 C433 1.327 . S
C431 H454 0.950 . S
C432 C431 1.349 . S
C432 C444 1.349 . S
C433 C431 1.327 . S
C433 C449 1.429 . S
C433 H455 0.950 . S
C434 H430 0.949 . S
C434 C442 1.574 . S
C434 C450 1.368 . S
H435 C443 0.950 . S
H436 C441 0.950 . S
H437 C442 0.949 . S
H438 C444 0.950 . S
H439 C445 0.950 . S
H440 C446 0.949 . S
C441 H436 0.950 . S
C441 C443 1.327 . S
C441 C447 1.429 . S
C442 C434 1.574 . S
C442 H437 0.949 . S
C442 C448 1.368 . S
C443 C427 1.349 . S
C443 H435 0.950 . S
C443 C441 1.327 . S
C444 C432 1.349 . S
C444 H438 0.950 . S
C444 C445 1.327 . S
C445 H439 0.950 . S
C445 C444 1.327 . S
C445 C449 1.429 . S
C446 C429 1.574 . S
C446 H440 0.949 . S
C446 C450 1.368 . S
C447 C428 1.429 . S
C447 C441 1.429 . S
C447 C448 1.523 . S
C448 C429 1.368 . S
C448 C442 1.368 . S
C448 C447 1.523 . S
C449 C433 1.429 . S
C449 C445 1.429 . S
C449 C450 1.523 . S
C450 C434 1.368 . S
C450 C446 1.368 . S
C450 C449 1.523 . S
H451 C426 0.950 . S
H452 C428 0.950 . S
H453 C429 0.949 . S
H454 C431 0.950 . S
H455 C433 0.950 . S
C456 C457 1.349 . S
C456 C458 1.327 . S
C456 H481 0.950 . S
C457 C456 1.349 . S
C457 C473 1.349 . S
C458 C456 1.327 . S
C458 C477 1.429 . S
C458 H482 0.950 . S
C459 C476 1.574 . S
C459 C478 1.368 . S
C459 H483 0.949 . S
H460 C464 0.949 . S
C461 C462 1.349 . S
C461 C463 1.327 . S
C461 H484 0.950 . S
C462 C461 1.349 . S
C462 C474 1.349 . S
C463 C461 1.327 . S
C463 C479 1.429 . S
C463 H485 0.950 . S
C464 H460 0.949 . S
C464 C472 1.574 . S
C464 C480 1.368 . S
H465 C473 0.950 . S
H466 C471 0.950 . S
H467 C472 0.949 . S
H468 C474 0.950 . S
H469 C475 0.950 . S
H470 C476 0.949 . S
C471 H466 0.950 . S
C471 C473 1.327 . S
C471 C477 1.429 . S
C472 C464 1.574 . S
C472 H467 0.949 . S
C472 C478 1.368 . S
C473 C457 1.349 . S
C473 H465 0.950 . S
C473 C471 1.327 . S
C474 C462 1.349 . S
C474 H468 0.950 . S
C474 C475 1.327 . S
C475 H469 0.950 . S
C475 C474 1.327 . S
C475 C479 1.429 . S
C476 C459 1.574 . S
C476 H470 0.949 . S
C476 C480 1.368 . S
C477 C458 1.429 . S
C477 C471 1.429 . S
C477 C478 1.523 . S
C478 C459 1.368 . S
C478 C472 1.368 . S
C478 C477 1.523 . S
C479 C463 1.429 . S
C479 C475 1.429 . S
C479 C480 1.523 . S
C480 C464 1.368 . S
C480 C476 1.368 . S
C480 C479 1.523 . S
H481 C456 0.950 . S
H482 C458 0.950 . S
H483 C459 0.949 . S
H484 C461 0.950 . S
H485 C463 0.950 . S
C486 C487 1.349 . S
C486 C488 1.327 . S
C486 H511 0.950 . S
C487 C486 1.349 . S
C487 C503 1.349 . S
C488 C486 1.327 . S
C488 C507 1.429 . S
C488 H512 0.950 . S
C489 C506 1.574 . S
C489 C508 1.368 . S
C489 H513 0.949 . S
H490 C494 0.949 . S
C491 C492 1.349 . S
C491 C493 1.327 . S
C491 H514 0.950 . S
C492 C491 1.349 . S
C492 C504 1.349 . S
C493 C491 1.327 . S
C493 C509 1.429 . S
C493 H515 0.950 . S
C494 H490 0.949 . S
C494 C502 1.574 . S
C494 C510 1.368 . S
H495 C503 0.950 . S
H496 C501 0.950 . S
H497 C502 0.949 . S
H498 C504 0.950 . S
H499 C505 0.950 . S
H500 C506 0.949 . S
C501 H496 0.950 . S
C501 C503 1.327 . S
C501 C507 1.429 . S
C502 C494 1.574 . S
C502 H497 0.949 . S
C502 C508 1.368 . S
C503 C487 1.349 . S
C503 H495 0.950 . S
C503 C501 1.327 . S
C504 C492 1.349 . S
C504 H498 0.950 . S
C504 C505 1.327 . S
C505 H499 0.950 . S
C505 C504 1.327 . S
C505 C509 1.429 . S
C506 C489 1.574 . S
C506 H500 0.949 . S
C506 C510 1.368 . S
C507 C488 1.429 . S
C507 C501 1.429 . S
C507 C508 1.523 . S
C508 C489 1.368 . S
C508 C502 1.368 . S
C508 C507 1.523 . S
C509 C493 1.429 . S
C509 C505 1.429 . S
C509 C510 1.523 . S
C510 C494 1.368 . S
C510 C506 1.368 . S
C510 C509 1.523 . S
H511 C486 0.950 . S
H512 C488 0.950 . S
H513 C489 0.949 . S
H514 C491 0.950 . S
H515 C493 0.950 . S
C516 C517 1.349 . S
C516 C518 1.327 . S
C516 H541 0.950 . S
C517 C516 1.349 . S
C517 C533 1.349 . S
C518 C516 1.327 . S
C518 C537 1.429 . S
C518 H542 0.950 . S
C519 C536 1.574 . S
C519 C538 1.368 . S
C519 H543 0.949 . S
H520 C524 0.949 . S
C521 C522 1.349 . S
C521 C523 1.327 . S
C521 H544 0.950 . S
C522 C521 1.349 . S
C522 C534 1.349 . S
C523 C521 1.327 . S
C523 C539 1.429 . S
C523 H545 0.950 . S
C524 H520 0.949 . S
C524 C532 1.574 . S
C524 C540 1.368 . S
H525 C533 0.950 . S
H526 C531 0.950 . S
H527 C532 0.949 . S
H528 C534 0.950 . S
H529 C535 0.950 . S
H530 C536 0.949 . S
C531 H526 0.950 . S
C531 C533 1.327 . S
C531 C537 1.429 . S
C532 C524 1.574 . S
C532 H527 0.949 . S
C532 C538 1.368 . S
C533 C517 1.349 . S
C533 H525 0.950 . S
C533 C531 1.327 . S
C534 C522 1.349 . S
C534 H528 0.950 . S
C534 C535 1.327 . S
C535 H529 0.950 . S
C535 C534 1.327 . S
C535 C539 1.429 . S
C536 C519 1.574 . S
C536 H530 0.949 . S
C536 C540 1.368 . S
C537 C518 1.429 . S
C537 C531 1.429 . S
C537 C538 1.523 . S
C538 C519 1.368 . S
C538 C532 1.368 . S
C538 C537 1.523 . S
C539 C523 1.429 . S
C539 C535 1.429 . S
C539 C540 1.523 . S
C540 C524 1.368 . S
C540 C536 1.368 . S
C540 C539 1.523 . S
H541 C516 0.950 . S
H542 C518 0.950 . S
H543 C519 0.949 . S
H544 C521 0.950 . S
H545 C523 0.950 . S
C546 C547 1.349 . S
C546 C548 1.327 . S
C546 H571 0.950 1_655 S
C547 C546 1.349 . S
C547 C563 1.349 . S
C548 C546 1.327 . S
C548 C567 1.429 . S
C548 H572 0.950 . S
C549 C566 1.574 . S
C549 C568 1.368 . S
C549 H573 0.949 . S
H550 C554 0.949 . S
C551 C552 1.349 . S
C551 C553 1.327 . S
C551 H574 0.950 . S
C552 C551 1.349 . S
C552 C564 1.349 . S
C553 C551 1.327 . S
C553 C569 1.429 . S
C553 H575 0.950 . S
C554 H550 0.949 . S
C554 C562 1.574 . S
C554 C570 1.368 . S
H555 C563 0.950 . S
H556 C561 0.950 . S
H557 C562 0.949 . S
H558 C564 0.950 . S
H559 C565 0.950 . S
H560 C566 0.949 . S
C561 H556 0.950 . S
C561 C563 1.327 . S
C561 C567 1.429 . S
C562 C554 1.574 . S
C562 H557 0.949 . S
C562 C568 1.368 . S
C563 C547 1.349 . S
C563 H555 0.950 . S
C563 C561 1.327 . S
C564 C552 1.349 . S
C564 H558 0.950 . S
C564 C565 1.327 . S
C565 H559 0.950 . S
C565 C564 1.327 . S
C565 C569 1.429 . S
C566 C549 1.574 . S
C566 H560 0.949 . S
C566 C570 1.368 . S
C567 C548 1.429 . S
C567 C561 1.429 . S
C567 C568 1.523 . S
C568 C549 1.368 . S
C568 C562 1.368 . S
C568 C567 1.523 . S
C569 C553 1.429 . S
C569 C565 1.429 . S
C569 C570 1.523 . S
C570 C554 1.368 . S
C570 C566 1.368 . S
C570 C569 1.523 . S
H571 C546 0.950 1_455 S
H572 C548 0.950 . S
H573 C549 0.949 . S
H574 C551 0.950 . S
H575 C553 0.950 . S
C576 C577 1.349 . S
C576 C578 1.327 . S
C576 H601 0.950 . S
C577 C576 1.349 . S
C577 C593 1.349 1_655 S
C578 C576 1.327 . S
C578 C597 1.429 . S
C578 H602 0.950 . S
C579 C596 1.574 . S
C579 C598 1.368 . S
C579 H603 0.949 . S
H580 C584 0.949 . S
C581 C582 1.349 . S
C581 C583 1.327 . S
C581 H604 0.950 . S
C582 C581 1.349 . S
C582 C594 1.349 . S
C583 C581 1.327 . S
C583 C599 1.429 . S
C583 H605 0.950 . S
C584 H580 0.949 . S
C584 C592 1.574 . S
C584 C600 1.368 . S
H585 C593 0.950 . S
H586 C591 0.950 1_455 S
H587 C592 0.949 . S
H588 C594 0.950 . S
H589 C595 0.950 . S
H590 C596 0.949 . S
C591 H586 0.950 1_655 S
C591 C593 1.327 1_655 S
C591 C597 1.429 . S
C592 C584 1.574 . S
C592 H587 0.949 . S
C592 C598 1.368 . S
C593 C577 1.349 1_455 S
C593 H585 0.950 . S
C593 C591 1.327 1_455 S
C594 C582 1.349 . S
C594 H588 0.950 . S
C594 C595 1.327 . S
C595 H589 0.950 . S
C595 C594 1.327 . S
C595 C599 1.429 . S
C596 C579 1.574 . S
C596 H590 0.949 . S
C596 C600 1.368 . S
C597 C578 1.429 . S
C597 C591 1.429 . S
C597 C598 1.523 . S
C598 C579 1.368 . S
C598 C592 1.368 . S
C598 C597 1.523 . S
C599 C583 1.429 . S
C599 C595 1.429 . S
C599 C600 1.523 . S
C600 C584 1.368 . S
C600 C596 1.368 . S
C600 C599 1.523 . S
H601 C576 0.950 . S
H602 C578 0.950 . S
H603 C579 0.949 . S
H604 C581 0.950 . S
H605 C583 0.950 . S
C606 C607 1.349 . S
C606 C608 1.327 . S
C606 H631 0.950 . S
C607 C606 1.349 . S
C607 C623 1.349 . S
C608 C606 1.327 . S
C608 C627 1.429 . S
C608 H632 0.950 . S
C609 C626 1.574 . S
C609 C628 1.368 . S
C609 H633 0.949 . S
H610 C614 0.949 . S
C611 C612 1.349 . S
C611 C613 1.327 . S
C611 H634 0.950 . S
C612 C611 1.349 . S
C612 C624 1.349 . S
C613 C611 1.327 . S
C613 C629 1.429 . S
C613 H635 0.950 . S
C614 H610 0.949 . S
C614 C622 1.574 . S
C614 C630 1.368 . S
H615 C623 0.950 . S
H616 C621 0.950 . S
H617 C622 0.949 . S
H618 C624 0.950 . S
H619 C625 0.950 . S
H620 C626 0.949 . S
C621 H616 0.950 . S
C621 C623 1.327 . S
C621 C627 1.429 . S
C622 C614 1.574 . S
C622 H617 0.949 . S
C622 C628 1.368 . S
C623 C607 1.349 . S
C623 H615 0.950 . S
C623 C621 1.327 . S
C624 C612 1.349 . S
C624 H618 0.950 . S
C624 C625 1.327 . S
C625 H619 0.950 . S
C625 C624 1.327 . S
C625 C629 1.429 . S
C626 C609 1.574 . S
C626 H620 0.949 . S
C626 C630 1.368 . S
C627 C608 1.429 . S
C627 C621 1.429 . S
C627 C628 1.523 . S
C628 C609 1.368 . S
C628 C622 1.368 . S
C628 C627 1.523 . S
C629 C613 1.429 . S
C629 C625 1.429 . S
C629 C630 1.523 . S
C630 C614 1.368 . S
C630 C626 1.368 . S
C630 C629 1.523 . S
H631 C606 0.950 . S
H632 C608 0.950 . S
H633 C609 0.949 . S
H634 C611 0.950 . S
H635 C613 0.950 . S
C636 C637 1.349 . S
C636 C638 1.327 . S
C636 H661 0.950 . S
C637 C636 1.349 . S
C637 C653 1.349 . S
C638 C636 1.327 . S
C638 C657 1.429 . S
C638 H662 0.950 . S
C639 C656 1.574 . S
C639 C658 1.368 . S
C639 H663 0.949 . S
H640 C644 0.949 . S
C641 C642 1.349 . S
C641 C643 1.327 . S
C641 H664 0.950 . S
C642 C641 1.349 . S
C642 C654 1.349 . S
C643 C641 1.327 . S
C643 C659 1.429 . S
C643 H665 0.950 . S
C644 H640 0.949 . S
C644 C652 1.574 . S
C644 C660 1.368 . S
H645 C653 0.950 . S
H646 C651 0.950 . S
H647 C652 0.949 . S
H648 C654 0.950 . S
H649 C655 0.950 . S
H650 C656 0.949 . S
C651 H646 0.950 . S
C651 C653 1.327 . S
C651 C657 1.429 . S
C652 C644 1.574 . S
C652 H647 0.949 . S
C652 C658 1.368 . S
C653 C637 1.349 . S
C653 H645 0.950 . S
C653 C651 1.327 . S
C654 C642 1.349 . S
C654 H648 0.950 . S
C654 C655 1.327 . S
C655 H649 0.950 . S
C655 C654 1.327 . S
C655 C659 1.429 . S
C656 C639 1.574 . S
C656 H650 0.949 . S
C656 C660 1.368 . S
C657 C638 1.429 . S
C657 C651 1.429 . S
C657 C658 1.523 . S
C658 C639 1.368 . S
C658 C652 1.368 . S
C658 C657 1.523 . S
C659 C643 1.429 . S
C659 C655 1.429 . S
C659 C660 1.523 . S
C660 C644 1.368 . S
C660 C656 1.368 . S
C660 C659 1.523 . S
H661 C636 0.950 . S
H662 C638 0.950 . S
H663 C639 0.949 . S
H664 C641 0.950 . S
H665 C643 0.950 . S
C666 C667 1.349 . S
C666 C668 1.327 . S
C666 H691 0.950 . S
C667 C666 1.349 . S
C667 C683 1.349 . S
C668 C666 1.327 . S
C668 C687 1.429 . S
C668 H692 0.950 . S
C669 C686 1.574 . S
C669 C688 1.368 . S
C669 H693 0.949 . S
H670 C674 0.949 . S
C671 C672 1.349 . S
C671 C673 1.327 . S
C671 H694 0.950 . S
C672 C671 1.349 . S
C672 C684 1.349 . S
C673 C671 1.327 . S
C673 C689 1.429 . S
C673 H695 0.950 . S
C674 H670 0.949 . S
C674 C682 1.574 . S
C674 C690 1.368 . S
H675 C683 0.950 . S
H676 C681 0.950 . S
H677 C682 0.949 . S
H678 C684 0.950 . S
H679 C685 0.950 . S
H680 C686 0.949 . S
C681 H676 0.950 . S
C681 C683 1.327 . S
C681 C687 1.429 . S
C682 C674 1.574 . S
C682 H677 0.949 . S
C682 C688 1.368 . S
C683 C667 1.349 . S
C683 H675 0.950 . S
C683 C681 1.327 . S
C684 C672 1.349 . S
C684 H678 0.950 . S
C684 C685 1.327 . S
C685 H679 0.950 . S
C685 C684 1.327 . S
C685 C689 1.429 . S
C686 C669 1.574 . S
C686 H680 0.949 . S
C686 C690 1.368 . S
C687 C668 1.429 . S
C687 C681 1.429 . S
C687 C688 1.523 . S
C688 C669 1.368 . S
C688 C682 1.368 . S
C688 C687 1.523 . S
C689 C673 1.429 . S
C689 C685 1.429 . S
C689 C690 1.523 . S
C690 C674 1.368 . S
C690 C686 1.368 . S
C690 C689 1.523 . S
H691 C666 0.950 . S
H692 C668 0.950 . S
H693 C669 0.949 . S
H694 C671 0.950 . S
H695 C673 0.950 . S
C696 C697 1.349 . S
C696 C698 1.327 . S
C696 H721 0.950 . S
C697 C696 1.349 . S
C697 C713 1.349 . S
C698 C696 1.327 . S
C698 C717 1.429 . S
C698 H722 0.950 . S
C699 C716 1.574 . S
C699 C718 1.368 . S
C699 H723 0.949 . S
H700 C704 0.949 . S
C701 C702 1.349 . S
C701 C703 1.327 . S
C701 H724 0.950 . S
C702 C701 1.349 . S
C702 C714 1.349 . S
C703 C701 1.327 . S
C703 C719 1.429 . S
C703 H725 0.950 . S
C704 H700 0.949 . S
C704 C712 1.574 . S
C704 C720 1.368 . S
H705 C713 0.950 . S
H706 C711 0.950 . S
H707 C712 0.949 . S
H708 C714 0.950 . S
H709 C715 0.950 . S
H710 C716 0.949 . S
C711 H706 0.950 . S
C711 C713 1.327 . S
C711 C717 1.429 . S
C712 C704 1.574 . S
C712 H707 0.949 . S
C712 C718 1.368 . S
C713 C697 1.349 . S
C713 H705 0.950 . S
C713 C711 1.327 . S
C714 C702 1.349 . S
C714 H708 0.950 . S
C714 C715 1.327 . S
C715 H709 0.950 . S
C715 C714 1.327 . S
C715 C719 1.429 . S
C716 C699 1.574 . S
C716 H710 0.949 . S
C716 C720 1.368 . S
C717 C698 1.429 . S
C717 C711 1.429 . S
C717 C718 1.523 . S
C718 C699 1.368 . S
C718 C712 1.368 . S
C718 C717 1.523 . S
C719 C703 1.429 . S
C719 C715 1.429 . S
C719 C720 1.523 . S
C720 C704 1.368 . S
C720 C716 1.368 . S
C720 C719 1.523 . S
H721 C696 0.950 . S
H722 C698 0.950 . S
H723 C699 0.949 . S
H724 C701 0.950 . S
H725 C703 0.950 . S
C726 C727 1.349 . S
C726 C728 1.327 . S
C726 H751 0.950 . S
C727 C726 1.349 . S
C727 C743 1.349 . S
C728 C726 1.327 . S
C728 C747 1.429 . S
C728 H752 0.950 . S
C729 C746 1.574 . S
C729 C748 1.368 . S
C729 H753 0.949 . S
H730 C734 0.949 . S
C731 C732 1.349 . S
C731 C733 1.327 . S
C731 H754 0.950 . S
C732 C731 1.349 . S
C732 C744 1.349 . S
C733 C731 1.327 . S
C733 C749 1.429 . S
C733 H755 0.950 . S
C734 H730 0.949 . S
C734 C742 1.574 . S
C734 C750 1.368 . S
H735 C743 0.950 . S
H736 C741 0.950 . S
H737 C742 0.949 . S
H738 C744 0.950 . S
H739 C745 0.950 . S
H740 C746 0.949 . S
C741 H736 0.950 . S
C741 C743 1.327 . S
C741 C747 1.429 . S
C742 C734 1.574 . S
C742 H737 0.949 . S
C742 C748 1.368 . S
C743 C727 1.349 . S
C743 H735 0.950 . S
C743 C741 1.327 . S
C744 C732 1.349 . S
C744 H738 0.950 . S
C744 C745 1.327 . S
C745 H739 0.950 . S
C745 C744 1.327 . S
C745 C749 1.429 . S
C746 C729 1.574 . S
C746 H740 0.949 . S
C746 C750 1.368 . S
C747 C728 1.429 . S
C747 C741 1.429 . S
C747 C748 1.523 . S
C748 C729 1.368 . S
C748 C742 1.368 . S
C748 C747 1.523 . S
C749 C733 1.429 . S
C749 C745 1.429 . S
C749 C750 1.523 . S
C750 C734 1.368 . S
C750 C746 1.368 . S
C750 C749 1.523 . S
H751 C726 0.950 . S
H752 C728 0.950 . S
H753 C729 0.949 . S
H754 C731 0.950 . S
H755 C733 0.950 . S
C756 C757 1.349 . S
C756 C758 1.327 . S
C756 H781 0.950 . S
C757 C756 1.349 . S
C757 C773 1.349 . S
C758 C756 1.327 . S
C758 C777 1.429 . S
C758 H782 0.950 . S
C759 C776 1.574 . S
C759 C778 1.368 . S
C759 H783 0.949 . S
H760 C764 0.949 . S
C761 C762 1.349 . S
C761 C763 1.327 . S
C761 H784 0.950 . S
C762 C761 1.349 . S
C762 C774 1.349 . S
C763 C761 1.327 . S
C763 C779 1.429 . S
C763 H785 0.950 . S
C764 H760 0.949 . S
C764 C772 1.574 . S
C764 C780 1.368 . S
H765 C773 0.950 . S
H766 C771 0.950 . S
H767 C772 0.949 . S
H768 C774 0.950 . S
H769 C775 0.950 . S
H770 C776 0.949 . S
C771 H766 0.950 . S
C771 C773 1.327 . S
C771 C777 1.429 . S
C772 C764 1.574 . S
C772 H767 0.949 . S
C772 C778 1.368 . S
C773 C757 1.349 . S
C773 H765 0.950 . S
C773 C771 1.327 . S
C774 C762 1.349 . S
C774 H768 0.950 . S
C774 C775 1.327 . S
C775 H769 0.950 . S
C775 C774 1.327 . S
C775 C779 1.429 . S
C776 C759 1.574 . S
C776 H770 0.949 . S
C776 C780 1.368 . S
C777 C758 1.429 . S
C777 C771 1.429 . S
C777 C778 1.523 . S
C778 C759 1.368 . S
C778 C772 1.368 . S
C778 C777 1.523 . S
C779 C763 1.429 . S
C779 C775 1.429 . S
C779 C780 1.523 . S
C780 C764 1.368 . S
C780 C776 1.368 . S
C780 C779 1.523 . S
H781 C756 0.950 . S
H782 C758 0.950 . S
H783 C759 0.949 . S
H784 C761 0.950 . S
H785 C763 0.950 . S
C786 C787 1.349 . S
C786 C788 1.327 . S
C786 H811 0.950 . S
C787 C786 1.349 . S
C787 C803 1.349 . S
C788 C786 1.327 . S
C788 C807 1.429 . S
C788 H812 0.950 . S
C789 C806 1.574 . S
C789 C808 1.368 . S
C789 H813 0.949 . S
H790 C794 0.949 . S
C791 C792 1.349 . S
C791 C793 1.327 . S
C791 H814 0.950 . S
C792 C791 1.349 . S
C792 C804 1.349 . S
C793 C791 1.327 . S
C793 C809 1.429 . S
C793 H815 0.950 . S
C794 H790 0.949 . S
C794 C802 1.574 . S
C794 C810 1.368 . S
H795 C803 0.950 . S
H796 C801 0.950 . S
H797 C802 0.949 . S
H798 C804 0.950 . S
H799 C805 0.950 . S
H800 C806 0.949 . S
C801 H796 0.950 . S
C801 C803 1.327 . S
C801 C807 1.429 . S
C802 C794 1.574 . S
C802 H797 0.949 . S
C802 C808 1.368 . S
C803 C787 1.349 . S
C803 H795 0.950 . S
C803 C801 1.327 . S
C804 C792 1.349 . S
C804 H798 0.950 . S
C804 C805 1.327 . S
C805 H799 0.950 . S
C805 C804 1.327 . S
C805 C809 1.429 . S
C806 C789 1.574 . S
C806 H800 0.949 . S
C806 C810 1.368 . S
C807 C788 1.429 . S
C807 C801 1.429 . S
C807 C808 1.523 . S
C808 C789 1.368 . S
C808 C802 1.368 . S
C808 C807 1.523 . S
C809 C793 1.429 . S
C809 C805 1.429 . S
C809 C810 1.523 . S
C810 C794 1.368 . S
C810 C806 1.368 . S
C810 C809 1.523 . S
H811 C786 0.950 . S
H812 C788 0.950 . S
H813 C789 0.949 . S
H814 C791 0.950 . S
H815 C793 0.950 . S
C816 C817 1.349 . S
C816 C818 1.327 . S
C816 H841 0.950 . S
C817 C816 1.349 . S
C817 C833 1.349 . S
C818 C816 1.327 . S
C818 C837 1.429 . S
C818 H842 0.950 . S
C819 C836 1.574 . S
C819 C838 1.368 . S
C819 H843 0.949 . S
H820 C824 0.949 . S
C821 C822 1.349 . S
C821 C823 1.327 . S
C821 H844 0.950 . S
C822 C821 1.349 . S
C822 C834 1.349 . S
C823 C821 1.327 . S
C823 C839 1.429 . S
C823 H845 0.950 . S
C824 H820 0.949 . S
C824 C832 1.574 . S
C824 C840 1.368 . S
H825 C833 0.950 . S
H826 C831 0.950 . S
H827 C832 0.949 . S
H828 C834 0.950 . S
H829 C835 0.950 . S
H830 C836 0.949 . S
C831 H826 0.950 . S
C831 C833 1.327 . S
C831 C837 1.429 . S
C832 C824 1.574 . S
C832 H827 0.949 . S
C832 C838 1.368 . S
C833 C817 1.349 . S
C833 H825 0.950 . S
C833 C831 1.327 . S
C834 C822 1.349 . S
C834 H828 0.950 . S
C834 C835 1.327 . S
C835 H829 0.950 . S
C835 C834 1.327 . S
C835 C839 1.429 . S
C836 C819 1.574 . S
C836 H830 0.949 . S
C836 C840 1.368 . S
C837 C818 1.429 . S
C837 C831 1.429 . S
C837 C838 1.523 . S
C838 C819 1.368 . S
C838 C832 1.368 . S
C838 C837 1.523 . S
C839 C823 1.429 . S
C839 C835 1.429 . S
C839 C840 1.523 . S
C840 C824 1.368 . S
C840 C836 1.368 . S
C840 C839 1.523 . S
H841 C816 0.950 . S
H842 C818 0.950 . S
H843 C819 0.949 . S
H844 C821 0.950 . S
H845 C823 0.950 . S
C846 C847 1.349 . S
C846 C848 1.327 . S
C846 H871 0.950 . S
C847 C846 1.349 . S
C847 C863 1.349 . S
C848 C846 1.327 . S
C848 C867 1.429 . S
C848 H872 0.950 . S
C849 C866 1.574 . S
C849 C868 1.368 . S
C849 H873 0.949 . S
H850 C854 0.949 . S
C851 C852 1.349 . S
C851 C853 1.327 . S
C851 H874 0.950 . S
C852 C851 1.349 . S
C852 C864 1.349 . S
C853 C851 1.327 . S
C853 C869 1.429 . S
C853 H875 0.950 . S
C854 H850 0.949 . S
C854 C862 1.574 . S
C854 C870 1.368 . S
H855 C863 0.950 . S
H856 C861 0.950 . S
H857 C862 0.949 . S
H858 C864 0.950 . S
H859 C865 0.950 . S
H860 C866 0.949 . S
C861 H856 0.950 . S
C861 C863 1.327 . S
C861 C867 1.429 . S
C862 C854 1.574 . S
C862 H857 0.949 . S
C862 C868 1.368 . S
C863 C847 1.349 . S
C863 H855 0.950 . S
C863 C861 1.327 . S
C864 C852 1.349 . S
C864 H858 0.950 . S
C864 C865 1.327 . S
C865 H859 0.950 . S
C865 C864 1.327 . S
C865 C869 1.429 . S
C866 C849 1.574 . S
C866 H860 0.949 . S
C866 C870 1.368 . S
C867 C848 1.429 . S
C867 C861 1.429 . S
C867 C868 1.523 . S
C868 C849 1.368 . S
C868 C862 1.368 . S
C868 C867 1.523 . S
C869 C853 1.429 . S
C869 C865 1.429 . S
C869 C870 1.523 . S
C870 C854 1.368 . S
C870 C866 1.368 . S
C870 C869 1.523 . S
H871 C846 0.950 . S
H872 C848 0.950 . S
H873 C849 0.949 . S
H874 C851 0.950 . S
H875 C853 0.950 . S
C876 C877 1.349 . S
C876 C878 1.327 . S
C876 H901 0.950 . S
C877 C876 1.349 . S
C877 C893 1.349 . S
C878 C876 1.327 . S
C878 C897 1.429 . S
C878 H902 0.950 . S
C879 C896 1.574 . S
C879 C898 1.368 . S
C879 H903 0.949 . S
H880 C884 0.949 . S
C881 C882 1.349 . S
C881 C883 1.327 . S
C881 H904 0.950 . S
C882 C881 1.349 . S
C882 C894 1.349 . S
C883 C881 1.327 . S
C883 C899 1.429 . S
C883 H905 0.950 . S
C884 H880 0.949 . S
C884 C892 1.574 . S
C884 C900 1.368 . S
H885 C893 0.950 . S
H886 C891 0.950 . S
H887 C892 0.949 . S
H888 C894 0.950 . S
H889 C895 0.950 . S
H890 C896 0.949 . S
C891 H886 0.950 . S
C891 C893 1.327 . S
C891 C897 1.429 . S
C892 C884 1.574 . S
C892 H887 0.949 . S
C892 C898 1.368 . S
C893 C877 1.349 . S
C893 H885 0.950 . S
C893 C891 1.327 . S
C894 C882 1.349 . S
C894 H888 0.950 . S
C894 C895 1.327 . S
C895 H889 0.950 . S
C895 C894 1.327 . S
C895 C899 1.429 . S
C896 C879 1.574 . S
C896 H890 0.949 . S
C896 C900 1.368 . S
C897 C878 1.429 . S
C897 C891 1.429 . S
C897 C898 1.523 . S
C898 C879 1.368 . S
C898 C892 1.368 . S
C898 C897 1.523 . S
C899 C883 1.429 . S
C899 C895 1.429 . S
C899 C900 1.523 . S
C900 C884 1.368 . S
C900 C896 1.368 . S
C900 C899 1.523 . S
H901 C876 0.950 . S
H902 C878 0.950 . S
H903 C879 0.949 . S
H904 C881 0.950 . S
H905 C883 0.950 . S
C906 C907 1.349 . S
C906 C908 1.327 . S
C906 H931 0.950 . S
C907 C906 1.349 . S
C907 C923 1.349 . S
C908 C906 1.327 . S
C908 C927 1.429 . S
C908 H932 0.950 . S
C909 C926 1.574 . S
C909 C928 1.368 . S
C909 H933 0.949 . S
H910 C914 0.949 . S
C911 C912 1.349 . S
C911 C913 1.327 . S
C911 H934 0.950 . S
C912 C911 1.349 . S
C912 C924 1.349 . S
C913 C911 1.327 . S
C913 C929 1.429 . S
C913 H935 0.950 . S
C914 H910 0.949 . S
C914 C922 1.574 . S
C914 C930 1.368 . S
H915 C923 0.950 . S
H916 C921 0.950 . S
H917 C922 0.949 . S
H918 C924 0.950 . S
H919 C925 0.950 . S
H920 C926 0.949 . S
C921 H916 0.950 . S
C921 C923 1.327 . S
C921 C927 1.429 . S
C922 C914 1.574 . S
C922 H917 0.949 . S
C922 C928 1.368 . S
C923 C907 1.349 . S
C923 H915 0.950 . S
C923 C921 1.327 . S
C924 C912 1.349 . S
C924 H918 0.950 . S
C924 C925 1.327 . S
C925 H919 0.950 . S
C925 C924 1.327 . S
C925 C929 1.429 . S
C926 C909 1.574 . S
C926 H920 0.949 . S
C926 C930 1.368 . S
C927 C908 1.429 . S
C927 C921 1.429 . S
C927 C928 1.523 . S
C928 C909 1.368 . S
C928 C922 1.368 . S
C928 C927 1.523 . S
C929 C913 1.429 . S
C929 C925 1.429 . S
C929 C930 1.523 . S
C930 C914 1.368 . S
C930 C926 1.368 . S
C930 C929 1.523 . S
H931 C906 0.950 . S
H932 C908 0.950 . S
H933 C909 0.949 . S
H934 C911 0.950 . S
H935 C913 0.950 . S
C217 C7 1.847 . S
C222 C139 1.845 . S
C247 C30 1.637 . S
C252 C152 1.632 . S
C282 C174 1.641 . S
C277 N58 1.657 . S
C312 C187 1.450 . S
C307 N81 1.455 . S
C342 C200 1.737 . S
C337 C99 1.796 . S
C372 C213 1.423 . S
C367 N127 1.440 . S
C397 N25 1.650 . S
C402 C169 1.615 . S
C427 C62 1.613 . S
C432 C182 1.550 . S
C462 C195 1.713 . S
C457 C85 1.774 . S
C492 C208 1.404 . S
C487 N94 1.437 . S
C517 C131 1.807 . S
C522 C141 1.809 . S
C552 C154 1.503 . S
C547 N2 1.465 . S
C582 C180 1.727 . S
C577 C16 1.785 1_655 S
C607 C39 1.600 . S
C612 C193 1.546 . S
C642 C206 1.619 . S
C637 N48 1.647 . S
C667 N71 1.469 . S
C672 C143 1.507 . S
C697 C108 1.793 . S
C702 C156 1.801 . S
C727 N117 1.430 . S
C732 C167 1.405 . S
C757 N35 1.647 . S
C762 C204 1.630 . S
C792 C148 1.624 . S
C787 C53 1.627 . S
C817 C76 1.823 . S
C822 C161 1.821 . S
C847 N104 1.429 . S
C852 C165 1.413 . S
C877 C122 1.782 . S
C882 C178 1.730 . S
C907 N12 1.439 . S
C912 C191 1.432 . S
