# Generated by pormake.
# Topology zzz, (3,6)-cn, num edge types: 1
# Building blocks:
#     Node 0, Type 0, BuildingBlock: OLANEW_clean_sbu_2, # of connection points: 3
#     Node 1, Type 0, BuildingBlock: OLANEW_clean_sbu_2, # of connection points: 3
#     Node 2, Type 0, BuildingBlock: OLANEW_clean_sbu_2, # of connection points: 3
#     Node 3, Type 0, BuildingBlock: OLANEW_clean_sbu_2, # of connection points: 3
#     Node 4, Type 0, BuildingBlock: OLANEW_clean_sbu_2, # of connection points: 3
#     Node 5, Type 0, BuildingBlock: OLANEW_clean_sbu_2, # of connection points: 3
#     Node 6, Type 0, BuildingBlock: OLANEW_clean_sbu_2, # of connection points: 3
#     Node 7, Type 0, BuildingBlock: OLANEW_clean_sbu_2, # of connection points: 3
#     Node 8, Type 1, BuildingBlock: PAMTOO_clean_sbu_0, # of connection points: 6
#     Node 9, Type 1, BuildingBlock: PAMTOO_clean_sbu_0, # of connection points: 6
#     Node 10, Type 1, BuildingBlock: PAMTOO_clean_sbu_0, # of connection points: 6
#     Node 11, Type 1, BuildingBlock: PAMTOO_clean_sbu_0, # of connection points: 6
#     Edge 12, Type (0, 1), BuildingBlock: EZIPEK_clean_linker_0, # of connection points: 2
#     Edge 13, Type (0, 1), BuildingBlock: EZIPEK_clean_linker_0, # of connection points: 2
#     Edge 14, Type (0, 1), BuildingBlock: EZIPEK_clean_linker_0, # of connection points: 2
#     Edge 15, Type (0, 1), BuildingBlock: EZIPEK_clean_linker_0, # of connection points: 2
#     Edge 16, Type (0, 1), BuildingBlock: EZIPEK_clean_linker_0, # of connection points: 2
#     Edge 17, Type (0, 1), BuildingBlock: EZIPEK_clean_linker_0, # of connection points: 2
#     Edge 18, Type (0, 1), BuildingBlock: EZIPEK_clean_linker_0, # of connection points: 2
#     Edge 19, Type (0, 1), BuildingBlock: EZIPEK_clean_linker_0, # of connection points: 2
#     Edge 20, Type (0, 1), BuildingBlock: EZIPEK_clean_linker_0, # of connection points: 2
#     Edge 21, Type (0, 1), BuildingBlock: EZIPEK_clean_linker_0, # of connection points: 2
#     Edge 22, Type (0, 1), BuildingBlock: EZIPEK_clean_linker_0, # of connection points: 2
#     Edge 23, Type (0, 1), BuildingBlock: EZIPEK_clean_linker_0, # of connection points: 2
#     Edge 24, Type (0, 1), BuildingBlock: EZIPEK_clean_linker_0, # of connection points: 2
#     Edge 25, Type (0, 1), BuildingBlock: EZIPEK_clean_linker_0, # of connection points: 2
#     Edge 26, Type (0, 1), BuildingBlock: EZIPEK_clean_linker_0, # of connection points: 2
#     Edge 27, Type (0, 1), BuildingBlock: EZIPEK_clean_linker_0, # of connection points: 2
#     Edge 28, Type (0, 1), BuildingBlock: EZIPEK_clean_linker_0, # of connection points: 2
#     Edge 29, Type (0, 1), BuildingBlock: EZIPEK_clean_linker_0, # of connection points: 2
#     Edge 30, Type (0, 1), BuildingBlock: EZIPEK_clean_linker_0, # of connection points: 2
#     Edge 31, Type (0, 1), BuildingBlock: EZIPEK_clean_linker_0, # of connection points: 2
#     Edge 32, Type (0, 1), BuildingBlock: EZIPEK_clean_linker_0, # of connection points: 2
#     Edge 33, Type (0, 1), BuildingBlock: EZIPEK_clean_linker_0, # of connection points: 2
#     Edge 34, Type (0, 1), BuildingBlock: EZIPEK_clean_linker_0, # of connection points: 2
#     Edge 35, Type (0, 1), BuildingBlock: EZIPEK_clean_linker_0, # of connection points: 2
# Relax obj value: 0.226
# Max RMSD: 0.251
# Mean RMSD: 0.138
data_MOF--net-zzz--node1-OLANEW_clean_sbu_2--node2-PAMTOO_clean_sbu_0--edge1-EZIPEK_clean_linker_0
_symmetry_space_group_name_H-M    P1
_symmetry_Int_Tables_number       1
_symmetry_cell_setting            triclinic
loop_
_symmetry_equiv_pos_as_xyz
'x, y, z'
_cell_length_a     48.115612
_cell_length_b     38.913352
_cell_length_c     13.229917
_cell_angle_alpha  92.92868
_cell_angle_beta   78.394123
_cell_angle_gamma 84.698172
loop_
_atom_site_label
_atom_site_type_symbol
_atom_site_fract_x
_atom_site_fract_y
_atom_site_fract_z
_atom_type_partial_charge
O0 O 0.76864 0.57487 0.36107 0.0
Cd1 Cd 0.72553 0.61279 0.43245 0.0
O2 O 0.77114 0.57395 0.52327 0.0
Cd3 Cd 0.78964 0.56408 0.65652 0.0
O4 O 0.82077 0.5736 0.7494 0.0
C5 C 0.84078 0.5494 0.73922 0.0
O6 O 0.83972 0.52095 0.68299 0.0
C7 C 0.78123 0.56319 0.42948 0.0
C8 C 0.68252 0.57436 0.39967 0.0
O9 O 0.69272 0.59552 0.33445 0.0
O10 O 0.69133 0.57278 0.48465 0.0
O11 O 0.96559 0.73049 0.44272 0.0
Cd12 Cd 0.95566 0.67422 0.50436 0.0
O13 O 0.00947 0.71662 0.46111 0.0
Cd14 Cd 0.05108 0.73396 0.46111 0.0
O15 O 0.04494 0.78745 0.52105 0.0
C16 C 0.04295 0.79626 0.61613 0.0
O17 O 0.04918 0.77294 0.67874 0.0
C18 C 0.99107 0.73783 0.43387 0.0
C19 C 0.97569 0.62662 0.33682 0.0
O20 O 0.95015 0.64152 0.35437 0.0
O21 O 0.99175 0.63336 0.4001 0.0
O22 O 0.74145 0.02414 0.2092 0.0
Cd23 Cd 0.77835 0.99786 0.29477 0.0
O24 O 0.70818 0.99861 0.30967 0.0
Cd25 Cd 0.72842 0.97151 0.41948 0.0
O26 O 0.68726 0.96591 0.52077 0.0
C27 C 0.67004 0.99338 0.5416 0.0
O28 O 0.67864 0.02285 0.51054 0.0
C29 C 0.71562 0.01785 0.23657 0.0
C30 C 0.83489 -0.00011 0.19099 0.0
O31 O 0.82134 0.97387 0.17614 0.0
O32 O 0.82177 0.02521 0.25334 0.0
O33 O 0.53999 0.69331 0.95316 0.0
Cd34 Cd 0.57307 0.73682 0.95647 0.0
O35 O 0.53754 0.69857 0.12002 0.0
Cd36 Cd 0.5281 0.67639 0.26796 0.0
O37 O 0.52856 0.63195 0.35924 0.0
C38 C 0.52361 0.63536 0.45707 0.0
O39 O 0.51839 0.66644 0.50472 0.0
C40 C 0.53131 0.68293 0.04222 0.0
C41 C 0.54942 0.80453 0.9619 0.0
O42 O 0.56055 0.78727 0.8759 0.0
O43 O 0.54896 0.78969 0.04639 0.0
O44 O 0.25253 0.48013 0.14202 0.0
Cd45 Cd 0.30331 0.47036 0.06691 0.0
O46 O 0.24292 0.43464 0.05602 0.0
Cd47 Cd 0.21346 0.40244 0.00254 0.0
O48 O 0.17697 0.39704 0.93236 0.0
C49 C 0.15915 0.42381 0.95375 0.0
O50 O 0.16451 0.44941 0.01304 0.0
C51 C 0.23441 0.4609 0.11972 0.0
C52 C 0.33159 0.47528 0.22922 0.0
O53 O 0.32227 0.5024 0.19028 0.0
O54 O 0.32851 0.44561 0.18863 0.0
O55 O 0.97137 0.27191 0.18079 0.0
Cd56 Cd 0.98573 0.32503 0.10712 0.0
O57 O 0.0158 0.2578 0.19422 0.0
Cd58 Cd 0.03128 0.2823 0.05313 0.0
O59 O 0.025 0.23148 0.98755 0.0
C60 C 0.04259 0.20557 0.99376 0.0
O61 O 0.06589 0.21053 0.02752 0.0
C62 C 0.98952 0.25331 0.21763 0.0
C63 C 0.99276 0.36524 0.27766 0.0
O64 O 0.01397 0.34612 0.22174 0.0
O65 O 0.96867 0.36682 0.25 0.0
O66 O 0.26273 0.98477 0.39613 0.0
Cd67 Cd 0.22149 0.99201 0.31284 0.0
O68 O 0.26569 0.04021 0.39179 0.0
Cd69 Cd 0.25923 0.03998 0.23377 0.0
O70 O 0.29963 0.04029 0.12123 0.0
C71 C 0.32014 0.01937 0.13609 0.0
O72 O 0.31522 0.99747 0.20824 0.0
C73 C 0.27313 0.01157 0.42509 0.0
C74 C 0.16845 0.9967 0.45033 0.0
O75 O 0.18092 0.96737 0.40862 0.0
O76 O 0.18104 0.02381 0.42858 0.0
O77 O 0.48398 0.29351 0.49572 0.0
Cd78 Cd 0.46971 0.24448 0.4039 0.0
O79 O 0.43972 0.318 0.54279 0.0
Cd80 Cd 0.42559 0.28834 0.42064 0.0
O81 O 0.42991 0.32004 0.28796 0.0
C82 C 0.45501 0.32892 0.26444 0.0
O83 O 0.47516 0.31235 0.30251 0.0
C84 C 0.46592 0.31701 0.54761 0.0
C85 C 0.47046 0.18823 0.52459 0.0
O86 O 0.49269 0.19381 0.4585 0.0
O87 O 0.44766 0.2089 0.5329 0.0
Dy88 Dy 0.98869 0.01747 0.75911 0.0
Dy89 Dy 0.0193 0.98474 0.94142 0.0
C90 C 0.05688 0.00353 0.72239 0.0
O91 O 0.00115 0.9619 0.71119 0.0
O92 O 0.00181 0.94081 0.86821 0.0
O93 O 0.9844 0.02056 0.60067 0.0
O94 O 0.95375 0.05042 0.72375 0.0
O95 O 0.97353 0.0026 0.01313 0.0
O96 O 0.95511 0.99474 0.86848 0.0
O97 O 0.0304 0.03931 0.9361 0.0
O98 O 0.99377 0.06228 0.86384 0.0
O99 O 0.02148 0.98195 0.1029 0.0
O100 O 0.05008 0.94771 0.98565 0.0
C101 C 0.00101 0.93591 0.76997 0.0
O102 O 0.03493 0.02219 0.70066 0.0
O103 O 0.05481 0.9844 0.8023 0.0
C104 C 0.96525 0.07565 0.56538 0.0
C105 C 0.96861 0.13571 0.45711 0.0
C106 C 0.9936 0.11646 0.47004 0.0
C107 C 0.99195 0.08668 0.52443 0.0
C108 C 0.94028 0.09502 0.55264 0.0
C109 C 0.94193 0.12504 0.49919 0.0
C110 C 0.96301 0.04472 0.6242 0.0
C111 C 0.95181 0.99859 0.96905 0.0
C112 C 0.01501 0.06598 0.91079 0.0
C113 C 0.03283 0.92454 0.14315 0.0
C114 C 0.02046 0.86455 0.2465 0.0
C115 C 0.004 0.87661 0.17679 0.0
C116 C 0.01029 0.90625 0.12499 0.0
C117 C 0.04929 0.91253 0.21295 0.0
C118 C 0.04327 0.88251 0.26368 0.0
C119 C 0.0402 0.95471 0.08436 0.0
H120 H 0.01433 0.12458 0.43828 0.0
H121 H 0.01149 0.07238 0.53464 0.0
H122 H 0.91952 0.08701 0.58453 0.0
H123 H 0.92249 0.13983 0.49005 0.0
H124 H 0.98658 0.86278 0.16144 0.0
H125 H 0.99792 0.91458 0.06927 0.0
H126 H 0.06706 0.92597 0.22674 0.0
H127 H 0.0566 0.87299 0.31516 0.0
Dy128 Dy 0.48555 0.98489 0.73313 0.0
Dy129 Dy 0.50363 0.0275 0.93078 0.0
C130 C 0.48173 0.0677 0.75436 0.0
O131 O 0.53333 0.97777 0.69986 0.0
O132 O 0.54005 0.02616 0.79585 0.0
O133 O 0.48292 0.97769 0.57205 0.0
O134 O 0.46451 0.94263 0.68176 0.0
O135 O 0.52221 0.97249 0.92814 0.0
O136 O 0.49072 0.9465 0.8488 0.0
O137 O 0.4586 0.01627 0.98941 0.0
O138 O 0.4451 0.00972 0.83287 0.0
O139 O 0.50943 0.03071 0.08874 0.0
O140 O 0.5208 0.072 0.98962 0.0
C141 C 0.54982 0.00041 0.72621 0.0
O142 O 0.48832 0.03952 0.69197 0.0
O143 O 0.48029 0.06739 0.85448 0.0
C144 C 0.43759 0.96114 0.56332 0.0
C145 C 0.38205 0.97473 0.52836 0.0
C146 C 0.39315 0.99851 0.58851 0.0
C147 C 0.42065 0.99174 0.60579 0.0
C148 C 0.42654 0.93711 0.50349 0.0
C149 C 0.39884 0.94395 0.48565 0.0
C150 C 0.46562 0.95374 0.59005 0.0
C151 C 0.51052 0.94495 0.90371 0.0
C152 C 0.43891 0.01425 0.93398 0.0
C153 C 0.55192 0.05623 0.09969 0.0
C154 C 0.60845 0.0527 0.13004 0.0
C155 C 0.59446 0.02266 0.12914 0.0
C156 C 0.56648 0.02434 0.11376 0.0
C157 C 0.56594 0.08632 0.10138 0.0
C158 C 0.59404 0.08457 0.11593 0.0
C159 C 0.52312 0.05815 0.07556 0.0
H160 H 0.38054 0.02246 0.62152 0.0
H161 H 0.4287 0.01031 0.6531 0.0
H162 H 0.4392 0.91312 0.47133 0.0
H163 H 0.39058 0.92546 0.43839 0.0
H164 H 0.60528 0.99786 0.13994 0.0
H165 H 0.55647 0.00059 0.11143 0.0
H166 H 0.55527 0.11113 0.08985 0.0
H167 H 0.60455 0.108 0.11647 0.0
Dy168 Dy 0.53127 0.47987 0.89637 0.0
Dy169 Dy 0.46237 0.49914 0.89443 0.0
C170 C 0.48356 0.45135 0.05813 0.0
O171 O 0.51796 0.43292 0.82374 0.0
O172 O 0.4809 0.4603 0.76341 0.0
O173 O 0.56634 0.44488 0.92214 0.0
O174 O 0.57354 0.49644 0.87754 0.0
O175 O 0.48686 0.5317 0.7834 0.0
O176 O 0.53043 0.49888 0.74013 0.0
O177 O 0.47029 0.53531 0.01976 0.0
O178 O 0.51851 0.53458 0.95685 0.0
O179 O 0.4272 0.53419 0.86976 0.0
O180 O 0.42044 0.48191 0.90744 0.0
C181 C 0.49826 0.43268 0.76832 0.0
O182 O 0.50609 0.46843 0.05028 0.0
O183 O 0.46587 0.45589 0.99563 0.0
C184 C 0.59723 0.47515 0.00279 0.0
C185 C 0.6196 0.49808 0.17149 0.0
C186 C 0.59346 0.48386 0.18868 0.0
C187 C 0.58217 0.47281 0.10466 0.0
C188 C 0.624 0.48773 0.98616 0.0
C189 C 0.63511 0.49916 0.07004 0.0
C190 C 0.58377 0.46873 0.9143 0.0
C191 C 0.51217 0.52423 0.72383 0.0
C192 C 0.4942 0.54983 0.01046 0.0
C193 C 0.39891 0.50449 0.77814 0.0
C194 C 0.37824 0.49364 0.59645 0.0
C195 C 0.40738 0.48634 0.5951 0.0
C196 C 0.41765 0.49193 0.68521 0.0
C197 C 0.36975 0.51158 0.77992 0.0
C198 C 0.35944 0.50624 0.6893 0.0
C199 C 0.41022 0.50994 0.87209 0.0
H200 H 0.58128 0.4829 0.26664 0.0
H201 H 0.56124 0.46369 0.11931 0.0
H202 H 0.63576 0.49004 0.90828 0.0
H203 H 0.65537 0.51001 0.05579 0.0
H204 H 0.42213 0.47651 0.52422 0.0
H205 H 0.44024 0.4865 0.68232 0.0
H206 H 0.35504 0.52123 0.85102 0.0
H207 H 0.33685 0.51188 0.69139 0.0
Dy208 Dy 0.0184 0.51359 0.72787 0.0
Dy209 Dy 0.98614 0.46132 0.89426 0.0
C210 C 0.99994 0.44182 0.65549 0.0
O211 O 0.97452 0.54013 0.78403 0.0
O212 O 0.95311 0.49096 0.82708 0.0
O213 O 0.02413 0.53129 0.57304 0.0
O214 O 0.04952 0.54914 0.6786 0.0
O215 O 0.98229 0.51324 0.97726 0.0
O216 O 0.02095 0.5362 0.88427 0.0
O217 O 0.03178 0.45622 0.90452 0.0
O218 O 0.05057 0.46979 0.74009 0.0
O219 O 0.98272 0.43746 0.03972 0.0
O220 O 0.95216 0.42921 0.94408 0.0
C221 C 0.95175 0.52348 0.80429 0.0
O222 O 0.99779 0.47518 0.64551 0.0
O223 O 0.00178 0.42928 0.7446 0.0
C224 C 0.07296 0.53408 0.50441 0.0
C225 C 0.12192 0.50792 0.35546 0.0
C226 C 0.12148 0.50572 0.46114 0.0
C227 C 0.09725 0.5185 0.53479 0.0
C228 C 0.07327 0.53603 0.39836 0.0
C229 C 0.09756 0.52288 0.32424 0.0
C230 C 0.04679 0.54601 0.58253 0.0
C231 C 0.00151 0.53521 0.96906 0.0
C232 C 0.05348 0.45695 0.82745 0.0
C233 C 0.93434 0.44179 0.12187 0.0
C234 C 0.88453 0.47388 0.2555 0.0
C235 C 0.90681 0.49328 0.21517 0.0
C236 C 0.93157 0.47733 0.15072 0.0
C237 C 0.91297 0.42176 0.16682 0.0
C238 C 0.8884 0.43764 0.2352 0.0
C239 C 0.95779 0.42742 0.03622 0.0
H240 H 0.13998 0.49407 0.48667 0.0
H241 H 0.09756 0.51593 0.61553 0.0
H242 H 0.05466 0.54744 0.37295 0.0
H243 H 0.0975 0.52461 0.24282 0.0
H244 H 0.90462 0.52114 0.2303 0.0
H245 H 0.94797 0.49325 0.11947 0.0
H246 H 0.91476 0.39423 0.14618 0.0
H247 H 0.87168 0.42204 0.26702 0.0
C248 C 0.13564 0.01339 0.62327 0.0
C249 C 0.13974 0.99926 0.51955 0.0
C250 C 0.0897 0.98689 0.55012 0.0
C251 C 0.08515 0.00307 0.65157 0.0
N252 N 0.10208 0.03778 0.77794 0.0
N253 N 0.11945 0.9788 0.37789 0.0
C254 C 0.10765 0.01806 0.68627 0.0
C255 C 0.11643 0.98766 0.48121 0.0
N256 N 0.15865 0.02097 0.66311 0.0
N257 N 0.06874 0.96984 0.52045 0.0
H258 H 0.13848 0.97959 0.32439 0.0
H259 H 0.10247 0.97374 0.34342 0.0
H260 H 0.04863 0.96961 0.56743 0.0
H261 H 0.07194 0.95383 0.45272 0.0
H262 H 0.15741 0.02778 0.74116 0.0
H263 H 0.17951 0.01752 0.62005 0.0
H264 H 0.11681 0.05258 0.80215 0.0
H265 H 0.08184 0.04193 0.82562 0.0
C266 C 0.49169 0.15691 0.65633 0.0
C267 C 0.47147 0.159 0.59159 0.0
C268 C 0.45352 0.10577 0.65678 0.0
C269 C 0.47656 0.10091 0.70824 0.0
N270 N 0.5197 0.11993 0.74861 0.0
N271 N 0.43529 0.13315 0.51975 0.0
C272 C 0.49614 0.12608 0.70656 0.0
C273 C 0.45277 0.13295 0.58943 0.0
N274 N 0.50602 0.18478 0.67239 0.0
N275 N 0.43194 0.08496 0.67473 0.0
H276 H 0.4344 0.15227 0.46774 0.0
H277 H 0.42355 0.11274 0.50718 0.0
H278 H 0.43135 0.06594 0.72764 0.0
H279 H 0.41331 0.08901 0.64633 0.0
H280 H 0.51882 0.18599 0.72701 0.0
H281 H 0.50288 0.2081 0.63869 0.0
H282 H 0.53637 0.13553 0.73886 0.0
H283 H 0.52374 0.09777 0.78655 0.0
C284 C 0.36538 0.50221 0.32373 0.0
C285 C 0.34482 0.47843 0.32088 0.0
C286 C 0.35016 0.46074 0.49164 0.0
C287 C 0.36739 0.4879 0.50035 0.0
N288 N 0.38815 0.53806 0.43076 0.0
N289 N 0.31307 0.44031 0.41312 0.0
C290 C 0.37412 0.50968 0.41804 0.0
C291 C 0.33604 0.45889 0.40751 0.0
N292 N 0.37769 0.51634 0.23525 0.0
N293 N 0.34767 0.4363 0.56263 0.0
H294 H 0.30075 0.43983 0.35682 0.0
H295 H 0.30426 0.42848 0.47926 0.0
H296 H 0.35788 0.43666 0.62514 0.0
H297 H 0.33783 0.41391 0.55362 0.0
H298 H 0.39478 0.53117 0.23104 0.0
H299 H 0.37321 0.50991 0.16314 0.0
H300 H 0.3909 0.55681 0.37716 0.0
H301 H 0.39482 0.54457 0.4989 0.0
C302 C 0.97876 0.37538 0.47061 0.0
C303 C 0.9956 0.38347 0.37542 0.0
C304 C 0.01954 0.42341 0.46909 0.0
C305 C 1.00004 0.41887 0.56244 0.0
N306 N 0.95786 0.39469 0.6487 0.0
N307 N 0.02901 0.41902 0.28173 0.0
C308 C 0.97887 0.39579 0.5627 0.0
C309 C 0.01529 0.40845 0.37392 0.0
N310 N 0.96329 0.34755 0.47375 0.0
N311 N 0.04256 0.44135 0.47177 0.0
H312 H 0.02613 0.40902 0.21031 0.0
H313 H 0.04118 0.4399 0.27615 0.0
H314 H 0.0469 0.4518 0.54039 0.0
H315 H 0.05887 0.44287 0.40765 0.0
H316 H 0.95318 0.33823 0.54257 0.0
H317 H 0.96279 0.33169 0.40831 0.0
H318 H 0.94009 0.38127 0.64899 0.0
H319 H 0.95673 0.40961 0.71737 0.0
C320 C 0.87279 0.02626 0.06861 0.0
C321 C 0.86515 0.00047 0.13817 0.0
C322 C 0.9146 0.97323 0.09747 0.0
C323 C 0.92252 0.00018 0.03281 0.0
N324 N 0.91069 0.0562 0.97374 0.0
N325 N 0.87963 0.95357 0.23504 0.0
C326 C 0.90204 0.02786 0.02339 0.0
C327 C 0.88632 0.97511 0.15727 0.0
N328 N 0.85202 0.04825 0.04202 0.0
N329 N 0.93378 0.94514 0.09858 0.0
H330 H 0.85924 0.95437 0.28122 0.0
H331 H 0.89478 0.93708 0.26 0.0
H332 H 0.95465 0.94308 0.05616 0.0
H333 H 0.92843 0.92281 0.13474 0.0
H334 H 0.85604 0.06497 0.983 0.0
H335 H 0.83033 0.04774 0.07258 0.0
H336 H 0.89726 0.07874 0.97342 0.0
H337 H 0.93201 0.05851 0.94123 0.0
C338 C 0.5104 0.85403 0.99555 0.0
C339 C 0.53967 0.84165 0.96266 0.0
C340 C 0.55017 0.89731 0.89572 0.0
C341 C 0.52111 0.91048 0.93195 0.0
N342 N 0.47499 0.90404 0.03693 0.0
N343 N 0.5884 0.85413 0.91003 0.0
C344 C 0.50163 0.88963 0.98846 0.0
C345 C 0.55987 0.86421 0.9222 0.0
N346 N 0.49087 0.83156 0.02911 0.0
N347 N 0.56813 0.91511 0.82953 0.0
H348 H 0.59631 0.83006 0.92974 0.0
H349 H 0.60401 0.87091 0.89082 0.0
H350 H 0.56156 0.93851 0.80325 0.0
H351 H 0.58863 0.90497 0.7921 0.0
H352 H 0.46891 0.83826 0.04293 0.0
H353 H 0.49659 0.80543 0.03629 0.0
H354 H 0.46074 0.89102 0.08719 0.0
H355 H 0.46811 0.93017 0.0346 0.0
C356 C 0.67081 0.51605 0.34348 0.0
C357 C 0.66182 0.55152 0.37353 0.0
C358 C 0.61991 0.54864 0.29668 0.0
C359 C 0.63037 0.51415 0.25801 0.0
N360 N 0.65995 0.46179 0.26864 0.0
N361 N 0.62512 0.59916 0.40514 0.0
C362 C 0.6539 0.49673 0.29005 0.0
C363 C 0.63521 0.56689 0.35948 0.0
N364 N 0.69637 0.50158 0.3599 0.0
N365 N 0.59617 0.56424 0.26925 0.0
H366 H 0.63586 0.61234 0.45362 0.0
H367 H 0.60551 0.61205 0.40137 0.0
H368 H 0.58439 0.55136 0.22432 0.0
H369 H 0.58835 0.59005 0.28812 0.0
H370 H 0.70598 0.4773 0.32824 0.0
H371 H 0.70871 0.51453 0.40252 0.0
H372 H 0.67533 0.44679 0.29697 0.0
H373 H 0.64769 0.44725 0.22956 0.0
C374 C 0.98844 0.61811 0.14442 0.0
C375 C 0.98674 0.60384 0.24175 0.0
C376 C 0.00319 0.5464 0.15488 0.0
C377 C 0.00028 0.55977 0.05924 0.0
N378 N 0.98811 0.60794 0.96268 0.0
N379 N 0.991 0.55431 0.34217 0.0
C380 C 0.99273 0.59561 0.05346 0.0
C381 C 0.99407 0.56798 0.24785 0.0
N382 N 0.98656 0.65322 0.1389 0.0
N383 N 0.01515 0.5132 0.15624 0.0
H384 H 0.98461 0.56935 0.41199 0.0
H385 H 0.99286 0.52784 0.35152 0.0
H386 H 0.02241 0.49694 0.0891 0.0
H387 H 0.0204 0.50289 0.22189 0.0
H388 H 0.99056 0.66513 0.06946 0.0
H389 H 0.98373 0.67049 0.20403 0.0
H390 H 0.97908 0.63298 0.95718 0.0
H391 H 0.99141 0.59253 0.89374 0.0
C392 C 0.97042 0.19585 0.23852 0.0
C393 C 0.98067 0.22498 0.28276 0.0
C394 C 0.97802 0.19764 0.44674 0.0
C395 C 0.97063 0.16725 0.3993 0.0
N396 N 0.96041 0.13597 0.2513 0.0
N397 N 0.99507 0.25414 0.42614 0.0
C398 C 0.96658 0.16611 0.29589 0.0
C399 C 0.98462 0.22606 0.3863 0.0
N400 N 0.96509 0.19632 0.14075 0.0
N401 N 0.97792 0.1995 0.55042 0.0
H402 H 0.9982 0.27651 0.38701 0.0
H403 H 0.00189 0.2549 0.49594 0.0
H404 H 0.97309 0.17913 0.59699 0.0
H405 H 0.98039 0.22192 0.59255 0.0
H406 H 0.95474 0.17777 0.10778 0.0
H407 H 0.96983 0.21626 0.0926 0.0
H408 H 0.95984 0.13195 0.1735 0.0
H409 H 0.95748 0.11365 0.2908 0.0
C410 C 0.30166 0.9804 0.54042 0.0
C411 C 0.29863 0.00763 0.47425 0.0
C412 C 0.35024 0.01017 0.43816 0.0
C413 C 0.3534 0.98383 0.50584 0.0
N414 N 0.33198 0.94819 0.63738 0.0
N415 N 0.31936 0.05836 0.4046 0.0
C416 C 0.32903 0.97014 0.56191 0.0
C417 C 0.32262 0.02567 0.43649 0.0
N418 N 0.27828 0.96478 0.58366 0.0
N419 N 0.37364 0.02029 0.37437 0.0
H420 H 0.29984 0.07345 0.41739 0.0
H421 H 0.3365 0.07279 0.3825 0.0
H422 H 0.39438 0.00935 0.37275 0.0
H423 H 0.3721 0.03688 0.31587 0.0
H424 H 0.27938 0.94198 0.6212 0.0
H425 H 0.25757 0.97466 0.58056 0.0
H426 H 0.31485 0.94004 0.68848 0.0
H427 H 0.35176 0.93977 0.65345 0.0
C428 C 0.48242 0.34091 0.70241 0.0
C429 C 0.47597 0.34552 0.60391 0.0
C430 C 0.49326 0.40263 0.60437 0.0
C431 C 0.49493 0.4006 0.70919 0.0
N432 N 0.48763 0.36899 0.86366 0.0
N433 N 0.47083 0.38329 0.46805 0.0
C434 C 0.48898 0.36988 0.75978 0.0
C435 C 0.48017 0.3771 0.55669 0.0
N436 N 0.48199 0.3091 0.74159 0.0
N437 N 0.50484 0.42855 0.54974 0.0
H438 H 0.46023 0.36561 0.43316 0.0
H439 H 0.47083 0.40723 0.4361 0.0
H440 H 0.51605 0.4465 0.58177 0.0
H441 H 0.50626 0.42973 0.47036 0.0
H442 H 0.4895 0.30342 0.80805 0.0
H443 H 0.47617 0.28765 0.70326 0.0
H444 H 0.48012 0.34875 0.90628 0.0
H445 H 0.49173 0.38971 0.90914 0.0
C446 C 0.18657 0.44748 0.22131 0.0
C447 C 0.20361 0.47083 0.1646 0.0
C448 C 0.16579 0.51835 0.22543 0.0
C449 C 0.14841 0.49483 0.27909 0.0
N450 N 0.13895 0.43582 0.3041 0.0
N451 N 0.20568 0.52559 0.08712 0.0
C452 C 0.15774 0.45893 0.2689 0.0
C453 C 0.19199 0.50538 0.15857 0.0
N454 N 0.19822 0.41514 0.23526 0.0
N455 N 0.15814 0.55321 0.24226 0.0
H456 H 0.2244 0.51651 0.03418 0.0
H457 H 0.19684 0.54988 0.07286 0.0
H458 H 0.13925 0.56397 0.29121 0.0
H459 H 0.17171 0.57151 0.21435 0.0
H460 H 0.18753 0.39854 0.28512 0.0
H461 H 0.21937 0.40586 0.20394 0.0
H462 H 0.14373 0.40913 0.28977 0.0
H463 H 0.11763 0.44349 0.3384 0.0
C464 C 0.0185 0.76887 0.29128 0.0
C465 C 0.99952 0.77046 0.38906 0.0
C466 C 0.99416 0.83396 0.39386 0.0
C467 C 0.01423 0.8323 0.29857 0.0
N468 N 0.0492 0.799 0.16476 0.0
N469 N 0.97305 0.80389 0.54217 0.0
C470 C 0.02759 0.79996 0.24997 0.0
C471 C 0.98831 0.80288 0.44281 0.0
N472 N 0.02675 0.73773 0.23544 0.0
N473 N 0.98027 0.8652 0.43632 0.0
H474 H 0.96866 0.78163 0.58051 0.0
H475 H 0.96682 0.82656 0.58979 0.0
H476 H 0.98468 0.88855 0.40433 0.0
H477 H 0.96321 0.86796 0.49955 0.0
H478 H 0.03781 0.73525 0.15882 0.0
H479 H 0.02056 0.71432 0.2625 0.0
H480 H 0.06205 0.7765 0.13289 0.0
H481 H 0.05586 0.82118 0.1303 0.0
C482 C 0.67144 0.05793 0.26227 0.0
C483 C 0.69245 0.03539 0.19347 0.0
C484 C 0.66086 0.03396 0.06988 0.0
C485 C 0.6381 0.05046 0.14762 0.0
N486 N 0.62111 0.07611 0.32194 0.0
N487 N 0.70782 0.00154 0.03114 0.0
C488 C 0.64328 0.06246 0.24451 0.0
C489 C 0.68758 0.02375 0.09604 0.0
N490 N 0.67855 0.07477 0.34507 0.0
N491 N 0.65692 0.02836 0.97122 0.0
H492 H 0.7279 0.99463 0.04695 0.0
H493 H 0.70423 0.98876 0.9646 0.0
H494 H 0.63765 0.0359 0.94989 0.0
H495 H 0.67338 0.01932 0.90906 0.0
H496 H 0.66486 0.09382 0.3935 0.0
H497 H 0.69926 0.07205 0.3587 0.0
H498 H 0.62326 0.08131 0.39784 0.0
H499 H 0.60003 0.0796 0.31277 0.0
C500 C 0.49204 0.64735 0.01439 0.0
C501 C 0.51714 0.65061 0.05341 0.0
C502 C 0.51582 0.5916 0.10833 0.0
C503 C 0.49486 0.58595 0.05034 0.0
N504 N 0.46321 0.60846 0.94341 0.0
N505 N 0.55602 0.62288 0.12072 0.0
C506 C 0.48253 0.614 0.00365 0.0
C507 C 0.52965 0.62217 0.09766 0.0
N508 N 0.4773 0.67605 0.98801 0.0
N509 N 0.52309 0.56706 0.17118 0.0
H510 H 0.56783 0.64404 0.11026 0.0
H511 H 0.56737 0.60097 0.14 0.0
H512 H 0.51319 0.54428 0.17932 0.0
H513 H 0.53635 0.57127 0.2229 0.0
H514 H 0.45746 0.67575 0.96796 0.0
H515 H 0.48368 0.70081 0.99562 0.0
H516 H 0.45655 0.62674 0.89607 0.0
H517 H 0.45485 0.58493 0.93673 0.0
C518 C 0.83289 0.5426 0.42747 0.0
C519 C 0.80675 0.53734 0.39819 0.0
C520 C 0.83132 0.4896 0.27526 0.0
C521 C 0.85682 0.49257 0.3123 0.0
N522 N 0.87916 0.51631 0.44421 0.0
N523 N 0.77984 0.49904 0.31607 0.0
C524 C 0.85665 0.51718 0.39555 0.0
C525 C 0.80556 0.50854 0.3294 0.0
N526 N 0.83595 0.57292 0.47843 0.0
N527 N 0.83177 0.47098 0.1844 0.0
H528 H 0.76047 0.51161 0.35704 0.0
H529 H 0.77788 0.47643 0.27344 0.0
H530 H 0.85035 0.45864 0.13726 0.0
H531 H 0.8141 0.47113 0.14992 0.0
H532 H 0.85587 0.57968 0.48637 0.0
H533 H 0.81944 0.59277 0.50142 0.0
H534 H 0.87924 0.53244 0.50947 0.0
H535 H 0.8964 0.49716 0.42549 0.0
C536 C 0.03182 0.15911 0.87282 0.0
C537 C 0.03551 0.16986 0.97287 0.0
C538 C 0.02385 0.11319 0.03479 0.0
C539 C 0.0222 0.10167 0.93272 0.0
N540 N 0.02982 0.11156 0.75058 0.0
N541 N 0.03645 0.15724 0.14926 0.0
C542 C 0.02736 0.12414 0.85081 0.0
C543 C 0.03223 0.14677 0.05366 0.0
N544 N 0.03271 0.18227 0.79811 0.0
N545 N 0.01588 0.09275 0.11462 0.0
H546 H 0.03929 0.18264 0.1704 0.0
H547 H 0.03813 0.14066 0.20746 0.0
H548 H 0.0081 0.06893 0.10495 0.0
H549 H 0.01464 0.1002 0.19212 0.0
H550 H 0.02597 0.17753 0.72912 0.0
H551 H 0.03854 0.2072 0.80706 0.0
H552 H 0.0369 0.12538 0.68671 0.0
H553 H 0.02738 0.0861 0.72971 0.0
C554 C 0.36497 0.04887 0.08839 0.0
C555 C 0.34968 0.01988 0.07631 0.0
C556 C 0.3935 0.98667 0.97879 0.0
C557 C 0.40845 0.01619 0.98587 0.0
N558 N 0.40766 0.07716 0.03031 0.0
N559 N 0.34771 0.96403 0.99238 0.0
C560 C 0.39398 0.04783 0.03589 0.0
C561 C 0.3635 0.98959 0.01629 0.0
N562 N 0.35219 0.07681 0.15343 0.0
N563 N 0.40817 0.95545 0.93974 0.0
H564 H 0.3256 0.9656 0.01735 0.0
H565 H 0.35601 0.94297 0.93983 0.0
H566 H 0.4302 0.95214 0.91222 0.0
H567 H 0.39897 0.93223 0.94293 0.0
H568 H 0.36322 0.09675 0.17549 0.0
H569 H 0.33088 0.07898 0.19169 0.0
H570 H 0.39736 0.10178 0.05468 0.0
H571 H 0.42896 0.07731 0.99366 0.0
C572 C 0.44372 0.39305 0.2446 0.0
C573 C 0.46118 0.36115 0.21233 0.0
C574 C 0.49785 0.39286 0.11339 0.0
C575 C 0.47859 0.42343 0.13014 0.0
N576 N 0.43231 0.45245 0.20832 0.0
N577 N 0.50224 0.33043 0.097 0.0
C578 C 0.45124 0.42339 0.19468 0.0
C579 C 0.48754 0.36103 0.14146 0.0
N580 N 0.42109 0.39525 0.32675 0.0
N581 N 0.52596 0.39392 0.07047 0.0
H582 H 0.49461 0.30652 0.11107 0.0
H583 H 0.52017 0.32906 0.03715 0.0
H584 H 0.53464 0.4169 0.05417 0.0
H585 H 0.54122 0.37266 0.06417 0.0
H586 H 0.40988 0.41867 0.35978 0.0
H587 H 0.41516 0.37454 0.36989 0.0
H588 H 0.41076 0.45226 0.24097 0.0
H589 H 0.43794 0.4762 0.18206 0.0
C590 C 0.11299 0.40513 0.91883 0.0
C591 C 0.13425 0.42841 0.90467 0.0
C592 C 0.10304 0.46971 0.83524 0.0
C593 C 0.08225 0.44585 0.844 0.0
N594 N 0.07002 0.38781 0.87048 0.0
N595 N 0.15294 0.47721 0.8191 0.0
C596 C 0.08809 0.41248 0.87812 0.0
C597 C 0.13038 0.45884 0.85273 0.0
N598 N 0.11571 0.37718 0.97591 0.0
N599 N 0.09622 0.5035 0.81813 0.0
H600 H 0.1736 0.46936 0.82798 0.0
H601 H 0.15172 0.49786 0.77244 0.0
H602 H 0.07602 0.51335 0.80985 0.0
H603 H 0.10988 0.52256 0.82244 0.0
H604 H 0.09935 0.36166 0.99839 0.0
H605 H 0.13349 0.37101 0.00784 0.0
H606 H 0.07453 0.36208 0.88529 0.0
H607 H 0.05182 0.39233 0.83948 0.0
C608 C 0.00717 0.83726 0.74373 0.0
C609 C 0.03027 0.83174 0.65631 0.0
C610 C 0.02178 0.89218 0.62131 0.0
C611 C 0.00472 0.89969 0.72191 0.0
N612 N 0.97731 0.87815 0.87437 0.0
N613 N 0.06274 0.85669 0.52258 0.0
C614 C 0.99637 0.8718 0.78233 0.0
C615 C 0.03854 0.86001 0.59821 0.0
N616 N 0.99417 0.80991 0.78519 0.0
N617 N 0.02074 0.91435 0.54532 0.0
H618 H 0.07659 0.83394 0.50605 0.0
H619 H 0.0706 0.87786 0.48536 0.0
H620 H 0.00481 0.93484 0.55189 0.0
H621 H 0.03246 0.90887 0.47014 0.0
H622 H 0.97568 0.81275 0.84273 0.0
H623 H 0.99981 0.78443 0.75467 0.0
H624 H 0.97365 0.85981 0.92893 0.0
H625 H 0.96532 0.90207 0.89602 0.0
C626 C 0.63093 0.98753 0.69434 0.0
C627 C 0.63951 0.99198 0.58751 0.0
C628 C 0.58944 0.00045 0.57029 0.0
C629 C 0.58072 0.99669 0.6779 0.0
N630 N 0.59275 0.99132 0.84602 0.0
N631 N 0.62811 0.99623 0.41907 0.0
C632 C 0.60136 0.99136 0.74094 0.0
C633 C 0.61906 0.99671 0.52413 0.0
N634 N 0.65115 0.97878 0.75064 0.0
N635 N 0.56944 0.00992 0.51372 0.0
H636 H 0.6496 0.99328 0.38261 0.0
H637 H 0.6146 0.99595 0.3668 0.0
H638 H 0.54758 0.01331 0.54481 0.0
H639 H 0.57434 0.01714 0.43807 0.0
H640 H 0.64654 0.97064 0.82531 0.0
H641 H 0.673 0.97716 0.72006 0.0
H642 H 0.60646 0.99189 0.89748 0.0
H643 H 0.57151 0.99258 0.88387 0.0
C644 C 0.5041 0.57957 0.50531 0.0
C645 C 0.52338 0.60433 0.51678 0.0
C646 C 0.53918 0.5727 0.65393 0.0
C647 C 0.52031 0.54762 0.64108 0.0
N648 N 0.48928 0.52285 0.54234 0.0
N649 N 0.56357 0.62076 0.58457 0.0
C650 C 0.50435 0.54962 0.56215 0.0
C651 C 0.54228 0.59972 0.5857 0.0
N652 N 0.48426 0.58577 0.44562 0.0
N653 N 0.55283 0.57197 0.7351 0.0
H654 H 0.56643 0.64104 0.53619 0.0
H655 H 0.57996 0.61626 0.62459 0.0
H656 H 0.55204 0.55199 0.78467 0.0
H657 H 0.56356 0.5922 0.75725 0.0
H658 H 0.46765 0.5706 0.44325 0.0
H659 H 0.4827 0.60783 0.40479 0.0
H660 H 0.47951 0.5209 0.47915 0.0
H661 H 0.48867 0.50093 0.58449 0.0
C662 C 0.87206 0.53845 0.86571 0.0
C663 C 0.86694 0.55443 0.77698 0.0
C664 C 0.91772 0.55832 0.71589 0.0
C665 C 0.92319 0.54088 0.8028 0.0
N666 N 0.90523 0.52764 0.97851 0.0
N667 N 0.88261 0.59287 0.64566 0.0
C668 C 0.90015 0.53535 0.884 0.0
C669 C 0.88906 0.56905 0.71174 0.0
N670 N 0.85036 0.52536 0.93036 0.0
N671 N 0.9392 0.56224 0.63374 0.0
H672 H 0.86157 0.60216 0.64563 0.0
H673 H 0.8979 0.60624 0.60114 0.0
H674 H 0.96053 0.55381 0.63047 0.0
H675 H 0.93544 0.57138 0.56449 0.0
H676 H 0.85355 0.50989 0.9899 0.0
H677 H 0.82927 0.52885 0.92102 0.0
H678 H 0.88901 0.52593 0.04279 0.0
H679 H 0.92557 0.52706 0.99488 0.0
loop_
_geom_bond_atom_site_label_1
_geom_bond_atom_site_label_2
_geom_bond_distance
_geom_bond_site_symmetry_2
_ccdc_geom_bond_type
O0 Cd1 2.300 . S
O0 C7 1.275 . S
Cd1 O0 2.300 . S
Cd1 O9 2.381 . S
Cd1 O10 2.378 . S
O2 Cd3 2.385 . S
O2 C7 1.255 . S
Cd3 O2 2.385 . S
Cd3 O4 2.317 . S
O4 Cd3 2.317 . S
O4 C5 1.232 . S
C5 O4 1.232 . S
C5 O6 1.218 . S
O6 C5 1.218 . S
C7 O0 1.275 . S
C7 O2 1.255 . S
C8 O9 1.258 . S
C8 O10 1.256 . S
O9 Cd1 2.381 . S
O9 C8 1.258 . S
O10 Cd1 2.378 . S
O10 C8 1.256 . S
O11 Cd12 2.300 1_655 S
O11 C18 1.275 1_655 S
Cd12 O11 2.300 1_455 S
Cd12 O20 2.381 1_455 S
Cd12 O21 2.378 . S
O13 Cd14 2.385 . S
O13 C18 1.255 . S
Cd14 O13 2.385 . S
Cd14 O15 2.317 . S
O15 Cd14 2.317 . S
O15 C16 1.232 . S
C16 O15 1.232 . S
C16 O17 1.218 . S
O17 C16 1.218 . S
C18 O11 1.275 1_455 S
C18 O13 1.255 . S
C19 O20 1.258 1_455 S
C19 O21 1.256 . S
O20 Cd12 2.381 1_655 S
O20 C19 1.258 1_655 S
O21 Cd12 2.378 . S
O21 C19 1.256 . S
O22 Cd23 2.300 1_565 S
O22 C29 1.275 1_565 S
Cd23 O22 2.300 1_545 S
Cd23 O31 2.381 1_545 S
Cd23 O32 2.378 . S
O24 Cd25 2.385 . S
O24 C29 1.255 . S
Cd25 O24 2.385 . S
Cd25 O26 2.317 . S
O26 Cd25 2.317 . S
O26 C27 1.232 . S
C27 O26 1.232 . S
C27 O28 1.218 . S
O28 C27 1.218 . S
C29 O22 1.275 1_545 S
C29 O24 1.255 . S
C30 O31 1.258 1_545 S
C30 O32 1.256 . S
O31 Cd23 2.381 1_565 S
O31 C30 1.258 1_565 S
O32 Cd23 2.378 . S
O32 C30 1.256 . S
O33 Cd34 2.300 . S
O33 C40 1.275 . S
Cd34 O33 2.300 . S
Cd34 O42 2.381 . S
Cd34 O43 2.378 . S
O35 Cd36 2.385 . S
O35 C40 1.255 . S
Cd36 O35 2.385 . S
Cd36 O37 2.317 . S
O37 Cd36 2.317 . S
O37 C38 1.232 . S
C38 O37 1.232 . S
C38 O39 1.218 . S
O39 C38 1.218 . S
C40 O33 1.275 . S
C40 O35 1.255 . S
C41 O42 1.258 . S
C41 O43 1.256 . S
O42 Cd34 2.381 . S
O42 C41 1.258 . S
O43 Cd34 2.378 . S
O43 C41 1.256 . S
O44 Cd45 2.300 . S
O44 C51 1.275 . S
Cd45 O44 2.300 . S
Cd45 O53 2.381 . S
Cd45 O54 2.378 . S
O46 Cd47 2.385 1_554 S
O46 C51 1.255 . S
Cd47 O46 2.385 1_556 S
Cd47 O48 2.317 . S
O48 Cd47 2.317 . S
O48 C49 1.232 . S
C49 O48 1.232 . S
C49 O50 1.218 . S
O50 C49 1.218 . S
C51 O44 1.275 . S
C51 O46 1.255 . S
C52 O53 1.258 . S
C52 O54 1.256 . S
O53 Cd45 2.381 . S
O53 C52 1.258 . S
O54 Cd45 2.378 . S
O54 C52 1.256 . S
O55 Cd56 2.300 1_655 S
O55 C62 1.275 1_655 S
Cd56 O55 2.300 1_455 S
Cd56 O64 2.381 1_455 S
Cd56 O65 2.378 . S
O57 Cd58 2.385 . S
O57 C62 1.255 . S
Cd58 O57 2.385 . S
Cd58 O59 2.317 1_554 S
O59 Cd58 2.317 1_556 S
O59 C60 1.232 . S
C60 O59 1.232 . S
C60 O61 1.218 . S
O61 C60 1.218 . S
C62 O55 1.275 1_455 S
C62 O57 1.255 . S
C63 O64 1.258 1_455 S
C63 O65 1.256 . S
O64 Cd56 2.381 1_655 S
O64 C63 1.258 1_655 S
O65 Cd56 2.378 . S
O65 C63 1.256 . S
O66 Cd67 2.300 1_565 S
O66 C73 1.275 1_565 S
Cd67 O66 2.300 1_545 S
Cd67 O75 2.381 1_545 S
Cd67 O76 2.378 . S
O68 Cd69 2.385 . S
O68 C73 1.255 . S
Cd69 O68 2.385 . S
Cd69 O70 2.317 . S
O70 Cd69 2.317 . S
O70 C71 1.232 . S
C71 O70 1.232 . S
C71 O72 1.218 . S
O72 C71 1.218 . S
C73 O66 1.275 1_545 S
C73 O68 1.255 . S
C74 O75 1.258 1_545 S
C74 O76 1.256 . S
O75 Cd67 2.381 1_565 S
O75 C74 1.258 1_565 S
O76 Cd67 2.378 . S
O76 C74 1.256 . S
O77 Cd78 2.300 . S
O77 C84 1.275 . S
Cd78 O77 2.300 . S
Cd78 O86 2.381 . S
Cd78 O87 2.378 . S
O79 Cd80 2.385 . S
O79 C84 1.255 . S
Cd80 O79 2.385 . S
Cd80 O81 2.317 . S
O81 Cd80 2.317 . S
O81 C82 1.232 . S
C82 O81 1.232 . S
C82 O83 1.218 . S
O83 C82 1.218 . S
C84 O77 1.275 . S
C84 O79 1.255 . S
C85 O86 1.258 . S
C85 O87 1.256 . S
O86 Cd78 2.381 . S
O86 C85 1.258 . S
O87 Cd78 2.378 . S
O87 C85 1.256 . S
Dy88 O91 2.307 1_545 S
Dy88 O93 2.395 1_655 S
Dy88 O94 2.379 . S
Dy88 O96 2.339 . S
Dy88 O98 2.298 . S
Dy88 O102 2.275 1_655 S
Dy88 C110 2.738 . S
Dy89 O92 2.298 . S
Dy89 O95 2.275 1_455 S
Dy89 O97 2.307 1_565 S
Dy89 O99 2.395 1_456 S
Dy89 O100 2.379 1_556 S
Dy89 O103 2.339 . S
Dy89 C119 2.738 1_556 S
C90 O102 1.254 1_565 S
C90 O103 1.257 . S
O91 Dy88 2.307 1_565 S
O91 C101 1.266 . S
O92 Dy89 2.298 . S
O92 C101 1.236 1_455 S
O93 Dy88 2.395 1_455 S
O93 C110 1.255 1_455 S
O94 Dy88 2.379 . S
O94 C110 1.249 . S
O95 Dy89 2.275 1_655 S
O95 C111 1.254 1_565 S
O96 Dy88 2.339 . S
O96 C111 1.257 . S
O97 Dy89 2.307 1_545 S
O97 C112 1.266 . S
O98 Dy88 2.298 . S
O98 C112 1.236 1_655 S
O99 Dy89 2.395 1_654 S
O99 C119 1.255 1_655 S
O100 Dy89 2.379 1_554 S
O100 C119 1.249 . S
C101 O91 1.266 . S
C101 O92 1.236 1_655 S
O102 Dy88 2.275 1_455 S
O102 C90 1.254 1_545 S
O103 Dy89 2.339 . S
O103 C90 1.257 . S
C104 C107 1.344 1_655 S
C104 C108 1.328 . S
C104 C110 1.516 . S
C105 C106 1.304 1_655 S
C105 C109 1.323 . S
C106 C105 1.304 1_455 S
C106 C107 1.371 . S
C106 H120 0.930 . S
C107 C104 1.344 1_455 S
C107 C106 1.371 . S
C107 H121 0.931 . S
C108 C104 1.328 . S
C108 C109 1.433 . S
C108 H122 0.931 . S
C109 C105 1.323 . S
C109 C108 1.433 . S
C109 H123 0.933 . S
C110 Dy88 2.738 . S
C110 O93 1.255 1_655 S
C110 O94 1.249 . S
C110 C104 1.516 . S
C111 O95 1.254 1_545 S
C111 O96 1.257 . S
C112 O97 1.266 . S
C112 O98 1.236 1_455 S
C113 C116 1.344 1_455 S
C113 C117 1.328 . S
C113 C119 1.516 . S
C114 C115 1.304 1_455 S
C114 C118 1.323 . S
C115 C114 1.304 1_655 S
C115 C116 1.371 . S
C115 H124 0.930 . S
C116 C113 1.344 1_655 S
C116 C115 1.371 . S
C116 H125 0.931 . S
C117 C113 1.328 . S
C117 C118 1.433 . S
C117 H126 0.931 . S
C118 C114 1.323 . S
C118 C117 1.433 . S
C118 H127 0.933 . S
C119 Dy89 2.738 1_554 S
C119 O99 1.255 1_455 S
C119 O100 1.249 . S
C119 C113 1.516 . S
H120 C106 0.930 . S
H121 C107 0.931 . S
H122 C108 0.931 . S
H123 C109 0.933 . S
H124 C115 0.930 . S
H125 C116 0.931 . S
H126 C117 0.931 . S
H127 C118 0.933 . S
Dy128 O131 2.307 . S
Dy128 O133 2.395 1_565 S
Dy128 O134 2.379 . S
Dy128 O136 2.339 . S
Dy128 O138 2.298 . S
Dy128 O142 2.275 1_565 S
Dy128 C150 2.738 . S
Dy129 O132 2.298 . S
Dy129 O135 2.275 1_545 S
Dy129 O137 2.307 . S
Dy129 O139 2.395 1_546 S
Dy129 O140 2.379 1_556 S
Dy129 O143 2.339 . S
Dy129 C159 2.738 1_556 S
C130 O142 1.254 . S
C130 O143 1.257 . S
O131 Dy128 2.307 . S
O131 C141 1.266 . S
O132 Dy129 2.298 . S
O132 C141 1.236 1_545 S
O133 Dy128 2.395 1_545 S
O133 C150 1.255 1_545 S
O134 Dy128 2.379 . S
O134 C150 1.249 . S
O135 Dy129 2.275 1_565 S
O135 C151 1.254 . S
O136 Dy128 2.339 . S
O136 C151 1.257 . S
O137 Dy129 2.307 . S
O137 C152 1.266 . S
O138 Dy128 2.298 . S
O138 C152 1.236 1_565 S
O139 Dy129 2.395 1_564 S
O139 C159 1.255 1_565 S
O140 Dy129 2.379 1_554 S
O140 C159 1.249 . S
C141 O131 1.266 . S
C141 O132 1.236 1_565 S
O142 Dy128 2.275 1_545 S
O142 C130 1.254 . S
O143 Dy129 2.339 . S
O143 C130 1.257 . S
C144 C147 1.344 1_565 S
C144 C148 1.328 . S
C144 C150 1.516 . S
C145 C146 1.276 1_565 S
C145 C149 1.323 . S
C146 C145 1.276 1_545 S
C146 C147 1.375 . S
C146 H160 0.957 . S
C147 C144 1.344 1_545 S
C147 C146 1.375 . S
C147 H161 0.931 . S
C148 C144 1.328 . S
C148 C149 1.433 . S
C148 H162 0.931 . S
C149 C145 1.323 . S
C149 C148 1.433 . S
C149 H163 0.933 . S
C150 Dy128 2.738 . S
C150 O133 1.255 1_565 S
C150 O134 1.249 . S
C150 C144 1.516 . S
C151 O135 1.254 . S
C151 O136 1.257 . S
C152 O137 1.266 . S
C152 O138 1.236 1_545 S
C153 C156 1.344 1_545 S
C153 C157 1.328 . S
C153 C159 1.516 . S
C154 C155 1.282 1_545 S
C154 C158 1.323 . S
C155 C154 1.282 1_565 S
C155 C156 1.374 . S
C155 H164 0.951 . S
C156 C153 1.344 1_565 S
C156 C155 1.374 . S
C156 H165 0.931 . S
C157 C153 1.328 . S
C157 C158 1.433 . S
C157 H166 0.931 . S
C158 C154 1.323 . S
C158 C157 1.433 . S
C158 H167 0.933 . S
C159 Dy129 2.738 1_554 S
C159 O139 1.255 1_545 S
C159 O140 1.249 . S
C159 C153 1.516 . S
H160 C146 0.957 . S
H161 C147 0.931 . S
H162 C148 0.931 . S
H163 C149 0.933 . S
H164 C155 0.951 . S
H165 C156 0.931 . S
H166 C157 0.931 . S
H167 C158 0.933 . S
Dy168 O171 2.307 . S
Dy168 O173 2.395 . S
Dy168 O174 2.379 . S
Dy168 O176 2.339 . S
Dy168 O178 2.298 . S
Dy168 O182 2.275 . S
Dy168 C190 2.738 . S
Dy169 O172 2.298 . S
Dy169 O175 2.275 . S
Dy169 O177 2.307 . S
Dy169 O179 2.395 . S
Dy169 O180 2.379 . S
Dy169 O183 2.339 . S
Dy169 C199 2.738 . S
C170 O182 1.254 . S
C170 O183 1.257 . S
O171 Dy168 2.307 . S
O171 C181 1.266 . S
O172 Dy169 2.298 . S
O172 C181 1.236 . S
O173 Dy168 2.395 . S
O173 C190 1.255 . S
O174 Dy168 2.379 . S
O174 C190 1.249 . S
O175 Dy169 2.275 . S
O175 C191 1.254 . S
O176 Dy168 2.339 . S
O176 C191 1.257 . S
O177 Dy169 2.307 . S
O177 C192 1.266 . S
O178 Dy168 2.298 . S
O178 C192 1.236 . S
O179 Dy169 2.395 . S
O179 C199 1.255 . S
O180 Dy169 2.379 . S
O180 C199 1.249 . S
C181 O171 1.266 . S
C181 O172 1.236 . S
O182 Dy168 2.275 . S
O182 C170 1.254 . S
O183 Dy169 2.339 . S
O183 C170 1.257 . S
C184 C187 1.344 . S
C184 C188 1.328 1_554 S
C184 C190 1.516 1_554 S
C185 C186 1.304 . S
C185 C189 1.323 . S
C186 C185 1.304 . S
C186 C187 1.371 . S
C186 H200 0.930 . S
C187 C184 1.344 . S
C187 C186 1.371 . S
C187 H201 0.931 . S
C188 C184 1.328 1_556 S
C188 C189 1.433 1_556 S
C188 H202 0.931 . S
C189 C185 1.323 . S
C189 C188 1.433 1_554 S
C189 H203 0.933 1_554 S
C190 Dy168 2.738 . S
C190 O173 1.255 . S
C190 O174 1.249 . S
C190 C184 1.516 1_556 S
C191 O175 1.254 . S
C191 O176 1.257 . S
C192 O177 1.266 . S
C192 O178 1.236 . S
C193 C196 1.344 . S
C193 C197 1.328 . S
C193 C199 1.516 . S
C194 C195 1.304 . S
C194 C198 1.323 . S
C195 C194 1.304 . S
C195 C196 1.371 . S
C195 H204 0.930 . S
C196 C193 1.344 . S
C196 C195 1.371 . S
C196 H205 0.931 . S
C197 C193 1.328 . S
C197 C198 1.433 . S
C197 H206 0.931 . S
C198 C194 1.323 . S
C198 C197 1.433 . S
C198 H207 0.933 . S
C199 Dy169 2.738 . S
C199 O179 1.255 . S
C199 O180 1.249 . S
C199 C193 1.516 . S
H200 C186 0.930 . S
H201 C187 0.931 . S
H202 C188 0.931 . S
H203 C189 0.933 1_556 S
H204 C195 0.930 . S
H205 C196 0.931 . S
H206 C197 0.931 . S
H207 C198 0.933 . S
Dy208 O211 2.307 1_455 S
Dy208 O213 2.395 . S
Dy208 O214 2.379 . S
Dy208 O216 2.339 . S
Dy208 O218 2.298 . S
Dy208 O222 2.275 . S
Dy208 C230 2.738 . S
Dy209 O212 2.298 . S
Dy209 O215 2.275 . S
Dy209 O217 2.307 1_655 S
Dy209 O219 2.395 1_556 S
Dy209 O220 2.379 1_556 S
Dy209 O223 2.339 . S
Dy209 C239 2.738 1_556 S
C210 O222 1.254 1_655 S
C210 O223 1.257 . S
O211 Dy208 2.307 1_655 S
O211 C221 1.266 . S
O212 Dy209 2.298 . S
O212 C221 1.236 . S
O213 Dy208 2.395 . S
O213 C230 1.255 . S
O214 Dy208 2.379 . S
O214 C230 1.249 . S
O215 Dy209 2.275 . S
O215 C231 1.254 1_655 S
O216 Dy208 2.339 . S
O216 C231 1.257 . S
O217 Dy209 2.307 1_455 S
O217 C232 1.266 . S
O218 Dy208 2.298 . S
O218 C232 1.236 . S
O219 Dy209 2.395 1_554 S
O219 C239 1.255 . S
O220 Dy209 2.379 1_554 S
O220 C239 1.249 . S
C221 O211 1.266 . S
C221 O212 1.236 . S
O222 Dy208 2.275 . S
O222 C210 1.254 1_455 S
O223 Dy209 2.339 . S
O223 C210 1.257 . S
C224 C227 1.344 . S
C224 C228 1.328 . S
C224 C230 1.516 . S
C225 C226 1.304 . S
C225 C229 1.323 . S
C226 C225 1.304 . S
C226 C227 1.371 . S
C226 H240 0.930 . S
C227 C224 1.344 . S
C227 C226 1.371 . S
C227 H241 0.931 . S
C228 C224 1.328 . S
C228 C229 1.433 . S
C228 H242 0.931 . S
C229 C225 1.323 . S
C229 C228 1.433 . S
C229 H243 0.933 . S
C230 Dy208 2.738 . S
C230 O213 1.255 . S
C230 O214 1.249 . S
C230 C224 1.516 . S
C231 O215 1.254 1_455 S
C231 O216 1.257 . S
C232 O217 1.266 . S
C232 O218 1.236 . S
C233 C236 1.344 . S
C233 C237 1.328 . S
C233 C239 1.516 . S
C234 C235 1.304 . S
C234 C238 1.323 . S
C235 C234 1.304 . S
C235 C236 1.371 . S
C235 H244 0.930 . S
C236 C233 1.344 . S
C236 C235 1.371 . S
C236 H245 0.931 . S
C237 C233 1.328 . S
C237 C238 1.433 . S
C237 H246 0.931 . S
C238 C234 1.323 . S
C238 C237 1.433 . S
C238 H247 0.933 . S
C239 Dy209 2.738 1_554 S
C239 O219 1.255 . S
C239 O220 1.249 . S
C239 C233 1.516 . S
H240 C226 0.930 . S
H241 C227 0.931 . S
H242 C228 0.931 . S
H243 C229 0.933 . S
H244 C235 0.930 . S
H245 C236 0.931 . S
H246 C237 0.931 . S
H247 C238 0.933 . S
C248 C249 1.372 . S
C248 C254 1.379 . S
C248 N256 1.356 . S
C249 C248 1.372 . S
C249 C255 1.352 1_545 S
C250 C251 1.363 1_565 S
C250 C255 1.379 . S
C250 N257 1.356 . S
C251 C250 1.363 1_545 S
C251 C254 1.363 . S
N252 C254 1.356 . S
N252 H264 0.984 . S
N252 H265 0.985 . S
N253 C255 1.356 . S
N253 H258 0.984 . S
N253 H259 0.985 . S
C254 C248 1.379 . S
C254 C251 1.363 . S
C254 N252 1.356 . S
C255 C249 1.352 1_565 S
C255 C250 1.379 . S
C255 N253 1.356 . S
N256 C248 1.356 . S
N256 H262 0.984 . S
N256 H263 0.984 . S
N257 C250 1.356 . S
N257 H260 0.984 . S
N257 H261 0.985 . S
H258 N253 0.984 . S
H259 N253 0.985 . S
H260 N257 0.984 . S
H261 N257 0.985 . S
H262 N256 0.984 . S
H263 N256 0.984 . S
H264 N252 0.984 . S
H265 N252 0.985 . S
C266 C267 1.363 . S
C266 C272 1.379 . S
C266 N274 1.356 . S
C267 C266 1.363 . S
C267 C273 1.363 . S
C268 C269 1.363 . S
C268 C273 1.379 . S
C268 N275 1.356 . S
C269 C268 1.363 . S
C269 C272 1.363 . S
N270 C272 1.356 . S
N270 H282 0.984 . S
N270 H283 0.985 . S
N271 C273 1.356 . S
N271 H276 0.984 . S
N271 H277 0.985 . S
C272 C266 1.379 . S
C272 C269 1.363 . S
C272 N270 1.356 . S
C273 C267 1.363 . S
C273 C268 1.379 . S
C273 N271 1.356 . S
N274 C266 1.356 . S
N274 H280 0.984 . S
N274 H281 0.984 . S
N275 C268 1.356 . S
N275 H278 0.984 . S
N275 H279 0.985 . S
H276 N271 0.984 . S
H277 N271 0.985 . S
H278 N275 0.984 . S
H279 N275 0.985 . S
H280 N274 0.984 . S
H281 N274 0.984 . S
H282 N270 0.984 . S
H283 N270 0.985 . S
C284 C285 1.363 . S
C284 C290 1.379 . S
C284 N292 1.356 . S
C285 C284 1.363 . S
C285 C291 1.363 . S
C286 C287 1.363 . S
C286 C291 1.379 . S
C286 N293 1.356 . S
C287 C286 1.363 . S
C287 C290 1.363 . S
N288 C290 1.356 . S
N288 H300 0.984 . S
N288 H301 0.985 . S
N289 C291 1.356 . S
N289 H294 0.984 . S
N289 H295 0.985 . S
C290 C284 1.379 . S
C290 C287 1.363 . S
C290 N288 1.356 . S
C291 C285 1.363 . S
C291 C286 1.379 . S
C291 N289 1.356 . S
N292 C284 1.356 . S
N292 H298 0.984 . S
N292 H299 0.984 . S
N293 C286 1.356 . S
N293 H296 0.984 . S
N293 H297 0.985 . S
H294 N289 0.984 . S
H295 N289 0.985 . S
H296 N293 0.984 . S
H297 N293 0.985 . S
H298 N292 0.984 . S
H299 N292 0.984 . S
H300 N288 0.984 . S
H301 N288 0.985 . S
C302 C303 1.353 1_655 S
C302 C308 1.379 . S
C302 N310 1.356 . S
C303 C302 1.353 1_455 S
C303 C309 1.381 . S
C304 C305 1.363 . S
C304 C309 1.379 . S
C304 N311 1.356 . S
C305 C304 1.363 . S
C305 C308 1.363 1_455 S
N306 C308 1.356 . S
N306 H318 0.984 . S
N306 H319 0.985 . S
N307 C309 1.356 . S
N307 H312 0.984 . S
N307 H313 0.985 . S
C308 C302 1.379 . S
C308 C305 1.363 1_655 S
C308 N306 1.356 . S
C309 C303 1.381 . S
C309 C304 1.379 . S
C309 N307 1.356 . S
N310 C302 1.356 . S
N310 H316 0.984 . S
N310 H317 0.984 . S
N311 C304 1.356 . S
N311 H314 0.984 . S
N311 H315 0.985 . S
H312 N307 0.984 . S
H313 N307 0.985 . S
H314 N311 0.984 . S
H315 N311 0.985 . S
H316 N310 0.984 . S
H317 N310 0.984 . S
H318 N306 0.984 . S
H319 N306 0.985 . S
C320 C321 1.357 1_545 S
C320 C326 1.379 . S
C320 N328 1.356 . S
C321 C320 1.357 1_565 S
C321 C327 1.368 . S
C322 C323 1.363 . S
C322 C327 1.379 . S
C322 N329 1.356 . S
C323 C322 1.363 . S
C323 C326 1.363 1_565 S
N324 C326 1.356 1_556 S
N324 H336 0.984 . S
N324 H337 0.985 . S
N325 C327 1.356 . S
N325 H330 0.984 . S
N325 H331 0.985 . S
C326 C320 1.379 . S
C326 C323 1.363 1_545 S
C326 N324 1.356 1_554 S
C327 C321 1.368 . S
C327 C322 1.379 . S
C327 N325 1.356 . S
N328 C320 1.356 . S
N328 H334 0.984 . S
N328 H335 0.984 . S
N329 C322 1.356 . S
N329 H332 0.984 1_554 S
N329 H333 0.985 . S
H330 N325 0.984 . S
H331 N325 0.985 . S
H332 N329 0.984 1_556 S
H333 N329 0.985 . S
H334 N328 0.984 . S
H335 N328 0.984 . S
H336 N324 0.984 . S
H337 N324 0.985 . S
C338 C339 1.363 . S
C338 C344 1.379 . S
C338 N346 1.356 . S
C339 C338 1.363 . S
C339 C345 1.363 1_554 S
C340 C341 1.363 . S
C340 C345 1.379 . S
C340 N347 1.356 . S
C341 C340 1.363 . S
C341 C344 1.363 1_556 S
N342 C344 1.356 . S
N342 H354 0.984 . S
N342 H355 0.985 1_554 S
N343 C345 1.356 . S
N343 H348 0.984 . S
N343 H349 0.985 . S
C344 C338 1.379 . S
C344 C341 1.363 1_554 S
C344 N342 1.356 . S
C345 C339 1.363 1_556 S
C345 C340 1.379 . S
C345 N343 1.356 . S
N346 C338 1.356 . S
N346 H352 0.984 . S
N346 H353 0.984 . S
N347 C340 1.356 . S
N347 H350 0.984 . S
N347 H351 0.985 . S
H348 N343 0.984 . S
H349 N343 0.985 . S
H350 N347 0.984 . S
H351 N347 0.985 . S
H352 N346 0.984 . S
H353 N346 0.984 . S
H354 N342 0.984 . S
H355 N342 0.985 1_556 S
C356 C357 1.363 . S
C356 C362 1.379 . S
C356 N364 1.356 . S
C357 C356 1.363 . S
C357 C363 1.363 . S
C358 C359 1.363 . S
C358 C363 1.379 . S
C358 N365 1.356 . S
C359 C358 1.363 . S
C359 C362 1.363 . S
N360 C362 1.356 . S
N360 H372 0.984 . S
N360 H373 0.985 . S
N361 C363 1.356 . S
N361 H366 0.984 . S
N361 H367 0.985 . S
C362 C356 1.379 . S
C362 C359 1.363 . S
C362 N360 1.356 . S
C363 C357 1.363 . S
C363 C358 1.379 . S
C363 N361 1.356 . S
N364 C356 1.356 . S
N364 H370 0.984 . S
N364 H371 0.984 . S
N365 C358 1.356 . S
N365 H368 0.984 . S
N365 H369 0.985 . S
H366 N361 0.984 . S
H367 N361 0.985 . S
H368 N365 0.984 . S
H369 N365 0.985 . S
H370 N364 0.984 . S
H371 N364 0.984 . S
H372 N360 0.984 . S
H373 N360 0.985 . S
C374 C375 1.361 1_455 S
C374 C380 1.379 . S
C374 N382 1.356 . S
C375 C374 1.361 1_655 S
C375 C381 1.372 . S
C376 C377 1.363 . S
C376 C381 1.379 . S
C376 N383 1.356 . S
C377 C376 1.363 . S
C377 C380 1.363 1_655 S
N378 C380 1.356 . S
N378 H390 0.984 . S
N378 H391 0.985 1_554 S
N379 C381 1.356 . S
N379 H384 0.984 . S
N379 H385 0.985 . S
C380 C374 1.379 . S
C380 C377 1.363 1_455 S
C380 N378 1.356 . S
C381 C375 1.372 . S
C381 C376 1.379 . S
C381 N379 1.356 . S
N382 C374 1.356 . S
N382 H388 0.984 . S
N382 H389 0.984 . S
N383 C376 1.356 . S
N383 H386 0.984 . S
N383 H387 0.985 . S
H384 N379 0.984 . S
H385 N379 0.985 . S
H386 N383 0.984 . S
H387 N383 0.985 . S
H388 N382 0.984 . S
H389 N382 0.984 . S
H390 N378 0.984 . S
H391 N378 0.985 1_556 S
C392 C393 1.345 1_655 S
C392 C398 1.379 . S
C392 N400 1.356 . S
C393 C392 1.345 1_455 S
C393 C399 1.372 1_455 S
C394 C395 1.363 . S
C394 C399 1.387 . S
C394 N401 1.356 . S
C395 C394 1.363 . S
C395 C398 1.363 . S
N396 C398 1.356 . S
N396 H408 0.984 . S
N396 H409 0.985 . S
N397 C399 1.345 1_455 S
N397 H402 0.984 . S
N397 H403 0.985 . S
C398 C392 1.379 . S
C398 C395 1.363 . S
C398 N396 1.356 . S
C399 C393 1.372 1_655 S
C399 C394 1.387 . S
C399 N397 1.345 1_655 S
N400 C392 1.356 . S
N400 H406 0.984 . S
N400 H407 0.984 1_655 S
N401 C394 1.356 . S
N401 H404 0.984 . S
N401 H405 0.985 . S
H402 N397 0.984 . S
H403 N397 0.985 . S
H404 N401 0.984 . S
H405 N401 0.985 . S
H406 N400 0.984 . S
H407 N400 0.984 1_455 S
H408 N396 0.984 . S
H409 N396 0.985 . S
C410 C411 1.363 . S
C410 C416 1.379 . S
C410 N418 1.356 . S
C411 C410 1.363 . S
C411 C417 1.363 1_565 S
C412 C413 1.363 . S
C412 C417 1.378 1_565 S
C412 N419 1.356 . S
C413 C412 1.363 . S
C413 C416 1.363 . S
N414 C416 1.356 . S
N414 H426 0.984 . S
N414 H427 0.985 . S
N415 C417 1.358 . S
N415 H420 0.984 . S
N415 H421 0.985 . S
C416 C410 1.379 . S
C416 C413 1.363 . S
C416 N414 1.356 . S
C417 C411 1.363 1_545 S
C417 C412 1.378 1_545 S
C417 N415 1.358 . S
N418 C410 1.356 . S
N418 H424 0.984 . S
N418 H425 0.984 . S
N419 C412 1.356 . S
N419 H422 0.984 . S
N419 H423 0.985 . S
H420 N415 0.984 . S
H421 N415 0.985 . S
H422 N419 0.984 . S
H423 N419 0.985 . S
H424 N418 0.984 . S
H425 N418 0.984 . S
H426 N414 0.984 . S
H427 N414 0.985 . S
C428 C429 1.363 . S
C428 C434 1.379 . S
C428 N436 1.356 . S
C429 C428 1.363 . S
C429 C435 1.363 . S
C430 C431 1.363 . S
C430 C435 1.379 . S
C430 N437 1.356 . S
C431 C430 1.363 . S
C431 C434 1.363 . S
N432 C434 1.356 . S
N432 H444 0.984 . S
N432 H445 0.985 . S
N433 C435 1.356 . S
N433 H438 0.984 . S
N433 H439 0.985 . S
C434 C428 1.379 . S
C434 C431 1.363 . S
C434 N432 1.356 . S
C435 C429 1.363 . S
C435 C430 1.379 . S
C435 N433 1.356 . S
N436 C428 1.356 . S
N436 H442 0.984 . S
N436 H443 0.984 . S
N437 C430 1.356 . S
N437 H440 0.984 . S
N437 H441 0.985 . S
H438 N433 0.984 . S
H439 N433 0.985 . S
H440 N437 0.984 . S
H441 N437 0.985 . S
H442 N436 0.984 . S
H443 N436 0.984 . S
H444 N432 0.984 . S
H445 N432 0.985 . S
C446 C447 1.363 . S
C446 C452 1.379 . S
C446 N454 1.356 . S
C447 C446 1.363 . S
C447 C453 1.363 . S
C448 C449 1.363 . S
C448 C453 1.379 . S
C448 N455 1.356 . S
C449 C448 1.363 . S
C449 C452 1.363 . S
N450 C452 1.356 . S
N450 H462 0.984 . S
N450 H463 0.985 . S
N451 C453 1.356 . S
N451 H456 0.984 . S
N451 H457 0.985 . S
C452 C446 1.379 . S
C452 C449 1.363 . S
C452 N450 1.356 . S
C453 C447 1.363 . S
C453 C448 1.379 . S
C453 N451 1.356 . S
N454 C446 1.356 . S
N454 H460 0.984 . S
N454 H461 0.984 . S
N455 C448 1.356 . S
N455 H458 0.984 . S
N455 H459 0.985 . S
H456 N451 0.984 . S
H457 N451 0.985 . S
H458 N455 0.984 . S
H459 N455 0.985 . S
H460 N454 0.984 . S
H461 N454 0.984 . S
H462 N450 0.984 . S
H463 N450 0.985 . S
C464 C465 1.344 1_455 S
C464 C470 1.379 . S
C464 N472 1.356 . S
C465 C464 1.344 1_655 S
C465 C471 1.370 . S
C466 C467 1.363 . S
C466 C471 1.379 1_455 S
C466 N473 1.356 1_455 S
C467 C466 1.363 . S
C467 C470 1.363 . S
N468 C470 1.356 . S
N468 H480 0.984 . S
N468 H481 0.985 . S
N469 C471 1.356 . S
N469 H474 0.984 . S
N469 H475 0.985 . S
C470 C464 1.379 . S
C470 C467 1.363 . S
C470 N468 1.356 . S
C471 C465 1.370 . S
C471 C466 1.379 1_655 S
C471 N469 1.356 . S
N472 C464 1.356 . S
N472 H478 0.984 . S
N472 H479 0.984 . S
N473 C466 1.356 1_655 S
N473 H476 0.984 1_655 S
N473 H477 0.985 . S
H474 N469 0.984 . S
H475 N469 0.985 . S
H476 N473 0.984 1_455 S
H477 N473 0.985 . S
H478 N472 0.984 . S
H479 N472 0.984 . S
H480 N468 0.984 . S
H481 N468 0.985 . S
C482 C483 1.363 . S
C482 C488 1.379 . S
C482 N490 1.356 . S
C483 C482 1.363 . S
C483 C489 1.363 1_545 S
C484 C485 1.363 . S
C484 C489 1.379 1_545 S
C484 N491 1.356 1_545 S
C485 C484 1.363 . S
C485 C488 1.363 . S
N486 C488 1.356 . S
N486 H498 0.984 . S
N486 H499 0.985 . S
N487 C489 1.356 . S
N487 H492 0.984 . S
N487 H493 0.985 . S
C488 C482 1.379 . S
C488 C485 1.363 . S
C488 N486 1.356 . S
C489 C483 1.363 1_565 S
C489 C484 1.379 1_565 S
C489 N487 1.356 . S
N490 C482 1.356 . S
N490 H496 0.984 . S
N490 H497 0.984 . S
N491 C484 1.356 1_565 S
N491 H494 0.984 1_565 S
N491 H495 0.985 . S
H492 N487 0.984 . S
H493 N487 0.985 . S
H494 N491 0.984 1_545 S
H495 N491 0.985 . S
H496 N490 0.984 . S
H497 N490 0.984 . S
H498 N486 0.984 . S
H499 N486 0.985 . S
C500 C501 1.363 1_556 S
C500 C506 1.379 . S
C500 N508 1.356 . S
C501 C500 1.363 1_554 S
C501 C507 1.363 . S
C502 C503 1.363 . S
C502 C507 1.379 . S
C502 N509 1.356 . S
C503 C502 1.363 . S
C503 C506 1.363 1_554 S
N504 C506 1.356 . S
N504 H516 0.984 . S
N504 H517 0.985 . S
N505 C507 1.356 . S
N505 H510 0.984 . S
N505 H511 0.985 . S
C506 C500 1.379 . S
C506 C503 1.363 1_556 S
C506 N504 1.356 . S
C507 C501 1.363 . S
C507 C502 1.379 . S
C507 N505 1.356 . S
N508 C500 1.356 . S
N508 H514 0.984 . S
N508 H515 0.984 . S
N509 C502 1.356 . S
N509 H512 0.984 . S
N509 H513 0.985 . S
H510 N505 0.984 . S
H511 N505 0.985 . S
H512 N509 0.984 . S
H513 N509 0.985 . S
H514 N508 0.984 . S
H515 N508 0.984 . S
H516 N504 0.984 . S
H517 N504 0.985 . S
C518 C519 1.363 . S
C518 C524 1.379 . S
C518 N526 1.356 . S
C519 C518 1.363 . S
C519 C525 1.363 . S
C520 C521 1.363 . S
C520 C525 1.379 . S
C520 N527 1.356 . S
C521 C520 1.363 . S
C521 C524 1.363 . S
N522 C524 1.356 . S
N522 H534 0.984 . S
N522 H535 0.985 . S
N523 C525 1.356 . S
N523 H528 0.984 . S
N523 H529 0.985 . S
C524 C518 1.379 . S
C524 C521 1.363 . S
C524 N522 1.356 . S
C525 C519 1.363 . S
C525 C520 1.379 . S
C525 N523 1.356 . S
N526 C518 1.356 . S
N526 H532 0.984 . S
N526 H533 0.984 . S
N527 C520 1.356 . S
N527 H530 0.984 . S
N527 H531 0.985 . S
H528 N523 0.984 . S
H529 N523 0.985 . S
H530 N527 0.984 . S
H531 N527 0.985 . S
H532 N526 0.984 . S
H533 N526 0.984 . S
H534 N522 0.984 . S
H535 N522 0.985 . S
C536 C537 1.363 1_655 S
C536 C542 1.379 . S
C536 N544 1.356 . S
C537 C536 1.363 1_455 S
C537 C543 1.363 . S
C538 C539 1.363 . S
C538 C543 1.379 . S
C538 N545 1.356 1_556 S
C539 C538 1.363 . S
C539 C542 1.363 1_455 S
N540 C542 1.356 . S
N540 H552 0.984 . S
N540 H553 0.985 . S
N541 C543 1.356 1_554 S
N541 H546 0.984 . S
N541 H547 0.985 . S
C542 C536 1.379 . S
C542 C539 1.363 1_655 S
C542 N540 1.356 . S
C543 C537 1.363 . S
C543 C538 1.379 . S
C543 N541 1.356 1_556 S
N544 C536 1.356 . S
N544 H550 0.984 . S
N544 H551 0.984 . S
N545 C538 1.356 1_554 S
N545 H548 0.984 . S
N545 H549 0.985 . S
H546 N541 0.984 . S
H547 N541 0.985 . S
H548 N545 0.984 . S
H549 N545 0.985 . S
H550 N544 0.984 . S
H551 N544 0.984 . S
H552 N540 0.984 . S
H553 N540 0.985 . S
C554 C555 1.363 1_554 S
C554 C560 1.379 . S
C554 N562 1.356 . S
C555 C554 1.363 1_556 S
C555 C561 1.363 1_545 S
C556 C557 1.363 1_565 S
C556 C561 1.379 . S
C556 N563 1.356 . S
C557 C556 1.363 1_545 S
C557 C560 1.363 1_556 S
N558 C560 1.356 . S
N558 H570 0.984 . S
N558 H571 0.985 . S
N559 C561 1.356 . S
N559 H564 0.984 . S
N559 H565 0.985 . S
C560 C554 1.379 . S
C560 C557 1.363 1_554 S
C560 N558 1.356 . S
C561 C555 1.363 1_565 S
C561 C556 1.379 . S
C561 N559 1.356 . S
N562 C554 1.356 . S
N562 H568 0.984 . S
N562 H569 0.984 . S
N563 C556 1.356 . S
N563 H566 0.984 . S
N563 H567 0.985 . S
H564 N559 0.984 . S
H565 N559 0.985 . S
H566 N563 0.984 . S
H567 N563 0.985 . S
H568 N562 0.984 . S
H569 N562 0.984 . S
H570 N558 0.984 . S
H571 N558 0.985 . S
C572 C573 1.363 . S
C572 C578 1.379 . S
C572 N580 1.356 . S
C573 C572 1.363 . S
C573 C579 1.363 . S
C574 C575 1.363 . S
C574 C579 1.379 . S
C574 N581 1.356 1_554 S
C575 C574 1.363 . S
C575 C578 1.363 . S
N576 C578 1.356 . S
N576 H588 0.984 . S
N576 H589 0.985 . S
N577 C579 1.356 . S
N577 H582 0.984 . S
N577 H583 0.985 . S
C578 C572 1.379 . S
C578 C575 1.363 . S
C578 N576 1.356 . S
C579 C573 1.363 . S
C579 C574 1.379 . S
C579 N577 1.356 . S
N580 C572 1.356 . S
N580 H586 0.984 . S
N580 H587 0.984 . S
N581 C574 1.356 1_556 S
N581 H584 0.984 . S
N581 H585 0.985 . S
H582 N577 0.984 . S
H583 N577 0.985 . S
H584 N581 0.984 . S
H585 N581 0.985 . S
H586 N580 0.984 . S
H587 N580 0.984 . S
H588 N576 0.984 . S
H589 N576 0.985 . S
C590 C591 1.363 . S
C590 C596 1.379 . S
C590 N598 1.356 . S
C591 C590 1.363 . S
C591 C597 1.363 . S
C592 C593 1.363 . S
C592 C597 1.379 . S
C592 N599 1.356 . S
C593 C592 1.363 . S
C593 C596 1.363 . S
N594 C596 1.356 . S
N594 H606 0.984 . S
N594 H607 0.985 . S
N595 C597 1.356 . S
N595 H600 0.984 . S
N595 H601 0.985 . S
C596 C590 1.379 . S
C596 C593 1.363 . S
C596 N594 1.356 . S
C597 C591 1.363 . S
C597 C592 1.379 . S
C597 N595 1.356 . S
N598 C590 1.356 . S
N598 H604 0.984 . S
N598 H605 0.984 . S
N599 C592 1.356 . S
N599 H602 0.984 . S
N599 H603 0.985 . S
H600 N595 0.984 . S
H601 N595 0.985 . S
H602 N599 0.984 . S
H603 N599 0.985 . S
H604 N598 0.984 . S
H605 N598 0.984 . S
H606 N594 0.984 . S
H607 N594 0.985 . S
C608 C609 1.363 . S
C608 C614 1.379 . S
C608 N616 1.356 . S
C609 C608 1.363 . S
C609 C615 1.363 1_655 S
C610 C611 1.363 1_455 S
C610 C615 1.379 . S
C610 N617 1.356 . S
C611 C610 1.363 1_655 S
C611 C614 1.363 . S
N612 C614 1.356 . S
N612 H624 0.984 . S
N612 H625 0.985 . S
N613 C615 1.356 . S
N613 H618 0.984 . S
N613 H619 0.985 . S
C614 C608 1.379 . S
C614 C611 1.363 . S
C614 N612 1.356 . S
C615 C609 1.363 1_455 S
C615 C610 1.379 . S
C615 N613 1.356 . S
N616 C608 1.356 . S
N616 H622 0.984 . S
N616 H623 0.984 . S
N617 C610 1.356 . S
N617 H620 0.984 . S
N617 H621 0.985 . S
H618 N613 0.984 . S
H619 N613 0.985 . S
H620 N617 0.984 . S
H621 N617 0.985 . S
H622 N616 0.984 . S
H623 N616 0.984 . S
H624 N612 0.984 . S
H625 N612 0.985 . S
C626 C627 1.363 . S
C626 C632 1.379 . S
C626 N634 1.356 . S
C627 C626 1.363 . S
C627 C633 1.364 . S
C628 C629 1.363 . S
C628 C633 1.381 . S
C628 N635 1.356 . S
C629 C628 1.363 . S
C629 C632 1.363 . S
N630 C632 1.356 . S
N630 H642 0.984 . S
N630 H643 0.985 . S
N631 C633 1.353 1_545 S
N631 H636 0.984 . S
N631 H637 0.985 . S
C632 C626 1.379 . S
C632 C629 1.363 . S
C632 N630 1.356 . S
C633 C627 1.364 . S
C633 C628 1.381 . S
C633 N631 1.353 1_565 S
N634 C626 1.356 . S
N634 H640 0.984 . S
N634 H641 0.984 . S
N635 C628 1.356 . S
N635 H638 0.984 . S
N635 H639 0.985 1_565 S
H636 N631 0.984 . S
H637 N631 0.985 . S
H638 N635 0.984 . S
H639 N635 0.985 1_545 S
H640 N634 0.984 . S
H641 N634 0.984 . S
H642 N630 0.984 . S
H643 N630 0.985 . S
C644 C645 1.363 . S
C644 C650 1.379 . S
C644 N652 1.356 . S
C645 C644 1.363 . S
C645 C651 1.363 . S
C646 C647 1.363 . S
C646 C651 1.379 . S
C646 N653 1.356 . S
C647 C646 1.363 . S
C647 C650 1.363 . S
N648 C650 1.356 . S
N648 H660 0.984 . S
N648 H661 0.985 . S
N649 C651 1.356 . S
N649 H654 0.984 . S
N649 H655 0.985 . S
C650 C644 1.379 . S
C650 C647 1.363 . S
C650 N648 1.356 . S
C651 C645 1.363 . S
C651 C646 1.379 . S
C651 N649 1.356 . S
N652 C644 1.356 . S
N652 H658 0.984 . S
N652 H659 0.984 . S
N653 C646 1.356 . S
N653 H656 0.984 . S
N653 H657 0.985 . S
H654 N649 0.984 . S
H655 N649 0.985 . S
H656 N653 0.984 . S
H657 N653 0.985 . S
H658 N652 0.984 . S
H659 N652 0.984 . S
H660 N648 0.984 . S
H661 N648 0.985 . S
C662 C663 1.363 . S
C662 C668 1.379 . S
C662 N670 1.356 . S
C663 C662 1.363 . S
C663 C669 1.363 . S
C664 C665 1.363 . S
C664 C669 1.379 . S
C664 N671 1.356 . S
C665 C664 1.363 . S
C665 C668 1.363 . S
N666 C668 1.356 . S
N666 H678 0.984 . S
N666 H679 0.985 . S
N667 C669 1.356 . S
N667 H672 0.984 . S
N667 H673 0.985 . S
C668 C662 1.379 . S
C668 C665 1.363 . S
C668 N666 1.356 . S
C669 C663 1.363 . S
C669 C664 1.379 . S
C669 N667 1.356 . S
N670 C662 1.356 . S
N670 H676 0.984 1_556 S
N670 H677 0.984 . S
N671 C664 1.356 . S
N671 H674 0.984 . S
N671 H675 0.985 . S
H672 N667 0.984 . S
H673 N667 0.985 . S
H674 N671 0.984 . S
H675 N671 0.985 . S
H676 N670 0.984 1_554 S
H677 N670 0.984 . S
H678 N666 0.984 . S
H679 N666 0.985 . S
C249 C74 2.009 . S
C251 C90 2.075 1_545 S
C269 C130 1.993 . S
C267 C85 1.972 . S
C287 C194 2.100 . S
C285 C52 2.040 . S
C305 C210 1.948 1_455 S
C303 C63 1.709 . S
C323 C111 2.076 1_564 S
C321 C30 2.010 1_565 S
C339 C41 1.932 . S
C341 C151 1.996 . S
C357 C8 1.986 . S
C359 C185 2.101 . S
C375 C19 1.709 1_655 S
C377 C231 1.947 1_654 S
C395 C105 0.694 . S
C393 C62 0.687 . S
C413 C145 0.982 . S
C411 C73 1.027 1_565 S
C431 C181 1.091 . S
C429 C84 1.167 . S
C447 C51 1.090 . S
C449 C225 0.986 . S
C465 C18 0.691 1_655 S
C467 C114 0.694 . S
C485 C154 0.982 . S
C483 C29 0.976 . S
C503 C192 1.091 1_554 S
C501 C40 1.076 . S
C519 C7 0.916 . S
C521 C234 0.992 . S
C537 C60 1.657 . S
C539 C112 2.235 . S
C555 C71 1.665 1_556 S
C557 C152 2.202 . S
C575 C170 1.713 1_554 S
C573 C82 1.523 . S
C593 C232 2.660 . S
C591 C49 2.112 . S
C609 C16 1.730 1_655 S
C611 C101 2.242 . S
C629 C141 2.202 . S
C627 C27 1.754 1_565 S
C647 C191 1.714 . S
C645 C38 1.368 . S
C663 C5 2.008 . S
C665 C221 2.664 . S
