# Generated by pormake.
# Topology cml, (3,6)-cn, num edge types: 1
# Building blocks:
#     Node 0, Type 0, BuildingBlock: WUSLED_clean_sbu_0, # of connection points: 3
#     Node 1, Type 0, BuildingBlock: WUSLED_clean_sbu_0, # of connection points: 3
#     Node 2, Type 0, BuildingBlock: WUSLED_clean_sbu_0, # of connection points: 3
#     Node 3, Type 0, BuildingBlock: WUSLED_clean_sbu_0, # of connection points: 3
#     Node 4, Type 0, BuildingBlock: WUSLED_clean_sbu_0, # of connection points: 3
#     Node 5, Type 0, BuildingBlock: WUSLED_clean_sbu_0, # of connection points: 3
#     Node 6, Type 0, BuildingBlock: WUSLED_clean_sbu_0, # of connection points: 3
#     Node 7, Type 0, BuildingBlock: WUSLED_clean_sbu_0, # of connection points: 3
#     Node 8, Type 1, BuildingBlock: OJICUG_clean_sbu_0, # of connection points: 6
#     Node 9, Type 1, BuildingBlock: OJICUG_clean_sbu_0, # of connection points: 6
#     Node 10, Type 1, BuildingBlock: OJICUG_clean_sbu_0, # of connection points: 6
#     Node 11, Type 1, BuildingBlock: OJICUG_clean_sbu_0, # of connection points: 6
#     Edge 12, Type (0, 1), BuildingBlock: UVAHIK_clean_linker_0, # of connection points: 2
#     Edge 13, Type (0, 1), BuildingBlock: UVAHIK_clean_linker_0, # of connection points: 2
#     Edge 14, Type (0, 1), BuildingBlock: UVAHIK_clean_linker_0, # of connection points: 2
#     Edge 15, Type (0, 1), BuildingBlock: UVAHIK_clean_linker_0, # of connection points: 2
#     Edge 16, Type (0, 1), BuildingBlock: UVAHIK_clean_linker_0, # of connection points: 2
#     Edge 17, Type (0, 1), BuildingBlock: UVAHIK_clean_linker_0, # of connection points: 2
#     Edge 18, Type (0, 1), BuildingBlock: UVAHIK_clean_linker_0, # of connection points: 2
#     Edge 19, Type (0, 1), BuildingBlock: UVAHIK_clean_linker_0, # of connection points: 2
#     Edge 20, Type (0, 1), BuildingBlock: UVAHIK_clean_linker_0, # of connection points: 2
#     Edge 21, Type (0, 1), BuildingBlock: UVAHIK_clean_linker_0, # of connection points: 2
#     Edge 22, Type (0, 1), BuildingBlock: UVAHIK_clean_linker_0, # of connection points: 2
#     Edge 23, Type (0, 1), BuildingBlock: UVAHIK_clean_linker_0, # of connection points: 2
#     Edge 24, Type (0, 1), BuildingBlock: UVAHIK_clean_linker_0, # of connection points: 2
#     Edge 25, Type (0, 1), BuildingBlock: UVAHIK_clean_linker_0, # of connection points: 2
#     Edge 26, Type (0, 1), BuildingBlock: UVAHIK_clean_linker_0, # of connection points: 2
#     Edge 27, Type (0, 1), BuildingBlock: UVAHIK_clean_linker_0, # of connection points: 2
#     Edge 28, Type (0, 1), BuildingBlock: UVAHIK_clean_linker_0, # of connection points: 2
#     Edge 29, Type (0, 1), BuildingBlock: UVAHIK_clean_linker_0, # of connection points: 2
#     Edge 30, Type (0, 1), BuildingBlock: UVAHIK_clean_linker_0, # of connection points: 2
#     Edge 31, Type (0, 1), BuildingBlock: UVAHIK_clean_linker_0, # of connection points: 2
#     Edge 32, Type (0, 1), BuildingBlock: UVAHIK_clean_linker_0, # of connection points: 2
#     Edge 33, Type (0, 1), BuildingBlock: UVAHIK_clean_linker_0, # of connection points: 2
#     Edge 34, Type (0, 1), BuildingBlock: UVAHIK_clean_linker_0, # of connection points: 2
#     Edge 35, Type (0, 1), BuildingBlock: UVAHIK_clean_linker_0, # of connection points: 2
# Relax obj value: 0.069
# Max RMSD: 0.081
# Mean RMSD: 0.077
data_MOF--net-cml--node1-WUSLED_clean_sbu_0--node2-OJICUG_clean_sbu_0--edge1-UVAHIK_clean_linker_0
_symmetry_space_group_name_H-M    P1
_symmetry_Int_Tables_number       1
_symmetry_cell_setting            triclinic
loop_
_symmetry_equiv_pos_as_xyz
'x, y, z'
_cell_length_a     61.410008
_cell_length_b     62.254396
_cell_length_c     58.548487
_cell_angle_alpha  90.338407
_cell_angle_beta   90.009682
_cell_angle_gamma 89.98554
loop_
_atom_site_label
_atom_site_type_symbol
_atom_site_fract_x
_atom_site_fract_y
_atom_site_fract_z
_atom_type_partial_charge
C0 C 0.29297 0.42932 0.95563 0.0
C1 C 0.29463 0.44856 0.96821 0.0
C2 C 0.31862 0.46372 0.93932 0.0
C3 C 0.30722 0.46559 0.96008 0.0
C4 C 0.31667 0.44453 0.92663 0.0
C5 C 0.30392 0.42757 0.93467 0.0
U6 U 0.28236 0.38839 0.00218 0.0
O7 O 0.25175 0.37553 0.01612 0.0
O8 O 0.27562 0.35376 1.00034 0.0
C9 C 0.2559 0.35595 0.00881 0.0
C10 C 0.28062 0.41073 0.96441 0.0
C11 C 0.2383 0.34562 0.99571 0.0
C12 C 0.22077 0.33669 0.95964 0.0
C13 C 0.23756 0.3468 0.97178 0.0
C14 C 0.20505 0.32453 0.99525 0.0
C15 C 0.20432 0.32543 0.97126 0.0
C16 C 0.22191 0.3345 0.00734 0.0
C17 C 0.31878 0.39216 0.05559 0.0
C18 C 0.32044 0.36554 0.08575 0.0
C19 C 0.3411 0.39856 0.08912 0.0
C20 C 0.33307 0.40526 0.06803 0.0
C21 C 0.33498 0.37858 0.09822 0.0
C22 C 0.31236 0.3723 0.06459 0.0
C23 C 0.31142 0.39933 0.03303 0.0
O24 O 0.29177 0.39278 0.96621 0.0
O25 O 0.26783 0.41441 0.98203 0.0
O26 O 0.29181 0.40775 0.03219 0.0
O27 O 0.31556 0.38618 0.01594 0.0
H28 H 0.2864 0.45045 0.98446 0.0
H29 H 0.308 0.48023 0.97013 0.0
H30 H 0.32543 0.44237 0.91074 0.0
H31 H 0.30294 0.41289 0.9247 0.0
H32 H 0.22052 0.33787 0.94119 0.0
H33 H 0.24997 0.3555 0.96249 0.0
H34 H 0.19277 0.31579 0.00468 0.0
H35 H 0.2222 0.33346 0.02581 0.0
H36 H 0.31526 0.35016 0.09237 0.0
H37 H 0.35254 0.40885 0.09805 0.0
H38 H 0.33827 0.42059 0.06126 0.0
H39 H 0.30128 0.362 0.05518 0.0
C40 C 0.71016 0.65047 0.56129 0.0
C41 C 0.69364 0.63577 0.56659 0.0
C42 C 0.68548 0.65547 0.60162 0.0
C43 C 0.68141 0.63824 0.58654 0.0
C44 C 0.70206 0.6702 0.59618 0.0
C45 C 0.71432 0.66769 0.57616 0.0
U46 U 0.72108 0.6183 0.50804 0.0
O47 O 0.72727 0.62779 0.47255 0.0
O48 O 0.75156 0.60871 0.49102 0.0
C49 C 0.74698 0.61953 0.47242 0.0
C50 C 0.72286 0.64773 0.54021 0.0
C51 C 0.76435 0.63374 0.46412 0.0
C52 C 0.78299 0.66816 0.46404 0.0
C53 C 0.76652 0.65482 0.47241 0.0
C54 C 0.79546 0.63937 0.43928 0.0
C55 C 0.79765 0.66062 0.44731 0.0
C56 C 0.77895 0.62609 0.4476 0.0
C57 C 0.68513 0.56834 0.49955 0.0
C58 C 0.68286 0.54738 0.46449 0.0
C59 C 0.66364 0.53568 0.49836 0.0
C60 C 0.67163 0.55343 0.51038 0.0
C61 C 0.66901 0.53251 0.47522 0.0
C62 C 0.69091 0.56516 0.47659 0.0
C63 C 0.69236 0.58737 0.51238 0.0
O64 O 0.73562 0.63078 0.53981 0.0
O65 O 0.71169 0.65014 0.52125 0.0
O66 O 0.68791 0.60597 0.50298 0.0
O67 O 0.71208 0.58639 0.52103 0.0
H68 H 0.69016 0.62241 0.55523 0.0
H69 H 0.66855 0.62681 0.58998 0.0
H70 H 0.70575 0.68352 0.60753 0.0
H71 H 0.72705 0.67916 0.57232 0.0
H72 H 0.78402 0.68449 0.47044 0.0
H73 H 0.7554 0.66098 0.48524 0.0
H74 H 0.80666 0.63289 0.42673 0.0
H75 H 0.77759 0.6098 0.44112 0.0
H76 H 0.68747 0.54528 0.44676 0.0
H77 H 0.65275 0.52475 0.50705 0.0
H78 H 0.66696 0.55571 0.52808 0.0
H79 H 0.70141 0.57652 0.468 0.0
C80 C 0.71169 0.42706 0.95509 0.0
C81 C 0.69487 0.43604 0.96824 0.0
C82 C 0.68692 0.46159 0.93801 0.0
C83 C 0.6826 0.45314 0.95979 0.0
C84 C 0.70393 0.45258 0.92497 0.0
C85 C 0.71621 0.43545 0.93346 0.0
U86 U 0.72221 0.38713 0.00204 0.0
O87 O 0.72906 0.3525 1.00105 0.0
O88 O 0.75285 0.37463 0.01635 0.0
C89 C 0.74872 0.35488 0.00959 0.0
C90 C 0.7243 0.40882 0.96383 0.0
C91 C 0.76634 0.34412 0.99691 0.0
C92 C 0.78405 0.33427 0.96122 0.0
C93 C 0.76756 0.3452 0.97301 0.0
C94 C 0.79858 0.32155 0.99716 0.0
C95 C 0.79969 0.32216 0.97315 0.0
C96 C 0.78204 0.33239 0.0089 0.0
C97 C 0.6854 0.39161 0.05512 0.0
C98 C 0.68102 0.36459 0.08459 0.0
C99 C 0.66535 0.40002 0.08973 0.0
C100 C 0.67354 0.40617 0.06851 0.0
C101 C 0.66887 0.37913 0.09799 0.0
C102 C 0.68929 0.37082 0.06333 0.0
C103 C 0.69289 0.3984 0.03245 0.0
O104 O 0.73655 0.41314 0.98169 0.0
O105 O 0.71327 0.39084 0.9659 0.0
O106 O 0.68892 0.385 0.01552 0.0
O107 O 0.71244 0.40693 0.03161 0.0
H108 H 0.69114 0.42968 0.98498 0.0
H109 H 0.66945 0.45947 0.97015 0.0
H110 H 0.70784 0.45885 0.90825 0.0
H111 H 0.72918 0.42871 0.92312 0.0
H112 H 0.78425 0.33494 0.94275 0.0
H113 H 0.75561 0.35427 0.96345 0.0
H114 H 0.81056 0.31275 0.00695 0.0
H115 H 0.78144 0.33152 0.02737 0.0
H116 H 0.68417 0.34846 0.09056 0.0
H117 H 0.65578 0.41151 0.0994 0.0
H118 H 0.67032 0.42226 0.0624 0.0
H119 H 0.69852 0.35937 0.05321 0.0
C120 C 0.29248 0.64946 0.56414 0.0
C121 C 0.30799 0.63392 0.57004 0.0
C122 C 0.3172 0.65404 0.6045 0.0
C123 C 0.32023 0.63617 0.59001 0.0
C124 C 0.30159 0.6696 0.59851 0.0
C125 C 0.28931 0.6673 0.57847 0.0
U126 U 0.2826 0.61858 0.50983 0.0
O127 O 0.2527 0.60925 0.49169 0.0
O128 O 0.27708 0.62927 0.4745 0.0
C129 C 0.25748 0.62083 0.47365 0.0
C130 C 0.2801 0.64718 0.54279 0.0
C131 C 0.24015 0.63514 0.46535 0.0
C132 C 0.20995 0.65961 0.47221 0.0
C133 C 0.22655 0.64638 0.48054 0.0
C134 C 0.22065 0.65084 0.43343 0.0
C135 C 0.20675 0.66197 0.44852 0.0
C136 C 0.23714 0.63754 0.44179 0.0
C137 C 0.31899 0.56902 0.50059 0.0
C138 C 0.31878 0.54694 0.46624 0.0
C139 C 0.34313 0.53832 0.49745 0.0
C140 C 0.3351 0.5558 0.50988 0.0
C141 C 0.33515 0.5337 0.47543 0.0
C142 C 0.31074 0.56448 0.47875 0.0
C143 C 0.31144 0.58768 0.51383 0.0
O144 O 0.2916 0.65009 0.52413 0.0
O145 O 0.26744 0.63018 0.54164 0.0
O146 O 0.29157 0.5864 0.52202 0.0
O147 O 0.31594 0.60653 0.50502 0.0
H148 H 0.31076 0.62011 0.55906 0.0
H149 H 0.33235 0.62409 0.59387 0.0
H150 H 0.29875 0.68344 0.60939 0.0
H151 H 0.27741 0.67946 0.57413 0.0
H152 H 0.19943 0.66771 0.48434 0.0
H153 H 0.22866 0.64482 0.49883 0.0
H154 H 0.21896 0.65256 0.41513 0.0
H155 H 0.24757 0.6291 0.42981 0.0
H156 H 0.31215 0.54372 0.44942 0.0
H157 H 0.35598 0.52872 0.5049 0.0
H158 H 0.3417 0.55916 0.5267 0.0
H159 H 0.29823 0.57456 0.47136 0.0
C160 C 0.79416 0.92847 0.95696 0.0
C161 C 0.81044 0.93733 0.97092 0.0
C162 C 0.82023 0.96247 0.94093 0.0
C163 C 0.82335 0.95418 0.96299 0.0
C164 C 0.80366 0.9537 0.92711 0.0
C165 C 0.79075 0.93679 0.93507 0.0
U166 U 0.7827 0.88829 0.00316 0.0
O167 O 0.75191 0.87573 0.01699 0.0
O168 O 0.77586 0.85368 0.00181 0.0
C169 C 0.75611 0.85602 0.01012 0.0
C170 C 0.78114 0.9103 0.96515 0.0
C171 C 0.73868 0.84539 0.99706 0.0
C172 C 0.72104 0.8366 0.96103 0.0
C173 C 0.73727 0.84748 0.97325 0.0
C174 C 0.70714 0.82191 0.99637 0.0
C175 C 0.70587 0.82352 0.97243 0.0
C176 C 0.72342 0.83271 0.00854 0.0
C177 C 0.81926 0.89212 0.05645 0.0
C178 C 0.82069 0.8657 0.08681 0.0
C179 C 0.84171 0.89854 0.08988 0.0
C180 C 0.8337 0.90516 0.06875 0.0
C181 C 0.83539 0.87869 0.09915 0.0
C182 C 0.81264 0.8724 0.06562 0.0
C183 C 0.81189 0.89923 0.03387 0.0
O184 O 0.79194 0.89218 0.96714 0.0
O185 O 0.7687 0.91453 0.98288 0.0
O186 O 0.79233 0.90774 0.03303 0.0
O187 O 0.81592 0.88596 0.01684 0.0
H188 H 0.81325 0.93111 0.98791 0.0
H189 H 0.83572 0.96077 0.9742 0.0
H190 H 0.80099 0.95958 0.90996 0.0
H191 H 0.77827 0.93007 0.92408 0.0
H192 H 0.72069 0.83806 0.94261 0.0
H193 H 0.7489 0.8573 0.9641 0.0
H194 H 0.69551 0.81233 0.00576 0.0
H195 H 0.72418 0.83105 0.02693 0.0
H196 H 0.81536 0.85043 0.09357 0.0
H197 H 0.85327 0.90877 0.0987 0.0
H198 H 0.83905 0.92039 0.06185 0.0
H199 H 0.80143 0.86214 0.05631 0.0
C200 C 0.21253 0.15131 0.56299 0.0
C201 C 0.19748 0.16823 0.565 0.0
C202 C 0.18787 0.15685 0.60346 0.0
C203 C 0.18524 0.17093 0.58495 0.0
C204 C 0.20346 0.14036 0.60171 0.0
C205 C 0.21563 0.1376 0.58173 0.0
U206 U 0.2215 0.11857 0.50881 0.0
O207 O 0.22668 0.12863 0.47322 0.0
O208 O 0.2512 0.10888 0.49055 0.0
C209 C 0.24628 0.12017 0.47235 0.0
C210 C 0.22424 0.14778 0.54113 0.0
C211 C 0.26354 0.13438 0.46375 0.0
C212 C 0.29325 0.15949 0.47019 0.0
C213 C 0.27672 0.14633 0.47873 0.0
C214 C 0.28335 0.1492 0.43159 0.0
C215 C 0.29681 0.16107 0.44649 0.0
C216 C 0.26692 0.13597 0.44016 0.0
C217 C 0.18532 0.0688 0.50079 0.0
C218 C 0.18288 0.04798 0.46565 0.0
C219 C 0.16355 0.03633 0.49947 0.0
C220 C 0.17168 0.05398 0.51156 0.0
C221 C 0.16892 0.03317 0.47633 0.0
C222 C 0.19106 0.06565 0.47782 0.0
C223 C 0.19283 0.08767 0.5137 0.0
O224 O 0.23715 0.13093 0.54003 0.0
O225 O 0.21252 0.15035 0.52255 0.0
O226 O 0.18817 0.10638 0.50465 0.0
O227 O 0.21276 0.0866 0.52181 0.0
H228 H 0.19484 0.17913 0.55091 0.0
H229 H 0.17326 0.18369 0.58559 0.0
H230 H 0.20624 0.12949 0.61579 0.0
H231 H 0.22723 0.12452 0.58092 0.0
H232 H 0.30344 0.16817 0.48218 0.0
H233 H 0.27431 0.14538 0.49703 0.0
H234 H 0.28533 0.1503 0.41326 0.0
H235 H 0.25681 0.12696 0.42834 0.0
H236 H 0.18748 0.04589 0.44792 0.0
H237 H 0.15258 0.02545 0.50813 0.0
H238 H 0.16705 0.05623 0.52927 0.0
H239 H 0.20167 0.07696 0.46927 0.0
C240 C 0.21076 0.92615 0.95435 0.0
C241 C 0.19164 0.92186 0.9419 0.0
C242 C 0.18534 0.96015 0.93664 0.0
C243 C 0.17907 0.93865 0.93321 0.0
C244 C 0.20467 0.96445 0.94869 0.0
C245 C 0.21729 0.94765 0.95735 0.0
U246 U 0.22261 0.88694 0.00258 0.0
O247 O 0.23087 0.85261 0.00212 0.0
O248 O 0.2537 0.87586 0.01718 0.0
C249 C 0.25039 0.85588 0.0107 0.0
C250 C 0.22381 0.90835 0.96415 0.0
C251 C 0.2685 0.84558 0.99833 0.0
C252 C 0.28625 0.83474 0.96297 0.0
C253 C 0.2693 0.84536 0.97437 0.0
C254 C 0.30208 0.82501 0.99937 0.0
C255 C 0.30277 0.82426 0.97534 0.0
C256 C 0.28509 0.83552 0.01072 0.0
C257 C 0.18539 0.89057 0.05547 0.0
C258 C 0.18111 0.86356 0.08497 0.0
C259 C 0.16557 0.89903 0.09021 0.0
C260 C 0.17365 0.90516 0.06894 0.0
C261 C 0.16907 0.87812 0.09844 0.0
C262 C 0.18928 0.86976 0.06365 0.0
C263 C 0.19272 0.89735 0.03272 0.0
O264 O 0.23598 0.91324 0.98192 0.0
O265 O 0.21379 0.8898 0.96633 0.0
O266 O 0.18938 0.8836 0.01595 0.0
O267 O 0.21189 0.90667 0.03185 0.0
H268 H 0.18622 0.90551 0.93903 0.0
H269 H 0.16417 0.93478 0.92418 0.0
H270 H 0.21014 0.98082 0.9513 0.0
H271 H 0.23211 0.95153 0.96652 0.0
H272 H 0.28612 0.83435 0.94448 0.0
H273 H 0.25668 0.85314 0.96448 0.0
H274 H 0.31472 0.81751 0.00946 0.0
H275 H 0.28483 0.83567 0.02923 0.0
H276 H 0.18424 0.84741 0.09091 0.0
H277 H 0.15608 0.91054 0.09994 0.0
H278 H 0.17043 0.92125 0.06285 0.0
H279 H 0.19842 0.85829 0.05348 0.0
C280 C 0.7917 0.14918 0.56375 0.0
C281 C 0.80731 0.1337 0.56953 0.0
C282 C 0.81657 0.15377 0.60401 0.0
C283 C 0.81962 0.13596 0.58944 0.0
C284 C 0.80085 0.16927 0.59814 0.0
C285 C 0.7885 0.16696 0.57815 0.0
U286 U 0.7817 0.11826 0.50951 0.0
O287 O 0.75178 0.10894 0.49141 0.0
O288 O 0.77617 0.12891 0.47417 0.0
C289 C 0.75655 0.12051 0.47336 0.0
C290 C 0.77927 0.1469 0.54244 0.0
C291 C 0.73924 0.13486 0.46508 0.0
C292 C 0.70886 0.1591 0.47195 0.0
C293 C 0.72542 0.14583 0.48028 0.0
C294 C 0.72003 0.15094 0.43319 0.0
C295 C 0.70591 0.16179 0.44828 0.0
C296 C 0.73648 0.13758 0.44153 0.0
C297 C 0.81816 0.06867 0.50044 0.0
C298 C 0.81822 0.04654 0.46612 0.0
C299 C 0.84232 0.03795 0.49756 0.0
C300 C 0.83419 0.05546 0.5099 0.0
C301 C 0.83452 0.03332 0.47548 0.0
C302 C 0.81008 0.0641 0.47853 0.0
C303 C 0.81055 0.08737 0.51357 0.0
O304 O 0.79072 0.14979 0.52375 0.0
O305 O 0.76659 0.12991 0.54134 0.0
O306 O 0.79067 0.08609 0.52175 0.0
O307 O 0.81504 0.10619 0.50471 0.0
H308 H 0.8101 0.11993 0.55849 0.0
H309 H 0.83182 0.12392 0.59321 0.0
H310 H 0.79799 0.18307 0.60907 0.0
H311 H 0.77652 0.17908 0.5739 0.0
H312 H 0.69817 0.16699 0.48409 0.0
H313 H 0.72734 0.14403 0.49856 0.0
H314 H 0.71854 0.15291 0.41489 0.0
H315 H 0.74708 0.12936 0.42954 0.0
H316 H 0.81173 0.0433 0.44925 0.0
H317 H 0.85511 0.02837 0.50514 0.0
H318 H 0.84066 0.05885 0.52677 0.0
H319 H 0.79764 0.07417 0.47101 0.0
Sc320 Sc 1.00201 0.80942 0.32215 0.0
Sc321 Sc 1.00183 0.86609 0.32526 0.0
Sc322 Sc 1.00166 0.8359 0.37579 0.0
O323 O 1.00183 0.83711 0.34106 0.0
C324 C 0.96924 0.79753 0.36271 0.0
C325 C 0.96954 0.8389 0.29337 0.0
C326 C 0.96892 0.87485 0.36651 0.0
C327 C 0.03471 0.83915 0.2939 0.0
C328 C 0.03458 0.79784 0.363 0.0
C329 C 0.03406 0.87515 0.36706 0.0
O330 O 0.97666 0.79488 0.34258 0.0
O331 O 0.97693 0.85646 0.30143 0.0
O332 O 0.9763 0.85983 0.37897 0.0
O333 O 0.02725 0.8208 0.29936 0.0
O334 O 0.027 0.81199 0.37659 0.0
O335 O 0.0267 0.87925 0.34726 0.0
O336 O 0.02719 0.79498 0.34288 0.0
O337 O 0.02723 0.85662 0.30206 0.0
O338 O 0.02669 0.85997 0.37925 0.0
O339 O 0.97691 0.82063 0.29922 0.0
O340 O 0.97669 0.81165 0.37641 0.0
O341 O 0.97647 0.87885 0.34677 0.0
Sc342 Sc 1.00242 0.19152 0.82178 0.0
Sc343 Sc 1.00241 0.13485 0.81831 0.0
Sc344 Sc 1.00318 0.1603 0.87205 0.0
O345 O 1.00269 0.16225 0.83737 0.0
C346 C 0.03551 0.19967 0.86322 0.0
C347 C 0.03481 0.16466 0.78971 0.0
C348 C 0.03546 0.12211 0.85819 0.0
C349 C 0.96958 0.1646 0.79026 0.0
C350 C 0.97015 0.19935 0.8639 0.0
C351 C 0.97032 0.12233 0.85905 0.0
O352 O 0.02775 0.2043 0.8437 0.0
O353 O 0.02733 0.14648 0.79565 0.0
O354 O 0.02843 0.1361 0.8723 0.0
O355 O 0.97706 0.1823 0.79792 0.0
O356 O 0.97796 0.18414 0.87579 0.0
O357 O 0.97742 0.1201 0.83877 0.0
O358 O 0.97728 0.20395 0.8441 0.0
O359 O 0.97709 0.14646 0.79626 0.0
O360 O 0.97803 0.13614 0.87295 0.0
O361 O 0.02752 0.18232 0.7977 0.0
O362 O 0.02834 0.18421 0.87516 0.0
O363 O 0.02766 0.11992 0.8382 0.0
Sc364 Sc 0.50175 0.30933 0.32125 0.0
Sc365 Sc 0.5013 0.36602 0.32446 0.0
Sc366 Sc 0.50088 0.33576 0.37492 0.0
O367 O 0.50131 0.33701 0.34019 0.0
C368 C 0.46858 0.29747 0.36152 0.0
C369 C 0.46923 0.33869 0.29239 0.0
C370 C 0.46827 0.37484 0.36553 0.0
C371 C 0.5344 0.33929 0.29318 0.0
C372 C 0.53396 0.2977 0.36229 0.0
C373 C 0.53342 0.37491 0.36644 0.0
O374 O 0.47655 0.29451 0.34167 0.0
O375 O 0.47662 0.35628 0.3004 0.0
O376 O 0.47576 0.35993 0.37806 0.0
O377 O 0.52691 0.32091 0.29847 0.0
O378 O 0.52598 0.31158 0.37594 0.0
O379 O 0.52595 0.37918 0.34672 0.0
O380 O 0.52701 0.29509 0.34197 0.0
O381 O 0.52691 0.35671 0.30145 0.0
O382 O 0.52614 0.35958 0.37852 0.0
O383 O 0.47657 0.32044 0.29834 0.0
O384 O 0.47557 0.31185 0.37517 0.0
O385 O 0.47572 0.3787 0.34572 0.0
Sc386 Sc 0.50295 0.6917 0.82224 0.0
Sc387 Sc 0.50294 0.63504 0.81867 0.0
Sc388 Sc 0.50442 0.66039 0.87245 0.0
O389 O 0.50343 0.66241 0.83778 0.0
C390 C 0.53678 0.69961 0.86306 0.0
C391 C 0.53498 0.66487 0.78971 0.0
C392 C 0.53645 0.62218 0.85811 0.0
C393 C 0.46975 0.66487 0.79112 0.0
C394 C 0.47147 0.69964 0.865 0.0
C395 C 0.47131 0.62253 0.85981 0.0
O396 O 0.5287 0.70434 0.8437 0.0
O397 O 0.52773 0.64665 0.79583 0.0
O398 O 0.52957 0.63617 0.87229 0.0
O399 O 0.47719 0.68256 0.79884 0.0
O400 O 0.47938 0.68434 0.87669 0.0
O401 O 0.47805 0.62041 0.83939 0.0
O402 O 0.47825 0.70421 0.84507 0.0
O403 O 0.47746 0.64674 0.79687 0.0
O404 O 0.4793 0.63621 0.87369 0.0
O405 O 0.52762 0.6825 0.79768 0.0
O406 O 0.52972 0.68419 0.87512 0.0
O407 O 0.5284 0.61998 0.83822 0.0
C408 C 0.16496 0.3156 0.96617 0.0
C409 C 0.1866 0.31439 0.95848 0.0
C410 C 0.14842 0.30443 0.95479 0.0
C411 C 0.13504 0.27628 0.90035 0.0
H412 H 0.09166 0.24817 0.93784 0.0
C413 C 0.05995 0.23215 0.86213 0.0
C414 C 0.05339 0.21302 0.87281 0.0
C415 C 0.07622 0.24506 0.87183 0.0
C416 C 0.10373 0.25576 0.92709 0.0
H417 H 0.20782 0.30066 0.93265 0.0
H418 H 0.17902 0.28093 0.91294 0.0
H419 H 0.11992 0.26965 0.95591 0.0
H420 H 0.05937 0.19225 0.90182 0.0
H421 H 0.08784 0.21447 0.91839 0.0
H422 H 0.11915 0.26176 0.87156 0.0
C423 C 0.17473 0.29082 0.92754 0.0
C424 C 0.11979 0.26836 0.93745 0.0
C425 C 0.19126 0.30209 0.93887 0.0
C426 C 0.06381 0.20695 0.89318 0.0
C427 C 0.08008 0.21979 0.9028 0.0
C428 C 0.11897 0.2636 0.88996 0.0
C429 C 0.15313 0.29167 0.9355 0.0
C430 C 0.1357 0.27874 0.92424 0.0
C431 C 0.08636 0.23912 0.8924 0.0
C432 C 0.1032 0.25307 0.90323 0.0
H433 H 0.16079 0.32524 0.981 0.0
H434 H 0.13192 0.30583 0.96113 0.0
H435 H 0.14689 0.28422 0.88962 0.0
H436 H 0.05227 0.23737 0.84645 0.0
H437 H 0.08051 0.25994 0.86345 0.0
C438 C 0.82071 0.67424 0.41495 0.0
C439 C 0.81513 0.6748 0.43825 0.0
C440 C 0.83727 0.68737 0.40646 0.0
C441 C 0.88544 0.71889 0.42493 0.0
H442 H 0.87908 0.74593 0.36579 0.0
C443 C 0.9442 0.78463 0.39361 0.0
C444 C 0.9513 0.78346 0.37078 0.0
C445 C 0.9276 0.77122 0.40145 0.0
C446 C 0.88119 0.73831 0.38222 0.0
H447 H 0.82278 0.68964 0.47089 0.0
H448 H 0.85122 0.71294 0.456 0.0
H449 H 0.85 0.72306 0.38031 0.0
H450 H 0.94624 0.76727 0.33827 0.0
H451 H 0.91723 0.74386 0.35204 0.0
H452 H 0.91653 0.73433 0.42692 0.0
C453 C 0.843 0.70211 0.44432 0.0
C454 C 0.86454 0.72518 0.39056 0.0
C455 C 0.82647 0.68893 0.45282 0.0
C456 C 0.94122 0.76863 0.35595 0.0
C457 C 0.9245 0.75527 0.3638 0.0
C458 C 0.90203 0.73209 0.41664 0.0
C459 C 0.84866 0.70145 0.42104 0.0
C460 C 0.86643 0.71534 0.41205 0.0
C461 C 0.9176 0.75635 0.38668 0.0
C462 C 0.90007 0.742 0.39523 0.0
H463 H 0.81215 0.66376 0.40316 0.0
H464 H 0.84133 0.68627 0.38849 0.0
H465 H 0.88765 0.71126 0.44134 0.0
H466 H 0.95151 0.79585 0.40555 0.0
H467 H 0.92246 0.77266 0.41909 0.0
C468 C 0.82698 0.31844 0.94119 0.0
C469 C 0.81683 0.30988 0.96066 0.0
C470 C 0.84301 0.30677 0.92949 0.0
C471 C 0.8645 0.25135 0.92211 0.0
H472 H 0.91581 0.28033 0.89906 0.0
C473 C 0.94152 0.20556 0.89379 0.0
C474 C 0.95199 0.21222 0.87366 0.0
C475 C 0.92453 0.21763 0.90318 0.0
C476 C 0.90145 0.27205 0.90517 0.0
H477 H 0.81549 0.28211 0.98285 0.0
H478 H 0.84379 0.26214 0.96298 0.0
H479 H 0.8872 0.30116 0.91784 0.0
H480 H 0.95266 0.23692 0.84766 0.0
H481 H 0.92298 0.25804 0.86418 0.0
H482 H 0.87896 0.22221 0.90981 0.0
C483 C 0.83917 0.27774 0.95649 0.0
C484 C 0.88503 0.28398 0.91591 0.0
C485 C 0.82313 0.28936 0.96811 0.0
C486 C 0.94498 0.23129 0.86316 0.0
C487 C 0.92805 0.24347 0.87268 0.0
C488 C 0.88096 0.23943 0.9115 0.0
C489 C 0.8493 0.28625 0.93699 0.0
C490 C 0.86642 0.27375 0.92471 0.0
C491 C 0.91762 0.23674 0.89278 0.0
C492 C 0.89971 0.24961 0.90309 0.0
H493 H 0.82271 0.33428 0.93508 0.0
H494 H 0.8503 0.31375 0.91443 0.0
H495 H 0.85021 0.24297 0.92821 0.0
H496 H 0.94643 0.19097 0.90236 0.0
H497 H 0.91699 0.21214 0.91882 0.0
C498 C 0.18375 0.69546 0.45043 0.0
C499 C 0.18898 0.67591 0.43957 0.0
C500 C 0.16708 0.70851 0.44199 0.0
C501 C 0.13577 0.72016 0.38986 0.0
H502 H 0.0943 0.74572 0.4319 0.0
C503 C 0.05917 0.76571 0.35869 0.0
C504 C 0.05266 0.78401 0.37115 0.0
C505 C 0.07584 0.75245 0.3668 0.0
C506 C 0.1059 0.73897 0.41992 0.0
H507 H 0.18038 0.65467 0.41144 0.0
H508 H 0.15157 0.67762 0.39657 0.0
H509 H 0.12333 0.72293 0.44654 0.0
H510 H 0.05904 0.8029 0.40172 0.0
H511 H 0.0883 0.78013 0.41552 0.0
H512 H 0.11856 0.73638 0.36325 0.0
C513 C 0.16054 0.68291 0.4115 0.0
C514 C 0.12252 0.72586 0.42834 0.0
C515 C 0.17711 0.66979 0.42002 0.0
C516 C 0.06345 0.78885 0.39174 0.0
C517 C 0.08019 0.77569 0.39976 0.0
C518 C 0.11923 0.73339 0.38144 0.0
C519 C 0.15532 0.7024 0.42241 0.0
C520 C 0.13764 0.71631 0.41341 0.0
C521 C 0.08652 0.75722 0.38749 0.0
C522 C 0.10408 0.743 0.39637 0.0
H523 H 0.19276 0.70088 0.46528 0.0
H524 H 0.16363 0.72358 0.4506 0.0
H525 H 0.14734 0.71324 0.37795 0.0
H526 H 0.05117 0.76143 0.34282 0.0
H527 H 0.08008 0.73823 0.35703 0.0
C528 C 0.68365 0.79017 0.96586 0.0
C529 C 0.68909 0.81123 0.95944 0.0
C530 C 0.66793 0.77853 0.95379 0.0
C531 C 0.62129 0.78499 0.91435 0.0
H532 H 0.6294 0.72376 0.90519 0.0
C533 C 0.56116 0.73213 0.86192 0.0
C534 C 0.55514 0.71261 0.87216 0.0
C535 C 0.57816 0.7445 0.87101 0.0
C536 C 0.62685 0.74082 0.90772 0.0
H537 H 0.68209 0.83654 0.93521 0.0
H538 H 0.65502 0.81601 0.91377 0.0
H539 H 0.65788 0.74477 0.92375 0.0
H540 H 0.56258 0.69074 0.89985 0.0
H541 H 0.59211 0.71224 0.91554 0.0
H542 H 0.59019 0.78092 0.89825 0.0
C543 C 0.66274 0.80861 0.92838 0.0
C544 C 0.64315 0.75287 0.91842 0.0
C545 C 0.67846 0.8203 0.94052 0.0
C546 C 0.5667 0.70568 0.89151 0.0
C547 C 0.58376 0.71794 0.90045 0.0
C548 C 0.60502 0.77292 0.90351 0.0
C549 C 0.65729 0.78756 0.93486 0.0
C550 C 0.64045 0.77505 0.92219 0.0
C551 C 0.58964 0.73752 0.89037 0.0
C552 C 0.60749 0.75065 0.90039 0.0
H553 H 0.69169 0.78254 0.98013 0.0
H554 H 0.66395 0.7625 0.9595 0.0
H555 H 0.61855 0.80198 0.91718 0.0
H556 H 0.55262 0.73797 0.84701 0.0
H557 H 0.58243 0.75946 0.86278 0.0
C558 C 0.31906 0.19505 0.44745 0.0
C559 C 0.31445 0.17502 0.43731 0.0
C560 C 0.33554 0.20816 0.43877 0.0
C561 C 0.38483 0.20689 0.402 0.0
H562 H 0.37633 0.2686 0.4009 0.0
C563 C 0.4446 0.26493 0.35691 0.0
C564 C 0.45043 0.28352 0.36926 0.0
C565 C 0.4278 0.25162 0.36462 0.0
C566 C 0.379 0.25141 0.40124 0.0
H567 H 0.32393 0.15303 0.41018 0.0
H568 H 0.35212 0.17617 0.39461 0.0
H569 H 0.3475 0.24553 0.41545 0.0
H570 H 0.44287 0.30276 0.39929 0.0
H571 H 0.4136 0.27962 0.41258 0.0
H572 H 0.4163 0.21287 0.38754 0.0
C573 C 0.3432 0.18162 0.40951 0.0
C574 C 0.3625 0.23816 0.40965 0.0
C575 C 0.32679 0.16846 0.41827 0.0
C576 C 0.43888 0.28857 0.38934 0.0
C577 C 0.42199 0.27538 0.39691 0.0
C578 C 0.40127 0.22015 0.39343 0.0
C579 C 0.34779 0.20166 0.41963 0.0
C580 C 0.36524 0.21573 0.41028 0.0
C581 C 0.41631 0.25671 0.3847 0.0
C582 C 0.39859 0.24256 0.39309 0.0
H583 H 0.30976 0.20076 0.46198 0.0
H584 H 0.33879 0.22335 0.44722 0.0
H585 H 0.38767 0.18974 0.40253 0.0
H586 H 0.45314 0.26053 0.34139 0.0
H587 H 0.42366 0.23743 0.35474 0.0
C588 C 0.32801 0.7926 0.97205 0.0
C589 C 0.32039 0.81222 0.96332 0.0
C590 C 0.34455 0.78123 0.96093 0.0
C591 C 0.37144 0.77416 0.90519 0.0
H592 H 0.41737 0.74855 0.94142 0.0
C593 C 0.44628 0.73159 0.86457 0.0
C594 C 0.45384 0.71286 0.87533 0.0
C595 C 0.43014 0.74431 0.87479 0.0
C596 C 0.40454 0.75537 0.93105 0.0
H597 H 0.32441 0.83526 0.93597 0.0
H598 H 0.35317 0.81523 0.91642 0.0
H599 H 0.38908 0.76964 0.96016 0.0
H600 H 0.44987 0.69264 0.90514 0.0
H601 H 0.42162 0.71451 0.92265 0.0
H602 H 0.38676 0.75964 0.87608 0.0
C603 C 0.34617 0.80862 0.93183 0.0
C604 C 0.38834 0.76751 0.94181 0.0
C605 C 0.32966 0.82008 0.94303 0.0
C606 C 0.44462 0.70703 0.8964 0.0
C607 C 0.42848 0.71967 0.90655 0.0
C608 C 0.38762 0.76192 0.8944 0.0
C609 C 0.35386 0.78911 0.94072 0.0
C610 C 0.3715 0.7769 0.92904 0.0
C611 C 0.42114 0.73857 0.896 0.0
C612 C 0.40427 0.75221 0.90723 0.0
H613 H 0.32096 0.7858 0.98734 0.0
H614 H 0.34984 0.76606 0.968 0.0
H615 H 0.35856 0.78103 0.8949 0.0
H616 H 0.45302 0.73663 0.84837 0.0
H617 H 0.42503 0.75886 0.86628 0.0
C618 C 0.67657 0.16989 0.41952 0.0
C619 C 0.68817 0.17578 0.43933 0.0
C620 C 0.66005 0.18306 0.411 0.0
C621 C 0.62157 0.22555 0.428 0.0
H622 H 0.61844 0.23702 0.36305 0.0
C623 C 0.56239 0.28853 0.39147 0.0
C624 C 0.552 0.28389 0.37059 0.0
C625 C 0.57912 0.27541 0.39957 0.0
C626 C 0.61888 0.23377 0.38119 0.0
H627 H 0.6915 0.20038 0.46551 0.0
H628 H 0.66244 0.22315 0.45083 0.0
H629 H 0.64718 0.21387 0.3778 0.0
H630 H 0.55121 0.26171 0.34188 0.0
H631 H 0.58009 0.23859 0.35623 0.0
H632 H 0.59315 0.24514 0.43146 0.0
C633 C 0.66607 0.20823 0.44201 0.0
C634 C 0.63539 0.22053 0.38964 0.0
C635 C 0.68271 0.19514 0.45045 0.0
C636 C 0.55889 0.26584 0.35797 0.0
C637 C 0.57556 0.25262 0.36616 0.0
C638 C 0.60497 0.23866 0.41955 0.0
C639 C 0.65459 0.20237 0.42216 0.0
C640 C 0.63696 0.21633 0.41315 0.0
C641 C 0.58585 0.2572 0.38711 0.0
C642 C 0.60344 0.24302 0.39604 0.0
H643 H 0.68002 0.15493 0.41073 0.0
H644 H 0.65129 0.17795 0.39586 0.0
H645 H 0.62215 0.22236 0.44616 0.0
H646 H 0.55767 0.30239 0.40158 0.0
H647 H 0.58693 0.27969 0.41554 0.0
C648 C 0.33456 0.48629 0.90787 0.0
C649 C 0.33293 0.48146 0.93125 0.0
C650 C 0.34856 0.50247 0.90032 0.0
C651 C 0.39703 0.53382 0.9185 0.0
H652 H 0.38135 0.57007 0.86743 0.0
C653 C 0.44919 0.60643 0.89146 0.0
C654 C 0.45387 0.60798 0.868 0.0
C655 C 0.4336 0.59188 0.8993 0.0
C656 C 0.38598 0.55997 0.88163 0.0
H657 H 0.34487 0.49005 0.96499 0.0
H658 H 0.36854 0.51872 0.95195 0.0
H659 H 0.35559 0.54317 0.88105 0.0
H660 H 0.44528 0.59582 0.83436 0.0
H661 H 0.41796 0.57054 0.8481 0.0
H662 H 0.42733 0.55082 0.91919 0.0
C663 C 0.35932 0.50973 0.93936 0.0
C664 C 0.37126 0.5445 0.88941 0.0
C665 C 0.34545 0.49346 0.94689 0.0
C666 C 0.44217 0.595 0.85254 0.0
C667 C 0.42642 0.5806 0.86038 0.0
C668 C 0.41163 0.5494 0.91086 0.0
C669 C 0.36121 0.51434 0.91595 0.0
C670 C 0.37664 0.53115 0.90789 0.0
C671 C 0.42216 0.57871 0.88386 0.0
C672 C 0.40631 0.56258 0.89229 0.0
H673 H 0.32497 0.4776 0.89535 0.0
H674 H 0.34974 0.50539 0.88215 0.0
H675 H 0.40194 0.52358 0.93247 0.0
H676 H 0.45786 0.61617 0.90386 0.0
H677 H 0.43049 0.59093 0.91747 0.0
C678 C 0.65119 0.51714 0.4401 0.0
C679 C 0.65939 0.5142 0.46228 0.0
C680 C 0.64031 0.50046 0.42878 0.0
C681 C 0.60883 0.45176 0.44119 0.0
H682 H 0.61428 0.44086 0.37617 0.0
C683 C 0.56054 0.38392 0.39717 0.0
C684 C 0.55077 0.38886 0.37611 0.0
C685 C 0.57591 0.39774 0.40693 0.0
C686 C 0.61246 0.44381 0.39432 0.0
H687 H 0.66368 0.49103 0.48943 0.0
H688 H 0.64468 0.46196 0.46972 0.0
H689 H 0.63759 0.4677 0.39447 0.0
H690 H 0.55003 0.41205 0.34856 0.0
H691 H 0.57652 0.43627 0.36577 0.0
H692 H 0.58342 0.42831 0.44107 0.0
C693 C 0.6463 0.47729 0.46124 0.0
C694 C 0.62583 0.45917 0.40479 0.0
C695 C 0.65718 0.49395 0.47253 0.0
C696 C 0.5572 0.40769 0.36479 0.0
C697 C 0.57252 0.42155 0.3746 0.0
C698 C 0.59543 0.43648 0.43073 0.0
C699 C 0.63738 0.48047 0.43941 0.0
C700 C 0.62406 0.46341 0.42833 0.0
C701 C 0.58186 0.41689 0.39594 0.0
C702 C 0.59696 0.4324 0.40714 0.0
H703 H 0.65239 0.53261 0.43181 0.0
H704 H 0.63344 0.5035 0.41207 0.0
H705 H 0.60677 0.4549 0.45928 0.0
H706 H 0.55615 0.36947 0.40629 0.0
H707 H 0.58307 0.39346 0.42319 0.0
C708 C 0.66679 0.49649 0.94305 0.0
C709 C 0.67343 0.47942 0.92883 0.0
C710 C 0.65336 0.51278 0.93465 0.0
C711 C 0.61363 0.52356 0.88886 0.0
H712 H 0.62191 0.58309 0.90668 0.0
C713 C 0.56198 0.5915 0.85013 0.0
C714 C 0.55405 0.60729 0.86528 0.0
C715 C 0.57767 0.57672 0.85721 0.0
C716 C 0.61927 0.56651 0.9017 0.0
H717 H 0.67124 0.46623 0.89453 0.0
H718 H 0.64817 0.49484 0.87978 0.0
H719 H 0.6473 0.55579 0.9202 0.0
H720 H 0.55691 0.62011 0.89973 0.0
H721 H 0.58414 0.59418 0.9121 0.0
H722 H 0.58553 0.53419 0.87054 0.0
C723 C 0.65315 0.4955 0.89752 0.0
C724 C 0.63382 0.55087 0.90945 0.0
C725 C 0.6666 0.47923 0.9059 0.0
C726 C 0.56261 0.60819 0.88757 0.0
C727 C 0.57833 0.59339 0.89465 0.0
C728 C 0.59911 0.53918 0.88112 0.0
C729 C 0.64622 0.51238 0.91183 0.0
C730 C 0.63114 0.52918 0.90317 0.0
C731 C 0.58586 0.57732 0.87963 0.0
C732 C 0.6017 0.56084 0.88749 0.0
H733 H 0.67196 0.49727 0.96072 0.0
H734 H 0.64818 0.52544 0.9462 0.0
H735 H 0.61084 0.50697 0.88403 0.0
H736 H 0.5559 0.59037 0.83279 0.0
H737 H 0.58339 0.56477 0.8451 0.0
C738 C 0.34924 0.51801 0.43861 0.0
C739 C 0.34453 0.51559 0.46196 0.0
C740 C 0.35977 0.50164 0.42645 0.0
C741 C 0.37499 0.44382 0.42858 0.0
H742 H 0.42217 0.46172 0.38903 0.0
C743 C 0.44295 0.38635 0.39709 0.0
C744 C 0.45084 0.389 0.37472 0.0
C745 C 0.42773 0.40073 0.40625 0.0
C746 C 0.40884 0.45642 0.39972 0.0
H747 H 0.34626 0.49361 0.49051 0.0
H748 H 0.36505 0.4653 0.46947 0.0
H749 H 0.39943 0.4887 0.40746 0.0
H750 H 0.44814 0.40847 0.34418 0.0
H751 H 0.42158 0.43337 0.36014 0.0
H752 H 0.3848 0.41148 0.42115 0.0
C753 C 0.36048 0.47977 0.46048 0.0
C754 C 0.39576 0.47191 0.41028 0.0
C755 C 0.34993 0.49612 0.47263 0.0
C756 C 0.4426 0.40598 0.36153 0.0
C757 C 0.42743 0.42036 0.3707 0.0
C758 C 0.38812 0.42829 0.41803 0.0
C759 C 0.36586 0.48246 0.43733 0.0
C760 C 0.37879 0.46583 0.425 0.0
C761 C 0.42007 0.41811 0.39329 0.0
C762 C 0.40531 0.43443 0.40362 0.0
H763 H 0.34544 0.53284 0.42989 0.0
H764 H 0.3634 0.50412 0.40856 0.0
H765 H 0.36186 0.43857 0.43956 0.0
H766 H 0.44888 0.37345 0.40775 0.0
H767 H 0.42254 0.39865 0.42378 0.0
C768 C 0.85698 0.97961 0.93681 0.0
C769 C 0.8345 0.97994 0.93232 0.0
C770 C 0.87048 0.99603 0.92895 0.0
C771 C 0.87386 0.03909 0.88604 0.0
H772 H 0.92035 0.0599 0.92514 0.0
C773 C 0.94471 0.09138 0.85273 0.0
C774 C 0.95276 0.10779 0.86704 0.0
C775 C 0.92897 0.07701 0.86065 0.0
C776 C 0.90731 0.05446 0.91408 0.0
H777 H 0.80856 0.99791 0.9161 0.0
H778 H 0.83216 0.02665 0.90235 0.0
H779 H 0.89531 0.03275 0.9393 0.0
H780 H 0.94998 0.12227 0.90075 0.0
H781 H 0.92242 0.09734 0.91441 0.0
H782 H 0.88577 0.06099 0.86089 0.0
C783 C 0.83937 0.01351 0.91176 0.0
C784 C 0.89312 0.03868 0.9221 0.0
C785 C 0.82585 0.99705 0.91963 0.0
C786 C 0.9443 0.10975 0.88929 0.0
C787 C 0.92856 0.09538 0.89718 0.0
C788 C 0.88808 0.05487 0.878 0.0
C789 C 0.86184 0.01322 0.9164 0.0
C790 C 0.87634 0.03066 0.90812 0.0
C791 C 0.92088 0.07869 0.88304 0.0
C792 C 0.90509 0.06263 0.89187 0.0
H793 H 0.86425 0.96646 0.94616 0.0
H794 H 0.88777 0.99507 0.93244 0.0
H795 H 0.8612 0.03315 0.87476 0.0
H796 H 0.95082 0.08935 0.8355 0.0
H797 H 0.92361 0.0642 0.84939 0.0
C798 C 0.15113 0.01789 0.44114 0.0
C799 C 0.15925 0.01491 0.46335 0.0
C800 C 0.14029 0.00122 0.42975 0.0
C801 C 0.1088 0.95245 0.44194 0.0
H802 H 0.11463 0.94155 0.37696 0.0
C803 C 0.06109 0.88433 0.3978 0.0
C804 C 0.05137 0.88918 0.3767 0.0
C805 C 0.07636 0.89825 0.40759 0.0
C806 C 0.1127 0.94451 0.39509 0.0
H807 H 0.16343 0.9917 0.49049 0.0
H808 H 0.14448 0.96267 0.47066 0.0
H809 H 0.13774 0.96849 0.39537 0.0
H810 H 0.05063 0.91228 0.34907 0.0
H811 H 0.07695 0.93668 0.36633 0.0
H812 H 0.0835 0.9289 0.44169 0.0
C813 C 0.14614 0.97801 0.46221 0.0
C814 C 0.12596 0.95992 0.40563 0.0
C815 C 0.15699 0.99465 0.47357 0.0
C816 C 0.05777 0.908 0.36534 0.0
C817 C 0.07299 0.92196 0.37518 0.0
C818 C 0.09553 0.93712 0.43141 0.0
C819 C 0.13731 0.98121 0.44034 0.0
C820 C 0.12407 0.96415 0.42916 0.0
C821 C 0.08225 0.91741 0.39658 0.0
C822 C 0.0972 0.93303 0.40783 0.0
H823 H 0.15239 0.03335 0.43287 0.0
H824 H 0.13349 0.00428 0.41301 0.0
H825 H 0.10665 0.95558 0.46002 0.0
H826 H 0.05674 0.86989 0.40695 0.0
H827 H 0.08347 0.89404 0.42389 0.0
C828 C 0.16186 0.97655 0.90623 0.0
C829 C 0.17156 0.97797 0.92793 0.0
C830 C 0.14824 0.99291 0.89837 0.0
C831 C 0.13291 0.0499 0.90818 0.0
H832 H 0.08047 0.0332 0.87574 0.0
C833 C 0.06256 0.10905 0.88727 0.0
C834 C 0.05284 0.10706 0.86559 0.0
C835 C 0.07802 0.09406 0.8946 0.0
C836 C 0.09517 0.03816 0.88454 0.0
H837 H 0.17458 0.99777 0.95836 0.0
H838 H 0.15071 0.02627 0.94471 0.0
H839 H 0.10551 0.00567 0.88904 0.0
H840 H 0.0523 0.08795 0.83442 0.0
H841 H 0.07918 0.06199 0.84721 0.0
H842 H 0.1223 0.08245 0.90386 0.0
C843 C 0.1539 0.01265 0.93361 0.0
C844 C 0.10956 0.02237 0.89215 0.0
C845 C 0.16758 0.9963 0.94145 0.0
C846 C 0.05932 0.08999 0.85126 0.0
C847 C 0.07466 0.07499 0.85864 0.0
C848 C 0.11844 0.06572 0.90063 0.0
C849 C 0.14391 0.01107 0.91204 0.0
C850 C 0.12866 0.02802 0.90399 0.0
C851 C 0.084 0.07669 0.88048 0.0
C852 C 0.09945 0.06002 0.88865 0.0
H853 H 0.16489 0.96283 0.89523 0.0
H854 H 0.14118 0.99135 0.88149 0.0
H855 H 0.14759 0.05484 0.91701 0.0
H856 H 0.05802 0.122 0.89875 0.0
H857 H 0.08483 0.09574 0.91158 0.0
C858 C 0.8494 0.99576 0.47285 0.0
C859 C 0.84404 0.01521 0.46211 0.0
C860 C 0.86011 0.97943 0.46083 0.0
C861 C 0.8959 0.97169 0.41099 0.0
H862 H 0.88511 0.91121 0.42178 0.0
C863 C 0.94321 0.90596 0.36248 0.0
C864 C 0.95144 0.88897 0.37568 0.0
C865 C 0.92797 0.92028 0.37161 0.0
C866 C 0.88839 0.92804 0.4187 0.0
H867 H 0.84518 0.03242 0.43004 0.0
H868 H 0.86342 0.00375 0.40891 0.0
H869 H 0.86191 0.93821 0.43999 0.0
H870 H 0.9494 0.87338 0.40868 0.0
H871 H 0.92291 0.8985 0.42463 0.0
H872 H 0.92251 0.9616 0.38997 0.0
C873 C 0.85964 0.00127 0.42677 0.0
C874 C 0.8751 0.94351 0.42912 0.0
C875 C 0.84894 0.01762 0.43881 0.0
C876 C 0.94347 0.88628 0.39801 0.0
C877 C 0.92818 0.90062 0.40714 0.0
C878 C 0.90913 0.95625 0.40055 0.0
C879 C 0.8657 0.98213 0.43774 0.0
C880 C 0.87883 0.96554 0.42556 0.0
C881 C 0.92052 0.91799 0.39416 0.0
C882 C 0.90566 0.93425 0.40442 0.0
H883 H 0.84557 0.99325 0.4907 0.0
H884 H 0.86466 0.96499 0.46988 0.0
H885 H 0.89952 0.98849 0.40819 0.0
H886 H 0.9488 0.90848 0.34516 0.0
H887 H 0.92212 0.93329 0.36104 0.0
C888 C 0.3472 0.38596 0.13844 0.0
C889 C 0.34435 0.37132 0.12032 0.0
C890 C 0.3577 0.37972 0.1585 0.0
C891 C 0.39722 0.33994 0.17956 0.0
H892 H 0.38133 0.36369 0.23863 0.0
C893 C 0.44633 0.32158 0.26162 0.0
C894 C 0.45181 0.33973 0.27485 0.0
C895 C 0.43092 0.32309 0.24407 0.0
C896 C 0.38599 0.35696 0.22224 0.0
H897 H 0.34973 0.3384 0.1094 0.0
H898 H 0.36767 0.32736 0.14465 0.0
H899 H 0.35809 0.37028 0.2056 0.0
H900 H 0.44475 0.37353 0.28044 0.0
H901 H 0.41799 0.37611 0.24996 0.0
H902 H 0.4253 0.3269 0.19618 0.0
C903 C 0.36206 0.34379 0.14318 0.0
C904 C 0.3727 0.36076 0.2033 0.0
C905 C 0.35155 0.35005 0.12307 0.0
C906 C 0.44103 0.35923 0.27056 0.0
C907 C 0.42554 0.36069 0.25318 0.0
C908 C 0.41046 0.33606 0.19853 0.0
C909 C 0.36557 0.35865 0.16101 0.0
C910 C 0.37838 0.35268 0.18162 0.0
C911 C 0.4205 0.34272 0.23954 0.0
C912 C 0.40522 0.34489 0.21998 0.0
H913 H 0.34158 0.40239 0.13702 0.0
H914 H 0.36029 0.39167 0.17174 0.0
H915 H 0.40227 0.33369 0.16309 0.0
H916 H 0.45429 0.30629 0.26445 0.0
H917 H 0.42724 0.30892 0.23397 0.0
C918 C 0.66652 0.63994 0.63576 0.0
C919 C 0.67231 0.658 0.6228 0.0
C920 C 0.65336 0.64209 0.65509 0.0
C921 C 0.61279 0.67829 0.68141 0.0
H922 H 0.62256 0.6429 0.73472 0.0
C923 C 0.55938 0.68502 0.76272 0.0
C924 C 0.55249 0.66545 0.77222 0.0
C925 C 0.57531 0.68535 0.74562 0.0
C926 C 0.61954 0.6528 0.71991 0.0
H927 H 0.66896 0.69259 0.62026 0.0
H928 H 0.64631 0.69641 0.65431 0.0
H929 H 0.64818 0.64137 0.70295 0.0
H930 H 0.55738 0.6309 0.77135 0.0
H931 H 0.58497 0.63153 0.7416 0.0
H932 H 0.58401 0.68956 0.69832 0.0
C933 C 0.65175 0.68052 0.64931 0.0
C934 C 0.63421 0.65191 0.70168 0.0
C935 C 0.66494 0.67836 0.62994 0.0
C936 C 0.56221 0.64628 0.76446 0.0
C937 C 0.57818 0.64664 0.74747 0.0
C938 C 0.59813 0.67921 0.69967 0.0
C939 C 0.64567 0.66238 0.66203 0.0
C940 C 0.63087 0.66443 0.68207 0.0
C941 C 0.58482 0.66614 0.73774 0.0
C942 C 0.60118 0.66627 0.71901 0.0
H943 H 0.67213 0.62405 0.63093 0.0
H944 H 0.64882 0.62775 0.66432 0.0
H945 H 0.60954 0.68793 0.66645 0.0
H946 H 0.5523 0.70011 0.76828 0.0
H947 H 0.58023 0.70067 0.73862 0.0
C948 C 0.65907 0.38689 0.13883 0.0
C949 C 0.6592 0.37256 0.12018 0.0
C950 C 0.64805 0.38174 0.15892 0.0
C951 C 0.62314 0.33747 0.19173 0.0
H952 H 0.58625 0.38302 0.21532 0.0
C953 C 0.55586 0.32406 0.26022 0.0
C954 C 0.55195 0.34085 0.27587 0.0
C955 C 0.57083 0.32671 0.24239 0.0
C956 C 0.59671 0.37019 0.20927 0.0
H957 H 0.64852 0.3412 0.10839 0.0
H958 H 0.62929 0.33217 0.1436 0.0
H959 H 0.60924 0.38973 0.18243 0.0
H960 H 0.56175 0.37303 0.28594 0.0
H961 H 0.58811 0.37739 0.2554 0.0
H962 H 0.61046 0.31791 0.21867 0.0
C963 C 0.63784 0.34735 0.14266 0.0
C964 C 0.60989 0.37405 0.19033 0.0
C965 C 0.64887 0.35253 0.1225 0.0
C966 C 0.5641 0.35989 0.27397 0.0
C967 C 0.57915 0.36244 0.25635 0.0
C968 C 0.60998 0.33362 0.21084 0.0
C969 C 0.6369 0.36213 0.16089 0.0
C970 C 0.62329 0.35779 0.18135 0.0
C971 C 0.58231 0.34614 0.23997 0.0
C972 C 0.59663 0.34997 0.21986 0.0
H973 H 0.66726 0.40226 0.13779 0.0
H974 H 0.64801 0.39328 0.17283 0.0
H975 H 0.63338 0.32465 0.18526 0.0
H976 H 0.54674 0.3092 0.26119 0.0
H977 H 0.57275 0.31385 0.23002 0.0
C978 C 0.3394 0.67646 0.63186 0.0
C979 C 0.3306 0.65643 0.62555 0.0
C980 C 0.35317 0.6783 0.65084 0.0
C981 C 0.3901 0.64564 0.68597 0.0
H982 H 0.38733 0.69332 0.7288 0.0
C983 C 0.44142 0.64589 0.76774 0.0
C984 C 0.45185 0.66515 0.77406 0.0
C985 C 0.42564 0.64565 0.7506 0.0
C986 C 0.38845 0.68002 0.71685 0.0
H987 H 0.32848 0.62285 0.63498 0.0
H988 H 0.35246 0.62605 0.66795 0.0
H989 H 0.36146 0.69144 0.69706 0.0
H990 H 0.45327 0.69941 0.76763 0.0
H991 H 0.42585 0.6989 0.73739 0.0
H992 H 0.41712 0.63428 0.70543 0.0
C993 C 0.3491 0.64026 0.65797 0.0
C994 C 0.37362 0.67894 0.69869 0.0
C995 C 0.33535 0.63843 0.63906 0.0
C996 C 0.44558 0.68429 0.76322 0.0
C997 C 0.4298 0.68402 0.74593 0.0
C998 C 0.40491 0.64675 0.70402 0.0
C999 C 0.35844 0.66014 0.6639 0.0
C1000 C 0.3742 0.66164 0.68314 0.0
C1001 C 0.4199 0.66461 0.73917 0.0
C1002 C 0.40419 0.66385 0.7198 0.0
H1003 H 0.33624 0.69061 0.6217 0.0
H1004 H 0.36023 0.69381 0.65484 0.0
H1005 H 0.39131 0.63235 0.67402 0.0
H1006 H 0.44559 0.63087 0.77589 0.0
H1007 H 0.418 0.6305 0.74621 0.0
C1008 C 0.85172 0.85018 0.12419 0.0
C1009 C 0.84471 0.87149 0.12128 0.0
C1010 C 0.8622 0.84396 0.14433 0.0
C1011 C 0.87303 0.8612 0.20431 0.0
H1012 H 0.92538 0.82694 0.19733 0.0
C1013 C 0.9414 0.85952 0.27152 0.0
C1014 C 0.95208 0.83997 0.27587 0.0
C1015 C 0.92589 0.861 0.25416 0.0
C1016 C 0.91061 0.83621 0.19965 0.0
H1017 H 0.84224 0.90269 0.13775 0.0
H1018 H 0.86088 0.89204 0.17253 0.0
H1019 H 0.90237 0.83371 0.16423 0.0
H1020 H 0.95434 0.80648 0.26561 0.0
H1021 H 0.92726 0.80915 0.23517 0.0
H1022 H 0.88172 0.86426 0.23961 0.0
C1023 C 0.85817 0.88003 0.15939 0.0
C1024 C 0.89738 0.84008 0.18067 0.0
C1025 C 0.84771 0.88623 0.13929 0.0
C1026 C 0.94647 0.8218 0.26273 0.0
C1027 C 0.93104 0.82334 0.24521 0.0
C1028 C 0.88631 0.85741 0.22326 0.0
C1029 C 0.86585 0.85891 0.16204 0.0
C1030 C 0.87864 0.85296 0.18267 0.0
C1031 C 0.92073 0.84301 0.2406 0.0
C1032 C 0.90546 0.8452 0.22105 0.0
H1033 H 0.84978 0.83845 0.1106 0.0
H1034 H 0.86766 0.8275 0.14592 0.0
H1035 H 0.8585 0.87084 0.20656 0.0
H1036 H 0.94522 0.87384 0.28133 0.0
H1037 H 0.91844 0.87645 0.25089 0.0
C1038 C 0.1682 0.17919 0.63302 0.0
C1039 C 0.17392 0.15889 0.62418 0.0
C1040 C 0.15455 0.18098 0.65207 0.0
C1041 C 0.13355 0.15026 0.70132 0.0
H1042 H 0.08637 0.19166 0.70035 0.0
C1043 C 0.06114 0.1459 0.76357 0.0
C1044 C 0.05244 0.16517 0.77233 0.0
C1045 C 0.07717 0.1462 0.74666 0.0
C1046 C 0.09966 0.18024 0.70107 0.0
H1047 H 0.16947 0.12456 0.62842 0.0
H1048 H 0.1459 0.12769 0.66166 0.0
H1049 H 0.1122 0.19029 0.66871 0.0
H1050 H 0.05416 0.19993 0.77026 0.0
H1051 H 0.08229 0.20041 0.74083 0.0
H1052 H 0.12092 0.14006 0.73354 0.0
C1053 C 0.15222 0.14223 0.65407 0.0
C1054 C 0.11446 0.17944 0.68292 0.0
C1055 C 0.16578 0.14044 0.635 0.0
C1056 C 0.06042 0.18477 0.7639 0.0
C1057 C 0.07647 0.18506 0.74692 0.0
C1058 C 0.11879 0.15108 0.71947 0.0
C1059 C 0.14637 0.16251 0.66279 0.0
C1060 C 0.13142 0.16426 0.6827 0.0
C1061 C 0.08496 0.16576 0.73803 0.0
C1062 C 0.10149 0.16589 0.71943 0.0
H1063 H 0.1744 0.19373 0.62532 0.0
H1064 H 0.15055 0.19683 0.65854 0.0
H1065 H 0.14666 0.13864 0.70188 0.0
H1066 H 0.05542 0.13048 0.76958 0.0
H1067 H 0.08311 0.13103 0.73999 0.0
C1068 C 0.15946 0.88589 0.13932 0.0
C1069 C 0.15947 0.87157 0.12067 0.0
C1070 C 0.14846 0.88079 0.15944 0.0
C1071 C 0.12332 0.8367 0.19233 0.0
H1072 H 0.08665 0.88246 0.21582 0.0
C1073 C 0.05606 0.82375 0.26095 0.0
C1074 C 0.05222 0.8406 0.27654 0.0
C1075 C 0.07102 0.82628 0.24309 0.0
C1076 C 0.09706 0.86958 0.20979 0.0
H1077 H 0.14861 0.84026 0.1089 0.0
H1078 H 0.12941 0.83132 0.14416 0.0
H1079 H 0.10967 0.889 0.1829 0.0
H1080 H 0.06214 0.87278 0.28647 0.0
H1081 H 0.08848 0.87695 0.25588 0.0
H1082 H 0.11056 0.81726 0.21932 0.0
C1083 C 0.13804 0.84646 0.1432 0.0
C1084 C 0.11025 0.87334 0.19085 0.0
C1085 C 0.14905 0.85158 0.12301 0.0
C1086 C 0.06443 0.8596 0.27455 0.0
C1087 C 0.07947 0.86204 0.2569 0.0
C1088 C 0.11015 0.83295 0.21145 0.0
C1089 C 0.1372 0.86124 0.16143 0.0
C1090 C 0.12357 0.85699 0.18189 0.0
C1091 C 0.08256 0.84566 0.24057 0.0
C1092 C 0.09689 0.84939 0.22044 0.0
H1093 H 0.16772 0.90122 0.13826 0.0
H1094 H 0.1485 0.89234 0.17335 0.0
H1095 H 0.1335 0.82382 0.18588 0.0
H1096 H 0.0469 0.80892 0.262 0.0
H1097 H 0.07289 0.81338 0.23077 0.0
C1098 C 0.835 0.13816 0.6384 0.0
C1099 C 0.83006 0.15617 0.62499 0.0
C1100 C 0.84885 0.14001 0.65722 0.0
C1101 C 0.8734 0.17867 0.69792 0.0
H1102 H 0.9172 0.13422 0.70417 0.0
C1103 C 0.94549 0.18404 0.76228 0.0
C1104 C 0.9518 0.16487 0.77306 0.0
C1105 C 0.92973 0.18379 0.74497 0.0
C1106 C 0.90491 0.14663 0.7029 0.0
H1107 H 0.83549 0.19039 0.62121 0.0
H1108 H 0.85967 0.19363 0.6542 0.0
H1109 H 0.89124 0.13229 0.67289 0.0
H1110 H 0.94568 0.13055 0.77468 0.0
H1111 H 0.91815 0.13021 0.74495 0.0
H1112 H 0.88717 0.19298 0.72803 0.0
C1113 C 0.85266 0.17809 0.6502 0.0
C1114 C 0.89001 0.14552 0.68493 0.0
C1115 C 0.83879 0.17624 0.6313 0.0
C1116 C 0.94148 0.1456 0.7666 0.0
C1117 C 0.92573 0.14537 0.74942 0.0
C1118 C 0.88831 0.17975 0.716 0.0
C1119 C 0.85812 0.15992 0.66315 0.0
C1120 C 0.87399 0.16144 0.68228 0.0
C1121 C 0.91991 0.16438 0.7381 0.0
C1122 C 0.90416 0.16365 0.71878 0.0
H1123 H 0.82819 0.12256 0.63432 0.0
H1124 H 0.85236 0.12578 0.66713 0.0
H1125 H 0.86115 0.1911 0.69643 0.0
H1126 H 0.9531 0.19917 0.76681 0.0
H1127 H 0.92573 0.1987 0.73651 0.0
loop_
_geom_bond_atom_site_label_1
_geom_bond_atom_site_label_2
_geom_bond_distance
_geom_bond_site_symmetry_2
_ccdc_geom_bond_type
C0 C1 1.264 . S
C0 C5 1.479 . S
C0 C10 1.465 . S
C1 C0 1.264 . S
C1 C3 1.339 . S
C1 H28 0.931 1_556 S
C2 C3 1.395 . S
C2 C4 1.320 . S
C3 C1 1.339 . S
C3 C2 1.395 . S
C3 H29 0.929 . S
C4 C2 1.320 . S
C4 C5 1.405 . S
C4 H30 0.930 . S
C5 C0 1.479 . S
C5 C4 1.405 . S
C5 H31 0.931 . S
U6 O7 2.454 1_554 S
U6 O8 2.458 . S
U6 C9 2.984 1_554 S
U6 C10 2.847 1_554 S
U6 C23 2.882 . S
U6 O24 2.441 1_554 S
U6 O25 2.420 . S
U6 O26 2.455 . S
U6 O27 2.449 . S
O7 U6 2.454 1_556 S
O7 C9 1.353 . S
O8 U6 2.458 . S
O8 C9 1.286 1_554 S
C9 U6 2.984 1_556 S
C9 O7 1.353 . S
C9 O8 1.286 1_556 S
C9 C11 1.363 . S
C10 C0 1.465 . S
C10 U6 2.847 1_556 S
C10 O24 1.249 . S
C10 O25 1.202 1_556 S
C11 C9 1.363 . S
C11 C13 1.408 . S
C11 C16 1.342 . S
C12 C13 1.310 . S
C12 C15 1.461 . S
C12 H32 0.932 . S
C13 C11 1.408 . S
C13 C12 1.310 . S
C13 H33 0.930 . S
C14 C15 1.474 . S
C14 C16 1.285 . S
C14 H34 0.929 . S
C15 C12 1.461 . S
C15 C14 1.474 . S
C16 C11 1.342 . S
C16 C14 1.285 . S
C16 H35 0.930 1_556 S
C17 C20 1.424 . S
C17 C22 1.245 . S
C17 C23 1.428 . S
C18 C21 1.260 . S
C18 C22 1.477 . S
C18 H36 0.932 . S
C19 C20 1.384 . S
C19 C21 1.479 . S
C19 H37 0.929 . S
C20 C17 1.424 . S
C20 C19 1.384 . S
C20 H38 0.928 . S
C21 C18 1.260 . S
C21 C19 1.479 . S
C22 C17 1.245 . S
C22 C18 1.477 . S
C22 H39 0.932 . S
C23 U6 2.882 . S
C23 C17 1.428 . S
C23 O26 1.301 . S
C23 O27 1.282 . S
O24 U6 2.441 1_556 S
O24 C10 1.249 . S
O25 U6 2.420 . S
O25 C10 1.202 1_554 S
O26 U6 2.455 . S
O26 C23 1.301 . S
O27 U6 2.449 . S
O27 C23 1.282 . S
H28 C1 0.931 1_554 S
H29 C3 0.929 . S
H30 C4 0.930 . S
H31 C5 0.931 . S
H32 C12 0.932 . S
H33 C13 0.930 . S
H34 C14 0.929 . S
H35 C16 0.930 1_554 S
H36 C18 0.932 . S
H37 C19 0.929 . S
H38 C20 0.928 . S
H39 C22 0.932 . S
C40 C41 1.264 . S
C40 C45 1.479 . S
C40 C50 1.465 . S
C41 C40 1.264 . S
C41 C43 1.339 . S
C41 H68 0.931 . S
C42 C43 1.395 . S
C42 C44 1.320 . S
C43 C41 1.339 . S
C43 C42 1.395 . S
C43 H69 0.929 . S
C44 C42 1.320 . S
C44 C45 1.405 . S
C44 H70 0.930 . S
C45 C40 1.479 . S
C45 C44 1.405 . S
C45 H71 0.931 . S
U46 O47 2.454 . S
U46 O48 2.458 . S
U46 C49 2.984 . S
U46 C50 2.847 . S
U46 C63 2.882 . S
U46 O64 2.441 . S
U46 O65 2.420 . S
U46 O66 2.455 . S
U46 O67 2.449 . S
O47 U46 2.454 . S
O47 C49 1.353 . S
O48 U46 2.458 . S
O48 C49 1.286 . S
C49 U46 2.984 . S
C49 O47 1.353 . S
C49 O48 1.286 . S
C49 C51 1.363 . S
C50 C40 1.465 . S
C50 U46 2.847 . S
C50 O64 1.249 . S
C50 O65 1.202 . S
C51 C49 1.363 . S
C51 C53 1.408 . S
C51 C56 1.342 . S
C52 C53 1.310 . S
C52 C55 1.461 . S
C52 H72 0.932 . S
C53 C51 1.408 . S
C53 C52 1.310 . S
C53 H73 0.930 . S
C54 C55 1.474 . S
C54 C56 1.285 . S
C54 H74 0.929 . S
C55 C52 1.461 . S
C55 C54 1.474 . S
C56 C51 1.342 . S
C56 C54 1.285 . S
C56 H75 0.930 . S
C57 C60 1.424 . S
C57 C62 1.245 . S
C57 C63 1.428 . S
C58 C61 1.260 . S
C58 C62 1.477 . S
C58 H76 0.932 . S
C59 C60 1.384 . S
C59 C61 1.479 . S
C59 H77 0.929 . S
C60 C57 1.424 . S
C60 C59 1.384 . S
C60 H78 0.928 . S
C61 C58 1.260 . S
C61 C59 1.479 . S
C62 C57 1.245 . S
C62 C58 1.477 . S
C62 H79 0.932 . S
C63 U46 2.882 . S
C63 C57 1.428 . S
C63 O66 1.301 . S
C63 O67 1.282 . S
O64 U46 2.441 . S
O64 C50 1.249 . S
O65 U46 2.420 . S
O65 C50 1.202 . S
O66 U46 2.455 . S
O66 C63 1.301 . S
O67 U46 2.449 . S
O67 C63 1.282 . S
H68 C41 0.931 . S
H69 C43 0.929 . S
H70 C44 0.930 . S
H71 C45 0.931 . S
H72 C52 0.932 . S
H73 C53 0.930 . S
H74 C54 0.929 . S
H75 C56 0.930 . S
H76 C58 0.932 . S
H77 C59 0.929 . S
H78 C60 0.928 . S
H79 C62 0.932 . S
C80 C81 1.264 . S
C80 C85 1.479 . S
C80 C90 1.465 . S
C81 C80 1.264 . S
C81 C83 1.339 . S
C81 H108 0.931 . S
C82 C83 1.395 . S
C82 C84 1.320 . S
C83 C81 1.339 . S
C83 C82 1.395 . S
C83 H109 0.929 . S
C84 C82 1.320 . S
C84 C85 1.405 . S
C84 H110 0.930 . S
C85 C80 1.479 . S
C85 C84 1.405 . S
C85 H111 0.931 . S
U86 O87 2.454 1_554 S
U86 O88 2.458 . S
U86 C89 2.984 1_554 S
U86 C90 2.847 1_554 S
U86 C103 2.882 . S
U86 O104 2.441 1_554 S
U86 O105 2.420 1_554 S
U86 O106 2.455 . S
U86 O107 2.449 . S
O87 U86 2.454 1_556 S
O87 C89 1.353 . S
O88 U86 2.458 . S
O88 C89 1.286 1_554 S
C89 U86 2.984 1_556 S
C89 O87 1.353 . S
C89 O88 1.286 1_556 S
C89 C91 1.363 . S
C90 C80 1.465 . S
C90 U86 2.847 1_556 S
C90 O104 1.249 . S
C90 O105 1.202 . S
C91 C89 1.363 . S
C91 C93 1.408 . S
C91 C96 1.342 . S
C92 C93 1.310 . S
C92 C95 1.461 . S
C92 H112 0.932 . S
C93 C91 1.408 . S
C93 C92 1.310 . S
C93 H113 0.930 . S
C94 C95 1.474 . S
C94 C96 1.285 . S
C94 H114 0.938 . S
C95 C92 1.461 . S
C95 C94 1.474 . S
C96 C91 1.342 . S
C96 C94 1.285 . S
C96 H115 0.930 1_556 S
C97 C100 1.424 . S
C97 C102 1.245 . S
C97 C103 1.428 . S
C98 C101 1.260 . S
C98 C102 1.477 . S
C98 H116 0.932 . S
C99 C100 1.384 . S
C99 C101 1.479 . S
C99 H117 0.929 . S
C100 C97 1.424 . S
C100 C99 1.384 . S
C100 H118 0.928 . S
C101 C98 1.260 . S
C101 C99 1.479 . S
C102 C97 1.245 . S
C102 C98 1.477 . S
C102 H119 0.932 . S
C103 U86 2.882 . S
C103 C97 1.428 . S
C103 O106 1.301 . S
C103 O107 1.282 . S
O104 U86 2.441 1_556 S
O104 C90 1.249 . S
O105 U86 2.420 1_556 S
O105 C90 1.202 . S
O106 U86 2.455 . S
O106 C103 1.301 . S
O107 U86 2.449 . S
O107 C103 1.282 . S
H108 C81 0.931 . S
H109 C83 0.929 . S
H110 C84 0.930 . S
H111 C85 0.931 . S
H112 C92 0.932 . S
H113 C93 0.930 . S
H114 C94 0.938 . S
H115 C96 0.930 1_554 S
H116 C98 0.932 . S
H117 C99 0.929 . S
H118 C100 0.928 . S
H119 C102 0.932 . S
C120 C121 1.264 . S
C120 C125 1.479 . S
C120 C130 1.465 . S
C121 C120 1.264 . S
C121 C123 1.339 . S
C121 H148 0.931 . S
C122 C123 1.395 . S
C122 C124 1.320 . S
C123 C121 1.339 . S
C123 C122 1.395 . S
C123 H149 0.929 . S
C124 C122 1.320 . S
C124 C125 1.405 . S
C124 H150 0.930 . S
C125 C120 1.479 . S
C125 C124 1.405 . S
C125 H151 0.931 . S
U126 O127 2.454 . S
U126 O128 2.458 . S
U126 C129 2.984 . S
U126 C130 2.847 . S
U126 C143 2.882 . S
U126 O144 2.441 . S
U126 O145 2.420 . S
U126 O146 2.455 . S
U126 O147 2.449 . S
O127 U126 2.454 . S
O127 C129 1.353 . S
O128 U126 2.458 . S
O128 C129 1.286 . S
C129 U126 2.984 . S
C129 O127 1.353 . S
C129 O128 1.286 . S
C129 C131 1.363 . S
C130 C120 1.465 . S
C130 U126 2.847 . S
C130 O144 1.249 . S
C130 O145 1.202 . S
C131 C129 1.363 . S
C131 C133 1.408 . S
C131 C136 1.342 . S
C132 C133 1.310 . S
C132 C135 1.461 . S
C132 H152 0.932 . S
C133 C131 1.408 . S
C133 C132 1.310 . S
C133 H153 0.930 . S
C134 C135 1.474 . S
C134 C136 1.285 . S
C134 H154 0.929 . S
C135 C132 1.461 . S
C135 C134 1.474 . S
C136 C131 1.342 . S
C136 C134 1.285 . S
C136 H155 0.930 . S
C137 C140 1.424 . S
C137 C142 1.245 . S
C137 C143 1.428 . S
C138 C141 1.260 . S
C138 C142 1.477 . S
C138 H156 0.932 . S
C139 C140 1.384 . S
C139 C141 1.479 . S
C139 H157 0.929 . S
C140 C137 1.424 . S
C140 C139 1.384 . S
C140 H158 0.928 . S
C141 C138 1.260 . S
C141 C139 1.479 . S
C142 C137 1.245 . S
C142 C138 1.477 . S
C142 H159 0.932 . S
C143 U126 2.882 . S
C143 C137 1.428 . S
C143 O146 1.301 . S
C143 O147 1.282 . S
O144 U126 2.441 . S
O144 C130 1.249 . S
O145 U126 2.420 . S
O145 C130 1.202 . S
O146 U126 2.455 . S
O146 C143 1.301 . S
O147 U126 2.449 . S
O147 C143 1.282 . S
H148 C121 0.931 . S
H149 C123 0.929 . S
H150 C124 0.930 . S
H151 C125 0.931 . S
H152 C132 0.932 . S
H153 C133 0.930 . S
H154 C134 0.929 . S
H155 C136 0.930 . S
H156 C138 0.932 . S
H157 C139 0.929 . S
H158 C140 0.928 . S
H159 C142 0.932 . S
C160 C161 1.264 . S
C160 C165 1.479 . S
C160 C170 1.465 . S
C161 C160 1.264 . S
C161 C163 1.339 . S
C161 H188 0.931 1_556 S
C162 C163 1.395 . S
C162 C164 1.320 . S
C163 C161 1.339 . S
C163 C162 1.395 . S
C163 H189 0.929 . S
C164 C162 1.320 . S
C164 C165 1.405 . S
C164 H190 0.930 . S
C165 C160 1.479 . S
C165 C164 1.405 . S
C165 H191 0.931 . S
U166 O167 2.454 1_554 S
U166 O168 2.458 . S
U166 C169 2.984 1_554 S
U166 C170 2.847 1_554 S
U166 C183 2.882 . S
U166 O184 2.441 1_554 S
U166 O185 2.420 . S
U166 O186 2.455 . S
U166 O187 2.449 . S
O167 U166 2.454 1_556 S
O167 C169 1.353 . S
O168 U166 2.458 . S
O168 C169 1.286 1_554 S
C169 U166 2.984 1_556 S
C169 O167 1.353 . S
C169 O168 1.286 1_556 S
C169 C171 1.363 . S
C170 C160 1.465 . S
C170 U166 2.847 1_556 S
C170 O184 1.249 . S
C170 O185 1.202 1_556 S
C171 C169 1.363 . S
C171 C173 1.408 . S
C171 C176 1.342 . S
C172 C173 1.310 . S
C172 C175 1.461 . S
C172 H192 0.932 . S
C173 C171 1.408 . S
C173 C172 1.310 . S
C173 H193 0.930 . S
C174 C175 1.474 . S
C174 C176 1.285 . S
C174 H194 0.929 . S
C175 C172 1.461 . S
C175 C174 1.474 . S
C176 C171 1.342 . S
C176 C174 1.285 . S
C176 H195 0.930 1_556 S
C177 C180 1.424 . S
C177 C182 1.245 . S
C177 C183 1.428 . S
C178 C181 1.260 . S
C178 C182 1.477 . S
C178 H196 0.932 . S
C179 C180 1.384 . S
C179 C181 1.479 . S
C179 H197 0.929 . S
C180 C177 1.424 . S
C180 C179 1.384 . S
C180 H198 0.928 . S
C181 C178 1.260 . S
C181 C179 1.479 . S
C182 C177 1.245 . S
C182 C178 1.477 . S
C182 H199 0.932 . S
C183 U166 2.882 . S
C183 C177 1.428 . S
C183 O186 1.301 . S
C183 O187 1.282 . S
O184 U166 2.441 1_556 S
O184 C170 1.249 . S
O185 U166 2.420 . S
O185 C170 1.202 1_554 S
O186 U166 2.455 . S
O186 C183 1.301 . S
O187 U166 2.449 . S
O187 C183 1.282 . S
H188 C161 0.931 1_554 S
H189 C163 0.929 . S
H190 C164 0.930 . S
H191 C165 0.931 . S
H192 C172 0.932 . S
H193 C173 0.930 . S
H194 C174 0.929 . S
H195 C176 0.930 1_554 S
H196 C178 0.932 . S
H197 C179 0.929 . S
H198 C180 0.928 . S
H199 C182 0.932 . S
C200 C201 1.264 . S
C200 C205 1.479 . S
C200 C210 1.465 . S
C201 C200 1.264 . S
C201 C203 1.339 . S
C201 H228 0.931 . S
C202 C203 1.395 . S
C202 C204 1.320 . S
C203 C201 1.339 . S
C203 C202 1.395 . S
C203 H229 0.929 . S
C204 C202 1.320 . S
C204 C205 1.405 . S
C204 H230 0.930 . S
C205 C200 1.479 . S
C205 C204 1.405 . S
C205 H231 0.931 . S
U206 O207 2.454 . S
U206 O208 2.458 . S
U206 C209 2.984 . S
U206 C210 2.847 . S
U206 C223 2.882 . S
U206 O224 2.441 . S
U206 O225 2.420 . S
U206 O226 2.455 . S
U206 O227 2.449 . S
O207 U206 2.454 . S
O207 C209 1.353 . S
O208 U206 2.458 . S
O208 C209 1.286 . S
C209 U206 2.984 . S
C209 O207 1.353 . S
C209 O208 1.286 . S
C209 C211 1.363 . S
C210 C200 1.465 . S
C210 U206 2.847 . S
C210 O224 1.249 . S
C210 O225 1.202 . S
C211 C209 1.363 . S
C211 C213 1.408 . S
C211 C216 1.342 . S
C212 C213 1.310 . S
C212 C215 1.461 . S
C212 H232 0.932 . S
C213 C211 1.408 . S
C213 C212 1.310 . S
C213 H233 0.930 . S
C214 C215 1.474 . S
C214 C216 1.285 . S
C214 H234 0.929 . S
C215 C212 1.461 . S
C215 C214 1.474 . S
C216 C211 1.342 . S
C216 C214 1.285 . S
C216 H235 0.930 . S
C217 C220 1.424 . S
C217 C222 1.245 . S
C217 C223 1.428 . S
C218 C221 1.260 . S
C218 C222 1.477 . S
C218 H236 0.932 . S
C219 C220 1.384 . S
C219 C221 1.479 . S
C219 H237 0.929 . S
C220 C217 1.424 . S
C220 C219 1.384 . S
C220 H238 0.928 . S
C221 C218 1.260 . S
C221 C219 1.479 . S
C222 C217 1.245 . S
C222 C218 1.477 . S
C222 H239 0.932 . S
C223 U206 2.882 . S
C223 C217 1.428 . S
C223 O226 1.301 . S
C223 O227 1.282 . S
O224 U206 2.441 . S
O224 C210 1.249 . S
O225 U206 2.420 . S
O225 C210 1.202 . S
O226 U206 2.455 . S
O226 C223 1.301 . S
O227 U206 2.449 . S
O227 C223 1.282 . S
H228 C201 0.931 . S
H229 C203 0.929 . S
H230 C204 0.930 . S
H231 C205 0.931 . S
H232 C212 0.932 . S
H233 C213 0.930 . S
H234 C214 0.929 . S
H235 C216 0.930 . S
H236 C218 0.932 . S
H237 C219 0.929 . S
H238 C220 0.928 . S
H239 C222 0.932 . S
C240 C241 1.264 . S
C240 C245 1.479 . S
C240 C250 1.465 . S
C241 C240 1.264 . S
C241 C243 1.339 . S
C241 H268 0.931 . S
C242 C243 1.395 . S
C242 C244 1.320 . S
C243 C241 1.339 . S
C243 C242 1.395 . S
C243 H269 0.929 . S
C244 C242 1.320 . S
C244 C245 1.405 . S
C244 H270 0.930 . S
C245 C240 1.479 . S
C245 C244 1.405 . S
C245 H271 0.931 . S
U246 O247 2.454 1_554 S
U246 O248 2.458 . S
U246 C249 2.984 1_554 S
U246 C250 2.847 1_554 S
U246 C263 2.882 . S
U246 O264 2.441 1_554 S
U246 O265 2.420 1_554 S
U246 O266 2.455 . S
U246 O267 2.449 . S
O247 U246 2.454 1_556 S
O247 C249 1.353 . S
O248 U246 2.458 . S
O248 C249 1.286 1_554 S
C249 U246 2.984 1_556 S
C249 O247 1.353 . S
C249 O248 1.286 1_556 S
C249 C251 1.363 . S
C250 C240 1.465 . S
C250 U246 2.847 1_556 S
C250 O264 1.249 . S
C250 O265 1.202 . S
C251 C249 1.363 . S
C251 C253 1.408 . S
C251 C256 1.342 . S
C252 C253 1.310 . S
C252 C255 1.461 . S
C252 H272 0.932 . S
C253 C251 1.408 . S
C253 C252 1.310 . S
C253 H273 0.930 . S
C254 C255 1.474 . S
C254 C256 1.285 . S
C254 H274 0.938 . S
C255 C252 1.461 . S
C255 C254 1.474 . S
C256 C251 1.342 . S
C256 C254 1.285 . S
C256 H275 0.930 1_556 S
C257 C260 1.424 . S
C257 C262 1.245 . S
C257 C263 1.428 . S
C258 C261 1.260 . S
C258 C262 1.477 . S
C258 H276 0.932 . S
C259 C260 1.384 . S
C259 C261 1.479 . S
C259 H277 0.929 . S
C260 C257 1.424 . S
C260 C259 1.384 . S
C260 H278 0.928 . S
C261 C258 1.260 . S
C261 C259 1.479 . S
C262 C257 1.245 . S
C262 C258 1.477 . S
C262 H279 0.932 . S
C263 U246 2.882 . S
C263 C257 1.428 . S
C263 O266 1.301 . S
C263 O267 1.282 . S
O264 U246 2.441 1_556 S
O264 C250 1.249 . S
O265 U246 2.420 1_556 S
O265 C250 1.202 . S
O266 U246 2.455 . S
O266 C263 1.301 . S
O267 U246 2.449 . S
O267 C263 1.282 . S
H268 C241 0.931 . S
H269 C243 0.929 . S
H270 C244 0.930 . S
H271 C245 0.931 . S
H272 C252 0.932 . S
H273 C253 0.930 . S
H274 C254 0.938 . S
H275 C256 0.930 1_554 S
H276 C258 0.932 . S
H277 C259 0.929 . S
H278 C260 0.928 . S
H279 C262 0.932 . S
C280 C281 1.264 . S
C280 C285 1.479 . S
C280 C290 1.465 . S
C281 C280 1.264 . S
C281 C283 1.339 . S
C281 H308 0.931 . S
C282 C283 1.395 . S
C282 C284 1.320 . S
C283 C281 1.339 . S
C283 C282 1.395 . S
C283 H309 0.929 . S
C284 C282 1.320 . S
C284 C285 1.405 . S
C284 H310 0.930 . S
C285 C280 1.479 . S
C285 C284 1.405 . S
C285 H311 0.931 . S
U286 O287 2.454 . S
U286 O288 2.458 . S
U286 C289 2.984 . S
U286 C290 2.847 . S
U286 C303 2.882 . S
U286 O304 2.441 . S
U286 O305 2.420 . S
U286 O306 2.455 . S
U286 O307 2.449 . S
O287 U286 2.454 . S
O287 C289 1.353 . S
O288 U286 2.458 . S
O288 C289 1.286 . S
C289 U286 2.984 . S
C289 O287 1.353 . S
C289 O288 1.286 . S
C289 C291 1.363 . S
C290 C280 1.465 . S
C290 U286 2.847 . S
C290 O304 1.249 . S
C290 O305 1.202 . S
C291 C289 1.363 . S
C291 C293 1.408 . S
C291 C296 1.342 . S
C292 C293 1.310 . S
C292 C295 1.461 . S
C292 H312 0.932 . S
C293 C291 1.408 . S
C293 C292 1.310 . S
C293 H313 0.930 . S
C294 C295 1.474 . S
C294 C296 1.285 . S
C294 H314 0.929 . S
C295 C292 1.461 . S
C295 C294 1.474 . S
C296 C291 1.342 . S
C296 C294 1.285 . S
C296 H315 0.930 . S
C297 C300 1.424 . S
C297 C302 1.245 . S
C297 C303 1.428 . S
C298 C301 1.260 . S
C298 C302 1.477 . S
C298 H316 0.932 . S
C299 C300 1.384 . S
C299 C301 1.479 . S
C299 H317 0.929 . S
C300 C297 1.424 . S
C300 C299 1.384 . S
C300 H318 0.928 . S
C301 C298 1.260 . S
C301 C299 1.479 . S
C302 C297 1.245 . S
C302 C298 1.477 . S
C302 H319 0.932 . S
C303 U286 2.882 . S
C303 C297 1.428 . S
C303 O306 1.301 . S
C303 O307 1.282 . S
O304 U286 2.441 . S
O304 C290 1.249 . S
O305 U286 2.420 . S
O305 C290 1.202 . S
O306 U286 2.455 . S
O306 C303 1.301 . S
O307 U286 2.449 . S
O307 C303 1.282 . S
H308 C281 0.931 . S
H309 C283 0.929 . S
H310 C284 0.930 . S
H311 C285 0.931 . S
H312 C292 0.932 . S
H313 C293 0.930 . S
H314 C294 0.929 . S
H315 C296 0.930 . S
H316 C298 0.932 . S
H317 C299 0.929 . S
H318 C300 0.928 . S
H319 C302 0.932 . S
Sc320 O323 2.025 . S
Sc320 O330 2.105 1_455 S
Sc320 O333 2.105 . S
Sc320 O336 2.105 . S
Sc320 O339 2.105 1_455 S
Sc321 O323 2.025 . S
Sc321 O331 2.105 1_455 S
Sc321 O335 2.105 . S
Sc321 O337 2.105 . S
Sc321 O341 2.105 1_455 S
Sc322 O323 2.025 . S
Sc322 O332 2.105 1_455 S
Sc322 O334 2.105 . S
Sc322 O338 2.105 . S
Sc322 O340 2.105 1_455 S
O323 Sc320 2.025 . S
O323 Sc321 2.025 . S
O323 Sc322 2.025 . S
C324 O330 1.268 . S
C324 O340 1.268 . S
C325 O331 1.268 . S
C325 O339 1.268 . S
C326 O332 1.268 . S
C326 O341 1.268 . S
C327 O333 1.268 . S
C327 O337 1.268 . S
C328 O334 1.268 . S
C328 O336 1.268 . S
C329 O335 1.268 . S
C329 O338 1.268 . S
O330 Sc320 2.105 1_655 S
O330 C324 1.268 . S
O331 Sc321 2.105 1_655 S
O331 C325 1.268 . S
O332 Sc322 2.105 1_655 S
O332 C326 1.268 . S
O333 Sc320 2.105 . S
O333 C327 1.268 . S
O334 Sc322 2.105 . S
O334 C328 1.268 . S
O335 Sc321 2.105 . S
O335 C329 1.268 . S
O336 Sc320 2.105 . S
O336 C328 1.268 . S
O337 Sc321 2.105 . S
O337 C327 1.268 . S
O338 Sc322 2.105 . S
O338 C329 1.268 . S
O339 Sc320 2.105 1_655 S
O339 C325 1.268 . S
O340 Sc322 2.105 1_655 S
O340 C324 1.268 . S
O341 Sc321 2.105 1_655 S
O341 C326 1.268 . S
Sc342 O345 2.025 . S
Sc342 O352 2.105 . S
Sc342 O355 2.105 1_455 S
Sc342 O358 2.105 1_455 S
Sc342 O361 2.105 . S
Sc343 O345 2.025 . S
Sc343 O353 2.105 . S
Sc343 O357 2.105 1_455 S
Sc343 O359 2.105 1_455 S
Sc343 O363 2.105 . S
Sc344 O345 2.025 . S
Sc344 O354 2.105 . S
Sc344 O356 2.105 1_455 S
Sc344 O360 2.105 1_455 S
Sc344 O362 2.105 . S
O345 Sc342 2.025 . S
O345 Sc343 2.025 . S
O345 Sc344 2.025 . S
C346 O352 1.268 . S
C346 O362 1.268 . S
C347 O353 1.268 . S
C347 O361 1.268 . S
C348 O354 1.268 . S
C348 O363 1.268 . S
C349 O355 1.268 . S
C349 O359 1.268 . S
C350 O356 1.268 . S
C350 O358 1.268 . S
C351 O357 1.268 . S
C351 O360 1.268 . S
O352 Sc342 2.105 . S
O352 C346 1.268 . S
O353 Sc343 2.105 . S
O353 C347 1.268 . S
O354 Sc344 2.105 . S
O354 C348 1.268 . S
O355 Sc342 2.105 1_655 S
O355 C349 1.268 . S
O356 Sc344 2.105 1_655 S
O356 C350 1.268 . S
O357 Sc343 2.105 1_655 S
O357 C351 1.268 . S
O358 Sc342 2.105 1_655 S
O358 C350 1.268 . S
O359 Sc343 2.105 1_655 S
O359 C349 1.268 . S
O360 Sc344 2.105 1_655 S
O360 C351 1.268 . S
O361 Sc342 2.105 . S
O361 C347 1.268 . S
O362 Sc344 2.105 . S
O362 C346 1.268 . S
O363 Sc343 2.105 . S
O363 C348 1.268 . S
Sc364 O367 2.025 . S
Sc364 O374 2.105 . S
Sc364 O377 2.105 . S
Sc364 O380 2.105 . S
Sc364 O383 2.105 . S
Sc365 O367 2.025 . S
Sc365 O375 2.105 . S
Sc365 O379 2.105 . S
Sc365 O381 2.105 . S
Sc365 O385 2.105 . S
Sc366 O367 2.025 . S
Sc366 O376 2.105 . S
Sc366 O378 2.105 . S
Sc366 O382 2.105 . S
Sc366 O384 2.105 . S
O367 Sc364 2.025 . S
O367 Sc365 2.025 . S
O367 Sc366 2.025 . S
C368 O374 1.268 . S
C368 O384 1.268 . S
C369 O375 1.268 . S
C369 O383 1.268 . S
C370 O376 1.268 . S
C370 O385 1.268 . S
C371 O377 1.268 . S
C371 O381 1.268 . S
C372 O378 1.268 . S
C372 O380 1.268 . S
C373 O379 1.268 . S
C373 O382 1.268 . S
O374 Sc364 2.105 . S
O374 C368 1.268 . S
O375 Sc365 2.105 . S
O375 C369 1.268 . S
O376 Sc366 2.105 . S
O376 C370 1.268 . S
O377 Sc364 2.105 . S
O377 C371 1.268 . S
O378 Sc366 2.105 . S
O378 C372 1.268 . S
O379 Sc365 2.105 . S
O379 C373 1.268 . S
O380 Sc364 2.105 . S
O380 C372 1.268 . S
O381 Sc365 2.105 . S
O381 C371 1.268 . S
O382 Sc366 2.105 . S
O382 C373 1.268 . S
O383 Sc364 2.105 . S
O383 C369 1.268 . S
O384 Sc366 2.105 . S
O384 C368 1.268 . S
O385 Sc365 2.105 . S
O385 C370 1.268 . S
Sc386 O389 2.025 . S
Sc386 O396 2.105 . S
Sc386 O399 2.105 . S
Sc386 O402 2.105 . S
Sc386 O405 2.105 . S
Sc387 O389 2.025 . S
Sc387 O397 2.105 . S
Sc387 O401 2.105 . S
Sc387 O403 2.105 . S
Sc387 O407 2.105 . S
Sc388 O389 2.025 . S
Sc388 O398 2.105 . S
Sc388 O400 2.105 . S
Sc388 O404 2.105 . S
Sc388 O406 2.105 . S
O389 Sc386 2.025 . S
O389 Sc387 2.025 . S
O389 Sc388 2.025 . S
C390 O396 1.268 . S
C390 O406 1.268 . S
C391 O397 1.268 . S
C391 O405 1.268 . S
C392 O398 1.268 . S
C392 O407 1.268 . S
C393 O399 1.268 . S
C393 O403 1.268 . S
C394 O400 1.268 . S
C394 O402 1.268 . S
C395 O401 1.268 . S
C395 O404 1.268 . S
O396 Sc386 2.105 . S
O396 C390 1.268 . S
O397 Sc387 2.105 . S
O397 C391 1.268 . S
O398 Sc388 2.105 . S
O398 C392 1.268 . S
O399 Sc386 2.105 . S
O399 C393 1.268 . S
O400 Sc388 2.105 . S
O400 C394 1.268 . S
O401 Sc387 2.105 . S
O401 C395 1.268 . S
O402 Sc386 2.105 . S
O402 C394 1.268 . S
O403 Sc387 2.105 . S
O403 C393 1.268 . S
O404 Sc388 2.105 . S
O404 C395 1.268 . S
O405 Sc386 2.105 . S
O405 C391 1.268 . S
O406 Sc388 2.105 . S
O406 C390 1.268 . S
O407 Sc387 2.105 . S
O407 C392 1.268 . S
C408 C409 1.349 . S
C408 C410 1.327 . S
C408 H433 0.950 . S
C409 C408 1.349 . S
C409 C425 1.349 . S
C410 C408 1.327 . S
C410 C429 1.429 . S
C410 H434 0.950 . S
C411 C428 1.574 . S
C411 C430 1.368 . S
C411 H435 0.949 . S
H412 C416 0.949 . S
C413 C414 1.349 . S
C413 C415 1.327 . S
C413 H436 0.950 . S
C414 C413 1.349 . S
C414 C426 1.349 . S
C415 C413 1.327 . S
C415 C431 1.429 . S
C415 H437 0.950 . S
C416 H412 0.949 . S
C416 C424 1.574 . S
C416 C432 1.368 . S
H417 C425 0.950 . S
H418 C423 0.950 . S
H419 C424 0.949 . S
H420 C426 0.950 . S
H421 C427 0.950 . S
H422 C428 0.949 . S
C423 H418 0.950 . S
C423 C425 1.327 . S
C423 C429 1.429 . S
C424 C416 1.574 . S
C424 H419 0.949 . S
C424 C430 1.368 . S
C425 C409 1.349 . S
C425 H417 0.950 . S
C425 C423 1.327 . S
C426 C414 1.349 . S
C426 H420 0.950 . S
C426 C427 1.327 . S
C427 H421 0.950 . S
C427 C426 1.327 . S
C427 C431 1.429 . S
C428 C411 1.574 . S
C428 H422 0.949 . S
C428 C432 1.368 . S
C429 C410 1.429 . S
C429 C423 1.429 . S
C429 C430 1.523 . S
C430 C411 1.368 . S
C430 C424 1.368 . S
C430 C429 1.523 . S
C431 C415 1.429 . S
C431 C427 1.429 . S
C431 C432 1.523 . S
C432 C416 1.368 . S
C432 C428 1.368 . S
C432 C431 1.523 . S
H433 C408 0.950 . S
H434 C410 0.950 . S
H435 C411 0.949 . S
H436 C413 0.950 . S
H437 C415 0.950 . S
C438 C439 1.349 . S
C438 C440 1.327 . S
C438 H463 0.950 . S
C439 C438 1.349 . S
C439 C455 1.349 . S
C440 C438 1.327 . S
C440 C459 1.429 . S
C440 H464 0.950 . S
C441 C458 1.574 . S
C441 C460 1.368 . S
C441 H465 0.949 . S
H442 C446 0.949 . S
C443 C444 1.349 . S
C443 C445 1.327 . S
C443 H466 0.950 . S
C444 C443 1.349 . S
C444 C456 1.349 . S
C445 C443 1.327 . S
C445 C461 1.429 . S
C445 H467 0.950 . S
C446 H442 0.949 . S
C446 C454 1.574 . S
C446 C462 1.368 . S
H447 C455 0.950 . S
H448 C453 0.950 . S
H449 C454 0.949 . S
H450 C456 0.950 . S
H451 C457 0.950 . S
H452 C458 0.949 . S
C453 H448 0.950 . S
C453 C455 1.327 . S
C453 C459 1.429 . S
C454 C446 1.574 . S
C454 H449 0.949 . S
C454 C460 1.368 . S
C455 C439 1.349 . S
C455 H447 0.950 . S
C455 C453 1.327 . S
C456 C444 1.349 . S
C456 H450 0.950 . S
C456 C457 1.327 . S
C457 H451 0.950 . S
C457 C456 1.327 . S
C457 C461 1.429 . S
C458 C441 1.574 . S
C458 H452 0.949 . S
C458 C462 1.368 . S
C459 C440 1.429 . S
C459 C453 1.429 . S
C459 C460 1.523 . S
C460 C441 1.368 . S
C460 C454 1.368 . S
C460 C459 1.523 . S
C461 C445 1.429 . S
C461 C457 1.429 . S
C461 C462 1.523 . S
C462 C446 1.368 . S
C462 C458 1.368 . S
C462 C461 1.523 . S
H463 C438 0.950 . S
H464 C440 0.950 . S
H465 C441 0.949 . S
H466 C443 0.950 . S
H467 C445 0.950 . S
C468 C469 1.349 . S
C468 C470 1.327 . S
C468 H493 0.950 . S
C469 C468 1.349 . S
C469 C485 1.349 . S
C470 C468 1.327 . S
C470 C489 1.429 . S
C470 H494 0.950 . S
C471 C488 1.574 . S
C471 C490 1.368 . S
C471 H495 0.949 . S
H472 C476 0.949 . S
C473 C474 1.349 . S
C473 C475 1.327 . S
C473 H496 0.950 . S
C474 C473 1.349 . S
C474 C486 1.349 . S
C475 C473 1.327 . S
C475 C491 1.429 . S
C475 H497 0.950 . S
C476 H472 0.949 . S
C476 C484 1.574 . S
C476 C492 1.368 . S
H477 C485 0.950 . S
H478 C483 0.950 . S
H479 C484 0.949 . S
H480 C486 0.950 . S
H481 C487 0.950 . S
H482 C488 0.949 . S
C483 H478 0.950 . S
C483 C485 1.327 . S
C483 C489 1.429 . S
C484 C476 1.574 . S
C484 H479 0.949 . S
C484 C490 1.368 . S
C485 C469 1.349 . S
C485 H477 0.950 . S
C485 C483 1.327 . S
C486 C474 1.349 . S
C486 H480 0.950 . S
C486 C487 1.327 . S
C487 H481 0.950 . S
C487 C486 1.327 . S
C487 C491 1.429 . S
C488 C471 1.574 . S
C488 H482 0.949 . S
C488 C492 1.368 . S
C489 C470 1.429 . S
C489 C483 1.429 . S
C489 C490 1.523 . S
C490 C471 1.368 . S
C490 C484 1.368 . S
C490 C489 1.523 . S
C491 C475 1.429 . S
C491 C487 1.429 . S
C491 C492 1.523 . S
C492 C476 1.368 . S
C492 C488 1.368 . S
C492 C491 1.523 . S
H493 C468 0.950 . S
H494 C470 0.950 . S
H495 C471 0.949 . S
H496 C473 0.950 . S
H497 C475 0.950 . S
C498 C499 1.349 . S
C498 C500 1.327 . S
C498 H523 0.950 . S
C499 C498 1.349 . S
C499 C515 1.349 . S
C500 C498 1.327 . S
C500 C519 1.429 . S
C500 H524 0.950 . S
C501 C518 1.574 . S
C501 C520 1.368 . S
C501 H525 0.949 . S
H502 C506 0.949 . S
C503 C504 1.349 . S
C503 C505 1.327 . S
C503 H526 0.950 . S
C504 C503 1.349 . S
C504 C516 1.349 . S
C505 C503 1.327 . S
C505 C521 1.429 . S
C505 H527 0.950 . S
C506 H502 0.949 . S
C506 C514 1.574 . S
C506 C522 1.368 . S
H507 C515 0.950 . S
H508 C513 0.950 . S
H509 C514 0.949 . S
H510 C516 0.950 . S
H511 C517 0.950 . S
H512 C518 0.949 . S
C513 H508 0.950 . S
C513 C515 1.327 . S
C513 C519 1.429 . S
C514 C506 1.574 . S
C514 H509 0.949 . S
C514 C520 1.368 . S
C515 C499 1.349 . S
C515 H507 0.950 . S
C515 C513 1.327 . S
C516 C504 1.349 . S
C516 H510 0.950 . S
C516 C517 1.327 . S
C517 H511 0.950 . S
C517 C516 1.327 . S
C517 C521 1.429 . S
C518 C501 1.574 . S
C518 H512 0.949 . S
C518 C522 1.368 . S
C519 C500 1.429 . S
C519 C513 1.429 . S
C519 C520 1.523 . S
C520 C501 1.368 . S
C520 C514 1.368 . S
C520 C519 1.523 . S
C521 C505 1.429 . S
C521 C517 1.429 . S
C521 C522 1.523 . S
C522 C506 1.368 . S
C522 C518 1.368 . S
C522 C521 1.523 . S
H523 C498 0.950 . S
H524 C500 0.950 . S
H525 C501 0.949 . S
H526 C503 0.950 . S
H527 C505 0.950 . S
C528 C529 1.349 . S
C528 C530 1.327 . S
C528 H553 0.950 . S
C529 C528 1.349 . S
C529 C545 1.349 . S
C530 C528 1.327 . S
C530 C549 1.429 . S
C530 H554 0.950 . S
C531 C548 1.574 . S
C531 C550 1.368 . S
C531 H555 0.949 . S
H532 C536 0.949 . S
C533 C534 1.349 . S
C533 C535 1.327 . S
C533 H556 0.950 . S
C534 C533 1.349 . S
C534 C546 1.349 . S
C535 C533 1.327 . S
C535 C551 1.429 . S
C535 H557 0.950 . S
C536 H532 0.949 . S
C536 C544 1.574 . S
C536 C552 1.368 . S
H537 C545 0.950 . S
H538 C543 0.950 . S
H539 C544 0.949 . S
H540 C546 0.950 . S
H541 C547 0.950 . S
H542 C548 0.949 . S
C543 H538 0.950 . S
C543 C545 1.327 . S
C543 C549 1.429 . S
C544 C536 1.574 . S
C544 H539 0.949 . S
C544 C550 1.368 . S
C545 C529 1.349 . S
C545 H537 0.950 . S
C545 C543 1.327 . S
C546 C534 1.349 . S
C546 H540 0.950 . S
C546 C547 1.327 . S
C547 H541 0.950 . S
C547 C546 1.327 . S
C547 C551 1.429 . S
C548 C531 1.574 . S
C548 H542 0.949 . S
C548 C552 1.368 . S
C549 C530 1.429 . S
C549 C543 1.429 . S
C549 C550 1.523 . S
C550 C531 1.368 . S
C550 C544 1.368 . S
C550 C549 1.523 . S
C551 C535 1.429 . S
C551 C547 1.429 . S
C551 C552 1.523 . S
C552 C536 1.368 . S
C552 C548 1.368 . S
C552 C551 1.523 . S
H553 C528 0.950 . S
H554 C530 0.950 . S
H555 C531 0.949 . S
H556 C533 0.950 . S
H557 C535 0.950 . S
C558 C559 1.349 . S
C558 C560 1.327 . S
C558 H583 0.950 . S
C559 C558 1.349 . S
C559 C575 1.349 . S
C560 C558 1.327 . S
C560 C579 1.429 . S
C560 H584 0.950 . S
C561 C578 1.574 . S
C561 C580 1.368 . S
C561 H585 0.949 . S
H562 C566 0.949 . S
C563 C564 1.349 . S
C563 C565 1.327 . S
C563 H586 0.950 . S
C564 C563 1.349 . S
C564 C576 1.349 . S
C565 C563 1.327 . S
C565 C581 1.429 . S
C565 H587 0.950 . S
C566 H562 0.949 . S
C566 C574 1.574 . S
C566 C582 1.368 . S
H567 C575 0.950 . S
H568 C573 0.950 . S
H569 C574 0.949 . S
H570 C576 0.950 . S
H571 C577 0.950 . S
H572 C578 0.949 . S
C573 H568 0.950 . S
C573 C575 1.327 . S
C573 C579 1.429 . S
C574 C566 1.574 . S
C574 H569 0.949 . S
C574 C580 1.368 . S
C575 C559 1.349 . S
C575 H567 0.950 . S
C575 C573 1.327 . S
C576 C564 1.349 . S
C576 H570 0.950 . S
C576 C577 1.327 . S
C577 H571 0.950 . S
C577 C576 1.327 . S
C577 C581 1.429 . S
C578 C561 1.574 . S
C578 H572 0.949 . S
C578 C582 1.368 . S
C579 C560 1.429 . S
C579 C573 1.429 . S
C579 C580 1.523 . S
C580 C561 1.368 . S
C580 C574 1.368 . S
C580 C579 1.523 . S
C581 C565 1.429 . S
C581 C577 1.429 . S
C581 C582 1.523 . S
C582 C566 1.368 . S
C582 C578 1.368 . S
C582 C581 1.523 . S
H583 C558 0.950 . S
H584 C560 0.950 . S
H585 C561 0.949 . S
H586 C563 0.950 . S
H587 C565 0.950 . S
C588 C589 1.349 . S
C588 C590 1.327 . S
C588 H613 0.950 . S
C589 C588 1.349 . S
C589 C605 1.349 . S
C590 C588 1.327 . S
C590 C609 1.429 . S
C590 H614 0.950 . S
C591 C608 1.574 . S
C591 C610 1.368 . S
C591 H615 0.949 . S
H592 C596 0.949 . S
C593 C594 1.349 . S
C593 C595 1.327 . S
C593 H616 0.950 . S
C594 C593 1.349 . S
C594 C606 1.349 . S
C595 C593 1.327 . S
C595 C611 1.429 . S
C595 H617 0.950 . S
C596 H592 0.949 . S
C596 C604 1.574 . S
C596 C612 1.368 . S
H597 C605 0.950 . S
H598 C603 0.950 . S
H599 C604 0.949 . S
H600 C606 0.950 . S
H601 C607 0.950 . S
H602 C608 0.949 . S
C603 H598 0.950 . S
C603 C605 1.327 . S
C603 C609 1.429 . S
C604 C596 1.574 . S
C604 H599 0.949 . S
C604 C610 1.368 . S
C605 C589 1.349 . S
C605 H597 0.950 . S
C605 C603 1.327 . S
C606 C594 1.349 . S
C606 H600 0.950 . S
C606 C607 1.327 . S
C607 H601 0.950 . S
C607 C606 1.327 . S
C607 C611 1.429 . S
C608 C591 1.574 . S
C608 H602 0.949 . S
C608 C612 1.368 . S
C609 C590 1.429 . S
C609 C603 1.429 . S
C609 C610 1.523 . S
C610 C591 1.368 . S
C610 C604 1.368 . S
C610 C609 1.523 . S
C611 C595 1.429 . S
C611 C607 1.429 . S
C611 C612 1.523 . S
C612 C596 1.368 . S
C612 C608 1.368 . S
C612 C611 1.523 . S
H613 C588 0.950 . S
H614 C590 0.950 . S
H615 C591 0.949 . S
H616 C593 0.950 . S
H617 C595 0.950 . S
C618 C619 1.349 . S
C618 C620 1.327 . S
C618 H643 0.950 . S
C619 C618 1.349 . S
C619 C635 1.349 . S
C620 C618 1.327 . S
C620 C639 1.429 . S
C620 H644 0.950 . S
C621 C638 1.574 . S
C621 C640 1.368 . S
C621 H645 0.949 . S
H622 C626 0.949 . S
C623 C624 1.349 . S
C623 C625 1.327 . S
C623 H646 0.950 . S
C624 C623 1.349 . S
C624 C636 1.349 . S
C625 C623 1.327 . S
C625 C641 1.429 . S
C625 H647 0.950 . S
C626 H622 0.949 . S
C626 C634 1.574 . S
C626 C642 1.368 . S
H627 C635 0.950 . S
H628 C633 0.950 . S
H629 C634 0.949 . S
H630 C636 0.950 . S
H631 C637 0.950 . S
H632 C638 0.949 . S
C633 H628 0.950 . S
C633 C635 1.327 . S
C633 C639 1.429 . S
C634 C626 1.574 . S
C634 H629 0.949 . S
C634 C640 1.368 . S
C635 C619 1.349 . S
C635 H627 0.950 . S
C635 C633 1.327 . S
C636 C624 1.349 . S
C636 H630 0.950 . S
C636 C637 1.327 . S
C637 H631 0.950 . S
C637 C636 1.327 . S
C637 C641 1.429 . S
C638 C621 1.574 . S
C638 H632 0.949 . S
C638 C642 1.368 . S
C639 C620 1.429 . S
C639 C633 1.429 . S
C639 C640 1.523 . S
C640 C621 1.368 . S
C640 C634 1.368 . S
C640 C639 1.523 . S
C641 C625 1.429 . S
C641 C637 1.429 . S
C641 C642 1.523 . S
C642 C626 1.368 . S
C642 C638 1.368 . S
C642 C641 1.523 . S
H643 C618 0.950 . S
H644 C620 0.950 . S
H645 C621 0.949 . S
H646 C623 0.950 . S
H647 C625 0.950 . S
C648 C649 1.349 . S
C648 C650 1.327 . S
C648 H673 0.950 . S
C649 C648 1.349 . S
C649 C665 1.349 . S
C650 C648 1.327 . S
C650 C669 1.429 . S
C650 H674 0.950 . S
C651 C668 1.574 . S
C651 C670 1.368 . S
C651 H675 0.949 . S
H652 C656 0.949 . S
C653 C654 1.349 . S
C653 C655 1.327 . S
C653 H676 0.950 . S
C654 C653 1.349 . S
C654 C666 1.349 . S
C655 C653 1.327 . S
C655 C671 1.429 . S
C655 H677 0.950 . S
C656 H652 0.949 . S
C656 C664 1.574 . S
C656 C672 1.368 . S
H657 C665 0.950 . S
H658 C663 0.950 . S
H659 C664 0.949 . S
H660 C666 0.950 . S
H661 C667 0.950 . S
H662 C668 0.949 . S
C663 H658 0.950 . S
C663 C665 1.327 . S
C663 C669 1.429 . S
C664 C656 1.574 . S
C664 H659 0.949 . S
C664 C670 1.368 . S
C665 C649 1.349 . S
C665 H657 0.950 . S
C665 C663 1.327 . S
C666 C654 1.349 . S
C666 H660 0.950 . S
C666 C667 1.327 . S
C667 H661 0.950 . S
C667 C666 1.327 . S
C667 C671 1.429 . S
C668 C651 1.574 . S
C668 H662 0.949 . S
C668 C672 1.368 . S
C669 C650 1.429 . S
C669 C663 1.429 . S
C669 C670 1.523 . S
C670 C651 1.368 . S
C670 C664 1.368 . S
C670 C669 1.523 . S
C671 C655 1.429 . S
C671 C667 1.429 . S
C671 C672 1.523 . S
C672 C656 1.368 . S
C672 C668 1.368 . S
C672 C671 1.523 . S
H673 C648 0.950 . S
H674 C650 0.950 . S
H675 C651 0.949 . S
H676 C653 0.950 . S
H677 C655 0.950 . S
C678 C679 1.349 . S
C678 C680 1.327 . S
C678 H703 0.950 . S
C679 C678 1.349 . S
C679 C695 1.349 . S
C680 C678 1.327 . S
C680 C699 1.429 . S
C680 H704 0.950 . S
C681 C698 1.574 . S
C681 C700 1.368 . S
C681 H705 0.949 . S
H682 C686 0.949 . S
C683 C684 1.349 . S
C683 C685 1.327 . S
C683 H706 0.950 . S
C684 C683 1.349 . S
C684 C696 1.349 . S
C685 C683 1.327 . S
C685 C701 1.429 . S
C685 H707 0.950 . S
C686 H682 0.949 . S
C686 C694 1.574 . S
C686 C702 1.368 . S
H687 C695 0.950 . S
H688 C693 0.950 . S
H689 C694 0.949 . S
H690 C696 0.950 . S
H691 C697 0.950 . S
H692 C698 0.949 . S
C693 H688 0.950 . S
C693 C695 1.327 . S
C693 C699 1.429 . S
C694 C686 1.574 . S
C694 H689 0.949 . S
C694 C700 1.368 . S
C695 C679 1.349 . S
C695 H687 0.950 . S
C695 C693 1.327 . S
C696 C684 1.349 . S
C696 H690 0.950 . S
C696 C697 1.327 . S
C697 H691 0.950 . S
C697 C696 1.327 . S
C697 C701 1.429 . S
C698 C681 1.574 . S
C698 H692 0.949 . S
C698 C702 1.368 . S
C699 C680 1.429 . S
C699 C693 1.429 . S
C699 C700 1.523 . S
C700 C681 1.368 . S
C700 C694 1.368 . S
C700 C699 1.523 . S
C701 C685 1.429 . S
C701 C697 1.429 . S
C701 C702 1.523 . S
C702 C686 1.368 . S
C702 C698 1.368 . S
C702 C701 1.523 . S
H703 C678 0.950 . S
H704 C680 0.950 . S
H705 C681 0.949 . S
H706 C683 0.950 . S
H707 C685 0.950 . S
C708 C709 1.349 . S
C708 C710 1.327 . S
C708 H733 0.950 . S
C709 C708 1.349 . S
C709 C725 1.349 . S
C710 C708 1.327 . S
C710 C729 1.429 . S
C710 H734 0.950 . S
C711 C728 1.574 . S
C711 C730 1.368 . S
C711 H735 0.949 . S
H712 C716 0.949 . S
C713 C714 1.349 . S
C713 C715 1.327 . S
C713 H736 0.950 . S
C714 C713 1.349 . S
C714 C726 1.349 . S
C715 C713 1.327 . S
C715 C731 1.429 . S
C715 H737 0.950 . S
C716 H712 0.949 . S
C716 C724 1.574 . S
C716 C732 1.368 . S
H717 C725 0.950 . S
H718 C723 0.950 . S
H719 C724 0.949 . S
H720 C726 0.950 . S
H721 C727 0.950 . S
H722 C728 0.949 . S
C723 H718 0.950 . S
C723 C725 1.327 . S
C723 C729 1.429 . S
C724 C716 1.574 . S
C724 H719 0.949 . S
C724 C730 1.368 . S
C725 C709 1.349 . S
C725 H717 0.950 . S
C725 C723 1.327 . S
C726 C714 1.349 . S
C726 H720 0.950 . S
C726 C727 1.327 . S
C727 H721 0.950 . S
C727 C726 1.327 . S
C727 C731 1.429 . S
C728 C711 1.574 . S
C728 H722 0.949 . S
C728 C732 1.368 . S
C729 C710 1.429 . S
C729 C723 1.429 . S
C729 C730 1.523 . S
C730 C711 1.368 . S
C730 C724 1.368 . S
C730 C729 1.523 . S
C731 C715 1.429 . S
C731 C727 1.429 . S
C731 C732 1.523 . S
C732 C716 1.368 . S
C732 C728 1.368 . S
C732 C731 1.523 . S
H733 C708 0.950 . S
H734 C710 0.950 . S
H735 C711 0.949 . S
H736 C713 0.950 . S
H737 C715 0.950 . S
C738 C739 1.349 . S
C738 C740 1.327 . S
C738 H763 0.950 . S
C739 C738 1.349 . S
C739 C755 1.349 . S
C740 C738 1.327 . S
C740 C759 1.429 . S
C740 H764 0.950 . S
C741 C758 1.574 . S
C741 C760 1.368 . S
C741 H765 0.949 . S
H742 C746 0.949 . S
C743 C744 1.349 . S
C743 C745 1.327 . S
C743 H766 0.950 . S
C744 C743 1.349 . S
C744 C756 1.349 . S
C745 C743 1.327 . S
C745 C761 1.429 . S
C745 H767 0.950 . S
C746 H742 0.949 . S
C746 C754 1.574 . S
C746 C762 1.368 . S
H747 C755 0.950 . S
H748 C753 0.950 . S
H749 C754 0.949 . S
H750 C756 0.950 . S
H751 C757 0.950 . S
H752 C758 0.949 . S
C753 H748 0.950 . S
C753 C755 1.327 . S
C753 C759 1.429 . S
C754 C746 1.574 . S
C754 H749 0.949 . S
C754 C760 1.368 . S
C755 C739 1.349 . S
C755 H747 0.950 . S
C755 C753 1.327 . S
C756 C744 1.349 . S
C756 H750 0.950 . S
C756 C757 1.327 . S
C757 H751 0.950 . S
C757 C756 1.327 . S
C757 C761 1.429 . S
C758 C741 1.574 . S
C758 H752 0.949 . S
C758 C762 1.368 . S
C759 C740 1.429 . S
C759 C753 1.429 . S
C759 C760 1.523 . S
C760 C741 1.368 . S
C760 C754 1.368 . S
C760 C759 1.523 . S
C761 C745 1.429 . S
C761 C757 1.429 . S
C761 C762 1.523 . S
C762 C746 1.368 . S
C762 C758 1.368 . S
C762 C761 1.523 . S
H763 C738 0.950 . S
H764 C740 0.950 . S
H765 C741 0.949 . S
H766 C743 0.950 . S
H767 C745 0.950 . S
C768 C769 1.349 . S
C768 C770 1.327 . S
C768 H793 0.950 . S
C769 C768 1.349 . S
C769 C785 1.349 . S
C770 C768 1.327 . S
C770 C789 1.429 . S
C770 H794 0.950 . S
C771 C788 1.574 . S
C771 C790 1.368 . S
C771 H795 0.949 . S
H772 C776 0.949 . S
C773 C774 1.349 . S
C773 C775 1.327 . S
C773 H796 0.950 . S
C774 C773 1.349 . S
C774 C786 1.349 . S
C775 C773 1.327 . S
C775 C791 1.429 . S
C775 H797 0.950 . S
C776 H772 0.949 . S
C776 C784 1.574 . S
C776 C792 1.368 . S
H777 C785 0.950 . S
H778 C783 0.950 . S
H779 C784 0.949 . S
H780 C786 0.950 . S
H781 C787 0.950 . S
H782 C788 0.949 . S
C783 H778 0.950 . S
C783 C785 1.327 . S
C783 C789 1.429 . S
C784 C776 1.574 . S
C784 H779 0.949 . S
C784 C790 1.368 . S
C785 C769 1.349 . S
C785 H777 0.950 . S
C785 C783 1.327 . S
C786 C774 1.349 . S
C786 H780 0.950 . S
C786 C787 1.327 . S
C787 H781 0.950 . S
C787 C786 1.327 . S
C787 C791 1.429 . S
C788 C771 1.574 . S
C788 H782 0.949 . S
C788 C792 1.368 . S
C789 C770 1.429 . S
C789 C783 1.429 . S
C789 C790 1.523 . S
C790 C771 1.368 . S
C790 C784 1.368 . S
C790 C789 1.523 . S
C791 C775 1.429 . S
C791 C787 1.429 . S
C791 C792 1.523 . S
C792 C776 1.368 . S
C792 C788 1.368 . S
C792 C791 1.523 . S
H793 C768 0.950 . S
H794 C770 0.950 . S
H795 C771 0.949 . S
H796 C773 0.950 . S
H797 C775 0.950 . S
C798 C799 1.349 . S
C798 C800 1.327 . S
C798 H823 0.950 . S
C799 C798 1.349 . S
C799 C815 1.349 . S
C800 C798 1.327 . S
C800 C819 1.429 . S
C800 H824 0.950 . S
C801 C818 1.574 . S
C801 C820 1.368 . S
C801 H825 0.949 . S
H802 C806 0.949 . S
C803 C804 1.349 . S
C803 C805 1.327 . S
C803 H826 0.950 . S
C804 C803 1.349 . S
C804 C816 1.349 . S
C805 C803 1.327 . S
C805 C821 1.429 . S
C805 H827 0.950 . S
C806 H802 0.949 . S
C806 C814 1.574 . S
C806 C822 1.368 . S
H807 C815 0.950 . S
H808 C813 0.950 . S
H809 C814 0.949 . S
H810 C816 0.950 . S
H811 C817 0.950 . S
H812 C818 0.949 . S
C813 H808 0.950 . S
C813 C815 1.327 . S
C813 C819 1.429 . S
C814 C806 1.574 . S
C814 H809 0.949 . S
C814 C820 1.368 . S
C815 C799 1.349 . S
C815 H807 0.950 . S
C815 C813 1.327 . S
C816 C804 1.349 . S
C816 H810 0.950 . S
C816 C817 1.327 . S
C817 H811 0.950 . S
C817 C816 1.327 . S
C817 C821 1.429 . S
C818 C801 1.574 . S
C818 H812 0.949 . S
C818 C822 1.368 . S
C819 C800 1.429 . S
C819 C813 1.429 . S
C819 C820 1.523 . S
C820 C801 1.368 . S
C820 C814 1.368 . S
C820 C819 1.523 . S
C821 C805 1.429 . S
C821 C817 1.429 . S
C821 C822 1.523 . S
C822 C806 1.368 . S
C822 C818 1.368 . S
C822 C821 1.523 . S
H823 C798 0.950 . S
H824 C800 0.950 . S
H825 C801 0.949 . S
H826 C803 0.950 . S
H827 C805 0.950 . S
C828 C829 1.349 . S
C828 C830 1.327 . S
C828 H853 0.950 1_545 S
C829 C828 1.349 . S
C829 C845 1.349 . S
C830 C828 1.327 . S
C830 C849 1.429 . S
C830 H854 0.950 . S
C831 C848 1.574 . S
C831 C850 1.368 . S
C831 H855 0.949 . S
H832 C836 0.949 . S
C833 C834 1.349 . S
C833 C835 1.327 . S
C833 H856 0.950 . S
C834 C833 1.349 . S
C834 C846 1.349 . S
C835 C833 1.327 . S
C835 C851 1.429 . S
C835 H857 0.950 . S
C836 H832 0.949 . S
C836 C844 1.574 . S
C836 C852 1.368 . S
H837 C845 0.950 . S
H838 C843 0.950 . S
H839 C844 0.949 . S
H840 C846 0.950 . S
H841 C847 0.950 . S
H842 C848 0.949 . S
C843 H838 0.950 . S
C843 C845 1.327 . S
C843 C849 1.429 . S
C844 C836 1.574 . S
C844 H839 0.949 . S
C844 C850 1.368 . S
C845 C829 1.349 . S
C845 H837 0.950 . S
C845 C843 1.327 . S
C846 C834 1.349 . S
C846 H840 0.950 . S
C846 C847 1.327 . S
C847 H841 0.950 . S
C847 C846 1.327 . S
C847 C851 1.429 . S
C848 C831 1.574 . S
C848 H842 0.949 . S
C848 C852 1.368 . S
C849 C830 1.429 . S
C849 C843 1.429 . S
C849 C850 1.523 . S
C850 C831 1.368 . S
C850 C844 1.368 . S
C850 C849 1.523 . S
C851 C835 1.429 . S
C851 C847 1.429 . S
C851 C852 1.523 . S
C852 C836 1.368 . S
C852 C848 1.368 . S
C852 C851 1.523 . S
H853 C828 0.950 1_565 S
H854 C830 0.950 . S
H855 C831 0.949 . S
H856 C833 0.950 . S
H857 C835 0.950 . S
C858 C859 1.349 . S
C858 C860 1.327 . S
C858 H883 0.950 . S
C859 C858 1.349 . S
C859 C875 1.349 . S
C860 C858 1.327 . S
C860 C879 1.429 . S
C860 H884 0.950 . S
C861 C878 1.574 . S
C861 C880 1.368 . S
C861 H885 0.949 . S
H862 C866 0.949 . S
C863 C864 1.349 . S
C863 C865 1.327 . S
C863 H886 0.950 . S
C864 C863 1.349 . S
C864 C876 1.349 . S
C865 C863 1.327 . S
C865 C881 1.429 . S
C865 H887 0.950 . S
C866 H862 0.949 . S
C866 C874 1.574 . S
C866 C882 1.368 . S
H867 C875 0.950 1_545 S
H868 C873 0.950 . S
H869 C874 0.949 . S
H870 C876 0.950 . S
H871 C877 0.950 . S
H872 C878 0.949 . S
C873 H868 0.950 . S
C873 C875 1.327 . S
C873 C879 1.429 . S
C874 C866 1.574 . S
C874 H869 0.949 . S
C874 C880 1.368 . S
C875 C859 1.349 . S
C875 H867 0.950 1_565 S
C875 C873 1.327 . S
C876 C864 1.349 . S
C876 H870 0.950 . S
C876 C877 1.327 . S
C877 H871 0.950 . S
C877 C876 1.327 . S
C877 C881 1.429 . S
C878 C861 1.574 . S
C878 H872 0.949 . S
C878 C882 1.368 . S
C879 C860 1.429 . S
C879 C873 1.429 . S
C879 C880 1.523 . S
C880 C861 1.368 . S
C880 C874 1.368 . S
C880 C879 1.523 . S
C881 C865 1.429 . S
C881 C877 1.429 . S
C881 C882 1.523 . S
C882 C866 1.368 . S
C882 C878 1.368 . S
C882 C881 1.523 . S
H883 C858 0.950 . S
H884 C860 0.950 . S
H885 C861 0.949 . S
H886 C863 0.950 . S
H887 C865 0.950 . S
C888 C889 1.349 . S
C888 C890 1.327 . S
C888 H913 0.950 . S
C889 C888 1.349 . S
C889 C905 1.349 . S
C890 C888 1.327 . S
C890 C909 1.429 . S
C890 H914 0.950 . S
C891 C908 1.574 . S
C891 C910 1.368 . S
C891 H915 0.949 . S
H892 C896 0.949 . S
C893 C894 1.349 . S
C893 C895 1.327 . S
C893 H916 0.950 . S
C894 C893 1.349 . S
C894 C906 1.349 . S
C895 C893 1.327 . S
C895 C911 1.429 . S
C895 H917 0.950 . S
C896 H892 0.949 . S
C896 C904 1.574 . S
C896 C912 1.368 . S
H897 C905 0.950 . S
H898 C903 0.950 . S
H899 C904 0.949 . S
H900 C906 0.950 . S
H901 C907 0.950 . S
H902 C908 0.949 . S
C903 H898 0.950 . S
C903 C905 1.327 . S
C903 C909 1.429 . S
C904 C896 1.574 . S
C904 H899 0.949 . S
C904 C910 1.368 . S
C905 C889 1.349 . S
C905 H897 0.950 . S
C905 C903 1.327 . S
C906 C894 1.349 . S
C906 H900 0.950 . S
C906 C907 1.327 . S
C907 H901 0.950 . S
C907 C906 1.327 . S
C907 C911 1.429 . S
C908 C891 1.574 . S
C908 H902 0.949 . S
C908 C912 1.368 . S
C909 C890 1.429 . S
C909 C903 1.429 . S
C909 C910 1.523 . S
C910 C891 1.368 . S
C910 C904 1.368 . S
C910 C909 1.523 . S
C911 C895 1.429 . S
C911 C907 1.429 . S
C911 C912 1.523 . S
C912 C896 1.368 . S
C912 C908 1.368 . S
C912 C911 1.523 . S
H913 C888 0.950 . S
H914 C890 0.950 . S
H915 C891 0.949 . S
H916 C893 0.950 . S
H917 C895 0.950 . S
C918 C919 1.349 . S
C918 C920 1.327 . S
C918 H943 0.950 . S
C919 C918 1.349 . S
C919 C935 1.349 . S
C920 C918 1.327 . S
C920 C939 1.429 . S
C920 H944 0.950 . S
C921 C938 1.574 . S
C921 C940 1.368 . S
C921 H945 0.949 . S
H922 C926 0.949 . S
C923 C924 1.349 . S
C923 C925 1.327 . S
C923 H946 0.950 . S
C924 C923 1.349 . S
C924 C936 1.349 . S
C925 C923 1.327 . S
C925 C941 1.429 . S
C925 H947 0.950 . S
C926 H922 0.949 . S
C926 C934 1.574 . S
C926 C942 1.368 . S
H927 C935 0.950 . S
H928 C933 0.950 . S
H929 C934 0.949 . S
H930 C936 0.950 . S
H931 C937 0.950 . S
H932 C938 0.949 . S
C933 H928 0.950 . S
C933 C935 1.327 . S
C933 C939 1.429 . S
C934 C926 1.574 . S
C934 H929 0.949 . S
C934 C940 1.368 . S
C935 C919 1.349 . S
C935 H927 0.950 . S
C935 C933 1.327 . S
C936 C924 1.349 . S
C936 H930 0.950 . S
C936 C937 1.327 . S
C937 H931 0.950 . S
C937 C936 1.327 . S
C937 C941 1.429 . S
C938 C921 1.574 . S
C938 H932 0.949 . S
C938 C942 1.368 . S
C939 C920 1.429 . S
C939 C933 1.429 . S
C939 C940 1.523 . S
C940 C921 1.368 . S
C940 C934 1.368 . S
C940 C939 1.523 . S
C941 C925 1.429 . S
C941 C937 1.429 . S
C941 C942 1.523 . S
C942 C926 1.368 . S
C942 C938 1.368 . S
C942 C941 1.523 . S
H943 C918 0.950 . S
H944 C920 0.950 . S
H945 C921 0.949 . S
H946 C923 0.950 . S
H947 C925 0.950 . S
C948 C949 1.349 . S
C948 C950 1.327 . S
C948 H973 0.950 . S
C949 C948 1.349 . S
C949 C965 1.349 . S
C950 C948 1.327 . S
C950 C969 1.429 . S
C950 H974 0.950 . S
C951 C968 1.574 . S
C951 C970 1.368 . S
C951 H975 0.949 . S
H952 C956 0.949 . S
C953 C954 1.349 . S
C953 C955 1.327 . S
C953 H976 0.950 . S
C954 C953 1.349 . S
C954 C966 1.349 . S
C955 C953 1.327 . S
C955 C971 1.429 . S
C955 H977 0.950 . S
C956 H952 0.949 . S
C956 C964 1.574 . S
C956 C972 1.368 . S
H957 C965 0.950 . S
H958 C963 0.950 . S
H959 C964 0.949 . S
H960 C966 0.950 . S
H961 C967 0.950 . S
H962 C968 0.949 . S
C963 H958 0.950 . S
C963 C965 1.327 . S
C963 C969 1.429 . S
C964 C956 1.574 . S
C964 H959 0.949 . S
C964 C970 1.368 . S
C965 C949 1.349 . S
C965 H957 0.950 . S
C965 C963 1.327 . S
C966 C954 1.349 . S
C966 H960 0.950 . S
C966 C967 1.327 . S
C967 H961 0.950 . S
C967 C966 1.327 . S
C967 C971 1.429 . S
C968 C951 1.574 . S
C968 H962 0.949 . S
C968 C972 1.368 . S
C969 C950 1.429 . S
C969 C963 1.429 . S
C969 C970 1.523 . S
C970 C951 1.368 . S
C970 C964 1.368 . S
C970 C969 1.523 . S
C971 C955 1.429 . S
C971 C967 1.429 . S
C971 C972 1.523 . S
C972 C956 1.368 . S
C972 C968 1.368 . S
C972 C971 1.523 . S
H973 C948 0.950 . S
H974 C950 0.950 . S
H975 C951 0.949 . S
H976 C953 0.950 . S
H977 C955 0.950 . S
C978 C979 1.349 . S
C978 C980 1.327 . S
C978 H1003 0.950 . S
C979 C978 1.349 . S
C979 C995 1.349 . S
C980 C978 1.327 . S
C980 C999 1.429 . S
C980 H1004 0.950 . S
C981 C998 1.574 . S
C981 C1000 1.368 . S
C981 H1005 0.949 . S
H982 C986 0.949 . S
C983 C984 1.349 . S
C983 C985 1.327 . S
C983 H1006 0.950 . S
C984 C983 1.349 . S
C984 C996 1.349 . S
C985 C983 1.327 . S
C985 C1001 1.429 . S
C985 H1007 0.950 . S
C986 H982 0.949 . S
C986 C994 1.574 . S
C986 C1002 1.368 . S
H987 C995 0.950 . S
H988 C993 0.950 . S
H989 C994 0.949 . S
H990 C996 0.950 . S
H991 C997 0.950 . S
H992 C998 0.949 . S
C993 H988 0.950 . S
C993 C995 1.327 . S
C993 C999 1.429 . S
C994 C986 1.574 . S
C994 H989 0.949 . S
C994 C1000 1.368 . S
C995 C979 1.349 . S
C995 H987 0.950 . S
C995 C993 1.327 . S
C996 C984 1.349 . S
C996 H990 0.950 . S
C996 C997 1.327 . S
C997 H991 0.950 . S
C997 C996 1.327 . S
C997 C1001 1.429 . S
C998 C981 1.574 . S
C998 H992 0.949 . S
C998 C1002 1.368 . S
C999 C980 1.429 . S
C999 C993 1.429 . S
C999 C1000 1.523 . S
C1000 C981 1.368 . S
C1000 C994 1.368 . S
C1000 C999 1.523 . S
C1001 C985 1.429 . S
C1001 C997 1.429 . S
C1001 C1002 1.523 . S
C1002 C986 1.368 . S
C1002 C998 1.368 . S
C1002 C1001 1.523 . S
H1003 C978 0.950 . S
H1004 C980 0.950 . S
H1005 C981 0.949 . S
H1006 C983 0.950 . S
H1007 C985 0.950 . S
C1008 C1009 1.349 . S
C1008 C1010 1.327 . S
C1008 H1033 0.950 . S
C1009 C1008 1.349 . S
C1009 C1025 1.349 . S
C1010 C1008 1.327 . S
C1010 C1029 1.429 . S
C1010 H1034 0.950 . S
C1011 C1028 1.574 . S
C1011 C1030 1.368 . S
C1011 H1035 0.949 . S
H1012 C1016 0.949 . S
C1013 C1014 1.349 . S
C1013 C1015 1.327 . S
C1013 H1036 0.950 . S
C1014 C1013 1.349 . S
C1014 C1026 1.349 . S
C1015 C1013 1.327 . S
C1015 C1031 1.429 . S
C1015 H1037 0.950 . S
C1016 H1012 0.949 . S
C1016 C1024 1.574 . S
C1016 C1032 1.368 . S
H1017 C1025 0.950 . S
H1018 C1023 0.950 . S
H1019 C1024 0.949 . S
H1020 C1026 0.950 . S
H1021 C1027 0.950 . S
H1022 C1028 0.949 . S
C1023 H1018 0.950 . S
C1023 C1025 1.327 . S
C1023 C1029 1.429 . S
C1024 C1016 1.574 . S
C1024 H1019 0.949 . S
C1024 C1030 1.368 . S
C1025 C1009 1.349 . S
C1025 H1017 0.950 . S
C1025 C1023 1.327 . S
C1026 C1014 1.349 . S
C1026 H1020 0.950 . S
C1026 C1027 1.327 . S
C1027 H1021 0.950 . S
C1027 C1026 1.327 . S
C1027 C1031 1.429 . S
C1028 C1011 1.574 . S
C1028 H1022 0.949 . S
C1028 C1032 1.368 . S
C1029 C1010 1.429 . S
C1029 C1023 1.429 . S
C1029 C1030 1.523 . S
C1030 C1011 1.368 . S
C1030 C1024 1.368 . S
C1030 C1029 1.523 . S
C1031 C1015 1.429 . S
C1031 C1027 1.429 . S
C1031 C1032 1.523 . S
C1032 C1016 1.368 . S
C1032 C1028 1.368 . S
C1032 C1031 1.523 . S
H1033 C1008 0.950 . S
H1034 C1010 0.950 . S
H1035 C1011 0.949 . S
H1036 C1013 0.950 . S
H1037 C1015 0.950 . S
C1038 C1039 1.349 . S
C1038 C1040 1.327 . S
C1038 H1063 0.950 . S
C1039 C1038 1.349 . S
C1039 C1055 1.349 . S
C1040 C1038 1.327 . S
C1040 C1059 1.429 . S
C1040 H1064 0.950 . S
C1041 C1058 1.574 . S
C1041 C1060 1.368 . S
C1041 H1065 0.949 . S
H1042 C1046 0.949 . S
C1043 C1044 1.349 . S
C1043 C1045 1.327 . S
C1043 H1066 0.950 . S
C1044 C1043 1.349 . S
C1044 C1056 1.349 . S
C1045 C1043 1.327 . S
C1045 C1061 1.429 . S
C1045 H1067 0.950 . S
C1046 H1042 0.949 . S
C1046 C1054 1.574 . S
C1046 C1062 1.368 . S
H1047 C1055 0.950 . S
H1048 C1053 0.950 . S
H1049 C1054 0.949 . S
H1050 C1056 0.950 . S
H1051 C1057 0.950 . S
H1052 C1058 0.949 . S
C1053 H1048 0.950 . S
C1053 C1055 1.327 . S
C1053 C1059 1.429 . S
C1054 C1046 1.574 . S
C1054 H1049 0.949 . S
C1054 C1060 1.368 . S
C1055 C1039 1.349 . S
C1055 H1047 0.950 . S
C1055 C1053 1.327 . S
C1056 C1044 1.349 . S
C1056 H1050 0.950 . S
C1056 C1057 1.327 . S
C1057 H1051 0.950 . S
C1057 C1056 1.327 . S
C1057 C1061 1.429 . S
C1058 C1041 1.574 . S
C1058 H1052 0.949 . S
C1058 C1062 1.368 . S
C1059 C1040 1.429 . S
C1059 C1053 1.429 . S
C1059 C1060 1.523 . S
C1060 C1041 1.368 . S
C1060 C1054 1.368 . S
C1060 C1059 1.523 . S
C1061 C1045 1.429 . S
C1061 C1057 1.429 . S
C1061 C1062 1.523 . S
C1062 C1046 1.368 . S
C1062 C1058 1.368 . S
C1062 C1061 1.523 . S
H1063 C1038 0.950 . S
H1064 C1040 0.950 . S
H1065 C1041 0.949 . S
H1066 C1043 0.950 . S
H1067 C1045 0.950 . S
C1068 C1069 1.349 . S
C1068 C1070 1.327 . S
C1068 H1093 0.950 . S
C1069 C1068 1.349 . S
C1069 C1085 1.349 . S
C1070 C1068 1.327 . S
C1070 C1089 1.429 . S
C1070 H1094 0.950 . S
C1071 C1088 1.574 . S
C1071 C1090 1.368 . S
C1071 H1095 0.949 . S
H1072 C1076 0.949 . S
C1073 C1074 1.349 . S
C1073 C1075 1.327 . S
C1073 H1096 0.950 . S
C1074 C1073 1.349 . S
C1074 C1086 1.349 . S
C1075 C1073 1.327 . S
C1075 C1091 1.429 . S
C1075 H1097 0.950 . S
C1076 H1072 0.949 . S
C1076 C1084 1.574 . S
C1076 C1092 1.368 . S
H1077 C1085 0.950 . S
H1078 C1083 0.950 . S
H1079 C1084 0.949 . S
H1080 C1086 0.950 . S
H1081 C1087 0.950 . S
H1082 C1088 0.949 . S
C1083 H1078 0.950 . S
C1083 C1085 1.327 . S
C1083 C1089 1.429 . S
C1084 C1076 1.574 . S
C1084 H1079 0.949 . S
C1084 C1090 1.368 . S
C1085 C1069 1.349 . S
C1085 H1077 0.950 . S
C1085 C1083 1.327 . S
C1086 C1074 1.349 . S
C1086 H1080 0.950 . S
C1086 C1087 1.327 . S
C1087 H1081 0.950 . S
C1087 C1086 1.327 . S
C1087 C1091 1.429 . S
C1088 C1071 1.574 . S
C1088 H1082 0.949 . S
C1088 C1092 1.368 . S
C1089 C1070 1.429 . S
C1089 C1083 1.429 . S
C1089 C1090 1.523 . S
C1090 C1071 1.368 . S
C1090 C1084 1.368 . S
C1090 C1089 1.523 . S
C1091 C1075 1.429 . S
C1091 C1087 1.429 . S
C1091 C1092 1.523 . S
C1092 C1076 1.368 . S
C1092 C1088 1.368 . S
C1092 C1091 1.523 . S
H1093 C1068 0.950 . S
H1094 C1070 0.950 . S
H1095 C1071 0.949 . S
H1096 C1073 0.950 . S
H1097 C1075 0.950 . S
C1098 C1099 1.349 . S
C1098 C1100 1.327 . S
C1098 H1123 0.950 . S
C1099 C1098 1.349 . S
C1099 C1115 1.349 . S
C1100 C1098 1.327 . S
C1100 C1119 1.429 . S
C1100 H1124 0.950 . S
C1101 C1118 1.574 . S
C1101 C1120 1.368 . S
C1101 H1125 0.949 . S
H1102 C1106 0.949 . S
C1103 C1104 1.349 . S
C1103 C1105 1.327 . S
C1103 H1126 0.950 . S
C1104 C1103 1.349 . S
C1104 C1116 1.349 . S
C1105 C1103 1.327 . S
C1105 C1121 1.429 . S
C1105 H1127 0.950 . S
C1106 H1102 0.949 . S
C1106 C1114 1.574 . S
C1106 C1122 1.368 . S
H1107 C1115 0.950 . S
H1108 C1113 0.950 . S
H1109 C1114 0.949 . S
H1110 C1116 0.950 . S
H1111 C1117 0.950 . S
H1112 C1118 0.949 . S
C1113 H1108 0.950 . S
C1113 C1115 1.327 . S
C1113 C1119 1.429 . S
C1114 C1106 1.574 . S
C1114 H1109 0.949 . S
C1114 C1120 1.368 . S
C1115 C1099 1.349 . S
C1115 H1107 0.950 . S
C1115 C1113 1.327 . S
C1116 C1104 1.349 . S
C1116 H1110 0.950 . S
C1116 C1117 1.327 . S
C1117 H1111 0.950 . S
C1117 C1116 1.327 . S
C1117 C1121 1.429 . S
C1118 C1101 1.574 . S
C1118 H1112 0.949 . S
C1118 C1122 1.368 . S
C1119 C1100 1.429 . S
C1119 C1113 1.429 . S
C1119 C1120 1.523 . S
C1120 C1101 1.368 . S
C1120 C1114 1.368 . S
C1120 C1119 1.523 . S
C1121 C1105 1.429 . S
C1121 C1117 1.429 . S
C1121 C1122 1.523 . S
C1122 C1106 1.368 . S
C1122 C1118 1.368 . S
C1122 C1121 1.523 . S
H1123 C1098 0.950 . S
H1124 C1100 0.950 . S
H1125 C1101 0.949 . S
H1126 C1103 0.950 . S
H1127 C1105 0.950 . S
C409 C15 1.526 . S
C414 C346 1.495 . S
C444 C324 1.549 . S
C439 C55 1.577 . S
C474 C350 1.499 . S
C469 C95 1.525 . S
C504 C328 1.549 . S
C499 C135 1.574 . S
C534 C390 1.499 . S
C529 C175 1.526 . S
C564 C368 1.549 . S
C559 C215 1.574 . S
C589 C255 1.521 . S
C594 C394 1.499 . S
C624 C372 1.549 . S
C619 C295 1.578 . S
C649 C2 1.535 . S
C654 C395 1.522 . S
C684 C373 1.602 . S
C679 C61 1.555 . S
C709 C82 1.495 . S
C714 C392 1.522 . S
C739 C141 1.601 . S
C744 C370 1.602 . S
C774 C351 1.522 . S
C769 C162 1.539 1_545 S
C799 C221 1.555 1_565 S
C804 C329 1.598 . S
C834 C348 1.522 . S
C829 C242 1.492 1_545 S
C864 C326 1.602 . S
C859 C301 1.604 1_565 S
C894 C369 1.521 . S
C889 C21 1.525 . S
C924 C391 1.518 . S
C919 C42 1.490 . S
C949 C101 1.474 . S
C954 C371 1.521 . S
C984 C393 1.518 . S
C979 C122 1.535 . S
C1014 C325 1.521 . S
C1009 C181 1.528 . S
C1039 C202 1.490 . S
C1044 C347 1.514 . S
C1069 C261 1.474 . S
C1074 C327 1.517 . S
C1099 C282 1.535 . S
C1104 C349 1.523 . S
