# Generated by pormake.
# Topology anh, (6,3)-cn, num edge types: 1
# Building blocks:
#     Node 0, Type 0, BuildingBlock: PAMTOO_clean_sbu_0, # of connection points: 6
#     Node 1, Type 0, BuildingBlock: PAMTOO_clean_sbu_0, # of connection points: 6
#     Node 2, Type 0, BuildingBlock: PAMTOO_clean_sbu_0, # of connection points: 6
#     Node 3, Type 1, BuildingBlock: OLANEW_clean_sbu_2, # of connection points: 3
#     Node 4, Type 1, BuildingBlock: OLANEW_clean_sbu_2, # of connection points: 3
#     Node 5, Type 1, BuildingBlock: OLANEW_clean_sbu_2, # of connection points: 3
#     Node 6, Type 1, BuildingBlock: OLANEW_clean_sbu_2, # of connection points: 3
#     Node 7, Type 1, BuildingBlock: OLANEW_clean_sbu_2, # of connection points: 3
#     Node 8, Type 1, BuildingBlock: OLANEW_clean_sbu_2, # of connection points: 3
#     Edge 9, Type (0, 1), BuildingBlock: ZUJKAS_clean_linker_0, # of connection points: 2
#     Edge 10, Type (0, 1), BuildingBlock: ZUJKAS_clean_linker_0, # of connection points: 2
#     Edge 11, Type (0, 1), BuildingBlock: ZUJKAS_clean_linker_0, # of connection points: 2
#     Edge 12, Type (0, 1), BuildingBlock: ZUJKAS_clean_linker_0, # of connection points: 2
#     Edge 13, Type (0, 1), BuildingBlock: ZUJKAS_clean_linker_0, # of connection points: 2
#     Edge 14, Type (0, 1), BuildingBlock: ZUJKAS_clean_linker_0, # of connection points: 2
#     Edge 15, Type (0, 1), BuildingBlock: ZUJKAS_clean_linker_0, # of connection points: 2
#     Edge 16, Type (0, 1), BuildingBlock: ZUJKAS_clean_linker_0, # of connection points: 2
#     Edge 17, Type (0, 1), BuildingBlock: ZUJKAS_clean_linker_0, # of connection points: 2
#     Edge 18, Type (0, 1), BuildingBlock: ZUJKAS_clean_linker_0, # of connection points: 2
#     Edge 19, Type (0, 1), BuildingBlock: ZUJKAS_clean_linker_0, # of connection points: 2
#     Edge 20, Type (0, 1), BuildingBlock: ZUJKAS_clean_linker_0, # of connection points: 2
#     Edge 21, Type (0, 1), BuildingBlock: ZUJKAS_clean_linker_0, # of connection points: 2
#     Edge 22, Type (0, 1), BuildingBlock: ZUJKAS_clean_linker_0, # of connection points: 2
#     Edge 23, Type (0, 1), BuildingBlock: ZUJKAS_clean_linker_0, # of connection points: 2
#     Edge 24, Type (0, 1), BuildingBlock: ZUJKAS_clean_linker_0, # of connection points: 2
#     Edge 25, Type (0, 1), BuildingBlock: ZUJKAS_clean_linker_0, # of connection points: 2
#     Edge 26, Type (0, 1), BuildingBlock: ZUJKAS_clean_linker_0, # of connection points: 2
# Relax obj value: 0.113
# Max RMSD: 0.138
# Mean RMSD: 0.110
data_MOF--net-anh--node1-PAMTOO_clean_sbu_0--node2-OLANEW_clean_sbu_2--edge1-ZUJKAS_clean_linker_0
_symmetry_space_group_name_H-M    P1
_symmetry_Int_Tables_number       1
_symmetry_cell_setting            triclinic
loop_
_symmetry_equiv_pos_as_xyz
'x, y, z'
_cell_length_a     45.848909
_cell_length_b     41.93433
_cell_length_c     65.503496
_cell_angle_alpha  90.061826
_cell_angle_beta   95.54195
_cell_angle_gamma 110.05092
loop_
_atom_site_label
_atom_site_type_symbol
_atom_site_fract_x
_atom_site_fract_y
_atom_site_fract_z
_atom_type_partial_charge
Dy0 Dy 0.03154 0.58302 0.14524 0.0
Dy1 Dy 1.00252 0.49924 0.1424 0.0
C2 C 0.00844 0.54268 0.10277 0.0
O3 O 0.98152 0.57072 0.15128 0.0
O4 O 0.96068 0.51548 0.13844 0.0
O5 O 0.05228 0.63026 0.1306 0.0
O6 O 0.04366 0.63064 0.16254 0.0
O7 O 1.00036 0.51667 0.17424 0.0
O8 O 0.0439 0.56389 0.1754 0.0
O9 O 0.05439 0.51145 0.14689 0.0
O10 O 0.07089 0.56691 0.13699 0.0
O11 O 0.9969 0.45096 0.1563 0.0
O12 O 0.97539 0.45263 0.12557 0.0
C13 C 0.95734 0.5435 0.14515 0.0
O14 O 0.00602 0.56714 0.11419 0.0
O15 O 0.01467 0.51705 0.11117 0.0
C16 C 0.08824 0.67339 0.15248 0.0
C17 C 0.1485 0.72226 0.16073 0.0
C18 C 0.14461 0.68906 0.15398 0.0
C19 C 0.11473 0.66479 0.14998 0.0
C20 C 0.092 0.7063 0.15943 0.0
C21 C 0.12187 0.73054 0.16358 0.0
C22 C 0.05666 0.64856 0.14747 0.0
C23 C 0.02356 0.54014 0.1848 0.0
C24 C 0.07635 0.53872 0.14135 0.0
C25 C 0.9476 0.4097 0.14651 0.0
C26 C 0.88965 0.36314 0.15555 0.0
C27 C 0.89405 0.39792 0.15387 0.0
C28 C 0.92279 0.42097 0.14949 0.0
C29 C 0.94358 0.37524 0.14842 0.0
C30 C 0.9149 0.35214 0.15295 0.0
C31 C 0.97741 0.43369 0.14105 0.0
H32 H 0.16467 0.68179 0.15192 0.0
H33 H 0.11231 0.63939 0.14478 0.0
H34 H 0.0718 0.71337 0.16144 0.0
H35 H 0.12411 0.75596 0.1686 0.0
H36 H 0.87512 0.40732 0.15549 0.0
H37 H 0.92554 0.44755 0.14817 0.0
H38 H 0.96258 0.36615 0.14629 0.0
H39 H 0.91257 0.3257 0.15449 0.0
Dy40 Dy 0.49618 0.01976 0.5048 0.0
Dy41 Dy 0.57209 0.05068 0.51909 0.0
C42 C 0.52213 0.0223 0.55149 0.0
O43 O 0.5074 0.07378 0.51545 0.0
O44 O 0.55875 0.09508 0.50923 0.0
O45 O 0.44892 0.01306 0.51063 0.0
O46 O 0.45791 0.99344 0.48218 0.0
O47 O 0.56676 0.04227 0.48503 0.0
O48 O 0.51843 0.04675 0.47801 0.0
O49 O 0.55808 0.99485 0.52323 0.0
O50 O 0.51416 0.97724 0.50016 0.0
O51 O 0.61918 0.05188 0.51689 0.0
O52 O 0.61019 0.08464 0.53919 0.0
C53 C 0.53267 0.09958 0.51264 0.0
O54 O 0.50205 0.00354 0.53683 0.0
O55 O 0.54754 0.04672 0.54735 0.0
C56 C 0.41104 0.96299 0.49575 0.0
C57 C 0.36117 0.90155 0.49868 0.0
C58 C 0.39113 0.90589 0.50838 0.0
C59 C 0.41589 0.9364 0.50692 0.0
C60 C 0.38131 0.95886 0.48612 0.0
C61 C 0.35659 0.92844 0.48755 0.0
C62 C 0.43676 0.99496 0.49373 0.0
C63 C 0.54494 0.04676 0.47204 0.0
C64 C 0.53674 0.97103 0.51151 0.0
C65 C 0.65772 0.10582 0.52482 0.0
C66 C 0.70753 0.16358 0.51531 0.0
C67 C 0.68162 0.14859 0.50074 0.0
C68 C 0.65686 0.12004 0.50549 0.0
C69 C 0.68351 0.12044 0.53931 0.0
C70 C 0.70819 0.14906 0.53463 0.0
C71 C 0.63135 0.07686 0.53048 0.0
H72 H 0.39539 0.88582 0.5172 0.0
H73 H 0.4388 0.93924 0.51445 0.0
H74 H 0.37726 0.97911 0.47735 0.0
H75 H 0.334 0.92577 0.47959 0.0
H76 H 0.68051 0.15882 0.48563 0.0
H77 H 0.63698 0.1092 0.49414 0.0
H78 H 0.68436 0.10997 0.55439 0.0
H79 H 0.72747 0.16022 0.54633 0.0
Dy80 Dy 0.54575 0.5154 0.86547 0.0
Dy81 Dy 0.47066 0.47627 0.85212 0.0
C82 C 0.51906 0.49729 0.81851 0.0
O83 O 0.52368 0.55466 0.86922 0.0
O84 O 0.47945 0.53113 0.84689 0.0
O85 O 0.58843 0.55815 0.86477 0.0
O86 O 0.58777 0.51518 0.88332 0.0
O87 O 0.47389 0.49707 0.88395 0.0
O88 O 0.5232 0.49756 0.8941 0.0
O89 O 0.49095 0.4371 0.86275 0.0
O90 O 0.54023 0.46339 0.85385 0.0
O91 O 0.42553 0.44237 0.85898 0.0
O92 O 0.43149 0.46338 0.82883 0.0
C93 C 0.49961 0.55724 0.85762 0.0
O94 O 0.5389 0.52016 0.83154 0.0
O95 O 0.49488 0.47325 0.82459 0.0
C96 C 0.63391 0.54388 0.86857 0.0
C97 C 0.69011 0.54461 0.85429 0.0
C98 C 0.66127 0.52692 0.84302 0.0
C99 C 0.63335 0.5265 0.85014 0.0
C100 C 0.6625 0.56146 0.87985 0.0
C101 C 0.69038 0.56185 0.87279 0.0
C102 C 0.60493 0.54382 0.87624 0.0
C103 C 0.49606 0.49824 0.89848 0.0
C104 C 0.51745 0.43569 0.85763 0.0
C105 C 0.3832 0.454 0.84124 0.0
C106 C 0.32883 0.47128 0.83928 0.0
C107 C 0.35547 0.48979 0.85244 0.0
C108 C 0.3825 0.48128 0.85336 0.0
C109 C 0.35674 0.43538 0.82822 0.0
C110 C 0.32979 0.44393 0.82722 0.0
C111 C 0.41178 0.44581 0.84115 0.0
H112 H 0.66029 0.51318 0.82881 0.0
H113 H 0.61135 0.51268 0.84129 0.0
H114 H 0.66327 0.57503 0.89409 0.0
H115 H 0.71219 0.57617 0.88165 0.0
H116 H 0.35542 0.51074 0.86209 0.0
H117 H 0.4029 0.49611 0.86338 0.0
H118 H 0.35709 0.41451 0.81859 0.0
H119 H 0.30992 0.42953 0.81666 0.0
O120 O 0.54199 0.0825 0.24511 0.0
Cd121 Cd 0.53336 0.0858 0.20793 0.0
O122 O 0.54069 0.02958 0.24418 0.0
Cd123 Cd 0.5176 0.01848 0.21295 0.0
O124 O 0.47292 0.98538 0.19757 0.0
C125 C 0.4505 0.97859 0.20874 0.0
O126 O 0.45594 0.99287 0.22725 0.0
C127 C 0.54564 0.05719 0.25425 0.0
C128 C 0.58817 0.13051 0.19449 0.0
O129 O 0.56726 0.14132 0.20037 0.0
O130 O 0.58283 0.09843 0.19449 0.0
O131 O 0.53914 0.50672 0.58995 0.0
Cd132 Cd 0.53676 0.50493 0.55251 0.0
O133 O 0.53915 0.55892 0.59416 0.0
Cd134 Cd 0.53717 0.57366 0.56221 0.0
O135 O 0.53539 0.6156 0.54284 0.0
C136 C 0.55749 0.64381 0.54665 0.0
O137 O 0.58054 0.64512 0.56058 0.0
C138 C 0.53972 0.53115 0.60168 0.0
C139 C 0.53453 0.44052 0.53947 0.0
O140 O 0.56063 0.46499 0.54305 0.0
O141 O 0.50947 0.44671 0.54161 0.0
O142 O 0.98196 0.5541 0.87194 0.0
Cd143 Cd 0.9895 0.55705 0.83554 0.0
O144 O 0.00599 0.60892 0.87838 0.0
Cd145 Cd 0.01431 0.61935 0.84637 0.0
O146 O 0.02234 0.62513 0.81388 0.0
C147 C 1.00013 0.61699 0.79949 0.0
O148 O 0.00664 0.61799 0.78036 0.0
C149 C 0.99195 0.5794 0.88463 0.0
C150 C 0.04499 0.54584 0.8308 0.0
O151 O 0.01888 0.52113 0.82932 0.0
O152 O 0.04471 0.57583 0.8341 0.0
O153 O 0.05207 0.53283 0.41601 0.0
Cd154 Cd 0.05466 0.53074 0.45342 0.0
O155 O 1.00503 0.53614 0.41225 0.0
Cd156 Cd 0.99512 0.52093 0.4434 0.0
O157 O 0.96498 0.48082 0.46091 0.0
C158 C 0.94534 0.45686 0.44963 0.0
O159 O 0.94534 0.45879 0.4296 0.0
C160 C 0.02963 0.53676 0.40456 0.0
C161 C 0.10302 0.58853 0.46983 0.0
O162 O 0.10803 0.56103 0.46585 0.0
O163 O 0.07496 0.5884 0.46656 0.0
O164 O 0.44195 0.93287 0.76579 0.0
Cd165 Cd 0.4302 0.92315 0.80129 0.0
O166 O 0.46984 0.9849 0.77602 0.0
Cd167 Cd 0.49608 0.03898 0.77391 0.0
O168 O 0.51001 0.09293 0.78207 0.0
C169 C 0.49366 0.10018 0.7947 0.0
O170 O 0.4706 0.07541 0.80141 0.0
C171 C 0.45936 0.96239 0.76157 0.0
C172 C 0.443 0.86664 0.81596 0.0
O173 O 0.41607 0.86381 0.807 0.0
O174 O 0.46388 0.89634 0.8181 0.0
O175 O 0.54493 0.53007 0.11851 0.0
Cd176 Cd 0.57919 0.53887 0.15113 0.0
O177 O 0.50221 0.53674 0.12787 0.0
Cd178 Cd 0.45349 0.53725 0.12456 0.0
O179 O 0.40675 0.54089 0.12773 0.0
C180 C 0.38176 0.52137 0.1177 0.0
O181 O 0.38359 0.49835 0.10475 0.0
C182 C 0.51737 0.53057 0.11392 0.0
C183 C 0.64075 0.54032 0.14765 0.0
O184 O 0.61829 0.51225 0.14912 0.0
O185 O 0.63418 0.56768 0.14742 0.0
H186 H 0.12789 0.5896 0.1302 0.0
H187 H 0.17984 0.58749 0.12692 0.0
H188 H 0.14951 0.48345 0.14522 0.0
H189 H 0.09748 0.4854 0.14881 0.0
H190 H 0.20797 0.5222 0.16454 0.0
H191 H 0.20349 0.5391 0.08045 0.0
H192 H 0.19612 0.57168 0.09467 0.0
H193 H 0.16924 0.52873 0.09409 0.0
C194 C 0.13214 0.5662 0.13354 0.0
C195 C 0.10824 0.53759 0.13966 0.0
C196 C 0.16192 0.565 0.13153 0.0
C197 C 0.16855 0.53514 0.13548 0.0
C198 C 0.14497 0.50675 0.14197 0.0
H199 H 0.32454 0.48387 0.09825 0.0
H200 H 0.27363 0.48755 0.10324 0.0
C201 C 0.11515 0.5079 0.14398 0.0
C202 C 0.20004 0.53351 0.13289 0.0
H203 H 0.2521 0.54101 0.09755 0.0
C204 C 0.21761 0.5263 0.14989 0.0
C205 C 0.21255 0.53845 0.11371 0.0
C206 C 0.19431 0.54461 0.09462 0.0
C207 C 0.24738 0.5243 0.14831 0.0
C208 C 0.26021 0.53009 0.12925 0.0
C209 C 0.24248 0.53691 0.11221 0.0
C210 C 0.29153 0.52811 0.12647 0.0
C211 C 0.26452 0.51524 0.16696 0.0
C212 C 0.3188 0.54994 0.13769 0.0
C213 C 0.34809 0.5479 0.13487 0.0
C214 C 0.3508 0.52405 0.12069 0.0
C215 C 0.32345 0.50249 0.10934 0.0
C216 C 0.29424 0.50458 0.11215 0.0
H217 H 0.24856 0.50333 0.1787 0.0
H218 H 0.27643 0.49753 0.16271 0.0
H219 H 0.28253 0.53868 0.17403 0.0
H220 H 0.31748 0.56879 0.14853 0.0
H221 H 0.36861 0.56503 0.14381 0.0
H222 H 0.7703 0.17868 0.52581 0.0
H223 H 0.81293 0.22987 0.51839 0.0
H224 H 0.74673 0.26871 0.48567 0.0
H225 H 0.70386 0.21842 0.49383 0.0
H226 H 0.83087 0.25333 0.48172 0.0
H227 H 0.79818 0.34941 0.52288 0.0
H228 H 0.78082 0.30444 0.52662 0.0
H229 H 0.767 0.3235 0.5049 0.0
C230 C 0.76473 0.19836 0.51734 0.0
C231 C 0.73358 0.19446 0.51051 0.0
C232 C 0.78916 0.22752 0.513 0.0
C233 C 0.78298 0.2534 0.5018 0.0
C234 C 0.752 0.24945 0.49476 0.0
H235 H 0.90104 0.40262 0.42904 0.0
H236 H 0.8637 0.35358 0.44334 0.0
C237 C 0.72754 0.22039 0.49917 0.0
C238 C 0.80903 0.28376 0.4966 0.0
H239 H 0.83571 0.37052 0.49863 0.0
C240 C 0.8321 0.27894 0.48561 0.0
C241 C 0.81095 0.31718 0.50198 0.0
C242 C 0.78809 0.32399 0.51494 0.0
C243 C 0.8563 0.30663 0.47914 0.0
C244 C 0.85709 0.34 0.48343 0.0
C245 C 0.83482 0.34489 0.49515 0.0
C246 C 0.87994 0.37002 0.47501 0.0
C247 C 0.88078 0.29987 0.46774 0.0
C248 C 0.90094 0.39607 0.48809 0.0
C249 C 0.92231 0.42441 0.47994 0.0
C250 C 0.92284 0.4272 0.45856 0.0
C251 C 0.90145 0.40121 0.44557 0.0
C252 C 0.88018 0.37301 0.45371 0.0
H253 H 0.8824 0.27454 0.47114 0.0
H254 H 0.8744 0.30025 0.45098 0.0
H255 H 0.90409 0.31957 0.47172 0.0
H256 H 0.90093 0.39433 0.50459 0.0
H257 H 0.9384 0.44405 0.49035 0.0
H258 H 0.44912 0.57055 0.83931 0.0
H259 H 0.44242 0.62567 0.83597 0.0
H260 H 0.53258 0.67428 0.86975 0.0
H261 H 0.53969 0.61917 0.87315 0.0
H262 H 0.44531 0.67482 0.86856 0.0
H263 H 0.53554 0.72433 0.81428 0.0
H264 H 0.5186 0.67961 0.81895 0.0
H265 H 0.54705 0.70745 0.83772 0.0
C266 C 0.46758 0.5929 0.84606 0.0
C267 C 0.49506 0.59047 0.85638 0.0
C268 C 0.46363 0.62435 0.84418 0.0
C269 C 0.48715 0.65396 0.85242 0.0
C270 C 0.51435 0.65168 0.86308 0.0
H271 H 0.49732 0.86439 0.83621 0.0
H272 H 0.5089 0.81394 0.84744 0.0
C273 C 0.51829 0.62016 0.86507 0.0
C274 C 0.48313 0.6872 0.84953 0.0
H275 H 0.50877 0.76023 0.82332 0.0
C276 C 0.45928 0.69364 0.85878 0.0
C277 C 0.50155 0.71165 0.83685 0.0
C278 C 0.52703 0.70554 0.82622 0.0
C279 C 0.45309 0.72385 0.8555 0.0
C280 C 0.47078 0.74781 0.84224 0.0
C281 C 0.49522 0.74177 0.83345 0.0
C282 C 0.4633 0.77844 0.8364 0.0
C283 C 0.42772 0.72986 0.86631 0.0
C284 C 0.43392 0.77513 0.82633 0.0
C285 C 0.42721 0.80383 0.81995 0.0
C286 C 0.44988 0.8364 0.82333 0.0
C287 C 0.47933 0.83966 0.83341 0.0
C288 C 0.48599 0.8109 0.83984 0.0
H289 H 0.42337 0.71494 0.88041 0.0
H290 H 0.43378 0.75717 0.87058 0.0
H291 H 0.40569 0.7217 0.85591 0.0
H292 H 0.41633 0.75026 0.82306 0.0
H293 H 0.40438 0.80042 0.81211 0.0
H294 H 0.90179 0.49079 0.13712 0.0
H295 H 0.84894 0.49183 0.13773 0.0
H296 H 0.88631 0.59854 0.15476 0.0
H297 H 0.93948 0.59781 0.15431 0.0
H298 H 0.82229 0.51249 0.17178 0.0
H299 H 0.82223 0.59122 0.10354 0.0
H300 H 0.84992 0.56951 0.10861 0.0
H301 H 0.85472 0.60782 0.12291 0.0
C302 C 0.89893 0.51456 0.14102 0.0
C303 C 0.9251 0.54425 0.14564 0.0
C304 C 0.86859 0.51507 0.14136 0.0
C305 C 0.86359 0.54531 0.14607 0.0
C306 C 0.88957 0.57499 0.1508 0.0
H307 H 0.6944 0.59607 0.14945 0.0
H308 H 0.74817 0.59721 0.14957 0.0
C309 C 0.92 0.57447 0.15062 0.0
C310 C 0.83117 0.54554 0.14628 0.0
H311 H 0.77777 0.57656 0.12177 0.0
C312 C 0.81252 0.52646 0.16084 0.0
C313 C 0.81849 0.5639 0.13207 0.0
C314 C 0.83719 0.58412 0.11577 0.0
C315 C 0.78169 0.52557 0.16175 0.0
C316 C 0.76873 0.54349 0.1473 0.0
C317 C 0.78754 0.56275 0.13282 0.0
C318 C 0.7358 0.54261 0.14696 0.0
C319 C 0.76365 0.50612 0.17856 0.0
C320 C 0.71068 0.5116 0.14505 0.0
C321 C 0.67989 0.51086 0.14514 0.0
C322 C 0.67339 0.54116 0.14682 0.0
C323 C 0.69849 0.57223 0.14817 0.0
C324 C 0.72931 0.57293 0.14823 0.0
H325 H 0.77949 0.50295 0.19173 0.0
H326 H 0.7484 0.51906 0.18426 0.0
H327 H 0.74874 0.48039 0.17246 0.0
H328 H 0.71485 0.48787 0.14343 0.0
H329 H 0.66116 0.48649 0.14389 0.0
H330 H 0.30021 0.89244 0.50359 0.0
H331 H 0.25623 0.8389 0.50249 0.0
H332 H 0.31835 0.78339 0.49497 0.0
H333 H 0.36245 0.83682 0.49576 0.0
H334 H 0.23731 0.79152 0.46911 0.0
H335 H 0.26649 0.73311 0.54069 0.0
H336 H 0.28399 0.77787 0.53625 0.0
H337 H 0.29748 0.74758 0.5244 0.0
C338 C 0.30456 0.86885 0.50174 0.0
C339 C 0.33486 0.86894 0.49968 0.0
C340 C 0.27943 0.83829 0.50125 0.0
C341 C 0.28409 0.80719 0.49889 0.0
C342 C 0.31435 0.80708 0.49725 0.0
H343 H 0.16539 0.59808 0.47512 0.0
H344 H 0.20865 0.65143 0.48347 0.0
C345 C 0.33953 0.83766 0.49769 0.0
C346 C 0.25697 0.77511 0.49655 0.0
H347 H 0.22514 0.69763 0.51725 0.0
C348 C 0.23447 0.77108 0.47973 0.0
C349 C 0.2535 0.74848 0.51037 0.0
C350 C 0.27648 0.75194 0.52906 0.0
C351 C 0.20892 0.74081 0.47604 0.0
C352 C 0.20542 0.71411 0.48984 0.0
C353 C 0.22784 0.71819 0.50675 0.0
C354 C 0.17908 0.68142 0.48653 0.0
C355 C 0.18645 0.73731 0.45705 0.0
C356 C 0.14811 0.68042 0.48608 0.0
C357 C 0.12333 0.65002 0.48121 0.0
C358 C 0.12909 0.61998 0.47688 0.0
C359 C 0.16015 0.62078 0.47828 0.0
C360 C 0.18491 0.65123 0.48308 0.0
H361 H 0.19662 0.75641 0.44559 0.0
H362 H 0.17951 0.71156 0.44969 0.0
H363 H 0.16509 0.74123 0.46138 0.0
H364 H 0.14312 0.70331 0.48913 0.0
H365 H 0.09969 0.65022 0.48044 0.0
H366 H 0.56374 0.4216 0.84003 0.0
H367 H 0.56402 0.36562 0.82957 0.0
H368 H 0.47758 0.31793 0.85596 0.0
H369 H 0.4768 0.37357 0.86622 0.0
H370 H 0.56143 0.30626 0.85154 0.0
H371 H 0.45728 0.28465 0.79542 0.0
H372 H 0.47953 0.32589 0.80716 0.0
H373 H 0.45152 0.29497 0.82098 0.0
C374 C 0.54497 0.39919 0.84383 0.0
C375 C 0.52003 0.40206 0.85374 0.0
C376 C 0.54518 0.36725 0.83782 0.0
C377 C 0.52047 0.33778 0.84161 0.0
C378 C 0.49649 0.34048 0.85249 0.0
H379 H 0.46021 0.12331 0.81945 0.0
H380 H 0.46959 0.18191 0.83047 0.0
C381 C 0.49618 0.37231 0.85843 0.0
C382 C 0.51894 0.30422 0.83354 0.0
H383 H 0.47291 0.23685 0.80248 0.0
C384 C 0.54228 0.29115 0.84067 0.0
C385 C 0.49406 0.28481 0.81919 0.0
C386 C 0.46932 0.29838 0.81007 0.0
C387 C 0.54062 0.25843 0.83446 0.0
C388 C 0.51513 0.23864 0.82069 0.0
C389 C 0.4923 0.2521 0.81315 0.0
C390 C 0.51079 0.20325 0.81457 0.0
C391 C 0.56545 0.24474 0.84316 0.0
C392 C 0.53085 0.19597 0.8019 0.0
C393 C 0.52549 0.16242 0.79546 0.0
C394 C 0.49996 0.13571 0.80163 0.0
C395 C 0.48009 0.14323 0.81444 0.0
C396 C 0.4854 0.17669 0.82076 0.0
H397 H 0.58089 0.26114 0.85603 0.0
H398 H 0.55462 0.21871 0.84869 0.0
H399 H 0.58008 0.24318 0.83092 0.0
H400 H 0.55033 0.21626 0.79674 0.0
H401 H 0.54119 0.15745 0.78559 0.0
H402 H 0.49427 0.91353 0.492 0.0
H403 H 0.49581 0.85575 0.49275 0.0
H404 H 0.5828 0.89148 0.53169 0.0
H405 H 0.58169 0.94928 0.53093 0.0
H406 H 0.58132 0.84661 0.49805 0.0
H407 H 0.47951 0.7952 0.54329 0.0
H408 H 0.47343 0.81656 0.52035 0.0
H409 H 0.49982 0.84021 0.54153 0.0
C410 C 0.51379 0.90916 0.50069 0.0
C411 C 0.53779 0.93608 0.5115 0.0
C412 C 0.51454 0.87608 0.50116 0.0
C413 C 0.53924 0.86932 0.51245 0.0
C414 C 0.56349 0.89618 0.52292 0.0
H415 H 0.60065 0.70762 0.55229 0.0
H416 H 0.59535 0.76074 0.54069 0.0
C417 C 0.56274 0.9292 0.52251 0.0
C418 C 0.53986 0.83427 0.51369 0.0
H419 H 0.50411 0.75736 0.53395 0.0
C420 C 0.56433 0.82698 0.50576 0.0
C421 C 0.51752 0.8087 0.52364 0.0
C422 C 0.49116 0.81542 0.53284 0.0
C423 C 0.56738 0.79491 0.50782 0.0
C424 C 0.54575 0.76974 0.51847 0.0
C425 C 0.52066 0.77668 0.52578 0.0
C426 C 0.55 0.73707 0.52367 0.0
C427 C 0.59378 0.78834 0.4986 0.0
C428 C 0.52616 0.70598 0.51811 0.0
C429 C 0.52903 0.67542 0.52486 0.0
C430 C 0.55569 0.67547 0.53747 0.0
C431 C 0.57984 0.7066 0.54255 0.0
C432 C 0.57696 0.73706 0.5358 0.0
H433 H 0.60148 0.8051 0.48558 0.0
H434 H 0.61403 0.79378 0.51045 0.0
H435 H 0.58694 0.76147 0.49308 0.0
H436 H 0.50507 0.70543 0.50887 0.0
H437 H 0.50996 0.6519 0.52071 0.0
H438 H 0.74162 0.53874 0.87641 0.0
H439 H 0.79245 0.54644 0.86449 0.0
H440 H 0.75679 0.56014 0.80302 0.0
H441 H 0.70607 0.55346 0.81492 0.0
H442 H 0.8108 0.51205 0.83319 0.0
H443 H 0.83215 0.64817 0.81754 0.0
H444 H 0.80153 0.62365 0.83243 0.0
H445 H 0.79663 0.61847 0.80495 0.0
C446 C 0.7446 0.54345 0.86035 0.0
C447 C 0.71995 0.54594 0.84666 0.0
C448 C 0.77355 0.54754 0.85355 0.0
C449 C 0.77843 0.55431 0.83296 0.0
C450 C 0.75355 0.55537 0.81904 0.0
H451 H 0.94989 0.56909 0.77864 0.0
H452 H 0.89517 0.55169 0.78593 0.0
C453 C 0.72454 0.55127 0.82583 0.0
C454 C 0.81004 0.562 0.82642 0.0
H455 H 0.87102 0.62628 0.81006 0.0
C456 C 0.82395 0.53692 0.82799 0.0
C457 C 0.82717 0.59463 0.8199 0.0
C458 C 0.81382 0.62294 0.81873 0.0
C459 C 0.8547 0.54371 0.82329 0.0
C460 C 0.87173 0.57631 0.81672 0.0
C461 C 0.85774 0.60126 0.815 0.0
C462 C 0.90469 0.58572 0.81253 0.0
C463 C 0.86912 0.51641 0.82598 0.0
C464 C 0.92793 0.61096 0.82486 0.0
C465 C 0.959 0.62098 0.82068 0.0
C466 C 0.96738 0.60588 0.80412 0.0
C467 C 0.94404 0.58088 0.79162 0.0
C468 C 0.91289 0.57078 0.79584 0.0
H469 H 0.85493 0.49488 0.8347 0.0
H470 H 0.87101 0.50639 0.81066 0.0
H471 H 0.89302 0.52697 0.83409 0.0
H472 H 0.92195 0.6231 0.83764 0.0
H473 H 0.97631 0.64122 0.83007 0.0
H474 H 0.1716 0.76799 0.19318 0.0
H475 H 0.22364 0.81138 0.19927 0.0
H476 H 0.24916 0.77848 0.1434 0.0
H477 H 0.19701 0.73529 0.13704 0.0
H478 H 0.28299 0.79952 0.20234 0.0
H479 H 0.27072 0.88346 0.13878 0.0
H480 H 0.23745 0.8525 0.14864 0.0
H481 H 0.26037 0.83904 0.13213 0.0
C482 C 0.18821 0.77019 0.1821 0.0
C483 C 0.18018 0.74829 0.1646 0.0
C484 C 0.21793 0.79486 0.18565 0.0
C485 C 0.24006 0.79834 0.17166 0.0
C486 C 0.23225 0.77645 0.15423 0.0
H487 H 0.43176 0.94042 0.1726 0.0
H488 H 0.38112 0.89591 0.16282 0.0
C489 C 0.20257 0.75161 0.15073 0.0
C490 C 0.27154 0.82442 0.17563 0.0
H491 H 0.31979 0.89889 0.15842 0.0
C492 C 0.29109 0.82124 0.19275 0.0
C493 C 0.28203 0.85253 0.16296 0.0
C494 C 0.26157 0.85742 0.14465 0.0
C495 C 0.32091 0.84552 0.19759 0.0
C496 C 0.33114 0.87412 0.18523 0.0
C497 C 0.31183 0.87697 0.16787 0.0
C498 C 0.36132 0.90192 0.19063 0.0
C499 C 0.34133 0.84019 0.2158 0.0
C500 C 0.3666 0.92058 0.20922 0.0
C501 C 0.39536 0.94591 0.21483 0.0
C502 C 0.41943 0.95328 0.2019 0.0
C503 C 0.41375 0.93529 0.18294 0.0
C504 C 0.38487 0.90986 0.17733 0.0
H505 H 0.33394 0.8131 0.21999 0.0
H506 H 0.36617 0.84861 0.21268 0.0
H507 H 0.33955 0.85533 0.22923 0.0
H508 H 0.34849 0.91536 0.21949 0.0
H509 H 0.3988 0.95942 0.22947 0.0
H510 H 0.58138 0.15948 0.51119 0.0
H511 H 0.58025 0.21716 0.51409 0.0
H512 H 0.48114 0.17683 0.51868 0.0
H513 H 0.48208 0.11904 0.51618 0.0
H514 H 0.54759 0.25042 0.48998 0.0
H515 H 0.51317 0.23993 0.56933 0.0
H516 H 0.52658 0.20914 0.55772 0.0
H517 H 0.48708 0.20779 0.55158 0.0
C518 C 0.55931 0.16282 0.51282 0.0
C519 C 0.53185 0.13458 0.51364 0.0
C520 C 0.55872 0.19584 0.51445 0.0
C521 C 0.53072 0.20129 0.51696 0.0
C522 C 0.50314 0.17321 0.51724 0.0
H523 H 0.4832 0.38261 0.5338 0.0
H524 H 0.48188 0.32478 0.52677 0.0
C525 C 0.50371 0.14017 0.5157 0.0
C526 C 0.53045 0.23638 0.51933 0.0
H527 H 0.51386 0.28977 0.55208 0.0
C528 C 0.5403 0.25908 0.50357 0.0
C529 C 0.52096 0.24762 0.5371 0.0
C530 C 0.51162 0.22499 0.55499 0.0
C531 C 0.54051 0.29259 0.50499 0.0
C532 C 0.53097 0.30375 0.52274 0.0
C533 C 0.52101 0.28105 0.53845 0.0
C534 C 0.5317 0.3391 0.52559 0.0
C535 C 0.5505 0.31565 0.48738 0.0
C536 C 0.56017 0.36632 0.52724 0.0
C537 C 0.56104 0.3994 0.53131 0.0
C538 C 0.53342 0.40585 0.53385 0.0
C539 C 0.50488 0.37856 0.53187 0.0
C540 C 0.50407 0.34548 0.52788 0.0
H541 H 0.54969 0.30109 0.47303 0.0
H542 H 0.53544 0.33136 0.48449 0.0
H543 H 0.57486 0.33305 0.4913 0.0
H544 H 0.58183 0.36186 0.52588 0.0
H545 H 0.58341 0.41981 0.53281 0.0
H546 H 0.26801 0.42854 0.83617 0.0
H547 H 0.22095 0.4438 0.8329 0.0
H548 H 0.2775 0.55004 0.8365 0.0
H549 H 0.32485 0.53508 0.83932 0.0
H550 H 0.2275 0.52968 0.86292 0.0
H551 H 0.18743 0.48491 0.78181 0.0
H552 H 0.1969 0.45471 0.79817 0.0
H553 H 0.2271 0.49347 0.79292 0.0
C554 C 0.2705 0.45516 0.83601 0.0
C555 C 0.30023 0.48058 0.83789 0.0
C556 C 0.24358 0.46381 0.83417 0.0
C557 C 0.24584 0.498 0.83417 0.0
C558 C 0.27537 0.52349 0.83638 0.0
H559 H 0.10369 0.59316 0.8331 0.0
H560 H 0.15312 0.58299 0.83313 0.0
C561 C 0.30235 0.51488 0.83813 0.0
C562 C 0.21727 0.50703 0.8324 0.0
H563 H 0.15159 0.49939 0.80055 0.0
C564 C 0.21099 0.52336 0.84925 0.0
C565 C 0.19588 0.49865 0.81452 0.0
C566 C 0.20218 0.48222 0.79572 0.0
C567 C 0.18328 0.53063 0.84894 0.0
C568 C 0.16168 0.5219 0.83113 0.0
C569 C 0.16821 0.50599 0.81417 0.0
C570 C 0.13179 0.52829 0.83002 0.0
C571 C 0.17688 0.54657 0.8679 0.0
C572 C 0.10343 0.50096 0.82753 0.0
C573 C 0.07512 0.50667 0.82735 0.0
C574 C 0.07474 0.53987 0.8296 0.0
C575 C 0.1032 0.56727 0.83148 0.0
C576 C 0.13147 0.56152 0.83162 0.0
H577 H 0.19203 0.54421 0.88169 0.0
H578 H 0.18154 0.57401 0.86556 0.0
H579 H 0.15211 0.5347 0.87091 0.0
H580 H 0.10322 0.47513 0.82615 0.0
H581 H 0.05361 0.48504 0.82582 0.0
H582 H 0.84838 0.37195 0.18088 0.0
H583 H 0.79676 0.33198 0.18641 0.0
H584 H 0.80934 0.25822 0.14556 0.0
H585 H 0.86052 0.29831 0.1393 0.0
H586 H 0.7449 0.29574 0.15063 0.0
H587 H 0.78532 0.21236 0.20388 0.0
H588 H 0.80847 0.25644 0.20116 0.0
H589 H 0.80507 0.2257 0.18122 0.0
C590 C 0.84013 0.34737 0.17289 0.0
C591 C 0.85871 0.33844 0.15961 0.0
C592 C 0.8107 0.32452 0.17618 0.0
C593 C 0.79944 0.29221 0.16646 0.0
C594 C 0.81785 0.283 0.15333 0.0
H595 H 0.63398 0.11539 0.1771 0.0
H596 H 0.68439 0.15491 0.16896 0.0
C597 C 0.84718 0.3059 0.14989 0.0
C598 C 0.76817 0.26826 0.16977 0.0
H599 H 0.73123 0.19634 0.19453 0.0
C600 C 0.74179 0.27399 0.16023 0.0
C601 C 0.76441 0.23988 0.18215 0.0
C602 C 0.79221 0.23306 0.19283 0.0
C603 C 0.71153 0.25176 0.16261 0.0
C604 C 0.70765 0.22361 0.17534 0.0
C605 C 0.73418 0.21789 0.18479 0.0
C606 C 0.67636 0.19996 0.1793 0.0
C607 C 0.68411 0.25826 0.15107 0.0
C608 C 0.65506 0.2121 0.18785 0.0
C609 C 0.6261 0.18961 0.1923 0.0
C610 C 0.61807 0.15445 0.18863 0.0
C611 C 0.63943 0.14233 0.18009 0.0
C612 C 0.66827 0.16488 0.17546 0.0
H613 H 0.6911 0.27376 0.13745 0.0
H614 H 0.66521 0.2341 0.14589 0.0
H615 H 0.67466 0.27256 0.16131 0.0
H616 H 0.66106 0.23893 0.19147 0.0
H617 H 0.61031 0.19974 0.19907 0.0
H618 H 1.00493 0.49389 0.07378 0.0
H619 H 0.9995 0.49809 0.03633 0.0
H620 H 0.99787 0.59965 0.04328 0.0
H621 H 1.00309 0.59579 0.08058 0.0
H622 H 0.94806 0.51996 0.01073 0.0
H623 H 0.07197 0.60147 0.00664 0.0
H624 H 0.05978 0.5734 0.02751 0.0
H625 H 0.05157 0.61223 0.02621 0.0
C626 C 1.00335 0.51709 0.06734 0.0
C627 C 1.00453 0.54454 0.08017 0.0
C628 C 1.00018 0.51938 0.04598 0.0
C629 C 0.99846 0.54922 0.03718 0.0
C630 C 0.99931 0.57648 0.04988 0.0
H631 H 1.00369 0.62784 0.9153 0.0
H632 H 1.0026 0.61929 0.95216 0.0
C633 C 1.00225 0.57417 0.07118 0.0
C634 C 0.99626 0.55233 0.01468 0.0
H635 H 0.03817 0.59191 0.97603 0.0
C636 C 0.96772 0.53551 0.00304 0.0
C637 C 0.02196 0.57284 0.00489 0.0
C638 C 0.05319 0.59095 0.01684 0.0
C639 C 0.964 0.53927 0.98174 0.0
C640 C 0.98979 0.55976 0.97187 0.0
C641 C 0.0184 0.57632 0.9836 0.0
C642 C 0.98786 0.56446 0.94939 0.0
C643 C 0.93229 0.52208 0.97015 0.0
C644 C 0.97972 0.53647 0.93556 0.0
C645 C 0.98001 0.54126 0.91446 0.0
C646 C 0.98895 0.5742 0.9068 0.0
C647 C 0.99672 0.60216 0.92068 0.0
C648 C 0.99615 0.59731 0.94176 0.0
H649 H 0.91343 0.51607 0.98049 0.0
H650 H 0.92735 0.5382 0.95781 0.0
H651 H 0.93163 0.49782 0.96299 0.0
H652 H 0.974 0.51095 0.9411 0.0
H653 H 0.97416 0.51919 0.90421 0.0
H654 H 0.50511 0.05687 0.44101 0.0
H655 H 0.5115 0.06028 0.40445 0.0
H656 H 0.60169 0.04941 0.41639 0.0
H657 H 0.59573 0.0463 0.45319 0.0
H658 H 0.59958 0.10023 0.38771 0.0
H659 H 0.50486 0.97673 0.3685 0.0
H660 H 0.49329 0.00594 0.383 0.0
H661 H 0.52241 0.98974 0.39441 0.0
C662 C 0.52641 0.05535 0.43595 0.0
C663 C 0.54979 0.05097 0.45004 0.0
C664 C 0.52994 0.05718 0.41501 0.0
C665 C 0.5568 0.05449 0.40772 0.0
C666 C 0.58069 0.05131 0.42175 0.0
H667 H 0.5588 0.00951 0.27823 0.0
H668 H 0.56643 0.00999 0.31568 0.0
C669 C 0.5772 0.04948 0.44275 0.0
C670 C 0.55944 0.05428 0.38539 0.0
H671 H 0.52332 0.01142 0.3405 0.0
C672 C 0.58311 0.0807 0.37736 0.0
C673 C 0.53824 0.02844 0.37201 0.0
C674 C 0.51344 -0.0016 0.37989 0.0
C675 C 0.58541 0.08261 0.35612 0.0
C676 C 0.56318 0.05769 0.34266 0.0
C677 C 0.54022 0.03066 0.35081 0.0
C678 C 0.56247 0.05945 0.32003 0.0
C679 C 0.61165 0.1112 0.34833 0.0
C680 C 0.55807 0.08729 0.31002 0.0
C681 C 0.55385 0.08718 0.2886 0.0
C682 C 0.55354 0.05901 0.27678 0.0
C683 C 0.55881 0.03157 0.28685 0.0
C684 C 0.5632 0.0318 0.30826 0.0
H685 H 0.63158 0.1215 0.36039 0.0
H686 H 0.62015 0.10271 0.33474 0.0
H687 H 0.60308 0.13216 0.34377 0.0
H688 H 0.5567 0.10855 0.31878 0.0
H689 H 0.54969 0.10864 0.28135 0.0
H690 H 0.56622 0.54299 0.79984 0.0
H691 H 0.57168 0.54749 0.76305 0.0
H692 H 0.48832 0.45967 0.75042 0.0
H693 H 0.48241 0.45507 0.78707 0.0
H694 H 0.57617 0.49947 0.73345 0.0
H695 H 0.47041 0.53484 0.71615 0.0
H696 H 0.48889 0.53614 0.7419 0.0
H697 H 0.46419 0.4963 0.72979 0.0
C698 C 0.54909 0.52453 0.78927 0.0
C699 C 0.5237 0.49886 0.79641 0.0
C700 C 0.55231 0.52712 0.76826 0.0
C701 C 0.53014 0.50422 0.75404 0.0
C702 C 0.50537 0.47793 0.76114 0.0
H703 H 0.5394 0.47514 0.62342 0.0
H704 H 0.53856 0.46854 0.66051 0.0
C705 C 0.50212 0.4753 0.78212 0.0
C706 C 0.53246 0.50832 0.73174 0.0
H707 H 0.49464 0.52472 0.68773 0.0
C708 C 0.5584 0.50502 0.72342 0.0
C709 C 0.5094 0.51597 0.7188 0.0
C710 C 0.48176 0.52135 0.72708 0.0
C711 C 0.56168 0.50872 0.70236 0.0
C712 C 0.5382 0.51554 0.68934 0.0
C713 C 0.51247 0.51923 0.69774 0.0
C714 C 0.54009 0.51973 0.667 0.0
C715 C 0.59046 0.50594 0.69427 0.0
C716 C 0.54078 0.55052 0.65833 0.0
C717 C 0.54107 0.55431 0.63717 0.0
C718 C 0.54049 0.52729 0.6242 0.0
C719 C 0.53998 0.49648 0.63295 0.0
C720 C 0.53969 0.49273 0.65417 0.0
H721 H 0.60946 0.5088 0.70678 0.0
H722 H 0.58452 0.48057 0.68662 0.0
H723 H 0.59926 0.52548 0.68279 0.0
H724 H 0.54097 0.57161 0.66797 0.0
H725 H 0.54146 0.5784 0.63099 0.0
H726 H 0.5587 0.05539 0.58589 0.0
H727 H 0.5485 0.04509 0.62166 0.0
H728 H 0.46148 0.9654 0.60206 0.0
H729 H 0.47158 0.97516 0.56622 0.0
H730 H 0.49795 0.04907 0.64094 0.0
H731 H 0.50435 0.91931 0.6442 0.0
H732 H 0.51869 0.94747 0.62376 0.0
H733 H 0.47758 0.92457 0.6237 0.0
C734 C 0.53743 0.03555 0.58915 0.0
C735 C 0.51602 0.01599 0.57317 0.0
C736 C 0.53165 0.02974 0.60961 0.0
C737 C 0.50447 0.00419 0.6145 0.0
C738 C 0.48291 0.9848 0.59862 0.0
H739 H 0.42365 0.93118 0.72679 0.0
H740 H 0.43485 0.94262 0.69123 0.0
C741 C 0.48866 0.99055 0.57813 0.0
C742 C 0.49835 -0.00159 0.63622 0.0
H743 H 0.48622 0.9387 0.67285 0.0
C744 C 0.49554 0.02502 0.64797 0.0
C745 C 0.49525 0.96699 0.64531 0.0
C746 C 0.49939 0.93802 0.63368 0.0
C747 C 0.48903 0.02081 0.6685 0.0
C748 C 0.48573 0.98933 0.67755 0.0
C749 C 0.48869 0.96278 0.66582 0.0
C750 C 0.47888 0.98321 0.69913 0.0
C751 C 0.48498 0.0498 0.68018 0.0
C752 C 0.50011 0.00201 0.71535 0.0
C753 C 0.49376 0.99553 0.7357 0.0
C754 C 0.46607 0.97014 0.74014 0.0
C755 C 0.44508 0.95108 0.72384 0.0
C756 C 0.45142 0.95757 0.70353 0.0
H757 H 0.48073 0.06896 0.66973 0.0
H758 H 0.46524 0.04039 0.68976 0.0
H759 H 0.50654 0.06266 0.69052 0.0
H760 H 0.52185 0.02125 0.71228 0.0
H761 H 0.51098 0.00967 0.74788 0.0
H762 H 0.53859 0.50755 0.93206 0.0
H763 H 0.53071 0.51301 0.968 0.0
H764 H 0.43435 0.50112 0.95064 0.0
H765 H 0.44195 0.49561 0.91438 0.0
H766 H 0.50667 0.56358 0.98564 0.0
H767 H 0.43512 0.42815 0.9956 0.0
H768 H 0.46018 0.44067 0.97522 0.0
H769 H 0.42465 0.44983 0.9739 0.0
C770 C 0.51564 0.50596 0.93579 0.0
C771 C 0.49087 0.50102 0.9203 0.0
C772 C 0.51123 0.5092 0.95636 0.0
C773 C 0.48195 0.50733 0.96194 0.0
C774 C 0.45707 0.50239 0.94661 0.0
H775 H 0.47702 0.55757 0.09264 0.0
H776 H 0.46083 0.55137 0.05555 0.0
C777 C 0.4615 0.49931 0.92592 0.0
C778 C 0.47804 0.51072 0.98391 0.0
H779 H 0.4515 0.46398 0.02521 0.0
C780 C 0.49408 0.54204 0.99429 0.0
C781 C 0.46168 0.48247 0.99504 0.0
C782 C 0.44444 0.44824 0.98451 0.0
C783 C 0.49541 0.5455 0.01571 0.0
C784 C 0.48013 0.51687 0.02697 0.0
C785 C 0.46293 0.48591 0.01648 0.0
C786 C 0.48575 0.51741 0.04964 0.0
C787 C 0.51475 0.57915 0.02628 0.0
C788 C 0.5042 0.49953 0.05861 0.0
C789 C 0.51333 0.50292 0.07965 0.0
C790 C 0.5039 0.52398 0.09224 0.0
C791 C 0.48417 0.54068 0.08341 0.0
C792 C 0.47518 0.53744 0.06221 0.0
H793 H 0.52794 0.59771 0.01546 0.0
H794 H 0.49922 0.59014 0.03348 0.0
H795 H 0.53157 0.57552 0.03863 0.0
H796 H 0.51265 0.484 0.04917 0.0
H797 H 0.52847 0.48966 0.08602 0.0
H798 H 0.98448 0.49635 0.20937 0.0
H799 H 0.98785 0.49817 0.24685 0.0
H800 H 0.07189 0.58602 0.24919 0.0
H801 H 0.06854 0.58476 0.21169 0.0
H802 H 0.03529 0.49398 0.27547 0.0
H803 H 0.01624 0.61697 0.28408 0.0
H804 H 0.00841 0.59362 0.25982 0.0
H805 H 0.04779 0.61852 0.26939 0.0
C806 C 1.0037 0.5161 0.21783 0.0
C807 C 0.02615 0.54053 0.20752 0.0
C808 C 1.00558 0.51707 0.23925 0.0
C809 C 0.02984 0.54253 0.25077 0.0
C810 C 0.05263 0.56658 0.24057 0.0
H811 H 0.07797 0.53773 0.38273 0.0
H812 H 0.07946 0.54046 0.34552 0.0
C813 C 0.05076 0.56567 0.21913 0.0
C814 C 0.03135 0.5436 0.27347 0.0
H815 H 0.02897 0.59232 0.31466 0.0
C816 C 0.03396 0.51548 0.28406 0.0
C817 C 0.02925 0.57155 0.28458 0.0
C818 C 0.02498 0.60178 0.27393 0.0
C819 C 0.03464 0.51459 0.30552 0.0
C820 C 0.03317 0.54282 0.31666 0.0
C821 C 0.03042 0.57088 0.30606 0.0
C822 C 0.03314 0.54307 0.33926 0.0
C823 C 0.03613 0.48309 0.31603 0.0
C824 C 0.00703 0.54479 0.3481 0.0
C825 C 0.00615 0.54344 0.36935 0.0
C826 C 0.03146 0.54047 0.38218 0.0
C827 C 0.058 0.53979 0.3733 0.0
C828 C 0.05884 0.54116 0.35203 0.0
H829 H 0.02983 0.46097 0.30505 0.0
H830 H 0.06026 0.4879 0.32318 0.0
H831 H 0.02022 0.47638 0.32832 0.0
H832 H 0.98702 0.54645 0.3385 0.0
H833 H 0.98539 0.54415 0.37566 0.0
loop_
_geom_bond_atom_site_label_1
_geom_bond_atom_site_label_2
_geom_bond_distance
_geom_bond_site_symmetry_2
_ccdc_geom_bond_type
Dy0 O3 2.307 1_455 S
Dy0 O5 2.395 . S
Dy0 O6 2.379 . S
Dy0 O8 2.339 . S
Dy0 O10 2.298 . S
Dy0 O14 2.275 . S
Dy0 C22 2.738 . S
Dy1 O4 2.298 . S
Dy1 O7 2.275 1_655 S
Dy1 O9 2.307 1_655 S
Dy1 O11 2.395 . S
Dy1 O12 2.379 . S
Dy1 O15 2.339 . S
Dy1 C31 2.738 . S
C2 O14 1.254 . S
C2 O15 1.257 1_455 S
O3 Dy0 2.307 1_655 S
O3 C13 1.266 . S
O4 Dy1 2.298 . S
O4 C13 1.236 . S
O5 Dy0 2.395 . S
O5 C22 1.255 . S
O6 Dy0 2.379 . S
O6 C22 1.249 . S
O7 Dy1 2.275 1_455 S
O7 C23 1.254 . S
O8 Dy0 2.339 . S
O8 C23 1.257 . S
O9 Dy1 2.307 1_455 S
O9 C24 1.266 . S
O10 Dy0 2.298 . S
O10 C24 1.236 . S
O11 Dy1 2.395 . S
O11 C31 1.255 . S
O12 Dy1 2.379 . S
O12 C31 1.249 . S
C13 O3 1.266 . S
C13 O4 1.236 . S
O14 Dy0 2.275 . S
O14 C2 1.254 . S
O15 Dy1 2.339 . S
O15 C2 1.257 1_655 S
C16 C19 1.344 . S
C16 C20 1.328 . S
C16 C22 1.516 . S
C17 C18 1.304 . S
C17 C21 1.323 . S
C18 C17 1.304 . S
C18 C19 1.371 . S
C18 H32 0.930 . S
C19 C16 1.344 . S
C19 C18 1.371 . S
C19 H33 0.931 . S
C20 C16 1.328 . S
C20 C21 1.433 . S
C20 H34 0.931 . S
C21 C17 1.323 . S
C21 C20 1.433 . S
C21 H35 0.933 . S
C22 Dy0 2.738 . S
C22 O5 1.255 . S
C22 O6 1.249 . S
C22 C16 1.516 . S
C23 O7 1.254 . S
C23 O8 1.257 . S
C24 O9 1.266 . S
C24 O10 1.236 . S
C25 C28 1.344 . S
C25 C29 1.328 . S
C25 C31 1.516 . S
C26 C27 1.304 . S
C26 C30 1.323 . S
C27 C26 1.304 . S
C27 C28 1.371 . S
C27 H36 0.930 . S
C28 C25 1.344 . S
C28 C27 1.371 . S
C28 H37 0.931 . S
C29 C25 1.328 . S
C29 C30 1.433 . S
C29 H38 0.931 . S
C30 C26 1.323 . S
C30 C29 1.433 . S
C30 H39 0.933 . S
C31 Dy1 2.738 . S
C31 O11 1.255 . S
C31 O12 1.249 . S
C31 C25 1.516 . S
H32 C18 0.930 . S
H33 C19 0.931 . S
H34 C20 0.931 . S
H35 C21 0.933 . S
H36 C27 0.930 . S
H37 C28 0.931 . S
H38 C29 0.931 . S
H39 C30 0.933 . S
Dy40 O43 2.307 . S
Dy40 O45 2.395 1_545 S
Dy40 O46 2.379 1_545 S
Dy40 O48 2.339 . S
Dy40 O50 2.298 1_545 S
Dy40 O54 2.275 . S
Dy40 C62 2.738 1_545 S
Dy41 O44 2.298 . S
Dy41 O47 2.275 . S
Dy41 O49 2.307 1_545 S
Dy41 O51 2.395 . S
Dy41 O52 2.379 . S
Dy41 O55 2.339 . S
Dy41 C71 2.738 . S
C42 O54 1.254 . S
C42 O55 1.257 . S
O43 Dy40 2.307 . S
O43 C53 1.266 . S
O44 Dy41 2.298 . S
O44 C53 1.236 . S
O45 Dy40 2.395 1_565 S
O45 C62 1.255 . S
O46 Dy40 2.379 1_565 S
O46 C62 1.249 . S
O47 Dy41 2.275 . S
O47 C63 1.254 . S
O48 Dy40 2.339 . S
O48 C63 1.257 . S
O49 Dy41 2.307 1_565 S
O49 C64 1.266 . S
O50 Dy40 2.298 1_565 S
O50 C64 1.236 . S
O51 Dy41 2.395 . S
O51 C71 1.255 . S
O52 Dy41 2.379 . S
O52 C71 1.249 . S
C53 O43 1.266 . S
C53 O44 1.236 . S
O54 Dy40 2.275 . S
O54 C42 1.254 . S
O55 Dy41 2.339 . S
O55 C42 1.257 . S
C56 C59 1.344 . S
C56 C60 1.328 . S
C56 C62 1.516 . S
C57 C58 1.304 . S
C57 C61 1.323 . S
C58 C57 1.304 . S
C58 C59 1.371 . S
C58 H72 0.930 . S
C59 C56 1.344 . S
C59 C58 1.371 . S
C59 H73 0.931 . S
C60 C56 1.328 . S
C60 C61 1.433 . S
C60 H74 0.931 . S
C61 C57 1.323 . S
C61 C60 1.433 . S
C61 H75 0.933 . S
C62 Dy40 2.738 1_565 S
C62 O45 1.255 . S
C62 O46 1.249 . S
C62 C56 1.516 . S
C63 O47 1.254 . S
C63 O48 1.257 . S
C64 O49 1.266 . S
C64 O50 1.236 . S
C65 C68 1.344 . S
C65 C69 1.328 . S
C65 C71 1.516 . S
C66 C67 1.304 . S
C66 C70 1.323 . S
C67 C66 1.304 . S
C67 C68 1.371 . S
C67 H76 0.930 . S
C68 C65 1.344 . S
C68 C67 1.371 . S
C68 H77 0.931 . S
C69 C65 1.328 . S
C69 C70 1.433 . S
C69 H78 0.931 . S
C70 C66 1.323 . S
C70 C69 1.433 . S
C70 H79 0.933 . S
C71 Dy41 2.738 . S
C71 O51 1.255 . S
C71 O52 1.249 . S
C71 C65 1.516 . S
H72 C58 0.930 . S
H73 C59 0.931 . S
H74 C60 0.931 . S
H75 C61 0.933 . S
H76 C67 0.930 . S
H77 C68 0.931 . S
H78 C69 0.931 . S
H79 C70 0.933 . S
Dy80 O83 2.307 . S
Dy80 O85 2.395 . S
Dy80 O86 2.379 . S
Dy80 O88 2.339 . S
Dy80 O90 2.298 . S
Dy80 O94 2.275 . S
Dy80 C102 2.738 . S
Dy81 O84 2.298 . S
Dy81 O87 2.275 . S
Dy81 O89 2.307 . S
Dy81 O91 2.395 . S
Dy81 O92 2.379 . S
Dy81 O95 2.339 . S
Dy81 C111 2.738 . S
C82 O94 1.254 . S
C82 O95 1.257 . S
O83 Dy80 2.307 . S
O83 C93 1.266 . S
O84 Dy81 2.298 . S
O84 C93 1.236 . S
O85 Dy80 2.395 . S
O85 C102 1.255 . S
O86 Dy80 2.379 . S
O86 C102 1.249 . S
O87 Dy81 2.275 . S
O87 C103 1.254 . S
O88 Dy80 2.339 . S
O88 C103 1.257 . S
O89 Dy81 2.307 . S
O89 C104 1.266 . S
O90 Dy80 2.298 . S
O90 C104 1.236 . S
O91 Dy81 2.395 . S
O91 C111 1.255 . S
O92 Dy81 2.379 . S
O92 C111 1.249 . S
C93 O83 1.266 . S
C93 O84 1.236 . S
O94 Dy80 2.275 . S
O94 C82 1.254 . S
O95 Dy81 2.339 . S
O95 C82 1.257 . S
C96 C99 1.344 . S
C96 C100 1.328 . S
C96 C102 1.516 . S
C97 C98 1.304 . S
C97 C101 1.323 . S
C98 C97 1.304 . S
C98 C99 1.371 . S
C98 H112 0.930 . S
C99 C96 1.344 . S
C99 C98 1.371 . S
C99 H113 0.931 . S
C100 C96 1.328 . S
C100 C101 1.433 . S
C100 H114 0.931 . S
C101 C97 1.323 . S
C101 C100 1.433 . S
C101 H115 0.933 . S
C102 Dy80 2.738 . S
C102 O85 1.255 . S
C102 O86 1.249 . S
C102 C96 1.516 . S
C103 O87 1.254 . S
C103 O88 1.257 . S
C104 O89 1.266 . S
C104 O90 1.236 . S
C105 C108 1.344 . S
C105 C109 1.328 . S
C105 C111 1.516 . S
C106 C107 1.304 . S
C106 C110 1.323 . S
C107 C106 1.304 . S
C107 C108 1.371 . S
C107 H116 0.930 . S
C108 C105 1.344 . S
C108 C107 1.371 . S
C108 H117 0.931 . S
C109 C105 1.328 . S
C109 C110 1.433 . S
C109 H118 0.931 . S
C110 C106 1.323 . S
C110 C109 1.433 . S
C110 H119 0.933 . S
C111 Dy81 2.738 . S
C111 O91 1.255 . S
C111 O92 1.249 . S
C111 C105 1.516 . S
H112 C98 0.930 . S
H113 C99 0.931 . S
H114 C100 0.931 . S
H115 C101 0.933 . S
H116 C107 0.930 . S
H117 C108 0.931 . S
H118 C109 0.931 . S
H119 C110 0.933 . S
O120 Cd121 2.300 . S
O120 C127 1.275 . S
Cd121 O120 2.300 . S
Cd121 O129 2.381 . S
Cd121 O130 2.378 . S
O122 Cd123 2.385 1_545 S
O122 C127 1.255 . S
Cd123 O122 2.385 1_565 S
Cd123 O124 2.317 . S
O124 Cd123 2.317 . S
O124 C125 1.232 . S
C125 O124 1.232 . S
C125 O126 1.218 . S
O126 C125 1.218 . S
C127 O120 1.275 . S
C127 O122 1.255 . S
C128 O129 1.258 . S
C128 O130 1.256 . S
O129 Cd121 2.381 . S
O129 C128 1.258 . S
O130 Cd121 2.378 . S
O130 C128 1.256 . S
O131 Cd132 2.300 . S
O131 C138 1.275 . S
Cd132 O131 2.300 . S
Cd132 O140 2.381 . S
Cd132 O141 2.378 . S
O133 Cd134 2.385 . S
O133 C138 1.255 . S
Cd134 O133 2.385 . S
Cd134 O135 2.317 . S
O135 Cd134 2.317 . S
O135 C136 1.232 . S
C136 O135 1.232 . S
C136 O137 1.218 . S
O137 C136 1.218 . S
C138 O131 1.275 . S
C138 O133 1.255 . S
C139 O140 1.258 . S
C139 O141 1.256 . S
O140 Cd132 2.381 . S
O140 C139 1.258 . S
O141 Cd132 2.378 . S
O141 C139 1.256 . S
O142 Cd143 2.300 . S
O142 C149 1.275 . S
Cd143 O142 2.300 . S
Cd143 O151 2.381 . S
Cd143 O152 2.378 . S
O144 Cd145 2.385 1_455 S
O144 C149 1.255 . S
Cd145 O144 2.385 1_655 S
Cd145 O146 2.317 . S
O146 Cd145 2.317 . S
O146 C147 1.232 . S
C147 O146 1.232 . S
C147 O148 1.218 . S
O148 C147 1.218 . S
C149 O142 1.275 . S
C149 O144 1.255 . S
C150 O151 1.258 . S
C150 O152 1.256 . S
O151 Cd143 2.381 . S
O151 C150 1.258 . S
O152 Cd143 2.378 . S
O152 C150 1.256 . S
O153 Cd154 2.300 . S
O153 C160 1.275 . S
Cd154 O153 2.300 . S
Cd154 O162 2.381 . S
Cd154 O163 2.378 . S
O155 Cd156 2.385 . S
O155 C160 1.255 1_655 S
Cd156 O155 2.385 . S
Cd156 O157 2.317 . S
O157 Cd156 2.317 . S
O157 C158 1.232 . S
C158 O157 1.232 . S
C158 O159 1.218 . S
O159 C158 1.218 . S
C160 O153 1.275 . S
C160 O155 1.255 1_455 S
C161 O162 1.258 . S
C161 O163 1.256 . S
O162 Cd154 2.381 . S
O162 C161 1.258 . S
O163 Cd154 2.378 . S
O163 C161 1.256 . S
O164 Cd165 2.300 . S
O164 C171 1.275 1_565 S
Cd165 O164 2.300 . S
Cd165 O173 2.381 . S
Cd165 O174 2.378 . S
O166 Cd167 2.385 . S
O166 C171 1.255 . S
Cd167 O166 2.385 . S
Cd167 O168 2.317 . S
O168 Cd167 2.317 . S
O168 C169 1.232 . S
C169 O168 1.232 . S
C169 O170 1.218 . S
O170 C169 1.218 . S
C171 O164 1.275 1_545 S
C171 O166 1.255 . S
C172 O173 1.258 . S
C172 O174 1.256 . S
O173 Cd165 2.381 . S
O173 C172 1.258 . S
O174 Cd165 2.378 . S
O174 C172 1.256 . S
O175 Cd176 2.300 . S
O175 C182 1.275 . S
Cd176 O175 2.300 . S
Cd176 O184 2.381 . S
Cd176 O185 2.378 . S
O177 Cd178 2.385 . S
O177 C182 1.255 . S
Cd178 O177 2.385 . S
Cd178 O179 2.317 . S
O179 Cd178 2.317 . S
O179 C180 1.232 . S
C180 O179 1.232 . S
C180 O181 1.218 . S
O181 C180 1.218 . S
C182 O175 1.275 . S
C182 O177 1.255 . S
C183 O184 1.258 . S
C183 O185 1.256 . S
O184 Cd176 2.381 . S
O184 C183 1.258 . S
O185 Cd176 2.378 . S
O185 C183 1.256 . S
H186 C194 0.929 . S
H187 C196 0.930 . S
H188 C198 0.930 . S
H189 C201 0.929 . S
H190 C204 0.930 . S
H191 C206 0.960 . S
H192 C206 0.960 . S
H193 C206 0.960 . S
C194 H186 0.929 . S
C194 C195 1.377 . S
C194 C196 1.384 . S
C195 C194 1.377 . S
C195 C201 1.390 . S
C196 H187 0.930 . S
C196 C194 1.384 . S
C196 C197 1.372 . S
C197 C196 1.372 . S
C197 C198 1.400 . S
C197 C202 1.490 . S
C198 H188 0.930 . S
C198 C197 1.400 . S
C198 C201 1.386 . S
H199 C215 0.930 . S
H200 C216 0.931 . S
C201 H189 0.929 . S
C201 C195 1.390 . S
C201 C198 1.386 . S
C202 C197 1.490 . S
C202 C204 1.395 . S
C202 C205 1.403 . S
H203 C209 0.930 . S
C204 H190 0.930 . S
C204 C202 1.395 . S
C204 C207 1.403 . S
C205 C202 1.403 . S
C205 C206 1.524 . S
C205 C209 1.400 . S
C206 H191 0.960 . S
C206 H192 0.960 . S
C206 H193 0.960 . S
C206 C205 1.524 . S
C207 C204 1.403 . S
C207 C208 1.392 . S
C207 C211 1.495 . S
C208 C207 1.392 . S
C208 C209 1.385 . S
C208 C210 1.478 . S
C209 H203 0.930 . S
C209 C205 1.400 . S
C209 C208 1.385 . S
C210 C208 1.478 . S
C210 C212 1.381 . S
C210 C216 1.383 . S
C211 C207 1.495 . S
C211 H217 0.959 . S
C211 H218 0.961 . S
C211 H219 0.960 . S
C212 C210 1.381 . S
C212 C213 1.394 . S
C212 H220 0.930 . S
C213 C212 1.394 . S
C213 C214 1.383 . S
C213 H221 0.929 . S
C214 C213 1.383 . S
C214 C215 1.377 . S
C215 H199 0.930 . S
C215 C214 1.377 . S
C215 C216 1.379 . S
C216 H200 0.931 . S
C216 C210 1.383 . S
C216 C215 1.379 . S
H217 C211 0.959 . S
H218 C211 0.961 . S
H219 C211 0.960 . S
H220 C212 0.930 . S
H221 C213 0.929 . S
H222 C230 0.929 . S
H223 C232 0.930 . S
H224 C234 0.930 . S
H225 C237 0.929 . S
H226 C240 0.930 . S
H227 C242 0.960 . S
H228 C242 0.960 . S
H229 C242 0.960 . S
C230 H222 0.929 . S
C230 C231 1.377 . S
C230 C232 1.384 . S
C231 C230 1.377 . S
C231 C237 1.390 . S
C232 H223 0.930 . S
C232 C230 1.384 . S
C232 C233 1.372 . S
C233 C232 1.372 . S
C233 C234 1.400 . S
C233 C238 1.490 . S
C234 H224 0.930 . S
C234 C233 1.400 . S
C234 C237 1.386 . S
H235 C251 0.930 . S
H236 C252 0.931 . S
C237 H225 0.929 . S
C237 C231 1.390 . S
C237 C234 1.386 . S
C238 C233 1.490 . S
C238 C240 1.395 . S
C238 C241 1.403 . S
H239 C245 0.930 . S
C240 H226 0.930 . S
C240 C238 1.395 . S
C240 C243 1.403 . S
C241 C238 1.403 . S
C241 C242 1.524 . S
C241 C245 1.400 . S
C242 H227 0.960 . S
C242 H228 0.960 . S
C242 H229 0.960 . S
C242 C241 1.524 . S
C243 C240 1.403 . S
C243 C244 1.392 . S
C243 C247 1.495 . S
C244 C243 1.392 . S
C244 C245 1.385 . S
C244 C246 1.478 . S
C245 H239 0.930 . S
C245 C241 1.400 . S
C245 C244 1.385 . S
C246 C244 1.478 . S
C246 C248 1.381 . S
C246 C252 1.383 . S
C247 C243 1.495 . S
C247 H253 0.959 . S
C247 H254 0.961 . S
C247 H255 0.960 . S
C248 C246 1.381 . S
C248 C249 1.394 . S
C248 H256 0.930 . S
C249 C248 1.394 . S
C249 C250 1.383 . S
C249 H257 0.929 . S
C250 C249 1.383 . S
C250 C251 1.377 . S
C251 H235 0.930 . S
C251 C250 1.377 . S
C251 C252 1.379 . S
C252 H236 0.931 . S
C252 C246 1.383 . S
C252 C251 1.379 . S
H253 C247 0.959 . S
H254 C247 0.961 . S
H255 C247 0.960 . S
H256 C248 0.930 . S
H257 C249 0.929 . S
H258 C266 0.929 . S
H259 C268 0.930 . S
H260 C270 0.930 . S
H261 C273 0.929 . S
H262 C276 0.930 . S
H263 C278 0.960 . S
H264 C278 0.960 . S
H265 C278 0.960 . S
C266 H258 0.929 . S
C266 C267 1.377 . S
C266 C268 1.384 . S
C267 C266 1.377 . S
C267 C273 1.390 . S
C268 H259 0.930 . S
C268 C266 1.384 . S
C268 C269 1.372 . S
C269 C268 1.372 . S
C269 C270 1.400 . S
C269 C274 1.490 . S
C270 H260 0.930 . S
C270 C269 1.400 . S
C270 C273 1.386 . S
H271 C287 0.930 . S
H272 C288 0.931 . S
C273 H261 0.929 . S
C273 C267 1.390 . S
C273 C270 1.386 . S
C274 C269 1.490 . S
C274 C276 1.395 . S
C274 C277 1.403 . S
H275 C281 0.930 . S
C276 H262 0.930 . S
C276 C274 1.395 . S
C276 C279 1.403 . S
C277 C274 1.403 . S
C277 C278 1.524 . S
C277 C281 1.400 . S
C278 H263 0.960 . S
C278 H264 0.960 . S
C278 H265 0.960 . S
C278 C277 1.524 . S
C279 C276 1.403 . S
C279 C280 1.392 . S
C279 C283 1.495 . S
C280 C279 1.392 . S
C280 C281 1.385 . S
C280 C282 1.478 . S
C281 H275 0.930 . S
C281 C277 1.400 . S
C281 C280 1.385 . S
C282 C280 1.478 . S
C282 C284 1.381 . S
C282 C288 1.383 . S
C283 C279 1.495 . S
C283 H289 0.959 . S
C283 H290 0.961 . S
C283 H291 0.960 . S
C284 C282 1.381 . S
C284 C285 1.394 . S
C284 H292 0.930 . S
C285 C284 1.394 . S
C285 C286 1.383 . S
C285 H293 0.929 . S
C286 C285 1.383 . S
C286 C287 1.377 . S
C287 H271 0.930 . S
C287 C286 1.377 . S
C287 C288 1.379 . S
C288 H272 0.931 . S
C288 C282 1.383 . S
C288 C287 1.379 . S
H289 C283 0.959 . S
H290 C283 0.961 . S
H291 C283 0.960 . S
H292 C284 0.930 . S
H293 C285 0.929 . S
H294 C302 0.929 . S
H295 C304 0.930 . S
H296 C306 0.930 . S
H297 C309 0.929 . S
H298 C312 0.930 . S
H299 C314 0.960 . S
H300 C314 0.960 . S
H301 C314 0.960 . S
C302 H294 0.929 . S
C302 C303 1.377 . S
C302 C304 1.384 . S
C303 C302 1.377 . S
C303 C309 1.390 . S
C304 H295 0.930 . S
C304 C302 1.384 . S
C304 C305 1.372 . S
C305 C304 1.372 . S
C305 C306 1.400 . S
C305 C310 1.490 . S
C306 H296 0.930 . S
C306 C305 1.400 . S
C306 C309 1.386 . S
H307 C323 0.930 . S
H308 C324 0.931 . S
C309 H297 0.929 . S
C309 C303 1.390 . S
C309 C306 1.386 . S
C310 C305 1.490 . S
C310 C312 1.395 . S
C310 C313 1.403 . S
H311 C317 0.930 . S
C312 H298 0.930 . S
C312 C310 1.395 . S
C312 C315 1.403 . S
C313 C310 1.403 . S
C313 C314 1.524 . S
C313 C317 1.400 . S
C314 H299 0.960 . S
C314 H300 0.960 . S
C314 H301 0.960 . S
C314 C313 1.524 . S
C315 C312 1.403 . S
C315 C316 1.392 . S
C315 C319 1.495 . S
C316 C315 1.392 . S
C316 C317 1.385 . S
C316 C318 1.478 . S
C317 H311 0.930 . S
C317 C313 1.400 . S
C317 C316 1.385 . S
C318 C316 1.478 . S
C318 C320 1.381 . S
C318 C324 1.383 . S
C319 C315 1.495 . S
C319 H325 0.959 . S
C319 H326 0.961 . S
C319 H327 0.960 . S
C320 C318 1.381 . S
C320 C321 1.394 . S
C320 H328 0.930 . S
C321 C320 1.394 . S
C321 C322 1.383 . S
C321 H329 0.929 . S
C322 C321 1.383 . S
C322 C323 1.377 . S
C323 H307 0.930 . S
C323 C322 1.377 . S
C323 C324 1.379 . S
C324 H308 0.931 . S
C324 C318 1.383 . S
C324 C323 1.379 . S
H325 C319 0.959 . S
H326 C319 0.961 . S
H327 C319 0.960 . S
H328 C320 0.930 . S
H329 C321 0.929 . S
H330 C338 0.929 . S
H331 C340 0.930 . S
H332 C342 0.930 . S
H333 C345 0.929 . S
H334 C348 0.930 . S
H335 C350 0.960 . S
H336 C350 0.960 . S
H337 C350 0.960 . S
C338 H330 0.929 . S
C338 C339 1.377 . S
C338 C340 1.384 . S
C339 C338 1.377 . S
C339 C345 1.390 . S
C340 H331 0.930 . S
C340 C338 1.384 . S
C340 C341 1.372 . S
C341 C340 1.372 . S
C341 C342 1.400 . S
C341 C346 1.490 . S
C342 H332 0.930 . S
C342 C341 1.400 . S
C342 C345 1.386 . S
H343 C359 0.930 . S
H344 C360 0.931 . S
C345 H333 0.929 . S
C345 C339 1.390 . S
C345 C342 1.386 . S
C346 C341 1.490 . S
C346 C348 1.395 . S
C346 C349 1.403 . S
H347 C353 0.930 . S
C348 H334 0.930 . S
C348 C346 1.395 . S
C348 C351 1.403 . S
C349 C346 1.403 . S
C349 C350 1.524 . S
C349 C353 1.400 . S
C350 H335 0.960 . S
C350 H336 0.960 . S
C350 H337 0.960 . S
C350 C349 1.524 . S
C351 C348 1.403 . S
C351 C352 1.392 . S
C351 C355 1.495 . S
C352 C351 1.392 . S
C352 C353 1.385 . S
C352 C354 1.478 . S
C353 H347 0.930 . S
C353 C349 1.400 . S
C353 C352 1.385 . S
C354 C352 1.478 . S
C354 C356 1.381 . S
C354 C360 1.383 . S
C355 C351 1.495 . S
C355 H361 0.959 . S
C355 H362 0.961 . S
C355 H363 0.960 . S
C356 C354 1.381 . S
C356 C357 1.394 . S
C356 H364 0.930 . S
C357 C356 1.394 . S
C357 C358 1.383 . S
C357 H365 0.929 . S
C358 C357 1.383 . S
C358 C359 1.377 . S
C359 H343 0.930 . S
C359 C358 1.377 . S
C359 C360 1.379 . S
C360 H344 0.931 . S
C360 C354 1.383 . S
C360 C359 1.379 . S
H361 C355 0.959 . S
H362 C355 0.961 . S
H363 C355 0.960 . S
H364 C356 0.930 . S
H365 C357 0.929 . S
H366 C374 0.929 . S
H367 C376 0.930 . S
H368 C378 0.930 . S
H369 C381 0.929 . S
H370 C384 0.930 . S
H371 C386 0.960 . S
H372 C386 0.960 . S
H373 C386 0.960 . S
C374 H366 0.929 . S
C374 C375 1.377 . S
C374 C376 1.384 . S
C375 C374 1.377 . S
C375 C381 1.390 . S
C376 H367 0.930 . S
C376 C374 1.384 . S
C376 C377 1.372 . S
C377 C376 1.372 . S
C377 C378 1.400 . S
C377 C382 1.490 . S
C378 H368 0.930 . S
C378 C377 1.400 . S
C378 C381 1.386 . S
H379 C395 0.930 . S
H380 C396 0.931 . S
C381 H369 0.929 . S
C381 C375 1.390 . S
C381 C378 1.386 . S
C382 C377 1.490 . S
C382 C384 1.395 . S
C382 C385 1.403 . S
H383 C389 0.930 . S
C384 H370 0.930 . S
C384 C382 1.395 . S
C384 C387 1.403 . S
C385 C382 1.403 . S
C385 C386 1.524 . S
C385 C389 1.400 . S
C386 H371 0.960 . S
C386 H372 0.960 . S
C386 H373 0.960 . S
C386 C385 1.524 . S
C387 C384 1.403 . S
C387 C388 1.392 . S
C387 C391 1.495 . S
C388 C387 1.392 . S
C388 C389 1.385 . S
C388 C390 1.478 . S
C389 H383 0.930 . S
C389 C385 1.400 . S
C389 C388 1.385 . S
C390 C388 1.478 . S
C390 C392 1.381 . S
C390 C396 1.383 . S
C391 C387 1.495 . S
C391 H397 0.959 . S
C391 H398 0.961 . S
C391 H399 0.960 . S
C392 C390 1.381 . S
C392 C393 1.394 . S
C392 H400 0.930 . S
C393 C392 1.394 . S
C393 C394 1.383 . S
C393 H401 0.929 . S
C394 C393 1.383 . S
C394 C395 1.377 . S
C395 H379 0.930 . S
C395 C394 1.377 . S
C395 C396 1.379 . S
C396 H380 0.931 . S
C396 C390 1.383 . S
C396 C395 1.379 . S
H397 C391 0.959 . S
H398 C391 0.961 . S
H399 C391 0.960 . S
H400 C392 0.930 . S
H401 C393 0.929 . S
H402 C410 0.929 . S
H403 C412 0.930 . S
H404 C414 0.930 . S
H405 C417 0.929 . S
H406 C420 0.930 . S
H407 C422 0.960 . S
H408 C422 0.960 . S
H409 C422 0.960 . S
C410 H402 0.929 . S
C410 C411 1.377 . S
C410 C412 1.384 . S
C411 C410 1.377 . S
C411 C417 1.390 . S
C412 H403 0.930 . S
C412 C410 1.384 . S
C412 C413 1.372 . S
C413 C412 1.372 . S
C413 C414 1.400 . S
C413 C418 1.490 . S
C414 H404 0.930 . S
C414 C413 1.400 . S
C414 C417 1.386 . S
H415 C431 0.930 . S
H416 C432 0.931 . S
C417 H405 0.929 . S
C417 C411 1.390 . S
C417 C414 1.386 . S
C418 C413 1.490 . S
C418 C420 1.395 . S
C418 C421 1.403 . S
H419 C425 0.930 . S
C420 H406 0.930 . S
C420 C418 1.395 . S
C420 C423 1.403 . S
C421 C418 1.403 . S
C421 C422 1.524 . S
C421 C425 1.400 . S
C422 H407 0.960 . S
C422 H408 0.960 . S
C422 H409 0.960 . S
C422 C421 1.524 . S
C423 C420 1.403 . S
C423 C424 1.392 . S
C423 C427 1.495 . S
C424 C423 1.392 . S
C424 C425 1.385 . S
C424 C426 1.478 . S
C425 H419 0.930 . S
C425 C421 1.400 . S
C425 C424 1.385 . S
C426 C424 1.478 . S
C426 C428 1.381 . S
C426 C432 1.383 . S
C427 C423 1.495 . S
C427 H433 0.959 . S
C427 H434 0.961 . S
C427 H435 0.960 . S
C428 C426 1.381 . S
C428 C429 1.394 . S
C428 H436 0.930 . S
C429 C428 1.394 . S
C429 C430 1.383 . S
C429 H437 0.929 . S
C430 C429 1.383 . S
C430 C431 1.377 . S
C431 H415 0.930 . S
C431 C430 1.377 . S
C431 C432 1.379 . S
C432 H416 0.931 . S
C432 C426 1.383 . S
C432 C431 1.379 . S
H433 C427 0.959 . S
H434 C427 0.961 . S
H435 C427 0.960 . S
H436 C428 0.930 . S
H437 C429 0.929 . S
H438 C446 0.929 . S
H439 C448 0.930 . S
H440 C450 0.930 . S
H441 C453 0.929 . S
H442 C456 0.930 . S
H443 C458 0.960 . S
H444 C458 0.960 . S
H445 C458 0.960 . S
C446 H438 0.929 . S
C446 C447 1.377 . S
C446 C448 1.384 . S
C447 C446 1.377 . S
C447 C453 1.390 . S
C448 H439 0.930 . S
C448 C446 1.384 . S
C448 C449 1.372 . S
C449 C448 1.372 . S
C449 C450 1.400 . S
C449 C454 1.490 . S
C450 H440 0.930 . S
C450 C449 1.400 . S
C450 C453 1.386 . S
H451 C467 0.930 . S
H452 C468 0.931 . S
C453 H441 0.929 . S
C453 C447 1.390 . S
C453 C450 1.386 . S
C454 C449 1.490 . S
C454 C456 1.395 . S
C454 C457 1.403 . S
H455 C461 0.930 . S
C456 H442 0.930 . S
C456 C454 1.395 . S
C456 C459 1.403 . S
C457 C454 1.403 . S
C457 C458 1.524 . S
C457 C461 1.400 . S
C458 H443 0.960 . S
C458 H444 0.960 . S
C458 H445 0.960 . S
C458 C457 1.524 . S
C459 C456 1.403 . S
C459 C460 1.392 . S
C459 C463 1.495 . S
C460 C459 1.392 . S
C460 C461 1.385 . S
C460 C462 1.478 . S
C461 H455 0.930 . S
C461 C457 1.400 . S
C461 C460 1.385 . S
C462 C460 1.478 . S
C462 C464 1.381 . S
C462 C468 1.383 . S
C463 C459 1.495 . S
C463 H469 0.959 . S
C463 H470 0.961 . S
C463 H471 0.960 . S
C464 C462 1.381 . S
C464 C465 1.394 . S
C464 H472 0.930 . S
C465 C464 1.394 . S
C465 C466 1.383 . S
C465 H473 0.929 . S
C466 C465 1.383 . S
C466 C467 1.377 . S
C467 H451 0.930 . S
C467 C466 1.377 . S
C467 C468 1.379 . S
C468 H452 0.931 . S
C468 C462 1.383 . S
C468 C467 1.379 . S
H469 C463 0.959 . S
H470 C463 0.961 . S
H471 C463 0.960 . S
H472 C464 0.930 . S
H473 C465 0.929 . S
H474 C482 0.929 . S
H475 C484 0.930 . S
H476 C486 0.930 . S
H477 C489 0.929 . S
H478 C492 0.930 . S
H479 C494 0.960 . S
H480 C494 0.960 . S
H481 C494 0.960 . S
C482 H474 0.929 . S
C482 C483 1.377 . S
C482 C484 1.384 . S
C483 C482 1.377 . S
C483 C489 1.390 . S
C484 H475 0.930 . S
C484 C482 1.384 . S
C484 C485 1.372 . S
C485 C484 1.372 . S
C485 C486 1.400 . S
C485 C490 1.490 . S
C486 H476 0.930 . S
C486 C485 1.400 . S
C486 C489 1.386 . S
H487 C503 0.930 . S
H488 C504 0.931 . S
C489 H477 0.929 . S
C489 C483 1.390 . S
C489 C486 1.386 . S
C490 C485 1.490 . S
C490 C492 1.395 . S
C490 C493 1.403 . S
H491 C497 0.930 . S
C492 H478 0.930 . S
C492 C490 1.395 . S
C492 C495 1.403 . S
C493 C490 1.403 . S
C493 C494 1.524 . S
C493 C497 1.400 . S
C494 H479 0.960 . S
C494 H480 0.960 . S
C494 H481 0.960 . S
C494 C493 1.524 . S
C495 C492 1.403 . S
C495 C496 1.392 . S
C495 C499 1.495 . S
C496 C495 1.392 . S
C496 C497 1.385 . S
C496 C498 1.478 . S
C497 H491 0.930 . S
C497 C493 1.400 . S
C497 C496 1.385 . S
C498 C496 1.478 . S
C498 C500 1.381 . S
C498 C504 1.383 . S
C499 C495 1.495 . S
C499 H505 0.959 . S
C499 H506 0.961 . S
C499 H507 0.960 . S
C500 C498 1.381 . S
C500 C501 1.394 . S
C500 H508 0.930 . S
C501 C500 1.394 . S
C501 C502 1.383 . S
C501 H509 0.929 . S
C502 C501 1.383 . S
C502 C503 1.377 . S
C503 H487 0.930 . S
C503 C502 1.377 . S
C503 C504 1.379 . S
C504 H488 0.931 . S
C504 C498 1.383 . S
C504 C503 1.379 . S
H505 C499 0.959 . S
H506 C499 0.961 . S
H507 C499 0.960 . S
H508 C500 0.930 . S
H509 C501 0.929 . S
H510 C518 0.929 . S
H511 C520 0.930 . S
H512 C522 0.930 . S
H513 C525 0.929 . S
H514 C528 0.930 . S
H515 C530 0.960 . S
H516 C530 0.960 . S
H517 C530 0.960 . S
C518 H510 0.929 . S
C518 C519 1.377 . S
C518 C520 1.384 . S
C519 C518 1.377 . S
C519 C525 1.390 . S
C520 H511 0.930 . S
C520 C518 1.384 . S
C520 C521 1.372 . S
C521 C520 1.372 . S
C521 C522 1.400 . S
C521 C526 1.490 . S
C522 H512 0.930 . S
C522 C521 1.400 . S
C522 C525 1.386 . S
H523 C539 0.930 . S
H524 C540 0.931 . S
C525 H513 0.929 . S
C525 C519 1.390 . S
C525 C522 1.386 . S
C526 C521 1.490 . S
C526 C528 1.395 . S
C526 C529 1.403 . S
H527 C533 0.930 . S
C528 H514 0.930 . S
C528 C526 1.395 . S
C528 C531 1.403 . S
C529 C526 1.403 . S
C529 C530 1.524 . S
C529 C533 1.400 . S
C530 H515 0.960 . S
C530 H516 0.960 . S
C530 H517 0.960 . S
C530 C529 1.524 . S
C531 C528 1.403 . S
C531 C532 1.392 . S
C531 C535 1.495 . S
C532 C531 1.392 . S
C532 C533 1.385 . S
C532 C534 1.478 . S
C533 H527 0.930 . S
C533 C529 1.400 . S
C533 C532 1.385 . S
C534 C532 1.478 . S
C534 C536 1.381 . S
C534 C540 1.383 . S
C535 C531 1.495 . S
C535 H541 0.959 . S
C535 H542 0.961 . S
C535 H543 0.960 . S
C536 C534 1.381 . S
C536 C537 1.394 . S
C536 H544 0.930 . S
C537 C536 1.394 . S
C537 C538 1.383 . S
C537 H545 0.929 . S
C538 C537 1.383 . S
C538 C539 1.377 . S
C539 H523 0.930 . S
C539 C538 1.377 . S
C539 C540 1.379 . S
C540 H524 0.931 . S
C540 C534 1.383 . S
C540 C539 1.379 . S
H541 C535 0.959 . S
H542 C535 0.961 . S
H543 C535 0.960 . S
H544 C536 0.930 . S
H545 C537 0.929 . S
H546 C554 0.929 . S
H547 C556 0.930 . S
H548 C558 0.930 . S
H549 C561 0.929 . S
H550 C564 0.930 . S
H551 C566 0.960 . S
H552 C566 0.960 . S
H553 C566 0.960 . S
C554 H546 0.929 . S
C554 C555 1.377 . S
C554 C556 1.384 . S
C555 C554 1.377 . S
C555 C561 1.390 . S
C556 H547 0.930 . S
C556 C554 1.384 . S
C556 C557 1.372 . S
C557 C556 1.372 . S
C557 C558 1.400 . S
C557 C562 1.490 . S
C558 H548 0.930 . S
C558 C557 1.400 . S
C558 C561 1.386 . S
H559 C575 0.930 . S
H560 C576 0.931 . S
C561 H549 0.929 . S
C561 C555 1.390 . S
C561 C558 1.386 . S
C562 C557 1.490 . S
C562 C564 1.395 . S
C562 C565 1.403 . S
H563 C569 0.930 . S
C564 H550 0.930 . S
C564 C562 1.395 . S
C564 C567 1.403 . S
C565 C562 1.403 . S
C565 C566 1.524 . S
C565 C569 1.400 . S
C566 H551 0.960 . S
C566 H552 0.960 . S
C566 H553 0.960 . S
C566 C565 1.524 . S
C567 C564 1.403 . S
C567 C568 1.392 . S
C567 C571 1.495 . S
C568 C567 1.392 . S
C568 C569 1.385 . S
C568 C570 1.478 . S
C569 H563 0.930 . S
C569 C565 1.400 . S
C569 C568 1.385 . S
C570 C568 1.478 . S
C570 C572 1.381 . S
C570 C576 1.383 . S
C571 C567 1.495 . S
C571 H577 0.959 . S
C571 H578 0.961 . S
C571 H579 0.960 . S
C572 C570 1.381 . S
C572 C573 1.394 . S
C572 H580 0.930 . S
C573 C572 1.394 . S
C573 C574 1.383 . S
C573 H581 0.929 . S
C574 C573 1.383 . S
C574 C575 1.377 . S
C575 H559 0.930 . S
C575 C574 1.377 . S
C575 C576 1.379 . S
C576 H560 0.931 . S
C576 C570 1.383 . S
C576 C575 1.379 . S
H577 C571 0.959 . S
H578 C571 0.961 . S
H579 C571 0.960 . S
H580 C572 0.930 . S
H581 C573 0.929 . S
H582 C590 0.929 . S
H583 C592 0.930 . S
H584 C594 0.930 . S
H585 C597 0.929 . S
H586 C600 0.930 . S
H587 C602 0.960 . S
H588 C602 0.960 . S
H589 C602 0.960 . S
C590 H582 0.929 . S
C590 C591 1.377 . S
C590 C592 1.384 . S
C591 C590 1.377 . S
C591 C597 1.390 . S
C592 H583 0.930 . S
C592 C590 1.384 . S
C592 C593 1.372 . S
C593 C592 1.372 . S
C593 C594 1.400 . S
C593 C598 1.490 . S
C594 H584 0.930 . S
C594 C593 1.400 . S
C594 C597 1.386 . S
H595 C611 0.930 . S
H596 C612 0.931 . S
C597 H585 0.929 . S
C597 C591 1.390 . S
C597 C594 1.386 . S
C598 C593 1.490 . S
C598 C600 1.395 . S
C598 C601 1.403 . S
H599 C605 0.930 . S
C600 H586 0.930 . S
C600 C598 1.395 . S
C600 C603 1.403 . S
C601 C598 1.403 . S
C601 C602 1.524 . S
C601 C605 1.400 . S
C602 H587 0.960 . S
C602 H588 0.960 . S
C602 H589 0.960 . S
C602 C601 1.524 . S
C603 C600 1.403 . S
C603 C604 1.392 . S
C603 C607 1.495 . S
C604 C603 1.392 . S
C604 C605 1.385 . S
C604 C606 1.478 . S
C605 H599 0.930 . S
C605 C601 1.400 . S
C605 C604 1.385 . S
C606 C604 1.478 . S
C606 C608 1.381 . S
C606 C612 1.383 . S
C607 C603 1.495 . S
C607 H613 0.959 . S
C607 H614 0.961 . S
C607 H615 0.960 . S
C608 C606 1.381 . S
C608 C609 1.394 . S
C608 H616 0.930 . S
C609 C608 1.394 . S
C609 C610 1.383 . S
C609 H617 0.929 . S
C610 C609 1.383 . S
C610 C611 1.377 . S
C611 H595 0.930 . S
C611 C610 1.377 . S
C611 C612 1.379 . S
C612 H596 0.931 . S
C612 C606 1.383 . S
C612 C611 1.379 . S
H613 C607 0.959 . S
H614 C607 0.961 . S
H615 C607 0.960 . S
H616 C608 0.930 . S
H617 C609 0.929 . S
H618 C626 0.929 . S
H619 C628 0.930 . S
H620 C630 0.930 . S
H621 C633 0.929 . S
H622 C636 0.930 . S
H623 C638 0.960 . S
H624 C638 0.960 . S
H625 C638 0.960 . S
C626 H618 0.929 . S
C626 C627 1.377 . S
C626 C628 1.384 . S
C627 C626 1.377 . S
C627 C633 1.390 1_455 S
C628 H619 0.930 . S
C628 C626 1.384 . S
C628 C629 1.372 . S
C629 C628 1.372 . S
C629 C630 1.400 1_455 S
C629 C634 1.490 . S
C630 H620 0.930 . S
C630 C629 1.400 1_655 S
C630 C633 1.386 . S
H631 C647 0.930 . S
H632 C648 0.931 . S
C633 H621 0.929 . S
C633 C627 1.390 1_655 S
C633 C630 1.386 . S
C634 C629 1.490 . S
C634 C636 1.395 . S
C634 C637 1.403 . S
H635 C641 0.930 . S
C636 H622 0.930 . S
C636 C634 1.395 . S
C636 C639 1.403 . S
C637 C634 1.403 . S
C637 C638 1.524 . S
C637 C641 1.400 . S
C638 H623 0.960 . S
C638 H624 0.960 . S
C638 H625 0.960 . S
C638 C637 1.524 . S
C639 C636 1.403 . S
C639 C640 1.392 1_554 S
C639 C643 1.495 1_454 S
C640 C639 1.392 1_556 S
C640 C641 1.385 1_556 S
C640 C642 1.478 . S
C641 H635 0.930 . S
C641 C637 1.400 . S
C641 C640 1.385 1_554 S
C642 C640 1.478 . S
C642 C644 1.381 . S
C642 C648 1.383 1_455 S
C643 C639 1.495 1_656 S
C643 H649 0.959 1_556 S
C643 H650 0.961 . S
C643 H651 0.960 1_655 S
C644 C642 1.381 . S
C644 C645 1.394 . S
C644 H652 0.930 . S
C645 C644 1.394 . S
C645 C646 1.383 . S
C645 H653 0.929 . S
C646 C645 1.383 . S
C646 C647 1.377 1_455 S
C647 H631 0.930 . S
C647 C646 1.377 1_655 S
C647 C648 1.379 . S
C648 H632 0.931 . S
C648 C642 1.383 1_655 S
C648 C647 1.379 . S
H649 C643 0.959 1_554 S
H650 C643 0.961 . S
H651 C643 0.960 1_455 S
H652 C644 0.930 . S
H653 C645 0.929 . S
H654 C662 0.929 . S
H655 C664 0.930 . S
H656 C666 0.930 . S
H657 C669 0.929 . S
H658 C672 0.930 . S
H659 C674 0.960 . S
H660 C674 0.960 . S
H661 C674 0.960 . S
C662 H654 0.929 . S
C662 C663 1.377 . S
C662 C664 1.384 . S
C663 C662 1.377 . S
C663 C669 1.390 . S
C664 H655 0.930 . S
C664 C662 1.384 . S
C664 C665 1.372 . S
C665 C664 1.372 . S
C665 C666 1.400 . S
C665 C670 1.490 . S
C666 H656 0.930 . S
C666 C665 1.400 . S
C666 C669 1.386 . S
H667 C683 0.930 . S
H668 C684 0.931 . S
C669 H657 0.929 . S
C669 C663 1.390 . S
C669 C666 1.386 . S
C670 C665 1.490 . S
C670 C672 1.395 . S
C670 C673 1.403 . S
H671 C677 0.930 . S
C672 H658 0.930 . S
C672 C670 1.395 . S
C672 C675 1.403 . S
C673 C670 1.403 . S
C673 C674 1.524 1_545 S
C673 C677 1.400 . S
C674 H659 0.960 . S
C674 H660 0.960 . S
C674 H661 0.960 . S
C674 C673 1.524 1_565 S
C675 C672 1.403 . S
C675 C676 1.392 . S
C675 C679 1.495 . S
C676 C675 1.392 . S
C676 C677 1.385 . S
C676 C678 1.478 . S
C677 H671 0.930 . S
C677 C673 1.400 . S
C677 C676 1.385 . S
C678 C676 1.478 . S
C678 C680 1.381 . S
C678 C684 1.383 . S
C679 C675 1.495 . S
C679 H685 0.959 . S
C679 H686 0.961 . S
C679 H687 0.960 . S
C680 C678 1.381 . S
C680 C681 1.394 . S
C680 H688 0.930 . S
C681 C680 1.394 . S
C681 C682 1.383 . S
C681 H689 0.929 . S
C682 C681 1.383 . S
C682 C683 1.377 . S
C683 H667 0.930 . S
C683 C682 1.377 . S
C683 C684 1.379 . S
C684 H668 0.931 . S
C684 C678 1.383 . S
C684 C683 1.379 . S
H685 C679 0.959 . S
H686 C679 0.961 . S
H687 C679 0.960 . S
H688 C680 0.930 . S
H689 C681 0.929 . S
H690 C698 0.929 . S
H691 C700 0.930 . S
H692 C702 0.930 . S
H693 C705 0.929 . S
H694 C708 0.930 . S
H695 C710 0.960 . S
H696 C710 0.960 . S
H697 C710 0.960 . S
C698 H690 0.929 . S
C698 C699 1.377 . S
C698 C700 1.384 . S
C699 C698 1.377 . S
C699 C705 1.390 . S
C700 H691 0.930 . S
C700 C698 1.384 . S
C700 C701 1.372 . S
C701 C700 1.372 . S
C701 C702 1.400 . S
C701 C706 1.490 . S
C702 H692 0.930 . S
C702 C701 1.400 . S
C702 C705 1.386 . S
H703 C719 0.930 . S
H704 C720 0.931 . S
C705 H693 0.929 . S
C705 C699 1.390 . S
C705 C702 1.386 . S
C706 C701 1.490 . S
C706 C708 1.395 . S
C706 C709 1.403 . S
H707 C713 0.930 . S
C708 H694 0.930 . S
C708 C706 1.395 . S
C708 C711 1.403 . S
C709 C706 1.403 . S
C709 C710 1.524 . S
C709 C713 1.400 . S
C710 H695 0.960 . S
C710 H696 0.960 . S
C710 H697 0.960 . S
C710 C709 1.524 . S
C711 C708 1.403 . S
C711 C712 1.392 . S
C711 C715 1.495 . S
C712 C711 1.392 . S
C712 C713 1.385 . S
C712 C714 1.478 . S
C713 H707 0.930 . S
C713 C709 1.400 . S
C713 C712 1.385 . S
C714 C712 1.478 . S
C714 C716 1.381 . S
C714 C720 1.383 . S
C715 C711 1.495 . S
C715 H721 0.959 . S
C715 H722 0.961 . S
C715 H723 0.960 . S
C716 C714 1.381 . S
C716 C717 1.394 . S
C716 H724 0.930 . S
C717 C716 1.394 . S
C717 C718 1.383 . S
C717 H725 0.929 . S
C718 C717 1.383 . S
C718 C719 1.377 . S
C719 H703 0.930 . S
C719 C718 1.377 . S
C719 C720 1.379 . S
C720 H704 0.931 . S
C720 C714 1.383 . S
C720 C719 1.379 . S
H721 C715 0.959 . S
H722 C715 0.961 . S
H723 C715 0.960 . S
H724 C716 0.930 . S
H725 C717 0.929 . S
H726 C734 0.929 . S
H727 C736 0.930 . S
H728 C738 0.930 1_565 S
H729 C741 0.927 1_565 S
H730 C744 0.930 . S
H731 C746 0.960 . S
H732 C746 0.960 . S
H733 C746 0.960 . S
C734 H726 0.929 . S
C734 C735 1.377 . S
C734 C736 1.384 . S
C735 C734 1.377 . S
C735 C741 1.391 . S
C736 H727 0.930 . S
C736 C734 1.384 . S
C736 C737 1.372 . S
C737 C736 1.372 . S
C737 C738 1.399 . S
C737 C742 1.490 . S
C738 H728 0.930 1_545 S
C738 C737 1.399 . S
C738 C741 1.386 . S
H739 C755 0.930 1_565 S
H740 C756 0.931 1_565 S
C741 H729 0.927 1_545 S
C741 C735 1.391 . S
C741 C738 1.386 . S
C742 C737 1.490 . S
C742 C744 1.395 . S
C742 C745 1.403 1_545 S
H743 C749 0.930 . S
C744 H730 0.930 . S
C744 C742 1.395 . S
C744 C747 1.403 . S
C745 C742 1.403 1_565 S
C745 C746 1.524 . S
C745 C749 1.400 . S
C746 H731 0.960 . S
C746 H732 0.960 . S
C746 H733 0.960 . S
C746 C745 1.524 . S
C747 C744 1.403 . S
C747 C748 1.392 . S
C747 C751 1.495 . S
C748 C747 1.392 . S
C748 C749 1.385 1_545 S
C748 C750 1.478 . S
C749 H743 0.930 . S
C749 C745 1.400 . S
C749 C748 1.385 1_565 S
C750 C748 1.478 . S
C750 C752 1.381 . S
C750 C756 1.383 . S
C751 C747 1.495 . S
C751 H757 0.959 . S
C751 H758 0.961 . S
C751 H759 0.960 . S
C752 C750 1.381 . S
C752 C753 1.394 . S
C752 H760 0.930 . S
C753 C752 1.394 . S
C753 C754 1.383 . S
C753 H761 0.929 . S
C754 C753 1.383 . S
C754 C755 1.377 . S
C755 H739 0.930 1_545 S
C755 C754 1.377 . S
C755 C756 1.379 . S
C756 H740 0.931 1_545 S
C756 C750 1.383 . S
C756 C755 1.379 . S
H757 C751 0.959 . S
H758 C751 0.961 . S
H759 C751 0.960 . S
H760 C752 0.930 . S
H761 C753 0.929 . S
H762 C770 0.929 . S
H763 C772 0.930 . S
H764 C774 0.930 . S
H765 C777 0.929 . S
H766 C780 0.930 . S
H767 C782 0.960 . S
H768 C782 0.960 . S
H769 C782 0.960 . S
C770 H762 0.929 . S
C770 C771 1.377 . S
C770 C772 1.384 . S
C771 C770 1.377 . S
C771 C777 1.390 . S
C772 H763 0.930 . S
C772 C770 1.384 . S
C772 C773 1.372 . S
C773 C772 1.372 . S
C773 C774 1.400 . S
C773 C778 1.490 . S
C774 H764 0.930 . S
C774 C773 1.400 . S
C774 C777 1.386 . S
H775 C791 0.930 . S
H776 C792 0.931 . S
C777 H765 0.929 . S
C777 C771 1.390 . S
C777 C774 1.386 . S
C778 C773 1.490 . S
C778 C780 1.395 . S
C778 C781 1.403 . S
H779 C785 0.930 . S
C780 H766 0.930 . S
C780 C778 1.395 . S
C780 C783 1.403 . S
C781 C778 1.403 . S
C781 C782 1.524 . S
C781 C785 1.400 . S
C782 H767 0.960 . S
C782 H768 0.960 . S
C782 H769 0.960 . S
C782 C781 1.524 . S
C783 C780 1.403 . S
C783 C784 1.391 . S
C783 C787 1.495 1_556 S
C784 C783 1.391 . S
C784 C785 1.384 . S
C784 C786 1.481 1_556 S
C785 H779 0.930 . S
C785 C781 1.400 . S
C785 C784 1.384 . S
C786 C784 1.481 1_554 S
C786 C788 1.381 . S
C786 C792 1.383 . S
C787 C783 1.495 1_554 S
C787 H793 0.959 1_554 S
C787 H794 0.961 . S
C787 H795 0.960 . S
C788 C786 1.381 . S
C788 C789 1.394 . S
C788 H796 0.930 . S
C789 C788 1.394 . S
C789 C790 1.383 . S
C789 H797 0.929 . S
C790 C789 1.383 . S
C790 C791 1.377 . S
C791 H775 0.930 . S
C791 C790 1.377 . S
C791 C792 1.379 . S
C792 H776 0.931 . S
C792 C786 1.383 . S
C792 C791 1.379 . S
H793 C787 0.959 1_556 S
H794 C787 0.961 . S
H795 C787 0.960 . S
H796 C788 0.930 . S
H797 C789 0.929 . S
H798 C806 0.929 . S
H799 C808 0.930 . S
H800 C810 0.930 . S
H801 C813 0.929 . S
H802 C816 0.930 . S
H803 C818 0.960 . S
H804 C818 0.960 . S
H805 C818 0.960 1_455 S
C806 H798 0.929 . S
C806 C807 1.377 1_655 S
C806 C808 1.384 . S
C807 C806 1.377 1_455 S
C807 C813 1.390 . S
C808 H799 0.930 . S
C808 C806 1.384 . S
C808 C809 1.372 1_655 S
C809 C808 1.372 1_455 S
C809 C810 1.400 . S
C809 C814 1.490 . S
C810 H800 0.930 . S
C810 C809 1.400 . S
C810 C813 1.386 . S
H811 C827 0.930 . S
H812 C828 0.931 . S
C813 H801 0.929 . S
C813 C807 1.390 . S
C813 C810 1.386 . S
C814 C809 1.490 . S
C814 C816 1.395 . S
C814 C817 1.403 1_455 S
H815 C821 0.950 . S
C816 H802 0.930 . S
C816 C814 1.395 . S
C816 C819 1.403 . S
C817 C814 1.403 1_655 S
C817 C818 1.524 . S
C817 C821 1.400 . S
C818 H803 0.960 . S
C818 H804 0.960 . S
C818 H805 0.960 1_655 S
C818 C817 1.524 . S
C819 C816 1.403 . S
C819 C820 1.392 . S
C819 C823 1.495 . S
C820 C819 1.392 . S
C820 C821 1.369 1_455 S
C820 C822 1.478 . S
C821 H815 0.950 . S
C821 C817 1.400 . S
C821 C820 1.369 1_655 S
C822 C820 1.478 . S
C822 C824 1.381 1_455 S
C822 C828 1.383 . S
C823 C819 1.495 . S
C823 H829 0.959 . S
C823 H830 0.961 . S
C823 H831 0.960 1_455 S
C824 C822 1.381 1_655 S
C824 C825 1.394 . S
C824 H832 0.930 . S
C825 C824 1.394 . S
C825 C826 1.383 1_655 S
C825 H833 0.929 . S
C826 C825 1.383 1_455 S
C826 C827 1.377 . S
C827 H811 0.930 . S
C827 C826 1.377 . S
C827 C828 1.379 . S
C828 H812 0.931 . S
C828 C822 1.383 . S
C828 C827 1.379 . S
H829 C823 0.959 . S
H830 C823 0.961 . S
H831 C823 0.960 1_655 S
H832 C824 0.930 . S
H833 C825 0.929 . S
C195 C24 3.123 . S
C214 C180 2.826 . S
C231 C66 1.251 . S
C250 C158 1.161 . S
C267 C93 1.568 . S
C286 C172 1.550 . S
C303 C13 2.872 . S
C322 C183 2.812 . S
C358 C161 0.926 . S
C339 C57 0.967 . S
C394 C169 1.757 . S
C375 C104 2.108 . S
C411 C64 2.102 . S
C430 C136 1.821 . S
C447 C97 0.431 . S
C466 C147 0.661 . S
C483 C17 1.377 . S
C502 C125 1.135 . S
C538 C139 1.546 . S
C519 C53 1.573 . S
C574 C150 0.276 . S
C555 C106 0.284 . S
C591 C26 0.909 . S
C610 C128 0.929 . S
C646 C149 1.174 . S
C627 C2 1.228 . S
C663 C63 1.466 . S
C682 C127 1.450 . S
C699 C82 1.446 . S
C718 C138 1.406 . S
C754 C171 1.437 . S
C735 C42 1.458 . S
C790 C182 1.632 . S
C771 C103 1.704 . S
C807 C23 1.525 . S
C826 C160 1.499 . S
