# Generated by pormake.
# Topology zzz, (3,6)-cn, num edge types: 1
# Building blocks:
#     Node 0, Type 0, BuildingBlock: OLANEW_clean_sbu_2, # of connection points: 3
#     Node 1, Type 0, BuildingBlock: OLANEW_clean_sbu_2, # of connection points: 3
#     Node 2, Type 0, BuildingBlock: OLANEW_clean_sbu_2, # of connection points: 3
#     Node 3, Type 0, BuildingBlock: OLANEW_clean_sbu_2, # of connection points: 3
#     Node 4, Type 0, BuildingBlock: OLANEW_clean_sbu_2, # of connection points: 3
#     Node 5, Type 0, BuildingBlock: OLANEW_clean_sbu_2, # of connection points: 3
#     Node 6, Type 0, BuildingBlock: OLANEW_clean_sbu_2, # of connection points: 3
#     Node 7, Type 0, BuildingBlock: OLANEW_clean_sbu_2, # of connection points: 3
#     Node 8, Type 1, BuildingBlock: PAMTUU_clean_sbu_0, # of connection points: 6
#     Node 9, Type 1, BuildingBlock: PAMTUU_clean_sbu_0, # of connection points: 6
#     Node 10, Type 1, BuildingBlock: PAMTUU_clean_sbu_0, # of connection points: 6
#     Node 11, Type 1, BuildingBlock: PAMTUU_clean_sbu_0, # of connection points: 6
#     Edge 12, Type (0, 1), BuildingBlock: AJUNOK_clean_linker_0, # of connection points: 2
#     Edge 13, Type (0, 1), BuildingBlock: AJUNOK_clean_linker_0, # of connection points: 2
#     Edge 14, Type (0, 1), BuildingBlock: AJUNOK_clean_linker_0, # of connection points: 2
#     Edge 15, Type (0, 1), BuildingBlock: AJUNOK_clean_linker_0, # of connection points: 2
#     Edge 16, Type (0, 1), BuildingBlock: AJUNOK_clean_linker_0, # of connection points: 2
#     Edge 17, Type (0, 1), BuildingBlock: AJUNOK_clean_linker_0, # of connection points: 2
#     Edge 18, Type (0, 1), BuildingBlock: AJUNOK_clean_linker_0, # of connection points: 2
#     Edge 19, Type (0, 1), BuildingBlock: AJUNOK_clean_linker_0, # of connection points: 2
#     Edge 20, Type (0, 1), BuildingBlock: AJUNOK_clean_linker_0, # of connection points: 2
#     Edge 21, Type (0, 1), BuildingBlock: AJUNOK_clean_linker_0, # of connection points: 2
#     Edge 22, Type (0, 1), BuildingBlock: AJUNOK_clean_linker_0, # of connection points: 2
#     Edge 23, Type (0, 1), BuildingBlock: AJUNOK_clean_linker_0, # of connection points: 2
#     Edge 24, Type (0, 1), BuildingBlock: AJUNOK_clean_linker_0, # of connection points: 2
#     Edge 25, Type (0, 1), BuildingBlock: AJUNOK_clean_linker_0, # of connection points: 2
#     Edge 26, Type (0, 1), BuildingBlock: AJUNOK_clean_linker_0, # of connection points: 2
#     Edge 27, Type (0, 1), BuildingBlock: AJUNOK_clean_linker_0, # of connection points: 2
#     Edge 28, Type (0, 1), BuildingBlock: AJUNOK_clean_linker_0, # of connection points: 2
#     Edge 29, Type (0, 1), BuildingBlock: AJUNOK_clean_linker_0, # of connection points: 2
#     Edge 30, Type (0, 1), BuildingBlock: AJUNOK_clean_linker_0, # of connection points: 2
#     Edge 31, Type (0, 1), BuildingBlock: AJUNOK_clean_linker_0, # of connection points: 2
#     Edge 32, Type (0, 1), BuildingBlock: AJUNOK_clean_linker_0, # of connection points: 2
#     Edge 33, Type (0, 1), BuildingBlock: AJUNOK_clean_linker_0, # of connection points: 2
#     Edge 34, Type (0, 1), BuildingBlock: AJUNOK_clean_linker_0, # of connection points: 2
#     Edge 35, Type (0, 1), BuildingBlock: AJUNOK_clean_linker_0, # of connection points: 2
# Relax obj value: 0.238
# Max RMSD: 0.252
# Mean RMSD: 0.126
data_MOF--net-zzz--node1-OLANEW_clean_sbu_2--node2-PAMTUU_clean_sbu_0--edge1-AJUNOK_clean_linker_0
_symmetry_space_group_name_H-M    P1
_symmetry_Int_Tables_number       1
_symmetry_cell_setting            triclinic
loop_
_symmetry_equiv_pos_as_xyz
'x, y, z'
_cell_length_a     42.066842
_cell_length_b     43.474663
_cell_length_c     13.82155
_cell_angle_alpha  103.10533
_cell_angle_beta   90.536167
_cell_angle_gamma 89.73955
loop_
_atom_site_label
_atom_site_type_symbol
_atom_site_fract_x
_atom_site_fract_y
_atom_site_fract_z
_atom_type_partial_charge
O0 O 0.73656 0.56247 0.38714 0.0
Cd1 Cd 0.68273 0.57337 0.44747 0.0
O2 O 0.73892 0.52872 0.4828 0.0
Cd3 Cd 0.76327 0.493 0.54375 0.0
O4 O 0.80679 0.47901 0.60728 0.0
C5 C 0.81595 0.49624 0.68955 0.0
O6 O 0.79722 0.51911 0.73538 0.0
C7 C 0.75211 0.542 0.42056 0.0
C8 C 0.63982 0.55038 0.29442 0.0
O9 O 0.65012 0.5788 0.31072 0.0
O10 O 0.64964 0.53283 0.35164 0.0
O11 O 0.96199 0.78138 0.18856 0.0
Cd12 Cd 0.92571 0.7413 0.22061 0.0
O13 O 0.98929 0.77416 0.31652 0.0
Cd14 Cd 0.02392 0.78435 0.43701 0.0
O15 O 0.02336 0.81815 0.57848 0.0
C16 C 0.99563 0.82844 0.6039 0.0
O17 O 0.97131 0.81596 0.54871 0.0
C18 C 0.98533 0.78899 0.24784 0.0
C19 C 0.95087 0.68106 0.15557 0.0
O20 O 0.93559 0.69489 0.09681 0.0
O21 O 0.95427 0.69576 0.24654 0.0
O22 O 0.76984 0.97294 0.38349 0.0
Cd23 Cd 0.82235 0.96353 0.4477 0.0
O24 O 0.76582 0.01914 0.48744 0.0
Cd25 Cd 0.73361 0.05616 0.56102 0.0
O26 O 0.68601 0.05525 0.61962 0.0
C27 C 0.6814 0.03314 0.66425 0.0
O28 O 0.70526 0.01443 0.674 0.0
C29 C 0.75399 0.99784 0.41818 0.0
C30 C 0.86956 0.98196 0.33406 0.0
O31 O 0.85474 0.95582 0.30429 0.0
O32 O 0.86236 0.9996 0.41854 0.0
O33 O 0.52131 0.70658 0.80744 0.0
Cd34 Cd 0.55335 0.75482 0.82761 0.0
O35 O 0.52665 0.71306 0.96823 0.0
Cd36 Cd 0.52948 0.69564 0.10381 0.0
O37 O 0.53577 0.66791 0.21507 0.0
C38 C 0.53813 0.63833 0.18105 0.0
O39 O 0.5369 0.62721 0.08454 0.0
C40 C 0.51747 0.69613 0.88527 0.0
C41 C 0.52605 0.81348 0.82671 0.0
O42 O 0.53443 0.79448 0.74575 0.0
O43 O 0.52901 0.80394 0.90762 0.0
O44 O 0.26697 0.50762 0.3163 0.0
Cd45 Cd 0.31996 0.49796 0.24722 0.0
O46 O 0.24803 0.47645 0.18129 0.0
Cd47 Cd 0.21248 0.44641 0.09011 0.0
O48 O 0.20115 0.40597 0.95811 0.0
C49 C 0.17843 0.40663 0.89655 0.0
O50 O 0.20192 0.40472 0.95715 0.0
C51 C 0.24348 0.49365 0.26739 0.0
C52 C 0.36208 0.49927 0.40392 0.0
O53 O 0.34591 0.47445 0.36671 0.0
O54 O 0.35902 0.52327 0.3652 0.0
O55 O 0.96552 0.22861 0.36595 0.0
Cd56 Cd 0.97837 0.27613 0.30942 0.0
O57 O 0.01462 0.22139 0.41395 0.0
Cd58 Cd 0.03688 0.25447 0.33833 0.0
O59 O 0.05354 0.21827 0.21516 0.0
C60 C 0.03281 0.20757 0.14903 0.0
O61 O 0.00582 0.22297 0.14999 0.0
C62 C 0.98545 0.21357 0.40738 0.0
C63 C 0.9901 0.32543 0.47345 0.0
O64 O 0.96171 0.31879 0.44134 0.0
O65 O 0.01289 0.30903 0.42703 0.0
O66 O 0.2136 0.9524 0.31034 0.0
Cd67 Cd 0.15811 0.94986 0.25894 0.0
O68 O 0.22271 0.99376 0.24848 0.0
Cd69 Cd 0.25474 0.03026 0.22241 0.0
O70 O 0.30136 0.03947 0.16901 0.0
C71 C 0.30664 0.0272 0.07813 0.0
O72 O 0.28328 0.01263 0.02265 0.0
C73 C 0.2325 0.97346 0.29527 0.0
C74 C 0.12319 0.97226 0.42995 0.0
O75 O 0.13207 0.94333 0.40522 0.0
O76 O 0.12999 0.99046 0.37203 0.0
O77 O 0.45688 0.30747 0.96347 0.0
Cd78 Cd 0.42945 0.26242 0.00333 0.0
O79 O 0.4344 0.29868 0.81541 0.0
Cd80 Cd 0.42613 0.31371 0.67619 0.0
O81 O 0.42176 0.34494 0.573 0.0
C82 C 0.44622 0.35972 0.55507 0.0
O83 O 0.47342 0.35501 0.59699 0.0
C84 C 0.45151 0.31591 0.88263 0.0
C85 C 0.45726 0.20265 0.94988 0.0
O86 O 0.4645 0.22175 0.03219 0.0
O87 O 0.43785 0.2124 0.89121 0.0
Tb88 Tb 0.9786 0.02156 0.86042 0.0
Tb89 Tb 0.03654 0.0045 0.00664 0.0
C90 C 0.96537 0.01061 0.072 0.0
C91 C 0.94296 0.06015 0.68104 0.0
C92 C 0.95295 0.10633 0.57102 0.0
C93 C 0.92305 0.0917 0.56926 0.0
C94 C 0.91803 0.06883 0.62467 0.0
C95 C 0.97297 0.07377 0.67933 0.0
C96 C 0.9779 0.09671 0.62562 0.0
C97 C 0.93814 0.03852 0.74705 0.0
O98 O 0.00944 0.06225 0.89813 0.0
O99 O 0.03072 0.05548 0.04506 0.0
O100 O 0.06127 0.01464 0.87979 0.0
O101 O 0.01946 0.0071 0.76693 0.0
O102 O 0.05455 0.00964 0.15193 0.0
O103 O 0.07839 0.98008 0.0276 0.0
O104 O 0.02278 0.96101 0.90417 0.0
O105 O 0.9717 0.97238 0.86294 0.0
O106 O 0.95856 0.02761 0.00745 0.0
O107 O 0.99176 0.99434 0.06865 0.0
C108 C 0.02307 0.0736 0.98418 0.0
O109 O 0.95394 0.01203 0.72379 0.0
O110 O 0.9411 0.05169 0.84132 0.0
C111 C 0.04992 0.00995 0.78847 0.0
C112 C 0.07216 0.95924 0.1698 0.0
C113 C 0.05444 0.90192 0.21729 0.0
C114 C 0.0797 0.9027 0.15209 0.0
C115 C 0.08853 0.93112 0.12875 0.0
C116 C 0.04922 0.95892 0.24319 0.0
C117 C 0.04046 0.9305 0.26664 0.0
C118 C 0.07506 0.98682 0.12385 0.0
C119 C 0.99474 0.95208 0.86558 0.0
H120 H 0.90357 0.09809 0.52595 0.0
H121 H 0.89473 0.05834 0.62465 0.0
H122 H 0.99245 0.06732 0.72234 0.0
H123 H 0.0011 0.10766 0.62956 0.0
H124 H 0.09141 0.88105 0.11491 0.0
H125 H 0.10666 0.93069 0.07329 0.0
H126 H 0.03641 0.9802 0.27765 0.0
H127 H 0.02111 0.93062 0.31792 0.0
Tb128 Tb 0.48132 1.00081 0.74792 0.0
Tb129 Tb 0.50944 0.01345 0.97702 0.0
C130 C 0.49999 0.94651 0.84584 0.0
C131 C 0.42383 0.98562 0.53508 0.0
C132 C 0.36137 0.98105 0.45566 0.0
C133 C 0.37319 0.95807 0.50352 0.0
C134 C 0.40397 0.96036 0.54304 0.0
C135 C 0.41226 0.0083 0.48547 0.0
C136 C 0.38132 0.00606 0.44619 0.0
C137 C 0.45668 0.98795 0.57592 0.0
O138 O 0.44173 0.99529 0.84254 0.0
O139 O 0.45924 0.0243 0.99409 0.0
O140 O 0.51091 0.05832 0.93217 0.0
O141 O 0.47044 0.0496 0.81726 0.0
O142 O 0.52319 0.99333 0.09555 0.0
O143 O 0.52639 0.04345 0.10869 0.0
O144 O 0.55017 0.00255 0.87972 0.0
O145 O 0.53004 0.01621 0.73973 0.0
O146 O 0.50542 0.95861 0.76918 0.0
O147 O 0.49252 0.96508 0.93111 0.0
C148 C 0.43625 0.01149 0.93348 0.0
O149 O 0.46695 0.01597 0.61952 0.0
O150 O 0.46502 0.9669 0.62507 0.0
C151 C 0.48906 0.06897 0.87938 0.0
C152 C 0.56529 0.01934 0.1921 0.0
C153 C 0.62659 0.01338 0.26956 0.0
C154 C 0.62266 0.02341 0.18038 0.0
C155 C 0.59221 0.02617 0.1415 0.0
C156 C 0.56916 0.01003 0.28219 0.0
C157 C 0.59957 0.00706 0.3207 0.0
C158 C 0.53317 0.02003 0.1497 0.0
C159 C 0.5542 0.01086 0.79488 0.0
H160 H 0.3587 0.93808 0.50969 0.0
H161 H 0.41216 0.94218 0.57953 0.0
H162 H 0.42712 0.02782 0.47724 0.0
H163 H 0.37285 0.02407 0.40941 0.0
H164 H 0.64317 0.02835 0.13961 0.0
H165 H 0.58971 0.03317 0.0714 0.0
H166 H 0.54864 0.0046 0.32207 0.0
H167 H 0.602 0.99973 0.3903 0.0
Tb168 Tb 0.46919 0.50693 0.95278 0.0
Tb169 Tb 0.52267 0.4941 0.77642 0.0
C170 C 0.45174 0.50185 0.72766 0.0
C171 C 0.42935 0.49094 0.17025 0.0
C172 C 0.43388 0.45021 0.30292 0.0
C173 C 0.4094 0.44643 0.23132 0.0
C174 C 0.40707 0.46668 0.16607 0.0
C175 C 0.45293 0.49567 0.24489 0.0
C176 C 0.45501 0.47563 0.31078 0.0
C177 C 0.42982 0.50854 0.09017 0.0
O178 O 0.49028 0.46093 0.94533 0.0
O179 O 0.50004 0.44941 0.77961 0.0
O180 O 0.54825 0.48907 0.90861 0.0
O181 O 0.5152 0.52034 0.02176 0.0
O182 O 0.53595 0.46831 0.63511 0.0
O183 O 0.56683 0.50411 0.72067 0.0
O184 O 0.51984 0.54513 0.83263 0.0
O185 O 0.47108 0.55211 0.91013 0.0
O186 O 0.44414 0.49355 0.81015 0.0
O187 O 0.48069 0.51026 0.71232 0.0
C188 C 0.49414 0.4403 0.86158 0.0
O189 O 0.45219 0.52951 0.09397 0.0
O190 O 0.42627 0.49119 0.0006 0.0
C191 C 0.54278 0.5067 0.99715 0.0
C192 C 0.55889 0.50473 0.55311 0.0
C193 C 0.55304 0.54819 0.43056 0.0
C194 C 0.582 0.54489 0.47886 0.0
C195 C 0.58493 0.52325 0.53934 0.0
C196 C 0.53024 0.50733 0.50219 0.0
C197 C 0.52741 0.52877 0.44141 0.0
C198 C 0.55986 0.48713 0.63255 0.0
C199 C 0.49591 0.56328 0.87197 0.0
H200 H 0.39264 0.42717 0.22348 0.0
H201 H 0.38857 0.46255 0.10954 0.0
H202 H 0.47035 0.51426 0.2508 0.0
H203 H 0.47339 0.47985 0.36736 0.0
H204 H 0.6022 0.55945 0.47146 0.0
H205 H 0.6071 0.52198 0.57881 0.0
H206 H 0.50947 0.49386 0.51267 0.0
H207 H 0.50471 0.53111 0.40618 0.0
Tb208 Tb 0.01857 0.50535 0.79933 0.0
Tb209 Tb 0.99176 0.48296 0.99665 0.0
C210 C 0.99604 0.55387 0.9872 0.0
C211 C 0.06756 0.51695 0.5873 0.0
C212 C 0.12232 0.50637 0.46897 0.0
C213 C 0.1041 0.53391 0.47515 0.0
C214 C 0.07686 0.53908 0.53365 0.0
C215 C 0.08555 0.48933 0.58115 0.0
C216 C 0.11271 0.48406 0.52225 0.0
C217 C 0.03951 0.52337 0.65085 0.0
O218 O 0.05923 0.50309 0.89644 0.0
O219 O 0.04093 0.46774 0.98402 0.0
O220 O 0.98895 0.44255 0.86939 0.0
O221 O 0.02864 0.45557 0.77311 0.0
O222 O 0.99184 0.48766 0.15158 0.0
O223 O 0.96085 0.45446 0.05624 0.0
O224 O 0.9512 0.50135 0.92996 0.0
O225 O 0.96921 0.49152 0.76988 0.0
O226 O 0.99467 0.54544 0.89024 0.0
O227 O 0.00273 0.53321 0.04048 0.0
C228 C 0.06434 0.48163 0.94848 0.0
O229 O 0.0198 0.49994 0.64488 0.0
O230 O 0.04476 0.53826 0.74266 0.0
C231 C 0.00896 0.43496 0.79497 0.0
C232 C 0.93923 0.48325 0.20379 0.0
C233 C 0.88025 0.50564 0.28586 0.0
C234 C 0.89338 0.47764 0.30375 0.0
C235 C 0.92267 0.46643 0.26258 0.0
C236 C 0.92678 0.51193 0.18948 0.0
C237 C 0.89759 0.52308 0.23046 0.0
C238 C 0.96718 0.46928 0.14719 0.0
C239 C 0.94587 0.49587 0.83398 0.0
H240 H 0.11138 0.55189 0.4371 0.0
H241 H 0.06331 0.56062 0.53826 0.0
H242 H 0.07874 0.47202 0.62248 0.0
H243 H 0.12636 0.46266 0.51892 0.0
H244 H 0.8803 0.46373 0.34571 0.0
H245 H 0.93177 0.44409 0.27344 0.0
H246 H 0.93909 0.52512 0.14355 0.0
H247 H 0.88815 0.54494 0.21672 0.0
C248 C 0.11116 0.96998 0.60469 0.0
C249 C 0.10614 0.98426 0.52394 0.0
C250 C 0.09448 0.98009 0.69369 0.0
C251 C 0.07183 0.00437 0.70399 0.0
H252 H 0.12786 0.95061 0.59876 0.0
H253 H 0.09816 0.96776 0.75282 0.0
S254 S 0.05066 0.05026 0.51687 0.0
N255 N 0.0779 0.02492 0.46203 0.0
N256 N 0.04597 0.04324 0.62841 0.0
C257 C 0.06712 0.01934 0.62497 0.0
C258 C 0.08448 0.00948 0.53511 0.0
C259 C 0.45375 0.14703 0.85064 0.0
C260 C 0.46868 0.16943 0.92679 0.0
C261 C 0.46116 0.11484 0.83442 0.0
C262 C 0.484 0.10359 0.89323 0.0
H263 H 0.43531 0.15419 0.80503 0.0
H264 H 0.44826 0.09862 0.77643 0.0
S265 S 0.53251 0.15299 0.09569 0.0
N266 N 0.50918 0.17844 0.05692 0.0
N267 N 0.52331 0.11798 0.02622 0.0
C268 C 0.50025 0.12592 0.9667 0.0
C269 C 0.49254 0.15878 0.98354 0.0
C270 C 0.4116 0.51849 0.49807 0.0
C271 C 0.38388 0.50017 0.48876 0.0
C272 C 0.43326 0.51888 0.57578 0.0
C273 C 0.42764 0.50158 0.64868 0.0
H274 H 0.41701 0.53205 0.44352 0.0
H275 H 0.45459 0.53295 0.57858 0.0
S276 S 0.3574 0.45127 0.66048 0.0
N277 N 0.35125 0.46509 0.56005 0.0
N278 N 0.39164 0.46633 0.70768 0.0
C279 C 0.39954 0.48378 0.64152 0.0
C280 C 0.37774 0.48297 0.56122 0.0
C281 C 0.97107 0.36439 0.62363 0.0
C282 C 0.9963 0.35149 0.56099 0.0
C283 C 0.97581 0.39023 0.70374 0.0
C284 C 0.00588 0.40434 0.72328 0.0
H285 H 0.94729 0.35485 0.60975 0.0
H286 H 0.95543 0.40015 0.74745 0.0
S287 S 0.08028 0.37847 0.58636 0.0
N288 N 0.05293 0.35381 0.5279 0.0
N289 N 0.06164 0.40259 0.67787 0.0
C290 C 0.03155 0.39104 0.6637 0.0
C291 C 0.02682 0.36455 0.58271 0.0
C292 C 0.88773 0.98741 0.1685 0.0
C293 C 0.89378 0.99156 0.27081 0.0
C294 C 0.9107 0.99503 0.10522 0.0
C295 C 0.94075 0.00608 0.14189 0.0
H296 H 0.86507 0.97817 0.13715 0.0
H297 H 0.90532 0.99119 0.02655 0.0
S298 S 0.9684 0.02118 0.40365 0.0
N299 N 0.93156 0.00837 0.40656 0.0
N300 N 0.97545 0.0212 0.28621 0.0
C301 C 0.94713 0.01047 0.24394 0.0
C302 C 0.92338 0.00364 0.30896 0.0
C303 C 0.51154 0.8681 0.91985 0.0
C304 C 0.5159 0.84643 0.8283 0.0
C305 C 0.50564 0.90018 0.92456 0.0
C306 C 0.50391 0.91202 0.83794 0.0
H307 H 0.51361 0.86047 0.98901 0.0
H308 H 0.50329 0.91592 0.9971 0.0
S309 S 0.51016 0.86471 0.5788 0.0
N310 N 0.51559 0.83883 0.64829 0.0
N311 N 0.50451 0.89902 0.65717 0.0
C312 C 0.50689 0.89043 0.74562 0.0
C313 C 0.51284 0.85771 0.74079 0.0
C314 C 0.59998 0.5101 0.21121 0.0
C315 C 0.6166 0.53838 0.21365 0.0
C316 C 0.57665 0.49913 0.13851 0.0
C317 C 0.56954 0.51594 0.06566 0.0
H318 H 0.60433 0.49679 0.26746 0.0
H319 H 0.56355 0.47792 0.14085 0.0
S320 S 0.6068 0.59001 0.0349 0.0
N321 N 0.62468 0.58219 0.13348 0.0
N322 N 0.58101 0.56119 0.99694 0.0
C323 C 0.58639 0.54359 0.06515 0.0
C324 C 0.60989 0.55495 0.13928 0.0
C325 C 0.96975 0.63876 0.01549 0.0
C326 C 0.96432 0.64916 0.11777 0.0
C327 C 0.98104 0.60835 0.97533 0.0
C328 C 0.98712 0.58678 0.03549 0.0
H329 H 0.9651 0.6542 0.96545 0.0
H330 H 0.98445 0.60165 0.89572 0.0
S331 S 0.97716 0.60255 0.30906 0.0
N332 N 0.96647 0.63589 0.27954 0.0
N333 N 0.9874 0.57831 0.20376 0.0
C334 C 0.98242 0.59705 0.13858 0.0
C335 C 0.9711 0.62831 0.17976 0.0
C336 C 0.99545 0.15943 0.43163 0.0
C337 C 0.97526 0.18583 0.4437 0.0
C338 C 0.98714 0.13312 0.46824 0.0
C339 C 0.95859 0.13243 0.5201 0.0
H340 H 0.01791 0.15911 0.39364 0.0
H341 H 0.00357 0.11339 0.45766 0.0
S342 S 0.89757 0.19587 0.57129 0.0
N343 N 0.92516 0.20957 0.50803 0.0
N344 N 0.91004 0.16062 0.58109 0.0
C345 C 0.93784 0.15847 0.53074 0.0
C346 C 0.94609 0.18507 0.49166 0.0
C347 C 0.29123 0.98005 0.27886 0.0
C348 C 0.26518 0.97492 0.33608 0.0
C349 C 0.32225 0.98227 0.31812 0.0
C350 C 0.32833 0.97887 0.41554 0.0
H351 H 0.28765 0.98179 0.20266 0.0
H352 H 0.34166 0.98613 0.27132 0.0
S353 S 0.26803 0.96506 0.59545 0.0
N354 N 0.2473 0.96654 0.49459 0.0
N355 N 0.30546 0.97019 0.5681 0.0
C356 C 0.30241 0.97327 0.47284 0.0
C357 C 0.2709 0.97129 0.43308 0.0
C358 C 0.49452 0.35632 0.89523 0.0
C359 C 0.46298 0.34683 0.8705 0.0
C360 C 0.5051 0.38642 0.8888 0.0
C361 C 0.48441 0.40768 0.85715 0.0
H362 H 0.51098 0.34051 0.92048 0.0
H363 H 0.52933 0.39331 0.91027 0.0
S364 S 0.39891 0.39582 0.79581 0.0
N365 N 0.41058 0.3624 0.82277 0.0
N366 N 0.4309 0.41825 0.8067 0.0
C367 C 0.4529 0.39863 0.83322 0.0
C368 C 0.44203 0.36833 0.84094 0.0
C369 C 0.20962 0.49131 0.41133 0.0
C370 C 0.21207 0.49568 0.31412 0.0
C371 C 0.18032 0.49406 0.45959 0.0
C372 C 0.15253 0.50191 0.41302 0.0
H373 H 0.23054 0.48569 0.45038 0.0
H374 H 0.17958 0.49081 0.53497 0.0
S375 S 0.14696 0.51739 0.16011 0.0
N376 N 0.18482 0.50882 0.17326 0.0
N377 N 0.12954 0.51457 0.26439 0.0
C378 C 0.15476 0.50653 0.31571 0.0
C379 C 0.18459 0.50318 0.266 0.0
C380 C 0.01671 0.83762 0.32465 0.0
C381 C 0.00585 0.8159 0.23927 0.0
C382 C 0.03337 0.86495 0.31736 0.0
C383 C 0.03994 0.8714 0.22433 0.0
H384 H 0.01101 0.83439 0.39771 0.0
H385 H 0.04056 0.88148 0.38499 0.0
S386 S 0.01625 0.82233 0.97824 0.0
N387 N 0.00288 0.80277 0.05886 0.0
N388 N 0.03384 0.85408 0.04511 0.0
C389 C 0.02957 0.84966 0.1384 0.0
C390 C 0.01254 0.82199 0.14589 0.0
C391 C 0.71162 0.03014 0.36048 0.0
C392 C 0.72138 1.00133 0.38137 0.0
C393 C 0.68094 0.03386 0.32399 0.0
C394 C 0.65887 0.009 0.30829 0.0
H395 H 0.72796 0.04983 0.37114 0.0
H396 H 0.67436 0.05641 0.30861 0.0
S397 S 0.67282 0.92877 0.35059 0.0
N398 N 0.70674 0.94745 0.38279 0.0
N399 N 0.64898 0.9545 0.31504 0.0
C400 C 0.66834 0.98009 0.329 0.0
C401 C 0.69966 0.9762 0.36498 0.0
C402 C 0.52231 0.63907 0.8042 0.0
C403 C 0.50799 0.66283 0.87682 0.0
C404 C 0.51753 0.60705 0.80208 0.0
C405 C 0.49772 0.5974 0.87137 0.0
H406 H 0.53851 0.64524 0.75114 0.0
H407 H 0.52995 0.58971 0.74637 0.0
S408 S 0.45189 0.6506 0.06988 0.0
N409 N 0.4713 0.6748 0.015 0.0
N410 N 0.46176 0.6145 0.01023 0.0
C411 C 0.48171 0.62097 0.94075 0.0
C412 C 0.48708 0.6537 0.94393 0.0
C413 C 0.80862 0.52845 0.45263 0.0
C414 C 0.78479 0.53343 0.38569 0.0
C415 C 0.83949 0.51937 0.42008 0.0
C416 C 0.84771 0.51564 0.31971 0.0
H417 H 0.80351 0.53213 0.53097 0.0
H418 H 0.85713 0.51564 0.47391 0.0
S419 S 0.79406 0.5259 0.11475 0.0
N420 N 0.77152 0.53398 0.21459 0.0
N421 N 0.82957 0.51734 0.15349 0.0
C422 C 0.82424 0.52103 0.25233 0.0
C423 C 0.79281 0.52998 0.28536 0.0
C424 C 0.05249 0.15254 0.13352 0.0
C425 C 0.03483 0.17435 0.09343 0.0
C426 C 0.0494 0.12 0.09539 0.0
C427 C 0.02887 0.10803 0.01494 0.0
H428 H 0.06741 0.16048 0.19862 0.0
H429 H 0.06249 0.10413 0.13139 0.0
S430 S 0.98055 0.15561 0.87527 0.0
N431 N -0.00153 0.18201 0.96336 0.0
N432 N 0.99277 0.12089 0.89065 0.0
C433 C 0.01272 0.12972 0.96991 0.0
C434 C 0.01567 0.16287 0.00946 0.0
C435 C 0.36545 0.02878 0.10559 0.0
C436 C 0.33941 0.02525 0.03935 0.0
C437 C 0.39667 0.02429 0.07073 0.0
C438 C 0.40304 0.01606 0.96832 0.0
H439 H 0.36173 0.03429 0.18513 0.0
H440 H 0.41589 0.02681 0.12466 0.0
S441 S 0.34351 0.00767 0.76427 0.0
N442 N 0.3222 0.01543 0.86664 0.0
N443 N 0.38087 0.00711 0.80106 0.0
C444 C 0.37729 0.01341 0.90128 0.0
C445 C 0.34549 0.01799 0.93681 0.0
C446 C 0.41398 0.39507 0.47199 0.0
C447 C 0.4438 0.38265 0.49048 0.0
C448 C 0.411 0.41685 0.41155 0.0
C449 C 0.43771 0.42728 0.36759 0.0
H450 H 0.39271 0.38812 0.50505 0.0
H451 H 0.38756 0.42574 0.39978 0.0
S452 S 0.52089 0.4 0.38569 0.0
N453 N 0.50046 0.38126 0.45591 0.0
N454 N 0.49477 0.42185 0.34151 0.0
C455 C 0.46764 0.41469 0.38426 0.0
C456 C 0.4707 0.39253 0.44594 0.0
C457 C 0.1423 0.44544 0.84758 0.0
C458 C 0.15285 0.43022 0.92121 0.0
C459 C 0.11496 0.46436 0.86108 0.0
C460 C 0.09646 0.46765 0.94721 0.0
H461 H 0.15481 0.44199 0.77771 0.0
H462 H 0.10715 0.47471 0.80057 0.0
S463 S 0.11437 0.43289 0.16325 0.0
N464 N 0.14378 0.42068 0.08541 0.0
N465 N 0.0912 0.45479 0.1086 0.0
C466 C 0.10717 0.45303 0.02249 0.0
C467 C 0.1357 0.43467 0.01013 0.0
C468 C 0.01626 0.86717 0.75215 0.0
C469 C 0.99165 0.85743 0.68279 0.0
C470 C 0.01581 0.89708 0.81628 0.0
C471 C 0.99089 0.91859 0.81277 0.0
H472 H 0.03668 0.85207 0.7544 0.0
H473 H 0.03601 0.90382 0.86559 0.0
S474 S 0.91864 0.90288 0.65294 0.0
N475 N 0.93995 0.87024 0.62133 0.0
N476 N 0.93924 0.92663 0.74118 0.0
C477 C 0.96494 0.90823 0.74886 0.0
C478 C 0.9653 0.8776 0.68394 0.0
C479 C 0.6223 0.03735 0.65487 0.0
C480 C 0.6494 0.02734 0.6996 0.0
C481 C 0.59169 0.03137 0.68499 0.0
C482 C 0.58695 0.01545 0.76182 0.0
H483 H 0.6247 0.04957 0.59519 0.0
H484 H 0.57162 0.03968 0.64826 0.0
S485 S 0.65035 0.98464 0.90371 0.0
N486 N 0.66973 1.00083 0.82467 0.0
N487 N 0.61227 0.9897 0.88185 0.0
C488 C 0.61395 0.00532 0.80726 0.0
C489 C 0.64513 0.01121 0.77594 0.0
C490 C 0.53107 0.58513 0.21549 0.0
C491 C 0.54157 0.61643 0.24788 0.0
C492 C 0.53461 0.56337 0.27543 0.0
C493 C 0.54919 0.57198 0.36958 0.0
H494 H 0.51991 0.5774 0.1432 0.0
H495 H 0.5263 0.53946 0.24706 0.0
S496 S 0.5784 0.65181 0.49246 0.0
N497 N 0.56557 0.65555 0.38241 0.0
N498 N 0.57214 0.61458 0.49555 0.0
C499 C 0.55912 0.60344 0.40401 0.0
C500 C 0.55527 0.62571 0.34314 0.0
C501 C 0.85711 0.51002 0.82358 0.0
C502 C 0.84868 0.49351 0.727 0.0
C503 C 0.88852 0.51026 0.85823 0.0
C504 C 0.91274 0.49436 0.79706 0.0
H505 H 0.8394 0.52322 0.87267 0.0
H506 H 0.89393 0.52361 0.93271 0.0
S507 S 0.903 0.4456 0.5409 0.0
N508 N 0.86702 0.45931 0.57261 0.0
N509 N 0.92601 0.45998 0.63776 0.0
C510 C 0.90458 0.47705 0.70135 0.0
C511 C 0.87254 0.47651 0.66636 0.0
loop_
_geom_bond_atom_site_label_1
_geom_bond_atom_site_label_2
_geom_bond_distance
_geom_bond_site_symmetry_2
_ccdc_geom_bond_type
O0 Cd1 2.300 . S
O0 C7 1.275 . S
Cd1 O0 2.300 . S
Cd1 O9 2.381 . S
Cd1 O10 2.378 . S
O2 Cd3 2.385 . S
O2 C7 1.255 . S
Cd3 O2 2.385 . S
Cd3 O4 2.317 . S
O4 Cd3 2.317 . S
O4 C5 1.232 . S
C5 O4 1.232 . S
C5 O6 1.218 . S
O6 C5 1.218 . S
C7 O0 1.275 . S
C7 O2 1.255 . S
C8 O9 1.258 . S
C8 O10 1.256 . S
O9 Cd1 2.381 . S
O9 C8 1.258 . S
O10 Cd1 2.378 . S
O10 C8 1.256 . S
O11 Cd12 2.300 1_655 S
O11 C18 1.275 1_655 S
Cd12 O11 2.300 1_455 S
Cd12 O20 2.381 1_455 S
Cd12 O21 2.378 . S
O13 Cd14 2.385 . S
O13 C18 1.255 . S
Cd14 O13 2.385 . S
Cd14 O15 2.317 . S
O15 Cd14 2.317 . S
O15 C16 1.232 . S
C16 O15 1.232 . S
C16 O17 1.218 . S
O17 C16 1.218 . S
C18 O11 1.275 1_455 S
C18 O13 1.255 . S
C19 O20 1.258 1_455 S
C19 O21 1.256 . S
O20 Cd12 2.381 1_655 S
O20 C19 1.258 1_655 S
O21 Cd12 2.378 . S
O21 C19 1.256 . S
O22 Cd23 2.300 1_565 S
O22 C29 1.275 1_565 S
Cd23 O22 2.300 1_545 S
Cd23 O31 2.381 1_545 S
Cd23 O32 2.378 . S
O24 Cd25 2.385 . S
O24 C29 1.255 . S
Cd25 O24 2.385 . S
Cd25 O26 2.317 . S
O26 Cd25 2.317 . S
O26 C27 1.232 . S
C27 O26 1.232 . S
C27 O28 1.218 . S
O28 C27 1.218 . S
C29 O22 1.275 1_545 S
C29 O24 1.255 . S
C30 O31 1.258 1_545 S
C30 O32 1.256 . S
O31 Cd23 2.381 1_565 S
O31 C30 1.258 1_565 S
O32 Cd23 2.378 . S
O32 C30 1.256 . S
O33 Cd34 2.300 . S
O33 C40 1.275 . S
Cd34 O33 2.300 . S
Cd34 O42 2.381 . S
Cd34 O43 2.378 . S
O35 Cd36 2.385 1_556 S
O35 C40 1.255 . S
Cd36 O35 2.385 1_554 S
Cd36 O37 2.317 . S
O37 Cd36 2.317 . S
O37 C38 1.232 . S
C38 O37 1.232 . S
C38 O39 1.218 . S
O39 C38 1.218 . S
C40 O33 1.275 . S
C40 O35 1.255 . S
C41 O42 1.258 . S
C41 O43 1.256 . S
O42 Cd34 2.381 . S
O42 C41 1.258 . S
O43 Cd34 2.378 . S
O43 C41 1.256 . S
O44 Cd45 2.300 . S
O44 C51 1.275 . S
Cd45 O44 2.300 . S
Cd45 O53 2.381 . S
Cd45 O54 2.378 . S
O46 Cd47 2.385 . S
O46 C51 1.255 . S
Cd47 O46 2.385 . S
Cd47 O48 2.317 . S
O48 Cd47 2.317 . S
O48 C49 1.232 . S
C49 O48 1.232 . S
C49 O50 1.218 . S
O50 C49 1.218 . S
C51 O44 1.275 . S
C51 O46 1.255 . S
C52 O53 1.258 . S
C52 O54 1.256 . S
O53 Cd45 2.381 . S
O53 C52 1.258 . S
O54 Cd45 2.378 . S
O54 C52 1.256 . S
O55 Cd56 2.300 1_655 S
O55 C62 1.275 1_655 S
Cd56 O55 2.300 1_455 S
Cd56 O64 2.381 1_455 S
Cd56 O65 2.378 . S
O57 Cd58 2.385 . S
O57 C62 1.255 . S
Cd58 O57 2.385 . S
Cd58 O59 2.317 . S
O59 Cd58 2.317 . S
O59 C60 1.232 . S
C60 O59 1.232 . S
C60 O61 1.218 . S
O61 C60 1.218 . S
C62 O55 1.275 1_455 S
C62 O57 1.255 . S
C63 O64 1.258 1_455 S
C63 O65 1.256 . S
O64 Cd56 2.381 1_655 S
O64 C63 1.258 1_655 S
O65 Cd56 2.378 . S
O65 C63 1.256 . S
O66 Cd67 2.300 1_565 S
O66 C73 1.275 1_565 S
Cd67 O66 2.300 1_545 S
Cd67 O75 2.381 1_545 S
Cd67 O76 2.378 . S
O68 Cd69 2.385 . S
O68 C73 1.255 . S
Cd69 O68 2.385 . S
Cd69 O70 2.317 . S
O70 Cd69 2.317 . S
O70 C71 1.232 . S
C71 O70 1.232 . S
C71 O72 1.218 . S
O72 C71 1.218 . S
C73 O66 1.275 1_545 S
C73 O68 1.255 . S
C74 O75 1.258 1_545 S
C74 O76 1.256 . S
O75 Cd67 2.381 1_565 S
O75 C74 1.258 1_565 S
O76 Cd67 2.378 . S
O76 C74 1.256 . S
O77 Cd78 2.300 . S
O77 C84 1.275 . S
Cd78 O77 2.300 . S
Cd78 O86 2.381 . S
Cd78 O87 2.378 . S
O79 Cd80 2.385 . S
O79 C84 1.255 . S
Cd80 O79 2.385 . S
Cd80 O81 2.317 . S
O81 Cd80 2.317 . S
O81 C82 1.232 . S
C82 O81 1.232 . S
C82 O83 1.218 . S
O83 C82 1.218 . S
C84 O77 1.275 . S
C84 O79 1.255 . S
C85 O86 1.258 . S
C85 O87 1.256 . S
O86 Cd78 2.381 . S
O86 C85 1.258 . S
O87 Cd78 2.378 . S
O87 C85 1.256 . S
Tb88 C97 2.764 . S
Tb88 O98 2.325 . S
Tb88 O101 2.303 1_655 S
Tb88 O105 2.322 1_545 S
Tb88 O106 2.349 . S
Tb88 O109 2.415 . S
Tb88 O110 2.399 . S
Tb89 O99 2.322 1_565 S
Tb89 O100 2.349 . S
Tb89 O102 2.415 1_556 S
Tb89 O103 2.399 1_556 S
Tb89 O104 2.325 . S
Tb89 O107 2.303 1_455 S
Tb89 C118 2.764 1_556 S
C90 O106 1.261 . S
C90 O107 1.257 1_545 S
C91 C94 1.358 . S
C91 C95 1.332 . S
C91 C97 1.504 . S
C92 C93 1.373 . S
C92 C96 1.308 . S
C93 C92 1.373 . S
C93 C94 1.429 . S
C93 H120 0.932 . S
C94 C91 1.358 . S
C94 C93 1.429 . S
C94 H121 0.930 . S
C95 C91 1.332 . S
C95 C96 1.394 . S
C95 H122 0.932 1_655 S
C96 C92 1.308 . S
C96 C95 1.394 . S
C96 H123 0.929 . S
C97 Tb88 2.764 . S
C97 C91 1.504 . S
C97 O109 1.239 . S
C97 O110 1.263 . S
O98 Tb88 2.325 . S
O98 C108 1.236 1_655 S
O99 Tb89 2.322 1_545 S
O99 C108 1.257 . S
O100 Tb89 2.349 . S
O100 C111 1.282 . S
O101 Tb88 2.303 1_455 S
O101 C111 1.251 1_545 S
O102 Tb89 2.415 1_554 S
O102 C118 1.239 . S
O103 Tb89 2.399 1_554 S
O103 C118 1.263 . S
O104 Tb89 2.325 . S
O104 C119 1.236 1_455 S
O105 Tb88 2.322 1_565 S
O105 C119 1.257 . S
O106 Tb88 2.349 . S
O106 C90 1.261 . S
O107 Tb89 2.303 1_655 S
O107 C90 1.257 1_565 S
C108 O98 1.236 1_455 S
C108 O99 1.257 . S
O109 Tb88 2.415 . S
O109 C97 1.239 . S
O110 Tb88 2.399 . S
O110 C97 1.263 . S
C111 O100 1.282 . S
C111 O101 1.251 1_565 S
C112 C115 1.358 . S
C112 C116 1.332 . S
C112 C118 1.504 . S
C113 C114 1.373 . S
C113 C117 1.308 . S
C114 C113 1.373 . S
C114 C115 1.429 . S
C114 H124 0.932 . S
C115 C112 1.358 . S
C115 C114 1.429 . S
C115 H125 0.930 . S
C116 C112 1.332 . S
C116 C117 1.394 . S
C116 H126 0.932 1_455 S
C117 C113 1.308 . S
C117 C116 1.394 . S
C117 H127 0.929 . S
C118 Tb89 2.764 1_554 S
C118 O102 1.239 . S
C118 O103 1.263 . S
C118 C112 1.504 . S
C119 O104 1.236 1_655 S
C119 O105 1.257 . S
H120 C93 0.932 . S
H121 C94 0.930 . S
H122 C95 0.932 1_455 S
H123 C96 0.929 . S
H124 C114 0.932 . S
H125 C115 0.930 . S
H126 C116 0.932 1_655 S
H127 C117 0.929 . S
Tb128 C137 2.764 . S
Tb128 O138 2.325 . S
Tb128 O141 2.303 1_565 S
Tb128 O145 2.322 . S
Tb128 O146 2.349 . S
Tb128 O149 2.415 1_565 S
Tb128 O150 2.399 . S
Tb129 O139 2.322 . S
Tb129 O140 2.349 1_554 S
Tb129 O142 2.415 1_545 S
Tb129 O143 2.399 . S
Tb129 O144 2.325 1_554 S
Tb129 O147 2.303 1_544 S
Tb129 C158 2.764 . S
C130 O146 1.261 . S
C130 O147 1.257 . S
C131 C134 1.358 . S
C131 C135 1.332 1_565 S
C131 C137 1.504 . S
C132 C133 1.373 . S
C132 C136 1.308 1_565 S
C133 C132 1.373 . S
C133 C134 1.429 . S
C133 H160 0.932 . S
C134 C131 1.358 . S
C134 C133 1.429 . S
C134 H161 0.930 . S
C135 C131 1.332 1_545 S
C135 C136 1.394 . S
C135 H162 0.932 . S
C136 C132 1.308 1_545 S
C136 C135 1.394 . S
C136 H163 0.929 . S
C137 Tb128 2.764 . S
C137 C131 1.504 . S
C137 O149 1.239 1_565 S
C137 O150 1.263 . S
O138 Tb128 2.325 . S
O138 C148 1.236 1_565 S
O139 Tb129 2.322 . S
O139 C148 1.257 1_554 S
O140 Tb129 2.349 1_556 S
O140 C151 1.261 . S
O141 Tb128 2.303 1_545 S
O141 C151 1.257 . S
O142 Tb129 2.415 1_565 S
O142 C158 1.239 1_565 S
O143 Tb129 2.399 . S
O143 C158 1.263 . S
O144 Tb129 2.325 1_556 S
O144 C159 1.236 1_545 S
O145 Tb128 2.322 . S
O145 C159 1.257 . S
O146 Tb128 2.349 . S
O146 C130 1.261 . S
O147 Tb129 2.303 1_566 S
O147 C130 1.257 . S
C148 O138 1.236 1_545 S
C148 O139 1.257 1_556 S
O149 Tb128 2.415 1_545 S
O149 C137 1.239 1_545 S
O150 Tb128 2.399 . S
O150 C137 1.263 . S
C151 O140 1.261 . S
C151 O141 1.257 . S
C152 C155 1.358 . S
C152 C156 1.332 1_545 S
C152 C158 1.504 . S
C153 C154 1.373 . S
C153 C157 1.308 1_545 S
C154 C153 1.373 . S
C154 C155 1.429 . S
C154 H164 0.932 . S
C155 C152 1.358 . S
C155 C154 1.429 . S
C155 H165 0.930 . S
C156 C152 1.332 1_565 S
C156 C157 1.394 . S
C156 H166 0.932 . S
C157 C153 1.308 1_565 S
C157 C156 1.394 . S
C157 H167 0.929 . S
C158 Tb129 2.764 . S
C158 O142 1.239 1_545 S
C158 O143 1.263 . S
C158 C152 1.504 . S
C159 O144 1.236 1_565 S
C159 O145 1.257 . S
H160 C133 0.932 . S
H161 C134 0.930 . S
H162 C135 0.932 . S
H163 C136 0.929 . S
H164 C154 0.932 . S
H165 C155 0.930 . S
H166 C156 0.932 . S
H167 C157 0.929 . S
Tb168 C177 2.764 1_556 S
Tb168 O178 2.325 . S
Tb168 O181 2.303 . S
Tb168 O185 2.322 . S
Tb168 O186 2.349 . S
Tb168 O189 2.415 1_556 S
Tb168 O190 2.399 1_556 S
Tb169 O179 2.322 . S
Tb169 O180 2.349 . S
Tb169 O182 2.415 . S
Tb169 O183 2.399 . S
Tb169 O184 2.325 . S
Tb169 O187 2.303 . S
Tb169 C198 2.764 . S
C170 O186 1.261 . S
C170 O187 1.257 . S
C171 C174 1.358 . S
C171 C175 1.332 . S
C171 C177 1.504 . S
C172 C173 1.373 . S
C172 C176 1.308 . S
C173 C172 1.373 . S
C173 C174 1.429 . S
C173 H200 0.932 . S
C174 C171 1.358 . S
C174 C173 1.429 . S
C174 H201 0.930 . S
C175 C171 1.332 . S
C175 C176 1.394 . S
C175 H202 0.932 . S
C176 C172 1.308 . S
C176 C175 1.394 . S
C176 H203 0.929 . S
C177 Tb168 2.764 1_554 S
C177 C171 1.504 . S
C177 O189 1.239 . S
C177 O190 1.263 . S
O178 Tb168 2.325 . S
O178 C188 1.236 . S
O179 Tb169 2.322 . S
O179 C188 1.257 . S
O180 Tb169 2.349 . S
O180 C191 1.261 . S
O181 Tb168 2.303 . S
O181 C191 1.257 . S
O182 Tb169 2.415 . S
O182 C198 1.239 . S
O183 Tb169 2.399 . S
O183 C198 1.263 . S
O184 Tb169 2.325 . S
O184 C199 1.236 . S
O185 Tb168 2.322 . S
O185 C199 1.257 . S
O186 Tb168 2.349 . S
O186 C170 1.261 . S
O187 Tb169 2.303 . S
O187 C170 1.257 . S
C188 O178 1.236 . S
C188 O179 1.257 . S
O189 Tb168 2.415 1_554 S
O189 C177 1.239 . S
O190 Tb168 2.399 1_554 S
O190 C177 1.263 . S
C191 O180 1.261 . S
C191 O181 1.257 . S
C192 C195 1.358 . S
C192 C196 1.332 . S
C192 C198 1.504 . S
C193 C194 1.373 . S
C193 C197 1.308 . S
C194 C193 1.373 . S
C194 C195 1.429 . S
C194 H204 0.932 . S
C195 C192 1.358 . S
C195 C194 1.429 . S
C195 H205 0.930 . S
C196 C192 1.332 . S
C196 C197 1.394 . S
C196 H206 0.932 . S
C197 C193 1.308 . S
C197 C196 1.394 . S
C197 H207 0.929 . S
C198 Tb169 2.764 . S
C198 O182 1.239 . S
C198 O183 1.263 . S
C198 C192 1.504 . S
C199 O184 1.236 . S
C199 O185 1.257 . S
H200 C173 0.932 . S
H201 C174 0.930 . S
H202 C175 0.932 . S
H203 C176 0.929 . S
H204 C194 0.932 . S
H205 C195 0.930 . S
H206 C196 0.932 . S
H207 C197 0.929 . S
Tb208 C217 2.764 . S
Tb208 O218 2.325 . S
Tb208 O221 2.303 . S
Tb208 O225 2.322 1_455 S
Tb208 O226 2.349 . S
Tb208 O229 2.415 . S
Tb208 O230 2.399 . S
Tb209 O219 2.322 1_655 S
Tb209 O220 2.349 . S
Tb209 O222 2.415 1_556 S
Tb209 O223 2.399 1_556 S
Tb209 O224 2.325 . S
Tb209 O227 2.303 . S
Tb209 C238 2.764 1_556 S
C210 O226 1.261 . S
C210 O227 1.257 1_455 S
C211 C214 1.358 . S
C211 C215 1.332 . S
C211 C217 1.504 . S
C212 C213 1.373 . S
C212 C216 1.308 . S
C213 C212 1.373 . S
C213 C214 1.429 . S
C213 H240 0.932 . S
C214 C211 1.358 . S
C214 C213 1.429 . S
C214 H241 0.930 . S
C215 C211 1.332 . S
C215 C216 1.394 . S
C215 H242 0.932 . S
C216 C212 1.308 . S
C216 C215 1.394 . S
C216 H243 0.929 . S
C217 Tb208 2.764 . S
C217 C211 1.504 . S
C217 O229 1.239 . S
C217 O230 1.263 . S
O218 Tb208 2.325 . S
O218 C228 1.236 . S
O219 Tb209 2.322 1_455 S
O219 C228 1.257 . S
O220 Tb209 2.349 . S
O220 C231 1.261 . S
O221 Tb208 2.303 . S
O221 C231 1.257 1_455 S
O222 Tb209 2.415 1_554 S
O222 C238 1.239 . S
O223 Tb209 2.399 1_554 S
O223 C238 1.263 . S
O224 Tb209 2.325 . S
O224 C239 1.236 . S
O225 Tb208 2.322 1_655 S
O225 C239 1.257 . S
O226 Tb208 2.349 . S
O226 C210 1.261 . S
O227 Tb209 2.303 . S
O227 C210 1.257 1_655 S
C228 O218 1.236 . S
C228 O219 1.257 . S
O229 Tb208 2.415 . S
O229 C217 1.239 . S
O230 Tb208 2.399 . S
O230 C217 1.263 . S
C231 O220 1.261 . S
C231 O221 1.257 1_655 S
C232 C235 1.358 . S
C232 C236 1.332 . S
C232 C238 1.504 . S
C233 C234 1.373 . S
C233 C237 1.308 . S
C234 C233 1.373 . S
C234 C235 1.429 . S
C234 H244 0.932 . S
C235 C232 1.358 . S
C235 C234 1.429 . S
C235 H245 0.930 . S
C236 C232 1.332 . S
C236 C237 1.394 . S
C236 H246 0.932 . S
C237 C233 1.308 . S
C237 C236 1.394 . S
C237 H247 0.929 . S
C238 Tb209 2.764 1_554 S
C238 O222 1.239 . S
C238 O223 1.263 . S
C238 C232 1.504 . S
C239 O224 1.236 . S
C239 O225 1.257 . S
H240 C213 0.932 . S
H241 C214 0.930 . S
H242 C215 0.932 . S
H243 C216 0.929 . S
H244 C234 0.932 . S
H245 C235 0.930 . S
H246 C236 0.932 . S
H247 C237 0.929 . S
C248 C249 1.369 1_565 S
C248 C250 1.419 . S
C248 H252 0.930 . S
C249 C248 1.369 1_545 S
C249 C258 1.429 . S
C250 C248 1.419 . S
C250 C251 1.363 1_565 S
C250 H253 0.929 . S
C251 C250 1.363 1_545 S
C251 C257 1.428 . S
H252 C248 0.930 . S
H253 C250 0.929 . S
S254 N255 1.613 . S
S254 N256 1.610 . S
N255 S254 1.613 . S
N255 C258 1.350 . S
N256 S254 1.610 . S
N256 C257 1.351 . S
C257 C251 1.428 . S
C257 N256 1.351 . S
C257 C258 1.434 . S
C258 C249 1.429 . S
C258 N255 1.350 . S
C258 C257 1.434 . S
C259 C260 1.369 . S
C259 C261 1.419 . S
C259 H263 0.930 . S
C260 C259 1.369 . S
C260 C269 1.429 . S
C261 C259 1.419 . S
C261 C262 1.363 . S
C261 H264 0.929 . S
C262 C261 1.363 . S
C262 C268 1.428 . S
H263 C259 0.930 . S
H264 C261 0.929 . S
S265 N266 1.613 . S
S265 N267 1.610 . S
N266 S265 1.613 . S
N266 C269 1.350 . S
N267 S265 1.610 . S
N267 C268 1.351 . S
C268 C262 1.428 . S
C268 N267 1.351 . S
C268 C269 1.434 . S
C269 C260 1.429 . S
C269 N266 1.350 . S
C269 C268 1.434 . S
C270 C271 1.369 . S
C270 C272 1.419 . S
C270 H274 0.930 . S
C271 C270 1.369 . S
C271 C280 1.429 . S
C272 C270 1.419 . S
C272 C273 1.363 . S
C272 H275 0.929 . S
C273 C272 1.363 . S
C273 C279 1.428 . S
H274 C270 0.930 . S
H275 C272 0.929 . S
S276 N277 1.613 . S
S276 N278 1.610 . S
N277 S276 1.613 . S
N277 C280 1.350 . S
N278 S276 1.610 . S
N278 C279 1.351 . S
C279 C273 1.428 . S
C279 N278 1.351 . S
C279 C280 1.434 . S
C280 C271 1.429 . S
C280 N277 1.350 . S
C280 C279 1.434 . S
C281 C282 1.353 1_655 S
C281 C283 1.419 . S
C281 H285 0.930 . S
C282 C281 1.353 1_455 S
C282 C291 1.446 . S
C283 C281 1.419 . S
C283 C284 1.363 1_655 S
C283 H286 0.929 . S
C284 C283 1.363 1_455 S
C284 C290 1.428 . S
H285 C281 0.930 . S
H286 C283 0.929 . S
S287 N288 1.613 . S
S287 N289 1.610 . S
N288 S287 1.613 . S
N288 C291 1.350 . S
N289 S287 1.610 . S
N289 C290 1.351 . S
C290 C284 1.428 . S
C290 N289 1.351 . S
C290 C291 1.434 . S
C291 C282 1.446 . S
C291 N288 1.350 . S
C291 C290 1.434 . S
C292 C293 1.368 . S
C292 C294 1.419 . S
C292 H296 0.930 . S
C293 C292 1.368 . S
C293 C302 1.425 1_565 S
C294 C292 1.419 . S
C294 C295 1.363 . S
C294 H297 0.929 . S
C295 C294 1.363 . S
C295 C301 1.428 1_565 S
H296 C292 0.930 . S
H297 C294 0.929 . S
S298 N299 1.613 . S
S298 N300 1.610 . S
N299 S298 1.613 . S
N299 C302 1.350 . S
N300 S298 1.610 . S
N300 C301 1.351 . S
C301 C295 1.428 1_545 S
C301 N300 1.351 . S
C301 C302 1.434 . S
C302 C293 1.425 1_545 S
C302 N299 1.350 . S
C302 C301 1.434 . S
C303 C304 1.369 . S
C303 C305 1.419 . S
C303 H307 0.930 1_556 S
C304 C303 1.369 . S
C304 C313 1.429 . S
C305 C303 1.419 . S
C305 C306 1.363 . S
C305 H308 0.929 1_556 S
C306 C305 1.363 . S
C306 C312 1.428 . S
H307 C303 0.930 1_554 S
H308 C305 0.929 1_554 S
S309 N310 1.613 . S
S309 N311 1.610 . S
N310 S309 1.613 . S
N310 C313 1.350 . S
N311 S309 1.610 . S
N311 C312 1.351 . S
C312 C306 1.428 . S
C312 N311 1.351 . S
C312 C313 1.434 . S
C313 C304 1.429 . S
C313 N310 1.350 . S
C313 C312 1.434 . S
C314 C315 1.369 . S
C314 C316 1.419 . S
C314 H318 0.930 . S
C315 C314 1.369 . S
C315 C324 1.429 . S
C316 C314 1.419 . S
C316 C317 1.363 . S
C316 H319 0.929 . S
C317 C316 1.363 . S
C317 C323 1.428 . S
H318 C314 0.930 . S
H319 C316 0.929 . S
S320 N321 1.613 . S
S320 N322 1.610 . S
N321 S320 1.613 . S
N321 C324 1.350 . S
N322 S320 1.610 . S
N322 C323 1.351 . S
C323 C317 1.428 . S
C323 N322 1.351 . S
C323 C324 1.434 . S
C324 C315 1.429 . S
C324 N321 1.350 . S
C324 C323 1.434 . S
C325 C326 1.365 1_455 S
C325 C327 1.419 . S
C325 H329 0.930 . S
C326 C325 1.365 1_655 S
C326 C335 1.433 . S
C327 C325 1.419 . S
C327 C328 1.348 1_455 S
C327 H330 0.929 . S
C328 C327 1.348 1_655 S
C328 C334 1.443 . S
H329 C325 0.930 . S
H330 C327 0.929 . S
S331 N332 1.613 . S
S331 N333 1.610 . S
N332 S331 1.613 . S
N332 C335 1.350 . S
N333 S331 1.610 . S
N333 C334 1.351 . S
C334 C328 1.443 . S
C334 N333 1.351 . S
C334 C335 1.434 . S
C335 C326 1.433 . S
C335 N332 1.350 . S
C335 C334 1.434 . S
C336 C337 1.369 . S
C336 C338 1.419 . S
C336 H340 0.930 1_655 S
C337 C336 1.369 . S
C337 C346 1.429 . S
C338 C336 1.419 . S
C338 C339 1.363 . S
C338 H341 0.929 . S
C339 C338 1.363 . S
C339 C345 1.428 . S
H340 C336 0.930 1_455 S
H341 C338 0.929 . S
S342 N343 1.613 . S
S342 N344 1.610 . S
N343 S342 1.613 . S
N343 C346 1.350 . S
N344 S342 1.610 . S
N344 C345 1.351 . S
C345 C339 1.428 . S
C345 N344 1.351 . S
C345 C346 1.434 . S
C346 C337 1.429 . S
C346 N343 1.350 . S
C346 C345 1.434 . S
C347 C348 1.369 . S
C347 C349 1.419 1_545 S
C347 H351 0.930 . S
C348 C347 1.369 . S
C348 C357 1.429 1_545 S
C349 C347 1.419 1_565 S
C349 C350 1.363 . S
C349 H352 0.929 . S
C350 C349 1.363 . S
C350 C356 1.428 . S
H351 C347 0.930 . S
H352 C349 0.929 . S
S353 N354 1.613 . S
S353 N355 1.610 . S
N354 S353 1.613 . S
N354 C357 1.350 . S
N355 S353 1.610 . S
N355 C356 1.351 . S
C356 C350 1.428 . S
C356 N355 1.351 . S
C356 C357 1.434 . S
C357 C348 1.429 1_565 S
C357 N354 1.350 . S
C357 C356 1.434 . S
C358 C359 1.369 . S
C358 C360 1.419 . S
C358 H362 0.930 . S
C359 C358 1.369 . S
C359 C368 1.429 . S
C360 C358 1.419 . S
C360 C361 1.363 . S
C360 H363 0.929 . S
C361 C360 1.363 . S
C361 C367 1.428 . S
H362 C358 0.930 . S
H363 C360 0.929 . S
S364 N365 1.613 . S
S364 N366 1.610 . S
N365 S364 1.613 . S
N365 C368 1.350 . S
N366 S364 1.610 . S
N366 C367 1.351 . S
C367 C361 1.428 . S
C367 N366 1.351 . S
C367 C368 1.434 . S
C368 C359 1.429 . S
C368 N365 1.350 . S
C368 C367 1.434 . S
C369 C370 1.369 . S
C369 C371 1.419 . S
C369 H373 0.930 . S
C370 C369 1.369 . S
C370 C379 1.429 . S
C371 C369 1.419 . S
C371 C372 1.363 . S
C371 H374 0.929 . S
C372 C371 1.363 . S
C372 C378 1.428 . S
H373 C369 0.930 . S
H374 C371 0.929 . S
S375 N376 1.613 . S
S375 N377 1.610 . S
N376 S375 1.613 . S
N376 C379 1.350 . S
N377 S375 1.610 . S
N377 C378 1.351 . S
C378 C372 1.428 . S
C378 N377 1.351 . S
C378 C379 1.434 . S
C379 C370 1.429 . S
C379 N376 1.350 . S
C379 C378 1.434 . S
C380 C381 1.369 . S
C380 C382 1.419 . S
C380 H384 0.930 . S
C381 C380 1.369 . S
C381 C390 1.429 1_455 S
C382 C380 1.419 . S
C382 C383 1.363 . S
C382 H385 0.929 . S
C383 C382 1.363 . S
C383 C389 1.428 . S
H384 C380 0.930 . S
H385 C382 0.929 . S
S386 N387 1.613 . S
S386 N388 1.609 1_655 S
N387 S386 1.613 . S
N387 C390 1.350 . S
N388 S386 1.609 1_455 S
N388 C389 1.352 . S
C389 C383 1.428 . S
C389 N388 1.352 . S
C389 C390 1.434 1_455 S
C390 C381 1.429 1_655 S
C390 N387 1.350 . S
C390 C389 1.434 1_655 S
C391 C392 1.369 1_545 S
C391 C393 1.419 . S
C391 H395 0.930 . S
C392 C391 1.369 1_565 S
C392 C401 1.429 . S
C393 C391 1.419 . S
C393 C394 1.363 . S
C393 H396 0.929 . S
C394 C393 1.363 . S
C394 C400 1.428 1_545 S
H395 C391 0.930 . S
H396 C393 0.929 . S
S397 N398 1.613 . S
S397 N399 1.610 . S
N398 S397 1.613 . S
N398 C401 1.350 . S
N399 S397 1.610 . S
N399 C400 1.351 . S
C400 C394 1.428 1_565 S
C400 N399 1.351 . S
C400 C401 1.434 . S
C401 C392 1.429 . S
C401 N398 1.350 . S
C401 C400 1.434 . S
C402 C403 1.369 . S
C402 C404 1.419 . S
C402 H406 0.930 . S
C403 C402 1.369 . S
C403 C412 1.429 . S
C404 C402 1.419 . S
C404 C405 1.363 . S
C404 H407 0.929 . S
C405 C404 1.363 . S
C405 C411 1.428 . S
H406 C402 0.930 . S
H407 C404 0.929 . S
S408 N409 1.613 . S
S408 N410 1.610 . S
N409 S408 1.613 . S
N409 C412 1.350 . S
N410 S408 1.610 . S
N410 C411 1.351 . S
C411 C405 1.428 . S
C411 N410 1.351 . S
C411 C412 1.434 . S
C412 C403 1.429 . S
C412 N409 1.350 . S
C412 C411 1.434 . S
C413 C414 1.369 . S
C413 C415 1.419 . S
C413 H417 0.930 . S
C414 C413 1.369 . S
C414 C423 1.429 . S
C415 C413 1.419 . S
C415 C416 1.363 . S
C415 H418 0.929 . S
C416 C415 1.363 . S
C416 C422 1.428 . S
H417 C413 0.930 . S
H418 C415 0.929 . S
S419 N420 1.613 . S
S419 N421 1.610 . S
N420 S419 1.613 . S
N420 C423 1.350 . S
N421 S419 1.610 . S
N421 C422 1.351 . S
C422 C416 1.428 . S
C422 N421 1.351 . S
C422 C423 1.434 . S
C423 C414 1.429 . S
C423 N420 1.350 . S
C423 C422 1.434 . S
C424 C425 1.369 . S
C424 C426 1.419 . S
C424 H428 0.930 . S
C425 C424 1.369 . S
C425 C434 1.429 1_454 S
C426 C424 1.419 . S
C426 C427 1.363 1_554 S
C426 H429 0.929 . S
C427 C426 1.363 1_556 S
C427 C433 1.428 1_455 S
H428 C424 0.930 . S
H429 C426 0.929 . S
S430 N431 1.613 . S
S430 N432 1.610 . S
N431 S430 1.613 . S
N431 C434 1.350 . S
N432 S430 1.610 . S
N432 C433 1.351 . S
C433 C427 1.428 1_655 S
C433 N432 1.351 . S
C433 C434 1.434 . S
C434 C425 1.429 1_656 S
C434 N431 1.350 . S
C434 C433 1.434 . S
C435 C436 1.369 1_564 S
C435 C437 1.419 . S
C435 H439 0.930 . S
C436 C435 1.369 1_546 S
C436 C445 1.429 . S
C437 C435 1.419 . S
C437 C438 1.363 1_564 S
C437 H440 0.929 . S
C438 C437 1.363 1_546 S
C438 C444 1.428 . S
H439 C435 0.930 . S
H440 C437 0.929 . S
S441 N442 1.613 . S
S441 N443 1.610 . S
N442 S441 1.613 . S
N442 C445 1.350 . S
N443 S441 1.610 . S
N443 C444 1.351 . S
C444 C438 1.428 . S
C444 N443 1.351 . S
C444 C445 1.434 . S
C445 C436 1.429 . S
C445 N442 1.350 . S
C445 C444 1.434 . S
C446 C447 1.369 . S
C446 C448 1.419 . S
C446 H450 0.930 . S
C447 C446 1.369 . S
C447 C456 1.429 . S
C448 C446 1.419 . S
C448 C449 1.363 . S
C448 H451 0.929 . S
C449 C448 1.363 . S
C449 C455 1.428 . S
H450 C446 0.930 . S
H451 C448 0.929 . S
S452 N453 1.613 . S
S452 N454 1.610 . S
N453 S452 1.613 . S
N453 C456 1.350 . S
N454 S452 1.610 . S
N454 C455 1.351 . S
C455 C449 1.428 . S
C455 N454 1.351 . S
C455 C456 1.434 . S
C456 C447 1.429 . S
C456 N453 1.350 . S
C456 C455 1.434 . S
C457 C458 1.369 . S
C457 C459 1.419 . S
C457 H461 0.930 . S
C458 C457 1.369 . S
C458 C467 1.429 . S
C459 C457 1.419 . S
C459 C460 1.363 . S
C459 H462 0.929 . S
C460 C459 1.363 . S
C460 C466 1.428 . S
H461 C457 0.930 . S
H462 C459 0.929 . S
S463 N464 1.613 . S
S463 N465 1.610 . S
N464 S463 1.613 . S
N464 C467 1.350 1_554 S
N465 S463 1.610 . S
N465 C466 1.351 1_554 S
C466 C460 1.428 . S
C466 N465 1.351 1_556 S
C466 C467 1.434 . S
C467 C458 1.429 . S
C467 N464 1.350 1_556 S
C467 C466 1.434 . S
C468 C469 1.369 1_455 S
C468 C470 1.419 . S
C468 H472 0.930 . S
C469 C468 1.369 1_655 S
C469 C478 1.429 . S
C470 C468 1.419 . S
C470 C471 1.363 1_455 S
C470 H473 0.929 . S
C471 C470 1.363 1_655 S
C471 C477 1.428 . S
H472 C468 0.930 . S
H473 C470 0.929 . S
S474 N475 1.613 . S
S474 N476 1.610 . S
N475 S474 1.613 . S
N475 C478 1.350 . S
N476 S474 1.610 . S
N476 C477 1.351 . S
C477 C471 1.428 . S
C477 N476 1.351 . S
C477 C478 1.434 . S
C478 C469 1.429 . S
C478 N475 1.350 . S
C478 C477 1.434 . S
C479 C480 1.369 1_545 S
C479 C481 1.416 1_545 S
C479 H483 0.930 . S
C480 C479 1.369 1_565 S
C480 C489 1.429 . S
C481 C479 1.416 1_565 S
C481 C482 1.374 . S
C481 H484 0.921 1_565 S
C482 C481 1.374 . S
C482 C488 1.428 . S
H483 C479 0.930 . S
H484 C481 0.921 1_545 S
S485 N486 1.613 . S
S485 N487 1.610 . S
N486 S485 1.613 . S
N486 C489 1.350 . S
N487 S485 1.610 . S
N487 C488 1.351 . S
C488 C482 1.428 . S
C488 N487 1.351 . S
C488 C489 1.434 . S
C489 C480 1.429 . S
C489 N486 1.350 . S
C489 C488 1.434 . S
C490 C491 1.369 . S
C490 C492 1.419 . S
C490 H494 0.930 . S
C491 C490 1.369 . S
C491 C500 1.429 . S
C492 C490 1.419 . S
C492 C493 1.363 . S
C492 H495 0.929 . S
C493 C492 1.363 . S
C493 C499 1.428 . S
H494 C490 0.930 . S
H495 C492 0.929 . S
S496 N497 1.613 . S
S496 N498 1.610 . S
N497 S496 1.613 . S
N497 C500 1.350 . S
N498 S496 1.610 . S
N498 C499 1.351 . S
C499 C493 1.428 . S
C499 N498 1.351 . S
C499 C500 1.434 . S
C500 C491 1.429 . S
C500 N497 1.350 . S
C500 C499 1.434 . S
C501 C502 1.369 . S
C501 C503 1.419 . S
C501 H505 0.930 . S
C502 C501 1.369 . S
C502 C511 1.429 . S
C503 C501 1.419 . S
C503 C504 1.363 . S
C503 H506 0.929 . S
C504 C503 1.363 . S
C504 C510 1.428 . S
H505 C501 0.930 . S
H506 C503 0.929 . S
S507 N508 1.613 . S
S507 N509 1.610 . S
N508 S507 1.613 . S
N508 C511 1.350 . S
N509 S507 1.610 . S
N509 C510 1.351 . S
C510 C504 1.428 . S
C510 N509 1.351 . S
C510 C511 1.434 . S
C511 C502 1.429 . S
C511 N508 1.350 . S
C511 C510 1.434 . S
C249 C74 2.002 . S
C251 C111 2.189 1_545 S
C262 C151 1.804 . S
C260 C85 1.820 . S
C273 C170 2.225 . S
C271 C52 2.066 . S
C284 C231 1.519 1_455 S
C282 C63 1.394 . S
C295 C90 2.198 1_564 S
C293 C30 2.019 1_565 S
C304 C41 1.775 . S
C306 C130 1.807 . S
C315 C8 2.000 . S
C317 C191 2.222 1_554 S
C326 C19 1.405 1_655 S
C328 C210 1.512 1_654 S
C339 C92 1.186 . S
C337 C62 1.285 1_655 S
C350 C132 0.615 . S
C348 C73 0.578 . S
C361 C188 1.441 . S
C359 C84 1.466 . S
C370 C51 0.784 . S
C372 C212 0.779 . S
C381 C18 1.168 . S
C383 C113 1.183 . S
C394 C153 0.607 . S
C392 C29 0.643 1_565 S
C405 C199 1.448 . S
C403 C40 1.331 . S
C414 C7 0.764 . S
C416 C233 0.779 . S
C425 C60 1.332 . S
C427 C108 1.836 . S
C436 C71 1.992 1_556 S
C438 C148 2.551 . S
C449 C172 1.582 . S
C447 C82 1.265 . S
C460 C228 2.552 . S
C458 C49 2.065 1_556 S
C469 C16 1.463 1_655 S
C471 C119 1.848 . S
C482 C159 2.552 . S
C480 C27 2.049 1_565 S
C493 C193 1.585 . S
C491 C38 1.512 . S
C502 C5 1.957 . S
C504 C239 2.554 . S
