# Generated by pormake.
# Topology gar, (4,6)-cn, num edge types: 1
# Building blocks:
#     Node 0, Type 0, BuildingBlock: QUQFOY_clean_sbu_3, # of connection points: 4
#     Node 1, Type 0, BuildingBlock: QUQFOY_clean_sbu_3, # of connection points: 4
#     Node 2, Type 0, BuildingBlock: QUQFOY_clean_sbu_3, # of connection points: 4
#     Node 3, Type 0, BuildingBlock: QUQFOY_clean_sbu_3, # of connection points: 4
#     Node 4, Type 0, BuildingBlock: QUQFOY_clean_sbu_3, # of connection points: 4
#     Node 5, Type 0, BuildingBlock: QUQFOY_clean_sbu_3, # of connection points: 4
#     Node 6, Type 0, BuildingBlock: QUQFOY_clean_sbu_3, # of connection points: 4
#     Node 7, Type 0, BuildingBlock: QUQFOY_clean_sbu_3, # of connection points: 4
#     Node 8, Type 0, BuildingBlock: QUQFOY_clean_sbu_3, # of connection points: 4
#     Node 9, Type 0, BuildingBlock: QUQFOY_clean_sbu_3, # of connection points: 4
#     Node 10, Type 0, BuildingBlock: QUQFOY_clean_sbu_3, # of connection points: 4
#     Node 11, Type 0, BuildingBlock: QUQFOY_clean_sbu_3, # of connection points: 4
#     Node 12, Type 0, BuildingBlock: QUQFOY_clean_sbu_3, # of connection points: 4
#     Node 13, Type 0, BuildingBlock: QUQFOY_clean_sbu_3, # of connection points: 4
#     Node 14, Type 0, BuildingBlock: QUQFOY_clean_sbu_3, # of connection points: 4
#     Node 15, Type 0, BuildingBlock: QUQFOY_clean_sbu_3, # of connection points: 4
#     Node 16, Type 0, BuildingBlock: QUQFOY_clean_sbu_3, # of connection points: 4
#     Node 17, Type 0, BuildingBlock: QUQFOY_clean_sbu_3, # of connection points: 4
#     Node 18, Type 0, BuildingBlock: QUQFOY_clean_sbu_3, # of connection points: 4
#     Node 19, Type 0, BuildingBlock: QUQFOY_clean_sbu_3, # of connection points: 4
#     Node 20, Type 0, BuildingBlock: QUQFOY_clean_sbu_3, # of connection points: 4
#     Node 21, Type 0, BuildingBlock: QUQFOY_clean_sbu_3, # of connection points: 4
#     Node 22, Type 0, BuildingBlock: QUQFOY_clean_sbu_3, # of connection points: 4
#     Node 23, Type 0, BuildingBlock: QUQFOY_clean_sbu_3, # of connection points: 4
#     Node 24, Type 1, BuildingBlock: KUMJIN_clean_sbu_1, # of connection points: 6
#     Node 25, Type 1, BuildingBlock: KUMJIN_clean_sbu_1, # of connection points: 6
#     Node 26, Type 1, BuildingBlock: KUMJIN_clean_sbu_1, # of connection points: 6
#     Node 27, Type 1, BuildingBlock: KUMJIN_clean_sbu_1, # of connection points: 6
#     Node 28, Type 1, BuildingBlock: KUMJIN_clean_sbu_1, # of connection points: 6
#     Node 29, Type 1, BuildingBlock: KUMJIN_clean_sbu_1, # of connection points: 6
#     Node 30, Type 1, BuildingBlock: KUMJIN_clean_sbu_1, # of connection points: 6
#     Node 31, Type 1, BuildingBlock: KUMJIN_clean_sbu_1, # of connection points: 6
#     Node 32, Type 1, BuildingBlock: KUMJIN_clean_sbu_1, # of connection points: 6
#     Node 33, Type 1, BuildingBlock: KUMJIN_clean_sbu_1, # of connection points: 6
#     Node 34, Type 1, BuildingBlock: KUMJIN_clean_sbu_1, # of connection points: 6
#     Node 35, Type 1, BuildingBlock: KUMJIN_clean_sbu_1, # of connection points: 6
#     Node 36, Type 1, BuildingBlock: KUMJIN_clean_sbu_1, # of connection points: 6
#     Node 37, Type 1, BuildingBlock: KUMJIN_clean_sbu_1, # of connection points: 6
#     Node 38, Type 1, BuildingBlock: KUMJIN_clean_sbu_1, # of connection points: 6
#     Node 39, Type 1, BuildingBlock: KUMJIN_clean_sbu_1, # of connection points: 6
#     Edge 40, Type (0, 1), BuildingBlock: ZUJKAS_clean_linker_0, # of connection points: 2
#     Edge 41, Type (0, 1), BuildingBlock: ZUJKAS_clean_linker_0, # of connection points: 2
#     Edge 42, Type (0, 1), BuildingBlock: ZUJKAS_clean_linker_0, # of connection points: 2
#     Edge 43, Type (0, 1), BuildingBlock: ZUJKAS_clean_linker_0, # of connection points: 2
#     Edge 44, Type (0, 1), BuildingBlock: ZUJKAS_clean_linker_0, # of connection points: 2
#     Edge 45, Type (0, 1), BuildingBlock: ZUJKAS_clean_linker_0, # of connection points: 2
#     Edge 46, Type (0, 1), BuildingBlock: ZUJKAS_clean_linker_0, # of connection points: 2
#     Edge 47, Type (0, 1), BuildingBlock: ZUJKAS_clean_linker_0, # of connection points: 2
#     Edge 48, Type (0, 1), BuildingBlock: ZUJKAS_clean_linker_0, # of connection points: 2
#     Edge 49, Type (0, 1), BuildingBlock: ZUJKAS_clean_linker_0, # of connection points: 2
#     Edge 50, Type (0, 1), BuildingBlock: ZUJKAS_clean_linker_0, # of connection points: 2
#     Edge 51, Type (0, 1), BuildingBlock: ZUJKAS_clean_linker_0, # of connection points: 2
#     Edge 52, Type (0, 1), BuildingBlock: ZUJKAS_clean_linker_0, # of connection points: 2
#     Edge 53, Type (0, 1), BuildingBlock: ZUJKAS_clean_linker_0, # of connection points: 2
#     Edge 54, Type (0, 1), BuildingBlock: ZUJKAS_clean_linker_0, # of connection points: 2
#     Edge 55, Type (0, 1), BuildingBlock: ZUJKAS_clean_linker_0, # of connection points: 2
#     Edge 56, Type (0, 1), BuildingBlock: ZUJKAS_clean_linker_0, # of connection points: 2
#     Edge 57, Type (0, 1), BuildingBlock: ZUJKAS_clean_linker_0, # of connection points: 2
#     Edge 58, Type (0, 1), BuildingBlock: ZUJKAS_clean_linker_0, # of connection points: 2
#     Edge 59, Type (0, 1), BuildingBlock: ZUJKAS_clean_linker_0, # of connection points: 2
#     Edge 60, Type (0, 1), BuildingBlock: ZUJKAS_clean_linker_0, # of connection points: 2
#     Edge 61, Type (0, 1), BuildingBlock: ZUJKAS_clean_linker_0, # of connection points: 2
#     Edge 62, Type (0, 1), BuildingBlock: ZUJKAS_clean_linker_0, # of connection points: 2
#     Edge 63, Type (0, 1), BuildingBlock: ZUJKAS_clean_linker_0, # of connection points: 2
#     Edge 64, Type (0, 1), BuildingBlock: ZUJKAS_clean_linker_0, # of connection points: 2
#     Edge 65, Type (0, 1), BuildingBlock: ZUJKAS_clean_linker_0, # of connection points: 2
#     Edge 66, Type (0, 1), BuildingBlock: ZUJKAS_clean_linker_0, # of connection points: 2
#     Edge 67, Type (0, 1), BuildingBlock: ZUJKAS_clean_linker_0, # of connection points: 2
#     Edge 68, Type (0, 1), BuildingBlock: ZUJKAS_clean_linker_0, # of connection points: 2
#     Edge 69, Type (0, 1), BuildingBlock: ZUJKAS_clean_linker_0, # of connection points: 2
#     Edge 70, Type (0, 1), BuildingBlock: ZUJKAS_clean_linker_0, # of connection points: 2
#     Edge 71, Type (0, 1), BuildingBlock: ZUJKAS_clean_linker_0, # of connection points: 2
#     Edge 72, Type (0, 1), BuildingBlock: ZUJKAS_clean_linker_0, # of connection points: 2
#     Edge 73, Type (0, 1), BuildingBlock: ZUJKAS_clean_linker_0, # of connection points: 2
#     Edge 74, Type (0, 1), BuildingBlock: ZUJKAS_clean_linker_0, # of connection points: 2
#     Edge 75, Type (0, 1), BuildingBlock: ZUJKAS_clean_linker_0, # of connection points: 2
#     Edge 76, Type (0, 1), BuildingBlock: ZUJKAS_clean_linker_0, # of connection points: 2
#     Edge 77, Type (0, 1), BuildingBlock: ZUJKAS_clean_linker_0, # of connection points: 2
#     Edge 78, Type (0, 1), BuildingBlock: ZUJKAS_clean_linker_0, # of connection points: 2
#     Edge 79, Type (0, 1), BuildingBlock: ZUJKAS_clean_linker_0, # of connection points: 2
#     Edge 80, Type (0, 1), BuildingBlock: ZUJKAS_clean_linker_0, # of connection points: 2
#     Edge 81, Type (0, 1), BuildingBlock: ZUJKAS_clean_linker_0, # of connection points: 2
#     Edge 82, Type (0, 1), BuildingBlock: ZUJKAS_clean_linker_0, # of connection points: 2
#     Edge 83, Type (0, 1), BuildingBlock: ZUJKAS_clean_linker_0, # of connection points: 2
#     Edge 84, Type (0, 1), BuildingBlock: ZUJKAS_clean_linker_0, # of connection points: 2
#     Edge 85, Type (0, 1), BuildingBlock: ZUJKAS_clean_linker_0, # of connection points: 2
#     Edge 86, Type (0, 1), BuildingBlock: ZUJKAS_clean_linker_0, # of connection points: 2
#     Edge 87, Type (0, 1), BuildingBlock: ZUJKAS_clean_linker_0, # of connection points: 2
#     Edge 88, Type (0, 1), BuildingBlock: ZUJKAS_clean_linker_0, # of connection points: 2
#     Edge 89, Type (0, 1), BuildingBlock: ZUJKAS_clean_linker_0, # of connection points: 2
#     Edge 90, Type (0, 1), BuildingBlock: ZUJKAS_clean_linker_0, # of connection points: 2
#     Edge 91, Type (0, 1), BuildingBlock: ZUJKAS_clean_linker_0, # of connection points: 2
#     Edge 92, Type (0, 1), BuildingBlock: ZUJKAS_clean_linker_0, # of connection points: 2
#     Edge 93, Type (0, 1), BuildingBlock: ZUJKAS_clean_linker_0, # of connection points: 2
#     Edge 94, Type (0, 1), BuildingBlock: ZUJKAS_clean_linker_0, # of connection points: 2
#     Edge 95, Type (0, 1), BuildingBlock: ZUJKAS_clean_linker_0, # of connection points: 2
#     Edge 96, Type (0, 1), BuildingBlock: ZUJKAS_clean_linker_0, # of connection points: 2
#     Edge 97, Type (0, 1), BuildingBlock: ZUJKAS_clean_linker_0, # of connection points: 2
#     Edge 98, Type (0, 1), BuildingBlock: ZUJKAS_clean_linker_0, # of connection points: 2
#     Edge 99, Type (0, 1), BuildingBlock: ZUJKAS_clean_linker_0, # of connection points: 2
#     Edge 100, Type (0, 1), BuildingBlock: ZUJKAS_clean_linker_0, # of connection points: 2
#     Edge 101, Type (0, 1), BuildingBlock: ZUJKAS_clean_linker_0, # of connection points: 2
#     Edge 102, Type (0, 1), BuildingBlock: ZUJKAS_clean_linker_0, # of connection points: 2
#     Edge 103, Type (0, 1), BuildingBlock: ZUJKAS_clean_linker_0, # of connection points: 2
#     Edge 104, Type (0, 1), BuildingBlock: ZUJKAS_clean_linker_0, # of connection points: 2
#     Edge 105, Type (0, 1), BuildingBlock: ZUJKAS_clean_linker_0, # of connection points: 2
#     Edge 106, Type (0, 1), BuildingBlock: ZUJKAS_clean_linker_0, # of connection points: 2
#     Edge 107, Type (0, 1), BuildingBlock: ZUJKAS_clean_linker_0, # of connection points: 2
#     Edge 108, Type (0, 1), BuildingBlock: ZUJKAS_clean_linker_0, # of connection points: 2
#     Edge 109, Type (0, 1), BuildingBlock: ZUJKAS_clean_linker_0, # of connection points: 2
#     Edge 110, Type (0, 1), BuildingBlock: ZUJKAS_clean_linker_0, # of connection points: 2
#     Edge 111, Type (0, 1), BuildingBlock: ZUJKAS_clean_linker_0, # of connection points: 2
#     Edge 112, Type (0, 1), BuildingBlock: ZUJKAS_clean_linker_0, # of connection points: 2
#     Edge 113, Type (0, 1), BuildingBlock: ZUJKAS_clean_linker_0, # of connection points: 2
#     Edge 114, Type (0, 1), BuildingBlock: ZUJKAS_clean_linker_0, # of connection points: 2
#     Edge 115, Type (0, 1), BuildingBlock: ZUJKAS_clean_linker_0, # of connection points: 2
#     Edge 116, Type (0, 1), BuildingBlock: ZUJKAS_clean_linker_0, # of connection points: 2
#     Edge 117, Type (0, 1), BuildingBlock: ZUJKAS_clean_linker_0, # of connection points: 2
#     Edge 118, Type (0, 1), BuildingBlock: ZUJKAS_clean_linker_0, # of connection points: 2
#     Edge 119, Type (0, 1), BuildingBlock: ZUJKAS_clean_linker_0, # of connection points: 2
#     Edge 120, Type (0, 1), BuildingBlock: ZUJKAS_clean_linker_0, # of connection points: 2
#     Edge 121, Type (0, 1), BuildingBlock: ZUJKAS_clean_linker_0, # of connection points: 2
#     Edge 122, Type (0, 1), BuildingBlock: ZUJKAS_clean_linker_0, # of connection points: 2
#     Edge 123, Type (0, 1), BuildingBlock: ZUJKAS_clean_linker_0, # of connection points: 2
#     Edge 124, Type (0, 1), BuildingBlock: ZUJKAS_clean_linker_0, # of connection points: 2
#     Edge 125, Type (0, 1), BuildingBlock: ZUJKAS_clean_linker_0, # of connection points: 2
#     Edge 126, Type (0, 1), BuildingBlock: ZUJKAS_clean_linker_0, # of connection points: 2
#     Edge 127, Type (0, 1), BuildingBlock: ZUJKAS_clean_linker_0, # of connection points: 2
#     Edge 128, Type (0, 1), BuildingBlock: ZUJKAS_clean_linker_0, # of connection points: 2
#     Edge 129, Type (0, 1), BuildingBlock: ZUJKAS_clean_linker_0, # of connection points: 2
#     Edge 130, Type (0, 1), BuildingBlock: ZUJKAS_clean_linker_0, # of connection points: 2
#     Edge 131, Type (0, 1), BuildingBlock: ZUJKAS_clean_linker_0, # of connection points: 2
#     Edge 132, Type (0, 1), BuildingBlock: ZUJKAS_clean_linker_0, # of connection points: 2
#     Edge 133, Type (0, 1), BuildingBlock: ZUJKAS_clean_linker_0, # of connection points: 2
#     Edge 134, Type (0, 1), BuildingBlock: ZUJKAS_clean_linker_0, # of connection points: 2
#     Edge 135, Type (0, 1), BuildingBlock: ZUJKAS_clean_linker_0, # of connection points: 2
# Relax obj value: 0.055
# Max RMSD: 0.176
# Mean RMSD: 0.102
data_MOF--net-gar--node1-QUQFOY_clean_sbu_3--node2-KUMJIN_clean_sbu_1--edge1-ZUJKAS_clean_linker_0
_symmetry_space_group_name_H-M    P1
_symmetry_Int_Tables_number       1
_symmetry_cell_setting            triclinic
loop_
_symmetry_equiv_pos_as_xyz
'x, y, z'
_cell_length_a     76.782105
_cell_length_b     78.02095
_cell_length_c     72.783079
_cell_angle_alpha  96.360885
_cell_angle_beta   95.499638
_cell_angle_gamma 100.60435
loop_
_atom_site_label
_atom_site_type_symbol
_atom_site_fract_x
_atom_site_fract_y
_atom_site_fract_z
_atom_type_partial_charge
C0 C 0.99896 0.29706 0.33181 0.0
O1 O 0.00896 0.30737 0.32317 0.0
Cd2 Cd 0.04059 0.31595 0.33307 0.0
O3 O 0.00602 0.29042 0.34531 0.0
Cd4 Cd 0.03823 0.29267 0.36109 0.0
C5 C 0.04097 0.3363 0.37688 0.0
O6 O 0.05605 0.29128 0.33367 0.0
O7 O 0.07134 0.30063 0.36031 0.0
O8 O 0.02972 0.26083 0.36395 0.0
C9 C 0.07132 0.29515 0.34324 0.0
O10 O 0.04433 0.33847 0.36041 0.0
C11 C 0.03589 0.26201 0.38096 0.0
O12 O 0.0372 0.32074 0.3812 0.0
O13 O 0.04287 0.2774 0.38892 0.0
C14 C 0.97793 0.74483 0.70345 0.0
O15 O 0.98604 0.73489 0.71227 0.0
Cd16 Cd 0.01471 0.72889 0.70363 0.0
O17 O 0.98527 0.75208 0.69045 0.0
Cd18 Cd 0.01508 0.75263 0.67657 0.0
C19 C 0.01054 0.70862 0.65963 0.0
O20 O 0.03857 0.75438 0.70475 0.0
O21 O 0.04737 0.75275 0.67743 0.0
O22 O 0.01938 0.78463 0.67494 0.0
C23 C 0.0515 0.75465 0.69492 0.0
O24 O 0.01371 0.70673 0.67668 0.0
C25 C 0.01547 0.78336 0.65745 0.0
O26 O 0.00888 0.72365 0.65514 0.0
O27 O 0.01139 0.76792 0.64864 0.0
C28 C 0.49908 0.79621 0.83284 0.0
O29 O 0.50855 0.80784 0.82519 0.0
Cd30 Cd 0.54042 0.81675 0.83326 0.0
O31 O 0.50648 0.78866 0.84529 0.0
Cd32 Cd 0.53863 0.79246 0.86141 0.0
C33 C 0.54133 0.8367 0.87721 0.0
O34 O 0.55663 0.79263 0.83422 0.0
O35 O 0.57168 0.80012 0.86134 0.0
O36 O 0.53693 0.76065 0.86318 0.0
C37 C 0.5718 0.79583 0.84401 0.0
O38 O 0.54369 0.8389 0.86051 0.0
C39 C 0.53663 0.76151 0.88064 0.0
O40 O 0.53862 0.82114 0.88176 0.0
O41 O 0.53708 0.77664 0.88935 0.0
C42 C 0.47837 0.24551 0.20358 0.0
O43 O 0.48656 0.23584 0.21268 0.0
Cd44 Cd 0.51492 0.23002 0.20409 0.0
O45 O 0.48571 0.25257 0.19044 0.0
Cd46 Cd 0.51577 0.25334 0.17651 0.0
C47 C 0.51073 0.20944 0.15991 0.0
O48 O 0.53867 0.25587 0.20469 0.0
O49 O 0.54714 0.2492 0.17784 0.0
O50 O 0.52284 0.28538 0.17426 0.0
C51 C 0.55139 0.25365 0.19521 0.0
O52 O 0.51192 0.20728 0.17702 0.0
C53 C 0.5174 0.28424 0.15707 0.0
O54 O 0.51105 0.22478 0.15525 0.0
O55 O 0.51139 0.26881 0.1487 0.0
C56 C 0.01826 0.77627 0.13402 0.0
O57 O 0.0281 0.76757 0.14257 0.0
Cd58 Cd 0.05769 0.76466 0.13763 0.0
O59 O 0.02389 0.78458 0.12085 0.0
Cd60 Cd 0.0522 0.78874 0.10445 0.0
C61 C 0.0491 0.74297 0.09285 0.0
O62 O 0.07323 0.79283 0.13307 0.0
O63 O 0.08516 0.78743 0.10819 0.0
O64 O 0.05341 0.82117 0.10509 0.0
C65 C 0.08726 0.79129 0.12579 0.0
O66 O 0.05469 0.7433 0.10995 0.0
C67 C 0.05015 0.8217 0.08777 0.0
O68 O 0.04558 0.75693 0.08665 0.0
O69 O 0.04797 0.80693 0.07754 0.0
C70 C 0.46544 0.76344 0.40128 0.0
O71 O 0.47685 0.7734 0.39373 0.0
Cd72 Cd 0.50814 0.78098 0.40158 0.0
O73 O 0.47049 0.75554 0.41485 0.0
Cd74 Cd 0.50175 0.75575 0.43318 0.0
C75 C 0.50718 0.8017 0.44561 0.0
O76 O 0.51867 0.75463 0.40608 0.0
O77 O 0.53476 0.76459 0.43217 0.0
O78 O 0.49623 0.72286 0.4328 0.0
C79 C 0.53411 0.75904 0.41501 0.0
O80 O 0.51076 0.80268 0.42901 0.0
C81 C 0.5006 0.72228 0.44996 0.0
O82 O 0.50258 0.78664 0.45125 0.0
O83 O 0.50452 0.7372 0.46007 0.0
C84 C 0.51951 0.27525 0.63339 0.0
O85 O 0.52976 0.26749 0.64272 0.0
Cd86 Cd 0.55891 0.26404 0.63755 0.0
O87 O 0.52473 0.28283 0.61957 0.0
Cd88 Cd 0.55303 0.28814 0.60291 0.0
C89 C 0.54826 0.24199 0.59242 0.0
O90 O 0.57316 0.29232 0.63196 0.0
O91 O 0.58642 0.28912 0.60765 0.0
O92 O 0.54657 0.31851 0.60339 0.0
C93 C 0.58769 0.29188 0.62529 0.0
O94 O 0.55283 0.24241 0.60977 0.0
C95 C 0.5492 0.32107 0.58688 0.0
O96 O 0.5466 0.25619 0.5855 0.0
O97 O 0.55361 0.3083 0.57711 0.0
C98 C 0.96502 0.26408 0.9016 0.0
O99 O 0.97655 0.27437 0.89454 0.0
Cd100 Cd 0.008 0.28087 0.90142 0.0
O101 O 0.96989 0.25552 0.91466 0.0
Cd102 Cd 0.00097 0.25552 0.93298 0.0
C103 C 0.00874 0.30147 0.94564 0.0
O104 O 0.01742 0.25419 0.90561 0.0
O105 O 0.03419 0.26293 0.93142 0.0
O106 O 0.99578 0.22276 0.93301 0.0
C107 C 0.03308 0.25812 0.91403 0.0
O108 O 0.01313 0.30209 0.92928 0.0
C109 C 0.9995 0.2224 0.95032 0.0
O110 O 0.0024 0.28662 0.95095 0.0
O111 O 0.00286 0.23738 0.9603 0.0
C112 C 0.40667 0.00582 0.32398 0.0
O113 O 0.41759 1.0003 0.31386 0.0
Cd114 Cd 0.41302 0.99628 0.28094 0.0
O115 O 0.39309 0.01106 0.31733 0.0
Cd116 Cd 0.37775 0.01492 0.28904 0.0
C117 C 0.3709 0.97228 0.28267 0.0
O118 O 0.40193 0.02086 0.2725 0.0
O119 O 0.37613 0.01267 0.25578 0.0
O120 O 0.37884 0.04404 0.30063 0.0
C121 C 0.39291 0.01763 0.2566 0.0
O122 O 0.38706 0.97329 0.27952 0.0
C123 C 0.36206 0.0428 0.29835 0.0
O124 O 0.36413 0.98562 0.28686 0.0
O125 O 0.35218 0.02787 0.29241 0.0
C126 C 0.29275 0.14078 0.51331 0.0
O127 O 0.28223 0.1324 0.52315 0.0
Cd128 Cd 0.25209 0.13498 0.5259 0.0
O129 O 0.28801 0.15248 0.5042 0.0
Cd130 Cd 0.26144 0.16613 0.50142 0.0
C131 C 0.2611 0.1772 0.54788 0.0
O132 O 0.2391 0.1393 0.4963 0.0
O133 O 0.22929 0.1631 0.50342 0.0
O134 O 0.2614 0.16688 0.46819 0.0
C135 C 0.22587 0.14664 0.49819 0.0
O136 O 0.25398 0.16112 0.54786 0.0
C137 C 0.26571 0.18345 0.46905 0.0
O138 O 0.26696 0.18274 0.53333 0.0
O139 O 0.26817 0.19231 0.48515 0.0
C140 C 0.10668 0.03865 0.81442 0.0
O141 O 0.0975 0.04669 0.8042 0.0
Cd142 Cd 0.10379 0.05233 0.77342 0.0
O143 O 0.1197 0.03269 0.80831 0.0
Cd144 Cd 0.13343 0.03172 0.77858 0.0
C145 C 0.14694 0.07525 0.78159 0.0
O146 O 0.10695 0.02599 0.75489 0.0
O147 O 0.13223 0.03617 0.7457 0.0
O148 O 0.13503 0.00106 0.78032 0.0
C149 C 0.11576 0.02965 0.74148 0.0
O150 O 0.13079 0.07492 0.77536 0.0
C151 C 0.15171 0.00298 0.7796 0.0
O152 O 0.15179 0.06143 0.78627 0.0
O153 O 0.16008 0.01843 0.77862 0.0
C154 C 0.31944 0.94914 0.99223 0.0
O155 O 0.30964 0.95896 0.9856 0.0
Cd156 Cd 0.27846 0.94848 0.97847 0.0
O157 O 0.31308 0.93476 -0.00216 0.0
Cd158 Cd 0.28655 0.91588 0.00264 0.0
C159 C 0.28318 0.90803 0.95699 0.0
O160 O 0.27026 0.93795 0.00614 0.0
O161 O 0.25435 0.91169 -0.00069 0.0
O162 O 0.29885 0.91634 0.03422 0.0
C163 C 0.25502 0.92807 0.00317 0.0
O164 O 0.27843 0.92276 0.95603 0.0
C165 C 0.29353 0.89992 0.03394 0.0
O166 O 0.28755 0.90285 0.9724 0.0
O167 O 0.28596 0.8909 0.01871 0.0
C168 C 0.32171 0.40864 0.02875 0.0
O169 O 0.31236 0.41495 0.01687 0.0
Cd170 Cd 0.28062 0.40782 0.00966 0.0
O171 O 0.31464 0.3967 0.03782 0.0
Cd172 Cd 0.28395 0.37939 0.03652 0.0
C173 C 0.27968 0.36628 0.98976 0.0
O174 O 0.2682 0.40371 0.03798 0.0
O175 O 0.25156 0.37791 0.03039 0.0
O176 O 0.28764 0.37899 0.06994 0.0
C177 C 0.25271 0.39422 0.03527 0.0
O178 O 0.27535 0.38101 0.98785 0.0
C179 C 0.28489 0.3624 0.06918 0.0
O180 O 0.2851 0.36264 0.00572 0.0
O181 O 0.28211 0.35342 0.05315 0.0
C182 C 0.78641 0.09914 0.05015 0.0
O183 O 0.77374 0.08818 0.05478 0.0
Cd184 Cd 0.74424 0.0936 0.05424 0.0
O185 O 0.78377 0.11268 0.04308 0.0
Cd186 Cd 0.76151 0.12763 0.03332 0.0
C187 C 0.75744 0.13544 0.07781 0.0
O188 O 0.73855 0.10366 0.02522 0.0
O189 O 0.73106 0.12895 0.03178 0.0
O190 O 0.77148 0.12922 0.00354 0.0
C191 C 0.72647 0.11262 0.02628 0.0
O192 O 0.74896 0.11968 0.07722 0.0
C193 C 0.76952 0.14503 0.00362 0.0
O194 O 0.76441 0.14102 0.06392 0.0
O195 O 0.76578 0.15309 0.01843 0.0
C196 C 0.1472 0.54376 0.27762 0.0
O197 O 0.13658 0.54968 0.26662 0.0
Cd198 Cd 0.13836 0.54993 0.23404 0.0
O199 O 0.16012 0.53739 0.27208 0.0
Cd200 Cd 0.17425 0.532 0.24476 0.0
C201 C 0.18128 0.57401 0.23978 0.0
O202 O 0.14806 0.5238 0.22519 0.0
O203 O 0.1718 0.52737 0.2112 0.0
O204 O 0.17445 0.50414 0.25279 0.0
C205 C 0.15492 0.52381 0.2101 0.0
O206 O 0.16472 0.5722 0.23421 0.0
C207 C 0.19076 0.50471 0.25083 0.0
O208 O 0.1879 0.56164 0.2458 0.0
O209 O 0.20008 0.51908 0.2476 0.0
C210 C 0.82274 0.90892 0.52823 0.0
O211 O 0.81367 0.91733 0.51836 0.0
Cd212 Cd 0.78232 0.91021 0.50998 0.0
O213 O 0.81532 0.89548 0.53509 0.0
Cd214 Cd 0.78403 0.87896 0.53463 0.0
C215 C 0.78083 0.86846 0.48781 0.0
O216 O 0.76922 0.90381 0.53728 0.0
O217 O 0.75182 0.87851 0.52918 0.0
O218 O 0.7905 0.87874 0.5678 0.0
C219 C 0.75345 0.89491 0.53393 0.0
O220 O 0.77921 0.88435 0.48729 0.0
C221 C 0.7851 0.86235 0.56764 0.0
O222 O 0.7835 0.86262 0.50334 0.0
O223 O 0.77984 0.85328 0.5518 0.0
C224 C 0.94334 0.01045 0.29467 0.0
O225 O 0.95281 0.0021 0.28515 0.0
Cd226 Cd 0.94427 0.99287 0.25269 0.0
O227 O 0.92969 0.01512 0.28685 0.0
Cd228 Cd 0.91512 0.01367 0.25376 0.0
C229 C 0.90132 0.97019 0.25254 0.0
O230 O 0.94154 0.01812 0.23688 0.0
O231 O 0.91662 0.00617 0.2202 0.0
O232 O 0.9129 0.04417 0.26325 0.0
C233 C 0.93286 0.01349 0.22084 0.0
O234 O 0.91759 0.96961 0.25106 0.0
C235 C 0.89737 0.04302 0.2549 0.0
O236 O 0.89624 0.98485 0.25437 0.0
O237 O 0.88979 0.02809 0.24623 0.0
C238 C 0.28886 0.60176 0.54797 0.0
O239 O 0.27741 0.58965 0.55271 0.0
Cd240 Cd 0.24726 0.59149 0.55548 0.0
O241 O 0.28482 0.61524 0.54189 0.0
Cd242 Cd 0.25977 0.62748 0.53458 0.0
C243 C 0.25746 0.63295 0.57986 0.0
O244 O 0.23782 0.60213 0.52791 0.0
O245 O 0.22915 0.62689 0.53453 0.0
O246 O 0.26586 0.63001 0.50379 0.0
C247 C 0.22527 0.61034 0.53021 0.0
O248 O 0.25135 0.61658 0.57951 0.0
C249 C 0.26572 0.64635 0.50531 0.0
O250 O 0.26222 0.63976 0.56562 0.0
O251 O 0.26401 0.65411 0.52116 0.0
C252 C 0.44428 0.50821 0.79255 0.0
O253 O 0.45225 0.4992 0.78178 0.0
Cd254 Cd 0.44336 0.4904 0.74922 0.0
O255 O 0.43081 0.5141 0.78597 0.0
Cd256 Cd 0.41409 0.51331 0.75383 0.0
C257 C 0.40028 0.46896 0.75096 0.0
O258 O 0.44001 0.51643 0.73586 0.0
O259 O 0.41413 0.50982 0.71976 0.0
O260 O 0.41188 0.54374 0.76492 0.0
C261 C 0.43088 0.51412 0.72 0.0
O262 O 0.41614 0.46823 0.7477 0.0
C263 C 0.39634 0.54276 0.75665 0.0
O264 O 0.39573 0.4838 0.75452 0.0
O265 O 0.3887 0.52794 0.74775 0.0
C266 C 0.64435 0.04052 0.77604 0.0
O267 O 0.63372 0.04694 0.76559 0.0
Cd268 Cd 0.63722 0.05006 0.73405 0.0
O269 O 0.65719 0.0343 0.77012 0.0
Cd270 Cd 0.672 0.02946 0.74321 0.0
C271 C 0.68089 0.07192 0.74649 0.0
O272 O 0.64672 0.0245 0.72223 0.0
O273 O 0.67155 0.02778 0.70997 0.0
O274 O 0.67218 0.00153 0.75174 0.0
C275 C 0.65469 0.02566 0.70787 0.0
O276 O 0.66454 0.07132 0.74088 0.0
C277 C 0.68832 0.00206 0.74895 0.0
O278 O 0.68724 0.05838 0.74905 0.0
O279 O 0.69716 0.01607 0.7444 0.0
C280 C 0.7925 0.64176 0.01515 0.0
O281 O 0.78179 0.63324 0.02468 0.0
Cd282 Cd 0.75193 0.63625 0.02749 0.0
O283 O 0.78781 0.6534 0.00584 0.0
Cd284 Cd 0.7606 0.66626 0.0012 0.0
C285 C 0.76242 0.67924 0.04754 0.0
O286 O 0.73897 0.63881 0.99716 0.0
O287 O 0.72811 0.66225 0.00185 0.0
O288 O 0.76721 0.66668 0.9692 0.0
C289 C 0.72531 0.64566 -0.00203 0.0
O290 O 0.75568 0.66329 0.04864 0.0
C291 C 0.76517 0.6823 0.96801 0.0
O292 O 0.76696 0.6842 0.03225 0.0
O293 O 0.7613 0.69078 0.98251 0.0
C294 C 0.90747 0.50739 0.82404 0.0
O295 O 0.91826 0.50174 0.81384 0.0
Cd296 Cd 0.91359 0.49741 0.78077 0.0
O297 O 0.89368 0.51234 0.81747 0.0
Cd298 Cd 0.87713 0.51533 0.78952 0.0
C299 C 0.87201 0.47246 0.78277 0.0
O300 O 0.90103 0.52119 0.77295 0.0
O301 O 0.87531 0.51491 0.75611 0.0
O302 O 0.8781 0.54397 0.80246 0.0
C303 C 0.8922 0.51847 0.75698 0.0
O304 O 0.88796 0.47405 0.77872 0.0
C305 C 0.86132 0.54278 0.79997 0.0
O306 O 0.86519 0.48559 0.78782 0.0
O307 O 0.85146 0.52797 0.79344 0.0
C308 C 0.8171 0.44819 0.49218 0.0
O309 O 0.80858 0.45755 0.48298 0.0
Cd310 Cd 0.77726 0.44727 0.47662 0.0
O311 O 0.80922 0.43494 0.49871 0.0
Cd312 Cd 0.78396 0.4154 0.50408 0.0
C313 C 0.78302 0.40591 0.45858 0.0
O314 O 0.76809 0.43747 0.50461 0.0
O315 O 0.75181 0.41116 0.5008 0.0
O316 O 0.79331 0.41863 0.53655 0.0
C317 C 0.75279 0.42771 0.50254 0.0
O318 O 0.77923 0.42086 0.45649 0.0
C319 C 0.79284 0.40233 0.53685 0.0
O320 O 0.78552 0.40095 0.47451 0.0
O321 O 0.78881 0.39209 0.52158 0.0
C322 C 0.60618 0.53764 0.3136 0.0
O323 O 0.59667 0.54555 0.30354 0.0
Cd324 Cd 0.60323 0.55347 0.27344 0.0
O325 O 0.61968 0.53243 0.30774 0.0
Cd326 Cd 0.63444 0.53155 0.27866 0.0
C327 C 0.64707 0.57599 0.28121 0.0
O328 O 0.60783 0.52753 0.2558 0.0
O329 O 0.63333 0.53265 0.24501 0.0
O330 O 0.63519 0.50032 0.27622 0.0
C331 C 0.61644 0.52905 0.24185 0.0
O332 O 0.63059 0.57583 0.27663 0.0
C333 C 0.65185 0.50221 0.28074 0.0
O334 O 0.6524 0.56188 0.2842 0.0
O335 O 0.66071 0.51787 0.28459 0.0
Eu336 Eu 0.05191 0.03464 0.03482 0.0
C337 C 0.98761 0.97569 0.98909 0.0
N338 N 0.99828 0.99025 0.98468 0.0
C339 C 0.99763 0.9761 0.95355 0.0
C340 C 0.98166 0.96064 0.97577 0.0
C341 C 0.00319 0.9907 0.96718 0.0
C342 C 0.98684 0.96098 0.95786 0.0
C343 C 0.97095 0.96111 0.01165 0.0
C344 C 0.98222 0.97597 0.00684 0.0
C345 C 0.96523 0.94606 -0.00153 0.0
C346 C 0.9705 0.94585 0.98058 0.0
Eu347 Eu 0.00437 0.01506 0.00777 0.0
N348 N 0.98766 0.99084 0.01926 0.0
C349 C 0.96543 0.96194 0.02945 0.0
C350 C 0.98137 0.99205 0.03615 0.0
C351 C 0.97055 0.97754 0.04169 0.0
H352 H 0.01071 0.00256 0.96339 0.0
H353 H 0.96578 0.97855 0.05522 0.0
H354 H 0.04372 0.04613 0.07895 0.0
H355 H 0.08169 0.07497 0.98477 0.0
H356 H 0.98396 0.00432 0.0451 0.0
H357 H 0.9568 0.95081 0.03367 0.0
H358 H 0.06575 0.0481 0.99485 0.0
H359 H 0.0014 0.97662 0.93964 0.0
H360 H 0.9565 0.93458 0.00191 0.0
H361 H 0.96576 0.93422 0.9705 0.0
H362 H 0.05191 0.07219 0.10269 0.0
H363 H 0.9824 0.94975 0.94721 0.0
H364 H 0.09101 0.10208 0.00721 0.0
N365 N 0.05509 0.05927 0.05752 0.0
C366 C 0.0646 0.07439 0.0529 0.0
C367 C 0.05539 0.07303 0.0887 0.0
C368 C 0.07005 0.08944 0.06629 0.0
C369 C 0.05043 0.05837 0.07509 0.0
C370 C 0.06533 0.08859 0.08433 0.0
N371 N 0.06405 0.06005 0.02208 0.0
C372 C 0.06867 0.05994 0.00445 0.0
C373 C 0.07908 0.09034 0.0298 0.0
C374 C 0.06915 0.0748 0.03476 0.0
C375 C 0.08339 0.09041 0.01154 0.0
C376 C 0.0781 0.07515 -0.00119 0.0
H377 H 0.0694 0.09984 0.09502 0.0
H378 H 0.08474 0.11634 0.07158 0.0
H379 H 0.09256 0.11716 0.03969 0.0
O380 O 0.0791 0.03207 0.03084 0.0
O381 O 0.03348 0.05423 0.02885 0.0
O382 O 0.01877 0.04131 0.00069 0.0
O383 O 0.07177 0.03637 0.0587 0.0
O384 O 0.05148 0.01911 0.00616 0.0
O385 O 0.02599 0.02393 0.99028 0.0
O386 O 0.98074 0.0261 0.01263 0.0
O387 O 0.01883 0.99324 0.0161 0.0
O388 O 0.0423 0.00594 0.03898 0.0
O389 O 0.98452 0.01514 0.98446 0.0
O390 O 0.0067 0.0292 0.03746 0.0
O391 O 0.0318 0.02262 0.05248 0.0
C392 C 0.02459 0.05545 0.01279 0.0
C393 C 0.09453 0.02025 0.05457 0.0
C394 C 0.11643 0.00245 0.04821 0.0
C395 C 0.11644 0.99749 0.06612 0.0
C396 C 0.09454 0.01528 0.0726 0.0
C397 C 0.10543 0.00388 0.07828 0.0
C398 C 0.10554 0.01373 0.04245 0.0
C399 C 0.04166 0.01957 0.99046 0.0
C400 C 0.08414 0.03309 0.04864 0.0
C401 C 0.08024 0.10475 0.06139 0.0
C402 C 0.08469 0.10522 0.04322 0.0
C403 C 0.03143 0.99203 0.02935 0.0
C404 C 0.9579 0.02683 0.98726 0.0
C405 C 0.93142 0.03828 0.99207 0.0
C406 C 0.92605 0.03549 0.97285 0.0
C407 C 0.95263 0.02406 0.96793 0.0
C408 C 0.94724 0.03397 -0.00074 0.0
C409 C 0.93671 0.02841 0.96079 0.0
C410 C 0.01568 0.0258 0.0525 0.0
C411 C 0.97463 0.02267 0.99495 0.0
H412 H 0.12502 0.98881 0.07068 0.0
H413 H 0.08633 0.02034 0.08236 0.0
H414 H 0.10548 1.00015 0.09217 0.0
H415 H 0.10596 0.01767 0.02864 0.0
H416 H 0.91377 0.03898 0.96724 0.0
H417 H 0.96082 0.01866 0.95837 0.0
H418 H 0.95121 0.03629 0.01418 0.0
H419 H 0.93269 0.02636 0.94592 0.0
Eu420 Eu 0.25695 0.77169 0.29279 0.0
C421 C 0.30008 0.73943 0.22222 0.0
N422 N 0.30619 0.75221 0.2369 0.0
C423 C 0.33284 0.7407 0.24234 0.0
C424 C 0.30983 0.72623 0.2176 0.0
C425 C 0.32251 0.75326 0.2467 0.0
C426 C 0.32637 0.727 0.2279 0.0
C427 C 0.27684 0.72596 0.19705 0.0
C428 C 0.28389 0.73942 0.21191 0.0
C429 C 0.28625 0.7125 0.19279 0.0
C430 C 0.30275 0.7127 0.20296 0.0
Eu431 Eu 0.287 0.77176 0.24437 0.0
N432 N 0.27478 0.7523 0.2168 0.0
C433 C 0.26047 0.72637 0.18701 0.0
C434 C 0.2594 0.75336 0.20629 0.0
C435 C 0.25187 0.74029 0.19147 0.0
H436 H 0.32769 0.76384 0.25784 0.0
H437 H 0.23943 0.74098 0.18349 0.0
H438 H 0.21677 0.7805 0.283 0.0
H439 H 0.3108 0.8051 0.34796 0.0
H440 H 0.25284 0.76425 0.20913 0.0
H441 H 0.25453 0.7162 0.17561 0.0
H442 H 0.29476 0.78056 0.32541 0.0
H443 H 0.34573 0.74154 0.2502 0.0
H444 H 0.28095 0.70196 0.18156 0.0
H445 H 0.30994 0.70231 0.19938 0.0
H446 H 0.19989 0.80371 0.29152 0.0
H447 H 0.33431 0.71716 0.22472 0.0
H448 H 0.29735 0.83104 0.35561 0.0
N449 N 0.23969 0.79242 0.30194 0.0
C450 C 0.24753 0.80611 0.31502 0.0
C451 C 0.21328 0.80456 0.29823 0.0
C452 C 0.23859 0.81989 0.31997 0.0
C453 C 0.22282 0.79141 0.29352 0.0
C454 C 0.22123 0.81893 0.31145 0.0
N455 N 0.27262 0.79266 0.31835 0.0
C456 C 0.28875 0.79186 0.32769 0.0
C457 C 0.27324 0.82063 0.33674 0.0
C458 C 0.2646 0.80639 0.32328 0.0
C459 C 0.29024 0.82033 0.3453 0.0
C460 C 0.29788 0.80574 0.34096 0.0
H461 H 0.2139 0.82921 0.31493 0.0
H462 H 0.24069 0.84499 0.33696 0.0
H463 H 0.27109 0.84569 0.35158 0.0
O464 O 0.25614 0.74963 0.30828 0.0
O465 O 0.26271 0.79726 0.28165 0.0
O466 O 0.28667 0.78907 0.27115 0.0
O467 O 0.23131 0.75603 0.29753 0.0
O468 O 0.28468 0.76408 0.2969 0.0
O469 O 0.30278 0.77165 0.27314 0.0
O470 O 0.28692 0.79327 0.22768 0.0
O471 O 0.27376 0.74388 0.24661 0.0
O472 O 0.26688 0.76096 0.26843 0.0
O473 O 0.31197 0.78661 0.23772 0.0
O474 O 0.25809 0.77722 0.24061 0.0
O475 O 0.2401 0.7685 0.26425 0.0
C476 C 0.27633 0.8005 0.27238 0.0
C477 C 0.23276 0.74495 0.32668 0.0
C478 C 0.2388 0.7383 0.35822 0.0
C479 C 0.22187 0.74115 0.36193 0.0
C480 C 0.21575 0.74755 0.33039 0.0
C481 C 0.2104 0.74573 0.34802 0.0
C482 C 0.24413 0.74031 0.34069 0.0
C483 C 0.30018 0.7664 0.2897 0.0
C484 C 0.23892 0.74667 0.30835 0.0
C485 C 0.24727 0.8342 0.3331 0.0
C486 C 0.26459 0.83461 0.3414 0.0
C487 C 0.26539 0.74508 0.26089 0.0
C488 C 0.31143 0.79998 0.21019 0.0
C489 C 0.30738 0.8077 0.17883 0.0
C490 C 0.32598 0.81075 0.17852 0.0
C491 C 0.32999 0.80321 0.20973 0.0
C492 C 0.30018 0.80204 0.1946 0.0
C493 C 0.33718 0.80841 0.19389 0.0
C494 C 0.24253 0.77369 0.24764 0.0
C495 C 0.30421 0.79643 0.22766 0.0
H496 H 0.2173 0.73929 0.37533 0.0
H497 H 0.20663 0.75095 0.31973 0.0
H498 H 0.19727 0.74766 0.35084 0.0
H499 H 0.25722 0.73805 0.33795 0.0
H500 H 0.33192 0.81561 0.16672 0.0
H501 H 0.33896 0.80209 0.22178 0.0
H502 H 0.28586 0.79985 0.19491 0.0
H503 H 0.3515 0.81111 0.19371 0.0
Eu504 Eu 0.49862 0.01808 0.52796 0.0
C505 C 0.56723 0.05734 0.4942 0.0
N506 N 0.55449 0.04266 0.48787 0.0
C507 C 0.55263 0.05121 0.45716 0.0
C508 C 0.57267 0.06979 0.48214 0.0
C509 C 0.54776 0.03913 0.46945 0.0
C510 C 0.56501 0.06666 0.46354 0.0
C511 C 0.58818 0.0752 0.51948 0.0
C512 C 0.57512 0.05999 0.51277 0.0
C513 C 0.59343 0.08754 0.50743 0.0
C514 C 0.58572 0.08485 0.48887 0.0
Eu515 Eu 0.54915 0.02302 0.51013 0.0
N516 N 0.56964 0.04806 0.52443 0.0
C517 C 0.59548 0.07767 0.53819 0.0
C518 C 0.57683 0.05025 0.54257 0.0
C519 C 0.58979 0.06515 0.54978 0.0
H520 H 0.53904 0.02684 0.46382 0.0
H521 H 0.59546 0.0669 0.56421 0.0
H522 H 0.50492 0.01649 0.57493 0.0
H523 H 0.45032 0.97451 0.47581 0.0
H524 H 0.57272 0.04043 0.55138 0.0
H525 H 0.60553 0.08919 0.54384 0.0
H526 H 0.4723 0.00169 0.48863 0.0
H527 H 0.54709 0.04842 0.44265 0.0
H528 H 0.60346 0.09928 0.51236 0.0
H529 H 0.59001 0.09449 0.47977 0.0
H530 H 0.49865 0.99473 0.59645 0.0
H531 H 0.56886 0.07591 0.45389 0.0
H532 H 0.44401 0.95037 0.49506 0.0
N533 N 0.49367 0.99861 0.55055 0.0
C534 C 0.48278 0.98279 0.54397 0.0
C535 C 0.49446 0.99106 0.58169 0.0
C536 C 0.47796 0.97025 0.55611 0.0
C537 C 0.49852 0.00323 0.56928 0.0
C538 C 0.48441 0.97438 0.57504 0.0
N539 N 0.47907 0.99222 0.51405 0.0
C540 C 0.46986 0.99093 0.4968 0.0
C541 C 0.46246 0.96409 0.51879 0.0
C542 C 0.47504 0.97966 0.5254 0.0
C543 C 0.45382 0.96211 0.50059 0.0
C544 C 0.45734 0.9757 0.48965 0.0
H545 H 0.48096 0.96511 0.58478 0.0
H546 H 0.46237 0.9446 0.55839 0.0
H547 H 0.44882 0.93924 0.5258 0.0
O548 O 0.47934 0.03339 0.51731 0.0
O549 O 0.50503 0.99407 0.50982 0.0
O550 O 0.53525 0.9964 0.51738 0.0
O551 O 0.47575 0.02119 0.54225 0.0
O552 O 0.50899 0.03031 0.5037 0.0
O553 O 0.52614 0.01436 0.48826 0.0
O554 O 0.57518 0.01569 0.5173 0.0
O555 O 0.54052 0.04904 0.52089 0.0
O556 O 0.51648 0.04491 0.53874 0.0
O557 O 0.56132 0.00953 0.48872 0.0
O558 O 0.53971 0.01164 0.53507 0.0
O559 O 0.52136 0.0255 0.55093 0.0
C560 C 0.51941 0.98696 0.51046 0.0
C561 C 0.46447 0.04688 0.54051 0.0
C562 C 0.44263 0.06583 0.5419 0.0
C563 C 0.45027 0.073 0.5601 0.0
C564 C 0.47217 0.05441 0.55858 0.0
C565 C 0.46504 0.06738 0.56831 0.0
C566 C 0.44987 0.0528 0.53213 0.0
C567 C 0.51178 0.02088 0.4888 0.0
C568 C 0.46998 0.03142 0.53122 0.0
C569 C 0.46612 0.95437 0.54925 0.0
C570 C 0.45837 0.95132 0.53068 0.0
C571 C 0.52961 0.0551 0.53206 0.0
C572 C 0.58982 0.00084 0.49345 0.0
C573 C 0.61333 0.98419 0.49822 0.0
C574 C 0.6158 0.98388 0.47934 0.0
C575 C 0.59251 0.00045 0.47459 0.0
C576 C 0.60047 0.99286 0.50537 0.0
C577 C 0.6055 0.99208 0.46763 0.0
C578 C 0.53661 0.02046 0.55019 0.0
C579 C 0.57523 0.00872 0.50013 0.0
H580 H 0.44493 0.08307 0.56791 0.0
H581 H 0.48339 0.04993 0.56536 0.0
H582 H 0.47085 0.07296 0.58233 0.0
H583 H 0.44372 0.04678 0.51833 0.0
H584 H 0.62572 0.97725 0.47369 0.0
H585 H 0.58449 0.00656 0.46518 0.0
H586 H 0.59841 0.99292 0.51991 0.0
H587 H 0.60748 0.9918 0.45308 0.0
Eu588 Eu 0.30066 0.26646 0.77243 0.0
C589 C 0.23242 0.287 0.7296 0.0
N590 N 0.24406 0.29542 0.74455 0.0
C591 C 0.24562 0.32275 0.73199 0.0
C592 C 0.22747 0.29615 0.71487 0.0
C593 C 0.25 0.31319 0.7463 0.0
C594 C 0.2345 0.31416 0.71609 0.0
C595 C 0.2126 0.26032 0.71403 0.0
C596 C 0.22505 0.26923 0.72916 0.0
C597 C 0.20798 0.26935 0.69921 0.0
C598 C 0.21542 0.28719 0.69961 0.0
Eu599 Eu 0.24997 0.27797 0.76811 0.0
N600 N 0.23007 0.26063 0.74348 0.0
C601 C 0.20523 0.24255 0.7142 0.0
C602 C 0.22262 0.24345 0.74393 0.0
C603 C 0.2102 0.23411 0.72925 0.0
H604 H 0.25771 0.32023 0.7589 0.0
H605 H 0.20436 0.22045 0.72963 0.0
H606 H 0.29378 0.22311 0.7793 0.0
H607 H 0.34773 0.32164 0.81234 0.0
H608 H 0.22589 0.23704 0.7558 0.0
H609 H 0.19563 0.23526 0.70284 0.0
H610 H 0.32621 0.30595 0.78548 0.0
H611 H 0.25059 0.3368 0.73337 0.0
H612 H 0.19856 0.26267 0.68741 0.0
H613 H 0.21156 0.29401 0.68816 0.0
H614 H 0.29922 0.20584 0.80464 0.0
H615 H 0.23101 0.32165 0.70509 0.0
H616 H 0.35373 0.30651 0.83973 0.0
N617 N 0.30537 0.2479 0.7954 0.0
C618 C 0.3158 0.25604 0.81132 0.0
C619 C 0.30369 0.21998 0.80682 0.0
C620 C 0.3201 0.24638 0.82585 0.0
C621 C 0.30021 0.22997 0.79261 0.0
C622 C 0.31345 0.22825 0.82362 0.0
N623 N 0.3196 0.28279 0.79818 0.0
C624 C 0.32862 0.29948 0.79759 0.0
C625 C 0.33564 0.28219 0.8281 0.0
C626 C 0.32342 0.27383 0.81256 0.0
C627 C 0.3442 0.29968 0.8281 0.0
C628 C 0.34084 0.30828 0.81267 0.0
H629 H 0.31644 0.2204 0.83446 0.0
H630 H 0.3349 0.24769 0.85304 0.0
H631 H 0.34858 0.27899 0.85495 0.0
O632 O 0.31936 0.27516 0.7525 0.0
O633 O 0.29313 0.28464 0.79584 0.0
O634 O 0.26382 0.27222 0.79498 0.0
O635 O 0.32418 0.25511 0.76927 0.0
O636 O 0.2939 0.28897 0.75788 0.0
O637 O 0.2737 0.30108 0.77373 0.0
O638 O 0.22261 0.27153 0.77634 0.0
O639 O 0.26142 0.2698 0.74103 0.0
O640 O 0.28139 0.25168 0.74806 0.0
O641 O 0.23862 0.29816 0.78317 0.0
O642 O 0.25233 0.25226 0.77906 0.0
O643 O 0.27721 0.24293 0.7681 0.0
C644 C 0.27848 0.28205 0.80391 0.0
C645 C 0.33787 0.25545 0.7416 0.0
C646 C 0.36323 0.25444 0.72373 0.0
C647 C 0.3562 0.23657 0.71755 0.0
C648 C 0.33097 0.23768 0.73489 0.0
C649 C 0.34012 0.22834 0.72294 0.0
C650 C 0.35388 0.26391 0.73569 0.0
C651 C 0.28842 0.30274 0.76552 0.0
C652 C 0.3299 0.26449 0.75662 0.0
C653 C 0.33153 0.25491 0.84176 0.0
C654 C 0.33935 0.27274 0.84284 0.0
C655 C 0.27141 0.25831 0.73609 0.0
C656 C 0.20867 0.29412 0.79243 0.0
C657 C 0.18239 0.29047 0.80954 0.0
C658 C 0.18076 0.30775 0.80723 0.0
C659 C 0.20662 0.31136 0.79048 0.0
C660 C 0.19632 0.28351 0.80187 0.0
C661 C 0.19272 0.31805 0.79773 0.0
C662 C 0.26166 0.24008 0.77482 0.0
C663 C 0.22349 0.28759 0.78399 0.0
H664 H 0.36312 0.22899 0.70837 0.0
H665 H 0.31877 0.23091 0.73932 0.0
H666 H 0.33485 0.21457 0.71805 0.0
H667 H 0.35942 0.27756 0.74098 0.0
H668 H 0.17017 0.31332 0.81288 0.0
H669 H 0.21569 0.31967 0.78312 0.0
H670 H 0.19771 0.27017 0.80351 0.0
H671 H 0.19125 0.33134 0.79604 0.0
Eu672 Eu 0.03382 0.99767 0.51672 0.0
C673 C 0.00817 0.06289 0.55887 0.0
N674 N 0.00058 0.05137 0.54352 0.0
C675 C 0.97234 0.0475 0.55563 0.0
C676 C 0.99813 0.06667 0.57354 0.0
C677 C 0.98275 0.04428 0.54138 0.0
C678 C 0.98009 0.05858 0.57187 0.0
C679 C 0.03411 0.08334 0.57546 0.0
C680 C 0.02603 0.0711 0.55987 0.0
C681 C 0.02419 0.08688 0.59019 0.0
C682 C 0.00628 0.07854 0.58925 0.0
Eu683 Eu 0.01959 0.04687 0.52046 0.0
N684 N 0.0355 0.06714 0.54561 0.0
C685 C 0.05191 0.09175 0.57574 0.0
C686 C 0.05265 0.07568 0.54554 0.0
C687 C 0.06116 0.08802 0.56064 0.0
H688 H 0.97634 0.03637 0.52859 0.0
H689 H 0.0748 0.09471 0.56056 0.0
H690 H 0.07683 0.00656 0.50668 0.0
H691 H 0.9772 0.95034 0.47901 0.0
H692 H 0.05966 0.07333 0.53367 0.0
H693 H 0.05856 0.10129 0.58742 0.0
H694 H 0.99398 0.97137 0.50567 0.0
H695 H 0.95828 0.04161 0.55398 0.0
H696 H 0.03022 0.09616 0.60232 0.0
H697 H 0.99878 0.08154 0.60066 0.0
H698 H 0.09351 0.00097 0.48032 0.0
H699 H 0.97194 0.06113 0.58284 0.0
H700 H 0.99152 0.9445 0.45052 0.0
N701 N 0.05155 0.99348 0.4922 0.0
C702 C 0.04308 0.98248 0.4768 0.0
C703 C 0.07927 0.99597 0.479 0.0
C704 C 0.05236 0.9784 0.46157 0.0
C705 C 0.06959 0.99949 0.49382 0.0
C706 C 0.07058 0.98559 0.4627 0.0
N707 N 0.01685 0.97799 0.49177 0.0
C708 C 6e-05 0.9691 0.49308 0.0
C709 C 0.01643 0.96231 0.46127 0.0
C710 C 0.02533 0.97437 0.47666 0.0
C711 C 0.9988 0.95385 0.46205 0.0
C712 C 0.99066 0.95713 0.47811 0.0
H713 H 0.07818 0.9827 0.45135 0.0
H714 H 0.0503 0.96358 0.43416 0.0
H715 H 0.01883 0.94961 0.43386 0.0
O716 O 0.02588 0.97624 0.53431 0.0
O717 O 0.01575 0.00417 0.49272 0.0
O718 O 0.02756 0.0332 0.49441 0.0
O719 O 0.05097 0.9795 0.5222 0.0
O720 O 0.01004 0.00282 0.53103 0.0
O721 O 0.99777 0.02217 0.51426 0.0
O722 O 0.02516 0.07369 0.51218 0.0
O723 O 0.02629 0.03592 0.54768 0.0
O724 O 0.04627 0.01763 0.54157 0.0
O725 O 0.99879 0.05673 0.50468 0.0
O726 O 0.04696 0.04617 0.51158 0.0
O727 O 0.05679 0.02146 0.52126 0.0
C728 C 0.01787 0.01877 0.48511 0.0
C729 C 0.04596 0.95498 0.5397 0.0
C730 C 0.04258 0.9309 0.55892 0.0
C731 C 0.05835 0.92648 0.55329 0.0
C732 C 0.06165 0.94999 0.53431 0.0
C733 C 0.06773 0.9359 0.54104 0.0
C734 C 0.03622 0.94517 0.55197 0.0
C735 C 0.99626 0.00845 0.52352 0.0
C736 C 0.04052 0.97041 0.53211 0.0
C737 C 0.04338 0.96678 0.44599 0.0
C738 C 0.02546 0.95878 0.44583 0.0
C739 C 0.03831 0.02686 0.55311 0.0
C740 C 0.00198 0.08602 0.49529 0.0
C741 C 0.00535 0.11163 0.47811 0.0
C742 C 0.98758 0.11274 0.4802 0.0
C743 C 0.98426 0.08753 0.49699 0.0
C744 C 0.01271 0.09833 0.48599 0.0
C745 C 0.97719 0.10086 0.48962 0.0
C746 C 0.05944 0.03716 0.51562 0.0
C747 C 0.00898 0.07199 0.50409 0.0
H748 H 0.06337 0.91553 0.55831 0.0
H749 H 0.06939 0.95701 0.52481 0.0
H750 H 0.07982 0.93228 0.53674 0.0
H751 H 0.02406 0.94868 0.55624 0.0
H752 H 0.98171 0.12291 0.47449 0.0
H753 H 0.97589 0.0785 0.50431 0.0
H754 H 0.02643 0.09739 0.48461 0.0
H755 H 0.96355 0.10196 0.49118 0.0
Eu756 Eu 0.27686 0.79598 0.75667 0.0
C757 C 0.23658 0.7309 0.79158 0.0
N758 N 0.25159 0.74316 0.79807 0.0
C759 C 0.24238 0.74561 0.82864 0.0
C760 C 0.22367 0.7258 0.80351 0.0
C761 C 0.25489 0.75016 0.81639 0.0
C762 C 0.22667 0.73344 0.82217 0.0
C763 C 0.21832 0.71108 0.76579 0.0
C764 C 0.23395 0.72352 0.77282 0.0
C765 C 0.20556 0.70592 0.77774 0.0
C766 C 0.20822 0.71326 0.7965 0.0
Eu767 Eu 0.27208 0.74818 0.7763 0.0
N768 N 0.24629 0.72899 0.76133 0.0
C769 C 0.21589 0.70432 0.74687 0.0
C770 C 0.24411 0.72241 0.74296 0.0
C771 C 0.22882 0.71002 0.73542 0.0
H772 H 0.26734 0.75889 0.8218 0.0
H773 H 0.22706 0.70477 0.72081 0.0
H774 H 0.28102 0.78717 0.71092 0.0
H775 H 0.31798 0.8462 0.80893 0.0
H776 H 0.25424 0.72653 0.73419 0.0
H777 H 0.20406 0.69472 0.74095 0.0
H778 H 0.29168 0.82302 0.796 0.0
H779 H 0.24499 0.75129 0.84314 0.0
H780 H 0.1935 0.69634 0.77258 0.0
H781 H 0.19819 0.70917 0.80549 0.0
H782 H 0.30361 0.79362 0.68956 0.0
H783 H 0.21706 0.72986 0.83175 0.0
H784 H 0.3426 0.85385 0.78985 0.0
N785 N 0.29766 0.80118 0.73491 0.0
C786 C 0.31287 0.81318 0.74128 0.0
C787 C 0.30656 0.79893 0.70414 0.0
C788 C 0.32584 0.81804 0.72931 0.0
C789 C 0.29397 0.79482 0.71643 0.0
C790 C 0.3227 0.81041 0.71066 0.0
N791 N 0.30196 0.81713 0.77052 0.0
C792 C 0.30259 0.8261 0.78784 0.0
C793 C 0.33006 0.83483 0.76614 0.0
C794 C 0.31496 0.82156 0.75948 0.0
C795 C 0.33123 0.84356 0.78424 0.0
C796 C 0.31736 0.83927 0.79508 0.0
H797 H 0.3323 0.81383 0.70103 0.0
H798 H 0.35125 0.83472 0.7271 0.0
H799 H 0.35497 0.84936 0.75932 0.0
O800 O 0.26098 0.81619 0.76505 0.0
O801 O 0.30158 0.79097 0.77433 0.0
O802 O 0.29929 0.76093 0.76892 0.0
O803 O 0.26976 0.81319 0.73735 0.0
O804 O 0.26505 0.79032 0.78292 0.0
O805 O 0.28137 0.77239 0.79683 0.0
O806 O 0.27762 0.72134 0.77113 0.0
O807 O 0.24617 0.75869 0.76929 0.0
O808 O 0.25199 0.77529 0.74553 0.0
O809 O 0.28512 0.73705 0.79869 0.0
O810 O 0.28272 0.74991 0.7488 0.0
O811 O 0.27049 0.77143 0.73601 0.0
C812 C 0.3088 0.77685 0.77429 0.0
C813 C 0.25235 0.83547 0.74232 0.0
C814 C 0.23855 0.86094 0.74813 0.0
C815 C 0.2369 0.86229 0.729 0.0
C816 C 0.25042 0.83701 0.72316 0.0
C817 C 0.24274 0.85032 0.71659 0.0
C818 C 0.24617 0.84743 0.75485 0.0
C819 C 0.27371 0.78607 0.79755 0.0
C820 C 0.26117 0.82154 0.74868 0.0
C821 C 0.34116 0.83086 0.73609 0.0
C822 C 0.34325 0.83924 0.75444 0.0
C823 C 0.24063 0.76689 0.75553 0.0
C824 C 0.29142 0.70769 0.79603 0.0
C825 C 0.30759 0.68341 0.79382 0.0
C826 C 0.30346 0.68015 0.81171 0.0
C827 C 0.28778 0.7043 0.81394 0.0
C828 C 0.30117 0.69708 0.78584 0.0
C829 C 0.29365 0.69051 0.82164 0.0
C830 C 0.27926 0.75854 0.73486 0.0
C831 C 0.28479 0.72224 0.78827 0.0
H832 H 0.23096 0.87259 0.72366 0.0
H833 H 0.25491 0.82794 0.71316 0.0
H834 H 0.24135 0.85139 0.70185 0.0
H835 H 0.24752 0.84643 0.76963 0.0
H836 H 0.30777 0.66949 0.81807 0.0
H837 H 0.28019 0.71221 0.82191 0.0
H838 H 0.30417 0.69979 0.77207 0.0
H839 H 0.29062 0.68786 0.83539 0.0
Eu840 Eu 0.52079 0.03624 0.99292 0.0
C841 C 0.55839 0.00101 0.06517 0.0
N842 N 0.54463 0.99274 0.0523 0.0
C843 C 0.55698 0.96663 0.04993 0.0
C844 C 0.57238 0.99249 0.07059 0.0
C845 C 0.54364 0.97576 0.04474 0.0
C846 C 0.57152 0.97508 0.0628 0.0
C847 C 0.57252 0.02694 0.08651 0.0
C848 C 0.55836 0.01796 0.07304 0.0
C849 C 0.58681 0.01877 0.09148 0.0
C850 C 0.5867 0.00154 0.08361 0.0
Eu851 Eu 0.52348 0.00921 0.04243 0.0
N852 N 0.54429 0.02546 0.0679 0.0
C853 C 0.57177 0.04375 0.09485 0.0
C854 C 0.54298 0.04137 0.0771 0.0
C855 C 0.55678 0.05085 0.09036 0.0
H856 H 0.53253 0.96923 0.03468 0.0
H857 H 0.55576 0.0636 0.09724 0.0
H858 H 0.51423 0.0771 0.00521 0.0
H859 H 0.48322 0.98453 0.93869 0.0
H860 H 0.53135 0.04697 0.07471 0.0
H861 H 0.58241 0.05111 0.10517 0.0
H862 H 0.50722 0.99767 0.96353 0.0
H863 H 0.55612 0.95314 0.0439 0.0
H864 H 0.59785 0.02554 0.10166 0.0
H865 H 0.59766 0.99528 0.08779 0.0
H866 H 0.49319 0.09594 0.99629 0.0
H867 H 0.58194 0.96804 0.06668 0.0
H868 H 0.46101 0.0017 0.9282 0.0
N869 N 0.50158 0.05535 0.98515 0.0
C870 C 0.48843 0.04906 0.97083 0.0
C871 C 0.49164 0.08275 0.98909 0.0
C872 C 0.47604 0.05938 0.96537 0.0
C873 C 0.50346 0.07198 0.9942 0.0
C874 C 0.47782 0.0764 0.97468 0.0
N875 N 0.49891 0.02227 0.96776 0.0
C876 C 0.49779 0.00548 0.95936 0.0
C877 C 0.47302 0.02497 0.94751 0.0
C878 C 0.48705 0.03209 0.96186 0.0
C879 C 0.47165 0.00766 0.93918 0.0
C880 C 0.48413 0.99792 0.9451 0.0
H881 H 0.46861 0.08475 0.97086 0.0
H882 H 0.45252 0.06008 0.94667 0.0
H883 H 0.44978 0.02991 0.93116 0.0
O884 O 0.54114 0.03475 0.97439 0.0
O885 O 0.49288 0.02389 0.99739 0.0
O886 O 0.51145 0.01696 0.0176 0.0
O887 O 0.53538 0.06011 0.9843 0.0
O888 O 0.52841 0.00859 0.98965 0.0
O889 O 0.52145 0.99181 0.01429 0.0
O890 O 0.50119 0.00856 0.05848 0.0
O891 O 0.54953 0.0161 0.03134 0.0
O892 O 0.53902 0.03756 0.01919 0.0
O893 O 0.50776 0.98404 0.04717 0.0
O894 O 0.51511 0.03633 0.04621 0.0
O895 O 0.52198 0.05299 0.02152 0.0
C896 C 0.49502 0.01573 0.01148 0.0
C897 C 0.54609 0.0569 0.95495 0.0
C898 C 0.5595 0.05346 0.92647 0.0
C899 C 0.55245 0.06743 0.92026 0.0
C900 C 0.53889 0.07089 0.9488 0.0
C901 C 0.54208 0.07609 0.93144 0.0
C902 C 0.55634 0.04827 0.94368 0.0
C903 C 0.52624 0.99361 0.99731 0.0
C904 C 0.54428 0.05161 0.97343 0.0
C905 C 0.4622 0.05237 0.95097 0.0
C906 C 0.46065 0.0352 0.94211 0.0
C907 C 0.55145 0.0284 0.02059 0.0
C908 C 0.49676 0.98577 0.07651 0.0
C909 C 0.48595 0.99049 0.10631 0.0
C910 C 0.49577 0.97866 0.11326 0.0
C911 C 0.5066 0.97381 0.08333 0.0
C912 C 0.48617 0.99374 0.08798 0.0
C913 C 0.50595 0.97019 0.10167 0.0
C914 C 0.51717 0.05123 0.03849 0.0
C915 C 0.49827 0.99156 0.05825 0.0
H916 H 0.55505 0.07162 0.90692 0.0
H917 H 0.53101 0.07788 0.95739 0.0
H918 H 0.53667 0.08693 0.92673 0.0
H919 H 0.56222 0.03766 0.94844 0.0
H920 H 0.49544 0.97593 0.12751 0.0
H921 H 0.51495 0.96753 0.07468 0.0
H922 H 0.47849 0.00296 0.08281 0.0
H923 H 0.5135 0.961 0.10697 0.0
Eu924 Eu 0.26418 0.24788 0.25347 0.0
C925 C 0.32469 0.30871 0.29812 0.0
N926 N 0.30957 0.29934 0.30325 0.0
C927 C 0.32387 0.30087 0.33431 0.0
C928 C 0.34004 0.31468 0.31116 0.0
C929 C 0.30891 0.29539 0.32102 0.0
C930 C 0.33947 0.31063 0.3294 0.0
C931 C 0.34023 0.32277 0.27445 0.0
C932 C 0.32474 0.3128 0.27988 0.0
C933 C 0.35544 0.32876 0.28749 0.0
C934 C 0.35533 0.32479 0.30577 0.0
Eu935 Eu 0.28424 0.29535 0.28121 0.0
N936 N 0.30958 0.3075 0.26765 0.0
C937 C 0.33986 0.32684 0.25618 0.0
C938 C 0.30901 0.31205 0.25009 0.0
C939 C 0.32418 0.32143 0.24395 0.0
H940 H 0.29659 0.28888 0.32527 0.0
H941 H 0.3236 0.32495 0.22996 0.0
H942 H 0.25287 0.2554 0.20934 0.0
H943 H 0.2263 0.20672 0.29733 0.0
H944 H 0.29679 0.30924 0.24101 0.0
H945 H 0.35148 0.33448 0.25151 0.0
H946 H 0.25287 0.22535 0.28821 0.0
H947 H 0.32321 0.29796 0.34845 0.0
H948 H 0.36735 0.33664 0.2836 0.0
H949 H 0.36714 0.32967 0.31568 0.0
H950 H 0.2266 0.24819 0.1857 0.0
H951 H 0.35093 0.31513 0.33984 0.0
H952 H 0.19806 0.19976 0.27608 0.0
N953 N 0.23949 0.24302 0.2301 0.0
C954 C 0.22431 0.23269 0.23397 0.0
C955 C 0.22569 0.24397 0.19931 0.0
C956 C 0.20907 0.22786 0.22063 0.0
C957 C 0.24049 0.24835 0.21291 0.0
C958 C 0.20988 0.23377 0.20321 0.0
N959 N 0.23924 0.23074 0.26349 0.0
C960 C 0.24034 0.22332 0.27952 0.0
C961 C 0.20888 0.21512 0.25528 0.0
C962 C 0.22421 0.22632 0.25109 0.0
C963 C 0.20954 0.20842 0.27236 0.0
C964 C 0.22542 0.21239 0.28444 0.0
H965 H 0.19851 0.23024 0.19256 0.0
H966 H 0.18189 0.2131 0.21481 0.0
H967 H 0.1817 0.20203 0.24515 0.0
O968 O 0.27646 0.22545 0.25825 0.0
O969 O 0.24223 0.26111 0.26464 0.0
O970 O 0.25511 0.28632 0.28515 0.0
O971 O 0.26402 0.22763 0.23029 0.0
O972 O 0.27791 0.24998 0.2831 0.0
O973 O 0.27296 0.27547 0.29922 0.0
O974 O 0.28204 0.32227 0.27788 0.0
O975 O 0.30373 0.27687 0.27498 0.0
O976 O 0.29072 0.26271 0.24655 0.0
O977 O 0.28522 0.3146 0.30547 0.0
O978 O 0.26783 0.29436 0.25299 0.0
O979 O 0.27351 0.26952 0.23693 0.0
C980 C 0.24114 0.27452 0.277 0.0
C981 C 0.27709 0.20211 0.23343 0.0
C982 C 0.29193 0.17813 0.23883 0.0
C983 C 0.28819 0.17143 0.21986 0.0
C984 C 0.27307 0.19533 0.21446 0.0
C985 C 0.27863 0.17998 0.20773 0.0
C986 C 0.28629 0.19332 0.24553 0.0
C987 C 0.27497 0.25912 0.29839 0.0
C988 C 0.27245 0.21863 0.24078 0.0
C989 C 0.1937 0.21694 0.2249 0.0
C990 C 0.19359 0.21062 0.24218 0.0
C991 C 0.30501 0.26844 0.25863 0.0
C992 C 0.2688 0.33684 0.30145 0.0
C993 C 0.2497 0.35729 0.29457 0.0
C994 C 0.24402 0.35706 0.3123 0.0
C995 C 0.26326 0.33677 0.31933 0.0
C996 C 0.26203 0.34724 0.28922 0.0
C997 C 0.25087 0.34683 0.32467 0.0
C998 C 0.26835 0.28458 0.23722 0.0
C999 C 0.2823 0.32695 0.29571 0.0
H1000 H 0.29243 0.15953 0.21457 0.0
H1001 H 0.26588 0.20196 0.20484 0.0
H1002 H 0.27562 0.17477 0.19312 0.0
H1003 H 0.28944 0.19845 0.26019 0.0
H1004 H 0.23473 0.36513 0.31672 0.0
H1005 H 0.26858 0.3291 0.32923 0.0
H1006 H 0.2665 0.34776 0.27555 0.0
H1007 H 0.24674 0.34687 0.33848 0.0
Eu1008 Eu 0.53388 0.49809 0.01696 0.0
C1009 C 0.50843 0.56301 0.06021 0.0
N1010 N 0.50082 0.55202 0.04448 0.0
C1011 C 0.47216 0.54932 0.05573 0.0
C1012 C 0.49815 0.56714 0.07456 0.0
C1013 C 0.48274 0.54606 0.04165 0.0
C1014 C 0.47993 0.55968 0.07238 0.0
C1015 C 0.5341 0.58389 0.07678 0.0
C1016 C 0.52629 0.57118 0.06147 0.0
C1017 C 0.52403 0.58755 0.09131 0.0
C1018 C 0.50615 0.57911 0.09027 0.0
Eu1019 Eu 0.52055 0.54721 0.02205 0.0
N1020 N 0.53596 0.56712 0.04748 0.0
C1021 C 0.55177 0.59267 0.07691 0.0
C1022 C 0.5528 0.5763 0.04697 0.0
C1023 C 0.56109 0.589 0.06183 0.0
H1024 H 0.47619 0.53906 0.02845 0.0
H1025 H 0.57457 0.59605 0.06157 0.0
H1026 H 0.57698 0.50723 0.00792 0.0
H1027 H 0.47595 0.45472 0.97621 0.0
H1028 H 0.55974 0.57374 0.03504 0.0
H1029 H 0.55822 0.60254 0.08839 0.0
H1030 H 0.49256 0.47465 0.00359 0.0
H1031 H 0.45792 0.54418 0.05356 0.0
H1032 H 0.52986 0.5971 0.10329 0.0
H1033 H 0.49845 0.58233 0.10144 0.0
H1034 H 0.59435 0.50087 0.98226 0.0
H1035 H 0.47162 0.56246 0.08312 0.0
H1036 H 0.49148 0.44733 0.94902 0.0
N1037 N 0.55212 0.49339 0.99325 0.0
C1038 C 0.54385 0.48229 0.97785 0.0
C1039 C 0.58013 0.49574 0.98074 0.0
C1040 C 0.55346 0.47793 0.96299 0.0
C1041 C 0.57011 0.49961 0.99516 0.0
C1042 C 0.57175 0.48499 0.96452 0.0
N1043 N 0.51668 0.47941 0.99146 0.0
C1044 C 0.49919 0.47202 0.99152 0.0
C1045 C 0.51688 0.46348 0.96118 0.0
C1046 C 0.52571 0.47506 0.97696 0.0
C1047 C 0.49872 0.45631 0.96086 0.0
C1048 C 0.48988 0.46051 0.97615 0.0
H1049 H 0.57959 0.48193 0.95343 0.0
H1050 H 0.55181 0.46306 0.93569 0.0
H1051 H 0.51983 0.45046 0.93408 0.0
O1052 O 0.52733 0.47101 0.02439 0.0
O1053 O 0.52592 0.5101 0.9904 0.0
O1054 O 0.50546 0.52688 -0.00117 0.0
O1055 O 0.55457 0.48643 0.03048 0.0
O1056 O 0.50802 0.49951 0.02915 0.0
O1057 O 0.49752 0.52336 0.01853 0.0
O1058 O 0.52849 0.56432 0.00068 0.0
O1059 O 0.5388 0.54098 0.04602 0.0
O1060 O 0.52854 0.51139 0.04461 0.0
O1061 O 0.50895 0.57016 0.01851 0.0
O1062 O 0.54458 0.54143 0.00838 0.0
O1063 O 0.55671 0.52156 0.02409 0.0
C1064 C 0.51273 0.51828 0.98605 0.0
C1065 C 0.55026 0.45681 0.03897 0.0
C1066 C 0.547 0.43162 0.05669 0.0
C1067 C 0.56405 0.42924 0.05291 0.0
C1068 C 0.56727 0.45406 0.03553 0.0
C1069 C 0.57403 0.44031 0.04234 0.0
C1070 C 0.53993 0.44535 0.04943 0.0
C1071 C 0.49539 0.50856 0.02609 0.0
C1072 C 0.54372 0.47163 0.03136 0.0
C1073 C 0.54463 0.46652 0.94722 0.0
C1074 C 0.52641 0.45933 0.94631 0.0
C1075 C 0.53758 0.52633 0.0536 0.0
C1076 C 0.50908 0.58356 0.99093 0.0
C1077 C 0.50885 0.6091 0.97412 0.0
C1078 C 0.49038 0.6034 0.96918 0.0
C1079 C 0.49069 0.57798 0.98543 0.0
C1080 C 0.51822 0.59901 0.98492 0.0
C1081 C 0.48143 0.58787 0.97463 0.0
C1082 C 0.55833 0.53616 0.01642 0.0
C1083 C 0.51813 0.57516 0.0053 0.0
H1084 H 0.56968 0.41875 0.05821 0.0
H1085 H 0.57533 0.46251 0.0274 0.0
H1086 H 0.58714 0.43828 0.03951 0.0
H1087 H 0.52679 0.44733 0.05225 0.0
H1088 H 0.48286 0.61095 0.96098 0.0
H1089 H 0.48336 0.5663 0.99004 0.0
H1090 H 0.53237 0.6036 0.98934 0.0
H1091 H 0.46719 0.58365 0.97073 0.0
Eu1092 Eu 0.7782 0.29883 0.25466 0.0
C1093 C 0.74042 0.2295 0.29497 0.0
N1094 N 0.75637 0.24065 0.30007 0.0
C1095 C 0.75279 0.23946 0.33231 0.0
C1096 C 0.72955 0.22361 0.30848 0.0
C1097 C 0.76315 0.24476 0.31838 0.0
C1098 C 0.73574 0.22914 0.32733 0.0
C1099 C 0.71985 0.2101 0.27074 0.0
C1100 C 0.73564 0.22282 0.27632 0.0
C1101 C 0.70844 0.20505 0.284 0.0
C1102 C 0.71327 0.2118 0.30283 0.0
Eu1103 Eu 0.77241 0.24992 0.27561 0.0
N1104 N 0.74696 0.22791 0.26382 0.0
C1105 C 0.71628 0.20244 0.25209 0.0
C1106 C 0.74401 0.21983 0.24583 0.0
C1107 C 0.72855 0.20715 0.23965 0.0
H1108 H 0.77657 0.2523 0.32218 0.0
H1109 H 0.72606 0.2011 0.22529 0.0
H1110 H 0.78005 0.29371 0.20844 0.0
H1111 H 0.82475 0.34089 0.31021 0.0
H1112 H 0.75334 0.22362 0.23615 0.0
H1113 H 0.70431 0.19263 0.24727 0.0
H1114 H 0.79702 0.32017 0.29677 0.0
H1115 H 0.75803 0.2432 0.34683 0.0
H1116 H 0.69613 0.19551 0.27992 0.0
H1117 H 0.70463 0.20732 0.31298 0.0
H1118 H 0.80166 0.30177 0.18632 0.0
H1119 H 0.72779 0.2249 0.33813 0.0
H1120 H 0.84768 0.35087 0.28999 0.0
N1121 N 0.79781 0.30583 0.23235 0.0
C1122 C 0.81338 0.3172 0.23891 0.0
C1123 C 0.80529 0.30591 0.2011 0.0
C1124 C 0.8259 0.32279 0.22673 0.0
C1125 C 0.79326 0.30087 0.21369 0.0
C1126 C 0.8218 0.31672 0.20768 0.0
N1127 N 0.80434 0.31819 0.26927 0.0
C1128 C 0.80696 0.32433 0.28782 0.0
C1129 C 0.83265 0.3356 0.26492 0.0
C1130 C 0.81664 0.32371 0.2578 0.0
C1131 C 0.83555 0.34175 0.284 0.0
C1132 C 0.82264 0.33611 0.29547 0.0
H1133 H 0.83103 0.32075 0.19788 0.0
H1134 H 0.85164 0.33892 0.22469 0.0
H1135 H 0.85761 0.35 0.2581 0.0
O1136 O 0.7713 0.32479 0.26162 0.0
O1137 O 0.8037 0.28918 0.26421 0.0
O1138 O 0.79545 0.27285 0.28763 0.0
O1139 O 0.76426 0.31055 0.23333 0.0
O1140 O 0.77064 0.29757 0.28343 0.0
O1141 O 0.7661 0.2709 0.29613 0.0
O1142 O 0.7811 0.22543 0.26618 0.0
O1143 O 0.74863 0.25479 0.25622 0.0
O1144 O 0.75056 0.28502 0.25988 0.0
O1145 O 0.79325 0.2408 0.29208 0.0
O1146 O 0.78584 0.25887 0.25143 0.0
O1147 O 0.77143 0.27477 0.23327 0.0
C1148 C 0.80789 0.28097 0.27848 0.0
C1149 C 0.75606 0.33906 0.23843 0.0
C1150 C 0.73815 0.36157 0.24334 0.0
C1151 C 0.73939 0.36496 0.2249 0.0
C1152 C 0.75716 0.34271 0.22008 0.0
C1153 C 0.74897 0.35569 0.21342 0.0
C1154 C 0.7468 0.34877 0.25023 0.0
C1155 C 0.76625 0.28785 0.29656 0.0
C1156 C 0.76393 0.32459 0.24469 0.0
C1157 C 0.84188 0.33453 0.23383 0.0
C1158 C 0.84524 0.3409 0.25286 0.0
C1159 C 0.7413 0.26884 0.25538 0.0
C1160 C 0.79401 0.21047 0.28909 0.0
C1161 C 0.80724 0.18435 0.28996 0.0
C1162 C 0.80041 0.18176 0.3069 0.0
C1163 C 0.78714 0.20751 0.30591 0.0
C1164 C 0.80382 0.19869 0.28101 0.0
C1165 C 0.79032 0.1932 0.31472 0.0
C1166 C 0.77763 0.2605 0.23544 0.0
C1167 C 0.79265 0.2266 0.28071 0.0
H1168 H 0.733 0.37491 0.21941 0.0
H1169 H 0.76433 0.33547 0.21085 0.0
H1170 H 0.7499 0.35846 0.19926 0.0
H1171 H 0.7458 0.34598 0.2644 0.0
H1172 H 0.80279 0.17079 0.31405 0.0
H1173 H 0.77963 0.21641 0.31243 0.0
H1174 H 0.80937 0.20105 0.26816 0.0
H1175 H 0.78513 0.19108 0.32777 0.0
Eu1176 Eu 0.02425 0.53665 0.49285 0.0
C1177 C 0.05931 0.49955 0.56609 0.0
N1178 N 0.04623 0.49236 0.55193 0.0
C1179 C 0.05776 0.46577 0.54891 0.0
C1180 C 0.07261 0.49027 0.5717 0.0
C1181 C 0.04504 0.47556 0.54363 0.0
C1182 C 0.07172 0.47321 0.56286 0.0
C1183 C 0.07344 0.52448 0.58898 0.0
C1184 C 0.0596 0.51637 0.5748 0.0
C1185 C 0.08686 0.51539 0.59438 0.0
C1186 C 0.0864 0.4983 0.58581 0.0
Eu1187 Eu 0.02596 0.51022 0.543 0.0
N1188 N 0.04679 0.52512 0.56875 0.0
C1189 C 0.07355 0.54161 0.59714 0.0
C1190 C 0.04648 0.54157 0.57723 0.0
C1191 C 0.05992 0.5501 0.59135 0.0
H1192 H 0.03416 0.46959 0.53307 0.0
H1193 H 0.05975 0.56327 0.59775 0.0
H1194 H 0.01634 0.57658 0.50484 0.0
H1195 H 0.98914 0.48496 0.43691 0.0
H1196 H 0.03596 0.54828 0.57325 0.0
H1197 H 0.08402 0.54832 0.60798 0.0
H1198 H 0.01363 0.4993 0.46061 0.0
H1199 H 0.0568 0.45248 0.54219 0.0
H1200 H 0.09765 0.52146 0.60515 0.0
H1201 H 0.09682 0.49143 0.59016 0.0
H1202 H 0.99376 0.59429 0.49704 0.0
H1203 H 0.08165 0.46564 0.5668 0.0
H1204 H 0.96427 0.4999 0.42891 0.0
N1205 N 0.00379 0.55452 0.48522 0.0
C1206 C 0.99014 0.54757 0.47166 0.0
C1207 C 0.99255 0.58115 0.48983 0.0
C1208 C 0.97683 0.55711 0.4669 0.0
C1209 C 0.00529 0.57109 0.49423 0.0
C1210 C 0.97819 0.57409 0.47617 0.0
N1211 N 0.00262 0.52208 0.46751 0.0
C1212 C 0.00283 0.506 0.45798 0.0
C1213 C 0.97521 0.5231 0.4487 0.0
C1214 C 0.98942 0.5308 0.46267 0.0
C1215 C 0.97498 0.50629 0.43964 0.0
C1216 C 0.98896 0.4978 0.44416 0.0
H1217 H 0.96826 0.58187 0.47288 0.0
H1218 H 0.95217 0.55649 0.4494 0.0
H1219 H 0.95071 0.52666 0.43351 0.0
O1220 O 0.04435 0.53605 0.47412 0.0
O1221 O 0.99781 0.5304 0.50343 0.0
O1222 O 0.00763 0.50896 0.51656 0.0
O1223 O 0.04137 0.56113 0.48822 0.0
O1224 O 0.03048 0.50858 0.48913 0.0
O1225 O 0.02668 0.49287 0.51517 0.0
O1226 O 0.00639 0.51142 0.56237 0.0
O1227 O 0.05373 0.52372 0.53977 0.0
O1228 O 0.03637 0.52706 0.51646 0.0
O1229 O 0.01064 0.48608 0.5504 0.0
O1230 O 0.01784 0.53759 0.5444 0.0
O1231 O 0.02939 0.55408 0.52126 0.0
C1232 C 0.99552 0.51851 0.51465 0.0
C1233 C 0.05058 0.5601 0.45791 0.0
C1234 C 0.06211 0.55781 0.42821 0.0
C1235 C 0.0536 0.57121 0.42288 0.0
C1236 C 0.0418 0.57339 0.45261 0.0
C1237 C 0.04341 0.57896 0.43511 0.0
C1238 C 0.06073 0.55246 0.44567 0.0
C1239 C 0.02971 0.49405 0.49749 0.0
C1240 C 0.04904 0.5531 0.4756 0.0
C1241 C 0.96259 0.54941 0.45316 0.0
C1242 C 0.96175 0.53242 0.44413 0.0
C1243 C 0.05244 0.53005 0.52437 0.0
C1244 C 0.00087 0.48808 0.58029 0.0
C1245 C 0.99152 0.49223 0.61096 0.0
C1246 C 0.99521 0.47585 0.61438 0.0
C1247 C 0.00442 0.47156 0.58361 0.0
C1248 C 0.9943 0.49825 0.594 0.0
C1249 C 0.00161 0.46552 0.60066 0.0
C1250 C 0.0223 0.55256 0.53714 0.0
C1251 C 0.00246 0.49442 0.56223 0.0
H1252 H 0.05471 0.57551 0.40931 0.0
H1253 H 0.03367 0.57934 0.46184 0.0
H1254 H 0.03669 0.58921 0.43098 0.0
H1255 H 0.06753 0.54216 0.44969 0.0
H1256 H 0.99261 0.47086 0.62737 0.0
H1257 H 0.00911 0.46325 0.57302 0.0
H1258 H 0.99092 0.51075 0.59139 0.0
H1259 H 0.00413 0.45273 0.60315 0.0
Eu1260 Eu 0.80157 0.7645 0.27408 0.0
C1261 C 0.73027 0.79031 0.23291 0.0
N1262 N 0.74183 0.79805 0.24811 0.0
C1263 C 0.7423 0.82633 0.23794 0.0
C1264 C 0.72478 0.80025 0.21918 0.0
C1265 C 0.74718 0.81592 0.25126 0.0
C1266 C 0.73128 0.81843 0.22167 0.0
C1267 C 0.71038 0.76415 0.21653 0.0
C1268 C 0.72321 0.77251 0.23155 0.0
C1269 C 0.70545 0.77382 0.2024 0.0
C1270 C 0.71268 0.79183 0.20369 0.0
Eu1271 Eu 0.75124 0.7789 0.26847 0.0
N1272 N 0.72853 0.76346 0.24521 0.0
C1273 C 0.70279 0.74636 0.21631 0.0
C1274 C 0.7206 0.74638 0.24558 0.0
C1275 C 0.70774 0.73751 0.23105 0.0
H1276 H 0.7556 0.82213 0.2639 0.0
H1277 H 0.70168 0.72386 0.23122 0.0
H1278 H 0.78971 0.72193 0.28178 0.0
H1279 H 0.85048 0.81791 0.31559 0.0
H1280 H 0.72436 0.73962 0.25703 0.0
H1281 H 0.69288 0.73945 0.20503 0.0
H1282 H 0.83081 0.8027 0.2876 0.0
H1283 H 0.74702 0.84044 0.24024 0.0
H1284 H 0.69583 0.76757 0.19059 0.0
H1285 H 0.7085 0.7992 0.19287 0.0
H1286 H 0.79377 0.70412 0.30704 0.0
H1287 H 0.72747 0.82653 0.2114 0.0
H1288 H 0.85394 0.8026 0.34329 0.0
N1289 N 0.80439 0.74584 0.29732 0.0
C1290 C 0.8152 0.75336 0.31323 0.0
C1291 C 0.79967 0.718 0.30905 0.0
C1292 C 0.81826 0.74343 0.32788 0.0
C1293 C 0.79711 0.72828 0.29485 0.0
C1294 C 0.81016 0.72563 0.32569 0.0
N1295 N 0.82103 0.78012 0.30015 0.0
C1296 C 0.8311 0.79643 0.30003 0.0
C1297 C 0.8355 0.77882 0.33074 0.0
C1298 C 0.82371 0.77094 0.31469 0.0
C1299 C 0.84473 0.79612 0.33126 0.0
C1300 C 0.84273 0.80486 0.3157 0.0
H1301 H 0.81225 0.71756 0.33658 0.0
H1302 H 0.83208 0.74398 0.35541 0.0
H1303 H 0.84717 0.77491 0.3579 0.0
O1304 O 0.82622 0.77236 0.26116 0.0
O1305 O 0.78845 0.77101 0.30002 0.0
O1306 O 0.77423 0.79194 0.29005 0.0
O1307 O 0.81864 0.74588 0.26744 0.0
O1308 O 0.8021 0.79289 0.26956 0.0
O1309 O 0.77388 0.79876 0.25995 0.0
O1310 O 0.72929 0.76929 0.28459 0.0
O1311 O 0.75682 0.76125 0.24343 0.0
O1312 O 0.78792 0.7655 0.24497 0.0
O1313 O 0.73982 0.79703 0.2865 0.0
O1314 O 0.75779 0.7552 0.28123 0.0
O1315 O 0.77737 0.74252 0.26507 0.0
C1316 C 0.77993 0.78388 0.3035 0.0
C1317 C 0.8379 0.74989 0.24371 0.0
C1318 C 0.86192 0.75211 0.22353 0.0
C1319 C 0.85547 0.73446 0.21601 0.0
C1320 C 0.83167 0.73234 0.23559 0.0
C1321 C 0.84041 0.72474 0.22189 0.0
C1322 C 0.85301 0.75988 0.23738 0.0
C1323 C 0.79154 0.80276 0.26256 0.0
C1324 C 0.83022 0.75682 0.26032 0.0
C1325 C 0.8296 0.75142 0.34405 0.0
C1326 C 0.83818 0.76905 0.34548 0.0
C1327 C 0.77169 0.76042 0.23585 0.0
C1328 C 0.70957 0.78893 0.29209 0.0
C1329 C 0.68242 0.78858 0.30765 0.0
C1330 C 0.67706 0.80006 0.29566 0.0
C1331 C 0.70357 0.80012 0.28011 0.0
C1332 C 0.69873 0.78292 0.30573 0.0
C1333 C 0.68747 0.80564 0.28194 0.0
C1334 C 0.76206 0.74142 0.27209 0.0
C1335 C 0.72776 0.78498 0.29153 0.0
H1336 H 0.86216 0.72816 0.20551 0.0
H1337 H 0.82028 0.72425 0.24016 0.0
H1338 H 0.83564 0.71113 0.216 0.0
H1339 H 0.85822 0.77332 0.24371 0.0
H1340 H 0.66467 0.80465 0.29684 0.0
H1341 H 0.71153 0.80494 0.26956 0.0
H1342 H 0.70324 0.77439 0.31516 0.0
H1343 H 0.68312 0.81446 0.27278 0.0
Eu1344 Eu 0.75801 0.27329 0.79266 0.0
C1345 C 0.79929 0.24143 0.7234 0.0
N1346 N 0.80639 0.25484 0.73712 0.0
C1347 C 0.83194 0.24189 0.74334 0.0
C1348 C 0.80795 0.22722 0.71965 0.0
C1349 C 0.82256 0.25542 0.74696 0.0
C1350 C 0.82452 0.22762 0.72977 0.0
C1351 C 0.77507 0.22786 0.69944 0.0
C1352 C 0.78308 0.2418 0.71348 0.0
C1353 C 0.78329 0.21332 0.6961 0.0
C1354 C 0.79975 0.21306 0.7061 0.0
Eu1355 Eu 0.78876 0.27583 0.74444 0.0
N1356 N 0.77536 0.25595 0.7173 0.0
C1357 C 0.7592 0.22908 0.68898 0.0
C1358 C 0.7609 0.25796 0.70585 0.0
C1359 C 0.75234 0.2444 0.69188 0.0
H1360 H 0.82813 0.26624 0.75775 0.0
H1361 H 0.74051 0.24583 0.68331 0.0
H1362 H 0.71724 0.28159 0.7831 0.0
H1363 H 0.81168 0.30618 0.84795 0.0
H1364 H 0.75583 0.26997 0.70724 0.0
H1365 H 0.75253 0.2186 0.67818 0.0
H1366 H 0.79629 0.28228 0.82416 0.0
H1367 H 0.84476 0.24235 0.7512 0.0
H1368 H 0.77719 0.20238 0.68556 0.0
H1369 H 0.80606 0.20188 0.7032 0.0
H1370 H 0.69962 0.30362 0.79325 0.0
H1371 H 0.83167 0.21702 0.72722 0.0
H1372 H 0.79673 0.33045 0.85816 0.0
N1373 N 0.73963 0.29258 0.80314 0.0
C1374 C 0.74682 0.30532 0.81756 0.0
C1375 C 0.71289 0.30427 0.80017 0.0
C1376 C 0.73748 0.31853 0.82335 0.0
C1377 C 0.72288 0.29179 0.7945 0.0
C1378 C 0.72026 0.31778 0.81456 0.0
N1379 N 0.77299 0.29319 0.81929 0.0
C1380 C 0.7896 0.29287 0.82775 0.0
C1381 C 0.77238 0.31964 0.83977 0.0
C1382 C 0.76406 0.30577 0.82575 0.0
C1383 C 0.78983 0.31994 0.8475 0.0
C1384 C 0.79835 0.30634 0.84168 0.0
H1385 H 0.71263 0.32765 0.81865 0.0
H1386 H 0.73884 0.34269 0.84175 0.0
H1387 H 0.76944 0.34374 0.856 0.0
O1388 O 0.75752 0.25207 0.80967 0.0
O1389 O 0.76658 0.30141 0.78865 0.0
O1390 O 0.77895 0.2864 0.76931 0.0
O1391 O 0.73266 0.25778 0.79774 0.0
O1392 O 0.78625 0.26614 0.79492 0.0
O1393 O 0.8042 0.27989 0.7739 0.0
O1394 O 0.78998 0.29884 0.73009 0.0
O1395 O 0.78266 0.24943 0.75371 0.0
O1396 O 0.7593 0.25775 0.76516 0.0
O1397 O 0.81446 0.29063 0.739 0.0
O1398 O 0.75948 0.27971 0.73914 0.0
O1399 O 0.74216 0.27513 0.76439 0.0
C1400 C 0.77645 0.30173 0.7755 0.0
C1401 C 0.73234 0.24558 0.82608 0.0
C1402 C 0.73527 0.23659 0.85699 0.0
C1403 C 0.71673 0.23497 0.85725 0.0
C1404 C 0.71386 0.24386 0.82652 0.0
C1405 C 0.70617 0.2388 0.84216 0.0
C1406 C 0.74299 0.24237 0.84155 0.0
C1407 C 0.80194 0.27141 0.7887 0.0
C1408 C 0.74016 0.24859 0.8088 0.0
C1409 C 0.74574 0.33231 0.8373 0.0
C1410 C 0.76317 0.33291 0.84541 0.0
C1411 C 0.76903 0.24592 0.76286 0.0
C1412 C 0.81303 0.30298 0.71078 0.0
C1413 C 0.80638 0.30763 0.67856 0.0
C1414 C 0.82461 0.30941 0.67639 0.0
C1415 C 0.8312 0.30497 0.70849 0.0
C1416 C 0.80068 0.304 0.69564 0.0
C1417 C 0.83691 0.30797 0.69128 0.0
C1418 C 0.74431 0.27862 0.74705 0.0
C1419 C 0.80709 0.30088 0.72915 0.0
H1420 H 0.71026 0.23012 0.86875 0.0
H1421 H 0.70532 0.246 0.81461 0.0
H1422 H 0.69189 0.23727 0.84234 0.0
H1423 H 0.75727 0.24375 0.84131 0.0
H1424 H 0.82947 0.31267 0.66347 0.0
H1425 H 0.84099 0.30441 0.72005 0.0
H1426 H 0.78661 0.30258 0.69723 0.0
H1427 H 0.85096 0.30966 0.68961 0.0
Eu1428 Eu 0.76284 0.7478 0.75303 0.0
C1429 C 0.82372 0.80824 0.79882 0.0
N1430 N 0.80854 0.79855 0.80348 0.0
C1431 C 0.82216 0.80015 0.83484 0.0
C1432 C 0.83867 0.81457 0.8123 0.0
C1433 C 0.80758 0.79436 0.82114 0.0
C1434 C 0.83772 0.81042 0.83046 0.0
C1435 C 0.83983 0.82235 0.77555 0.0
C1436 C 0.82425 0.8122 0.78058 0.0
C1437 C 0.85457 0.8289 0.78907 0.0
C1438 C 0.85397 0.82507 0.80737 0.0
Eu1439 Eu 0.78364 0.7948 0.78081 0.0
N1440 N 0.80955 0.8063 0.76784 0.0
C1441 C 0.84007 0.82586 0.75712 0.0
C1442 C 0.80967 0.80986 0.74994 0.0
C1443 C 0.82498 0.81944 0.74423 0.0
H1444 H 0.79525 0.78753 0.82505 0.0
H1445 H 0.82498 0.82223 0.72999 0.0
H1446 H 0.75064 0.74958 0.70778 0.0
H1447 H 0.72467 0.71478 0.80331 0.0
H1448 H 0.79797 0.80571 0.74009 0.0
H1449 H 0.85178 0.8336 0.75273 0.0
H1450 H 0.7511 0.73073 0.79186 0.0
H1451 H 0.82121 0.7971 0.84891 0.0
H1452 H 0.86651 0.83698 0.78551 0.0
H1453 H 0.86545 0.83028 0.81763 0.0
H1454 H 0.72432 0.73952 0.68436 0.0
H1455 H 0.84887 0.81517 0.84122 0.0
H1456 H 0.69645 0.70531 0.78227 0.0
N1457 N 0.73768 0.7401 0.73006 0.0
C1458 C 0.72263 0.7307 0.73523 0.0
C1459 C 0.72355 0.73717 0.69867 0.0
C1460 C 0.7073 0.7243 0.72221 0.0
C1461 C 0.73837 0.74325 0.71205 0.0
C1462 C 0.70792 0.72771 0.70378 0.0
N1463 N 0.73785 0.73272 0.76553 0.0
C1464 C 0.73877 0.7279 0.78298 0.0
C1465 C 0.70732 0.71692 0.75911 0.0
C1466 C 0.72268 0.72694 0.75345 0.0
C1467 C 0.70795 0.71296 0.7774 0.0
C1468 C 0.72381 0.71835 0.78934 0.0
H1469 H 0.6965 0.72287 0.69335 0.0
H1470 H 0.68016 0.70939 0.71803 0.0
H1471 H 0.68013 0.70305 0.75035 0.0
O1472 O 0.77446 0.72512 0.75857 0.0
O1473 O 0.74144 0.76276 0.76229 0.0
O1474 O 0.75506 0.78454 0.78647 0.0
O1475 O 0.76362 0.72757 0.73013 0.0
O1476 O 0.77811 0.74996 0.78206 0.0
O1477 O 0.77233 0.77474 0.79837 0.0
O1478 O 0.78073 0.82148 0.77699 0.0
O1479 O 0.80305 0.77672 0.77317 0.0
O1480 O 0.78911 0.7624 0.74513 0.0
O1481 O 0.78572 0.81464 0.80476 0.0
O1482 O 0.76725 0.79457 0.75287 0.0
O1483 O 0.77031 0.76915 0.7352 0.0
C1484 C 0.7407 0.77451 0.77659 0.0
C1485 C 0.77626 0.70194 0.73401 0.0
C1486 C 0.7919 0.67854 0.73963 0.0
C1487 C 0.78848 0.67186 0.72064 0.0
C1488 C 0.77265 0.69518 0.71503 0.0
C1489 C 0.77873 0.68012 0.7084 0.0
C1490 C 0.78568 0.69344 0.74625 0.0
C1491 C 0.77578 0.75892 0.79775 0.0
C1492 C 0.77147 0.71849 0.74101 0.0
C1493 C 0.69201 0.71443 0.72785 0.0
C1494 C 0.69199 0.71082 0.74626 0.0
C1495 C 0.80375 0.76808 0.75676 0.0
C1496 C 0.77162 0.83874 0.80207 0.0
C1497 C 0.75375 0.86066 0.79673 0.0
C1498 C 0.75394 0.8648 0.81606 0.0
C1499 C 0.77183 0.84302 0.82139 0.0
C1500 C 0.7624 0.84748 0.78985 0.0
C1501 C 0.76288 0.8559 0.82831 0.0
C1502 C 0.76693 0.7851 0.73665 0.0
C1503 C 0.78283 0.82687 0.79485 0.0
H1504 H 0.79314 0.66017 0.71539 0.0
H1505 H 0.76539 0.70164 0.7053 0.0
H1506 H 0.776 0.67494 0.69378 0.0
H1507 H 0.78863 0.69862 0.76092 0.0
H1508 H 0.74764 0.87523 0.82169 0.0
H1509 H 0.77925 0.83671 0.83114 0.0
H1510 H 0.76233 0.84439 0.77494 0.0
H1511 H 0.76325 0.8593 0.84318 0.0
Eu1512 Eu 0.55123 0.53356 0.53403 0.0
C1513 C 0.484 0.47517 0.48767 0.0
N1514 N 0.49338 0.49018 0.48277 0.0
C1515 C 0.48861 0.47724 0.45069 0.0
C1516 C 0.47708 0.46036 0.47424 0.0
C1517 C 0.49512 0.49155 0.46446 0.0
C1518 C 0.47977 0.46146 0.45563 0.0
C1519 C 0.46987 0.45989 0.51129 0.0
C1520 C 0.48022 0.47501 0.5059 0.0
C1521 C 0.46358 0.44491 0.49814 0.0
C1522 C 0.4671 0.44518 0.47965 0.0
Eu1523 Eu 0.5027 0.51441 0.50678 0.0
N1524 N 0.48607 0.48987 0.51821 0.0
C1525 C 0.46567 0.46046 0.52961 0.0
C1526 C 0.48084 0.49082 0.53563 0.0
C1527 C 0.47102 0.47607 0.54178 0.0
H1528 H 0.50022 0.50414 0.46036 0.0
H1529 H 0.46731 0.47687 0.55578 0.0
H1530 H 0.54311 0.5452 0.57819 0.0
H1531 H 0.57914 0.57472 0.48346 0.0
H1532 H 0.48401 0.50296 0.54475 0.0
H1533 H 0.45781 0.44911 0.5343 0.0
H1534 H 0.56236 0.54802 0.49312 0.0
H1535 H 0.48997 0.47855 0.43622 0.0
H1536 H 0.45561 0.43321 0.50203 0.0
H1537 H 0.46172 0.43369 0.46954 0.0
H1538 H 0.55243 0.57083 0.6023 0.0
H1539 H 0.47449 0.45045 0.4449 0.0
H1540 H 0.59071 0.60099 0.50661 0.0
N1541 N 0.55469 0.5582 0.55684 0.0
C1542 C 0.56482 0.57308 0.55242 0.0
C1543 C 0.5558 0.57172 0.58829 0.0
C1544 C 0.57094 0.58789 0.56602 0.0
C1545 C 0.55014 0.55732 0.57444 0.0
C1546 C 0.56635 0.58703 0.5841 0.0
N1547 N 0.56351 0.55901 0.52135 0.0
C1548 C 0.56687 0.55935 0.50331 0.0
C1549 C 0.57942 0.58899 0.52937 0.0
C1550 C 0.56925 0.57354 0.53424 0.0
C1551 C 0.583 0.58934 0.5109 0.0
C1552 C 0.57649 0.57454 0.49778 0.0
H1553 H 0.57095 0.59807 0.59496 0.0
H1554 H 0.58668 0.61437 0.57163 0.0
H1555 H 0.59389 0.61541 0.53957 0.0
O1556 O 0.57971 0.53455 0.53329 0.0
O1557 O 0.53306 0.55305 0.52729 0.0
O1558 O 0.51924 0.53944 0.49911 0.0
O1559 O 0.56834 0.53211 0.55918 0.0
O1560 O 0.5523 0.51977 0.50512 0.0
O1561 O 0.52456 0.51699 0.48773 0.0
O1562 O 0.48075 0.52777 0.51354 0.0
O1563 O 0.51409 0.49356 0.52124 0.0
O1564 O 0.54457 0.50337 0.5304 0.0
O1565 O 0.4825 0.51676 0.4849 0.0
O1566 O 0.50583 0.52972 0.53596 0.0
O1567 O 0.5302 0.52214 0.55118 0.0
C1568 C 0.52459 0.55389 0.5109 0.0
C1569 C 0.59482 0.52133 0.55635 0.0
C1570 C 0.61834 0.50561 0.54954 0.0
C1571 C 0.62091 0.50285 0.56824 0.0
C1572 C 0.59743 0.51847 0.57507 0.0
C1573 C 0.61034 0.50914 0.58092 0.0
C1574 C 0.60521 0.51465 0.54356 0.0
C1575 C 0.54178 0.51665 0.4892 0.0
C1576 C 0.58266 0.53284 0.55089 0.0
C1577 C 0.58164 0.60299 0.56128 0.0
C1578 C 0.58578 0.60357 0.54302 0.0
C1579 C 0.52999 0.49093 0.5274 0.0
C1580 C 0.45794 0.53096 0.48906 0.0
C1581 C 0.42989 0.53904 0.49456 0.0
C1582 C 0.42649 0.54094 0.47565 0.0
C1583 C 0.45463 0.53293 0.47015 0.0
C1584 C 0.44559 0.53405 0.50117 0.0
C1585 C 0.4389 0.53793 0.4635 0.0
C1586 C 0.5144 0.5262 0.5512 0.0
C1587 C 0.47387 0.52502 0.4961 0.0
H1588 H 0.63109 0.49585 0.57298 0.0
H1589 H 0.58975 0.52375 0.58526 0.0
H1590 H 0.61235 0.50706 0.59537 0.0
H1591 H 0.60362 0.51698 0.52914 0.0
H1592 H 0.4145 0.54517 0.47042 0.0
H1593 H 0.46415 0.53061 0.46056 0.0
H1594 H 0.4481 0.53244 0.51575 0.0
H1595 H 0.43639 0.53956 0.44896 0.0
Eu1596 Eu 0.99794 0.51766 0.02972 0.0
C1597 C 0.06507 0.55954 0.99284 0.0
N1598 N 0.05304 0.54418 0.9871 0.0
C1599 C 0.05038 0.55152 0.95586 0.0
C1600 C 0.06991 0.57153 0.98012 0.0
C1601 C 0.0463 0.53979 0.9687 0.0
C1602 C 0.06212 0.56749 0.96159 0.0
C1603 C 0.08664 0.57838 0.017 0.0
C1604 C 0.07341 0.56305 0.01127 0.0
C1605 C 0.09116 0.59028 0.00433 0.0
C1606 C 0.0828 0.58691 0.98601 0.0
Eu1607 Eu 0.04966 0.52522 0.01041 0.0
N1608 N 0.06888 0.55144 0.02353 0.0
C1609 C 0.09517 0.58119 0.0353 0.0
C1610 C 0.07749 0.55383 0.04115 0.0
C1611 C 0.09061 0.56884 0.04739 0.0
H1612 H 0.03829 0.52705 0.96339 0.0
H1613 H 0.09733 0.57076 0.06145 0.0
H1614 H 0.00757 0.5144 0.07639 0.0
H1615 H 0.94973 0.47518 0.97686 0.0
H1616 H 0.07441 0.54407 0.05024 0.0
H1617 H 0.10542 0.59276 0.04015 0.0
H1618 H 0.97259 0.5016 0.98975 0.0
H1619 H 0.04484 0.54801 0.94139 0.0
H1620 H 0.10127 0.6021 0.00852 0.0
H1621 H 0.08666 0.59616 0.97637 0.0
H1622 H -5e-05 0.49274 0.09755 0.0
H1623 H 0.06553 0.57637 0.95147 0.0
H1624 H 0.94097 0.45205 0.99675 0.0
N1625 N 0.99305 0.49812 0.05217 0.0
C1626 C 0.98075 0.48311 0.04574 0.0
C1627 C 0.99472 0.48973 0.08296 0.0
C1628 C 0.9754 0.47066 0.05781 0.0
C1629 C 0.99941 0.50187 0.07068 0.0
C1630 C 0.98283 0.47399 0.07648 0.0
N1631 N 0.97792 0.49244 0.01557 0.0
C1632 C 0.96951 0.49106 -0.002 0.0
C1633 C 0.95933 0.46543 0.02069 0.0
C1634 C 0.97271 0.48045 0.02723 0.0
C1635 C 0.95129 0.4634 0.00225 0.0
C1636 C 0.95629 0.47635 0.99092 0.0
H1637 H 0.97902 0.46475 0.08615 0.0
H1638 H 0.95823 0.44585 0.06022 0.0
H1639 H 0.94423 0.4413 0.02784 0.0
O1640 O 0.97615 0.52978 0.0184 0.0
O1641 O 0.00661 0.49249 0.01656 0.0
O1642 O 0.03453 0.49665 0.00486 0.0
O1643 O 0.97708 0.52239 0.04631 0.0
O1644 O 0.00976 0.52882 0.00573 0.0
O1645 O 0.02689 0.51533 0.98831 0.0
O1646 O 0.07215 0.51359 0.02103 0.0
O1647 O 0.04099 0.55025 0.02405 0.0
O1648 O 0.01302 0.54617 0.03565 0.0
O1649 O 0.07045 0.52116 0.99336 0.0
O1650 O 0.03878 0.51396 0.03509 0.0
O1651 O 0.02053 0.52671 0.0521 0.0
C1652 C 0.01963 0.48656 0.00848 0.0
C1653 C 0.9631 0.546 0.04141 0.0
C1654 C 0.93996 0.5635 0.04154 0.0
C1655 C 0.94822 0.57286 0.05871 0.0
C1656 C 0.97149 0.55583 0.05836 0.0
C1657 C 0.96402 0.56914 0.06696 0.0
C1658 C 0.94751 0.55013 0.03286 0.0
C1659 C 0.0114 0.51915 0.99057 0.0
C1660 C 0.96897 0.53 0.03398 0.0
C1661 C 0.96241 0.45552 0.05111 0.0
C1662 C 0.95439 0.45295 0.03267 0.0
C1663 C 0.02798 0.5562 0.03212 0.0
C1664 C 0.08522 0.49782 -0.00249 0.0
C1665 C 0.10817 0.48001 0.99733 0.0
C1666 C 0.10049 0.47147 0.97964 0.0
C1667 C 0.07743 0.48876 0.97997 0.0
C1668 C 0.10045 0.49314 0.00631 0.0
C1669 C 0.08509 0.47571 0.97112 0.0
C1670 C 0.03629 0.52324 0.0503 0.0
C1671 C 0.07905 0.51362 0.00534 0.0
H1672 H 0.94257 0.5832 0.06563 0.0
H1673 H 0.98353 0.55287 0.06525 0.0
H1674 H 0.97036 0.57645 0.08016 0.0
H1675 H 0.94088 0.5425 0.01989 0.0
H1676 H 0.10633 0.46138 0.97251 0.0
H1677 H 0.06572 0.49209 0.97283 0.0
H1678 H 0.10667 0.50012 0.01974 0.0
H1679 H 0.0792 0.46903 0.9575 0.0
H1680 H 0.00084 0.21523 0.98701 0.0
H1681 H 0.00466 0.18762 -0.00105 0.0
H1682 H 0.00597 0.16353 0.94308 0.0
H1683 H 0.00183 0.19079 0.93109 0.0
H1684 H 0.98322 0.15078 0.98883 0.0
H1685 H 0.05323 0.15679 0.97315 0.0
H1686 H 0.04214 0.17531 0.97494 0.0
H1687 H 0.03754 0.15959 0.95425 0.0
C1688 C 0.00182 0.20403 0.97724 0.0
C1689 C 0.00098 0.20541 0.95801 0.0
C1690 C 0.00401 0.18817 0.98411 0.0
C1691 C 0.00581 0.17334 0.97201 0.0
C1692 C 0.00479 0.17468 0.95283 0.0
H1693 H 0.018 0.06467 0.97779 0.0
H1694 H 0.01356 0.09315 0.96897 0.0
C1695 C 0.00232 0.19036 0.94595 0.0
C1696 C 0.00905 0.15658 0.97925 0.0
H1697 H 0.03959 0.12954 0.9819 0.0
C1698 C 0.99562 0.14627 0.98746 0.0
C1699 C 0.02519 0.15044 0.97754 0.0
C1700 C 0.04045 0.16112 0.96964 0.0
C1701 C 0.99775 0.12998 0.99345 0.0
C1702 C 0.0138 0.12376 0.99147 0.0
C1703 C 0.02727 0.13416 0.98347 0.0
C1704 C 0.01663 0.10632 0.99715 0.0
C1705 C 0.98261 0.11919 0.00141 0.0
C1706 C 0.02015 0.10404 0.016 0.0
C1707 C 0.02305 0.08774 0.02112 0.0
C1708 C 0.02217 0.07312 0.00755 0.0
C1709 C 0.01865 0.07549 0.9887 0.0
C1710 C 0.01611 0.09185 0.98359 0.0
H1711 H 0.97033 0.12482 0.00028 0.0
H1712 H 0.97951 0.10552 0.99409 0.0
H1713 H 0.98668 0.11851 0.01632 0.0
H1714 H 0.02076 0.11493 0.0268 0.0
H1715 H 0.02571 0.0865 0.03576 0.0
H1716 H 0.11155 0.77017 0.11897 0.0
H1717 H 0.13729 0.76681 0.14006 0.0
H1718 H 0.12698 0.80771 0.1801 0.0
H1719 H 0.10064 0.81018 0.15959 0.0
H1720 H 0.16736 0.78597 0.15399 0.0
H1721 H 0.13086 0.77298 0.21444 0.0
H1722 H 0.11945 0.77393 0.19188 0.0
H1723 H 0.12878 0.79385 0.20744 0.0
C1724 C 0.11482 0.77845 0.13227 0.0
C1725 C 0.10398 0.79038 0.13763 0.0
C1726 C 0.12954 0.7765 0.14441 0.0
C1727 C 0.13398 0.78662 0.1621 0.0
C1728 C 0.12358 0.79914 0.167 0.0
H1729 H 0.22499 0.80107 0.24904 0.0
H1730 H 0.19854 0.80405 0.22852 0.0
C1731 C 0.10861 0.80074 0.15511 0.0
C1732 C 0.1496 0.78433 0.1752 0.0
H1733 H 0.16266 0.77916 0.22039 0.0
C1734 C 0.16619 0.78433 0.16844 0.0
C1735 C 0.14834 0.7821 0.1942 0.0
C1736 C 0.13085 0.78052 0.20236 0.0
C1737 C 0.1814 0.78254 0.18005 0.0
C1738 C 0.18017 0.78074 0.19905 0.0
C1739 C 0.16367 0.7807 0.20587 0.0
C1740 C 0.19587 0.7787 0.21194 0.0
C1741 C 0.19882 0.78287 0.17199 0.0
C1742 C 0.20302 0.76334 0.20977 0.0
C1743 C 0.21803 0.76161 0.22153 0.0
C1744 C 0.2263 0.77525 0.23564 0.0
C1745 C 0.21894 0.79044 0.23815 0.0
C1746 C 0.20384 0.79213 0.22644 0.0
H1747 H 0.19837 0.78727 0.15798 0.0
H1748 H 0.2099 0.79172 0.18136 0.0
H1749 H 0.20185 0.76945 0.17072 0.0
H1750 H 0.19696 0.75266 0.19893 0.0
H1751 H 0.22323 0.74963 0.21957 0.0
H1752 H 0.53335 0.82197 0.47168 0.0
H1753 H 0.53507 0.85282 0.48483 0.0
H1754 H 0.48272 0.85142 0.45669 0.0
H1755 H 0.481 0.82071 0.44376 0.0
H1756 H 0.53419 0.88109 0.46504 0.0
H1757 H 0.4782 0.87523 0.50803 0.0
H1758 H 0.4875 0.85656 0.49982 0.0
H1759 H 0.47192 0.86462 0.48455 0.0
C1760 C 0.52195 0.82807 0.46891 0.0
C1761 C 0.50677 0.81865 0.4572 0.0
C1762 C 0.52302 0.84581 0.47624 0.0
C1763 C 0.50892 0.8546 0.47207 0.0
C1764 C 0.49362 0.84502 0.46064 0.0
H1765 H 0.49075 0.96283 0.4911 0.0
H1766 H 0.48848 0.93119 0.48219 0.0
C1767 C 0.4926 0.82736 0.45328 0.0
C1768 C 0.51063 0.87398 0.47848 0.0
H1769 H 0.49038 0.90404 0.50186 0.0
C1770 C 0.52468 0.88606 0.47324 0.0
C1771 C 0.4982 0.8807 0.48906 0.0
C1772 C 0.48319 0.86862 0.49586 0.0
C1773 C 0.52639 0.90444 0.47783 0.0
C1774 C 0.51395 0.91117 0.48842 0.0
C1775 C 0.49994 0.89908 0.49373 0.0
C1776 C 0.51526 0.93062 0.49417 0.0
C1777 C 0.54121 0.91647 0.47065 0.0
C1778 C 0.53089 0.94108 0.50422 0.0
C1779 C 0.53216 0.95922 0.50941 0.0
C1780 C 0.51774 0.96751 0.50495 0.0
C1781 C 0.50202 0.957 0.49508 0.0
C1782 C 0.50076 0.93882 0.48987 0.0
H1783 H 0.54594 0.90979 0.45835 0.0
H1784 H 0.53685 0.92851 0.46672 0.0
H1785 H 0.55271 0.92048 0.48171 0.0
H1786 H 0.54216 0.93521 0.50823 0.0
H1787 H 0.54449 0.96673 0.51707 0.0
H1788 H 0.50118 0.25226 0.65334 0.0
H1789 H 0.47414 0.25446 0.66759 0.0
H1790 H 0.46997 0.30109 0.64215 0.0
H1791 H 0.49736 0.29895 0.62759 0.0
H1792 H 0.47208 0.28672 0.69278 0.0
H1793 H 0.41798 0.2683 0.63321 0.0
H1794 H 0.43877 0.26068 0.63245 0.0
H1795 H 0.43824 0.28332 0.63079 0.0
C1796 C 0.49447 0.26293 0.65054 0.0
C1797 C 0.5016 0.27557 0.63947 0.0
C1798 C 0.47897 0.26414 0.65872 0.0
C1799 C 0.47009 0.27799 0.65607 0.0
C1800 C 0.47659 0.29024 0.64433 0.0
H1801 H 0.36968 0.28281 0.70457 0.0
H1802 H 0.3965 0.29277 0.68959 0.0
C1803 C 0.49221 0.289 0.636 0.0
C1804 C 0.45487 0.27992 0.66684 0.0
H1805 H 0.40933 0.27177 0.66329 0.0
C1806 C 0.45836 0.28373 0.68631 0.0
C1807 C 0.437 0.27615 0.6584 0.0
C1808 C 0.43259 0.27183 0.63757 0.0
C1809 C 0.44446 0.28318 0.69763 0.0
C1810 C 0.42653 0.27832 0.68929 0.0
C1811 C 0.42305 0.27546 0.66973 0.0
C1812 C 0.41131 0.27429 0.70048 0.0
C1813 C 0.44918 0.28754 0.71844 0.0
C1814 C 0.41079 0.26085 0.71189 0.0
C1815 C 0.3955 0.25511 0.7203 0.0
C1816 C 0.38038 0.26273 0.71759 0.0
C1817 C 0.3812 0.27682 0.70701 0.0
C1818 C 0.39647 0.28243 0.69838 0.0
H1819 H 0.46221 0.29684 0.722 0.0
H1820 H 0.4388 0.2934 0.72502 0.0
H1821 H 0.45042 0.27531 0.72449 0.0
H1822 H 0.42189 0.25413 0.71354 0.0
H1823 H 0.39522 0.24422 0.72838 0.0
H1824 H 0.98777 0.79285 0.63741 0.0
H1825 H 0.98847 0.81927 0.62159 0.0
H1826 H 0.04482 0.83547 0.63977 0.0
H1827 H 0.044 0.8094 0.65608 0.0
H1828 H 0.00287 0.85785 0.63852 0.0
H1829 H 0.03709 0.83276 0.58024 0.0
H1830 H 0.02532 0.81842 0.59479 0.0
H1831 H 0.04699 0.83139 0.60334 0.0
C1832 C 0.00027 0.8021 0.638 0.0
C1833 C 0.01585 0.79914 0.64785 0.0
C1834 C 0.00065 0.81718 0.62905 0.0
C1835 C 0.01672 0.82928 0.62941 0.0
C1836 C 0.03229 0.82629 0.63927 0.0
H1837 H 0.05438 0.9291 0.59481 0.0
H1838 H 0.04488 0.90496 0.61276 0.0
C1839 C 0.03182 0.81144 0.64858 0.0
C1840 C 0.01736 0.84487 0.61922 0.0
H1841 H 0.03396 0.86253 0.58204 0.0
C1842 C 0.00954 0.85884 0.6261 0.0
C1843 C 0.02597 0.8461 0.60295 0.0
C1844 C 0.03423 0.83134 0.59474 0.0
C1845 C 0.01065 0.87423 0.61741 0.0
C1846 C 0.01962 0.87558 0.60141 0.0
C1847 C 0.02701 0.86143 0.59428 0.0
C1848 C 0.02265 0.89195 0.59248 0.0
C1849 C 0.00244 0.88907 0.62542 0.0
C1850 C 0.01291 0.89298 0.5754 0.0
C1851 C 0.01817 0.90696 0.56523 0.0
C1852 C 0.03337 0.91997 0.57191 0.0
C1853 C 0.04239 0.91945 0.58954 0.0
C1854 C 0.03705 0.90561 0.59974 0.0
H1855 H 0.99464 0.88547 0.63699 0.0
H1856 H 0.01315 0.90068 0.63073 0.0
H1857 H 0.99356 0.89299 0.61435 0.0
H1858 H 0.00185 0.88248 0.56948 0.0
H1859 H 0.01126 0.90683 0.55151 0.0
H1860 H 0.4749 0.76472 0.82295 0.0
H1861 H 0.44258 0.76077 0.8132 0.0
H1862 H 0.44627 0.81685 0.82445 0.0
H1863 H 0.47844 0.8208 0.83298 0.0
H1864 H 0.4142 0.7674 0.82899 0.0
H1865 H 0.42231 0.80944 0.77284 0.0
H1866 H 0.44096 0.80257 0.78485 0.0
H1867 H 0.43254 0.82112 0.79494 0.0
C1868 C 0.46875 0.77616 0.82329 0.0
C1869 C 0.47927 0.7931 0.82845 0.0
C1870 C 0.45025 0.77392 0.81771 0.0
C1871 C 0.44186 0.78856 0.81744 0.0
C1872 C 0.45233 0.80535 0.82367 0.0
H1873 H 0.33333 0.80656 0.79049 0.0
H1874 H 0.3651 0.80901 0.80097 0.0
C1875 C 0.47077 0.80761 0.82874 0.0
C1876 C 0.4223 0.78646 0.81067 0.0
H1877 H 0.39291 0.80197 0.7813 0.0
C1878 C 0.40961 0.77487 0.81845 0.0
C1879 C 0.41604 0.79612 0.79683 0.0
C1880 C 0.42869 0.80786 0.78675 0.0
C1881 C 0.39106 0.77308 0.81323 0.0
C1882 C 0.38485 0.78299 0.79966 0.0
C1883 C 0.39752 0.79447 0.7918 0.0
C1884 C 0.36535 0.78148 0.79319 0.0
C1885 C 0.37826 0.76088 0.82268 0.0
C1886 C 0.35475 0.7653 0.78493 0.0
C1887 C 0.33657 0.7639 0.77876 0.0
C1888 C 0.32838 0.77868 0.78052 0.0
C1889 C 0.33907 0.79493 0.78863 0.0
C1890 C 0.3573 0.79632 0.79476 0.0
H1891 H 0.38467 0.75807 0.83607 0.0
H1892 H 0.36635 0.76652 0.82542 0.0
H1893 H 0.3737 0.7482 0.81348 0.0
H1894 H 0.36057 0.75369 0.78308 0.0
H1895 H 0.32893 0.75115 0.77254 0.0
H1896 H 0.53575 0.20507 0.13662 0.0
H1897 H 0.53704 0.17861 0.11535 0.0
H1898 H 0.48661 0.15284 0.13 0.0
H1899 H 0.48563 0.17906 0.15176 0.0
H1900 H 0.53438 0.14174 0.12647 0.0
H1901 H 0.48253 0.14805 0.07022 0.0
H1902 H 0.49441 0.16658 0.08658 0.0
H1903 H 0.4769 0.15103 0.09368 0.0
C1904 C 0.52484 0.19382 0.13508 0.0
C1905 C 0.51048 0.19417 0.14565 0.0
C1906 C 0.52563 0.17868 0.12302 0.0
C1907 C 0.51186 0.16374 0.12093 0.0
C1908 C 0.49733 0.16422 0.13125 0.0
H1909 H 0.49339 0.05642 0.06339 0.0
H1910 H 0.49238 0.0838 0.08332 0.0
C1911 C 0.49676 0.1792 0.14365 0.0
C1912 C 0.51289 0.14747 0.10845 0.0
H1913 H 0.4935 0.12154 0.06791 0.0
C1914 C 0.52549 0.13737 0.11364 0.0
C1915 C 0.50135 0.14175 0.09164 0.0
C1916 C 0.48808 0.15242 0.08502 0.0
C1917 C 0.52657 0.12157 0.10269 0.0
C1918 C 0.51486 0.11575 0.08603 0.0
C1919 C 0.50239 0.12593 0.08074 0.0
C1920 C 0.51544 0.09916 0.0739 0.0
C1921 C 0.54006 0.11102 0.10905 0.0
C1922 C 0.52863 0.09871 0.06184 0.0
C1923 C 0.52899 0.08321 0.05019 0.0
C1924 C 0.51635 0.06772 0.05056 0.0
C1925 C 0.50329 0.06813 0.0628 0.0
C1926 C 0.5027 0.08376 0.07418 0.0
H1927 H 0.54681 0.11622 0.1233 0.0
H1928 H 0.53348 0.09707 0.10886 0.0
H1929 H 0.55032 0.1113 0.09928 0.0
H1930 H 0.53861 0.11039 0.06139 0.0
H1931 H 0.53937 0.08326 0.0411 0.0
H1932 H 0.10556 0.31187 0.35665 0.0
H1933 H 0.13336 0.30862 0.34401 0.0
H1934 H 0.10356 0.27031 0.29945 0.0
H1935 H 0.07566 0.27433 0.31152 0.0
H1936 H 0.14989 0.28328 0.34045 0.0
H1937 H 0.13444 0.29756 0.26863 0.0
H1938 H 0.1203 0.30128 0.28645 0.0
H1939 H 0.11847 0.27959 0.27402 0.0
C1940 C 0.10489 0.30291 0.34401 0.0
C1941 C 0.08826 0.29347 0.33507 0.0
C1942 C 0.12088 0.30101 0.33676 0.0
C1943 C 0.12085 0.28942 0.32045 0.0
C1944 C 0.1042 0.27982 0.31162 0.0
H1945 H 0.20769 0.25375 0.26458 0.0
H1946 H 0.17886 0.25685 0.27502 0.0
C1947 C 0.08815 0.28201 0.31866 0.0
C1948 C 0.13824 0.28687 0.31337 0.0
H1949 H 0.16028 0.28524 0.27447 0.0
C1950 C 0.1521 0.28386 0.32602 0.0
C1951 C 0.14145 0.28751 0.29449 0.0
C1952 C 0.12795 0.29184 0.28017 0.0
C1953 C 0.16868 0.28133 0.32045 0.0
C1954 C 0.1718 0.28185 0.3016 0.0
C1955 C 0.15797 0.2847 0.28888 0.0
C1956 C 0.18947 0.27994 0.29502 0.0
C1957 C 0.18265 0.27782 0.33482 0.0
C1958 C 0.2052 0.29197 0.30246 0.0
C1959 C 0.22176 0.29018 0.29657 0.0
C1960 C 0.22319 0.27632 0.28293 0.0
C1961 C 0.20734 0.26445 0.27523 0.0
C1962 C 0.19073 0.26627 0.28116 0.0
H1963 H 0.17674 0.27327 0.34721 0.0
H1964 H 0.18982 0.26778 0.32888 0.0
H1965 H 0.19256 0.29016 0.33958 0.0
H1966 H 0.20469 0.3029 0.31283 0.0
H1967 H 0.23347 0.29976 0.3028 0.0
H1968 H 0.9523 0.04308 0.211 0.0
H1969 H 0.96567 0.04631 0.18196 0.0
H1970 H 0.94733 0.99072 0.164 0.0
H1971 H 0.93286 0.98786 0.19239 0.0
H1972 H 0.99105 0.03392 0.16803 0.0
H1973 H 0.93026 0.00816 0.11826 0.0
H1974 H 0.9293 0.01278 0.14292 0.0
H1975 H 0.93465 0.99235 0.13323 0.0
C1976 C 0.95107 0.03163 0.20073 0.0
C1977 C 0.9415 0.01527 0.20375 0.0
C1978 C 0.95869 0.03345 0.18415 0.0
C1979 C 0.9572 0.01884 0.17048 0.0
C1980 C 0.94811 0.00235 0.17389 0.0
H1981 H 0.01547 0.00159 0.07643 0.0
H1982 H 0.00156 0.00084 0.10543 0.0
C1983 C 0.94001 0.00065 0.1902 0.0
C1984 C 0.96567 0.02079 0.153 0.0
H1985 H 0.95806 0.01118 0.10552 0.0
C1986 C 0.98374 0.02907 0.15439 0.0
C1987 C 0.95617 0.0146 0.13507 0.0
C1988 C 0.93649 0.00665 0.13226 0.0
C1989 C 0.9926 0.03092 0.13848 0.0
C1990 C 0.98324 0.02422 0.12075 0.0
C1991 C 0.96519 0.01619 0.11923 0.0
C1992 C 0.99209 0.0251 0.10359 0.0
C1993 C 0.01194 0.03999 0.1406 0.0
C1994 C 0.99121 0.03894 0.09297 0.0
C1995 C 0.99886 0.03923 0.07625 0.0
C1996 C 0.00771 0.02582 0.07015 0.0
C1997 C 0.00884 0.01215 0.08099 0.0
C1998 C 0.00091 0.01169 0.09748 0.0
H1999 H 0.01734 0.04465 0.15539 0.0
H2000 H 0.02004 0.03082 0.13466 0.0
H2001 H 0.0134 0.05142 0.13266 0.0
H2002 H 0.98448 0.04941 0.09754 0.0
H2003 H 0.99802 0.04998 0.06819 0.0
H2004 H 0.26125 0.67983 0.50335 0.0
H2005 H 0.26065 0.69474 0.47557 0.0
H2006 H 0.26974 0.64841 0.44268 0.0
H2007 H 0.27024 0.63328 0.47031 0.0
H2008 H 0.291 0.69872 0.45341 0.0
H2009 H 0.22606 0.66366 0.41373 0.0
H2010 H 0.23044 0.66485 0.43871 0.0
H2011 H 0.24045 0.65053 0.42387 0.0
C2012 C 0.26321 0.67286 0.49022 0.0
C2013 C 0.2661 0.65556 0.48895 0.0
C2014 C 0.26272 0.68131 0.47443 0.0
C2015 C 0.2651 0.67252 0.45731 0.0
C2016 C 0.26774 0.6552 0.45589 0.0
H2017 H 0.25595 0.71113 0.35189 0.0
H2018 H 0.2698 0.69618 0.37526 0.0
C2019 C 0.2682 0.64671 0.47166 0.0
C2020 C 0.26611 0.682 0.44119 0.0
H2021 H 0.24329 0.68566 0.39999 0.0
C2022 C 0.2807 0.69583 0.44158 0.0
C2023 C 0.25262 0.67793 0.42597 0.0
C2024 C 0.23642 0.66351 0.42545 0.0
C2025 C 0.2819 0.70623 0.42717 0.0
C2026 C 0.26815 0.70251 0.41221 0.0
C2027 C 0.25393 0.6882 0.41148 0.0
C2028 C 0.26649 0.71461 0.39851 0.0
C2029 C 0.29749 0.72133 0.42824 0.0
C2030 C 0.26086 0.73029 0.40401 0.0
C2031 C 0.25274 0.73876 0.39074 0.0
C2032 C 0.2503 0.73161 0.37192 0.0
C2033 C 0.25766 0.71691 0.36635 0.0
C2034 C 0.26568 0.70842 0.37961 0.0
H2035 H 0.30894 0.71971 0.43801 0.0
H2036 H 0.30191 0.72257 0.41428 0.0
H2037 H 0.29333 0.73373 0.43331 0.0
H2038 H 0.26122 0.73504 0.41863 0.0
H2039 H 0.24746 0.75028 0.39526 0.0
H2040 H 0.66599 0.02366 0.67355 0.0
H2041 H 0.64845 0.02616 0.64427 0.0
H2042 H 0.60551 0.03754 0.67476 0.0
H2043 H 0.62234 0.03446 0.70363 0.0
H2044 H 0.61192 0.00131 0.63947 0.0
H2045 H 0.60997 0.07125 0.63259 0.0
H2046 H 0.62879 0.06457 0.64474 0.0
H2047 H 0.60886 0.06518 0.65564 0.0
C2048 C 0.65292 0.02698 0.67392 0.0
C2049 C 0.6453 0.02859 0.69063 0.0
C2050 C 0.64313 0.02862 0.65736 0.0
C2051 C 0.62603 0.03231 0.65773 0.0
C2052 C 0.61893 0.03506 0.67451 0.0
H2053 H 0.53322 0.03429 0.58553 0.0
H2054 H 0.5529 0.03321 0.61362 0.0
C2055 C 0.62846 0.03305 0.6909 0.0
C2056 C 0.61377 0.02935 0.64087 0.0
H2057 H 0.58618 0.04959 0.61575 0.0
C2058 C 0.60642 0.01179 0.6339 0.0
C2059 C 0.60652 0.04317 0.63448 0.0
C2060 C 0.614 0.06214 0.64215 0.0
C2061 C 0.59128 0.00759 0.62094 0.0
C2062 C 0.584 0.02145 0.61446 0.0
C2063 C 0.5917 0.03904 0.62112 0.0
C2064 C 0.56977 0.01826 0.59915 0.0
C2065 C 0.58298 0.98845 0.61482 0.0
C2066 C 0.57265 0.00974 0.58214 0.0
C2067 C 0.56125 0.00984 0.56638 0.0
C2068 C 0.54716 0.01899 0.56735 0.0
C2069 C 0.54388 0.02701 0.58451 0.0
C2070 C 0.55506 0.02642 0.60047 0.0
H2071 H 0.58553 0.98027 0.62597 0.0
H2072 H 0.56834 0.98651 0.61092 0.0
H2073 H 0.58909 0.98357 0.60257 0.0
H2074 H 0.58432 0.00394 0.58079 0.0
H2075 H 0.56414 0.00354 0.55331 0.0
H2076 H 0.3079 0.35539 0.97567 0.0
H2077 H 0.30798 0.33967 0.94447 0.0
H2078 H 0.25072 0.33383 0.93479 0.0
H2079 H 0.25084 0.35039 0.96547 0.0
H2080 H 0.29334 0.30798 0.92588 0.0
H2081 H 0.26497 0.35825 0.89159 0.0
H2082 H 0.27264 0.36131 0.91614 0.0
H2083 H 0.25077 0.34862 0.90741 0.0
C2084 C 0.29535 0.35045 0.96692 0.0
C2085 C 0.27935 0.35398 0.97284 0.0
C2086 C 0.29539 0.34156 0.94911 0.0
C2087 C 0.2794 0.33597 0.93704 0.0
C2088 C 0.26329 0.33852 0.94355 0.0
H2089 H 0.25037 0.28059 0.82469 0.0
H2090 H 0.25092 0.29312 0.8572 0.0
C2091 C 0.26331 0.34775 0.96115 0.0
C2092 C 0.27957 0.32805 0.91749 0.0
H2093 H 0.26597 0.33187 0.87222 0.0
C2094 C 0.28742 0.31326 0.91416 0.0
C2095 C 0.27209 0.33508 0.9021 0.0
C2096 C 0.26483 0.3518 0.90445 0.0
C2097 C 0.28752 0.30507 0.89596 0.0
C2098 C 0.2795 0.31176 0.88073 0.0
C2099 C 0.27185 0.32662 0.88398 0.0
C2100 C 0.27927 0.30382 0.86121 0.0
C2101 C 0.29603 0.28918 0.89307 0.0
C2102 C 0.29494 0.30605 0.8526 0.0
C2103 C 0.2946 0.29923 0.83395 0.0
C2104 C 0.27869 0.2897 0.82359 0.0
C2105 C 0.26295 0.28762 0.83227 0.0
C2106 C 0.26322 0.29474 0.85086 0.0
H2107 H 0.29912 0.28394 0.90632 0.0
H2108 H 0.28713 0.27862 0.88316 0.0
H2109 H 0.30866 0.29287 0.88692 0.0
H2110 H 0.3074 0.31332 0.86023 0.0
H2111 H 0.30681 0.3016 0.82766 0.0
H2112 H 0.96348 0.03973 0.31581 0.0
H2113 H 0.97472 0.04274 0.34911 0.0
H2114 H 0.94486 0.99085 0.35237 0.0
H2115 H 0.93386 0.9878 0.31914 0.0
H2116 H 0.95732 0.03936 0.38278 0.0
H2117 H 0.99734 0.98803 0.36825 0.0
H2118 H 0.98773 0.9987 0.35014 0.0
H2119 H 0.97405 0.98144 0.3597 0.0
C2120 C 0.95908 0.02916 0.3238 0.0
C2121 C 0.94777 0.01358 0.31508 0.0
C2122 C 0.96552 0.03086 0.34276 0.0
C2123 C 0.96083 0.01692 0.35318 0.0
C2124 C 0.94886 0.00167 0.34457 0.0
H2125 H 0.99407 0.99224 0.46295 0.0
H2126 H 0.97993 0.99261 0.43149 0.0
C2127 C 0.94248 0.99998 0.32566 0.0
C2128 C 0.96923 0.0178 0.37268 0.0
H2129 H 0.99615 0.99795 0.39996 0.0
C2130 C 0.96587 0.03037 0.38656 0.0
C2131 C 0.98046 0.00611 0.37758 0.0
C2132 C 0.98528 0.9929 0.36314 0.0
C2133 C 0.97303 0.03123 0.40529 0.0
C2134 C 0.98411 0.01939 0.41021 0.0
C2135 C 0.98759 0.00695 0.39625 0.0
C2136 C 0.99225 0.01956 0.42971 0.0
C2137 C 0.96829 0.04448 0.41972 0.0
C2138 C 0.00402 0.03453 0.43925 0.0
C2139 C 0.0122 0.03432 0.45727 0.0
C2140 C 0.00893 0.01907 0.46611 0.0
C2141 C 0.99708 0.00413 0.45655 0.0
C2142 C 0.98891 0.00435 0.43854 0.0
H2143 H 0.95612 0.04921 0.41469 0.0
H2144 H 0.96608 0.03881 0.43284 0.0
H2145 H 0.97946 0.05602 0.42291 0.0
H2146 H 0.00714 0.04631 0.43264 0.0
H2147 H 0.02125 0.04608 0.46418 0.0
H2148 H 0.27413 0.63023 0.61359 0.0
H2149 H 0.28036 0.65329 0.64069 0.0
H2150 H 0.25014 0.68495 0.61053 0.0
H2151 H 0.24417 0.66223 0.58351 0.0
H2152 H 0.2965 0.6931 0.63462 0.0
H2153 H 0.23226 0.67915 0.66506 0.0
H2154 H 0.24063 0.66236 0.65135 0.0
H2155 H 0.23097 0.67831 0.64013 0.0
C2156 C 0.26855 0.64198 0.61307 0.0
C2157 C 0.25869 0.64472 0.59684 0.0
C2158 C 0.27221 0.65505 0.62831 0.0
C2159 C 0.26567 0.67055 0.62726 0.0
C2160 C 0.2552 0.67293 0.61133 0.0
H2161 H 0.26001 0.7597 0.70185 0.0
H2162 H 0.26042 0.74125 0.67268 0.0
C2163 C 0.25177 0.66004 0.59608 0.0
C2164 C 0.2702 0.68479 0.64248 0.0
H2165 H 0.25192 0.70605 0.6765 0.0
C2166 C 0.28692 0.69597 0.64397 0.0
C2167 C 0.2574 0.68828 0.65418 0.0
C2168 C 0.23931 0.67637 0.65277 0.0
C2169 C 0.2911 0.71109 0.65698 0.0
C2170 C 0.27822 0.71466 0.66862 0.0
C2171 C 0.26159 0.70328 0.66721 0.0
C2172 C 0.28193 0.72935 0.68347 0.0
C2173 C 0.30899 0.72324 0.658 0.0
C2174 C 0.2945 0.72915 0.69864 0.0
C2175 C 0.29453 0.73987 0.71513 0.0
C2176 C 0.28176 0.75053 0.71659 0.0
C2177 C 0.2701 0.75169 0.70095 0.0
C2178 C 0.2703 0.74121 0.68435 0.0
H2179 H 0.31526 0.72123 0.645 0.0
H2180 H 0.30771 0.73722 0.66065 0.0
H2181 H 0.31807 0.72055 0.66967 0.0
H2182 H 0.30326 0.71974 0.69822 0.0
H2183 H 0.30372 0.73893 0.72708 0.0
H2184 H 0.63826 0.01033 0.79061 0.0
H2185 H 0.62812 0.00623 0.82099 0.0
H2186 H 0.63418 0.06249 0.83445 0.0
H2187 H 0.64336 0.06652 0.80354 0.0
H2188 H 0.63898 0.019 0.8596 0.0
H2189 H 0.58017 0.04283 0.82878 0.0
H2190 H 0.59741 0.03761 0.81523 0.0
H2191 H 0.60085 0.05823 0.83015 0.0
C2192 C 0.63764 0.02176 0.80026 0.0
C2193 C 0.64094 0.03864 0.79494 0.0
C2194 C 0.6321 0.01944 0.81756 0.0
C2195 C 0.6302 0.03405 0.82962 0.0
C2196 C 0.63536 0.05111 0.82503 0.0
H2197 H 0.59491 0.06341 0.92633 0.0
H2198 H 0.61344 0.05031 0.9054 0.0
C2199 C 0.6404 0.0534 0.80749 0.0
C2200 C 0.61976 0.03127 0.84512 0.0
H2201 H 0.58108 0.03855 0.86048 0.0
C2202 C 0.62626 0.02313 0.85986 0.0
C2203 C 0.6029 0.03611 0.84484 0.0
C2204 C 0.59482 0.04402 0.82882 0.0
C2205 C 0.61671 0.02084 0.87515 0.0
C2206 C 0.60049 0.0268 0.87536 0.0
C2207 C 0.59353 0.03387 0.86008 0.0
C2208 C 0.59196 0.02923 0.89226 0.0
C2209 C 0.62405 0.01253 0.89114 0.0
C2210 C 0.574 0.02127 0.89206 0.0
C2211 C 0.56342 0.02891 0.90374 0.0
C2212 C 0.5708 0.04453 0.91548 0.0
C2213 C 0.58908 0.05153 0.91694 0.0
C2214 C 0.59968 0.04383 0.90539 0.0
H2215 H 0.63461 0.00531 0.88719 0.0
H2216 H 0.62987 0.02294 0.9029 0.0
H2217 H 0.61319 0.00332 0.89607 0.0
H2218 H 0.56786 0.01018 0.88173 0.0
H2219 H 0.54934 0.02323 0.9029 0.0
H2220 H 0.30705 0.34328 0.08532 0.0
H2221 H 0.30392 0.33019 0.11446 0.0
H2222 H 0.25549 0.3499 0.11996 0.0
H2223 H 0.25884 0.36327 0.09121 0.0
H2224 H 0.29968 0.34916 0.15194 0.0
H2225 H 0.24318 0.29481 0.12191 0.0
H2226 H 0.25808 0.30657 0.10775 0.0
H2227 H 0.24085 0.31642 0.11697 0.0
C2228 C 0.29576 0.34469 0.0928 0.0
C2229 C 0.2831 0.35409 0.08616 0.0
C2230 C 0.29402 0.33733 0.10939 0.0
C2231 C 0.2794 0.33901 0.1192 0.0
C2232 C 0.26678 0.3484 0.11249 0.0
H2233 H 0.25102 0.31056 0.2271 0.0
H2234 H 0.25305 0.32453 0.19837 0.0
C2235 C 0.26869 0.356 0.09615 0.0
C2236 C 0.27718 0.33095 0.13648 0.0
H2237 H 0.25048 0.29872 0.15472 0.0
C2238 C 0.28895 0.33814 0.15258 0.0
C2239 C 0.26319 0.31654 0.13716 0.0
C2240 C 0.25065 0.30799 0.12002 0.0
C2241 C 0.28689 0.33137 0.1695 0.0
C2242 C 0.27275 0.31715 0.1702 0.0
C2243 C 0.26109 0.30986 0.15409 0.0
C2244 C 0.27087 0.30867 0.18718 0.0
C2245 C 0.29991 0.33918 0.18653 0.0
C2246 C 0.28 0.29509 0.19003 0.0
C2247 C 0.27869 0.28704 0.20609 0.0
C2248 C 0.26834 0.29255 0.21974 0.0
C2249 C 0.25907 0.30611 0.21681 0.0
C2250 C 0.26023 0.31406 0.2005 0.0
H2251 H 0.30935 0.3511 0.18409 0.0
H2252 H 0.29258 0.34267 0.19838 0.0
H2253 H 0.30769 0.32925 0.19062 0.0
H2254 H 0.2883 0.29084 0.17989 0.0
H2255 H 0.2862 0.27677 0.208 0.0
H2256 H 0.22176 0.91142 0.98732 0.0
H2257 H 0.19535 0.92468 0.98345 0.0
H2258 H 0.22669 0.97503 0.00848 0.0
H2259 H 0.25307 0.96207 0.01213 0.0
H2260 H 0.18514 0.9396 0.01637 0.0
H2261 H 0.19456 0.98841 0.96635 0.0
H2262 H 0.20612 0.97018 0.96625 0.0
H2263 H 0.21361 0.98943 0.98309 0.0
C2264 C 0.22301 0.92536 0.99174 0.0
C2265 C 0.23927 0.93574 0.00022 0.0
C2266 C 0.20807 0.93292 0.98926 0.0
C2267 C 0.20933 0.95084 0.99527 0.0
C2268 C 0.22569 0.9613 0.00319 0.0
H2269 H 0.1507 0.01729 0.04661 0.0
H2270 H 0.17164 0.00528 0.02782 0.0
C2271 C 0.24062 0.95381 0.00558 0.0
C2272 C 0.19314 0.95778 0.99712 0.0
H2273 H 0.17327 0.99202 0.98818 0.0
C2274 C 0.18216 0.95073 0.00979 0.0
C2275 C 0.18989 0.9726 0.98889 0.0
C2276 C 0.2016 0.98054 0.97527 0.0
C2277 C 0.16835 0.95864 0.01523 0.0
C2278 C 0.16506 0.97354 0.00711 0.0
C2279 C 0.17572 0.98036 0.99399 0.0
C2280 C 0.15181 0.98308 0.01391 0.0
C2281 C 0.15816 0.9517 0.03052 0.0
C2282 C 0.13379 0.97479 0.01163 0.0
C2283 C 0.12201 0.98143 0.02253 0.0
C2284 C 0.12826 0.9964 0.03558 0.0
C2285 C 0.14591 0.0055 0.03676 0.0
C2286 C 0.1577 0.99885 0.0259 0.0
H2287 H 0.16479 0.94238 0.03776 0.0
H2288 H 0.15675 0.96266 0.04104 0.0
H2289 H 0.14459 0.94467 0.02444 0.0
H2290 H 0.12917 0.96256 0.0024 0.0
H2291 H 0.10827 0.97451 0.02137 0.0
H2292 H 0.71364 0.61158 0.98267 0.0
H2293 H 0.68496 0.59258 0.98493 0.0
H2294 H 0.66895 0.63548 0.01741 0.0
H2295 H 0.6973 0.6547 0.01456 0.0
H2296 H 0.67152 0.58254 0.01575 0.0
H2297 H 0.62592 0.6187 0.97928 0.0
H2298 H 0.64971 0.6233 0.97839 0.0
H2299 H 0.64047 0.63207 -0.00165 0.0
C2300 C 0.70387 0.617 0.99006 0.0
C2301 C 0.70759 0.63462 -0.0017 0.0
C2302 C 0.68755 0.60614 0.99139 0.0
C2303 C 0.67472 0.61268 0.00112 0.0
C2304 C 0.67844 0.63028 0.00941 0.0
H2305 H 0.58399 0.55279 0.04406 0.0
H2306 H 0.61293 0.57101 0.04052 0.0
C2307 C 0.69466 0.64124 0.00782 0.0
C2308 C 0.65778 0.60084 0.00321 0.0
H2309 H 0.61245 0.59583 0.99548 0.0
C2310 C 0.6586 0.58542 0.01127 0.0
C2311 C 0.64094 0.60456 0.9972 0.0
C2312 C 0.63915 0.62047 0.98766 0.0
C2313 C 0.64303 0.57372 0.0137 0.0
C2314 C 0.62627 0.57768 0.0081 0.0
C2315 C 0.6254 0.59296 -0.00013 0.0
C2316 C 0.60939 0.56598 0.0104 0.0
C2317 C 0.64455 0.55704 0.02187 0.0
C2318 C 0.59787 0.55734 0.99464 0.0
C2319 C 0.58131 0.54729 0.99665 0.0
C2320 C 0.57621 0.5456 0.01445 0.0
C2321 C 0.58788 0.55382 0.03024 0.0
C2322 C 0.60433 0.56416 0.02822 0.0
H2323 H 0.65845 0.55476 0.02311 0.0
H2324 H 0.64011 0.55784 0.03595 0.0
H2325 H 0.63574 0.54556 0.01311 0.0
H2326 H 0.6016 0.5586 0.98079 0.0
H2327 H 0.57243 0.54091 0.98434 0.0
H2328 H 0.67949 0.49767 0.3051 0.0
H2329 H 0.69382 0.47189 0.30467 0.0
H2330 H 0.6582 0.44671 0.25584 0.0
H2331 H 0.64353 0.47214 0.25651 0.0
H2332 H 0.67148 0.42936 0.2987 0.0
H2333 H 0.71694 0.45489 0.24836 0.0
H2334 H 0.70772 0.46938 0.26416 0.0
H2335 H 0.69377 0.45643 0.24444 0.0
C2336 C 0.67471 0.48658 0.29436 0.0
C2337 C 0.66046 0.48682 0.28083 0.0
C2338 C 0.68279 0.47188 0.2942 0.0
C2339 C 0.67696 0.45746 0.28028 0.0
C2340 C 0.66272 0.45768 0.26679 0.0
H2341 H 0.70298 0.36212 0.23672 0.0
H2342 H 0.68751 0.38424 0.25054 0.0
C2343 C 0.65441 0.47218 0.26717 0.0
C2344 C 0.6864 0.44258 0.27901 0.0
H2345 H 0.71722 0.42614 0.25534 0.0
C2346 C 0.68163 0.42868 0.28941 0.0
C2347 C 0.69956 0.44183 0.26684 0.0
C2348 C 0.70495 0.45642 0.25531 0.0
C2349 C 0.68948 0.41374 0.2875 0.0
C2350 C 0.70239 0.41289 0.27505 0.0
C2351 C 0.70742 0.42698 0.26503 0.0
C2352 C 0.7099 0.39699 0.27075 0.0
C2353 C 0.6838 0.3988 0.29845 0.0
C2354 C 0.72737 0.3965 0.27807 0.0
C2355 C 0.73619 0.38375 0.27029 0.0
C2356 C 0.72768 0.37162 0.25491 0.0
C2357 C 0.70976 0.37135 0.24858 0.0
C2358 C 0.70091 0.38392 0.25649 0.0
H2359 H 0.67456 0.402 0.30858 0.0
H2360 H 0.67704 0.38695 0.28874 0.0
H2361 H 0.69572 0.39549 0.30607 0.0
H2362 H 0.73455 0.40664 0.28895 0.0
H2363 H 0.75005 0.38426 0.27529 0.0
H2364 H 0.83697 0.44189 0.52201 0.0
H2365 H 0.86937 0.44727 0.52764 0.0
H2366 H 0.87284 0.46672 0.47458 0.0
H2367 H 0.8401 0.46142 0.46878 0.0
H2368 H 0.89971 0.43964 0.5038 0.0
H2369 H 0.88939 0.50832 0.52088 0.0
H2370 H 0.87154 0.48943 0.51944 0.0
H2371 H 0.87919 0.49679 0.49857 0.0
C2372 C 0.84466 0.44715 0.51146 0.0
C2373 C 0.83634 0.45182 0.49523 0.0
C2374 C 0.86302 0.44985 0.51454 0.0
C2375 C 0.8731 0.4572 0.50143 0.0
C2376 C 0.86491 0.46089 0.48467 0.0
H2377 H 0.97308 0.50072 0.48606 0.0
H2378 H 0.94419 0.48204 0.48773 0.0
C2379 C 0.84644 0.45831 0.48161 0.0
C2380 C 0.89166 0.46474 0.50727 0.0
H2381 H 0.91905 0.50418 0.52177 0.0
C2382 C 0.90407 0.4537 0.50787 0.0
C2383 C 0.89678 0.48297 0.51312 0.0
C2384 C 0.88355 0.49511 0.51314 0.0
C2385 C 0.92212 0.46088 0.51303 0.0
C2386 C 0.92729 0.47924 0.5177 0.0
C2387 C 0.91471 0.49003 0.51836 0.0
C2388 C 0.9455 0.48806 0.51769 0.0
C2389 C 0.93565 0.44912 0.51269 0.0
C2390 C 0.95497 0.49804 0.53393 0.0
C2391 C 0.97115 0.50902 0.53288 0.0
C2392 C 0.97761 0.50989 0.51565 0.0
C2393 C 0.96797 0.50016 0.4994 0.0
C2394 C 0.95188 0.48924 0.50042 0.0
H2395 H 0.92933 0.43511 0.51261 0.0
H2396 H 0.94244 0.45028 0.49996 0.0
H2397 H 0.94599 0.45328 0.52493 0.0
H2398 H 0.94966 0.4976 0.54717 0.0
H2399 H 0.97848 0.51685 0.54537 0.0
H2400 H 0.3328 0.04994 0.31379 0.0
H2401 H 0.31992 0.0764 0.31079 0.0
H2402 H 0.36213 0.09636 0.27905 0.0
H2403 H 0.37514 0.07051 0.28236 0.0
H2404 H 0.34544 0.11859 0.3165 0.0
H2405 H 0.30601 0.08664 0.24907 0.0
H2406 H 0.31216 0.07408 0.26722 0.0
H2407 H 0.3286 0.08344 0.25333 0.0
C2408 C 0.33935 0.06022 0.30653 0.0
C2409 C 0.35494 0.05863 0.29853 0.0
C2410 C 0.33211 0.07516 0.30486 0.0
C2411 C 0.34033 0.08808 0.29487 0.0
C2412 C 0.35595 0.08649 0.28706 0.0
H2413 H 0.32473 0.17043 0.23716 0.0
H2414 H 0.33882 0.15209 0.25689 0.0
C2415 C 0.36331 0.07185 0.28899 0.0
C2416 C 0.33215 0.1028 0.29114 0.0
H2417 H 0.30931 0.11749 0.25591 0.0
C2418 C 0.33716 0.11841 0.3035 0.0
C2419 C 0.32179 0.10221 0.27395 0.0
C2420 C 0.31671 0.08568 0.2601 0.0
C2421 C 0.33238 0.13391 0.29872 0.0
C2422 C 0.32246 0.13338 0.28132 0.0
C2423 C 0.31698 0.11761 0.26927 0.0
C2424 C 0.31769 0.14894 0.27463 0.0
C2425 C 0.33847 0.15081 0.31175 0.0
C2426 C 0.30155 0.15344 0.27867 0.0
C2427 C 0.29348 0.16369 0.26738 0.0
C2428 C 0.30146 0.16923 0.25193 0.0
C2429 C 0.31829 0.16588 0.24882 0.0
C2430 C 0.32644 0.15578 0.26023 0.0
H2431 H 0.34658 0.149 0.32462 0.0
H2432 H 0.34653 0.16076 0.30457 0.0
H2433 H 0.32667 0.15608 0.31567 0.0
H2434 H 0.29456 0.14785 0.28954 0.0
H2435 H 0.28051 0.16634 0.26999 0.0
H2436 H 0.31191 0.14076 0.48346 0.0
H2437 H 0.33905 0.12851 0.48069 0.0
H2438 H 0.34044 0.11905 0.53804 0.0
H2439 H 0.31332 0.13081 0.54077 0.0
H2440 H 0.37578 0.13565 0.50644 0.0
H2441 H 0.3326 0.0697 0.50293 0.0
H2442 H 0.32405 0.08876 0.49709 0.0
H2443 H 0.32892 0.08579 0.52104 0.0
C2444 C 0.31827 0.13637 0.49553 0.0
C2445 C 0.31044 0.13637 0.51223 0.0
C2446 C 0.3337 0.12942 0.49393 0.0
C2447 C 0.34145 0.12269 0.50909 0.0
C2448 C 0.33443 0.12401 0.52615 0.0
H2449 H 0.41249 0.06971 0.55734 0.0
H2450 H 0.3878 0.08215 0.54435 0.0
C2451 C 0.31895 0.13065 0.52767 0.0
C2452 C 0.35571 0.1126 0.50704 0.0
H2453 H 0.36388 0.07175 0.51165 0.0
C2454 C 0.37326 0.1216 0.50707 0.0
C2455 C 0.35218 0.09428 0.5077 0.0
C2456 C 0.3334 0.08399 0.50702 0.0
C2457 C 0.38765 0.11292 0.50942 0.0
C2458 C 0.38416 0.09483 0.51159 0.0
C2459 C 0.36649 0.08562 0.51007 0.0
C2460 C 0.39847 0.08594 0.51829 0.0
C2461 C 0.40644 0.12338 0.51093 0.0
C2462 C 0.41235 0.08352 0.50769 0.0
C2463 C 0.42653 0.07648 0.51515 0.0
C2464 C 0.42698 0.07183 0.53329 0.0
C2465 C 0.41264 0.07354 0.54349 0.0
C2466 C 0.3985 0.08051 0.53603 0.0
H2467 H 0.40681 0.13774 0.5116 0.0
H2468 H 0.41456 0.12096 0.52349 0.0
H2469 H 0.41277 0.11916 0.49856 0.0
H2470 H 0.41237 0.08736 0.49384 0.0
H2471 H 0.43742 0.07521 0.50699 0.0
H2472 H 0.64355 0.60327 0.26202 0.0
H2473 H 0.66469 0.63081 0.26258 0.0
H2474 H 0.70072 0.61474 0.3035 0.0
H2475 H 0.67982 0.58661 0.3023 0.0
H2476 H 0.67711 0.65694 0.28942 0.0
H2477 H 0.73425 0.62892 0.2667 0.0
H2478 H 0.71225 0.61564 0.26587 0.0
H2479 H 0.72657 0.62168 0.28759 0.0
C2480 C 0.656 0.60556 0.27112 0.0
C2481 C 0.66005 0.59274 0.28207 0.0
C2482 C 0.66809 0.62134 0.27144 0.0
C2483 C 0.68446 0.62483 0.28287 0.0
C2484 C 0.68842 0.6122 0.29416 0.0
H2485 H 0.75513 0.72852 0.30418 0.0
H2486 H 0.73675 0.70005 0.30775 0.0
C2487 C 0.67643 0.59617 0.29356 0.0
C2488 C 0.69707 0.64182 0.28291 0.0
H2489 H 0.73903 0.65981 0.27397 0.0
C2490 C 0.69067 0.65753 0.28612 0.0
C2491 C 0.71477 0.64265 0.27851 0.0
C2492 C 0.72236 0.62633 0.27431 0.0
C2493 C 0.70135 0.67392 0.28482 0.0
C2494 C 0.71892 0.67466 0.28031 0.0
C2495 C 0.72549 0.6591 0.2774 0.0
C2496 C 0.73054 0.69153 0.27816 0.0
C2497 C 0.69366 0.69033 0.28767 0.0
C2498 C 0.7334 0.69592 0.26034 0.0
C2499 C 0.74416 0.71199 0.2583 0.0
C2500 C 0.75191 0.72394 0.27406 0.0
C2501 C 0.74915 0.71948 0.29186 0.0
C2502 C 0.73868 0.7033 0.29391 0.0
H2503 H 0.67949 0.68744 0.29037 0.0
H2504 H 0.70153 0.69942 0.29965 0.0
H2505 H 0.69459 0.69725 0.27516 0.0
H2506 H 0.72712 0.687 0.24804 0.0
H2507 H 0.74596 0.71535 0.24445 0.0
H2508 H 0.88324 0.44149 0.77711 0.0
H2509 H 0.86557 0.41223 0.77753 0.0
H2510 H 0.8201 0.43481 0.7899 0.0
H2511 H 0.83745 0.46418 0.78938 0.0
H2512 H 0.8431 0.39841 0.80721 0.0
H2513 H 0.80807 0.40232 0.73737 0.0
H2514 H 0.8289 0.41682 0.74674 0.0
H2515 H 0.80855 0.42006 0.75557 0.0
C2516 C 0.86949 0.44025 0.77993 0.0
C2517 C 0.86158 0.45499 0.78293 0.0
C2518 C 0.85959 0.42364 0.7804 0.0
C2519 C 0.84179 0.42177 0.78377 0.0
C2520 C 0.83395 0.43636 0.78734 0.0
H2521 H 0.7609 0.32911 0.77117 0.0
H2522 H 0.77705 0.35944 0.77303 0.0
C2523 C 0.84381 0.45299 0.78687 0.0
C2524 C 0.83091 0.4044 0.78141 0.0
H2525 H 0.80038 0.3761 0.7502 0.0
C2526 C 0.83363 0.39343 0.79488 0.0
C2527 C 0.81881 0.39838 0.76518 0.0
C2528 C 0.81591 0.40993 0.75028 0.0
C2529 C 0.82435 0.37612 0.79242 0.0
C2530 C 0.81255 0.37002 0.77593 0.0
C2531 C 0.80963 0.38111 0.76268 0.0
C2532 C 0.80286 0.3521 0.77217 0.0
C2533 C 0.82717 0.3646 0.80738 0.0
C2534 C 0.81219 0.3384 0.76996 0.0
C2535 C 0.80308 0.32128 0.76904 0.0
C2536 C 0.78466 0.31796 0.76979 0.0
C2537 C 0.77514 0.33161 0.77026 0.0
C2538 C 0.78428 0.34877 0.7715 0.0
H2539 H 0.83343 0.37249 0.82083 0.0
H2540 H 0.81433 0.35636 0.80963 0.0
H2541 H 0.83616 0.35569 0.80298 0.0
H2542 H 0.82657 0.34103 0.77013 0.0
H2543 H 0.8107 0.31099 0.76941 0.0
H2544 H 0.06409 0.8554 0.10441 0.0
H2545 H 0.06088 0.88332 0.09325 0.0
H2546 H 0.02923 0.85501 0.04333 0.0
H2547 H 0.03278 0.82692 0.05425 0.0
H2548 H 0.06976 0.89599 0.05648 0.0
H2549 H 0.99838 0.89024 0.06753 0.0
H2550 H 0.01299 0.87837 0.07961 0.0
H2551 H 0.0048 0.87132 0.05554 0.0
C2552 C 0.0565 0.85504 0.091 0.0
C2553 C 0.0487 0.83875 0.08029 0.0
C2554 C 0.05468 0.87111 0.0846 0.0
C2555 C 0.04466 0.87147 0.06747 0.0
C2556 C 0.03693 0.85523 0.05665 0.0
H2557 H 0.01227 0.95902 0.01358 0.0
H2558 H 0.01535 0.93014 0.02227 0.0
C2559 C 0.03905 0.83911 0.06289 0.0
C2560 C 0.04228 0.88878 0.06107 0.0
H2561 H 0.0115 0.91502 0.05432 0.0
C2562 C 0.05701 0.90012 0.05601 0.0
C2563 C 0.02568 0.89433 0.06034 0.0
C2564 C 0.00951 0.88306 0.06613 0.0
C2565 C 0.05556 0.91657 0.05012 0.0
C2566 C 0.039 0.9223 0.04967 0.0
C2567 C 0.02423 0.91086 0.05459 0.0
C2568 C 0.03687 0.94016 0.04446 0.0
C2569 C 0.07178 0.92748 0.04396 0.0
C2570 C 0.04763 0.95575 0.0541 0.0
C2571 C 0.04585 0.97237 0.04917 0.0
C2572 C 0.03315 0.97408 0.03446 0.0
C2573 C 0.02219 0.95846 0.02497 0.0
C2574 C 0.02396 0.9418 0.02996 0.0
H2575 H 0.08147 0.91927 0.03973 0.0
H2576 H 0.06801 0.93441 0.03211 0.0
H2577 H 0.07861 0.93748 0.05572 0.0
H2578 H 0.05739 0.95513 0.06564 0.0
H2579 H 0.05451 0.98392 0.05702 0.0
H2580 H 0.94992 0.29104 0.89255 0.0
H2581 H 0.92099 0.28991 0.87496 0.0
H2582 H 0.90801 0.23381 0.87533 0.0
H2583 H 0.93725 0.23493 0.89334 0.0
H2584 H 0.91113 0.2706 0.83924 0.0
H2585 H 0.86125 0.25021 0.88721 0.0
H2586 H 0.88433 0.25967 0.89553 0.0
H2587 H 0.87824 0.23733 0.88452 0.0
C2588 C 0.94079 0.27846 0.88925 0.0
C2589 C 0.94595 0.26306 0.89434 0.0
C2590 C 0.92422 0.27784 0.87912 0.0
C2591 C 0.91223 0.2618 0.87369 0.0
C2592 C 0.9169 0.24641 0.87951 0.0
H2593 H 0.80765 0.24274 0.80512 0.0
H2594 H 0.83446 0.23943 0.82462 0.0
C2595 C 0.93361 0.24705 0.88985 0.0
C2596 C 0.89575 0.26138 0.86064 0.0
H2597 H 0.85014 0.2544 0.85708 0.0
C2598 C 0.89778 0.26698 0.84313 0.0
C2599 C 0.87829 0.25654 0.86556 0.0
C2600 C 0.87525 0.25069 0.88426 0.0
C2601 C 0.883 0.26797 0.83049 0.0
C2602 C 0.86549 0.26375 0.83563 0.0
C2603 C 0.86345 0.25776 0.85303 0.0
C2604 C 0.84922 0.26566 0.82332 0.0
C2605 C 0.88644 0.27322 0.81161 0.0
C2606 C 0.8483 0.2815 0.81601 0.0
C2607 C 0.83317 0.28321 0.80442 0.0
C2608 C 0.81827 0.26933 0.80036 0.0
C2609 C 0.81894 0.25365 0.808 0.0
C2610 C 0.83427 0.25178 0.8192 0.0
H2611 H 0.8992 0.27006 0.80758 0.0
H2612 H 0.87551 0.26653 0.80064 0.0
H2613 H 0.88755 0.28765 0.81212 0.0
H2614 H 0.85922 0.29271 0.81944 0.0
H2615 H 0.83292 0.29557 0.79904 0.0
H2616 H 0.5643 0.22895 0.56282 0.0
H2617 H 0.56098 0.19776 0.54976 0.0
H2618 H 0.52008 0.18338 0.58495 0.0
H2619 H 0.52349 0.21424 0.59799 0.0
H2620 H 0.56643 0.16974 0.57034 0.0
H2621 H 0.49745 0.15563 0.53453 0.0
H2622 H 0.51017 0.17775 0.54091 0.0
H2623 H 0.49932 0.16618 0.55805 0.0
C2624 C 0.5542 0.21918 0.56727 0.0
C2625 C 0.54386 0.22418 0.58115 0.0
C2626 C 0.55243 0.20129 0.55996 0.0
C2627 C 0.5401 0.18804 0.56615 0.0
C2628 C 0.52943 0.19319 0.57958 0.0
H2629 H 0.51204 0.07339 0.55657 0.0
H2630 H 0.51516 0.10525 0.5642 0.0
C2631 C 0.53136 0.21093 0.58702 0.0
C2632 C 0.53909 0.16877 0.55974 0.0
H2633 H 0.51006 0.13075 0.54047 0.0
C2634 C 0.55416 0.16128 0.56358 0.0
C2635 C 0.52308 0.15751 0.55104 0.0
C2636 C 0.50661 0.16466 0.54571 0.0
C2637 C 0.5535 0.14298 0.55953 0.0
C2638 C 0.5374 0.13169 0.55108 0.0
C2639 C 0.52241 0.13923 0.54701 0.0
C2640 C 0.53578 0.11208 0.54652 0.0
C2641 C 0.56991 0.13578 0.56497 0.0
C2642 C 0.54612 0.10499 0.53381 0.0
C2643 C 0.54422 0.08667 0.52925 0.0
C2644 C 0.53208 0.07475 0.53738 0.0
C2645 C 0.52169 0.08194 0.55007 0.0
C2646 C 0.52344 0.10027 0.55447 0.0
H2647 H 0.5797 0.14532 0.57517 0.0
H2648 H 0.56631 0.12336 0.57108 0.0
H2649 H 0.57649 0.13286 0.55238 0.0
H2650 H 0.55543 0.11365 0.52706 0.0
H2651 H 0.55202 0.08192 0.51896 0.0
H2652 H 0.56195 0.787 0.41789 0.0
H2653 H 0.58791 0.78975 0.40041 0.0
H2654 H 0.56921 0.73649 0.37349 0.0
H2655 H 0.54266 0.73428 0.38997 0.0
H2656 H 0.61481 0.77406 0.3997 0.0
H2657 H 0.5783 0.75873 0.32853 0.0
H2658 H 0.56709 0.76243 0.34883 0.0
H2659 H 0.5729 0.74139 0.34246 0.0
C2660 C 0.5634 0.77593 0.40817 0.0
C2661 C 0.55029 0.76045 0.40521 0.0
C2662 C 0.57825 0.77749 0.39815 0.0
C2663 C 0.58051 0.76348 0.3852 0.0
C2664 C 0.56761 0.74778 0.38276 0.0
H2665 H 0.66401 0.75557 0.3108 0.0
H2666 H 0.64046 0.74792 0.3309 0.0
C2667 C 0.5525 0.74643 0.39236 0.0
C2668 C 0.59653 0.76526 0.37467 0.0
H2669 H 0.60962 0.76122 0.33093 0.0
C2670 C 0.6136 0.77128 0.38465 0.0
C2671 C 0.59517 0.76151 0.35497 0.0
C2672 C 0.57738 0.75582 0.34305 0.0
C2673 C 0.62916 0.77372 0.37564 0.0
C2674 C 0.62777 0.77025 0.35596 0.0
C2675 C 0.61078 0.76383 0.34599 0.0
C2676 C 0.64351 0.77429 0.34532 0.0
C2677 C 0.64698 0.77989 0.38737 0.0
C2678 C 0.65331 0.79159 0.34679 0.0
C2679 C 0.66668 0.79594 0.33529 0.0
C2680 C 0.67072 0.78311 0.32209 0.0
C2681 C 0.66143 0.76566 0.32107 0.0
C2682 C 0.64787 0.76133 0.33246 0.0
H2683 H 0.64645 0.7763 0.40169 0.0
H2684 H 0.65762 0.77425 0.38106 0.0
H2685 H 0.65065 0.79444 0.38853 0.0
H2686 H 0.65006 0.80195 0.35624 0.0
H2687 H 0.67344 0.80953 0.33623 0.0
H2688 H 0.05274 0.25984 0.41538 0.0
H2689 H 0.05204 0.23378 0.43145 0.0
H2690 H 0.01649 0.20248 0.38549 0.0
H2691 H 0.01754 0.22836 0.36915 0.0
H2692 H 0.02472 0.2132 0.44364 0.0
H2693 H 0.05287 0.17197 0.39189 0.0
H2694 H 0.05375 0.19514 0.39103 0.0
H2695 H 0.0337 0.17938 0.38209 0.0
C2696 C 0.04483 0.24739 0.40864 0.0
C2697 C 0.03526 0.24622 0.39091 0.0
C2698 C 0.04446 0.23246 0.41786 0.0
C2699 C 0.03451 0.21598 0.4096 0.0
C2700 C 0.02472 0.21485 0.39199 0.0
H2701 H 0.99877 0.11383 0.44131 0.0
H2702 H 0.00876 0.13908 0.42515 0.0
C2703 C 0.0252 0.22974 0.3827 0.0
C2704 C 0.03374 0.20021 0.41976 0.0
H2705 H 0.03921 0.15742 0.41564 0.0
C2706 C 0.02811 0.20108 0.4376 0.0
C2707 C 0.03814 0.18431 0.41194 0.0
C2708 C 0.04512 0.18265 0.39327 0.0
C2709 C 0.02604 0.18641 0.44747 0.0
C2710 C 0.03013 0.17039 0.43953 0.0
C2711 C 0.03614 0.16964 0.42184 0.0
C2712 C 0.02669 0.15394 0.44862 0.0
C2713 C 0.01868 0.18805 0.46595 0.0
C2714 C 0.03417 0.15329 0.46695 0.0
C2715 C 0.02846 0.13871 0.47622 0.0
C2716 C 0.01534 0.12447 0.46727 0.0
C2717 C 0.00899 0.12457 0.44851 0.0
C2718 C 0.01465 0.13907 0.43928 0.0
H2719 H 0.01219 0.19963 0.46788 0.0
H2720 H 0.00876 0.17608 0.46727 0.0
H2721 H 0.02975 0.1897 0.47737 0.0
H2722 H 0.04383 0.16436 0.47436 0.0
H2723 H 0.03345 0.13908 0.49073 0.0
H2724 H 0.57033 0.22746 0.1968 0.0
H2725 H 0.60178 0.2298 0.20873 0.0
H2726 H 0.60685 0.2858 0.22303 0.0
H2727 H 0.57508 0.28317 0.21211 0.0
H2728 H 0.63075 0.24476 0.1978 0.0
H2729 H 0.63199 0.27697 0.26965 0.0
H2730 H 0.61138 0.26815 0.25482 0.0
H2731 H 0.62403 0.28959 0.25273 0.0
C2732 C 0.5781 0.2402 0.20287 0.0
C2733 C 0.57014 0.25507 0.20382 0.0
C2734 C 0.59618 0.24159 0.20962 0.0
C2735 C 0.60696 0.25795 0.21723 0.0
C2736 C 0.59895 0.27288 0.21796 0.0
H2737 H 0.72209 0.29457 0.24899 0.0
H2738 H 0.69004 0.29152 0.24002 0.0
C2739 C 0.58073 0.27141 0.21159 0.0
C2740 C 0.62665 0.25939 0.22338 0.0
H2741 H 0.6603 0.27636 0.25889 0.0
C2742 C 0.63707 0.25154 0.21127 0.0
C2743 C 0.63527 0.26825 0.24095 0.0
C2744 C 0.62506 0.27605 0.25535 0.0
C2745 C 0.65557 0.25252 0.21598 0.0
C2746 C 0.66417 0.26158 0.23338 0.0
C2747 C 0.65384 0.26945 0.24552 0.0
C2748 C 0.6839 0.26325 0.23907 0.0
C2749 C 0.66589 0.2442 0.20206 0.0
C2750 C 0.69141 0.24842 0.24176 0.0
C2751 C 0.70989 0.25013 0.24694 0.0
C2752 C 0.72148 0.2667 0.24969 0.0
C2753 C 0.71381 0.28153 0.2471 0.0
C2754 C 0.69536 0.27983 0.24195 0.0
H2755 H 0.65817 0.24072 0.188 0.0
H2756 H 0.67866 0.25319 0.201 0.0
H2757 H 0.6691 0.23197 0.20677 0.0
H2758 H 0.68295 0.23547 0.23996 0.0
H2759 H 0.71504 0.23845 0.24886 0.0
H2760 H 0.54199 0.83947 0.91565 0.0
H2761 H 0.54 0.86554 0.93719 0.0
H2762 H 0.53686 0.89542 0.89106 0.0
H2763 H 0.53898 0.86976 0.86963 0.0
H2764 H 0.56286 0.90133 0.94282 0.0
H2765 H 0.49221 0.90121 0.91788 0.0
H2766 H 0.5022 0.88213 0.91362 0.0
H2767 H 0.50646 0.89982 0.8998 0.0
C2768 C 0.54092 0.85161 0.9101 0.0
C2769 C 0.54067 0.85241 0.89082 0.0
C2770 C 0.53981 0.86653 0.92245 0.0
C2771 C 0.5381 0.88247 0.91577 0.0
C2772 C 0.53798 0.88329 0.89659 0.0
H2773 H 0.53893 0.99054 0.963 0.0
H2774 H 0.54237 0.96367 0.94394 0.0
C2775 C 0.53929 0.86854 0.88433 0.0
C2776 C 0.53635 0.8983 0.92861 0.0
H2777 H 0.50813 0.92668 0.93768 0.0
C2778 C 0.55085 0.90679 0.94178 0.0
C2779 C 0.52068 0.9055 0.92733 0.0
C2780 C 0.50442 0.89665 0.91402 0.0
C2781 C 0.55021 0.92243 0.95329 0.0
C2782 C 0.53468 0.92976 0.9517 0.0
C2783 C 0.5201 0.92114 0.93878 0.0
C2784 C 0.53318 0.9462 0.96358 0.0
C2785 C 0.56615 0.93122 0.96701 0.0
C2786 C 0.52674 0.94536 0.98091 0.0
C2787 C 0.52446 0.96065 0.99174 0.0
C2788 C 0.52878 0.9773 0.98566 0.0
C2789 C 0.53542 0.97807 0.96827 0.0
C2790 C 0.53748 0.9627 0.95733 0.0
H2791 H 0.57751 0.92429 0.96616 0.0
H2792 H 0.57059 0.94503 0.96442 0.0
H2793 H 0.56234 0.93165 0.98137 0.0
H2794 H 0.52321 0.93278 0.98597 0.0
H2795 H 0.51897 0.9593 0.00475 0.0
H2796 H 0.9511 0.75512 0.6817 0.0
H2797 H 0.92169 0.7594 0.68994 0.0
H2798 H 0.93478 0.74617 0.74479 0.0
H2799 H 0.96393 0.74145 0.73654 0.0
H2800 H 0.89395 0.73214 0.70623 0.0
H2801 H 0.91798 0.79611 0.75126 0.0
H2802 H 0.93035 0.78834 0.73323 0.0
H2803 H 0.93017 0.77883 0.75455 0.0
C2804 C 0.94776 0.75316 0.69554 0.0
C2805 C 0.96004 0.74793 0.70842 0.0
C2806 C 0.93086 0.75557 0.70023 0.0
C2807 C 0.92591 0.75323 0.71807 0.0
C2808 C 0.9382 0.74816 0.73098 0.0
H2809 H 0.83572 0.77081 0.77859 0.0
H2810 H 0.86457 0.76689 0.76884 0.0
C2811 C 0.95492 0.74542 0.72619 0.0
C2812 C 0.90792 0.75586 0.72321 0.0
H2813 H 0.88758 0.7832 0.7503 0.0
C2814 C 0.89253 0.74335 0.71578 0.0
C2815 C 0.90596 0.77035 0.73586 0.0
C2816 C 0.92192 0.7843 0.74418 0.0
C2817 C 0.87544 0.74471 0.72091 0.0
C2818 C 0.87337 0.75939 0.7334 0.0
C2819 C 0.88885 0.77194 0.74074 0.0
C2820 C 0.85546 0.76186 0.73929 0.0
C2821 C 0.85994 0.72992 0.7134 0.0
C2822 C 0.84041 0.76072 0.72613 0.0
C2823 C 0.82372 0.76259 0.73175 0.0
C2824 C 0.82158 0.76616 0.75072 0.0
C2825 C 0.83674 0.76796 0.76386 0.0
C2826 C 0.85335 0.76575 0.75826 0.0
H2827 H 0.86452 0.71747 0.70937 0.0
H2828 H 0.85036 0.72753 0.72376 0.0
H2829 H 0.85285 0.73334 0.70072 0.0
H2830 H 0.84155 0.7585 0.71139 0.0
H2831 H 0.81251 0.76146 0.72116 0.0
H2832 H 0.12536 0.02551 0.84194 0.0
H2833 H 0.11674 0.02027 0.87277 0.0
H2834 H 0.06877 0.0402 0.86049 0.0
H2835 H 0.07722 0.04557 0.82981 0.0
H2836 H 0.10681 0.04666 0.90226 0.0
H2837 H 0.05297 0.9889 0.87512 0.0
H2838 H 0.07121 0.99641 0.86217 0.0
H2839 H 0.05308 0.00797 0.86328 0.0
C2840 C 0.11298 0.02881 0.84581 0.0
C2841 C 0.10193 0.03588 0.83333 0.0
C2842 C 0.10812 0.02584 0.86344 0.0
C2843 C 0.09205 0.0297 0.86879 0.0
C2844 C 0.08115 0.03699 0.85652 0.0
H2845 H 0.02933 0.03006 0.95797 0.0
H2846 H 0.04302 0.03084 0.92925 0.0
C2847 C 0.08604 0.04008 0.839 0.0
C2848 C 0.08638 0.02595 0.88708 0.0
H2849 H 0.05359 0.00103 0.90669 0.0
C2850 C 0.09538 0.0365 0.90333 0.0
C2851 C 0.07142 0.01272 0.88834 0.0
C2852 C 0.06164 0.00072 0.87135 0.0
C2853 C 0.08928 0.03463 0.92076 0.0
C2854 C 0.07402 0.02171 0.92192 0.0
C2855 C 0.06536 0.01084 0.90574 0.0
C2856 C 0.06578 0.02044 0.93943 0.0
C2857 C 0.09857 0.04702 0.9377 0.0
C2858 C 0.07398 0.0141 0.95468 0.0
C2859 C 0.06603 0.0134 0.97123 0.0
C2860 C 0.04978 0.01903 0.97273 0.0
C2861 C 0.04165 0.02526 0.9573 0.0
C2862 C 0.0495 0.02584 0.94083 0.0
H2863 H 0.10913 0.05748 0.93414 0.0
H2864 H 0.08875 0.05331 0.94483 0.0
H2865 H 0.10479 0.03951 0.94769 0.0
H2866 H 0.08652 0.00977 0.95379 0.0
H2867 H 0.07267 0.00863 0.98287 0.0
H2868 H 0.77448 0.41043 0.56487 0.0
H2869 H 0.7697 0.39439 0.59161 0.0
H2870 H 0.80686 0.36211 0.57481 0.0
H2871 H 0.81123 0.37776 0.54753 0.0
H2872 H 0.76198 0.34897 0.58128 0.0
H2873 H 0.81344 0.38772 0.63722 0.0
H2874 H 0.80351 0.39785 0.61879 0.0
H2875 H 0.81933 0.38421 0.61388 0.0
C2876 C 0.78198 0.40022 0.56723 0.0
C2877 C 0.79324 0.39521 0.55443 0.0
C2878 C 0.77914 0.39107 0.58233 0.0
C2879 C 0.78788 0.37718 0.58489 0.0
C2880 C 0.8 0.37283 0.57277 0.0
H2881 H 0.80307 0.29781 0.64091 0.0
H2882 H 0.78922 0.31267 0.61733 0.0
C2883 C 0.80254 0.38173 0.55739 0.0
C2884 C 0.78339 0.36629 0.59942 0.0
H2885 H 0.7982 0.36009 0.64311 0.0
C2886 C 0.76962 0.35144 0.59496 0.0
C2887 C 0.79332 0.36994 0.61713 0.0
C2888 C 0.80822 0.38583 0.62221 0.0
C2889 C 0.76625 0.33936 0.60765 0.0
C2890 C 0.77693 0.34245 0.62497 0.0
C2891 C 0.7899 0.35795 0.62981 0.0
C2892 C 0.77756 0.32871 0.63703 0.0
C2893 C 0.75189 0.32311 0.60228 0.0
C2894 C 0.7746 0.33215 0.65562 0.0
C2895 C 0.78267 0.32388 0.6691 0.0
C2896 C 0.79383 0.31214 0.66406 0.0
C2897 C 0.79482 0.30706 0.64514 0.0
C2898 C 0.78666 0.3153 0.63166 0.0
H2899 H 0.74231 0.32459 0.59039 0.0
H2900 H 0.75814 0.31175 0.59815 0.0
H2901 H 0.7445 0.32011 0.6143 0.0
H2902 H 0.76777 0.34263 0.65995 0.0
H2903 H 0.78167 0.32809 0.68358 0.0
H2904 H 0.41056 0.97914 0.34344 0.0
H2905 H 0.42161 0.98218 0.37655 0.0
H2906 H 0.42145 0.03784 0.38138 0.0
H2907 H 0.40943 0.03459 0.34862 0.0
H2908 H 0.45479 0.00537 0.37818 0.0
H2909 H 0.416 0.02634 0.43463 0.0
H2910 H 0.40533 0.01403 0.41265 0.0
H2911 H 0.41469 0.03704 0.41405 0.0
C2912 C 0.41229 0.99182 0.35188 0.0
C2913 C 0.40992 0.0068 0.34386 0.0
C2914 C 0.41819 0.99348 0.3707 0.0
C2915 C 0.42234 0.01023 0.38114 0.0
C2916 C 0.41798 0.0248 0.37353 0.0
H2917 H 0.50061 0.04878 0.47685 0.0
H2918 H 0.48078 0.04849 0.44832 0.0
C2919 C 0.41154 0.02303 0.35484 0.0
C2920 C 0.43642 0.01338 0.39658 0.0
H2921 H 0.4471 0.02859 0.44248 0.0
C2922 C 0.45309 0.01028 0.39232 0.0
C2923 C 0.43416 0.02056 0.41457 0.0
C2924 C 0.41655 0.02463 0.41935 0.0
C2925 C 0.46763 0.01357 0.40594 0.0
C2926 C 0.46514 0.01984 0.42417 0.0
C2927 C 0.4487 0.02369 0.42833 0.0
C2928 C 0.47881 0.02069 0.43955 0.0
C2929 C 0.48539 0.0102 0.40071 0.0
C2930 C 0.4842 0.00516 0.44351 0.0
C2931 C 0.49566 0.00539 0.45942 0.0
C2932 C 0.50115 0.021 0.47159 0.0
C2933 C 0.4961 0.03661 0.4675 0.0
C2934 C 0.48499 0.03648 0.45135 0.0
H2935 H 0.48657 0.01136 0.38578 0.0
H2936 H 0.4967 0.01947 0.40931 0.0
H2937 H 0.48655 0.9966 0.40297 0.0
H2938 H 0.47904 0.99279 0.43468 0.0
H2939 H 0.49951 0.99328 0.46269 0.0
H2940 H 0.73792 0.69588 0.06184 0.0
H2941 H 0.74023 0.71176 0.09333 0.0
H2942 H 0.79462 0.70487 0.10381 0.0
H2943 H 0.79234 0.68925 0.07218 0.0
H2944 H 0.74709 0.69634 0.12542 0.0
H2945 H 0.79825 0.75659 0.12442 0.0
H2946 H 0.78659 0.74334 0.10337 0.0
H2947 H 0.80458 0.73632 0.11621 0.0
C2948 C 0.75052 0.69833 0.07071 0.0
C2949 C 0.76508 0.6918 0.0646 0.0
C2950 C 0.7518 0.70724 0.0887 0.0
C2951 C 0.76764 0.70965 0.10089 0.0
C2952 C 0.7824 0.70353 0.09454 0.0
H2953 H 0.79753 0.74784 0.21821 0.0
H2954 H 0.79591 0.73509 0.1858 0.0
C2955 C 0.78112 0.69466 0.0765 0.0
C2956 C 0.76813 0.71717 0.12065 0.0
H2957 H 0.78927 0.75093 0.15384 0.0
C2958 C 0.75622 0.70836 0.13161 0.0
C2959 C 0.7802 0.73271 0.12876 0.0
C2960 C 0.79305 0.74291 0.11758 0.0
C2961 C 0.75614 0.71457 0.15048 0.0
C2962 C 0.76807 0.73022 0.15855 0.0
C2963 C 0.78006 0.73898 0.14761 0.0
C2964 C 0.76862 0.73756 0.17841 0.0
C2965 C 0.74366 0.70405 0.16176 0.0
C2966 C 0.75377 0.74321 0.18513 0.0
C2967 C 0.75463 0.7505 0.20378 0.0
C2968 C 0.7704 0.7525 0.21604 0.0
C2969 C 0.7852 0.74675 0.2092 0.0
C2970 C 0.78431 0.7394 0.19063 0.0
H2971 H 0.73847 0.69041 0.15477 0.0
H2972 H 0.75045 0.70346 0.17578 0.0
H2973 H 0.7321 0.7105 0.1636 0.0
H2974 H 0.74159 0.7422 0.17589 0.0
H2975 H 0.74304 0.75479 0.20846 0.0
H2976 H 0.0856 0.007 0.72439 0.0
H2977 H 0.07147 0.00564 0.69238 0.0
H2978 H 0.11112 0.05019 0.68418 0.0
H2979 H 0.12578 0.05089 0.71562 0.0
H2980 H 0.05601 0.02754 0.67494 0.0
H2981 H 0.11462 0.01792 0.63933 0.0
H2982 H 0.11405 0.01638 0.6638 0.0
H2983 H 0.11971 0.03752 0.65575 0.0
C2984 C 0.09134 0.01638 0.71564 0.0
C2985 C 0.10692 0.02888 0.72235 0.0
C2986 C 0.08326 0.01563 0.69738 0.0
C2987 C 0.09046 0.02753 0.68561 0.0
C2988 C 0.10567 0.04041 0.69263 0.0
H2989 H 0.05482 0.05522 0.57801 0.0
H2990 H 0.06622 0.05532 0.61076 0.0
C2991 C 0.11398 0.04089 0.71068 0.0
C2992 C 0.08193 0.02679 0.66617 0.0
H2993 H 0.09079 0.02627 0.62094 0.0
C2994 C 0.06362 0.02711 0.66315 0.0
C2995 C 0.09175 0.02606 0.65064 0.0
C2996 C 0.11106 0.02425 0.65251 0.0
C2997 C 0.05507 0.02722 0.64519 0.0
C2998 C 0.06507 0.02716 0.6299 0.0
C2999 C 0.08325 0.02658 0.63279 0.0
C3000 C 0.05687 0.0274 0.61068 0.0
C3001 C 0.03543 0.02756 0.64255 0.0
C3002 C 0.04785 0.01171 0.59987 0.0
C3003 C 0.04143 0.01167 0.5812 0.0
C3004 C 0.04372 0.02736 0.57316 0.0
C3005 C 0.05245 0.04311 0.58407 0.0
C3006 C 0.05908 0.04312 0.60269 0.0
H3007 H 0.02973 0.02877 0.65599 0.0
H3008 H 0.03316 0.03872 0.635 0.0
H3009 H 0.02815 0.01526 0.63387 0.0
H3010 H 0.04615 0.99944 0.60576 0.0
H3011 H 0.03486 0.99935 0.57295 0.0
H3012 H 0.78218 0.37092 0.45684 0.0
H3013 H 0.7818 0.35037 0.42901 0.0
H3014 H 0.78721 0.39316 0.39586 0.0
H3015 H 0.78761 0.41402 0.4237 0.0
H3016 H 0.75221 0.35393 0.39741 0.0
H3017 H 0.82162 0.35543 0.37972 0.0
H3018 H 0.81699 0.36004 0.40347 0.0
H3019 H 0.81495 0.37575 0.38762 0.0
C3020 C 0.78365 0.37603 0.44371 0.0
C3021 C 0.78456 0.39395 0.44225 0.0
C3022 C 0.78358 0.36432 0.42795 0.0
C3023 C 0.7846 0.37048 0.41072 0.0
C3024 C 0.7866 0.38843 0.40928 0.0
H3025 H 0.75575 0.31919 0.3 0.0
H3026 H 0.75837 0.3391 0.32879 0.0
C3027 C 0.78657 0.4002 0.42505 0.0
C3028 C 0.7802 0.35787 0.39402 0.0
H3029 H 0.79806 0.33691 0.35932 0.0
C3030 C 0.76216 0.35015 0.38902 0.0
C3031 C 0.79342 0.35326 0.38344 0.0
C3032 C 0.81289 0.36146 0.38875 0.0
C3033 C 0.7569 0.33762 0.37339 0.0
C3034 C 0.77009 0.33295 0.36285 0.0
C3035 C 0.78815 0.3407 0.36777 0.0
C3036 C 0.76536 0.32019 0.34634 0.0
C3037 C 0.73745 0.32933 0.36818 0.0
C3038 C 0.76778 0.303 0.3472 0.0
C3039 C 0.7665 0.29167 0.33085 0.0
C3040 C 0.76286 0.29757 0.31367 0.0
C3041 C 0.75883 0.31439 0.3131 0.0
C3042 C 0.76027 0.32574 0.32942 0.0
H3043 H 0.72891 0.33396 0.3784 0.0
H3044 H 0.73282 0.33248 0.35426 0.0
H3045 H 0.73569 0.31479 0.36722 0.0
H3046 H 0.7717 0.29874 0.3604 0.0
H3047 H 0.76985 0.27897 0.33174 0.0
H3048 H 0.38137 0.99478 0.22501 0.0
H3049 H 0.39749 0.99141 0.19774 0.0
H3050 H 0.44082 0.03266 0.22455 0.0
H3051 H 0.42507 0.03573 0.25191 0.0
H3052 H 0.40714 0.01915 0.17705 0.0
H3053 H 0.46627 0.99427 0.20484 0.0
H3054 H 0.44622 0.99281 0.21617 0.0
H3055 H 0.46232 0.0131 0.21913 0.0
C3056 C 0.39432 0.0031 0.22496 0.0
C3057 C 0.40199 0.01573 0.24019 0.0
C3058 C 0.40352 0.00104 0.20959 0.0
C3059 C 0.42029 0.0117 0.20942 0.0
C3060 C 0.42802 0.02411 0.22474 0.0
H3061 H 0.49703 0.01906 0.13223 0.0
H3062 H 0.47907 0.03063 0.155 0.0
C3063 C 0.41897 0.026 0.24016 0.0
C3064 C 0.42904 0.01127 0.19255 0.0
H3065 H 0.4678 0.0059 0.17617 0.0
C3066 C 0.42038 0.01619 0.17671 0.0
C3067 C 0.44629 0.00754 0.1925 0.0
C3068 C 0.45576 0.00148 0.20902 0.0
C3069 C 0.42876 0.01774 0.16063 0.0
C3070 C 0.44607 0.01407 0.16055 0.0
C3071 C 0.45468 0.00917 0.17649 0.0
C3072 C 0.45463 0.01239 0.14353 0.0
C3073 C 0.41904 0.02331 0.14399 0.0
C3074 C 0.44645 0.99913 0.12906 0.0
C3075 C 0.45663 0.99265 0.11619 0.0
C3076 C 0.475 0.99922 0.11794 0.0
C3077 C 0.48287 0.01365 0.13116 0.0
C3078 C 0.47262 0.02037 0.14387 0.0
H3079 H 0.40964 0.03182 0.14836 0.0
H3080 H 0.42845 0.03049 0.13549 0.0
H3081 H 0.41105 0.01145 0.13514 0.0
H3082 H 0.43268 0.99262 0.12877 0.0
H3083 H 0.45045 0.9817 0.1057 0.0
H3084 H 0.77751 0.66863 0.93678 0.0
H3085 H 0.78027 0.68117 0.9076 0.0
H3086 H 0.75892 0.72542 0.92992 0.0
H3087 H 0.75646 0.71314 0.95932 0.0
H3088 H 0.75433 0.68964 0.88276 0.0
H3089 H 0.80517 0.74894 0.91232 0.0
H3090 H 0.79971 0.73029 0.9248 0.0
H3091 H 0.78547 0.74615 0.92398 0.0
C3092 C 0.77348 0.68108 0.93552 0.0
C3093 C 0.76693 0.69 0.95043 0.0
C3094 C 0.77502 0.68819 0.91881 0.0
C3095 C 0.77006 0.70434 0.91668 0.0
C3096 C 0.76321 0.71313 0.93141 0.0
H3097 H 0.76303 0.76946 0.82991 0.0
H3098 H 0.76226 0.75533 0.85816 0.0
C3099 C 0.76177 0.70608 0.94819 0.0
C3100 C 0.772 0.71196 0.89903 0.0
H3101 H 0.79202 0.74827 0.88125 0.0
C3102 C 0.76267 0.7024 0.88238 0.0
C3103 C 0.78298 0.72856 0.89858 0.0
C3104 C 0.79405 0.73903 0.91583 0.0
C3105 C 0.7636 0.70927 0.86536 0.0
C3106 C 0.77431 0.726 0.86503 0.0
C3107 C 0.78383 0.73544 0.8816 0.0
C3108 C 0.77512 0.73441 0.84779 0.0
C3109 C 0.7527 0.69887 0.84797 0.0
C3110 C 0.78286 0.72742 0.83268 0.0
C3111 C 0.78343 0.73553 0.81647 0.0
C3112 C 0.77632 0.75079 0.81519 0.0
C3113 C 0.7688 0.75783 0.83049 0.0
C3114 C 0.76826 0.74975 0.84663 0.0
H3115 H 0.74277 0.68765 0.85115 0.0
H3116 H 0.74559 0.70745 0.84011 0.0
H3117 H 0.76173 0.69355 0.8388 0.0
H3118 H 0.78845 0.71571 0.83343 0.0
H3119 H 0.7893 0.72981 0.80492 0.0
H3120 H 0.79554 0.06717 0.0469 0.0
H3121 H 0.8248 0.06136 0.04072 0.0
H3122 H 0.84616 0.11714 0.04688 0.0
H3123 H 0.81705 0.12311 0.05332 0.0
H3124 H 0.84258 0.07713 0.00948 0.0
H3125 H 0.88126 0.09377 0.08024 0.0
H3126 H 0.85715 0.08876 0.07706 0.0
H3127 H 0.86885 0.1092 0.07139 0.0
C3128 C 0.80663 0.07813 0.04755 0.0
C3129 C 0.80426 0.09552 0.05061 0.0
C3130 C 0.82316 0.07484 0.04383 0.0
C3131 C 0.83731 0.0889 0.04341 0.0
C3132 C 0.83523 0.10626 0.04731 0.0
H3133 H 0.93789 0.07207 0.00769 0.0
H3134 H 0.91703 0.08681 0.024 0.0
C3135 C 0.81872 0.10958 0.051 0.0
C3136 C 0.85404 0.08517 0.03803 0.0
H3137 H 0.89507 0.0805 0.05627 0.0
C3138 C 0.85419 0.07806 0.01958 0.0
C3139 C 0.86903 0.08686 0.05134 0.0
C3140 C 0.8692 0.09502 0.07117 0.0
C3141 C 0.86882 0.07147 0.01425 0.0
C3142 C 0.88327 0.07181 0.02794 0.0
C3143 C 0.88366 0.08005 0.04609 0.0
C3144 C 0.89758 0.06282 0.02344 0.0
C3145 C 0.86845 0.06359 0.99424 0.0
C3146 C 0.89363 0.0445 0.01882 0.0
C3147 C 0.90521 0.03623 0.00924 0.0
C3148 C 0.92081 0.0463 0.00466 0.0
C3149 C 0.92566 0.06432 0.01103 0.0
C3150 C 0.91396 0.07264 0.02041 0.0
H3151 H 0.85877 0.06842 0.98475 0.0
H3152 H 0.88185 0.06667 0.98946 0.0
H3153 H 0.86435 0.04907 0.9931 0.0
H3154 H 0.88097 0.03686 0.02128 0.0
H3155 H 0.90159 0.02223 0.00458 0.0
H3156 H 0.34295 0.42416 0.06065 0.0
H3157 H 0.37421 0.43969 0.0628 0.0
H3158 H 0.37502 0.42216 0.0046 0.0
H3159 H 0.34373 0.40736 0.00228 0.0
H3160 H 0.408 0.43069 0.05264 0.0
H3161 H 0.38181 0.47618 0.00847 0.0
H3162 H 0.36743 0.46061 0.01966 0.0
H3163 H 0.37626 0.45342 -0.00123 0.0
C3164 C 0.35001 0.42338 0.04848 0.0
C3165 C 0.34108 0.41489 0.03124 0.0
C3166 C 0.36779 0.43218 0.04972 0.0
C3167 C 0.37672 0.43232 0.03376 0.0
C3168 C 0.3682 0.42246 0.01696 0.0
H3169 H 0.46936 0.49349 -0.00155 0.0
H3170 H 0.44105 0.47431 0.00155 0.0
C3171 C 0.35041 0.41403 0.01564 0.0
C3172 C 0.39398 0.44439 0.0339 0.0
H3173 H 0.41305 0.48025 0.01496 0.0
C3174 C 0.4092 0.44159 0.04449 0.0
C3175 C 0.39537 0.45858 0.02327 0.0
C3176 C 0.37934 0.46252 0.01201 0.0
C3177 C 0.42601 0.45228 0.04415 0.0
C3178 C 0.42741 0.46645 0.03336 0.0
C3179 C 0.41203 0.46938 0.02315 0.0
C3180 C 0.44465 0.4781 0.03177 0.0
C3181 C 0.4421 0.44783 0.05476 0.0
C3182 C 0.45594 0.48692 0.04766 0.0
C3183 C 0.47238 0.49738 0.04583 0.0
C3184 C 0.47732 0.49973 0.02811 0.0
C3185 C 0.46565 0.49184 0.01224 0.0
C3186 C 0.44956 0.48087 0.01404 0.0
H3187 H 0.43958 0.43391 0.0575 0.0
H3188 H 0.45395 0.45011 0.04707 0.0
H3189 H 0.44525 0.45625 0.06843 0.0
H3190 H 0.45216 0.48562 0.06146 0.0
H3191 H 0.48129 0.50351 0.0582 0.0
H3192 H 0.37349 0.55033 0.72906 0.0
H3193 H 0.3604 0.5767 0.72858 0.0
H3194 H 0.38644 0.59618 0.78413 0.0
H3195 H 0.40027 0.57032 0.78422 0.0
H3196 H 0.33785 0.58826 0.74919 0.0
H3197 H 0.39935 0.63927 0.75992 0.0
H3198 H 0.39965 0.61623 0.75413 0.0
H3199 H 0.39911 0.62534 0.7779 0.0
C3200 C 0.37644 0.56031 0.74113 0.0
C3201 C 0.3879 0.55833 0.75668 0.0
C3202 C 0.36903 0.5754 0.74081 0.0
C3203 C 0.37274 0.58869 0.75614 0.0
C3204 C 0.38388 0.58648 0.77185 0.0
H3205 H 0.33771 0.67401 0.80868 0.0
H3206 H 0.3534 0.6523 0.79519 0.0
C3207 C 0.39162 0.5716 0.77199 0.0
C3208 C 0.36412 0.60431 0.75626 0.0
H3209 H 0.37252 0.64894 0.76761 0.0
C3210 C 0.34543 0.60158 0.75291 0.0
C3211 C 0.374 0.62173 0.76077 0.0
C3212 C 0.39414 0.62583 0.76317 0.0
C3213 C 0.33628 0.61555 0.75552 0.0
C3214 C 0.34615 0.63286 0.76137 0.0
C3215 C 0.3649 0.63571 0.76336 0.0
C3216 C 0.33751 0.64758 0.76823 0.0
C3217 C 0.31614 0.6114 0.7531 0.0
C3218 C 0.32371 0.65284 0.7574 0.0
C3219 C 0.31438 0.66516 0.76531 0.0
C3220 C 0.31885 0.67251 0.78411 0.0
C3221 C 0.33357 0.66823 0.79434 0.0
C3222 C 0.34269 0.65589 0.78655 0.0
H3223 H 0.31073 0.59706 0.75209 0.0
H3224 H 0.31082 0.61822 0.76489 0.0
H3225 H 0.31112 0.61597 0.74006 0.0
H3226 H 0.31982 0.6471 0.74303 0.0
H3227 H 0.30322 0.66831 0.75699 0.0
H3228 H 0.2045 0.61951 0.55593 0.0
H3229 H 0.1738 0.60507 0.55796 0.0
H3230 H 0.17701 0.56588 0.5122 0.0
H3231 H 0.20784 0.57992 0.51056 0.0
H3232 H 0.15115 0.60493 0.52646 0.0
H3233 H 0.14679 0.53755 0.54532 0.0
H3234 H 0.16673 0.55441 0.55129 0.0
H3235 H 0.16198 0.54201 0.5284 0.0
C3236 C 0.19865 0.6076 0.5466 0.0
C3237 C 0.20797 0.60087 0.53275 0.0
C3238 C 0.18137 0.5993 0.54797 0.0
C3239 C 0.17345 0.58446 0.53533 0.0
C3240 C 0.18322 0.57709 0.52234 0.0
H3241 H 0.07125 0.5254 0.49557 0.0
H3242 H 0.10033 0.54349 0.49271 0.0
C3243 C 0.2006 0.58521 0.52119 0.0
C3244 C 0.15423 0.57911 0.53264 0.0
H3245 H 0.12122 0.54299 0.52671 0.0
C3246 C 0.14447 0.59144 0.52674 0.0
C3247 C 0.14592 0.56154 0.53292 0.0
C3248 C 0.1559 0.54817 0.54001 0.0
C3249 C 0.1264 0.58639 0.52033 0.0
C3250 C 0.11823 0.56868 0.51996 0.0
C3251 C 0.1279 0.55646 0.52637 0.0
C3252 C 0.09909 0.56288 0.51603 0.0
C3253 C 0.11624 0.59989 0.51397 0.0
C3254 C 0.08876 0.56859 0.52938 0.0
C3255 C 0.07249 0.5583 0.53107 0.0
C3256 C 0.06651 0.54259 0.5192 0.0
C3257 C 0.07584 0.53777 0.50456 0.0
C3258 C 0.09221 0.54808 0.50285 0.0
H3259 H 0.12528 0.61121 0.50969 0.0
H3260 H 0.10583 0.59403 0.50217 0.0
H3261 H 0.10955 0.60501 0.52567 0.0
H3262 H 0.09418 0.57971 0.53994 0.0
H3263 H 0.0654 0.56172 0.54267 0.0
H3264 H 0.71556 0.99453 0.73068 0.0
H3265 H 0.72612 0.96673 0.72832 0.0
H3266 H 0.68814 0.94663 0.76461 0.0
H3267 H 0.67727 0.97419 0.76675 0.0
H3268 H 0.73995 0.95393 0.75983 0.0
H3269 H 0.68171 0.90637 0.72141 0.0
H3270 H 0.68491 0.9298 0.72046 0.0
H3271 H 0.67622 0.92066 0.74011 0.0
C3272 C 0.70956 0.98417 0.7382 0.0
C3273 C 0.69576 0.98632 0.74899 0.0
C3274 C 0.71538 0.96833 0.7366 0.0
C3275 C 0.70744 0.95467 0.74582 0.0
C3276 C 0.69388 0.95693 0.75687 0.0
H3277 H 0.72173 0.87069 0.79726 0.0
H3278 H 0.71059 0.89142 0.77862 0.0
C3279 C 0.68793 0.97268 0.75833 0.0
C3280 C 0.71488 0.93887 0.74604 0.0
H3281 H 0.70293 0.8943 0.74024 0.0
C3282 C 0.73216 0.94083 0.75508 0.0
C3283 C 0.70439 0.92204 0.73988 0.0
C3284 C 0.68582 0.91956 0.72977 0.0
C3285 C 0.73881 0.92623 0.75962 0.0
C3286 C 0.72798 0.90933 0.75429 0.0
C3287 C 0.71115 0.90734 0.74407 0.0
C3288 C 0.7327 0.89414 0.76209 0.0
C3289 C 0.75664 0.92915 0.77147 0.0
C3290 C 0.74841 0.88852 0.75835 0.0
C3291 C 0.75499 0.87706 0.76924 0.0
C3292 C 0.74571 0.87094 0.78375 0.0
C3293 C 0.72925 0.87553 0.78641 0.0
C3294 C 0.72278 0.88712 0.77563 0.0
H3295 H 0.76177 0.94324 0.77691 0.0
H3296 H 0.75563 0.92156 0.7835 0.0
H3297 H 0.76656 0.92456 0.763 0.0
H3298 H 0.7561 0.89384 0.74783 0.0
H3299 H 0.76778 0.87376 0.76696 0.0
H3300 H 0.71838 0.87999 0.52247 0.0
H3301 H 0.69305 0.89506 0.52025 0.0
H3302 H 0.7282 0.94436 0.54201 0.0
H3303 H 0.75354 0.92955 0.544 0.0
H3304 H 0.67963 0.91565 0.54823 0.0
H3305 H 0.70364 0.95437 0.49288 0.0
H3306 H 0.71251 0.93554 0.49875 0.0
H3307 H 0.71982 0.95651 0.51293 0.0
C3308 C 0.72068 0.89403 0.52681 0.0
C3309 C 0.73795 0.90362 0.5333 0.0
C3310 C 0.70622 0.90259 0.52556 0.0
C3311 C 0.70885 0.92082 0.53074 0.0
C3312 C 0.72598 0.93033 0.53764 0.0
H3313 H 0.64296 0.99869 0.52217 0.0
H3314 H 0.66554 0.98295 0.53436 0.0
C3315 C 0.74042 0.92183 0.53883 0.0
C3316 C 0.69376 0.93005 0.52879 0.0
H3317 H 0.6792 0.96217 0.50702 0.0
C3318 C 0.67947 0.9258 0.53921 0.0
C3319 C 0.69363 0.94321 0.51693 0.0
C3320 C 0.70812 0.94759 0.50459 0.0
C3321 C 0.66513 0.93468 0.53833 0.0
C3322 C 0.66515 0.94799 0.52667 0.0
C3323 C 0.67941 0.95215 0.51621 0.0
C3324 C 0.65001 0.95705 0.52386 0.0
C3325 C 0.65019 0.92989 0.54999 0.0
C3326 C 0.63362 0.94764 0.51457 0.0
C3327 C 0.62081 0.9566 0.50762 0.0
C3328 C 0.62424 0.97504 0.50996 0.0
C3329 C 0.64002 0.98445 0.52049 0.0
C3330 C 0.65289 0.97549 0.52736 0.0
H3331 H 0.65428 0.92277 0.56157 0.0
H3332 H 0.64563 0.94182 0.55588 0.0
H3333 H 0.63871 0.92118 0.54108 0.0
H3334 H 0.63129 0.93345 0.51141 0.0
H3335 H 0.60878 0.94918 0.49929 0.0
H3336 H 0.36409 0.46412 0.75313 0.0
H3337 H 0.34357 0.4364 0.75513 0.0
H3338 H 0.38692 0.40851 0.752 0.0
H3339 H 0.40743 0.4359 0.74989 0.0
H3340 H 0.33737 0.40214 0.72867 0.0
H3341 H 0.36436 0.39772 0.80137 0.0
H3342 H 0.36749 0.41817 0.79149 0.0
H3343 H 0.3805 0.40199 0.78525 0.0
C3344 C 0.36924 0.45208 0.7528 0.0
C3345 C 0.38744 0.45228 0.75142 0.0
C3346 C 0.3575 0.43626 0.75391 0.0
C3347 C 0.3638 0.42047 0.75389 0.0
C3348 C 0.38184 0.42059 0.7522 0.0
H3349 H 0.3167 0.31058 0.74573 0.0
H3350 H 0.33386 0.3395 0.74269 0.0
C3351 C 0.39353 0.43629 0.75094 0.0
C3352 C 0.35168 0.40383 0.75594 0.0
H3353 H 0.3436 0.37297 0.78554 0.0
C3354 C 0.33861 0.39581 0.74114 0.0
C3355 C 0.35341 0.39562 0.77222 0.0
C3356 C 0.3671 0.40382 0.78859 0.0
C3357 C 0.32746 0.37955 0.74208 0.0
C3358 C 0.32933 0.37129 0.75828 0.0
C3359 C 0.34218 0.37944 0.77318 0.0
C3360 C 0.31845 0.35387 0.75979 0.0
C3361 C 0.31378 0.37117 0.72577 0.0
C3362 C 0.30422 0.3524 0.77063 0.0
C3363 C 0.29436 0.33582 0.77252 0.0
C3364 C 0.29857 0.32045 0.76356 0.0
C3365 C 0.31294 0.32208 0.75275 0.0
C3366 C 0.32278 0.33861 0.75093 0.0
H3367 H 0.31301 0.37991 0.71479 0.0
H3368 H 0.31726 0.35877 0.71957 0.0
H3369 H 0.30042 0.36773 0.73056 0.0
H3370 H 0.3008 0.36408 0.77768 0.0
H3371 H 0.28357 0.33507 0.78112 0.0
H3372 H 0.17389 0.60215 0.22384 0.0
H3373 H 0.18979 0.63257 0.23218 0.0
H3374 H 0.22932 0.61556 0.26833 0.0
H3375 H 0.21376 0.58515 0.26002 0.0
H3376 H 0.19499 0.6472 0.27177 0.0
H3377 H 0.25754 0.65135 0.23798 0.0
H3378 H 0.23767 0.63497 0.22962 0.0
H3379 H 0.25155 0.63265 0.25011 0.0
C3380 C 0.18619 0.60487 0.23324 0.0
C3381 C 0.19251 0.59144 0.24153 0.0
C3382 C 0.19517 0.62215 0.23796 0.0
C3383 C 0.21049 0.626 0.25088 0.0
C3384 C 0.21752 0.61257 0.25821 0.0
H3385 H 0.27775 0.72583 0.28549 0.0
H3386 H 0.26211 0.69724 0.29203 0.0
C3387 C 0.20862 0.59529 0.25344 0.0
C3388 C 0.21817 0.64416 0.25811 0.0
H3389 H 0.25465 0.676 0.2582 0.0
C3390 C 0.20809 0.65358 0.26899 0.0
C3391 C 0.23525 0.65203 0.25444 0.0
C3392 C 0.24614 0.64233 0.24229 0.0
C3393 C 0.21462 0.67118 0.27604 0.0
C3394 C 0.23153 0.6792 0.27199 0.0
C3395 C 0.24182 0.66954 0.26161 0.0
C3396 C 0.23763 0.69817 0.27507 0.0
C3397 C 0.20327 0.68118 0.28721 0.0
C3398 C 0.22851 0.70827 0.26425 0.0
C3399 C 0.23738 0.72443 0.26057 0.0
C3400 C 0.25527 0.73032 0.26769 0.0
C3401 C 0.26387 0.72114 0.27993 0.0
C3402 C 0.25494 0.70508 0.28385 0.0
H3403 H 0.19382 0.67221 0.29417 0.0
H3404 H 0.21163 0.69142 0.2979 0.0
H3405 H 0.19529 0.68777 0.27772 0.0
H3406 H 0.21531 0.70288 0.25701 0.0
H3407 H 0.23076 0.73162 0.25107 0.0
H3408 H 0.49821 0.68971 0.43004 0.0
H3409 H 0.50213 0.66208 0.44131 0.0
H3410 H 0.51054 0.6878 0.49782 0.0
H3411 H 0.50675 0.71564 0.48656 0.0
H3412 H 0.5318 0.6541 0.46192 0.0
H3413 H 0.47304 0.64337 0.50105 0.0
H3414 H 0.47538 0.65862 0.48409 0.0
H3415 H 0.48746 0.6646 0.50699 0.0
C3416 C 0.50074 0.68955 0.44491 0.0
C3417 C 0.50203 0.70511 0.45732 0.0
C3418 C 0.50306 0.67363 0.45137 0.0
C3419 C 0.50648 0.67252 0.47052 0.0
C3420 C 0.50764 0.688 0.483 0.0
H3421 H 0.53086 0.58638 0.53258 0.0
H3422 H 0.52679 0.61486 0.52328 0.0
C3423 C 0.50552 0.70403 0.47651 0.0
C3424 C 0.50933 0.65536 0.4772 0.0
H3425 H 0.49296 0.6237 0.50387 0.0
C3426 C 0.52324 0.6475 0.47106 0.0
C3427 C 0.49828 0.64648 0.48918 0.0
C3428 C 0.48259 0.65355 0.49563 0.0
C3429 C 0.52646 0.6314 0.47665 0.0
C3430 C 0.51539 0.62251 0.48856 0.0
C3431 C 0.50155 0.63038 0.4948 0.0
C3432 C 0.51783 0.60494 0.49433 0.0
C3433 C 0.54194 0.62408 0.46999 0.0
C3434 C 0.5141 0.58957 0.48133 0.0
C3435 C 0.51621 0.57315 0.48667 0.0
C3436 C 0.52231 0.57151 0.5052 0.0
C3437 C 0.52614 0.58695 0.51819 0.0
C3438 C 0.52379 0.60334 0.51288 0.0
H3439 H 0.55111 0.63387 0.46365 0.0
H3440 H 0.54962 0.61972 0.48172 0.0
H3441 H 0.53679 0.61244 0.45939 0.0
H3442 H 0.50938 0.59025 0.46697 0.0
H3443 H 0.51311 0.5617 0.47619 0.0
H3444 H 0.61434 0.27405 0.61729 0.0
H3445 H 0.63992 0.27061 0.63851 0.0
H3446 H 0.6242 0.30483 0.68192 0.0
H3447 H 0.59808 0.30735 0.66111 0.0
H3448 H 0.66808 0.2912 0.65518 0.0
H3449 H 0.63074 0.26677 0.71135 0.0
H3450 H 0.61962 0.2692 0.68911 0.0
H3451 H 0.62652 0.28785 0.70697 0.0
C3452 C 0.61636 0.28083 0.63137 0.0
C3453 C 0.60412 0.29092 0.63752 0.0
C3454 C 0.63099 0.27883 0.64356 0.0
C3455 C 0.63391 0.28705 0.66215 0.0
C3456 C 0.62202 0.29771 0.668 0.0
H3457 H 0.72387 0.30369 0.75004 0.0
H3458 H 0.69667 0.30518 0.72981 0.0
C3459 C 0.60717 0.29935 0.65598 0.0
C3460 C 0.64965 0.28496 0.67512 0.0
H3461 H 0.66235 0.27616 0.71907 0.0
C3462 C 0.6667 0.28775 0.66906 0.0
C3463 C 0.64809 0.28034 0.69335 0.0
C3464 C 0.63023 0.27568 0.70049 0.0
C3465 C 0.68206 0.28646 0.68068 0.0
C3466 C 0.68053 0.28242 0.699 0.0
C3467 C 0.66356 0.27948 0.7051 0.0
C3468 C 0.69647 0.28109 0.71186 0.0
C3469 C 0.69997 0.2897 0.67342 0.0
C3470 C 0.7052 0.26688 0.70878 0.0
C3471 C 0.72068 0.26606 0.7203 0.0
C3472 C 0.72786 0.2795 0.73501 0.0
C3473 C 0.71879 0.29337 0.73854 0.0
C3474 C 0.70324 0.29418 0.72705 0.0
H3475 H 0.69932 0.29504 0.65989 0.0
H3476 H 0.7099 0.29903 0.68365 0.0
H3477 H 0.7048 0.27714 0.67143 0.0
H3478 H 0.70003 0.25644 0.69743 0.0
H3479 H 0.72691 0.25479 0.71784 0.0
H3480 H 0.98453 0.31336 0.96747 0.0
H3481 H 0.98512 0.34419 0.98019 0.0
H3482 H 0.03712 0.3596 0.96264 0.0
H3483 H 0.03633 0.32925 0.94959 0.0
H3484 H 0.00712 0.37051 0.00588 0.0
H3485 H 0.00933 0.38998 0.93526 0.0
H3486 H 0.00467 0.36727 0.93922 0.0
H3487 H 0.02734 0.37931 0.94167 0.0
C3488 C 0.99626 0.32327 0.96678 0.0
C3489 C 0.0104 0.31878 0.95751 0.0
C3490 C 0.99653 0.34096 0.97392 0.0
C3491 C 0.01096 0.35447 0.97194 0.0
C3492 C 0.02557 0.34967 0.9639 0.0
H3493 H 0.04423 0.46835 0.99468 0.0
H3494 H 0.04146 0.4366 0.98689 0.0
C3495 C 0.02521 0.33219 0.95662 0.0
C3496 C 0.01068 0.37362 0.97738 0.0
H3497 H 0.01623 0.41335 0.96047 0.0
C3498 C 0.00893 0.37984 0.9959 0.0
C3499 C 0.01289 0.38597 0.96441 0.0
C3500 C 0.01347 0.38029 0.944 0.0
C3501 C 0.01009 0.39796 0.00187 0.0
C3502 C 0.01296 0.41031 0.989 0.0
C3503 C 0.01428 0.40403 0.97045 0.0
C3504 C 0.0147 0.42978 0.99437 0.0
C3505 C 0.0088 0.40382 0.02207 0.0
C3506 C 0.00055 0.43681 0.00098 0.0
C3507 C 0.00208 0.45508 0.00535 0.0
C3508 C 0.01772 0.46698 0.00324 0.0
C3509 C 0.03186 0.45984 0.99649 0.0
C3510 C 0.03033 0.44156 0.99206 0.0
H3511 H 0.01057 0.39343 0.03096 0.0
H3512 H 0.01896 0.41586 0.0274 0.0
H3513 H 0.99543 0.40699 0.02344 0.0
H3514 H 0.98815 0.42818 0.00253 0.0
H3515 H 0.9909 0.45978 0.01029 0.0
H3516 H 0.99635 0.80017 0.12802 0.0
H3517 H 0.96864 0.80235 0.14196 0.0
H3518 H 0.97224 0.75581 0.16775 0.0
H3519 H -0.00041 0.75354 0.15411 0.0
H3520 H 0.93396 0.77332 0.14202 0.0
H3521 H 0.9732 0.79828 0.21089 0.0
H3522 H 0.98264 0.80013 0.18921 0.0
H3523 H 0.97951 0.77955 0.19853 0.0
C3524 C 0.99107 0.79028 0.13645 0.0
C3525 C 0.00038 0.77684 0.14017 0.0
C3526 C 0.97526 0.79156 0.14442 0.0
C3527 C 0.96855 0.77939 0.15615 0.0
C3528 C 0.97731 0.76549 0.15898 0.0
H3529 H 0.89504 0.74466 0.22811 0.0
H3530 H 0.92057 0.75538 0.21198 0.0
C3531 C 0.993 0.76424 0.15116 0.0
C3532 C 0.95302 0.78135 0.16646 0.0
H3533 H 0.94218 0.78676 0.21091 0.0
C3534 C 0.93567 0.77664 0.15704 0.0
C3535 C 0.95531 0.7857 0.18605 0.0
C3536 C 0.97366 0.79136 0.19681 0.0
C3537 C 0.92057 0.77497 0.16684 0.0
C3538 C 0.9229 0.77834 0.1866 0.0
C3539 C 0.94029 0.7841 0.19583 0.0
C3540 C 0.9079 0.77379 0.19803 0.0
C3541 C 0.90233 0.7685 0.156 0.0
C3542 C 0.89245 0.7811 0.19635 0.0
C3543 C 0.8778 0.77502 0.20577 0.0
C3544 C 0.8784 0.76157 0.21705 0.0
C3545 C 0.89424 0.75508 0.21956 0.0
C3546 C 0.90882 0.76117 0.21027 0.0
H3547 H 0.9031 0.76331 0.14132 0.0
H3548 H 0.8944 0.75798 0.16258 0.0
H3549 H 0.89509 0.77956 0.1559 0.0
H3550 H 0.8915 0.79114 0.18737 0.0
H3551 H 0.8657 0.78014 0.20347 0.0
H3552 H 0.5402 0.31609 0.16588 0.0
H3553 H 0.54139 0.34213 0.14955 0.0
H3554 H 0.49672 0.31459 0.11038 0.0
H3555 H 0.49576 0.28832 0.12634 0.0
H3556 H 0.54247 0.33953 0.10512 0.0
H3557 H 0.48748 0.36681 0.13472 0.0
H3558 H 0.50039 0.35383 0.14746 0.0
H3559 H 0.48446 0.34337 0.12803 0.0
C3560 C 0.5306 0.3156 0.15382 0.0
C3561 C 0.51793 0.30011 0.14736 0.0
C3562 C 0.53128 0.33049 0.14452 0.0
C3563 C 0.51906 0.33035 0.12883 0.0
C3564 C 0.50623 0.31501 0.1225 0.0
H3565 H 0.51865 0.40414 0.04623 0.0
H3566 H 0.50916 0.37978 0.06419 0.0
C3567 C 0.50576 0.29999 0.13158 0.0
C3568 C 0.52032 0.34594 0.11855 0.0
H3569 H 0.502 0.38205 0.11231 0.0
C3570 C 0.53358 0.34878 0.10663 0.0
C3571 C 0.50872 0.35799 0.12056 0.0
C3572 C 0.49444 0.35553 0.13341 0.0
C3573 C 0.53555 0.36335 0.09667 0.0
C3574 C 0.52406 0.3755 0.09874 0.0
C3575 C 0.51073 0.37267 0.11063 0.0
C3576 C 0.52664 0.3916 0.08924 0.0
C3577 C 0.55007 0.36586 0.08408 0.0
C3578 C 0.53912 0.40657 0.09755 0.0
C3579 C 0.54451 0.42042 0.08734 0.0
C3580 C 0.53744 0.41967 0.06865 0.0
C3581 C 0.52404 0.40523 0.06071 0.0
C3582 C 0.51869 0.39128 0.07093 0.0
H3583 H 0.55751 0.35492 0.08343 0.0
H3584 H 0.54418 0.36685 0.06978 0.0
H3585 H 0.55963 0.37837 0.08914 0.0
H3586 H 0.54553 0.40705 0.11157 0.0
H3587 H 0.55507 0.43125 0.09369 0.0
H3588 H 0.98009 0.3123 0.30647 0.0
H3589 H 0.94787 0.30772 0.29825 0.0
H3590 H 0.94009 0.26905 0.33617 0.0
H3591 H 0.97249 0.27392 0.34487 0.0
H3592 H 0.92341 0.27948 0.28235 0.0
H3593 H 0.90606 0.29944 0.35277 0.0
H3594 H 0.92876 0.30321 0.34729 0.0
H3595 H 0.91808 0.28176 0.35164 0.0
C3596 C 0.9716 0.3028 0.31315 0.0
C3597 C 0.97908 0.29354 0.32646 0.0
C3598 C 0.95306 0.30018 0.30838 0.0
C3599 C 0.94128 0.28824 0.31674 0.0
C3600 C 0.9487 0.27869 0.32979 0.0
H3601 H 0.8232 0.26374 0.30524 0.0
H3602 H 0.85495 0.26398 0.31367 0.0
C3603 C 0.96732 0.28139 0.33468 0.0
C3604 C 0.92141 0.28578 0.31152 0.0
H3605 H 0.88202 0.28863 0.32913 0.0
C3606 C 0.9144 0.28149 0.29263 0.0
C3607 C 0.90942 0.28827 0.32481 0.0
C3608 C 0.91592 0.29358 0.34524 0.0
C3609 C 0.89599 0.27956 0.2867 0.0
C3610 C 0.88402 0.28242 0.29995 0.0
C3611 C 0.891 0.28642 0.31888 0.0
C3612 C 0.86444 0.28189 0.29447 0.0
C3613 C 0.88959 0.27411 0.26625 0.0
C3614 C 0.85885 0.29194 0.28097 0.0
C3615 C 0.84066 0.29147 0.2758 0.0
C3616 C 0.82733 0.28142 0.28439 0.0
C3617 C 0.83291 0.27165 0.29823 0.0
C3618 C 0.85118 0.27182 0.30313 0.0
H3619 H 0.89875 0.26672 0.25931 0.0
H3620 H 0.876 0.26578 0.26405 0.0
H3621 H 0.88928 0.28603 0.25931 0.0
H3622 H 0.86858 0.30032 0.27441 0.0
H3623 H 0.83712 0.29905 0.26497 0.0
H3624 H 0.983 0.68976 0.63399 0.0
H3625 H 0.98345 0.66316 0.61243 0.0
H3626 H 0.03941 0.66769 0.63081 0.0
H3627 H 0.03865 0.69349 0.65291 0.0
H3628 H 0.00029 0.65542 0.58331 0.0
H3629 H 0.02246 0.61829 0.63853 0.0
H3630 H 0.01541 0.6389 0.64378 0.0
H3631 H 0.03787 0.63855 0.63867 0.0
C3632 C 0.99537 0.68503 0.63333 0.0
C3633 C 0.01077 0.69361 0.64519 0.0
C3634 C 0.99564 0.66981 0.62102 0.0
C3635 C 0.01136 0.66296 0.62023 0.0
C3636 C 0.02691 0.67214 0.63153 0.0
H3637 H 0.04745 0.58239 0.54944 0.0
H3638 H 0.04388 0.60893 0.56907 0.0
C3639 C 0.02654 0.68705 0.64404 0.0
C3640 C 0.01165 0.64629 0.60775 0.0
H3641 H 0.02497 0.60663 0.60726 0.0
C3642 C 0.00554 0.64472 0.58864 0.0
C3643 C 0.01829 0.63205 0.61455 0.0
C3644 C 0.02369 0.63193 0.63503 0.0
C3645 C 0.0065 0.62974 0.57621 0.0
C3646 C 0.0138 0.61594 0.58295 0.0
C3647 C 0.01957 0.6173 0.60204 0.0
C3648 C 0.01571 0.6 0.57042 0.0
C3649 C -0.0 0.62878 0.55583 0.0
C3650 C 0.00111 0.58604 0.56471 0.0
C3651 C 0.00326 0.57063 0.55391 0.0
C3652 C 0.01996 0.56903 0.54824 0.0
C3653 C 0.03444 0.5832 0.55357 0.0
C3654 C 0.0324 0.5984 0.56477 0.0
H3655 H 0.99604 0.64116 0.55242 0.0
H3656 H 0.01057 0.62593 0.54723 0.0
H3657 H 0.98831 0.61781 0.55196 0.0
H3658 H 0.98811 0.58695 0.56888 0.0
H3659 H 0.99185 0.55997 0.54988 0.0
H3660 H 0.60633 0.80592 0.8609 0.0
H3661 H 0.63394 0.80219 0.84812 0.0
H3662 H 0.6035 0.77716 0.79613 0.0
H3663 H 0.57587 0.7814 0.80868 0.0
H3664 H 0.64591 0.77385 0.83685 0.0
H3665 H 0.64065 0.81031 0.77612 0.0
H3666 H 0.62616 0.81135 0.79413 0.0
H3667 H 0.62175 0.79293 0.77596 0.0
C3668 C 0.60548 0.79978 0.84667 0.0
C3669 C 0.58875 0.79406 0.83585 0.0
C3670 C 0.62136 0.7976 0.83934 0.0
C3671 C 0.62109 0.78961 0.82096 0.0
C3672 C 0.60436 0.78382 0.81014 0.0
H3673 H 0.7069 0.75867 0.75927 0.0
H3674 H 0.67793 0.76144 0.76964 0.0
C3675 C 0.58845 0.78614 0.81741 0.0
C3676 C 0.63821 0.78673 0.81356 0.0
H3677 H 0.66365 0.79371 0.77774 0.0
C3678 C 0.64974 0.7783 0.82395 0.0
C3679 C 0.64345 0.79239 0.79665 0.0
C3680 C 0.63245 0.8024 0.78515 0.0
C3681 C 0.66604 0.77533 0.81798 0.0
C3682 C 0.67126 0.78102 0.80115 0.0
C3683 C 0.6597 0.78924 0.79059 0.0
C3684 C 0.68898 0.77918 0.79473 0.0
C3685 C 0.67749 0.76589 0.82967 0.0
C3686 C 0.705 0.78828 0.80519 0.0
C3687 C 0.72161 0.78676 0.79928 0.0
C3688 C 0.72279 0.77605 0.78268 0.0
C3689 C 0.70669 0.76696 0.77216 0.0
C3690 C 0.69002 0.76858 0.77806 0.0
H3691 H 0.66989 0.7588 0.83972 0.0
H3692 H 0.68314 0.75632 0.82074 0.0
H3693 H 0.68878 0.77563 0.8377 0.0
H3694 H 0.70466 0.79674 0.81794 0.0
H3695 H 0.73357 0.79403 0.80782 0.0
H3696 H 0.41493 0.51684 0.6855 0.0
H3697 H 0.42894 0.51957 0.65678 0.0
H3698 H 0.47973 0.51736 0.68629 0.0
H3699 H 0.4659 0.51489 0.71515 0.0
H3700 H 0.4621 0.54749 0.65266 0.0
H3701 H 0.46897 0.47765 0.6384 0.0
H3702 H 0.45274 0.48438 0.65261 0.0
H3703 H 0.47586 0.48859 0.66178 0.0
C3704 C 0.42909 0.51692 0.68588 0.0
C3705 C 0.43932 0.51566 0.70261 0.0
C3706 C 0.43706 0.51851 0.66947 0.0
C3707 C 0.45533 0.51859 0.66941 0.0
C3708 C 0.46558 0.51725 0.68604 0.0
H3709 H 0.5262 0.51575 0.5841 0.0
H3710 H 0.5121 0.51549 0.6127 0.0
C3711 C 0.45767 0.51589 0.70252 0.0
C3712 C 0.46375 0.52022 0.65199 0.0
H3713 H 0.48179 0.49713 0.61865 0.0
C3714 C 0.46639 0.5365 0.64515 0.0
C3715 C 0.46936 0.50588 0.64233 0.0
C3716 C 0.46655 0.48806 0.649 0.0
C3717 C 0.47492 0.53895 0.62909 0.0
C3718 C 0.48047 0.52455 0.61927 0.0
C3719 C 0.47761 0.50821 0.62611 0.0
C3720 C 0.48954 0.52605 0.6021 0.0
C3721 C 0.4784 0.55711 0.62322 0.0
C3722 C 0.48171 0.53222 0.5865 0.0
C3723 C 0.49003 0.53282 0.57018 0.0
C3724 C 0.50614 0.52683 0.56892 0.0
C3725 C 0.5139 0.52063 0.58455 0.0
C3726 C 0.50578 0.52036 0.60094 0.0
H3727 H 0.47847 0.56744 0.63505 0.0
H3728 H 0.49135 0.55989 0.61746 0.0
H3729 H 0.46761 0.55805 0.61231 0.0
H3730 H 0.46895 0.53621 0.58674 0.0
H3731 H 0.48357 0.53752 0.55839 0.0
H3732 H 0.79005 0.1412 0.97561 0.0
H3733 H 0.78943 0.15575 0.9473 0.0
H3734 H 0.74576 0.17907 0.96435 0.0
H3735 H 0.74679 0.16522 0.99281 0.0
H3736 H 0.75942 0.15801 0.91792 0.0
H3737 H 0.78957 0.22016 0.96399 0.0
H3738 H 0.78937 0.19874 0.97129 0.0
H3739 H 0.76961 0.20802 0.97094 0.0
C3740 C 0.7804 0.14949 0.9732 0.0
C3741 C 0.76902 0.15288 0.9865 0.0
C3742 C 0.77992 0.15754 0.95707 0.0
C3743 C 0.76781 0.16864 0.95419 0.0
C3744 C 0.75542 0.17078 0.96673 0.0
H3745 H 0.73255 0.24026 0.89433 0.0
H3746 H 0.74591 0.22463 0.91728 0.0
C3747 C 0.75617 0.1631 0.98297 0.0
C3748 C 0.76938 0.17978 0.9394 0.0
H3749 H 0.77781 0.22288 0.93309 0.0
C3750 C 0.76373 0.17218 0.921 0.0
C3751 C 0.77516 0.19814 0.94382 0.0
C3752 C 0.78141 0.20676 0.96358 0.0
C3753 C 0.76229 0.18276 0.90685 0.0
C3754 C 0.76721 0.2013 0.91143 0.0
C3755 C 0.77415 0.20869 0.92968 0.0
C3756 C 0.76219 0.2132 0.89848 0.0
C3757 C 0.75427 0.17406 0.88754 0.0
C3758 C 0.76768 0.21265 0.88069 0.0
C3759 C 0.75952 0.221 0.86732 0.0
C3760 C 0.7462 0.23048 0.87183 0.0
C3761 C 0.74229 0.23258 0.89028 0.0
C3762 C 0.75011 0.22386 0.90346 0.0
H3763 H 0.74821 0.15995 0.88735 0.0
H3764 H 0.74382 0.1808 0.88183 0.0
H3765 H 0.76486 0.17481 0.87814 0.0
H3766 H 0.77742 0.20491 0.87681 0.0
H3767 H 0.7629 0.21906 0.85324 0.0
H3768 H 0.11946 0.52281 0.20617 0.0
H3769 H 0.10109 0.52649 0.1784 0.0
H3770 H 0.14698 0.53168 0.14806 0.0
H3771 H 0.16585 0.52828 0.17608 0.0
H3772 H 0.11096 0.55668 0.15021 0.0
H3773 H 0.10318 0.48463 0.12746 0.0
H3774 H 0.10805 0.49343 0.1518 0.0
H3775 H 0.12478 0.49782 0.13648 0.0
C3776 C 0.12573 0.52479 0.19365 0.0
C3777 C 0.144 0.52508 0.1931 0.0
C3778 C 0.11527 0.52711 0.17797 0.0
C3779 C 0.12294 0.5295 0.16162 0.0
C3780 C 0.14115 0.53003 0.1609 0.0
H3781 H 0.06606 0.50933 0.05367 0.0
H3782 H 0.08736 0.51249 0.08106 0.0
C3783 C 0.15174 0.52786 0.1767 0.0
C3784 C 0.11119 0.52906 0.14483 0.0
H3785 H 0.08489 0.49992 0.11091 0.0
C3786 C 0.10542 0.54444 0.14125 0.0
C3787 C 0.10406 0.5129 0.13378 0.0
C3788 C 0.11024 0.49617 0.13746 0.0
C3789 C 0.09255 0.54412 0.12629 0.0
C3790 C 0.08503 0.52779 0.11539 0.0
C3791 C 0.09077 0.51239 0.1193 0.0
C3792 C 0.07207 0.52635 0.09903 0.0
C3793 C 0.08745 0.56124 0.12224 0.0
C3794 C 0.05642 0.53298 0.10018 0.0
C3795 C 0.04487 0.53236 0.08416 0.0
C3796 C 0.04838 0.52411 0.06715 0.0
C3797 C 0.06335 0.51629 0.06642 0.0
C3798 C 0.0754 0.51787 0.08213 0.0
H3799 H 0.09802 0.57273 0.12836 0.0
H3800 H 0.08495 0.56165 0.10704 0.0
H3801 H 0.07513 0.56267 0.12857 0.0
H3802 H 0.05325 0.53881 0.11333 0.0
H3803 H 0.03323 0.53827 0.08514 0.0
H3804 H 0.77442 0.83225 0.48075 0.0
H3805 H 0.77344 0.81427 0.45047 0.0
H3806 H 0.78533 0.86143 0.42451 0.0
H3807 H 0.78619 0.87934 0.4543 0.0
H3808 H 0.75052 0.81725 0.41423 0.0
H3809 H 0.82376 0.83079 0.41126 0.0
H3810 H 0.81408 0.83303 0.43287 0.0
H3811 H 0.81442 0.84978 0.41777 0.0
C3812 C 0.77687 0.83873 0.46857 0.0
C3813 C 0.78035 0.8572 0.46992 0.0
C3814 C 0.77624 0.82848 0.45133 0.0
C3815 C 0.77943 0.83658 0.43535 0.0
C3816 C 0.78295 0.85496 0.43672 0.0
H3817 H 0.77701 0.81688 0.31766 0.0
H3818 H 0.77563 0.82792 0.35025 0.0
C3819 C 0.78336 0.86515 0.45377 0.0
C3820 C 0.77903 0.82613 0.41701 0.0
H3821 H 0.80529 0.81891 0.3828 0.0
C3822 C 0.7625 0.8173 0.40745 0.0
C3823 C 0.79469 0.82639 0.40821 0.0
C3824 C 0.81279 0.83538 0.41807 0.0
C3825 C 0.76121 0.80928 0.38895 0.0
C3826 C 0.77681 0.81006 0.38002 0.0
C3827 C 0.79337 0.8184 0.38977 0.0
C3828 C 0.77622 0.80293 0.36026 0.0
C3829 C 0.74319 0.80053 0.37877 0.0
C3830 C 0.77703 0.78525 0.35524 0.0
C3831 C 0.77812 0.77898 0.3367 0.0
C3832 C 0.77818 0.79028 0.32294 0.0
C3833 C 0.77689 0.80787 0.32797 0.0
C3834 C 0.77609 0.81419 0.34654 0.0
H3835 H 0.73222 0.80143 0.38752 0.0
H3836 H 0.74056 0.80674 0.36603 0.0
H3837 H 0.74313 0.78645 0.37425 0.0
H3838 H 0.77719 0.77643 0.36572 0.0
H3839 H 0.77895 0.76532 0.33314 0.0
H3840 H 0.42951 0.52431 0.82139 0.0
H3841 H 0.44019 0.52826 0.85487 0.0
H3842 H 0.48393 0.50287 0.84304 0.0
H3843 H 0.47359 0.49898 0.80993 0.0
H3844 H 0.44558 0.50169 0.87796 0.0
H3845 H 0.50871 0.54866 0.87613 0.0
H3846 H 0.49046 0.54459 0.8576 0.0
H3847 H 0.50564 0.52963 0.85897 0.0
C3848 C 0.44149 0.5197 0.82592 0.0
C3849 C 0.4507 0.51139 0.81287 0.0
C3850 C 0.44755 0.52194 0.84507 0.0
C3851 C 0.46303 0.51609 0.85147 0.0
C3852 C 0.47218 0.50781 0.83846 0.0
H3853 H 0.52383 0.50331 0.95401 0.0
H3854 H 0.51097 0.50287 0.92171 0.0
C3855 C 0.46614 0.50552 0.81946 0.0
C3856 C 0.46954 0.51794 0.8717 0.0
H3857 H 0.50665 0.53379 0.90313 0.0
C3858 C 0.45883 0.5089 0.88354 0.0
C3859 C 0.48683 0.52738 0.87901 0.0
C3860 C 0.49853 0.53827 0.86733 0.0
C3861 C 0.46526 0.50841 0.90223 0.0
C3862 C 0.48281 0.51728 0.90931 0.0
C3863 C 0.49331 0.52674 0.89762 0.0
C3864 C 0.49041 0.51715 0.92891 0.0
C3865 C 0.45344 0.49793 0.91414 0.0
C3866 C 0.48325 0.52542 0.94367 0.0
C3867 C 0.49048 0.52561 0.96208 0.0
C3868 C 0.50516 0.51758 0.96626 0.0
C3869 C 0.51243 0.5094 0.95141 0.0
C3870 C 0.50513 0.50922 0.93291 0.0
H3871 H 0.44174 0.48906 0.90569 0.0
H3872 H 0.46108 0.48993 0.92225 0.0
H3873 H 0.44843 0.50709 0.92417 0.0
H3874 H 0.47214 0.53192 0.94094 0.0
H3875 H 0.48455 0.53219 0.97304 0.0
H3876 H 0.74985 0.12805 0.11238 0.0
H3877 H 0.75471 0.14916 0.14091 0.0
H3878 H 0.77412 0.19118 0.10976 0.0
H3879 H 0.76934 0.17058 0.08142 0.0
H3880 H 0.79214 0.17487 0.15287 0.0
H3881 H 0.73245 0.20497 0.14013 0.0
H3882 H 0.73331 0.18302 0.1298 0.0
H3883 H 0.74488 0.20182 0.12074 0.0
C3884 C 0.75503 0.14181 0.11165 0.0
C3885 C 0.75936 0.14771 0.0948 0.0
C3886 C 0.7578 0.15372 0.12785 0.0
C3887 C 0.7647 0.17145 0.12707 0.0
C3888 C 0.76872 0.17742 0.11032 0.0
H3889 H 0.77438 0.2658 0.19871 0.0
H3890 H 0.77851 0.24586 0.17231 0.0
C3891 C 0.76603 0.16563 0.09424 0.0
C3892 C 0.76838 0.18405 0.14376 0.0
H3893 H 0.75492 0.21979 0.16372 0.0
C3894 C 0.78407 0.18472 0.15552 0.0
C3895 C 0.75784 0.19682 0.1465 0.0
C3896 C 0.7411 0.19663 0.1337 0.0
C3897 C 0.78993 0.1985 0.16996 0.0
C3898 C 0.7793 0.21134 0.17285 0.0
C3899 C 0.76332 0.21021 0.16122 0.0
C3900 C 0.78324 0.22523 0.18871 0.0
C3901 C 0.8076 0.19931 0.18143 0.0
C3902 C 0.78588 0.22076 0.20668 0.0
C3903 C 0.78517 0.23283 0.22183 0.0
C3904 C 0.78029 0.24892 0.21924 0.0
C3905 C 0.77825 0.25363 0.20128 0.0
C3906 C 0.7805 0.24214 0.18616 0.0
H3907 H 0.81696 0.19366 0.17293 0.0
H3908 H 0.81403 0.21297 0.1874 0.0
H3909 H 0.80543 0.19124 0.19295 0.0
H3910 H 0.78741 0.20765 0.2091 0.0
H3911 H 0.78741 0.22902 0.23546 0.0
H3912 H 0.14924 0.5157 0.29549 0.0
H3913 H 0.13721 0.5098 0.32457 0.0
H3914 H 0.12472 0.56169 0.33135 0.0
H3915 H 0.13596 0.56734 0.30173 0.0
H3916 H 0.14223 0.52648 0.36234 0.0
H3917 H 0.07619 0.52738 0.32461 0.0
H3918 H 0.09577 0.52671 0.31284 0.0
H3919 H 0.09216 0.54721 0.32429 0.0
C3920 C 0.14425 0.52595 0.30344 0.0
C3921 C 0.14313 0.54184 0.29645 0.0
C3922 C 0.13746 0.52257 0.31998 0.0
C3923 C 0.12982 0.53518 0.3297 0.0
C3924 C 0.13028 0.55172 0.32365 0.0
H3925 H 0.09489 0.57136 0.42015 0.0
H3926 H 0.11261 0.55727 0.39908 0.0
C3927 C 0.13664 0.55493 0.30686 0.0
C3928 C 0.11941 0.53044 0.34481 0.0
H3929 H 0.07817 0.53022 0.35799 0.0
C3930 C 0.12814 0.52693 0.36138 0.0
C3931 C 0.10091 0.53029 0.34309 0.0
C3932 C 0.09067 0.53291 0.32517 0.0
C3933 C 0.1191 0.52529 0.3771 0.0
C3934 C 0.10118 0.52734 0.37594 0.0
C3935 C 0.09199 0.52873 0.35878 0.0
C3936 C 0.09314 0.53289 0.39245 0.0
C3937 C 0.12894 0.5225 0.39511 0.0
C3938 C 0.07647 0.52372 0.39567 0.0
C3939 C 0.06634 0.53183 0.40755 0.0
C3940 C 0.07271 0.54924 0.41587 0.0
C3941 C 0.08971 0.55805 0.4134 0.0
C3942 C 0.09994 0.54987 0.4018 0.0
H3943 H 0.14037 0.51601 0.39257 0.0
H3944 H 0.13423 0.53543 0.40366 0.0
H3945 H 0.11984 0.51437 0.40319 0.0
H3946 H 0.07094 0.51075 0.38822 0.0
H3947 H 0.05332 0.52479 0.40975 0.0
H3948 H 0.79239 0.87963 0.60299 0.0
H3949 H 0.78854 0.86728 0.63211 0.0
H3950 H 0.77115 0.81541 0.60145 0.0
H3951 H 0.77487 0.82765 0.57211 0.0
H3952 H 0.7542 0.84494 0.64057 0.0
H3953 H 0.8134 0.81307 0.64296 0.0
H3954 H 0.81148 0.83084 0.62941 0.0
H3955 H 0.79887 0.80913 0.62137 0.0
C3956 C 0.78787 0.86556 0.60241 0.0
C3957 C 0.78397 0.85459 0.58523 0.0
C3958 C 0.7856 0.85857 0.61906 0.0
C3959 C 0.77957 0.84049 0.61887 0.0
C3960 C 0.7759 0.82942 0.60182 0.0
H3961 H 0.7702 0.7711 0.70132 0.0
H3962 H 0.77013 0.78494 0.67338 0.0
C3963 C 0.77805 0.83642 0.58511 0.0
C3964 C 0.77704 0.83323 0.63655 0.0
H3965 H 0.7944 0.80815 0.6661 0.0
C3966 C 0.76291 0.83685 0.64623 0.0
C3967 C 0.78852 0.82281 0.6438 0.0
C3968 C 0.80402 0.81876 0.63398 0.0
C3969 C 0.75953 0.82972 0.66275 0.0
C3970 C 0.77102 0.8192 0.67006 0.0
C3971 C 0.78546 0.81606 0.66051 0.0
C3972 C 0.76807 0.81049 0.68699 0.0
C3973 C 0.74334 0.83304 0.67174 0.0
C3974 C 0.76626 0.81996 0.70409 0.0
C3975 C 0.76491 0.81156 0.72011 0.0
C3976 C 0.76608 0.79371 0.71946 0.0
C3977 C 0.76812 0.78446 0.70235 0.0
C3978 C 0.76861 0.79257 0.6863 0.0
H3979 H 0.73328 0.83669 0.66165 0.0
H3980 H 0.7369 0.8213 0.67768 0.0
H3981 H 0.74746 0.84417 0.68314 0.0
H3982 H 0.76646 0.83394 0.70525 0.0
H3983 H 0.76376 0.81923 0.73312 0.0
H3984 H 0.7201 0.4116 0.4847 0.0
H3985 H 0.69391 0.42519 0.48015 0.0
H3986 H 0.72458 0.47451 0.50884 0.0
H3987 H 0.75068 0.46127 0.51299 0.0
H3988 H 0.68094 0.43807 0.51128 0.0
H3989 H 0.69602 0.49109 0.46715 0.0
H3990 H 0.70765 0.47291 0.46702 0.0
H3991 H 0.71391 0.49144 0.48502 0.0
C3992 C 0.72121 0.42539 0.48977 0.0
C3993 C 0.73717 0.43544 0.49931 0.0
C3994 C 0.70643 0.43315 0.48692 0.0
C3995 C 0.70758 0.45091 0.4937 0.0
C3996 C 0.72368 0.46098 0.50286 0.0
H3997 H 0.65385 0.51677 0.55025 0.0
H3998 H 0.6736 0.50397 0.53055 0.0
C3999 C 0.73844 0.45333 0.50552 0.0
C4000 C 0.69139 0.45803 0.49485 0.0
H4001 H 0.67475 0.49492 0.48942 0.0
C4002 C 0.67915 0.45016 0.50594 0.0
C4003 C 0.68957 0.47401 0.4882 0.0
C4004 C 0.70244 0.48276 0.47605 0.0
C4005 C 0.66574 0.45852 0.51178 0.0
C4006 C 0.66423 0.4748 0.50569 0.0
C4007 C 0.67589 0.48228 0.49376 0.0
C4008 C 0.65215 0.48512 0.51381 0.0
C4009 C 0.65426 0.45058 0.52564 0.0
C4010 C 0.63366 0.47902 0.51032 0.0
C4011 C 0.62245 0.48624 0.52155 0.0
C4012 C 0.62976 0.49948 0.53634 0.0
C4013 C 0.64813 0.50636 0.53901 0.0
C4014 C 0.6593 0.49925 0.52768 0.0
H4015 H 0.65919 0.43944 0.53122 0.0
H4016 H 0.65379 0.46065 0.53754 0.0
H4017 H 0.64043 0.44565 0.51878 0.0
H4018 H 0.62807 0.46801 0.49969 0.0
H4019 H 0.60824 0.48091 0.51933 0.0
H4020 H 0.21154 0.11534 0.47731 0.0
H4021 H 0.18284 0.09624 0.47928 0.0
H4022 H 0.17223 0.13395 0.52274 0.0
H4023 H 0.20045 0.15346 0.52006 0.0
H4024 H 0.17221 0.08038 0.50738 0.0
H4025 H 0.1258 0.12454 0.49044 0.0
H4026 H 0.14905 0.12948 0.48698 0.0
H4027 H 0.14226 0.13421 0.50972 0.0
C4028 C 0.20288 0.11966 0.48702 0.0
C4029 C 0.20802 0.13592 0.49837 0.0
C4030 C 0.18655 0.10874 0.48819 0.0
C4031 C 0.17524 0.11377 0.50095 0.0
C4032 C 0.18044 0.13002 0.51237 0.0
H4033 H 0.08359 0.05616 0.54329 0.0
H4034 H 0.11269 0.07411 0.5398 0.0
C4035 C 0.19659 0.14114 0.51089 0.0
C4036 C 0.15847 0.10161 0.50294 0.0
H4037 H 0.1136 0.09877 0.50339 0.0
C4038 C 0.15939 0.08439 0.50637 0.0
C4039 C 0.14172 0.10681 0.50154 0.0
C4040 C 0.1396 0.12471 0.49678 0.0
C4041 C 0.14404 0.07236 0.50872 0.0
C4042 C 0.1275 0.07776 0.50778 0.0
C4043 C 0.12646 0.09484 0.50425 0.0
C4044 C 0.11097 0.06577 0.51021 0.0
C4045 C 0.14546 0.05395 0.5122 0.0
C4046 C 0.10065 0.05515 0.49473 0.0
C4047 C 0.08401 0.04521 0.49665 0.0
C4048 C 0.07773 0.04564 0.51411 0.0
C4049 C 0.08837 0.05567 0.52974 0.0
C4050 C 0.10487 0.06586 0.52777 0.0
H4051 H 0.15945 0.05195 0.51317 0.0
H4052 H 0.13991 0.05109 0.52531 0.0
H4053 H 0.13738 0.04437 0.50072 0.0
H4054 H 0.10523 0.05501 0.4811 0.0
H4055 H 0.07584 0.03757 0.48446 0.0
H4056 H 0.18724 0.00306 0.77836 0.0
H4057 H 0.20195 0.9777 0.7775 0.0
H4058 H 0.15152 0.94348 0.78007 0.0
H4059 H 0.13668 0.96866 0.78075 0.0
H4060 H 0.20327 0.95319 0.80352 0.0
H4061 H 0.16994 0.92109 0.73378 0.0
H4062 H 0.17002 0.94376 0.74218 0.0
H4063 H 0.15503 0.92637 0.75015 0.0
C4064 C 0.17929 0.99013 0.77875 0.0
C4065 C 0.16079 0.98784 0.77956 0.0
C4066 C 0.18771 0.97569 0.77829 0.0
C4067 C 0.17777 0.95873 0.77852 0.0
C4068 C 0.15937 0.95644 0.7796 0.0
H4069 H 0.20726 0.85625 0.763 0.0
H4070 H 0.19232 0.87978 0.7748 0.0
C4071 C 0.15094 0.97085 0.78007 0.0
C4072 C 0.18665 0.94342 0.77756 0.0
H4073 H 0.18806 0.90528 0.7504 0.0
C4074 C 0.19994 0.94268 0.79194 0.0
C4075 C 0.18223 0.92976 0.76242 0.0
C4076 C 0.16864 0.93028 0.74616 0.0
C4077 C 0.20897 0.92857 0.79158 0.0
C4078 C 0.20464 0.915 0.77639 0.0
C4079 C 0.19117 0.91563 0.76216 0.0
C4080 C 0.21486 0.90077 0.77393 0.0
C4081 C 0.22305 0.92825 0.80741 0.0
C4082 C 0.23264 0.90479 0.7702 0.0
C4083 C 0.24111 0.89142 0.76348 0.0
C4084 C 0.23194 0.87387 0.76052 0.0
C4085 C 0.21464 0.86969 0.76557 0.0
C4086 C 0.20611 0.8831 0.77217 0.0
H4087 H 0.22161 0.937 0.82006 0.0
H4088 H 0.22242 0.91468 0.81095 0.0
H4089 H 0.23643 0.93287 0.80315 0.0
H4090 H 0.2395 0.91835 0.7711 0.0
H4091 H 0.25434 0.89488 0.75929 0.0
H4092 H 0.3377 0.97856 0.01314 0.0
H4093 H 0.36997 0.98522 0.02296 0.0
H4094 H 0.37565 0.93812 0.98882 0.0
H4095 H 0.3433 0.93123 0.97929 0.0
H4096 H 0.39319 0.95776 0.03834 0.0
H4097 H 0.40609 0.98686 0.97295 0.0
H4098 H 0.38471 0.98497 0.98171 0.0
H4099 H 0.39139 0.96572 0.97118 0.0
C4100 C 0.34598 0.96991 0.00753 0.0
C4101 C 0.33851 0.95472 0.99523 0.0
C4102 C 0.36415 0.97345 0.0134 0.0
C4103 C 0.37476 0.96193 0.00675 0.0
C4104 C 0.36736 0.94688 0.9942 0.0
H4105 H 0.48587 0.98076 0.00762 0.0
H4106 H 0.45748 0.96398 0.01404 0.0
C4107 C 0.34915 0.94319 0.98856 0.0
C4108 C 0.39391 0.96679 0.0114 0.0
H4109 H 0.43067 0.98805 0.99514 0.0
C4110 C 0.40155 0.96422 0.02893 0.0
C4111 C 0.40434 0.97527 -0.00106 0.0
C4112 C 0.39631 0.9785 0.98015 0.0
C4113 C 0.41978 0.97034 0.03447 0.0
C4114 C 0.43005 0.97903 0.02209 0.0
C4115 C 0.42244 0.98124 0.00445 0.0
C4116 C 0.44878 0.98678 0.02693 0.0
C4117 C 0.42801 0.96794 0.05342 0.0
C4118 C 0.45327 0.0049 0.03293 0.0
C4119 C 0.46922 0.01449 0.02891 0.0
C4120 C 0.48061 0.00578 0.01928 0.0
C4121 C 0.47707 0.98747 0.01519 0.0
C4122 C 0.4611 0.97791 0.0191 0.0
H4123 H 0.41829 0.96008 0.06112 0.0
H4124 H 0.43952 0.96131 0.05196 0.0
H4125 H 0.43322 0.98102 0.06173 0.0
H4126 H 0.4436 0.01183 0.03865 0.0
H4127 H 0.47209 0.02869 0.03214 0.0
H4128 H 0.83159 0.55003 0.81445 0.0
H4129 H 0.81892 0.57652 0.81077 0.0
H4130 H 0.86239 0.59638 0.78055 0.0
H4131 H 0.87518 0.57054 0.78455 0.0
H4132 H 0.84451 0.61847 0.8173 0.0
H4133 H 0.80735 0.58722 0.74855 0.0
H4134 H 0.8127 0.57445 0.76681 0.0
H4135 H 0.8298 0.58391 0.7537 0.0
C4136 C 0.83847 0.56031 0.8074 0.0
C4137 C 0.85436 0.5587 0.80004 0.0
C4138 C 0.83133 0.57525 0.80533 0.0
C4139 C 0.83995 0.58813 0.79554 0.0
C4140 C 0.85587 0.58653 0.78837 0.0
H4141 H 0.82494 0.67141 0.73803 0.0
H4142 H 0.8391 0.65283 0.75741 0.0
C4143 C 0.86313 0.57191 0.79073 0.0
C4144 C 0.83203 0.60294 0.7915 0.0
H4145 H 0.81047 0.61803 0.75568 0.0
C4146 C 0.83669 0.61843 0.80406 0.0
C4147 C 0.82232 0.60254 0.77399 0.0
C4148 C 0.81763 0.58613 0.75996 0.0
C4149 C 0.83213 0.634 0.79922 0.0
C4150 C 0.82277 0.63366 0.78155 0.0
C4151 C 0.81772 0.61801 0.76924 0.0
C4152 C 0.8179 0.64925 0.77503 0.0
C4153 C 0.83782 0.65077 0.81251 0.0
C4154 C 0.80173 0.65361 0.77917 0.0
C4155 C 0.79363 0.664 0.76809 0.0
C4156 C 0.80162 0.66983 0.75276 0.0
C4157 C 0.81851 0.66665 0.74962 0.0
C4158 C 0.82668 0.65639 0.7608 0.0
H4159 H 0.84581 0.64888 0.82543 0.0
H4160 H 0.84586 0.66097 0.80562 0.0
H4161 H 0.82583 0.65575 0.81633 0.0
H4162 H 0.79473 0.64781 0.78991 0.0
H4163 H 0.7806 0.66649 0.77071 0.0
H4164 H 0.8121 0.63086 0.04271 0.0
H4165 H 0.83874 0.61828 0.04025 0.0
H4166 H 0.83942 0.6295 0.98358 0.0
H4167 H 0.81272 0.6425 0.98607 0.0
H4168 H 0.83519 0.58821 0.00917 0.0
H4169 H 0.89363 0.64289 0.01044 0.0
H4170 H 0.8746 0.64638 0.02212 0.0
H4171 H 0.87259 0.64319 0.99719 0.0
C4172 C 0.81813 0.63099 0.02985 0.0
C4173 C 0.81027 0.63737 0.01449 0.0
C4174 C 0.83334 0.62386 0.02849 0.0
C4175 C 0.84087 0.6229 0.01171 0.0
C4176 C 0.83379 0.63027 0.99667 0.0
H4177 H 0.93389 0.57277 0.00688 0.0
H4178 H 0.90827 0.58456 0.99448 0.0
C4179 C 0.81859 0.63765 -0.0019 0.0
C4180 C 0.85455 0.61209 0.00961 0.0
H4181 H 0.8995 0.61462 0.01271 0.0
C4182 C 0.84925 0.5939 0.00956 0.0
C4183 C 0.87275 0.6196 0.0099 0.0
C4184 C 0.87889 0.63909 0.00992 0.0
C4185 C 0.86184 0.58309 0.01099 0.0
C4186 C 0.88017 0.59078 0.01273 0.0
C4187 C 0.8854 0.60879 0.0114 0.0
C4188 C 0.89409 0.58105 0.01851 0.0
C4189 C 0.85539 0.56369 0.01134 0.0
C4190 C 0.89437 0.57495 0.03594 0.0
C4191 C 0.90897 0.56843 0.04306 0.0
C4192 C 0.92348 0.56787 0.03283 0.0
C4193 C 0.92278 0.57305 0.01494 0.0
C4194 C 0.90822 0.57978 0.00789 0.0
H4195 H 0.84195 0.55904 0.00336 0.0
H4196 H 0.86474 0.55585 0.0055 0.0
H4197 H 0.85432 0.56123 0.02596 0.0
H4198 H 0.88372 0.57609 0.04448 0.0
H4199 H 0.90923 0.5644 0.05685 0.0
H4200 H 0.1768 0.08783 0.80676 0.0
H4201 H 0.19794 0.11589 0.80807 0.0
H4202 H 0.16863 0.1269 0.75858 0.0
H4203 H 0.14714 0.09954 0.75781 0.0
H4204 H 0.22019 0.12874 0.78453 0.0
H4205 H 0.17044 0.1713 0.7921 0.0
H4206 H 0.16545 0.14823 0.79463 0.0
H4207 H 0.16412 0.15525 0.77185 0.0
C4208 C 0.17487 0.09635 0.79627 0.0
C4209 C 0.16018 0.09171 0.78238 0.0
C4210 C 0.18693 0.11233 0.79701 0.0
C4211 C 0.1846 0.12375 0.78371 0.0
C4212 C 0.17034 0.11868 0.76941 0.0
H4213 H 0.24662 0.21405 0.74704 0.0
H4214 H 0.22876 0.18519 0.75036 0.0
C4215 C 0.15811 0.10298 0.76892 0.0
C4216 C 0.19711 0.14084 0.78445 0.0
H4217 H 0.19836 0.18464 0.78266 0.0
C4218 C 0.21543 0.14098 0.78435 0.0
C4219 C 0.19095 0.15689 0.78444 0.0
C4220 C 0.17169 0.15795 0.78597 0.0
C4221 C 0.22759 0.15661 0.78341 0.0
C4222 C 0.22124 0.17237 0.78245 0.0
C4223 C 0.20308 0.1724 0.78315 0.0
C4224 C 0.23321 0.189 0.78047 0.0
C4225 C 0.24714 0.1563 0.78315 0.0
C4226 C 0.24162 0.20049 0.79632 0.0
C4227 C 0.25155 0.21698 0.79443 0.0
C4228 C 0.25339 0.22199 0.77669 0.0
C4229 C 0.24554 0.21024 0.76083 0.0
C4230 C 0.23533 0.19388 0.76271 0.0
H4231 H 0.25001 0.14293 0.78383 0.0
H4232 H 0.25168 0.1611 0.77026 0.0
H4233 H 0.25501 0.16537 0.79515 0.0
H4234 H 0.24006 0.19689 0.81011 0.0
H4235 H 0.25749 0.22598 0.8068 0.0
H4236 H 0.37933 0.94781 0.30308 0.0
H4237 H 0.36068 0.91892 0.30452 0.0
H4238 H 0.31995 0.93052 0.2653 0.0
H4239 H 0.33837 0.95955 0.26414 0.0
H4240 H 0.31707 0.91075 0.30846 0.0
H4241 H 0.34534 0.88529 0.24541 0.0
H4242 H 0.35727 0.90384 0.26167 0.0
H4243 H 0.33888 0.90639 0.24578 0.0
C4244 C 0.36638 0.94404 0.29482 0.0
C4245 C 0.36015 0.9553 0.28319 0.0
C4246 C 0.35576 0.92787 0.29587 0.0
C4247 C 0.33917 0.92304 0.28506 0.0
C4248 C 0.33276 0.93445 0.2738 0.0
H4249 H 0.266 0.82488 0.2527 0.0
H4250 H 0.2803 0.85627 0.25669 0.0
C4251 C 0.34324 0.95072 0.27299 0.0
C4252 C 0.32943 0.90525 0.28368 0.0
H4253 H 0.32202 0.86614 0.25591 0.0
C4254 C 0.31805 0.90091 0.29705 0.0
C4255 C 0.33118 0.8928 0.26877 0.0
C4256 C 0.34389 0.89718 0.25459 0.0
C4257 C 0.30792 0.88397 0.29565 0.0
C4258 C 0.3094 0.87167 0.28049 0.0
C4259 C 0.32089 0.87601 0.26725 0.0
C4260 C 0.3002 0.85368 0.27885 0.0
C4261 C 0.2958 0.87921 0.31022 0.0
C4262 C 0.30718 0.84244 0.28986 0.0
C4263 C 0.29941 0.82482 0.28736 0.0
C4264 C 0.28468 0.81858 0.2739 0.0
C4265 C 0.27752 0.8298 0.263 0.0
C4266 C 0.28548 0.84748 0.26535 0.0
H4267 H 0.29436 0.89095 0.31964 0.0
H4268 H 0.28238 0.87226 0.30349 0.0
H4269 H 0.30136 0.87009 0.31876 0.0
H4270 H 0.31872 0.84727 0.30015 0.0
H4271 H 0.30474 0.8161 0.29603 0.0
H4272 H 0.55782 0.33311 0.55363 0.0
H4273 H 0.55492 0.36147 0.54305 0.0
H4274 H 0.53242 0.37599 0.59312 0.0
H4275 H 0.53578 0.34814 0.60392 0.0
H4276 H 0.52775 0.37712 0.53439 0.0
H4277 H 0.5691 0.41934 0.59475 0.0
H4278 H 0.56815 0.39595 0.59081 0.0
H4279 H 0.55101 0.40459 0.60192 0.0
C4280 C 0.55233 0.34238 0.56244 0.0
C4281 C 0.54719 0.3382 0.57977 0.0
C4282 C 0.55064 0.35868 0.55634 0.0
C4283 C 0.5438 0.37136 0.56737 0.0
C4284 C 0.5383 0.36696 0.58446 0.0
H4285 H 0.51333 0.47329 0.55349 0.0
H4286 H 0.51646 0.4444 0.5626 0.0
C4287 C 0.5401 0.3508 0.5906 0.0
C4288 C 0.54207 0.38896 0.56101 0.0
H4289 H 0.55121 0.43358 0.5751 0.0
C4290 C 0.53305 0.38943 0.5433 0.0
C4291 C 0.54896 0.40531 0.57239 0.0
C4292 C 0.56001 0.40632 0.59093 0.0
C4293 C 0.53036 0.40543 0.53701 0.0
C4294 C 0.53688 0.42166 0.54859 0.0
C4295 C 0.54601 0.42124 0.5662 0.0
C4296 C 0.53459 0.43917 0.54263 0.0
C4297 C 0.52017 0.40489 0.51812 0.0
C4298 C 0.54378 0.44618 0.52844 0.0
C4299 C 0.54234 0.46292 0.52354 0.0
C4300 C 0.53135 0.473 0.53239 0.0
C4301 C 0.52186 0.46586 0.54633 0.0
C4302 C 0.52366 0.44932 0.55156 0.0
H4303 H 0.51328 0.39132 0.5122 0.0
H4304 H 0.51011 0.41343 0.51896 0.0
H4305 H 0.52957 0.40997 0.50841 0.0
H4306 H 0.55238 0.43881 0.52133 0.0
H4307 H 0.54976 0.46797 0.51271 0.0
H4308 H 0.4373 0.73444 0.39538 0.0
H4309 H 0.40762 0.73274 0.3779 0.0
H4310 H 0.42103 0.78809 0.37336 0.0
H4311 H 0.45033 0.78981 0.3904 0.0
H4312 H 0.37844 0.75399 0.38264 0.0
H4313 H 0.41076 0.76319 0.31847 0.0
H4314 H 0.42178 0.75634 0.33866 0.0
H4315 H 0.42031 0.77903 0.33835 0.0
C4316 C 0.43372 0.74628 0.39098 0.0
C4317 C 0.44629 0.76222 0.39412 0.0
C4318 C 0.4168 0.7453 0.38091 0.0
C4319 C 0.4122 0.76023 0.37391 0.0
C4320 C 0.42432 0.77631 0.37821 0.0
H4321 H 0.33224 0.78923 0.297 0.0
H4322 H 0.35851 0.78698 0.3179 0.0
C4323 C 0.4411 0.77726 0.38805 0.0
C4324 C 0.39535 0.7592 0.36122 0.0
H4325 H 0.38039 0.76555 0.31713 0.0
C4326 C 0.3788 0.7563 0.36824 0.0
C4327 C 0.39579 0.76242 0.34247 0.0
C4328 C 0.41308 0.76529 0.33393 0.0
C4329 C 0.36282 0.75714 0.35727 0.0
C4330 C 0.36326 0.76048 0.33848 0.0
C4331 C 0.37985 0.76304 0.33144 0.0
C4332 C 0.34689 0.76185 0.32597 0.0
C4333 C 0.34578 0.75526 0.36627 0.0
C4334 C 0.33145 0.74849 0.32322 0.0
C4335 C 0.31623 0.75002 0.31162 0.0
C4336 C 0.31629 0.76462 0.3019 0.0
C4337 C 0.33184 0.77775 0.30419 0.0
C4338 C 0.34688 0.77646 0.31618 0.0
H4339 H 0.3485 0.75813 0.38169 0.0
H4340 H 0.3372 0.76419 0.36124 0.0
H4341 H 0.33827 0.74152 0.3628 0.0
H4342 H 0.33116 0.73676 0.32993 0.0
H4343 H 0.3045 0.73962 0.30998 0.0
H4344 H 0.01847 0.72283 0.07243 0.0
H4345 H 0.01384 0.6914 0.05992 0.0
H4346 H 0.06978 0.69234 0.0745 0.0
H4347 H 0.07422 0.72331 0.08751 0.0
H4348 H 0.02662 0.67019 0.03351 0.0
H4349 H 0.04818 0.65455 0.10336 0.0
H4350 H 0.04386 0.67592 0.09963 0.0
H4351 H 0.06497 0.67024 0.09542 0.0
C4352 C 0.02984 0.71643 0.07247 0.0
C4353 C 0.04677 0.72566 0.08084 0.0
C4354 C 0.02717 0.69837 0.06546 0.0
C4355 C 0.04135 0.68917 0.06667 0.0
C4356 C 0.05845 0.69881 0.07383 0.0
H4357 H 0.05846 0.58221 0.03899 0.0
H4358 H 0.06094 0.61403 0.04601 0.0
C4359 C 0.06105 0.71666 0.08104 0.0
C4360 C 0.03836 0.66948 0.06143 0.0
H4361 H 0.04572 0.63166 0.07815 0.0
C4362 C 0.03067 0.66179 0.04335 0.0
C4363 C 0.04342 0.65824 0.07421 0.0
C4364 C 0.05038 0.66511 0.09428 0.0
C4365 C 0.02853 0.64348 0.03762 0.0
C4366 C 0.03418 0.63245 0.05025 0.0
C4367 C 0.04157 0.64007 0.06836 0.0
C4368 C 0.03252 0.61297 0.04506 0.0
C4369 C 0.02066 0.63605 0.01794 0.0
C4370 C 0.01578 0.60154 0.0423 0.0
C4371 C 0.01439 0.58322 0.03836 0.0
C4372 C 0.02971 0.57576 0.03691 0.0
C4373 C 0.04641 0.5873 0.03966 0.0
C4374 C 0.04783 0.6056 0.04378 0.0
H4375 H 0.0192 0.64653 0.00908 0.0
H4376 H 0.02914 0.6275 0.01156 0.0
H4377 H 0.00728 0.62778 0.01811 0.0
H4378 H 0.00374 0.60677 0.04343 0.0
H4379 H 0.00122 0.5749 0.03625 0.0
H4380 H 0.03423 0.24545 0.87774 0.0
H4381 H 0.06006 0.24772 0.86028 0.0
H4382 H 0.09361 0.27689 0.90878 0.0
H4383 H 0.06786 0.27418 0.9265 0.0
H4384 H 0.08166 0.27563 0.85105 0.0
H4385 H 0.12241 0.24045 0.89485 0.0
H4386 H 0.09919 0.24027 0.89715 0.0
H4387 H 0.11607 0.25884 0.90768 0.0
C4388 C 0.04714 0.25224 0.88476 0.0
C4389 C 0.04898 0.25947 0.90361 0.0
C4390 C 0.06193 0.25355 0.87472 0.0
C4391 C 0.07897 0.26217 0.88322 0.0
C4392 C 0.08078 0.2697 0.90198 0.0
H4393 H 0.18241 0.29484 0.84699 0.0
H4394 H 0.15725 0.28567 0.86436 0.0
C4395 C 0.066 0.26823 0.9121 0.0
C4396 C 0.09464 0.2636 0.87227 0.0
H4397 H 0.13694 0.25538 0.87196 0.0
C4398 C 0.09368 0.27105 0.85556 0.0
C4399 C 0.1104 0.25763 0.87805 0.0
C4400 C 0.11207 0.24869 0.89531 0.0
C4401 C 0.1081 0.2732 0.84485 0.0
C4402 C 0.12395 0.2674 0.85073 0.0
C4403 C 0.12484 0.25977 0.86734 0.0
C4404 C 0.14013 0.27036 0.84056 0.0
C4405 C 0.10643 0.28229 0.82769 0.0
C4406 C 0.13942 0.26405 0.82153 0.0
C4407 C 0.15392 0.26924 0.81159 0.0
C4408 C 0.1695 0.28063 0.82054 0.0
C4409 C 0.17067 0.28584 0.83981 0.0
C4410 C 0.15622 0.28069 0.84972 0.0
H4411 H 0.09542 0.28976 0.82769 0.0
H4412 H 0.11902 0.29152 0.82654 0.0
H4413 H 0.1035 0.27229 0.81515 0.0
H4414 H 0.12736 0.25572 0.81418 0.0
H4415 H 0.15254 0.26525 0.7967 0.0
H4416 H 0.55577 0.73554 0.87537 0.0
H4417 H 0.55491 0.70943 0.89167 0.0
H4418 H 0.51461 0.72529 0.92336 0.0
H4419 H 0.51592 0.75174 0.90761 0.0
H4420 H 0.55762 0.71098 0.93728 0.0
H4421 H 0.49766 0.67048 0.89334 0.0
H4422 H 0.51237 0.68795 0.88485 0.0
H4423 H 0.49715 0.69318 0.90082 0.0
C4424 C 0.54676 0.73343 0.88584 0.0
C4425 C 0.53595 0.74567 0.8903 0.0
C4426 C 0.54632 0.71857 0.89516 0.0
C4427 C 0.53472 0.71544 0.90874 0.0
C4428 C 0.52373 0.72752 0.91301 0.0
H4429 H 0.5027 0.642 0.98349 0.0
H4430 H 0.51239 0.66826 0.96854 0.0
C4431 C 0.5245 0.74261 0.90403 0.0
C4432 C 0.53393 0.69956 0.91847 0.0
H4433 H 0.50804 0.6593 0.92034 0.0
C4434 C 0.5469 0.6996 0.93349 0.0
C4435 C 0.51999 0.6847 0.91343 0.0
C4436 C 0.506 0.68388 0.89717 0.0
C4437 C 0.5459 0.68535 0.94397 0.0
C4438 C 0.53162 0.67076 0.93927 0.0
C4439 C 0.51897 0.67053 0.92393 0.0
C4440 C 0.52879 0.65601 0.95067 0.0
C4441 C 0.5598 0.68605 0.96026 0.0
C4442 C 0.53528 0.64057 0.94602 0.0
C4443 C 0.52991 0.62559 0.95474 0.0
C4444 C 0.51777 0.62576 0.96802 0.0
C4445 C 0.51209 0.64153 0.97333 0.0
C4446 C 0.51759 0.65652 0.96479 0.0
H4447 H 0.57063 0.69787 0.96154 0.0
H4448 H 0.5534 0.68618 0.97331 0.0
H4449 H 0.56573 0.67409 0.95877 0.0
H4450 H 0.54382 0.63987 0.93507 0.0
H4451 H 0.53433 0.61356 0.95027 0.0
H4452 H 0.08112 0.77203 0.68182 0.0
H4453 H 0.11264 0.77492 0.69397 0.0
H4454 H 0.09704 0.74536 0.73832 0.0
H4455 H 0.06537 0.74294 0.72654 0.0
H4456 H 0.13106 0.78846 0.73518 0.0
H4457 H 0.13326 0.71975 0.70689 0.0
H4458 H 0.11704 0.73143 0.69727 0.0
H4459 H 0.11467 0.72333 0.71918 0.0
C4460 C 0.08437 0.76627 0.69427 0.0
C4461 C 0.07064 0.75728 0.7032 0.0
C4462 C 0.10244 0.76796 0.70123 0.0
C4463 C 0.10736 0.76031 0.71705 0.0
C4464 C 0.09368 0.75141 0.72611 0.0
H4465 H 0.21187 0.74769 0.76945 0.0
H4466 H 0.17999 0.74622 0.76069 0.0
C4467 C 0.07554 0.75009 0.7194 0.0
C4468 C 0.12675 0.76121 0.72365 0.0
H4469 H 0.15959 0.73674 0.72398 0.0
C4470 C 0.13727 0.77714 0.73274 0.0
C4471 C 0.13501 0.74651 0.72052 0.0
C4472 C 0.12455 0.72925 0.71035 0.0
C4473 C 0.15564 0.77867 0.73885 0.0
C4474 C 0.16395 0.76399 0.73553 0.0
C4475 C 0.15337 0.74803 0.72658 0.0
C4476 C 0.18361 0.765 0.74098 0.0
C4477 C 0.16598 0.79594 0.74912 0.0
C4478 C 0.19655 0.7759 0.73278 0.0
C4479 C 0.2149 0.77644 0.73746 0.0
C4480 C 0.22095 0.76618 0.75061 0.0
C4481 C 0.20794 0.7555 0.75901 0.0
C4482 C 0.18957 0.75473 0.75409 0.0
H4483 H 0.15701 0.80452 0.75441 0.0
H4484 H 0.17512 0.79374 0.76104 0.0
H4485 H 0.17421 0.803 0.73953 0.0
H4486 H 0.19245 0.78387 0.72253 0.0
H4487 H 0.22436 0.78499 0.73075 0.0
H4488 H 0.03089 0.33737 0.41241 0.0
H4489 H 0.02867 0.36341 0.4337 0.0
H4490 H 0.04824 0.39686 0.39381 0.0
H4491 H 0.05023 0.37109 0.37247 0.0
H4492 H 0.05368 0.39272 0.4504 0.0
H4493 H 0.00251 0.4134 0.40357 0.0
H4494 H 0.0082 0.39195 0.39979 0.0
H4495 H 0.02194 0.4107 0.39256 0.0
C4496 C 0.03477 0.35027 0.40818 0.0
C4497 C 0.04062 0.35202 0.39058 0.0
C4498 C 0.03348 0.36517 0.42039 0.0
C4499 C 0.03793 0.38217 0.41527 0.0
C4500 C 0.04427 0.38394 0.39797 0.0
H4501 H 0.04439 0.49037 0.46453 0.0
H4502 H 0.04623 0.46303 0.4453 0.0
C4503 C 0.04552 0.36911 0.38578 0.0
C4504 C 0.03602 0.39809 0.42789 0.0
H4505 H 0.01688 0.43449 0.42935 0.0
C4506 C 0.04551 0.40176 0.44585 0.0
C4507 C 0.02527 0.40992 0.42207 0.0
C4508 C 0.01375 0.40623 0.40353 0.0
C4509 C 0.04504 0.41717 0.4578 0.0
C4510 C 0.0347 0.42921 0.45174 0.0
C4511 C 0.02497 0.42539 0.43394 0.0
C4512 C 0.03376 0.44582 0.46366 0.0
C4513 C 0.056 0.42072 0.47666 0.0
C4514 C 0.02592 0.44532 0.4803 0.0
C4515 C 0.02465 0.46093 0.49122 0.0
C4516 C 0.03132 0.47748 0.48589 0.0
C4517 C 0.03912 0.47792 0.46915 0.0
C4518 C 0.04022 0.46228 0.45813 0.0
H4519 H 0.06604 0.41217 0.47775 0.0
H4520 H 0.063 0.43469 0.47961 0.0
H4521 H 0.04704 0.41816 0.48755 0.0
H4522 H 0.02047 0.43282 0.4847 0.0
H4523 H 0.01806 0.45995 0.50366 0.0
H4524 H 0.4537 0.26098 0.18435 0.0
H4525 H 0.42442 0.26543 0.19286 0.0
H4526 H 0.43293 0.24116 0.24242 0.0
H4527 H 0.46195 0.23656 0.23403 0.0
H4528 H 0.39375 0.23937 0.20048 0.0
H4529 H 0.42052 0.28909 0.262 0.0
H4530 H 0.43396 0.28366 0.24398 0.0
H4531 H 0.42936 0.26926 0.26128 0.0
C4532 C 0.44939 0.25663 0.19709 0.0
C4533 C 0.46042 0.24848 0.2085 0.0
C4534 C 0.43256 0.25914 0.20194 0.0
C4535 C 0.42641 0.25386 0.21846 0.0
C4536 C 0.43735 0.24563 0.22976 0.0
H4537 H 0.33418 0.26163 0.27945 0.0
H4538 H 0.36295 0.25777 0.26917 0.0
C4539 C 0.45401 0.24294 0.22486 0.0
C4540 C 0.40864 0.2568 0.22398 0.0
H4541 H 0.38939 0.27803 0.25802 0.0
C4542 C 0.3928 0.24792 0.21299 0.0
C4543 C 0.40723 0.26783 0.2404 0.0
C4544 C 0.42364 0.27815 0.25257 0.0
C4545 C 0.37576 0.24938 0.21818 0.0
C4546 C 0.37432 0.2605 0.23462 0.0
C4547 C 0.39023 0.26947 0.24548 0.0
C4548 C 0.35658 0.26292 0.2409 0.0
C4549 C 0.35951 0.23836 0.20628 0.0
C4550 C 0.34322 0.26746 0.22875 0.0
C4551 C 0.32659 0.26921 0.23452 0.0
C4552 C 0.32296 0.2671 0.25282 0.0
C4553 C 0.33651 0.26333 0.26526 0.0
C4554 C 0.35301 0.26112 0.25934 0.0
H4555 H 0.36283 0.22676 0.19806 0.0
H4556 H 0.34888 0.23362 0.21487 0.0
H4557 H 0.35418 0.24639 0.19626 0.0
H4558 H 0.34564 0.26973 0.21474 0.0
H4559 H 0.3166 0.27248 0.22468 0.0
H4560 H 0.57329 0.52426 0.32245 0.0
H4561 H 0.56493 0.5187 0.35332 0.0
H4562 H 0.6195 0.5381 0.37738 0.0
H4563 H 0.62804 0.54313 0.34638 0.0
H4564 H 0.58307 0.49728 0.38073 0.0
H4565 H 0.58416 0.56775 0.40509 0.0
H4566 H 0.58145 0.55906 0.38071 0.0
H4567 H 0.60297 0.56264 0.39406 0.0
C4568 C 0.58348 0.52728 0.33435 0.0
C4569 C 0.60128 0.53415 0.33214 0.0
C4570 C 0.57872 0.52405 0.3519 0.0
C4571 C 0.59159 0.52806 0.36758 0.0
C4572 C 0.6094 0.53491 0.36541 0.0
H4573 H 0.57755 0.51932 0.48521 0.0
H4574 H 0.59154 0.52103 0.45635 0.0
C4575 C 0.61425 0.53775 0.34776 0.0
C4576 C 0.58627 0.52543 0.38626 0.0
H4577 H 0.57754 0.54756 0.42645 0.0
C4578 C 0.58203 0.50826 0.39082 0.0
C4579 C 0.58474 0.53979 0.39925 0.0
C4580 C 0.58844 0.55839 0.39462 0.0
C4581 C 0.57622 0.5051 0.4081 0.0
C4582 C 0.5747 0.51946 0.42106 0.0
C4583 C 0.57909 0.53663 0.41658 0.0
C4584 C 0.5666 0.51684 0.43842 0.0
C4585 C 0.5713 0.48647 0.41235 0.0
C4586 C 0.54805 0.51388 0.43781 0.0
C4587 C 0.54008 0.5133 0.4542 0.0
C4588 C 0.55036 0.51525 0.47165 0.0
C4589 C 0.56906 0.51756 0.4721 0.0
C4590 C 0.57712 0.51857 0.45563 0.0
H4591 H 0.57522 0.47689 0.40184 0.0
H4592 H 0.5778 0.4853 0.42633 0.0
H4593 H 0.55665 0.48299 0.4126 0.0
H4594 H 0.53972 0.5127 0.42466 0.0
H4595 H 0.52591 0.51212 0.45302 0.0
H4596 H 0.26318 0.89301 0.04864 0.0
H4597 H 0.25797 0.87915 0.07668 0.0
H4598 H 0.31382 0.87672 0.08579 0.0
H4599 H 0.31912 0.89106 0.05775 0.0
H4600 H 0.26547 0.8452 0.07819 0.0
H4601 H 0.30052 0.89333 0.13829 0.0
H4602 H 0.29369 0.89979 0.11602 0.0
H4603 H 0.31341 0.89062 0.11919 0.0
C4604 C 0.27433 0.88967 0.05684 0.0
C4605 C 0.29144 0.89269 0.05123 0.0
C4606 C 0.27138 0.88195 0.07281 0.0
C4607 C 0.28553 0.87712 0.08322 0.0
C4608 C 0.30285 0.88072 0.07799 0.0
H4609 H 0.3083 0.80073 0.14142 0.0
H4610 H 0.29505 0.81558 0.11753 0.0
C4611 C 0.30584 0.88866 0.06202 0.0
C4612 C 0.28166 0.8661 0.09789 0.0
H4613 H 0.29335 0.86321 0.14344 0.0
C4614 C 0.27122 0.84921 0.09258 0.0
C4615 C 0.28897 0.87159 0.11657 0.0
C4616 C 0.29965 0.88989 0.12295 0.0
C4617 C 0.26902 0.83709 0.10532 0.0
C4618 C 0.27753 0.84211 0.12366 0.0
C4619 C 0.28678 0.85946 0.1293 0.0
C4620 C 0.28014 0.82909 0.13619 0.0
C4621 C 0.25839 0.8188 0.09885 0.0
C4622 C 0.27556 0.83134 0.15433 0.0
C4623 C 0.28332 0.82307 0.16805 0.0
C4624 C 0.29582 0.81258 0.16371 0.0
C4625 C 0.29891 0.80896 0.14513 0.0
C4626 C 0.29113 0.81721 0.13144 0.0
H4627 H 0.24827 0.81873 0.08684 0.0
H4628 H 0.26754 0.81014 0.09425 0.0
H4629 H 0.25157 0.81323 0.11027 0.0
H4630 H 0.26721 0.84062 0.1582 0.0
H4631 H 0.28073 0.82615 0.18228 0.0
H4632 H 0.9148 0.53807 0.84616 0.0
H4633 H 0.92732 0.54279 0.87895 0.0
H4634 H 0.92013 0.4866 0.87918 0.0
H4635 H 0.90843 0.4819 0.84605 0.0
H4636 H 0.92193 0.52923 0.91541 0.0
H4637 H 0.97452 0.50752 0.87612 0.0
H4638 H 0.95481 0.51313 0.86475 0.0
H4639 H 0.95368 0.4921 0.87298 0.0
C4640 C 0.91555 0.5268 0.85347 0.0
C4641 C 0.91153 0.50972 0.84393 0.0
C4642 C 0.92232 0.52948 0.87211 0.0
C4643 C 0.92475 0.51501 0.88107 0.0
C4644 C 0.91833 0.49781 0.87217 0.0
H4645 H 0.99597 0.49231 0.96444 0.0
H4646 H 0.97461 0.49377 0.9377 0.0
C4647 C 0.91203 0.49516 0.85337 0.0
C4648 C 0.93827 0.51784 0.89699 0.0
H4649 H 0.98046 0.51213 0.90883 0.0
C4650 C 0.93474 0.52551 0.91416 0.0
C4651 C 0.9551 0.51355 0.89472 0.0
C4652 C 0.95987 0.50628 0.87612 0.0
C4653 C 0.94741 0.52785 0.92977 0.0
C4654 C 0.96382 0.52253 0.92766 0.0
C4655 C 0.96767 0.5159 0.91022 0.0
C4656 C 0.97657 0.522 0.94353 0.0
C4657 C 0.94295 0.53533 0.94839 0.0
C4658 C 0.98478 0.53745 0.95509 0.0
C4659 C 0.99636 0.53648 0.97055 0.0
C4660 C 0.00012 0.52016 0.97403 0.0
C4661 C 0.99291 0.5049 0.96181 0.0
C4662 C 0.98081 0.50576 0.94674 0.0
H4663 H 0.92852 0.5356 0.94814 0.0
H4664 H 0.94681 0.52759 0.95949 0.0
H4665 H 0.95051 0.54904 0.9521 0.0
H4666 H 0.9821 0.55011 0.95226 0.0
H4667 H 0.00242 0.54842 0.97975 0.0
H4668 H 0.23603 0.17842 0.57128 0.0
H4669 H 0.23942 0.1949 0.60237 0.0
H4670 H 0.29367 0.21811 0.59594 0.0
H4671 H 0.28993 0.20217 0.56428 0.0
H4672 H 0.26139 0.19095 0.63103 0.0
H4673 H 0.27703 0.26068 0.61819 0.0
H4674 H 0.26852 0.24287 0.59967 0.0
H4675 H 0.29171 0.24739 0.60894 0.0
C4676 C 0.24854 0.18737 0.57636 0.0
C4677 C 0.26268 0.18915 0.5654 0.0
C4678 C 0.2505 0.19672 0.59415 0.0
C4679 C 0.26676 0.20785 0.60155 0.0
C4680 C 0.28085 0.20996 0.59043 0.0
H4681 H 0.29998 0.25482 0.71776 0.0
H4682 H 0.29992 0.24297 0.68502 0.0
C4683 C 0.27874 0.20083 0.57237 0.0
C4684 C 0.2691 0.21607 0.62133 0.0
H4685 H 0.27913 0.2554 0.64977 0.0
C4686 C 0.26525 0.20506 0.63507 0.0
C4687 C 0.27425 0.23448 0.62669 0.0
C4688 C 0.27797 0.24708 0.6126 0.0
C4689 C 0.26615 0.21192 0.65387 0.0
C4690 C 0.27106 0.23027 0.65914 0.0
C4691 C 0.27535 0.24131 0.6456 0.0
C4692 C 0.27121 0.23816 0.67865 0.0
C4693 C 0.26172 0.19955 0.66803 0.0
C4694 C 0.25511 0.23945 0.68581 0.0
C4695 C 0.25516 0.24635 0.7044 0.0
C4696 C 0.27125 0.25197 0.71616 0.0
C4697 C 0.28737 0.25064 0.70895 0.0
C4698 C 0.28736 0.24394 0.69028 0.0
H4699 H 0.2607 0.18558 0.6622 0.0
H4700 H 0.27203 0.20282 0.68035 0.0
H4701 H 0.24876 0.20108 0.6729 0.0
H4702 H 0.24249 0.2349 0.67708 0.0
H4703 H 0.24262 0.24665 0.70973 0.0
H4704 H 0.59873 0.55316 0.229 0.0
H4705 H 0.58452 0.55279 0.19712 0.0
H4706 H 0.59926 0.50306 0.18076 0.0
H4707 H 0.61386 0.50367 0.2125 0.0
H4708 H 0.60327 0.54921 0.16281 0.0
H4709 H 0.5436 0.4968 0.16338 0.0
H4710 H 0.55617 0.50922 0.18445 0.0
H4711 H 0.56471 0.49202 0.17201 0.0
C4712 C 0.59879 0.54214 0.21856 0.0
C4713 C 0.60727 0.52842 0.22303 0.0
C4714 C 0.59073 0.54194 0.20042 0.0
C4715 C 0.5907 0.52781 0.18666 0.0
C4716 C 0.59899 0.51398 0.19124 0.0
H4717 H 0.54732 0.49907 0.07006 0.0
H4718 H 0.56096 0.49981 0.10207 0.0
C4719 C 0.60735 0.51436 0.20928 0.0
C4720 C 0.58273 0.52785 0.16727 0.0
H4721 H 0.54864 0.50659 0.13436 0.0
C4722 C 0.59128 0.53996 0.15656 0.0
C4723 C 0.56716 0.51571 0.15921 0.0
C4724 C 0.55723 0.50275 0.17033 0.0
C4725 C 0.58493 0.54 0.1378 0.0
C4726 C 0.56928 0.52786 0.12965 0.0
C4727 C 0.56066 0.51583 0.1405 0.0
C4728 C 0.56149 0.52751 0.11002 0.0
C4729 C 0.59542 0.55272 0.1268 0.0
C4730 C 0.5572 0.54275 0.10374 0.0
C4731 C 0.54991 0.54243 0.08534 0.0
C4732 C 0.54597 0.52674 0.07294 0.0
C4733 C 0.55001 0.51138 0.07929 0.0
C4734 C 0.5578 0.51179 0.0976 0.0
H4735 H 0.60956 0.55693 0.13306 0.0
H4736 H 0.59515 0.54685 0.11214 0.0
H4737 H 0.58953 0.56469 0.12684 0.0
H4738 H 0.55935 0.55494 0.11309 0.0
H4739 H 0.54716 0.55445 0.08099 0.0
H4740 H 0.30462 0.8845 0.95244 0.0
H4741 H 0.30404 0.86332 0.92499 0.0
H4742 H 0.26257 0.88436 0.89618 0.0
H4743 H 0.26325 0.90588 0.92357 0.0
H4744 H 0.27209 0.83865 0.91014 0.0
H4745 H 0.30004 0.88096 0.85899 0.0
H4746 H 0.30363 0.88793 0.8838 0.0
H4747 H 0.28265 0.88826 0.87075 0.0
C4748 C 0.29551 0.88471 0.94017 0.0
C4749 C 0.28385 0.89661 0.94 0.0
C4750 C 0.29525 0.87271 0.9246 0.0
C4751 C 0.28334 0.87252 0.90879 0.0
C4752 C 0.27202 0.88467 0.90832 0.0
H4753 H 0.25021 0.80654 0.80652 0.0
H4754 H 0.25163 0.82579 0.8356 0.0
C4755 C 0.27238 0.89684 0.92388 0.0
C4756 C 0.28177 0.85865 0.89333 0.0
H4757 H 0.28704 0.85128 0.84755 0.0
C4758 C 0.27544 0.8413 0.89645 0.0
C4759 C 0.28624 0.86245 0.8757 0.0
C4760 C 0.29366 0.88089 0.87206 0.0
C4761 C 0.27311 0.82748 0.88202 0.0
C4762 C 0.2773 0.83136 0.86437 0.0
C4763 C 0.28381 0.84864 0.86129 0.0
C4764 C 0.27482 0.81776 0.84861 0.0
C4765 C 0.26591 0.80893 0.88549 0.0
C4766 C 0.28733 0.80692 0.84683 0.0
C4767 C 0.28664 0.796 0.83026 0.0
C4768 C 0.2735 0.79608 0.81551 0.0
C4769 C 0.26057 0.80645 0.81771 0.0
C4770 C 0.26125 0.81729 0.83424 0.0
H4771 H 0.26153 0.80845 0.89957 0.0
H4772 H 0.25445 0.80276 0.87488 0.0
H4773 H 0.27642 0.80099 0.88415 0.0
H4774 H 0.29801 0.8075 0.85789 0.0
H4775 H 0.29677 0.78811 0.82874 0.0
H4776 H 0.92749 0.51946 0.75632 0.0
H4777 H 0.94302 0.51565 0.72906 0.0
H4778 H 0.89309 0.50653 0.6934 0.0
H4779 H 0.87718 0.51026 0.7208 0.0
H4780 H 0.936 0.48643 0.69695 0.0
H4781 H 0.92727 0.55298 0.6814 0.0
H4782 H 0.92469 0.54593 0.70396 0.0
H4783 H 0.90781 0.53732 0.68474 0.0
C4784 C 0.91975 0.51658 0.74271 0.0
C4785 C 0.90121 0.51558 0.74053 0.0
C4786 C 0.92863 0.51425 0.72724 0.0
C4787 C 0.91909 0.51106 0.70948 0.0
C4788 C 0.9005 0.50917 0.70718 0.0
H4789 H 0.95865 0.4995 0.60538 0.0
H4790 H 0.94149 0.50974 0.62953 0.0
C4791 C 0.89154 0.51142 0.72273 0.0
C4792 C 0.92905 0.51145 0.6935 0.0
H4793 H 0.94501 0.53844 0.66266 0.0
C4794 C 0.9379 0.49767 0.68928 0.0
C4795 C 0.93147 0.52634 0.68396 0.0
C4796 C 0.92242 0.54159 0.68872 0.0
C4797 C 0.94934 0.49841 0.67555 0.0
C4798 C 0.95209 0.51348 0.66622 0.0
C4799 C 0.94297 0.52712 0.67018 0.0
C4800 C 0.9636 0.51432 0.65142 0.0
C4801 C 0.95837 0.48305 0.67106 0.0
C4802 C 0.98186 0.51472 0.65579 0.0
C4803 C 0.99148 0.50841 0.64221 0.0
C4804 C 0.98291 0.50222 0.62422 0.0
C4805 C 0.96531 0.50409 0.61934 0.0
C4806 C 0.95561 0.5101 0.63298 0.0
H4807 H 0.9523 0.47125 0.67717 0.0
H4808 H 0.95763 0.47949 0.65577 0.0
H4809 H 0.97267 0.48677 0.6768 0.0
H4810 H 0.9881 0.51809 0.67006 0.0
H4811 H 0.00519 0.50731 0.64597 0.0
H4812 H 0.28809 0.21396 0.46496 0.0
H4813 H 0.2917 0.22725 0.43609 0.0
H4814 H 0.25133 0.1851 0.40597 0.0
H4815 H 0.24791 0.17157 0.4346 0.0
H4816 H 0.29419 0.20193 0.39395 0.0
H4817 H 0.2415 0.2415 0.40362 0.0
H4818 H 0.2545 0.23591 0.42332 0.0
H4819 H 0.23813 0.2192 0.40902 0.0
C4820 C 0.27998 0.20759 0.45218 0.0
C4821 C 0.2677 0.1918 0.45196 0.0
C4822 C 0.28213 0.21511 0.43574 0.0
C4823 C 0.27181 0.20707 0.419 0.0
C4824 C 0.25948 0.19137 0.41877 0.0
H4825 H 0.24678 0.24505 0.31507 0.0
H4826 H 0.24722 0.23145 0.3437 0.0
C4827 C 0.25754 0.18371 0.43511 0.0
C4828 C 0.27343 0.21533 0.4018 0.0
H4829 H 0.25541 0.24322 0.37639 0.0
C4830 C 0.28579 0.211 0.39 0.0
C4831 C 0.26225 0.22689 0.39675 0.0
C4832 C 0.24831 0.23127 0.40877 0.0
C4833 C 0.28702 0.21771 0.37291 0.0
C4834 C 0.27601 0.22964 0.36788 0.0
C4835 C 0.26387 0.23412 0.38005 0.0
C4836 C 0.27609 0.23707 0.34983 0.0
C4837 C 0.29959 0.21128 0.36023 0.0
C4838 C 0.29209 0.24474 0.34344 0.0
C4839 C 0.29179 0.25137 0.32633 0.0
C4840 C 0.27548 0.25136 0.31587 0.0
C4841 C 0.25951 0.24466 0.32266 0.0
C4842 C 0.2598 0.23713 0.33918 0.0
H4843 H 0.30233 0.19831 0.36324 0.0
H4844 H 0.29413 0.21 0.34535 0.0
H4845 H 0.31254 0.22073 0.36256 0.0
H4846 H 0.30481 0.24575 0.35168 0.0
H4847 H 0.30427 0.2569 0.32149 0.0
H4848 H 0.31809 0.61673 0.57184 0.0
H4849 H 0.34881 0.61279 0.56846 0.0
H4850 H 0.32967 0.57892 0.51664 0.0
H4851 H 0.29917 0.58251 0.52025 0.0
H4852 H 0.35214 0.57466 0.56426 0.0
H4853 H 0.37783 0.61103 0.50774 0.0
H4854 H 0.36225 0.61851 0.52243 0.0
H4855 H 0.35459 0.6008 0.50379 0.0
C4856 C 0.32067 0.60845 0.55984 0.0
C4857 C 0.3067 0.59926 0.54662 0.0
C4858 C 0.33803 0.60653 0.55775 0.0
C4859 C 0.34123 0.59584 0.54221 0.0
C4860 C 0.32728 0.58748 0.52852 0.0
H4861 H 0.39399 0.52774 0.49174 0.0
H4862 H 0.37361 0.54066 0.51046 0.0
C4863 C 0.30998 0.58916 0.53077 0.0
C4864 C 0.35805 0.59003 0.54195 0.0
H4865 H 0.38941 0.5852 0.5131 0.0
C4866 C 0.36083 0.57737 0.55357 0.0
C4867 C 0.36875 0.59346 0.52763 0.0
C4868 C 0.36581 0.60679 0.51473 0.0
C4869 C 0.37331 0.56688 0.55019 0.0
C4870 C 0.38337 0.56973 0.53532 0.0
C4871 C 0.38153 0.58328 0.52458 0.0
C4872 C 0.3948 0.55794 0.52921 0.0
C4873 C 0.37478 0.55204 0.56148 0.0
C4874 C 0.41316 0.56306 0.53432 0.0
C4875 C 0.42471 0.55587 0.52365 0.0
C4876 C 0.41784 0.54368 0.50778 0.0
C4877 C 0.39942 0.53736 0.50378 0.0
C4878 C 0.38788 0.54448 0.51455 0.0
H4879 H 0.36659 0.55221 0.57325 0.0
H4880 H 0.37027 0.53929 0.55235 0.0
H4881 H 0.38894 0.55285 0.56701 0.0
H4882 H 0.41851 0.57368 0.54546 0.0
H4883 H 0.43893 0.56089 0.52692 0.0
H4884 H 0.84474 0.92225 0.56035 0.0
H4885 H 0.87604 0.93774 0.5624 0.0
H4886 H 0.87533 0.92367 0.50328 0.0
H4887 H 0.8441 0.90876 0.50115 0.0
H4888 H 0.9096 0.9286 0.54918 0.0
H4889 H 0.8825 0.97843 0.51232 0.0
H4890 H 0.86861 0.96217 0.5232 0.0
H4891 H 0.87572 0.95623 0.50095 0.0
C4892 C 0.85152 0.92211 0.54796 0.0
C4893 C 0.8422 0.91449 0.53058 0.0
C4894 C 0.8693 0.93093 0.54912 0.0
C4895 C 0.8778 0.93205 0.53292 0.0
C4896 C 0.86888 0.92313 0.51587 0.0
H4897 H 0.9693 0.99414 0.4962 0.0
H4898 H 0.94094 0.97506 0.49967 0.0
C4899 C 0.85112 0.9146 0.51467 0.0
C4900 C 0.8951 0.94414 0.5332 0.0
H4901 H 0.91385 0.98127 0.5161 0.0
C4902 C 0.91062 0.9402 0.54208 0.0
C4903 C 0.89625 0.95924 0.52395 0.0
C4904 C 0.87988 0.96441 0.51469 0.0
C4905 C 0.92747 0.95063 0.54125 0.0
C4906 C 0.92865 0.96563 0.53169 0.0
C4907 C 0.91299 0.96973 0.52328 0.0
C4908 C 0.94591 0.97709 0.52975 0.0
C4909 C 0.94381 0.94504 0.55 0.0
C4910 C 0.95798 0.98485 0.54548 0.0
C4911 C 0.97431 0.99533 0.54342 0.0
C4912 C 0.97849 0.99877 0.52568 0.0
C4913 C 0.96616 0.99175 0.51001 0.0
C4914 C 0.95007 0.98081 0.51201 0.0
H4915 H 0.94107 0.93086 0.5517 0.0
H4916 H 0.95507 0.94755 0.54153 0.0
H4917 H 0.94799 0.95262 0.56405 0.0
H4918 H 0.95482 0.98279 0.55934 0.0
H4919 H 0.98367 0.0008 0.55567 0.0
H4920 H 0.87196 0.04926 0.22893 0.0
H4921 H 0.85822 0.07529 0.22918 0.0
H4922 H 0.88898 0.09702 0.28211 0.0
H4923 H 0.90331 0.07153 0.28144 0.0
H4924 H 0.83774 0.08704 0.25238 0.0
H4925 H 0.89779 0.13898 0.25535 0.0
H4926 H 0.89828 0.11595 0.24995 0.0
H4927 H 0.9 0.12586 0.27381 0.0
C4928 C 0.87584 0.05968 0.24054 0.0
C4929 C 0.88874 0.05845 0.25513 0.0
C4930 C 0.86804 0.07455 0.24064 0.0
C4931 C 0.87287 0.08835 0.25544 0.0
C4932 C 0.88551 0.08691 0.27019 0.0
H4933 H 0.8356 0.17405 0.3077 0.0
H4934 H 0.85179 0.15176 0.29588 0.0
C4935 C 0.89356 0.07224 0.2699 0.0
C4936 C 0.86385 0.10367 0.25621 0.0
H4937 H 0.87169 0.14847 0.26575 0.0
C4938 C 0.84514 0.10049 0.25494 0.0
C4939 C 0.87349 0.12125 0.25938 0.0
C4940 C 0.89348 0.12571 0.25949 0.0
C4941 C 0.83589 0.11429 0.25801 0.0
C4942 C 0.84563 0.13178 0.26228 0.0
C4943 C 0.86426 0.13505 0.26261 0.0
C4944 C 0.83692 0.14656 0.26838 0.0
C4945 C 0.81587 0.10993 0.25766 0.0
C4946 C 0.82357 0.15146 0.25665 0.0
C4947 C 0.81428 0.16424 0.26342 0.0
C4948 C 0.81819 0.17222 0.28202 0.0
C4949 C 0.83212 0.16787 0.29341 0.0
C4950 C 0.84144 0.15523 0.28663 0.0
H4951 H 0.81082 0.09564 0.25769 0.0
H4952 H 0.81158 0.11726 0.26982 0.0
H4953 H 0.80953 0.11383 0.24483 0.0
H4954 H 0.82008 0.14515 0.24242 0.0
H4955 H 0.80363 0.1674 0.25434 0.0
H4956 H 0.70969 0.11652 0.05667 0.0
H4957 H 0.68016 0.10018 0.06088 0.0
H4958 H 0.67551 0.07269 0.00513 0.0
H4959 H 0.7052 0.08843 0.00125 0.0
H4960 H 0.65139 0.10393 0.03767 0.0
H4961 H 0.65616 0.0338 0.03431 0.0
H4962 H 0.67544 0.05144 0.04032 0.0
H4963 H 0.66693 0.04379 0.01629 0.0
C4964 C 0.70221 0.1069 0.04544 0.0
C4965 C 0.709 0.10375 0.02847 0.0
C4966 C 0.68571 0.09748 0.04798 0.0
C4967 C 0.67614 0.08512 0.03345 0.0
C4968 C 0.68316 0.08181 0.01664 0.0
H4969 H 0.57193 0.02993 0.99246 0.0
H4970 H 0.6022 0.04779 0.99445 0.0
C4971 C 0.69976 0.09097 0.01426 0.0
C4972 C 0.65759 0.07794 0.03419 0.0
H4973 H 0.62743 0.03978 0.02309 0.0
C4974 C 0.64604 0.0899 0.0349 0.0
C4975 C 0.65103 0.0597 0.03044 0.0
C4976 C 0.6631 0.04647 0.03049 0.0
C4977 C 0.62776 0.08397 0.03074 0.0
C4978 C 0.62132 0.06579 0.02602 0.0
C4979 C 0.63279 0.0538 0.02614 0.0
C4980 C 0.60254 0.0585 0.0233 0.0
C4981 C 0.61553 0.09707 0.03096 0.0
C4982 C 0.59333 0.05899 0.03889 0.0
C4983 C 0.57652 0.04885 0.03782 0.0
C4984 C 0.56908 0.03816 0.02122 0.0
C4985 C 0.57791 0.03808 0.00535 0.0
C4986 C 0.59484 0.04832 0.00641 0.0
H4987 H 0.62287 0.11059 0.03014 0.0
H4988 H 0.60463 0.09328 0.01923 0.0
H4989 H 0.60937 0.09731 0.04415 0.0
H4990 H 0.59946 0.06652 0.05208 0.0
H4991 H 0.5694 0.04915 0.04996 0.0
H4992 H 0.22564 0.50177 0.2537 0.0
H4993 H 0.23694 0.4743 0.25245 0.0
H4994 H 0.18296 0.44447 0.24467 0.0
H4995 H 0.17155 0.47163 0.24605 0.0
H4996 H 0.22359 0.45048 0.28012 0.0
H4997 H 0.21206 0.41914 0.20619 0.0
H4998 H 0.2153 0.44269 0.2126 0.0
H4999 H 0.19458 0.42884 0.2153 0.0
C5000 C 0.21626 0.48933 0.25159 0.0
C5001 C 0.19783 0.48868 0.2503 0.0
C5002 C 0.22267 0.47378 0.25062 0.0
C5003 C 0.21066 0.45763 0.24804 0.0
C5004 C 0.19228 0.45694 0.24622 0.0
H5005 H 0.21582 0.35786 0.28051 0.0
H5006 H 0.20629 0.38069 0.2635 0.0
C5007 C 0.18587 0.47242 0.24739 0.0
C5008 C 0.21718 0.4417 0.25074 0.0
H5009 H 0.22092 0.4018 0.22912 0.0
C5010 C 0.22326 0.4399 0.26899 0.0
C5011 C 0.21613 0.428 0.23608 0.0
C5012 C 0.20924 0.42968 0.21638 0.0
C5013 C 0.22835 0.42446 0.27312 0.0
C5014 C 0.22767 0.41081 0.25846 0.0
C5015 C 0.22154 0.41254 0.24014 0.0
C5016 C 0.2332 0.39468 0.26254 0.0
C5017 C 0.23423 0.42276 0.29316 0.0
C5018 C 0.25141 0.39497 0.26682 0.0
C5019 C 0.2568 0.38216 0.27656 0.0
C5020 C 0.24397 0.36912 0.28209 0.0
C5021 C 0.22579 0.36806 0.27651 0.0
C5022 C 0.2204 0.38082 0.26661 0.0
H5023 H 0.23116 0.43341 0.30303 0.0
H5024 H 0.22765 0.40991 0.29685 0.0
H5025 H 0.24886 0.42339 0.29504 0.0
H5026 H 0.26132 0.40586 0.26397 0.0
H5027 H 0.2709 0.38309 0.28079 0.0
H5028 H 0.23626 0.40216 0.0038 0.0
H5029 H 0.21148 0.41799 0.00112 0.0
H5030 H 0.20933 0.42035 0.06038 0.0
H5031 H 0.23444 0.40484 0.06306 0.0
H5032 H 0.17696 0.40917 0.01076 0.0
H5033 H 0.21404 0.47195 0.05166 0.0
H5034 H 0.22509 0.4548 0.04277 0.0
H5035 H 0.21374 0.45265 0.06309 0.0
C5036 C 0.23034 0.40599 0.01617 0.0
C5037 C 0.23702 0.40236 0.0336 0.0
C5038 C 0.21628 0.41502 0.01467 0.0
C5039 C 0.20877 0.42055 0.0306 0.0
C5040 C 0.21519 0.4165 0.04799 0.0
H5041 H 0.11137 0.464 0.02847 0.0
H5042 H 0.13642 0.4505 0.03926 0.0
C5043 C 0.22936 0.40756 0.0495 0.0
C5044 C 0.19422 0.43056 0.02883 0.0
H5045 H 0.18377 0.47077 0.04065 0.0
C5046 C 0.17839 0.42258 0.01741 0.0
C5047 C 0.19622 0.44811 0.03744 0.0
C5048 C 0.21322 0.4575 0.04932 0.0
C5049 C 0.16455 0.43175 0.01423 0.0
C5050 C 0.16659 0.44928 0.02274 0.0
C5051 C 0.18228 0.45725 0.03434 0.0
C5052 C 0.15291 0.45974 0.0185 0.0
C5053 C 0.14794 0.42286 0.00144 0.0
C5054 C 0.15422 0.46968 0.00361 0.0
C5055 C 0.13995 0.47718 0.99736 0.0
C5056 C 0.1243 0.475 0.00608 0.0
C5057 C 0.12342 0.46596 0.0217 0.0
C5058 C 0.13764 0.45826 0.02783 0.0
H5059 H 0.14855 0.40923 0.99565 0.0
H5060 H 0.1361 0.42243 0.00915 0.0
H5061 H 0.146 0.43057 0.98972 0.0
H5062 H 0.16591 0.47086 0.99625 0.0
H5063 H 0.14083 0.48407 0.98525 0.0
H5064 H 0.86622 0.96205 0.23783 0.0
H5065 H 0.84499 0.93425 0.23779 0.0
H5066 H 0.88594 0.91353 0.26769 0.0
H5067 H 0.9073 0.94104 0.26738 0.0
H5068 H 0.85614 0.89442 0.22604 0.0
H5069 H 0.83506 0.91244 0.29559 0.0
H5070 H 0.84242 0.92888 0.28086 0.0
H5071 H 0.85831 0.91822 0.29233 0.0
C5072 C 0.87065 0.95155 0.24439 0.0
C5073 C 0.88838 0.95363 0.25258 0.0
C5074 C 0.85856 0.93571 0.2443 0.0
C5075 C 0.86397 0.92193 0.25273 0.0
C5076 C 0.8816 0.92403 0.26104 0.0
H5077 H 0.81665 0.82506 0.28684 0.0
H5078 H 0.83324 0.85371 0.2826 0.0
C5079 C 0.89375 0.9397 0.26084 0.0
C5080 C 0.85121 0.9053 0.25305 0.0
H5081 H 0.82402 0.88354 0.28088 0.0
C5082 C 0.84894 0.892 0.23791 0.0
C5083 C 0.84207 0.90228 0.26865 0.0
C5084 C 0.84444 0.91616 0.28533 0.0
C5085 C 0.83811 0.87542 0.23821 0.0
C5086 C 0.82891 0.87232 0.25388 0.0
C5087 C 0.83093 0.8859 0.26881 0.0
C5088 C 0.81849 0.8547 0.25597 0.0
C5089 C 0.83739 0.86118 0.22216 0.0
C5090 C 0.80438 0.84566 0.24258 0.0
C5091 C 0.7953 0.82878 0.2447 0.0
C5092 C 0.80015 0.82082 0.2603 0.0
C5093 C 0.81349 0.83033 0.2741 0.0
C5094 C 0.8227 0.84694 0.27187 0.0
H5095 H 0.84863 0.86432 0.21375 0.0
H5096 H 0.83779 0.84831 0.22718 0.0
H5097 H 0.82477 0.85986 0.21285 0.0
H5098 H 0.80041 0.8516 0.23051 0.0
H5099 H 0.78475 0.82186 0.23406 0.0
H5100 H 0.71479 0.081 0.73885 0.0
H5101 H 0.73324 0.11075 0.74482 0.0
H5102 H 0.69114 0.12978 0.77118 0.0
H5103 H 0.6726 0.1003 0.76501 0.0
H5104 H 0.7152 0.1391 0.72958 0.0
H5105 H 0.74056 0.15112 0.80528 0.0
H5106 H 0.73524 0.12933 0.79222 0.0
H5107 H 0.71766 0.14015 0.79885 0.0
C5108 C 0.70973 0.09156 0.74619 0.0
C5109 C 0.69241 0.08884 0.75128 0.0
C5110 C 0.7202 0.1083 0.74965 0.0
C5111 C 0.71337 0.12198 0.75855 0.0
C5112 C 0.69645 0.11906 0.7645 0.0
H5113 H 0.73571 0.23332 0.77057 0.0
H5114 H 0.7214 0.20251 0.76824 0.0
C5115 C 0.68591 0.10245 0.76079 0.0
C5116 C 0.72256 0.13983 0.75908 0.0
H5117 H 0.74341 0.17583 0.78878 0.0
C5118 C 0.72166 0.14717 0.7424 0.0
C5119 C 0.73033 0.14997 0.77604 0.0
C5120 C 0.73114 0.14227 0.79415 0.0
C5121 C 0.72847 0.1649 0.74232 0.0
C5122 C 0.73641 0.17493 0.75926 0.0
C5123 C 0.73726 0.16765 0.77592 0.0
C5124 C 0.74462 0.19304 0.76 0.0
C5125 C 0.72696 0.17293 0.72442 0.0
C5126 C 0.76235 0.19724 0.75655 0.0
C5127 C 0.77075 0.21468 0.75845 0.0
C5128 C 0.76124 0.2278 0.76359 0.0
C5129 C 0.74344 0.22339 0.76714 0.0
C5130 C 0.73515 0.20595 0.76546 0.0
H5131 H 0.71905 0.16345 0.71274 0.0
H5132 H 0.72059 0.18457 0.72643 0.0
H5133 H 0.7405 0.17754 0.72053 0.0
H5134 H 0.76962 0.18705 0.75248 0.0
H5135 H 0.78445 0.21788 0.75547 0.0
loop_
_geom_bond_atom_site_label_1
_geom_bond_atom_site_label_2
_geom_bond_distance
_geom_bond_site_symmetry_2
_ccdc_geom_bond_type
C0 O1 1.306 . S
C0 O3 1.160 . S
O1 C0 1.306 . S
O1 Cd2 2.228 . S
Cd2 O1 2.228 . S
Cd2 O6 2.273 . S
Cd2 O10 2.277 . S
O3 C0 1.160 . S
O3 Cd4 2.203 . S
Cd4 O3 2.203 . S
Cd4 O6 2.411 . S
Cd4 O7 2.333 . S
Cd4 O8 2.352 . S
Cd4 O12 2.277 . S
Cd4 O13 2.356 . S
C5 O10 1.209 . S
C5 O12 1.226 . S
O6 Cd2 2.273 . S
O6 Cd4 2.411 . S
O6 C9 1.320 . S
O7 Cd4 2.333 . S
O7 C9 1.214 . S
O8 Cd4 2.352 . S
O8 C11 1.258 . S
C9 O6 1.320 . S
C9 O7 1.214 . S
O10 Cd2 2.277 . S
O10 C5 1.209 . S
C11 O8 1.258 . S
C11 O13 1.282 . S
O12 Cd4 2.277 . S
O12 C5 1.226 . S
O13 Cd4 2.356 . S
O13 C11 1.282 . S
C14 O15 1.306 . S
C14 O17 1.160 . S
O15 C14 1.306 . S
O15 Cd16 2.228 1_655 S
Cd16 O15 2.228 1_455 S
Cd16 O20 2.273 . S
Cd16 O24 2.277 . S
O17 C14 1.160 . S
O17 Cd18 2.203 1_655 S
Cd18 O17 2.203 1_455 S
Cd18 O20 2.411 . S
Cd18 O21 2.333 . S
Cd18 O22 2.352 . S
Cd18 O26 2.277 . S
Cd18 O27 2.356 . S
C19 O24 1.209 . S
C19 O26 1.226 . S
O20 Cd16 2.273 . S
O20 Cd18 2.411 . S
O20 C23 1.320 . S
O21 Cd18 2.333 . S
O21 C23 1.214 . S
O22 Cd18 2.352 . S
O22 C25 1.258 . S
C23 O20 1.320 . S
C23 O21 1.214 . S
O24 Cd16 2.277 . S
O24 C19 1.209 . S
C25 O22 1.258 . S
C25 O27 1.282 . S
O26 Cd18 2.277 . S
O26 C19 1.226 . S
O27 Cd18 2.356 . S
O27 C25 1.282 . S
C28 O29 1.306 . S
C28 O31 1.160 . S
O29 C28 1.306 . S
O29 Cd30 2.228 . S
Cd30 O29 2.228 . S
Cd30 O34 2.273 . S
Cd30 O38 2.277 . S
O31 C28 1.160 . S
O31 Cd32 2.203 . S
Cd32 O31 2.203 . S
Cd32 O34 2.411 . S
Cd32 O35 2.333 . S
Cd32 O36 2.352 . S
Cd32 O40 2.277 . S
Cd32 O41 2.356 . S
C33 O38 1.209 . S
C33 O40 1.226 . S
O34 Cd30 2.273 . S
O34 Cd32 2.411 . S
O34 C37 1.320 . S
O35 Cd32 2.333 . S
O35 C37 1.214 . S
O36 Cd32 2.352 . S
O36 C39 1.258 . S
C37 O34 1.320 . S
C37 O35 1.214 . S
O38 Cd30 2.277 . S
O38 C33 1.209 . S
C39 O36 1.258 . S
C39 O41 1.282 . S
O40 Cd32 2.277 . S
O40 C33 1.226 . S
O41 Cd32 2.356 . S
O41 C39 1.282 . S
C42 O43 1.306 . S
C42 O45 1.160 . S
O43 C42 1.306 . S
O43 Cd44 2.228 . S
Cd44 O43 2.228 . S
Cd44 O48 2.273 . S
Cd44 O52 2.277 . S
O45 C42 1.160 . S
O45 Cd46 2.203 . S
Cd46 O45 2.203 . S
Cd46 O48 2.411 . S
Cd46 O49 2.333 . S
Cd46 O50 2.352 . S
Cd46 O54 2.277 . S
Cd46 O55 2.356 . S
C47 O52 1.209 . S
C47 O54 1.226 . S
O48 Cd44 2.273 . S
O48 Cd46 2.411 . S
O48 C51 1.320 . S
O49 Cd46 2.333 . S
O49 C51 1.214 . S
O50 Cd46 2.352 . S
O50 C53 1.258 . S
C51 O48 1.320 . S
C51 O49 1.214 . S
O52 Cd44 2.277 . S
O52 C47 1.209 . S
C53 O50 1.258 . S
C53 O55 1.282 . S
O54 Cd46 2.277 . S
O54 C47 1.226 . S
O55 Cd46 2.356 . S
O55 C53 1.282 . S
C56 O57 1.306 . S
C56 O59 1.160 . S
O57 C56 1.306 . S
O57 Cd58 2.228 . S
Cd58 O57 2.228 . S
Cd58 O62 2.273 . S
Cd58 O66 2.277 . S
O59 C56 1.160 . S
O59 Cd60 2.203 . S
Cd60 O59 2.203 . S
Cd60 O62 2.411 . S
Cd60 O63 2.333 . S
Cd60 O64 2.352 . S
Cd60 O68 2.277 . S
Cd60 O69 2.356 . S
C61 O66 1.209 . S
C61 O68 1.226 . S
O62 Cd58 2.273 . S
O62 Cd60 2.411 . S
O62 C65 1.320 . S
O63 Cd60 2.333 . S
O63 C65 1.214 . S
O64 Cd60 2.352 . S
O64 C67 1.258 . S
C65 O62 1.320 . S
C65 O63 1.214 . S
O66 Cd58 2.277 . S
O66 C61 1.209 . S
C67 O64 1.258 . S
C67 O69 1.282 . S
O68 Cd60 2.277 . S
O68 C61 1.226 . S
O69 Cd60 2.356 . S
O69 C67 1.282 . S
C70 O71 1.306 . S
C70 O73 1.160 . S
O71 C70 1.306 . S
O71 Cd72 2.228 . S
Cd72 O71 2.228 . S
Cd72 O76 2.273 . S
Cd72 O80 2.277 . S
O73 C70 1.160 . S
O73 Cd74 2.203 . S
Cd74 O73 2.203 . S
Cd74 O76 2.411 . S
Cd74 O77 2.333 . S
Cd74 O78 2.352 . S
Cd74 O82 2.277 . S
Cd74 O83 2.356 . S
C75 O80 1.209 . S
C75 O82 1.226 . S
O76 Cd72 2.273 . S
O76 Cd74 2.411 . S
O76 C79 1.320 . S
O77 Cd74 2.333 . S
O77 C79 1.214 . S
O78 Cd74 2.352 . S
O78 C81 1.258 . S
C79 O76 1.320 . S
C79 O77 1.214 . S
O80 Cd72 2.277 . S
O80 C75 1.209 . S
C81 O78 1.258 . S
C81 O83 1.282 . S
O82 Cd74 2.277 . S
O82 C75 1.226 . S
O83 Cd74 2.356 . S
O83 C81 1.282 . S
C84 O85 1.306 . S
C84 O87 1.160 . S
O85 C84 1.306 . S
O85 Cd86 2.228 . S
Cd86 O85 2.228 . S
Cd86 O90 2.273 . S
Cd86 O94 2.277 . S
O87 C84 1.160 . S
O87 Cd88 2.203 . S
Cd88 O87 2.203 . S
Cd88 O90 2.411 . S
Cd88 O91 2.333 . S
Cd88 O92 2.352 . S
Cd88 O96 2.277 . S
Cd88 O97 2.356 . S
C89 O94 1.209 . S
C89 O96 1.226 . S
O90 Cd86 2.273 . S
O90 Cd88 2.411 . S
O90 C93 1.320 . S
O91 Cd88 2.333 . S
O91 C93 1.214 . S
O92 Cd88 2.352 . S
O92 C95 1.258 . S
C93 O90 1.320 . S
C93 O91 1.214 . S
O94 Cd86 2.277 . S
O94 C89 1.209 . S
C95 O92 1.258 . S
C95 O97 1.282 . S
O96 Cd88 2.277 . S
O96 C89 1.226 . S
O97 Cd88 2.356 . S
O97 C95 1.282 . S
C98 O99 1.306 . S
C98 O101 1.160 . S
O99 C98 1.306 . S
O99 Cd100 2.228 1_655 S
Cd100 O99 2.228 1_455 S
Cd100 O104 2.273 . S
Cd100 O108 2.277 . S
O101 C98 1.160 . S
O101 Cd102 2.203 1_655 S
Cd102 O101 2.203 1_455 S
Cd102 O104 2.411 . S
Cd102 O105 2.333 . S
Cd102 O106 2.352 1_455 S
Cd102 O110 2.277 . S
Cd102 O111 2.356 . S
C103 O108 1.209 . S
C103 O110 1.226 . S
O104 Cd100 2.273 . S
O104 Cd102 2.411 . S
O104 C107 1.320 . S
O105 Cd102 2.333 . S
O105 C107 1.214 . S
O106 Cd102 2.352 1_655 S
O106 C109 1.263 . S
C107 O104 1.320 . S
C107 O105 1.214 . S
O108 Cd100 2.277 . S
O108 C103 1.209 . S
C109 O106 1.263 . S
C109 O111 1.280 1_655 S
O110 Cd102 2.277 . S
O110 C103 1.226 . S
O111 Cd102 2.356 . S
O111 C109 1.280 1_455 S
C112 O113 1.306 . S
C112 O115 1.160 . S
O113 C112 1.306 . S
O113 Cd114 2.228 1_545 S
Cd114 O113 2.228 1_565 S
Cd114 O118 2.273 1_565 S
Cd114 O122 2.277 . S
O115 C112 1.160 . S
O115 Cd116 2.203 . S
Cd116 O115 2.203 . S
Cd116 O118 2.411 . S
Cd116 O119 2.333 . S
Cd116 O120 2.352 . S
Cd116 O124 2.277 1_545 S
Cd116 O125 2.356 . S
C117 O122 1.209 . S
C117 O124 1.226 . S
O118 Cd114 2.273 1_545 S
O118 Cd116 2.411 . S
O118 C121 1.320 . S
O119 Cd116 2.333 . S
O119 C121 1.214 . S
O120 Cd116 2.352 . S
O120 C123 1.258 . S
C121 O118 1.320 . S
C121 O119 1.214 . S
O122 Cd114 2.277 . S
O122 C117 1.209 . S
C123 O120 1.258 . S
C123 O125 1.282 . S
O124 Cd116 2.277 1_565 S
O124 C117 1.226 . S
O125 Cd116 2.356 . S
O125 C123 1.282 . S
C126 O127 1.306 . S
C126 O129 1.160 . S
O127 C126 1.306 . S
O127 Cd128 2.228 . S
Cd128 O127 2.228 . S
Cd128 O132 2.273 . S
Cd128 O136 2.277 . S
O129 C126 1.160 . S
O129 Cd130 2.203 . S
Cd130 O129 2.203 . S
Cd130 O132 2.411 . S
Cd130 O133 2.333 . S
Cd130 O134 2.352 . S
Cd130 O138 2.277 . S
Cd130 O139 2.356 . S
C131 O136 1.209 . S
C131 O138 1.226 . S
O132 Cd128 2.273 . S
O132 Cd130 2.411 . S
O132 C135 1.320 . S
O133 Cd130 2.333 . S
O133 C135 1.214 . S
O134 Cd130 2.352 . S
O134 C137 1.258 . S
C135 O132 1.320 . S
C135 O133 1.214 . S
O136 Cd128 2.277 . S
O136 C131 1.209 . S
C137 O134 1.258 . S
C137 O139 1.282 . S
O138 Cd130 2.277 . S
O138 C131 1.226 . S
O139 Cd130 2.356 . S
O139 C137 1.282 . S
C140 O141 1.306 . S
C140 O143 1.160 . S
O141 C140 1.306 . S
O141 Cd142 2.228 . S
Cd142 O141 2.228 . S
Cd142 O146 2.273 . S
Cd142 O150 2.277 . S
O143 C140 1.160 . S
O143 Cd144 2.203 . S
Cd144 O143 2.203 . S
Cd144 O146 2.411 . S
Cd144 O147 2.333 . S
Cd144 O148 2.312 1_545 S
Cd144 O152 2.277 . S
Cd144 O153 2.356 . S
C145 O150 1.209 . S
C145 O152 1.226 . S
O146 Cd142 2.273 . S
O146 Cd144 2.411 . S
O146 C149 1.320 . S
O147 Cd144 2.333 . S
O147 C149 1.214 . S
O148 Cd144 2.312 1_565 S
O148 C151 1.258 . S
C149 O146 1.320 . S
C149 O147 1.214 . S
O150 Cd142 2.277 . S
O150 C145 1.209 . S
C151 O148 1.258 . S
C151 O153 1.255 1_565 S
O152 Cd144 2.277 . S
O152 C145 1.226 . S
O153 Cd144 2.356 . S
O153 C151 1.255 1_545 S
C154 O155 1.299 1_554 S
C154 O157 1.166 . S
O155 C154 1.299 1_556 S
O155 Cd156 2.228 . S
Cd156 O155 2.228 . S
Cd156 O160 2.283 . S
Cd156 O164 2.277 . S
O157 C154 1.166 . S
O157 Cd158 2.203 . S
Cd158 O157 2.203 . S
Cd158 O160 2.409 1_554 S
Cd158 O161 2.331 . S
Cd158 O162 2.352 . S
Cd158 O166 2.277 1_554 S
Cd158 O167 2.356 . S
C159 O164 1.209 . S
C159 O166 1.226 . S
O160 Cd156 2.283 . S
O160 Cd158 2.409 1_556 S
O160 C163 1.321 . S
O161 Cd158 2.331 . S
O161 C163 1.202 1_554 S
O162 Cd158 2.352 . S
O162 C165 1.258 . S
C163 O160 1.321 . S
C163 O161 1.202 1_556 S
O164 Cd156 2.277 . S
O164 C159 1.209 . S
C165 O162 1.258 . S
C165 O167 1.282 . S
O166 Cd158 2.277 1_556 S
O166 C159 1.226 . S
O167 Cd158 2.356 . S
O167 C165 1.282 . S
C168 O169 1.306 . S
C168 O171 1.160 . S
O169 C168 1.306 . S
O169 Cd170 2.228 . S
Cd170 O169 2.228 . S
Cd170 O174 2.273 . S
Cd170 O178 2.277 . S
O171 C168 1.160 . S
O171 Cd172 2.203 . S
Cd172 O171 2.203 . S
Cd172 O174 2.411 . S
Cd172 O175 2.333 . S
Cd172 O176 2.352 . S
Cd172 O180 2.277 . S
Cd172 O181 2.356 . S
C173 O178 1.209 1_556 S
C173 O180 1.215 1_556 S
O174 Cd170 2.273 . S
O174 Cd172 2.411 . S
O174 C177 1.320 . S
O175 Cd172 2.333 . S
O175 C177 1.214 . S
O176 Cd172 2.352 . S
O176 C179 1.258 . S
C177 O174 1.320 . S
C177 O175 1.214 . S
O178 Cd170 2.277 . S
O178 C173 1.209 1_554 S
C179 O176 1.258 . S
C179 O181 1.282 . S
O180 Cd172 2.277 . S
O180 C173 1.215 1_554 S
O181 Cd172 2.356 . S
O181 C179 1.282 . S
C182 O183 1.306 . S
C182 O185 1.160 . S
O183 C182 1.306 . S
O183 Cd184 2.228 . S
Cd184 O183 2.228 . S
Cd184 O188 2.273 . S
Cd184 O192 2.277 . S
O185 C182 1.160 . S
O185 Cd186 2.203 . S
Cd186 O185 2.203 . S
Cd186 O188 2.411 . S
Cd186 O189 2.333 . S
Cd186 O190 2.352 . S
Cd186 O194 2.277 . S
Cd186 O195 2.356 . S
C187 O192 1.209 . S
C187 O194 1.226 . S
O188 Cd184 2.273 . S
O188 Cd186 2.411 . S
O188 C191 1.320 . S
O189 Cd186 2.333 . S
O189 C191 1.214 . S
O190 Cd186 2.352 . S
O190 C193 1.258 . S
C191 O188 1.320 . S
C191 O189 1.214 . S
O192 Cd184 2.277 . S
O192 C187 1.209 . S
C193 O190 1.258 . S
C193 O195 1.282 . S
O194 Cd186 2.277 . S
O194 C187 1.226 . S
O195 Cd186 2.356 . S
O195 C193 1.282 . S
C196 O197 1.306 . S
C196 O199 1.160 . S
O197 C196 1.306 . S
O197 Cd198 2.228 . S
Cd198 O197 2.228 . S
Cd198 O202 2.273 . S
Cd198 O206 2.277 . S
O199 C196 1.160 . S
O199 Cd200 2.203 . S
Cd200 O199 2.203 . S
Cd200 O202 2.411 . S
Cd200 O203 2.333 . S
Cd200 O204 2.352 . S
Cd200 O208 2.277 . S
Cd200 O209 2.356 . S
C201 O206 1.209 . S
C201 O208 1.226 . S
O202 Cd198 2.273 . S
O202 Cd200 2.411 . S
O202 C205 1.320 . S
O203 Cd200 2.333 . S
O203 C205 1.214 . S
O204 Cd200 2.352 . S
O204 C207 1.258 . S
C205 O202 1.320 . S
C205 O203 1.214 . S
O206 Cd198 2.277 . S
O206 C201 1.209 . S
C207 O204 1.258 . S
C207 O209 1.282 . S
O208 Cd200 2.277 . S
O208 C201 1.226 . S
O209 Cd200 2.356 . S
O209 C207 1.282 . S
C210 O211 1.306 . S
C210 O213 1.160 . S
O211 C210 1.306 . S
O211 Cd212 2.228 . S
Cd212 O211 2.228 . S
Cd212 O216 2.273 . S
Cd212 O220 2.277 . S
O213 C210 1.160 . S
O213 Cd214 2.203 . S
Cd214 O213 2.203 . S
Cd214 O216 2.411 . S
Cd214 O217 2.333 . S
Cd214 O218 2.352 . S
Cd214 O222 2.277 . S
Cd214 O223 2.356 . S
C215 O220 1.209 . S
C215 O222 1.226 . S
O216 Cd212 2.273 . S
O216 Cd214 2.411 . S
O216 C219 1.320 . S
O217 Cd214 2.333 . S
O217 C219 1.214 . S
O218 Cd214 2.352 . S
O218 C221 1.258 . S
C219 O216 1.320 . S
C219 O217 1.214 . S
O220 Cd212 2.277 . S
O220 C215 1.209 . S
C221 O218 1.258 . S
C221 O223 1.282 . S
O222 Cd214 2.277 . S
O222 C215 1.226 . S
O223 Cd214 2.356 . S
O223 C221 1.282 . S
C224 O225 1.306 . S
C224 O227 1.160 . S
O225 C224 1.306 . S
O225 Cd226 2.228 1_545 S
Cd226 O225 2.228 1_565 S
Cd226 O230 2.273 1_565 S
Cd226 O234 2.277 . S
O227 C224 1.160 . S
O227 Cd228 2.203 . S
Cd228 O227 2.203 . S
Cd228 O230 2.411 . S
Cd228 O231 2.333 . S
Cd228 O232 2.352 . S
Cd228 O236 2.277 1_545 S
Cd228 O237 2.356 . S
C229 O234 1.209 . S
C229 O236 1.226 . S
O230 Cd226 2.273 1_545 S
O230 Cd228 2.411 . S
O230 C233 1.320 . S
O231 Cd228 2.333 . S
O231 C233 1.214 . S
O232 Cd228 2.352 . S
O232 C235 1.258 . S
C233 O230 1.320 . S
C233 O231 1.214 . S
O234 Cd226 2.277 . S
O234 C229 1.209 . S
C235 O232 1.258 . S
C235 O237 1.282 . S
O236 Cd228 2.277 1_565 S
O236 C229 1.226 . S
O237 Cd228 2.356 . S
O237 C235 1.282 . S
C238 O239 1.306 . S
C238 O241 1.160 . S
O239 C238 1.306 . S
O239 Cd240 2.228 . S
Cd240 O239 2.228 . S
Cd240 O244 2.273 . S
Cd240 O248 2.277 . S
O241 C238 1.160 . S
O241 Cd242 2.203 . S
Cd242 O241 2.203 . S
Cd242 O244 2.411 . S
Cd242 O245 2.333 . S
Cd242 O246 2.352 . S
Cd242 O250 2.277 . S
Cd242 O251 2.356 . S
C243 O248 1.209 . S
C243 O250 1.226 . S
O244 Cd240 2.273 . S
O244 Cd242 2.411 . S
O244 C247 1.320 . S
O245 Cd242 2.333 . S
O245 C247 1.214 . S
O246 Cd242 2.352 . S
O246 C249 1.258 . S
C247 O244 1.320 . S
C247 O245 1.214 . S
O248 Cd240 2.277 . S
O248 C243 1.209 . S
C249 O246 1.258 . S
C249 O251 1.282 . S
O250 Cd242 2.277 . S
O250 C243 1.226 . S
O251 Cd242 2.356 . S
O251 C249 1.282 . S
C252 O253 1.306 . S
C252 O255 1.160 . S
O253 C252 1.306 . S
O253 Cd254 2.228 . S
Cd254 O253 2.228 . S
Cd254 O258 2.273 . S
Cd254 O262 2.277 . S
O255 C252 1.160 . S
O255 Cd256 2.203 . S
Cd256 O255 2.203 . S
Cd256 O258 2.411 . S
Cd256 O259 2.333 . S
Cd256 O260 2.352 . S
Cd256 O264 2.277 . S
Cd256 O265 2.356 . S
C257 O262 1.209 . S
C257 O264 1.226 . S
O258 Cd254 2.273 . S
O258 Cd256 2.411 . S
O258 C261 1.320 . S
O259 Cd256 2.333 . S
O259 C261 1.214 . S
O260 Cd256 2.352 . S
O260 C263 1.258 . S
C261 O258 1.320 . S
C261 O259 1.214 . S
O262 Cd254 2.277 . S
O262 C257 1.209 . S
C263 O260 1.258 . S
C263 O265 1.282 . S
O264 Cd256 2.277 . S
O264 C257 1.226 . S
O265 Cd256 2.356 . S
O265 C263 1.282 . S
C266 O267 1.306 . S
C266 O269 1.160 . S
O267 C266 1.306 . S
O267 Cd268 2.228 . S
Cd268 O267 2.228 . S
Cd268 O272 2.273 . S
Cd268 O276 2.277 . S
O269 C266 1.160 . S
O269 Cd270 2.203 . S
Cd270 O269 2.203 . S
Cd270 O272 2.411 . S
Cd270 O273 2.333 . S
Cd270 O274 2.352 . S
Cd270 O278 2.277 . S
Cd270 O279 2.356 . S
C271 O276 1.209 . S
C271 O278 1.226 . S
O272 Cd268 2.273 . S
O272 Cd270 2.411 . S
O272 C275 1.320 . S
O273 Cd270 2.333 . S
O273 C275 1.214 . S
O274 Cd270 2.352 . S
O274 C277 1.258 . S
C275 O272 1.320 . S
C275 O273 1.214 . S
O276 Cd268 2.277 . S
O276 C271 1.209 . S
C277 O274 1.258 . S
C277 O279 1.282 . S
O278 Cd270 2.277 . S
O278 C271 1.226 . S
O279 Cd270 2.356 . S
O279 C277 1.282 . S
C280 O281 1.306 . S
C280 O283 1.160 . S
O281 C280 1.306 . S
O281 Cd282 2.228 . S
Cd282 O281 2.228 . S
Cd282 O286 2.273 . S
Cd282 O290 2.277 . S
O283 C280 1.160 . S
O283 Cd284 2.203 . S
Cd284 O283 2.203 . S
Cd284 O286 2.411 . S
Cd284 O287 2.333 . S
Cd284 O288 2.352 1_554 S
Cd284 O292 2.277 . S
Cd284 O293 2.356 1_554 S
C285 O290 1.209 . S
C285 O292 1.226 . S
O286 Cd282 2.273 . S
O286 Cd284 2.411 . S
O286 C289 1.320 . S
O287 Cd284 2.333 . S
O287 C289 1.214 . S
O288 Cd284 2.352 1_556 S
O288 C291 1.258 . S
C289 O286 1.320 . S
C289 O287 1.214 . S
O290 Cd282 2.277 . S
O290 C285 1.209 . S
C291 O288 1.258 . S
C291 O293 1.282 . S
O292 Cd284 2.277 . S
O292 C285 1.226 . S
O293 Cd284 2.356 1_556 S
O293 C291 1.282 . S
C294 O295 1.306 . S
C294 O297 1.160 . S
O295 C294 1.306 . S
O295 Cd296 2.228 . S
Cd296 O295 2.228 . S
Cd296 O300 2.273 . S
Cd296 O304 2.277 . S
O297 C294 1.160 . S
O297 Cd298 2.203 . S
Cd298 O297 2.203 . S
Cd298 O300 2.411 . S
Cd298 O301 2.333 . S
Cd298 O302 2.352 . S
Cd298 O306 2.277 . S
Cd298 O307 2.356 . S
C299 O304 1.209 . S
C299 O306 1.226 . S
O300 Cd296 2.273 . S
O300 Cd298 2.411 . S
O300 C303 1.320 . S
O301 Cd298 2.333 . S
O301 C303 1.214 . S
O302 Cd298 2.352 . S
O302 C305 1.258 . S
C303 O300 1.320 . S
C303 O301 1.214 . S
O304 Cd296 2.277 . S
O304 C299 1.209 . S
C305 O302 1.258 . S
C305 O307 1.282 . S
O306 Cd298 2.277 . S
O306 C299 1.226 . S
O307 Cd298 2.356 . S
O307 C305 1.282 . S
C308 O309 1.306 . S
C308 O311 1.160 . S
O309 C308 1.306 . S
O309 Cd310 2.228 . S
Cd310 O309 2.228 . S
Cd310 O314 2.273 . S
Cd310 O318 2.277 . S
O311 C308 1.160 . S
O311 Cd312 2.203 . S
Cd312 O311 2.203 . S
Cd312 O314 2.411 . S
Cd312 O315 2.333 . S
Cd312 O316 2.352 . S
Cd312 O320 2.277 . S
Cd312 O321 2.356 . S
C313 O318 1.209 . S
C313 O320 1.226 . S
O314 Cd310 2.273 . S
O314 Cd312 2.411 . S
O314 C317 1.320 . S
O315 Cd312 2.333 . S
O315 C317 1.214 . S
O316 Cd312 2.352 . S
O316 C319 1.258 . S
C317 O314 1.320 . S
C317 O315 1.214 . S
O318 Cd310 2.277 . S
O318 C313 1.209 . S
C319 O316 1.258 . S
C319 O321 1.282 . S
O320 Cd312 2.277 . S
O320 C313 1.226 . S
O321 Cd312 2.356 . S
O321 C319 1.282 . S
C322 O323 1.306 . S
C322 O325 1.160 . S
O323 C322 1.306 . S
O323 Cd324 2.228 . S
Cd324 O323 2.228 . S
Cd324 O328 2.273 . S
Cd324 O332 2.277 . S
O325 C322 1.160 . S
O325 Cd326 2.203 . S
Cd326 O325 2.203 . S
Cd326 O328 2.411 . S
Cd326 O329 2.333 . S
Cd326 O330 2.352 . S
Cd326 O334 2.277 . S
Cd326 O335 2.356 . S
C327 O332 1.209 . S
C327 O334 1.226 . S
O328 Cd324 2.273 . S
O328 Cd326 2.411 . S
O328 C331 1.320 . S
O329 Cd326 2.333 . S
O329 C331 1.214 . S
O330 Cd326 2.352 . S
O330 C333 1.258 . S
C331 O328 1.320 . S
C331 O329 1.214 . S
O332 Cd324 2.277 . S
O332 C327 1.209 . S
C333 O330 1.258 . S
C333 O335 1.282 . S
O334 Cd326 2.277 . S
O334 C327 1.226 . S
O335 Cd326 2.356 . S
O335 C333 1.282 . S
Eu336 N365 2.600 . S
Eu336 N371 2.562 . S
Eu336 O380 2.462 . S
Eu336 O381 2.373 . S
Eu336 O383 2.432 . S
Eu336 O384 2.291 . S
Eu336 O388 2.335 . S
Eu336 O391 2.372 . S
Eu336 C400 2.787 . S
C337 N338 1.365 . S
C337 C340 1.405 . S
C337 C344 1.448 1_556 S
N338 C337 1.365 . S
N338 C341 1.319 . S
N338 Eu347 2.600 1_566 S
C339 C341 1.397 . S
C339 C342 1.367 . S
C339 H359 0.931 . S
C340 C337 1.405 . S
C340 C342 1.403 . S
C340 C346 1.439 . S
C341 N338 1.319 . S
C341 C339 1.397 . S
C341 H352 0.981 . S
C342 C339 1.367 . S
C342 C340 1.403 . S
C342 H363 0.929 . S
C343 C344 1.430 . S
C343 C345 1.387 1_554 S
C343 C349 1.404 . S
C344 C337 1.448 1_554 S
C344 C343 1.430 . S
C344 N348 1.351 . S
C345 C343 1.387 1_556 S
C345 C346 1.374 . S
C345 H360 0.931 1_556 S
C346 C340 1.439 . S
C346 C345 1.374 . S
C346 H361 0.931 . S
Eu347 N338 2.600 1_544 S
Eu347 N348 2.563 1_545 S
Eu347 O382 2.335 1_655 S
Eu347 O385 2.370 1_654 S
Eu347 O386 2.464 . S
Eu347 O387 2.371 1_645 S
Eu347 O389 2.434 1_554 S
Eu347 O390 2.291 1_655 S
Eu347 C411 2.789 . S
N348 C344 1.351 . S
N348 Eu347 2.563 1_565 S
N348 C350 1.325 . S
C349 C343 1.404 . S
C349 C351 1.366 . S
C349 H357 0.930 . S
C350 N348 1.325 . S
C350 C351 1.416 . S
C350 H356 0.929 . S
C351 C349 1.366 . S
C351 C350 1.416 . S
C351 H353 0.930 . S
H352 C341 0.981 . S
H353 C351 0.930 . S
H354 C369 0.930 . S
H355 C376 0.930 1_556 S
H356 C350 0.929 . S
H357 C349 0.930 . S
H358 C372 0.929 . S
H359 C339 0.931 . S
H360 C345 0.931 1_554 S
H361 C346 0.931 . S
H362 C367 0.931 . S
H363 C342 0.929 . S
H364 C375 0.930 . S
N365 Eu336 2.600 . S
N365 C366 1.365 . S
N365 C369 1.319 . S
C366 N365 1.365 . S
C366 C368 1.405 . S
C366 C374 1.448 . S
C367 H362 0.931 . S
C367 C369 1.397 . S
C367 C370 1.367 . S
C368 C366 1.405 . S
C368 C370 1.403 . S
C368 C401 1.439 . S
C369 H354 0.930 . S
C369 N365 1.319 . S
C369 C367 1.397 . S
C370 C367 1.367 . S
C370 C368 1.403 . S
C370 H377 0.929 . S
N371 Eu336 2.562 . S
N371 C372 1.325 . S
N371 C374 1.351 . S
C372 H358 0.929 . S
C372 N371 1.325 . S
C372 C376 1.416 . S
C373 C374 1.430 . S
C373 C375 1.404 . S
C373 C402 1.387 . S
C374 C366 1.448 . S
C374 N371 1.351 . S
C374 C373 1.430 . S
C375 H364 0.930 . S
C375 C373 1.404 . S
C375 C376 1.366 . S
C376 H355 0.930 1_554 S
C376 C372 1.416 . S
C376 C375 1.366 . S
H377 C370 0.929 . S
H378 C401 0.931 . S
H379 C402 0.931 . S
O380 Eu336 2.462 . S
O380 C400 1.252 . S
O381 Eu336 2.373 . S
O381 C392 1.249 . S
O382 Eu347 2.335 1_455 S
O382 C392 1.264 . S
O383 Eu336 2.432 . S
O383 C400 1.268 . S
O384 Eu336 2.291 . S
O384 C399 1.255 1_554 S
O385 Eu347 2.370 1_456 S
O385 C399 1.257 . S
O386 Eu347 2.464 . S
O386 C411 1.252 . S
O387 Eu347 2.371 1_465 S
O387 C403 1.249 . S
O388 Eu336 2.335 . S
O388 C403 1.264 1_545 S
O389 Eu347 2.434 1_556 S
O389 C411 1.268 1_556 S
O390 Eu347 2.291 1_455 S
O390 C410 1.255 . S
O391 Eu336 2.372 . S
O391 C410 1.257 . S
C392 O381 1.249 . S
C392 O382 1.264 . S
C393 C396 1.382 . S
C393 C398 1.390 . S
C393 C400 1.506 . S
C394 C395 1.406 . S
C394 C398 1.400 . S
C395 C394 1.406 . S
C395 C397 1.392 . S
C395 H412 0.904 1_545 S
C396 C393 1.382 . S
C396 C397 1.390 . S
C396 H413 0.931 . S
C397 C395 1.392 . S
C397 C396 1.390 . S
C397 H414 0.929 . S
C398 C393 1.390 . S
C398 C394 1.400 . S
C398 H415 0.930 . S
C399 O384 1.255 1_556 S
C399 O385 1.257 . S
C400 Eu336 2.787 . S
C400 O380 1.252 . S
C400 O383 1.268 . S
C400 C393 1.506 . S
C401 C368 1.439 . S
C401 H378 0.931 . S
C401 C402 1.374 . S
C402 C373 1.387 . S
C402 H379 0.931 . S
C402 C401 1.374 . S
C403 O387 1.249 . S
C403 O388 1.264 1_565 S
C404 C407 1.382 1_554 S
C404 C408 1.390 . S
C404 C411 1.506 . S
C405 C406 1.398 1_554 S
C405 C408 1.392 . S
C406 C405 1.398 1_556 S
C406 C409 1.372 . S
C406 H416 0.931 . S
C407 C404 1.382 1_556 S
C407 C409 1.390 . S
C407 H417 0.931 . S
C408 C404 1.390 . S
C408 C405 1.392 . S
C408 H418 0.930 . S
C409 C406 1.372 . S
C409 C407 1.390 . S
C409 H419 0.929 . S
C410 O390 1.255 . S
C410 O391 1.257 . S
C411 Eu347 2.789 . S
C411 O386 1.252 . S
C411 O389 1.268 1_554 S
C411 C404 1.506 . S
H412 C395 0.904 1_565 S
H413 C396 0.931 . S
H414 C397 0.929 . S
H415 C398 0.930 . S
H416 C406 0.931 . S
H417 C407 0.931 . S
H418 C408 0.930 . S
H419 C409 0.929 . S
Eu420 N449 2.600 . S
Eu420 N455 2.562 . S
Eu420 O464 2.462 . S
Eu420 O465 2.373 . S
Eu420 O467 2.432 . S
Eu420 O468 2.291 . S
Eu420 O472 2.335 . S
Eu420 O475 2.372 . S
Eu420 C484 2.787 . S
C421 N422 1.365 . S
C421 C424 1.405 . S
C421 C428 1.448 . S
N422 C421 1.365 . S
N422 C425 1.319 . S
N422 Eu431 2.600 . S
C423 C425 1.397 . S
C423 C426 1.367 . S
C423 H443 0.931 . S
C424 C421 1.405 . S
C424 C426 1.403 . S
C424 C430 1.439 . S
C425 N422 1.319 . S
C425 C423 1.397 . S
C425 H436 0.930 . S
C426 C423 1.367 . S
C426 C424 1.403 . S
C426 H447 0.929 . S
C427 C428 1.430 . S
C427 C429 1.387 . S
C427 C433 1.404 . S
C428 C421 1.448 . S
C428 C427 1.430 . S
C428 N432 1.351 . S
C429 C427 1.387 . S
C429 C430 1.374 . S
C429 H444 0.931 . S
C430 C424 1.439 . S
C430 C429 1.374 . S
C430 H445 0.931 . S
Eu431 N422 2.600 . S
Eu431 N432 2.562 . S
Eu431 O466 2.335 . S
Eu431 O469 2.372 . S
Eu431 O470 2.462 . S
Eu431 O471 2.373 . S
Eu431 O473 2.432 . S
Eu431 O474 2.291 . S
Eu431 C495 2.787 . S
N432 C428 1.351 . S
N432 Eu431 2.562 . S
N432 C434 1.325 . S
C433 C427 1.404 . S
C433 C435 1.366 . S
C433 H441 0.930 . S
C434 N432 1.325 . S
C434 C435 1.416 . S
C434 H440 0.929 . S
C435 C433 1.366 . S
C435 C434 1.416 . S
C435 H437 0.930 . S
H436 C425 0.930 . S
H437 C435 0.930 . S
H438 C453 0.930 . S
H439 C460 0.930 . S
H440 C434 0.929 . S
H441 C433 0.930 . S
H442 C456 0.929 . S
H443 C423 0.931 . S
H444 C429 0.931 . S
H445 C430 0.931 . S
H446 C451 0.931 . S
H447 C426 0.929 . S
H448 C459 0.930 . S
N449 Eu420 2.600 . S
N449 C450 1.365 . S
N449 C453 1.319 . S
C450 N449 1.365 . S
C450 C452 1.405 . S
C450 C458 1.448 . S
C451 H446 0.931 . S
C451 C453 1.397 . S
C451 C454 1.367 . S
C452 C450 1.405 . S
C452 C454 1.403 . S
C452 C485 1.439 . S
C453 H438 0.930 . S
C453 N449 1.319 . S
C453 C451 1.397 . S
C454 C451 1.367 . S
C454 C452 1.403 . S
C454 H461 0.929 . S
N455 Eu420 2.562 . S
N455 C456 1.325 . S
N455 C458 1.351 . S
C456 H442 0.929 . S
C456 N455 1.325 . S
C456 C460 1.416 . S
C457 C458 1.430 . S
C457 C459 1.404 . S
C457 C486 1.387 . S
C458 C450 1.448 . S
C458 N455 1.351 . S
C458 C457 1.430 . S
C459 H448 0.930 . S
C459 C457 1.404 . S
C459 C460 1.366 . S
C460 H439 0.930 . S
C460 C456 1.416 . S
C460 C459 1.366 . S
H461 C454 0.929 . S
H462 C485 0.931 . S
H463 C486 0.931 . S
O464 Eu420 2.462 . S
O464 C484 1.252 . S
O465 Eu420 2.373 . S
O465 C476 1.249 . S
O466 Eu431 2.335 . S
O466 C476 1.264 . S
O467 Eu420 2.432 . S
O467 C484 1.268 . S
O468 Eu420 2.291 . S
O468 C483 1.255 . S
O469 Eu431 2.372 . S
O469 C483 1.257 . S
O470 Eu431 2.462 . S
O470 C495 1.252 . S
O471 Eu431 2.373 . S
O471 C487 1.249 . S
O472 Eu420 2.335 . S
O472 C487 1.264 . S
O473 Eu431 2.432 . S
O473 C495 1.268 . S
O474 Eu431 2.291 . S
O474 C494 1.255 . S
O475 Eu420 2.372 . S
O475 C494 1.257 . S
C476 O465 1.249 . S
C476 O466 1.264 . S
C477 C480 1.382 . S
C477 C482 1.390 . S
C477 C484 1.506 . S
C478 C479 1.398 . S
C478 C482 1.392 . S
C479 C478 1.398 . S
C479 C481 1.372 . S
C479 H496 0.931 . S
C480 C477 1.382 . S
C480 C481 1.390 . S
C480 H497 0.931 . S
C481 C479 1.372 . S
C481 C480 1.390 . S
C481 H498 0.929 . S
C482 C477 1.390 . S
C482 C478 1.392 . S
C482 H499 0.930 . S
C483 O468 1.255 . S
C483 O469 1.257 . S
C484 Eu420 2.787 . S
C484 O464 1.252 . S
C484 O467 1.268 . S
C484 C477 1.506 . S
C485 C452 1.439 . S
C485 H462 0.931 . S
C485 C486 1.374 . S
C486 C457 1.387 . S
C486 H463 0.931 . S
C486 C485 1.374 . S
C487 O471 1.249 . S
C487 O472 1.264 . S
C488 C491 1.382 . S
C488 C492 1.390 . S
C488 C495 1.506 . S
C489 C490 1.398 . S
C489 C492 1.392 . S
C490 C489 1.398 . S
C490 C493 1.372 . S
C490 H500 0.931 . S
C491 C488 1.382 . S
C491 C493 1.390 . S
C491 H501 0.931 . S
C492 C488 1.390 . S
C492 C489 1.392 . S
C492 H502 0.930 . S
C493 C490 1.372 . S
C493 C491 1.390 . S
C493 H503 0.929 . S
C494 O474 1.255 . S
C494 O475 1.257 . S
C495 Eu431 2.787 . S
C495 O470 1.252 . S
C495 O473 1.268 . S
C495 C488 1.506 . S
H496 C479 0.931 . S
H497 C480 0.931 . S
H498 C481 0.929 . S
H499 C482 0.930 . S
H500 C490 0.931 . S
H501 C491 0.931 . S
H502 C492 0.930 . S
H503 C493 0.929 . S
Eu504 N533 2.600 1_545 S
Eu504 N539 2.562 1_545 S
Eu504 O548 2.462 . S
Eu504 O549 2.373 1_545 S
Eu504 O551 2.432 . S
Eu504 O552 2.291 . S
Eu504 O556 2.335 . S
Eu504 O559 2.372 . S
Eu504 C568 2.787 . S
C505 N506 1.365 . S
C505 C508 1.405 . S
C505 C512 1.448 . S
N506 C505 1.365 . S
N506 C509 1.319 . S
N506 Eu515 2.600 . S
C507 C509 1.397 . S
C507 C510 1.367 . S
C507 H527 0.931 . S
C508 C505 1.405 . S
C508 C510 1.403 . S
C508 C514 1.439 . S
C509 N506 1.319 . S
C509 C507 1.397 . S
C509 H520 0.930 . S
C510 C507 1.367 . S
C510 C508 1.403 . S
C510 H531 0.929 . S
C511 C512 1.430 . S
C511 C513 1.387 . S
C511 C517 1.404 . S
C512 C505 1.448 . S
C512 C511 1.430 . S
C512 N516 1.351 . S
C513 C511 1.387 . S
C513 C514 1.374 . S
C513 H528 0.931 . S
C514 C508 1.439 . S
C514 C513 1.374 . S
C514 H529 0.931 . S
Eu515 N506 2.600 . S
Eu515 N516 2.562 . S
Eu515 O550 2.335 1_545 S
Eu515 O553 2.372 . S
Eu515 O554 2.462 . S
Eu515 O555 2.373 . S
Eu515 O557 2.432 . S
Eu515 O558 2.291 . S
Eu515 C579 2.787 . S
N516 C512 1.351 . S
N516 Eu515 2.562 . S
N516 C518 1.325 . S
C517 C511 1.404 . S
C517 C519 1.366 . S
C517 H525 0.930 . S
C518 N516 1.325 . S
C518 C519 1.416 . S
C518 H524 0.929 . S
C519 C517 1.366 . S
C519 C518 1.416 . S
C519 H521 0.930 . S
H520 C509 0.930 . S
H521 C519 0.930 . S
H522 C537 0.935 . S
H523 C544 0.930 . S
H524 C518 0.929 . S
H525 C517 0.930 . S
H526 C540 0.929 . S
H527 C507 0.931 . S
H528 C513 0.931 . S
H529 C514 0.931 . S
H530 C535 0.931 . S
H531 C510 0.929 . S
H532 C543 0.930 . S
N533 Eu504 2.600 1_565 S
N533 C534 1.365 . S
N533 C537 1.319 1_565 S
C534 N533 1.365 . S
C534 C536 1.405 . S
C534 C542 1.448 . S
C535 H530 0.931 . S
C535 C537 1.392 1_565 S
C535 C538 1.367 . S
C536 C534 1.405 . S
C536 C538 1.403 . S
C536 C569 1.439 . S
C537 H522 0.935 . S
C537 N533 1.319 1_545 S
C537 C535 1.392 1_545 S
C538 C535 1.367 . S
C538 C536 1.403 . S
C538 H545 0.929 . S
N539 Eu504 2.562 1_565 S
N539 C540 1.325 . S
N539 C542 1.351 . S
C540 H526 0.929 . S
C540 N539 1.325 . S
C540 C544 1.416 . S
C541 C542 1.430 . S
C541 C543 1.404 . S
C541 C570 1.387 . S
C542 C534 1.448 . S
C542 N539 1.351 . S
C542 C541 1.430 . S
C543 H532 0.930 . S
C543 C541 1.404 . S
C543 C544 1.366 . S
C544 H523 0.930 . S
C544 C540 1.416 . S
C544 C543 1.366 . S
H545 C538 0.929 . S
H546 C569 0.931 . S
H547 C570 0.931 . S
O548 Eu504 2.462 . S
O548 C568 1.252 . S
O549 Eu504 2.373 1_565 S
O549 C560 1.249 . S
O550 Eu515 2.335 1_565 S
O550 C560 1.264 . S
O551 Eu504 2.432 . S
O551 C568 1.268 . S
O552 Eu504 2.291 . S
O552 C567 1.255 . S
O553 Eu515 2.372 . S
O553 C567 1.257 . S
O554 Eu515 2.462 . S
O554 C579 1.252 . S
O555 Eu515 2.373 . S
O555 C571 1.249 . S
O556 Eu504 2.335 . S
O556 C571 1.264 . S
O557 Eu515 2.432 . S
O557 C579 1.268 . S
O558 Eu515 2.291 . S
O558 C578 1.255 . S
O559 Eu504 2.372 . S
O559 C578 1.257 . S
C560 O549 1.249 . S
C560 O550 1.264 . S
C561 C564 1.382 . S
C561 C566 1.390 . S
C561 C568 1.506 . S
C562 C563 1.398 . S
C562 C566 1.392 . S
C563 C562 1.398 . S
C563 C565 1.372 . S
C563 H580 0.931 . S
C564 C561 1.382 . S
C564 C565 1.390 . S
C564 H581 0.931 . S
C565 C563 1.372 . S
C565 C564 1.390 . S
C565 H582 0.929 . S
C566 C561 1.390 . S
C566 C562 1.392 . S
C566 H583 0.930 . S
C567 O552 1.255 . S
C567 O553 1.257 . S
C568 Eu504 2.787 . S
C568 O548 1.252 . S
C568 O551 1.268 . S
C568 C561 1.506 . S
C569 C536 1.439 . S
C569 H546 0.931 . S
C569 C570 1.374 . S
C570 C541 1.387 . S
C570 H547 0.931 . S
C570 C569 1.374 . S
C571 O555 1.249 . S
C571 O556 1.264 . S
C572 C575 1.382 . S
C572 C576 1.390 . S
C572 C579 1.506 1_565 S
C573 C574 1.398 . S
C573 C576 1.392 . S
C574 C573 1.398 . S
C574 C577 1.372 . S
C574 H584 0.931 . S
C575 C572 1.382 . S
C575 C577 1.390 . S
C575 H585 0.931 . S
C576 C572 1.390 . S
C576 C573 1.392 . S
C576 H586 0.930 . S
C577 C574 1.372 . S
C577 C575 1.390 . S
C577 H587 0.929 . S
C578 O558 1.255 . S
C578 O559 1.257 . S
C579 Eu515 2.787 . S
C579 O554 1.252 . S
C579 O557 1.268 . S
C579 C572 1.506 1_545 S
H580 C563 0.931 . S
H581 C564 0.931 . S
H582 C565 0.929 . S
H583 C566 0.930 . S
H584 C574 0.931 . S
H585 C575 0.931 . S
H586 C576 0.930 . S
H587 C577 0.929 . S
Eu588 N617 2.600 . S
Eu588 N623 2.562 . S
Eu588 O632 2.462 . S
Eu588 O633 2.373 . S
Eu588 O635 2.432 . S
Eu588 O636 2.291 . S
Eu588 O640 2.335 . S
Eu588 O643 2.372 . S
Eu588 C652 2.787 . S
C589 N590 1.365 . S
C589 C592 1.405 . S
C589 C596 1.448 . S
N590 C589 1.365 . S
N590 C593 1.319 . S
N590 Eu599 2.600 . S
C591 C593 1.397 . S
C591 C594 1.367 . S
C591 H611 0.931 . S
C592 C589 1.405 . S
C592 C594 1.403 . S
C592 C598 1.439 . S
C593 N590 1.319 . S
C593 C591 1.397 . S
C593 H604 0.930 . S
C594 C591 1.367 . S
C594 C592 1.403 . S
C594 H615 0.929 . S
C595 C596 1.430 . S
C595 C597 1.387 . S
C595 C601 1.404 . S
C596 C589 1.448 . S
C596 C595 1.430 . S
C596 N600 1.351 . S
C597 C595 1.387 . S
C597 C598 1.374 . S
C597 H612 0.931 . S
C598 C592 1.439 . S
C598 C597 1.374 . S
C598 H613 0.931 . S
Eu599 N590 2.600 . S
Eu599 N600 2.562 . S
Eu599 O634 2.335 . S
Eu599 O637 2.372 . S
Eu599 O638 2.462 . S
Eu599 O639 2.373 . S
Eu599 O641 2.432 . S
Eu599 O642 2.291 . S
Eu599 C663 2.787 . S
N600 C596 1.351 . S
N600 Eu599 2.562 . S
N600 C602 1.325 . S
C601 C595 1.404 . S
C601 C603 1.366 . S
C601 H609 0.930 . S
C602 N600 1.325 . S
C602 C603 1.416 . S
C602 H608 0.929 . S
C603 C601 1.366 . S
C603 C602 1.416 . S
C603 H605 0.930 . S
H604 C593 0.930 . S
H605 C603 0.930 . S
H606 C621 0.930 . S
H607 C628 0.930 . S
H608 C602 0.929 . S
H609 C601 0.930 . S
H610 C624 0.929 . S
H611 C591 0.931 . S
H612 C597 0.931 . S
H613 C598 0.931 . S
H614 C619 0.931 . S
H615 C594 0.929 . S
H616 C627 0.930 . S
N617 Eu588 2.600 . S
N617 C618 1.365 . S
N617 C621 1.319 . S
C618 N617 1.365 . S
C618 C620 1.405 . S
C618 C626 1.448 . S
C619 H614 0.931 . S
C619 C621 1.397 . S
C619 C622 1.367 . S
C620 C618 1.405 . S
C620 C622 1.403 . S
C620 C653 1.439 . S
C621 H606 0.930 . S
C621 N617 1.319 . S
C621 C619 1.397 . S
C622 C619 1.367 . S
C622 C620 1.403 . S
C622 H629 0.929 . S
N623 Eu588 2.562 . S
N623 C624 1.325 . S
N623 C626 1.351 . S
C624 H610 0.929 . S
C624 N623 1.325 . S
C624 C628 1.416 . S
C625 C626 1.430 . S
C625 C627 1.404 . S
C625 C654 1.387 . S
C626 C618 1.448 . S
C626 N623 1.351 . S
C626 C625 1.430 . S
C627 H616 0.930 . S
C627 C625 1.404 . S
C627 C628 1.366 . S
C628 H607 0.930 . S
C628 C624 1.416 . S
C628 C627 1.366 . S
H629 C622 0.929 . S
H630 C653 0.931 . S
H631 C654 0.931 . S
O632 Eu588 2.462 . S
O632 C652 1.252 . S
O633 Eu588 2.373 . S
O633 C644 1.249 . S
O634 Eu599 2.335 . S
O634 C644 1.264 . S
O635 Eu588 2.432 . S
O635 C652 1.268 . S
O636 Eu588 2.291 . S
O636 C651 1.255 . S
O637 Eu599 2.372 . S
O637 C651 1.257 . S
O638 Eu599 2.462 . S
O638 C663 1.252 . S
O639 Eu599 2.373 . S
O639 C655 1.249 . S
O640 Eu588 2.335 . S
O640 C655 1.264 . S
O641 Eu599 2.432 . S
O641 C663 1.268 . S
O642 Eu599 2.291 . S
O642 C662 1.255 . S
O643 Eu588 2.372 . S
O643 C662 1.257 . S
C644 O633 1.249 . S
C644 O634 1.264 . S
C645 C648 1.382 . S
C645 C650 1.390 . S
C645 C652 1.506 . S
C646 C647 1.398 . S
C646 C650 1.392 . S
C647 C646 1.398 . S
C647 C649 1.372 . S
C647 H664 0.931 . S
C648 C645 1.382 . S
C648 C649 1.390 . S
C648 H665 0.931 . S
C649 C647 1.372 . S
C649 C648 1.390 . S
C649 H666 0.929 . S
C650 C645 1.390 . S
C650 C646 1.392 . S
C650 H667 0.930 . S
C651 O636 1.255 . S
C651 O637 1.257 . S
C652 Eu588 2.787 . S
C652 O632 1.252 . S
C652 O635 1.268 . S
C652 C645 1.506 . S
C653 C620 1.439 . S
C653 H630 0.931 . S
C653 C654 1.374 . S
C654 C625 1.387 . S
C654 H631 0.931 . S
C654 C653 1.374 . S
C655 O639 1.249 . S
C655 O640 1.264 . S
C656 C659 1.382 . S
C656 C660 1.390 . S
C656 C663 1.506 . S
C657 C658 1.398 . S
C657 C660 1.392 . S
C658 C657 1.398 . S
C658 C661 1.372 . S
C658 H668 0.931 . S
C659 C656 1.382 . S
C659 C661 1.390 . S
C659 H669 0.931 . S
C660 C656 1.390 . S
C660 C657 1.392 . S
C660 H670 0.930 . S
C661 C658 1.372 . S
C661 C659 1.390 . S
C661 H671 0.929 . S
C662 O642 1.255 . S
C662 O643 1.257 . S
C663 Eu599 2.787 . S
C663 O638 1.252 . S
C663 O641 1.268 . S
C663 C656 1.506 . S
H664 C647 0.931 . S
H665 C648 0.931 . S
H666 C649 0.929 . S
H667 C650 0.930 . S
H668 C658 0.931 . S
H669 C659 0.931 . S
H670 C660 0.930 . S
H671 C661 0.929 . S
Eu672 N701 2.600 . S
Eu672 N707 2.562 . S
Eu672 O716 2.462 . S
Eu672 O717 2.373 1_565 S
Eu672 O719 2.432 . S
Eu672 O720 2.291 1_565 S
Eu672 O724 2.335 1_565 S
Eu672 O727 2.372 1_565 S
Eu672 C736 2.787 . S
C673 N674 1.365 1_455 S
C673 C676 1.405 1_455 S
C673 C680 1.448 . S
N674 C673 1.365 1_655 S
N674 C677 1.319 . S
N674 Eu683 2.600 1_655 S
C675 C677 1.397 . S
C675 C678 1.367 . S
C675 H695 0.931 . S
C676 C673 1.405 1_655 S
C676 C678 1.403 . S
C676 C682 1.439 1_655 S
C677 N674 1.319 . S
C677 C675 1.397 . S
C677 H688 0.930 . S
C678 C675 1.367 . S
C678 C676 1.403 . S
C678 H699 0.929 . S
C679 C680 1.430 . S
C679 C681 1.387 . S
C679 C685 1.404 . S
C680 C673 1.448 . S
C680 C679 1.430 . S
C680 N684 1.351 . S
C681 C679 1.387 . S
C681 C682 1.374 . S
C681 H696 0.931 . S
C682 C676 1.439 1_455 S
C682 C681 1.374 . S
C682 H697 0.966 . S
Eu683 N674 2.600 1_455 S
Eu683 N684 2.562 . S
Eu683 O718 2.335 . S
Eu683 O721 2.372 1_455 S
Eu683 O722 2.462 . S
Eu683 O723 2.373 . S
Eu683 O725 2.432 1_455 S
Eu683 O726 2.291 . S
Eu683 C747 2.787 . S
N684 C680 1.351 . S
N684 Eu683 2.562 . S
N684 C686 1.325 . S
C685 C679 1.404 . S
C685 C687 1.366 . S
C685 H693 0.930 . S
C686 N684 1.325 . S
C686 C687 1.416 . S
C686 H692 0.929 . S
C687 C685 1.366 . S
C687 C686 1.416 . S
C687 H689 0.930 . S
H688 C677 0.930 . S
H689 C687 0.930 . S
H690 C705 0.930 1_545 S
H691 C712 0.930 . S
H692 C686 0.929 . S
H693 C685 0.930 . S
H694 C708 0.929 1_655 S
H695 C675 0.931 . S
H696 C681 0.931 . S
H697 C682 0.966 . S
H698 C703 0.931 . S
H699 C678 0.929 . S
H700 C711 0.930 1_655 S
N701 Eu672 2.600 . S
N701 C702 1.365 . S
N701 C705 1.319 . S
C702 N701 1.365 . S
C702 C704 1.405 . S
C702 C710 1.448 . S
C703 H698 0.931 . S
C703 C705 1.397 . S
C703 C706 1.367 . S
C704 C702 1.405 . S
C704 C706 1.403 . S
C704 C737 1.439 . S
C705 H690 0.930 1_565 S
C705 N701 1.319 . S
C705 C703 1.397 . S
C706 C703 1.367 . S
C706 C704 1.403 . S
C706 H713 0.929 . S
N707 Eu672 2.562 . S
N707 C708 1.325 . S
N707 C710 1.351 . S
C708 H694 0.929 1_455 S
C708 N707 1.325 . S
C708 C712 1.416 1_455 S
C709 C710 1.430 . S
C709 C711 1.404 . S
C709 C738 1.387 . S
C710 C702 1.448 . S
C710 N707 1.351 . S
C710 C709 1.430 . S
C711 H700 0.930 1_455 S
C711 C709 1.404 . S
C711 C712 1.366 1_455 S
C712 H691 0.930 . S
C712 C708 1.416 1_655 S
C712 C711 1.366 1_655 S
H713 C706 0.929 . S
H714 C737 0.931 . S
H715 C738 0.931 . S
O716 Eu672 2.462 . S
O716 C736 1.252 . S
O717 Eu672 2.373 1_545 S
O717 C728 1.249 . S
O718 Eu683 2.335 . S
O718 C728 1.264 . S
O719 Eu672 2.432 . S
O719 C736 1.268 . S
O720 Eu672 2.291 1_545 S
O720 C735 1.255 1_455 S
O721 Eu683 2.372 1_655 S
O721 C735 1.257 . S
O722 Eu683 2.462 . S
O722 C747 1.252 . S
O723 Eu683 2.373 . S
O723 C739 1.249 . S
O724 Eu672 2.335 1_545 S
O724 C739 1.264 . S
O725 Eu683 2.432 1_655 S
O725 C747 1.268 1_655 S
O726 Eu683 2.291 . S
O726 C746 1.255 . S
O727 Eu672 2.372 1_545 S
O727 C746 1.257 . S
C728 O717 1.249 . S
C728 O718 1.264 . S
C729 C732 1.382 . S
C729 C734 1.390 . S
C729 C736 1.506 . S
C730 C731 1.398 . S
C730 C734 1.392 . S
C731 C730 1.398 . S
C731 C733 1.372 . S
C731 H748 0.931 . S
C732 C729 1.382 . S
C732 C733 1.390 . S
C732 H749 0.931 . S
C733 C731 1.372 . S
C733 C732 1.390 . S
C733 H750 0.929 . S
C734 C729 1.390 . S
C734 C730 1.392 . S
C734 H751 0.930 . S
C735 O720 1.255 1_655 S
C735 O721 1.257 . S
C736 Eu672 2.787 . S
C736 O716 1.252 . S
C736 O719 1.268 . S
C736 C729 1.506 . S
C737 C704 1.439 . S
C737 H714 0.931 . S
C737 C738 1.374 . S
C738 C709 1.387 . S
C738 H715 0.931 . S
C738 C737 1.374 . S
C739 O723 1.249 . S
C739 O724 1.264 . S
C740 C743 1.382 1_455 S
C740 C744 1.390 . S
C740 C747 1.506 . S
C741 C742 1.398 . S
C741 C744 1.392 . S
C742 C741 1.398 . S
C742 C745 1.372 1_455 S
C742 H752 0.931 . S
C743 C740 1.382 1_655 S
C743 C745 1.390 . S
C743 H753 0.931 . S
C744 C740 1.390 . S
C744 C741 1.392 . S
C744 H754 0.930 . S
C745 C742 1.372 1_655 S
C745 C743 1.390 . S
C745 H755 0.929 . S
C746 O726 1.255 . S
C746 O727 1.257 . S
C747 Eu683 2.787 . S
C747 O722 1.252 . S
C747 O725 1.268 1_455 S
C747 C740 1.506 . S
H748 C731 0.931 . S
H749 C732 0.931 . S
H750 C733 0.929 . S
H751 C734 0.930 . S
H752 C742 0.931 . S
H753 C743 0.931 . S
H754 C744 0.930 . S
H755 C745 0.929 . S
Eu756 N785 2.600 . S
Eu756 N791 2.562 . S
Eu756 O800 2.462 . S
Eu756 O801 2.373 . S
Eu756 O803 2.432 . S
Eu756 O804 2.291 . S
Eu756 O808 2.335 . S
Eu756 O811 2.372 . S
Eu756 C820 2.787 . S
C757 N758 1.365 . S
C757 C760 1.405 . S
C757 C764 1.448 . S
N758 C757 1.365 . S
N758 C761 1.319 . S
N758 Eu767 2.600 . S
C759 C761 1.397 . S
C759 C762 1.367 . S
C759 H779 0.931 . S
C760 C757 1.405 . S
C760 C762 1.403 . S
C760 C766 1.439 . S
C761 N758 1.319 . S
C761 C759 1.397 . S
C761 H772 0.930 . S
C762 C759 1.367 . S
C762 C760 1.403 . S
C762 H783 0.929 . S
C763 C764 1.430 . S
C763 C765 1.387 . S
C763 C769 1.404 . S
C764 C757 1.448 . S
C764 C763 1.430 . S
C764 N768 1.351 . S
C765 C763 1.387 . S
C765 C766 1.374 . S
C765 H780 0.931 . S
C766 C760 1.439 . S
C766 C765 1.374 . S
C766 H781 0.931 . S
Eu767 N758 2.600 . S
Eu767 N768 2.562 . S
Eu767 O802 2.335 . S
Eu767 O805 2.372 . S
Eu767 O806 2.462 . S
Eu767 O807 2.373 . S
Eu767 O809 2.432 . S
Eu767 O810 2.291 . S
Eu767 C831 2.787 . S
N768 C764 1.351 . S
N768 Eu767 2.562 . S
N768 C770 1.325 . S
C769 C763 1.404 . S
C769 C771 1.366 . S
C769 H777 0.930 . S
C770 N768 1.325 . S
C770 C771 1.416 . S
C770 H776 0.929 . S
C771 C769 1.366 . S
C771 C770 1.416 . S
C771 H773 0.930 . S
H772 C761 0.930 . S
H773 C771 0.930 . S
H774 C789 0.930 . S
H775 C796 0.930 . S
H776 C770 0.929 . S
H777 C769 0.930 . S
H778 C792 0.929 . S
H779 C759 0.931 . S
H780 C765 0.931 . S
H781 C766 0.931 . S
H782 C787 0.931 . S
H783 C762 0.929 . S
H784 C795 0.930 . S
N785 Eu756 2.600 . S
N785 C786 1.365 . S
N785 C789 1.319 . S
C786 N785 1.365 . S
C786 C788 1.405 . S
C786 C794 1.448 . S
C787 H782 0.931 . S
C787 C789 1.397 . S
C787 C790 1.367 . S
C788 C786 1.405 . S
C788 C790 1.403 . S
C788 C821 1.439 . S
C789 H774 0.930 . S
C789 N785 1.319 . S
C789 C787 1.397 . S
C790 C787 1.367 . S
C790 C788 1.403 . S
C790 H797 0.929 . S
N791 Eu756 2.562 . S
N791 C792 1.325 . S
N791 C794 1.351 . S
C792 H778 0.929 . S
C792 N791 1.325 . S
C792 C796 1.416 . S
C793 C794 1.430 . S
C793 C795 1.404 . S
C793 C822 1.387 . S
C794 C786 1.448 . S
C794 N791 1.351 . S
C794 C793 1.430 . S
C795 H784 0.930 . S
C795 C793 1.404 . S
C795 C796 1.366 . S
C796 H775 0.930 . S
C796 C792 1.416 . S
C796 C795 1.366 . S
H797 C790 0.929 . S
H798 C821 0.931 . S
H799 C822 0.931 . S
O800 Eu756 2.462 . S
O800 C820 1.252 . S
O801 Eu756 2.373 . S
O801 C812 1.249 . S
O802 Eu767 2.335 . S
O802 C812 1.264 . S
O803 Eu756 2.432 . S
O803 C820 1.268 . S
O804 Eu756 2.291 . S
O804 C819 1.255 . S
O805 Eu767 2.372 . S
O805 C819 1.257 . S
O806 Eu767 2.462 . S
O806 C831 1.252 . S
O807 Eu767 2.373 . S
O807 C823 1.249 . S
O808 Eu756 2.335 . S
O808 C823 1.264 . S
O809 Eu767 2.432 . S
O809 C831 1.268 . S
O810 Eu767 2.291 . S
O810 C830 1.255 . S
O811 Eu756 2.372 . S
O811 C830 1.257 . S
C812 O801 1.249 . S
C812 O802 1.264 . S
C813 C816 1.382 . S
C813 C818 1.390 . S
C813 C820 1.506 . S
C814 C815 1.398 . S
C814 C818 1.392 . S
C815 C814 1.398 . S
C815 C817 1.372 . S
C815 H832 0.931 . S
C816 C813 1.382 . S
C816 C817 1.390 . S
C816 H833 0.931 . S
C817 C815 1.372 . S
C817 C816 1.390 . S
C817 H834 0.929 . S
C818 C813 1.390 . S
C818 C814 1.392 . S
C818 H835 0.930 . S
C819 O804 1.255 . S
C819 O805 1.257 . S
C820 Eu756 2.787 . S
C820 O800 1.252 . S
C820 O803 1.268 . S
C820 C813 1.506 . S
C821 C788 1.439 . S
C821 H798 0.931 . S
C821 C822 1.374 . S
C822 C793 1.387 . S
C822 H799 0.931 . S
C822 C821 1.374 . S
C823 O807 1.249 . S
C823 O808 1.264 . S
C824 C827 1.382 . S
C824 C828 1.390 . S
C824 C831 1.506 . S
C825 C826 1.398 . S
C825 C828 1.392 . S
C826 C825 1.398 . S
C826 C829 1.372 . S
C826 H836 0.931 . S
C827 C824 1.382 . S
C827 C829 1.390 . S
C827 H837 0.931 . S
C828 C824 1.390 . S
C828 C825 1.392 . S
C828 H838 0.930 . S
C829 C826 1.372 . S
C829 C827 1.390 . S
C829 H839 0.929 . S
C830 O810 1.255 . S
C830 O811 1.257 . S
C831 Eu767 2.787 . S
C831 O806 1.252 . S
C831 O809 1.268 . S
C831 C824 1.506 . S
H832 C815 0.931 . S
H833 C816 0.931 . S
H834 C817 0.929 . S
H835 C818 0.930 . S
H836 C826 0.931 . S
H837 C827 0.931 . S
H838 C828 0.930 . S
H839 C829 0.929 . S
Eu840 N869 2.600 . S
Eu840 N875 2.562 . S
Eu840 O884 2.462 . S
Eu840 O885 2.373 1_556 S
Eu840 O887 2.432 . S
Eu840 O888 2.291 . S
Eu840 O892 2.335 1_556 S
Eu840 O895 2.372 1_556 S
Eu840 C904 2.787 . S
C841 N842 1.361 1_545 S
C841 C844 1.391 1_545 S
C841 C848 1.467 . S
N842 C841 1.361 1_565 S
N842 C845 1.319 . S
N842 Eu851 2.600 1_565 S
C843 C845 1.397 . S
C843 C846 1.367 . S
C843 H863 0.931 . S
C844 C841 1.391 1_565 S
C844 C846 1.403 . S
C844 C850 1.433 1_565 S
C845 N842 1.319 . S
C845 C843 1.397 . S
C845 H856 0.930 . S
C846 C843 1.367 . S
C846 C844 1.403 . S
C846 H867 0.929 . S
C847 C848 1.430 . S
C847 C849 1.387 . S
C847 C853 1.404 . S
C848 C841 1.467 . S
C848 C847 1.430 . S
C848 N852 1.351 . S
C849 C847 1.387 . S
C849 C850 1.397 . S
C849 H864 0.931 . S
C850 C844 1.433 1_545 S
C850 C849 1.397 . S
C850 H865 0.915 1_545 S
Eu851 N842 2.600 1_545 S
Eu851 N852 2.562 . S
Eu851 O886 2.335 . S
Eu851 O889 2.372 1_545 S
Eu851 O890 2.462 . S
Eu851 O891 2.373 . S
Eu851 O893 2.432 1_545 S
Eu851 O894 2.291 . S
Eu851 C915 2.787 . S
N852 C848 1.351 . S
N852 Eu851 2.562 . S
N852 C854 1.325 . S
C853 C847 1.404 . S
C853 C855 1.366 . S
C853 H861 0.930 . S
C854 N852 1.325 . S
C854 C855 1.416 . S
C854 H860 0.929 . S
C855 C853 1.366 . S
C855 C854 1.416 . S
C855 H857 0.930 . S
H856 C845 0.930 . S
H857 C855 0.930 . S
H858 C873 0.913 1_554 S
H859 C880 0.930 . S
H860 C854 0.929 . S
H861 C853 0.930 . S
H862 C876 0.929 1_565 S
H863 C843 0.931 . S
H864 C849 0.931 . S
H865 C850 0.915 1_565 S
H866 C871 0.931 . S
H867 C846 0.929 . S
H868 C879 0.930 1_565 S
N869 Eu840 2.600 . S
N869 C870 1.365 . S
N869 C873 1.319 . S
C870 N869 1.365 . S
C870 C872 1.405 . S
C870 C878 1.448 . S
C871 H866 0.931 . S
C871 C873 1.397 . S
C871 C874 1.367 . S
C872 C870 1.405 . S
C872 C874 1.403 . S
C872 C905 1.439 . S
C873 H858 0.913 1_556 S
C873 N869 1.319 . S
C873 C871 1.397 . S
C874 C871 1.367 . S
C874 C872 1.403 . S
C874 H881 0.929 . S
N875 Eu840 2.562 . S
N875 C876 1.325 . S
N875 C878 1.351 . S
C876 H862 0.929 1_545 S
C876 N875 1.325 . S
C876 C880 1.416 1_545 S
C877 C878 1.430 . S
C877 C879 1.404 . S
C877 C906 1.387 . S
C878 C870 1.448 . S
C878 N875 1.351 . S
C878 C877 1.430 . S
C879 H868 0.930 1_545 S
C879 C877 1.404 . S
C879 C880 1.366 1_545 S
C880 H859 0.930 . S
C880 C876 1.416 1_565 S
C880 C879 1.366 1_565 S
H881 C874 0.929 . S
H882 C905 0.931 . S
H883 C906 0.931 . S
O884 Eu840 2.462 . S
O884 C904 1.252 . S
O885 Eu840 2.373 1_554 S
O885 C896 1.249 . S
O886 Eu851 2.335 . S
O886 C896 1.264 . S
O887 Eu840 2.432 . S
O887 C904 1.268 . S
O888 Eu840 2.291 . S
O888 C903 1.255 1_546 S
O889 Eu851 2.372 1_565 S
O889 C903 1.257 . S
O890 Eu851 2.462 . S
O890 C915 1.252 . S
O891 Eu851 2.373 . S
O891 C907 1.249 . S
O892 Eu840 2.335 1_554 S
O892 C907 1.264 . S
O893 Eu851 2.432 1_565 S
O893 C915 1.268 1_565 S
O894 Eu851 2.291 . S
O894 C914 1.255 . S
O895 Eu840 2.372 1_554 S
O895 C914 1.257 . S
C896 O885 1.249 . S
C896 O886 1.264 . S
C897 C900 1.382 . S
C897 C902 1.390 . S
C897 C904 1.506 . S
C898 C899 1.398 . S
C898 C902 1.392 . S
C899 C898 1.398 . S
C899 C901 1.372 . S
C899 H916 0.931 . S
C900 C897 1.382 . S
C900 C901 1.390 . S
C900 H917 0.931 . S
C901 C899 1.372 . S
C901 C900 1.390 . S
C901 H918 0.929 . S
C902 C897 1.390 . S
C902 C898 1.392 . S
C902 H919 0.930 . S
C903 O888 1.255 1_564 S
C903 O889 1.257 . S
C904 Eu840 2.787 . S
C904 O884 1.252 . S
C904 O887 1.268 . S
C904 C897 1.506 . S
C905 C872 1.439 . S
C905 H882 0.931 . S
C905 C906 1.374 . S
C906 C877 1.387 . S
C906 H883 0.931 . S
C906 C905 1.374 . S
C907 O891 1.249 . S
C907 O892 1.264 . S
C908 C911 1.382 . S
C908 C912 1.390 1_565 S
C908 C915 1.506 1_565 S
C909 C910 1.398 1_545 S
C909 C912 1.392 . S
C910 C909 1.398 1_565 S
C910 C913 1.372 . S
C910 H920 0.931 . S
C911 C908 1.382 . S
C911 C913 1.390 . S
C911 H921 0.931 . S
C912 C908 1.390 1_545 S
C912 C909 1.392 . S
C912 H922 0.930 . S
C913 C910 1.372 . S
C913 C911 1.390 . S
C913 H923 0.929 . S
C914 O894 1.255 . S
C914 O895 1.257 . S
C915 Eu851 2.787 . S
C915 O890 1.252 . S
C915 O893 1.268 1_545 S
C915 C908 1.506 1_545 S
H916 C899 0.931 . S
H917 C900 0.931 . S
H918 C901 0.929 . S
H919 C902 0.930 . S
H920 C910 0.931 . S
H921 C911 0.931 . S
H922 C912 0.930 . S
H923 C913 0.929 . S
Eu924 N953 2.600 . S
Eu924 N959 2.562 . S
Eu924 O968 2.462 . S
Eu924 O969 2.373 . S
Eu924 O971 2.432 . S
Eu924 O972 2.291 . S
Eu924 O976 2.335 . S
Eu924 O979 2.372 . S
Eu924 C988 2.787 . S
C925 N926 1.365 . S
C925 C928 1.405 . S
C925 C932 1.448 . S
N926 C925 1.365 . S
N926 C929 1.319 . S
N926 Eu935 2.600 . S
C927 C929 1.397 . S
C927 C930 1.367 . S
C927 H947 0.931 . S
C928 C925 1.405 . S
C928 C930 1.403 . S
C928 C934 1.439 . S
C929 N926 1.319 . S
C929 C927 1.397 . S
C929 H940 0.930 . S
C930 C927 1.367 . S
C930 C928 1.403 . S
C930 H951 0.929 . S
C931 C932 1.430 . S
C931 C933 1.387 . S
C931 C937 1.404 . S
C932 C925 1.448 . S
C932 C931 1.430 . S
C932 N936 1.351 . S
C933 C931 1.387 . S
C933 C934 1.374 . S
C933 H948 0.931 . S
C934 C928 1.439 . S
C934 C933 1.374 . S
C934 H949 0.931 . S
Eu935 N926 2.600 . S
Eu935 N936 2.562 . S
Eu935 O970 2.335 . S
Eu935 O973 2.372 . S
Eu935 O974 2.462 . S
Eu935 O975 2.373 . S
Eu935 O977 2.432 . S
Eu935 O978 2.291 . S
Eu935 C999 2.787 . S
N936 C932 1.351 . S
N936 Eu935 2.562 . S
N936 C938 1.325 . S
C937 C931 1.404 . S
C937 C939 1.366 . S
C937 H945 0.930 . S
C938 N936 1.325 . S
C938 C939 1.416 . S
C938 H944 0.929 . S
C939 C937 1.366 . S
C939 C938 1.416 . S
C939 H941 0.930 . S
H940 C929 0.930 . S
H941 C939 0.930 . S
H942 C957 0.930 . S
H943 C964 0.930 . S
H944 C938 0.929 . S
H945 C937 0.930 . S
H946 C960 0.929 . S
H947 C927 0.931 . S
H948 C933 0.931 . S
H949 C934 0.931 . S
H950 C955 0.931 . S
H951 C930 0.929 . S
H952 C963 0.930 . S
N953 Eu924 2.600 . S
N953 C954 1.365 . S
N953 C957 1.319 . S
C954 N953 1.365 . S
C954 C956 1.405 . S
C954 C962 1.448 . S
C955 H950 0.931 . S
C955 C957 1.397 . S
C955 C958 1.367 . S
C956 C954 1.405 . S
C956 C958 1.403 . S
C956 C989 1.439 . S
C957 H942 0.930 . S
C957 N953 1.319 . S
C957 C955 1.397 . S
C958 C955 1.367 . S
C958 C956 1.403 . S
C958 H965 0.929 . S
N959 Eu924 2.562 . S
N959 C960 1.325 . S
N959 C962 1.351 . S
C960 H946 0.929 . S
C960 N959 1.325 . S
C960 C964 1.416 . S
C961 C962 1.430 . S
C961 C963 1.404 . S
C961 C990 1.387 . S
C962 C954 1.448 . S
C962 N959 1.351 . S
C962 C961 1.430 . S
C963 H952 0.930 . S
C963 C961 1.404 . S
C963 C964 1.366 . S
C964 H943 0.930 . S
C964 C960 1.416 . S
C964 C963 1.366 . S
H965 C958 0.929 . S
H966 C989 0.931 . S
H967 C990 0.931 . S
O968 Eu924 2.462 . S
O968 C988 1.252 . S
O969 Eu924 2.373 . S
O969 C980 1.249 . S
O970 Eu935 2.335 . S
O970 C980 1.264 . S
O971 Eu924 2.432 . S
O971 C988 1.268 . S
O972 Eu924 2.291 . S
O972 C987 1.255 . S
O973 Eu935 2.372 . S
O973 C987 1.257 . S
O974 Eu935 2.462 . S
O974 C999 1.252 . S
O975 Eu935 2.373 . S
O975 C991 1.249 . S
O976 Eu924 2.335 . S
O976 C991 1.264 . S
O977 Eu935 2.432 . S
O977 C999 1.268 . S
O978 Eu935 2.291 . S
O978 C998 1.255 . S
O979 Eu924 2.372 . S
O979 C998 1.257 . S
C980 O969 1.249 . S
C980 O970 1.264 . S
C981 C984 1.382 . S
C981 C986 1.390 . S
C981 C988 1.506 . S
C982 C983 1.398 . S
C982 C986 1.392 . S
C983 C982 1.398 . S
C983 C985 1.372 . S
C983 H1000 0.931 . S
C984 C981 1.382 . S
C984 C985 1.390 . S
C984 H1001 0.931 . S
C985 C983 1.372 . S
C985 C984 1.390 . S
C985 H1002 0.929 . S
C986 C981 1.390 . S
C986 C982 1.392 . S
C986 H1003 0.930 . S
C987 O972 1.255 . S
C987 O973 1.257 . S
C988 Eu924 2.787 . S
C988 O968 1.252 . S
C988 O971 1.268 . S
C988 C981 1.506 . S
C989 C956 1.439 . S
C989 H966 0.931 . S
C989 C990 1.374 . S
C990 C961 1.387 . S
C990 H967 0.931 . S
C990 C989 1.374 . S
C991 O975 1.249 . S
C991 O976 1.264 . S
C992 C995 1.382 . S
C992 C996 1.390 . S
C992 C999 1.506 . S
C993 C994 1.398 . S
C993 C996 1.392 . S
C994 C993 1.398 . S
C994 C997 1.372 . S
C994 H1004 0.931 . S
C995 C992 1.382 . S
C995 C997 1.390 . S
C995 H1005 0.931 . S
C996 C992 1.390 . S
C996 C993 1.392 . S
C996 H1006 0.930 . S
C997 C994 1.372 . S
C997 C995 1.390 . S
C997 H1007 0.929 . S
C998 O978 1.255 . S
C998 O979 1.257 . S
C999 Eu935 2.787 . S
C999 O974 1.252 . S
C999 O977 1.268 . S
C999 C992 1.506 . S
H1000 C983 0.931 . S
H1001 C984 0.931 . S
H1002 C985 0.929 . S
H1003 C986 0.930 . S
H1004 C994 0.931 . S
H1005 C995 0.931 . S
H1006 C996 0.930 . S
H1007 C997 0.929 . S
Eu1008 N1037 2.600 1_554 S
Eu1008 N1043 2.562 1_554 S
Eu1008 O1052 2.462 . S
Eu1008 O1053 2.373 1_554 S
Eu1008 O1055 2.432 . S
Eu1008 O1056 2.291 . S
Eu1008 O1060 2.335 . S
Eu1008 O1063 2.372 . S
Eu1008 C1072 2.787 . S
C1009 N1010 1.365 . S
C1009 C1012 1.405 . S
C1009 C1016 1.448 . S
N1010 C1009 1.365 . S
N1010 C1013 1.319 . S
N1010 Eu1019 2.600 . S
C1011 C1013 1.397 . S
C1011 C1014 1.367 . S
C1011 H1031 0.931 . S
C1012 C1009 1.405 . S
C1012 C1014 1.403 . S
C1012 C1018 1.439 . S
C1013 N1010 1.319 . S
C1013 C1011 1.397 . S
C1013 H1024 0.930 . S
C1014 C1011 1.367 . S
C1014 C1012 1.403 . S
C1014 H1035 0.929 . S
C1015 C1016 1.430 . S
C1015 C1017 1.387 . S
C1015 C1021 1.404 . S
C1016 C1009 1.448 . S
C1016 C1015 1.430 . S
C1016 N1020 1.351 . S
C1017 C1015 1.387 . S
C1017 C1018 1.374 . S
C1017 H1032 0.931 . S
C1018 C1012 1.439 . S
C1018 C1017 1.374 . S
C1018 H1033 0.931 . S
Eu1019 N1010 2.600 . S
Eu1019 N1020 2.562 . S
Eu1019 O1054 2.335 1_554 S
Eu1019 O1057 2.372 . S
Eu1019 O1058 2.462 . S
Eu1019 O1059 2.373 . S
Eu1019 O1061 2.432 . S
Eu1019 O1062 2.291 . S
Eu1019 C1083 2.787 . S
N1020 C1016 1.351 . S
N1020 Eu1019 2.562 . S
N1020 C1022 1.325 . S
C1021 C1015 1.404 . S
C1021 C1023 1.366 . S
C1021 H1029 0.930 . S
C1022 N1020 1.325 . S
C1022 C1023 1.416 . S
C1022 H1028 0.929 . S
C1023 C1021 1.366 . S
C1023 C1022 1.416 . S
C1023 H1025 0.930 . S
H1024 C1013 0.930 . S
H1025 C1023 0.930 . S
H1026 C1041 0.930 1_554 S
H1027 C1048 0.930 . S
H1028 C1022 0.929 . S
H1029 C1021 0.930 . S
H1030 C1044 0.928 1_554 S
H1031 C1011 0.931 . S
H1032 C1017 0.931 . S
H1033 C1018 0.931 . S
H1034 C1039 0.931 . S
H1035 C1014 0.929 . S
H1036 C1047 0.930 . S
N1037 Eu1008 2.600 1_556 S
N1037 C1038 1.365 . S
N1037 C1041 1.319 . S
C1038 N1037 1.365 . S
C1038 C1040 1.405 . S
C1038 C1046 1.448 . S
C1039 H1034 0.931 . S
C1039 C1041 1.397 . S
C1039 C1042 1.367 . S
C1040 C1038 1.405 . S
C1040 C1042 1.403 . S
C1040 C1073 1.439 . S
C1041 H1026 0.930 1_556 S
C1041 N1037 1.319 . S
C1041 C1039 1.397 . S
C1042 C1039 1.367 . S
C1042 C1040 1.403 . S
C1042 H1049 0.929 . S
N1043 Eu1008 2.562 1_556 S
N1043 C1044 1.325 . S
N1043 C1046 1.351 . S
C1044 H1030 0.928 1_556 S
C1044 N1043 1.325 . S
C1044 C1048 1.416 . S
C1045 C1046 1.430 . S
C1045 C1047 1.404 . S
C1045 C1074 1.387 . S
C1046 C1038 1.448 . S
C1046 N1043 1.351 . S
C1046 C1045 1.430 . S
C1047 H1036 0.930 . S
C1047 C1045 1.404 . S
C1047 C1048 1.366 . S
C1048 H1027 0.930 . S
C1048 C1044 1.416 . S
C1048 C1047 1.366 . S
H1049 C1042 0.929 . S
H1050 C1073 0.931 . S
H1051 C1074 0.931 . S
O1052 Eu1008 2.462 . S
O1052 C1072 1.252 . S
O1053 Eu1008 2.373 1_556 S
O1053 C1064 1.249 . S
O1054 Eu1019 2.335 1_556 S
O1054 C1064 1.264 . S
O1055 Eu1008 2.432 . S
O1055 C1072 1.268 . S
O1056 Eu1008 2.291 . S
O1056 C1071 1.255 . S
O1057 Eu1019 2.372 . S
O1057 C1071 1.257 . S
O1058 Eu1019 2.462 . S
O1058 C1083 1.252 . S
O1059 Eu1019 2.373 . S
O1059 C1075 1.249 . S
O1060 Eu1008 2.335 . S
O1060 C1075 1.264 . S
O1061 Eu1019 2.432 . S
O1061 C1083 1.268 . S
O1062 Eu1019 2.291 . S
O1062 C1082 1.255 . S
O1063 Eu1008 2.372 . S
O1063 C1082 1.257 . S
C1064 O1053 1.249 . S
C1064 O1054 1.264 . S
C1065 C1068 1.382 . S
C1065 C1070 1.390 . S
C1065 C1072 1.506 . S
C1066 C1067 1.398 . S
C1066 C1070 1.392 . S
C1067 C1066 1.398 . S
C1067 C1069 1.372 . S
C1067 H1084 0.931 . S
C1068 C1065 1.382 . S
C1068 C1069 1.390 . S
C1068 H1085 0.931 . S
C1069 C1067 1.372 . S
C1069 C1068 1.390 . S
C1069 H1086 0.929 . S
C1070 C1065 1.390 . S
C1070 C1066 1.392 . S
C1070 H1087 0.930 . S
C1071 O1056 1.255 . S
C1071 O1057 1.257 . S
C1072 Eu1008 2.787 . S
C1072 O1052 1.252 . S
C1072 O1055 1.268 . S
C1072 C1065 1.506 . S
C1073 C1040 1.439 . S
C1073 H1050 0.931 . S
C1073 C1074 1.374 . S
C1074 C1045 1.387 . S
C1074 H1051 0.931 . S
C1074 C1073 1.374 . S
C1075 O1059 1.249 . S
C1075 O1060 1.264 . S
C1076 C1079 1.382 . S
C1076 C1080 1.390 . S
C1076 C1083 1.506 1_556 S
C1077 C1078 1.398 . S
C1077 C1080 1.392 . S
C1078 C1077 1.398 . S
C1078 C1081 1.372 . S
C1078 H1088 0.931 . S
C1079 C1076 1.382 . S
C1079 C1081 1.390 . S
C1079 H1089 0.950 . S
C1080 C1076 1.390 . S
C1080 C1077 1.392 . S
C1080 H1090 0.930 . S
C1081 C1078 1.372 . S
C1081 C1079 1.390 . S
C1081 H1091 0.929 . S
C1082 O1062 1.255 . S
C1082 O1063 1.257 . S
C1083 Eu1019 2.787 . S
C1083 O1058 1.252 . S
C1083 O1061 1.268 . S
C1083 C1076 1.506 1_554 S
H1084 C1067 0.931 . S
H1085 C1068 0.931 . S
H1086 C1069 0.929 . S
H1087 C1070 0.930 . S
H1088 C1078 0.931 . S
H1089 C1079 0.950 . S
H1090 C1080 0.930 . S
H1091 C1081 0.929 . S
Eu1092 N1121 2.600 . S
Eu1092 N1127 2.562 . S
Eu1092 O1136 2.462 . S
Eu1092 O1137 2.373 . S
Eu1092 O1139 2.432 . S
Eu1092 O1140 2.291 . S
Eu1092 O1144 2.335 . S
Eu1092 O1147 2.372 . S
Eu1092 C1156 2.787 . S
C1093 N1094 1.365 . S
C1093 C1096 1.405 . S
C1093 C1100 1.448 . S
N1094 C1093 1.365 . S
N1094 C1097 1.319 . S
N1094 Eu1103 2.600 . S
C1095 C1097 1.397 . S
C1095 C1098 1.367 . S
C1095 H1115 0.931 . S
C1096 C1093 1.405 . S
C1096 C1098 1.403 . S
C1096 C1102 1.439 . S
C1097 N1094 1.319 . S
C1097 C1095 1.397 . S
C1097 H1108 0.930 . S
C1098 C1095 1.367 . S
C1098 C1096 1.403 . S
C1098 H1119 0.929 . S
C1099 C1100 1.430 . S
C1099 C1101 1.387 . S
C1099 C1105 1.404 . S
C1100 C1093 1.448 . S
C1100 C1099 1.430 . S
C1100 N1104 1.351 . S
C1101 C1099 1.387 . S
C1101 C1102 1.374 . S
C1101 H1116 0.931 . S
C1102 C1096 1.439 . S
C1102 C1101 1.374 . S
C1102 H1117 0.931 . S
Eu1103 N1094 2.600 . S
Eu1103 N1104 2.562 . S
Eu1103 O1138 2.335 . S
Eu1103 O1141 2.372 . S
Eu1103 O1142 2.462 . S
Eu1103 O1143 2.373 . S
Eu1103 O1145 2.432 . S
Eu1103 O1146 2.291 . S
Eu1103 C1167 2.787 . S
N1104 C1100 1.351 . S
N1104 Eu1103 2.562 . S
N1104 C1106 1.325 . S
C1105 C1099 1.404 . S
C1105 C1107 1.366 . S
C1105 H1113 0.930 . S
C1106 N1104 1.325 . S
C1106 C1107 1.416 . S
C1106 H1112 0.929 . S
C1107 C1105 1.366 . S
C1107 C1106 1.416 . S
C1107 H1109 0.930 . S
H1108 C1097 0.930 . S
H1109 C1107 0.930 . S
H1110 C1125 0.930 . S
H1111 C1132 0.930 . S
H1112 C1106 0.929 . S
H1113 C1105 0.930 . S
H1114 C1128 0.929 . S
H1115 C1095 0.931 . S
H1116 C1101 0.931 . S
H1117 C1102 0.931 . S
H1118 C1123 0.931 . S
H1119 C1098 0.929 . S
H1120 C1131 0.930 . S
N1121 Eu1092 2.600 . S
N1121 C1122 1.365 . S
N1121 C1125 1.319 . S
C1122 N1121 1.365 . S
C1122 C1124 1.405 . S
C1122 C1130 1.448 . S
C1123 H1118 0.931 . S
C1123 C1125 1.397 . S
C1123 C1126 1.367 . S
C1124 C1122 1.405 . S
C1124 C1126 1.403 . S
C1124 C1157 1.439 . S
C1125 H1110 0.930 . S
C1125 N1121 1.319 . S
C1125 C1123 1.397 . S
C1126 C1123 1.367 . S
C1126 C1124 1.403 . S
C1126 H1133 0.929 . S
N1127 Eu1092 2.562 . S
N1127 C1128 1.325 . S
N1127 C1130 1.351 . S
C1128 H1114 0.929 . S
C1128 N1127 1.325 . S
C1128 C1132 1.416 . S
C1129 C1130 1.430 . S
C1129 C1131 1.404 . S
C1129 C1158 1.387 . S
C1130 C1122 1.448 . S
C1130 N1127 1.351 . S
C1130 C1129 1.430 . S
C1131 H1120 0.930 . S
C1131 C1129 1.404 . S
C1131 C1132 1.366 . S
C1132 H1111 0.930 . S
C1132 C1128 1.416 . S
C1132 C1131 1.366 . S
H1133 C1126 0.929 . S
H1134 C1157 0.931 . S
H1135 C1158 0.931 . S
O1136 Eu1092 2.462 . S
O1136 C1156 1.252 . S
O1137 Eu1092 2.373 . S
O1137 C1148 1.249 . S
O1138 Eu1103 2.335 . S
O1138 C1148 1.264 . S
O1139 Eu1092 2.432 . S
O1139 C1156 1.268 . S
O1140 Eu1092 2.291 . S
O1140 C1155 1.255 . S
O1141 Eu1103 2.372 . S
O1141 C1155 1.257 . S
O1142 Eu1103 2.462 . S
O1142 C1167 1.252 . S
O1143 Eu1103 2.373 . S
O1143 C1159 1.249 . S
O1144 Eu1092 2.335 . S
O1144 C1159 1.264 . S
O1145 Eu1103 2.432 . S
O1145 C1167 1.268 . S
O1146 Eu1103 2.291 . S
O1146 C1166 1.255 . S
O1147 Eu1092 2.372 . S
O1147 C1166 1.257 . S
C1148 O1137 1.249 . S
C1148 O1138 1.264 . S
C1149 C1152 1.382 . S
C1149 C1154 1.390 . S
C1149 C1156 1.506 . S
C1150 C1151 1.398 . S
C1150 C1154 1.392 . S
C1151 C1150 1.398 . S
C1151 C1153 1.372 . S
C1151 H1168 0.931 . S
C1152 C1149 1.382 . S
C1152 C1153 1.390 . S
C1152 H1169 0.931 . S
C1153 C1151 1.372 . S
C1153 C1152 1.390 . S
C1153 H1170 0.929 . S
C1154 C1149 1.390 . S
C1154 C1150 1.392 . S
C1154 H1171 0.930 . S
C1155 O1140 1.255 . S
C1155 O1141 1.257 . S
C1156 Eu1092 2.787 . S
C1156 O1136 1.252 . S
C1156 O1139 1.268 . S
C1156 C1149 1.506 . S
C1157 C1124 1.439 . S
C1157 H1134 0.931 . S
C1157 C1158 1.374 . S
C1158 C1129 1.387 . S
C1158 H1135 0.931 . S
C1158 C1157 1.374 . S
C1159 O1143 1.249 . S
C1159 O1144 1.264 . S
C1160 C1163 1.382 . S
C1160 C1164 1.390 . S
C1160 C1167 1.506 . S
C1161 C1162 1.398 . S
C1161 C1164 1.392 . S
C1162 C1161 1.398 . S
C1162 C1165 1.372 . S
C1162 H1172 0.931 . S
C1163 C1160 1.382 . S
C1163 C1165 1.390 . S
C1163 H1173 0.931 . S
C1164 C1160 1.390 . S
C1164 C1161 1.392 . S
C1164 H1174 0.930 . S
C1165 C1162 1.372 . S
C1165 C1163 1.390 . S
C1165 H1175 0.929 . S
C1166 O1146 1.255 . S
C1166 O1147 1.257 . S
C1167 Eu1103 2.787 . S
C1167 O1142 1.252 . S
C1167 O1145 1.268 . S
C1167 C1160 1.506 . S
H1168 C1151 0.931 . S
H1169 C1152 0.931 . S
H1170 C1153 0.929 . S
H1171 C1154 0.930 . S
H1172 C1162 0.931 . S
H1173 C1163 0.931 . S
H1174 C1164 0.930 . S
H1175 C1165 0.929 . S
Eu1176 N1205 2.600 1_455 S
Eu1176 N1211 2.562 1_455 S
Eu1176 O1220 2.462 . S
Eu1176 O1221 2.373 1_455 S
Eu1176 O1223 2.432 . S
Eu1176 O1224 2.291 . S
Eu1176 O1228 2.335 . S
Eu1176 O1231 2.372 . S
Eu1176 C1240 2.787 . S
C1177 N1178 1.365 . S
C1177 C1180 1.405 . S
C1177 C1184 1.448 . S
N1178 C1177 1.365 . S
N1178 C1181 1.319 . S
N1178 Eu1187 2.600 . S
C1179 C1181 1.397 . S
C1179 C1182 1.367 . S
C1179 H1199 0.931 . S
C1180 C1177 1.405 . S
C1180 C1182 1.403 . S
C1180 C1186 1.439 . S
C1181 N1178 1.319 . S
C1181 C1179 1.397 . S
C1181 H1192 0.930 . S
C1182 C1179 1.367 . S
C1182 C1180 1.403 . S
C1182 H1203 0.929 . S
C1183 C1184 1.430 . S
C1183 C1185 1.387 . S
C1183 C1189 1.404 . S
C1184 C1177 1.448 . S
C1184 C1183 1.430 . S
C1184 N1188 1.351 . S
C1185 C1183 1.387 . S
C1185 C1186 1.374 . S
C1185 H1200 0.931 . S
C1186 C1180 1.439 . S
C1186 C1185 1.374 . S
C1186 H1201 0.931 . S
Eu1187 N1178 2.600 . S
Eu1187 N1188 2.562 . S
Eu1187 O1222 2.335 1_455 S
Eu1187 O1225 2.372 . S
Eu1187 O1226 2.462 . S
Eu1187 O1227 2.373 . S
Eu1187 O1229 2.432 . S
Eu1187 O1230 2.291 . S
Eu1187 C1251 2.787 . S
N1188 C1184 1.351 . S
N1188 Eu1187 2.562 . S
N1188 C1190 1.325 . S
C1189 C1183 1.404 . S
C1189 C1191 1.366 . S
C1189 H1197 0.930 . S
C1190 N1188 1.325 . S
C1190 C1191 1.416 . S
C1190 H1196 0.929 . S
C1191 C1189 1.366 . S
C1191 C1190 1.416 . S
C1191 H1193 0.930 . S
H1192 C1181 0.930 . S
H1193 C1191 0.930 . S
H1194 C1209 0.912 1_455 S
H1195 C1216 0.930 . S
H1196 C1190 0.929 . S
H1197 C1189 0.930 . S
H1198 C1212 0.929 1_455 S
H1199 C1179 0.931 . S
H1200 C1185 0.931 . S
H1201 C1186 0.931 . S
H1202 C1207 0.931 . S
H1203 C1182 0.929 . S
H1204 C1215 0.930 . S
N1205 Eu1176 2.600 1_655 S
N1205 C1206 1.365 . S
N1205 C1209 1.315 . S
C1206 N1205 1.365 . S
C1206 C1208 1.405 . S
C1206 C1214 1.448 . S
C1207 H1202 0.931 . S
C1207 C1209 1.419 . S
C1207 C1210 1.367 . S
C1208 C1206 1.405 . S
C1208 C1210 1.403 . S
C1208 C1241 1.439 . S
C1209 H1194 0.912 1_655 S
C1209 N1205 1.315 . S
C1209 C1207 1.419 . S
C1210 C1207 1.367 . S
C1210 C1208 1.403 . S
C1210 H1217 0.929 . S
N1211 Eu1176 2.562 1_655 S
N1211 C1212 1.325 . S
N1211 C1214 1.351 . S
C1212 H1198 0.929 1_655 S
C1212 N1211 1.325 . S
C1212 C1216 1.416 . S
C1213 C1214 1.430 . S
C1213 C1215 1.404 . S
C1213 C1242 1.387 . S
C1214 C1206 1.448 . S
C1214 N1211 1.351 . S
C1214 C1213 1.430 . S
C1215 H1204 0.930 . S
C1215 C1213 1.404 . S
C1215 C1216 1.366 . S
C1216 H1195 0.930 . S
C1216 C1212 1.416 . S
C1216 C1215 1.366 . S
H1217 C1210 0.929 . S
H1218 C1241 0.931 . S
H1219 C1242 0.931 . S
O1220 Eu1176 2.462 . S
O1220 C1240 1.252 . S
O1221 Eu1176 2.373 1_655 S
O1221 C1232 1.249 . S
O1222 Eu1187 2.335 1_655 S
O1222 C1232 1.264 . S
O1223 Eu1176 2.432 . S
O1223 C1240 1.268 . S
O1224 Eu1176 2.291 . S
O1224 C1239 1.255 . S
O1225 Eu1187 2.372 . S
O1225 C1239 1.257 . S
O1226 Eu1187 2.462 . S
O1226 C1251 1.252 . S
O1227 Eu1187 2.373 . S
O1227 C1243 1.249 . S
O1228 Eu1176 2.335 . S
O1228 C1243 1.264 . S
O1229 Eu1187 2.432 . S
O1229 C1251 1.268 . S
O1230 Eu1187 2.291 . S
O1230 C1250 1.255 . S
O1231 Eu1176 2.372 . S
O1231 C1250 1.257 . S
C1232 O1221 1.249 . S
C1232 O1222 1.264 . S
C1233 C1236 1.382 . S
C1233 C1238 1.390 . S
C1233 C1240 1.506 . S
C1234 C1235 1.398 . S
C1234 C1238 1.392 . S
C1235 C1234 1.398 . S
C1235 C1237 1.372 . S
C1235 H1252 0.931 . S
C1236 C1233 1.382 . S
C1236 C1237 1.390 . S
C1236 H1253 0.931 . S
C1237 C1235 1.372 . S
C1237 C1236 1.390 . S
C1237 H1254 0.929 . S
C1238 C1233 1.390 . S
C1238 C1234 1.392 . S
C1238 H1255 0.930 . S
C1239 O1224 1.255 . S
C1239 O1225 1.257 . S
C1240 Eu1176 2.787 . S
C1240 O1220 1.252 . S
C1240 O1223 1.268 . S
C1240 C1233 1.506 . S
C1241 C1208 1.439 . S
C1241 H1218 0.931 . S
C1241 C1242 1.374 . S
C1242 C1213 1.387 . S
C1242 H1219 0.931 . S
C1242 C1241 1.374 . S
C1243 O1227 1.249 . S
C1243 O1228 1.264 . S
C1244 C1247 1.382 . S
C1244 C1248 1.390 . S
C1244 C1251 1.506 1_655 S
C1245 C1246 1.398 . S
C1245 C1248 1.392 . S
C1246 C1245 1.398 . S
C1246 C1249 1.372 . S
C1246 H1256 0.931 . S
C1247 C1244 1.382 . S
C1247 C1249 1.390 . S
C1247 H1257 0.931 . S
C1248 C1244 1.390 . S
C1248 C1245 1.392 . S
C1248 H1258 0.930 . S
C1249 C1246 1.372 . S
C1249 C1247 1.390 . S
C1249 H1259 0.929 . S
C1250 O1230 1.255 . S
C1250 O1231 1.257 . S
C1251 Eu1187 2.787 . S
C1251 O1226 1.252 . S
C1251 O1229 1.268 . S
C1251 C1244 1.506 1_455 S
H1252 C1235 0.931 . S
H1253 C1236 0.931 . S
H1254 C1237 0.929 . S
H1255 C1238 0.930 . S
H1256 C1246 0.931 . S
H1257 C1247 0.931 . S
H1258 C1248 0.930 . S
H1259 C1249 0.929 . S
Eu1260 N1289 2.600 . S
Eu1260 N1295 2.562 . S
Eu1260 O1304 2.462 . S
Eu1260 O1305 2.373 . S
Eu1260 O1307 2.432 . S
Eu1260 O1308 2.291 . S
Eu1260 O1312 2.335 . S
Eu1260 O1315 2.372 . S
Eu1260 C1324 2.787 . S
C1261 N1262 1.365 . S
C1261 C1264 1.405 . S
C1261 C1268 1.448 . S
N1262 C1261 1.365 . S
N1262 C1265 1.319 . S
N1262 Eu1271 2.600 . S
C1263 C1265 1.397 . S
C1263 C1266 1.367 . S
C1263 H1283 0.931 . S
C1264 C1261 1.405 . S
C1264 C1266 1.403 . S
C1264 C1270 1.439 . S
C1265 N1262 1.319 . S
C1265 C1263 1.397 . S
C1265 H1276 0.930 . S
C1266 C1263 1.367 . S
C1266 C1264 1.403 . S
C1266 H1287 0.929 . S
C1267 C1268 1.430 . S
C1267 C1269 1.387 . S
C1267 C1273 1.404 . S
C1268 C1261 1.448 . S
C1268 C1267 1.430 . S
C1268 N1272 1.351 . S
C1269 C1267 1.387 . S
C1269 C1270 1.374 . S
C1269 H1284 0.931 . S
C1270 C1264 1.439 . S
C1270 C1269 1.374 . S
C1270 H1285 0.931 . S
Eu1271 N1262 2.600 . S
Eu1271 N1272 2.562 . S
Eu1271 O1306 2.335 . S
Eu1271 O1309 2.372 . S
Eu1271 O1310 2.462 . S
Eu1271 O1311 2.373 . S
Eu1271 O1313 2.432 . S
Eu1271 O1314 2.291 . S
Eu1271 C1335 2.787 . S
N1272 C1268 1.351 . S
N1272 Eu1271 2.562 . S
N1272 C1274 1.325 . S
C1273 C1267 1.404 . S
C1273 C1275 1.366 . S
C1273 H1281 0.930 . S
C1274 N1272 1.325 . S
C1274 C1275 1.416 . S
C1274 H1280 0.929 . S
C1275 C1273 1.366 . S
C1275 C1274 1.416 . S
C1275 H1277 0.930 . S
H1276 C1265 0.930 . S
H1277 C1275 0.930 . S
H1278 C1293 0.930 . S
H1279 C1300 0.930 . S
H1280 C1274 0.929 . S
H1281 C1273 0.930 . S
H1282 C1296 0.929 . S
H1283 C1263 0.931 . S
H1284 C1269 0.931 . S
H1285 C1270 0.931 . S
H1286 C1291 0.931 . S
H1287 C1266 0.929 . S
H1288 C1299 0.930 . S
N1289 Eu1260 2.600 . S
N1289 C1290 1.365 . S
N1289 C1293 1.319 . S
C1290 N1289 1.365 . S
C1290 C1292 1.405 . S
C1290 C1298 1.448 . S
C1291 H1286 0.931 . S
C1291 C1293 1.397 . S
C1291 C1294 1.367 . S
C1292 C1290 1.405 . S
C1292 C1294 1.403 . S
C1292 C1325 1.439 . S
C1293 H1278 0.930 . S
C1293 N1289 1.319 . S
C1293 C1291 1.397 . S
C1294 C1291 1.367 . S
C1294 C1292 1.403 . S
C1294 H1301 0.929 . S
N1295 Eu1260 2.562 . S
N1295 C1296 1.325 . S
N1295 C1298 1.351 . S
C1296 H1282 0.929 . S
C1296 N1295 1.325 . S
C1296 C1300 1.416 . S
C1297 C1298 1.430 . S
C1297 C1299 1.404 . S
C1297 C1326 1.387 . S
C1298 C1290 1.448 . S
C1298 N1295 1.351 . S
C1298 C1297 1.430 . S
C1299 H1288 0.930 . S
C1299 C1297 1.404 . S
C1299 C1300 1.366 . S
C1300 H1279 0.930 . S
C1300 C1296 1.416 . S
C1300 C1299 1.366 . S
H1301 C1294 0.929 . S
H1302 C1325 0.931 . S
H1303 C1326 0.931 . S
O1304 Eu1260 2.462 . S
O1304 C1324 1.252 . S
O1305 Eu1260 2.373 . S
O1305 C1316 1.249 . S
O1306 Eu1271 2.335 . S
O1306 C1316 1.264 . S
O1307 Eu1260 2.432 . S
O1307 C1324 1.268 . S
O1308 Eu1260 2.291 . S
O1308 C1323 1.255 . S
O1309 Eu1271 2.372 . S
O1309 C1323 1.257 . S
O1310 Eu1271 2.462 . S
O1310 C1335 1.252 . S
O1311 Eu1271 2.373 . S
O1311 C1327 1.249 . S
O1312 Eu1260 2.335 . S
O1312 C1327 1.264 . S
O1313 Eu1271 2.432 . S
O1313 C1335 1.268 . S
O1314 Eu1271 2.291 . S
O1314 C1334 1.255 . S
O1315 Eu1260 2.372 . S
O1315 C1334 1.257 . S
C1316 O1305 1.249 . S
C1316 O1306 1.264 . S
C1317 C1320 1.382 . S
C1317 C1322 1.390 . S
C1317 C1324 1.506 . S
C1318 C1319 1.398 . S
C1318 C1322 1.392 . S
C1319 C1318 1.398 . S
C1319 C1321 1.372 . S
C1319 H1336 0.931 . S
C1320 C1317 1.382 . S
C1320 C1321 1.390 . S
C1320 H1337 0.931 . S
C1321 C1319 1.372 . S
C1321 C1320 1.390 . S
C1321 H1338 0.929 . S
C1322 C1317 1.390 . S
C1322 C1318 1.392 . S
C1322 H1339 0.930 . S
C1323 O1308 1.255 . S
C1323 O1309 1.257 . S
C1324 Eu1260 2.787 . S
C1324 O1304 1.252 . S
C1324 O1307 1.268 . S
C1324 C1317 1.506 . S
C1325 C1292 1.439 . S
C1325 H1302 0.931 . S
C1325 C1326 1.374 . S
C1326 C1297 1.387 . S
C1326 H1303 0.931 . S
C1326 C1325 1.374 . S
C1327 O1311 1.249 . S
C1327 O1312 1.264 . S
C1328 C1331 1.382 . S
C1328 C1332 1.390 . S
C1328 C1335 1.506 . S
C1329 C1330 1.398 . S
C1329 C1332 1.392 . S
C1330 C1329 1.398 . S
C1330 C1333 1.372 . S
C1330 H1340 0.931 . S
C1331 C1328 1.382 . S
C1331 C1333 1.390 . S
C1331 H1341 0.931 . S
C1332 C1328 1.390 . S
C1332 C1329 1.392 . S
C1332 H1342 0.930 . S
C1333 C1330 1.372 . S
C1333 C1331 1.390 . S
C1333 H1343 0.929 . S
C1334 O1314 1.255 . S
C1334 O1315 1.257 . S
C1335 Eu1271 2.787 . S
C1335 O1310 1.252 . S
C1335 O1313 1.268 . S
C1335 C1328 1.506 . S
H1336 C1319 0.931 . S
H1337 C1320 0.931 . S
H1338 C1321 0.929 . S
H1339 C1322 0.930 . S
H1340 C1330 0.931 . S
H1341 C1331 0.931 . S
H1342 C1332 0.930 . S
H1343 C1333 0.929 . S
Eu1344 N1373 2.600 . S
Eu1344 N1379 2.562 . S
Eu1344 O1388 2.462 . S
Eu1344 O1389 2.373 . S
Eu1344 O1391 2.432 . S
Eu1344 O1392 2.291 . S
Eu1344 O1396 2.335 . S
Eu1344 O1399 2.372 . S
Eu1344 C1408 2.787 . S
C1345 N1346 1.365 . S
C1345 C1348 1.405 . S
C1345 C1352 1.448 . S
N1346 C1345 1.365 . S
N1346 C1349 1.319 . S
N1346 Eu1355 2.600 . S
C1347 C1349 1.397 . S
C1347 C1350 1.367 . S
C1347 H1367 0.931 . S
C1348 C1345 1.405 . S
C1348 C1350 1.403 . S
C1348 C1354 1.439 . S
C1349 N1346 1.319 . S
C1349 C1347 1.397 . S
C1349 H1360 0.930 . S
C1350 C1347 1.367 . S
C1350 C1348 1.403 . S
C1350 H1371 0.929 . S
C1351 C1352 1.430 . S
C1351 C1353 1.387 . S
C1351 C1357 1.404 . S
C1352 C1345 1.448 . S
C1352 C1351 1.430 . S
C1352 N1356 1.351 . S
C1353 C1351 1.387 . S
C1353 C1354 1.374 . S
C1353 H1368 0.931 . S
C1354 C1348 1.439 . S
C1354 C1353 1.374 . S
C1354 H1369 0.931 . S
Eu1355 N1346 2.600 . S
Eu1355 N1356 2.562 . S
Eu1355 O1390 2.335 . S
Eu1355 O1393 2.372 . S
Eu1355 O1394 2.462 . S
Eu1355 O1395 2.373 . S
Eu1355 O1397 2.432 . S
Eu1355 O1398 2.291 . S
Eu1355 C1419 2.787 . S
N1356 C1352 1.351 . S
N1356 Eu1355 2.562 . S
N1356 C1358 1.325 . S
C1357 C1351 1.404 . S
C1357 C1359 1.366 . S
C1357 H1365 0.930 . S
C1358 N1356 1.325 . S
C1358 C1359 1.416 . S
C1358 H1364 0.929 . S
C1359 C1357 1.366 . S
C1359 C1358 1.416 . S
C1359 H1361 0.930 . S
H1360 C1349 0.930 . S
H1361 C1359 0.930 . S
H1362 C1377 0.930 . S
H1363 C1384 0.930 . S
H1364 C1358 0.929 . S
H1365 C1357 0.930 . S
H1366 C1380 0.929 . S
H1367 C1347 0.931 . S
H1368 C1353 0.931 . S
H1369 C1354 0.931 . S
H1370 C1375 0.931 . S
H1371 C1350 0.929 . S
H1372 C1383 0.930 . S
N1373 Eu1344 2.600 . S
N1373 C1374 1.365 . S
N1373 C1377 1.319 . S
C1374 N1373 1.365 . S
C1374 C1376 1.405 . S
C1374 C1382 1.448 . S
C1375 H1370 0.931 . S
C1375 C1377 1.397 . S
C1375 C1378 1.367 . S
C1376 C1374 1.405 . S
C1376 C1378 1.403 . S
C1376 C1409 1.439 . S
C1377 H1362 0.930 . S
C1377 N1373 1.319 . S
C1377 C1375 1.397 . S
C1378 C1375 1.367 . S
C1378 C1376 1.403 . S
C1378 H1385 0.929 . S
N1379 Eu1344 2.562 . S
N1379 C1380 1.325 . S
N1379 C1382 1.351 . S
C1380 H1366 0.929 . S
C1380 N1379 1.325 . S
C1380 C1384 1.416 . S
C1381 C1382 1.430 . S
C1381 C1383 1.404 . S
C1381 C1410 1.387 . S
C1382 C1374 1.448 . S
C1382 N1379 1.351 . S
C1382 C1381 1.430 . S
C1383 H1372 0.930 . S
C1383 C1381 1.404 . S
C1383 C1384 1.366 . S
C1384 H1363 0.930 . S
C1384 C1380 1.416 . S
C1384 C1383 1.366 . S
H1385 C1378 0.929 . S
H1386 C1409 0.931 . S
H1387 C1410 0.931 . S
O1388 Eu1344 2.462 . S
O1388 C1408 1.252 . S
O1389 Eu1344 2.373 . S
O1389 C1400 1.249 . S
O1390 Eu1355 2.335 . S
O1390 C1400 1.264 . S
O1391 Eu1344 2.432 . S
O1391 C1408 1.268 . S
O1392 Eu1344 2.291 . S
O1392 C1407 1.255 . S
O1393 Eu1355 2.372 . S
O1393 C1407 1.257 . S
O1394 Eu1355 2.462 . S
O1394 C1419 1.252 . S
O1395 Eu1355 2.373 . S
O1395 C1411 1.249 . S
O1396 Eu1344 2.335 . S
O1396 C1411 1.264 . S
O1397 Eu1355 2.432 . S
O1397 C1419 1.268 . S
O1398 Eu1355 2.291 . S
O1398 C1418 1.255 . S
O1399 Eu1344 2.372 . S
O1399 C1418 1.257 . S
C1400 O1389 1.249 . S
C1400 O1390 1.264 . S
C1401 C1404 1.382 . S
C1401 C1406 1.390 . S
C1401 C1408 1.506 . S
C1402 C1403 1.398 . S
C1402 C1406 1.392 . S
C1403 C1402 1.398 . S
C1403 C1405 1.372 . S
C1403 H1420 0.931 . S
C1404 C1401 1.382 . S
C1404 C1405 1.390 . S
C1404 H1421 0.931 . S
C1405 C1403 1.372 . S
C1405 C1404 1.390 . S
C1405 H1422 0.929 . S
C1406 C1401 1.390 . S
C1406 C1402 1.392 . S
C1406 H1423 0.930 . S
C1407 O1392 1.255 . S
C1407 O1393 1.257 . S
C1408 Eu1344 2.787 . S
C1408 O1388 1.252 . S
C1408 O1391 1.268 . S
C1408 C1401 1.506 . S
C1409 C1376 1.439 . S
C1409 H1386 0.931 . S
C1409 C1410 1.374 . S
C1410 C1381 1.387 . S
C1410 H1387 0.931 . S
C1410 C1409 1.374 . S
C1411 O1395 1.249 . S
C1411 O1396 1.264 . S
C1412 C1415 1.382 . S
C1412 C1416 1.390 . S
C1412 C1419 1.506 . S
C1413 C1414 1.398 . S
C1413 C1416 1.392 . S
C1414 C1413 1.398 . S
C1414 C1417 1.372 . S
C1414 H1424 0.931 . S
C1415 C1412 1.382 . S
C1415 C1417 1.390 . S
C1415 H1425 0.931 . S
C1416 C1412 1.390 . S
C1416 C1413 1.392 . S
C1416 H1426 0.930 . S
C1417 C1414 1.372 . S
C1417 C1415 1.390 . S
C1417 H1427 0.929 . S
C1418 O1398 1.255 . S
C1418 O1399 1.257 . S
C1419 Eu1355 2.787 . S
C1419 O1394 1.252 . S
C1419 O1397 1.268 . S
C1419 C1412 1.506 . S
H1420 C1403 0.931 . S
H1421 C1404 0.931 . S
H1422 C1405 0.929 . S
H1423 C1406 0.930 . S
H1424 C1414 0.931 . S
H1425 C1415 0.931 . S
H1426 C1416 0.930 . S
H1427 C1417 0.929 . S
Eu1428 N1457 2.600 . S
Eu1428 N1463 2.562 . S
Eu1428 O1472 2.462 . S
Eu1428 O1473 2.373 . S
Eu1428 O1475 2.432 . S
Eu1428 O1476 2.291 . S
Eu1428 O1480 2.335 . S
Eu1428 O1483 2.372 . S
Eu1428 C1492 2.787 . S
C1429 N1430 1.365 . S
C1429 C1432 1.405 . S
C1429 C1436 1.448 . S
N1430 C1429 1.365 . S
N1430 C1433 1.319 . S
N1430 Eu1439 2.600 . S
C1431 C1433 1.397 . S
C1431 C1434 1.367 . S
C1431 H1451 0.931 . S
C1432 C1429 1.405 . S
C1432 C1434 1.403 . S
C1432 C1438 1.439 . S
C1433 N1430 1.319 . S
C1433 C1431 1.397 . S
C1433 H1444 0.930 . S
C1434 C1431 1.367 . S
C1434 C1432 1.403 . S
C1434 H1455 0.929 . S
C1435 C1436 1.430 . S
C1435 C1437 1.387 . S
C1435 C1441 1.404 . S
C1436 C1429 1.448 . S
C1436 C1435 1.430 . S
C1436 N1440 1.351 . S
C1437 C1435 1.387 . S
C1437 C1438 1.374 . S
C1437 H1452 0.931 . S
C1438 C1432 1.439 . S
C1438 C1437 1.374 . S
C1438 H1453 0.931 . S
Eu1439 N1430 2.600 . S
Eu1439 N1440 2.562 . S
Eu1439 O1474 2.335 . S
Eu1439 O1477 2.372 . S
Eu1439 O1478 2.462 . S
Eu1439 O1479 2.373 . S
Eu1439 O1481 2.432 . S
Eu1439 O1482 2.291 . S
Eu1439 C1503 2.787 . S
N1440 C1436 1.351 . S
N1440 Eu1439 2.562 . S
N1440 C1442 1.325 . S
C1441 C1435 1.404 . S
C1441 C1443 1.366 . S
C1441 H1449 0.930 . S
C1442 N1440 1.325 . S
C1442 C1443 1.416 . S
C1442 H1448 0.929 . S
C1443 C1441 1.366 . S
C1443 C1442 1.416 . S
C1443 H1445 0.930 . S
H1444 C1433 0.930 . S
H1445 C1443 0.930 . S
H1446 C1461 0.930 . S
H1447 C1468 0.930 . S
H1448 C1442 0.929 . S
H1449 C1441 0.930 . S
H1450 C1464 0.929 . S
H1451 C1431 0.931 . S
H1452 C1437 0.931 . S
H1453 C1438 0.931 . S
H1454 C1459 0.931 . S
H1455 C1434 0.929 . S
H1456 C1467 0.930 . S
N1457 Eu1428 2.600 . S
N1457 C1458 1.365 . S
N1457 C1461 1.319 . S
C1458 N1457 1.365 . S
C1458 C1460 1.405 . S
C1458 C1466 1.448 . S
C1459 H1454 0.931 . S
C1459 C1461 1.397 . S
C1459 C1462 1.367 . S
C1460 C1458 1.405 . S
C1460 C1462 1.403 . S
C1460 C1493 1.439 . S
C1461 H1446 0.930 . S
C1461 N1457 1.319 . S
C1461 C1459 1.397 . S
C1462 C1459 1.367 . S
C1462 C1460 1.403 . S
C1462 H1469 0.929 . S
N1463 Eu1428 2.562 . S
N1463 C1464 1.325 . S
N1463 C1466 1.351 . S
C1464 H1450 0.929 . S
C1464 N1463 1.325 . S
C1464 C1468 1.416 . S
C1465 C1466 1.430 . S
C1465 C1467 1.404 . S
C1465 C1494 1.387 . S
C1466 C1458 1.448 . S
C1466 N1463 1.351 . S
C1466 C1465 1.430 . S
C1467 H1456 0.930 . S
C1467 C1465 1.404 . S
C1467 C1468 1.366 . S
C1468 H1447 0.930 . S
C1468 C1464 1.416 . S
C1468 C1467 1.366 . S
H1469 C1462 0.929 . S
H1470 C1493 0.931 . S
H1471 C1494 0.931 . S
O1472 Eu1428 2.462 . S
O1472 C1492 1.252 . S
O1473 Eu1428 2.373 . S
O1473 C1484 1.249 . S
O1474 Eu1439 2.335 . S
O1474 C1484 1.264 . S
O1475 Eu1428 2.432 . S
O1475 C1492 1.268 . S
O1476 Eu1428 2.291 . S
O1476 C1491 1.255 . S
O1477 Eu1439 2.372 . S
O1477 C1491 1.257 . S
O1478 Eu1439 2.462 . S
O1478 C1503 1.252 . S
O1479 Eu1439 2.373 . S
O1479 C1495 1.249 . S
O1480 Eu1428 2.335 . S
O1480 C1495 1.264 . S
O1481 Eu1439 2.432 . S
O1481 C1503 1.268 . S
O1482 Eu1439 2.291 . S
O1482 C1502 1.255 . S
O1483 Eu1428 2.372 . S
O1483 C1502 1.257 . S
C1484 O1473 1.249 . S
C1484 O1474 1.264 . S
C1485 C1488 1.382 . S
C1485 C1490 1.390 . S
C1485 C1492 1.506 . S
C1486 C1487 1.398 . S
C1486 C1490 1.392 . S
C1487 C1486 1.398 . S
C1487 C1489 1.372 . S
C1487 H1504 0.931 . S
C1488 C1485 1.382 . S
C1488 C1489 1.390 . S
C1488 H1505 0.931 . S
C1489 C1487 1.372 . S
C1489 C1488 1.390 . S
C1489 H1506 0.929 . S
C1490 C1485 1.390 . S
C1490 C1486 1.392 . S
C1490 H1507 0.930 . S
C1491 O1476 1.255 . S
C1491 O1477 1.257 . S
C1492 Eu1428 2.787 . S
C1492 O1472 1.252 . S
C1492 O1475 1.268 . S
C1492 C1485 1.506 . S
C1493 C1460 1.439 . S
C1493 H1470 0.931 . S
C1493 C1494 1.374 . S
C1494 C1465 1.387 . S
C1494 H1471 0.931 . S
C1494 C1493 1.374 . S
C1495 O1479 1.249 . S
C1495 O1480 1.264 . S
C1496 C1499 1.382 . S
C1496 C1500 1.390 . S
C1496 C1503 1.506 . S
C1497 C1498 1.398 . S
C1497 C1500 1.392 . S
C1498 C1497 1.398 . S
C1498 C1501 1.372 . S
C1498 H1508 0.931 . S
C1499 C1496 1.382 . S
C1499 C1501 1.390 . S
C1499 H1509 0.931 . S
C1500 C1496 1.390 . S
C1500 C1497 1.392 . S
C1500 H1510 0.930 . S
C1501 C1498 1.372 . S
C1501 C1499 1.390 . S
C1501 H1511 0.929 . S
C1502 O1482 1.255 . S
C1502 O1483 1.257 . S
C1503 Eu1439 2.787 . S
C1503 O1478 1.252 . S
C1503 O1481 1.268 . S
C1503 C1496 1.506 . S
H1504 C1487 0.931 . S
H1505 C1488 0.931 . S
H1506 C1489 0.929 . S
H1507 C1490 0.930 . S
H1508 C1498 0.931 . S
H1509 C1499 0.931 . S
H1510 C1500 0.930 . S
H1511 C1501 0.929 . S
Eu1512 N1541 2.600 . S
Eu1512 N1547 2.562 . S
Eu1512 O1556 2.462 . S
Eu1512 O1557 2.373 . S
Eu1512 O1559 2.432 . S
Eu1512 O1560 2.291 . S
Eu1512 O1564 2.335 . S
Eu1512 O1567 2.372 . S
Eu1512 C1576 2.787 . S
C1513 N1514 1.365 . S
C1513 C1516 1.405 . S
C1513 C1520 1.448 . S
N1514 C1513 1.365 . S
N1514 C1517 1.319 . S
N1514 Eu1523 2.600 . S
C1515 C1517 1.397 . S
C1515 C1518 1.367 . S
C1515 H1535 0.931 . S
C1516 C1513 1.405 . S
C1516 C1518 1.403 . S
C1516 C1522 1.439 . S
C1517 N1514 1.319 . S
C1517 C1515 1.397 . S
C1517 H1528 0.930 . S
C1518 C1515 1.367 . S
C1518 C1516 1.403 . S
C1518 H1539 0.929 . S
C1519 C1520 1.430 . S
C1519 C1521 1.387 . S
C1519 C1525 1.404 . S
C1520 C1513 1.448 . S
C1520 C1519 1.430 . S
C1520 N1524 1.351 . S
C1521 C1519 1.387 . S
C1521 C1522 1.374 . S
C1521 H1536 0.931 . S
C1522 C1516 1.439 . S
C1522 C1521 1.374 . S
C1522 H1537 0.931 . S
Eu1523 N1514 2.600 . S
Eu1523 N1524 2.562 . S
Eu1523 O1558 2.335 . S
Eu1523 O1561 2.372 . S
Eu1523 O1562 2.462 . S
Eu1523 O1563 2.373 . S
Eu1523 O1565 2.432 . S
Eu1523 O1566 2.291 . S
Eu1523 C1587 2.787 . S
N1524 C1520 1.351 . S
N1524 Eu1523 2.562 . S
N1524 C1526 1.325 . S
C1525 C1519 1.404 . S
C1525 C1527 1.366 . S
C1525 H1533 0.930 . S
C1526 N1524 1.325 . S
C1526 C1527 1.416 . S
C1526 H1532 0.929 . S
C1527 C1525 1.366 . S
C1527 C1526 1.416 . S
C1527 H1529 0.930 . S
H1528 C1517 0.930 . S
H1529 C1527 0.930 . S
H1530 C1545 0.930 . S
H1531 C1552 0.930 . S
H1532 C1526 0.929 . S
H1533 C1525 0.930 . S
H1534 C1548 0.929 . S
H1535 C1515 0.931 . S
H1536 C1521 0.931 . S
H1537 C1522 0.931 . S
H1538 C1543 0.931 . S
H1539 C1518 0.929 . S
H1540 C1551 0.930 . S
N1541 Eu1512 2.600 . S
N1541 C1542 1.365 . S
N1541 C1545 1.319 . S
C1542 N1541 1.365 . S
C1542 C1544 1.405 . S
C1542 C1550 1.448 . S
C1543 H1538 0.931 . S
C1543 C1545 1.397 . S
C1543 C1546 1.367 . S
C1544 C1542 1.405 . S
C1544 C1546 1.403 . S
C1544 C1577 1.439 . S
C1545 H1530 0.930 . S
C1545 N1541 1.319 . S
C1545 C1543 1.397 . S
C1546 C1543 1.367 . S
C1546 C1544 1.403 . S
C1546 H1553 0.929 . S
N1547 Eu1512 2.562 . S
N1547 C1548 1.325 . S
N1547 C1550 1.351 . S
C1548 H1534 0.929 . S
C1548 N1547 1.325 . S
C1548 C1552 1.416 . S
C1549 C1550 1.430 . S
C1549 C1551 1.404 . S
C1549 C1578 1.387 . S
C1550 C1542 1.448 . S
C1550 N1547 1.351 . S
C1550 C1549 1.430 . S
C1551 H1540 0.930 . S
C1551 C1549 1.404 . S
C1551 C1552 1.366 . S
C1552 H1531 0.930 . S
C1552 C1548 1.416 . S
C1552 C1551 1.366 . S
H1553 C1546 0.929 . S
H1554 C1577 0.931 . S
H1555 C1578 0.931 . S
O1556 Eu1512 2.462 . S
O1556 C1576 1.252 . S
O1557 Eu1512 2.373 . S
O1557 C1568 1.249 . S
O1558 Eu1523 2.335 . S
O1558 C1568 1.264 . S
O1559 Eu1512 2.432 . S
O1559 C1576 1.268 . S
O1560 Eu1512 2.291 . S
O1560 C1575 1.255 . S
O1561 Eu1523 2.372 . S
O1561 C1575 1.257 . S
O1562 Eu1523 2.462 . S
O1562 C1587 1.252 . S
O1563 Eu1523 2.373 . S
O1563 C1579 1.249 . S
O1564 Eu1512 2.335 . S
O1564 C1579 1.264 . S
O1565 Eu1523 2.432 . S
O1565 C1587 1.268 . S
O1566 Eu1523 2.291 . S
O1566 C1586 1.255 . S
O1567 Eu1512 2.372 . S
O1567 C1586 1.257 . S
C1568 O1557 1.249 . S
C1568 O1558 1.264 . S
C1569 C1572 1.382 . S
C1569 C1574 1.390 . S
C1569 C1576 1.506 . S
C1570 C1571 1.398 . S
C1570 C1574 1.392 . S
C1571 C1570 1.398 . S
C1571 C1573 1.372 . S
C1571 H1588 0.931 . S
C1572 C1569 1.382 . S
C1572 C1573 1.390 . S
C1572 H1589 0.931 . S
C1573 C1571 1.372 . S
C1573 C1572 1.390 . S
C1573 H1590 0.929 . S
C1574 C1569 1.390 . S
C1574 C1570 1.392 . S
C1574 H1591 0.930 . S
C1575 O1560 1.255 . S
C1575 O1561 1.257 . S
C1576 Eu1512 2.787 . S
C1576 O1556 1.252 . S
C1576 O1559 1.268 . S
C1576 C1569 1.506 . S
C1577 C1544 1.439 . S
C1577 H1554 0.931 . S
C1577 C1578 1.374 . S
C1578 C1549 1.387 . S
C1578 H1555 0.931 . S
C1578 C1577 1.374 . S
C1579 O1563 1.249 . S
C1579 O1564 1.264 . S
C1580 C1583 1.382 . S
C1580 C1584 1.390 . S
C1580 C1587 1.506 . S
C1581 C1582 1.398 . S
C1581 C1584 1.392 . S
C1582 C1581 1.398 . S
C1582 C1585 1.372 . S
C1582 H1592 0.931 . S
C1583 C1580 1.382 . S
C1583 C1585 1.390 . S
C1583 H1593 0.931 . S
C1584 C1580 1.390 . S
C1584 C1581 1.392 . S
C1584 H1594 0.930 . S
C1585 C1582 1.372 . S
C1585 C1583 1.390 . S
C1585 H1595 0.929 . S
C1586 O1566 1.255 . S
C1586 O1567 1.257 . S
C1587 Eu1523 2.787 . S
C1587 O1562 1.252 . S
C1587 O1565 1.268 . S
C1587 C1580 1.506 . S
H1588 C1571 0.931 . S
H1589 C1572 0.931 . S
H1590 C1573 0.929 . S
H1591 C1574 0.930 . S
H1592 C1582 0.931 . S
H1593 C1583 0.931 . S
H1594 C1584 0.930 . S
H1595 C1585 0.929 . S
Eu1596 N1625 2.584 1_455 S
Eu1596 N1631 2.525 1_455 S
Eu1596 O1640 2.412 1_455 S
Eu1596 O1641 2.405 . S
Eu1596 O1643 2.391 1_455 S
Eu1596 O1644 2.304 . S
Eu1596 O1648 2.354 . S
Eu1596 O1651 2.413 . S
Eu1596 C1660 2.736 1_455 S
C1597 N1598 1.365 . S
C1597 C1600 1.405 . S
C1597 C1604 1.448 1_556 S
N1598 C1597 1.365 . S
N1598 C1601 1.319 . S
N1598 Eu1607 2.600 1_556 S
C1599 C1601 1.397 . S
C1599 C1602 1.367 . S
C1599 H1619 0.931 . S
C1600 C1597 1.405 . S
C1600 C1602 1.403 . S
C1600 C1606 1.439 . S
C1601 N1598 1.319 . S
C1601 C1599 1.397 . S
C1601 H1612 0.930 . S
C1602 C1599 1.367 . S
C1602 C1600 1.403 . S
C1602 H1623 0.929 . S
C1603 C1604 1.430 . S
C1603 C1605 1.387 . S
C1603 C1609 1.404 . S
C1604 C1597 1.448 1_554 S
C1604 C1603 1.430 . S
C1604 N1608 1.351 . S
C1605 C1603 1.387 . S
C1605 C1606 1.374 1_554 S
C1605 H1620 0.931 . S
C1606 C1600 1.439 . S
C1606 C1605 1.374 1_556 S
C1606 H1621 0.931 . S
Eu1607 N1598 2.600 1_554 S
Eu1607 N1608 2.562 . S
Eu1607 O1642 2.335 . S
Eu1607 O1645 2.372 1_554 S
Eu1607 O1646 2.462 . S
Eu1607 O1647 2.373 . S
Eu1607 O1649 2.432 1_554 S
Eu1607 O1650 2.291 . S
Eu1607 C1671 2.787 . S
N1608 C1604 1.351 . S
N1608 Eu1607 2.562 . S
N1608 C1610 1.325 . S
C1609 C1603 1.404 . S
C1609 C1611 1.366 . S
C1609 H1617 0.930 . S
C1610 N1608 1.325 . S
C1610 C1611 1.416 . S
C1610 H1616 0.929 . S
C1611 C1609 1.366 . S
C1611 C1610 1.416 . S
C1611 H1613 0.930 . S
H1612 C1601 0.930 . S
H1613 C1611 0.930 . S
H1614 C1629 0.930 1_455 S
H1615 C1636 0.930 . S
H1616 C1610 0.929 . S
H1617 C1609 0.930 . S
H1618 C1632 0.929 1_556 S
H1619 C1599 0.931 . S
H1620 C1605 0.931 . S
H1621 C1606 0.931 . S
H1622 C1627 0.931 . S
H1623 C1602 0.929 . S
H1624 C1635 0.930 . S
N1625 Eu1596 2.584 1_655 S
N1625 C1626 1.365 . S
N1625 C1629 1.319 . S
C1626 N1625 1.365 . S
C1626 C1628 1.405 . S
C1626 C1634 1.448 . S
C1627 H1622 0.931 . S
C1627 C1629 1.397 . S
C1627 C1630 1.367 . S
C1628 C1626 1.405 . S
C1628 C1630 1.403 . S
C1628 C1661 1.439 . S
C1629 H1614 0.930 1_655 S
C1629 N1625 1.319 . S
C1629 C1627 1.397 . S
C1630 C1627 1.367 . S
C1630 C1628 1.403 . S
C1630 H1637 0.929 . S
N1631 Eu1596 2.525 1_655 S
N1631 C1632 1.325 . S
N1631 C1634 1.351 . S
C1632 H1618 0.929 1_554 S
C1632 N1631 1.325 . S
C1632 C1636 1.416 1_554 S
C1633 C1634 1.430 . S
C1633 C1635 1.404 . S
C1633 C1662 1.387 . S
C1634 C1626 1.448 . S
C1634 N1631 1.351 . S
C1634 C1633 1.430 . S
C1635 H1624 0.930 . S
C1635 C1633 1.404 . S
C1635 C1636 1.366 1_554 S
C1636 H1615 0.930 . S
C1636 C1632 1.416 1_556 S
C1636 C1635 1.366 1_556 S
H1637 C1630 0.929 . S
H1638 C1661 0.931 . S
H1639 C1662 0.931 . S
O1640 Eu1596 2.412 1_655 S
O1640 C1660 1.252 . S
O1641 Eu1596 2.405 . S
O1641 C1652 1.249 . S
O1642 Eu1607 2.335 . S
O1642 C1652 1.264 . S
O1643 Eu1596 2.391 1_655 S
O1643 C1660 1.268 . S
O1644 Eu1596 2.304 . S
O1644 C1659 1.255 1_554 S
O1645 Eu1607 2.372 1_556 S
O1645 C1659 1.257 . S
O1646 Eu1607 2.462 . S
O1646 C1671 1.252 . S
O1647 Eu1607 2.373 . S
O1647 C1663 1.249 . S
O1648 Eu1596 2.354 . S
O1648 C1663 1.264 . S
O1649 Eu1607 2.432 1_556 S
O1649 C1671 1.268 1_556 S
O1650 Eu1607 2.291 . S
O1650 C1670 1.255 . S
O1651 Eu1596 2.413 . S
O1651 C1670 1.257 . S
C1652 O1641 1.249 . S
C1652 O1642 1.264 . S
C1653 C1656 1.382 . S
C1653 C1658 1.390 . S
C1653 C1660 1.506 . S
C1654 C1655 1.398 . S
C1654 C1658 1.392 . S
C1655 C1654 1.398 . S
C1655 C1657 1.372 . S
C1655 H1672 0.931 . S
C1656 C1653 1.382 . S
C1656 C1657 1.390 . S
C1656 H1673 0.931 . S
C1657 C1655 1.372 . S
C1657 C1656 1.390 . S
C1657 H1674 0.929 . S
C1658 C1653 1.390 . S
C1658 C1654 1.392 . S
C1658 H1675 0.930 . S
C1659 O1644 1.255 1_556 S
C1659 O1645 1.257 . S
C1660 Eu1596 2.736 1_655 S
C1660 O1640 1.252 . S
C1660 O1643 1.268 . S
C1660 C1653 1.506 . S
C1661 C1628 1.439 . S
C1661 H1638 0.931 . S
C1661 C1662 1.374 . S
C1662 C1633 1.387 . S
C1662 H1639 0.931 . S
C1662 C1661 1.374 . S
C1663 O1647 1.249 . S
C1663 O1648 1.264 . S
C1664 C1667 1.395 . S
C1664 C1668 1.380 1_556 S
C1664 C1671 1.503 1_556 S
C1665 C1666 1.398 1_554 S
C1665 C1668 1.392 . S
C1666 C1665 1.398 1_556 S
C1666 C1669 1.372 . S
C1666 H1676 0.931 . S
C1667 C1664 1.395 . S
C1667 C1669 1.390 . S
C1667 H1677 0.931 . S
C1668 C1664 1.380 1_554 S
C1668 C1665 1.392 . S
C1668 H1678 0.930 . S
C1669 C1666 1.372 . S
C1669 C1667 1.390 . S
C1669 H1679 0.929 . S
C1670 O1650 1.255 . S
C1670 O1651 1.257 . S
C1671 Eu1607 2.787 . S
C1671 O1646 1.252 . S
C1671 O1649 1.268 1_554 S
C1671 C1664 1.503 1_554 S
H1672 C1655 0.931 . S
H1673 C1656 0.931 . S
H1674 C1657 0.929 . S
H1675 C1658 0.930 . S
H1676 C1666 0.931 . S
H1677 C1667 0.931 . S
H1678 C1668 0.930 . S
H1679 C1669 0.929 . S
H1680 C1688 0.929 . S
H1681 C1690 0.929 1_655 S
H1682 C1692 0.930 . S
H1683 C1695 0.929 . S
H1684 C1698 0.930 . S
H1685 C1700 0.960 . S
H1686 C1700 0.960 . S
H1687 C1700 0.960 . S
C1688 H1680 0.929 . S
C1688 C1689 1.370 1_655 S
C1688 C1690 1.384 1_655 S
C1689 C1688 1.370 1_455 S
C1689 C1695 1.414 . S
C1690 H1681 0.929 1_455 S
C1690 C1688 1.384 1_455 S
C1690 C1691 1.372 . S
C1691 C1690 1.372 . S
C1691 C1692 1.400 . S
C1691 C1696 1.490 . S
C1692 H1682 0.930 . S
C1692 C1691 1.400 . S
C1692 C1695 1.386 . S
H1693 C1709 0.930 . S
H1694 C1710 0.931 . S
C1695 H1683 0.929 . S
C1695 C1689 1.414 . S
C1695 C1692 1.386 . S
C1696 C1691 1.490 . S
C1696 C1698 1.395 1_455 S
C1696 C1699 1.403 . S
H1697 C1703 0.930 . S
C1698 H1684 0.930 . S
C1698 C1696 1.395 1_655 S
C1698 C1701 1.403 . S
C1699 C1696 1.403 . S
C1699 C1700 1.524 . S
C1699 C1703 1.400 . S
C1700 H1685 0.960 . S
C1700 H1686 0.960 . S
C1700 H1687 0.960 . S
C1700 C1699 1.524 . S
C1701 C1698 1.403 . S
C1701 C1702 1.392 1_655 S
C1701 C1705 1.493 . S
C1702 C1701 1.392 1_455 S
C1702 C1703 1.385 . S
C1702 C1704 1.487 . S
C1703 H1697 0.930 . S
C1703 C1699 1.400 . S
C1703 C1702 1.385 . S
C1704 C1702 1.487 . S
C1704 C1706 1.359 1_556 S
C1704 C1710 1.396 . S
C1705 C1701 1.493 . S
C1705 H1711 0.959 . S
C1705 H1712 0.959 . S
C1705 H1713 0.965 1_556 S
C1706 C1704 1.359 1_554 S
C1706 C1707 1.394 . S
C1706 H1714 0.930 . S
C1707 C1706 1.394 . S
C1707 C1708 1.383 . S
C1707 H1715 0.929 . S
C1708 C1707 1.383 . S
C1708 C1709 1.377 1_554 S
C1709 H1693 0.930 . S
C1709 C1708 1.377 1_556 S
C1709 C1710 1.379 . S
C1710 H1694 0.931 . S
C1710 C1704 1.396 . S
C1710 C1709 1.379 . S
H1711 C1705 0.959 . S
H1712 C1705 0.959 . S
H1713 C1705 0.965 1_554 S
H1714 C1706 0.930 . S
H1715 C1707 0.929 . S
H1716 C1724 0.929 . S
H1717 C1726 0.930 . S
H1718 C1728 0.930 . S
H1719 C1731 0.929 . S
H1720 C1734 0.930 . S
H1721 C1736 0.960 . S
H1722 C1736 0.960 . S
H1723 C1736 0.960 . S
C1724 H1716 0.929 . S
C1724 C1725 1.377 . S
C1724 C1726 1.384 . S
C1725 C1724 1.377 . S
C1725 C1731 1.390 . S
C1726 H1717 0.930 . S
C1726 C1724 1.384 . S
C1726 C1727 1.372 . S
C1727 C1726 1.372 . S
C1727 C1728 1.400 . S
C1727 C1732 1.490 . S
C1728 H1718 0.930 . S
C1728 C1727 1.400 . S
C1728 C1731 1.386 . S
H1729 C1745 0.930 . S
H1730 C1746 0.931 . S
C1731 H1719 0.929 . S
C1731 C1725 1.390 . S
C1731 C1728 1.386 . S
C1732 C1727 1.490 . S
C1732 C1734 1.395 . S
C1732 C1735 1.403 . S
H1733 C1739 0.930 . S
C1734 H1720 0.930 . S
C1734 C1732 1.395 . S
C1734 C1737 1.403 . S
C1735 C1732 1.403 . S
C1735 C1736 1.524 . S
C1735 C1739 1.400 . S
C1736 H1721 0.960 . S
C1736 H1722 0.960 . S
C1736 H1723 0.960 . S
C1736 C1735 1.524 . S
C1737 C1734 1.403 . S
C1737 C1738 1.392 . S
C1737 C1741 1.495 . S
C1738 C1737 1.392 . S
C1738 C1739 1.385 . S
C1738 C1740 1.478 . S
C1739 H1733 0.930 . S
C1739 C1735 1.400 . S
C1739 C1738 1.385 . S
C1740 C1738 1.478 . S
C1740 C1742 1.381 . S
C1740 C1746 1.383 . S
C1741 C1737 1.495 . S
C1741 H1747 0.959 . S
C1741 H1748 0.961 . S
C1741 H1749 0.960 . S
C1742 C1740 1.381 . S
C1742 C1743 1.394 . S
C1742 H1750 0.930 . S
C1743 C1742 1.394 . S
C1743 C1744 1.383 . S
C1743 H1751 0.929 . S
C1744 C1743 1.383 . S
C1744 C1745 1.377 . S
C1745 H1729 0.930 . S
C1745 C1744 1.377 . S
C1745 C1746 1.379 . S
C1746 H1730 0.931 . S
C1746 C1740 1.383 . S
C1746 C1745 1.379 . S
H1747 C1741 0.959 . S
H1748 C1741 0.961 . S
H1749 C1741 0.960 . S
H1750 C1742 0.930 . S
H1751 C1743 0.929 . S
H1752 C1760 0.929 . S
H1753 C1762 0.930 . S
H1754 C1764 0.930 . S
H1755 C1767 0.929 . S
H1756 C1770 0.930 . S
H1757 C1772 0.960 . S
H1758 C1772 0.960 . S
H1759 C1772 0.960 . S
C1760 H1752 0.929 . S
C1760 C1761 1.377 . S
C1760 C1762 1.384 . S
C1761 C1760 1.377 . S
C1761 C1767 1.390 . S
C1762 H1753 0.930 . S
C1762 C1760 1.384 . S
C1762 C1763 1.372 . S
C1763 C1762 1.372 . S
C1763 C1764 1.400 . S
C1763 C1768 1.490 . S
C1764 H1754 0.930 . S
C1764 C1763 1.400 . S
C1764 C1767 1.386 . S
H1765 C1781 0.930 . S
H1766 C1782 0.931 . S
C1767 H1755 0.929 . S
C1767 C1761 1.390 . S
C1767 C1764 1.386 . S
C1768 C1763 1.490 . S
C1768 C1770 1.395 . S
C1768 C1771 1.403 . S
H1769 C1775 0.930 . S
C1770 H1756 0.930 . S
C1770 C1768 1.395 . S
C1770 C1773 1.403 . S
C1771 C1768 1.403 . S
C1771 C1772 1.524 . S
C1771 C1775 1.400 . S
C1772 H1757 0.960 . S
C1772 H1758 0.960 . S
C1772 H1759 0.960 . S
C1772 C1771 1.524 . S
C1773 C1770 1.403 . S
C1773 C1774 1.392 . S
C1773 C1777 1.495 . S
C1774 C1773 1.392 . S
C1774 C1775 1.385 . S
C1774 C1776 1.478 . S
C1775 H1769 0.930 . S
C1775 C1771 1.400 . S
C1775 C1774 1.385 . S
C1776 C1774 1.478 . S
C1776 C1778 1.381 . S
C1776 C1782 1.383 . S
C1777 C1773 1.495 . S
C1777 H1783 0.959 . S
C1777 H1784 0.961 . S
C1777 H1785 0.960 . S
C1778 C1776 1.381 . S
C1778 C1779 1.394 . S
C1778 H1786 0.930 . S
C1779 C1778 1.394 . S
C1779 C1780 1.383 . S
C1779 H1787 0.929 . S
C1780 C1779 1.383 . S
C1780 C1781 1.377 . S
C1781 H1765 0.930 . S
C1781 C1780 1.377 . S
C1781 C1782 1.379 . S
C1782 H1766 0.931 . S
C1782 C1776 1.383 . S
C1782 C1781 1.379 . S
H1783 C1777 0.959 . S
H1784 C1777 0.961 . S
H1785 C1777 0.960 . S
H1786 C1778 0.930 . S
H1787 C1779 0.929 . S
H1788 C1796 0.929 . S
H1789 C1798 0.930 . S
H1790 C1800 0.930 . S
H1791 C1803 0.929 . S
H1792 C1806 0.930 . S
H1793 C1808 0.960 . S
H1794 C1808 0.960 . S
H1795 C1808 0.960 . S
C1796 H1788 0.929 . S
C1796 C1797 1.377 . S
C1796 C1798 1.384 . S
C1797 C1796 1.377 . S
C1797 C1803 1.390 . S
C1798 H1789 0.930 . S
C1798 C1796 1.384 . S
C1798 C1799 1.372 . S
C1799 C1798 1.372 . S
C1799 C1800 1.400 . S
C1799 C1804 1.490 . S
C1800 H1790 0.930 . S
C1800 C1799 1.400 . S
C1800 C1803 1.386 . S
H1801 C1817 0.930 . S
H1802 C1818 0.931 . S
C1803 H1791 0.929 . S
C1803 C1797 1.390 . S
C1803 C1800 1.386 . S
C1804 C1799 1.490 . S
C1804 C1806 1.395 . S
C1804 C1807 1.403 . S
H1805 C1811 0.930 . S
C1806 H1792 0.930 . S
C1806 C1804 1.395 . S
C1806 C1809 1.403 . S
C1807 C1804 1.403 . S
C1807 C1808 1.524 . S
C1807 C1811 1.400 . S
C1808 H1793 0.960 . S
C1808 H1794 0.960 . S
C1808 H1795 0.960 . S
C1808 C1807 1.524 . S
C1809 C1806 1.403 . S
C1809 C1810 1.392 . S
C1809 C1813 1.495 . S
C1810 C1809 1.392 . S
C1810 C1811 1.385 . S
C1810 C1812 1.478 . S
C1811 H1805 0.930 . S
C1811 C1807 1.400 . S
C1811 C1810 1.385 . S
C1812 C1810 1.478 . S
C1812 C1814 1.381 . S
C1812 C1818 1.383 . S
C1813 C1809 1.495 . S
C1813 H1819 0.959 . S
C1813 H1820 0.961 . S
C1813 H1821 0.960 . S
C1814 C1812 1.381 . S
C1814 C1815 1.394 . S
C1814 H1822 0.930 . S
C1815 C1814 1.394 . S
C1815 C1816 1.383 . S
C1815 H1823 0.929 . S
C1816 C1815 1.383 . S
C1816 C1817 1.377 . S
C1817 H1801 0.930 . S
C1817 C1816 1.377 . S
C1817 C1818 1.379 . S
C1818 H1802 0.931 . S
C1818 C1812 1.383 . S
C1818 C1817 1.379 . S
H1819 C1813 0.959 . S
H1820 C1813 0.961 . S
H1821 C1813 0.960 . S
H1822 C1814 0.930 . S
H1823 C1815 0.929 . S
H1824 C1832 0.929 1_655 S
H1825 C1834 0.930 1_655 S
H1826 C1836 0.930 . S
H1827 C1839 0.929 . S
H1828 C1842 0.930 . S
H1829 C1844 0.960 . S
H1830 C1844 0.960 . S
H1831 C1844 0.960 . S
C1832 H1824 0.929 1_455 S
C1832 C1833 1.377 . S
C1832 C1834 1.384 . S
C1833 C1832 1.377 . S
C1833 C1839 1.390 . S
C1834 H1825 0.930 1_455 S
C1834 C1832 1.384 . S
C1834 C1835 1.372 . S
C1835 C1834 1.372 . S
C1835 C1836 1.400 . S
C1835 C1840 1.490 . S
C1836 H1826 0.930 . S
C1836 C1835 1.400 . S
C1836 C1839 1.386 . S
H1837 C1853 0.930 . S
H1838 C1854 0.931 . S
C1839 H1827 0.929 . S
C1839 C1833 1.390 . S
C1839 C1836 1.386 . S
C1840 C1835 1.490 . S
C1840 C1842 1.395 . S
C1840 C1843 1.403 . S
H1841 C1847 0.930 . S
C1842 H1828 0.930 . S
C1842 C1840 1.395 . S
C1842 C1845 1.403 . S
C1843 C1840 1.403 . S
C1843 C1844 1.524 . S
C1843 C1847 1.400 . S
C1844 H1829 0.960 . S
C1844 H1830 0.960 . S
C1844 H1831 0.960 . S
C1844 C1843 1.524 . S
C1845 C1842 1.403 . S
C1845 C1846 1.392 . S
C1845 C1849 1.495 . S
C1846 C1845 1.392 . S
C1846 C1847 1.385 . S
C1846 C1848 1.478 . S
C1847 H1841 0.930 . S
C1847 C1843 1.400 . S
C1847 C1846 1.385 . S
C1848 C1846 1.478 . S
C1848 C1850 1.381 . S
C1848 C1854 1.383 . S
C1849 C1845 1.495 . S
C1849 H1855 0.959 1_455 S
C1849 H1856 0.961 . S
C1849 H1857 0.960 1_455 S
C1850 C1848 1.381 . S
C1850 C1851 1.394 . S
C1850 H1858 0.930 1_455 S
C1851 C1850 1.394 . S
C1851 C1852 1.383 . S
C1851 H1859 0.895 1_455 S
C1852 C1851 1.383 . S
C1852 C1853 1.377 . S
C1853 H1837 0.930 . S
C1853 C1852 1.377 . S
C1853 C1854 1.379 . S
C1854 H1838 0.931 . S
C1854 C1848 1.383 . S
C1854 C1853 1.379 . S
H1855 C1849 0.959 1_655 S
H1856 C1849 0.961 . S
H1857 C1849 0.960 1_655 S
H1858 C1850 0.930 1_655 S
H1859 C1851 0.895 1_655 S
H1860 C1868 0.929 . S
H1861 C1870 0.930 . S
H1862 C1872 0.930 . S
H1863 C1875 0.929 . S
H1864 C1878 0.930 . S
H1865 C1880 0.960 . S
H1866 C1880 0.960 . S
H1867 C1880 0.960 . S
C1868 H1860 0.929 . S
C1868 C1869 1.377 . S
C1868 C1870 1.384 . S
C1869 C1868 1.377 . S
C1869 C1875 1.390 . S
C1870 H1861 0.930 . S
C1870 C1868 1.384 . S
C1870 C1871 1.372 . S
C1871 C1870 1.372 . S
C1871 C1872 1.400 . S
C1871 C1876 1.490 . S
C1872 H1862 0.930 . S
C1872 C1871 1.400 . S
C1872 C1875 1.386 . S
H1873 C1889 0.930 . S
H1874 C1890 0.931 . S
C1875 H1863 0.929 . S
C1875 C1869 1.390 . S
C1875 C1872 1.386 . S
C1876 C1871 1.490 . S
C1876 C1878 1.395 . S
C1876 C1879 1.403 . S
H1877 C1883 0.930 . S
C1878 H1864 0.930 . S
C1878 C1876 1.395 . S
C1878 C1881 1.403 . S
C1879 C1876 1.403 . S
C1879 C1880 1.524 . S
C1879 C1883 1.400 . S
C1880 H1865 0.960 . S
C1880 H1866 0.960 . S
C1880 H1867 0.960 . S
C1880 C1879 1.524 . S
C1881 C1878 1.403 . S
C1881 C1882 1.392 . S
C1881 C1885 1.495 . S
C1882 C1881 1.392 . S
C1882 C1883 1.385 . S
C1882 C1884 1.478 . S
C1883 H1877 0.930 . S
C1883 C1879 1.400 . S
C1883 C1882 1.385 . S
C1884 C1882 1.478 . S
C1884 C1886 1.381 . S
C1884 C1890 1.383 . S
C1885 C1881 1.495 . S
C1885 H1891 0.959 . S
C1885 H1892 0.961 . S
C1885 H1893 0.960 . S
C1886 C1884 1.381 . S
C1886 C1887 1.394 . S
C1886 H1894 0.930 . S
C1887 C1886 1.394 . S
C1887 C1888 1.383 . S
C1887 H1895 0.929 . S
C1888 C1887 1.383 . S
C1888 C1889 1.377 . S
C1889 H1873 0.930 . S
C1889 C1888 1.377 . S
C1889 C1890 1.379 . S
C1890 H1874 0.931 . S
C1890 C1884 1.383 . S
C1890 C1889 1.379 . S
H1891 C1885 0.959 . S
H1892 C1885 0.961 . S
H1893 C1885 0.960 . S
H1894 C1886 0.930 . S
H1895 C1887 0.929 . S
H1896 C1904 0.929 . S
H1897 C1906 0.930 . S
H1898 C1908 0.930 . S
H1899 C1911 0.929 . S
H1900 C1914 0.930 . S
H1901 C1916 0.960 . S
H1902 C1916 0.960 . S
H1903 C1916 0.960 . S
C1904 H1896 0.929 . S
C1904 C1905 1.377 . S
C1904 C1906 1.384 . S
C1905 C1904 1.377 . S
C1905 C1911 1.390 . S
C1906 H1897 0.930 . S
C1906 C1904 1.384 . S
C1906 C1907 1.372 . S
C1907 C1906 1.372 . S
C1907 C1908 1.400 . S
C1907 C1912 1.490 . S
C1908 H1898 0.930 . S
C1908 C1907 1.400 . S
C1908 C1911 1.386 . S
H1909 C1925 0.930 . S
H1910 C1926 0.931 . S
C1911 H1899 0.929 . S
C1911 C1905 1.390 . S
C1911 C1908 1.386 . S
C1912 C1907 1.490 . S
C1912 C1914 1.395 . S
C1912 C1915 1.403 . S
H1913 C1919 0.930 . S
C1914 H1900 0.930 . S
C1914 C1912 1.395 . S
C1914 C1917 1.403 . S
C1915 C1912 1.403 . S
C1915 C1916 1.524 . S
C1915 C1919 1.400 . S
C1916 H1901 0.960 . S
C1916 H1902 0.960 . S
C1916 H1903 0.960 . S
C1916 C1915 1.524 . S
C1917 C1914 1.403 . S
C1917 C1918 1.392 . S
C1917 C1921 1.495 . S
C1918 C1917 1.392 . S
C1918 C1919 1.385 . S
C1918 C1920 1.478 . S
C1919 H1913 0.930 . S
C1919 C1915 1.400 . S
C1919 C1918 1.385 . S
C1920 C1918 1.478 . S
C1920 C1922 1.381 . S
C1920 C1926 1.383 . S
C1921 C1917 1.495 . S
C1921 H1927 0.959 . S
C1921 H1928 0.961 . S
C1921 H1929 0.960 . S
C1922 C1920 1.381 . S
C1922 C1923 1.394 . S
C1922 H1930 0.930 . S
C1923 C1922 1.394 . S
C1923 C1924 1.383 . S
C1923 H1931 0.929 . S
C1924 C1923 1.383 . S
C1924 C1925 1.377 . S
C1925 H1909 0.930 . S
C1925 C1924 1.377 . S
C1925 C1926 1.379 . S
C1926 H1910 0.931 . S
C1926 C1920 1.383 . S
C1926 C1925 1.379 . S
H1927 C1921 0.959 . S
H1928 C1921 0.961 . S
H1929 C1921 0.960 . S
H1930 C1922 0.930 . S
H1931 C1923 0.929 . S
H1932 C1940 0.929 . S
H1933 C1942 0.930 . S
H1934 C1944 0.930 . S
H1935 C1947 0.929 . S
H1936 C1950 0.930 . S
H1937 C1952 0.960 . S
H1938 C1952 0.960 . S
H1939 C1952 0.960 . S
C1940 H1932 0.929 . S
C1940 C1941 1.377 . S
C1940 C1942 1.384 . S
C1941 C1940 1.377 . S
C1941 C1947 1.390 . S
C1942 H1933 0.930 . S
C1942 C1940 1.384 . S
C1942 C1943 1.372 . S
C1943 C1942 1.372 . S
C1943 C1944 1.400 . S
C1943 C1948 1.490 . S
C1944 H1934 0.930 . S
C1944 C1943 1.400 . S
C1944 C1947 1.386 . S
H1945 C1961 0.930 . S
H1946 C1962 0.931 . S
C1947 H1935 0.929 . S
C1947 C1941 1.390 . S
C1947 C1944 1.386 . S
C1948 C1943 1.490 . S
C1948 C1950 1.395 . S
C1948 C1951 1.403 . S
H1949 C1955 0.930 . S
C1950 H1936 0.930 . S
C1950 C1948 1.395 . S
C1950 C1953 1.403 . S
C1951 C1948 1.403 . S
C1951 C1952 1.524 . S
C1951 C1955 1.400 . S
C1952 H1937 0.960 . S
C1952 H1938 0.960 . S
C1952 H1939 0.960 . S
C1952 C1951 1.524 . S
C1953 C1950 1.403 . S
C1953 C1954 1.392 . S
C1953 C1957 1.495 . S
C1954 C1953 1.392 . S
C1954 C1955 1.385 . S
C1954 C1956 1.478 . S
C1955 H1949 0.930 . S
C1955 C1951 1.400 . S
C1955 C1954 1.385 . S
C1956 C1954 1.478 . S
C1956 C1958 1.381 . S
C1956 C1962 1.383 . S
C1957 C1953 1.495 . S
C1957 H1963 0.959 . S
C1957 H1964 0.961 . S
C1957 H1965 0.960 . S
C1958 C1956 1.381 . S
C1958 C1959 1.394 . S
C1958 H1966 0.930 . S
C1959 C1958 1.394 . S
C1959 C1960 1.383 . S
C1959 H1967 0.929 . S
C1960 C1959 1.383 . S
C1960 C1961 1.377 . S
C1961 H1945 0.930 . S
C1961 C1960 1.377 . S
C1961 C1962 1.379 . S
C1962 H1946 0.931 . S
C1962 C1956 1.383 . S
C1962 C1961 1.379 . S
H1963 C1957 0.959 . S
H1964 C1957 0.961 . S
H1965 C1957 0.960 . S
H1966 C1958 0.930 . S
H1967 C1959 0.929 . S
H1968 C1976 0.929 . S
H1969 C1978 0.930 . S
H1970 C1980 0.901 1_565 S
H1971 C1983 0.929 . S
H1972 C1986 0.930 . S
H1973 C1988 0.968 . S
H1974 C1988 0.960 . S
H1975 C1988 0.960 1_565 S
C1976 H1968 0.929 . S
C1976 C1977 1.377 . S
C1976 C1978 1.384 . S
C1977 C1976 1.377 . S
C1977 C1983 1.390 1_545 S
C1978 H1969 0.930 . S
C1978 C1976 1.384 . S
C1978 C1979 1.372 . S
C1979 C1978 1.372 . S
C1979 C1980 1.434 . S
C1979 C1984 1.490 . S
C1980 H1970 0.901 1_545 S
C1980 C1979 1.434 . S
C1980 C1983 1.381 1_545 S
H1981 C1997 0.930 . S
H1982 C1998 0.957 . S
C1983 H1971 0.929 . S
C1983 C1977 1.390 1_565 S
C1983 C1980 1.381 1_565 S
C1984 C1979 1.490 . S
C1984 C1986 1.395 . S
C1984 C1987 1.403 . S
H1985 C1991 0.930 . S
C1986 H1972 0.930 . S
C1986 C1984 1.395 . S
C1986 C1989 1.403 . S
C1987 C1984 1.403 . S
C1987 C1988 1.524 . S
C1987 C1991 1.400 . S
C1988 H1973 0.968 . S
C1988 H1974 0.960 . S
C1988 H1975 0.960 1_545 S
C1988 C1987 1.524 . S
C1989 C1986 1.403 . S
C1989 C1990 1.392 . S
C1989 C1993 1.495 1_655 S
C1990 C1989 1.392 . S
C1990 C1991 1.385 . S
C1990 C1992 1.478 . S
C1991 H1985 0.930 . S
C1991 C1987 1.400 . S
C1991 C1990 1.385 . S
C1992 C1990 1.478 . S
C1992 C1994 1.381 . S
C1992 C1998 1.383 . S
C1993 C1989 1.495 1_455 S
C1993 H1999 0.959 . S
C1993 H2000 0.961 . S
C1993 H2001 0.960 . S
C1994 C1992 1.381 . S
C1994 C1995 1.394 1_655 S
C1994 H2002 0.930 . S
C1995 C1994 1.394 1_455 S
C1995 C1996 1.383 . S
C1995 H2003 0.929 . S
C1996 C1995 1.383 . S
C1996 C1997 1.377 . S
C1997 H1981 0.930 . S
C1997 C1996 1.377 . S
C1997 C1998 1.379 1_455 S
C1998 H1982 0.957 . S
C1998 C1992 1.383 . S
C1998 C1997 1.379 1_655 S
H1999 C1993 0.959 . S
H2000 C1993 0.961 . S
H2001 C1993 0.960 . S
H2002 C1994 0.930 . S
H2003 C1995 0.929 . S
H2004 C2012 0.929 . S
H2005 C2014 0.930 . S
H2006 C2016 0.930 . S
H2007 C2019 0.929 . S
H2008 C2022 0.930 . S
H2009 C2024 0.960 . S
H2010 C2024 0.960 . S
H2011 C2024 0.960 . S
C2012 H2004 0.929 . S
C2012 C2013 1.377 . S
C2012 C2014 1.384 . S
C2013 C2012 1.377 . S
C2013 C2019 1.390 . S
C2014 H2005 0.930 . S
C2014 C2012 1.384 . S
C2014 C2015 1.372 . S
C2015 C2014 1.372 . S
C2015 C2016 1.400 . S
C2015 C2020 1.490 . S
C2016 H2006 0.930 . S
C2016 C2015 1.400 . S
C2016 C2019 1.386 . S
H2017 C2033 0.930 . S
H2018 C2034 0.931 . S
C2019 H2007 0.929 . S
C2019 C2013 1.390 . S
C2019 C2016 1.386 . S
C2020 C2015 1.490 . S
C2020 C2022 1.395 . S
C2020 C2023 1.403 . S
H2021 C2027 0.930 . S
C2022 H2008 0.930 . S
C2022 C2020 1.395 . S
C2022 C2025 1.403 . S
C2023 C2020 1.403 . S
C2023 C2024 1.524 . S
C2023 C2027 1.400 . S
C2024 H2009 0.960 . S
C2024 H2010 0.960 . S
C2024 H2011 0.960 . S
C2024 C2023 1.524 . S
C2025 C2022 1.403 . S
C2025 C2026 1.392 . S
C2025 C2029 1.495 . S
C2026 C2025 1.392 . S
C2026 C2027 1.385 . S
C2026 C2028 1.478 . S
C2027 H2021 0.930 . S
C2027 C2023 1.400 . S
C2027 C2026 1.385 . S
C2028 C2026 1.478 . S
C2028 C2030 1.381 . S
C2028 C2034 1.383 . S
C2029 C2025 1.495 . S
C2029 H2035 0.959 . S
C2029 H2036 0.961 . S
C2029 H2037 0.960 . S
C2030 C2028 1.381 . S
C2030 C2031 1.394 . S
C2030 H2038 0.930 . S
C2031 C2030 1.394 . S
C2031 C2032 1.383 . S
C2031 H2039 0.929 . S
C2032 C2031 1.383 . S
C2032 C2033 1.377 . S
C2033 H2017 0.930 . S
C2033 C2032 1.377 . S
C2033 C2034 1.379 . S
C2034 H2018 0.931 . S
C2034 C2028 1.383 . S
C2034 C2033 1.379 . S
H2035 C2029 0.959 . S
H2036 C2029 0.961 . S
H2037 C2029 0.960 . S
H2038 C2030 0.930 . S
H2039 C2031 0.929 . S
H2040 C2048 0.929 . S
H2041 C2050 0.930 . S
H2042 C2052 0.930 . S
H2043 C2055 0.929 . S
H2044 C2058 0.965 . S
H2045 C2060 0.960 . S
H2046 C2060 0.960 . S
H2047 C2060 0.960 . S
C2048 H2040 0.929 . S
C2048 C2049 1.377 . S
C2048 C2050 1.384 . S
C2049 C2048 1.377 . S
C2049 C2055 1.390 . S
C2050 H2041 0.930 . S
C2050 C2048 1.384 . S
C2050 C2051 1.372 . S
C2051 C2050 1.372 . S
C2051 C2052 1.400 . S
C2051 C2056 1.490 . S
C2052 H2042 0.930 . S
C2052 C2051 1.400 . S
C2052 C2055 1.386 . S
H2053 C2069 0.930 . S
H2054 C2070 0.931 . S
C2055 H2043 0.929 . S
C2055 C2049 1.390 . S
C2055 C2052 1.386 . S
C2056 C2051 1.490 . S
C2056 C2058 1.395 . S
C2056 C2059 1.403 . S
H2057 C2063 0.930 . S
C2058 H2044 0.965 . S
C2058 C2056 1.395 . S
C2058 C2061 1.403 . S
C2059 C2056 1.403 . S
C2059 C2060 1.524 . S
C2059 C2063 1.400 . S
C2060 H2045 0.960 . S
C2060 H2046 0.960 . S
C2060 H2047 0.960 . S
C2060 C2059 1.524 . S
C2061 C2058 1.403 . S
C2061 C2062 1.392 . S
C2061 C2065 1.495 1_545 S
C2062 C2061 1.392 . S
C2062 C2063 1.385 . S
C2062 C2064 1.478 . S
C2063 H2057 0.930 . S
C2063 C2059 1.400 . S
C2063 C2062 1.385 . S
C2064 C2062 1.478 . S
C2064 C2066 1.381 . S
C2064 C2070 1.383 . S
C2065 C2061 1.495 1_565 S
C2065 H2071 0.959 . S
C2065 H2072 0.961 . S
C2065 H2073 0.960 . S
C2066 C2064 1.381 . S
C2066 C2067 1.394 . S
C2066 H2074 0.930 . S
C2067 C2066 1.394 . S
C2067 C2068 1.383 . S
C2067 H2075 0.929 . S
C2068 C2067 1.383 . S
C2068 C2069 1.377 . S
C2069 H2053 0.930 . S
C2069 C2068 1.377 . S
C2069 C2070 1.379 . S
C2070 H2054 0.931 . S
C2070 C2064 1.383 . S
C2070 C2069 1.379 . S
H2071 C2065 0.959 . S
H2072 C2065 0.961 . S
H2073 C2065 0.960 . S
H2074 C2066 0.930 . S
H2075 C2067 0.929 . S
H2076 C2084 0.929 . S
H2077 C2086 0.930 . S
H2078 C2088 0.930 . S
H2079 C2091 0.929 . S
H2080 C2094 0.930 . S
H2081 C2096 0.960 . S
H2082 C2096 0.960 . S
H2083 C2096 0.960 . S
C2084 H2076 0.929 . S
C2084 C2085 1.377 . S
C2084 C2086 1.384 . S
C2085 C2084 1.377 . S
C2085 C2091 1.390 . S
C2086 H2077 0.930 . S
C2086 C2084 1.384 . S
C2086 C2087 1.372 . S
C2087 C2086 1.372 . S
C2087 C2088 1.400 . S
C2087 C2092 1.490 . S
C2088 H2078 0.930 . S
C2088 C2087 1.400 . S
C2088 C2091 1.386 . S
H2089 C2105 0.930 . S
H2090 C2106 0.931 . S
C2091 H2079 0.929 . S
C2091 C2085 1.390 . S
C2091 C2088 1.386 . S
C2092 C2087 1.490 . S
C2092 C2094 1.395 . S
C2092 C2095 1.403 . S
H2093 C2099 0.930 . S
C2094 H2080 0.930 . S
C2094 C2092 1.395 . S
C2094 C2097 1.403 . S
C2095 C2092 1.403 . S
C2095 C2096 1.524 . S
C2095 C2099 1.400 . S
C2096 H2081 0.960 . S
C2096 H2082 0.960 . S
C2096 H2083 0.960 . S
C2096 C2095 1.524 . S
C2097 C2094 1.403 . S
C2097 C2098 1.392 . S
C2097 C2101 1.495 . S
C2098 C2097 1.392 . S
C2098 C2099 1.385 . S
C2098 C2100 1.478 . S
C2099 H2093 0.930 . S
C2099 C2095 1.400 . S
C2099 C2098 1.385 . S
C2100 C2098 1.478 . S
C2100 C2102 1.381 . S
C2100 C2106 1.383 . S
C2101 C2097 1.495 . S
C2101 H2107 0.959 . S
C2101 H2108 0.961 . S
C2101 H2109 0.960 . S
C2102 C2100 1.381 . S
C2102 C2103 1.394 . S
C2102 H2110 0.930 . S
C2103 C2102 1.394 . S
C2103 C2104 1.383 . S
C2103 H2111 0.929 . S
C2104 C2103 1.383 . S
C2104 C2105 1.377 . S
C2105 H2089 0.930 . S
C2105 C2104 1.377 . S
C2105 C2106 1.379 . S
C2106 H2090 0.931 . S
C2106 C2100 1.383 . S
C2106 C2105 1.379 . S
H2107 C2101 0.959 . S
H2108 C2101 0.961 . S
H2109 C2101 0.960 . S
H2110 C2102 0.930 . S
H2111 C2103 0.929 . S
H2112 C2120 0.929 . S
H2113 C2122 0.930 . S
H2114 C2124 0.930 1_565 S
H2115 C2127 0.929 1_565 S
H2116 C2130 0.930 . S
H2117 C2132 0.960 . S
H2118 C2132 0.987 . S
H2119 C2132 0.960 . S
C2120 H2112 0.929 . S
C2120 C2121 1.377 . S
C2120 C2122 1.384 . S
C2121 C2120 1.377 . S
C2121 C2127 1.390 . S
C2122 H2113 0.930 . S
C2122 C2120 1.384 . S
C2122 C2123 1.372 . S
C2123 C2122 1.372 . S
C2123 C2124 1.400 . S
C2123 C2128 1.490 . S
C2124 H2114 0.930 1_545 S
C2124 C2123 1.400 . S
C2124 C2127 1.386 . S
H2125 C2141 0.930 1_565 S
H2126 C2142 0.931 1_565 S
C2127 H2115 0.929 1_545 S
C2127 C2121 1.390 . S
C2127 C2124 1.386 . S
C2128 C2123 1.490 . S
C2128 C2130 1.395 . S
C2128 C2131 1.403 . S
H2129 C2135 0.953 . S
C2130 H2116 0.930 . S
C2130 C2128 1.395 . S
C2130 C2133 1.403 . S
C2131 C2128 1.403 . S
C2131 C2132 1.524 1_545 S
C2131 C2135 1.400 . S
C2132 H2117 0.960 . S
C2132 H2118 0.987 . S
C2132 H2119 0.960 . S
C2132 C2131 1.524 1_565 S
C2133 C2130 1.403 . S
C2133 C2134 1.392 . S
C2133 C2137 1.495 . S
C2134 C2133 1.392 . S
C2134 C2135 1.385 . S
C2134 C2136 1.478 . S
C2135 H2129 0.953 . S
C2135 C2131 1.400 . S
C2135 C2134 1.385 . S
C2136 C2134 1.478 . S
C2136 C2138 1.381 1_655 S
C2136 C2142 1.383 . S
C2137 C2133 1.495 . S
C2137 H2143 0.959 . S
C2137 H2144 0.961 . S
C2137 H2145 0.960 . S
C2138 C2136 1.381 1_455 S
C2138 C2139 1.394 . S
C2138 H2146 0.930 . S
C2139 C2138 1.394 . S
C2139 C2140 1.383 . S
C2139 H2147 0.929 . S
C2140 C2139 1.383 . S
C2140 C2141 1.377 1_455 S
C2141 H2125 0.930 1_545 S
C2141 C2140 1.377 1_655 S
C2141 C2142 1.379 . S
C2142 H2126 0.931 1_545 S
C2142 C2136 1.383 . S
C2142 C2141 1.379 . S
H2143 C2137 0.959 . S
H2144 C2137 0.961 . S
H2145 C2137 0.960 . S
H2146 C2138 0.930 . S
H2147 C2139 0.929 . S
H2148 C2156 0.929 . S
H2149 C2158 0.930 . S
H2150 C2160 0.930 . S
H2151 C2163 0.929 . S
H2152 C2166 0.930 . S
H2153 C2168 0.960 . S
H2154 C2168 0.960 . S
H2155 C2168 0.960 . S
C2156 H2148 0.929 . S
C2156 C2157 1.377 . S
C2156 C2158 1.384 . S
C2157 C2156 1.377 . S
C2157 C2163 1.390 . S
C2158 H2149 0.930 . S
C2158 C2156 1.384 . S
C2158 C2159 1.372 . S
C2159 C2158 1.372 . S
C2159 C2160 1.400 . S
C2159 C2164 1.490 . S
C2160 H2150 0.930 . S
C2160 C2159 1.400 . S
C2160 C2163 1.386 . S
H2161 C2177 0.930 . S
H2162 C2178 0.931 . S
C2163 H2151 0.929 . S
C2163 C2157 1.390 . S
C2163 C2160 1.386 . S
C2164 C2159 1.490 . S
C2164 C2166 1.395 . S
C2164 C2167 1.403 . S
H2165 C2171 0.930 . S
C2166 H2152 0.930 . S
C2166 C2164 1.395 . S
C2166 C2169 1.403 . S
C2167 C2164 1.403 . S
C2167 C2168 1.524 . S
C2167 C2171 1.400 . S
C2168 H2153 0.960 . S
C2168 H2154 0.960 . S
C2168 H2155 0.960 . S
C2168 C2167 1.524 . S
C2169 C2166 1.403 . S
C2169 C2170 1.392 . S
C2169 C2173 1.495 . S
C2170 C2169 1.392 . S
C2170 C2171 1.385 . S
C2170 C2172 1.478 . S
C2171 H2165 0.930 . S
C2171 C2167 1.400 . S
C2171 C2170 1.385 . S
C2172 C2170 1.478 . S
C2172 C2174 1.381 . S
C2172 C2178 1.383 . S
C2173 C2169 1.495 . S
C2173 H2179 0.959 . S
C2173 H2180 0.961 . S
C2173 H2181 0.960 . S
C2174 C2172 1.381 . S
C2174 C2175 1.394 . S
C2174 H2182 0.930 . S
C2175 C2174 1.394 . S
C2175 C2176 1.383 . S
C2175 H2183 0.929 . S
C2176 C2175 1.383 . S
C2176 C2177 1.377 . S
C2177 H2161 0.930 . S
C2177 C2176 1.377 . S
C2177 C2178 1.379 . S
C2178 H2162 0.931 . S
C2178 C2172 1.383 . S
C2178 C2177 1.379 . S
H2179 C2173 0.959 . S
H2180 C2173 0.961 . S
H2181 C2173 0.960 . S
H2182 C2174 0.930 . S
H2183 C2175 0.929 . S
H2184 C2192 0.929 . S
H2185 C2194 0.930 . S
H2186 C2196 0.930 . S
H2187 C2199 0.929 . S
H2188 C2202 0.930 . S
H2189 C2204 0.960 . S
H2190 C2204 0.960 . S
H2191 C2204 0.960 . S
C2192 H2184 0.929 . S
C2192 C2193 1.377 . S
C2192 C2194 1.384 . S
C2193 C2192 1.377 . S
C2193 C2199 1.390 . S
C2194 H2185 0.930 . S
C2194 C2192 1.384 . S
C2194 C2195 1.372 . S
C2195 C2194 1.372 . S
C2195 C2196 1.400 . S
C2195 C2200 1.490 . S
C2196 H2186 0.930 . S
C2196 C2195 1.400 . S
C2196 C2199 1.386 . S
H2197 C2213 0.930 . S
H2198 C2214 0.931 . S
C2199 H2187 0.929 . S
C2199 C2193 1.390 . S
C2199 C2196 1.386 . S
C2200 C2195 1.490 . S
C2200 C2202 1.395 . S
C2200 C2203 1.403 . S
H2201 C2207 0.930 . S
C2202 H2188 0.930 . S
C2202 C2200 1.395 . S
C2202 C2205 1.403 . S
C2203 C2200 1.403 . S
C2203 C2204 1.524 . S
C2203 C2207 1.400 . S
C2204 H2189 0.960 . S
C2204 H2190 0.960 . S
C2204 H2191 0.960 . S
C2204 C2203 1.524 . S
C2205 C2202 1.403 . S
C2205 C2206 1.392 . S
C2205 C2209 1.495 . S
C2206 C2205 1.392 . S
C2206 C2207 1.385 . S
C2206 C2208 1.478 . S
C2207 H2201 0.930 . S
C2207 C2203 1.400 . S
C2207 C2206 1.385 . S
C2208 C2206 1.478 . S
C2208 C2210 1.381 . S
C2208 C2214 1.383 . S
C2209 C2205 1.495 . S
C2209 H2215 0.959 . S
C2209 H2216 0.961 . S
C2209 H2217 0.960 . S
C2210 C2208 1.381 . S
C2210 C2211 1.394 . S
C2210 H2218 0.930 . S
C2211 C2210 1.394 . S
C2211 C2212 1.383 . S
C2211 H2219 0.929 . S
C2212 C2211 1.383 . S
C2212 C2213 1.377 . S
C2213 H2197 0.930 . S
C2213 C2212 1.377 . S
C2213 C2214 1.379 . S
C2214 H2198 0.931 . S
C2214 C2208 1.383 . S
C2214 C2213 1.379 . S
H2215 C2209 0.959 . S
H2216 C2209 0.961 . S
H2217 C2209 0.960 . S
H2218 C2210 0.930 . S
H2219 C2211 0.929 . S
H2220 C2228 0.929 . S
H2221 C2230 0.930 . S
H2222 C2232 0.930 . S
H2223 C2235 0.929 . S
H2224 C2238 0.930 . S
H2225 C2240 0.960 . S
H2226 C2240 0.960 . S
H2227 C2240 0.960 . S
C2228 H2220 0.929 . S
C2228 C2229 1.377 . S
C2228 C2230 1.384 . S
C2229 C2228 1.377 . S
C2229 C2235 1.390 . S
C2230 H2221 0.930 . S
C2230 C2228 1.384 . S
C2230 C2231 1.372 . S
C2231 C2230 1.372 . S
C2231 C2232 1.400 . S
C2231 C2236 1.490 . S
C2232 H2222 0.930 . S
C2232 C2231 1.400 . S
C2232 C2235 1.386 . S
H2233 C2249 0.930 . S
H2234 C2250 0.931 . S
C2235 H2223 0.929 . S
C2235 C2229 1.390 . S
C2235 C2232 1.386 . S
C2236 C2231 1.490 . S
C2236 C2238 1.395 . S
C2236 C2239 1.403 . S
H2237 C2243 0.930 . S
C2238 H2224 0.930 . S
C2238 C2236 1.395 . S
C2238 C2241 1.403 . S
C2239 C2236 1.403 . S
C2239 C2240 1.524 . S
C2239 C2243 1.400 . S
C2240 H2225 0.960 . S
C2240 H2226 0.960 . S
C2240 H2227 0.960 . S
C2240 C2239 1.524 . S
C2241 C2238 1.403 . S
C2241 C2242 1.392 . S
C2241 C2245 1.495 . S
C2242 C2241 1.392 . S
C2242 C2243 1.385 . S
C2242 C2244 1.478 . S
C2243 H2237 0.930 . S
C2243 C2239 1.400 . S
C2243 C2242 1.385 . S
C2244 C2242 1.478 . S
C2244 C2246 1.381 . S
C2244 C2250 1.383 . S
C2245 C2241 1.495 . S
C2245 H2251 0.959 . S
C2245 H2252 0.961 . S
C2245 H2253 0.960 . S
C2246 C2244 1.381 . S
C2246 C2247 1.394 . S
C2246 H2254 0.930 . S
C2247 C2246 1.394 . S
C2247 C2248 1.383 . S
C2247 H2255 0.929 . S
C2248 C2247 1.383 . S
C2248 C2249 1.377 . S
C2249 H2233 0.930 . S
C2249 C2248 1.377 . S
C2249 C2250 1.379 . S
C2250 H2234 0.931 . S
C2250 C2244 1.383 . S
C2250 C2249 1.379 . S
H2251 C2245 0.959 . S
H2252 C2245 0.961 . S
H2253 C2245 0.960 . S
H2254 C2246 0.930 . S
H2255 C2247 0.929 . S
H2256 C2264 0.929 . S
H2257 C2266 0.930 . S
H2258 C2268 0.930 . S
H2259 C2271 0.929 . S
H2260 C2274 0.930 . S
H2261 C2276 0.960 . S
H2262 C2276 0.960 . S
H2263 C2276 0.960 . S
C2264 H2256 0.929 . S
C2264 C2265 1.377 . S
C2264 C2266 1.384 . S
C2265 C2264 1.377 . S
C2265 C2271 1.390 1_556 S
C2266 H2257 0.930 . S
C2266 C2264 1.384 . S
C2266 C2267 1.372 1_556 S
C2267 C2266 1.372 1_554 S
C2267 C2268 1.400 . S
C2267 C2272 1.490 . S
C2268 H2258 0.930 . S
C2268 C2267 1.400 . S
C2268 C2271 1.386 . S
H2269 C2285 0.930 . S
H2270 C2286 0.931 1_545 S
C2271 H2259 0.929 . S
C2271 C2265 1.390 1_554 S
C2271 C2268 1.386 . S
C2272 C2267 1.490 . S
C2272 C2274 1.395 . S
C2272 C2275 1.435 . S
H2273 C2279 0.954 . S
C2274 H2260 0.930 . S
C2274 C2272 1.395 . S
C2274 C2277 1.403 . S
C2275 C2272 1.435 . S
C2275 C2276 1.476 1_554 S
C2275 C2279 1.419 . S
C2276 H2261 0.960 . S
C2276 H2262 0.960 . S
C2276 H2263 0.960 . S
C2276 C2275 1.476 1_556 S
C2277 C2274 1.403 . S
C2277 C2278 1.392 . S
C2277 C2281 1.495 . S
C2278 C2277 1.392 . S
C2278 C2279 1.385 . S
C2278 C2280 1.478 . S
C2279 H2273 0.954 . S
C2279 C2275 1.419 . S
C2279 C2278 1.385 . S
C2280 C2278 1.478 . S
C2280 C2282 1.381 . S
C2280 C2286 1.383 . S
C2281 C2277 1.495 . S
C2281 H2287 0.959 . S
C2281 H2288 0.961 . S
C2281 H2289 0.960 . S
C2282 C2280 1.381 . S
C2282 C2283 1.394 . S
C2282 H2290 0.930 . S
C2283 C2282 1.394 . S
C2283 C2284 1.383 . S
C2283 H2291 0.929 . S
C2284 C2283 1.383 . S
C2284 C2285 1.377 1_565 S
C2285 H2269 0.930 . S
C2285 C2284 1.377 1_545 S
C2285 C2286 1.379 1_545 S
C2286 H2270 0.931 1_565 S
C2286 C2280 1.383 . S
C2286 C2285 1.379 1_565 S
H2287 C2281 0.959 . S
H2288 C2281 0.961 . S
H2289 C2281 0.960 . S
H2290 C2282 0.930 . S
H2291 C2283 0.929 . S
H2292 C2300 0.929 . S
H2293 C2302 0.930 . S
H2294 C2304 0.930 . S
H2295 C2307 0.929 . S
H2296 C2310 0.930 . S
H2297 C2312 0.960 . S
H2298 C2312 0.960 . S
H2299 C2312 0.960 1_554 S
C2300 H2292 0.929 . S
C2300 C2301 1.377 1_556 S
C2300 C2302 1.384 . S
C2301 C2300 1.377 1_554 S
C2301 C2307 1.390 . S
C2302 H2293 0.930 . S
C2302 C2300 1.384 . S
C2302 C2303 1.372 1_556 S
C2303 C2302 1.372 1_554 S
C2303 C2304 1.400 . S
C2303 C2308 1.490 . S
C2304 H2294 0.930 . S
C2304 C2303 1.400 . S
C2304 C2307 1.386 . S
H2305 C2321 0.930 . S
H2306 C2322 0.931 . S
C2307 H2295 0.929 . S
C2307 C2301 1.390 . S
C2307 C2304 1.386 . S
C2308 C2303 1.490 . S
C2308 C2310 1.395 . S
C2308 C2311 1.403 . S
H2309 C2315 0.929 1_556 S
C2310 H2296 0.930 . S
C2310 C2308 1.395 . S
C2310 C2313 1.403 . S
C2311 C2308 1.403 . S
C2311 C2312 1.524 1_554 S
C2311 C2315 1.400 . S
C2312 H2297 0.960 . S
C2312 H2298 0.960 . S
C2312 H2299 0.960 1_556 S
C2312 C2311 1.524 1_556 S
C2313 C2310 1.403 . S
C2313 C2314 1.392 . S
C2313 C2317 1.495 . S
C2314 C2313 1.392 . S
C2314 C2315 1.385 . S
C2314 C2316 1.478 . S
C2315 H2309 0.929 1_554 S
C2315 C2311 1.400 . S
C2315 C2314 1.385 . S
C2316 C2314 1.478 . S
C2316 C2318 1.401 . S
C2316 C2322 1.383 . S
C2317 C2313 1.495 . S
C2317 H2323 0.959 . S
C2317 H2324 0.961 . S
C2317 H2325 0.960 . S
C2318 C2316 1.401 . S
C2318 C2319 1.402 . S
C2318 H2326 0.904 1_554 S
C2319 C2318 1.402 . S
C2319 C2320 1.383 . S
C2319 H2327 0.929 1_554 S
C2320 C2319 1.383 . S
C2320 C2321 1.377 . S
C2321 H2305 0.930 . S
C2321 C2320 1.377 . S
C2321 C2322 1.379 . S
C2322 H2306 0.931 . S
C2322 C2316 1.383 . S
C2322 C2321 1.379 . S
H2323 C2317 0.959 . S
H2324 C2317 0.961 . S
H2325 C2317 0.960 . S
H2326 C2318 0.904 1_556 S
H2327 C2319 0.929 1_556 S
H2328 C2336 0.929 . S
H2329 C2338 0.930 . S
H2330 C2340 0.930 . S
H2331 C2343 0.929 . S
H2332 C2346 0.930 . S
H2333 C2348 0.960 . S
H2334 C2348 0.960 . S
H2335 C2348 0.960 . S
C2336 H2328 0.929 . S
C2336 C2337 1.377 . S
C2336 C2338 1.384 . S
C2337 C2336 1.377 . S
C2337 C2343 1.390 . S
C2338 H2329 0.930 . S
C2338 C2336 1.384 . S
C2338 C2339 1.372 . S
C2339 C2338 1.372 . S
C2339 C2340 1.400 . S
C2339 C2344 1.490 . S
C2340 H2330 0.930 . S
C2340 C2339 1.400 . S
C2340 C2343 1.386 . S
H2341 C2357 0.930 . S
H2342 C2358 0.931 . S
C2343 H2331 0.929 . S
C2343 C2337 1.390 . S
C2343 C2340 1.386 . S
C2344 C2339 1.490 . S
C2344 C2346 1.395 . S
C2344 C2347 1.403 . S
H2345 C2351 0.930 . S
C2346 H2332 0.930 . S
C2346 C2344 1.395 . S
C2346 C2349 1.403 . S
C2347 C2344 1.403 . S
C2347 C2348 1.524 . S
C2347 C2351 1.400 . S
C2348 H2333 0.960 . S
C2348 H2334 0.960 . S
C2348 H2335 0.960 . S
C2348 C2347 1.524 . S
C2349 C2346 1.403 . S
C2349 C2350 1.392 . S
C2349 C2353 1.495 . S
C2350 C2349 1.392 . S
C2350 C2351 1.385 . S
C2350 C2352 1.478 . S
C2351 H2345 0.930 . S
C2351 C2347 1.400 . S
C2351 C2350 1.385 . S
C2352 C2350 1.478 . S
C2352 C2354 1.381 . S
C2352 C2358 1.383 . S
C2353 C2349 1.495 . S
C2353 H2359 0.959 . S
C2353 H2360 0.961 . S
C2353 H2361 0.960 . S
C2354 C2352 1.381 . S
C2354 C2355 1.394 . S
C2354 H2362 0.930 . S
C2355 C2354 1.394 . S
C2355 C2356 1.383 . S
C2355 H2363 0.929 . S
C2356 C2355 1.383 . S
C2356 C2357 1.377 . S
C2357 H2341 0.930 . S
C2357 C2356 1.377 . S
C2357 C2358 1.379 . S
C2358 H2342 0.931 . S
C2358 C2352 1.383 . S
C2358 C2357 1.379 . S
H2359 C2353 0.959 . S
H2360 C2353 0.961 . S
H2361 C2353 0.960 . S
H2362 C2354 0.930 . S
H2363 C2355 0.929 . S
H2364 C2372 0.929 . S
H2365 C2374 0.930 . S
H2366 C2376 0.930 . S
H2367 C2379 0.929 . S
H2368 C2382 0.930 . S
H2369 C2384 0.960 . S
H2370 C2384 0.960 . S
H2371 C2384 0.960 . S
C2372 H2364 0.929 . S
C2372 C2373 1.377 . S
C2372 C2374 1.384 . S
C2373 C2372 1.377 . S
C2373 C2379 1.390 . S
C2374 H2365 0.930 . S
C2374 C2372 1.384 . S
C2374 C2375 1.372 . S
C2375 C2374 1.372 . S
C2375 C2376 1.400 . S
C2375 C2380 1.490 . S
C2376 H2366 0.930 . S
C2376 C2375 1.400 . S
C2376 C2379 1.386 . S
H2377 C2393 0.930 . S
H2378 C2394 0.931 . S
C2379 H2367 0.929 . S
C2379 C2373 1.390 . S
C2379 C2376 1.386 . S
C2380 C2375 1.490 . S
C2380 C2382 1.395 . S
C2380 C2383 1.403 . S
H2381 C2387 0.930 . S
C2382 H2368 0.930 . S
C2382 C2380 1.395 . S
C2382 C2385 1.403 . S
C2383 C2380 1.403 . S
C2383 C2384 1.524 . S
C2383 C2387 1.400 . S
C2384 H2369 0.960 . S
C2384 H2370 0.960 . S
C2384 H2371 0.960 . S
C2384 C2383 1.524 . S
C2385 C2382 1.403 . S
C2385 C2386 1.392 . S
C2385 C2389 1.495 . S
C2386 C2385 1.392 . S
C2386 C2387 1.385 . S
C2386 C2388 1.478 . S
C2387 H2381 0.930 . S
C2387 C2383 1.400 . S
C2387 C2386 1.385 . S
C2388 C2386 1.478 . S
C2388 C2390 1.381 . S
C2388 C2394 1.383 . S
C2389 C2385 1.495 . S
C2389 H2395 0.959 . S
C2389 H2396 0.961 . S
C2389 H2397 0.960 . S
C2390 C2388 1.381 . S
C2390 C2391 1.394 . S
C2390 H2398 0.930 . S
C2391 C2390 1.394 . S
C2391 C2392 1.383 . S
C2391 H2399 0.929 . S
C2392 C2391 1.383 . S
C2392 C2393 1.377 . S
C2393 H2377 0.930 . S
C2393 C2392 1.377 . S
C2393 C2394 1.379 . S
C2394 H2378 0.931 . S
C2394 C2388 1.383 . S
C2394 C2393 1.379 . S
H2395 C2389 0.959 . S
H2396 C2389 0.961 . S
H2397 C2389 0.960 . S
H2398 C2390 0.930 . S
H2399 C2391 0.929 . S
H2400 C2408 0.929 . S
H2401 C2410 0.930 . S
H2402 C2412 0.930 . S
H2403 C2415 0.929 . S
H2404 C2418 0.930 . S
H2405 C2420 0.960 . S
H2406 C2420 0.960 . S
H2407 C2420 0.960 . S
C2408 H2400 0.929 . S
C2408 C2409 1.377 . S
C2408 C2410 1.384 . S
C2409 C2408 1.377 . S
C2409 C2415 1.390 . S
C2410 H2401 0.930 . S
C2410 C2408 1.384 . S
C2410 C2411 1.372 . S
C2411 C2410 1.372 . S
C2411 C2412 1.400 . S
C2411 C2416 1.490 . S
C2412 H2402 0.930 . S
C2412 C2411 1.400 . S
C2412 C2415 1.386 . S
H2413 C2429 0.930 . S
H2414 C2430 0.931 . S
C2415 H2403 0.929 . S
C2415 C2409 1.390 . S
C2415 C2412 1.386 . S
C2416 C2411 1.490 . S
C2416 C2418 1.395 . S
C2416 C2419 1.403 . S
H2417 C2423 0.930 . S
C2418 H2404 0.930 . S
C2418 C2416 1.395 . S
C2418 C2421 1.403 . S
C2419 C2416 1.403 . S
C2419 C2420 1.524 . S
C2419 C2423 1.400 . S
C2420 H2405 0.960 . S
C2420 H2406 0.960 . S
C2420 H2407 0.960 . S
C2420 C2419 1.524 . S
C2421 C2418 1.403 . S
C2421 C2422 1.392 . S
C2421 C2425 1.495 . S
C2422 C2421 1.392 . S
C2422 C2423 1.385 . S
C2422 C2424 1.478 . S
C2423 H2417 0.930 . S
C2423 C2419 1.400 . S
C2423 C2422 1.385 . S
C2424 C2422 1.478 . S
C2424 C2426 1.381 . S
C2424 C2430 1.383 . S
C2425 C2421 1.495 . S
C2425 H2431 0.959 . S
C2425 H2432 0.961 . S
C2425 H2433 0.960 . S
C2426 C2424 1.381 . S
C2426 C2427 1.394 . S
C2426 H2434 0.930 . S
C2427 C2426 1.394 . S
C2427 C2428 1.383 . S
C2427 H2435 0.929 . S
C2428 C2427 1.383 . S
C2428 C2429 1.377 . S
C2429 H2413 0.930 . S
C2429 C2428 1.377 . S
C2429 C2430 1.379 . S
C2430 H2414 0.931 . S
C2430 C2424 1.383 . S
C2430 C2429 1.379 . S
H2431 C2425 0.959 . S
H2432 C2425 0.961 . S
H2433 C2425 0.960 . S
H2434 C2426 0.930 . S
H2435 C2427 0.929 . S
H2436 C2444 0.929 . S
H2437 C2446 0.930 . S
H2438 C2448 0.930 . S
H2439 C2451 0.929 . S
H2440 C2454 0.930 . S
H2441 C2456 0.960 . S
H2442 C2456 0.960 . S
H2443 C2456 0.960 . S
C2444 H2436 0.929 . S
C2444 C2445 1.377 . S
C2444 C2446 1.384 . S
C2445 C2444 1.377 . S
C2445 C2451 1.390 . S
C2446 H2437 0.930 . S
C2446 C2444 1.384 . S
C2446 C2447 1.372 . S
C2447 C2446 1.372 . S
C2447 C2448 1.400 . S
C2447 C2452 1.490 . S
C2448 H2438 0.930 . S
C2448 C2447 1.400 . S
C2448 C2451 1.386 . S
H2449 C2465 0.930 . S
H2450 C2466 0.931 . S
C2451 H2439 0.929 . S
C2451 C2445 1.390 . S
C2451 C2448 1.386 . S
C2452 C2447 1.490 . S
C2452 C2454 1.395 . S
C2452 C2455 1.403 . S
H2453 C2459 0.930 . S
C2454 H2440 0.930 . S
C2454 C2452 1.395 . S
C2454 C2457 1.403 . S
C2455 C2452 1.403 . S
C2455 C2456 1.524 . S
C2455 C2459 1.400 . S
C2456 H2441 0.960 . S
C2456 H2442 0.960 . S
C2456 H2443 0.960 . S
C2456 C2455 1.524 . S
C2457 C2454 1.403 . S
C2457 C2458 1.392 . S
C2457 C2461 1.495 . S
C2458 C2457 1.392 . S
C2458 C2459 1.385 . S
C2458 C2460 1.478 . S
C2459 H2453 0.930 . S
C2459 C2455 1.400 . S
C2459 C2458 1.385 . S
C2460 C2458 1.478 . S
C2460 C2462 1.381 . S
C2460 C2466 1.383 . S
C2461 C2457 1.495 . S
C2461 H2467 0.959 . S
C2461 H2468 0.961 . S
C2461 H2469 0.960 . S
C2462 C2460 1.381 . S
C2462 C2463 1.394 . S
C2462 H2470 0.930 . S
C2463 C2462 1.394 . S
C2463 C2464 1.383 . S
C2463 H2471 0.929 . S
C2464 C2463 1.383 . S
C2464 C2465 1.377 . S
C2465 H2449 0.930 . S
C2465 C2464 1.377 . S
C2465 C2466 1.379 . S
C2466 H2450 0.931 . S
C2466 C2460 1.383 . S
C2466 C2465 1.379 . S
H2467 C2461 0.959 . S
H2468 C2461 0.961 . S
H2469 C2461 0.960 . S
H2470 C2462 0.930 . S
H2471 C2463 0.929 . S
H2472 C2480 0.929 . S
H2473 C2482 0.930 . S
H2474 C2484 0.930 . S
H2475 C2487 0.929 . S
H2476 C2490 0.930 . S
H2477 C2492 0.960 . S
H2478 C2492 0.960 . S
H2479 C2492 0.960 . S
C2480 H2472 0.929 . S
C2480 C2481 1.377 . S
C2480 C2482 1.384 . S
C2481 C2480 1.377 . S
C2481 C2487 1.390 . S
C2482 H2473 0.930 . S
C2482 C2480 1.384 . S
C2482 C2483 1.372 . S
C2483 C2482 1.372 . S
C2483 C2484 1.400 . S
C2483 C2488 1.490 . S
C2484 H2474 0.930 . S
C2484 C2483 1.400 . S
C2484 C2487 1.386 . S
H2485 C2501 0.930 . S
H2486 C2502 0.931 . S
C2487 H2475 0.929 . S
C2487 C2481 1.390 . S
C2487 C2484 1.386 . S
C2488 C2483 1.490 . S
C2488 C2490 1.395 . S
C2488 C2491 1.403 . S
H2489 C2495 0.930 . S
C2490 H2476 0.930 . S
C2490 C2488 1.395 . S
C2490 C2493 1.403 . S
C2491 C2488 1.403 . S
C2491 C2492 1.524 . S
C2491 C2495 1.400 . S
C2492 H2477 0.960 . S
C2492 H2478 0.960 . S
C2492 H2479 0.960 . S
C2492 C2491 1.524 . S
C2493 C2490 1.403 . S
C2493 C2494 1.392 . S
C2493 C2497 1.495 . S
C2494 C2493 1.392 . S
C2494 C2495 1.385 . S
C2494 C2496 1.478 . S
C2495 H2489 0.930 . S
C2495 C2491 1.400 . S
C2495 C2494 1.385 . S
C2496 C2494 1.478 . S
C2496 C2498 1.381 . S
C2496 C2502 1.383 . S
C2497 C2493 1.495 . S
C2497 H2503 0.959 . S
C2497 H2504 0.961 . S
C2497 H2505 0.960 . S
C2498 C2496 1.381 . S
C2498 C2499 1.394 . S
C2498 H2506 0.930 . S
C2499 C2498 1.394 . S
C2499 C2500 1.383 . S
C2499 H2507 0.929 . S
C2500 C2499 1.383 . S
C2500 C2501 1.377 . S
C2501 H2485 0.930 . S
C2501 C2500 1.377 . S
C2501 C2502 1.379 . S
C2502 H2486 0.931 . S
C2502 C2496 1.383 . S
C2502 C2501 1.379 . S
H2503 C2497 0.959 . S
H2504 C2497 0.961 . S
H2505 C2497 0.960 . S
H2506 C2498 0.930 . S
H2507 C2499 0.929 . S
H2508 C2516 0.929 . S
H2509 C2518 0.930 . S
H2510 C2520 0.930 . S
H2511 C2523 0.929 . S
H2512 C2526 0.930 . S
H2513 C2528 0.960 . S
H2514 C2528 0.960 . S
H2515 C2528 0.960 . S
C2516 H2508 0.929 . S
C2516 C2517 1.377 . S
C2516 C2518 1.384 . S
C2517 C2516 1.377 . S
C2517 C2523 1.390 . S
C2518 H2509 0.930 . S
C2518 C2516 1.384 . S
C2518 C2519 1.372 . S
C2519 C2518 1.372 . S
C2519 C2520 1.400 . S
C2519 C2524 1.490 . S
C2520 H2510 0.930 . S
C2520 C2519 1.400 . S
C2520 C2523 1.386 . S
H2521 C2537 0.930 . S
H2522 C2538 0.931 . S
C2523 H2511 0.929 . S
C2523 C2517 1.390 . S
C2523 C2520 1.386 . S
C2524 C2519 1.490 . S
C2524 C2526 1.395 . S
C2524 C2527 1.403 . S
H2525 C2531 0.930 . S
C2526 H2512 0.930 . S
C2526 C2524 1.395 . S
C2526 C2529 1.403 . S
C2527 C2524 1.403 . S
C2527 C2528 1.524 . S
C2527 C2531 1.400 . S
C2528 H2513 0.960 . S
C2528 H2514 0.960 . S
C2528 H2515 0.960 . S
C2528 C2527 1.524 . S
C2529 C2526 1.403 . S
C2529 C2530 1.392 . S
C2529 C2533 1.495 . S
C2530 C2529 1.392 . S
C2530 C2531 1.385 . S
C2530 C2532 1.478 . S
C2531 H2525 0.930 . S
C2531 C2527 1.400 . S
C2531 C2530 1.385 . S
C2532 C2530 1.478 . S
C2532 C2534 1.381 . S
C2532 C2538 1.383 . S
C2533 C2529 1.495 . S
C2533 H2539 0.959 . S
C2533 H2540 0.961 . S
C2533 H2541 0.960 . S
C2534 C2532 1.381 . S
C2534 C2535 1.394 . S
C2534 H2542 0.930 . S
C2535 C2534 1.394 . S
C2535 C2536 1.383 . S
C2535 H2543 0.929 . S
C2536 C2535 1.383 . S
C2536 C2537 1.377 . S
C2537 H2521 0.930 . S
C2537 C2536 1.377 . S
C2537 C2538 1.379 . S
C2538 H2522 0.931 . S
C2538 C2532 1.383 . S
C2538 C2537 1.379 . S
H2539 C2533 0.959 . S
H2540 C2533 0.961 . S
H2541 C2533 0.960 . S
H2542 C2534 0.930 . S
H2543 C2535 0.929 . S
H2544 C2552 0.929 . S
H2545 C2554 0.930 . S
H2546 C2556 0.930 . S
H2547 C2559 0.929 . S
H2548 C2562 0.930 . S
H2549 C2564 0.960 . S
H2550 C2564 0.960 . S
H2551 C2564 0.960 . S
C2552 H2544 0.929 . S
C2552 C2553 1.377 . S
C2552 C2554 1.384 . S
C2553 C2552 1.377 . S
C2553 C2559 1.390 . S
C2554 H2545 0.930 . S
C2554 C2552 1.384 . S
C2554 C2555 1.372 . S
C2555 C2554 1.372 . S
C2555 C2556 1.400 . S
C2555 C2560 1.490 . S
C2556 H2546 0.930 . S
C2556 C2555 1.400 . S
C2556 C2559 1.386 . S
H2557 C2573 0.930 . S
H2558 C2574 0.931 . S
C2559 H2547 0.929 . S
C2559 C2553 1.390 . S
C2559 C2556 1.386 . S
C2560 C2555 1.490 . S
C2560 C2562 1.395 . S
C2560 C2563 1.403 . S
H2561 C2567 0.930 . S
C2562 H2548 0.930 . S
C2562 C2560 1.395 . S
C2562 C2565 1.403 . S
C2563 C2560 1.403 . S
C2563 C2564 1.524 . S
C2563 C2567 1.400 . S
C2564 H2549 0.960 . S
C2564 H2550 0.960 . S
C2564 H2551 0.960 . S
C2564 C2563 1.524 . S
C2565 C2562 1.403 . S
C2565 C2566 1.392 . S
C2565 C2569 1.495 . S
C2566 C2565 1.392 . S
C2566 C2567 1.385 . S
C2566 C2568 1.478 . S
C2567 H2561 0.930 . S
C2567 C2563 1.400 . S
C2567 C2566 1.385 . S
C2568 C2566 1.478 . S
C2568 C2570 1.381 . S
C2568 C2574 1.383 . S
C2569 C2565 1.495 . S
C2569 H2575 0.959 . S
C2569 H2576 0.961 . S
C2569 H2577 0.960 . S
C2570 C2568 1.381 . S
C2570 C2571 1.394 . S
C2570 H2578 0.930 . S
C2571 C2570 1.394 . S
C2571 C2572 1.383 . S
C2571 H2579 0.929 . S
C2572 C2571 1.383 . S
C2572 C2573 1.377 . S
C2573 H2557 0.930 . S
C2573 C2572 1.377 . S
C2573 C2574 1.379 . S
C2574 H2558 0.931 . S
C2574 C2568 1.383 . S
C2574 C2573 1.379 . S
H2575 C2569 0.959 . S
H2576 C2569 0.961 . S
H2577 C2569 0.960 . S
H2578 C2570 0.930 . S
H2579 C2571 0.929 . S
H2580 C2588 0.929 . S
H2581 C2590 0.930 . S
H2582 C2592 0.930 . S
H2583 C2595 0.929 . S
H2584 C2598 0.930 . S
H2585 C2600 0.960 . S
H2586 C2600 0.960 . S
H2587 C2600 0.960 . S
C2588 H2580 0.929 . S
C2588 C2589 1.377 . S
C2588 C2590 1.384 . S
C2589 C2588 1.377 . S
C2589 C2595 1.390 . S
C2590 H2581 0.930 . S
C2590 C2588 1.384 . S
C2590 C2591 1.372 . S
C2591 C2590 1.372 . S
C2591 C2592 1.400 . S
C2591 C2596 1.490 . S
C2592 H2582 0.930 . S
C2592 C2591 1.400 . S
C2592 C2595 1.386 . S
H2593 C2609 0.930 . S
H2594 C2610 0.931 . S
C2595 H2583 0.929 . S
C2595 C2589 1.390 . S
C2595 C2592 1.386 . S
C2596 C2591 1.490 . S
C2596 C2598 1.395 . S
C2596 C2599 1.403 . S
H2597 C2603 0.930 . S
C2598 H2584 0.930 . S
C2598 C2596 1.395 . S
C2598 C2601 1.403 . S
C2599 C2596 1.403 . S
C2599 C2600 1.524 . S
C2599 C2603 1.400 . S
C2600 H2585 0.960 . S
C2600 H2586 0.960 . S
C2600 H2587 0.960 . S
C2600 C2599 1.524 . S
C2601 C2598 1.403 . S
C2601 C2602 1.392 . S
C2601 C2605 1.495 . S
C2602 C2601 1.392 . S
C2602 C2603 1.385 . S
C2602 C2604 1.478 . S
C2603 H2597 0.930 . S
C2603 C2599 1.400 . S
C2603 C2602 1.385 . S
C2604 C2602 1.478 . S
C2604 C2606 1.381 . S
C2604 C2610 1.383 . S
C2605 C2601 1.495 . S
C2605 H2611 0.959 . S
C2605 H2612 0.961 . S
C2605 H2613 0.960 . S
C2606 C2604 1.381 . S
C2606 C2607 1.394 . S
C2606 H2614 0.930 . S
C2607 C2606 1.394 . S
C2607 C2608 1.383 . S
C2607 H2615 0.929 . S
C2608 C2607 1.383 . S
C2608 C2609 1.377 . S
C2609 H2593 0.930 . S
C2609 C2608 1.377 . S
C2609 C2610 1.379 . S
C2610 H2594 0.931 . S
C2610 C2604 1.383 . S
C2610 C2609 1.379 . S
H2611 C2605 0.959 . S
H2612 C2605 0.961 . S
H2613 C2605 0.960 . S
H2614 C2606 0.930 . S
H2615 C2607 0.929 . S
H2616 C2624 0.929 . S
H2617 C2626 0.930 . S
H2618 C2628 0.930 . S
H2619 C2631 0.929 . S
H2620 C2634 0.930 . S
H2621 C2636 0.960 . S
H2622 C2636 0.960 . S
H2623 C2636 0.960 . S
C2624 H2616 0.929 . S
C2624 C2625 1.377 . S
C2624 C2626 1.384 . S
C2625 C2624 1.377 . S
C2625 C2631 1.390 . S
C2626 H2617 0.930 . S
C2626 C2624 1.384 . S
C2626 C2627 1.372 . S
C2627 C2626 1.372 . S
C2627 C2628 1.400 . S
C2627 C2632 1.490 . S
C2628 H2618 0.930 . S
C2628 C2627 1.400 . S
C2628 C2631 1.386 . S
H2629 C2645 0.930 . S
H2630 C2646 0.931 . S
C2631 H2619 0.929 . S
C2631 C2625 1.390 . S
C2631 C2628 1.386 . S
C2632 C2627 1.490 . S
C2632 C2634 1.395 . S
C2632 C2635 1.403 . S
H2633 C2639 0.930 . S
C2634 H2620 0.930 . S
C2634 C2632 1.395 . S
C2634 C2637 1.403 . S
C2635 C2632 1.403 . S
C2635 C2636 1.524 . S
C2635 C2639 1.400 . S
C2636 H2621 0.960 . S
C2636 H2622 0.960 . S
C2636 H2623 0.960 . S
C2636 C2635 1.524 . S
C2637 C2634 1.403 . S
C2637 C2638 1.392 . S
C2637 C2641 1.495 . S
C2638 C2637 1.392 . S
C2638 C2639 1.385 . S
C2638 C2640 1.478 . S
C2639 H2633 0.930 . S
C2639 C2635 1.400 . S
C2639 C2638 1.385 . S
C2640 C2638 1.478 . S
C2640 C2642 1.381 . S
C2640 C2646 1.383 . S
C2641 C2637 1.495 . S
C2641 H2647 0.959 . S
C2641 H2648 0.961 . S
C2641 H2649 0.960 . S
C2642 C2640 1.381 . S
C2642 C2643 1.394 . S
C2642 H2650 0.930 . S
C2643 C2642 1.394 . S
C2643 C2644 1.383 . S
C2643 H2651 0.929 . S
C2644 C2643 1.383 . S
C2644 C2645 1.377 . S
C2645 H2629 0.930 . S
C2645 C2644 1.377 . S
C2645 C2646 1.379 . S
C2646 H2630 0.931 . S
C2646 C2640 1.383 . S
C2646 C2645 1.379 . S
H2647 C2641 0.959 . S
H2648 C2641 0.961 . S
H2649 C2641 0.960 . S
H2650 C2642 0.930 . S
H2651 C2643 0.929 . S
H2652 C2660 0.929 . S
H2653 C2662 0.930 . S
H2654 C2664 0.930 . S
H2655 C2667 0.929 . S
H2656 C2670 0.930 . S
H2657 C2672 0.960 . S
H2658 C2672 0.960 . S
H2659 C2672 0.960 . S
C2660 H2652 0.929 . S
C2660 C2661 1.377 . S
C2660 C2662 1.384 . S
C2661 C2660 1.377 . S
C2661 C2667 1.390 . S
C2662 H2653 0.930 . S
C2662 C2660 1.384 . S
C2662 C2663 1.372 . S
C2663 C2662 1.372 . S
C2663 C2664 1.400 . S
C2663 C2668 1.490 . S
C2664 H2654 0.930 . S
C2664 C2663 1.400 . S
C2664 C2667 1.386 . S
H2665 C2681 0.930 . S
H2666 C2682 0.931 . S
C2667 H2655 0.929 . S
C2667 C2661 1.390 . S
C2667 C2664 1.386 . S
C2668 C2663 1.490 . S
C2668 C2670 1.395 . S
C2668 C2671 1.403 . S
H2669 C2675 0.930 . S
C2670 H2656 0.930 . S
C2670 C2668 1.395 . S
C2670 C2673 1.403 . S
C2671 C2668 1.403 . S
C2671 C2672 1.524 . S
C2671 C2675 1.400 . S
C2672 H2657 0.960 . S
C2672 H2658 0.960 . S
C2672 H2659 0.960 . S
C2672 C2671 1.524 . S
C2673 C2670 1.403 . S
C2673 C2674 1.392 . S
C2673 C2677 1.495 . S
C2674 C2673 1.392 . S
C2674 C2675 1.385 . S
C2674 C2676 1.478 . S
C2675 H2669 0.930 . S
C2675 C2671 1.400 . S
C2675 C2674 1.385 . S
C2676 C2674 1.478 . S
C2676 C2678 1.381 . S
C2676 C2682 1.383 . S
C2677 C2673 1.495 . S
C2677 H2683 0.959 . S
C2677 H2684 0.961 . S
C2677 H2685 0.960 . S
C2678 C2676 1.381 . S
C2678 C2679 1.394 . S
C2678 H2686 0.930 . S
C2679 C2678 1.394 . S
C2679 C2680 1.383 . S
C2679 H2687 0.929 . S
C2680 C2679 1.383 . S
C2680 C2681 1.377 . S
C2681 H2665 0.930 . S
C2681 C2680 1.377 . S
C2681 C2682 1.379 . S
C2682 H2666 0.931 . S
C2682 C2676 1.383 . S
C2682 C2681 1.379 . S
H2683 C2677 0.959 . S
H2684 C2677 0.961 . S
H2685 C2677 0.960 . S
H2686 C2678 0.930 . S
H2687 C2679 0.929 . S
H2688 C2696 0.929 . S
H2689 C2698 0.930 . S
H2690 C2700 0.930 . S
H2691 C2703 0.929 . S
H2692 C2706 0.930 . S
H2693 C2708 0.960 . S
H2694 C2708 0.960 . S
H2695 C2708 0.960 . S
C2696 H2688 0.929 . S
C2696 C2697 1.377 . S
C2696 C2698 1.384 . S
C2697 C2696 1.377 . S
C2697 C2703 1.390 . S
C2698 H2689 0.930 . S
C2698 C2696 1.384 . S
C2698 C2699 1.372 . S
C2699 C2698 1.372 . S
C2699 C2700 1.400 . S
C2699 C2704 1.490 . S
C2700 H2690 0.930 . S
C2700 C2699 1.400 . S
C2700 C2703 1.386 . S
H2701 C2717 0.930 . S
H2702 C2718 0.931 . S
C2703 H2691 0.929 . S
C2703 C2697 1.390 . S
C2703 C2700 1.386 . S
C2704 C2699 1.490 . S
C2704 C2706 1.395 . S
C2704 C2707 1.403 . S
H2705 C2711 0.930 . S
C2706 H2692 0.930 . S
C2706 C2704 1.395 . S
C2706 C2709 1.403 . S
C2707 C2704 1.403 . S
C2707 C2708 1.524 . S
C2707 C2711 1.400 . S
C2708 H2693 0.960 . S
C2708 H2694 0.960 . S
C2708 H2695 0.960 . S
C2708 C2707 1.524 . S
C2709 C2706 1.403 . S
C2709 C2710 1.392 . S
C2709 C2713 1.495 . S
C2710 C2709 1.392 . S
C2710 C2711 1.385 . S
C2710 C2712 1.478 . S
C2711 H2705 0.930 . S
C2711 C2707 1.400 . S
C2711 C2710 1.385 . S
C2712 C2710 1.478 . S
C2712 C2714 1.381 . S
C2712 C2718 1.383 . S
C2713 C2709 1.495 . S
C2713 H2719 0.959 . S
C2713 H2720 0.961 . S
C2713 H2721 0.960 . S
C2714 C2712 1.381 . S
C2714 C2715 1.394 . S
C2714 H2722 0.930 . S
C2715 C2714 1.394 . S
C2715 C2716 1.383 . S
C2715 H2723 0.929 . S
C2716 C2715 1.383 . S
C2716 C2717 1.377 . S
C2717 H2701 0.930 . S
C2717 C2716 1.377 . S
C2717 C2718 1.379 . S
C2718 H2702 0.931 . S
C2718 C2712 1.383 . S
C2718 C2717 1.379 . S
H2719 C2713 0.959 . S
H2720 C2713 0.961 . S
H2721 C2713 0.960 . S
H2722 C2714 0.930 . S
H2723 C2715 0.929 . S
H2724 C2732 0.929 . S
H2725 C2734 0.930 . S
H2726 C2736 0.930 . S
H2727 C2739 0.929 . S
H2728 C2742 0.930 . S
H2729 C2744 0.960 . S
H2730 C2744 0.960 . S
H2731 C2744 0.960 . S
C2732 H2724 0.929 . S
C2732 C2733 1.377 . S
C2732 C2734 1.384 . S
C2733 C2732 1.377 . S
C2733 C2739 1.390 . S
C2734 H2725 0.930 . S
C2734 C2732 1.384 . S
C2734 C2735 1.372 . S
C2735 C2734 1.372 . S
C2735 C2736 1.400 . S
C2735 C2740 1.490 . S
C2736 H2726 0.930 . S
C2736 C2735 1.400 . S
C2736 C2739 1.386 . S
H2737 C2753 0.930 . S
H2738 C2754 0.931 . S
C2739 H2727 0.929 . S
C2739 C2733 1.390 . S
C2739 C2736 1.386 . S
C2740 C2735 1.490 . S
C2740 C2742 1.395 . S
C2740 C2743 1.403 . S
H2741 C2747 0.930 . S
C2742 H2728 0.930 . S
C2742 C2740 1.395 . S
C2742 C2745 1.403 . S
C2743 C2740 1.403 . S
C2743 C2744 1.524 . S
C2743 C2747 1.400 . S
C2744 H2729 0.960 . S
C2744 H2730 0.960 . S
C2744 H2731 0.960 . S
C2744 C2743 1.524 . S
C2745 C2742 1.403 . S
C2745 C2746 1.392 . S
C2745 C2749 1.495 . S
C2746 C2745 1.392 . S
C2746 C2747 1.385 . S
C2746 C2748 1.478 . S
C2747 H2741 0.930 . S
C2747 C2743 1.400 . S
C2747 C2746 1.385 . S
C2748 C2746 1.478 . S
C2748 C2750 1.381 . S
C2748 C2754 1.383 . S
C2749 C2745 1.495 . S
C2749 H2755 0.959 . S
C2749 H2756 0.961 . S
C2749 H2757 0.960 . S
C2750 C2748 1.381 . S
C2750 C2751 1.394 . S
C2750 H2758 0.930 . S
C2751 C2750 1.394 . S
C2751 C2752 1.383 . S
C2751 H2759 0.929 . S
C2752 C2751 1.383 . S
C2752 C2753 1.377 . S
C2753 H2737 0.930 . S
C2753 C2752 1.377 . S
C2753 C2754 1.379 . S
C2754 H2738 0.931 . S
C2754 C2748 1.383 . S
C2754 C2753 1.379 . S
H2755 C2749 0.959 . S
H2756 C2749 0.961 . S
H2757 C2749 0.960 . S
H2758 C2750 0.930 . S
H2759 C2751 0.929 . S
H2760 C2768 0.929 . S
H2761 C2770 0.930 . S
H2762 C2772 0.930 . S
H2763 C2775 0.929 . S
H2764 C2778 0.930 . S
H2765 C2780 0.960 . S
H2766 C2780 0.960 . S
H2767 C2780 0.960 . S
C2768 H2760 0.929 . S
C2768 C2769 1.377 . S
C2768 C2770 1.384 . S
C2769 C2768 1.377 . S
C2769 C2775 1.390 . S
C2770 H2761 0.930 . S
C2770 C2768 1.384 . S
C2770 C2771 1.372 . S
C2771 C2770 1.372 . S
C2771 C2772 1.400 . S
C2771 C2776 1.490 . S
C2772 H2762 0.930 . S
C2772 C2771 1.400 . S
C2772 C2775 1.386 . S
H2773 C2789 0.930 . S
H2774 C2790 0.931 . S
C2775 H2763 0.929 . S
C2775 C2769 1.390 . S
C2775 C2772 1.386 . S
C2776 C2771 1.490 . S
C2776 C2778 1.395 . S
C2776 C2779 1.403 . S
H2777 C2783 0.930 . S
C2778 H2764 0.930 . S
C2778 C2776 1.395 . S
C2778 C2781 1.403 . S
C2779 C2776 1.403 . S
C2779 C2780 1.524 . S
C2779 C2783 1.400 . S
C2780 H2765 0.960 . S
C2780 H2766 0.960 . S
C2780 H2767 0.960 . S
C2780 C2779 1.524 . S
C2781 C2778 1.403 . S
C2781 C2782 1.392 . S
C2781 C2785 1.495 . S
C2782 C2781 1.392 . S
C2782 C2783 1.385 . S
C2782 C2784 1.478 . S
C2783 H2777 0.930 . S
C2783 C2779 1.400 . S
C2783 C2782 1.385 . S
C2784 C2782 1.478 . S
C2784 C2786 1.381 . S
C2784 C2790 1.383 . S
C2785 C2781 1.495 . S
C2785 H2791 0.959 . S
C2785 H2792 0.961 . S
C2785 H2793 0.960 . S
C2786 C2784 1.381 . S
C2786 C2787 1.394 . S
C2786 H2794 0.930 . S
C2787 C2786 1.394 . S
C2787 C2788 1.383 . S
C2787 H2795 0.929 1_556 S
C2788 C2787 1.383 . S
C2788 C2789 1.377 . S
C2789 H2773 0.930 . S
C2789 C2788 1.377 . S
C2789 C2790 1.379 . S
C2790 H2774 0.931 . S
C2790 C2784 1.383 . S
C2790 C2789 1.379 . S
H2791 C2785 0.959 . S
H2792 C2785 0.961 . S
H2793 C2785 0.960 . S
H2794 C2786 0.930 . S
H2795 C2787 0.929 1_554 S
H2796 C2804 0.929 . S
H2797 C2806 0.930 . S
H2798 C2808 0.930 . S
H2799 C2811 0.929 . S
H2800 C2814 0.930 . S
H2801 C2816 0.960 . S
H2802 C2816 0.960 . S
H2803 C2816 0.960 . S
C2804 H2796 0.929 . S
C2804 C2805 1.377 . S
C2804 C2806 1.384 . S
C2805 C2804 1.377 . S
C2805 C2811 1.390 . S
C2806 H2797 0.930 . S
C2806 C2804 1.384 . S
C2806 C2807 1.372 . S
C2807 C2806 1.372 . S
C2807 C2808 1.400 . S
C2807 C2812 1.490 . S
C2808 H2798 0.930 . S
C2808 C2807 1.400 . S
C2808 C2811 1.386 . S
H2809 C2825 0.930 . S
H2810 C2826 0.931 . S
C2811 H2799 0.929 . S
C2811 C2805 1.390 . S
C2811 C2808 1.386 . S
C2812 C2807 1.490 . S
C2812 C2814 1.395 . S
C2812 C2815 1.403 . S
H2813 C2819 0.930 . S
C2814 H2800 0.930 . S
C2814 C2812 1.395 . S
C2814 C2817 1.403 . S
C2815 C2812 1.403 . S
C2815 C2816 1.524 . S
C2815 C2819 1.400 . S
C2816 H2801 0.960 . S
C2816 H2802 0.960 . S
C2816 H2803 0.960 . S
C2816 C2815 1.524 . S
C2817 C2814 1.403 . S
C2817 C2818 1.392 . S
C2817 C2821 1.495 . S
C2818 C2817 1.392 . S
C2818 C2819 1.385 . S
C2818 C2820 1.478 . S
C2819 H2813 0.930 . S
C2819 C2815 1.400 . S
C2819 C2818 1.385 . S
C2820 C2818 1.478 . S
C2820 C2822 1.381 . S
C2820 C2826 1.383 . S
C2821 C2817 1.495 . S
C2821 H2827 0.959 . S
C2821 H2828 0.961 . S
C2821 H2829 0.960 . S
C2822 C2820 1.381 . S
C2822 C2823 1.394 . S
C2822 H2830 0.930 . S
C2823 C2822 1.394 . S
C2823 C2824 1.383 . S
C2823 H2831 0.929 . S
C2824 C2823 1.383 . S
C2824 C2825 1.377 . S
C2825 H2809 0.930 . S
C2825 C2824 1.377 . S
C2825 C2826 1.379 . S
C2826 H2810 0.931 . S
C2826 C2820 1.383 . S
C2826 C2825 1.379 . S
H2827 C2821 0.959 . S
H2828 C2821 0.961 . S
H2829 C2821 0.960 . S
H2830 C2822 0.930 . S
H2831 C2823 0.929 . S
H2832 C2840 0.929 . S
H2833 C2842 0.930 . S
H2834 C2844 0.930 . S
H2835 C2847 0.929 . S
H2836 C2850 0.930 . S
H2837 C2852 0.960 1_565 S
H2838 C2852 0.960 1_565 S
H2839 C2852 0.960 . S
C2840 H2832 0.929 . S
C2840 C2841 1.377 . S
C2840 C2842 1.384 . S
C2841 C2840 1.377 . S
C2841 C2847 1.390 . S
C2842 H2833 0.930 . S
C2842 C2840 1.384 . S
C2842 C2843 1.372 . S
C2843 C2842 1.372 . S
C2843 C2844 1.400 . S
C2843 C2848 1.490 . S
C2844 H2834 0.930 . S
C2844 C2843 1.400 . S
C2844 C2847 1.386 . S
H2845 C2861 0.930 . S
H2846 C2862 0.931 . S
C2847 H2835 0.929 . S
C2847 C2841 1.390 . S
C2847 C2844 1.386 . S
C2848 C2843 1.490 . S
C2848 C2850 1.395 . S
C2848 C2851 1.403 . S
H2849 C2855 0.930 . S
C2850 H2836 0.930 . S
C2850 C2848 1.395 . S
C2850 C2853 1.403 . S
C2851 C2848 1.403 . S
C2851 C2852 1.524 . S
C2851 C2855 1.400 . S
C2852 H2837 0.960 1_545 S
C2852 H2838 0.960 1_545 S
C2852 H2839 0.960 . S
C2852 C2851 1.524 . S
C2853 C2850 1.403 . S
C2853 C2854 1.392 . S
C2853 C2857 1.495 . S
C2854 C2853 1.392 . S
C2854 C2855 1.385 . S
C2854 C2856 1.478 . S
C2855 H2849 0.930 . S
C2855 C2851 1.400 . S
C2855 C2854 1.385 . S
C2856 C2854 1.478 . S
C2856 C2858 1.381 . S
C2856 C2862 1.383 . S
C2857 C2853 1.495 . S
C2857 H2863 0.959 . S
C2857 H2864 0.961 . S
C2857 H2865 0.960 . S
C2858 C2856 1.381 . S
C2858 C2859 1.394 . S
C2858 H2866 0.930 . S
C2859 C2858 1.394 . S
C2859 C2860 1.383 . S
C2859 H2867 0.929 . S
C2860 C2859 1.383 . S
C2860 C2861 1.377 . S
C2861 H2845 0.930 . S
C2861 C2860 1.377 . S
C2861 C2862 1.379 . S
C2862 H2846 0.931 . S
C2862 C2856 1.383 . S
C2862 C2861 1.379 . S
H2863 C2857 0.959 . S
H2864 C2857 0.961 . S
H2865 C2857 0.960 . S
H2866 C2858 0.930 . S
H2867 C2859 0.929 . S
H2868 C2876 0.929 . S
H2869 C2878 0.930 . S
H2870 C2880 0.930 . S
H2871 C2883 0.929 . S
H2872 C2886 0.930 . S
H2873 C2888 0.960 . S
H2874 C2888 0.960 . S
H2875 C2888 0.960 . S
C2876 H2868 0.929 . S
C2876 C2877 1.377 . S
C2876 C2878 1.384 . S
C2877 C2876 1.377 . S
C2877 C2883 1.390 . S
C2878 H2869 0.930 . S
C2878 C2876 1.384 . S
C2878 C2879 1.372 . S
C2879 C2878 1.372 . S
C2879 C2880 1.400 . S
C2879 C2884 1.490 . S
C2880 H2870 0.930 . S
C2880 C2879 1.400 . S
C2880 C2883 1.386 . S
H2881 C2897 0.930 . S
H2882 C2898 0.931 . S
C2883 H2871 0.929 . S
C2883 C2877 1.390 . S
C2883 C2880 1.386 . S
C2884 C2879 1.490 . S
C2884 C2886 1.395 . S
C2884 C2887 1.403 . S
H2885 C2891 0.930 . S
C2886 H2872 0.930 . S
C2886 C2884 1.395 . S
C2886 C2889 1.403 . S
C2887 C2884 1.403 . S
C2887 C2888 1.524 . S
C2887 C2891 1.400 . S
C2888 H2873 0.960 . S
C2888 H2874 0.960 . S
C2888 H2875 0.960 . S
C2888 C2887 1.524 . S
C2889 C2886 1.403 . S
C2889 C2890 1.392 . S
C2889 C2893 1.495 . S
C2890 C2889 1.392 . S
C2890 C2891 1.385 . S
C2890 C2892 1.478 . S
C2891 H2885 0.930 . S
C2891 C2887 1.400 . S
C2891 C2890 1.385 . S
C2892 C2890 1.478 . S
C2892 C2894 1.381 . S
C2892 C2898 1.383 . S
C2893 C2889 1.495 . S
C2893 H2899 0.959 . S
C2893 H2900 0.961 . S
C2893 H2901 0.960 . S
C2894 C2892 1.381 . S
C2894 C2895 1.394 . S
C2894 H2902 0.930 . S
C2895 C2894 1.394 . S
C2895 C2896 1.383 . S
C2895 H2903 0.929 . S
C2896 C2895 1.383 . S
C2896 C2897 1.377 . S
C2897 H2881 0.930 . S
C2897 C2896 1.377 . S
C2897 C2898 1.379 . S
C2898 H2882 0.931 . S
C2898 C2892 1.383 . S
C2898 C2897 1.379 . S
H2899 C2893 0.959 . S
H2900 C2893 0.961 . S
H2901 C2893 0.960 . S
H2902 C2894 0.930 . S
H2903 C2895 0.929 . S
H2904 C2912 0.929 . S
H2905 C2914 0.930 . S
H2906 C2916 0.930 . S
H2907 C2919 0.929 . S
H2908 C2922 0.930 . S
H2909 C2924 0.960 . S
H2910 C2924 0.960 . S
H2911 C2924 0.960 . S
C2912 H2904 0.929 . S
C2912 C2913 1.377 1_565 S
C2912 C2914 1.384 . S
C2913 C2912 1.377 1_545 S
C2913 C2919 1.390 . S
C2914 H2905 0.930 . S
C2914 C2912 1.384 . S
C2914 C2915 1.372 1_565 S
C2915 C2914 1.372 1_545 S
C2915 C2916 1.400 . S
C2915 C2920 1.490 . S
C2916 H2906 0.930 . S
C2916 C2915 1.400 . S
C2916 C2919 1.386 . S
H2917 C2933 0.930 . S
H2918 C2934 0.931 . S
C2919 H2907 0.929 . S
C2919 C2913 1.390 . S
C2919 C2916 1.386 . S
C2920 C2915 1.490 . S
C2920 C2922 1.395 . S
C2920 C2923 1.403 . S
H2921 C2927 0.930 . S
C2922 H2908 0.930 . S
C2922 C2920 1.395 . S
C2922 C2925 1.403 . S
C2923 C2920 1.403 . S
C2923 C2924 1.524 . S
C2923 C2927 1.400 . S
C2924 H2909 0.960 . S
C2924 H2910 0.960 . S
C2924 H2911 0.960 . S
C2924 C2923 1.524 . S
C2925 C2922 1.403 . S
C2925 C2926 1.392 . S
C2925 C2929 1.495 . S
C2926 C2925 1.392 . S
C2926 C2927 1.385 . S
C2926 C2928 1.478 . S
C2927 H2921 0.930 . S
C2927 C2923 1.400 . S
C2927 C2926 1.385 . S
C2928 C2926 1.478 . S
C2928 C2930 1.381 . S
C2928 C2934 1.383 . S
C2929 C2925 1.495 . S
C2929 H2935 0.967 . S
C2929 H2936 0.961 . S
C2929 H2937 0.960 1_545 S
C2930 C2928 1.381 . S
C2930 C2931 1.394 . S
C2930 H2938 0.930 1_545 S
C2931 C2930 1.394 . S
C2931 C2932 1.383 . S
C2931 H2939 0.929 1_545 S
C2932 C2931 1.383 . S
C2932 C2933 1.377 . S
C2933 H2917 0.930 . S
C2933 C2932 1.377 . S
C2933 C2934 1.379 . S
C2934 H2918 0.931 . S
C2934 C2928 1.383 . S
C2934 C2933 1.379 . S
H2935 C2929 0.967 . S
H2936 C2929 0.961 . S
H2937 C2929 0.960 1_565 S
H2938 C2930 0.930 1_565 S
H2939 C2931 0.929 1_565 S
H2940 C2948 0.929 . S
H2941 C2950 0.930 . S
H2942 C2952 0.930 . S
H2943 C2955 0.929 . S
H2944 C2958 0.930 . S
H2945 C2960 0.960 . S
H2946 C2960 0.960 . S
H2947 C2960 0.960 . S
C2948 H2940 0.929 . S
C2948 C2949 1.377 . S
C2948 C2950 1.384 . S
C2949 C2948 1.377 . S
C2949 C2955 1.390 . S
C2950 H2941 0.930 . S
C2950 C2948 1.384 . S
C2950 C2951 1.372 . S
C2951 C2950 1.372 . S
C2951 C2952 1.400 . S
C2951 C2956 1.490 . S
C2952 H2942 0.930 . S
C2952 C2951 1.400 . S
C2952 C2955 1.386 . S
H2953 C2969 0.930 . S
H2954 C2970 0.931 . S
C2955 H2943 0.929 . S
C2955 C2949 1.390 . S
C2955 C2952 1.386 . S
C2956 C2951 1.490 . S
C2956 C2958 1.395 . S
C2956 C2959 1.403 . S
H2957 C2963 0.930 . S
C2958 H2944 0.930 . S
C2958 C2956 1.395 . S
C2958 C2961 1.403 . S
C2959 C2956 1.403 . S
C2959 C2960 1.524 . S
C2959 C2963 1.400 . S
C2960 H2945 0.960 . S
C2960 H2946 0.960 . S
C2960 H2947 0.960 . S
C2960 C2959 1.524 . S
C2961 C2958 1.403 . S
C2961 C2962 1.392 . S
C2961 C2965 1.495 . S
C2962 C2961 1.392 . S
C2962 C2963 1.385 . S
C2962 C2964 1.478 . S
C2963 H2957 0.930 . S
C2963 C2959 1.400 . S
C2963 C2962 1.385 . S
C2964 C2962 1.478 . S
C2964 C2966 1.381 . S
C2964 C2970 1.383 . S
C2965 C2961 1.495 . S
C2965 H2971 0.959 . S
C2965 H2972 0.961 . S
C2965 H2973 0.960 . S
C2966 C2964 1.381 . S
C2966 C2967 1.394 . S
C2966 H2974 0.930 . S
C2967 C2966 1.394 . S
C2967 C2968 1.383 . S
C2967 H2975 0.929 . S
C2968 C2967 1.383 . S
C2968 C2969 1.377 . S
C2969 H2953 0.930 . S
C2969 C2968 1.377 . S
C2969 C2970 1.379 . S
C2970 H2954 0.931 . S
C2970 C2964 1.383 . S
C2970 C2969 1.379 . S
H2971 C2965 0.959 . S
H2972 C2965 0.961 . S
H2973 C2965 0.960 . S
H2974 C2966 0.930 . S
H2975 C2967 0.929 . S
H2976 C2984 0.929 . S
H2977 C2986 0.930 . S
H2978 C2988 0.930 . S
H2979 C2991 0.929 . S
H2980 C2994 0.930 . S
H2981 C2996 0.960 . S
H2982 C2996 0.960 . S
H2983 C2996 0.960 . S
C2984 H2976 0.929 . S
C2984 C2985 1.377 . S
C2984 C2986 1.384 . S
C2985 C2984 1.377 . S
C2985 C2991 1.390 . S
C2986 H2977 0.930 . S
C2986 C2984 1.384 . S
C2986 C2987 1.372 . S
C2987 C2986 1.372 . S
C2987 C2988 1.400 . S
C2987 C2992 1.490 . S
C2988 H2978 0.930 . S
C2988 C2987 1.400 . S
C2988 C2991 1.386 . S
H2989 C3005 0.930 . S
H2990 C3006 0.931 . S
C2991 H2979 0.929 . S
C2991 C2985 1.390 . S
C2991 C2988 1.386 . S
C2992 C2987 1.490 . S
C2992 C2994 1.395 . S
C2992 C2995 1.403 . S
H2993 C2999 0.930 . S
C2994 H2980 0.930 . S
C2994 C2992 1.395 . S
C2994 C2997 1.403 . S
C2995 C2992 1.403 . S
C2995 C2996 1.524 . S
C2995 C2999 1.400 . S
C2996 H2981 0.960 . S
C2996 H2982 0.960 . S
C2996 H2983 0.960 . S
C2996 C2995 1.524 . S
C2997 C2994 1.403 . S
C2997 C2998 1.392 . S
C2997 C3001 1.495 . S
C2998 C2997 1.392 . S
C2998 C2999 1.385 . S
C2998 C3000 1.478 . S
C2999 H2993 0.930 . S
C2999 C2995 1.400 . S
C2999 C2998 1.385 . S
C3000 C2998 1.478 . S
C3000 C3002 1.381 . S
C3000 C3006 1.383 . S
C3001 C2997 1.495 . S
C3001 H3007 0.959 . S
C3001 H3008 0.961 . S
C3001 H3009 0.960 . S
C3002 C3000 1.381 . S
C3002 C3003 1.394 . S
C3002 H3010 0.930 . S
C3003 C3002 1.394 . S
C3003 C3004 1.383 . S
C3003 H3011 0.967 . S
C3004 C3003 1.383 . S
C3004 C3005 1.377 . S
C3005 H2989 0.930 . S
C3005 C3004 1.377 . S
C3005 C3006 1.379 . S
C3006 H2990 0.931 . S
C3006 C3000 1.383 . S
C3006 C3005 1.379 . S
H3007 C3001 0.959 . S
H3008 C3001 0.961 . S
H3009 C3001 0.960 . S
H3010 C3002 0.930 . S
H3011 C3003 0.967 . S
H3012 C3020 0.929 . S
H3013 C3022 0.930 . S
H3014 C3024 0.930 . S
H3015 C3027 0.929 . S
H3016 C3030 0.930 . S
H3017 C3032 0.960 . S
H3018 C3032 0.960 . S
H3019 C3032 0.960 . S
C3020 H3012 0.929 . S
C3020 C3021 1.377 . S
C3020 C3022 1.384 . S
C3021 C3020 1.377 . S
C3021 C3027 1.390 . S
C3022 H3013 0.930 . S
C3022 C3020 1.384 . S
C3022 C3023 1.372 . S
C3023 C3022 1.372 . S
C3023 C3024 1.400 . S
C3023 C3028 1.490 . S
C3024 H3014 0.930 . S
C3024 C3023 1.400 . S
C3024 C3027 1.386 . S
H3025 C3041 0.930 . S
H3026 C3042 0.931 . S
C3027 H3015 0.929 . S
C3027 C3021 1.390 . S
C3027 C3024 1.386 . S
C3028 C3023 1.490 . S
C3028 C3030 1.395 . S
C3028 C3031 1.403 . S
H3029 C3035 0.930 . S
C3030 H3016 0.930 . S
C3030 C3028 1.395 . S
C3030 C3033 1.403 . S
C3031 C3028 1.403 . S
C3031 C3032 1.524 . S
C3031 C3035 1.400 . S
C3032 H3017 0.960 . S
C3032 H3018 0.960 . S
C3032 H3019 0.960 . S
C3032 C3031 1.524 . S
C3033 C3030 1.403 . S
C3033 C3034 1.392 . S
C3033 C3037 1.495 . S
C3034 C3033 1.392 . S
C3034 C3035 1.385 . S
C3034 C3036 1.478 . S
C3035 H3029 0.930 . S
C3035 C3031 1.400 . S
C3035 C3034 1.385 . S
C3036 C3034 1.478 . S
C3036 C3038 1.381 . S
C3036 C3042 1.383 . S
C3037 C3033 1.495 . S
C3037 H3043 0.959 . S
C3037 H3044 0.961 . S
C3037 H3045 0.960 . S
C3038 C3036 1.381 . S
C3038 C3039 1.394 . S
C3038 H3046 0.930 . S
C3039 C3038 1.394 . S
C3039 C3040 1.383 . S
C3039 H3047 0.929 . S
C3040 C3039 1.383 . S
C3040 C3041 1.377 . S
C3041 H3025 0.930 . S
C3041 C3040 1.377 . S
C3041 C3042 1.379 . S
C3042 H3026 0.931 . S
C3042 C3036 1.383 . S
C3042 C3041 1.379 . S
H3043 C3037 0.959 . S
H3044 C3037 0.961 . S
H3045 C3037 0.960 . S
H3046 C3038 0.930 . S
H3047 C3039 0.929 . S
H3048 C3056 0.929 . S
H3049 C3058 0.930 . S
H3050 C3060 0.930 . S
H3051 C3063 0.929 . S
H3052 C3066 0.930 . S
H3053 C3068 0.960 . S
H3054 C3068 0.960 1_565 S
H3055 C3068 0.960 . S
C3056 H3048 0.929 . S
C3056 C3057 1.377 1_565 S
C3056 C3058 1.384 . S
C3057 C3056 1.377 1_545 S
C3057 C3063 1.390 . S
C3058 H3049 0.930 . S
C3058 C3056 1.384 . S
C3058 C3059 1.372 1_565 S
C3059 C3058 1.372 1_545 S
C3059 C3060 1.400 . S
C3059 C3064 1.490 . S
C3060 H3050 0.930 . S
C3060 C3059 1.400 . S
C3060 C3063 1.386 . S
H3061 C3077 0.930 . S
H3062 C3078 0.931 . S
C3063 H3051 0.929 . S
C3063 C3057 1.390 . S
C3063 C3060 1.386 . S
C3064 C3059 1.490 . S
C3064 C3066 1.395 . S
C3064 C3067 1.403 . S
H3065 C3071 0.930 . S
C3066 H3052 0.930 . S
C3066 C3064 1.395 . S
C3066 C3069 1.403 . S
C3067 C3064 1.403 . S
C3067 C3068 1.524 . S
C3067 C3071 1.400 . S
C3068 H3053 0.960 . S
C3068 H3054 0.960 1_545 S
C3068 H3055 0.960 . S
C3068 C3067 1.524 . S
C3069 C3066 1.403 . S
C3069 C3070 1.392 . S
C3069 C3073 1.495 . S
C3070 C3069 1.392 . S
C3070 C3071 1.385 . S
C3070 C3072 1.478 . S
C3071 H3065 0.930 . S
C3071 C3067 1.400 . S
C3071 C3070 1.385 . S
C3072 C3070 1.478 . S
C3072 C3074 1.381 1_545 S
C3072 C3078 1.383 . S
C3073 C3069 1.495 . S
C3073 H3079 0.959 . S
C3073 H3080 0.961 . S
C3073 H3081 0.960 . S
C3074 C3072 1.381 1_565 S
C3074 C3075 1.394 . S
C3074 H3082 0.930 . S
C3075 C3074 1.394 . S
C3075 C3076 1.383 1_565 S
C3075 H3083 0.929 . S
C3076 C3075 1.383 1_545 S
C3076 C3077 1.377 . S
C3077 H3061 0.930 . S
C3077 C3076 1.377 . S
C3077 C3078 1.379 . S
C3078 H3062 0.931 . S
C3078 C3072 1.383 . S
C3078 C3077 1.379 . S
H3079 C3073 0.959 . S
H3080 C3073 0.961 . S
H3081 C3073 0.960 . S
H3082 C3074 0.930 . S
H3083 C3075 0.929 . S
H3084 C3092 0.929 . S
H3085 C3094 0.930 . S
H3086 C3096 0.930 . S
H3087 C3099 0.929 . S
H3088 C3102 0.930 . S
H3089 C3104 0.960 . S
H3090 C3104 0.960 . S
H3091 C3104 0.960 . S
C3092 H3084 0.929 . S
C3092 C3093 1.377 . S
C3092 C3094 1.384 . S
C3093 C3092 1.377 . S
C3093 C3099 1.390 . S
C3094 H3085 0.930 . S
C3094 C3092 1.384 . S
C3094 C3095 1.372 . S
C3095 C3094 1.372 . S
C3095 C3096 1.400 . S
C3095 C3100 1.490 . S
C3096 H3086 0.930 . S
C3096 C3095 1.400 . S
C3096 C3099 1.386 . S
H3097 C3113 0.930 . S
H3098 C3114 0.931 . S
C3099 H3087 0.929 . S
C3099 C3093 1.390 . S
C3099 C3096 1.386 . S
C3100 C3095 1.490 . S
C3100 C3102 1.395 . S
C3100 C3103 1.403 . S
H3101 C3107 0.930 . S
C3102 H3088 0.930 . S
C3102 C3100 1.395 . S
C3102 C3105 1.403 . S
C3103 C3100 1.403 . S
C3103 C3104 1.524 . S
C3103 C3107 1.400 . S
C3104 H3089 0.960 . S
C3104 H3090 0.960 . S
C3104 H3091 0.960 . S
C3104 C3103 1.524 . S
C3105 C3102 1.403 . S
C3105 C3106 1.392 . S
C3105 C3109 1.495 . S
C3106 C3105 1.392 . S
C3106 C3107 1.385 . S
C3106 C3108 1.478 . S
C3107 H3101 0.930 . S
C3107 C3103 1.400 . S
C3107 C3106 1.385 . S
C3108 C3106 1.478 . S
C3108 C3110 1.381 . S
C3108 C3114 1.383 . S
C3109 C3105 1.495 . S
C3109 H3115 0.959 . S
C3109 H3116 0.961 . S
C3109 H3117 0.960 . S
C3110 C3108 1.381 . S
C3110 C3111 1.394 . S
C3110 H3118 0.930 . S
C3111 C3110 1.394 . S
C3111 C3112 1.383 . S
C3111 H3119 0.929 . S
C3112 C3111 1.383 . S
C3112 C3113 1.377 . S
C3113 H3097 0.930 . S
C3113 C3112 1.377 . S
C3113 C3114 1.379 . S
C3114 H3098 0.931 . S
C3114 C3108 1.383 . S
C3114 C3113 1.379 . S
H3115 C3109 0.959 . S
H3116 C3109 0.961 . S
H3117 C3109 0.960 . S
H3118 C3110 0.930 . S
H3119 C3111 0.929 . S
H3120 C3128 0.929 . S
H3121 C3130 0.930 . S
H3122 C3132 0.930 . S
H3123 C3135 0.929 . S
H3124 C3138 0.930 . S
H3125 C3140 0.960 . S
H3126 C3140 0.960 . S
H3127 C3140 0.960 . S
C3128 H3120 0.929 . S
C3128 C3129 1.377 . S
C3128 C3130 1.384 . S
C3129 C3128 1.377 . S
C3129 C3135 1.390 . S
C3130 H3121 0.930 . S
C3130 C3128 1.384 . S
C3130 C3131 1.372 . S
C3131 C3130 1.372 . S
C3131 C3132 1.400 . S
C3131 C3136 1.490 . S
C3132 H3122 0.930 . S
C3132 C3131 1.400 . S
C3132 C3135 1.386 . S
H3133 C3149 0.930 . S
H3134 C3150 0.931 . S
C3135 H3123 0.929 . S
C3135 C3129 1.390 . S
C3135 C3132 1.386 . S
C3136 C3131 1.490 . S
C3136 C3138 1.395 . S
C3136 C3139 1.403 . S
H3137 C3143 0.930 . S
C3138 H3124 0.930 . S
C3138 C3136 1.395 . S
C3138 C3141 1.403 . S
C3139 C3136 1.403 . S
C3139 C3140 1.524 . S
C3139 C3143 1.400 . S
C3140 H3125 0.960 . S
C3140 H3126 0.960 . S
C3140 H3127 0.960 . S
C3140 C3139 1.524 . S
C3141 C3138 1.403 . S
C3141 C3142 1.392 . S
C3141 C3145 1.495 1_554 S
C3142 C3141 1.392 . S
C3142 C3143 1.385 . S
C3142 C3144 1.478 . S
C3143 H3137 0.930 . S
C3143 C3139 1.400 . S
C3143 C3142 1.385 . S
C3144 C3142 1.478 . S
C3144 C3146 1.381 . S
C3144 C3150 1.383 . S
C3145 C3141 1.495 1_556 S
C3145 H3151 0.959 . S
C3145 H3152 0.961 . S
C3145 H3153 0.960 . S
C3146 C3144 1.381 . S
C3146 C3147 1.394 . S
C3146 H3154 0.930 . S
C3147 C3146 1.394 . S
C3147 C3148 1.383 . S
C3147 H3155 0.929 . S
C3148 C3147 1.383 . S
C3148 C3149 1.377 . S
C3149 H3133 0.930 . S
C3149 C3148 1.377 . S
C3149 C3150 1.379 . S
C3150 H3134 0.931 . S
C3150 C3144 1.383 . S
C3150 C3149 1.379 . S
H3151 C3145 0.959 . S
H3152 C3145 0.961 . S
H3153 C3145 0.960 . S
H3154 C3146 0.930 . S
H3155 C3147 0.929 . S
H3156 C3164 0.929 . S
H3157 C3166 0.930 . S
H3158 C3168 0.930 . S
H3159 C3171 0.929 . S
H3160 C3174 0.930 . S
H3161 C3176 0.960 . S
H3162 C3176 0.960 . S
H3163 C3176 0.960 . S
C3164 H3156 0.929 . S
C3164 C3165 1.377 . S
C3164 C3166 1.384 . S
C3165 C3164 1.377 . S
C3165 C3171 1.390 . S
C3166 H3157 0.930 . S
C3166 C3164 1.384 . S
C3166 C3167 1.372 . S
C3167 C3166 1.372 . S
C3167 C3168 1.400 . S
C3167 C3172 1.490 . S
C3168 H3158 0.930 . S
C3168 C3167 1.400 . S
C3168 C3171 1.386 . S
H3169 C3185 0.930 . S
H3170 C3186 0.931 . S
C3171 H3159 0.929 . S
C3171 C3165 1.390 . S
C3171 C3168 1.386 . S
C3172 C3167 1.490 . S
C3172 C3174 1.395 . S
C3172 C3175 1.403 . S
H3173 C3179 0.930 . S
C3174 H3160 0.930 . S
C3174 C3172 1.395 . S
C3174 C3177 1.403 . S
C3175 C3172 1.403 . S
C3175 C3176 1.524 . S
C3175 C3179 1.400 . S
C3176 H3161 0.960 . S
C3176 H3162 0.960 . S
C3176 H3163 0.960 . S
C3176 C3175 1.524 . S
C3177 C3174 1.403 . S
C3177 C3178 1.392 . S
C3177 C3181 1.495 . S
C3178 C3177 1.392 . S
C3178 C3179 1.385 . S
C3178 C3180 1.478 . S
C3179 H3173 0.930 . S
C3179 C3175 1.400 . S
C3179 C3178 1.385 . S
C3180 C3178 1.478 . S
C3180 C3182 1.381 . S
C3180 C3186 1.383 . S
C3181 C3177 1.495 . S
C3181 H3187 0.959 . S
C3181 H3188 0.961 . S
C3181 H3189 0.960 . S
C3182 C3180 1.381 . S
C3182 C3183 1.394 . S
C3182 H3190 0.930 . S
C3183 C3182 1.394 . S
C3183 C3184 1.383 . S
C3183 H3191 0.929 . S
C3184 C3183 1.383 . S
C3184 C3185 1.377 . S
C3185 H3169 0.930 . S
C3185 C3184 1.377 . S
C3185 C3186 1.379 . S
C3186 H3170 0.931 . S
C3186 C3180 1.383 . S
C3186 C3185 1.379 . S
H3187 C3181 0.959 . S
H3188 C3181 0.961 . S
H3189 C3181 0.960 . S
H3190 C3182 0.930 . S
H3191 C3183 0.929 . S
H3192 C3200 0.929 . S
H3193 C3202 0.930 . S
H3194 C3204 0.930 . S
H3195 C3207 0.929 . S
H3196 C3210 0.930 . S
H3197 C3212 0.960 . S
H3198 C3212 0.960 . S
H3199 C3212 0.960 . S
C3200 H3192 0.929 . S
C3200 C3201 1.377 . S
C3200 C3202 1.384 . S
C3201 C3200 1.377 . S
C3201 C3207 1.390 . S
C3202 H3193 0.930 . S
C3202 C3200 1.384 . S
C3202 C3203 1.372 . S
C3203 C3202 1.372 . S
C3203 C3204 1.400 . S
C3203 C3208 1.490 . S
C3204 H3194 0.930 . S
C3204 C3203 1.400 . S
C3204 C3207 1.386 . S
H3205 C3221 0.930 . S
H3206 C3222 0.931 . S
C3207 H3195 0.929 . S
C3207 C3201 1.390 . S
C3207 C3204 1.386 . S
C3208 C3203 1.490 . S
C3208 C3210 1.395 . S
C3208 C3211 1.403 . S
H3209 C3215 0.930 . S
C3210 H3196 0.930 . S
C3210 C3208 1.395 . S
C3210 C3213 1.403 . S
C3211 C3208 1.403 . S
C3211 C3212 1.524 . S
C3211 C3215 1.400 . S
C3212 H3197 0.960 . S
C3212 H3198 0.960 . S
C3212 H3199 0.960 . S
C3212 C3211 1.524 . S
C3213 C3210 1.403 . S
C3213 C3214 1.392 . S
C3213 C3217 1.495 . S
C3214 C3213 1.392 . S
C3214 C3215 1.385 . S
C3214 C3216 1.478 . S
C3215 H3209 0.930 . S
C3215 C3211 1.400 . S
C3215 C3214 1.385 . S
C3216 C3214 1.478 . S
C3216 C3218 1.381 . S
C3216 C3222 1.383 . S
C3217 C3213 1.495 . S
C3217 H3223 0.959 . S
C3217 H3224 0.961 . S
C3217 H3225 0.960 . S
C3218 C3216 1.381 . S
C3218 C3219 1.394 . S
C3218 H3226 0.930 . S
C3219 C3218 1.394 . S
C3219 C3220 1.383 . S
C3219 H3227 0.929 . S
C3220 C3219 1.383 . S
C3220 C3221 1.377 . S
C3221 H3205 0.930 . S
C3221 C3220 1.377 . S
C3221 C3222 1.379 . S
C3222 H3206 0.931 . S
C3222 C3216 1.383 . S
C3222 C3221 1.379 . S
H3223 C3217 0.959 . S
H3224 C3217 0.961 . S
H3225 C3217 0.960 . S
H3226 C3218 0.930 . S
H3227 C3219 0.929 . S
H3228 C3236 0.929 . S
H3229 C3238 0.930 . S
H3230 C3240 0.930 . S
H3231 C3243 0.929 . S
H3232 C3246 0.930 . S
H3233 C3248 0.960 . S
H3234 C3248 0.960 . S
H3235 C3248 0.960 . S
C3236 H3228 0.929 . S
C3236 C3237 1.377 . S
C3236 C3238 1.384 . S
C3237 C3236 1.377 . S
C3237 C3243 1.390 . S
C3238 H3229 0.930 . S
C3238 C3236 1.384 . S
C3238 C3239 1.372 . S
C3239 C3238 1.372 . S
C3239 C3240 1.400 . S
C3239 C3244 1.490 . S
C3240 H3230 0.930 . S
C3240 C3239 1.400 . S
C3240 C3243 1.386 . S
H3241 C3257 0.930 . S
H3242 C3258 0.931 . S
C3243 H3231 0.929 . S
C3243 C3237 1.390 . S
C3243 C3240 1.386 . S
C3244 C3239 1.490 . S
C3244 C3246 1.395 . S
C3244 C3247 1.403 . S
H3245 C3251 0.930 . S
C3246 H3232 0.930 . S
C3246 C3244 1.395 . S
C3246 C3249 1.403 . S
C3247 C3244 1.403 . S
C3247 C3248 1.524 . S
C3247 C3251 1.400 . S
C3248 H3233 0.960 . S
C3248 H3234 0.960 . S
C3248 H3235 0.960 . S
C3248 C3247 1.524 . S
C3249 C3246 1.403 . S
C3249 C3250 1.392 . S
C3249 C3253 1.495 . S
C3250 C3249 1.392 . S
C3250 C3251 1.385 . S
C3250 C3252 1.478 . S
C3251 H3245 0.930 . S
C3251 C3247 1.400 . S
C3251 C3250 1.385 . S
C3252 C3250 1.478 . S
C3252 C3254 1.381 . S
C3252 C3258 1.383 . S
C3253 C3249 1.495 . S
C3253 H3259 0.959 . S
C3253 H3260 0.961 . S
C3253 H3261 0.960 . S
C3254 C3252 1.381 . S
C3254 C3255 1.394 . S
C3254 H3262 0.930 . S
C3255 C3254 1.394 . S
C3255 C3256 1.383 . S
C3255 H3263 0.929 . S
C3256 C3255 1.383 . S
C3256 C3257 1.377 . S
C3257 H3241 0.930 . S
C3257 C3256 1.377 . S
C3257 C3258 1.379 . S
C3258 H3242 0.931 . S
C3258 C3252 1.383 . S
C3258 C3257 1.379 . S
H3259 C3253 0.959 . S
H3260 C3253 0.961 . S
H3261 C3253 0.960 . S
H3262 C3254 0.930 . S
H3263 C3255 0.929 . S
H3264 C3272 0.929 . S
H3265 C3274 0.930 . S
H3266 C3276 0.930 . S
H3267 C3279 0.929 . S
H3268 C3282 0.930 . S
H3269 C3284 0.960 . S
H3270 C3284 0.960 . S
H3271 C3284 0.960 . S
C3272 H3264 0.929 . S
C3272 C3273 1.377 . S
C3272 C3274 1.384 . S
C3273 C3272 1.377 . S
C3273 C3279 1.390 . S
C3274 H3265 0.930 . S
C3274 C3272 1.384 . S
C3274 C3275 1.372 . S
C3275 C3274 1.372 . S
C3275 C3276 1.400 . S
C3275 C3280 1.490 . S
C3276 H3266 0.930 . S
C3276 C3275 1.400 . S
C3276 C3279 1.386 . S
H3277 C3293 0.930 . S
H3278 C3294 0.931 . S
C3279 H3267 0.929 . S
C3279 C3273 1.390 . S
C3279 C3276 1.386 . S
C3280 C3275 1.490 . S
C3280 C3282 1.395 . S
C3280 C3283 1.403 . S
H3281 C3287 0.930 . S
C3282 H3268 0.930 . S
C3282 C3280 1.395 . S
C3282 C3285 1.403 . S
C3283 C3280 1.403 . S
C3283 C3284 1.524 . S
C3283 C3287 1.400 . S
C3284 H3269 0.960 . S
C3284 H3270 0.960 . S
C3284 H3271 0.960 . S
C3284 C3283 1.524 . S
C3285 C3282 1.403 . S
C3285 C3286 1.392 . S
C3285 C3289 1.495 . S
C3286 C3285 1.392 . S
C3286 C3287 1.385 . S
C3286 C3288 1.478 . S
C3287 H3281 0.930 . S
C3287 C3283 1.400 . S
C3287 C3286 1.385 . S
C3288 C3286 1.478 . S
C3288 C3290 1.381 . S
C3288 C3294 1.383 . S
C3289 C3285 1.495 . S
C3289 H3295 0.959 . S
C3289 H3296 0.961 . S
C3289 H3297 0.960 . S
C3290 C3288 1.381 . S
C3290 C3291 1.394 . S
C3290 H3298 0.930 . S
C3291 C3290 1.394 . S
C3291 C3292 1.383 . S
C3291 H3299 0.929 . S
C3292 C3291 1.383 . S
C3292 C3293 1.377 . S
C3293 H3277 0.930 . S
C3293 C3292 1.377 . S
C3293 C3294 1.379 . S
C3294 H3278 0.931 . S
C3294 C3288 1.383 . S
C3294 C3293 1.379 . S
H3295 C3289 0.959 . S
H3296 C3289 0.961 . S
H3297 C3289 0.960 . S
H3298 C3290 0.930 . S
H3299 C3291 0.929 . S
H3300 C3308 0.929 . S
H3301 C3310 0.930 . S
H3302 C3312 0.930 . S
H3303 C3315 0.929 . S
H3304 C3318 0.930 . S
H3305 C3320 0.960 . S
H3306 C3320 0.960 . S
H3307 C3320 0.960 . S
C3308 H3300 0.929 . S
C3308 C3309 1.377 . S
C3308 C3310 1.384 . S
C3309 C3308 1.377 . S
C3309 C3315 1.390 . S
C3310 H3301 0.930 . S
C3310 C3308 1.384 . S
C3310 C3311 1.372 . S
C3311 C3310 1.372 . S
C3311 C3312 1.400 . S
C3311 C3316 1.490 . S
C3312 H3302 0.930 . S
C3312 C3311 1.400 . S
C3312 C3315 1.386 . S
H3313 C3329 0.930 . S
H3314 C3330 0.931 . S
C3315 H3303 0.929 . S
C3315 C3309 1.390 . S
C3315 C3312 1.386 . S
C3316 C3311 1.490 . S
C3316 C3318 1.395 . S
C3316 C3319 1.403 . S
H3317 C3323 0.930 . S
C3318 H3304 0.930 . S
C3318 C3316 1.395 . S
C3318 C3321 1.403 . S
C3319 C3316 1.403 . S
C3319 C3320 1.524 . S
C3319 C3323 1.400 . S
C3320 H3305 0.960 . S
C3320 H3306 0.960 . S
C3320 H3307 0.960 . S
C3320 C3319 1.524 . S
C3321 C3318 1.403 . S
C3321 C3322 1.392 . S
C3321 C3325 1.495 . S
C3322 C3321 1.392 . S
C3322 C3323 1.385 . S
C3322 C3324 1.478 . S
C3323 H3317 0.930 . S
C3323 C3319 1.400 . S
C3323 C3322 1.385 . S
C3324 C3322 1.478 . S
C3324 C3326 1.381 . S
C3324 C3330 1.383 . S
C3325 C3321 1.495 . S
C3325 H3331 0.959 . S
C3325 H3332 0.961 . S
C3325 H3333 0.960 . S
C3326 C3324 1.381 . S
C3326 C3327 1.394 . S
C3326 H3334 0.930 . S
C3327 C3326 1.394 . S
C3327 C3328 1.383 . S
C3327 H3335 0.929 . S
C3328 C3327 1.383 . S
C3328 C3329 1.377 . S
C3329 H3313 0.930 . S
C3329 C3328 1.377 . S
C3329 C3330 1.379 . S
C3330 H3314 0.931 . S
C3330 C3324 1.383 . S
C3330 C3329 1.379 . S
H3331 C3325 0.959 . S
H3332 C3325 0.961 . S
H3333 C3325 0.960 . S
H3334 C3326 0.930 . S
H3335 C3327 0.929 . S
H3336 C3344 0.929 . S
H3337 C3346 0.930 . S
H3338 C3348 0.930 . S
H3339 C3351 0.929 . S
H3340 C3354 0.930 . S
H3341 C3356 0.960 . S
H3342 C3356 0.960 . S
H3343 C3356 0.960 . S
C3344 H3336 0.929 . S
C3344 C3345 1.377 . S
C3344 C3346 1.384 . S
C3345 C3344 1.377 . S
C3345 C3351 1.390 . S
C3346 H3337 0.930 . S
C3346 C3344 1.384 . S
C3346 C3347 1.372 . S
C3347 C3346 1.372 . S
C3347 C3348 1.400 . S
C3347 C3352 1.490 . S
C3348 H3338 0.930 . S
C3348 C3347 1.400 . S
C3348 C3351 1.386 . S
H3349 C3365 0.930 . S
H3350 C3366 0.931 . S
C3351 H3339 0.929 . S
C3351 C3345 1.390 . S
C3351 C3348 1.386 . S
C3352 C3347 1.490 . S
C3352 C3354 1.395 . S
C3352 C3355 1.403 . S
H3353 C3359 0.930 . S
C3354 H3340 0.930 . S
C3354 C3352 1.395 . S
C3354 C3357 1.403 . S
C3355 C3352 1.403 . S
C3355 C3356 1.524 . S
C3355 C3359 1.400 . S
C3356 H3341 0.960 . S
C3356 H3342 0.960 . S
C3356 H3343 0.960 . S
C3356 C3355 1.524 . S
C3357 C3354 1.403 . S
C3357 C3358 1.392 . S
C3357 C3361 1.495 . S
C3358 C3357 1.392 . S
C3358 C3359 1.385 . S
C3358 C3360 1.478 . S
C3359 H3353 0.930 . S
C3359 C3355 1.400 . S
C3359 C3358 1.385 . S
C3360 C3358 1.478 . S
C3360 C3362 1.381 . S
C3360 C3366 1.383 . S
C3361 C3357 1.495 . S
C3361 H3367 0.959 . S
C3361 H3368 0.961 . S
C3361 H3369 0.960 . S
C3362 C3360 1.381 . S
C3362 C3363 1.394 . S
C3362 H3370 0.930 . S
C3363 C3362 1.394 . S
C3363 C3364 1.383 . S
C3363 H3371 0.929 . S
C3364 C3363 1.383 . S
C3364 C3365 1.377 . S
C3365 H3349 0.930 . S
C3365 C3364 1.377 . S
C3365 C3366 1.379 . S
C3366 H3350 0.931 . S
C3366 C3360 1.383 . S
C3366 C3365 1.379 . S
H3367 C3361 0.959 . S
H3368 C3361 0.961 . S
H3369 C3361 0.960 . S
H3370 C3362 0.930 . S
H3371 C3363 0.929 . S
H3372 C3380 0.929 . S
H3373 C3382 0.930 . S
H3374 C3384 0.930 . S
H3375 C3387 0.929 . S
H3376 C3390 0.930 . S
H3377 C3392 0.960 . S
H3378 C3392 0.960 . S
H3379 C3392 0.960 . S
C3380 H3372 0.929 . S
C3380 C3381 1.377 . S
C3380 C3382 1.384 . S
C3381 C3380 1.377 . S
C3381 C3387 1.390 . S
C3382 H3373 0.930 . S
C3382 C3380 1.384 . S
C3382 C3383 1.372 . S
C3383 C3382 1.372 . S
C3383 C3384 1.400 . S
C3383 C3388 1.490 . S
C3384 H3374 0.930 . S
C3384 C3383 1.400 . S
C3384 C3387 1.386 . S
H3385 C3401 0.930 . S
H3386 C3402 0.931 . S
C3387 H3375 0.929 . S
C3387 C3381 1.390 . S
C3387 C3384 1.386 . S
C3388 C3383 1.490 . S
C3388 C3390 1.395 . S
C3388 C3391 1.403 . S
H3389 C3395 0.930 . S
C3390 H3376 0.930 . S
C3390 C3388 1.395 . S
C3390 C3393 1.403 . S
C3391 C3388 1.403 . S
C3391 C3392 1.524 . S
C3391 C3395 1.400 . S
C3392 H3377 0.960 . S
C3392 H3378 0.960 . S
C3392 H3379 0.960 . S
C3392 C3391 1.524 . S
C3393 C3390 1.403 . S
C3393 C3394 1.392 . S
C3393 C3397 1.495 . S
C3394 C3393 1.392 . S
C3394 C3395 1.385 . S
C3394 C3396 1.478 . S
C3395 H3389 0.930 . S
C3395 C3391 1.400 . S
C3395 C3394 1.385 . S
C3396 C3394 1.478 . S
C3396 C3398 1.381 . S
C3396 C3402 1.383 . S
C3397 C3393 1.495 . S
C3397 H3403 0.959 . S
C3397 H3404 0.961 . S
C3397 H3405 0.960 . S
C3398 C3396 1.381 . S
C3398 C3399 1.394 . S
C3398 H3406 0.930 . S
C3399 C3398 1.394 . S
C3399 C3400 1.383 . S
C3399 H3407 0.929 . S
C3400 C3399 1.383 . S
C3400 C3401 1.377 . S
C3401 H3385 0.930 . S
C3401 C3400 1.377 . S
C3401 C3402 1.379 . S
C3402 H3386 0.931 . S
C3402 C3396 1.383 . S
C3402 C3401 1.379 . S
H3403 C3397 0.959 . S
H3404 C3397 0.961 . S
H3405 C3397 0.960 . S
H3406 C3398 0.930 . S
H3407 C3399 0.929 . S
H3408 C3416 0.929 . S
H3409 C3418 0.930 . S
H3410 C3420 0.930 . S
H3411 C3423 0.929 . S
H3412 C3426 0.930 . S
H3413 C3428 0.960 . S
H3414 C3428 0.960 . S
H3415 C3428 0.960 . S
C3416 H3408 0.929 . S
C3416 C3417 1.377 . S
C3416 C3418 1.384 . S
C3417 C3416 1.377 . S
C3417 C3423 1.390 . S
C3418 H3409 0.930 . S
C3418 C3416 1.384 . S
C3418 C3419 1.372 . S
C3419 C3418 1.372 . S
C3419 C3420 1.400 . S
C3419 C3424 1.490 . S
C3420 H3410 0.930 . S
C3420 C3419 1.400 . S
C3420 C3423 1.386 . S
H3421 C3437 0.930 . S
H3422 C3438 0.931 . S
C3423 H3411 0.929 . S
C3423 C3417 1.390 . S
C3423 C3420 1.386 . S
C3424 C3419 1.490 . S
C3424 C3426 1.395 . S
C3424 C3427 1.403 . S
H3425 C3431 0.930 . S
C3426 H3412 0.930 . S
C3426 C3424 1.395 . S
C3426 C3429 1.403 . S
C3427 C3424 1.403 . S
C3427 C3428 1.524 . S
C3427 C3431 1.400 . S
C3428 H3413 0.960 . S
C3428 H3414 0.960 . S
C3428 H3415 0.960 . S
C3428 C3427 1.524 . S
C3429 C3426 1.403 . S
C3429 C3430 1.392 . S
C3429 C3433 1.495 . S
C3430 C3429 1.392 . S
C3430 C3431 1.385 . S
C3430 C3432 1.478 . S
C3431 H3425 0.930 . S
C3431 C3427 1.400 . S
C3431 C3430 1.385 . S
C3432 C3430 1.478 . S
C3432 C3434 1.381 . S
C3432 C3438 1.383 . S
C3433 C3429 1.495 . S
C3433 H3439 0.959 . S
C3433 H3440 0.961 . S
C3433 H3441 0.960 . S
C3434 C3432 1.381 . S
C3434 C3435 1.394 . S
C3434 H3442 0.930 . S
C3435 C3434 1.394 . S
C3435 C3436 1.383 . S
C3435 H3443 0.929 . S
C3436 C3435 1.383 . S
C3436 C3437 1.377 . S
C3437 H3421 0.930 . S
C3437 C3436 1.377 . S
C3437 C3438 1.379 . S
C3438 H3422 0.931 . S
C3438 C3432 1.383 . S
C3438 C3437 1.379 . S
H3439 C3433 0.959 . S
H3440 C3433 0.961 . S
H3441 C3433 0.960 . S
H3442 C3434 0.930 . S
H3443 C3435 0.929 . S
H3444 C3452 0.929 . S
H3445 C3454 0.930 . S
H3446 C3456 0.930 . S
H3447 C3459 0.929 . S
H3448 C3462 0.930 . S
H3449 C3464 0.960 . S
H3450 C3464 0.960 . S
H3451 C3464 0.960 . S
C3452 H3444 0.929 . S
C3452 C3453 1.377 . S
C3452 C3454 1.384 . S
C3453 C3452 1.377 . S
C3453 C3459 1.390 . S
C3454 H3445 0.930 . S
C3454 C3452 1.384 . S
C3454 C3455 1.372 . S
C3455 C3454 1.372 . S
C3455 C3456 1.400 . S
C3455 C3460 1.490 . S
C3456 H3446 0.930 . S
C3456 C3455 1.400 . S
C3456 C3459 1.386 . S
H3457 C3473 0.930 . S
H3458 C3474 0.931 . S
C3459 H3447 0.929 . S
C3459 C3453 1.390 . S
C3459 C3456 1.386 . S
C3460 C3455 1.490 . S
C3460 C3462 1.395 . S
C3460 C3463 1.403 . S
H3461 C3467 0.930 . S
C3462 H3448 0.930 . S
C3462 C3460 1.395 . S
C3462 C3465 1.403 . S
C3463 C3460 1.403 . S
C3463 C3464 1.524 . S
C3463 C3467 1.400 . S
C3464 H3449 0.960 . S
C3464 H3450 0.960 . S
C3464 H3451 0.960 . S
C3464 C3463 1.524 . S
C3465 C3462 1.403 . S
C3465 C3466 1.392 . S
C3465 C3469 1.495 . S
C3466 C3465 1.392 . S
C3466 C3467 1.385 . S
C3466 C3468 1.478 . S
C3467 H3461 0.930 . S
C3467 C3463 1.400 . S
C3467 C3466 1.385 . S
C3468 C3466 1.478 . S
C3468 C3470 1.381 . S
C3468 C3474 1.383 . S
C3469 C3465 1.495 . S
C3469 H3475 0.959 . S
C3469 H3476 0.961 . S
C3469 H3477 0.960 . S
C3470 C3468 1.381 . S
C3470 C3471 1.394 . S
C3470 H3478 0.930 . S
C3471 C3470 1.394 . S
C3471 C3472 1.383 . S
C3471 H3479 0.929 . S
C3472 C3471 1.383 . S
C3472 C3473 1.377 . S
C3473 H3457 0.930 . S
C3473 C3472 1.377 . S
C3473 C3474 1.379 . S
C3474 H3458 0.931 . S
C3474 C3468 1.383 . S
C3474 C3473 1.379 . S
H3475 C3469 0.959 . S
H3476 C3469 0.961 . S
H3477 C3469 0.960 . S
H3478 C3470 0.930 . S
H3479 C3471 0.929 . S
H3480 C3488 0.929 . S
H3481 C3490 0.930 . S
H3482 C3492 0.930 . S
H3483 C3495 0.929 . S
H3484 C3498 0.930 1_554 S
H3485 C3500 0.960 . S
H3486 C3500 0.960 . S
H3487 C3500 0.960 . S
C3488 H3480 0.929 . S
C3488 C3489 1.377 1_655 S
C3488 C3490 1.384 . S
C3489 C3488 1.377 1_455 S
C3489 C3495 1.390 . S
C3490 H3481 0.930 . S
C3490 C3488 1.384 . S
C3490 C3491 1.372 1_655 S
C3491 C3490 1.372 1_455 S
C3491 C3492 1.400 . S
C3491 C3496 1.490 . S
C3492 H3482 0.930 . S
C3492 C3491 1.400 . S
C3492 C3495 1.386 . S
H3493 C3509 0.930 . S
H3494 C3510 0.933 . S
C3495 H3483 0.929 . S
C3495 C3489 1.390 . S
C3495 C3492 1.386 . S
C3496 C3491 1.490 . S
C3496 C3498 1.395 . S
C3496 C3499 1.403 . S
H3497 C3503 0.930 . S
C3498 H3484 0.930 1_556 S
C3498 C3496 1.395 . S
C3498 C3501 1.403 1_556 S
C3499 C3496 1.403 . S
C3499 C3500 1.524 . S
C3499 C3503 1.400 . S
C3500 H3485 0.960 . S
C3500 H3486 0.960 . S
C3500 H3487 0.960 . S
C3500 C3499 1.524 . S
C3501 C3498 1.403 1_554 S
C3501 C3502 1.392 1_554 S
C3501 C3505 1.495 . S
C3502 C3501 1.392 1_556 S
C3502 C3503 1.385 . S
C3502 C3504 1.477 1_556 S
C3503 H3497 0.930 . S
C3503 C3499 1.400 . S
C3503 C3502 1.385 . S
C3504 C3502 1.477 1_554 S
C3504 C3506 1.433 . S
C3504 C3510 1.381 1_554 S
C3505 C3501 1.495 . S
C3505 H3511 0.959 . S
C3505 H3512 0.961 . S
C3505 H3513 0.910 1_455 S
C3506 C3504 1.433 . S
C3506 C3507 1.388 . S
C3506 H3514 0.887 1_455 S
C3507 C3506 1.388 . S
C3507 C3508 1.383 . S
C3507 H3515 0.929 1_455 S
C3508 C3507 1.383 . S
C3508 C3509 1.377 . S
C3509 H3493 0.930 . S
C3509 C3508 1.377 . S
C3509 C3510 1.379 1_554 S
C3510 H3494 0.933 . S
C3510 C3504 1.381 1_556 S
C3510 C3509 1.379 1_556 S
H3511 C3505 0.959 . S
H3512 C3505 0.961 . S
H3513 C3505 0.910 1_655 S
H3514 C3506 0.887 1_655 S
H3515 C3507 0.929 1_655 S
H3516 C3524 0.929 . S
H3517 C3526 0.930 . S
H3518 C3528 0.930 . S
H3519 C3531 0.929 1_455 S
H3520 C3534 0.930 . S
H3521 C3536 0.960 . S
H3522 C3536 0.960 . S
H3523 C3536 0.960 . S
C3524 H3516 0.929 . S
C3524 C3525 1.377 1_655 S
C3524 C3526 1.384 . S
C3525 C3524 1.377 1_455 S
C3525 C3531 1.390 1_455 S
C3526 H3517 0.930 . S
C3526 C3524 1.384 . S
C3526 C3527 1.372 . S
C3527 C3526 1.372 . S
C3527 C3528 1.400 . S
C3527 C3532 1.490 . S
C3528 H3518 0.930 . S
C3528 C3527 1.400 . S
C3528 C3531 1.386 . S
H3529 C3545 0.930 . S
H3530 C3546 0.931 . S
C3531 H3519 0.929 1_655 S
C3531 C3525 1.390 1_655 S
C3531 C3528 1.386 . S
C3532 C3527 1.490 . S
C3532 C3534 1.395 . S
C3532 C3535 1.403 . S
H3533 C3539 0.930 . S
C3534 H3520 0.930 . S
C3534 C3532 1.395 . S
C3534 C3537 1.403 . S
C3535 C3532 1.403 . S
C3535 C3536 1.524 . S
C3535 C3539 1.400 . S
C3536 H3521 0.960 . S
C3536 H3522 0.960 . S
C3536 H3523 0.960 . S
C3536 C3535 1.524 . S
C3537 C3534 1.403 . S
C3537 C3538 1.392 . S
C3537 C3541 1.495 . S
C3538 C3537 1.392 . S
C3538 C3539 1.385 . S
C3538 C3540 1.478 . S
C3539 H3533 0.930 . S
C3539 C3535 1.400 . S
C3539 C3538 1.385 . S
C3540 C3538 1.478 . S
C3540 C3542 1.381 . S
C3540 C3546 1.383 . S
C3541 C3537 1.495 . S
C3541 H3547 0.959 . S
C3541 H3548 0.961 . S
C3541 H3549 0.960 . S
C3542 C3540 1.381 . S
C3542 C3543 1.394 . S
C3542 H3550 0.930 . S
C3543 C3542 1.394 . S
C3543 C3544 1.383 . S
C3543 H3551 0.929 . S
C3544 C3543 1.383 . S
C3544 C3545 1.377 . S
C3545 H3529 0.930 . S
C3545 C3544 1.377 . S
C3545 C3546 1.379 . S
C3546 H3530 0.931 . S
C3546 C3540 1.383 . S
C3546 C3545 1.379 . S
H3547 C3541 0.959 . S
H3548 C3541 0.961 . S
H3549 C3541 0.960 . S
H3550 C3542 0.930 . S
H3551 C3543 0.929 . S
H3552 C3560 0.929 . S
H3553 C3562 0.930 . S
H3554 C3564 0.930 . S
H3555 C3567 0.929 . S
H3556 C3570 0.930 . S
H3557 C3572 0.960 . S
H3558 C3572 0.960 . S
H3559 C3572 0.960 . S
C3560 H3552 0.929 . S
C3560 C3561 1.377 . S
C3560 C3562 1.384 . S
C3561 C3560 1.377 . S
C3561 C3567 1.390 . S
C3562 H3553 0.930 . S
C3562 C3560 1.384 . S
C3562 C3563 1.372 . S
C3563 C3562 1.372 . S
C3563 C3564 1.400 . S
C3563 C3568 1.490 . S
C3564 H3554 0.930 . S
C3564 C3563 1.400 . S
C3564 C3567 1.386 . S
H3565 C3581 0.930 . S
H3566 C3582 0.931 . S
C3567 H3555 0.929 . S
C3567 C3561 1.390 . S
C3567 C3564 1.386 . S
C3568 C3563 1.490 . S
C3568 C3570 1.395 . S
C3568 C3571 1.403 . S
H3569 C3575 0.930 . S
C3570 H3556 0.930 . S
C3570 C3568 1.395 . S
C3570 C3573 1.403 . S
C3571 C3568 1.403 . S
C3571 C3572 1.524 . S
C3571 C3575 1.400 . S
C3572 H3557 0.960 . S
C3572 H3558 0.960 . S
C3572 H3559 0.960 . S
C3572 C3571 1.524 . S
C3573 C3570 1.403 . S
C3573 C3574 1.392 . S
C3573 C3577 1.495 . S
C3574 C3573 1.392 . S
C3574 C3575 1.385 . S
C3574 C3576 1.478 . S
C3575 H3569 0.930 . S
C3575 C3571 1.400 . S
C3575 C3574 1.385 . S
C3576 C3574 1.478 . S
C3576 C3578 1.381 . S
C3576 C3582 1.383 . S
C3577 C3573 1.495 . S
C3577 H3583 0.959 . S
C3577 H3584 0.961 . S
C3577 H3585 0.960 . S
C3578 C3576 1.381 . S
C3578 C3579 1.394 . S
C3578 H3586 0.930 . S
C3579 C3578 1.394 . S
C3579 C3580 1.383 . S
C3579 H3587 0.929 . S
C3580 C3579 1.383 . S
C3580 C3581 1.377 . S
C3581 H3565 0.930 . S
C3581 C3580 1.377 . S
C3581 C3582 1.379 . S
C3582 H3566 0.931 . S
C3582 C3576 1.383 . S
C3582 C3581 1.379 . S
H3583 C3577 0.959 . S
H3584 C3577 0.961 . S
H3585 C3577 0.960 . S
H3586 C3578 0.930 . S
H3587 C3579 0.929 . S
H3588 C3596 0.929 . S
H3589 C3598 0.930 . S
H3590 C3600 0.930 . S
H3591 C3603 0.929 . S
H3592 C3606 0.930 . S
H3593 C3608 0.960 . S
H3594 C3608 0.960 . S
H3595 C3608 0.960 . S
C3596 H3588 0.929 . S
C3596 C3597 1.377 . S
C3596 C3598 1.384 . S
C3597 C3596 1.377 . S
C3597 C3603 1.390 . S
C3598 H3589 0.930 . S
C3598 C3596 1.384 . S
C3598 C3599 1.372 . S
C3599 C3598 1.372 . S
C3599 C3600 1.400 . S
C3599 C3604 1.490 . S
C3600 H3590 0.930 . S
C3600 C3599 1.400 . S
C3600 C3603 1.386 . S
H3601 C3617 0.930 . S
H3602 C3618 0.931 . S
C3603 H3591 0.929 . S
C3603 C3597 1.390 . S
C3603 C3600 1.386 . S
C3604 C3599 1.490 . S
C3604 C3606 1.395 . S
C3604 C3607 1.403 . S
H3605 C3611 0.930 . S
C3606 H3592 0.930 . S
C3606 C3604 1.395 . S
C3606 C3609 1.403 . S
C3607 C3604 1.403 . S
C3607 C3608 1.524 . S
C3607 C3611 1.400 . S
C3608 H3593 0.960 . S
C3608 H3594 0.960 . S
C3608 H3595 0.960 . S
C3608 C3607 1.524 . S
C3609 C3606 1.403 . S
C3609 C3610 1.392 . S
C3609 C3613 1.495 . S
C3610 C3609 1.392 . S
C3610 C3611 1.385 . S
C3610 C3612 1.478 . S
C3611 H3605 0.930 . S
C3611 C3607 1.400 . S
C3611 C3610 1.385 . S
C3612 C3610 1.478 . S
C3612 C3614 1.381 . S
C3612 C3618 1.383 . S
C3613 C3609 1.495 . S
C3613 H3619 0.959 . S
C3613 H3620 0.961 . S
C3613 H3621 0.960 . S
C3614 C3612 1.381 . S
C3614 C3615 1.394 . S
C3614 H3622 0.930 . S
C3615 C3614 1.394 . S
C3615 C3616 1.383 . S
C3615 H3623 0.929 . S
C3616 C3615 1.383 . S
C3616 C3617 1.377 . S
C3617 H3601 0.930 . S
C3617 C3616 1.377 . S
C3617 C3618 1.379 . S
C3618 H3602 0.931 . S
C3618 C3612 1.383 . S
C3618 C3617 1.379 . S
H3619 C3613 0.959 . S
H3620 C3613 0.961 . S
H3621 C3613 0.960 . S
H3622 C3614 0.930 . S
H3623 C3615 0.929 . S
H3624 C3632 0.929 . S
H3625 C3634 0.930 . S
H3626 C3636 0.930 . S
H3627 C3639 0.929 . S
H3628 C3642 0.955 . S
H3629 C3644 0.960 . S
H3630 C3644 0.960 . S
H3631 C3644 0.960 . S
C3632 H3624 0.929 . S
C3632 C3633 1.377 1_655 S
C3632 C3634 1.384 . S
C3633 C3632 1.377 1_455 S
C3633 C3639 1.390 . S
C3634 H3625 0.930 . S
C3634 C3632 1.384 . S
C3634 C3635 1.372 1_655 S
C3635 C3634 1.372 1_455 S
C3635 C3636 1.400 . S
C3635 C3640 1.490 . S
C3636 H3626 0.930 . S
C3636 C3635 1.400 . S
C3636 C3639 1.386 . S
H3637 C3653 0.930 . S
H3638 C3654 0.931 . S
C3639 H3627 0.929 . S
C3639 C3633 1.390 . S
C3639 C3636 1.386 . S
C3640 C3635 1.490 . S
C3640 C3642 1.395 . S
C3640 C3643 1.403 . S
H3641 C3647 0.930 . S
C3642 H3628 0.955 . S
C3642 C3640 1.395 . S
C3642 C3645 1.403 . S
C3643 C3640 1.403 . S
C3643 C3644 1.524 . S
C3643 C3647 1.400 . S
C3644 H3629 0.960 . S
C3644 H3630 0.960 . S
C3644 H3631 0.960 . S
C3644 C3643 1.524 . S
C3645 C3642 1.403 . S
C3645 C3646 1.392 . S
C3645 C3649 1.487 1_455 S
C3646 C3645 1.392 . S
C3646 C3647 1.385 . S
C3646 C3648 1.478 . S
C3647 H3641 0.930 . S
C3647 C3643 1.400 . S
C3647 C3646 1.385 . S
C3648 C3646 1.478 . S
C3648 C3650 1.342 1_455 S
C3648 C3654 1.383 . S
C3649 C3645 1.487 1_655 S
C3649 H3655 0.977 . S
C3649 H3656 0.932 1_655 S
C3649 H3657 0.980 . S
C3650 C3648 1.342 1_655 S
C3650 C3651 1.370 1_655 S
C3650 H3658 0.989 . S
C3651 C3650 1.370 1_455 S
C3651 C3652 1.414 . S
C3651 H3659 0.908 1_455 S
C3652 C3651 1.414 . S
C3652 C3653 1.377 . S
C3653 H3637 0.930 . S
C3653 C3652 1.377 . S
C3653 C3654 1.379 . S
C3654 H3638 0.931 . S
C3654 C3648 1.383 . S
C3654 C3653 1.379 . S
H3655 C3649 0.977 . S
H3656 C3649 0.932 1_455 S
H3657 C3649 0.980 . S
H3658 C3650 0.989 . S
H3659 C3651 0.908 1_655 S
H3660 C3668 0.929 . S
H3661 C3670 0.930 . S
H3662 C3672 0.930 . S
H3663 C3675 0.929 . S
H3664 C3678 0.930 . S
H3665 C3680 0.960 . S
H3666 C3680 0.960 . S
H3667 C3680 0.960 . S
C3668 H3660 0.929 . S
C3668 C3669 1.377 . S
C3668 C3670 1.384 . S
C3669 C3668 1.377 . S
C3669 C3675 1.390 . S
C3670 H3661 0.930 . S
C3670 C3668 1.384 . S
C3670 C3671 1.372 . S
C3671 C3670 1.372 . S
C3671 C3672 1.400 . S
C3671 C3676 1.490 . S
C3672 H3662 0.930 . S
C3672 C3671 1.400 . S
C3672 C3675 1.386 . S
H3673 C3689 0.930 . S
H3674 C3690 0.931 . S
C3675 H3663 0.929 . S
C3675 C3669 1.390 . S
C3675 C3672 1.386 . S
C3676 C3671 1.490 . S
C3676 C3678 1.395 . S
C3676 C3679 1.403 . S
H3677 C3683 0.930 . S
C3678 H3664 0.930 . S
C3678 C3676 1.395 . S
C3678 C3681 1.403 . S
C3679 C3676 1.403 . S
C3679 C3680 1.524 . S
C3679 C3683 1.400 . S
C3680 H3665 0.960 . S
C3680 H3666 0.960 . S
C3680 H3667 0.960 . S
C3680 C3679 1.524 . S
C3681 C3678 1.403 . S
C3681 C3682 1.392 . S
C3681 C3685 1.495 . S
C3682 C3681 1.392 . S
C3682 C3683 1.385 . S
C3682 C3684 1.478 . S
C3683 H3677 0.930 . S
C3683 C3679 1.400 . S
C3683 C3682 1.385 . S
C3684 C3682 1.478 . S
C3684 C3686 1.381 . S
C3684 C3690 1.383 . S
C3685 C3681 1.495 . S
C3685 H3691 0.959 . S
C3685 H3692 0.961 . S
C3685 H3693 0.960 . S
C3686 C3684 1.381 . S
C3686 C3687 1.394 . S
C3686 H3694 0.930 . S
C3687 C3686 1.394 . S
C3687 C3688 1.383 . S
C3687 H3695 0.929 . S
C3688 C3687 1.383 . S
C3688 C3689 1.377 . S
C3689 H3673 0.930 . S
C3689 C3688 1.377 . S
C3689 C3690 1.379 . S
C3690 H3674 0.931 . S
C3690 C3684 1.383 . S
C3690 C3689 1.379 . S
H3691 C3685 0.959 . S
H3692 C3685 0.961 . S
H3693 C3685 0.960 . S
H3694 C3686 0.930 . S
H3695 C3687 0.929 . S
H3696 C3704 0.929 . S
H3697 C3706 0.930 . S
H3698 C3708 0.930 . S
H3699 C3711 0.929 . S
H3700 C3714 0.930 . S
H3701 C3716 0.960 . S
H3702 C3716 0.960 . S
H3703 C3716 0.960 . S
C3704 H3696 0.929 . S
C3704 C3705 1.377 . S
C3704 C3706 1.384 . S
C3705 C3704 1.377 . S
C3705 C3711 1.390 . S
C3706 H3697 0.930 . S
C3706 C3704 1.384 . S
C3706 C3707 1.372 . S
C3707 C3706 1.372 . S
C3707 C3708 1.400 . S
C3707 C3712 1.490 . S
C3708 H3698 0.930 . S
C3708 C3707 1.400 . S
C3708 C3711 1.386 . S
H3709 C3725 0.930 . S
H3710 C3726 0.931 . S
C3711 H3699 0.929 . S
C3711 C3705 1.390 . S
C3711 C3708 1.386 . S
C3712 C3707 1.490 . S
C3712 C3714 1.395 . S
C3712 C3715 1.403 . S
H3713 C3719 0.930 . S
C3714 H3700 0.930 . S
C3714 C3712 1.395 . S
C3714 C3717 1.403 . S
C3715 C3712 1.403 . S
C3715 C3716 1.524 . S
C3715 C3719 1.400 . S
C3716 H3701 0.960 . S
C3716 H3702 0.960 . S
C3716 H3703 0.960 . S
C3716 C3715 1.524 . S
C3717 C3714 1.403 . S
C3717 C3718 1.392 . S
C3717 C3721 1.495 . S
C3718 C3717 1.392 . S
C3718 C3719 1.385 . S
C3718 C3720 1.478 . S
C3719 H3713 0.930 . S
C3719 C3715 1.400 . S
C3719 C3718 1.385 . S
C3720 C3718 1.478 . S
C3720 C3722 1.381 . S
C3720 C3726 1.383 . S
C3721 C3717 1.495 . S
C3721 H3727 0.959 . S
C3721 H3728 0.961 . S
C3721 H3729 0.960 . S
C3722 C3720 1.381 . S
C3722 C3723 1.394 . S
C3722 H3730 0.930 . S
C3723 C3722 1.394 . S
C3723 C3724 1.383 . S
C3723 H3731 0.929 . S
C3724 C3723 1.383 . S
C3724 C3725 1.377 . S
C3725 H3709 0.930 . S
C3725 C3724 1.377 . S
C3725 C3726 1.379 . S
C3726 H3710 0.931 . S
C3726 C3720 1.383 . S
C3726 C3725 1.379 . S
H3727 C3721 0.959 . S
H3728 C3721 0.961 . S
H3729 C3721 0.960 . S
H3730 C3722 0.930 . S
H3731 C3723 0.929 . S
H3732 C3740 0.929 . S
H3733 C3742 0.930 . S
H3734 C3744 0.930 . S
H3735 C3747 0.898 1_554 S
H3736 C3750 0.930 . S
H3737 C3752 0.960 . S
H3738 C3752 0.960 . S
H3739 C3752 0.960 . S
C3740 H3732 0.929 . S
C3740 C3741 1.377 . S
C3740 C3742 1.384 . S
C3741 C3740 1.377 . S
C3741 C3747 1.390 . S
C3742 H3733 0.930 . S
C3742 C3740 1.384 . S
C3742 C3743 1.372 . S
C3743 C3742 1.372 . S
C3743 C3744 1.400 . S
C3743 C3748 1.490 . S
C3744 H3734 0.930 . S
C3744 C3743 1.400 . S
C3744 C3747 1.386 . S
H3745 C3761 0.930 . S
H3746 C3762 0.931 . S
C3747 H3735 0.898 1_556 S
C3747 C3741 1.390 . S
C3747 C3744 1.386 . S
C3748 C3743 1.490 . S
C3748 C3750 1.395 . S
C3748 C3751 1.403 . S
H3749 C3755 0.930 . S
C3750 H3736 0.930 . S
C3750 C3748 1.395 . S
C3750 C3753 1.403 . S
C3751 C3748 1.403 . S
C3751 C3752 1.524 . S
C3751 C3755 1.400 . S
C3752 H3737 0.960 . S
C3752 H3738 0.960 . S
C3752 H3739 0.960 . S
C3752 C3751 1.524 . S
C3753 C3750 1.403 . S
C3753 C3754 1.392 . S
C3753 C3757 1.495 . S
C3754 C3753 1.392 . S
C3754 C3755 1.385 . S
C3754 C3756 1.478 . S
C3755 H3749 0.930 . S
C3755 C3751 1.400 . S
C3755 C3754 1.385 . S
C3756 C3754 1.478 . S
C3756 C3758 1.381 . S
C3756 C3762 1.383 . S
C3757 C3753 1.495 . S
C3757 H3763 0.959 . S
C3757 H3764 0.961 . S
C3757 H3765 0.960 . S
C3758 C3756 1.381 . S
C3758 C3759 1.394 . S
C3758 H3766 0.930 . S
C3759 C3758 1.394 . S
C3759 C3760 1.383 . S
C3759 H3767 0.929 . S
C3760 C3759 1.383 . S
C3760 C3761 1.377 . S
C3761 H3745 0.930 . S
C3761 C3760 1.377 . S
C3761 C3762 1.379 . S
C3762 H3746 0.931 . S
C3762 C3756 1.383 . S
C3762 C3761 1.379 . S
H3763 C3757 0.959 . S
H3764 C3757 0.961 . S
H3765 C3757 0.960 . S
H3766 C3758 0.930 . S
H3767 C3759 0.929 . S
H3768 C3776 0.929 . S
H3769 C3778 0.930 . S
H3770 C3780 0.930 . S
H3771 C3783 0.929 . S
H3772 C3786 0.930 . S
H3773 C3788 0.960 . S
H3774 C3788 0.960 . S
H3775 C3788 0.960 . S
C3776 H3768 0.929 . S
C3776 C3777 1.377 . S
C3776 C3778 1.384 . S
C3777 C3776 1.377 . S
C3777 C3783 1.390 . S
C3778 H3769 0.930 . S
C3778 C3776 1.384 . S
C3778 C3779 1.372 . S
C3779 C3778 1.372 . S
C3779 C3780 1.400 . S
C3779 C3784 1.490 . S
C3780 H3770 0.930 . S
C3780 C3779 1.400 . S
C3780 C3783 1.386 . S
H3781 C3797 0.930 . S
H3782 C3798 0.931 . S
C3783 H3771 0.929 . S
C3783 C3777 1.390 . S
C3783 C3780 1.386 . S
C3784 C3779 1.490 . S
C3784 C3786 1.395 . S
C3784 C3787 1.403 . S
H3785 C3791 0.930 . S
C3786 H3772 0.930 . S
C3786 C3784 1.395 . S
C3786 C3789 1.403 . S
C3787 C3784 1.403 . S
C3787 C3788 1.524 . S
C3787 C3791 1.400 . S
C3788 H3773 0.960 . S
C3788 H3774 0.960 . S
C3788 H3775 0.960 . S
C3788 C3787 1.524 . S
C3789 C3786 1.403 . S
C3789 C3790 1.392 . S
C3789 C3793 1.495 . S
C3790 C3789 1.392 . S
C3790 C3791 1.385 . S
C3790 C3792 1.478 . S
C3791 H3785 0.930 . S
C3791 C3787 1.400 . S
C3791 C3790 1.385 . S
C3792 C3790 1.478 . S
C3792 C3794 1.381 . S
C3792 C3798 1.383 . S
C3793 C3789 1.495 . S
C3793 H3799 0.959 . S
C3793 H3800 0.961 . S
C3793 H3801 0.960 . S
C3794 C3792 1.381 . S
C3794 C3795 1.394 . S
C3794 H3802 0.930 . S
C3795 C3794 1.394 . S
C3795 C3796 1.383 . S
C3795 H3803 0.929 . S
C3796 C3795 1.383 . S
C3796 C3797 1.377 . S
C3797 H3781 0.930 . S
C3797 C3796 1.377 . S
C3797 C3798 1.379 . S
C3798 H3782 0.931 . S
C3798 C3792 1.383 . S
C3798 C3797 1.379 . S
H3799 C3793 0.959 . S
H3800 C3793 0.961 . S
H3801 C3793 0.960 . S
H3802 C3794 0.930 . S
H3803 C3795 0.929 . S
H3804 C3812 0.929 . S
H3805 C3814 0.930 . S
H3806 C3816 0.930 . S
H3807 C3819 0.929 . S
H3808 C3822 0.930 . S
H3809 C3824 0.960 . S
H3810 C3824 0.960 . S
H3811 C3824 0.960 . S
C3812 H3804 0.929 . S
C3812 C3813 1.377 . S
C3812 C3814 1.384 . S
C3813 C3812 1.377 . S
C3813 C3819 1.390 . S
C3814 H3805 0.930 . S
C3814 C3812 1.384 . S
C3814 C3815 1.372 . S
C3815 C3814 1.372 . S
C3815 C3816 1.400 . S
C3815 C3820 1.490 . S
C3816 H3806 0.930 . S
C3816 C3815 1.400 . S
C3816 C3819 1.386 . S
H3817 C3833 0.930 . S
H3818 C3834 0.931 . S
C3819 H3807 0.929 . S
C3819 C3813 1.390 . S
C3819 C3816 1.386 . S
C3820 C3815 1.490 . S
C3820 C3822 1.395 . S
C3820 C3823 1.403 . S
H3821 C3827 0.930 . S
C3822 H3808 0.930 . S
C3822 C3820 1.395 . S
C3822 C3825 1.403 . S
C3823 C3820 1.403 . S
C3823 C3824 1.524 . S
C3823 C3827 1.400 . S
C3824 H3809 0.960 . S
C3824 H3810 0.960 . S
C3824 H3811 0.960 . S
C3824 C3823 1.524 . S
C3825 C3822 1.403 . S
C3825 C3826 1.392 . S
C3825 C3829 1.495 . S
C3826 C3825 1.392 . S
C3826 C3827 1.385 . S
C3826 C3828 1.478 . S
C3827 H3821 0.930 . S
C3827 C3823 1.400 . S
C3827 C3826 1.385 . S
C3828 C3826 1.478 . S
C3828 C3830 1.381 . S
C3828 C3834 1.383 . S
C3829 C3825 1.495 . S
C3829 H3835 0.959 . S
C3829 H3836 0.961 . S
C3829 H3837 0.960 . S
C3830 C3828 1.381 . S
C3830 C3831 1.394 . S
C3830 H3838 0.930 . S
C3831 C3830 1.394 . S
C3831 C3832 1.383 . S
C3831 H3839 0.929 . S
C3832 C3831 1.383 . S
C3832 C3833 1.377 . S
C3833 H3817 0.930 . S
C3833 C3832 1.377 . S
C3833 C3834 1.379 . S
C3834 H3818 0.931 . S
C3834 C3828 1.383 . S
C3834 C3833 1.379 . S
H3835 C3829 0.959 . S
H3836 C3829 0.961 . S
H3837 C3829 0.960 . S
H3838 C3830 0.930 . S
H3839 C3831 0.929 . S
H3840 C3848 0.929 . S
H3841 C3850 0.930 . S
H3842 C3852 0.930 . S
H3843 C3855 0.929 . S
H3844 C3858 0.930 . S
H3845 C3860 0.960 . S
H3846 C3860 0.960 . S
H3847 C3860 0.960 . S
C3848 H3840 0.929 . S
C3848 C3849 1.377 . S
C3848 C3850 1.384 . S
C3849 C3848 1.377 . S
C3849 C3855 1.390 . S
C3850 H3841 0.930 . S
C3850 C3848 1.384 . S
C3850 C3851 1.372 . S
C3851 C3850 1.372 . S
C3851 C3852 1.400 . S
C3851 C3856 1.490 . S
C3852 H3842 0.930 . S
C3852 C3851 1.400 . S
C3852 C3855 1.386 . S
H3853 C3869 0.930 . S
H3854 C3870 0.931 . S
C3855 H3843 0.929 . S
C3855 C3849 1.390 . S
C3855 C3852 1.386 . S
C3856 C3851 1.490 . S
C3856 C3858 1.395 . S
C3856 C3859 1.403 . S
H3857 C3863 0.930 . S
C3858 H3844 0.930 . S
C3858 C3856 1.395 . S
C3858 C3861 1.403 . S
C3859 C3856 1.403 . S
C3859 C3860 1.524 . S
C3859 C3863 1.400 . S
C3860 H3845 0.960 . S
C3860 H3846 0.960 . S
C3860 H3847 0.960 . S
C3860 C3859 1.524 . S
C3861 C3858 1.403 . S
C3861 C3862 1.392 . S
C3861 C3865 1.495 . S
C3862 C3861 1.392 . S
C3862 C3863 1.385 . S
C3862 C3864 1.478 . S
C3863 H3857 0.930 . S
C3863 C3859 1.400 . S
C3863 C3862 1.385 . S
C3864 C3862 1.478 . S
C3864 C3866 1.381 . S
C3864 C3870 1.383 . S
C3865 C3861 1.495 . S
C3865 H3871 0.959 . S
C3865 H3872 0.961 . S
C3865 H3873 0.960 . S
C3866 C3864 1.381 . S
C3866 C3867 1.394 . S
C3866 H3874 0.930 . S
C3867 C3866 1.394 . S
C3867 C3868 1.383 . S
C3867 H3875 0.929 . S
C3868 C3867 1.383 . S
C3868 C3869 1.377 . S
C3869 H3853 0.930 . S
C3869 C3868 1.377 . S
C3869 C3870 1.379 . S
C3870 H3854 0.931 . S
C3870 C3864 1.383 . S
C3870 C3869 1.379 . S
H3871 C3865 0.959 . S
H3872 C3865 0.961 . S
H3873 C3865 0.960 . S
H3874 C3866 0.930 . S
H3875 C3867 0.929 . S
H3876 C3884 0.929 . S
H3877 C3886 0.930 . S
H3878 C3888 0.930 . S
H3879 C3891 0.929 . S
H3880 C3894 0.930 . S
H3881 C3896 0.960 . S
H3882 C3896 0.960 . S
H3883 C3896 0.960 . S
C3884 H3876 0.929 . S
C3884 C3885 1.377 . S
C3884 C3886 1.384 . S
C3885 C3884 1.377 . S
C3885 C3891 1.390 . S
C3886 H3877 0.930 . S
C3886 C3884 1.384 . S
C3886 C3887 1.372 . S
C3887 C3886 1.372 . S
C3887 C3888 1.400 . S
C3887 C3892 1.490 . S
C3888 H3878 0.930 . S
C3888 C3887 1.400 . S
C3888 C3891 1.386 . S
H3889 C3905 0.930 . S
H3890 C3906 0.931 . S
C3891 H3879 0.929 . S
C3891 C3885 1.390 . S
C3891 C3888 1.386 . S
C3892 C3887 1.490 . S
C3892 C3894 1.395 . S
C3892 C3895 1.403 . S
H3893 C3899 0.930 . S
C3894 H3880 0.930 . S
C3894 C3892 1.395 . S
C3894 C3897 1.403 . S
C3895 C3892 1.403 . S
C3895 C3896 1.524 . S
C3895 C3899 1.400 . S
C3896 H3881 0.960 . S
C3896 H3882 0.960 . S
C3896 H3883 0.960 . S
C3896 C3895 1.524 . S
C3897 C3894 1.403 . S
C3897 C3898 1.392 . S
C3897 C3901 1.495 . S
C3898 C3897 1.392 . S
C3898 C3899 1.385 . S
C3898 C3900 1.478 . S
C3899 H3893 0.930 . S
C3899 C3895 1.400 . S
C3899 C3898 1.385 . S
C3900 C3898 1.478 . S
C3900 C3902 1.381 . S
C3900 C3906 1.383 . S
C3901 C3897 1.495 . S
C3901 H3907 0.959 . S
C3901 H3908 0.961 . S
C3901 H3909 0.960 . S
C3902 C3900 1.381 . S
C3902 C3903 1.394 . S
C3902 H3910 0.930 . S
C3903 C3902 1.394 . S
C3903 C3904 1.383 . S
C3903 H3911 0.929 . S
C3904 C3903 1.383 . S
C3904 C3905 1.377 . S
C3905 H3889 0.930 . S
C3905 C3904 1.377 . S
C3905 C3906 1.379 . S
C3906 H3890 0.931 . S
C3906 C3900 1.383 . S
C3906 C3905 1.379 . S
H3907 C3901 0.959 . S
H3908 C3901 0.961 . S
H3909 C3901 0.960 . S
H3910 C3902 0.930 . S
H3911 C3903 0.929 . S
H3912 C3920 0.929 . S
H3913 C3922 0.930 . S
H3914 C3924 0.930 . S
H3915 C3927 0.929 . S
H3916 C3930 0.930 . S
H3917 C3932 0.960 . S
H3918 C3932 0.960 . S
H3919 C3932 0.960 . S
C3920 H3912 0.929 . S
C3920 C3921 1.377 . S
C3920 C3922 1.384 . S
C3921 C3920 1.377 . S
C3921 C3927 1.390 . S
C3922 H3913 0.930 . S
C3922 C3920 1.384 . S
C3922 C3923 1.372 . S
C3923 C3922 1.372 . S
C3923 C3924 1.400 . S
C3923 C3928 1.490 . S
C3924 H3914 0.930 . S
C3924 C3923 1.400 . S
C3924 C3927 1.386 . S
H3925 C3941 0.930 . S
H3926 C3942 0.931 . S
C3927 H3915 0.929 . S
C3927 C3921 1.390 . S
C3927 C3924 1.386 . S
C3928 C3923 1.490 . S
C3928 C3930 1.395 . S
C3928 C3931 1.403 . S
H3929 C3935 0.930 . S
C3930 H3916 0.930 . S
C3930 C3928 1.395 . S
C3930 C3933 1.403 . S
C3931 C3928 1.403 . S
C3931 C3932 1.524 . S
C3931 C3935 1.400 . S
C3932 H3917 0.960 . S
C3932 H3918 0.960 . S
C3932 H3919 0.960 . S
C3932 C3931 1.524 . S
C3933 C3930 1.403 . S
C3933 C3934 1.392 . S
C3933 C3937 1.495 . S
C3934 C3933 1.392 . S
C3934 C3935 1.385 . S
C3934 C3936 1.478 . S
C3935 H3929 0.930 . S
C3935 C3931 1.400 . S
C3935 C3934 1.385 . S
C3936 C3934 1.478 . S
C3936 C3938 1.381 . S
C3936 C3942 1.383 . S
C3937 C3933 1.495 . S
C3937 H3943 0.959 . S
C3937 H3944 0.961 . S
C3937 H3945 0.960 . S
C3938 C3936 1.381 . S
C3938 C3939 1.394 . S
C3938 H3946 0.930 . S
C3939 C3938 1.394 . S
C3939 C3940 1.383 . S
C3939 H3947 0.929 . S
C3940 C3939 1.383 . S
C3940 C3941 1.377 . S
C3941 H3925 0.930 . S
C3941 C3940 1.377 . S
C3941 C3942 1.379 . S
C3942 H3926 0.931 . S
C3942 C3936 1.383 . S
C3942 C3941 1.379 . S
H3943 C3937 0.959 . S
H3944 C3937 0.961 . S
H3945 C3937 0.960 . S
H3946 C3938 0.930 . S
H3947 C3939 0.929 . S
H3948 C3956 0.929 . S
H3949 C3958 0.930 . S
H3950 C3960 0.930 . S
H3951 C3963 0.929 . S
H3952 C3966 0.930 . S
H3953 C3968 0.960 . S
H3954 C3968 0.960 . S
H3955 C3968 0.960 . S
C3956 H3948 0.929 . S
C3956 C3957 1.377 . S
C3956 C3958 1.384 . S
C3957 C3956 1.377 . S
C3957 C3963 1.390 . S
C3958 H3949 0.930 . S
C3958 C3956 1.384 . S
C3958 C3959 1.372 . S
C3959 C3958 1.372 . S
C3959 C3960 1.400 . S
C3959 C3964 1.490 . S
C3960 H3950 0.930 . S
C3960 C3959 1.400 . S
C3960 C3963 1.386 . S
H3961 C3977 0.930 . S
H3962 C3978 0.931 . S
C3963 H3951 0.929 . S
C3963 C3957 1.390 . S
C3963 C3960 1.386 . S
C3964 C3959 1.490 . S
C3964 C3966 1.395 . S
C3964 C3967 1.403 . S
H3965 C3971 0.930 . S
C3966 H3952 0.930 . S
C3966 C3964 1.395 . S
C3966 C3969 1.403 . S
C3967 C3964 1.403 . S
C3967 C3968 1.524 . S
C3967 C3971 1.400 . S
C3968 H3953 0.960 . S
C3968 H3954 0.960 . S
C3968 H3955 0.960 . S
C3968 C3967 1.524 . S
C3969 C3966 1.403 . S
C3969 C3970 1.392 . S
C3969 C3973 1.495 . S
C3970 C3969 1.392 . S
C3970 C3971 1.385 . S
C3970 C3972 1.478 . S
C3971 H3965 0.930 . S
C3971 C3967 1.400 . S
C3971 C3970 1.385 . S
C3972 C3970 1.478 . S
C3972 C3974 1.381 . S
C3972 C3978 1.383 . S
C3973 C3969 1.495 . S
C3973 H3979 0.959 . S
C3973 H3980 0.961 . S
C3973 H3981 0.960 . S
C3974 C3972 1.381 . S
C3974 C3975 1.394 . S
C3974 H3982 0.930 . S
C3975 C3974 1.394 . S
C3975 C3976 1.383 . S
C3975 H3983 0.929 . S
C3976 C3975 1.383 . S
C3976 C3977 1.377 . S
C3977 H3961 0.930 . S
C3977 C3976 1.377 . S
C3977 C3978 1.379 . S
C3978 H3962 0.931 . S
C3978 C3972 1.383 . S
C3978 C3977 1.379 . S
H3979 C3973 0.959 . S
H3980 C3973 0.961 . S
H3981 C3973 0.960 . S
H3982 C3974 0.930 . S
H3983 C3975 0.929 . S
H3984 C3992 0.929 . S
H3985 C3994 0.930 . S
H3986 C3996 0.930 . S
H3987 C3999 0.929 . S
H3988 C4002 0.930 . S
H3989 C4004 0.960 . S
H3990 C4004 0.960 . S
H3991 C4004 0.960 . S
C3992 H3984 0.929 . S
C3992 C3993 1.377 . S
C3992 C3994 1.384 . S
C3993 C3992 1.377 . S
C3993 C3999 1.390 . S
C3994 H3985 0.930 . S
C3994 C3992 1.384 . S
C3994 C3995 1.372 . S
C3995 C3994 1.372 . S
C3995 C3996 1.400 . S
C3995 C4000 1.490 . S
C3996 H3986 0.930 . S
C3996 C3995 1.400 . S
C3996 C3999 1.386 . S
H3997 C4013 0.930 . S
H3998 C4014 0.931 . S
C3999 H3987 0.929 . S
C3999 C3993 1.390 . S
C3999 C3996 1.386 . S
C4000 C3995 1.490 . S
C4000 C4002 1.395 . S
C4000 C4003 1.403 . S
H4001 C4007 0.930 . S
C4002 H3988 0.930 . S
C4002 C4000 1.395 . S
C4002 C4005 1.403 . S
C4003 C4000 1.403 . S
C4003 C4004 1.524 . S
C4003 C4007 1.400 . S
C4004 H3989 0.960 . S
C4004 H3990 0.960 . S
C4004 H3991 0.960 . S
C4004 C4003 1.524 . S
C4005 C4002 1.403 . S
C4005 C4006 1.392 . S
C4005 C4009 1.495 . S
C4006 C4005 1.392 . S
C4006 C4007 1.385 . S
C4006 C4008 1.478 . S
C4007 H4001 0.930 . S
C4007 C4003 1.400 . S
C4007 C4006 1.385 . S
C4008 C4006 1.478 . S
C4008 C4010 1.381 . S
C4008 C4014 1.383 . S
C4009 C4005 1.495 . S
C4009 H4015 0.959 . S
C4009 H4016 0.961 . S
C4009 H4017 0.960 . S
C4010 C4008 1.381 . S
C4010 C4011 1.394 . S
C4010 H4018 0.930 . S
C4011 C4010 1.394 . S
C4011 C4012 1.383 . S
C4011 H4019 0.929 . S
C4012 C4011 1.383 . S
C4012 C4013 1.377 . S
C4013 H3997 0.930 . S
C4013 C4012 1.377 . S
C4013 C4014 1.379 . S
C4014 H3998 0.931 . S
C4014 C4008 1.383 . S
C4014 C4013 1.379 . S
H4015 C4009 0.959 . S
H4016 C4009 0.961 . S
H4017 C4009 0.960 . S
H4018 C4010 0.930 . S
H4019 C4011 0.929 . S
H4020 C4028 0.929 . S
H4021 C4030 0.930 . S
H4022 C4032 0.930 . S
H4023 C4035 0.929 . S
H4024 C4038 0.930 . S
H4025 C4040 0.960 . S
H4026 C4040 0.960 . S
H4027 C4040 0.960 . S
C4028 H4020 0.929 . S
C4028 C4029 1.377 . S
C4028 C4030 1.384 . S
C4029 C4028 1.377 . S
C4029 C4035 1.390 . S
C4030 H4021 0.930 . S
C4030 C4028 1.384 . S
C4030 C4031 1.372 . S
C4031 C4030 1.372 . S
C4031 C4032 1.400 . S
C4031 C4036 1.490 . S
C4032 H4022 0.930 . S
C4032 C4031 1.400 . S
C4032 C4035 1.386 . S
H4033 C4049 0.930 . S
H4034 C4050 0.931 . S
C4035 H4023 0.929 . S
C4035 C4029 1.390 . S
C4035 C4032 1.386 . S
C4036 C4031 1.490 . S
C4036 C4038 1.395 . S
C4036 C4039 1.403 . S
H4037 C4043 0.930 . S
C4038 H4024 0.930 . S
C4038 C4036 1.395 . S
C4038 C4041 1.403 . S
C4039 C4036 1.403 . S
C4039 C4040 1.524 . S
C4039 C4043 1.400 . S
C4040 H4025 0.960 . S
C4040 H4026 0.960 . S
C4040 H4027 0.960 . S
C4040 C4039 1.524 . S
C4041 C4038 1.403 . S
C4041 C4042 1.392 . S
C4041 C4045 1.495 . S
C4042 C4041 1.392 . S
C4042 C4043 1.385 . S
C4042 C4044 1.478 . S
C4043 H4037 0.930 . S
C4043 C4039 1.400 . S
C4043 C4042 1.385 . S
C4044 C4042 1.478 . S
C4044 C4046 1.381 . S
C4044 C4050 1.383 . S
C4045 C4041 1.495 . S
C4045 H4051 0.959 . S
C4045 H4052 0.961 . S
C4045 H4053 0.960 . S
C4046 C4044 1.381 . S
C4046 C4047 1.394 . S
C4046 H4054 0.930 . S
C4047 C4046 1.394 . S
C4047 C4048 1.383 . S
C4047 H4055 0.929 . S
C4048 C4047 1.383 . S
C4048 C4049 1.377 . S
C4049 H4033 0.930 . S
C4049 C4048 1.377 . S
C4049 C4050 1.379 . S
C4050 H4034 0.931 . S
C4050 C4044 1.383 . S
C4050 C4049 1.379 . S
H4051 C4045 0.959 . S
H4052 C4045 0.961 . S
H4053 C4045 0.960 . S
H4054 C4046 0.930 . S
H4055 C4047 0.929 . S
H4056 C4064 0.913 1_545 S
H4057 C4066 0.930 . S
H4058 C4068 0.930 . S
H4059 C4071 0.929 . S
H4060 C4074 0.930 . S
H4061 C4076 0.960 . S
H4062 C4076 0.960 . S
H4063 C4076 0.960 . S
C4064 H4056 0.913 1_565 S
C4064 C4065 1.377 . S
C4064 C4066 1.384 . S
C4065 C4064 1.377 . S
C4065 C4071 1.390 . S
C4066 H4057 0.930 . S
C4066 C4064 1.384 . S
C4066 C4067 1.372 . S
C4067 C4066 1.372 . S
C4067 C4068 1.400 . S
C4067 C4072 1.490 . S
C4068 H4058 0.930 . S
C4068 C4067 1.400 . S
C4068 C4071 1.386 . S
H4069 C4085 0.930 . S
H4070 C4086 0.931 . S
C4071 H4059 0.929 . S
C4071 C4065 1.390 . S
C4071 C4068 1.386 . S
C4072 C4067 1.490 . S
C4072 C4074 1.395 . S
C4072 C4075 1.403 . S
H4073 C4079 0.930 . S
C4074 H4060 0.930 . S
C4074 C4072 1.395 . S
C4074 C4077 1.403 . S
C4075 C4072 1.403 . S
C4075 C4076 1.524 . S
C4075 C4079 1.400 . S
C4076 H4061 0.960 . S
C4076 H4062 0.960 . S
C4076 H4063 0.960 . S
C4076 C4075 1.524 . S
C4077 C4074 1.403 . S
C4077 C4078 1.392 . S
C4077 C4081 1.495 . S
C4078 C4077 1.392 . S
C4078 C4079 1.385 . S
C4078 C4080 1.478 . S
C4079 H4073 0.930 . S
C4079 C4075 1.400 . S
C4079 C4078 1.385 . S
C4080 C4078 1.478 . S
C4080 C4082 1.381 . S
C4080 C4086 1.383 . S
C4081 C4077 1.495 . S
C4081 H4087 0.959 . S
C4081 H4088 0.961 . S
C4081 H4089 0.960 . S
C4082 C4080 1.381 . S
C4082 C4083 1.394 . S
C4082 H4090 0.930 . S
C4083 C4082 1.394 . S
C4083 C4084 1.383 . S
C4083 H4091 0.929 . S
C4084 C4083 1.383 . S
C4084 C4085 1.377 . S
C4085 H4069 0.930 . S
C4085 C4084 1.377 . S
C4085 C4086 1.379 . S
C4086 H4070 0.931 . S
C4086 C4080 1.383 . S
C4086 C4085 1.379 . S
H4087 C4081 0.959 . S
H4088 C4081 0.961 . S
H4089 C4081 0.960 . S
H4090 C4082 0.930 . S
H4091 C4083 0.929 . S
H4092 C4100 0.929 . S
H4093 C4102 0.930 . S
H4094 C4104 0.930 . S
H4095 C4107 0.929 . S
H4096 C4110 0.930 . S
H4097 C4112 0.960 . S
H4098 C4112 0.960 . S
H4099 C4112 0.960 . S
C4100 H4092 0.929 . S
C4100 C4101 1.377 . S
C4100 C4102 1.384 . S
C4101 C4100 1.377 . S
C4101 C4107 1.390 1_554 S
C4102 H4093 0.930 . S
C4102 C4100 1.384 . S
C4102 C4103 1.372 . S
C4103 C4102 1.372 . S
C4103 C4104 1.400 1_554 S
C4103 C4108 1.490 . S
C4104 H4094 0.930 . S
C4104 C4103 1.400 1_556 S
C4104 C4107 1.386 . S
H4105 C4121 0.930 1_556 S
H4106 C4122 0.931 1_556 S
C4107 H4095 0.929 . S
C4107 C4101 1.390 1_556 S
C4107 C4104 1.386 . S
C4108 C4103 1.490 . S
C4108 C4110 1.395 . S
C4108 C4111 1.403 1_554 S
H4109 C4115 0.930 . S
C4110 H4096 0.930 . S
C4110 C4108 1.395 . S
C4110 C4113 1.403 . S
C4111 C4108 1.403 1_556 S
C4111 C4112 1.524 . S
C4111 C4115 1.400 . S
C4112 H4097 0.960 . S
C4112 H4098 0.960 . S
C4112 H4099 0.960 . S
C4112 C4111 1.524 . S
C4113 C4110 1.403 . S
C4113 C4114 1.392 . S
C4113 C4117 1.495 . S
C4114 C4113 1.392 . S
C4114 C4115 1.385 1_554 S
C4114 C4116 1.478 . S
C4115 H4109 0.930 . S
C4115 C4111 1.400 . S
C4115 C4114 1.385 1_556 S
C4116 C4114 1.478 . S
C4116 C4118 1.381 1_565 S
C4116 C4122 1.383 . S
C4117 C4113 1.495 . S
C4117 H4123 0.959 . S
C4117 H4124 0.961 . S
C4117 H4125 0.960 . S
C4118 C4116 1.381 1_545 S
C4118 C4119 1.394 . S
C4118 H4126 0.930 . S
C4119 C4118 1.394 . S
C4119 C4120 1.383 . S
C4119 H4127 0.929 . S
C4120 C4119 1.383 . S
C4120 C4121 1.377 1_545 S
C4121 H4105 0.930 1_554 S
C4121 C4120 1.377 1_565 S
C4121 C4122 1.379 . S
C4122 H4106 0.931 1_554 S
C4122 C4116 1.383 . S
C4122 C4121 1.379 . S
H4123 C4117 0.959 . S
H4124 C4117 0.961 . S
H4125 C4117 0.960 . S
H4126 C4118 0.930 . S
H4127 C4119 0.929 . S
H4128 C4136 0.929 . S
H4129 C4138 0.930 . S
H4130 C4140 0.930 . S
H4131 C4143 0.929 . S
H4132 C4146 0.930 . S
H4133 C4148 0.960 . S
H4134 C4148 0.960 . S
H4135 C4148 0.960 . S
C4136 H4128 0.929 . S
C4136 C4137 1.377 . S
C4136 C4138 1.384 . S
C4137 C4136 1.377 . S
C4137 C4143 1.390 . S
C4138 H4129 0.930 . S
C4138 C4136 1.384 . S
C4138 C4139 1.372 . S
C4139 C4138 1.372 . S
C4139 C4140 1.400 . S
C4139 C4144 1.490 . S
C4140 H4130 0.930 . S
C4140 C4139 1.400 . S
C4140 C4143 1.386 . S
H4141 C4157 0.930 . S
H4142 C4158 0.931 . S
C4143 H4131 0.929 . S
C4143 C4137 1.390 . S
C4143 C4140 1.386 . S
C4144 C4139 1.490 . S
C4144 C4146 1.395 . S
C4144 C4147 1.403 . S
H4145 C4151 0.930 . S
C4146 H4132 0.930 . S
C4146 C4144 1.395 . S
C4146 C4149 1.403 . S
C4147 C4144 1.403 . S
C4147 C4148 1.524 . S
C4147 C4151 1.400 . S
C4148 H4133 0.960 . S
C4148 H4134 0.960 . S
C4148 H4135 0.960 . S
C4148 C4147 1.524 . S
C4149 C4146 1.403 . S
C4149 C4150 1.392 . S
C4149 C4153 1.495 . S
C4150 C4149 1.392 . S
C4150 C4151 1.385 . S
C4150 C4152 1.478 . S
C4151 H4145 0.930 . S
C4151 C4147 1.400 . S
C4151 C4150 1.385 . S
C4152 C4150 1.478 . S
C4152 C4154 1.381 . S
C4152 C4158 1.383 . S
C4153 C4149 1.495 . S
C4153 H4159 0.959 . S
C4153 H4160 0.961 . S
C4153 H4161 0.960 . S
C4154 C4152 1.381 . S
C4154 C4155 1.394 . S
C4154 H4162 0.930 . S
C4155 C4154 1.394 . S
C4155 C4156 1.383 . S
C4155 H4163 0.929 . S
C4156 C4155 1.383 . S
C4156 C4157 1.377 . S
C4157 H4141 0.930 . S
C4157 C4156 1.377 . S
C4157 C4158 1.379 . S
C4158 H4142 0.931 . S
C4158 C4152 1.383 . S
C4158 C4157 1.379 . S
H4159 C4153 0.959 . S
H4160 C4153 0.961 . S
H4161 C4153 0.960 . S
H4162 C4154 0.930 . S
H4163 C4155 0.929 . S
H4164 C4172 0.929 . S
H4165 C4174 0.930 . S
H4166 C4176 0.930 . S
H4167 C4179 0.929 . S
H4168 C4182 0.930 . S
H4169 C4184 0.960 . S
H4170 C4184 0.960 . S
H4171 C4184 0.960 . S
C4172 H4164 0.929 . S
C4172 C4173 1.377 . S
C4172 C4174 1.384 . S
C4173 C4172 1.377 . S
C4173 C4179 1.390 1_554 S
C4174 H4165 0.930 . S
C4174 C4172 1.384 . S
C4174 C4175 1.372 . S
C4175 C4174 1.372 . S
C4175 C4176 1.400 1_554 S
C4175 C4180 1.490 . S
C4176 H4166 0.930 . S
C4176 C4175 1.400 1_556 S
C4176 C4179 1.386 . S
H4177 C4193 0.900 1_556 S
H4178 C4194 0.931 1_556 S
C4179 H4167 0.929 . S
C4179 C4173 1.390 1_556 S
C4179 C4176 1.386 . S
C4180 C4175 1.490 . S
C4180 C4182 1.395 . S
C4180 C4183 1.403 . S
H4181 C4187 0.930 . S
C4182 H4168 0.930 . S
C4182 C4180 1.395 . S
C4182 C4185 1.403 . S
C4183 C4180 1.403 . S
C4183 C4184 1.524 . S
C4183 C4187 1.400 . S
C4184 H4169 0.960 . S
C4184 H4170 0.960 . S
C4184 H4171 0.960 . S
C4184 C4183 1.524 . S
C4185 C4182 1.403 . S
C4185 C4186 1.392 . S
C4185 C4189 1.495 . S
C4186 C4185 1.392 . S
C4186 C4187 1.385 . S
C4186 C4188 1.478 . S
C4187 H4181 0.930 . S
C4187 C4183 1.400 . S
C4187 C4186 1.385 . S
C4188 C4186 1.478 . S
C4188 C4190 1.381 . S
C4188 C4194 1.383 . S
C4189 C4185 1.495 . S
C4189 H4195 0.959 . S
C4189 H4196 0.961 . S
C4189 H4197 0.960 . S
C4190 C4188 1.381 . S
C4190 C4191 1.394 . S
C4190 H4198 0.930 . S
C4191 C4190 1.394 . S
C4191 C4192 1.383 . S
C4191 H4199 0.929 . S
C4192 C4191 1.383 . S
C4192 C4193 1.377 . S
C4193 H4177 0.900 1_554 S
C4193 C4192 1.377 . S
C4193 C4194 1.379 . S
C4194 H4178 0.931 1_554 S
C4194 C4188 1.383 . S
C4194 C4193 1.379 . S
H4195 C4189 0.959 . S
H4196 C4189 0.961 . S
H4197 C4189 0.960 . S
H4198 C4190 0.930 . S
H4199 C4191 0.929 . S
H4200 C4208 0.929 . S
H4201 C4210 0.930 . S
H4202 C4212 0.930 . S
H4203 C4215 0.929 . S
H4204 C4218 0.930 . S
H4205 C4220 0.960 . S
H4206 C4220 0.960 . S
H4207 C4220 0.960 . S
C4208 H4200 0.929 . S
C4208 C4209 1.377 . S
C4208 C4210 1.384 . S
C4209 C4208 1.377 . S
C4209 C4215 1.390 . S
C4210 H4201 0.930 . S
C4210 C4208 1.384 . S
C4210 C4211 1.372 . S
C4211 C4210 1.372 . S
C4211 C4212 1.400 . S
C4211 C4216 1.490 . S
C4212 H4202 0.930 . S
C4212 C4211 1.400 . S
C4212 C4215 1.386 . S
H4213 C4229 0.930 . S
H4214 C4230 0.931 . S
C4215 H4203 0.929 . S
C4215 C4209 1.390 . S
C4215 C4212 1.386 . S
C4216 C4211 1.490 . S
C4216 C4218 1.395 . S
C4216 C4219 1.403 . S
H4217 C4223 0.930 . S
C4218 H4204 0.930 . S
C4218 C4216 1.395 . S
C4218 C4221 1.403 . S
C4219 C4216 1.403 . S
C4219 C4220 1.524 . S
C4219 C4223 1.400 . S
C4220 H4205 0.960 . S
C4220 H4206 0.960 . S
C4220 H4207 0.960 . S
C4220 C4219 1.524 . S
C4221 C4218 1.403 . S
C4221 C4222 1.392 . S
C4221 C4225 1.495 . S
C4222 C4221 1.392 . S
C4222 C4223 1.385 . S
C4222 C4224 1.478 . S
C4223 H4217 0.930 . S
C4223 C4219 1.400 . S
C4223 C4222 1.385 . S
C4224 C4222 1.478 . S
C4224 C4226 1.381 . S
C4224 C4230 1.383 . S
C4225 C4221 1.495 . S
C4225 H4231 0.959 . S
C4225 H4232 0.961 . S
C4225 H4233 0.960 . S
C4226 C4224 1.381 . S
C4226 C4227 1.394 . S
C4226 H4234 0.930 . S
C4227 C4226 1.394 . S
C4227 C4228 1.383 . S
C4227 H4235 0.929 . S
C4228 C4227 1.383 . S
C4228 C4229 1.377 . S
C4229 H4213 0.930 . S
C4229 C4228 1.377 . S
C4229 C4230 1.379 . S
C4230 H4214 0.931 . S
C4230 C4224 1.383 . S
C4230 C4229 1.379 . S
H4231 C4225 0.959 . S
H4232 C4225 0.961 . S
H4233 C4225 0.960 . S
H4234 C4226 0.930 . S
H4235 C4227 0.929 . S
H4236 C4244 0.929 . S
H4237 C4246 0.930 . S
H4238 C4248 0.930 . S
H4239 C4251 0.929 . S
H4240 C4254 0.930 . S
H4241 C4256 0.960 . S
H4242 C4256 0.960 . S
H4243 C4256 0.960 . S
C4244 H4236 0.929 . S
C4244 C4245 1.377 . S
C4244 C4246 1.384 . S
C4245 C4244 1.377 . S
C4245 C4251 1.390 . S
C4246 H4237 0.930 . S
C4246 C4244 1.384 . S
C4246 C4247 1.372 . S
C4247 C4246 1.372 . S
C4247 C4248 1.400 . S
C4247 C4252 1.490 . S
C4248 H4238 0.930 . S
C4248 C4247 1.400 . S
C4248 C4251 1.386 . S
H4249 C4265 0.930 . S
H4250 C4266 0.931 . S
C4251 H4239 0.929 . S
C4251 C4245 1.390 . S
C4251 C4248 1.386 . S
C4252 C4247 1.490 . S
C4252 C4254 1.395 . S
C4252 C4255 1.403 . S
H4253 C4259 0.930 . S
C4254 H4240 0.930 . S
C4254 C4252 1.395 . S
C4254 C4257 1.403 . S
C4255 C4252 1.403 . S
C4255 C4256 1.524 . S
C4255 C4259 1.400 . S
C4256 H4241 0.960 . S
C4256 H4242 0.960 . S
C4256 H4243 0.960 . S
C4256 C4255 1.524 . S
C4257 C4254 1.403 . S
C4257 C4258 1.392 . S
C4257 C4261 1.495 . S
C4258 C4257 1.392 . S
C4258 C4259 1.385 . S
C4258 C4260 1.478 . S
C4259 H4253 0.930 . S
C4259 C4255 1.400 . S
C4259 C4258 1.385 . S
C4260 C4258 1.478 . S
C4260 C4262 1.381 . S
C4260 C4266 1.383 . S
C4261 C4257 1.495 . S
C4261 H4267 0.959 . S
C4261 H4268 0.961 . S
C4261 H4269 0.960 . S
C4262 C4260 1.381 . S
C4262 C4263 1.394 . S
C4262 H4270 0.930 . S
C4263 C4262 1.394 . S
C4263 C4264 1.383 . S
C4263 H4271 0.929 . S
C4264 C4263 1.383 . S
C4264 C4265 1.377 . S
C4265 H4249 0.930 . S
C4265 C4264 1.377 . S
C4265 C4266 1.379 . S
C4266 H4250 0.931 . S
C4266 C4260 1.383 . S
C4266 C4265 1.379 . S
H4267 C4261 0.959 . S
H4268 C4261 0.961 . S
H4269 C4261 0.960 . S
H4270 C4262 0.930 . S
H4271 C4263 0.929 . S
H4272 C4280 0.929 . S
H4273 C4282 0.930 . S
H4274 C4284 0.930 . S
H4275 C4287 0.929 . S
H4276 C4290 0.930 . S
H4277 C4292 0.960 . S
H4278 C4292 0.960 . S
H4279 C4292 0.960 . S
C4280 H4272 0.929 . S
C4280 C4281 1.377 . S
C4280 C4282 1.384 . S
C4281 C4280 1.377 . S
C4281 C4287 1.390 . S
C4282 H4273 0.930 . S
C4282 C4280 1.384 . S
C4282 C4283 1.372 . S
C4283 C4282 1.372 . S
C4283 C4284 1.400 . S
C4283 C4288 1.490 . S
C4284 H4274 0.930 . S
C4284 C4283 1.400 . S
C4284 C4287 1.386 . S
H4285 C4301 0.930 . S
H4286 C4302 0.931 . S
C4287 H4275 0.929 . S
C4287 C4281 1.390 . S
C4287 C4284 1.386 . S
C4288 C4283 1.490 . S
C4288 C4290 1.395 . S
C4288 C4291 1.403 . S
H4289 C4295 0.930 . S
C4290 H4276 0.930 . S
C4290 C4288 1.395 . S
C4290 C4293 1.403 . S
C4291 C4288 1.403 . S
C4291 C4292 1.524 . S
C4291 C4295 1.400 . S
C4292 H4277 0.960 . S
C4292 H4278 0.960 . S
C4292 H4279 0.960 . S
C4292 C4291 1.524 . S
C4293 C4290 1.403 . S
C4293 C4294 1.392 . S
C4293 C4297 1.495 . S
C4294 C4293 1.392 . S
C4294 C4295 1.385 . S
C4294 C4296 1.478 . S
C4295 H4289 0.930 . S
C4295 C4291 1.400 . S
C4295 C4294 1.385 . S
C4296 C4294 1.478 . S
C4296 C4298 1.381 . S
C4296 C4302 1.383 . S
C4297 C4293 1.495 . S
C4297 H4303 0.959 . S
C4297 H4304 0.961 . S
C4297 H4305 0.960 . S
C4298 C4296 1.381 . S
C4298 C4299 1.394 . S
C4298 H4306 0.930 . S
C4299 C4298 1.394 . S
C4299 C4300 1.383 . S
C4299 H4307 0.929 . S
C4300 C4299 1.383 . S
C4300 C4301 1.377 . S
C4301 H4285 0.930 . S
C4301 C4300 1.377 . S
C4301 C4302 1.379 . S
C4302 H4286 0.931 . S
C4302 C4296 1.383 . S
C4302 C4301 1.379 . S
H4303 C4297 0.959 . S
H4304 C4297 0.961 . S
H4305 C4297 0.960 . S
H4306 C4298 0.930 . S
H4307 C4299 0.929 . S
H4308 C4316 0.929 . S
H4309 C4318 0.930 . S
H4310 C4320 0.930 . S
H4311 C4323 0.929 . S
H4312 C4326 0.930 . S
H4313 C4328 0.960 . S
H4314 C4328 0.960 . S
H4315 C4328 0.960 . S
C4316 H4308 0.929 . S
C4316 C4317 1.377 . S
C4316 C4318 1.384 . S
C4317 C4316 1.377 . S
C4317 C4323 1.390 . S
C4318 H4309 0.930 . S
C4318 C4316 1.384 . S
C4318 C4319 1.372 . S
C4319 C4318 1.372 . S
C4319 C4320 1.400 . S
C4319 C4324 1.490 . S
C4320 H4310 0.930 . S
C4320 C4319 1.400 . S
C4320 C4323 1.386 . S
H4321 C4337 0.930 . S
H4322 C4338 0.931 . S
C4323 H4311 0.929 . S
C4323 C4317 1.390 . S
C4323 C4320 1.386 . S
C4324 C4319 1.490 . S
C4324 C4326 1.395 . S
C4324 C4327 1.403 . S
H4325 C4331 0.930 . S
C4326 H4312 0.930 . S
C4326 C4324 1.395 . S
C4326 C4329 1.403 . S
C4327 C4324 1.403 . S
C4327 C4328 1.524 . S
C4327 C4331 1.400 . S
C4328 H4313 0.960 . S
C4328 H4314 0.960 . S
C4328 H4315 0.960 . S
C4328 C4327 1.524 . S
C4329 C4326 1.403 . S
C4329 C4330 1.392 . S
C4329 C4333 1.495 . S
C4330 C4329 1.392 . S
C4330 C4331 1.385 . S
C4330 C4332 1.478 . S
C4331 H4325 0.930 . S
C4331 C4327 1.400 . S
C4331 C4330 1.385 . S
C4332 C4330 1.478 . S
C4332 C4334 1.381 . S
C4332 C4338 1.383 . S
C4333 C4329 1.495 . S
C4333 H4339 0.959 . S
C4333 H4340 0.961 . S
C4333 H4341 0.960 . S
C4334 C4332 1.381 . S
C4334 C4335 1.394 . S
C4334 H4342 0.930 . S
C4335 C4334 1.394 . S
C4335 C4336 1.383 . S
C4335 H4343 0.929 . S
C4336 C4335 1.383 . S
C4336 C4337 1.377 . S
C4337 H4321 0.930 . S
C4337 C4336 1.377 . S
C4337 C4338 1.379 . S
C4338 H4322 0.931 . S
C4338 C4332 1.383 . S
C4338 C4337 1.379 . S
H4339 C4333 0.959 . S
H4340 C4333 0.961 . S
H4341 C4333 0.960 . S
H4342 C4334 0.930 . S
H4343 C4335 0.929 . S
H4344 C4352 0.929 . S
H4345 C4354 0.930 . S
H4346 C4356 0.930 . S
H4347 C4359 0.929 . S
H4348 C4362 0.930 . S
H4349 C4364 0.960 . S
H4350 C4364 0.960 . S
H4351 C4364 0.960 . S
C4352 H4344 0.929 . S
C4352 C4353 1.377 . S
C4352 C4354 1.384 . S
C4353 C4352 1.377 . S
C4353 C4359 1.390 . S
C4354 H4345 0.930 . S
C4354 C4352 1.384 . S
C4354 C4355 1.372 . S
C4355 C4354 1.372 . S
C4355 C4356 1.400 . S
C4355 C4360 1.490 . S
C4356 H4346 0.930 . S
C4356 C4355 1.400 . S
C4356 C4359 1.386 . S
H4357 C4373 0.930 . S
H4358 C4374 0.931 . S
C4359 H4347 0.929 . S
C4359 C4353 1.390 . S
C4359 C4356 1.386 . S
C4360 C4355 1.490 . S
C4360 C4362 1.395 . S
C4360 C4363 1.403 . S
H4361 C4367 0.930 . S
C4362 H4348 0.930 . S
C4362 C4360 1.395 . S
C4362 C4365 1.403 . S
C4363 C4360 1.403 . S
C4363 C4364 1.524 . S
C4363 C4367 1.400 . S
C4364 H4349 0.960 . S
C4364 H4350 0.960 . S
C4364 H4351 0.960 . S
C4364 C4363 1.524 . S
C4365 C4362 1.403 . S
C4365 C4366 1.392 . S
C4365 C4369 1.495 . S
C4366 C4365 1.392 . S
C4366 C4367 1.385 . S
C4366 C4368 1.478 . S
C4367 H4361 0.930 . S
C4367 C4363 1.400 . S
C4367 C4366 1.385 . S
C4368 C4366 1.478 . S
C4368 C4370 1.381 . S
C4368 C4374 1.383 . S
C4369 C4365 1.495 . S
C4369 H4375 0.959 . S
C4369 H4376 0.961 . S
C4369 H4377 0.960 . S
C4370 C4368 1.381 . S
C4370 C4371 1.394 . S
C4370 H4378 0.930 . S
C4371 C4370 1.394 . S
C4371 C4372 1.383 . S
C4371 H4379 0.929 . S
C4372 C4371 1.383 . S
C4372 C4373 1.377 . S
C4373 H4357 0.930 . S
C4373 C4372 1.377 . S
C4373 C4374 1.379 . S
C4374 H4358 0.931 . S
C4374 C4368 1.383 . S
C4374 C4373 1.379 . S
H4375 C4369 0.959 . S
H4376 C4369 0.961 . S
H4377 C4369 0.960 . S
H4378 C4370 0.930 . S
H4379 C4371 0.929 . S
H4380 C4388 0.929 . S
H4381 C4390 0.930 . S
H4382 C4392 0.930 . S
H4383 C4395 0.929 . S
H4384 C4398 0.930 . S
H4385 C4400 0.960 . S
H4386 C4400 0.960 . S
H4387 C4400 0.960 . S
C4388 H4380 0.929 . S
C4388 C4389 1.377 . S
C4388 C4390 1.384 . S
C4389 C4388 1.377 . S
C4389 C4395 1.390 . S
C4390 H4381 0.930 . S
C4390 C4388 1.384 . S
C4390 C4391 1.372 . S
C4391 C4390 1.372 . S
C4391 C4392 1.400 . S
C4391 C4396 1.490 . S
C4392 H4382 0.930 . S
C4392 C4391 1.400 . S
C4392 C4395 1.386 . S
H4393 C4409 0.930 . S
H4394 C4410 0.931 . S
C4395 H4383 0.929 . S
C4395 C4389 1.390 . S
C4395 C4392 1.386 . S
C4396 C4391 1.490 . S
C4396 C4398 1.395 . S
C4396 C4399 1.403 . S
H4397 C4403 0.930 . S
C4398 H4384 0.930 . S
C4398 C4396 1.395 . S
C4398 C4401 1.403 . S
C4399 C4396 1.403 . S
C4399 C4400 1.524 . S
C4399 C4403 1.400 . S
C4400 H4385 0.960 . S
C4400 H4386 0.960 . S
C4400 H4387 0.960 . S
C4400 C4399 1.524 . S
C4401 C4398 1.403 . S
C4401 C4402 1.392 . S
C4401 C4405 1.495 . S
C4402 C4401 1.392 . S
C4402 C4403 1.385 . S
C4402 C4404 1.478 . S
C4403 H4397 0.930 . S
C4403 C4399 1.400 . S
C4403 C4402 1.385 . S
C4404 C4402 1.478 . S
C4404 C4406 1.381 . S
C4404 C4410 1.383 . S
C4405 C4401 1.495 . S
C4405 H4411 0.959 . S
C4405 H4412 0.961 . S
C4405 H4413 0.960 . S
C4406 C4404 1.381 . S
C4406 C4407 1.394 . S
C4406 H4414 0.930 . S
C4407 C4406 1.394 . S
C4407 C4408 1.383 . S
C4407 H4415 0.929 . S
C4408 C4407 1.383 . S
C4408 C4409 1.377 . S
C4409 H4393 0.930 . S
C4409 C4408 1.377 . S
C4409 C4410 1.379 . S
C4410 H4394 0.931 . S
C4410 C4404 1.383 . S
C4410 C4409 1.379 . S
H4411 C4405 0.959 . S
H4412 C4405 0.961 . S
H4413 C4405 0.960 . S
H4414 C4406 0.930 . S
H4415 C4407 0.929 . S
H4416 C4424 0.929 . S
H4417 C4426 0.930 . S
H4418 C4428 0.930 . S
H4419 C4431 0.929 . S
H4420 C4434 0.930 . S
H4421 C4436 0.960 . S
H4422 C4436 0.960 . S
H4423 C4436 0.960 . S
C4424 H4416 0.929 . S
C4424 C4425 1.377 . S
C4424 C4426 1.384 . S
C4425 C4424 1.377 . S
C4425 C4431 1.390 . S
C4426 H4417 0.930 . S
C4426 C4424 1.384 . S
C4426 C4427 1.372 . S
C4427 C4426 1.372 . S
C4427 C4428 1.400 . S
C4427 C4432 1.490 . S
C4428 H4418 0.930 . S
C4428 C4427 1.400 . S
C4428 C4431 1.386 . S
H4429 C4445 0.930 . S
H4430 C4446 0.931 . S
C4431 H4419 0.929 . S
C4431 C4425 1.390 . S
C4431 C4428 1.386 . S
C4432 C4427 1.490 . S
C4432 C4434 1.395 . S
C4432 C4435 1.403 . S
H4433 C4439 0.930 . S
C4434 H4420 0.930 . S
C4434 C4432 1.395 . S
C4434 C4437 1.403 . S
C4435 C4432 1.403 . S
C4435 C4436 1.524 . S
C4435 C4439 1.400 . S
C4436 H4421 0.960 . S
C4436 H4422 0.960 . S
C4436 H4423 0.960 . S
C4436 C4435 1.524 . S
C4437 C4434 1.403 . S
C4437 C4438 1.392 . S
C4437 C4441 1.495 . S
C4438 C4437 1.392 . S
C4438 C4439 1.385 . S
C4438 C4440 1.478 . S
C4439 H4433 0.930 . S
C4439 C4435 1.400 . S
C4439 C4438 1.385 . S
C4440 C4438 1.478 . S
C4440 C4442 1.381 . S
C4440 C4446 1.383 . S
C4441 C4437 1.495 . S
C4441 H4447 0.959 . S
C4441 H4448 0.961 . S
C4441 H4449 0.960 . S
C4442 C4440 1.381 . S
C4442 C4443 1.394 . S
C4442 H4450 0.930 . S
C4443 C4442 1.394 . S
C4443 C4444 1.383 . S
C4443 H4451 0.929 . S
C4444 C4443 1.383 . S
C4444 C4445 1.377 . S
C4445 H4429 0.930 . S
C4445 C4444 1.377 . S
C4445 C4446 1.379 . S
C4446 H4430 0.931 . S
C4446 C4440 1.383 . S
C4446 C4445 1.379 . S
H4447 C4441 0.959 . S
H4448 C4441 0.961 . S
H4449 C4441 0.960 . S
H4450 C4442 0.930 . S
H4451 C4443 0.929 . S
H4452 C4460 0.929 . S
H4453 C4462 0.930 . S
H4454 C4464 0.930 . S
H4455 C4467 0.929 . S
H4456 C4470 0.930 . S
H4457 C4472 0.960 . S
H4458 C4472 0.960 . S
H4459 C4472 0.960 . S
C4460 H4452 0.929 . S
C4460 C4461 1.377 . S
C4460 C4462 1.384 . S
C4461 C4460 1.377 . S
C4461 C4467 1.390 . S
C4462 H4453 0.930 . S
C4462 C4460 1.384 . S
C4462 C4463 1.372 . S
C4463 C4462 1.372 . S
C4463 C4464 1.400 . S
C4463 C4468 1.490 . S
C4464 H4454 0.930 . S
C4464 C4463 1.400 . S
C4464 C4467 1.386 . S
H4465 C4481 0.930 . S
H4466 C4482 0.931 . S
C4467 H4455 0.929 . S
C4467 C4461 1.390 . S
C4467 C4464 1.386 . S
C4468 C4463 1.490 . S
C4468 C4470 1.395 . S
C4468 C4471 1.403 . S
H4469 C4475 0.930 . S
C4470 H4456 0.930 . S
C4470 C4468 1.395 . S
C4470 C4473 1.403 . S
C4471 C4468 1.403 . S
C4471 C4472 1.524 . S
C4471 C4475 1.400 . S
C4472 H4457 0.960 . S
C4472 H4458 0.960 . S
C4472 H4459 0.960 . S
C4472 C4471 1.524 . S
C4473 C4470 1.403 . S
C4473 C4474 1.392 . S
C4473 C4477 1.495 . S
C4474 C4473 1.392 . S
C4474 C4475 1.385 . S
C4474 C4476 1.478 . S
C4475 H4469 0.930 . S
C4475 C4471 1.400 . S
C4475 C4474 1.385 . S
C4476 C4474 1.478 . S
C4476 C4478 1.381 . S
C4476 C4482 1.383 . S
C4477 C4473 1.495 . S
C4477 H4483 0.959 . S
C4477 H4484 0.961 . S
C4477 H4485 0.960 . S
C4478 C4476 1.381 . S
C4478 C4479 1.394 . S
C4478 H4486 0.930 . S
C4479 C4478 1.394 . S
C4479 C4480 1.383 . S
C4479 H4487 0.929 . S
C4480 C4479 1.383 . S
C4480 C4481 1.377 . S
C4481 H4465 0.930 . S
C4481 C4480 1.377 . S
C4481 C4482 1.379 . S
C4482 H4466 0.931 . S
C4482 C4476 1.383 . S
C4482 C4481 1.379 . S
H4483 C4477 0.959 . S
H4484 C4477 0.961 . S
H4485 C4477 0.960 . S
H4486 C4478 0.930 . S
H4487 C4479 0.929 . S
H4488 C4496 0.929 . S
H4489 C4498 0.930 . S
H4490 C4500 0.930 . S
H4491 C4503 0.929 . S
H4492 C4506 0.930 . S
H4493 C4508 0.960 . S
H4494 C4508 0.960 . S
H4495 C4508 0.960 . S
C4496 H4488 0.929 . S
C4496 C4497 1.377 . S
C4496 C4498 1.384 . S
C4497 C4496 1.377 . S
C4497 C4503 1.390 . S
C4498 H4489 0.930 . S
C4498 C4496 1.384 . S
C4498 C4499 1.372 . S
C4499 C4498 1.372 . S
C4499 C4500 1.400 . S
C4499 C4504 1.490 . S
C4500 H4490 0.930 . S
C4500 C4499 1.400 . S
C4500 C4503 1.386 . S
H4501 C4517 0.930 . S
H4502 C4518 0.931 . S
C4503 H4491 0.929 . S
C4503 C4497 1.390 . S
C4503 C4500 1.386 . S
C4504 C4499 1.490 . S
C4504 C4506 1.395 . S
C4504 C4507 1.403 . S
H4505 C4511 0.930 . S
C4506 H4492 0.930 . S
C4506 C4504 1.395 . S
C4506 C4509 1.403 . S
C4507 C4504 1.403 . S
C4507 C4508 1.524 . S
C4507 C4511 1.400 . S
C4508 H4493 0.960 . S
C4508 H4494 0.960 . S
C4508 H4495 0.960 . S
C4508 C4507 1.524 . S
C4509 C4506 1.403 . S
C4509 C4510 1.392 . S
C4509 C4513 1.495 . S
C4510 C4509 1.392 . S
C4510 C4511 1.385 . S
C4510 C4512 1.478 . S
C4511 H4505 0.930 . S
C4511 C4507 1.400 . S
C4511 C4510 1.385 . S
C4512 C4510 1.478 . S
C4512 C4514 1.381 . S
C4512 C4518 1.383 . S
C4513 C4509 1.495 . S
C4513 H4519 0.959 . S
C4513 H4520 0.961 . S
C4513 H4521 0.960 . S
C4514 C4512 1.381 . S
C4514 C4515 1.394 . S
C4514 H4522 0.930 . S
C4515 C4514 1.394 . S
C4515 C4516 1.383 . S
C4515 H4523 0.929 . S
C4516 C4515 1.383 . S
C4516 C4517 1.377 . S
C4517 H4501 0.930 . S
C4517 C4516 1.377 . S
C4517 C4518 1.379 . S
C4518 H4502 0.931 . S
C4518 C4512 1.383 . S
C4518 C4517 1.379 . S
H4519 C4513 0.959 . S
H4520 C4513 0.961 . S
H4521 C4513 0.960 . S
H4522 C4514 0.930 . S
H4523 C4515 0.929 . S
H4524 C4532 0.929 . S
H4525 C4534 0.930 . S
H4526 C4536 0.930 . S
H4527 C4539 0.929 . S
H4528 C4542 0.930 . S
H4529 C4544 0.960 . S
H4530 C4544 0.960 . S
H4531 C4544 0.960 . S
C4532 H4524 0.929 . S
C4532 C4533 1.377 . S
C4532 C4534 1.384 . S
C4533 C4532 1.377 . S
C4533 C4539 1.390 . S
C4534 H4525 0.930 . S
C4534 C4532 1.384 . S
C4534 C4535 1.372 . S
C4535 C4534 1.372 . S
C4535 C4536 1.400 . S
C4535 C4540 1.490 . S
C4536 H4526 0.930 . S
C4536 C4535 1.400 . S
C4536 C4539 1.386 . S
H4537 C4553 0.930 . S
H4538 C4554 0.931 . S
C4539 H4527 0.929 . S
C4539 C4533 1.390 . S
C4539 C4536 1.386 . S
C4540 C4535 1.490 . S
C4540 C4542 1.395 . S
C4540 C4543 1.403 . S
H4541 C4547 0.930 . S
C4542 H4528 0.930 . S
C4542 C4540 1.395 . S
C4542 C4545 1.403 . S
C4543 C4540 1.403 . S
C4543 C4544 1.524 . S
C4543 C4547 1.400 . S
C4544 H4529 0.960 . S
C4544 H4530 0.960 . S
C4544 H4531 0.960 . S
C4544 C4543 1.524 . S
C4545 C4542 1.403 . S
C4545 C4546 1.392 . S
C4545 C4549 1.495 . S
C4546 C4545 1.392 . S
C4546 C4547 1.385 . S
C4546 C4548 1.478 . S
C4547 H4541 0.930 . S
C4547 C4543 1.400 . S
C4547 C4546 1.385 . S
C4548 C4546 1.478 . S
C4548 C4550 1.381 . S
C4548 C4554 1.383 . S
C4549 C4545 1.495 . S
C4549 H4555 0.959 . S
C4549 H4556 0.961 . S
C4549 H4557 0.960 . S
C4550 C4548 1.381 . S
C4550 C4551 1.394 . S
C4550 H4558 0.930 . S
C4551 C4550 1.394 . S
C4551 C4552 1.383 . S
C4551 H4559 0.929 . S
C4552 C4551 1.383 . S
C4552 C4553 1.377 . S
C4553 H4537 0.930 . S
C4553 C4552 1.377 . S
C4553 C4554 1.379 . S
C4554 H4538 0.931 . S
C4554 C4548 1.383 . S
C4554 C4553 1.379 . S
H4555 C4549 0.959 . S
H4556 C4549 0.961 . S
H4557 C4549 0.960 . S
H4558 C4550 0.930 . S
H4559 C4551 0.929 . S
H4560 C4568 0.929 . S
H4561 C4570 0.930 . S
H4562 C4572 0.930 . S
H4563 C4575 0.929 . S
H4564 C4578 0.930 . S
H4565 C4580 0.960 . S
H4566 C4580 0.960 . S
H4567 C4580 0.960 . S
C4568 H4560 0.929 . S
C4568 C4569 1.377 . S
C4568 C4570 1.384 . S
C4569 C4568 1.377 . S
C4569 C4575 1.390 . S
C4570 H4561 0.930 . S
C4570 C4568 1.384 . S
C4570 C4571 1.372 . S
C4571 C4570 1.372 . S
C4571 C4572 1.400 . S
C4571 C4576 1.490 . S
C4572 H4562 0.930 . S
C4572 C4571 1.400 . S
C4572 C4575 1.386 . S
H4573 C4589 0.930 . S
H4574 C4590 0.931 . S
C4575 H4563 0.929 . S
C4575 C4569 1.390 . S
C4575 C4572 1.386 . S
C4576 C4571 1.490 . S
C4576 C4578 1.395 . S
C4576 C4579 1.403 . S
H4577 C4583 0.930 . S
C4578 H4564 0.930 . S
C4578 C4576 1.395 . S
C4578 C4581 1.403 . S
C4579 C4576 1.403 . S
C4579 C4580 1.524 . S
C4579 C4583 1.400 . S
C4580 H4565 0.960 . S
C4580 H4566 0.960 . S
C4580 H4567 0.960 . S
C4580 C4579 1.524 . S
C4581 C4578 1.403 . S
C4581 C4582 1.392 . S
C4581 C4585 1.495 . S
C4582 C4581 1.392 . S
C4582 C4583 1.385 . S
C4582 C4584 1.478 . S
C4583 H4577 0.930 . S
C4583 C4579 1.400 . S
C4583 C4582 1.385 . S
C4584 C4582 1.478 . S
C4584 C4586 1.381 . S
C4584 C4590 1.383 . S
C4585 C4581 1.495 . S
C4585 H4591 0.959 . S
C4585 H4592 0.961 . S
C4585 H4593 0.960 . S
C4586 C4584 1.381 . S
C4586 C4587 1.394 . S
C4586 H4594 0.930 . S
C4587 C4586 1.394 . S
C4587 C4588 1.383 . S
C4587 H4595 0.929 . S
C4588 C4587 1.383 . S
C4588 C4589 1.377 . S
C4589 H4573 0.930 . S
C4589 C4588 1.377 . S
C4589 C4590 1.379 . S
C4590 H4574 0.931 . S
C4590 C4584 1.383 . S
C4590 C4589 1.379 . S
H4591 C4585 0.959 . S
H4592 C4585 0.961 . S
H4593 C4585 0.960 . S
H4594 C4586 0.930 . S
H4595 C4587 0.929 . S
H4596 C4604 0.929 . S
H4597 C4606 0.930 . S
H4598 C4608 0.930 . S
H4599 C4611 0.929 . S
H4600 C4614 0.930 . S
H4601 C4616 0.960 . S
H4602 C4616 0.960 . S
H4603 C4616 0.960 . S
C4604 H4596 0.929 . S
C4604 C4605 1.377 . S
C4604 C4606 1.384 . S
C4605 C4604 1.377 . S
C4605 C4611 1.390 . S
C4606 H4597 0.930 . S
C4606 C4604 1.384 . S
C4606 C4607 1.372 . S
C4607 C4606 1.372 . S
C4607 C4608 1.400 . S
C4607 C4612 1.490 . S
C4608 H4598 0.930 . S
C4608 C4607 1.400 . S
C4608 C4611 1.386 . S
H4609 C4625 0.930 . S
H4610 C4626 0.931 . S
C4611 H4599 0.929 . S
C4611 C4605 1.390 . S
C4611 C4608 1.386 . S
C4612 C4607 1.490 . S
C4612 C4614 1.395 . S
C4612 C4615 1.403 . S
H4613 C4619 0.930 . S
C4614 H4600 0.930 . S
C4614 C4612 1.395 . S
C4614 C4617 1.403 . S
C4615 C4612 1.403 . S
C4615 C4616 1.524 . S
C4615 C4619 1.400 . S
C4616 H4601 0.960 . S
C4616 H4602 0.960 . S
C4616 H4603 0.960 . S
C4616 C4615 1.524 . S
C4617 C4614 1.403 . S
C4617 C4618 1.392 . S
C4617 C4621 1.495 . S
C4618 C4617 1.392 . S
C4618 C4619 1.385 . S
C4618 C4620 1.478 . S
C4619 H4613 0.930 . S
C4619 C4615 1.400 . S
C4619 C4618 1.385 . S
C4620 C4618 1.478 . S
C4620 C4622 1.381 . S
C4620 C4626 1.383 . S
C4621 C4617 1.495 . S
C4621 H4627 0.959 . S
C4621 H4628 0.961 . S
C4621 H4629 0.960 . S
C4622 C4620 1.381 . S
C4622 C4623 1.394 . S
C4622 H4630 0.930 . S
C4623 C4622 1.394 . S
C4623 C4624 1.383 . S
C4623 H4631 0.929 . S
C4624 C4623 1.383 . S
C4624 C4625 1.377 . S
C4625 H4609 0.930 . S
C4625 C4624 1.377 . S
C4625 C4626 1.379 . S
C4626 H4610 0.931 . S
C4626 C4620 1.383 . S
C4626 C4625 1.379 . S
H4627 C4621 0.959 . S
H4628 C4621 0.961 . S
H4629 C4621 0.960 . S
H4630 C4622 0.930 . S
H4631 C4623 0.929 . S
H4632 C4640 0.929 . S
H4633 C4642 0.930 . S
H4634 C4644 0.930 . S
H4635 C4647 0.929 . S
H4636 C4650 0.930 . S
H4637 C4652 0.960 . S
H4638 C4652 0.960 . S
H4639 C4652 0.960 . S
C4640 H4632 0.929 . S
C4640 C4641 1.377 . S
C4640 C4642 1.384 . S
C4641 C4640 1.377 . S
C4641 C4647 1.390 . S
C4642 H4633 0.930 . S
C4642 C4640 1.384 . S
C4642 C4643 1.372 . S
C4643 C4642 1.372 . S
C4643 C4644 1.400 . S
C4643 C4648 1.490 . S
C4644 H4634 0.930 . S
C4644 C4643 1.400 . S
C4644 C4647 1.386 . S
H4645 C4661 0.930 . S
H4646 C4662 0.931 . S
C4647 H4635 0.929 . S
C4647 C4641 1.390 . S
C4647 C4644 1.386 . S
C4648 C4643 1.490 . S
C4648 C4650 1.395 . S
C4648 C4651 1.403 . S
H4649 C4655 0.930 . S
C4650 H4636 0.930 . S
C4650 C4648 1.395 . S
C4650 C4653 1.403 . S
C4651 C4648 1.403 . S
C4651 C4652 1.524 . S
C4651 C4655 1.400 . S
C4652 H4637 0.960 . S
C4652 H4638 0.960 . S
C4652 H4639 0.960 . S
C4652 C4651 1.524 . S
C4653 C4650 1.403 . S
C4653 C4654 1.392 . S
C4653 C4657 1.495 . S
C4654 C4653 1.392 . S
C4654 C4655 1.385 . S
C4654 C4656 1.478 . S
C4655 H4649 0.930 . S
C4655 C4651 1.400 . S
C4655 C4654 1.385 . S
C4656 C4654 1.478 . S
C4656 C4658 1.381 . S
C4656 C4662 1.383 . S
C4657 C4653 1.495 . S
C4657 H4663 0.959 . S
C4657 H4664 0.961 . S
C4657 H4665 0.960 . S
C4658 C4656 1.381 . S
C4658 C4659 1.394 . S
C4658 H4666 0.930 . S
C4659 C4658 1.394 . S
C4659 C4660 1.395 . S
C4659 H4667 0.929 1_655 S
C4660 C4659 1.395 . S
C4660 C4661 1.400 . S
C4661 H4645 0.930 . S
C4661 C4660 1.400 . S
C4661 C4662 1.379 . S
C4662 H4646 0.931 . S
C4662 C4656 1.383 . S
C4662 C4661 1.379 . S
H4663 C4657 0.959 . S
H4664 C4657 0.961 . S
H4665 C4657 0.960 . S
H4666 C4658 0.930 . S
H4667 C4659 0.929 1_455 S
H4668 C4676 0.929 . S
H4669 C4678 0.930 . S
H4670 C4680 0.930 . S
H4671 C4683 0.929 . S
H4672 C4686 0.930 . S
H4673 C4688 0.960 . S
H4674 C4688 0.960 . S
H4675 C4688 0.960 . S
C4676 H4668 0.929 . S
C4676 C4677 1.377 . S
C4676 C4678 1.384 . S
C4677 C4676 1.377 . S
C4677 C4683 1.390 . S
C4678 H4669 0.930 . S
C4678 C4676 1.384 . S
C4678 C4679 1.372 . S
C4679 C4678 1.372 . S
C4679 C4680 1.400 . S
C4679 C4684 1.490 . S
C4680 H4670 0.930 . S
C4680 C4679 1.400 . S
C4680 C4683 1.386 . S
H4681 C4697 0.930 . S
H4682 C4698 0.931 . S
C4683 H4671 0.929 . S
C4683 C4677 1.390 . S
C4683 C4680 1.386 . S
C4684 C4679 1.490 . S
C4684 C4686 1.395 . S
C4684 C4687 1.403 . S
H4685 C4691 0.930 . S
C4686 H4672 0.930 . S
C4686 C4684 1.395 . S
C4686 C4689 1.403 . S
C4687 C4684 1.403 . S
C4687 C4688 1.524 . S
C4687 C4691 1.400 . S
C4688 H4673 0.960 . S
C4688 H4674 0.960 . S
C4688 H4675 0.960 . S
C4688 C4687 1.524 . S
C4689 C4686 1.403 . S
C4689 C4690 1.392 . S
C4689 C4693 1.495 . S
C4690 C4689 1.392 . S
C4690 C4691 1.385 . S
C4690 C4692 1.478 . S
C4691 H4685 0.930 . S
C4691 C4687 1.400 . S
C4691 C4690 1.385 . S
C4692 C4690 1.478 . S
C4692 C4694 1.381 . S
C4692 C4698 1.383 . S
C4693 C4689 1.495 . S
C4693 H4699 0.959 . S
C4693 H4700 0.961 . S
C4693 H4701 0.960 . S
C4694 C4692 1.381 . S
C4694 C4695 1.394 . S
C4694 H4702 0.930 . S
C4695 C4694 1.394 . S
C4695 C4696 1.383 . S
C4695 H4703 0.929 . S
C4696 C4695 1.383 . S
C4696 C4697 1.377 . S
C4697 H4681 0.930 . S
C4697 C4696 1.377 . S
C4697 C4698 1.379 . S
C4698 H4682 0.931 . S
C4698 C4692 1.383 . S
C4698 C4697 1.379 . S
H4699 C4693 0.959 . S
H4700 C4693 0.961 . S
H4701 C4693 0.960 . S
H4702 C4694 0.930 . S
H4703 C4695 0.929 . S
H4704 C4712 0.929 . S
H4705 C4714 0.930 . S
H4706 C4716 0.930 . S
H4707 C4719 0.929 . S
H4708 C4722 0.930 . S
H4709 C4724 0.960 . S
H4710 C4724 0.960 . S
H4711 C4724 0.960 . S
C4712 H4704 0.929 . S
C4712 C4713 1.377 . S
C4712 C4714 1.384 . S
C4713 C4712 1.377 . S
C4713 C4719 1.390 . S
C4714 H4705 0.930 . S
C4714 C4712 1.384 . S
C4714 C4715 1.372 . S
C4715 C4714 1.372 . S
C4715 C4716 1.400 . S
C4715 C4720 1.490 . S
C4716 H4706 0.930 . S
C4716 C4715 1.400 . S
C4716 C4719 1.386 . S
H4717 C4733 0.930 . S
H4718 C4734 0.931 . S
C4719 H4707 0.929 . S
C4719 C4713 1.390 . S
C4719 C4716 1.386 . S
C4720 C4715 1.490 . S
C4720 C4722 1.395 . S
C4720 C4723 1.403 . S
H4721 C4727 0.930 . S
C4722 H4708 0.930 . S
C4722 C4720 1.395 . S
C4722 C4725 1.403 . S
C4723 C4720 1.403 . S
C4723 C4724 1.524 . S
C4723 C4727 1.400 . S
C4724 H4709 0.960 . S
C4724 H4710 0.960 . S
C4724 H4711 0.960 . S
C4724 C4723 1.524 . S
C4725 C4722 1.403 . S
C4725 C4726 1.392 . S
C4725 C4729 1.495 . S
C4726 C4725 1.392 . S
C4726 C4727 1.385 . S
C4726 C4728 1.478 . S
C4727 H4721 0.930 . S
C4727 C4723 1.400 . S
C4727 C4726 1.385 . S
C4728 C4726 1.478 . S
C4728 C4730 1.381 . S
C4728 C4734 1.383 . S
C4729 C4725 1.495 . S
C4729 H4735 0.959 . S
C4729 H4736 0.961 . S
C4729 H4737 0.960 . S
C4730 C4728 1.381 . S
C4730 C4731 1.394 . S
C4730 H4738 0.930 . S
C4731 C4730 1.394 . S
C4731 C4732 1.383 . S
C4731 H4739 0.929 . S
C4732 C4731 1.383 . S
C4732 C4733 1.377 . S
C4733 H4717 0.930 . S
C4733 C4732 1.377 . S
C4733 C4734 1.379 . S
C4734 H4718 0.931 . S
C4734 C4728 1.383 . S
C4734 C4733 1.379 . S
H4735 C4729 0.959 . S
H4736 C4729 0.961 . S
H4737 C4729 0.960 . S
H4738 C4730 0.930 . S
H4739 C4731 0.929 . S
H4740 C4748 0.929 . S
H4741 C4750 0.930 . S
H4742 C4752 0.930 . S
H4743 C4755 0.929 . S
H4744 C4758 0.930 . S
H4745 C4760 0.960 . S
H4746 C4760 0.960 . S
H4747 C4760 0.960 . S
C4748 H4740 0.929 . S
C4748 C4749 1.377 . S
C4748 C4750 1.384 . S
C4749 C4748 1.377 . S
C4749 C4755 1.390 . S
C4750 H4741 0.930 . S
C4750 C4748 1.384 . S
C4750 C4751 1.372 . S
C4751 C4750 1.372 . S
C4751 C4752 1.400 . S
C4751 C4756 1.490 . S
C4752 H4742 0.930 . S
C4752 C4751 1.400 . S
C4752 C4755 1.386 . S
H4753 C4769 0.930 . S
H4754 C4770 0.931 . S
C4755 H4743 0.929 . S
C4755 C4749 1.390 . S
C4755 C4752 1.386 . S
C4756 C4751 1.490 . S
C4756 C4758 1.395 . S
C4756 C4759 1.403 . S
H4757 C4763 0.930 . S
C4758 H4744 0.930 . S
C4758 C4756 1.395 . S
C4758 C4761 1.403 . S
C4759 C4756 1.403 . S
C4759 C4760 1.524 . S
C4759 C4763 1.400 . S
C4760 H4745 0.960 . S
C4760 H4746 0.960 . S
C4760 H4747 0.960 . S
C4760 C4759 1.524 . S
C4761 C4758 1.403 . S
C4761 C4762 1.392 . S
C4761 C4765 1.495 . S
C4762 C4761 1.392 . S
C4762 C4763 1.385 . S
C4762 C4764 1.478 . S
C4763 H4757 0.930 . S
C4763 C4759 1.400 . S
C4763 C4762 1.385 . S
C4764 C4762 1.478 . S
C4764 C4766 1.381 . S
C4764 C4770 1.383 . S
C4765 C4761 1.495 . S
C4765 H4771 0.959 . S
C4765 H4772 0.961 . S
C4765 H4773 0.960 . S
C4766 C4764 1.381 . S
C4766 C4767 1.394 . S
C4766 H4774 0.930 . S
C4767 C4766 1.394 . S
C4767 C4768 1.383 . S
C4767 H4775 0.929 . S
C4768 C4767 1.383 . S
C4768 C4769 1.377 . S
C4769 H4753 0.930 . S
C4769 C4768 1.377 . S
C4769 C4770 1.379 . S
C4770 H4754 0.931 . S
C4770 C4764 1.383 . S
C4770 C4769 1.379 . S
H4771 C4765 0.959 . S
H4772 C4765 0.961 . S
H4773 C4765 0.960 . S
H4774 C4766 0.930 . S
H4775 C4767 0.929 . S
H4776 C4784 0.929 . S
H4777 C4786 0.930 . S
H4778 C4788 0.930 . S
H4779 C4791 0.929 . S
H4780 C4794 0.930 . S
H4781 C4796 0.960 . S
H4782 C4796 0.960 . S
H4783 C4796 0.960 . S
C4784 H4776 0.929 . S
C4784 C4785 1.377 . S
C4784 C4786 1.384 . S
C4785 C4784 1.377 . S
C4785 C4791 1.390 . S
C4786 H4777 0.930 . S
C4786 C4784 1.384 . S
C4786 C4787 1.372 . S
C4787 C4786 1.372 . S
C4787 C4788 1.400 . S
C4787 C4792 1.490 . S
C4788 H4778 0.930 . S
C4788 C4787 1.400 . S
C4788 C4791 1.386 . S
H4789 C4805 0.930 . S
H4790 C4806 0.931 . S
C4791 H4779 0.929 . S
C4791 C4785 1.390 . S
C4791 C4788 1.386 . S
C4792 C4787 1.490 . S
C4792 C4794 1.395 . S
C4792 C4795 1.403 . S
H4793 C4799 0.930 . S
C4794 H4780 0.930 . S
C4794 C4792 1.395 . S
C4794 C4797 1.403 . S
C4795 C4792 1.403 . S
C4795 C4796 1.524 . S
C4795 C4799 1.400 . S
C4796 H4781 0.960 . S
C4796 H4782 0.960 . S
C4796 H4783 0.960 . S
C4796 C4795 1.524 . S
C4797 C4794 1.403 . S
C4797 C4798 1.392 . S
C4797 C4801 1.495 . S
C4798 C4797 1.392 . S
C4798 C4799 1.385 . S
C4798 C4800 1.478 . S
C4799 H4793 0.930 . S
C4799 C4795 1.400 . S
C4799 C4798 1.385 . S
C4800 C4798 1.478 . S
C4800 C4802 1.381 . S
C4800 C4806 1.383 . S
C4801 C4797 1.495 . S
C4801 H4807 0.959 . S
C4801 H4808 0.961 . S
C4801 H4809 0.960 . S
C4802 C4800 1.381 . S
C4802 C4803 1.394 . S
C4802 H4810 0.930 . S
C4803 C4802 1.394 . S
C4803 C4804 1.383 . S
C4803 H4811 0.929 . S
C4804 C4803 1.383 . S
C4804 C4805 1.377 . S
C4805 H4789 0.930 . S
C4805 C4804 1.377 . S
C4805 C4806 1.379 . S
C4806 H4790 0.931 . S
C4806 C4800 1.383 . S
C4806 C4805 1.379 . S
H4807 C4801 0.959 . S
H4808 C4801 0.961 . S
H4809 C4801 0.960 . S
H4810 C4802 0.930 . S
H4811 C4803 0.929 . S
H4812 C4820 0.929 . S
H4813 C4822 0.930 . S
H4814 C4824 0.930 . S
H4815 C4827 0.929 . S
H4816 C4830 0.930 . S
H4817 C4832 0.960 . S
H4818 C4832 0.960 . S
H4819 C4832 0.960 . S
C4820 H4812 0.929 . S
C4820 C4821 1.377 . S
C4820 C4822 1.384 . S
C4821 C4820 1.377 . S
C4821 C4827 1.390 . S
C4822 H4813 0.930 . S
C4822 C4820 1.384 . S
C4822 C4823 1.372 . S
C4823 C4822 1.372 . S
C4823 C4824 1.400 . S
C4823 C4828 1.490 . S
C4824 H4814 0.930 . S
C4824 C4823 1.400 . S
C4824 C4827 1.386 . S
H4825 C4841 0.930 . S
H4826 C4842 0.931 . S
C4827 H4815 0.929 . S
C4827 C4821 1.390 . S
C4827 C4824 1.386 . S
C4828 C4823 1.490 . S
C4828 C4830 1.395 . S
C4828 C4831 1.403 . S
H4829 C4835 0.930 . S
C4830 H4816 0.930 . S
C4830 C4828 1.395 . S
C4830 C4833 1.403 . S
C4831 C4828 1.403 . S
C4831 C4832 1.524 . S
C4831 C4835 1.400 . S
C4832 H4817 0.960 . S
C4832 H4818 0.960 . S
C4832 H4819 0.960 . S
C4832 C4831 1.524 . S
C4833 C4830 1.403 . S
C4833 C4834 1.392 . S
C4833 C4837 1.495 . S
C4834 C4833 1.392 . S
C4834 C4835 1.385 . S
C4834 C4836 1.478 . S
C4835 H4829 0.930 . S
C4835 C4831 1.400 . S
C4835 C4834 1.385 . S
C4836 C4834 1.478 . S
C4836 C4838 1.381 . S
C4836 C4842 1.383 . S
C4837 C4833 1.495 . S
C4837 H4843 0.959 . S
C4837 H4844 0.961 . S
C4837 H4845 0.960 . S
C4838 C4836 1.381 . S
C4838 C4839 1.394 . S
C4838 H4846 0.930 . S
C4839 C4838 1.394 . S
C4839 C4840 1.383 . S
C4839 H4847 0.929 . S
C4840 C4839 1.383 . S
C4840 C4841 1.377 . S
C4841 H4825 0.930 . S
C4841 C4840 1.377 . S
C4841 C4842 1.379 . S
C4842 H4826 0.931 . S
C4842 C4836 1.383 . S
C4842 C4841 1.379 . S
H4843 C4837 0.959 . S
H4844 C4837 0.961 . S
H4845 C4837 0.960 . S
H4846 C4838 0.930 . S
H4847 C4839 0.929 . S
H4848 C4856 0.929 . S
H4849 C4858 0.930 . S
H4850 C4860 0.930 . S
H4851 C4863 0.929 . S
H4852 C4866 0.930 . S
H4853 C4868 0.960 . S
H4854 C4868 0.960 . S
H4855 C4868 0.960 . S
C4856 H4848 0.929 . S
C4856 C4857 1.377 . S
C4856 C4858 1.384 . S
C4857 C4856 1.377 . S
C4857 C4863 1.390 . S
C4858 H4849 0.930 . S
C4858 C4856 1.384 . S
C4858 C4859 1.372 . S
C4859 C4858 1.372 . S
C4859 C4860 1.400 . S
C4859 C4864 1.490 . S
C4860 H4850 0.930 . S
C4860 C4859 1.400 . S
C4860 C4863 1.386 . S
H4861 C4877 0.930 . S
H4862 C4878 0.931 . S
C4863 H4851 0.929 . S
C4863 C4857 1.390 . S
C4863 C4860 1.386 . S
C4864 C4859 1.490 . S
C4864 C4866 1.395 . S
C4864 C4867 1.403 . S
H4865 C4871 0.930 . S
C4866 H4852 0.930 . S
C4866 C4864 1.395 . S
C4866 C4869 1.403 . S
C4867 C4864 1.403 . S
C4867 C4868 1.524 . S
C4867 C4871 1.400 . S
C4868 H4853 0.960 . S
C4868 H4854 0.960 . S
C4868 H4855 0.960 . S
C4868 C4867 1.524 . S
C4869 C4866 1.403 . S
C4869 C4870 1.392 . S
C4869 C4873 1.495 . S
C4870 C4869 1.392 . S
C4870 C4871 1.385 . S
C4870 C4872 1.478 . S
C4871 H4865 0.930 . S
C4871 C4867 1.400 . S
C4871 C4870 1.385 . S
C4872 C4870 1.478 . S
C4872 C4874 1.381 . S
C4872 C4878 1.383 . S
C4873 C4869 1.495 . S
C4873 H4879 0.959 . S
C4873 H4880 0.961 . S
C4873 H4881 0.960 . S
C4874 C4872 1.381 . S
C4874 C4875 1.394 . S
C4874 H4882 0.930 . S
C4875 C4874 1.394 . S
C4875 C4876 1.383 . S
C4875 H4883 0.929 . S
C4876 C4875 1.383 . S
C4876 C4877 1.377 . S
C4877 H4861 0.930 . S
C4877 C4876 1.377 . S
C4877 C4878 1.379 . S
C4878 H4862 0.931 . S
C4878 C4872 1.383 . S
C4878 C4877 1.379 . S
H4879 C4873 0.959 . S
H4880 C4873 0.961 . S
H4881 C4873 0.960 . S
H4882 C4874 0.930 . S
H4883 C4875 0.929 . S
H4884 C4892 0.929 . S
H4885 C4894 0.930 . S
H4886 C4896 0.930 . S
H4887 C4899 0.929 . S
H4888 C4902 0.930 . S
H4889 C4904 0.960 . S
H4890 C4904 0.960 . S
H4891 C4904 0.960 . S
C4892 H4884 0.929 . S
C4892 C4893 1.377 . S
C4892 C4894 1.384 . S
C4893 C4892 1.377 . S
C4893 C4899 1.390 . S
C4894 H4885 0.930 . S
C4894 C4892 1.384 . S
C4894 C4895 1.372 . S
C4895 C4894 1.372 . S
C4895 C4896 1.400 . S
C4895 C4900 1.490 . S
C4896 H4886 0.930 . S
C4896 C4895 1.400 . S
C4896 C4899 1.386 . S
H4897 C4913 0.930 . S
H4898 C4914 0.931 . S
C4899 H4887 0.929 . S
C4899 C4893 1.390 . S
C4899 C4896 1.386 . S
C4900 C4895 1.490 . S
C4900 C4902 1.395 . S
C4900 C4903 1.403 . S
H4901 C4907 0.930 . S
C4902 H4888 0.930 . S
C4902 C4900 1.395 . S
C4902 C4905 1.403 . S
C4903 C4900 1.403 . S
C4903 C4904 1.524 . S
C4903 C4907 1.400 . S
C4904 H4889 0.960 . S
C4904 H4890 0.960 . S
C4904 H4891 0.960 . S
C4904 C4903 1.524 . S
C4905 C4902 1.403 . S
C4905 C4906 1.392 . S
C4905 C4909 1.495 . S
C4906 C4905 1.392 . S
C4906 C4907 1.385 . S
C4906 C4908 1.478 . S
C4907 H4901 0.930 . S
C4907 C4903 1.400 . S
C4907 C4906 1.385 . S
C4908 C4906 1.478 . S
C4908 C4910 1.381 . S
C4908 C4914 1.383 . S
C4909 C4905 1.495 . S
C4909 H4915 0.959 . S
C4909 H4916 0.961 . S
C4909 H4917 0.960 . S
C4910 C4908 1.381 . S
C4910 C4911 1.394 . S
C4910 H4918 0.930 . S
C4911 C4910 1.394 . S
C4911 C4912 1.383 . S
C4911 H4919 0.913 1_565 S
C4912 C4911 1.383 . S
C4912 C4913 1.377 . S
C4913 H4897 0.930 . S
C4913 C4912 1.377 . S
C4913 C4914 1.379 . S
C4914 H4898 0.931 . S
C4914 C4908 1.383 . S
C4914 C4913 1.379 . S
H4915 C4909 0.959 . S
H4916 C4909 0.961 . S
H4917 C4909 0.960 . S
H4918 C4910 0.930 . S
H4919 C4911 0.913 1_545 S
H4920 C4928 0.929 . S
H4921 C4930 0.930 . S
H4922 C4932 0.930 . S
H4923 C4935 0.929 . S
H4924 C4938 0.930 . S
H4925 C4940 0.960 . S
H4926 C4940 0.960 . S
H4927 C4940 0.960 . S
C4928 H4920 0.929 . S
C4928 C4929 1.377 . S
C4928 C4930 1.384 . S
C4929 C4928 1.377 . S
C4929 C4935 1.390 . S
C4930 H4921 0.930 . S
C4930 C4928 1.384 . S
C4930 C4931 1.372 . S
C4931 C4930 1.372 . S
C4931 C4932 1.400 . S
C4931 C4936 1.490 . S
C4932 H4922 0.930 . S
C4932 C4931 1.400 . S
C4932 C4935 1.386 . S
H4933 C4949 0.930 . S
H4934 C4950 0.931 . S
C4935 H4923 0.929 . S
C4935 C4929 1.390 . S
C4935 C4932 1.386 . S
C4936 C4931 1.490 . S
C4936 C4938 1.395 . S
C4936 C4939 1.403 . S
H4937 C4943 0.930 . S
C4938 H4924 0.930 . S
C4938 C4936 1.395 . S
C4938 C4941 1.403 . S
C4939 C4936 1.403 . S
C4939 C4940 1.524 . S
C4939 C4943 1.400 . S
C4940 H4925 0.960 . S
C4940 H4926 0.960 . S
C4940 H4927 0.960 . S
C4940 C4939 1.524 . S
C4941 C4938 1.403 . S
C4941 C4942 1.392 . S
C4941 C4945 1.495 . S
C4942 C4941 1.392 . S
C4942 C4943 1.385 . S
C4942 C4944 1.478 . S
C4943 H4937 0.930 . S
C4943 C4939 1.400 . S
C4943 C4942 1.385 . S
C4944 C4942 1.478 . S
C4944 C4946 1.381 . S
C4944 C4950 1.383 . S
C4945 C4941 1.495 . S
C4945 H4951 0.959 . S
C4945 H4952 0.961 . S
C4945 H4953 0.960 . S
C4946 C4944 1.381 . S
C4946 C4947 1.394 . S
C4946 H4954 0.930 . S
C4947 C4946 1.394 . S
C4947 C4948 1.383 . S
C4947 H4955 0.929 . S
C4948 C4947 1.383 . S
C4948 C4949 1.377 . S
C4949 H4933 0.930 . S
C4949 C4948 1.377 . S
C4949 C4950 1.379 . S
C4950 H4934 0.931 . S
C4950 C4944 1.383 . S
C4950 C4949 1.379 . S
H4951 C4945 0.959 . S
H4952 C4945 0.961 . S
H4953 C4945 0.960 . S
H4954 C4946 0.930 . S
H4955 C4947 0.929 . S
H4956 C4964 0.929 . S
H4957 C4966 0.930 . S
H4958 C4968 0.930 . S
H4959 C4971 0.929 . S
H4960 C4974 0.930 . S
H4961 C4976 0.960 . S
H4962 C4976 0.960 . S
H4963 C4976 0.960 . S
C4964 H4956 0.929 . S
C4964 C4965 1.377 . S
C4964 C4966 1.384 . S
C4965 C4964 1.377 . S
C4965 C4971 1.390 . S
C4966 H4957 0.930 . S
C4966 C4964 1.384 . S
C4966 C4967 1.372 . S
C4967 C4966 1.372 . S
C4967 C4968 1.400 . S
C4967 C4972 1.490 . S
C4968 H4958 0.930 . S
C4968 C4967 1.400 . S
C4968 C4971 1.386 . S
H4969 C4985 0.930 1_556 S
H4970 C4986 0.931 . S
C4971 H4959 0.929 . S
C4971 C4965 1.390 . S
C4971 C4968 1.386 . S
C4972 C4967 1.490 . S
C4972 C4974 1.395 . S
C4972 C4975 1.403 . S
H4973 C4979 0.930 . S
C4974 H4960 0.930 . S
C4974 C4972 1.395 . S
C4974 C4977 1.403 . S
C4975 C4972 1.403 . S
C4975 C4976 1.524 . S
C4975 C4979 1.400 . S
C4976 H4961 0.960 . S
C4976 H4962 0.960 . S
C4976 H4963 0.960 . S
C4976 C4975 1.524 . S
C4977 C4974 1.403 . S
C4977 C4978 1.392 . S
C4977 C4981 1.495 . S
C4978 C4977 1.392 . S
C4978 C4979 1.385 . S
C4978 C4980 1.478 . S
C4979 H4973 0.930 . S
C4979 C4975 1.400 . S
C4979 C4978 1.385 . S
C4980 C4978 1.478 . S
C4980 C4982 1.381 . S
C4980 C4986 1.383 . S
C4981 C4977 1.495 . S
C4981 H4987 0.959 . S
C4981 H4988 0.961 . S
C4981 H4989 0.960 . S
C4982 C4980 1.381 . S
C4982 C4983 1.394 . S
C4982 H4990 0.930 . S
C4983 C4982 1.394 . S
C4983 C4984 1.383 . S
C4983 H4991 0.929 . S
C4984 C4983 1.383 . S
C4984 C4985 1.377 . S
C4985 H4969 0.930 1_554 S
C4985 C4984 1.377 . S
C4985 C4986 1.379 . S
C4986 H4970 0.931 . S
C4986 C4980 1.383 . S
C4986 C4985 1.379 . S
H4987 C4981 0.959 . S
H4988 C4981 0.961 . S
H4989 C4981 0.960 . S
H4990 C4982 0.930 . S
H4991 C4983 0.929 . S
H4992 C5000 0.929 . S
H4993 C5002 0.930 . S
H4994 C5004 0.930 . S
H4995 C5007 0.929 . S
H4996 C5010 0.930 . S
H4997 C5012 0.960 . S
H4998 C5012 0.960 . S
H4999 C5012 0.960 . S
C5000 H4992 0.929 . S
C5000 C5001 1.377 . S
C5000 C5002 1.384 . S
C5001 C5000 1.377 . S
C5001 C5007 1.390 . S
C5002 H4993 0.930 . S
C5002 C5000 1.384 . S
C5002 C5003 1.372 . S
C5003 C5002 1.372 . S
C5003 C5004 1.400 . S
C5003 C5008 1.490 . S
C5004 H4994 0.930 . S
C5004 C5003 1.400 . S
C5004 C5007 1.386 . S
H5005 C5021 0.930 . S
H5006 C5022 0.931 . S
C5007 H4995 0.929 . S
C5007 C5001 1.390 . S
C5007 C5004 1.386 . S
C5008 C5003 1.490 . S
C5008 C5010 1.395 . S
C5008 C5011 1.403 . S
H5009 C5015 0.930 . S
C5010 H4996 0.930 . S
C5010 C5008 1.395 . S
C5010 C5013 1.403 . S
C5011 C5008 1.403 . S
C5011 C5012 1.524 . S
C5011 C5015 1.400 . S
C5012 H4997 0.960 . S
C5012 H4998 0.960 . S
C5012 H4999 0.960 . S
C5012 C5011 1.524 . S
C5013 C5010 1.403 . S
C5013 C5014 1.392 . S
C5013 C5017 1.495 . S
C5014 C5013 1.392 . S
C5014 C5015 1.385 . S
C5014 C5016 1.478 . S
C5015 H5009 0.930 . S
C5015 C5011 1.400 . S
C5015 C5014 1.385 . S
C5016 C5014 1.478 . S
C5016 C5018 1.381 . S
C5016 C5022 1.383 . S
C5017 C5013 1.495 . S
C5017 H5023 0.959 . S
C5017 H5024 0.961 . S
C5017 H5025 0.960 . S
C5018 C5016 1.381 . S
C5018 C5019 1.394 . S
C5018 H5026 0.930 . S
C5019 C5018 1.394 . S
C5019 C5020 1.383 . S
C5019 H5027 0.929 . S
C5020 C5019 1.383 . S
C5020 C5021 1.377 . S
C5021 H5005 0.930 . S
C5021 C5020 1.377 . S
C5021 C5022 1.379 . S
C5022 H5006 0.931 . S
C5022 C5016 1.383 . S
C5022 C5021 1.379 . S
H5023 C5017 0.959 . S
H5024 C5017 0.961 . S
H5025 C5017 0.960 . S
H5026 C5018 0.930 . S
H5027 C5019 0.929 . S
H5028 C5036 0.929 . S
H5029 C5038 0.930 . S
H5030 C5040 0.930 . S
H5031 C5043 0.929 . S
H5032 C5046 0.930 . S
H5033 C5048 0.960 . S
H5034 C5048 0.960 . S
H5035 C5048 0.960 . S
C5036 H5028 0.929 . S
C5036 C5037 1.377 . S
C5036 C5038 1.384 . S
C5037 C5036 1.377 . S
C5037 C5043 1.390 . S
C5038 H5029 0.930 . S
C5038 C5036 1.384 . S
C5038 C5039 1.372 . S
C5039 C5038 1.372 . S
C5039 C5040 1.400 . S
C5039 C5044 1.490 . S
C5040 H5030 0.930 . S
C5040 C5039 1.400 . S
C5040 C5043 1.386 . S
H5041 C5057 0.930 . S
H5042 C5058 0.931 . S
C5043 H5031 0.929 . S
C5043 C5037 1.390 . S
C5043 C5040 1.386 . S
C5044 C5039 1.490 . S
C5044 C5046 1.395 . S
C5044 C5047 1.403 . S
H5045 C5051 0.930 . S
C5046 H5032 0.930 . S
C5046 C5044 1.395 . S
C5046 C5049 1.403 . S
C5047 C5044 1.403 . S
C5047 C5048 1.524 . S
C5047 C5051 1.400 . S
C5048 H5033 0.960 . S
C5048 H5034 0.960 . S
C5048 H5035 0.960 . S
C5048 C5047 1.524 . S
C5049 C5046 1.403 . S
C5049 C5050 1.392 . S
C5049 C5053 1.473 1_554 S
C5050 C5049 1.392 . S
C5050 C5051 1.385 . S
C5050 C5052 1.478 . S
C5051 H5045 0.930 . S
C5051 C5047 1.400 . S
C5051 C5050 1.385 . S
C5052 C5050 1.478 . S
C5052 C5054 1.381 . S
C5052 C5058 1.383 . S
C5053 C5049 1.473 1_556 S
C5053 H5059 0.975 . S
C5053 H5060 0.933 1_556 S
C5053 H5061 0.997 . S
C5054 C5052 1.381 . S
C5054 C5055 1.394 . S
C5054 H5062 0.930 1_554 S
C5055 C5054 1.394 . S
C5055 C5056 1.383 . S
C5055 H5063 0.929 1_554 S
C5056 C5055 1.383 . S
C5056 C5057 1.377 . S
C5057 H5041 0.930 . S
C5057 C5056 1.377 . S
C5057 C5058 1.379 . S
C5058 H5042 0.931 . S
C5058 C5052 1.383 . S
C5058 C5057 1.379 . S
H5059 C5053 0.975 . S
H5060 C5053 0.933 1_554 S
H5061 C5053 0.997 . S
H5062 C5054 0.930 1_556 S
H5063 C5055 0.929 1_556 S
H5064 C5072 0.929 . S
H5065 C5074 0.930 . S
H5066 C5076 0.930 . S
H5067 C5079 0.929 . S
H5068 C5082 0.930 . S
H5069 C5084 0.960 . S
H5070 C5084 0.960 . S
H5071 C5084 0.960 . S
C5072 H5064 0.929 . S
C5072 C5073 1.377 . S
C5072 C5074 1.384 . S
C5073 C5072 1.377 . S
C5073 C5079 1.390 . S
C5074 H5065 0.930 . S
C5074 C5072 1.384 . S
C5074 C5075 1.372 . S
C5075 C5074 1.372 . S
C5075 C5076 1.400 . S
C5075 C5080 1.490 . S
C5076 H5066 0.930 . S
C5076 C5075 1.400 . S
C5076 C5079 1.386 . S
H5077 C5093 0.930 . S
H5078 C5094 0.931 . S
C5079 H5067 0.929 . S
C5079 C5073 1.390 . S
C5079 C5076 1.386 . S
C5080 C5075 1.490 . S
C5080 C5082 1.395 . S
C5080 C5083 1.403 . S
H5081 C5087 0.930 . S
C5082 H5068 0.930 . S
C5082 C5080 1.395 . S
C5082 C5085 1.403 . S
C5083 C5080 1.403 . S
C5083 C5084 1.524 . S
C5083 C5087 1.400 . S
C5084 H5069 0.960 . S
C5084 H5070 0.960 . S
C5084 H5071 0.960 . S
C5084 C5083 1.524 . S
C5085 C5082 1.403 . S
C5085 C5086 1.392 . S
C5085 C5089 1.495 . S
C5086 C5085 1.392 . S
C5086 C5087 1.385 . S
C5086 C5088 1.478 . S
C5087 H5081 0.930 . S
C5087 C5083 1.400 . S
C5087 C5086 1.385 . S
C5088 C5086 1.478 . S
C5088 C5090 1.381 . S
C5088 C5094 1.383 . S
C5089 C5085 1.495 . S
C5089 H5095 0.959 . S
C5089 H5096 0.961 . S
C5089 H5097 0.960 . S
C5090 C5088 1.381 . S
C5090 C5091 1.394 . S
C5090 H5098 0.930 . S
C5091 C5090 1.394 . S
C5091 C5092 1.383 . S
C5091 H5099 0.929 . S
C5092 C5091 1.383 . S
C5092 C5093 1.377 . S
C5093 H5077 0.930 . S
C5093 C5092 1.377 . S
C5093 C5094 1.379 . S
C5094 H5078 0.931 . S
C5094 C5088 1.383 . S
C5094 C5093 1.379 . S
H5095 C5089 0.959 . S
H5096 C5089 0.961 . S
H5097 C5089 0.960 . S
H5098 C5090 0.930 . S
H5099 C5091 0.929 . S
H5100 C5108 0.929 . S
H5101 C5110 0.930 . S
H5102 C5112 0.930 . S
H5103 C5115 0.929 . S
H5104 C5118 0.930 . S
H5105 C5120 0.960 . S
H5106 C5120 0.960 . S
H5107 C5120 0.960 . S
C5108 H5100 0.929 . S
C5108 C5109 1.377 . S
C5108 C5110 1.384 . S
C5109 C5108 1.377 . S
C5109 C5115 1.390 . S
C5110 H5101 0.930 . S
C5110 C5108 1.384 . S
C5110 C5111 1.372 . S
C5111 C5110 1.372 . S
C5111 C5112 1.400 . S
C5111 C5116 1.490 . S
C5112 H5102 0.930 . S
C5112 C5111 1.400 . S
C5112 C5115 1.386 . S
H5113 C5129 0.930 . S
H5114 C5130 0.931 . S
C5115 H5103 0.929 . S
C5115 C5109 1.390 . S
C5115 C5112 1.386 . S
C5116 C5111 1.490 . S
C5116 C5118 1.395 . S
C5116 C5119 1.403 . S
H5117 C5123 0.930 . S
C5118 H5104 0.930 . S
C5118 C5116 1.395 . S
C5118 C5121 1.403 . S
C5119 C5116 1.403 . S
C5119 C5120 1.524 . S
C5119 C5123 1.400 . S
C5120 H5105 0.960 . S
C5120 H5106 0.960 . S
C5120 H5107 0.960 . S
C5120 C5119 1.524 . S
C5121 C5118 1.403 . S
C5121 C5122 1.392 . S
C5121 C5125 1.495 . S
C5122 C5121 1.392 . S
C5122 C5123 1.385 . S
C5122 C5124 1.478 . S
C5123 H5117 0.930 . S
C5123 C5119 1.400 . S
C5123 C5122 1.385 . S
C5124 C5122 1.478 . S
C5124 C5126 1.381 . S
C5124 C5130 1.383 . S
C5125 C5121 1.495 . S
C5125 H5131 0.959 . S
C5125 H5132 0.961 . S
C5125 H5133 0.960 . S
C5126 C5124 1.381 . S
C5126 C5127 1.394 . S
C5126 H5134 0.930 . S
C5127 C5126 1.394 . S
C5127 C5128 1.383 . S
C5127 H5135 0.929 . S
C5128 C5127 1.383 . S
C5128 C5129 1.377 . S
C5129 H5113 0.930 . S
C5129 C5128 1.377 . S
C5129 C5130 1.379 . S
C5130 H5114 0.931 . S
C5130 C5124 1.383 . S
C5130 C5129 1.379 . S
H5131 C5125 0.959 . S
H5132 C5125 0.961 . S
H5133 C5125 0.960 . S
H5134 C5126 0.930 . S
H5135 C5127 0.929 . S
C1689 C109 1.925 1_455 S
C1708 C392 1.941 . S
C1725 C65 1.833 . S
C1744 C494 1.818 . S
C1761 C75 1.807 . S
C1780 C560 1.802 . S
C1816 C646 1.487 . S
C1797 C84 1.598 . S
C1833 C25 1.570 . S
C1852 C730 1.485 . S
C1888 C812 1.738 . S
C1869 C28 1.741 . S
C1924 C914 1.835 . S
C1905 C47 1.847 . S
C1941 C9 1.933 . S
C1960 C980 1.949 . S
C1996 C410 1.612 . S
C1977 C233 1.648 . S
C2013 C249 0.838 . S
C2032 C478 0.874 . S
C2068 C578 1.127 . S
C2049 C275 1.121 . S
C2104 C644 1.612 . S
C2085 C173 1.626 . S
C2121 C224 1.657 . S
C2140 C728 1.657 . S
C2176 C830 1.126 . S
C2157 C243 1.122 . S
C2212 C898 0.895 . S
C2193 C266 0.885 . S
C2248 C998 1.461 . S
C2229 C179 1.498 . S
C2284 C394 0.856 1_565 S
C2265 C163 0.936 . S
C2301 C289 1.673 . S
C2320 C1082 1.630 . S
C2356 C1150 1.273 . S
C2337 C333 1.318 . S
C2392 C1232 0.738 . S
C2373 C308 0.738 . S
C2409 C123 0.898 . S
C2428 C982 0.919 . S
C2445 C126 1.405 . S
C2464 C562 1.333 . S
C2481 C327 1.703 . S
C2500 C1334 1.693 . S
C2536 C1400 0.877 . S
C2517 C299 0.871 . S
C2572 C403 1.964 . S
C2553 C67 1.972 . S
C2608 C1407 1.847 . S
C2589 C98 1.840 . S
C2625 C89 1.845 . S
C2644 C571 1.849 . S
C2661 C79 1.659 . S
C2680 C1329 1.520 . S
C2716 C741 1.470 . S
C2697 C11 1.604 . S
C2733 C51 1.778 . S
C2752 C1159 1.793 . S
C2788 C903 1.906 1_556 S
C2769 C33 1.908 . S
C2824 C1495 1.959 . S
C2805 C14 1.970 . S
C2860 C399 1.605 . S
C2841 C140 1.657 . S
C2896 C1413 0.880 . S
C2877 C319 0.868 . S
C2913 C112 1.134 . S
C2932 C567 1.116 . S
C2949 C285 1.644 . S
C2968 C1327 1.644 . S
C2985 C149 1.707 . S
C3004 C739 1.708 . S
C3040 C1155 1.182 . S
C3021 C313 1.173 . S
C3057 C121 0.964 . S
C3076 C909 0.937 . S
C3093 C291 1.552 . S
C3112 C1491 1.512 . S
C3129 C182 0.933 . S
C3148 C405 0.847 . S
C3165 C168 1.679 . S
C3184 C1071 1.687 . S
C3201 C263 1.366 . S
C3220 C825 1.293 . S
C3237 C247 0.801 . S
C3256 C1243 0.799 . S
C3292 C1497 0.857 . S
C3273 C277 0.909 1_565 S
C3309 C219 1.450 . S
C3328 C573 1.378 . S
C3364 C651 1.741 . S
C3345 C257 1.754 . S
C3400 C487 0.884 . S
C3381 C201 0.887 . S
C3417 C81 1.943 . S
C3436 C1568 1.950 . S
C3472 C1418 1.820 . S
C3453 C93 1.833 . S
C3489 C103 1.804 . S
C3508 C1652 1.804 . S
C3525 C56 1.599 . S
C3544 C1318 1.479 . S
C3561 C53 1.574 . S
C3580 C1066 1.435 . S
C3616 C1148 1.739 . S
C3597 C0 1.739 1_655 S
C3652 C1250 1.837 . S
C3633 C19 1.851 . S
C3688 C1484 1.951 . S
C3669 C37 1.933 . S
C3724 C1586 1.633 . S
C3705 C261 1.651 . S
C3741 C193 0.840 1_556 S
C3760 C1402 0.816 . S
C3796 C1670 1.081 . S
C3777 C205 1.119 . S
C3832 C1316 1.604 . S
C3813 C215 1.615 . S
C3868 C1064 1.664 . S
C3849 C252 1.659 . S
C3885 C187 1.119 . S
C3904 C1166 1.129 . S
C3940 C1234 0.879 . S
C3921 C196 0.886 . S
C3957 C221 1.501 . S
C3976 C1502 1.489 . S
C4012 C1570 0.869 . S
C3993 C317 0.935 . S
C4029 C135 1.673 . S
C4048 C746 1.632 . S
C4084 C814 1.286 . S
C4065 C151 1.355 . S
C4120 C896 0.730 . S
C4101 C154 0.735 . S
C4156 C1486 0.919 . S
C4137 C305 0.898 . S
C4173 C280 1.404 . S
C4192 C1654 1.331 . S
C4228 C662 1.673 . S
C4209 C145 1.706 . S
C4264 C476 0.876 . S
C4245 C117 0.871 . S
C4281 C95 1.973 . S
C4300 C1579 1.973 . S
C4336 C483 1.861 . S
C4317 C70 1.841 . S
C4353 C61 1.843 . S
C4372 C1663 1.841 . S
C4389 C107 1.657 . S
C4408 C657 1.504 . S
C4425 C39 1.607 . S
C4444 C1077 1.513 . S
C4480 C823 1.785 . S
C4461 C23 1.774 . S
C4497 C5 1.908 . S
C4516 C1239 1.901 . S
C4533 C42 1.970 . S
C4552 C991 1.959 . S
C4588 C1575 1.632 . S
C4569 C322 1.655 . S
C4605 C165 0.866 . S
C4624 C489 0.859 . S
C4660 C1659 1.109 1_655 S
C4641 C294 1.131 . S
C4677 C131 1.643 . S
C4696 C655 1.641 . S
C4713 C331 1.709 . S
C4732 C1075 1.712 . S
C4768 C819 1.164 . S
C4749 C159 1.183 . S
C4785 C303 0.960 . S
C4804 C1245 0.856 . S
C4840 C987 1.537 . S
C4821 C137 1.551 . S
C4876 C1581 0.938 . S
C4857 C238 0.935 . S
C4912 C735 1.686 1_565 S
C4893 C210 1.680 . S
C4929 C235 1.366 . S
C4948 C1161 1.287 . S
C4984 C907 0.802 . S
C4965 C191 0.801 . S
C5001 C207 0.906 . S
C5020 C993 0.826 . S
C5037 C177 1.450 . S
C5056 C1665 1.330 . S
C5092 C1323 1.746 . S
C5073 C229 1.755 . S
C5128 C1411 0.894 . S
C5109 C271 0.888 . S
