# Generated by pormake.
# Topology pth, (4,4)-cn, num edge types: 1
# Building blocks:
#     Node 0, Type 0, BuildingBlock: GALJAG_clean_sbu_0, # of connection points: 4
#     Node 1, Type 0, BuildingBlock: GALJAG_clean_sbu_0, # of connection points: 4
#     Node 2, Type 0, BuildingBlock: GALJAG_clean_sbu_0, # of connection points: 4
#     Node 3, Type 1, BuildingBlock: KOZSID_clean_sbu_0, # of connection points: 4
#     Node 4, Type 1, BuildingBlock: KOZSID_clean_sbu_0, # of connection points: 4
#     Node 5, Type 1, BuildingBlock: KOZSID_clean_sbu_0, # of connection points: 4
#     Edge 6, Type (0, 1), BuildingBlock: MIFKUJ_clean_linker_0, # of connection points: 2
#     Edge 7, Type (0, 1), BuildingBlock: MIFKUJ_clean_linker_0, # of connection points: 2
#     Edge 8, Type (0, 1), BuildingBlock: MIFKUJ_clean_linker_0, # of connection points: 2
#     Edge 9, Type (0, 1), BuildingBlock: MIFKUJ_clean_linker_0, # of connection points: 2
#     Edge 10, Type (0, 1), BuildingBlock: MIFKUJ_clean_linker_0, # of connection points: 2
#     Edge 11, Type (0, 1), BuildingBlock: MIFKUJ_clean_linker_0, # of connection points: 2
#     Edge 12, Type (0, 1), BuildingBlock: MIFKUJ_clean_linker_0, # of connection points: 2
#     Edge 13, Type (0, 1), BuildingBlock: MIFKUJ_clean_linker_0, # of connection points: 2
#     Edge 14, Type (0, 1), BuildingBlock: MIFKUJ_clean_linker_0, # of connection points: 2
#     Edge 15, Type (0, 1), BuildingBlock: MIFKUJ_clean_linker_0, # of connection points: 2
#     Edge 16, Type (0, 1), BuildingBlock: MIFKUJ_clean_linker_0, # of connection points: 2
#     Edge 17, Type (0, 1), BuildingBlock: MIFKUJ_clean_linker_0, # of connection points: 2
# Relax obj value: 0.002
# Max RMSD: 0.041
# Mean RMSD: 0.024
data_MOF--net-pth--node1-GALJAG_clean_sbu_0--node2-KOZSID_clean_sbu_0--edge1-MIFKUJ_clean_linker_0
_symmetry_space_group_name_H-M    P1
_symmetry_Int_Tables_number       1
_symmetry_cell_setting            triclinic
loop_
_symmetry_equiv_pos_as_xyz
'x, y, z'
_cell_length_a     34.390605
_cell_length_b     34.392589
_cell_length_c     74.837383
_cell_angle_alpha  88.068839
_cell_angle_beta   88.052145
_cell_angle_gamma 119.97102
loop_
_atom_site_label
_atom_site_type_symbol
_atom_site_fract_x
_atom_site_fract_y
_atom_site_fract_z
_atom_type_partial_charge
In0 In 0.05059 0.04058 0.03315 0.0
O1 O 0.01612 0.0798 0.04219 0.0
O2 O 0.07126 0.08671 0.05643 0.0
C3 C 0.98858 0.98224 0.01179 0.0
C4 C 0.11807 0.10142 0.01029 0.0
C5 C 0.05358 0.97859 0.05539 0.0
O6 O 0.97923 0.00242 0.0235 0.0
O7 O 0.02921 0.99198 0.01073 0.0
O8 O 0.08657 0.00557 0.04497 0.0
O9 O 0.01951 0.98321 0.05468 0.0
C10 C 0.04191 0.09804 0.05467 0.0
O11 O 0.12474 0.08129 0.0232 0.0
O12 O 0.07748 0.09037 0.00878 0.0
In13 In 0.03729 0.05776 0.36663 0.0
O14 O 0.06937 0.13297 0.35852 0.0
O15 O 0.02081 0.08624 0.34196 0.0
C16 C 0.10157 0.06153 0.38751 0.0
C17 C 0.96819 0.048 0.38853 0.0
C18 C 0.03386 0.99377 0.34565 0.0
O19 O 0.10927 0.09244 0.37588 0.0
O20 O 0.06156 0.02926 0.38867 0.0
O21 O 0.00395 0.98541 0.35785 0.0
O22 O 0.06496 0.0343 0.34396 0.0
C23 C 0.04719 0.1269 0.34477 0.0
O24 O 0.96207 0.02723 0.37437 0.0
O25 O 0.00886 0.07286 0.39173 0.0
In26 In 0.05306 0.03982 0.7 0.0
O27 O 0.01059 0.96472 0.70836 0.0
O28 O 0.00446 0.01095 0.72466 0.0
C29 C 0.11558 0.03649 0.67818 0.0
C30 C 0.99397 0.04722 0.67918 0.0
C31 C 0.11071 0.10455 0.7207 0.0
O32 O 0.09651 0.00947 0.69166 0.0
O33 O 0.10275 0.06466 0.67563 0.0
O34 O 0.09185 0.11286 0.70812 0.0
O35 O 0.10006 0.06383 0.72287 0.0
C36 C 0.99187 0.97043 0.72203 0.0
O37 O 0.01167 0.07254 0.69188 0.0
O38 O 0.00661 0.01897 0.67692 0.0
C39 C 0.08699 0.62836 0.17169 0.0
C40 C 0.1282 0.66162 0.164 0.0
C41 C 0.16038 0.65679 0.17227 0.0
C42 C 0.13709 0.62089 0.1844 0.0
N43 N 0.0919 0.60193 0.18419 0.0
Co44 Co 0.04538 0.5497 0.19991 0.0
N45 N 0.09287 0.54506 0.21317 0.0
C46 C 0.13797 0.57123 0.21024 0.0
C47 C 0.16212 0.55874 0.22077 0.0
C48 C 0.13068 0.52208 0.23095 0.0
C49 C 0.08888 0.51444 0.22611 0.0
N50 N 0.99885 0.4976 0.21569 0.0
C51 C 0.00376 0.47191 0.22857 0.0
C52 C 0.96251 0.439 0.23635 0.0
C53 C 0.93035 0.44332 0.22782 0.0
C54 C 0.95365 0.47865 0.21544 0.0
N55 N 0.99791 0.55428 0.18659 0.0
C56 C 0.95281 0.52757 0.18924 0.0
C57 C 0.92876 0.5401 0.17864 0.0
C58 C 0.96029 0.57741 0.16877 0.0
C59 C 0.00198 0.58542 0.17389 0.0
N60 N 0.04522 0.50696 0.18257 0.0
C61 C 0.04475 0.44298 0.15974 0.0
C62 C 0.00463 0.43921 0.16658 0.0
C63 C 0.00563 0.47124 0.17784 0.0
C64 C 0.08512 0.47993 0.16422 0.0
C65 C 0.08458 0.5113 0.17549 0.0
N66 N 0.04545 0.59233 0.21722 0.0
C67 C 0.00508 0.61963 0.23509 0.0
C68 C 0.04526 0.65594 0.24011 0.0
C69 C 0.08558 0.65927 0.23373 0.0
C70 C 0.08491 0.6274 0.22241 0.0
C71 C 0.00594 0.58847 0.22383 0.0
H72 H 0.11675 0.63207 0.2179 0.0
H73 H 0.97415 0.56194 0.22047 0.0
H74 H 0.97389 0.46594 0.18274 0.0
H75 H 0.11649 0.53851 0.17839 0.0
C76 C 0.15667 0.60567 0.19676 0.0
C77 C 0.04434 0.62443 0.16712 0.0
C78 C 0.04647 0.47644 0.23352 0.0
C79 C 0.93406 0.49339 0.20285 0.0
H80 H 0.13437 0.68729 0.15371 0.0
H81 H 0.19647 0.67763 0.17001 0.0
H82 H 0.19829 0.57369 0.22068 0.0
H83 H 0.13793 0.50262 0.24051 0.0
H84 H 0.95629 0.41397 0.24693 0.0
H85 H 0.89425 0.42261 0.23011 0.0
H86 H 0.89259 0.52493 0.17859 0.0
H87 H 0.95324 0.59719 0.15929 0.0
H88 H 0.97243 0.41099 0.16364 0.0
H89 H 0.11713 0.4848 0.15902 0.0
H90 H 0.97288 0.61566 0.23944 0.0
H91 H 0.11767 0.68629 0.23745 0.0
C92 C 0.46735 0.00763 0.56073 0.0
C93 C 0.43197 0.96561 0.56673 0.0
C94 C 0.4373 0.93462 0.55775 0.0
C95 C 0.47508 0.95926 0.54668 0.0
N96 N 0.49475 0.00418 0.54818 0.0
Co97 Co 0.54728 0.05227 0.53302 0.0
N98 N 0.55329 0.0065 0.51906 0.0
C99 C 0.52868 0.96129 0.52185 0.0
C100 C 0.54248 0.93846 0.51113 0.0
C101 C 0.57853 0.97102 0.501 0.0
C102 C 0.58439 0.01203 0.50606 0.0
N103 N 0.5985 0.10039 0.51736 0.0
C104 C 0.62407 0.09703 0.50399 0.0
C105 C 0.6557 0.13895 0.4963 0.0
C106 C 0.65052 0.16997 0.50538 0.0
C107 C 0.61596 0.14533 0.51794 0.0
N108 N 0.5425 0.09799 0.54743 0.0
C109 C 0.57004 0.14311 0.54586 0.0
C110 C 0.559 0.16579 0.55785 0.0
C111 C 0.52191 0.13329 0.56755 0.0
C112 C 0.51217 0.09251 0.56076 0.0
N113 N 0.59026 0.05154 0.55 0.0
C114 C 0.65403 0.05036 0.57242 0.0
C115 C 0.66139 0.09039 0.56393 0.0
C116 C 0.62923 0.0903 0.55302 0.0
C117 C 0.61373 0.01101 0.56986 0.0
C118 C 0.58264 0.01229 0.55861 0.0
N119 N 0.50443 0.05311 0.51606 0.0
C120 C 0.47354 0.09346 0.50052 0.0
C121 C 0.4408 0.05404 0.49341 0.0
C122 C 0.44102 0.01421 0.49763 0.0
C123 C 0.47284 0.0145 0.50888 0.0
C124 C 0.5048 0.09229 0.51162 0.0
H125 H 0.47101 0.98301 0.51166 0.0
H126 H 0.52859 0.1235 0.51663 0.0
H127 H 0.63698 0.12206 0.54707 0.0
H128 H 0.55299 0.98101 0.55693 0.0
C129 C 0.49257 0.94124 0.53455 0.0
C130 C 0.47262 0.04981 0.56686 0.0
C131 C 0.62094 0.05525 0.49859 0.0
C132 C 0.60257 0.16338 0.53169 0.0
H133 H 0.40453 0.95792 0.57633 0.0
H134 H 0.41565 0.89846 0.55888 0.0
H135 H 0.52838 0.90245 0.51087 0.0
H136 H 0.59858 0.96508 0.49121 0.0
H137 H 0.68065 0.14634 0.48553 0.0
H138 H 0.6706 0.2062 0.50346 0.0
H139 H 0.575 0.20178 0.55896 0.0
H140 H 0.50342 0.13905 0.57812 0.0
H141 H 0.69184 0.12186 0.56576 0.0
H142 H 0.60667 0.97913 0.57614 0.0
H143 H 0.47461 0.12515 0.49788 0.0
H144 H 0.41688 0.98285 0.49224 0.0
C145 C 0.63338 0.57649 0.83905 0.0
C146 C 0.66804 0.56938 0.83325 0.0
C147 C 0.66195 0.53193 0.84263 0.0
C148 C 0.62438 0.51851 0.85369 0.0
N149 N 0.60567 0.54483 0.85185 0.0
Co150 Co 0.55276 0.53933 0.86638 0.0
N151 N 0.54574 0.48587 0.881 0.0
C152 C 0.57135 0.46634 0.87933 0.0
C153 C 0.55679 0.42843 0.89031 0.0
C154 C 0.51927 0.42296 0.89943 0.0
C155 C 0.51329 0.45831 0.89359 0.0
N156 N 0.5001 0.53406 0.88099 0.0
C157 C 0.47273 0.50271 0.89393 0.0
C158 C 0.4401 0.51166 0.90071 0.0
C159 C 0.44629 0.5493 0.89141 0.0
C160 C 0.48238 0.56136 0.87962 0.0
N161 N 0.55946 0.59249 0.85168 0.0
C162 C 0.53323 0.61141 0.85305 0.0
C163 C 0.546 0.64744 0.84115 0.0
C164 C 0.58296 0.65226 0.83174 0.0
C165 C 0.59082 0.61893 0.83858 0.0
N166 N 0.51103 0.49816 0.84911 0.0
C167 C 0.44865 0.43679 0.82619 0.0
C168 C 0.44472 0.47279 0.83214 0.0
C169 C 0.47594 0.50274 0.84349 0.0
C170 C 0.48489 0.43255 0.83163 0.0
C171 C 0.51554 0.46346 0.84292 0.0
N172 N 0.59453 0.58063 0.88365 0.0
C173 C 0.62203 0.64787 0.90019 0.0
C174 C 0.65738 0.64292 0.90623 0.0
C175 C 0.66011 0.60562 0.90109 0.0
C176 C 0.62852 0.57507 0.88997 0.0
C177 C 0.5913 0.61665 0.88905 0.0
H178 H 0.63256 0.54748 0.88654 0.0
H179 H 0.56562 0.62284 0.88479 0.0
H180 H 0.47054 0.52896 0.84772 0.0
H181 H 0.54238 0.45837 0.84656 0.0
C182 C 0.60723 0.48274 0.86654 0.0
C183 C 0.62939 0.61484 0.83259 0.0
C184 C 0.4752 0.46311 0.89977 0.0
C185 C 0.49845 0.5962 0.86633 0.0
H186 H 0.6956 0.58964 0.82356 0.0
H187 H 0.68314 0.51698 0.84184 0.0
H188 H 0.57091 0.40653 0.89115 0.0
H189 H 0.49818 0.39527 0.90895 0.0
H190 H 0.41394 0.49242 0.91107 0.0
H191 H 0.42615 0.56528 0.89275 0.0
H192 H 0.53085 0.66833 0.83975 0.0
H193 H 0.60244 0.67794 0.82125 0.0
H194 H 0.41699 0.47731 0.82844 0.0
H195 H 0.48977 0.40558 0.82716 0.0
H196 H 0.61858 0.67637 0.90365 0.0
H197 H 0.68642 0.59982 0.90568 0.0
H198 H 0.98473 0.13155 0.05241 0.0
H199 H 0.98344 0.18933 0.0703 0.0
H200 H 0.09271 0.19813 0.09995 0.0
H201 H 0.0938 0.14014 0.08229 0.0
H202 H 0.02995 0.19866 0.12199 0.0
H203 H 0.11165 0.2769 0.06701 0.0
H204 H 0.12431 0.29161 0.03425 0.0
H205 H 0.0096 0.30964 0.03249 0.0
H206 H 0.99588 0.29442 0.06523 0.0
H207 H 0.09973 0.40672 0.16092 0.0
H208 H 0.09778 0.34789 0.14289 0.0
H209 H 0.98638 0.34034 0.11526 0.0
H210 H 0.98892 0.40012 0.13292 0.0
H211 H 0.04824 0.33842 0.09222 0.0
H212 H 0.96878 0.26202 0.14801 0.0
H213 H 0.95882 0.24893 0.18087 0.0
H214 H 0.07247 0.22895 0.18116 0.0
H215 H 0.08351 0.24256 0.14831 0.0
C216 C 0.00829 0.14565 0.06281 0.0
C217 C 0.03945 0.13141 0.06591 0.0
C218 C 0.00768 0.17881 0.07296 0.0
C219 C 0.03834 0.19846 0.08634 0.0
C220 C 0.06877 0.18351 0.0897 0.0
C221 C 0.06941 0.15043 0.07957 0.0
C222 C 0.03918 0.23495 0.09671 0.0
C223 C 0.03442 0.22942 0.11548 0.0
C224 C 0.04425 0.27478 0.08823 0.0
C225 C 0.05245 0.28403 0.06854 0.0
C226 C 0.0889 0.28363 0.05962 0.0
C227 C 0.09631 0.29213 0.04106 0.0
C228 C 0.0677 0.30143 0.03129 0.0
C229 C 0.03169 0.30236 0.04007 0.0
C230 C 0.02409 0.29383 0.05863 0.0
C231 C 0.07515 0.39296 0.15086 0.0
C232 C 0.04439 0.40807 0.1484 0.0
C233 C 0.0738 0.359 0.14068 0.0
C234 C 0.04153 0.33928 0.12789 0.0
C235 C 0.01141 0.35492 0.12512 0.0
C236 C 0.01269 0.38884 0.13532 0.0
C237 C 0.03907 0.30215 0.11748 0.0
C238 C 0.04355 0.30757 0.09871 0.0
C239 C 0.03405 0.26234 0.12597 0.0
C240 C 0.02721 0.25372 0.14571 0.0
C241 C 0.99184 0.25515 0.15509 0.0
C242 C 0.98598 0.24759 0.17371 0.0
C243 C 0.01506 0.23823 0.1831 0.0
C244 C 0.05 0.23626 0.17387 0.0
C245 C 0.05605 0.24385 0.15525 0.0
H246 H 0.01048 0.23241 0.19752 0.0
H247 H 0.0735 0.30801 0.01692 0.0
H248 H 0.87972 0.01139 0.38115 0.0
H249 H 0.81952 0.01161 0.39961 0.0
H250 H 0.91259 0.07872 0.4403 0.0
H251 H 0.97294 0.07899 0.42188 0.0
H252 H 0.82892 0.00754 0.45408 0.0
H253 H 0.8881 0.13893 0.4136 0.0
H254 H 0.91025 0.17989 0.38398 0.0
H255 H 0.77445 0.10237 0.3683 0.0
H256 H 0.75163 0.06045 0.39776 0.0
H257 H 0.70721 0.08275 0.50617 0.0
H258 H 0.76569 0.08129 0.48695 0.0
H259 H 0.67312 0.0285 0.44488 0.0
H260 H 0.61504 0.03111 0.46402 0.0
H261 H 0.7549 0.09009 0.43131 0.0
H262 H 0.69437 0.9599 0.47163 0.0
H263 H 0.67105 0.91829 0.5011 0.0
H264 H 0.80727 0.99087 0.51677 0.0
H265 H 0.8313 0.03351 0.48748 0.0
C266 C 0.88723 0.02588 0.39409 0.0
C267 C 0.93103 0.04529 0.40006 0.0
C268 C 0.85289 0.02613 0.40458 0.0
C269 C 0.86172 0.04548 0.42126 0.0
C270 C 0.90511 0.06365 0.42747 0.0
C271 C 0.93954 0.06388 0.41691 0.0
C272 C 0.82608 0.04782 0.43208 0.0
C273 C 0.81303 0.02595 0.4492 0.0
C274 C 0.80465 0.07096 0.4255 0.0
C275 C 0.81827 0.09621 0.40781 0.0
C276 C 0.86305 0.13033 0.40378 0.0
C277 C 0.87571 0.15378 0.38703 0.0
C278 C 0.84381 0.14365 0.37425 0.0
C279 C 0.79914 0.11013 0.37821 0.0
C280 C 0.78632 0.08653 0.39493 0.0
C281 C 0.69971 0.07124 0.49275 0.0
C282 C 0.65686 0.05669 0.48651 0.0
C283 C 0.73289 0.07015 0.48183 0.0
C284 C 0.72354 0.05401 0.46458 0.0
C285 C 0.68104 0.04088 0.45815 0.0
C286 C 0.64792 0.04222 0.46905 0.0
C287 C 0.75779 0.04998 0.45341 0.0
C288 C 0.77059 0.07149 0.4362 0.0
C289 C 0.77877 0.02622 0.45987 0.0
C290 C 0.76457 1.00019 0.47741 0.0
C291 C 0.71931 0.96721 0.4814 0.0
C292 C 0.70597 0.94342 0.49807 0.0
C293 C 0.73765 0.95199 0.51082 0.0
C294 C 0.78276 0.9843 0.50689 0.0
C295 C 0.79627 0.00827 0.49025 0.0
H296 H 0.72725 0.93355 0.52372 0.0
H297 H 0.85367 0.16185 0.36129 0.0
H298 H 0.94732 0.88093 0.71577 0.0
H299 H 0.88619 0.8194 0.73449 0.0
H300 H 0.89616 0.91344 0.77328 0.0
H301 H 0.95692 0.9751 0.75458 0.0
H302 H 0.88864 0.83332 0.78856 0.0
H303 H 0.81566 0.88022 0.74592 0.0
H304 H 0.8001 0.89718 0.7156 0.0
H305 H 0.75537 0.76137 0.70217 0.0
H306 H 0.77131 0.74378 0.73235 0.0
H307 H 0.68581 0.7012 0.84057 0.0
H308 H 0.7474 0.76114 0.8215 0.0
H309 H 0.7176 0.66955 0.77922 0.0
H310 H 0.65451 0.61033 0.79806 0.0
H311 H 0.73666 0.74729 0.76526 0.0
H312 H 0.80721 0.69825 0.80726 0.0
H313 H 0.82337 0.67949 0.83717 0.0
H314 H 0.87439 0.8159 0.85127 0.0
H315 H 0.8579 0.83535 0.82152 0.0
C316 C 0.93665 0.88841 0.72834 0.0
C317 C 0.95677 0.93281 0.7337 0.0
C318 C 0.90168 0.8533 0.73898 0.0
C319 C 0.88651 0.86197 0.7552 0.0
C320 C 0.90739 0.90607 0.76081 0.0
C321 C 0.94198 0.94124 0.75009 0.0
C322 C 0.84815 0.82528 0.76616 0.0
C323 C 0.85527 0.81475 0.78357 0.0
C324 C 0.80499 0.80036 0.75943 0.0
C325 C 0.79513 0.81083 0.74133 0.0
C326 C 0.80287 0.85408 0.73645 0.0
C327 C 0.79391 0.86379 0.7193 0.0
C328 C 0.77687 0.83041 0.70695 0.0
C329 C 0.76864 0.78721 0.71174 0.0
C330 C 0.7776 0.77735 0.72887 0.0
C331 C 0.69242 0.69417 0.82715 0.0
C332 C 0.66603 0.65127 0.82077 0.0
C333 C 0.72775 0.72821 0.81631 0.0
C334 C 0.73791 0.71965 0.79904 0.0
C335 C 0.71068 0.67696 0.79252 0.0
C336 C 0.67487 0.64312 0.80327 0.0
C337 C 0.77692 0.75515 0.7878 0.0
C338 C 0.77 0.76556 0.7703 0.0
C339 C 0.82044 0.77959 0.79439 0.0
C340 C 0.83095 0.76816 0.81221 0.0
C341 C 0.82163 0.72419 0.81677 0.0
C342 C 0.83087 0.71344 0.83369 0.0
C343 C 0.8498 0.74646 0.84612 0.0
C344 C 0.85968 0.79035 0.84163 0.0
C345 C 0.85043 0.80127 0.82474 0.0
H346 H 0.8569 0.73806 0.85922 0.0
H347 H 0.76995 0.83799 0.69368 0.0
H348 H 0.98236 0.90741 0.07366 0.0
H349 H 0.98298 0.84926 0.09309 0.0
H350 H 0.1271 0.91371 0.08401 0.0
H351 H 0.12632 0.97106 0.06395 0.0
H352 H 0.09428 0.82864 0.08303 0.0
H353 H 0.0748 0.9212 0.12413 0.0
H354 H 0.04065 0.96277 0.13725 0.0
H355 H 0.91517 0.83952 0.1472 0.0
H356 H 0.9484 0.79727 0.13391 0.0
H357 H 0.07033 0.70886 0.17693 0.0
H358 H 0.07477 0.77156 0.15853 0.0
H359 H 0.02262 0.68515 0.1145 0.0
H360 H 0.01958 0.62297 0.13279 0.0
H361 H 0.01558 0.78593 0.14336 0.0
H362 H 0.06884 0.74513 0.07507 0.0
H363 H 0.11149 0.70986 0.06386 0.0
H364 H 0.18508 0.74162 0.11153 0.0
H365 H 0.14345 0.77771 0.12288 0.0
C366 C 0.0142 0.90924 0.07584 0.0
C367 C 0.05433 0.94389 0.06736 0.0
C368 C 0.01456 0.87608 0.08703 0.0
C369 C 0.05518 0.87741 0.09031 0.0
C370 C 0.09531 0.91192 0.08174 0.0
C371 C 0.09488 0.94476 0.07032 0.0
C372 C 0.05563 0.84241 0.10244 0.0
C373 C 0.07709 0.81939 0.09622 0.0
C374 C 0.03412 0.83085 0.11986 0.0
C375 C 0.014 0.85613 0.12788 0.0
C376 C 0.03984 0.903 0.129 0.0
C377 C 0.02065 0.92668 0.13648 0.0
C378 C 0.97574 0.90382 0.14302 0.0
C379 C 0.94994 0.8572 0.14211 0.0
C380 C 0.96895 0.83336 0.13462 0.0
C381 C 0.05978 0.70349 0.16332 0.0
C382 C 0.0445 0.66139 0.1562 0.0
C383 C 0.06218 0.73914 0.15285 0.0
C384 C 0.04946 0.73326 0.13506 0.0
C385 C 0.03332 0.69075 0.12808 0.0
C386 C 0.03124 0.65521 0.13852 0.0
C387 C 0.0534 0.77164 0.12378 0.0
C388 C 0.03276 0.79525 0.13016 0.0
C389 C 0.07689 0.7847 0.10676 0.0
C390 C 0.10266 0.76372 0.0999 0.0
C391 C 0.09428 0.74477 0.08312 0.0
C392 C 0.11826 0.72462 0.07675 0.0
C393 C 0.15087 0.72338 0.087 0.0
C394 C 0.15971 0.74247 0.10362 0.0
C395 C 0.1359 0.76275 0.11004 0.0
H396 H 0.16935 0.7077 0.08205 0.0
H397 H 0.96096 0.92221 0.14881 0.0
H398 H 0.18979 0.12762 0.388 0.0
H399 H 0.24785 0.12753 0.40605 0.0
H400 H 0.15082 0.9968 0.42996 0.0
H401 H 0.09258 0.99705 0.41221 0.0
H402 H 0.20162 0.05018 0.45481 0.0
H403 H 0.2283 0.00948 0.39663 0.0
H404 H 0.24258 0.01914 0.36382 0.0
H405 H 0.3646 0.14401 0.3692 0.0
H406 H 0.35072 0.13537 0.40205 0.0
H407 H 0.35136 0.99043 0.49292 0.0
H408 H 0.29469 0.99232 0.47472 0.0
H409 H 0.39469 0.12135 0.45043 0.0
H410 H 0.45205 0.11871 0.46793 0.0
H411 H 0.34295 0.07036 0.42585 0.0
H412 H 0.3172 0.11075 0.48402 0.0
H413 H 0.30303 0.10145 0.51684 0.0
H414 H 0.17948 0.97799 0.51159 0.0
H415 H 0.19323 0.98623 0.47874 0.0
C416 C 0.18085 0.09894 0.39714 0.0
C417 C 0.13666 0.06229 0.39865 0.0
C418 C 0.21408 0.09883 0.40739 0.0
C419 C 0.20384 0.06189 0.41921 0.0
C420 C 0.15955 0.02563 0.42093 0.0
C421 C 0.12631 0.02579 0.41074 0.0
C422 C 0.2392 0.06079 0.42975 0.0
C423 C 0.23229 0.05406 0.44846 0.0
C424 C 0.27971 0.06689 0.42152 0.0
C425 C 0.28824 0.07199 0.40178 0.0
C426 C 0.25801 0.03915 0.39081 0.0
C427 C 0.26606 0.04442 0.3722 0.0
C428 C 0.30441 0.08222 0.36442 0.0
C429 C 0.33487 0.11477 0.37524 0.0
C430 C 0.32695 0.10969 0.39385 0.0
C431 C 0.36152 0.01894 0.48353 0.0
C432 C 0.40635 0.05452 0.48199 0.0
C433 C 0.32889 0.02023 0.47328 0.0
C434 C 0.3402 0.05736 0.46142 0.0
C435 C 0.38506 0.09248 0.45957 0.0
C436 C 0.41776 0.0911 0.46973 0.0
C437 C 0.30534 0.05963 0.45093 0.0
C438 C 0.31233 0.06657 0.43222 0.0
C439 C 0.26493 0.05381 0.45917 0.0
C440 C 0.25647 0.04891 0.47892 0.0
C441 C 0.28717 0.08145 0.48987 0.0
C442 C 0.27919 0.07639 0.50848 0.0
C443 C 0.24043 0.0391 0.5163 0.0
C444 C 0.20951 0.00684 0.50552 0.0
C445 C 0.21737 0.0117 0.4869 0.0
H446 H 0.23431 0.03525 0.53071 0.0
H447 H 0.31058 0.08624 0.35002 0.0
H448 H 0.14489 0.19559 0.71699 0.0
H449 H 0.20157 0.25335 0.73481 0.0
H450 H 0.20778 0.15046 0.76706 0.0
H451 H 0.15107 0.09269 0.74942 0.0
H452 H 0.20608 0.21307 0.7876 0.0
H453 H 0.28836 0.21151 0.73468 0.0
H454 H 0.30569 0.21567 0.70219 0.0
H455 H 0.32617 0.3495 0.69758 0.0
H456 H 0.30832 0.34588 0.73002 0.0
H457 H 0.41051 0.34522 0.8288 0.0
H458 H 0.35279 0.29031 0.81057 0.0
H459 H 0.35111 0.39773 0.77979 0.0
H460 H 0.40966 0.45295 0.79771 0.0
H461 H 0.34952 0.33458 0.7584 0.0
H462 H 0.26917 0.33691 0.8115 0.0
H463 H 0.25264 0.33297 0.84404 0.0
H464 H 0.22886 0.1979 0.84838 0.0
H465 H 0.24593 0.20128 0.81589 0.0
C466 C 0.15822 0.18532 0.72793 0.0
C467 C 0.14365 0.13963 0.73177 0.0
C468 C 0.19071 0.21833 0.73805 0.0
C469 C 0.20924 0.20624 0.75216 0.0
C470 C 0.19399 0.16057 0.75624 0.0
C471 C 0.16167 0.12761 0.7461 0.0
C472 C 0.24492 0.24106 0.76259 0.0
C473 C 0.23764 0.23935 0.78124 0.0
C474 C 0.28571 0.27594 0.75425 0.0
C475 C 0.29651 0.27823 0.73474 0.0
C476 C 0.29618 0.24168 0.72671 0.0
C477 C 0.30617 0.24397 0.70831 0.0
C478 C 0.3169 0.28278 0.69782 0.0
C479 C 0.31777 0.31943 0.70572 0.0
C480 C 0.30775 0.31729 0.72411 0.0
C481 C 0.39826 0.35721 0.81802 0.0
C482 C 0.41461 0.40347 0.81474 0.0
C483 C 0.36497 0.32576 0.80772 0.0
C484 C 0.34723 0.33989 0.79396 0.0
C485 C 0.36417 0.38607 0.79039 0.0
C486 C 0.39738 0.41755 0.80072 0.0
C487 C 0.31075 0.30645 0.78342 0.0
C488 C 0.31788 0.30841 0.76475 0.0
C489 C 0.26982 0.27179 0.79175 0.0
C490 C 0.25922 0.2695 0.81128 0.0
C491 C 0.26075 0.30648 0.81941 0.0
C492 C 0.25124 0.30434 0.83785 0.0
C493 C 0.2398 0.26525 0.84828 0.0
C494 C 0.23778 0.22819 0.84029 0.0
C495 C 0.24732 0.23018 0.82186 0.0
H496 H 0.23238 0.26366 0.86255 0.0
H497 H 0.32464 0.28449 0.68357 0.0
H498 H 0.957 1.00015 0.64989 0.0
H499 H 0.90007 0.00194 0.63182 0.0
H500 H 0.8962 0.09929 0.66562 0.0
H501 H 0.95414 0.09844 0.68352 0.0
H502 H 0.81676 0.97931 0.63917 0.0
H503 H 0.87033 0.1678 0.64122 0.0
H504 H 0.93931 0.24111 0.64341 0.0
H505 H 0.01857 0.18834 0.62073 0.0
H506 H 0.95004 0.11494 0.61819 0.0
H507 H 0.64216 0.00975 0.60583 0.0
H508 H 0.69986 0.01015 0.62427 0.0
H509 H 0.80146 0.08921 0.58234 0.0
H510 H 0.74409 0.08992 0.56415 0.0
H511 H 0.83265 0.12091 0.61253 0.0
H512 H 0.75821 0.97297 0.59057 0.0
H513 H 0.69363 0.89878 0.58509 0.0
H514 H 0.66418 0.86867 0.64174 0.0
H515 H 0.72827 0.94296 0.64756 0.0
C516 C 0.94423 0.02215 0.65342 0.0
C517 C 0.96019 0.04932 0.66808 0.0
C518 C 0.9115 0.02298 0.64312 0.0
C519 C 0.89396 0.05094 0.64725 0.0
C520 C 0.90969 0.07796 0.66198 0.0
C521 C 0.94272 0.07737 0.67223 0.0
C522 C 0.85899 0.05135 0.6362 0.0
C523 C 0.82023 0.01031 0.63338 0.0
C524 C 0.8637 0.09164 0.62836 0.0
C525 C 0.90509 0.13575 0.62972 0.0
C526 C 0.90247 0.1719 0.63666 0.0
C527 C 0.94149 0.21345 0.63796 0.0
C528 C 0.98331 0.21933 0.63227 0.0
C529 C 0.98618 0.18369 0.6252 0.0
C530 C 0.94727 0.14209 0.62385 0.0
C531 C 0.6768 0.02702 0.60055 0.0
C532 C 0.68865 0.04978 0.58356 0.0
C533 C 0.70977 0.0272 0.61108 0.0
C534 C 0.75507 0.0493 0.60464 0.0
C535 C 0.76685 0.07208 0.58766 0.0
C536 C 0.73404 0.07244 0.57726 0.0
C537 C 0.79032 0.04886 0.61553 0.0
C538 C 0.82907 0.08991 0.61838 0.0
C539 C 0.7862 0.00844 0.62295 0.0
C540 C 0.74776 0.96369 0.61949 0.0
C541 C 0.73777 0.95065 0.60186 0.0
C542 C 0.70129 0.90857 0.59869 0.0
C543 C 0.67475 0.87908 0.61306 0.0
C544 C 0.68473 0.89157 0.63063 0.0
C545 C 0.72114 0.93364 0.63387 0.0
H546 H 0.64652 0.84651 0.61057 0.0
H547 H 0.01348 0.25152 0.6333 0.0
H548 H 0.00208 0.9379 0.98488 0.0
H549 H 0.94556 0.88093 0.96689 0.0
H550 H 0.84158 0.89376 0.99524 0.0
H551 H 0.89802 0.95068 0.01339 0.0
H552 H 0.81797 0.80604 0.99221 0.0
H553 H 0.87703 0.93895 0.95309 0.0
H554 H 0.93622 0.00703 0.93625 0.0
H555 H 0.97608 0.92669 0.90658 0.0
H556 H 0.91752 0.85815 0.92343 0.0
H557 H 0.6434 0.68563 0.93389 0.0
H558 H 0.69972 0.74342 0.95163 0.0
H559 H 0.80468 0.73434 0.9222 0.0
H560 H 0.74862 0.6775 0.904 0.0
H561 H 0.82777 0.82038 0.92579 0.0
H562 H 0.76978 0.68776 0.96481 0.0
H563 H 0.71122 0.6193 0.98165 0.0
H564 H 0.67014 0.69843 0.01153 0.0
H565 H 0.72809 0.76735 0.99468 0.0
C566 C 0.9672 0.92876 0.98723 0.0
C567 C 0.95449 0.94886 1.00052 0.0
C568 C 0.93495 0.89628 0.9769 0.0
C569 C 0.88937 0.88333 0.97961 0.0
C570 C 0.87657 0.90328 0.99291 0.0
C571 C 0.90885 0.9359 0.00322 0.0
C572 C 0.855 0.84838 0.96879 0.0
C573 C 0.81972 0.80946 0.9777 0.0
C574 C 0.85798 0.8523 0.94984 0.0
C575 C 0.89317 0.89346 0.93966 0.0
C576 C 0.89866 0.93583 0.94308 0.0
C577 C 0.93206 0.9745 0.93352 0.0
C578 C 0.95997 0.9712 0.92039 0.0
C579 C 0.95448 0.9292 0.91677 0.0
C580 C 0.92116 0.89043 0.92632 0.0
C581 C 0.67848 0.69607 0.93112 0.0
C582 C 0.69146 0.67684 0.91753 0.0
C583 C 0.71063 0.72884 0.94139 0.0
C584 C 0.75643 0.74292 0.93838 0.0
C585 C 0.76953 0.72391 0.9248 0.0
C586 C 0.73739 0.6911 0.91452 0.0
C587 C 0.79069 0.778 0.94921 0.0
C588 C 0.82598 0.81695 0.94031 0.0
C589 C 0.78781 0.77404 0.96817 0.0
C590 C 0.75299 0.73267 0.97835 0.0
C591 C 0.74802 0.69053 0.97487 0.0
C592 C 0.71498 0.65164 0.98443 0.0
C593 C 0.68689 0.65449 0.99762 0.0
C594 C 0.69188 0.69626 0.00129 0.0
C595 C 0.72484 0.73526 0.99175 0.0
H596 H 0.66134 0.62435 0.00501 0.0
H597 H 0.9858 0.00118 0.91299 0.0
H598 H 0.97267 0.90363 0.3476 0.0
H599 H 0.97378 0.84583 0.32968 0.0
H600 H 0.09538 0.9471 0.30082 0.0
H601 H 0.0942 0.005 0.31853 0.0
H602 H 0.03665 0.88911 0.2784 0.0
H603 H 0.09909 0.87889 0.33376 0.0
H604 H 0.10003 0.87036 0.36657 0.0
H605 H 0.98047 0.74073 0.36723 0.0
H606 H 0.97847 0.74878 0.33444 0.0
H607 H 0.10292 0.74722 0.23759 0.0
H608 H 0.1008 0.80378 0.25579 0.0
H609 H 0.98357 0.70001 0.28615 0.0
H610 H 0.98681 0.64298 0.26862 0.0
H611 H 0.0388 0.75882 0.30784 0.0
H612 H 0.97625 0.76811 0.2526 0.0
H613 H 0.97457 0.7763 0.21982 0.0
H614 H 0.09277 0.907 0.21885 0.0
H615 H 0.09553 0.89933 0.25161 0.0
C616 C 0.99954 0.91356 0.33739 0.0
C617 C 0.03343 0.95882 0.33451 0.0
C618 C 1.00025 0.8805 0.32722 0.0
C619 C 0.03496 0.89207 0.31404 0.0
C620 C 0.06831 0.93738 0.31092 0.0
C621 C 0.06765 0.97041 0.32109 0.0
C622 C 0.03684 0.85702 0.30357 0.0
C623 C 0.03765 0.86089 0.28482 0.0
C624 C 0.0371 0.81964 0.31197 0.0
C625 C 0.03838 0.81465 0.33167 0.0
C626 C 0.07281 0.84872 0.34092 0.0
C627 C 0.07356 0.84394 0.35951 0.0
C628 C 0.04026 0.80508 0.36898 0.0
C629 C 0.0062 0.77085 0.35988 0.0
C630 C 0.00526 0.77548 0.34129 0.0
C631 C 0.07707 0.73626 0.24831 0.0
C632 C 0.0449 0.69043 0.25155 0.0
C633 C 0.07556 0.76877 0.25857 0.0
C634 C 0.04151 0.75629 0.27214 0.0
C635 C 0.00998 0.71053 0.27568 0.0
C636 C 0.01163 0.67797 0.26551 0.0
C637 C 0.03868 0.79088 0.28262 0.0
C638 C 0.03769 0.78695 0.30139 0.0
C639 C 0.0381 0.82813 0.27424 0.0
C640 C 0.03633 0.83296 0.25454 0.0
C641 C 0.00207 0.79847 0.24538 0.0
C642 C 1.0009 0.80303 0.22681 0.0
C643 C 0.03361 0.84209 0.21725 0.0
C644 C 0.06749 0.87673 0.22626 0.0
C645 C 0.06885 0.87231 0.24484 0.0
H646 H 0.03264 0.84556 0.20287 0.0
H647 H 0.04091 0.80144 0.38338 0.0
H648 H 0.15282 0.08366 0.64624 0.0
H649 H 0.21294 0.08483 0.62734 0.0
H650 H 0.21911 0.99052 0.66494 0.0
H651 H 0.15867 0.98892 0.68388 0.0
H652 H 0.30375 0.06507 0.6542 0.0
H653 H 0.17082 0.95432 0.62722 0.0
H654 H 0.09807 0.92579 0.61343 0.0
H655 H 0.16093 0.02887 0.571 0.0
H656 H 0.23394 0.0585 0.58471 0.0
H657 H 0.44605 0.0148 0.60129 0.0
H658 H 0.38482 0.01165 0.62019 0.0
H659 H 0.3595 0.08379 0.57809 0.0
H660 H 0.41907 0.08447 0.55888 0.0
H661 H 0.28381 0.02024 0.59137 0.0
H662 H 0.41497 0.13335 0.61735 0.0
H663 H 0.48875 0.16604 0.63059 0.0
H664 H 0.43153 0.06549 0.6741 0.0
H665 H 0.3575 0.03178 0.66098 0.0
C666 C 0.16683 0.063 0.65044 0.0
C667 C 0.15098 0.03611 0.66652 0.0
C668 C 0.20109 0.06364 0.63961 0.0
C669 C 0.2203 0.03758 0.6447 0.0
C670 C 0.20468 0.01083 0.66077 0.0
C671 C 0.17007 0.00983 0.67153 0.0
C672 C 0.2572 0.03886 0.63336 0.0
C673 C 0.29933 0.0547 0.64053 0.0
C674 C 0.2517 0.02673 0.61536 0.0
C675 C 0.20777 0.00893 0.60711 0.0
C676 C 0.16906 0.97118 0.61505 0.0
C677 C 0.12778 0.95476 0.60723 0.0
C678 C 0.12485 0.97559 0.59138 0.0
C679 C 0.16322 0.01282 0.5833 0.0
C680 C 0.20456 0.02943 0.59109 0.0
C681 C 0.42717 0.02978 0.59614 0.0
C682 C 0.43681 0.04958 0.57867 0.0
C683 C 0.3925 0.02839 0.60696 0.0
C684 C 0.36779 0.04804 0.6007 0.0
C685 C 0.37793 0.06833 0.58326 0.0
C686 C 0.41206 0.06898 0.57232 0.0
C687 C 0.33074 0.0466 0.61215 0.0
C688 C 0.28848 0.03071 0.60502 0.0
C689 C 0.33636 0.05944 0.6301 0.0
C690 C 0.38077 0.07979 0.63809 0.0
C691 C 0.41818 0.11802 0.62968 0.0
C692 C 0.46004 0.13675 0.63717 0.0
C693 C 0.46485 0.11779 0.65315 0.0
C694 C 0.42776 0.08011 0.6617 0.0
C695 C 0.38584 0.0612 0.65425 0.0
H696 H 0.49728 0.13234 0.65893 0.0
H697 H 0.09286 0.9628 0.58534 0.0
H698 H 0.20831 0.14384 0.01493 0.0
H699 H 0.26874 0.20506 0.99587 0.0
H700 H 0.17152 0.19923 0.95954 0.0
H701 H 0.11088 0.13844 0.97865 0.0
H702 H 0.25043 0.20548 0.94247 0.0
H703 H 0.20822 0.27841 0.98673 0.0
H704 H 0.19321 0.29307 0.01749 0.0
H705 H 0.3292 0.33455 0.02959 0.0
H706 H 0.34484 0.31948 0.99895 0.0
H707 H 0.38844 0.40954 0.89143 0.0
H708 H 0.3269 0.34841 0.91011 0.0
H709 H 0.41713 0.37288 0.95253 0.0
H710 H 0.47785 0.43571 0.93415 0.0
H711 H 0.34096 0.35582 0.96661 0.0
H712 H 0.38514 0.28509 0.92265 0.0
H713 H 0.40112 0.26898 0.89228 0.0
H714 H 0.26385 0.22034 0.88006 0.0
H715 H 0.24729 0.23734 0.91017 0.0
C716 C 0.19987 0.15542 0.00283 0.0
C717 C 0.15489 0.13648 0.9983 0.0
C718 C 0.23437 0.19044 0.99199 0.0
C719 C 0.22451 0.20679 0.97637 0.0
C720 C 0.17979 0.18706 0.97155 0.0
C721 C 0.14522 0.15247 0.9825 0.0
C722 C 0.26073 0.24524 0.96528 0.0
C723 C 0.26998 0.23854 0.94762 0.0
C724 C 0.2868 0.28796 0.97222 0.0
C725 C 0.27756 0.29737 0.9906 0.0
C726 C 0.23482 0.29029 0.99599 0.0
C727 C 0.22621 0.29875 0.0134 0.0
C728 C 0.26019 0.31462 0.0255 0.0
C729 C 0.30289 0.32219 0.0202 0.0
C730 C 0.31166 0.31373 0.00282 0.0
C731 C 0.39482 0.40188 0.9048 0.0
C732 C 0.43779 0.42668 0.91134 0.0
C733 C 0.35985 0.36678 0.91541 0.0
C734 C 0.36753 0.35517 0.93261 0.0
C735 C 0.41033 0.38087 0.93929 0.0
C736 C 0.44505 0.41653 0.92879 0.0
C737 C 0.33111 0.31631 0.94364 0.0
C738 C 0.32168 0.32285 0.96135 0.0
C739 C 0.3052 0.27327 0.93677 0.0
C740 C 0.3151 0.26296 0.91863 0.0
C741 C 0.35845 0.27138 0.91343 0.0
C742 C 0.36762 0.26213 0.89625 0.0
C743 C 0.33358 0.24391 0.8842 0.0
C744 C 0.29026 0.23477 0.88935 0.0
C745 C 0.28096 0.24422 0.90647 0.0
H746 H 0.34071 0.2367 0.87091 0.0
H747 H 0.25345 0.32114 0.03897 0.0
H748 H 0.01026 0.12119 0.31263 0.0
H749 H 0.01274 0.18214 0.29391 0.0
H750 H 0.09287 0.27758 0.33195 0.0
H751 H 0.0907 0.21663 0.35077 0.0
H752 H 0.02039 0.28684 0.32121 0.0
H753 H 0.14217 0.27443 0.29387 0.0
H754 H 0.17742 0.23463 0.28007 0.0
H755 H 0.08559 0.19612 0.23795 0.0
H756 H 0.04932 0.23513 0.25166 0.0
H757 H 0.07568 0.48356 0.26735 0.0
H758 H 0.07795 0.42535 0.28639 0.0
H759 H 0.01768 0.33068 0.24544 0.0
H760 H 0.01749 0.38966 0.22613 0.0
H761 H 0.08186 0.32178 0.25811 0.0
H762 H 0.95788 0.3298 0.28472 0.0
H763 H 0.91869 0.36631 0.2981 0.0
H764 H 0.00847 0.4085 0.34096 0.0
H765 H 0.04864 0.37278 0.32769 0.0
C766 C 0.02865 0.15519 0.31697 0.0
C767 C 0.0504 0.16418 0.33315 0.0
C768 C 0.03011 0.18998 0.30624 0.0
C769 C 0.0532 0.23441 0.31149 0.0
C770 C 0.07491 0.24352 0.32765 0.0
C771 C 0.07381 0.20873 0.33834 0.0
C772 C 0.05384 0.27113 0.30025 0.0
C773 C 0.03444 0.29503 0.30749 0.0
C774 C 0.07088 0.28072 0.28219 0.0
C775 C 0.09275 0.25735 0.2739 0.0
C776 C 0.12923 0.25715 0.28176 0.0
C777 C 0.14944 0.23479 0.27393 0.0
C778 C 0.13368 0.21276 0.25817 0.0
C779 C 0.09773 0.21314 0.25018 0.0
C780 C 0.07736 0.23541 0.25796 0.0
C781 C 0.06309 0.45028 0.26249 0.0
C782 C 0.04661 0.44088 0.24534 0.0
C783 C 0.06404 0.41696 0.27338 0.0
C784 C 0.04746 0.37334 0.26747 0.0
C785 C 0.03071 0.36401 0.25032 0.0
C786 C 0.03036 0.39751 0.23934 0.0
C787 C 0.04821 0.33762 0.27901 0.0
C788 C 0.06785 0.3138 0.27183 0.0
C789 C 0.03075 0.32764 0.29705 0.0
C790 C 0.00655 0.349 0.30511 0.0
C791 C 0.96948 0.34715 0.29693 0.0
C792 C 0.94706 0.36766 0.3045 0.0
C793 C 0.96115 0.38981 0.32035 0.0
C794 C 0.99763 0.39139 0.32867 0.0
C795 C 0.02022 0.37099 0.32114 0.0
H796 H 0.94375 0.40567 0.32619 0.0
H797 H 0.14938 0.19548 0.25213 0.0
loop_
_geom_bond_atom_site_label_1
_geom_bond_atom_site_label_2
_geom_bond_distance
_geom_bond_site_symmetry_2
_ccdc_geom_bond_type
In0 O1 2.294 . S
In0 O2 2.326 . S
In0 O6 2.266 1_455 S
In0 O7 2.326 1_545 S
In0 O8 2.284 . S
In0 O9 2.326 1_545 S
In0 O11 2.294 . S
In0 O12 2.326 . S
O1 In0 2.294 . S
O1 C10 1.240 . S
O2 In0 2.326 . S
O2 C10 1.252 . S
C3 O6 1.235 1_465 S
C3 O7 1.288 . S
C4 O11 1.240 . S
C4 O12 1.252 . S
C5 O8 1.249 1_565 S
C5 O9 1.260 . S
O6 In0 2.266 1_655 S
O6 C3 1.235 1_645 S
O7 In0 2.326 1_565 S
O7 C3 1.288 . S
O8 In0 2.284 . S
O8 C5 1.249 1_545 S
O9 In0 2.326 1_565 S
O9 C5 1.260 . S
C10 O1 1.240 . S
C10 O2 1.252 . S
O11 In0 2.294 . S
O11 C4 1.240 . S
O12 In0 2.326 . S
O12 C4 1.252 . S
In13 O14 2.294 . S
In13 O15 2.326 1_455 S
In13 O19 2.266 . S
In13 O20 2.326 . S
In13 O21 2.266 1_545 S
In13 O22 2.326 . S
In13 O24 2.294 1_455 S
In13 O25 2.326 . S
O14 In13 2.294 . S
O14 C23 1.240 . S
O15 In13 2.326 1_655 S
O15 C23 1.252 1_655 S
C16 O19 1.252 . S
C16 O20 1.260 . S
C17 O24 1.240 . S
C17 O25 1.252 1_655 S
C18 O21 1.252 1_545 S
C18 O22 1.260 . S
O19 In13 2.266 . S
O19 C16 1.252 . S
O20 In13 2.326 . S
O20 C16 1.260 . S
O21 In13 2.266 1_565 S
O21 C18 1.252 1_565 S
O22 In13 2.326 . S
O22 C18 1.260 . S
C23 O14 1.240 . S
C23 O15 1.252 1_455 S
O24 In13 2.294 1_655 S
O24 C17 1.240 . S
O25 In13 2.326 . S
O25 C17 1.252 1_455 S
In26 O27 2.294 1_545 S
In26 O28 2.326 1_455 S
In26 O32 2.266 . S
In26 O33 2.326 . S
In26 O34 2.266 . S
In26 O35 2.326 . S
In26 O37 2.294 . S
In26 O38 2.326 1_445 S
O27 In26 2.294 1_565 S
O27 C36 1.240 1_455 S
O28 In26 2.326 1_655 S
O28 C36 1.252 1_545 S
C29 O32 1.252 . S
C29 O33 1.260 . S
C30 O37 1.240 1_655 S
C30 O38 1.252 1_545 S
C31 O34 1.252 . S
C31 O35 1.260 . S
O32 In26 2.266 . S
O32 C29 1.252 . S
O33 In26 2.326 . S
O33 C29 1.260 . S
O34 In26 2.266 . S
O34 C31 1.252 . S
O35 In26 2.326 . S
O35 C31 1.260 . S
C36 O27 1.240 1_655 S
C36 O28 1.252 1_565 S
O37 In26 2.294 . S
O37 C30 1.240 1_455 S
O38 In26 2.326 1_665 S
O38 C30 1.252 1_565 S
C39 C40 1.443 . S
C39 N43 1.376 . S
C39 C77 1.389 . S
C40 C39 1.443 . S
C40 C41 1.340 . S
C40 H80 0.951 . S
C41 C40 1.340 . S
C41 C42 1.439 . S
C41 H81 0.950 . S
C42 C41 1.439 . S
C42 N43 1.374 . S
C42 C76 1.395 . S
N43 C39 1.376 . S
N43 C42 1.374 . S
N43 Co44 2.008 . S
Co44 N43 2.008 . S
Co44 N45 1.995 . S
Co44 N50 2.008 1_455 S
Co44 N55 1.995 1_455 S
Co44 N60 2.282 . S
Co44 N66 2.282 . S
N45 Co44 1.995 . S
N45 C46 1.376 . S
N45 C49 1.383 . S
C46 N45 1.376 . S
C46 C47 1.446 . S
C46 C76 1.391 . S
C47 C46 1.446 . S
C47 C48 1.339 . S
C47 H82 0.949 . S
C48 C47 1.339 . S
C48 C49 1.439 . S
C48 H83 0.950 . S
C49 N45 1.383 . S
C49 C48 1.439 . S
C49 C78 1.392 . S
N50 Co44 2.008 1_655 S
N50 C51 1.376 . S
N50 C54 1.374 . S
C51 N50 1.376 . S
C51 C52 1.443 . S
C51 C78 1.389 1_655 S
C52 C51 1.443 . S
C52 C53 1.340 . S
C52 H84 0.951 . S
C53 C52 1.340 . S
C53 C54 1.439 . S
C53 H85 0.950 . S
C54 N50 1.374 . S
C54 C53 1.439 . S
C54 C79 1.395 . S
N55 Co44 1.995 1_655 S
N55 C56 1.376 . S
N55 C59 1.383 1_655 S
C56 N55 1.376 . S
C56 C57 1.446 . S
C56 C79 1.391 . S
C57 C56 1.446 . S
C57 C58 1.339 . S
C57 H86 0.949 . S
C58 C57 1.339 . S
C58 C59 1.439 1_655 S
C58 H87 0.950 . S
C59 N55 1.383 1_455 S
C59 C58 1.439 1_455 S
C59 C77 1.392 . S
N60 Co44 2.282 . S
N60 C63 1.332 . S
N60 C65 1.332 . S
C61 C62 1.386 . S
C61 C64 1.388 . S
C62 C61 1.386 . S
C62 C63 1.382 . S
C62 H88 0.950 1_455 S
C63 N60 1.332 . S
C63 C62 1.382 . S
C63 H74 0.952 1_455 S
C64 C61 1.388 . S
C64 C65 1.382 . S
C64 H89 0.950 . S
C65 N60 1.332 . S
C65 C64 1.382 . S
C65 H75 0.948 . S
N66 Co44 2.282 . S
N66 C70 1.332 . S
N66 C71 1.332 1_455 S
C67 C68 1.388 1_655 S
C67 C71 1.382 . S
C67 H90 0.950 . S
C68 C67 1.388 1_455 S
C68 C69 1.386 . S
C69 C68 1.386 . S
C69 C70 1.382 . S
C69 H91 0.950 . S
C70 N66 1.332 . S
C70 C69 1.382 . S
C70 H72 0.952 . S
C71 N66 1.332 1_655 S
C71 C67 1.382 . S
C71 H73 0.948 . S
H72 C70 0.952 . S
H73 C71 0.948 . S
H74 C63 0.952 1_655 S
H75 C65 0.948 . S
C76 C42 1.395 . S
C76 C46 1.391 . S
C77 C39 1.389 . S
C77 C59 1.392 . S
C78 C49 1.392 . S
C78 C51 1.389 1_455 S
C79 C54 1.395 . S
C79 C56 1.391 . S
H80 C40 0.951 . S
H81 C41 0.950 . S
H82 C47 0.949 . S
H83 C48 0.950 . S
H84 C52 0.951 . S
H85 C53 0.950 . S
H86 C57 0.949 . S
H87 C58 0.950 . S
H88 C62 0.950 1_655 S
H89 C64 0.950 . S
H90 C67 0.950 . S
H91 C69 0.950 . S
C92 C93 1.443 1_545 S
C92 N96 1.376 . S
C92 C130 1.389 . S
C93 C92 1.443 1_565 S
C93 C94 1.340 . S
C93 H133 0.951 . S
C94 C93 1.340 . S
C94 C95 1.439 . S
C94 H134 0.950 . S
C95 C94 1.439 . S
C95 N96 1.374 1_565 S
C95 C129 1.395 . S
N96 C92 1.376 . S
N96 C95 1.374 1_545 S
N96 Co97 2.008 . S
Co97 N96 2.008 . S
Co97 N98 1.995 . S
Co97 N103 2.008 . S
Co97 N108 1.995 . S
Co97 N113 2.282 . S
Co97 N119 2.282 . S
N98 Co97 1.995 . S
N98 C99 1.376 1_545 S
N98 C102 1.383 . S
C99 N98 1.376 1_565 S
C99 C100 1.446 . S
C99 C129 1.391 . S
C100 C99 1.446 . S
C100 C101 1.339 . S
C100 H135 0.949 . S
C101 C100 1.339 . S
C101 C102 1.439 1_565 S
C101 H136 0.950 . S
C102 N98 1.383 . S
C102 C101 1.439 1_545 S
C102 C131 1.392 . S
N103 Co97 2.008 . S
N103 C104 1.376 . S
N103 C107 1.374 . S
C104 N103 1.376 . S
C104 C105 1.443 . S
C104 C131 1.389 . S
C105 C104 1.443 . S
C105 C106 1.340 . S
C105 H137 0.951 . S
C106 C105 1.340 . S
C106 C107 1.439 . S
C106 H138 0.950 . S
C107 N103 1.374 . S
C107 C106 1.439 . S
C107 C132 1.395 . S
N108 Co97 1.995 . S
N108 C109 1.376 . S
N108 C112 1.383 . S
C109 N108 1.376 . S
C109 C110 1.446 . S
C109 C132 1.391 . S
C110 C109 1.446 . S
C110 C111 1.339 . S
C110 H139 0.949 . S
C111 C110 1.339 . S
C111 C112 1.439 . S
C111 H140 0.950 . S
C112 N108 1.383 . S
C112 C111 1.439 . S
C112 C130 1.392 . S
N113 Co97 2.282 . S
N113 C116 1.332 . S
N113 C118 1.332 . S
C114 C115 1.386 . S
C114 C117 1.388 . S
C115 C114 1.386 . S
C115 C116 1.382 . S
C115 H141 0.950 . S
C116 N113 1.332 . S
C116 C115 1.382 . S
C116 H127 0.952 . S
C117 C114 1.388 . S
C117 C118 1.382 . S
C117 H142 0.950 1_545 S
C118 N113 1.332 . S
C118 C117 1.382 . S
C118 H128 0.948 1_545 S
N119 Co97 2.282 . S
N119 C123 1.332 . S
N119 C124 1.332 . S
C120 C121 1.388 . S
C120 C124 1.382 . S
C120 H143 0.950 . S
C121 C120 1.388 . S
C121 C122 1.386 . S
C122 C121 1.386 . S
C122 C123 1.382 . S
C122 H144 0.950 1_545 S
C123 N119 1.332 . S
C123 C122 1.382 . S
C123 H125 0.952 1_545 S
C124 N119 1.332 . S
C124 C120 1.382 . S
C124 H126 0.948 . S
H125 C123 0.952 1_565 S
H126 C124 0.948 . S
H127 C116 0.952 . S
H128 C118 0.948 1_565 S
C129 C95 1.395 . S
C129 C99 1.391 . S
C130 C92 1.389 . S
C130 C112 1.392 . S
C131 C102 1.392 . S
C131 C104 1.389 . S
C132 C107 1.395 . S
C132 C109 1.391 . S
H133 C93 0.951 . S
H134 C94 0.950 . S
H135 C100 0.949 . S
H136 C101 0.950 . S
H137 C105 0.951 . S
H138 C106 0.950 . S
H139 C110 0.949 . S
H140 C111 0.950 . S
H141 C115 0.950 . S
H142 C117 0.950 1_565 S
H143 C120 0.950 . S
H144 C122 0.950 1_565 S
C145 C146 1.443 . S
C145 N149 1.376 . S
C145 C183 1.389 . S
C146 C145 1.443 . S
C146 C147 1.340 . S
C146 H186 0.951 . S
C147 C146 1.340 . S
C147 C148 1.439 . S
C147 H187 0.950 . S
C148 C147 1.439 . S
C148 N149 1.374 . S
C148 C182 1.395 . S
N149 C145 1.376 . S
N149 C148 1.374 . S
N149 Co150 2.008 . S
Co150 N149 2.008 . S
Co150 N151 1.995 . S
Co150 N156 2.008 . S
Co150 N161 1.995 . S
Co150 N166 2.282 . S
Co150 N172 2.282 . S
N151 Co150 1.995 . S
N151 C152 1.376 . S
N151 C155 1.383 . S
C152 N151 1.376 . S
C152 C153 1.446 . S
C152 C182 1.391 . S
C153 C152 1.446 . S
C153 C154 1.339 . S
C153 H188 0.949 . S
C154 C153 1.339 . S
C154 C155 1.439 . S
C154 H189 0.950 . S
C155 N151 1.383 . S
C155 C154 1.439 . S
C155 C184 1.392 . S
N156 Co150 2.008 . S
N156 C157 1.376 . S
N156 C160 1.374 . S
C157 N156 1.376 . S
C157 C158 1.443 . S
C157 C184 1.389 . S
C158 C157 1.443 . S
C158 C159 1.340 . S
C158 H190 0.951 . S
C159 C158 1.340 . S
C159 C160 1.439 . S
C159 H191 0.950 . S
C160 N156 1.374 . S
C160 C159 1.439 . S
C160 C185 1.395 . S
N161 Co150 1.995 . S
N161 C162 1.376 . S
N161 C165 1.383 . S
C162 N161 1.376 . S
C162 C163 1.446 . S
C162 C185 1.391 . S
C163 C162 1.446 . S
C163 C164 1.339 . S
C163 H192 0.949 . S
C164 C163 1.339 . S
C164 C165 1.439 . S
C164 H193 0.950 . S
C165 N161 1.383 . S
C165 C164 1.439 . S
C165 C183 1.392 . S
N166 Co150 2.282 . S
N166 C169 1.332 . S
N166 C171 1.332 . S
C167 C168 1.386 . S
C167 C170 1.388 . S
C168 C167 1.386 . S
C168 C169 1.382 . S
C168 H194 0.950 . S
C169 N166 1.332 . S
C169 C168 1.382 . S
C169 H180 0.952 . S
C170 C167 1.388 . S
C170 C171 1.382 . S
C170 H195 0.950 . S
C171 N166 1.332 . S
C171 C170 1.382 . S
C171 H181 0.948 . S
N172 Co150 2.282 . S
N172 C176 1.332 . S
N172 C177 1.332 . S
C173 C174 1.388 . S
C173 C177 1.382 . S
C173 H196 0.950 . S
C174 C173 1.388 . S
C174 C175 1.386 . S
C175 C174 1.386 . S
C175 C176 1.382 . S
C175 H197 0.950 . S
C176 N172 1.332 . S
C176 C175 1.382 . S
C176 H178 0.952 . S
C177 N172 1.332 . S
C177 C173 1.382 . S
C177 H179 0.948 . S
H178 C176 0.952 . S
H179 C177 0.948 . S
H180 C169 0.952 . S
H181 C171 0.948 . S
C182 C148 1.395 . S
C182 C152 1.391 . S
C183 C145 1.389 . S
C183 C165 1.392 . S
C184 C155 1.392 . S
C184 C157 1.389 . S
C185 C160 1.395 . S
C185 C162 1.391 . S
H186 C146 0.951 . S
H187 C147 0.950 . S
H188 C153 0.949 . S
H189 C154 0.950 . S
H190 C158 0.951 . S
H191 C159 0.950 . S
H192 C163 0.949 . S
H193 C164 0.950 . S
H194 C168 0.950 . S
H195 C170 0.950 . S
H196 C173 0.950 . S
H197 C175 0.950 . S
H198 C216 0.951 . S
H199 C218 0.951 . S
H200 C220 0.950 . S
H201 C221 0.950 . S
H202 C223 0.950 . S
H203 C226 0.950 . S
H204 C227 0.950 . S
H205 C229 0.950 . S
H206 C230 0.950 . S
H207 C231 0.951 . S
H208 C233 0.951 . S
H209 C235 0.938 1_655 S
H210 C236 0.950 1_655 S
H211 C238 0.950 . S
H212 C241 0.950 . S
H213 C242 0.950 . S
H214 C244 0.950 . S
H215 C245 0.950 . S
C216 H198 0.951 . S
C216 C217 1.366 . S
C216 C218 1.388 . S
C217 C216 1.366 . S
C217 C221 1.385 . S
C218 H199 0.951 . S
C218 C216 1.388 . S
C218 C219 1.366 . S
C219 C218 1.366 . S
C219 C220 1.414 . S
C219 C222 1.499 . S
C220 H200 0.950 . S
C220 C219 1.414 . S
C220 C221 1.374 . S
C221 H201 0.950 . S
C221 C217 1.385 . S
C221 C220 1.374 . S
C222 C219 1.499 . S
C222 C223 1.373 . S
C222 C224 1.389 . S
C223 H202 0.950 . S
C223 C222 1.373 . S
C223 C239 1.377 . S
C224 C222 1.389 . S
C224 C225 1.524 . S
C224 C238 1.377 . S
C225 C224 1.524 . S
C225 C226 1.397 . S
C225 C230 1.363 . S
C226 H203 0.950 . S
C226 C225 1.397 . S
C226 C227 1.334 . S
C227 H204 0.950 . S
C227 C226 1.334 . S
C227 C228 1.287 . S
C228 C227 1.287 . S
C228 C229 1.524 . S
C228 H247 0.913 . S
C229 H205 0.950 . S
C229 C228 1.524 . S
C229 C230 1.415 . S
C230 H206 0.950 . S
C230 C225 1.363 . S
C230 C229 1.415 . S
C231 H207 0.951 . S
C231 C232 1.366 . S
C231 C233 1.388 . S
C232 C231 1.366 . S
C232 C236 1.385 . S
C233 H208 0.951 . S
C233 C231 1.388 . S
C233 C234 1.366 . S
C234 C233 1.366 . S
C234 C235 1.414 . S
C234 C237 1.499 . S
C235 H209 0.938 1_455 S
C235 C234 1.414 . S
C235 C236 1.374 . S
C236 H210 0.950 1_455 S
C236 C232 1.385 . S
C236 C235 1.374 . S
C237 C234 1.499 . S
C237 C238 1.373 . S
C237 C239 1.389 . S
C238 H211 0.950 . S
C238 C224 1.377 . S
C238 C237 1.373 . S
C239 C223 1.377 . S
C239 C237 1.389 . S
C239 C240 1.524 . S
C240 C239 1.524 . S
C240 C241 1.397 1_455 S
C240 C245 1.363 . S
C241 H212 0.950 . S
C241 C240 1.397 1_655 S
C241 C242 1.334 . S
C242 H213 0.950 . S
C242 C241 1.334 . S
C242 C243 1.287 1_655 S
C243 C242 1.287 1_455 S
C243 C244 1.524 . S
C243 H246 0.999 . S
C244 H214 0.950 . S
C244 C243 1.524 . S
C244 C245 1.415 . S
C245 H215 0.950 . S
C245 C240 1.363 . S
C245 C244 1.415 . S
H246 C243 0.999 . S
H247 C228 0.913 . S
H248 C266 0.951 . S
H249 C268 0.951 . S
H250 C270 0.950 . S
H251 C271 0.950 . S
H252 C273 0.950 . S
H253 C276 0.950 . S
H254 C277 0.950 . S
H255 C279 0.950 . S
H256 C280 0.950 . S
H257 C281 0.951 . S
H258 C283 0.951 . S
H259 C285 0.950 . S
H260 C286 0.950 . S
H261 C288 0.950 . S
H262 C291 0.950 . S
H263 C292 0.950 . S
H264 C294 0.950 . S
H265 C295 0.950 . S
C266 H248 0.951 . S
C266 C267 1.366 . S
C266 C268 1.388 . S
C267 C266 1.366 . S
C267 C271 1.385 . S
C268 H249 0.951 . S
C268 C266 1.388 . S
C268 C269 1.366 . S
C269 C268 1.366 . S
C269 C270 1.414 . S
C269 C272 1.499 . S
C270 H250 0.950 . S
C270 C269 1.414 . S
C270 C271 1.374 . S
C271 H251 0.950 . S
C271 C267 1.385 . S
C271 C270 1.374 . S
C272 C269 1.499 . S
C272 C273 1.373 . S
C272 C274 1.389 . S
C273 H252 0.950 . S
C273 C272 1.373 . S
C273 C289 1.377 . S
C274 C272 1.389 . S
C274 C275 1.524 . S
C274 C288 1.377 . S
C275 C274 1.524 . S
C275 C276 1.397 . S
C275 C280 1.363 . S
C276 H253 0.950 . S
C276 C275 1.397 . S
C276 C277 1.334 . S
C277 H254 0.950 . S
C277 C276 1.334 . S
C277 C278 1.287 . S
C278 C277 1.287 . S
C278 C279 1.524 . S
C278 H297 0.913 . S
C279 H255 0.950 . S
C279 C278 1.524 . S
C279 C280 1.415 . S
C280 H256 0.950 . S
C280 C275 1.363 . S
C280 C279 1.415 . S
C281 H257 0.951 . S
C281 C282 1.366 . S
C281 C283 1.388 . S
C282 C281 1.366 . S
C282 C286 1.385 . S
C283 H258 0.951 . S
C283 C281 1.388 . S
C283 C284 1.366 . S
C284 C283 1.366 . S
C284 C285 1.414 . S
C284 C287 1.499 . S
C285 H259 0.950 . S
C285 C284 1.414 . S
C285 C286 1.374 . S
C286 H260 0.950 . S
C286 C282 1.385 . S
C286 C285 1.374 . S
C287 C284 1.499 . S
C287 C288 1.373 . S
C287 C289 1.389 . S
C288 H261 0.950 . S
C288 C274 1.377 . S
C288 C287 1.373 . S
C289 C273 1.377 . S
C289 C287 1.389 . S
C289 C290 1.524 1_545 S
C290 C289 1.524 1_565 S
C290 C291 1.397 . S
C290 C295 1.363 . S
C291 H262 0.950 . S
C291 C290 1.397 . S
C291 C292 1.334 . S
C292 H263 0.950 . S
C292 C291 1.334 . S
C292 C293 1.287 . S
C293 C292 1.287 . S
C293 C294 1.524 . S
C293 H296 0.999 . S
C294 H264 0.950 . S
C294 C293 1.524 . S
C294 C295 1.415 . S
C295 H265 0.950 . S
C295 C290 1.363 . S
C295 C294 1.415 . S
H296 C293 0.999 . S
H297 C278 0.913 . S
H298 C316 0.951 . S
H299 C318 0.951 . S
H300 C320 0.950 . S
H301 C321 0.950 . S
H302 C323 0.950 . S
H303 C326 0.950 . S
H304 C327 0.950 . S
H305 C329 0.950 . S
H306 C330 0.950 . S
H307 C331 0.951 . S
H308 C333 0.951 . S
H309 C335 0.950 . S
H310 C336 0.950 . S
H311 C338 0.950 . S
H312 C341 0.950 . S
H313 C342 0.950 . S
H314 C344 0.950 . S
H315 C345 0.950 . S
C316 H298 0.951 . S
C316 C317 1.366 . S
C316 C318 1.388 . S
C317 C316 1.366 . S
C317 C321 1.385 . S
C318 H299 0.951 . S
C318 C316 1.388 . S
C318 C319 1.366 . S
C319 C318 1.366 . S
C319 C320 1.414 . S
C319 C322 1.499 . S
C320 H300 0.950 . S
C320 C319 1.414 . S
C320 C321 1.374 . S
C321 H301 0.950 . S
C321 C317 1.385 . S
C321 C320 1.374 . S
C322 C319 1.499 . S
C322 C323 1.373 . S
C322 C324 1.389 . S
C323 H302 0.950 . S
C323 C322 1.373 . S
C323 C339 1.377 . S
C324 C322 1.389 . S
C324 C325 1.524 . S
C324 C338 1.377 . S
C325 C324 1.524 . S
C325 C326 1.397 . S
C325 C330 1.363 . S
C326 H303 0.950 . S
C326 C325 1.397 . S
C326 C327 1.334 . S
C327 H304 0.950 . S
C327 C326 1.334 . S
C327 C328 1.287 . S
C328 C327 1.287 . S
C328 C329 1.524 . S
C328 H347 0.913 . S
C329 H305 0.950 . S
C329 C328 1.524 . S
C329 C330 1.415 . S
C330 H306 0.950 . S
C330 C325 1.363 . S
C330 C329 1.415 . S
C331 H307 0.951 . S
C331 C332 1.366 . S
C331 C333 1.388 . S
C332 C331 1.366 . S
C332 C336 1.385 . S
C333 H308 0.951 . S
C333 C331 1.388 . S
C333 C334 1.366 . S
C334 C333 1.366 . S
C334 C335 1.414 . S
C334 C337 1.499 . S
C335 H309 0.950 . S
C335 C334 1.414 . S
C335 C336 1.374 . S
C336 H310 0.950 . S
C336 C332 1.385 . S
C336 C335 1.374 . S
C337 C334 1.499 . S
C337 C338 1.373 . S
C337 C339 1.389 . S
C338 H311 0.950 . S
C338 C324 1.377 . S
C338 C337 1.373 . S
C339 C323 1.377 . S
C339 C337 1.389 . S
C339 C340 1.524 . S
C340 C339 1.524 . S
C340 C341 1.397 . S
C340 C345 1.363 . S
C341 H312 0.950 . S
C341 C340 1.397 . S
C341 C342 1.334 . S
C342 H313 0.950 . S
C342 C341 1.334 . S
C342 C343 1.287 . S
C343 C342 1.287 . S
C343 C344 1.524 . S
C343 H346 0.999 . S
C344 H314 0.950 . S
C344 C343 1.524 . S
C344 C345 1.415 . S
C345 H315 0.950 . S
C345 C340 1.363 . S
C345 C344 1.415 . S
H346 C343 0.999 . S
H347 C328 0.913 . S
H348 C366 0.951 1_655 S
H349 C368 0.951 1_655 S
H350 C370 0.950 . S
H351 C371 0.950 . S
H352 C373 0.950 . S
H353 C376 0.950 1_455 S
H354 C377 0.950 . S
H355 C379 0.950 . S
H356 C380 0.950 . S
H357 C381 0.951 . S
H358 C383 0.951 . S
H359 C385 0.950 1_655 S
H360 C386 0.950 1_655 S
H361 C388 0.950 1_655 S
H362 C391 0.950 . S
H363 C392 0.950 . S
H364 C394 0.950 . S
H365 C395 0.950 . S
C366 H348 0.951 1_455 S
C366 C367 1.366 . S
C366 C368 1.388 . S
C367 C366 1.366 . S
C367 C371 1.385 . S
C368 H349 0.951 1_455 S
C368 C366 1.388 . S
C368 C369 1.366 . S
C369 C368 1.366 . S
C369 C370 1.414 . S
C369 C372 1.499 . S
C370 H350 0.950 . S
C370 C369 1.414 . S
C370 C371 1.374 . S
C371 H351 0.950 . S
C371 C367 1.385 . S
C371 C370 1.374 . S
C372 C369 1.499 . S
C372 C373 1.373 . S
C372 C374 1.389 . S
C373 H352 0.950 . S
C373 C372 1.373 . S
C373 C389 1.377 . S
C374 C372 1.389 . S
C374 C375 1.524 1_455 S
C374 C388 1.377 . S
C375 C374 1.524 1_655 S
C375 C376 1.397 . S
C375 C380 1.363 . S
C376 H353 0.950 1_655 S
C376 C375 1.397 . S
C376 C377 1.334 . S
C377 H354 0.950 . S
C377 C376 1.334 . S
C377 C378 1.287 . S
C378 C377 1.287 . S
C378 C379 1.524 . S
C378 H397 0.913 . S
C379 H355 0.950 . S
C379 C378 1.524 . S
C379 C380 1.415 . S
C380 H356 0.950 . S
C380 C375 1.363 . S
C380 C379 1.415 . S
C381 H357 0.951 . S
C381 C382 1.366 . S
C381 C383 1.388 . S
C382 C381 1.366 . S
C382 C386 1.385 . S
C383 H358 0.951 . S
C383 C381 1.388 . S
C383 C384 1.366 . S
C384 C383 1.366 . S
C384 C385 1.414 . S
C384 C387 1.499 . S
C385 H359 0.950 1_455 S
C385 C384 1.414 . S
C385 C386 1.374 . S
C386 H360 0.950 1_455 S
C386 C382 1.385 . S
C386 C385 1.374 . S
C387 C384 1.499 . S
C387 C388 1.373 . S
C387 C389 1.389 . S
C388 H361 0.950 1_455 S
C388 C374 1.377 . S
C388 C387 1.373 . S
C389 C373 1.377 . S
C389 C387 1.389 . S
C389 C390 1.524 . S
C390 C389 1.524 . S
C390 C391 1.397 . S
C390 C395 1.363 . S
C391 H362 0.950 . S
C391 C390 1.397 . S
C391 C392 1.334 . S
C392 H363 0.950 . S
C392 C391 1.334 . S
C392 C393 1.287 . S
C393 C392 1.287 . S
C393 C394 1.524 . S
C393 H396 0.999 . S
C394 H364 0.950 . S
C394 C393 1.524 . S
C394 C395 1.415 . S
C395 H365 0.950 . S
C395 C390 1.363 . S
C395 C394 1.415 . S
H396 C393 0.999 . S
H397 C378 0.913 . S
H398 C416 0.951 . S
H399 C418 0.951 . S
H400 C420 0.950 1_565 S
H401 C421 0.950 1_565 S
H402 C423 0.958 . S
H403 C426 0.950 . S
H404 C427 0.950 . S
H405 C429 0.950 . S
H406 C430 0.950 . S
H407 C431 0.951 1_565 S
H408 C433 0.951 1_565 S
H409 C435 0.950 . S
H410 C436 0.950 . S
H411 C438 0.950 . S
H412 C441 0.950 . S
H413 C442 0.950 . S
H414 C444 0.950 . S
H415 C445 0.950 . S
C416 H398 0.951 . S
C416 C417 1.366 . S
C416 C418 1.388 . S
C417 C416 1.366 . S
C417 C421 1.385 . S
C418 H399 0.951 . S
C418 C416 1.388 . S
C418 C419 1.366 . S
C419 C418 1.366 . S
C419 C420 1.414 . S
C419 C422 1.499 . S
C420 H400 0.950 1_545 S
C420 C419 1.414 . S
C420 C421 1.374 . S
C421 H401 0.950 1_545 S
C421 C417 1.385 . S
C421 C420 1.374 . S
C422 C419 1.499 . S
C422 C423 1.373 . S
C422 C424 1.389 . S
C423 H402 0.958 . S
C423 C422 1.373 . S
C423 C439 1.377 . S
C424 C422 1.389 . S
C424 C425 1.524 . S
C424 C438 1.377 . S
C425 C424 1.524 . S
C425 C426 1.397 . S
C425 C430 1.363 . S
C426 H403 0.950 . S
C426 C425 1.397 . S
C426 C427 1.334 . S
C427 H404 0.950 . S
C427 C426 1.334 . S
C427 C428 1.287 . S
C428 C427 1.287 . S
C428 C429 1.524 . S
C428 H447 0.913 . S
C429 H405 0.950 . S
C429 C428 1.524 . S
C429 C430 1.415 . S
C430 H406 0.950 . S
C430 C425 1.363 . S
C430 C429 1.415 . S
C431 H407 0.951 1_545 S
C431 C432 1.366 . S
C431 C433 1.388 . S
C432 C431 1.366 . S
C432 C436 1.385 . S
C433 H408 0.951 1_545 S
C433 C431 1.388 . S
C433 C434 1.366 . S
C434 C433 1.366 . S
C434 C435 1.414 . S
C434 C437 1.499 . S
C435 H409 0.950 . S
C435 C434 1.414 . S
C435 C436 1.374 . S
C436 H410 0.950 . S
C436 C432 1.385 . S
C436 C435 1.374 . S
C437 C434 1.499 . S
C437 C438 1.373 . S
C437 C439 1.389 . S
C438 H411 0.950 . S
C438 C424 1.377 . S
C438 C437 1.373 . S
C439 C423 1.377 . S
C439 C437 1.389 . S
C439 C440 1.524 1_545 S
C440 C439 1.524 1_565 S
C440 C441 1.397 1_565 S
C440 C445 1.363 . S
C441 H412 0.950 . S
C441 C440 1.397 1_545 S
C441 C442 1.334 1_545 S
C442 H413 0.950 . S
C442 C441 1.334 1_565 S
C442 C443 1.287 . S
C443 C442 1.287 . S
C443 C444 1.524 . S
C443 H446 0.999 . S
C444 H414 0.950 . S
C444 C443 1.524 . S
C444 C445 1.415 . S
C445 H415 0.950 . S
C445 C440 1.363 . S
C445 C444 1.415 . S
H446 C443 0.999 . S
H447 C428 0.913 . S
H448 C466 0.951 . S
H449 C468 0.951 . S
H450 C470 0.950 . S
H451 C471 0.950 . S
H452 C473 0.950 . S
H453 C476 0.950 . S
H454 C477 0.950 . S
H455 C479 0.950 . S
H456 C480 0.950 . S
H457 C481 0.951 . S
H458 C483 0.951 . S
H459 C485 0.950 . S
H460 C486 0.950 . S
H461 C488 0.950 . S
H462 C491 0.950 . S
H463 C492 0.950 . S
H464 C494 0.950 . S
H465 C495 0.950 . S
C466 H448 0.951 . S
C466 C467 1.366 . S
C466 C468 1.388 . S
C467 C466 1.366 . S
C467 C471 1.385 . S
C468 H449 0.951 . S
C468 C466 1.388 . S
C468 C469 1.366 . S
C469 C468 1.366 . S
C469 C470 1.414 . S
C469 C472 1.499 . S
C470 H450 0.950 . S
C470 C469 1.414 . S
C470 C471 1.374 . S
C471 H451 0.950 . S
C471 C467 1.385 . S
C471 C470 1.374 . S
C472 C469 1.499 . S
C472 C473 1.373 . S
C472 C474 1.389 . S
C473 H452 0.950 . S
C473 C472 1.373 . S
C473 C489 1.377 . S
C474 C472 1.389 . S
C474 C475 1.524 . S
C474 C488 1.377 . S
C475 C474 1.524 . S
C475 C476 1.397 . S
C475 C480 1.363 . S
C476 H453 0.950 . S
C476 C475 1.397 . S
C476 C477 1.334 . S
C477 H454 0.950 . S
C477 C476 1.334 . S
C477 C478 1.287 . S
C478 C477 1.287 . S
C478 C479 1.524 . S
C478 H497 0.913 . S
C479 H455 0.950 . S
C479 C478 1.524 . S
C479 C480 1.415 . S
C480 H456 0.950 . S
C480 C475 1.363 . S
C480 C479 1.415 . S
C481 H457 0.951 . S
C481 C482 1.366 . S
C481 C483 1.388 . S
C482 C481 1.366 . S
C482 C486 1.385 . S
C483 H458 0.951 . S
C483 C481 1.388 . S
C483 C484 1.366 . S
C484 C483 1.366 . S
C484 C485 1.414 . S
C484 C487 1.499 . S
C485 H459 0.950 . S
C485 C484 1.414 . S
C485 C486 1.374 . S
C486 H460 0.950 . S
C486 C482 1.385 . S
C486 C485 1.374 . S
C487 C484 1.499 . S
C487 C488 1.373 . S
C487 C489 1.389 . S
C488 H461 0.950 . S
C488 C474 1.377 . S
C488 C487 1.373 . S
C489 C473 1.377 . S
C489 C487 1.389 . S
C489 C490 1.524 . S
C490 C489 1.524 . S
C490 C491 1.397 . S
C490 C495 1.363 . S
C491 H462 0.950 . S
C491 C490 1.397 . S
C491 C492 1.334 . S
C492 H463 0.950 . S
C492 C491 1.334 . S
C492 C493 1.287 . S
C493 C492 1.287 . S
C493 C494 1.524 . S
C493 H496 0.999 . S
C494 H464 0.950 . S
C494 C493 1.524 . S
C494 C495 1.415 . S
C495 H465 0.950 . S
C495 C490 1.363 . S
C495 C494 1.415 . S
H496 C493 0.999 . S
H497 C478 0.913 . S
H498 C516 0.951 . S
H499 C518 0.951 . S
H500 C520 0.950 . S
H501 C521 0.950 . S
H502 C523 0.950 1_565 S
H503 C526 0.950 . S
H504 C527 0.950 . S
H505 C529 0.950 . S
H506 C530 0.950 . S
H507 C531 0.951 . S
H508 C533 0.951 . S
H509 C535 0.950 . S
H510 C536 0.950 . S
H511 C538 0.950 . S
H512 C541 0.950 . S
H513 C542 0.950 . S
H514 C544 0.950 . S
H515 C545 0.950 . S
C516 H498 0.951 . S
C516 C517 1.366 . S
C516 C518 1.388 . S
C517 C516 1.366 . S
C517 C521 1.385 . S
C518 H499 0.951 . S
C518 C516 1.388 . S
C518 C519 1.366 . S
C519 C518 1.366 . S
C519 C520 1.414 . S
C519 C522 1.499 . S
C520 H500 0.950 . S
C520 C519 1.414 . S
C520 C521 1.374 . S
C521 H501 0.950 . S
C521 C517 1.385 . S
C521 C520 1.374 . S
C522 C519 1.499 . S
C522 C523 1.373 . S
C522 C524 1.389 . S
C523 H502 0.950 1_545 S
C523 C522 1.373 . S
C523 C539 1.377 . S
C524 C522 1.389 . S
C524 C525 1.524 . S
C524 C538 1.377 . S
C525 C524 1.524 . S
C525 C526 1.397 . S
C525 C530 1.363 . S
C526 H503 0.950 . S
C526 C525 1.397 . S
C526 C527 1.334 . S
C527 H504 0.950 . S
C527 C526 1.334 . S
C527 C528 1.287 . S
C528 C527 1.287 . S
C528 C529 1.524 . S
C528 H547 0.913 1_655 S
C529 H505 0.950 . S
C529 C528 1.524 . S
C529 C530 1.415 . S
C530 H506 0.950 . S
C530 C525 1.363 . S
C530 C529 1.415 . S
C531 H507 0.951 . S
C531 C532 1.366 . S
C531 C533 1.388 . S
C532 C531 1.366 . S
C532 C536 1.385 . S
C533 H508 0.951 . S
C533 C531 1.388 . S
C533 C534 1.366 . S
C534 C533 1.366 . S
C534 C535 1.414 . S
C534 C537 1.499 . S
C535 H509 0.950 . S
C535 C534 1.414 . S
C535 C536 1.374 . S
C536 H510 0.950 . S
C536 C532 1.385 . S
C536 C535 1.374 . S
C537 C534 1.499 . S
C537 C538 1.373 . S
C537 C539 1.389 . S
C538 H511 0.950 . S
C538 C524 1.377 . S
C538 C537 1.373 . S
C539 C523 1.377 . S
C539 C537 1.389 . S
C539 C540 1.524 1_545 S
C540 C539 1.524 1_565 S
C540 C541 1.397 . S
C540 C545 1.363 . S
C541 H512 0.950 . S
C541 C540 1.397 . S
C541 C542 1.334 . S
C542 H513 0.950 . S
C542 C541 1.334 . S
C542 C543 1.287 . S
C543 C542 1.287 . S
C543 C544 1.524 . S
C543 H546 0.999 . S
C544 H514 0.950 . S
C544 C543 1.524 . S
C544 C545 1.415 . S
C545 H515 0.950 . S
C545 C540 1.363 . S
C545 C544 1.415 . S
H546 C543 0.999 . S
H547 C528 0.913 1_455 S
H548 C566 0.951 1_455 S
H549 C568 0.951 . S
H550 C570 0.937 1_554 S
H551 C571 0.950 . S
H552 C573 0.950 . S
H553 C576 0.950 . S
H554 C577 0.950 1_545 S
H555 C579 0.950 . S
H556 C580 0.950 . S
H557 C581 0.951 . S
H558 C583 0.951 . S
H559 C585 0.950 . S
H560 C586 0.950 . S
H561 C588 0.950 . S
H562 C591 0.950 . S
H563 C592 0.950 . S
H564 C594 0.969 . S
H565 C595 0.950 . S
C566 H548 0.951 1_655 S
C566 C567 1.319 1_556 S
C566 C568 1.388 . S
C567 C566 1.319 1_554 S
C567 C571 1.399 . S
C568 H549 0.951 . S
C568 C566 1.388 . S
C568 C569 1.366 . S
C569 C568 1.366 . S
C569 C570 1.414 . S
C569 C572 1.499 . S
C570 H550 0.937 1_556 S
C570 C569 1.414 . S
C570 C571 1.374 1_556 S
C571 H551 0.950 . S
C571 C567 1.399 . S
C571 C570 1.374 1_554 S
C572 C569 1.499 . S
C572 C573 1.373 . S
C572 C574 1.389 . S
C573 H552 0.950 . S
C573 C572 1.373 . S
C573 C589 1.377 . S
C574 C572 1.389 . S
C574 C575 1.524 . S
C574 C588 1.377 . S
C575 C574 1.524 . S
C575 C576 1.397 . S
C575 C580 1.363 . S
C576 H553 0.950 . S
C576 C575 1.397 . S
C576 C577 1.334 . S
C577 H554 0.950 1_565 S
C577 C576 1.334 . S
C577 C578 1.287 . S
C578 C577 1.287 . S
C578 C579 1.524 . S
C578 H597 0.913 1_565 S
C579 H555 0.950 . S
C579 C578 1.524 . S
C579 C580 1.415 . S
C580 H556 0.950 . S
C580 C575 1.363 . S
C580 C579 1.415 . S
C581 H557 0.951 . S
C581 C582 1.366 . S
C581 C583 1.388 . S
C582 C581 1.366 . S
C582 C586 1.385 . S
C583 H558 0.951 . S
C583 C581 1.388 . S
C583 C584 1.366 . S
C584 C583 1.366 . S
C584 C585 1.414 . S
C584 C587 1.499 . S
C585 H559 0.950 . S
C585 C584 1.414 . S
C585 C586 1.374 . S
C586 H560 0.950 . S
C586 C582 1.385 . S
C586 C585 1.374 . S
C587 C584 1.499 . S
C587 C588 1.373 . S
C587 C589 1.389 . S
C588 H561 0.950 . S
C588 C574 1.377 . S
C588 C587 1.373 . S
C589 C573 1.377 . S
C589 C587 1.389 . S
C589 C590 1.524 . S
C590 C589 1.524 . S
C590 C591 1.397 . S
C590 C595 1.363 . S
C591 H562 0.950 . S
C591 C590 1.397 . S
C591 C592 1.334 . S
C592 H563 0.950 . S
C592 C591 1.334 . S
C592 C593 1.287 . S
C593 C592 1.287 . S
C593 C594 1.512 1_556 S
C593 H596 0.999 . S
C594 H564 0.969 . S
C594 C593 1.512 1_554 S
C594 C595 1.405 1_554 S
C595 H565 0.950 . S
C595 C590 1.363 . S
C595 C594 1.405 1_556 S
H596 C593 0.999 . S
H597 C578 0.913 1_545 S
H598 C616 0.951 . S
H599 C618 0.951 . S
H600 C620 0.950 . S
H601 C621 0.938 1_545 S
H602 C623 0.950 . S
H603 C626 0.950 . S
H604 C627 0.950 . S
H605 C629 0.950 . S
H606 C630 0.950 . S
H607 C631 0.951 . S
H608 C633 0.951 . S
H609 C635 0.950 . S
H610 C636 0.950 . S
H611 C638 0.950 1_655 S
H612 C641 0.950 . S
H613 C642 0.950 . S
H614 C644 0.950 . S
H615 C645 0.950 . S
C616 H598 0.951 . S
C616 C617 1.366 1_655 S
C616 C618 1.388 . S
C617 C616 1.366 1_455 S
C617 C621 1.385 . S
C618 H599 0.951 . S
C618 C616 1.388 . S
C618 C619 1.366 1_655 S
C619 C618 1.366 1_455 S
C619 C620 1.414 . S
C619 C622 1.499 . S
C620 H600 0.950 . S
C620 C619 1.414 . S
C620 C621 1.374 . S
C621 H601 0.938 1_565 S
C621 C617 1.385 . S
C621 C620 1.374 . S
C622 C619 1.499 . S
C622 C623 1.373 . S
C622 C624 1.389 . S
C623 H602 0.950 . S
C623 C622 1.373 . S
C623 C639 1.377 . S
C624 C622 1.389 . S
C624 C625 1.524 1_455 S
C624 C638 1.377 . S
C625 C624 1.524 1_655 S
C625 C626 1.397 1_655 S
C625 C630 1.363 . S
C626 H603 0.950 . S
C626 C625 1.397 1_455 S
C626 C627 1.334 . S
C627 H604 0.950 . S
C627 C626 1.334 . S
C627 C628 1.287 1_455 S
C628 C627 1.287 1_655 S
C628 C629 1.524 . S
C628 H647 0.913 . S
C629 H605 0.950 . S
C629 C628 1.524 . S
C629 C630 1.415 . S
C630 H606 0.950 . S
C630 C625 1.363 . S
C630 C629 1.415 . S
C631 H607 0.951 . S
C631 C632 1.366 . S
C631 C633 1.388 . S
C632 C631 1.366 . S
C632 C636 1.385 1_455 S
C633 H608 0.951 . S
C633 C631 1.388 . S
C633 C634 1.366 . S
C634 C633 1.366 . S
C634 C635 1.414 1_455 S
C634 C637 1.499 . S
C635 H609 0.950 . S
C635 C634 1.414 1_655 S
C635 C636 1.374 . S
C636 H610 0.950 . S
C636 C632 1.385 1_655 S
C636 C635 1.374 . S
C637 C634 1.499 . S
C637 C638 1.373 . S
C637 C639 1.389 . S
C638 H611 0.950 1_455 S
C638 C624 1.377 . S
C638 C637 1.373 . S
C639 C623 1.377 . S
C639 C637 1.389 . S
C639 C640 1.524 . S
C640 C639 1.524 . S
C640 C641 1.397 . S
C640 C645 1.363 . S
C641 H612 0.950 . S
C641 C640 1.397 . S
C641 C642 1.334 . S
C642 H613 0.950 . S
C642 C641 1.334 . S
C642 C643 1.287 . S
C643 C642 1.287 . S
C643 C644 1.524 . S
C643 H646 0.999 . S
C644 H614 0.950 . S
C644 C643 1.524 . S
C644 C645 1.415 . S
C645 H615 0.950 . S
C645 C640 1.363 . S
C645 C644 1.415 . S
H646 C643 0.999 . S
H647 C628 0.913 . S
H648 C666 0.951 . S
H649 C668 0.951 . S
H650 C670 0.950 1_565 S
H651 C671 0.950 1_565 S
H652 C673 0.950 . S
H653 C676 0.950 . S
H654 C677 0.950 . S
H655 C679 0.950 . S
H656 C680 0.950 . S
H657 C681 0.951 1_565 S
H658 C683 0.951 1_565 S
H659 C685 0.950 . S
H660 C686 0.950 . S
H661 C688 0.950 . S
H662 C691 0.950 . S
H663 C692 0.950 . S
H664 C694 0.950 . S
H665 C695 0.950 . S
C666 H648 0.951 . S
C666 C667 1.366 . S
C666 C668 1.388 . S
C667 C666 1.366 . S
C667 C671 1.385 . S
C668 H649 0.951 . S
C668 C666 1.388 . S
C668 C669 1.366 . S
C669 C668 1.366 . S
C669 C670 1.414 . S
C669 C672 1.499 . S
C670 H650 0.950 1_545 S
C670 C669 1.414 . S
C670 C671 1.374 . S
C671 H651 0.950 1_545 S
C671 C667 1.385 . S
C671 C670 1.374 . S
C672 C669 1.499 . S
C672 C673 1.373 . S
C672 C674 1.389 . S
C673 H652 0.950 . S
C673 C672 1.373 . S
C673 C689 1.377 . S
C674 C672 1.389 . S
C674 C675 1.524 . S
C674 C688 1.377 . S
C675 C674 1.524 . S
C675 C676 1.397 . S
C675 C680 1.363 . S
C676 H653 0.950 . S
C676 C675 1.397 . S
C676 C677 1.334 . S
C677 H654 0.950 . S
C677 C676 1.334 . S
C677 C678 1.287 . S
C678 C677 1.287 . S
C678 C679 1.524 . S
C678 H697 0.913 . S
C679 H655 0.950 . S
C679 C678 1.524 . S
C679 C680 1.415 . S
C680 H656 0.950 . S
C680 C675 1.363 . S
C680 C679 1.415 . S
C681 H657 0.951 1_545 S
C681 C682 1.366 . S
C681 C683 1.388 . S
C682 C681 1.366 . S
C682 C686 1.385 . S
C683 H658 0.951 1_545 S
C683 C681 1.388 . S
C683 C684 1.366 . S
C684 C683 1.366 . S
C684 C685 1.414 . S
C684 C687 1.499 . S
C685 H659 0.950 . S
C685 C684 1.414 . S
C685 C686 1.374 . S
C686 H660 0.950 . S
C686 C682 1.385 . S
C686 C685 1.374 . S
C687 C684 1.499 . S
C687 C688 1.373 . S
C687 C689 1.389 . S
C688 H661 0.950 . S
C688 C674 1.377 . S
C688 C687 1.373 . S
C689 C673 1.377 . S
C689 C687 1.389 . S
C689 C690 1.524 . S
C690 C689 1.524 . S
C690 C691 1.397 . S
C690 C695 1.363 1_545 S
C691 H662 0.950 . S
C691 C690 1.397 . S
C691 C692 1.334 . S
C692 H663 0.950 . S
C692 C691 1.334 . S
C692 C693 1.284 1_545 S
C693 C692 1.284 1_565 S
C693 C694 1.525 . S
C693 H696 1.002 . S
C694 H664 0.950 . S
C694 C693 1.525 . S
C694 C695 1.415 . S
C695 H665 0.950 . S
C695 C690 1.363 1_565 S
C695 C694 1.415 . S
H696 C693 1.002 . S
H697 C678 0.913 . S
H698 C716 0.950 . S
H699 C718 0.951 . S
H700 C720 0.950 . S
H701 C721 0.950 . S
H702 C723 0.950 . S
H703 C726 0.941 1_556 S
H704 C727 0.950 . S
H705 C729 0.950 . S
H706 C730 0.950 . S
H707 C731 0.951 . S
H708 C733 0.951 . S
H709 C735 0.950 . S
H710 C736 0.950 . S
H711 C738 0.950 . S
H712 C741 0.950 . S
H713 C742 0.950 . S
H714 C744 0.950 . S
H715 C745 0.950 . S
C716 H698 0.950 . S
C716 C717 1.366 . S
C716 C718 1.388 . S
C717 C716 1.366 . S
C717 C721 1.385 . S
C718 H699 0.951 . S
C718 C716 1.388 . S
C718 C719 1.366 . S
C719 C718 1.366 . S
C719 C720 1.414 . S
C719 C722 1.499 . S
C720 H700 0.950 . S
C720 C719 1.414 . S
C720 C721 1.374 . S
C721 H701 0.950 . S
C721 C717 1.385 . S
C721 C720 1.374 . S
C722 C719 1.499 . S
C722 C723 1.373 . S
C722 C724 1.389 . S
C723 H702 0.950 . S
C723 C722 1.373 . S
C723 C739 1.377 . S
C724 C722 1.389 . S
C724 C725 1.524 . S
C724 C738 1.377 . S
C725 C724 1.524 . S
C725 C726 1.397 1_556 S
C725 C730 1.363 . S
C726 H703 0.941 1_554 S
C726 C725 1.397 1_554 S
C726 C727 1.334 . S
C727 H704 0.950 . S
C727 C726 1.334 . S
C727 C728 1.287 . S
C728 C727 1.287 . S
C728 C729 1.524 . S
C728 H747 0.913 . S
C729 H705 0.950 . S
C729 C728 1.524 . S
C729 C730 1.415 1_554 S
C730 H706 0.950 . S
C730 C725 1.363 . S
C730 C729 1.415 1_556 S
C731 H707 0.951 . S
C731 C732 1.366 . S
C731 C733 1.388 . S
C732 C731 1.366 . S
C732 C736 1.385 . S
C733 H708 0.951 . S
C733 C731 1.388 . S
C733 C734 1.366 . S
C734 C733 1.366 . S
C734 C735 1.414 . S
C734 C737 1.499 . S
C735 H709 0.950 . S
C735 C734 1.414 . S
C735 C736 1.374 . S
C736 H710 0.950 . S
C736 C732 1.385 . S
C736 C735 1.374 . S
C737 C734 1.499 . S
C737 C738 1.373 . S
C737 C739 1.389 . S
C738 H711 0.950 . S
C738 C724 1.377 . S
C738 C737 1.373 . S
C739 C723 1.377 . S
C739 C737 1.389 . S
C739 C740 1.524 . S
C740 C739 1.524 . S
C740 C741 1.397 . S
C740 C745 1.363 . S
C741 H712 0.950 . S
C741 C740 1.397 . S
C741 C742 1.334 . S
C742 H713 0.950 . S
C742 C741 1.334 . S
C742 C743 1.287 . S
C743 C742 1.287 . S
C743 C744 1.524 . S
C743 H746 0.999 . S
C744 H714 0.950 . S
C744 C743 1.524 . S
C744 C745 1.415 . S
C745 H715 0.950 . S
C745 C740 1.363 . S
C745 C744 1.415 . S
H746 C743 0.999 . S
H747 C728 0.913 . S
H748 C766 0.951 1_655 S
H749 C768 0.951 1_655 S
H750 C770 0.950 . S
H751 C771 0.950 . S
H752 C773 0.950 . S
H753 C776 0.950 . S
H754 C777 0.950 . S
H755 C779 0.950 . S
H756 C780 0.950 1_655 S
H757 C781 0.951 . S
H758 C783 0.951 . S
H759 C785 0.950 1_655 S
H760 C786 0.950 1_655 S
H761 C788 0.950 . S
H762 C791 0.950 . S
H763 C792 0.950 . S
H764 C794 0.950 . S
H765 C795 0.950 . S
C766 H748 0.951 1_455 S
C766 C767 1.366 . S
C766 C768 1.388 . S
C767 C766 1.366 . S
C767 C771 1.385 . S
C768 H749 0.951 1_455 S
C768 C766 1.388 . S
C768 C769 1.366 . S
C769 C768 1.366 . S
C769 C770 1.414 . S
C769 C772 1.499 . S
C770 H750 0.950 . S
C770 C769 1.414 . S
C770 C771 1.374 . S
C771 H751 0.950 . S
C771 C767 1.385 . S
C771 C770 1.374 . S
C772 C769 1.499 . S
C772 C773 1.373 . S
C772 C774 1.389 . S
C773 H752 0.950 . S
C773 C772 1.373 . S
C773 C789 1.377 . S
C774 C772 1.389 . S
C774 C775 1.524 . S
C774 C788 1.377 . S
C775 C774 1.524 . S
C775 C776 1.397 . S
C775 C780 1.363 . S
C776 H753 0.950 . S
C776 C775 1.397 . S
C776 C777 1.334 . S
C777 H754 0.950 . S
C777 C776 1.334 . S
C777 C778 1.287 . S
C778 C777 1.287 . S
C778 C779 1.524 . S
C778 H797 0.913 . S
C779 H755 0.950 . S
C779 C778 1.524 . S
C779 C780 1.415 . S
C780 H756 0.950 1_455 S
C780 C775 1.363 . S
C780 C779 1.415 . S
C781 H757 0.951 . S
C781 C782 1.366 . S
C781 C783 1.388 . S
C782 C781 1.366 . S
C782 C786 1.385 . S
C783 H758 0.951 . S
C783 C781 1.388 . S
C783 C784 1.366 . S
C784 C783 1.366 . S
C784 C785 1.414 . S
C784 C787 1.499 . S
C785 H759 0.950 1_455 S
C785 C784 1.414 . S
C785 C786 1.374 . S
C786 H760 0.950 1_455 S
C786 C782 1.385 . S
C786 C785 1.374 . S
C787 C784 1.499 . S
C787 C788 1.373 . S
C787 C789 1.389 . S
C788 H761 0.950 . S
C788 C774 1.377 . S
C788 C787 1.373 . S
C789 C773 1.377 . S
C789 C787 1.389 . S
C789 C790 1.524 . S
C790 C789 1.524 . S
C790 C791 1.397 1_455 S
C790 C795 1.363 . S
C791 H762 0.950 . S
C791 C790 1.397 1_655 S
C791 C792 1.334 . S
C792 H763 0.950 . S
C792 C791 1.334 . S
C792 C793 1.287 . S
C793 C792 1.287 . S
C793 C794 1.524 1_655 S
C793 H796 0.999 . S
C794 H764 0.950 . S
C794 C793 1.524 1_455 S
C794 C795 1.415 . S
C795 H765 0.950 . S
C795 C790 1.363 . S
C795 C794 1.415 . S
H796 C793 0.999 . S
H797 C778 0.913 . S
C232 C61 1.521 . S
C217 C10 1.522 . S
C267 C17 1.523 . S
C282 C131 1.523 . S
C317 C36 1.526 . S
C332 C183 1.525 . S
C367 C5 1.525 . S
C382 C77 1.524 . S
C432 C121 1.524 . S
C417 C16 1.524 . S
C467 C31 1.524 . S
C482 C167 1.524 . S
C532 C114 1.522 . S
C517 C30 1.522 . S
C567 C3 1.546 1_655 S
C582 C174 1.524 . S
C632 C68 1.523 . S
C617 C18 1.523 1_565 S
C682 C130 1.524 . S
C667 C29 1.525 . S
C732 C184 1.525 . S
C717 C4 1.525 1_556 S
C767 C23 1.523 . S
C782 C78 1.523 . S
