# Generated by pormake.
# Topology gar, (4,6)-cn, num edge types: 1
# Building blocks:
#     Node 0, Type 0, BuildingBlock: UXUYUI_clean_sbu_0, # of connection points: 4
#     Node 1, Type 0, BuildingBlock: UXUYUI_clean_sbu_0, # of connection points: 4
#     Node 2, Type 0, BuildingBlock: UXUYUI_clean_sbu_0, # of connection points: 4
#     Node 3, Type 0, BuildingBlock: UXUYUI_clean_sbu_0, # of connection points: 4
#     Node 4, Type 0, BuildingBlock: UXUYUI_clean_sbu_0, # of connection points: 4
#     Node 5, Type 0, BuildingBlock: UXUYUI_clean_sbu_0, # of connection points: 4
#     Node 6, Type 0, BuildingBlock: UXUYUI_clean_sbu_0, # of connection points: 4
#     Node 7, Type 0, BuildingBlock: UXUYUI_clean_sbu_0, # of connection points: 4
#     Node 8, Type 0, BuildingBlock: UXUYUI_clean_sbu_0, # of connection points: 4
#     Node 9, Type 0, BuildingBlock: UXUYUI_clean_sbu_0, # of connection points: 4
#     Node 10, Type 0, BuildingBlock: UXUYUI_clean_sbu_0, # of connection points: 4
#     Node 11, Type 0, BuildingBlock: UXUYUI_clean_sbu_0, # of connection points: 4
#     Node 12, Type 0, BuildingBlock: UXUYUI_clean_sbu_0, # of connection points: 4
#     Node 13, Type 0, BuildingBlock: UXUYUI_clean_sbu_0, # of connection points: 4
#     Node 14, Type 0, BuildingBlock: UXUYUI_clean_sbu_0, # of connection points: 4
#     Node 15, Type 0, BuildingBlock: UXUYUI_clean_sbu_0, # of connection points: 4
#     Node 16, Type 0, BuildingBlock: UXUYUI_clean_sbu_0, # of connection points: 4
#     Node 17, Type 0, BuildingBlock: UXUYUI_clean_sbu_0, # of connection points: 4
#     Node 18, Type 0, BuildingBlock: UXUYUI_clean_sbu_0, # of connection points: 4
#     Node 19, Type 0, BuildingBlock: UXUYUI_clean_sbu_0, # of connection points: 4
#     Node 20, Type 0, BuildingBlock: UXUYUI_clean_sbu_0, # of connection points: 4
#     Node 21, Type 0, BuildingBlock: UXUYUI_clean_sbu_0, # of connection points: 4
#     Node 22, Type 0, BuildingBlock: UXUYUI_clean_sbu_0, # of connection points: 4
#     Node 23, Type 0, BuildingBlock: UXUYUI_clean_sbu_0, # of connection points: 4
#     Node 24, Type 1, BuildingBlock: KUMBUR_clean_sbu_0, # of connection points: 6
#     Node 25, Type 1, BuildingBlock: KUMBUR_clean_sbu_0, # of connection points: 6
#     Node 26, Type 1, BuildingBlock: KUMBUR_clean_sbu_0, # of connection points: 6
#     Node 27, Type 1, BuildingBlock: KUMBUR_clean_sbu_0, # of connection points: 6
#     Node 28, Type 1, BuildingBlock: KUMBUR_clean_sbu_0, # of connection points: 6
#     Node 29, Type 1, BuildingBlock: KUMBUR_clean_sbu_0, # of connection points: 6
#     Node 30, Type 1, BuildingBlock: KUMBUR_clean_sbu_0, # of connection points: 6
#     Node 31, Type 1, BuildingBlock: KUMBUR_clean_sbu_0, # of connection points: 6
#     Node 32, Type 1, BuildingBlock: KUMBUR_clean_sbu_0, # of connection points: 6
#     Node 33, Type 1, BuildingBlock: KUMBUR_clean_sbu_0, # of connection points: 6
#     Node 34, Type 1, BuildingBlock: KUMBUR_clean_sbu_0, # of connection points: 6
#     Node 35, Type 1, BuildingBlock: KUMBUR_clean_sbu_0, # of connection points: 6
#     Node 36, Type 1, BuildingBlock: KUMBUR_clean_sbu_0, # of connection points: 6
#     Node 37, Type 1, BuildingBlock: KUMBUR_clean_sbu_0, # of connection points: 6
#     Node 38, Type 1, BuildingBlock: KUMBUR_clean_sbu_0, # of connection points: 6
#     Node 39, Type 1, BuildingBlock: KUMBUR_clean_sbu_0, # of connection points: 6
#     Edge 40, Type (0, 1), BuildingBlock: MIFKUJ_clean_linker_0, # of connection points: 2
#     Edge 41, Type (0, 1), BuildingBlock: MIFKUJ_clean_linker_0, # of connection points: 2
#     Edge 42, Type (0, 1), BuildingBlock: MIFKUJ_clean_linker_0, # of connection points: 2
#     Edge 43, Type (0, 1), BuildingBlock: MIFKUJ_clean_linker_0, # of connection points: 2
#     Edge 44, Type (0, 1), BuildingBlock: MIFKUJ_clean_linker_0, # of connection points: 2
#     Edge 45, Type (0, 1), BuildingBlock: MIFKUJ_clean_linker_0, # of connection points: 2
#     Edge 46, Type (0, 1), BuildingBlock: MIFKUJ_clean_linker_0, # of connection points: 2
#     Edge 47, Type (0, 1), BuildingBlock: MIFKUJ_clean_linker_0, # of connection points: 2
#     Edge 48, Type (0, 1), BuildingBlock: MIFKUJ_clean_linker_0, # of connection points: 2
#     Edge 49, Type (0, 1), BuildingBlock: MIFKUJ_clean_linker_0, # of connection points: 2
#     Edge 50, Type (0, 1), BuildingBlock: MIFKUJ_clean_linker_0, # of connection points: 2
#     Edge 51, Type (0, 1), BuildingBlock: MIFKUJ_clean_linker_0, # of connection points: 2
#     Edge 52, Type (0, 1), BuildingBlock: MIFKUJ_clean_linker_0, # of connection points: 2
#     Edge 53, Type (0, 1), BuildingBlock: MIFKUJ_clean_linker_0, # of connection points: 2
#     Edge 54, Type (0, 1), BuildingBlock: MIFKUJ_clean_linker_0, # of connection points: 2
#     Edge 55, Type (0, 1), BuildingBlock: MIFKUJ_clean_linker_0, # of connection points: 2
#     Edge 56, Type (0, 1), BuildingBlock: MIFKUJ_clean_linker_0, # of connection points: 2
#     Edge 57, Type (0, 1), BuildingBlock: MIFKUJ_clean_linker_0, # of connection points: 2
#     Edge 58, Type (0, 1), BuildingBlock: MIFKUJ_clean_linker_0, # of connection points: 2
#     Edge 59, Type (0, 1), BuildingBlock: MIFKUJ_clean_linker_0, # of connection points: 2
#     Edge 60, Type (0, 1), BuildingBlock: MIFKUJ_clean_linker_0, # of connection points: 2
#     Edge 61, Type (0, 1), BuildingBlock: MIFKUJ_clean_linker_0, # of connection points: 2
#     Edge 62, Type (0, 1), BuildingBlock: MIFKUJ_clean_linker_0, # of connection points: 2
#     Edge 63, Type (0, 1), BuildingBlock: MIFKUJ_clean_linker_0, # of connection points: 2
#     Edge 64, Type (0, 1), BuildingBlock: MIFKUJ_clean_linker_0, # of connection points: 2
#     Edge 65, Type (0, 1), BuildingBlock: MIFKUJ_clean_linker_0, # of connection points: 2
#     Edge 66, Type (0, 1), BuildingBlock: MIFKUJ_clean_linker_0, # of connection points: 2
#     Edge 67, Type (0, 1), BuildingBlock: MIFKUJ_clean_linker_0, # of connection points: 2
#     Edge 68, Type (0, 1), BuildingBlock: MIFKUJ_clean_linker_0, # of connection points: 2
#     Edge 69, Type (0, 1), BuildingBlock: MIFKUJ_clean_linker_0, # of connection points: 2
#     Edge 70, Type (0, 1), BuildingBlock: MIFKUJ_clean_linker_0, # of connection points: 2
#     Edge 71, Type (0, 1), BuildingBlock: MIFKUJ_clean_linker_0, # of connection points: 2
#     Edge 72, Type (0, 1), BuildingBlock: MIFKUJ_clean_linker_0, # of connection points: 2
#     Edge 73, Type (0, 1), BuildingBlock: MIFKUJ_clean_linker_0, # of connection points: 2
#     Edge 74, Type (0, 1), BuildingBlock: MIFKUJ_clean_linker_0, # of connection points: 2
#     Edge 75, Type (0, 1), BuildingBlock: MIFKUJ_clean_linker_0, # of connection points: 2
#     Edge 76, Type (0, 1), BuildingBlock: MIFKUJ_clean_linker_0, # of connection points: 2
#     Edge 77, Type (0, 1), BuildingBlock: MIFKUJ_clean_linker_0, # of connection points: 2
#     Edge 78, Type (0, 1), BuildingBlock: MIFKUJ_clean_linker_0, # of connection points: 2
#     Edge 79, Type (0, 1), BuildingBlock: MIFKUJ_clean_linker_0, # of connection points: 2
#     Edge 80, Type (0, 1), BuildingBlock: MIFKUJ_clean_linker_0, # of connection points: 2
#     Edge 81, Type (0, 1), BuildingBlock: MIFKUJ_clean_linker_0, # of connection points: 2
#     Edge 82, Type (0, 1), BuildingBlock: MIFKUJ_clean_linker_0, # of connection points: 2
#     Edge 83, Type (0, 1), BuildingBlock: MIFKUJ_clean_linker_0, # of connection points: 2
#     Edge 84, Type (0, 1), BuildingBlock: MIFKUJ_clean_linker_0, # of connection points: 2
#     Edge 85, Type (0, 1), BuildingBlock: MIFKUJ_clean_linker_0, # of connection points: 2
#     Edge 86, Type (0, 1), BuildingBlock: MIFKUJ_clean_linker_0, # of connection points: 2
#     Edge 87, Type (0, 1), BuildingBlock: MIFKUJ_clean_linker_0, # of connection points: 2
#     Edge 88, Type (0, 1), BuildingBlock: MIFKUJ_clean_linker_0, # of connection points: 2
#     Edge 89, Type (0, 1), BuildingBlock: MIFKUJ_clean_linker_0, # of connection points: 2
#     Edge 90, Type (0, 1), BuildingBlock: MIFKUJ_clean_linker_0, # of connection points: 2
#     Edge 91, Type (0, 1), BuildingBlock: MIFKUJ_clean_linker_0, # of connection points: 2
#     Edge 92, Type (0, 1), BuildingBlock: MIFKUJ_clean_linker_0, # of connection points: 2
#     Edge 93, Type (0, 1), BuildingBlock: MIFKUJ_clean_linker_0, # of connection points: 2
#     Edge 94, Type (0, 1), BuildingBlock: MIFKUJ_clean_linker_0, # of connection points: 2
#     Edge 95, Type (0, 1), BuildingBlock: MIFKUJ_clean_linker_0, # of connection points: 2
#     Edge 96, Type (0, 1), BuildingBlock: MIFKUJ_clean_linker_0, # of connection points: 2
#     Edge 97, Type (0, 1), BuildingBlock: MIFKUJ_clean_linker_0, # of connection points: 2
#     Edge 98, Type (0, 1), BuildingBlock: MIFKUJ_clean_linker_0, # of connection points: 2
#     Edge 99, Type (0, 1), BuildingBlock: MIFKUJ_clean_linker_0, # of connection points: 2
#     Edge 100, Type (0, 1), BuildingBlock: MIFKUJ_clean_linker_0, # of connection points: 2
#     Edge 101, Type (0, 1), BuildingBlock: MIFKUJ_clean_linker_0, # of connection points: 2
#     Edge 102, Type (0, 1), BuildingBlock: MIFKUJ_clean_linker_0, # of connection points: 2
#     Edge 103, Type (0, 1), BuildingBlock: MIFKUJ_clean_linker_0, # of connection points: 2
#     Edge 104, Type (0, 1), BuildingBlock: MIFKUJ_clean_linker_0, # of connection points: 2
#     Edge 105, Type (0, 1), BuildingBlock: MIFKUJ_clean_linker_0, # of connection points: 2
#     Edge 106, Type (0, 1), BuildingBlock: MIFKUJ_clean_linker_0, # of connection points: 2
#     Edge 107, Type (0, 1), BuildingBlock: MIFKUJ_clean_linker_0, # of connection points: 2
#     Edge 108, Type (0, 1), BuildingBlock: MIFKUJ_clean_linker_0, # of connection points: 2
#     Edge 109, Type (0, 1), BuildingBlock: MIFKUJ_clean_linker_0, # of connection points: 2
#     Edge 110, Type (0, 1), BuildingBlock: MIFKUJ_clean_linker_0, # of connection points: 2
#     Edge 111, Type (0, 1), BuildingBlock: MIFKUJ_clean_linker_0, # of connection points: 2
#     Edge 112, Type (0, 1), BuildingBlock: MIFKUJ_clean_linker_0, # of connection points: 2
#     Edge 113, Type (0, 1), BuildingBlock: MIFKUJ_clean_linker_0, # of connection points: 2
#     Edge 114, Type (0, 1), BuildingBlock: MIFKUJ_clean_linker_0, # of connection points: 2
#     Edge 115, Type (0, 1), BuildingBlock: MIFKUJ_clean_linker_0, # of connection points: 2
#     Edge 116, Type (0, 1), BuildingBlock: MIFKUJ_clean_linker_0, # of connection points: 2
#     Edge 117, Type (0, 1), BuildingBlock: MIFKUJ_clean_linker_0, # of connection points: 2
#     Edge 118, Type (0, 1), BuildingBlock: MIFKUJ_clean_linker_0, # of connection points: 2
#     Edge 119, Type (0, 1), BuildingBlock: MIFKUJ_clean_linker_0, # of connection points: 2
#     Edge 120, Type (0, 1), BuildingBlock: MIFKUJ_clean_linker_0, # of connection points: 2
#     Edge 121, Type (0, 1), BuildingBlock: MIFKUJ_clean_linker_0, # of connection points: 2
#     Edge 122, Type (0, 1), BuildingBlock: MIFKUJ_clean_linker_0, # of connection points: 2
#     Edge 123, Type (0, 1), BuildingBlock: MIFKUJ_clean_linker_0, # of connection points: 2
#     Edge 124, Type (0, 1), BuildingBlock: MIFKUJ_clean_linker_0, # of connection points: 2
#     Edge 125, Type (0, 1), BuildingBlock: MIFKUJ_clean_linker_0, # of connection points: 2
#     Edge 126, Type (0, 1), BuildingBlock: MIFKUJ_clean_linker_0, # of connection points: 2
#     Edge 127, Type (0, 1), BuildingBlock: MIFKUJ_clean_linker_0, # of connection points: 2
#     Edge 128, Type (0, 1), BuildingBlock: MIFKUJ_clean_linker_0, # of connection points: 2
#     Edge 129, Type (0, 1), BuildingBlock: MIFKUJ_clean_linker_0, # of connection points: 2
#     Edge 130, Type (0, 1), BuildingBlock: MIFKUJ_clean_linker_0, # of connection points: 2
#     Edge 131, Type (0, 1), BuildingBlock: MIFKUJ_clean_linker_0, # of connection points: 2
#     Edge 132, Type (0, 1), BuildingBlock: MIFKUJ_clean_linker_0, # of connection points: 2
#     Edge 133, Type (0, 1), BuildingBlock: MIFKUJ_clean_linker_0, # of connection points: 2
#     Edge 134, Type (0, 1), BuildingBlock: MIFKUJ_clean_linker_0, # of connection points: 2
#     Edge 135, Type (0, 1), BuildingBlock: MIFKUJ_clean_linker_0, # of connection points: 2
# Relax obj value: 0.137
# Max RMSD: 0.299
# Mean RMSD: 0.194
data_MOF--net-gar--node1-UXUYUI_clean_sbu_0--node2-KUMBUR_clean_sbu_0--edge1-MIFKUJ_clean_linker_0
_symmetry_space_group_name_H-M    P1
_symmetry_Int_Tables_number       1
_symmetry_cell_setting            triclinic
loop_
_symmetry_equiv_pos_as_xyz
'x, y, z'
_cell_length_a     88.857299
_cell_length_b     84.758862
_cell_length_c     84.600361
_cell_angle_alpha  99.863317
_cell_angle_beta   92.760729
_cell_angle_gamma 101.95598
loop_
_atom_site_label
_atom_site_type_symbol
_atom_site_fract_x
_atom_site_fract_y
_atom_site_fract_z
_atom_type_partial_charge
Li0 Li 0.07171 0.30422 0.37688 0.0
Li1 Li 0.09072 0.3196 0.39761 0.0
Li2 Li 0.09896 0.30485 0.37484 0.0
Li3 Li 0.08554 0.29042 0.39488 0.0
C4 C 0.08694 0.32616 0.35987 0.0
N5 N 0.08415 0.33232 0.3289 0.0
C6 C 0.08972 0.3423 0.35719 0.0
C7 C 0.08266 0.31316 0.34674 0.0
C8 C 0.08826 0.34516 0.34146 0.0
C9 C 0.08135 0.31653 0.3312 0.0
C10 C 0.06397 0.31269 0.41193 0.0
C11 C 0.05529 0.31577 0.43863 0.0
N12 N 0.05008 0.32921 0.43606 0.0
C13 C 0.05844 0.32645 0.40951 0.0
C14 C 0.06234 0.30724 0.42657 0.0
C15 C 0.0515 0.33467 0.42188 0.0
C16 C 0.04175 0.28985 0.36071 0.0
N17 N 0.05242 0.30401 0.36613 0.0
C18 C 0.03551 0.31987 0.35732 0.0
C19 C 0.04956 0.31883 0.36457 0.0
C20 C 0.02408 0.30554 0.35184 0.0
C21 C 0.02738 0.29033 0.35349 0.0
H22 H 0.04432 0.27824 0.36223 0.0
H23 H 0.05817 0.32993 0.36911 0.0
C24 C 0.1014 0.35312 0.40493 0.0
N25 N 0.09608 0.34013 0.4121 0.0
C26 C 0.10311 0.36907 0.41338 0.0
C27 C 0.09547 0.35803 0.43703 0.0
C28 C 0.09368 0.34225 0.42802 0.0
C29 C 0.09966 0.37158 0.42946 0.0
H30 H 0.10369 0.35108 0.39243 0.0
H31 H 0.08964 0.33176 0.43356 0.0
C32 C 0.08641 0.27091 0.36508 0.0
N33 N 0.09641 0.24256 0.35402 0.0
C34 C 0.10076 0.26897 0.37097 0.0
C35 C 0.07716 0.25845 0.35356 0.0
C36 C 0.1056 0.25454 0.36523 0.0
C37 C 0.08242 0.2442 0.34811 0.0
C38 C 0.11462 0.31231 0.41195 0.0
C39 C 0.12929 0.32236 0.41227 0.0
C40 C 0.10871 0.30925 0.42641 0.0
C41 C 0.13776 0.32926 0.42707 0.0
C42 C 0.11754 0.31636 0.44096 0.0
N43 N 0.13175 0.32615 0.44099 0.0
C44 C 0.12569 0.32116 0.36528 0.0
C45 C 0.11469 0.29686 0.34645 0.0
C46 C 0.13738 0.32543 0.35542 0.0
N47 N 0.1148 0.30703 0.36076 0.0
C48 C 0.12611 0.30075 0.33609 0.0
C49 C 0.13764 0.3152 0.3406 0.0
H50 H 0.12498 0.32936 0.37637 0.0
H51 H 0.10558 0.28599 0.34288 0.0
C52 C 0.06847 0.26462 0.40754 0.0
N53 N 0.0831 0.27237 0.40573 0.0
C54 C 0.0659 0.25233 0.41679 0.0
C55 C 0.09355 0.25599 0.42183 0.0
C56 C 0.09558 0.26809 0.41234 0.0
C57 C 0.07854 0.24811 0.42433 0.0
H58 H 0.05879 0.26836 0.40216 0.0
H59 H 0.10709 0.27442 0.41062 0.0
O60 O 0.08844 0.32325 0.37528 0.0
O61 O 0.07095 0.30457 0.40006 0.0
O62 O 0.08132 0.28487 0.37052 0.0
O63 O 0.10608 0.30552 0.3976 0.0
H64 H 0.0929 0.35257 0.36713 0.0
H65 H 0.08036 0.30058 0.34842 0.0
H66 H 0.09039 0.3576 0.33925 0.0
H67 H 0.07808 0.30657 0.32097 0.0
H68 H 0.054 0.31175 0.45005 0.0
H69 H 0.05977 0.33092 0.39832 0.0
H70 H 0.06656 0.29661 0.42863 0.0
H71 H 0.04729 0.34542 0.42023 0.0
H72 H 0.03366 0.33183 0.35603 0.0
H73 H 0.01887 0.27899 0.34959 0.0
H74 H 0.10649 0.37932 0.40725 0.0
H75 H 0.09265 0.35961 0.44943 0.0
H76 H 0.10814 0.27848 0.37982 0.0
H77 H 0.06603 0.25978 0.34888 0.0
H78 H 0.11668 0.25287 0.36968 0.0
H79 H 0.07538 0.23445 0.3392 0.0
H80 H 0.13415 0.32476 0.40123 0.0
H81 H 0.09729 0.30173 0.42644 0.0
H82 H 0.14912 0.33708 0.42749 0.0
H83 H 0.11304 0.31418 0.45224 0.0
H84 H 0.14593 0.33678 0.35918 0.0
H85 H 0.126 0.29255 0.32474 0.0
H86 H 0.05416 0.24664 0.41853 0.0
H87 H 0.10358 0.25294 0.42731 0.0
Li88 Li 0.00886 0.79473 0.65373 0.0
Li89 Li 0.02323 0.78209 0.67143 0.0
Li90 Li 0.00435 0.76519 0.64861 0.0
Li91 Li 0.99512 0.77876 0.67304 0.0
C92 C 0.03365 0.78922 0.63862 0.0
N93 N 0.05286 0.80668 0.61989 0.0
C94 C 0.04787 0.79911 0.64538 0.0
C95 C 0.0293 0.788 0.62228 0.0
C96 C 0.0574 0.80788 0.63572 0.0
C97 C 0.03914 0.797 0.61303 0.0
C98 C 0.01644 0.80861 0.69279 0.0
C99 C 0.01914 0.81087 0.72164 0.0
N100 N 0.02656 0.82686 0.72314 0.0
C101 C 0.024 0.82509 0.69461 0.0
C102 C 0.0139 0.80146 0.7064 0.0
C103 C 0.02907 0.8341 0.71006 0.0
C104 C 0.9994 0.81351 0.63205 0.0
N105 N 0.01058 0.8132 0.64347 0.0
C106 C 0.0265 0.83748 0.63754 0.0
C107 C 0.02374 0.82511 0.64668 0.0
C108 C 0.01547 0.83769 0.62517 0.0
C109 C 1.0016 0.82575 0.62273 0.0
H110 H 0.989 0.80398 0.62983 0.0
H111 H 0.03238 0.82462 0.65592 0.0
C112 C 0.04757 0.76829 0.67727 0.0
N113 N 0.04238 0.78213 0.68227 0.0
C114 C 0.06141 0.76623 0.6842 0.0
C115 C 0.06442 0.79286 0.70127 0.0
C116 C 0.05054 0.79445 0.69389 0.0
C117 C 0.06998 0.77855 0.6965 0.0
H118 H 0.04088 0.75879 0.66786 0.0
H119 H 0.04635 0.80546 0.69751 0.0
C120 C 0.97726 0.77052 0.63838 0.0
N121 N 0.9546 0.75327 0.61454 0.0
C122 C 0.96272 0.76324 0.64244 0.0
C123 C 0.98021 0.76918 0.62218 0.0
C124 C 0.95143 0.75454 0.63022 0.0
C125 C 0.96863 0.76036 0.6103 0.0
C126 C 0.00585 0.75078 0.68102 0.0
C127 C 0.99709 0.73484 0.67579 0.0
C128 C 0.01338 0.75519 0.69654 0.0
C129 C 0.9957 0.72368 0.68631 0.0
C130 C 0.01173 0.74368 0.70669 0.0
N131 N 1.00298 0.7283 0.70142 0.0
C132 C 0.01395 0.74295 0.62559 0.0
C133 C 0.9878 0.73411 0.63052 0.0
C134 C 0.01341 0.72826 0.61505 0.0
N135 N 1.0013 0.74556 0.6331 0.0
C136 C 0.98666 0.71928 0.61987 0.0
C137 C 0.99965 0.7161 0.61211 0.0
H138 H 0.02465 0.75208 0.62818 0.0
H139 H 0.97802 0.7363 0.63699 0.0
C140 C 0.97549 0.78952 0.69625 0.0
N141 N 0.97885 0.77628 0.68674 0.0
C142 C 0.96301 0.7875 0.7057 0.0
C143 C 0.95765 0.75833 0.69523 0.0
C144 C 0.97026 0.7609 0.68609 0.0
C145 C 0.95381 0.77175 0.70507 0.0
H146 H 0.98229 0.80168 0.69625 0.0
H147 H 0.97289 0.75067 0.67805 0.0
O148 O 0.02404 0.78078 0.64795 0.0
O149 O 0.0115 0.79962 0.67773 0.0
O150 O 0.98847 0.77904 0.65019 0.0
O151 O 0.00746 0.76179 0.67079 0.0
H152 H 0.05142 0.80017 0.658 0.0
H153 H 0.01842 0.78027 0.61683 0.0
H154 H 0.06838 0.81569 0.64081 0.0
H155 H 0.03587 0.79628 0.60041 0.0
H156 H 0.01727 0.80548 0.73228 0.0
H157 H 0.02598 0.83085 0.68421 0.0
H158 H 0.00786 0.78882 0.70524 0.0
H159 H 0.03499 0.84684 0.71165 0.0
H160 H 0.03726 0.84659 0.63992 0.0
H161 H 0.99285 0.82546 0.61325 0.0
H162 H 0.06538 0.75515 0.67988 0.0
H163 H 0.07057 0.80262 0.71077 0.0
H164 H 0.96015 0.76433 0.65489 0.0
H165 H 0.99137 0.77478 0.61882 0.0
H166 H 0.94014 0.7488 0.63319 0.0
H167 H 0.9708 0.75914 0.59773 0.0
H168 H 0.99131 0.73115 0.66377 0.0
H169 H 0.02056 0.7673 0.70068 0.0
H170 H 0.98885 0.71135 0.68245 0.0
H171 H 0.01747 0.74695 0.71874 0.0
H172 H 0.02386 0.72626 0.60976 0.0
H173 H 0.97579 0.71035 0.61794 0.0
H174 H 0.96022 0.7982 0.7129 0.0
H175 H 0.95081 0.746 0.69438 0.0
Li176 Li 0.57299 0.81035 0.87538 0.0
Li177 Li 0.59154 0.82483 0.8968 0.0
Li178 Li 0.59975 0.80927 0.87418 0.0
Li179 Li 0.58431 0.79539 0.89298 0.0
C180 C 0.59055 0.83245 0.85945 0.0
N181 N 0.59037 0.84036 0.82907 0.0
C182 C 0.59509 0.8488 0.85762 0.0
C183 C 0.58589 0.82013 0.8458 0.0
C184 C 0.59492 0.85254 0.84217 0.0
C185 C 0.5859 0.82437 0.83056 0.0
C186 C 0.56053 0.82011 0.90394 0.0
C187 C 0.53811 0.82302 0.91819 0.0
N188 N 0.53916 0.83816 0.91443 0.0
C189 C 0.56138 0.8357 0.90021 0.0
C190 C 0.5488 0.8137 0.91299 0.0
C191 C 0.55047 0.84464 0.90563 0.0
C192 C 0.54302 0.79701 0.85993 0.0
N193 N 0.55424 0.81094 0.86394 0.0
C194 C 0.53796 0.82656 0.85351 0.0
C195 C 0.552 0.82553 0.86084 0.0
C196 C 0.52601 0.81246 0.84947 0.0
C197 C 0.52871 0.79748 0.8526 0.0
H198 H 0.54509 0.78561 0.86273 0.0
H199 H 0.56101 0.8365 0.86432 0.0
C200 C 0.60654 0.85748 0.90601 0.0
N201 N 0.5977 0.84489 0.91164 0.0
C202 C 0.6096 0.87334 0.91505 0.0
C203 C 0.5954 0.8627 0.93605 0.0
C204 C 0.59238 0.84708 0.92648 0.0
C205 C 0.60371 0.87609 0.9301 0.0
H206 H 0.61065 0.85529 0.89418 0.0
H207 H 0.58523 0.83686 0.93056 0.0
C208 C 0.58585 0.77612 0.86337 0.0
N209 N 0.59476 0.74711 0.85237 0.0
C210 C 0.59945 0.77313 0.87006 0.0
C211 C 0.57678 0.76436 0.85111 0.0
C212 C 0.60375 0.75838 0.86433 0.0
C213 C 0.58148 0.74977 0.84571 0.0
C214 C 0.6131 0.81488 0.91215 0.0
C215 C 0.62869 0.82279 0.91391 0.0
C216 C 0.6052 0.813 0.92584 0.0
C217 C 0.63612 0.82876 0.92936 0.0
C218 C 0.61304 0.81913 0.94108 0.0
N219 N 0.6282 0.82683 0.94251 0.0
C220 C 0.62867 0.82258 0.86716 0.0
C221 C 0.61615 0.80061 0.84639 0.0
C222 C 0.64164 0.82548 0.85863 0.0
N223 N 0.61641 0.81019 0.86109 0.0
C224 C 0.62885 0.80323 0.83728 0.0
C225 C 0.64183 0.81574 0.84351 0.0
H226 H 0.6282 0.83043 0.87855 0.0
H227 H 0.60604 0.79114 0.84164 0.0
C228 C 0.56494 0.76824 0.90107 0.0
N229 N 0.57987 0.77666 0.90278 0.0
C230 C 0.56058 0.7547 0.90848 0.0
C231 C 0.5871 0.75869 0.91919 0.0
C232 C 0.59098 0.77201 0.91135 0.0
C233 C 0.57168 0.74989 0.91795 0.0
H234 H 0.55641 0.77216 0.89402 0.0
H235 H 0.60281 0.7788 0.91232 0.0
O236 O 0.59073 0.82869 0.87456 0.0
O237 O 0.57105 0.81107 0.89881 0.0
O238 O 0.58123 0.79038 0.8688 0.0
O239 O 0.60551 0.80919 0.89713 0.0
H240 H 0.59866 0.85851 0.86803 0.0
H241 H 0.58228 0.80742 0.84689 0.0
H242 H 0.5984 0.86514 0.84059 0.0
H243 H 0.58233 0.81496 0.81991 0.0
H244 H 0.52897 0.81821 0.92521 0.0
H245 H 0.57036 0.84088 0.89323 0.0
H246 H 0.54799 0.80165 0.91597 0.0
H247 H 0.551 0.85672 0.90284 0.0
H248 H 0.53648 0.83831 0.8511 0.0
H249 H 0.51976 0.78635 0.84983 0.0
H250 H 0.61604 0.88342 0.91012 0.0
H251 H 0.59048 0.86446 0.94753 0.0
H252 H 0.60665 0.78205 0.87954 0.0
H253 H 0.5662 0.76649 0.84584 0.0
H254 H 0.61425 0.75591 0.86939 0.0
H255 H 0.57457 0.74055 0.83622 0.0
H256 H 0.63505 0.82425 0.90349 0.0
H257 H 0.59308 0.80708 0.92471 0.0
H258 H 0.64818 0.83492 0.93089 0.0
H259 H 0.60704 0.81784 0.95177 0.0
H260 H 0.65133 0.83542 0.86366 0.0
H261 H 0.62863 0.79552 0.82562 0.0
H262 H 0.54864 0.74812 0.90682 0.0
H263 H 0.59605 0.75563 0.92645 0.0
Li264 Li 0.51473 0.29515 0.14621 0.0
Li265 Li 0.52495 0.28194 0.1666 0.0
Li266 Li 0.50765 0.26617 0.14478 0.0
Li267 Li 0.49771 0.28263 0.16589 0.0
C268 C 0.53933 0.27022 0.14064 0.0
N269 N 0.56135 0.25159 0.1354 0.0
C270 C 0.53768 0.25532 0.14609 0.0
C271 C 0.55223 0.27566 0.13261 0.0
C272 C 0.54892 0.24608 0.1433 0.0
C273 C 0.56323 0.26606 0.13006 0.0
C274 C 0.52458 0.31556 0.1793 0.0
C275 C 0.53089 0.33473 0.20452 0.0
N276 N 0.54209 0.3442 0.19771 0.0
C277 C 0.53604 0.3256 0.17252 0.0
C278 C 0.52187 0.32025 0.19539 0.0
C279 C 0.54481 0.33998 0.18204 0.0
C280 C 0.51036 0.32446 0.13763 0.0
N281 N 0.51819 0.31227 0.13447 0.0
C282 C 0.53087 0.32452 0.11395 0.0
C283 C 0.52827 0.31202 0.12292 0.0
C284 C 0.52292 0.33729 0.11688 0.0
C285 C 0.51255 0.33719 0.1289 0.0
H286 H 0.50241 0.32425 0.14692 0.0
H287 H 0.53418 0.30203 0.12061 0.0
C288 C 0.54444 0.26863 0.18582 0.0
N289 N 0.54323 0.28224 0.17978 0.0
C290 C 0.55805 0.26803 0.19435 0.0
C291 C 0.56916 0.29533 0.1901 0.0
C292 C 0.55534 0.29535 0.18156 0.0
C293 C 0.57067 0.28149 0.19657 0.0
H294 H 0.53508 0.25794 0.18354 0.0
H295 H 0.5545 0.30565 0.17595 0.0
C296 C 0.48429 0.27239 0.12931 0.0
N297 N 0.46601 0.25344 0.10267 0.0
C298 C 0.47047 0.26182 0.13124 0.0
C299 C 0.48878 0.27344 0.11385 0.0
C300 C 0.46139 0.25231 0.11761 0.0
C301 C 0.47939 0.26373 0.10053 0.0
C302 C 0.50555 0.25995 0.1825 0.0
C303 C 0.50009 0.24373 0.18435 0.0
C304 C 0.50943 0.27239 0.1961 0.0
C305 C 0.49861 0.24025 0.19983 0.0
C306 C 0.5078 0.26842 0.21137 0.0
N307 N 0.50246 0.25256 0.21291 0.0
C308 C 0.50998 0.24344 0.11671 0.0
C309 C 0.49195 0.23346 0.13437 0.0
C310 C 0.50779 0.22782 0.10729 0.0
N311 N 0.50249 0.24579 0.13024 0.0
C312 C 0.48911 0.21771 0.1251 0.0
C313 C 0.49752 0.21456 0.11167 0.0
H314 H 0.51817 0.25355 0.11363 0.0
H315 H 0.48603 0.23581 0.14512 0.0
C316 C 0.47929 0.29995 0.18487 0.0
N317 N 0.48101 0.28474 0.17824 0.0
C318 C 0.46716 0.30175 0.19439 0.0
C319 C 0.45885 0.27216 0.18998 0.0
C320 C 0.47109 0.27095 0.18049 0.0
C321 C 0.45678 0.28772 0.19706 0.0
H322 H 0.48737 0.31067 0.18277 0.0
H323 H 0.47271 0.25902 0.17489 0.0
O324 O 0.52859 0.27965 0.14339 0.0
O325 O 0.51559 0.30162 0.17007 0.0
O326 O 0.49353 0.28146 0.14249 0.0
O327 O 0.50683 0.26353 0.16739 0.0
H328 H 0.52786 0.25091 0.15242 0.0
H329 H 0.55378 0.28722 0.12844 0.0
H330 H 0.54777 0.23453 0.14744 0.0
H331 H 0.57326 0.27013 0.12385 0.0
H332 H 0.52894 0.33846 0.21699 0.0
H333 H 0.53837 0.32219 0.16012 0.0
H334 H 0.51282 0.31288 0.20079 0.0
H335 H 0.55381 0.34777 0.17697 0.0
H336 H 0.53878 0.32403 0.10461 0.0
H337 H 0.5063 0.34688 0.13159 0.0
H338 H 0.55884 0.25688 0.19866 0.0
H339 H 0.5786 0.30597 0.19146 0.0
H340 H 0.46687 0.26086 0.14315 0.0
H341 H 0.4995 0.28153 0.11219 0.0
H342 H 0.4507 0.244 0.11891 0.0
H343 H 0.48276 0.26432 0.08849 0.0
H344 H 0.49701 0.23396 0.17393 0.0
H345 H 0.51374 0.28494 0.19487 0.0
H346 H 0.4944 0.22775 0.20144 0.0
H347 H 0.51079 0.27794 0.222 0.0
H348 H 0.51469 0.22608 0.09721 0.0
H349 H 0.48077 0.20805 0.12872 0.0
H350 H 0.46598 0.31395 0.19971 0.0
H351 H 0.45094 0.26107 0.19154 0.0
Li352 Li 0.07452 0.82585 0.1124 0.0
Li353 Li 0.08909 0.81405 0.13149 0.0
Li354 Li 0.07075 0.79572 0.10998 0.0
Li355 Li 0.05955 0.81069 0.13285 0.0
C356 C 0.09674 0.81825 0.09558 0.0
N357 N 0.10972 0.83211 0.0708 0.0
C358 C 0.10762 0.83312 0.09898 0.0
C359 C 0.09255 0.81032 0.07961 0.0
C360 C 0.11402 0.83996 0.08627 0.0
C361 C 0.09923 0.81755 0.06724 0.0
C362 C 0.08441 0.84123 0.15014 0.0
C363 C 0.08696 0.85066 0.17889 0.0
N364 N 0.10076 0.86072 0.17767 0.0
C365 C 0.09858 0.85171 0.14915 0.0
C366 C 0.07852 0.8407 0.1651 0.0
C367 C 0.10669 0.86145 0.16322 0.0
C368 C 0.07098 0.84372 0.08583 0.0
N369 N 0.07439 0.84516 0.10197 0.0
C370 C 0.07564 0.87424 0.10557 0.0
C371 C 0.07682 0.86015 0.11178 0.0
C372 C 0.07175 0.87315 0.089 0.0
C373 C 0.06959 0.85751 0.07912 0.0
H374 H 0.06904 0.83183 0.07811 0.0
H375 H 0.07942 0.86119 0.12457 0.0
C376 C 0.12067 0.81184 0.13518 0.0
N377 N 0.10878 0.81526 0.14373 0.0
C378 C 0.13467 0.81095 0.14303 0.0
C379 C 0.12422 0.81746 0.16848 0.0
C380 C 0.11032 0.81797 0.16013 0.0
C381 C 0.13671 0.81371 0.15999 0.0
H382 H 0.11915 0.80934 0.12216 0.0
H383 H 0.10069 0.82029 0.16679 0.0
C384 C 0.04341 0.8006 0.09737 0.0
N385 N 0.02092 0.78361 0.07325 0.0
C386 C 0.02879 0.79331 0.10124 0.0
C387 C 0.0466 0.7992 0.08124 0.0
C388 C 0.01757 0.7848 0.08887 0.0
C389 C 0.03508 0.79056 0.06922 0.0
C390 C 0.07068 0.77832 0.13352 0.0
C391 C 0.05579 0.76853 0.13219 0.0
C392 C 0.08346 0.77115 0.13413 0.0
C393 C 0.05392 0.75161 0.13132 0.0
C394 C 0.0811 0.75419 0.1332 0.0
N395 N 0.06651 0.74485 0.13181 0.0
C396 C 0.08149 0.76828 0.09427 0.0
C397 C 0.05421 0.76342 0.09175 0.0
C398 C 0.08097 0.75187 0.0874 0.0
N399 N 0.06823 0.77374 0.09657 0.0
C400 C 0.05319 0.74702 0.08443 0.0
C401 C 0.06667 0.74095 0.08248 0.0
H402 H 0.0925 0.77651 0.0985 0.0
H403 H 0.04376 0.76757 0.09423 0.0
C404 C 0.03105 0.81801 0.14208 0.0
N405 N 0.04222 0.81017 0.14597 0.0
C406 C 0.01778 0.81721 0.15047 0.0
C407 C 0.0279 0.80075 0.16716 0.0
C408 C 0.04093 0.80173 0.15833 0.0
C409 C 0.01599 0.80842 0.16317 0.0
H410 H 0.03234 0.82468 0.13223 0.0
H411 H 0.04994 0.79557 0.16121 0.0
O412 O 0.09008 0.81157 0.10783 0.0
O413 O 0.07638 0.83148 0.13654 0.0
O414 O 0.05452 0.80902 0.10931 0.0
O415 O 0.07274 0.79479 0.13379 0.0
H416 H 0.11099 0.83937 0.1113 0.0
H417 H 0.08421 0.79874 0.07681 0.0
H418 H 0.12239 0.85153 0.0887 0.0
H419 H 0.09606 0.8116 0.05481 0.0
H420 H 0.08257 0.85036 0.19056 0.0
H421 H 0.1033 0.85224 0.13765 0.0
H422 H 0.06757 0.83265 0.16606 0.0
H423 H 0.1177 0.86957 0.16265 0.0
H424 H 0.07777 0.88591 0.11379 0.0
H425 H 0.06641 0.85577 0.06633 0.0
H426 H 0.14363 0.80765 0.13576 0.0
H427 H 0.12508 0.81995 0.18151 0.0
H428 H 0.02615 0.79408 0.11365 0.0
H429 H 0.0579 0.80451 0.07804 0.0
H430 H 0.00621 0.77909 0.0917 0.0
H431 H 0.03742 0.78933 0.05669 0.0
H432 H 0.04578 0.7739 0.13157 0.0
H433 H 0.09507 0.77858 0.13508 0.0
H434 H 0.04246 0.74385 0.13015 0.0
H435 H 0.09088 0.74843 0.13352 0.0
H436 H 0.09164 0.74769 0.08616 0.0
H437 H 0.04192 0.73895 0.08104 0.0
H438 H 0.00903 0.8235 0.14708 0.0
H439 H 0.02701 0.79374 0.17676 0.0
Li440 Li 0.52122 0.78437 0.43019 0.0
Li441 Li 0.50357 0.76611 0.40752 0.0
Li442 Li 0.51911 0.75376 0.42796 0.0
Li443 Li 0.53214 0.76888 0.40853 0.0
C444 C 0.49225 0.77105 0.44196 0.0
N445 N 0.47134 0.77948 0.46327 0.0
C446 C 0.48091 0.77898 0.43732 0.0
C447 C 0.49273 0.76708 0.45733 0.0
C448 C 0.47052 0.78324 0.4483 0.0
C449 C 0.48212 0.77154 0.46795 0.0
C450 C 0.52945 0.80008 0.40458 0.0
C451 C 0.53444 0.82378 0.3918 0.0
N452 N 0.54865 0.82879 0.40003 0.0
C453 C 0.54415 0.80544 0.41284 0.0
C454 C 0.52459 0.80929 0.39391 0.0
C455 C 0.55365 0.81999 0.4104 0.0
C456 C 0.5367 0.81489 0.45206 0.0
N457 N 0.52328 0.80639 0.44338 0.0
C458 C 0.51245 0.83031 0.44873 0.0
C459 C 0.51131 0.81387 0.44161 0.0
C460 C 0.52623 0.83957 0.45754 0.0
C461 C 0.5384 0.83147 0.45928 0.0
H462 H 0.54638 0.80908 0.45284 0.0
H463 H 0.50101 0.80726 0.4341 0.0
C464 C 0.47315 0.75032 0.39044 0.0
N465 N 0.48409 0.76451 0.39477 0.0
C466 C 0.45916 0.75012 0.38175 0.0
C467 C 0.46796 0.77905 0.38201 0.0
C468 C 0.48165 0.77872 0.39077 0.0
C469 C 0.4564 0.76463 0.37733 0.0
H470 H 0.47522 0.73915 0.39381 0.0
H471 H 0.49027 0.78994 0.39465 0.0
C472 C 0.5443 0.77325 0.4474 0.0
N473 N 0.55658 0.77518 0.4785 0.0
C474 C 0.55907 0.77042 0.45018 0.0
C475 C 0.53582 0.77711 0.46043 0.0
C476 C 0.56506 0.77143 0.46599 0.0
C477 C 0.54221 0.77803 0.47606 0.0
C478 C 0.52067 0.74084 0.39006 0.0
C479 C 0.53079 0.73035 0.39098 0.0
C480 C 0.51643 0.74439 0.37517 0.0
C481 C 0.5366 0.72365 0.37693 0.0
C482 C 0.52248 0.73744 0.36139 0.0
N483 N 0.53237 0.72731 0.36255 0.0
C484 C 0.50746 0.72691 0.44546 0.0
C485 C 0.53326 0.72973 0.43878 0.0
C486 C 0.50856 0.71326 0.45257 0.0
N487 N 0.51974 0.73491 0.43874 0.0
C488 C 0.53485 0.71617 0.4457 0.0
C489 C 0.52242 0.70761 0.4528 0.0
H490 H 0.49673 0.73104 0.44525 0.0
H491 H 0.54286 0.73605 0.43323 0.0
C492 C 0.55039 0.77584 0.38187 0.0
N493 N 0.54979 0.76938 0.39555 0.0
C494 C 0.56352 0.77673 0.37319 0.0
C495 C 0.57507 0.76397 0.39256 0.0
C496 C 0.56175 0.76335 0.40087 0.0
C497 C 0.57622 0.77087 0.37855 0.0
H498 H 0.54074 0.78048 0.37775 0.0
H499 H 0.56093 0.75801 0.41159 0.0
O500 O 0.50241 0.7666 0.43129 0.0
O501 O 0.51991 0.78587 0.40683 0.0
O502 O 0.53814 0.77194 0.43196 0.0
O503 O 0.5153 0.748 0.40372 0.0
H504 H 0.4802 0.78192 0.42541 0.0
H505 H 0.50117 0.76059 0.46102 0.0
H506 H 0.46178 0.78951 0.4449 0.0
H507 H 0.48243 0.76863 0.47991 0.0
H508 H 0.53081 0.83102 0.38359 0.0
H509 H 0.54821 0.79846 0.42104 0.0
H510 H 0.51335 0.80528 0.38727 0.0
H511 H 0.56502 0.82429 0.41675 0.0
H512 H 0.50262 0.83575 0.44709 0.0
H513 H 0.54939 0.838 0.4656 0.0
H514 H 0.45068 0.73867 0.37838 0.0
H515 H 0.46632 0.79061 0.37922 0.0
H516 H 0.56582 0.76741 0.44025 0.0
H517 H 0.52452 0.77958 0.45851 0.0
H518 H 0.57645 0.76923 0.46831 0.0
H519 H 0.53576 0.78105 0.48625 0.0
H520 H 0.53424 0.72756 0.40245 0.0
H521 H 0.50868 0.75259 0.37431 0.0
H522 H 0.54451 0.71558 0.37746 0.0
H523 H 0.51937 0.74014 0.34978 0.0
H524 H 0.49865 0.70731 0.45796 0.0
H525 H 0.5457 0.71228 0.44515 0.0
H526 H 0.56381 0.78228 0.36256 0.0
H527 H 0.58434 0.75896 0.39705 0.0
Li528 Li 0.57669 0.32564 0.61279 0.0
Li529 Li 0.59191 0.31541 0.63205 0.0
Li530 Li 0.57342 0.29597 0.61082 0.0
Li531 Li 0.56247 0.31256 0.63366 0.0
C532 C 0.60165 0.32074 0.59893 0.0
N533 N 0.61974 0.33912 0.58005 0.0
C534 C 0.61522 0.33187 0.60575 0.0
C535 C 0.59732 0.31885 0.5825 0.0
C536 C 0.62421 0.34106 0.596 0.0
C537 C 0.6066 0.3283 0.57317 0.0
C538 C 0.58153 0.34921 0.63958 0.0
C539 C 0.57063 0.3731 0.64036 0.0
N540 N 0.58506 0.38285 0.64357 0.0
C541 C 0.59624 0.35945 0.64294 0.0
C542 C 0.5686 0.35606 0.63835 0.0
C543 C 0.59778 0.37643 0.64492 0.0
C544 C 0.56294 0.34389 0.59222 0.0
N545 N 0.57622 0.34409 0.6011 0.0
C546 C 0.58708 0.37116 0.59624 0.0
C547 C 0.58828 0.35734 0.60293 0.0
C548 C 0.57344 0.37138 0.5872 0.0
C549 C 0.56136 0.35732 0.58503 0.0
H550 H 0.55335 0.33345 0.591 0.0
H551 H 0.59877 0.35745 0.60998 0.0
C552 C 0.6195 0.30498 0.63814 0.0
N553 N 0.6116 0.31649 0.64416 0.0
C554 C 0.63326 0.30383 0.64622 0.0
C555 C 0.631 0.3268 0.66642 0.0
C556 C 0.61707 0.32731 0.65808 0.0
C557 C 0.63937 0.31486 0.66061 0.0
H558 H 0.61489 0.29639 0.62715 0.0
H559 H 0.61058 0.33626 0.66282 0.0
C560 C 0.5464 0.2982 0.59901 0.0
N561 N 0.52563 0.27532 0.57683 0.0
C562 C 0.53366 0.28831 0.60415 0.0
C563 C 0.54857 0.29651 0.58261 0.0
C564 C 0.52329 0.2768 0.59274 0.0
C565 C 0.53794 0.28485 0.57158 0.0
C566 C 0.58227 0.28871 0.64485 0.0
C567 C 0.58787 0.27468 0.6394 0.0
C568 C 0.58472 0.29598 0.66115 0.0
C569 C 0.5958 0.2681 0.65041 0.0
C570 C 0.59274 0.28905 0.67177 0.0
N571 N 0.59806 0.27537 0.66623 0.0
C572 C 0.57868 0.26931 0.58645 0.0
C573 C 0.55915 0.26217 0.60362 0.0
C574 C 0.57719 0.2527 0.57949 0.0
N575 N 0.56984 0.27371 0.59844 0.0
C576 C 0.55729 0.2455 0.59702 0.0
C577 C 0.56658 0.24043 0.58498 0.0
H578 H 0.5873 0.27863 0.58269 0.0
H579 H 0.55243 0.26588 0.61335 0.0
C580 C 0.5334 0.31904 0.64178 0.0
N581 N 0.54494 0.31208 0.64655 0.0
C582 C 0.51996 0.31821 0.64991 0.0
C583 C 0.53043 0.30311 0.66781 0.0
C584 C 0.54365 0.30416 0.65928 0.0
C585 C 0.51827 0.31012 0.66312 0.0
H586 H 0.53452 0.32501 0.63145 0.0
H587 H 0.55273 0.29836 0.66267 0.0
O588 O 0.59261 0.31178 0.6083 0.0
O589 O 0.57979 0.33255 0.63739 0.0
O590 O 0.5569 0.30925 0.61 0.0
O591 O 0.57493 0.29566 0.63419 0.0
H592 H 0.6187 0.33351 0.61847 0.0
H593 H 0.58686 0.31024 0.57705 0.0
H594 H 0.63471 0.34979 0.60112 0.0
H595 H 0.60336 0.32704 0.56045 0.0
H596 H 0.56074 0.37857 0.63932 0.0
H597 H 0.60638 0.35433 0.64376 0.0
H598 H 0.55715 0.34829 0.63569 0.0
H599 H 0.60911 0.38451 0.64742 0.0
H600 H 0.59676 0.38161 0.59815 0.0
H601 H 0.55058 0.35692 0.57828 0.0
H602 H 0.63883 0.29411 0.64128 0.0
H603 H 0.63515 0.33579 0.67727 0.0
H604 H 0.5319 0.28936 0.61682 0.0
H605 H 0.5584 0.30405 0.57846 0.0
H606 H 0.51341 0.26901 0.59655 0.0
H607 H 0.53949 0.28336 0.55885 0.0
H608 H 0.58628 0.26903 0.62679 0.0
H609 H 0.58076 0.30705 0.6655 0.0
H610 H 0.60024 0.25728 0.64636 0.0
H611 H 0.59481 0.2946 0.6844 0.0
H612 H 0.58474 0.24947 0.57038 0.0
H613 H 0.54878 0.23663 0.60153 0.0
H614 H 0.511 0.32391 0.64588 0.0
H615 H 0.5296 0.29651 0.67773 0.0
Li616 Li 0.02334 0.28645 0.93139 0.0
Li617 Li 0.00666 0.26919 0.90838 0.0
Li618 Li 0.02157 0.25622 0.92941 0.0
Li619 Li 0.036 0.27257 0.91035 0.0
C620 C 0.99708 0.27458 0.94471 0.0
N621 N 0.98247 0.28669 0.97071 0.0
C622 C 0.9842 0.28123 0.94228 0.0
C623 C 1.00238 0.27385 0.96032 0.0
C624 C 0.97702 0.28737 0.95559 0.0
C625 C 0.99488 0.2801 0.97332 0.0
C626 C 0.02764 0.30505 0.90828 0.0
C627 C 0.04729 0.33008 0.91307 0.0
N628 N 0.03648 0.33852 0.90959 0.0
C629 C 0.01674 0.31394 0.90461 0.0
C630 C 0.04305 0.31315 0.91242 0.0
C631 C 0.02143 0.33086 0.90539 0.0
C632 C 0.03658 0.31666 0.9556 0.0
N633 N 0.02422 0.30808 0.94525 0.0
C634 C 0.01255 0.3315 0.94927 0.0
C635 C 0.0122 0.31518 0.94231 0.0
C636 C 0.02538 0.34083 0.95953 0.0
C637 C 0.03735 0.33302 0.96295 0.0
H638 H 0.04619 0.31119 0.95776 0.0
H639 H 1.0026 0.30844 0.93385 0.0
C640 C 0.97392 0.25941 0.89789 0.0
N641 N 0.98797 0.26755 0.89456 0.0
C642 C 0.96038 0.25998 0.88891 0.0
C643 C 0.97593 0.27713 0.87312 0.0
C644 C 0.98916 0.27606 0.88225 0.0
C645 C 0.96122 0.26919 0.87649 0.0
H646 H 0.97318 0.25284 0.90782 0.0
H647 H 1.00041 0.28241 0.87976 0.0
C648 C 0.0515 0.28149 0.94576 0.0
N649 N 0.07444 0.29595 0.97025 0.0
C650 C 0.06521 0.29144 0.94251 0.0
C651 C 0.04954 0.27876 0.96144 0.0
C652 C 0.07664 0.29867 0.95506 0.0
C653 C 0.06125 0.28622 0.97366 0.0
C654 C 0.02552 0.24341 0.89255 0.0
C655 C 0.03518 0.23298 0.89558 0.0
C656 C 0.02292 0.24608 0.87691 0.0
C657 C 0.04215 0.22541 0.88282 0.0
C658 C 0.03012 0.23828 0.86449 0.0
N659 N 0.03951 0.22821 0.86768 0.0
C660 C 0.00895 0.22511 0.93965 0.0
C661 C 0.0358 0.23536 0.9458 0.0
C662 C 0.00974 0.21102 0.94613 0.0
N663 N 0.02189 0.23699 0.93958 0.0
C664 C 0.03707 0.22162 0.95255 0.0
C665 C 0.02396 0.20908 0.95276 0.0
H666 H 0.99801 0.22646 0.9345 0.0
H667 H 0.04605 0.24465 0.94531 0.0
C668 C 0.0548 0.28039 0.88474 0.0
N669 N 0.05396 0.27341 0.89809 0.0
C670 C 0.06791 0.2812 0.87606 0.0
C671 C 0.07905 0.26757 0.89496 0.0
C672 C 0.06571 0.26696 0.90322 0.0
C673 C 0.08035 0.27482 0.88118 0.0
H674 H 0.04531 0.28543 0.88087 0.0
H675 H 0.06473 0.26135 0.9138 0.0
O676 O 0.00432 0.2686 0.93186 0.0
O677 O 0.02322 0.28856 0.90809 0.0
O678 O 0.04022 0.2742 0.93361 0.0
O679 O 0.01908 0.25143 0.90496 0.0
H680 H 0.97991 0.28181 0.93025 0.0
H681 H 0.01215 0.26847 0.96236 0.0
H682 H 0.96712 0.29267 0.9539 0.0
H683 H 0.9989 0.27968 0.98549 0.0
H684 H 0.05916 0.33652 0.91637 0.0
H685 H 0.00473 0.3079 0.90152 0.0
H686 H 0.05162 0.30645 0.91525 0.0
H687 H 0.01309 0.33792 0.90275 0.0
H688 H 1.00296 0.33687 0.94635 0.0
H689 H 0.04755 0.33971 0.97066 0.0
H690 H 0.94932 0.25375 0.89204 0.0
H691 H 0.97721 0.28418 0.86355 0.0
H692 H 0.06702 0.29356 0.93044 0.0
H693 H 0.03912 0.27094 0.96414 0.0
H694 H 0.08728 0.30644 0.95273 0.0
H695 H 0.05987 0.28425 0.98586 0.0
H696 H 0.03738 0.23092 0.90767 0.0
H697 H 0.01557 0.25424 0.87444 0.0
H698 H 0.04972 0.21737 0.88498 0.0
H699 H 0.02829 0.24029 0.85232 0.0
H700 H 0.99927 0.20179 0.94605 0.0
H701 H 0.04834 0.22065 0.95721 0.0
H702 H 0.0684 0.28704 0.86562 0.0
H703 H 0.08818 0.26226 0.89926 0.0
Li704 Li 0.42393 0.04851 0.30437 0.0
Li705 Li 0.40261 0.0291 0.28749 0.0
Li706 Li 0.42158 0.04813 0.27616 0.0
Li707 Li 0.40258 0.05769 0.29283 0.0
C708 C 0.43481 0.02242 0.29379 0.0
N709 N 0.45456 0.00747 0.30914 0.0
C710 C 0.4291 0.00756 0.29873 0.0
C711 C 0.45058 0.02962 0.29657 0.0
C712 C 0.43927 1.00021 0.30649 0.0
C713 C 0.46036 0.0219 0.30439 0.0
C714 C 0.39306 0.04906 0.31952 0.0
C715 C 0.36814 0.05275 0.32752 0.0
N716 N 0.37513 0.06311 0.34118 0.0
C717 C 0.4 0.05969 0.33366 0.0
C718 C 0.377 0.04548 0.31644 0.0
C719 C 0.39073 0.06668 0.34446 0.0
C720 C 0.44814 0.06639 0.32729 0.0
N721 N 0.43749 0.05204 0.32307 0.0
C722 C 0.44518 0.0429 0.34669 0.0
C723 C 0.43576 0.04041 0.33246 0.0
C724 C 0.45625 0.05767 0.35149 0.0
C725 C 0.45771 0.06949 0.34154 0.0
H726 H 0.449 0.07557 0.31975 0.0
H727 H 0.42696 0.02925 0.32891 0.0
C728 C 0.39082 0.99758 0.26954 0.0
N729 N 0.39018 0.00764 0.2837 0.0
C730 C 0.38111 0.98205 0.26579 0.0
C731 C 0.3711 0.98705 0.29183 0.0
C732 C 0.38072 1.00269 0.29488 0.0
C733 C 0.37107 0.97652 0.27702 0.0
H734 H 0.3987 1.00177 0.26103 0.0
H735 H 0.38071 0.01085 0.30619 0.0
C736 C 0.43353 0.07899 0.28664 0.0
N737 N 0.45078 0.10131 0.27067 0.0
C738 C 0.42659 0.08987 0.27978 0.0
C739 C 0.44926 0.07951 0.28546 0.0
C740 C 0.43551 0.10107 0.27175 0.0
C741 C 0.45777 0.09086 0.2773 0.0
C742 C 0.38824 0.03281 0.26041 0.0
C743 C 0.39254 0.02694 0.2452 0.0
C744 C 0.37302 0.02769 0.26408 0.0
C745 C 0.38155 0.016 0.23395 0.0
C746 C 0.36239 0.0167 0.25251 0.0
N747 N 0.36684 0.01114 0.23781 0.0
C748 C 0.4442 0.04254 0.25549 0.0
C749 C 0.42821 0.05924 0.24694 0.0
C750 C 0.45219 0.04316 0.2418 0.0
N751 N 0.43247 0.05048 0.25777 0.0
C752 C 0.43586 0.06012 0.23298 0.0
C753 C 0.44799 0.05194 0.23028 0.0
H754 H 0.44714 0.03545 0.26415 0.0
H755 H 0.41869 0.06526 0.24903 0.0
C756 C 0.39434 0.08632 0.30872 0.0
N757 N 0.39016 0.07323 0.29642 0.0
C758 C 0.38533 0.09805 0.3112 0.0
C759 C 0.36801 0.08252 0.28829 0.0
C760 C 0.37734 0.07116 0.28626 0.0
C761 C 0.372 0.09621 0.30085 0.0
H762 H 0.40476 0.08771 0.31646 0.0
H763 H 0.37453 0.06089 0.27635 0.0
O764 O 0.42501 0.02991 0.28633 0.0
O765 O 0.40195 0.04235 0.30864 0.0
O766 O 0.42493 0.06771 0.29425 0.0
O767 O 0.39887 0.04345 0.27164 0.0
H768 H 0.41695 1.00181 0.2967 0.0
H769 H 0.45517 0.0412 0.29295 0.0
H770 H 0.43501 0.98874 0.31043 0.0
H771 H 0.47256 0.0274 0.30672 0.0
H772 H 0.35571 0.05018 0.32524 0.0
H773 H 0.41241 0.06266 0.33621 0.0
H774 H 0.37145 0.03732 0.30552 0.0
H775 H 0.39595 0.075 0.35541 0.0
H776 H 0.44379 0.03333 0.35384 0.0
H777 H 0.46587 0.08116 0.34489 0.0
H778 H 0.38142 0.97457 0.25413 0.0
H779 H 0.36396 0.98324 0.30109 0.0
H780 H 0.41441 0.08958 0.2805 0.0
H781 H 0.45477 0.07107 0.29059 0.0
H782 H 0.43028 0.10952 0.26632 0.0
H783 H 0.46992 0.09132 0.27618 0.0
H784 H 0.40426 0.03063 0.24215 0.0
H785 H 0.36952 0.03191 0.27584 0.0
H786 H 0.38475 0.01131 0.22217 0.0
H787 H 0.35062 0.01255 0.25525 0.0
H788 H 0.46126 0.03641 0.24001 0.0
H789 H 0.43232 0.06703 0.22438 0.0
H790 H 0.38883 0.10852 0.32094 0.0
H791 H 0.3581 0.08092 0.27973 0.0
Li792 Li 0.29707 0.20024 0.52325 0.0
Li793 Li 0.30917 0.17788 0.50686 0.0
Li794 Li 0.29777 0.19692 0.49363 0.0
Li795 Li 0.28121 0.17652 0.50454 0.0
C796 C 0.32388 0.21602 0.50551 0.0
N797 N 0.33924 0.24297 0.49401 0.0
C798 C 0.3341 0.2141 0.49365 0.0
C799 C 0.32149 0.23163 0.51157 0.0
C800 C 0.34175 0.22789 0.48797 0.0
C801 C 0.32938 0.24511 0.5056 0.0
C802 C 0.28516 0.16543 0.53123 0.0
C803 C 0.27372 0.13752 0.53322 0.0
N804 N 0.26499 0.14315 0.54477 0.0
C805 C 0.27615 0.17095 0.54317 0.0
C806 C 0.28402 0.1486 0.52625 0.0
C807 C 0.266 0.15948 0.54986 0.0
C808 C 0.2895 0.22498 0.54763 0.0
N809 N 0.29821 0.21358 0.54426 0.0
C810 C 0.30709 0.21753 0.57213 0.0
C811 C 0.30706 0.20992 0.5561 0.0
C812 C 0.29791 0.22907 0.57611 0.0
C813 C 0.28925 0.23298 0.56354 0.0
H814 H 0.28239 0.22751 0.53807 0.0
H815 H 0.31376 0.20069 0.55312 0.0
C816 C 0.33515 0.16587 0.49564 0.0
N817 N 0.32559 0.16644 0.5077 0.0
C818 C 0.34736 0.1578 0.49628 0.0
C819 C 0.33947 0.15081 0.52159 0.0
C820 C 0.32751 0.15911 0.52052 0.0
C821 C 0.34972 0.15014 0.50942 0.0
H822 H 0.33333 0.17175 0.48555 0.0
H823 H 0.31973 0.15971 0.52994 0.0
C824 C 0.26923 0.2039 0.49737 0.0
N825 N 0.24743 0.21193 0.47761 0.0
C826 C 0.2625 0.19298 0.48333 0.0
C827 C 0.2649 0.21893 0.50135 0.0
C828 C 0.25148 0.19724 0.4735 0.0
C829 C 0.25386 0.22276 0.4912 0.0
C830 C 0.29067 0.15843 0.47663 0.0
C831 C 0.28197 0.15754 0.46216 0.0
C832 C 0.29501 0.14436 0.4801 0.0
C833 C 0.27755 0.14253 0.45151 0.0
C834 C 0.29038 0.12959 0.46912 0.0
N835 N 0.28181 0.12898 0.45518 0.0
C836 C 0.30354 0.19898 0.46159 0.0
C837 C 0.29682 0.22293 0.47544 0.0
C838 C 0.30378 0.20501 0.44721 0.0
N839 N 0.29977 0.20777 0.47525 0.0
C840 C 0.29715 0.22956 0.46133 0.0
C841 C 0.30037 0.2204 0.44688 0.0
H842 H 0.30613 0.18711 0.46178 0.0
H843 H 0.29394 0.22977 0.48646 0.0
C844 C 0.25054 0.16871 0.51211 0.0
N845 N 0.26078 0.16237 0.50291 0.0
C846 C 0.23547 0.15974 0.51215 0.0
C847 C 0.24149 0.13789 0.49296 0.0
C848 C 0.25655 0.14717 0.49354 0.0
C849 C 0.23065 0.1441 0.50237 0.0
H850 H 0.25417 0.18076 0.51961 0.0
H851 H 0.26474 0.1421 0.48647 0.0
O852 O 0.31587 0.20264 0.51082 0.0
O853 O 0.29481 0.17644 0.52418 0.0
O854 O 0.28035 0.20016 0.50694 0.0
O855 O 0.29527 0.17308 0.48712 0.0
H856 H 0.33597 0.20208 0.48875 0.0
H857 H 0.3135 0.23327 0.52067 0.0
H858 H 0.34963 0.22659 0.47873 0.0
H859 H 0.3276 0.25726 0.51013 0.0
H860 H 0.27263 0.12446 0.52942 0.0
H861 H 0.27682 0.18393 0.54708 0.0
H862 H 0.29089 0.14413 0.517 0.0
H863 H 0.25887 0.16357 0.55904 0.0
H864 H 0.31408 0.21425 0.58136 0.0
H865 H 0.28188 0.24165 0.56603 0.0
H866 H 0.355 0.15783 0.4867 0.0
H867 H 0.34058 0.14487 0.53181 0.0
H868 H 0.26578 0.18137 0.48001 0.0
H869 H 0.27013 0.22763 0.51206 0.0
H870 H 0.24619 0.1889 0.46259 0.0
H871 H 0.25043 0.23438 0.49411 0.0
H872 H 0.27867 0.16833 0.45914 0.0
H873 H 0.30175 0.14477 0.49118 0.0
H874 H 0.27077 0.14166 0.4403 0.0
H875 H 0.29359 0.11859 0.47169 0.0
H876 H 0.30659 0.19767 0.43643 0.0
H877 H 0.29444 0.24149 0.4616 0.0
H878 H 0.22777 0.165 0.51995 0.0
H879 H 0.23841 0.12603 0.48505 0.0
Li880 Li 0.17973 0.03172 0.77154 0.0
Li881 Li 0.15772 0.0147 0.78504 0.0
Li882 Li 0.17741 0.99833 0.76787 0.0
Li883 Li 0.15756 0.01234 0.75357 0.0
C884 C 0.19172 0.02443 0.80066 0.0
N885 N 0.21361 0.04009 0.82577 0.0
C886 C 0.18862 0.0369 0.81229 0.0
C887 C 0.20593 0.0199 0.80177 0.0
C888 C 0.19984 0.04467 0.82491 0.0
C889 C 0.21685 0.02797 0.81457 0.0
C890 C 0.14945 0.0429 0.77746 0.0
C891 C 0.12597 0.05287 0.77956 0.0
N892 N 0.13341 0.06567 0.79114 0.0
C893 C 0.15687 0.05613 0.78938 0.0
C894 C 0.13388 0.04121 0.77251 0.0
C895 C 0.14856 0.06752 0.79615 0.0
C896 C 0.18784 0.06399 0.76326 0.0
N897 N 0.19301 0.05472 0.77312 0.0
C898 C 0.21385 0.07796 0.78422 0.0
C899 C 0.20588 0.06149 0.78349 0.0
C900 C 0.20878 0.0879 0.77413 0.0
C901 C 0.19554 0.08037 0.76346 0.0
H902 H 0.17756 0.05868 0.75516 0.0
H903 H 0.20999 0.05425 0.79139 0.0
C904 C 0.15323 0.01286 0.81987 0.0
N905 N 0.1463 0.01594 0.80626 0.0
C906 C 0.14645 0.01439 0.83479 0.0
C907 C 0.12518 0.02203 0.82193 0.0
C908 C 0.13234 0.02033 0.80722 0.0
C909 C 0.13214 0.01916 0.8363 0.0
H910 H 0.1642 0.00926 0.81929 0.0
H911 H 0.12664 0.02268 0.79658 0.0
C912 C 0.18143 0.01206 0.73561 0.0
N913 N 0.18149 0.00749 0.70249 0.0
C914 C 0.17919 0.99623 0.72652 0.0
C915 C 0.18366 0.02556 0.72788 0.0
C916 C 0.17931 0.99418 0.70978 0.0
C917 C 0.18364 0.023 0.71112 0.0
C918 C 0.14159 0.98337 0.75744 0.0
C919 C 0.14419 0.96975 0.74696 0.0
C920 C 0.12685 0.98673 0.75747 0.0
C921 C 0.1319 0.95964 0.73664 0.0
C922 C 0.11487 0.97633 0.74695 0.0
N923 N 0.11763 0.96312 0.73685 0.0
C924 C 0.18801 0.97035 0.78061 0.0
C925 C 0.1982 0.97416 0.75613 0.0
C926 C 0.19565 0.95721 0.78139 0.0
N927 N 0.18924 0.97876 0.76809 0.0
C928 C 0.20591 0.96097 0.75638 0.0
C929 C 0.20488 0.95202 0.76916 0.0
H930 H 0.18102 0.97378 0.7902 0.0
H931 H 0.19957 0.98074 0.74624 0.0
C932 C 0.14041 0.02678 0.73017 0.0
N933 N 0.14494 0.0126 0.73179 0.0
C934 C 0.13276 0.02856 0.71564 0.0
C935 C 0.13483 1.00143 0.70385 0.0
C936 C 0.14208 0.99997 0.71877 0.0
C937 C 0.12989 0.01589 0.70193 0.0
H938 H 0.14299 0.03706 0.74012 0.0
H939 H 0.14569 0.98873 0.71973 0.0
O940 O 0.18093 0.01674 0.78818 0.0
O941 O 0.15734 0.03154 0.77079 0.0
O942 O 0.18097 0.01427 0.75196 0.0
O943 O 0.15354 0.99369 0.76726 0.0
H944 H 0.17766 0.04054 0.81158 0.0
H945 H 0.20848 0.01026 0.79283 0.0
H946 H 0.19761 0.05436 0.834 0.0
H947 H 0.22791 0.02461 0.8156 0.0
H948 H 0.1139 0.0517 0.77588 0.0
H949 H 0.16891 0.0576 0.79338 0.0
H950 H 0.12791 0.0309 0.76344 0.0
H951 H 0.15415 0.07783 0.80539 0.0
H952 H 0.22375 0.08287 0.79291 0.0
H953 H 0.19106 0.08694 0.75509 0.0
H954 H 0.15246 0.01162 0.84505 0.0
H955 H 0.11432 0.0259 0.82196 0.0
H956 H 0.1771 0.98563 0.73229 0.0
H957 H 0.18532 0.03788 0.73473 0.0
H958 H 0.17753 0.98199 0.70258 0.0
H959 H 0.18531 0.03333 0.70496 0.0
H960 H 0.15559 0.9671 0.74674 0.0
H961 H 0.12473 0.99733 0.76545 0.0
H962 H 0.13373 0.94907 0.72843 0.0
H963 H 0.1034 0.9788 0.74679 0.0
H964 H 0.19405 0.95099 0.79153 0.0
H965 H 0.21291 0.95806 0.74663 0.0
H966 H 0.12951 0.04008 0.71505 0.0
H967 H 0.13299 0.99116 0.69388 0.0
Li968 Li 0.28721 0.9381 0.0297 0.0
Li969 Li 0.29843 0.92051 0.04557 0.0
Li970 Li 0.31497 0.94214 0.03591 0.0
Li971 Li 0.30186 0.91864 0.01736 0.0
C972 C 0.30611 0.95842 0.06119 0.0
N973 N 0.32172 0.98738 0.0806 0.0
C974 C 0.31263 0.95829 0.07652 0.0
C975 C 0.30741 0.9733 0.05579 0.0
C976 C 0.32051 0.97306 0.08614 0.0
C977 C 0.31537 0.9878 0.06577 0.0
C978 C 0.26768 0.90688 0.03084 0.0
C979 C 0.24524 0.88459 0.02695 0.0
N980 N 0.23856 0.8933 0.03855 0.0
C981 C 0.26062 0.9156 0.04276 0.0
C982 C 0.25995 0.89126 0.02287 0.0
C983 C 0.24588 0.90853 0.04646 0.0
C984 C 0.26181 0.94683 0.01365 0.0
N985 N 0.27078 0.94889 0.02766 0.0
C986 C 0.25723 0.96817 0.0408 0.0
C987 C 0.26853 0.95909 0.04114 0.0
C988 C 0.24797 0.96655 0.02651 0.0
C989 C 0.2501 0.95555 0.01283 0.0
H990 H 0.26377 0.93848 1.00316 0.0
H991 H 0.27546 0.96012 0.05225 0.0
C992 C 0.3106 0.91292 0.07273 0.0
N993 N 0.29707 0.90955 0.06338 0.0
C994 C 0.31168 0.90607 0.08644 0.0
C995 C 0.28481 0.89227 0.08071 0.0
C996 C 0.2843 0.8993 0.06697 0.0
C997 C 0.29864 0.89568 0.09069 0.0
H998 H 0.32062 0.92096 0.06947 0.0
H999 H 0.27373 0.89647 0.05926 0.0
C1000 C 0.3098 0.94304 1.00085 0.0
N1001 N 0.32189 0.94463 0.97154 0.0
C1002 C 0.32524 0.94236 0.99917 0.0
C1003 C 0.3005 0.9445 0.98762 0.0
C1004 C 0.33113 0.94318 0.98425 0.0
C1005 C 0.30684 0.94531 0.9729 0.0
C1006 C 0.32094 0.90453 0.03461 0.0
C1007 C 0.33616 0.90315 0.03767 0.0
C1008 C 0.3091 0.89039 0.03128 0.0
C1009 C 0.3393 0.88762 0.03732 0.0
C1010 C 0.31271 0.87509 0.03104 0.0
N1011 N 0.32761 0.87402 0.03404 0.0
C1012 C 0.34366 0.95597 0.053 0.0
C1013 C 0.33707 0.97062 0.03316 0.0
C1014 C 0.3581 0.96661 0.05661 0.0
N1015 N 0.33366 0.95799 0.04125 0.0
C1016 C 0.3515 0.98135 0.03614 0.0
C1017 C 0.3624 0.97921 0.04776 0.0
H1018 H 0.34048 0.94588 0.05934 0.0
H1019 H 0.32877 0.97204 0.02403 0.0
C1020 C 0.29095 0.89657 0.98801 0.0
N1021 N 0.30372 0.90438 0.99801 0.0
C1022 C 0.2924 0.88656 0.97346 0.0
C1023 C 0.32006 0.89289 0.97989 0.0
C1024 C 0.31807 0.90259 0.99435 0.0
C1025 C 0.30713 0.88482 0.96921 0.0
H1026 H 0.2797 0.8983 0.99123 0.0
H1027 H 0.32802 0.90895 1.00254 0.0
O1028 O 0.29867 0.94404 0.05141 0.0
O1029 O 0.28202 0.91354 0.0268 0.0
O1030 O 0.30379 0.94222 0.01535 0.0
O1031 O 0.3178 0.91972 0.03498 0.0
H1032 H 0.31165 0.94693 0.08095 0.0
H1033 H 0.30254 0.9736 0.0439 0.0
H1034 H 0.32567 0.97313 0.098 0.0
H1035 H 0.31657 0.99938 0.06169 0.0
H1036 H 0.23914 0.8725 0.02089 0.0
H1037 H 0.26657 0.92754 0.0493 0.0
H1038 H 0.2653 0.88434 0.01364 0.0
H1039 H 0.24028 0.91511 0.05568 0.0
H1040 H 0.25563 0.97628 0.05167 0.0
H1041 H 0.243 0.95395 1.00165 0.0
H1042 H 0.32271 0.90871 0.09348 0.0
H1043 H 0.27446 0.88436 0.08353 0.0
H1044 H 0.33255 0.94099 0.00922 0.0
H1045 H 0.28853 0.94504 0.98872 0.0
H1046 H 0.34304 0.9426 0.98278 0.0
H1047 H 0.29979 0.94648 0.96256 0.0
H1048 H 0.34545 0.91399 0.04029 0.0
H1049 H 0.29725 0.89117 0.0289 0.0
H1050 H 0.35104 0.88637 0.03965 0.0
H1051 H 0.30367 0.86405 0.02848 0.0
H1052 H 0.36594 0.96469 0.06593 0.0
H1053 H 0.35428 0.99071 0.02884 0.0
H1054 H 0.28217 0.88065 0.96544 0.0
H1055 H 0.33159 0.89173 0.97707 0.0
Li1056 Li 0.28629 0.40742 0.03343 0.0
Li1057 Li 0.2969 0.38852 0.04795 0.0
Li1058 Li 0.31436 0.40889 0.03575 0.0
Li1059 Li 0.29752 0.38518 0.01825 0.0
C1060 C 0.30356 0.42933 0.05988 0.0
N1061 N 0.30952 0.46242 0.07293 0.0
C1062 C 0.30676 0.43464 0.0765 0.0
C1063 C 0.30338 0.44084 0.04989 0.0
C1064 C 0.30974 0.45143 0.08287 0.0
C1065 C 0.30642 0.45751 0.05672 0.0
C1066 C 0.26754 0.37045 0.0321 0.0
C1067 C 0.25574 0.34155 0.02588 0.0
N1068 N 0.24365 0.34448 0.03433 0.0
C1069 C 0.25488 0.3732 0.04049 0.0
C1070 C 0.26789 0.35453 0.02453 0.0
C1071 C 0.24297 0.3599 0.04157 0.0
C1072 C 0.26751 0.42531 0.01902 0.0
N1073 N 0.2701 0.41928 0.03256 0.0
C1074 C 0.24947 0.42986 0.04453 0.0
C1075 C 0.26142 0.42143 0.04524 0.0
C1076 C 0.24658 0.43632 0.03073 0.0
C1077 C 0.25584 0.43399 0.01789 0.0
H1078 H 0.27448 0.42331 0.00907 0.0
H1079 H 0.26377 0.41658 0.0559 0.0
C1080 C 0.30812 0.37472 0.07335 0.0
N1081 N 0.29528 0.37857 0.06699 0.0
C1082 C 0.30793 0.36868 0.08775 0.0
C1083 C 0.2814 0.37098 0.08915 0.0
C1084 C 0.28209 0.37692 0.07466 0.0
C1085 C 0.29448 0.36682 0.09598 0.0
H1086 H 0.31866 0.37661 0.06739 0.0
H1087 H 0.27221 0.38069 0.06983 0.0
C1088 C 0.31001 0.41149 1.0038 0.0
N1089 N 0.32825 0.41661 0.97881 0.0
C1090 C 0.32227 0.40359 1.00132 0.0
C1091 C 0.30708 0.42205 0.99361 0.0
C1092 C 0.33134 0.40632 0.98861 0.0
C1093 C 0.31642 0.42447 0.98103 0.0
C1094 C 0.31937 0.37097 0.03309 0.0
C1095 C 0.33439 0.37058 0.0291 0.0
C1096 C 0.30943 0.35657 0.0353 0.0
C1097 C 0.33917 0.35572 0.02728 0.0
C1098 C 0.31464 0.34196 0.03338 0.0
N1099 N 0.32928 0.34184 0.02943 0.0
C1100 C 0.34636 0.41736 0.04478 0.0
C1101 C 0.33733 0.43722 0.0326 0.0
C1102 C 0.36161 0.4262 0.04555 0.0
N1103 N 0.33463 0.42285 0.03818 0.0
C1104 C 0.35239 0.44659 0.03336 0.0
C1105 C 0.36479 0.44097 0.03969 0.0
H1106 H 0.3439 0.40594 0.04921 0.0
H1107 H 0.32785 0.44125 0.02722 0.0
C1108 C 0.28417 0.37279 0.98664 0.0
N1109 N 0.29533 0.37097 0.99733 0.0
C1110 C 0.2828 0.36476 0.97056 0.0
C1111 C 0.30416 0.35268 0.97679 0.0
C1112 C 0.30517 0.36102 0.99271 0.0
C1113 C 0.29301 0.35468 0.96537 0.0
H1114 H 0.2766 0.38092 0.99051 0.0
H1115 H 0.3142 0.35993 1.00114 0.0
O1116 O 0.30061 0.41294 0.05351 0.0
O1117 O 0.27922 0.38336 0.03075 0.0
O1118 O 0.30096 0.40902 0.0162 0.0
O1119 O 0.31451 0.38543 0.03487 0.0
H1120 H 0.30693 0.42586 0.08439 0.0
H1121 H 0.30095 0.43697 0.037 0.0
H1122 H 0.31224 0.45571 0.09572 0.0
H1123 H 0.30633 0.46655 0.04913 0.0
H1124 H 0.2559 0.32916 0.02016 0.0
H1125 H 0.25432 0.38548 0.0462 0.0
H1126 H 0.27738 0.35222 0.01761 0.0
H1127 H 0.23316 0.36184 0.04815 0.0
H1128 H 0.2427 0.4315 0.05476 0.0
H1129 H 0.25391 0.43861 0.00697 0.0
H1130 H 0.31828 0.36556 0.09239 0.0
H1131 H 0.27086 0.37015 0.09517 0.0
H1132 H 0.32481 0.39545 0.00911 0.0
H1133 H 0.29772 0.42837 0.9954 0.0
H1134 H 0.34085 0.40026 0.98655 0.0
H1135 H 0.31428 0.43261 0.97305 0.0
H1136 H 0.34222 0.38159 0.02726 0.0
H1137 H 0.29787 0.3567 0.03864 0.0
H1138 H 0.35074 0.35522 0.02412 0.0
H1139 H 0.30707 0.33073 0.03508 0.0
H1140 H 0.37082 0.42153 0.05067 0.0
H1141 H 0.35437 0.45784 0.02858 0.0
H1142 H 0.27393 0.36657 0.96225 0.0
H1143 H 0.31244 0.34526 0.97333 0.0
Li1144 Li 0.78936 0.1589 0.03213 0.0
Li1145 Li 0.80046 0.13805 0.01433 0.0
Li1146 Li 0.789 0.15918 0.00387 0.0
Li1147 Li 0.77297 0.13704 0.01353 0.0
C1148 C 0.81802 0.17331 0.01276 0.0
N1149 N 0.83869 0.19472 0.99875 0.0
C1150 C 0.83019 0.16807 0.00511 0.0
C1151 C 0.8164 0.18946 0.01335 0.0
C1152 C 0.84051 0.17908 0.99809 0.0
C1153 C 0.82695 0.20008 0.00617 0.0
C1154 C 0.77976 0.12065 0.03677 0.0
C1155 C 0.77843 0.09216 0.03796 0.0
N1156 N 0.766 0.09208 0.04674 0.0
C1157 C 0.76696 0.12028 0.04581 0.0
C1158 C 0.78555 0.10647 0.03281 0.0
C1159 C 0.76017 0.10572 0.05073 0.0
C1160 C 0.78189 0.16824 0.06405 0.0
N1161 N 0.7916 0.17268 0.05287 0.0
C1162 C 0.80274 0.19824 0.07027 0.0
C1163 C 0.80208 0.18724 0.05579 0.0
C1164 C 0.7925 0.19418 0.08181 0.0
C1165 C 0.7821 0.17886 0.07863 0.0
H1166 H 0.77368 0.15664 0.06147 0.0
H1167 H 0.80971 0.19048 0.04675 0.0
C1168 C 0.81663 0.11625 0.99782 0.0
N1169 N 0.81629 0.12627 0.01211 0.0
C1170 C 0.82815 0.10735 0.99569 0.0
C1171 C 0.83905 0.11965 0.02286 0.0
C1172 C 0.82715 0.12815 0.02455 0.0
C1173 C 0.83955 0.10904 0.0083 0.0
H1174 H 0.80804 0.11529 0.98802 0.0
H1175 H 0.82659 0.13631 0.03573 0.0
C1176 C 0.76475 0.16991 0.02771 0.0
N1177 N 0.75083 0.18944 0.0493 0.0
C1178 C 0.75264 0.16277 0.03593 0.0
C1179 C 0.76973 0.18699 0.03041 0.0
C1180 C 0.74575 0.17285 0.04679 0.0
C1181 C 0.76257 0.19664 0.0414 0.0
C1182 C 0.7764 0.1242 0.98388 0.0
C1183 C 0.76762 0.12929 0.97237 0.0
C1184 C 0.77469 0.10746 0.98406 0.0
C1185 C 0.75719 0.11751 0.96125 0.0
C1186 C 0.76414 0.09607 0.97273 0.0
N1187 N 0.75567 0.10129 0.96166 0.0
C1188 C 0.79937 0.17108 0.97595 0.0
C1189 C 0.77735 0.17947 0.98631 0.0
C1190 C 0.79804 0.17885 0.96283 0.0
N1191 N 0.78912 0.1716 0.98735 0.0
C1192 C 0.77548 0.1872 0.97334 0.0
C1193 C 0.7858 0.18679 0.96133 0.0
H1194 H 0.8083 0.16425 0.97683 0.0
H1195 H 0.7691 0.17928 0.99527 0.0
C1196 C 0.7481 0.1076 0.01016 0.0
N1197 N 0.75264 0.12349 0.00834 0.0
C1198 C 0.73261 0.09948 0.00681 0.0
C1199 C 0.72713 0.12359 0.99818 0.0
C1200 C 0.74262 0.13127 1.00188 0.0
C1201 C 0.72182 0.10771 1.00121 0.0
H1202 H 0.75638 0.10125 0.01437 0.0
H1203 H 0.74663 0.14364 0.99984 0.0
O1204 O 0.80774 0.16269 0.01962 0.0
O1205 O 0.78681 0.13488 0.03213 0.0
O1206 O 0.77191 0.16024 0.01731 0.0
O1207 O 0.78639 0.13556 0.99512 0.0
H1208 H 0.83162 0.15563 0.00452 0.0
H1209 H 0.80696 0.19368 0.01907 0.0
H1210 H 0.84996 0.17518 0.99209 0.0
H1211 H 0.82578 0.21257 0.00644 0.0
H1212 H 0.78279 0.08111 0.03497 0.0
H1213 H 0.7621 0.13097 0.04872 0.0
H1214 H 0.79541 0.10648 0.02583 0.0
H1215 H 0.75021 0.10524 0.05764 0.0
H1216 H 0.8109 0.20995 0.07221 0.0
H1217 H 0.77417 0.17511 0.08731 0.0
H1218 H 0.82833 0.09948 0.9842 0.0
H1219 H 0.84767 0.12123 0.03284 0.0
H1220 H 0.74875 0.14958 0.03415 0.0
H1221 H 0.77915 0.19271 0.02423 0.0
H1222 H 0.73643 0.16749 0.05331 0.0
H1223 H 0.76638 0.20986 0.0437 0.0
H1224 H 0.76873 0.14219 0.97212 0.0
H1225 H 0.78122 0.10333 0.99305 0.0
H1226 H 0.75026 0.12127 0.95232 0.0
H1227 H 0.76261 0.08308 0.9728 0.0
H1228 H 0.80612 0.17816 0.95368 0.0
H1229 H 0.76595 0.19329 0.9726 0.0
H1230 H 0.72905 0.08718 0.00924 0.0
H1231 H 0.71932 0.13021 0.9934 0.0
Li1232 Li 0.2032 0.54115 0.24944 0.0
Li1233 Li 0.18177 0.5265 0.26197 0.0
Li1234 Li 0.19872 0.51181 0.24741 0.0
Li1235 Li 0.18071 0.52378 0.23363 0.0
C1236 C 0.20904 0.53894 0.2818 0.0
N1237 N 0.21839 0.55986 0.31104 0.0
C1238 C 0.20298 0.55293 0.28589 0.0
C1239 C 0.21979 0.53557 0.29264 0.0
C1240 C 0.20787 0.56336 0.30071 0.0
C1241 C 0.22439 0.5463 0.30734 0.0
C1242 C 0.17129 0.55153 0.24284 0.0
C1243 C 0.14552 0.55075 0.2318 0.0
N1244 N 0.15042 0.56609 0.22862 0.0
C1245 C 0.17599 0.56739 0.23967 0.0
C1246 C 0.15586 0.54324 0.23908 0.0
C1247 C 0.1653 0.5745 0.2324 0.0
C1248 C 0.21641 0.56829 0.23717 0.0
N1249 N 0.21823 0.56078 0.24985 0.0
C1250 C 0.23883 0.58299 0.26223 0.0
C1251 C 0.22962 0.56743 0.26192 0.0
C1252 C 0.23632 0.59161 0.24993 0.0
C1253 C 0.22533 0.58383 0.23699 0.0
H1254 H 0.20756 0.56245 0.22751 0.0
H1255 H 0.23131 0.56096 0.27156 0.0
C1256 C 0.1736 0.52004 0.29261 0.0
N1257 N 0.16995 0.52724 0.28019 0.0
C1258 C 0.16449 0.51965 0.30559 0.0
C1259 C 0.14825 0.53434 0.29287 0.0
C1260 C 0.15773 0.53457 0.28024 0.0
C1261 C 0.1515 0.52667 0.30567 0.0
H1262 H 0.18344 0.51435 0.29227 0.0
H1263 H 0.15522 0.54046 0.27043 0.0
C1264 C 0.21726 0.52482 0.2254 0.0
N1265 N 0.24681 0.52543 0.21635 0.0
C1266 C 0.21989 0.52231 0.20911 0.0
C1267 C 0.22966 0.52768 0.2371 0.0
C1268 C 0.23492 0.52265 0.20477 0.0
C1269 C 0.24451 0.52793 0.23228 0.0
C1270 C 0.16636 0.49625 0.25417 0.0
C1271 C 0.17235 0.4869 0.26395 0.0
C1272 C 0.15058 0.49611 0.25345 0.0
C1273 C 0.16244 0.47759 0.27291 0.0
C1274 C 0.14107 0.48669 0.26263 0.0
N1275 N 0.14714 0.4777 0.27209 0.0
C1276 C 0.22016 0.49377 0.25564 0.0
C1277 C 0.20049 0.47981 0.23505 0.0
C1278 C 0.22566 0.47951 0.25554 0.0
N1279 N 0.20766 0.49353 0.24567 0.0
C1280 C 0.2055 0.46523 0.23464 0.0
C1281 C 0.21808 0.46494 0.24518 0.0
H1282 H 0.22551 0.50487 0.26404 0.0
H1283 H 0.1905 0.48009 0.22735 0.0
C1284 C 0.17135 0.53236 0.2049 0.0
N1285 N 0.16823 0.5208 0.21429 0.0
C1286 C 0.16189 0.53112 0.19094 0.0
C1287 C 0.1466 0.50573 0.19626 0.0
C1288 C 0.15631 0.50753 0.2102 0.0
C1289 C 0.14926 0.51771 0.18651 0.0
H1290 H 0.18098 0.54274 0.20851 0.0
H1291 H 0.15428 0.49844 0.21784 0.0
O1292 O 0.20435 0.52836 0.26746 0.0
O1293 O 0.18169 0.54429 0.24977 0.0
O1294 O 0.20259 0.52458 0.22976 0.0
O1295 O 0.17594 0.50579 0.24563 0.0
H1296 H 0.19463 0.5558 0.27776 0.0
H1297 H 0.22452 0.52475 0.28972 0.0
H1298 H 0.2033 0.57423 0.30401 0.0
H1299 H 0.23272 0.54384 0.31582 0.0
H1300 H 0.13361 0.54436 0.22864 0.0
H1301 H 0.18773 0.57423 0.24292 0.0
H1302 H 0.15198 0.53101 0.2415 0.0
H1303 H 0.16882 0.58673 0.22983 0.0
H1304 H 0.24724 0.58853 0.2724 0.0
H1305 H 0.22329 0.58993 0.22709 0.0
H1306 H 0.16733 0.51358 0.31524 0.0
H1307 H 0.13849 0.54016 0.29265 0.0
H1308 H 0.21041 0.52013 0.19991 0.0
H1309 H 0.22788 0.52973 0.24977 0.0
H1310 H 0.23712 0.52072 0.1922 0.0
H1311 H 0.2542 0.53012 0.24121 0.0
H1312 H 0.18455 0.48701 0.26487 0.0
H1313 H 0.14573 0.5033 0.24599 0.0
H1314 H 0.16694 0.47037 0.2806 0.0
H1315 H 0.12885 0.48655 0.26226 0.0
H1316 H 0.23524 0.47969 0.26404 0.0
H1317 H 0.19939 0.45422 0.2265 0.0
H1318 H 0.16423 0.54078 0.18393 0.0
H1319 H 0.13714 0.49508 0.19316 0.0
Li1320 Li 0.78687 0.90533 0.5332 0.0
Li1321 Li 0.79734 0.88668 0.54752 0.0
Li1322 Li 0.81575 0.90775 0.53643 0.0
Li1323 Li 0.79911 0.88405 0.51885 0.0
C1324 C 0.80332 0.92724 0.56021 0.0
N1325 N 0.80828 0.96007 0.57403 0.0
C1326 C 0.80471 0.93203 0.57696 0.0
C1327 C 0.80447 0.93914 0.55049 0.0
C1328 C 0.80721 0.94869 0.58372 0.0
C1329 C 0.80697 0.95567 0.55771 0.0
C1330 C 0.77123 0.86748 0.53459 0.0
C1331 C 0.76412 0.83813 0.53272 0.0
N1332 N 0.75434 0.84017 0.54441 0.0
C1333 C 0.761 0.86928 0.54647 0.0
C1334 C 0.77273 0.85177 0.52758 0.0
C1335 C 0.75261 0.85533 0.55132 0.0
C1336 C 0.77018 0.92702 0.52143 0.0
N1337 N 0.77095 0.91752 0.53274 0.0
C1338 C 0.74865 0.92496 0.54406 0.0
C1339 C 0.76063 0.91654 0.54408 0.0
C1340 C 0.74742 0.93471 0.5324 0.0
C1341 C 0.75847 0.93578 0.52106 0.0
H1342 H 0.77868 0.92785 0.51272 0.0
H1343 H 0.76175 0.9093 0.55323 0.0
C1344 C 0.80031 0.86334 0.56816 0.0
N1345 N 0.79462 0.87669 0.56633 0.0
C1346 C 0.79893 0.85717 0.58248 0.0
C1347 C 0.78582 0.87854 0.59277 0.0
C1348 C 0.7874 0.88425 0.57825 0.0
C1349 C 0.79175 0.86489 0.59513 0.0
H1350 H 0.80621 0.85765 0.55868 0.0
H1351 H 0.78298 0.89486 0.57652 0.0
C1352 C 0.80581 0.90733 0.50142 0.0
N1353 N 0.81234 0.90497 0.4696 0.0
C1354 C 0.82094 0.90782 0.49733 0.0
C1355 C 0.79399 0.90557 0.48932 0.0
C1356 C 0.82401 0.90665 0.48118 0.0
C1357 C 0.79753 0.9044 0.4733 0.0
C1358 C 0.82398 0.873 0.52986 0.0
C1359 C 0.83918 0.87812 0.52612 0.0
C1360 C 0.81728 0.85624 0.52748 0.0
C1361 C 0.84738 0.86636 0.52 0.0
C1362 C 0.82585 0.84487 0.52131 0.0
N1363 N 0.8406 0.85012 0.51773 0.0
C1364 C 0.84646 0.91972 0.55039 0.0
C1365 C 0.83862 0.93545 0.53222 0.0
C1366 C 0.86147 0.92935 0.55229 0.0
N1367 N 0.83551 0.92266 0.54019 0.0
C1368 C 0.85347 0.94541 0.53377 0.0
C1369 C 0.86524 0.94224 0.54369 0.0
H1370 H 0.84363 0.90956 0.5567 0.0
H1371 H 0.82967 0.93761 0.52426 0.0
C1372 C 0.78401 0.86373 0.48951 0.0
N1373 N 0.79807 0.86985 0.49789 0.0
C1374 C 0.78282 0.85508 0.47365 0.0
C1375 C 0.81056 0.85902 0.47532 0.0
C1376 C 0.81122 0.86768 0.49104 0.0
C1377 C 0.79624 0.85269 0.46631 0.0
H1378 H 0.77371 0.86595 0.49499 0.0
H1379 H 0.82233 0.8733 0.49743 0.0
O1380 O 0.80088 0.91096 0.55345 0.0
O1381 O 0.77981 0.88103 0.52994 0.0
O1382 O 0.80253 0.90809 0.51714 0.0
O1383 O 0.8158 0.88434 0.53592 0.0
H1384 H 0.80388 0.92296 0.58465 0.0
H1385 H 0.80344 0.93568 0.53751 0.0
H1386 H 0.8083 0.95258 0.59666 0.0
H1387 H 0.80788 0.96501 0.55033 0.0
H1388 H 0.76522 0.82591 0.52743 0.0
H1389 H 0.75968 0.88131 0.55205 0.0
H1390 H 0.78047 0.8501 0.51826 0.0
H1391 H 0.74475 0.85657 0.5606 0.0
H1392 H 0.74056 0.92402 0.55321 0.0
H1393 H 0.75794 0.94312 0.51183 0.0
H1394 H 0.80386 0.84675 0.5838 0.0
H1395 H 0.78 0.88476 0.60205 0.0
H1396 H 0.83017 0.9087 0.50647 0.0
H1397 H 0.78217 0.90487 0.49223 0.0
H1398 H 0.83565 0.90693 0.47785 0.0
H1399 H 0.78849 0.90296 0.4638 0.0
H1400 H 0.84452 0.89102 0.52772 0.0
H1401 H 0.80557 0.85203 0.53027 0.0
H1402 H 0.85911 0.87016 0.517 0.0
H1403 H 0.82077 0.83186 0.51935 0.0
H1404 H 0.87008 0.92662 0.56028 0.0
H1405 H 0.85582 0.9551 0.52681 0.0
H1406 H 0.77152 0.85044 0.46716 0.0
H1407 H 0.82125 0.8579 0.47005 0.0
Li1408 Li 0.93697 0.06894 0.29118 0.0
Li1409 Li 0.91381 0.05043 0.27296 0.0
Li1410 Li 0.93613 0.06773 0.25915 0.0
Li1411 Li 0.91673 0.08265 0.27497 0.0
C1412 C 0.94845 0.04303 0.27558 0.0
N1413 N 0.97306 0.02919 0.28208 0.0
C1414 C 0.94585 0.02755 0.27988 0.0
C1415 C 0.96354 0.05145 0.27454 0.0
C1416 C 0.95846 0.02077 0.28314 0.0
C1417 C 0.97583 0.04426 0.27788 0.0
C1418 C 0.90101 0.06243 0.2997 0.0
C1419 C 0.87332 0.05648 0.30021 0.0
N1420 N 0.87476 0.04994 0.31366 0.0
C1421 C 0.90223 0.05573 0.31356 0.0
C1422 C 0.88646 0.06288 0.29298 0.0
C1423 C 0.88882 0.04944 0.32043 0.0
C1424 C 0.95986 0.08099 0.32175 0.0
N1425 N 0.94918 0.06814 0.31284 0.0
C1426 C 0.95304 0.05186 0.33322 0.0
C1427 C 0.94585 0.05373 0.31849 0.0
C1428 C 0.96411 0.06485 0.34276 0.0
C1429 C 0.96744 0.07957 0.33653 0.0
H1430 H 0.96251 0.09253 0.31756 0.0
H1431 H 0.93742 0.04349 0.3116 0.0
C1432 C 0.89112 0.01914 0.25823 0.0
N1433 N 0.90037 0.02755 0.27167 0.0
C1434 C 0.8831 1.00266 0.25732 0.0
C1435 C 0.89404 1.0035 0.28404 0.0
C1436 C 0.9018 0.01992 0.28446 0.0
C1437 C 0.88454 0.99435 0.27027 0.0
H1438 H 0.8902 0.02504 0.24797 0.0
H1439 H 0.90932 0.02647 0.29501 0.0
C1440 C 0.95297 0.0981 0.27332 0.0
N1441 N 0.97788 0.11847 0.26362 0.0
C1442 C 0.95078 0.10688 0.26116 0.0
C1443 C 0.96782 0.09963 0.28052 0.0
C1444 C 0.96353 0.11712 0.25643 0.0
C1445 C 0.98026 0.11002 0.27546 0.0
C1446 C 0.90231 0.06731 0.24475 0.0
C1447 C 0.90732 0.07714 0.23353 0.0
C1448 C 0.88653 0.06109 0.24523 0.0
C1449 C 0.89642 0.08066 0.22298 0.0
C1450 C 0.87599 0.06488 0.23448 0.0
N1451 N 0.88111 0.07451 0.22367 0.0
C1452 C 0.9395 0.05822 0.22396 0.0
C1453 C 0.96317 0.07303 0.23769 0.0
C1454 C 0.94634 0.05671 0.20909 0.0
N1455 N 0.9478 0.06639 0.23809 0.0
C1456 C 0.97048 0.07172 0.22305 0.0
C1457 C 0.96216 0.06349 0.2082 0.0
H1458 H 0.9274 0.05272 0.22411 0.0
H1459 H 0.96994 0.07944 0.24873 0.0
C1460 C 0.89651 0.10685 0.28785 0.0
N1461 N 0.90515 0.10249 0.27549 0.0
C1462 C 0.88877 0.12008 0.28823 0.0
C1463 C 0.89861 0.12465 0.26324 0.0
C1464 C 0.9062 0.11139 0.26334 0.0
C1465 C 0.88956 0.12947 0.2758 0.0
H1466 H 0.89553 0.10005 0.29761 0.0
H1467 H 0.91304 0.10834 0.25352 0.0
O1468 O 0.93632 0.05006 0.27269 0.0
O1469 O 0.91395 0.06832 0.29256 0.0
O1470 O 0.94068 0.08784 0.27794 0.0
O1471 O 0.91279 0.06394 0.25533 0.0
H1472 H 0.93424 0.02088 0.28076 0.0
H1473 H 0.96572 0.06347 0.2713 0.0
H1474 H 0.95663 0.00882 0.28652 0.0
H1475 H 0.98758 0.05066 0.27716 0.0
H1476 H 0.86198 0.05671 0.29512 0.0
H1477 H 0.91341 0.05533 0.31893 0.0
H1478 H 0.88535 0.06809 0.28229 0.0
H1479 H 0.88958 0.04416 0.33113 0.0
H1480 H 0.94998 0.04011 0.33696 0.0
H1481 H 0.97564 0.09017 0.34318 0.0
H1482 H 0.87618 0.99637 0.24629 0.0
H1483 H 0.89553 0.99807 0.29452 0.0
H1484 H 0.93939 0.10566 0.25534 0.0
H1485 H 0.96972 0.09277 0.28981 0.0
H1486 H 0.96201 0.12396 0.247 0.0
H1487 H 0.99182 0.1113 0.28091 0.0
H1488 H 0.9195 0.08215 0.2331 0.0
H1489 H 0.88247 0.05343 0.25383 0.0
H1490 H 0.90013 0.08831 0.21428 0.0
H1491 H 0.86373 0.06017 0.23472 0.0
H1492 H 0.93918 0.04996 0.19837 0.0
H1493 H 0.98261 0.0774 0.22344 0.0
H1494 H 0.88199 0.12271 0.29824 0.0
H1495 H 0.90014 0.13124 0.25336 0.0
Li1496 Li 0.29412 0.66933 0.53638 0.0
Li1497 Li 0.30591 0.64982 0.51983 0.0
Li1498 Li 0.294 0.66879 0.50808 0.0
Li1499 Li 0.27855 0.64581 0.51785 0.0
C1500 C 0.32217 0.68513 0.5176 0.0
N1501 N 0.34155 0.70715 0.50299 0.0
C1502 C 0.33416 0.68032 0.50925 0.0
C1503 C 0.32007 0.70116 0.51856 0.0
C1504 C 0.34384 0.69164 0.50196 0.0
C1505 C 0.32997 0.71209 0.51107 0.0
C1506 C 0.29956 0.63701 0.54527 0.0
C1507 C 0.30737 0.61186 0.54768 0.0
N1508 N 0.31635 0.61971 0.56139 0.0
C1509 C 0.30882 0.64482 0.5594 0.0
C1510 C 0.29876 0.62039 0.53938 0.0
C1511 C 0.31722 0.63586 0.56738 0.0
C1512 C 0.28433 0.67645 0.56691 0.0
N1513 N 0.29436 0.68261 0.55673 0.0
C1514 C 0.30158 0.70838 0.57474 0.0
C1515 C 0.30315 0.69812 0.56044 0.0
C1516 C 0.2909 0.70253 0.58524 0.0
C1517 C 0.28238 0.68626 0.5813 0.0
H1518 H 0.27753 0.66404 0.56358 0.0
H1519 H 0.31105 0.70265 0.55211 0.0
C1520 C 0.32267 0.62694 0.50648 0.0
N1521 N 0.32275 0.63943 0.51891 0.0
C1522 C 0.33511 0.61929 0.50527 0.0
C1523 C 0.34755 0.63764 0.52962 0.0
C1524 C 0.33485 0.64495 0.53035 0.0
C1525 C 0.34776 0.62462 0.51695 0.0
H1526 H 0.31303 0.62306 0.4974 0.0
H1527 H 0.33464 0.65509 0.53997 0.0
C1528 C 0.26789 0.67761 0.53064 0.0
N1529 N 0.25159 0.69522 0.55138 0.0
C1530 C 0.25533 0.66944 0.53761 0.0
C1531 C 0.27213 0.69475 0.53423 0.0
C1532 C 0.24722 0.67856 0.54803 0.0
C1533 C 0.26377 0.70342 0.54476 0.0
C1534 C 0.28255 0.63389 0.48836 0.0
C1535 C 0.27504 0.63904 0.47591 0.0
C1536 C 0.2797 0.61721 0.48921 0.0
C1537 C 0.26472 0.6274 0.46456 0.0
C1538 C 0.26927 0.60597 0.47764 0.0
N1539 N 0.26206 0.61125 0.46566 0.0
C1540 C 0.30484 0.67934 0.48011 0.0
C1541 C 0.28584 0.69245 0.49183 0.0
C1542 C 0.30592 0.68878 0.46806 0.0
N1543 N 0.29501 0.68147 0.49172 0.0
C1544 C 0.28657 0.70216 0.48007 0.0
C1545 C 0.29673 0.7004 0.46801 0.0
H1546 H 0.31184 0.67033 0.48026 0.0
H1547 H 0.27785 0.69355 0.50095 0.0
C1548 C 0.25566 0.61894 0.52343 0.0
N1549 N 0.25913 0.63105 0.51469 0.0
C1550 C 0.2405 0.60991 0.52266 0.0
C1551 C 0.23303 0.62572 0.50355 0.0
C1552 C 0.24828 0.63438 0.50467 0.0
C1553 C 0.22892 0.61362 0.51295 0.0
H1554 H 0.26448 0.6168 0.53154 0.0
H1555 H 0.25137 0.6443 0.4981 0.0
O1556 O 0.3124 0.67415 0.5246 0.0
O1557 O 0.29148 0.64565 0.53712 0.0
O1558 O 0.27623 0.66888 0.5207 0.0
O1559 O 0.2925 0.64512 0.49975 0.0
H1560 H 0.33591 0.66796 0.50825 0.0
H1561 H 0.31069 0.70502 0.52471 0.0
H1562 H 0.35313 0.68807 0.49541 0.0
H1563 H 0.32838 0.72448 0.51159 0.0
H1564 H 0.30696 0.59902 0.5432 0.0
H1565 H 0.30964 0.65771 0.56408 0.0
H1566 H 0.29174 0.61419 0.52839 0.0
H1567 H 0.32449 0.64175 0.57829 0.0
H1568 H 0.30834 0.72086 0.57733 0.0
H1569 H 0.27428 0.68117 0.58924 0.0
H1570 H 0.33495 0.6095 0.49514 0.0
H1571 H 0.35703 0.64204 0.53892 0.0
H1572 H 0.25197 0.6562 0.53522 0.0
H1573 H 0.28201 0.7013 0.52925 0.0
H1574 H 0.23753 0.67238 0.55355 0.0
H1575 H 0.26702 0.71667 0.54774 0.0
H1576 H 0.27703 0.65189 0.4751 0.0
H1577 H 0.28529 0.61303 0.49884 0.0
H1578 H 0.25878 0.63122 0.45491 0.0
H1579 H 0.26687 0.59305 0.47822 0.0
H1580 H 0.31387 0.68706 0.45894 0.0
H1581 H 0.27902 0.7107 0.4802 0.0
H1582 H 0.23772 0.60079 0.53022 0.0
H1583 H 0.22444 0.62883 0.49583 0.0
Li1584 Li 0.41556 0.55175 0.77218 0.0
Li1585 Li 0.43834 0.57094 0.79082 0.0
Li1586 Li 0.41785 0.58509 0.77459 0.0
Li1587 Li 0.43706 0.5694 0.75912 0.0
C1588 C 0.40587 0.56389 0.80267 0.0
N1589 N 0.38686 0.55167 0.82465 0.0
C1590 C 0.40972 0.55209 0.81085 0.0
C1591 C 0.39236 0.56947 0.80562 0.0
C1592 C 0.39996 0.54607 0.82193 0.0
C1593 C 0.3829 0.56314 0.8168 0.0
C1594 C 0.44764 0.54219 0.77526 0.0
C1595 C 0.47171 0.53363 0.77187 0.0
N1596 N 0.46736 0.52223 0.78124 0.0
C1597 C 0.44341 0.53041 0.78488 0.0
C1598 C 0.4619 0.54386 0.76871 0.0
C1599 C 0.45354 0.52042 0.78776 0.0
C1600 C 0.40811 0.51604 0.76255 0.0
N1601 N 0.40231 0.52865 0.77038 0.0
C1602 C 0.3808 0.50873 0.77686 0.0
C1603 C 0.38874 0.52516 0.77734 0.0
C1604 C 0.38675 0.49542 0.76921 0.0
C1605 C 0.40061 0.49949 0.76187 0.0
H1606 H 0.41879 0.51877 0.75695 0.0
H1607 H 0.38409 0.53509 0.78355 0.0
C1608 C 0.44515 0.57658 0.82718 0.0
N1609 N 0.45065 0.57111 0.81288 0.0
C1610 C 0.45225 0.57539 0.84226 0.0
C1611 C 0.47089 0.5631 0.82823 0.0
C1612 C 0.46352 0.56464 0.81342 0.0
C1613 C 0.46536 0.56837 0.84326 0.0
H1614 H 0.43499 0.58173 0.827 0.0
H1615 H 0.4681 0.56031 0.80231 0.0
C1616 C 0.41198 0.56245 0.73872 0.0
N1617 N 0.41044 0.55514 0.7055 0.0
C1618 C 0.41596 0.575 0.7299 0.0
C1619 C 0.40723 0.54619 0.73066 0.0
C1620 C 0.41511 0.57105 0.71311 0.0
C1621 C 0.4065 0.54275 0.71385 0.0
C1622 C 0.45443 0.59999 0.77376 0.0
C1623 C 0.45306 0.61419 0.76803 0.0
C1624 C 0.46889 0.59613 0.77545 0.0
C1625 C 0.46628 0.62433 0.76402 0.0
C1626 C 0.48182 0.60657 0.77127 0.0
N1627 N 0.48025 0.62033 0.76569 0.0
C1628 C 0.40274 0.61329 0.78973 0.0
C1629 C 0.40178 0.60958 0.76157 0.0
C1630 C 0.39501 0.62656 0.79028 0.0
N1631 N 0.4061 0.60485 0.77549 0.0
C1632 C 0.39409 0.62279 0.7616 0.0
C1633 C 0.39039 0.6318 0.77608 0.0
H1634 H 0.40602 0.60977 0.80089 0.0
H1635 H 0.4043 0.60316 0.75019 0.0
C1636 C 0.4487 0.55259 0.72935 0.0
N1637 N 0.44879 0.56783 0.73799 0.0
C1638 C 0.45546 0.55048 0.71444 0.0
C1639 C 0.46262 0.57967 0.71706 0.0
C1640 C 0.45566 0.58126 0.7319 0.0
C1641 C 0.46265 0.56408 0.70779 0.0
H1642 H 0.44317 0.54186 0.7339 0.0
H1643 H 0.45552 0.59338 0.73832 0.0
O1644 O 0.41524 0.56985 0.79172 0.0
O1645 O 0.43796 0.55217 0.77239 0.0
O1646 O 0.41332 0.56598 0.75518 0.0
O1647 O 0.44164 0.58984 0.7776 0.0
H1648 H 0.42012 0.54761 0.80864 0.0
H1649 H 0.38921 0.57856 0.79932 0.0
H1650 H 0.40278 0.53692 0.82835 0.0
H1651 H 0.3724 0.56734 0.81923 0.0
H1652 H 0.48279 0.53479 0.76689 0.0
H1653 H 0.43245 0.52902 0.79011 0.0
H1654 H 0.46539 0.55303 0.76136 0.0
H1655 H 0.45043 0.51126 0.79519 0.0
H1656 H 0.37028 0.50653 0.78284 0.0
H1657 H 0.40569 0.48996 0.75551 0.0
H1658 H 0.44736 0.58009 0.85307 0.0
H1659 H 0.48071 0.5574 0.82769 0.0
H1660 H 0.42008 0.58759 0.73598 0.0
H1661 H 0.40422 0.53633 0.73732 0.0
H1662 H 0.41829 0.58062 0.70614 0.0
H1663 H 0.40287 0.53021 0.70745 0.0
H1664 H 0.4419 0.61728 0.76664 0.0
H1665 H 0.47008 0.58515 0.77985 0.0
H1666 H 0.46541 0.63534 0.75954 0.0
H1667 H 0.49309 0.60372 0.77245 0.0
H1668 H 0.39253 0.63249 0.80192 0.0
H1669 H 0.39131 0.62598 0.75014 0.0
H1670 H 0.45511 0.53811 0.70827 0.0
H1671 H 0.46761 0.59074 0.71275 0.0
Li1672 Li 0.6808 0.0274 0.76454 0.0
Li1673 Li 0.69862 0.04572 0.75095 0.0
Li1674 Li 0.67542 0.02523 0.73591 0.0
Li1675 Li 0.69788 0.016 0.74513 0.0
C1676 C 0.66761 0.05284 0.76297 0.0
N1677 N 0.65022 0.06908 0.78357 0.0
C1678 C 0.67441 0.0679 0.77278 0.0
C1679 C 0.65192 0.04616 0.76345 0.0
C1680 C 0.66543 0.07589 0.78316 0.0
C1681 C 0.64334 0.05451 0.774 0.0
C1682 C 0.71816 0.03687 0.77378 0.0
C1683 C 0.74583 0.04246 0.77304 0.0
N1684 N 0.74752 0.04737 0.78932 0.0
C1685 C 0.72017 0.04182 0.79052 0.0
C1686 C 0.73109 0.03708 0.76497 0.0
C1687 C 0.73511 0.04714 0.79814 0.0
C1688 C 0.66149 0.01257 0.78589 0.0
N1689 N 0.67201 0.02623 0.78435 0.0
C1690 C 0.6686 0.03956 0.81076 0.0
C1691 C 0.67596 0.03942 0.79655 0.0
C1692 C 0.65722 0.02588 0.81246 0.0
C1693 C 0.65393 0.01212 0.79992 0.0
H1694 H 0.6588 1.00213 0.77612 0.0
H1695 H 0.68452 0.05003 0.79506 0.0
C1696 C 0.7095 0.07484 0.73991 0.0
N1697 N 0.71052 0.0674 0.75281 0.0
C1698 C 0.71658 0.09135 0.74099 0.0
C1699 C 0.72596 0.09211 0.76848 0.0
C1700 C 0.71855 0.07565 0.76692 0.0
C1701 C 0.7248 0.10021 0.75549 0.0
H1702 H 0.70283 0.06803 0.72892 0.0
H1703 H 0.71872 0.0697 0.7772 0.0
C1704 C 0.66394 0.99463 0.74063 0.0
N1705 N 0.63981 0.96968 0.72551 0.0
C1706 C 0.66693 0.98052 0.73129 0.0
C1707 C 0.64867 0.99595 0.74246 0.0
C1708 C 0.65457 0.96806 0.7237 0.0
C1709 C 0.63663 0.98324 0.73466 0.0
C1710 C 0.7065 0.02969 0.71765 0.0
C1711 C 0.70103 0.0198 0.70267 0.0
C1712 C 0.72175 0.03871 0.72007 0.0
C1713 C 0.71105 0.01871 0.6905 0.0
C1714 C 0.73142 0.0373 0.7076 0.0
N1715 N 0.72592 0.0274 0.6932 0.0
C1716 C 0.65226 0.03452 0.71857 0.0
C1717 C 0.65677 0.00855 0.70706 0.0
C1718 C 0.64117 0.03351 0.706 0.0
N1719 N 0.65981 0.02217 0.71885 0.0
C1720 C 0.6456 0.00692 0.69436 0.0
C1721 C 0.63781 0.01962 0.69366 0.0
H1722 H 0.65506 0.04531 0.72797 0.0
H1723 H 0.6632 0.99908 0.70734 0.0
C1724 C 0.71711 0.99651 0.75418 0.0
N1725 N 0.70979 0.99977 0.74106 0.0
C1726 C 0.72563 0.98437 0.7525 0.0
C1727 C 0.71839 0.97855 0.72383 0.0
C1728 C 0.71017 0.99104 0.72606 0.0
C1729 C 0.72631 0.97519 0.73719 0.0
H1730 H 0.7161 1.00313 0.76604 0.0
H1731 H 0.70374 0.99339 0.7159 0.0
O1732 O 0.67626 0.04472 0.75289 0.0
O1733 O 0.7036 0.03172 0.76613 0.0
O1734 O 0.6759 0.007 0.74807 0.0
O1735 O 0.69678 0.03105 0.72963 0.0
H1736 H 0.68651 0.0733 0.77252 0.0
H1737 H 0.64642 0.03464 0.75578 0.0
H1738 H 0.67057 0.0875 0.7909 0.0
H1739 H 0.63121 0.04942 0.77457 0.0
H1740 H 0.75594 0.04269 0.76637 0.0
H1741 H 0.71029 0.04161 0.79753 0.0
H1742 H 0.72974 0.03291 0.75209 0.0
H1743 H 0.73683 0.05109 0.81108 0.0
H1744 H 0.67142 0.0505 0.82002 0.0
H1745 H 0.64547 1.00119 0.80086 0.0
H1746 H 0.71547 0.0972 0.7307 0.0
H1747 H 0.73196 0.09862 0.77994 0.0
H1748 H 0.67865 0.97921 0.72987 0.0
H1749 H 0.64614 0.00669 0.74975 0.0
H1750 H 0.65672 0.95712 0.71637 0.0
H1751 H 0.62477 0.98415 0.73588 0.0
H1752 H 0.68921 0.01292 0.7005 0.0
H1753 H 0.72606 0.04685 0.73139 0.0
H1754 H 0.70701 0.01098 0.6789 0.0
H1755 H 0.74327 0.04416 0.70934 0.0
H1756 H 0.63536 0.04354 0.70586 0.0
H1757 H 0.64346 0.99614 0.6849 0.0
H1758 H 0.73123 0.98183 0.76315 0.0
H1759 H 0.71852 0.97157 0.71187 0.0
Li1760 Li 0.80057 0.70037 0.02456 0.0
Li1761 Li 0.81081 0.67808 0.01003 0.0
Li1762 Li 0.79969 0.69678 0.9954 0.0
Li1763 Li 0.78215 0.67661 0.00767 0.0
C1764 C 0.82864 0.71557 0.01908 0.0
N1765 N 0.84894 0.74304 0.03624 0.0
C1766 C 0.84229 0.71401 0.02699 0.0
C1767 C 0.8254 0.7311 0.01975 0.0
C1768 C 0.85239 0.72805 0.03564 0.0
C1769 C 0.83578 0.74483 0.02854 0.0
C1770 C 0.80123 0.67504 0.04193 0.0
C1771 C 0.79611 0.66767 0.06777 0.0
N1772 N 0.81152 0.67165 0.07227 0.0
C1773 C 0.81701 0.67898 0.0468 0.0
C1774 C 0.79068 0.66926 0.05247 0.0
C1775 C 0.82199 0.67722 0.06218 0.0
C1776 C 0.78943 0.72141 0.04903 0.0
N1777 N 0.80198 0.71513 0.04517 0.0
C1778 C 0.814 0.72578 0.07194 0.0
C1779 C 0.8143 0.71752 0.05619 0.0
C1780 C 0.801 0.73192 0.0764 0.0
C1781 C 0.78876 0.73003 0.06459 0.0
H1782 H 0.77966 0.71919 0.0402 0.0
H1783 H 0.82418 0.7125 0.05302 0.0
C1784 C 0.83995 0.67064 1.00379 0.0
N1785 N 0.82636 0.66527 0.00993 0.0
C1786 C 0.85183 0.6621 0.00422 0.0
C1787 C 0.83537 0.64242 0.01694 0.0
C1788 C 0.82385 0.65138 0.01633 0.0
C1789 C 0.84965 0.6478 0.01094 0.0
H1790 H 0.84164 0.68168 0.9987 0.0
H1791 H 0.81298 0.64738 0.02122 0.0
C1792 C 0.77501 0.70924 1.00143 0.0
N1793 N 0.75959 0.72718 0.9846 0.0
C1794 C 0.7629 0.70123 0.9898 0.0
C1795 C 0.77916 0.72638 0.00464 0.0
C1796 C 0.75528 0.71051 0.98138 0.0
C1797 C 0.77125 0.73523 0.99597 0.0
C1798 C 0.79417 0.65616 0.98353 0.0
C1799 C 0.79694 0.65163 0.96745 0.0
C1800 C 0.78983 0.64408 0.9928 0.0
C1801 C 0.79532 0.63502 0.96089 0.0
C1802 C 0.78834 0.6276 0.9858 0.0
N1803 N 0.79109 0.62345 0.97012 0.0
C1804 C 0.81249 0.71881 0.97436 0.0
C1805 C 0.79017 0.69851 0.96359 0.0
C1806 C 0.81355 0.72439 0.95969 0.0
N1807 N 0.80091 0.70608 0.97605 0.0
C1808 C 0.79071 0.70377 0.94879 0.0
C1809 C 0.80259 0.71681 0.94655 0.0
H1810 H 0.82111 0.72443 0.98428 0.0
H1811 H 0.78123 0.68822 0.96511 0.0
C1812 C 0.75438 0.66358 0.01981 0.0
N1813 N 0.76177 0.6631 0.0061 0.0
C1814 C 0.7394 0.65432 0.01966 0.0
C1815 C 0.73964 0.64458 0.99113 0.0
C1816 C 0.75471 0.65393 0.99187 0.0
C1817 C 0.73181 0.64465 0.00519 0.0
H1818 H 0.76007 0.67137 0.03083 0.0
H1819 H 0.76071 0.65399 0.98105 0.0
O1820 O 0.81853 0.70197 0.01067 0.0
O1821 O 0.79611 0.67661 0.02686 0.0
O1822 O 0.78276 0.70036 0.00963 0.0
O1823 O 0.7958 0.67238 0.99013 0.0
H1824 H 0.84502 0.7021 0.02655 0.0
H1825 H 0.81496 0.73251 0.01359 0.0
H1826 H 0.86295 0.72702 0.04189 0.0
H1827 H 0.83337 0.75692 0.02923 0.0
H1828 H 0.78806 0.66324 0.07605 0.0
H1829 H 0.82535 0.68357 0.03888 0.0
H1830 H 0.77843 0.66599 0.0489 0.0
H1831 H 0.83418 0.68032 0.06612 0.0
H1832 H 0.82373 0.72708 0.08064 0.0
H1833 H 0.77847 0.73445 0.06757 0.0
H1834 H 0.86256 0.6666 0.99928 0.0
H1835 H 0.83321 0.63161 0.02241 0.0
H1836 H 0.75954 0.68797 0.98718 0.0
H1837 H 0.78835 0.73278 0.01377 0.0
H1838 H 0.74597 0.70446 0.97227 0.0
H1839 H 0.77438 0.74849 0.99829 0.0
H1840 H 0.80031 0.66087 0.96014 0.0
H1841 H 0.78764 0.64738 0.00527 0.0
H1842 H 0.79743 0.63132 0.94845 0.0
H1843 H 0.785 0.61812 0.99283 0.0
H1844 H 0.82308 0.73429 0.95857 0.0
H1845 H 0.78183 0.69765 0.93922 0.0
H1846 H 0.73368 0.65501 0.0307 0.0
H1847 H 0.73421 0.63729 0.97973 0.0
Li1848 Li 0.89191 0.53757 0.79148 0.0
Li1849 Li 0.91397 0.55624 0.81 0.0
Li1850 Li 0.89401 0.56748 0.79835 0.0
Li1851 Li 0.91281 0.55584 0.78141 0.0
C1852 C 0.88 0.55152 0.823 0.0
N1853 N 0.85666 0.5516 0.84345 0.0
C1854 C 0.88333 0.55934 0.83911 0.0
C1855 C 0.86484 0.5434 0.81741 0.0
C1856 C 0.87136 0.55935 0.84922 0.0
C1857 C 0.85319 0.54367 0.8279 0.0
C1858 C 0.92373 0.52908 0.78397 0.0
C1859 C 0.94911 0.5268 0.77634 0.0
N1860 N 0.94275 0.51265 0.76585 0.0
C1861 C 0.91746 0.51443 0.77325 0.0
C1862 C 0.93969 0.53523 0.78566 0.0
C1863 C 0.92726 0.50634 0.76415 0.0
C1864 C 0.8728 0.50966 0.7715 0.0
N1865 N 0.87893 0.51629 0.78682 0.0
C1866 C 0.86972 0.49087 0.79541 0.0
C1867 C 0.87741 0.50736 0.79877 0.0
C1868 C 0.86356 0.48361 0.77961 0.0
C1869 C 0.86489 0.49329 0.76764 0.0
H1870 H 0.87467 0.51677 0.76209 0.0
H1871 H 0.88263 0.51291 0.81078 0.0
C1872 C 0.92821 0.57152 0.84088 0.0
N1873 N 0.92703 0.5583 0.82889 0.0
C1874 C 0.93797 0.57336 0.85479 0.0
C1875 C 0.94457 0.54757 0.84403 0.0
C1876 C 0.93489 0.54637 0.8302 0.0
C1877 C 0.94621 0.56124 0.85646 0.0
H1878 H 0.92153 0.58061 0.83968 0.0
H1879 H 0.93357 0.5359 0.82054 0.0
C1880 C 0.87677 0.54995 0.7671 0.0
N1881 N 0.84946 0.54374 0.74776 0.0
C1882 C 0.87676 0.54607 0.75036 0.0
C1883 C 0.86293 0.55088 0.77399 0.0
C1884 C 0.86283 0.5429 0.74079 0.0
C1885 C 0.84924 0.54765 0.76401 0.0
C1886 C 0.9282 0.58713 0.8078 0.0
C1887 C 0.92482 0.60118 0.81687 0.0
C1888 C 0.94346 0.58522 0.80799 0.0
C1889 C 0.93673 0.61295 0.82621 0.0
C1890 C 0.95504 0.59725 0.81751 0.0
N1891 N 0.95146 0.61074 0.82635 0.0
C1892 C 0.88034 0.59162 0.8165 0.0
C1893 C 0.87963 0.59059 0.78829 0.0
C1894 C 0.87328 0.60502 0.81846 0.0
N1895 N 0.88326 0.58468 0.80157 0.0
C1896 C 0.87252 0.60388 0.78967 0.0
C1897 C 0.86938 0.61137 0.80493 0.0
H1898 H 0.8839 0.58713 0.82693 0.0
H1899 H 0.88243 0.5851 0.77662 0.0
C1900 C 0.92131 0.54476 0.75069 0.0
N1901 N 0.92437 0.55751 0.76336 0.0
C1902 C 0.93031 0.54494 0.73765 0.0
C1903 C 0.94484 0.57185 0.75051 0.0
C1904 C 0.93568 0.57104 0.76341 0.0
C1905 C 0.94239 0.55855 0.73751 0.0
H1906 H 0.91205 0.53428 0.75088 0.0
H1907 H 0.93765 0.58115 0.7735 0.0
O1908 O 0.89163 0.55122 0.813 0.0
O1909 O 0.91429 0.5373 0.79281 0.0
O1910 O 0.89034 0.55304 0.77661 0.0
O1911 O 0.91666 0.57541 0.7987 0.0
H1912 H 0.89502 0.56546 0.84372 0.0
H1913 H 0.8621 0.5368 0.80515 0.0
H1914 H 0.87376 0.56549 0.86167 0.0
H1915 H 0.84141 0.5375 0.8237 0.0
H1916 H 0.96147 0.53149 0.77744 0.0
H1917 H 0.90516 0.50941 0.77185 0.0
H1918 H 0.94476 0.54641 0.79405 0.0
H1919 H 0.92256 0.49505 0.75572 0.0
H1920 H 0.86887 0.48379 0.80496 0.0
H1921 H 0.86057 0.48805 0.75526 0.0
H1922 H 0.9388 0.58394 0.86427 0.0
H1923 H 0.95078 0.53799 0.84497 0.0
H1924 H 0.8874 0.54543 0.74483 0.0
H1925 H 0.86278 0.5543 0.78686 0.0
H1926 H 0.86263 0.53979 0.72783 0.0
H1927 H 0.83844 0.54833 0.76919 0.0
H1928 H 0.91311 0.60295 0.81676 0.0
H1929 H 0.94631 0.57452 0.80094 0.0
H1930 H 0.93426 0.62383 0.83336 0.0
H1931 H 0.96688 0.59586 0.81785 0.0
H1932 H 0.87128 0.6106 0.83046 0.0
H1933 H 0.86952 0.60822 0.77888 0.0
H1934 H 0.92806 0.53433 0.72801 0.0
H1935 H 0.95378 0.58275 0.75077 0.0
Li1936 Li 0.79923 0.41985 0.54275 0.0
Li1937 Li 0.78776 0.43923 0.52964 0.0
Li1938 Li 0.8011 0.4195 0.51491 0.0
Li1939 Li 0.81624 0.44223 0.53288 0.0
C1940 C 0.77082 0.40356 0.53051 0.0
N1941 N 0.74886 0.38066 0.54138 0.0
C1942 C 0.75828 0.40825 0.53788 0.0
C1943 C 0.77211 0.38719 0.52854 0.0
C1944 C 0.74731 0.3965 0.54331 0.0
C1945 C 0.76092 0.37581 0.53416 0.0
C1946 C 0.81111 0.45432 0.56225 0.0
C1947 C 0.82549 0.48159 0.574 0.0
N1948 N 0.83171 0.47547 0.58599 0.0
C1949 C 0.81768 0.44832 0.57469 0.0
C1950 C 0.81505 0.47112 0.56191 0.0
C1951 C 0.82805 0.4592 0.58658 0.0
C1952 C 0.80841 0.39944 0.56229 0.0
N1953 N 0.79709 0.40745 0.5595 0.0
C1954 C 0.78404 0.39873 0.58159 0.0
C1955 C 0.78516 0.40748 0.56897 0.0
C1956 C 0.79553 0.39023 0.58473 0.0
C1957 C 0.80789 0.39077 0.5749 0.0
H1958 H 0.81807 0.40013 0.55499 0.0
H1959 H 0.77661 0.41445 0.56685 0.0
C1960 C 0.75876 0.44536 0.51953 0.0
N1961 N 0.77171 0.4508 0.52989 0.0
C1962 C 0.74708 0.4542 0.52025 0.0
C1963 C 0.7624 0.47401 0.54215 0.0
C1964 C 0.77365 0.46474 0.54112 0.0
C1965 C 0.74892 0.46877 0.53163 0.0
H1966 H 0.75743 0.43408 0.51088 0.0
H1967 H 0.78386 0.46857 0.54941 0.0
C1968 C 0.82589 0.40868 0.52354 0.0
N1969 N 0.84209 0.38713 0.50772 0.0
C1970 C 0.84026 0.41462 0.51821 0.0
C1971 C 0.81984 0.39177 0.52097 0.0
C1972 C 0.84825 0.40353 0.51021 0.0
C1973 C 0.82817 0.38108 0.5129 0.0
C1974 C 0.80287 0.44325 0.49781 0.0
C1975 C 0.81642 0.44856 0.49068 0.0
C1976 C 0.78891 0.43739 0.48824 0.0
C1977 C 0.81578 0.44777 0.47402 0.0
C1978 C 0.78876 0.43677 0.47162 0.0
N1979 N 0.80208 0.44192 0.46492 0.0
C1980 C 0.7886 0.39366 0.4884 0.0
C1981 C 0.81402 0.40822 0.48634 0.0
C1982 C 0.78866 0.38355 0.47351 0.0
N1983 N 0.8012 0.40567 0.49451 0.0
C1984 C 0.81463 0.39839 0.47152 0.0
C1985 C 0.80182 0.38588 0.46485 0.0
H1986 H 0.77846 0.39203 0.49501 0.0
H1987 H 0.82382 0.41796 0.49133 0.0
C1988 C 0.84685 0.45391 0.54574 0.0
N1989 N 0.83531 0.45751 0.53686 0.0
C1990 C 0.86156 0.46403 0.54771 0.0
C1991 C 0.85197 0.4819 0.53219 0.0
C1992 C 0.83743 0.47136 0.53044 0.0
C1993 C 0.86436 0.47805 0.54058 0.0
H1994 H 0.84471 0.44282 0.55077 0.0
H1995 H 0.82791 0.474 0.52367 0.0
O1996 O 0.78172 0.4149 0.52518 0.0
O1997 O 0.80121 0.44379 0.55026 0.0
O1998 O 0.81786 0.41936 0.53139 0.0
O1999 O 0.8033 0.44362 0.51405 0.0
H2000 H 0.75712 0.42087 0.53958 0.0
H2001 H 0.78166 0.38332 0.52274 0.0
H2002 H 0.7376 0.39998 0.54912 0.0
H2003 H 0.76182 0.36312 0.53278 0.0
H2004 H 0.82872 0.49458 0.5738 0.0
H2005 H 0.81491 0.4354 0.57516 0.0
H2006 H 0.81044 0.47598 0.55218 0.0
H2007 H 0.83322 0.45469 0.59625 0.0
H2008 H 0.77429 0.39866 0.58879 0.0
H2009 H 0.8173 0.38491 0.57713 0.0
H2010 H 0.7368 0.44977 0.51196 0.0
H2011 H 0.76409 0.48498 0.55132 0.0
H2012 H 0.8451 0.42766 0.51998 0.0
H2013 H 0.8088 0.38696 0.52512 0.0
H2014 H 0.85933 0.40797 0.50592 0.0
H2015 H 0.82358 0.36797 0.51075 0.0
H2016 H 0.82736 0.45299 0.49789 0.0
H2017 H 0.77836 0.4331 0.49355 0.0
H2018 H 0.82619 0.45172 0.46833 0.0
H2019 H 0.77805 0.43213 0.46404 0.0
H2020 H 0.77843 0.37424 0.46871 0.0
H2021 H 0.82508 0.40053 0.4654 0.0
H2022 H 0.87079 0.46043 0.55408 0.0
H2023 H 0.85356 0.49271 0.52672 0.0
Li2024 Li 0.65695 0.51234 0.28448 0.0
Li2025 Li 0.67981 0.52932 0.27082 0.0
Li2026 Li 0.65758 0.51017 0.2526 0.0
Li2027 Li 0.67739 0.49697 0.26747 0.0
C2028 C 0.64724 0.53691 0.26334 0.0
N2029 N 0.62703 0.55065 0.24717 0.0
C2030 C 0.65287 0.55038 0.25615 0.0
C2031 C 0.63136 0.53039 0.26227 0.0
C2032 C 0.64245 0.55717 0.24805 0.0
C2033 C 0.62132 0.53753 0.25405 0.0
C2034 C 0.69298 0.52316 0.29822 0.0
C2035 C 0.72039 0.52981 0.30561 0.0
N2036 N 0.7183 0.54082 0.31858 0.0
C2037 C 0.69107 0.53452 0.3116 0.0
C2038 C 0.70772 0.52075 0.29515 0.0
C2039 C 0.70403 0.54335 0.32176 0.0
C2040 C 0.6519 0.50892 0.31883 0.0
N2041 N 0.64553 0.51335 0.30566 0.0
C2042 C 0.62504 0.52041 0.32182 0.0
C2043 C 0.63223 0.51904 0.30711 0.0
C2044 C 0.63139 0.51603 0.33571 0.0
C2045 C 0.64512 0.51016 0.33376 0.0
H2046 H 0.66246 0.50449 0.31789 0.0
H2047 H 0.62714 0.52279 0.29689 0.0
C2048 C 0.70294 0.55637 0.26162 0.0
N2049 N 0.69326 0.55229 0.27305 0.0
C2050 C 0.71083 0.5728 0.26213 0.0
C2051 C 0.69884 0.58088 0.28614 0.0
C2052 C 0.69123 0.56431 0.28522 0.0
C2053 C 0.70879 0.58557 0.27442 0.0
H2054 H 0.70424 0.54696 0.25173 0.0
H2055 H 0.68335 0.56113 0.2941 0.0
C2056 C 0.64178 0.48016 0.25756 0.0
N2057 N 0.61803 0.45698 0.23937 0.0
C2058 C 0.64491 0.46948 0.24425 0.0
C2059 C 0.6266 0.4791 0.26165 0.0
C2060 C 0.63273 0.45784 0.23519 0.0
C2061 C 0.61474 0.46726 0.2523 0.0
C2062 C 0.68967 0.50741 0.23987 0.0
C2063 C 0.68318 0.49771 0.2251 0.0
C2064 C 0.70569 0.51161 0.2432 0.0
C2065 C 0.6929 0.49244 0.21381 0.0
C2066 C 0.71502 0.50607 0.2316 0.0
N2067 N 0.70848 0.49669 0.21727 0.0
C2068 C 0.65273 0.52136 0.22161 0.0
C2069 C 0.63088 0.50173 0.2251 0.0
C2070 C 0.6457 0.52341 0.20688 0.0
N2071 N 0.64543 0.51063 0.23064 0.0
C2072 C 0.62344 0.50336 0.21032 0.0
C2073 C 0.63071 0.51437 0.20067 0.0
H2074 H 0.66415 0.52863 0.22593 0.0
H2075 H 0.62483 0.49333 0.23213 0.0
C2076 C 0.69215 0.47213 0.28133 0.0
N2077 N 0.68917 0.47732 0.26726 0.0
C2078 C 0.69979 0.45896 0.28189 0.0
C2079 C 0.70159 0.45619 0.25352 0.0
C2080 C 0.69383 0.46936 0.25347 0.0
C2081 C 0.70485 0.45046 0.26787 0.0
H2082 H 0.68851 0.47817 0.29236 0.0
H2083 H 0.69155 0.47313 0.24218 0.0
O2084 O 0.65726 0.52966 0.27073 0.0
O2085 O 0.6805 0.51467 0.28794 0.0
O2086 O 0.6535 0.49176 0.26643 0.0
O2087 O 0.68035 0.51252 0.25115 0.0
H2088 H 0.66515 0.55543 0.25669 0.0
H2089 H 0.62686 0.51975 0.26747 0.0
H2090 H 0.64664 0.56757 0.2424 0.0
H2091 H 0.60901 0.53256 0.25305 0.0
H2092 H 0.73189 0.5281 0.30339 0.0
H2093 H 0.67971 0.53659 0.31404 0.0
H2094 H 0.70935 0.51203 0.28478 0.0
H2095 H 0.70276 0.55222 0.33215 0.0
H2096 H 0.61469 0.52526 0.3223 0.0
H2097 H 0.65065 0.50633 0.34368 0.0
H2098 H 0.71808 0.5755 0.25259 0.0
H2099 H 0.69686 0.58995 0.29602 0.0
H2100 H 0.65663 0.47025 0.24092 0.0
H2101 H 0.62403 0.48736 0.27191 0.0
H2102 H 0.63496 0.4495 0.22482 0.0
H2103 H 0.60293 0.46628 0.2553 0.0
H2104 H 0.67077 0.49422 0.22243 0.0
H2105 H 0.71086 0.519 0.25466 0.0
H2106 H 0.68805 0.48492 0.20232 0.0
H2107 H 0.72745 0.50921 0.234 0.0
H2108 H 0.65204 0.53239 0.2006 0.0
H2109 H 0.61203 0.49582 0.2065 0.0
H2110 H 0.70146 0.4554 0.2934 0.0
H2111 H 0.70514 0.45072 0.24221 0.0
Tb2112 Tb 0.02887 0.0324 0.01306 0.0
C2113 C 0.06847 0.08562 0.05407 0.0
C2114 C 0.07367 0.10595 0.03704 0.0
C2115 C 0.07066 0.11453 0.06534 0.0
C2116 C 0.07079 0.08943 0.03904 0.0
C2117 C 0.06927 0.09827 0.06756 0.0
C2118 C 0.07286 0.11837 0.05006 0.0
C2119 C 0.07118 0.07868 0.08468 0.0
N2120 N 0.06771 0.06987 0.05581 0.0
C2121 C 0.07073 0.06672 0.07095 0.0
C2122 C 0.06995 0.09443 0.08296 0.0
Tb2123 Tb 0.06584 0.05098 0.03207 0.0
N2124 N 0.07175 0.07716 0.02675 0.0
C2125 C 0.07699 0.08087 0.01258 0.0
C2126 C 0.07803 0.10959 0.02222 0.0
C2127 C 0.08008 0.09705 0.01009 0.0
H2128 H 0.07192 0.05462 0.07249 0.0
H2129 H 0.08397 0.09974 0.99875 0.0
H2130 H 0.07472 0.13107 0.04863 0.0
H2131 H 0.07263 0.07578 0.09655 0.0
H2132 H 0.07879 0.07158 1.00295 0.0
H2133 H 0.01034 0.98873 0.05238 0.0
H2134 H 0.08043 0.12209 0.02031 0.0
H2135 H 0.02384 0.02398 0.97235 0.0
H2136 H 0.01529 0.01556 0.04482 0.0
H2137 H 0.02385 1.00066 0.95065 0.0
H2138 H 0.07097 0.12433 0.0755 0.0
H2139 H 0.01365 0.96441 0.03333 0.0
H2140 H 0.01925 0.95231 0.00573 0.0
H2141 H 0.07064 0.1038 0.0936 0.0
H2142 H 0.02371 0.9557 0.97795 0.0
N2143 N 0.02244 0.00745 0.02151 0.0
C2144 C 0.01725 0.00549 0.03622 0.0
C2145 C 0.01599 0.97634 0.02984 0.0
C2146 C 0.02025 0.97812 0.01446 0.0
C2147 C 0.01413 0.99004 0.04062 0.0
C2148 C 0.02321 0.99397 0.01052 0.0
H2149 H 0.02522 0.97365 0.95719 0.0
N2150 N 0.0273 0.01108 0.99137 0.0
C2151 C 0.02482 0.99918 0.96309 0.0
C2152 C 0.02603 0.99591 0.995 0.0
C2153 C 0.025 0.01244 0.9755 0.0
C2154 C 0.02561 0.98399 0.96683 0.0
C2155 C 0.02552 0.98201 0.98289 0.0
O2156 O 0.01418 0.0392 0.99638 0.0
O2157 O 0.04735 0.05444 0.01618 0.0
O2158 O 0.04915 0.04843 0.05126 0.0
O2159 O 0.02443 0.04082 0.03831 0.0
O2160 O 0.02569 0.05739 0.02045 0.0
O2161 O 0.00497 0.02606 0.01475 0.0
O2162 O 0.08097 0.04221 0.04659 0.0
O2163 O 0.04752 0.02882 0.0286 0.0
O2164 O 0.04546 0.03453 0.99361 0.0
O2165 O 0.07015 0.04486 0.00639 0.0
O2166 O 0.06914 0.02637 0.02321 0.0
O2167 O 0.08963 0.0584 0.03037 0.0
C2168 C 0.03944 0.06528 0.0195 0.0
C2169 C 0.98827 0.02401 0.99156 0.0
C2170 C 0.96249 0.02428 0.98039 0.0
C2171 C 0.97604 0.03193 0.99038 0.0
C2172 C 0.9615 0.00846 0.97135 0.0
C2173 C 0.98691 0.00805 0.98292 0.0
C2174 C 0.97363 1.00042 0.97268 0.0
C2175 C 0.03385 0.04583 0.05169 0.0
C2176 C 1.00179 0.0327 1.00259 0.0
C2177 C 0.02381 0.96644 0.98703 0.0
C2178 C 0.02118 0.96449 1.00282 0.0
C2179 C 0.05554 0.01824 0.02443 0.0
C2180 C 0.10646 0.0581 0.05272 0.0
C2181 C 0.11828 0.04965 0.05375 0.0
C2182 C 0.13186 0.05672 0.06384 0.0
C2183 C 0.13331 0.07243 0.07323 0.0
C2184 C 0.10814 0.07391 0.06185 0.0
C2185 C 0.12146 0.08093 0.07224 0.0
C2186 C 0.06078 0.03865 0.99308 0.0
C2187 C 0.09314 0.0502 0.04115 0.0
H2188 H 0.97698 0.04393 0.99779 0.0
H2189 H 0.95134 1.00226 0.96335 0.0
H2190 H 0.9959 1.00142 0.9842 0.0
H2191 H 0.97266 0.98815 0.9659 0.0
H2192 H 0.1171 0.03774 0.04605 0.0
H2193 H 0.14362 0.07819 0.08118 0.0
H2194 H 0.09939 0.0809 0.06078 0.0
H2195 H 0.12272 0.09311 0.07934 0.0
Tb2196 Tb 0.30069 0.77357 0.25138 0.0
C2197 C 0.29389 0.83731 0.29492 0.0
C2198 C 0.31962 0.84882 0.30768 0.0
C2199 C 0.30152 0.86647 0.30659 0.0
C2200 C 0.30812 0.83516 0.29986 0.0
C2201 C 0.29049 0.85309 0.29796 0.0
C2202 C 0.31604 0.8643 0.31158 0.0
C2203 C 0.26551 0.8414 0.28382 0.0
N2204 N 0.28363 0.82408 0.28644 0.0
C2205 C 0.26928 0.82601 0.28139 0.0
C2206 C 0.27616 0.85502 0.29215 0.0
Tb2207 Tb 0.28968 0.79859 0.28605 0.0
N2208 N 0.31116 0.82004 0.29553 0.0
C2209 C 0.32634 0.81875 0.29653 0.0
C2210 C 0.33461 0.84675 0.31052 0.0
C2211 C 0.33807 0.83175 0.30445 0.0
H2212 H 0.26025 0.81573 0.27589 0.0
H2213 H 0.34989 0.83032 0.30537 0.0
H2214 H 0.32465 0.87483 0.31778 0.0
H2215 H 0.2542 0.84264 0.27958 0.0
H2216 H 0.32999 0.80824 0.29046 0.0
H2217 H 0.23997 0.74502 0.23114 0.0
H2218 H 0.34376 0.85692 0.31637 0.0
H2219 H 0.32761 0.75367 0.26342 0.0
H2220 H 0.26027 0.76541 0.24807 0.0
H2221 H 0.33243 0.72626 0.25793 0.0
H2222 H 0.29906 0.87861 0.30916 0.0
H2223 H 0.24556 0.71905 0.21714 0.0
H2224 H 0.26421 0.70042 0.21359 0.0
H2225 H 0.27315 0.86692 0.29416 0.0
H2226 H 0.28897 0.6947 0.22247 0.0
N2227 N 0.27854 0.75326 0.2415 0.0
C2228 C 0.26354 0.75513 0.24095 0.0
C2229 C 0.2548 0.72846 0.22404 0.0
C2230 C 0.26955 0.72557 0.22654 0.0
C2231 C 0.25164 0.7431 0.23183 0.0
C2232 C 0.28113 0.73822 0.23578 0.0
H2233 H 0.31385 0.70385 0.24008 0.0
N2234 N 0.305 0.74731 0.25074 0.0
C2235 C 0.32171 0.72849 0.25313 0.0
C2236 C 0.29484 0.73502 0.24086 0.0
C2237 C 0.31859 0.74416 0.25659 0.0
C2238 C 0.31129 0.71592 0.24295 0.0
C2239 C 0.2977 0.71911 0.23656 0.0
O2240 O 0.32399 0.77544 0.24753 0.0
O2241 O 0.30484 0.79699 0.26742 0.0
O2242 O 0.2755 0.79857 0.26353 0.0
O2243 O 0.28303 0.78379 0.24018 0.0
O2244 O 0.30634 0.79725 0.2433 0.0
O2245 O 0.30647 0.76893 0.22741 0.0
O2246 O 0.26632 0.7946 0.28995 0.0
O2247 O 0.28561 0.77502 0.27013 0.0
O2248 O 0.3154 0.77418 0.27367 0.0
O2249 O 0.30811 0.7892 0.29702 0.0
O2250 O 0.28522 0.77499 0.29443 0.0
O2251 O 0.28385 0.80337 0.31 0.0
C2252 C 0.30792 0.80628 0.25736 0.0
C2253 C 0.33185 0.78315 0.22346 0.0
C2254 C 0.33722 0.80408 0.20677 0.0
C2255 C 0.32663 0.79339 0.21405 0.0
C2256 C 0.35306 0.80431 0.20891 0.0
C2257 C 0.3477 0.78348 0.22535 0.0
C2258 C 0.35823 0.79402 0.21812 0.0
C2259 C 0.27428 0.79323 0.24763 0.0
C2260 C 0.32127 0.77236 0.23192 0.0
C2261 C 0.28686 0.70688 0.22613 0.0
C2262 C 0.27282 0.71017 0.22099 0.0
C2263 C 0.28317 0.76583 0.28039 0.0
C2264 C 0.25995 0.78599 0.31413 0.0
C2265 C 0.26629 0.78183 0.32796 0.0
C2266 C 0.25765 0.7697 0.3353 0.0
C2267 C 0.24256 0.76187 0.3289 0.0
C2268 C 0.24467 0.7783 0.3081 0.0
C2269 C 0.23607 0.76628 0.31543 0.0
C2270 C 0.31694 0.77987 0.28952 0.0
C2271 C 0.26907 0.79798 0.30557 0.0
H2272 H 0.31442 0.79329 0.21261 0.0
H2273 H 0.36142 0.81228 0.20326 0.0
H2274 H 0.35195 0.77565 0.23256 0.0
H2275 H 0.37044 0.79421 0.21966 0.0
H2276 H 0.27802 0.78765 0.33281 0.0
H2277 H 0.23576 0.75247 0.33444 0.0
H2278 H 0.23941 0.78144 0.29758 0.0
H2279 H 0.22438 0.76032 0.31062 0.0
Tb2280 Tb 0.56608 0.04396 0.51618 0.0
C2281 C 0.51077 0.00941 0.54785 0.0
C2282 C 0.49702 0.98663 0.52761 0.0
C2283 C 0.49517 0.98549 0.55597 0.0
C2284 C 0.50706 1.00221 0.53189 0.0
C2285 C 0.50479 1.00123 0.56012 0.0
C2286 C 0.49118 0.97827 0.53973 0.0
C2287 C 0.51687 0.02546 0.57952 0.0
N2288 N 0.51952 0.0249 0.55129 0.0
C2289 C 0.52223 0.0332 0.5669 0.0
C2290 C 0.50819 0.00936 0.57613 0.0
Tb2291 Tb 0.52772 0.03661 0.52978 0.0
N2292 N 0.51244 0.01098 0.52059 0.0
C2293 C 0.50752 0.00512 0.50469 0.0
C2294 C 0.49267 0.9802 0.5113 0.0
C2295 C 0.4978 0.98959 0.4998 0.0
H2296 H 0.52888 0.04565 0.56975 0.0
H2297 H 0.49424 0.98491 0.48716 0.0
H2298 H 0.48336 0.96634 0.53667 0.0
H2299 H 0.51935 0.03197 0.59185 0.0
H2300 H 0.51121 0.01221 0.4956 0.0
H2301 H 0.59979 0.09569 0.55838 0.0
H2302 H 0.48503 0.96824 0.5075 0.0
H2303 H 0.56499 0.03464 0.47622 0.0
H2304 H 0.58291 0.06841 0.55015 0.0
H2305 H 0.574 0.04841 0.45397 0.0
H2306 H 0.49044 0.97899 0.56521 0.0
H2307 H 0.60834 0.11256 0.53789 0.0
H2308 H 0.60833 0.11515 0.50876 0.0
H2309 H 0.50387 1.00348 0.58592 0.0
H2310 H 0.60121 0.10228 0.48026 0.0
N2311 N 0.58135 0.06958 0.52518 0.0
C2312 C 0.58641 0.07551 0.54102 0.0
C2313 C 0.60072 0.10058 0.53423 0.0
C2314 C 0.59598 0.09425 0.51798 0.0
C2315 C 0.596 0.0911 0.54579 0.0
C2316 C 0.58632 0.07846 0.5138 0.0
H2317 H 0.58858 0.07728 0.4597 0.0
N2318 N 0.57391 0.05564 0.49454 0.0
C2319 C 0.57639 0.05501 0.46627 0.0
C2320 C 0.5824 0.07126 0.49788 0.0
C2321 C 0.57131 0.04723 0.47897 0.0
C2322 C 0.58457 0.07132 0.46955 0.0
C2323 C 0.5879 0.07957 0.48553 0.0
O2324 O 0.57863 0.0271 0.50541 0.0
O2325 O 0.54564 0.02603 0.51882 0.0
O2326 O 0.54192 0.02552 0.5444 0.0
O2327 O 0.56603 0.04163 0.54182 0.0
O2328 O 0.55616 0.02155 0.49844 0.0
O2329 O 0.58628 0.04165 0.52891 0.0
O2330 O 0.51513 0.05349 0.54043 0.0
O2331 O 0.54827 0.05457 0.52737 0.0
O2332 O 0.55179 0.05501 0.50154 0.0
O2333 O 0.52778 0.03891 0.50425 0.0
O2334 O 0.53746 0.0589 0.54769 0.0
O2335 O 0.50782 0.03918 0.51675 0.0
C2336 C 0.54486 0.01558 0.50607 0.0
C2337 C 0.60547 0.03379 0.51276 0.0
C2338 C 0.63086 0.02671 0.5132 0.0
C2339 C 0.61563 0.02459 0.51792 0.0
C2340 C 0.63563 0.03822 0.50324 0.0
C2341 C 0.61061 0.04523 0.50298 0.0
C2342 C 0.6256 0.04743 0.49828 0.0
C2343 C 0.55661 0.03176 0.54947 0.0
C2344 C 0.58942 0.03098 0.51725 0.0
C2345 C 0.59695 0.09562 0.48957 0.0
C2346 C 0.60101 0.10294 0.50579 0.0
C2347 C 0.54883 0.06493 0.54017 0.0
C2348 C 0.48849 0.04759 0.53229 0.0
C2349 C 0.47938 0.05833 0.52827 0.0
C2350 C 0.46421 0.0569 0.53292 0.0
C2351 C 0.45819 0.0444 0.54133 0.0
C2352 C 0.48219 0.03514 0.54058 0.0
C2353 C 0.46711 0.03354 0.54503 0.0
C2354 C 0.53697 0.04914 0.49682 0.0
C2355 C 0.50466 0.04994 0.5283 0.0
H2356 H 0.61167 0.01586 0.52561 0.0
H2357 H 0.64705 0.03994 0.49899 0.0
H2358 H 0.60304 0.05232 0.49878 0.0
H2359 H 0.62941 0.0562 0.49059 0.0
H2360 H 0.48422 0.06804 0.52193 0.0
H2361 H 0.44653 0.04296 0.54495 0.0
H2362 H 0.48895 0.02678 0.54377 0.0
H2363 H 0.46235 0.02392 0.55147 0.0
Tb2364 Tb 0.27987 0.29616 0.76834 0.0
C2365 C 0.32946 0.26725 0.79899 0.0
C2366 C 0.34013 0.28687 0.82313 0.0
C2367 C 0.34103 0.25818 0.82148 0.0
C2368 C 0.33233 0.28304 0.80758 0.0
C2369 C 0.33408 0.25466 0.80566 0.0
C2370 C 0.34419 0.2743 0.83014 0.0
C2371 C 0.32711 0.23687 0.77972 0.0
N2372 N 0.32362 0.26463 0.78345 0.0
C2373 C 0.32301 0.24984 0.77357 0.0
C2374 C 0.33246 0.23922 0.79591 0.0
Tb2375 Tb 0.31739 0.28662 0.77422 0.0
N2376 N 0.32899 0.29492 0.8 0.0
C2377 C 0.33405 0.31108 0.80705 0.0
C2378 C 0.34446 0.30333 0.83072 0.0
C2379 C 0.34152 0.31549 0.8226 0.0
H2380 H 0.31896 0.24783 0.76101 0.0
H2381 H 0.34515 0.3283 0.82822 0.0
H2382 H 0.35043 0.277 0.84191 0.0
H2383 H 0.32622 0.2251 0.77195 0.0
H2384 H 0.3321 0.32074 0.80095 0.0
H2385 H 0.253 0.25407 0.71401 0.0
H2386 H 0.35065 0.30683 0.84253 0.0
H2387 H 0.27676 0.33448 0.78109 0.0
H2388 H 0.26446 0.26174 0.74194 0.0
H2389 H 0.2699 0.3571 0.76952 0.0
H2390 H 0.34468 0.2487 0.82684 0.0
H2391 H 0.24976 0.27554 0.6985 0.0
H2392 H 0.25119 0.30548 0.69832 0.0
H2393 H 0.33587 0.22923 0.80059 0.0
H2394 H 0.25575 0.33378 0.71357 0.0
N2395 N 0.26843 0.28755 0.74242 0.0
C2396 C 0.26317 0.27137 0.7355 0.0
C2397 C 0.25489 0.27903 0.71082 0.0
C2398 C 0.2591 0.29552 0.71836 0.0
C2399 C 0.25663 0.26689 0.71956 0.0
C2400 C 0.2658 0.29938 0.73439 0.0
H2401 H 0.26225 0.35308 0.74034 0.0
N2402 N 0.27347 0.31783 0.75862 0.0
C2403 C 0.26953 0.3454 0.76184 0.0
C2404 C 0.26842 0.31518 0.74283 0.0
C2405 C 0.2734 0.33251 0.76836 0.0
C2406 C 0.26531 0.34311 0.74535 0.0
C2407 C 0.26436 0.32773 0.73568 0.0
O2408 O 0.2651 0.30349 0.78567 0.0
O2409 O 0.29779 0.29351 0.7854 0.0
O2410 O 0.30049 0.26624 0.78107 0.0
O2411 O 0.27774 0.26937 0.76816 0.0
O2412 O 0.28751 0.31292 0.79122 0.0
O2413 O 0.25834 0.28044 0.76951 0.0
O2414 O 0.33216 0.27936 0.75686 0.0
O2415 O 0.2995 0.2893 0.7572 0.0
O2416 O 0.29676 0.31687 0.76198 0.0
O2417 O 0.31965 0.31344 0.77438 0.0
O2418 O 0.30986 0.26993 0.75135 0.0
O2419 O 0.33891 0.30238 0.77311 0.0
C2420 C 0.2976 0.30569 0.7963 0.0
C2421 C 0.23836 0.29357 0.77828 0.0
C2422 C 0.21206 0.2926 0.78652 0.0
C2423 C 0.2271 0.28982 0.78913 0.0
C2424 C 0.20874 0.29953 0.77312 0.0
C2425 C 0.2345 0.30012 0.7649 0.0
C2426 C 0.21985 0.30317 0.76242 0.0
C2427 C 0.28578 0.26047 0.7753 0.0
C2428 C 0.25407 0.29059 0.78083 0.0
C2429 C 0.25873 0.32426 0.71937 0.0
C2430 C 0.25613 0.30815 0.7107 0.0
C2431 C 0.29978 0.27715 0.7463 0.0
C2432 C 0.35892 0.28939 0.76408 0.0
C2433 C 0.37012 0.2933 0.75319 0.0
C2434 C 0.38521 0.29065 0.75572 0.0
C2435 C 0.38865 0.28365 0.76904 0.0
C2436 C 0.36292 0.28277 0.77735 0.0
C2437 C 0.37762 0.27982 0.77974 0.0
C2438 C 0.31155 0.32249 0.76753 0.0
C2439 C 0.34317 0.29229 0.76169 0.0
H2440 H 0.22996 0.28452 0.79935 0.0
H2441 H 0.19754 0.30227 0.77091 0.0
H2442 H 0.24277 0.30285 0.75634 0.0
H2443 H 0.21707 0.30839 0.75212 0.0
H2444 H 0.36716 0.29863 0.74302 0.0
H2445 H 0.39991 0.281 0.77116 0.0
H2446 H 0.35471 0.2799 0.78592 0.0
H2447 H 0.38049 0.27455 0.78997 0.0
Tb2448 Tb 0.04483 0.0595 0.53231 0.0
C2449 C 0.06863 0.01257 0.48056 0.0
C2450 C 0.04928 0.00559 0.45795 0.0
C2451 C 0.07575 1.00384 0.45356 0.0
C2452 C 0.05367 0.0112 0.47455 0.0
C2453 C 0.07984 0.00869 0.47018 0.0
C2454 C 0.06046 1.00214 0.44747 0.0
C2455 C 0.09779 0.01274 0.49355 0.0
N2456 N 0.07194 0.01666 0.49675 0.0
C2457 C 0.08624 0.01628 0.50336 0.0
C2458 C 0.09464 0.00911 0.47687 0.0
Tb2459 Tb 0.05207 0.02204 0.5119 0.0
N2460 N 0.04314 0.01398 0.48517 0.0
C2461 C 0.02778 0.01026 0.47999 0.0
C2462 C 0.03368 1.00283 0.45252 0.0
C2463 C 0.02287 0.00501 0.46363 0.0
H2464 H 0.08908 0.01893 0.51617 0.0
H2465 H 0.01071 1.0025 0.45963 0.0
H2466 H 0.05734 0.99757 0.43475 0.0
H2467 H 0.10912 0.01277 0.49889 0.0
H2468 H 0.01919 0.01153 0.48841 0.0
H2469 H 0.08933 0.07941 0.58197 0.0
H2470 H 0.0298 0.99844 0.43989 0.0
H2471 H 0.00767 0.06108 0.53095 0.0
H2472 H 0.07929 0.07123 0.55359 0.0
H2473 H 0.98827 0.06528 0.5501 0.0
H2474 H 0.08418 1.00078 0.4454 0.0
H2475 H 0.07138 0.0812 0.60332 0.0
H2476 H 0.0441 0.07967 0.61072 0.0
H2477 H 0.10357 0.00622 0.46931 0.0
H2478 H 0.01653 0.07593 0.60203 0.0
N2479 N 0.05558 0.06776 0.55847 0.0
C2480 C 0.07117 0.07191 0.56262 0.0
C2481 C 0.06684 0.07755 0.59081 0.0
C2482 C 0.05096 0.0743 0.58648 0.0
C2483 C 0.077 0.0766 0.57879 0.0
C2484 C 0.04568 0.06952 0.57001 0.0
H2485 H 0.99563 0.07083 0.57942 0.0
N2486 N 0.02598 0.06385 0.54916 0.0
C2487 C 1.00005 0.0659 0.55452 0.0
C2488 C 0.0303 0.06754 0.56518 0.0
C2489 C 0.01115 0.06357 0.54368 0.0
C2490 C 0.00424 0.06898 0.57105 0.0
C2491 C 0.01958 0.07008 0.57658 0.0
O2492 O 0.03663 0.07839 0.52387 0.0
O2493 O 0.04457 0.04426 0.50854 0.0
O2494 O 0.06938 0.04113 0.50464 0.0
O2495 O 0.06899 0.06199 0.52629 0.0
O2496 O 0.02665 0.05541 0.51243 0.0
O2497 O 0.06007 0.08241 0.53418 0.0
O2498 O 0.05819 1.0032 0.52234 0.0
O2499 O 0.05229 0.03739 0.53565 0.0
O2500 O 0.02809 0.03984 0.5395 0.0
O2501 O 0.02764 0.02 0.51685 0.0
O2502 O 0.07002 0.02614 0.53188 0.0
O2503 O 0.03641 0.99916 0.50836 0.0
C2504 C 0.03219 0.04631 0.50153 0.0
C2505 C 0.0489 0.10553 0.53566 0.0
C2506 C 0.05005 0.13392 0.53289 0.0
C2507 C 0.05049 0.11769 0.52618 0.0
C2508 C 0.04801 0.13782 0.54938 0.0
C2509 C 0.04679 0.10953 0.55205 0.0
C2510 C 0.04635 0.12566 0.55886 0.0
C2511 C 0.07559 0.05555 0.51377 0.0
C2512 C 0.04969 0.08891 0.52796 0.0
C2513 C 0.02461 0.07406 0.59306 0.0
C2514 C 0.04029 0.07617 0.59801 0.0
C2515 C 0.06462 0.03536 0.54274 0.0
C2516 C 0.04718 0.97611 0.50962 0.0
C2517 C 0.04357 0.96392 0.51892 0.0
C2518 C 0.04549 0.94795 0.51331 0.0
C2519 C 0.05113 0.94432 0.49818 0.0
C2520 C 0.05263 0.97234 0.49446 0.0
C2521 C 0.05459 0.95647 0.48878 0.0
C2522 C 0.02131 0.02602 0.52975 0.0
C2523 C 0.04554 0.99268 0.51645 0.0
H2524 H 0.05236 0.11452 0.51356 0.0
H2525 H 0.04755 0.15021 0.55488 0.0
H2526 H 0.04555 0.10029 0.55954 0.0
H2527 H 0.04472 0.12874 0.57152 0.0
H2528 H 0.03957 0.96699 0.53074 0.0
H2529 H 0.0527 0.93208 0.49357 0.0
H2530 H 0.05542 0.9816 0.48711 0.0
H2531 H 0.05885 0.95358 0.4771 0.0
Tb2532 Tb 0.3136 0.80529 0.77103 0.0
C2533 C 0.2753 0.75983 0.81041 0.0
C2534 C 0.27952 0.73274 0.80053 0.0
C2535 C 0.27219 0.73947 0.82775 0.0
C2536 C 0.27945 0.74886 0.79836 0.0
C2537 C 0.27145 0.75524 0.82522 0.0
C2538 C 0.27611 0.7282 0.81539 0.0
C2539 C 0.26492 0.78151 0.83328 0.0
N2540 N 0.27426 0.77475 0.80728 0.0
C2541 C 0.2687 0.78543 0.81835 0.0
C2542 C 0.26644 0.76641 0.8368 0.0
Tb2543 Tb 0.28057 0.77995 0.7823 0.0
N2544 N 0.28213 0.75358 0.78404 0.0
C2545 C 0.28404 0.74232 0.77106 0.0
C2546 C 0.2823 0.72147 0.78747 0.0
C2547 C 0.28445 0.72626 0.77264 0.0
H2548 H 0.2674 0.79718 0.81602 0.0
H2549 H 0.28628 0.71756 0.76236 0.0
H2550 H 0.27597 0.71587 0.81729 0.0
H2551 H 0.26083 0.79016 0.84206 0.0
H2552 H 0.28547 0.74567 0.7594 0.0
H2553 H 0.30743 0.86714 0.79378 0.0
H2554 H 0.28228 0.70892 0.78853 0.0
H2555 H 0.32562 0.78958 0.73629 0.0
H2556 H 0.31 0.83927 0.7958 0.0
H2557 H 0.32984 0.79718 0.70982 0.0
H2558 H 0.26928 0.73571 0.83904 0.0
H2559 H 0.30797 0.87595 0.76738 0.0
H2560 H 0.31181 0.86959 0.73789 0.0
H2561 H 0.26339 0.76336 0.84833 0.0
H2562 H 0.31817 0.8506 0.71503 0.0
N2563 N 0.31151 0.83181 0.77063 0.0
C2564 C 0.31031 0.84279 0.78415 0.0
C2565 C 0.30908 0.86361 0.76817 0.0
C2566 C 0.31137 0.85273 0.75455 0.0
C2567 C 0.30884 0.8587 0.78309 0.0
C2568 C 0.31269 0.83679 0.75625 0.0
H2569 H 0.32521 0.82367 0.70453 0.0
N2570 N 0.31837 0.81144 0.74607 0.0
C2571 C 0.32601 0.80547 0.71919 0.0
C2572 C 0.31638 0.82626 0.74352 0.0
C2573 C 0.32364 0.80123 0.73429 0.0
C2574 C 0.32334 0.82041 0.71623 0.0
C2575 C 0.31867 0.83113 0.72854 0.0
O2576 O 0.33662 0.80323 0.76871 0.0
O2577 O 0.30513 0.782 0.77911 0.0
O2578 O 0.29663 0.78758 0.80376 0.0
O2579 O 0.31078 0.81134 0.79697 0.0
O2580 O 0.3201 0.78179 0.76191 0.0
O2581 O 0.3309 0.82098 0.78762 0.0
O2582 O 0.25778 0.78328 0.78204 0.0
O2583 O 0.28919 0.80315 0.77415 0.0
O2584 O 0.29697 0.79744 0.74993 0.0
O2585 O 0.28406 0.77326 0.75671 0.0
O2586 O 0.27422 0.80359 0.7912 0.0
O2587 O 0.26358 0.76315 0.76611 0.0
C2588 C 0.31251 0.77255 0.77066 0.0
C2589 C 0.35555 0.82742 0.77804 0.0
C2590 C 0.38356 0.83637 0.78061 0.0
C2591 C 0.37017 0.82479 0.78209 0.0
C2592 C 0.38219 0.85063 0.77482 0.0
C2593 C 0.3543 0.84164 0.77215 0.0
C2594 C 0.3676 0.85316 0.77051 0.0
C2595 C 0.30615 0.8021 0.80772 0.0
C2596 C 0.34194 0.81533 0.78063 0.0
C2597 C 0.3166 0.84666 0.72648 0.0
C2598 C 0.31295 0.85746 0.73949 0.0
C2599 C 0.28191 0.81274 0.78246 0.0
C2600 C 0.23813 0.75963 0.774 0.0
C2601 C 0.22431 0.762 0.76717 0.0
C2602 C 0.21002 0.75266 0.77001 0.0
C2603 C 0.20983 0.74069 0.7797 0.0
C2604 C 0.23778 0.74764 0.78358 0.0
C2605 C 0.22366 0.73819 0.78639 0.0
C2606 C 0.28799 0.78264 0.74595 0.0
C2607 C 0.25258 0.77023 0.77112 0.0
H2608 H 0.37109 0.8139 0.78687 0.0
H2609 H 0.39237 0.85975 0.7736 0.0
H2610 H 0.34314 0.84394 0.76902 0.0
H2611 H 0.36659 0.86415 0.76602 0.0
H2612 H 0.22475 0.77111 0.75953 0.0
H2613 H 0.19902 0.7334 0.78229 0.0
H2614 H 0.24834 0.74559 0.78888 0.0
H2615 H 0.22341 0.72899 0.79385 0.0
Tb2616 Tb 0.54764 0.0322 0.04782 0.0
C2617 C 0.5105 0.05418 0.99538 0.0
C2618 C 0.4893 0.03118 0.9855 0.0
C2619 C 0.48659 0.05879 0.98377 0.0
C2620 C 0.50433 0.03764 0.99303 0.0
C2621 C 0.50188 0.06498 0.99047 0.0
C2622 C 0.48037 0.04187 0.98114 0.0
C2623 C 0.52488 0.08655 0.99659 0.0
N2624 N 0.52552 0.05943 1.00111 0.0
C2625 C 0.53301 0.07523 1.0009 0.0
C2626 C 0.50916 0.08147 0.99159 0.0
Tb2627 Tb 0.53816 0.0402 0.00802 0.0
N2628 N 0.51353 0.02778 0.997 0.0
C2629 C 0.50846 0.01108 0.99318 0.0
C2630 C 0.48401 0.01415 0.98189 0.0
C2631 C 0.49365 1.00406 0.9857 0.0
H2632 H 0.54521 0.0793 0.00439 0.0
H2633 H 0.48971 0.99085 0.9828 0.0
H2634 H 0.46889 0.03716 0.97519 0.0
H2635 H 0.53079 0.09915 0.99695 0.0
H2636 H 0.51567 1.00298 0.99594 0.0
H2637 H 0.52373 0.06016 0.10079 0.0
H2638 H 0.47275 0.00867 0.9757 0.0
H2639 H 0.58405 0.0293 0.0439 0.0
H2640 H 0.52299 0.04103 0.07557 0.0
H2641 H 0.60992 0.04427 0.05571 0.0
H2642 H 0.47974 0.06686 0.97992 0.0
H2643 H 0.54825 0.07936 0.11244 0.0
H2644 H 0.57672 0.0889 0.11132 0.0
H2645 H 0.50294 0.09018 0.98798 0.0
H2646 H 0.60036 0.08479 0.09875 0.0
N2647 N 0.5469 0.04914 0.07221 0.0
C2648 C 0.53387 0.04912 0.08028 0.0
C2649 C 0.54796 0.07093 0.10124 0.0
C2650 C 0.56142 0.07027 0.09355 0.0
C2651 C 0.53417 0.06009 0.09473 0.0
C2652 C 0.56052 0.05897 0.07903 0.0
H2653 H 0.61277 0.06788 0.07831 0.0
N2654 N 0.57225 0.04486 0.05873 0.0
C2655 C 0.59984 0.04816 0.06024 0.0
C2656 C 0.57368 0.05682 0.07191 0.0
C2657 C 0.58509 0.03977 0.05347 0.0
C2658 C 0.60143 0.06146 0.0729 0.0
C2659 C 0.58828 0.06566 0.07921 0.0
O2660 O 0.55919 0.01717 0.05902 0.0
O2661 O 0.53101 0.02793 0.02724 0.0
O2662 O 0.53014 0.05806 0.02557 0.0
O2663 O 0.54197 0.05661 0.05087 0.0
O2664 O 0.52264 0.02712 0.04935 0.0
O2665 O 0.53501 0.00968 0.05244 0.0
O2666 O 0.55477 0.0491 0.99281 0.0
O2667 O 0.55595 0.04104 0.02677 0.0
O2668 O 0.5589 0.01915 0.02897 0.0
O2669 O 0.54091 0.01489 0.00744 0.0
O2670 O 0.55784 0.0608 0.01599 0.0
O2671 O 0.5393 0.02575 0.9855 0.0
C2672 C 0.51876 0.02634 0.03439 0.0
C2673 C 0.54468 1.00187 0.07569 0.0
C2674 C 0.53384 0.0053 0.10165 0.0
C2675 C 0.53472 0.00849 0.08595 0.0
C2676 C 0.54273 0.99492 0.10683 0.0
C2677 C 0.55345 0.99152 0.08101 0.0
C2678 C 0.55239 0.98798 0.0965 0.0
C2679 C 0.53416 0.06357 0.04121 0.0
C2680 C 0.54676 0.00641 0.05983 0.0
C2681 C 0.58925 0.07771 0.0931 0.0
C2682 C 0.57581 0.08002 0.10027 0.0
C2683 C 0.56457 0.05482 0.02658 0.0
C2684 C 0.54752 0.04025 0.96515 0.0
C2685 C 0.55864 0.03858 0.95418 0.0
C2686 C 0.5563 0.04152 0.93851 0.0
C2687 C 0.54272 0.04634 0.93401 0.0
C2688 C 0.534 0.04497 0.96047 0.0
C2689 C 0.53166 0.04807 0.94498 0.0
C2690 C 0.55222 0.01045 0.01503 0.0
C2691 C 0.55009 0.0366 0.98124 0.0
H2692 H 0.52792 0.01644 0.08186 0.0
H2693 H 0.54215 0.9921 0.11883 0.0
H2694 H 0.56123 0.98633 0.07324 0.0
H2695 H 0.5592 0.98 0.10056 0.0
H2696 H 0.56896 0.03465 0.95776 0.0
H2697 H 0.5407 0.04888 0.92206 0.0
H2698 H 0.52522 0.04611 0.96869 0.0
H2699 H 0.52122 0.05174 0.94144 0.0
Tb2700 Tb 0.30366 0.31217 0.28469 0.0
C2701 C 0.25511 0.26897 0.23345 0.0
C2702 C 0.2312 0.26497 0.24633 0.0
C2703 C 0.23049 0.26334 0.21736 0.0
C2704 C 0.24748 0.26868 0.24734 0.0
C2705 C 0.24665 0.26619 0.21829 0.0
C2706 C 0.2228 0.26247 0.2313 0.0
C2707 C 0.27047 0.26672 0.20574 0.0
N2708 N 0.27073 0.27088 0.23468 0.0
C2709 C 0.27834 0.26895 0.22093 0.0
C2710 C 0.25458 0.26553 0.20441 0.0
Tb2711 Tb 0.28205 0.27477 0.26061 0.0
N2712 N 0.25592 0.27052 0.26164 0.0
C2713 C 0.24869 0.26776 0.27515 0.0
C2714 C 0.22382 0.26297 0.26029 0.0
C2715 C 0.23259 0.26425 0.27473 0.0
H2716 H 0.29053 0.2694 0.22134 0.0
H2717 H 0.22696 0.26235 0.28552 0.0
H2718 H 0.21035 0.25919 0.23021 0.0
H2719 H 0.27666 0.26571 0.19503 0.0
H2720 H 0.25515 0.26835 0.2864 0.0
H2721 H 0.30836 0.37035 0.26419 0.0
H2722 H 0.21139 0.25978 0.25994 0.0
H2723 H 0.3322 0.29845 0.30232 0.0
H2724 H 0.29517 0.34691 0.27525 0.0
H2725 H 0.36013 0.30218 0.3019 0.0
H2726 H 0.22381 0.26107 0.20582 0.0
H2727 H 0.33569 0.37312 0.25849 0.0
H2728 H 0.36019 0.36301 0.26056 0.0
H2729 H 0.24848 0.2635 0.19259 0.0
H2730 H 0.37436 0.34431 0.27082 0.0
N2731 N 0.31471 0.33576 0.27567 0.0
C2732 C 0.30712 0.34778 0.27305 0.0
C2733 C 0.32997 0.36268 0.26341 0.0
C2734 C 0.33803 0.35116 0.26733 0.0
C2735 C 0.31455 0.36117 0.26664 0.0
C2736 C 0.33005 0.33781 0.27373 0.0
H2737 H 0.37453 0.32194 0.28671 0.0
N2738 N 0.33004 0.31518 0.28645 0.0
C2739 C 0.35402 0.30913 0.29529 0.0
C2740 C 0.33798 0.32719 0.27936 0.0
C2741 C 0.33796 0.30688 0.29525 0.0
C2742 C 0.36211 0.32029 0.28671 0.0
C2743 C 0.35417 0.32982 0.27897 0.0
O2744 O 0.29305 0.31223 0.3064 0.0
O2745 O 0.28096 0.29621 0.27788 0.0
O2746 O 0.28199 0.29395 0.24611 0.0
O2747 O 0.30147 0.31609 0.25951 0.0
O2748 O 0.28282 0.32109 0.28 0.0
O2749 O 0.31368 0.32977 0.30531 0.0
O2750 O 0.29461 0.2567 0.26325 0.0
O2751 O 0.30463 0.28932 0.27012 0.0
O2752 O 0.30648 0.28997 0.29349 0.0
O2753 O 0.28195 0.27479 0.28659 0.0
O2754 O 0.30238 0.27646 0.24691 0.0
O2755 O 0.27026 0.25 0.25684 0.0
C2756 C 0.27347 0.30703 0.27613 0.0
C2757 C 0.29593 0.33738 0.32334 0.0
C2758 C 0.28027 0.35766 0.3233 0.0
C2759 C 0.28902 0.34741 0.31521 0.0
C2760 C 0.27882 0.35822 0.33982 0.0
C2761 C 0.2946 0.33808 0.33988 0.0
C2762 C 0.28618 0.34861 0.34812 0.0
C2763 C 0.29153 0.30844 0.24689 0.0
C2764 C 0.30288 0.32486 0.31425 0.0
C2765 C 0.36199 0.34234 0.27153 0.0
C2766 C 0.35392 0.35299 0.2657 0.0
C2767 C 0.31171 0.28679 0.25773 0.0
C2768 C 0.28514 0.23101 0.24687 0.0
C2769 C 0.29384 0.22056 0.25193 0.0
C2770 C 0.29611 0.20687 0.24124 0.0
C2771 C 0.2897 0.20377 0.22522 0.0
C2772 C 0.27885 0.22795 0.2308 0.0
C2773 C 0.28121 0.21439 0.22002 0.0
C2774 C 0.29465 0.27894 0.29649 0.0
C2775 C 0.28275 0.24472 0.25885 0.0
H2776 H 0.28984 0.34669 0.30242 0.0
H2777 H 0.27202 0.36605 0.34624 0.0
H2778 H 0.29976 0.33022 0.3463 0.0
H2779 H 0.28509 0.34908 0.36086 0.0
H2780 H 0.29849 0.22282 0.26442 0.0
H2781 H 0.29126 0.19318 0.21681 0.0
H2782 H 0.27203 0.23587 0.22665 0.0
H2783 H 0.2763 0.212 0.20766 0.0
Tb2784 Tb 0.54434 0.56408 0.03393 0.0
C2785 C 0.56651 0.52063 0.97962 0.0
C2786 C 0.54575 0.51389 0.95841 0.0
C2787 C 0.57214 0.51475 0.95164 0.0
C2788 C 0.55107 0.5184 0.97488 0.0
C2789 C 0.57722 0.51847 0.96811 0.0
C2790 C 0.55641 0.51248 0.9468 0.0
C2791 C 0.59683 0.52228 0.99001 0.0
N2792 N 0.57088 0.52402 0.99562 0.0
C2793 C 0.58576 0.52429 1.00096 0.0
C2794 C 0.5926 0.51959 0.97351 0.0
Tb2795 Tb 0.55197 0.52743 0.01267 0.0
N2796 N 0.54117 0.5197 0.98649 0.0
C2797 C 0.52557 0.51533 0.98239 0.0
C2798 C 0.52985 0.51042 0.95415 0.0
C2799 C 0.51971 0.51089 0.96622 0.0
H2800 H 0.58929 0.52647 0.01366 0.0
H2801 H 0.50737 0.50791 0.96309 0.0
H2802 H 0.55257 0.50919 0.93408 0.0
H2803 H 0.60862 0.52284 0.99431 0.0
H2804 H 0.51748 0.51566 0.99146 0.0
H2805 H 0.58577 0.58017 0.08604 0.0
H2806 H 0.52528 0.50697 0.94164 0.0
H2807 H 0.50859 0.57161 0.03094 0.0
H2808 H 0.57762 0.57467 0.0573 0.0
H2809 H 0.48848 0.57578 0.04904 0.0
H2810 H 0.5802 0.51319 0.9426 0.0
H2811 H 0.56628 0.57953 0.10609 0.0
H2812 H 0.53856 0.57764 0.11169 0.0
H2813 H 0.60119 0.51799 0.96506 0.0
H2814 H 0.51191 0.57662 0.1015 0.0
N2815 N 0.55352 0.56971 0.06049 0.0
C2816 C 0.56888 0.57408 0.0657 0.0
C2817 C 0.56258 0.57685 0.09335 0.0
C2818 C 0.54695 0.57399 0.088 0.0
C2819 C 0.57361 0.57731 0.08214 0.0
C2820 C 0.54275 0.57069 0.07127 0.0
H2821 H 0.49325 0.57645 0.07819 0.0
N2822 N 0.52461 0.56878 0.0494 0.0
C2823 C 0.49941 0.57403 0.05381 0.0
C2824 C 0.52779 0.57031 0.06555 0.0
C2825 C 0.51089 0.57149 0.04352 0.0
C2826 C 0.50214 0.57438 0.07026 0.0
C2827 C 0.51659 0.57292 0.07638 0.0
O2828 O 0.5464 0.58201 0.01913 0.0
O2829 O 0.54376 0.54934 0.00995 0.0
O2830 O 0.56839 0.54777 0.00608 0.0
O2831 O 0.56885 0.56645 0.02957 0.0
O2832 O 0.5256 0.56005 0.01474 0.0
O2833 O 0.55217 0.589 0.04452 0.0
O2834 O 0.56068 0.50883 0.0209 0.0
O2835 O 0.55205 0.54177 0.03694 0.0
O2836 O 0.52513 0.54525 0.03851 0.0
O2837 O 0.52785 0.52331 0.01892 0.0
O2838 O 0.5703 0.53129 0.03226 0.0
O2839 O 0.53753 0.50386 0.00945 0.0
C2840 C 0.53102 0.55115 1.00345 0.0
C2841 C 0.54157 0.60731 0.03149 0.0
C2842 C 0.53578 0.62983 0.01943 0.0
C2843 C 0.54322 0.61668 0.01927 0.0
C2844 C 0.52627 0.63317 0.03185 0.0
C2845 C 0.53212 0.61093 0.04384 0.0
C2846 C 0.52442 0.62371 0.04391 0.0
C2847 C 0.57508 0.56134 0.01627 0.0
C2848 C 0.55012 0.59414 0.03118 0.0
C2849 C 0.52042 0.57482 0.09301 0.0
C2850 C 0.53559 0.57538 0.09881 0.0
C2851 C 0.56456 0.53959 0.04363 0.0
C2852 C 0.54992 0.48162 0.00843 0.0
C2853 C 0.54575 0.46876 0.01681 0.0
C2854 C 0.54871 0.45331 0.01105 0.0
C2855 C 0.55571 0.4507 0.99659 0.0
C2856 C 0.5567 0.47894 0.99387 0.0
C2857 C 0.55951 0.46345 0.98794 0.0
C2858 C 0.52007 0.53026 0.03008 0.0
C2859 C 0.54805 0.49783 0.01605 0.0
H2860 H 0.5504 0.61371 0.00968 0.0
H2861 H 0.52055 0.64334 0.03252 0.0
H2862 H 0.53077 0.60402 0.05351 0.0
H2863 H 0.51719 0.62648 0.05348 0.0
H2864 H 0.54072 0.47095 0.02821 0.0
H2865 H 0.5582 0.43885 0.99202 0.0
H2866 H 0.56003 0.48878 0.98727 0.0
H2867 H 0.56486 0.4614 0.97676 0.0
Tb2868 Tb 0.81387 0.30327 0.26878 0.0
C2869 C 0.77282 0.25429 0.30243 0.0
C2870 C 0.77772 0.22777 0.29134 0.0
C2871 C 0.76838 0.23232 0.3179 0.0
C2872 C 0.77789 0.24423 0.29024 0.0
C2873 C 0.76783 0.24843 0.31635 0.0
C2874 C 0.77319 0.22197 0.30535 0.0
C2875 C 0.76045 0.27412 0.3253 0.0
N2876 N 0.77192 0.26954 0.30019 0.0
C2877 C 0.76533 0.27928 0.31118 0.0
C2878 C 0.76185 0.25868 0.32799 0.0
Tb2879 Tb 0.77989 0.27679 0.27647 0.0
N2880 N 0.78161 0.25015 0.2767 0.0
C2881 C 0.78447 0.23982 0.26342 0.0
C2882 C 0.78133 0.21744 0.27801 0.0
C2883 C 0.78465 0.22348 0.26397 0.0
H2884 H 0.76409 0.29124 0.30938 0.0
H2885 H 0.78718 0.21551 0.25348 0.0
H2886 H 0.77286 0.20936 0.3064 0.0
H2887 H 0.75558 0.28204 0.33408 0.0
H2888 H 0.78688 0.24409 0.25235 0.0
H2889 H 0.80553 0.36449 0.29038 0.0
H2890 H 0.78102 0.20466 0.27818 0.0
H2891 H 0.82947 0.28847 0.2358 0.0
H2892 H 0.80772 0.33656 0.29265 0.0
H2893 H 0.83668 0.29686 0.21036 0.0
H2894 H 0.7646 0.22758 0.3285 0.0
H2895 H 0.80904 0.37401 0.26449 0.0
H2896 H 0.81621 0.36849 0.23598 0.0
H2897 H 0.75792 0.25465 0.33886 0.0
H2898 H 0.825 0.35017 0.21425 0.0
N2899 N 0.81188 0.32975 0.26806 0.0
C2900 C 0.8093 0.34039 0.28123 0.0
C2901 C 0.80997 0.36164 0.26538 0.0
C2902 C 0.81371 0.35113 0.25226 0.0
C2903 C 0.80804 0.35633 0.28002 0.0
C2904 C 0.81472 0.33514 0.25408 0.0
H2905 H 0.83296 0.32355 0.20471 0.0
N2906 N 0.82134 0.31006 0.24471 0.0
C2907 C 0.83191 0.30489 0.21915 0.0
C2908 C 0.81979 0.32498 0.24199 0.0
C2909 C 0.8278 0.30019 0.23369 0.0
C2910 C 0.82975 0.31993 0.21597 0.0
C2911 C 0.8238 0.33029 0.22755 0.0
O2912 O 0.83713 0.30137 0.26933 0.0
O2913 O 0.80477 0.27947 0.2757 0.0
O2914 O 0.79409 0.28421 0.2993 0.0
O2915 O 0.80862 0.30853 0.29408 0.0
O2916 O 0.82116 0.28015 0.26001 0.0
O2917 O 0.82966 0.3192 0.28677 0.0
O2918 O 0.75699 0.2798 0.2752 0.0
O2919 O 0.78903 0.3006 0.2697 0.0
O2920 O 0.79926 0.29612 0.24622 0.0
O2921 O 0.78522 0.27156 0.2512 0.0
O2922 O 0.77276 0.29991 0.28556 0.0
O2923 O 0.76379 0.26058 0.25889 0.0
C2924 C 0.81288 0.27044 0.26785 0.0
C2925 C 0.85537 0.32578 0.27979 0.0
C2926 C 0.88343 0.33412 0.28356 0.0
C2927 C 0.86971 0.32261 0.28412 0.0
C2928 C 0.88267 0.34887 0.27843 0.0
C2929 C 0.85475 0.3405 0.27458 0.0
C2930 C 0.86838 0.35196 0.27386 0.0
C2931 C 0.80308 0.29893 0.30422 0.0
C2932 C 0.84137 0.31364 0.28131 0.0
C2933 C 0.8221 0.3459 0.22531 0.0
C2934 C 0.81706 0.35631 0.23766 0.0
C2935 C 0.78103 0.30965 0.27773 0.0
C2936 C 0.73801 0.25582 0.266 0.0
C2937 C 0.72404 0.2599 0.26197 0.0
C2938 C 0.70989 0.24973 0.26393 0.0
C2939 C 0.70992 0.23532 0.27005 0.0
C2940 C 0.7379 0.2414 0.27206 0.0
C2941 C 0.72388 0.23122 0.2741 0.0
C2942 C 0.79045 0.28137 0.24116 0.0
C2943 C 0.75239 0.26704 0.26381 0.0
H2944 H 0.87014 0.31132 0.28836 0.0
H2945 H 0.89311 0.35794 0.27789 0.0
H2946 H 0.84382 0.34324 0.27125 0.0
H2947 H 0.86786 0.36332 0.26988 0.0
H2948 H 0.72422 0.27092 0.25701 0.0
H2949 H 0.69919 0.22729 0.27177 0.0
H2950 H 0.74855 0.23795 0.27512 0.0
H2951 H 0.72384 0.22012 0.27881 0.0
Tb2952 Tb 0.05472 0.541 0.5418 0.0
C2953 C 0.00777 0.5529 0.49145 0.0
C2954 C 0.9866 0.52918 0.48779 0.0
C2955 C 0.98174 0.55559 0.48421 0.0
C2956 C 1.0024 0.53652 0.49166 0.0
C2957 C 0.9976 0.56262 0.48743 0.0
C2958 C 0.97625 0.53888 0.48439 0.0
C2959 C 0.01969 0.58505 0.48889 0.0
N2960 N 0.02315 0.55915 0.4946 0.0
C2961 C 0.0293 0.57487 0.49279 0.0
C2962 C 0.00374 0.57897 0.48641 0.0
Tb2963 Tb 0.0379 0.5418 0.50174 0.0
N2964 N 0.0128 0.52765 0.49501 0.0
C2965 C 0.00827 0.51097 0.49347 0.0
C2966 C 0.98179 0.51227 0.48711 0.0
C2967 C 0.99272 0.50309 0.48972 0.0
H2968 H 0.04159 0.57979 0.4948 0.0
H2969 H 0.98917 0.48996 0.48896 0.0
H2970 H 0.96404 0.5335 0.48155 0.0
H2971 H 0.02461 0.59755 0.48776 0.0
H2972 H 0.01652 0.50368 0.49557 0.0
H2973 H 0.10262 0.59359 0.55646 0.0
H2974 H 0.96975 0.50614 0.48426 0.0
H2975 H 0.05149 0.50293 0.54814 0.0
H2976 H 0.07553 0.57939 0.5488 0.0
H2977 H 0.06872 0.48537 0.55522 0.0
H2978 H 0.9737 0.56287 0.48123 0.0
H2979 H 0.1223 0.57773 0.56124 0.0
H2980 H 0.12849 0.55045 0.56317 0.0
H2981 H 0.99633 0.58688 0.48337 0.0
H2982 H 0.11925 0.5209 0.56287 0.0
N2983 N 0.07967 0.55549 0.54877 0.0
C2984 C 0.0839 0.57222 0.55085 0.0
C2985 C 0.11039 0.57139 0.55781 0.0
C2986 C 0.10588 0.55438 0.55648 0.0
C2987 C 0.0993 0.58038 0.5552 0.0
C2988 C 0.09022 0.54675 0.55206 0.0
H2989 H 0.0969 0.49656 0.56019 0.0
N2990 N 0.06974 0.52381 0.54866 0.0
C2991 C 0.07348 0.49798 0.5543 0.0
C2992 C 0.08506 0.53029 0.55201 0.0
C2993 C 0.06374 0.508 0.55033 0.0
C2994 C 0.08939 0.50432 0.55705 0.0
C2995 C 0.09535 0.52075 0.55618 0.0
O2996 O 0.04318 0.53349 0.56123 0.0
O2997 O 0.03453 0.53635 0.52532 0.0
O2998 O 0.02992 0.55989 0.51876 0.0
O2999 O 0.04913 0.56494 0.54004 0.0
O3000 O 0.03461 0.52064 0.5409 0.0
O3001 O 0.0551 0.5587 0.56258 0.0
O3002 O 0.05003 0.54857 0.48239 0.0
O3003 O 0.05802 0.54656 0.51829 0.0
O3004 O 0.06286 0.5232 0.52455 0.0
O3005 O 0.04315 0.51784 0.5038 0.0
O3006 O 0.05802 0.56213 0.50255 0.0
O3007 O 0.03694 0.52382 0.48101 0.0
C3008 C 0.02638 0.52412 0.52963 0.0
C3009 C 0.05332 0.54839 0.58678 0.0
C3010 C 0.04793 0.54869 0.61477 0.0
C3011 C 0.04306 0.54888 0.59878 0.0
C3012 C 0.06338 0.54815 0.61861 0.0
C3013 C 0.06868 0.54783 0.59073 0.0
C3014 C 0.07367 0.54774 0.60662 0.0
C3015 C 0.03728 0.56871 0.53243 0.0
C3016 C 0.04743 0.54799 0.57024 0.0
C3017 C 0.11112 0.52804 0.55978 0.0
C3018 C 0.11638 0.54485 0.55994 0.0
C3019 C 0.06614 0.55881 0.51399 0.0
C3020 C 0.04002 0.5339 0.45677 0.0
C3021 C 0.05031 0.53205 0.44494 0.0
C3022 C 0.04626 0.53305 0.42894 0.0
C3023 C 0.03148 0.53558 0.42493 0.0
C3024 C 0.02534 0.53636 0.45261 0.0
C3025 C 0.02108 0.53712 0.4367 0.0
C3026 C 0.05517 0.51414 0.51114 0.0
C3027 C 0.04534 0.5341 0.47343 0.0
H3028 H 0.03126 0.54955 0.59562 0.0
H3029 H 0.06746 0.54785 0.6308 0.0
H3030 H 0.07675 0.54745 0.58161 0.0
H3031 H 0.08553 0.54727 0.60964 0.0
H3032 H 0.06153 0.5299 0.44833 0.0
H3033 H 0.02803 0.53669 0.41279 0.0
H3034 H 0.01727 0.53784 0.46163 0.0
H3035 H 0.00978 0.53914 0.43352 0.0
Tb3036 Tb 0.77746 0.79445 0.26789 0.0
C3037 C 0.8264 0.76616 0.29971 0.0
C3038 C 0.83508 0.78548 0.32443 0.0
C3039 C 0.83543 0.75673 0.32324 0.0
C3040 C 0.82864 0.7818 0.30834 0.0
C3041 C 0.83031 0.7535 0.30681 0.0
C3042 C 0.83787 0.77276 0.33206 0.0
C3043 C 0.82652 0.73649 0.28036 0.0
N3044 N 0.82207 0.76387 0.28379 0.0
C3045 C 0.82302 0.74957 0.2739 0.0
C3046 C 0.82984 0.73833 0.29696 0.0
Tb3047 Tb 0.81527 0.78548 0.27424 0.0
N3048 N 0.82614 0.79371 0.30037 0.0
C3049 C 0.83135 0.80985 0.30743 0.0
C3050 C 0.83936 0.80191 0.33203 0.0
C3051 C 0.83778 0.81417 0.3234 0.0
H3052 H 0.82045 0.74798 0.26105 0.0
H3053 H 0.8415 0.82696 0.32898 0.0
H3054 H 0.84256 0.77531 0.34452 0.0
H3055 H 0.82667 0.72501 0.27253 0.0
H3056 H 0.83018 0.81955 0.30106 0.0
H3057 H 0.75162 0.75106 0.21398 0.0
H3058 H 0.84452 0.80521 0.34426 0.0
H3059 H 0.77469 0.83308 0.27944 0.0
H3060 H 0.76282 0.75944 0.24198 0.0
H3061 H 0.7682 0.85534 0.26694 0.0
H3062 H 0.83828 0.74713 0.32901 0.0
H3063 H 0.74816 0.77199 0.19787 0.0
H3064 H 0.74938 0.80174 0.1969 0.0
H3065 H 0.83274 0.72827 0.30193 0.0
H3066 H 0.75392 0.83034 0.21139 0.0
N3067 N 0.76631 0.78513 0.24195 0.0
C3068 C 0.7614 0.76884 0.23529 0.0
C3069 C 0.75313 0.7758 0.21023 0.0
C3070 C 0.75709 0.79239 0.21745 0.0
C3071 C 0.75501 0.76396 0.2193 0.0
C3072 C 0.7636 0.79667 0.23355 0.0
H3073 H 0.76056 0.8504 0.23769 0.0
N3074 N 0.77126 0.81578 0.2574 0.0
C3075 C 0.76769 0.84341 0.25963 0.0
C3076 C 0.76623 0.81264 0.24158 0.0
C3077 C 0.77133 0.83074 0.26668 0.0
C3078 C 0.76346 0.8406 0.24311 0.0
C3079 C 0.76234 0.82495 0.23392 0.0
O3080 O 0.76257 0.80229 0.28484 0.0
O3081 O 0.79528 0.79192 0.28524 0.0
O3082 O 0.79866 0.76368 0.27889 0.0
O3083 O 0.7751 0.7678 0.26855 0.0
O3084 O 0.78473 0.81132 0.29068 0.0
O3085 O 0.75573 0.77903 0.26898 0.0
O3086 O 0.83041 0.779 0.25694 0.0
O3087 O 0.79736 0.78789 0.25714 0.0
O3088 O 0.7944 0.81505 0.26136 0.0
O3089 O 0.81702 0.81228 0.27476 0.0
O3090 O 0.80826 0.76897 0.25117 0.0
O3091 O 0.83657 0.80178 0.27349 0.0
C3092 C 0.79474 0.80415 0.29602 0.0
C3093 C 0.73579 0.79244 0.2775 0.0
C3094 C 0.70935 0.79134 0.28547 0.0
C3095 C 0.72433 0.78836 0.28807 0.0
C3096 C 0.70632 0.79879 0.27234 0.0
C3097 C 0.73218 0.79948 0.26439 0.0
C3098 C 0.71761 0.80273 0.26191 0.0
C3099 C 0.78366 0.75841 0.27413 0.0
C3100 C 0.75148 0.7894 0.28014 0.0
C3101 C 0.75679 0.82102 0.21758 0.0
C3102 C 0.75419 0.80474 0.20934 0.0
C3103 C 0.79794 0.77594 0.24614 0.0
C3104 C 0.85698 0.78934 0.26483 0.0
C3105 C 0.86827 0.79308 0.254 0.0
C3106 C 0.88339 0.79061 0.25683 0.0
C3107 C 0.88675 0.78399 0.27043 0.0
C3108 C 0.86088 0.78308 0.27838 0.0
C3109 C 0.87562 0.78033 0.28109 0.0
C3110 C 0.80898 0.82106 0.26747 0.0
C3111 C 0.8412 0.79202 0.26209 0.0
H3112 H 0.727 0.78268 0.29809 0.0
H3113 H 0.69521 0.80173 0.27015 0.0
H3114 H 0.74061 0.80251 0.25604 0.0
H3115 H 0.71503 0.80835 0.25183 0.0
H3116 H 0.86537 0.79814 0.24362 0.0
H3117 H 0.89803 0.78147 0.27281 0.0
H3118 H 0.85255 0.78033 0.28692 0.0
H3119 H 0.87844 0.77533 0.29153 0.0
Tb3120 Tb 0.80649 0.27827 0.75079 0.0
C3121 C 0.78354 0.33659 0.78613 0.0
C3122 C 0.80498 0.36003 0.78892 0.0
C3123 C 0.77872 0.36408 0.78793 0.0
C3124 C 0.79926 0.3429 0.78683 0.0
C3125 C 0.77314 0.3472 0.78722 0.0
C3126 C 0.79463 0.3705 0.78891 0.0
C3127 C 0.75286 0.3243 0.78996 0.0
N3128 N 0.77858 0.3203 0.7861 0.0
C3129 C 0.7636 0.3143 0.78902 0.0
C3130 C 0.75757 0.34073 0.78866 0.0
Tb3131 Tb 0.79733 0.30516 0.78469 0.0
N3132 N 0.80896 0.33246 0.78734 0.0
C3133 C 0.8244 0.33868 0.79155 0.0
C3134 C 0.82088 0.36625 0.79202 0.0
C3135 C 0.83058 0.35556 0.79373 0.0
H3136 H 0.75968 0.30179 0.7905 0.0
H3137 H 0.84285 0.3603 0.79668 0.0
H3138 H 0.79882 0.38366 0.79039 0.0
H3139 H 0.74098 0.31933 0.79181 0.0
H3140 H 0.83224 0.33087 0.79315 0.0
H3141 H 0.74749 0.24405 0.72657 0.0
H3142 H 0.82571 0.37933 0.79376 0.0
H3143 H 0.83668 0.2633 0.76106 0.0
H3144 H 0.76575 0.26726 0.74103 0.0
H3145 H 0.84387 0.23686 0.75896 0.0
H3146 H 0.7709 0.37237 0.7886 0.0
H3147 H 0.75455 0.21734 0.71944 0.0
H3148 H 0.77373 0.20026 0.72205 0.0
H3149 H 0.74925 0.34848 0.78957 0.0
H3150 H 0.79944 0.19802 0.732 0.0
N3151 N 0.78559 0.2561 0.73993 0.0
C3152 C 0.77034 0.25676 0.73679 0.0
C3153 C 0.76326 0.22801 0.72516 0.0
C3154 C 0.77812 0.22667 0.72976 0.0
C3155 C 0.75929 0.24306 0.72903 0.0
C3156 C 0.78912 0.24101 0.73719 0.0
H3157 H 0.82535 0.21143 0.74611 0.0
N3158 N 0.81346 0.25343 0.7506 0.0
C3159 C 0.83239 0.23739 0.75451 0.0
C3160 C 0.80344 0.23964 0.74292 0.0
C3161 C 0.82807 0.25245 0.75584 0.0
C3162 C 0.82196 0.22311 0.7472 0.0
C3163 C 0.80736 0.22409 0.74116 0.0
O3164 O 0.83033 0.28537 0.74917 0.0
O3165 O 0.81155 0.30315 0.76479 0.0
O3166 O 0.7809 0.30563 0.76425 0.0
O3167 O 0.7865 0.28737 0.74193 0.0
O3168 O 0.80766 0.2999 0.73987 0.0
O3169 O 0.81506 0.27266 0.72817 0.0
O3170 O 0.79779 0.2921 0.80373 0.0
O3171 O 0.79609 0.28041 0.77275 0.0
O3172 O 0.81753 0.27638 0.77431 0.0
O3173 O 0.82162 0.30313 0.787 0.0
O3174 O 0.77671 0.28506 0.78288 0.0
O3175 O 0.79997 0.318 0.80866 0.0
C3176 C 0.8116 0.31056 0.75299 0.0
C3177 C 0.83807 0.29151 0.72452 0.0
C3178 C 0.83975 0.31132 0.70659 0.0
C3179 C 0.83085 0.29982 0.71445 0.0
C3180 C 0.85594 0.31425 0.70863 0.0
C3181 C 0.85425 0.29466 0.7265 0.0
C3182 C 0.86312 0.30594 0.71855 0.0
C3183 C 0.77816 0.29772 0.74896 0.0
C3184 C 0.8292 0.2801 0.73371 0.0
C3185 C 0.79662 0.21 0.73345 0.0
C3186 C 0.78204 0.21129 0.72771 0.0
C3187 C 0.78254 0.27386 0.77482 0.0
C3188 C 0.7861 0.30254 0.82626 0.0
C3189 C 0.7841 0.2886 0.83346 0.0
C3190 C 0.77332 0.28617 0.84493 0.0
C3191 C 0.76425 0.29787 0.84882 0.0
C3192 C 0.77689 0.31401 0.83027 0.0
C3193 C 0.76598 0.3116 0.84144 0.0
C3194 C 0.82573 0.28885 0.78498 0.0
C3195 C 0.79789 0.30475 0.81469 0.0
H3196 H 0.81838 0.29729 0.71257 0.0
H3197 H 0.86301 0.32304 0.70264 0.0
H3198 H 0.86003 0.28844 0.73429 0.0
H3199 H 0.8756 0.30832 0.72016 0.0
H3200 H 0.79101 0.27963 0.83003 0.0
H3201 H 0.75607 0.29668 0.85784 0.0
H3202 H 0.77811 0.32484 0.82484 0.0
H3203 H 0.75897 0.32052 0.84456 0.0
Tb3204 Tb 0.81072 0.80658 0.77736 0.0
C3205 C 0.74257 0.77977 0.76162 0.0
C3206 C 0.73271 0.77874 0.78771 0.0
C3207 C 0.71542 0.77958 0.765 0.0
C3208 C 0.74498 0.7787 0.77763 0.0
C3209 C 0.72772 0.78031 0.75518 0.0
C3210 C 0.71793 0.7789 0.78126 0.0
C3211 C 0.73761 0.78044 0.72927 0.0
N3212 N 0.75462 0.77992 0.75229 0.0
C3213 C 0.75188 0.77922 0.73599 0.0
C3214 C 0.72547 0.78109 0.73893 0.0
Tb3215 Tb 0.7766 0.77435 0.76404 0.0
N3216 N 0.75936 0.77813 0.78344 0.0
C3217 C 0.76229 0.77904 0.79971 0.0
C3218 C 0.73565 0.7788 0.80405 0.0
C3219 C 0.75056 0.77926 0.81009 0.0
H3220 H 0.76047 0.7771 0.72778 0.0
H3221 H 0.75313 0.78002 0.82284 0.0
H3222 H 0.7084 0.77872 0.78879 0.0
H3223 H 0.73583 0.78023 0.71648 0.0
H3224 H 0.77364 0.78039 0.80529 0.0
H3225 H 0.83067 0.79853 0.71662 0.0
H3226 H 0.72659 0.77899 0.81217 0.0
H3227 H 0.82956 0.80383 0.81178 0.0
H3228 H 0.81165 0.79433 0.73592 0.0
H3229 H 0.85593 0.80511 0.82211 0.0
H3230 H 0.70394 0.77977 0.76019 0.0
H3231 H 0.85837 0.80742 0.72593 0.0
H3232 H 0.87885 0.81173 0.74855 0.0
H3233 H 0.71429 0.78163 0.73361 0.0
H3234 H 0.88567 0.81184 0.77708 0.0
N3235 N 0.82747 0.80425 0.75691 0.0
C3236 C 0.82329 0.79992 0.74063 0.0
C3237 C 0.84986 0.80643 0.73466 0.0
C3238 C 0.85428 0.80843 0.75105 0.0
C3239 C 0.83426 0.80154 0.72939 0.0
C3240 C 0.84268 0.80717 0.76194 0.0
H3241 H 0.87715 0.80859 0.80434 0.0
N3242 N 0.83481 0.80455 0.78747 0.0
C3243 C 0.85345 0.80548 0.80954 0.0
C3244 C 0.84648 0.80708 0.77782 0.0
C3245 C 0.83829 0.80432 0.80341 0.0
C3246 C 0.86539 0.8076 0.79954 0.0
C3247 C 0.86203 0.80855 0.78349 0.0
O3248 O 0.8122 0.81964 0.80101 0.0
O3249 O 0.78631 0.79725 0.77992 0.0
O3250 O 0.78106 0.7913 0.74648 0.0
O3251 O 0.8019 0.81379 0.75579 0.0
O3252 O 0.79348 0.82139 0.77707 0.0
O3253 O 0.82325 0.83105 0.78225 0.0
O3254 O 0.77165 0.7578 0.74203 0.0
O3255 O 0.80088 0.78354 0.76248 0.0
O3256 O 0.8081 0.78844 0.79373 0.0
O3257 O 0.78603 0.76724 0.78536 0.0
O3258 O 0.7936 0.75878 0.76 0.0
O3259 O 0.76239 0.7512 0.76385 0.0
C3260 C 0.78193 0.81043 0.77937 0.0
C3261 C 0.81413 0.84801 0.80341 0.0
C3262 C 0.80039 0.8693 0.79946 0.0
C3263 C 0.80659 0.85586 0.79314 0.0
C3264 C 0.80231 0.87527 0.81615 0.0
C3265 C 0.81581 0.85403 0.82006 0.0
C3266 C 0.80999 0.86765 0.82637 0.0
C3267 C 0.79004 0.8057 0.7453 0.0
C3268 C 0.81979 0.83319 0.79722 0.0
C3269 C 0.87369 0.81063 0.77292 0.0
C3270 C 0.86982 0.81066 0.75672 0.0
C3271 C 0.80548 0.77034 0.76051 0.0
C3272 C 0.76792 0.73007 0.7442 0.0
C3273 C 0.77642 0.72387 0.75519 0.0
C3274 C 0.78169 0.70948 0.75018 0.0
C3275 C 0.77793 0.70097 0.73423 0.0
C3276 C 0.76416 0.72139 0.72836 0.0
C3277 C 0.76907 0.70684 0.72344 0.0
C3278 C 0.79845 0.77461 0.79532 0.0
C3279 C 0.76391 0.74614 0.74862 0.0
H3280 H 0.80553 0.85157 0.78023 0.0
H3281 H 0.79769 0.88568 0.82132 0.0
H3282 H 0.82156 0.84811 0.82818 0.0
H3283 H 0.81131 0.87221 0.83923 0.0
H3284 H 0.77949 0.73057 0.76742 0.0
H3285 H 0.7818 0.68977 0.73015 0.0
H3286 H 0.75764 0.72602 0.71973 0.0
H3287 H 0.7662 0.70023 0.71118 0.0
Tb3288 Tb 0.52809 0.52617 0.51189 0.0
C3289 C 0.56787 0.58497 0.55281 0.0
C3290 C 0.57172 0.6057 0.53599 0.0
C3291 C 0.57128 0.61386 0.56486 0.0
C3292 C 0.56883 0.58904 0.53761 0.0
C3293 C 0.56991 0.59748 0.56663 0.0
C3294 C 0.57218 0.61797 0.54956 0.0
C3295 C 0.5724 0.57731 0.58297 0.0
N3296 N 0.56701 0.56907 0.55418 0.0
C3297 C 0.57042 0.56535 0.569 0.0
C3298 C 0.57168 0.59335 0.58182 0.0
Tb3299 Tb 0.56397 0.55086 0.53002 0.0
N3300 N 0.56871 0.57695 0.5247 0.0
C3301 C 0.57321 0.58097 0.51037 0.0
C3302 C 0.57504 0.60966 0.52099 0.0
C3303 C 0.57616 0.59725 0.50826 0.0
H3304 H 0.57068 0.55289 0.57012 0.0
H3305 H 0.57936 0.60012 0.49679 0.0
H3306 H 0.57408 0.63077 0.54846 0.0
H3307 H 0.57438 0.57411 0.59463 0.0
H3308 H 0.57438 0.5718 0.5003 0.0
H3309 H 0.51969 0.47687 0.54597 0.0
H3310 H 0.57747 0.62229 0.51933 0.0
H3311 H 0.51831 0.52405 0.47279 0.0
H3312 H 0.52335 0.50539 0.54233 0.0
H3313 H 0.51402 0.50332 0.44793 0.0
H3314 H 0.57254 0.62356 0.57532 0.0
H3315 H 0.51896 0.45471 0.52259 0.0
H3316 H 0.51891 0.44617 0.49267 0.0
H3317 H 0.57332 0.60261 0.59267 0.0
H3318 H 0.51779 0.45349 0.4658 0.0
N3319 N 0.52516 0.49995 0.51696 0.0
C3320 C 0.523 0.49605 0.53188 0.0
C3321 C 0.52057 0.46731 0.52085 0.0
C3322 C 0.52178 0.47119 0.50549 0.0
C3323 C 0.52092 0.47977 0.53406 0.0
C3324 C 0.5239 0.4878 0.5039 0.0
H3325 H 0.51561 0.47474 0.44897 0.0
N3326 N 0.52367 0.50782 0.48788 0.0
C3327 C 0.51685 0.49998 0.45932 0.0
C3328 C 0.52323 0.4919 0.48882 0.0
C3329 C 0.51943 0.51176 0.4735 0.0
C3330 C 0.51778 0.48388 0.45995 0.0
C3331 C 0.52051 0.47953 0.47488 0.0
O3332 O 0.51012 0.53915 0.51228 0.0
O3333 O 0.54193 0.55118 0.51812 0.0
O3334 O 0.54707 0.55218 0.5489 0.0
O3335 O 0.52524 0.53227 0.5381 0.0
O3336 O 0.52948 0.54407 0.49601 0.0
O3337 O 0.50517 0.51338 0.51206 0.0
O3338 O 0.58064 0.54389 0.54421 0.0
O3339 O 0.54791 0.52705 0.52805 0.0
O3340 O 0.54525 0.52347 0.49336 0.0
O3341 O 0.56629 0.54506 0.50362 0.0
O3342 O 0.57014 0.52701 0.52395 0.0
O3343 O 0.58723 0.55948 0.52661 0.0
C3344 C 0.53866 0.55623 0.50525 0.0
C3345 C 0.48674 0.52366 0.49825 0.0
C3346 C 0.4647 0.53293 0.48785 0.0
C3347 C 0.47716 0.53492 0.49941 0.0
C3348 C 0.46212 0.51965 0.47483 0.0
C3349 C 0.48378 0.51021 0.48537 0.0
C3350 C 0.47165 0.50838 0.47363 0.0
C3351 C 0.53301 0.54348 0.55029 0.0
C3352 C 0.49938 0.52597 0.51089 0.0
C3353 C 0.51965 0.46313 0.47637 0.0
C3354 C 0.52026 0.45896 0.49167 0.0
C3355 C 0.55715 0.51761 0.52486 0.0
C3356 C 0.6057 0.56109 0.54835 0.0
C3357 C 0.61774 0.553 0.54985 0.0
C3358 C 0.63156 0.56093 0.55922 0.0
C3359 C 0.63308 0.57718 0.56736 0.0
C3360 C 0.60742 0.57737 0.5563 0.0
C3361 C 0.62102 0.5853 0.56592 0.0
C3362 C 0.55891 0.53306 0.49176 0.0
C3363 C 0.59198 0.55219 0.5377 0.0
H3364 H 0.47914 0.54495 0.50967 0.0
H3365 H 0.45268 0.5179 0.46568 0.0
H3366 H 0.49069 0.50104 0.48442 0.0
H3367 H 0.46949 0.49807 0.46368 0.0
H3368 H 0.61651 0.54061 0.54314 0.0
H3369 H 0.64357 0.5836 0.57474 0.0
H3370 H 0.59845 0.58401 0.55494 0.0
H3371 H 0.6223 0.59785 0.57209 0.0
Tb3372 Tb 0.06592 0.5459 0.01398 0.0
C3373 C 0.01483 0.50893 0.0491 0.0
C3374 C 1.00292 0.48456 0.02976 0.0
C3375 C 1.0032 0.48397 0.0584 0.0
C3376 C 0.01108 0.50107 0.03338 0.0
C3377 C 0.0106 0.50067 0.06185 0.0
C3378 C 0.99938 0.47591 0.04235 0.0
C3379 C 0.02001 0.52637 0.08028 0.0
N3380 N 0.02182 0.52507 0.05184 0.0
C3381 C 0.02399 0.53401 0.06719 0.0
C3382 C 0.01349 0.50957 0.07762 0.0
Tb3383 Tb 0.02843 0.53646 0.02972 0.0
N3384 N 0.01448 0.50998 0.02166 0.0
C3385 C 0.00879 0.50345 0.00607 0.0
C3386 C 0.99805 0.47748 0.01368 0.0
C3387 C 1.00074 0.48708 1.00182 0.0
H3388 H 0.02913 0.54696 0.06946 0.0
H3389 H 0.9967 0.48186 0.98937 0.0
H3390 H 0.99327 0.46317 0.03982 0.0
H3391 H 0.02204 0.53344 0.09241 0.0
H3392 H 0.01084 0.51059 0.9967 0.0
H3393 H 0.09801 0.59992 0.05491 0.0
H3394 H 0.99179 0.46482 0.01036 0.0
H3395 H 0.06352 0.53643 0.97399 0.0
H3396 H 0.08368 0.57128 0.04729 0.0
H3397 H 0.0697 0.55068 0.95131 0.0
H3398 H 1.0 0.47732 0.06802 0.0
H3399 H 0.10293 0.61729 0.0342 0.0
H3400 H 0.10105 0.61952 0.00491 0.0
H3401 H 0.0104 0.50368 0.08778 0.0
H3402 H 0.09345 0.60606 0.97664 0.0
N3403 N 0.08004 0.57224 0.02239 0.0
C3404 C 0.08574 0.57856 0.03802 0.0
C3405 C 0.09663 0.60466 0.03074 0.0
C3406 C 0.09159 0.59785 0.01463 0.0
C3407 C 0.09391 0.59488 0.04244 0.0
C3408 C 0.08336 0.58137 0.01081 0.0
H3409 H 0.08193 0.5803 0.9565 0.0
N3410 N 0.07182 0.55782 0.99201 0.0
C3411 C 0.07236 0.55738 0.96356 0.0
C3412 C 0.07914 0.57388 0.99502 0.0
C3413 C 0.06891 0.54932 0.97648 0.0
C3414 C 0.07923 0.5741 0.96653 0.0
C3415 C 0.08292 0.58252 0.98243 0.0
O3416 O 0.07851 0.52935 1.00272 0.0
O3417 O 0.04664 0.5271 0.01789 0.0
O3418 O 0.04449 0.52761 0.04455 0.0
O3419 O 0.06766 0.5441 0.03964 0.0
O3420 O 0.05636 0.52313 0.9967 0.0
O3421 O 0.08737 0.54517 0.02535 0.0
O3422 O 0.01518 0.55256 0.04058 0.0
O3423 O 0.04786 0.55507 0.02609 0.0
O3424 O 0.0498 0.5554 0.99993 0.0
O3425 O 0.02692 0.53793 0.00394 0.0
O3426 O 0.03769 0.55954 0.04681 0.0
O3427 O 0.00779 0.5377 0.01716 0.0
C3428 C 0.04592 0.51671 0.00509 0.0
C3429 C 0.10555 0.53661 0.00812 0.0
C3430 C 0.13068 0.52893 0.00661 0.0
C3431 C 0.11607 0.52756 0.01282 0.0
C3432 C 0.13446 0.53964 0.99565 0.0
C3433 C 0.10976 0.54736 0.99743 0.0
C3434 C 0.12414 0.54885 0.99125 0.0
C3435 C 0.0594 0.53421 0.04814 0.0
C3436 C 0.08999 0.53403 0.01382 0.0
C3437 C 0.09055 0.59914 0.98613 0.0
C3438 C 0.09487 0.6068 1.00222 0.0
C3439 C 0.04845 0.56571 0.03864 0.0
C3440 C 0.98839 0.54499 0.03314 0.0
C3441 C 0.97856 0.55526 0.02972 0.0
C3442 C 0.96315 0.55228 0.03379 0.0
C3443 C 0.95785 0.53894 0.04146 0.0
C3444 C 0.98282 0.53174 0.0407 0.0
C3445 C 0.96763 0.52877 0.04486 0.0
C3446 C 0.03506 0.54841 0.9959 0.0
C3447 C 0.0044 0.54828 0.02873 0.0
H3448 H 0.11278 0.51949 0.0213 0.0
H3449 H 0.1453 0.54077 0.99018 0.0
H3450 H 0.10186 0.55441 0.99366 0.0
H3451 H 0.12723 0.55701 0.98282 0.0
H3452 H 0.98287 0.56538 0.02369 0.0
H3453 H 0.94617 0.53643 0.04501 0.0
H3454 H 0.99019 0.52372 0.0434 0.0
H3455 H 0.96341 0.51856 0.05078 0.0
H3456 H 0.00991 0.17659 0.94107 0.0
H3457 H 0.01311 0.15228 0.95177 0.0
H3458 H 0.04401 0.18323 0.99101 0.0
H3459 H 0.04112 0.20746 0.98017 0.0
H3460 H 0.05589 0.15893 0.98069 0.0
H3461 H 0.004 0.16197 0.99405 0.0
H3462 H 0.97668 0.16263 0.98819 0.0
H3463 H 0.96955 0.11613 0.95606 0.0
H3464 H 0.99681 0.11527 0.96165 0.0
H3465 H 0.03434 0.09463 0.03419 0.0
H3466 H 0.03348 0.11905 0.02241 0.0
H3467 H 0.04552 0.09474 0.97734 0.0
H3468 H 0.04666 0.0704 0.98921 0.0
H3469 H 0.01265 0.11505 0.98984 0.0
H3470 H 0.06621 0.11626 0.97191 0.0
H3471 H 0.09432 0.11835 0.97556 0.0
H3472 H 0.09817 0.15809 0.0156 0.0
H3473 H 0.07003 0.15611 0.0122 0.0
C3474 C 0.01726 0.17826 0.95209 0.0
C3475 C 0.02526 0.19411 0.95969 0.0
C3476 C 0.01906 0.16427 0.95826 0.0
C3477 C 0.02869 0.16572 0.97241 0.0
C3478 C 0.03655 0.18158 0.98008 0.0
C3479 C 0.03489 0.19552 0.97382 0.0
C3480 C 0.03115 0.15085 0.97897 0.0
C3481 C 0.04635 0.14944 0.98275 0.0
C3482 C 0.01886 0.13808 0.98146 0.0
C3483 C 1.00247 0.13863 0.97816 0.0
C3484 C 0.99661 0.15194 0.98567 0.0
C3485 C 0.98113 0.15233 0.98242 0.0
C3486 C 0.97138 0.13944 0.97175 0.0
C3487 C 0.97709 0.12611 0.96434 0.0
C3488 C 0.99255 0.12565 0.96756 0.0
C3489 C 0.03722 0.09468 0.0219 0.0
C3490 C 0.04113 0.08079 0.01285 0.0
C3491 C 0.03673 0.10865 0.01515 0.0
C3492 C 0.03985 0.10905 0.99906 0.0
C3493 C 0.0436 0.09509 0.98992 0.0
C3494 C 0.04421 0.08112 0.99671 0.0
C3495 C 0.03736 0.12323 0.99149 0.0
C3496 C 0.02213 0.12456 0.98768 0.0
C3497 C 0.04959 0.13588 0.98882 0.0
C3498 C 0.06599 0.13564 0.99216 0.0
C3499 C 0.07299 0.12511 0.98177 0.0
C3500 C 0.08895 0.12644 0.98365 0.0
C3501 C 0.09801 0.13825 0.99589 0.0
C3502 C 0.09114 0.14887 0.0062 0.0
C3503 C 0.07518 0.14761 0.00433 0.0
H3504 H 0.11036 0.13924 0.99733 0.0
H3505 H 0.9594 0.13977 0.96924 0.0
H3506 H 0.14085 0.80375 0.18914 0.0
H3507 H 0.16479 0.80161 0.20313 0.0
H3508 H 0.19032 0.81729 0.16451 0.0
H3509 H 0.16657 0.82029 0.1507 0.0
H3510 H 0.19838 0.78933 0.1748 0.0
H3511 H 0.19301 0.84367 0.19781 0.0
H3512 H 0.17937 0.86415 0.21108 0.0
H3513 H 0.17464 0.84 0.25181 0.0
H3514 H 0.18806 0.81922 0.23866 0.0
H3515 H 0.27284 0.79888 0.2165 0.0
H3516 H 0.25057 0.80354 0.20097 0.0
H3517 H 0.22335 0.79847 0.24142 0.0
H3518 H 0.24549 0.79406 0.25686 0.0
H3519 H 0.21681 0.82222 0.22918 0.0
H3520 H 0.22037 0.7674 0.20699 0.0
H3521 H 0.23326 0.74586 0.19455 0.0
H3522 H 0.24011 0.76894 0.15327 0.0
H3523 H 0.22749 0.7908 0.16561 0.0
C3524 C 0.15152 0.80707 0.18364 0.0
C3525 C 0.15152 0.8123 0.16866 0.0
C3526 C 0.16526 0.80568 0.19167 0.0
C3527 C 0.17944 0.8093 0.18494 0.0
C3528 C 0.17955 0.81431 0.16995 0.0
C3529 C 0.16584 0.81594 0.162 0.0
C3530 C 0.19412 0.80801 0.19365 0.0
C3531 C 0.20254 0.7967 0.18659 0.0
C3532 C 0.19942 0.81728 0.20922 0.0
C3533 C 0.19141 0.8298 0.21718 0.0
C3534 C 0.18895 0.84265 0.20953 0.0
C3535 C 0.18128 0.85433 0.21705 0.0
C3536 C 0.17611 0.85335 0.23226 0.0
C3537 C 0.17863 0.84072 0.24001 0.0
C3538 C 0.18628 0.829 0.23254 0.0
C3539 C 0.2621 0.79885 0.22206 0.0
C3540 C 0.26106 0.79643 0.23804 0.0
C3541 C 0.24932 0.80144 0.21316 0.0
C3542 C 0.23508 0.80128 0.2199 0.0
C3543 C 0.23413 0.79886 0.23589 0.0
C3544 C 0.24689 0.79645 0.24479 0.0
C3545 C 0.22109 0.8034 0.21044 0.0
C3546 C 0.21275 0.81487 0.21736 0.0
C3547 C 0.21573 0.79407 0.19486 0.0
C3548 C 0.22312 0.78083 0.1873 0.0
C3549 C 0.22471 0.76794 0.1953 0.0
C3550 C 0.23196 0.75567 0.18827 0.0
C3551 C 0.23753 0.75605 0.17314 0.0
C3552 C 0.23581 0.76868 0.165 0.0
C3553 C 0.2286 0.78101 0.17201 0.0
H3554 H 0.24314 0.74654 0.16771 0.0
H3555 H 0.17017 0.86241 0.23806 0.0
H3556 H 0.51378 0.8623 0.44465 0.0
H3557 H 0.51665 0.89141 0.45516 0.0
H3558 H 0.5465 0.8877 0.49543 0.0
H3559 H 0.54293 0.85819 0.48547 0.0
H3560 H 0.52897 0.90762 0.50592 0.0
H3561 H 0.56067 0.90457 0.46244 0.0
H3562 H 0.56742 0.89587 0.43485 0.0
H3563 H 0.53352 0.91886 0.41604 0.0
H3564 H 0.52641 0.9275 0.44351 0.0
H3565 H 0.55114 0.99625 0.52729 0.0
H3566 H 0.54902 0.96663 0.52135 0.0
H3567 H 0.52518 0.96431 0.47496 0.0
H3568 H 0.5294 0.99413 0.48018 0.0
H3569 H 0.54271 0.94697 0.46915 0.0
H3570 H 0.50855 0.9452 0.51534 0.0
H3571 H 0.50388 0.95241 0.54401 0.0
H3572 H 0.54611 0.93983 0.55845 0.0
H3573 H 0.55072 0.93183 0.52995 0.0
C3574 C 0.52076 0.86749 0.4559 0.0
C3575 C 0.52808 0.85762 0.46414 0.0
C3576 C 0.52259 0.88433 0.46181 0.0
C3577 C 0.53204 0.89201 0.476 0.0
C3578 C 0.5392 0.88221 0.48442 0.0
C3579 C 0.53727 0.86528 0.47858 0.0
C3580 C 0.53445 0.91022 0.48187 0.0
C3581 C 0.53201 0.91623 0.49786 0.0
C3582 C 0.53863 0.92166 0.47157 0.0
C3583 C 0.54292 0.91656 0.45503 0.0
C3584 C 0.55458 0.90767 0.45241 0.0
C3585 C 0.55848 0.90277 0.43679 0.0
C3586 C 0.55088 0.90678 0.4237 0.0
C3587 C 0.53938 0.91575 0.4262 0.0
C3588 C 0.53543 0.92067 0.44179 0.0
C3589 C 0.54509 0.98929 0.51602 0.0
C3590 C 0.53999 0.99747 0.50438 0.0
C3591 C 0.54373 0.97217 0.5126 0.0
C3592 C 0.53659 0.96268 0.49773 0.0
C3593 C 0.53087 0.971 0.48649 0.0
C3594 C 0.53303 0.98812 0.48955 0.0
C3595 C 0.53611 0.9445 0.493 0.0
C3596 C 0.53928 0.93844 0.47719 0.0
C3597 C 0.53282 0.93309 0.50356 0.0
C3598 C 0.53003 0.93808 0.52058 0.0
C3599 C 0.51684 0.94403 0.52465 0.0
C3600 C 0.5142 0.94824 0.54084 0.0
C3601 C 0.52479 0.94685 0.55301 0.0
C3602 C 0.53795 0.94097 0.54903 0.0
C3603 C 0.54051 0.93645 0.53288 0.0
H3604 H 0.52273 0.95021 0.56552 0.0
H3605 H 0.55391 0.90297 0.41161 0.0
H3606 H 0.48815 0.30425 0.65027 0.0
H3607 H 0.46466 0.30169 0.66444 0.0
H3608 H 0.49214 0.31034 0.70977 0.0
H3609 H 0.51564 0.31282 0.69567 0.0
H3610 H 0.46859 0.28602 0.70925 0.0
H3611 H 0.47441 0.34002 0.69677 0.0
H3612 H 0.47743 0.3607 0.67922 0.0
H3613 H 0.43418 0.33601 0.65261 0.0
H3614 H 0.431 0.31505 0.66987 0.0
H3615 H 0.41569 0.30491 0.76428 0.0
H3616 H 0.43674 0.30849 0.7469 0.0
H3617 H 0.40429 0.29038 0.70498 0.0
H3618 H 0.38297 0.28634 0.72243 0.0
H3619 H 0.4288 0.31814 0.70207 0.0
H3620 H 0.42279 0.26476 0.7158 0.0
H3621 H 0.41987 0.24491 0.7342 0.0
H3622 H 0.46395 0.26934 0.75918 0.0
H3623 H 0.46702 0.28951 0.74108 0.0
C3624 C 0.48923 0.30579 0.66328 0.0
C3625 C 0.50387 0.30879 0.67179 0.0
C3626 C 0.47574 0.30432 0.67139 0.0
C3627 C 0.47653 0.306 0.68826 0.0
C3628 C 0.49113 0.30895 0.69677 0.0
C3629 C 0.50461 0.31033 0.68867 0.0
C3630 C 0.46221 0.30429 0.69705 0.0
C3631 C 0.46002 0.29321 0.70776 0.0
C3632 C 0.45068 0.31328 0.69488 0.0
C3633 C 0.45256 0.32587 0.6845 0.0
C3634 C 0.46561 0.33893 0.68709 0.0
C3635 C 0.46733 0.35071 0.67721 0.0
C3636 C 0.45602 0.34964 0.66478 0.0
C3637 C 0.44294 0.33681 0.66222 0.0
C3638 C 0.44117 0.32498 0.67206 0.0
C3639 C 0.41294 0.30165 0.75136 0.0
C3640 C 0.3976 0.295 0.74481 0.0
C3641 C 0.42504 0.30379 0.74143 0.0
C3642 C 0.42217 0.29945 0.72463 0.0
C3643 C 0.4068 0.29375 0.71792 0.0
C3644 C 0.39461 0.29149 0.72792 0.0
C3645 C 0.43542 0.30009 0.71436 0.0
C3646 C 0.43737 0.31092 0.70341 0.0
C3647 C 0.44681 0.29094 0.71635 0.0
C3648 C 0.44507 0.27873 0.72716 0.0
C3649 C 0.43181 0.26598 0.72529 0.0
C3650 C 0.43013 0.25466 0.73566 0.0
C3651 C 0.4417 0.25588 0.74787 0.0
C3652 C 0.45499 0.26841 0.74972 0.0
C3653 C 0.45671 0.27979 0.7394 0.0
H3654 H 0.44038 0.2471 0.75589 0.0
H3655 H 0.45738 0.35878 0.65714 0.0
H3656 H 0.99636 0.85599 0.61478 0.0
H3657 H 1.0015 0.87466 0.59561 0.0
H3658 H 0.04697 0.86463 0.59145 0.0
H3659 H 0.04198 0.8462 0.6108 0.0
H3660 H 0.04842 0.89614 0.59289 0.0
H3661 H 0.01668 0.84643 0.56248 0.0
H3662 H 0.9939 0.82344 0.5563 0.0
H3663 H 0.96448 0.85734 0.55344 0.0
H3664 H 0.98707 0.88056 0.55983 0.0
H3665 H 0.06314 0.92689 0.52061 0.0
H3666 H 0.05799 0.90779 0.53945 0.0
H3667 H 0.01476 0.9219 0.54818 0.0
H3668 H 0.01977 0.94087 0.52929 0.0
H3669 H 0.01236 0.88826 0.54413 0.0
H3670 H 0.04492 0.93803 0.57455 0.0
H3671 H 0.06819 0.96048 0.58033 0.0
H3672 H 0.09663 0.92557 0.58246 0.0
H3673 H 0.07359 0.90287 0.57643 0.0
C3674 C 0.00745 0.85781 0.60978 0.0
C3675 C 0.01877 0.84966 0.61426 0.0
C3676 C 0.01036 0.86843 0.5988 0.0
C3677 C 0.02454 0.87085 0.5919 0.0
C3678 C 0.03596 0.86297 0.59662 0.0
C3679 C 0.03311 0.85248 0.60771 0.0
C3680 C 0.02743 0.88145 0.57963 0.0
C3681 C 0.04063 0.89427 0.58213 0.0
C3682 C 0.01715 0.87919 0.5657 0.0
C3683 C 1.00355 0.86524 0.56179 0.0
C3684 C 0.00534 0.84899 0.56065 0.0
C3685 C 0.99246 0.83592 0.55709 0.0
C3686 C 0.97775 0.83893 0.55452 0.0
C3687 C 0.97588 0.85503 0.55546 0.0
C3688 C 0.98872 0.86815 0.55904 0.0
C3689 C 0.05245 0.92572 0.52638 0.0
C3690 C 0.04188 0.93538 0.52356 0.0
C3691 C 0.04958 0.91493 0.53721 0.0
C3692 C 0.03608 0.91361 0.54532 0.0
C3693 C 0.02527 0.92281 0.54209 0.0
C3694 C 0.02817 0.93367 0.53137 0.0
C3695 C 0.03332 0.90287 0.55743 0.0
C3696 C 0.02014 0.89006 0.55489 0.0
C3697 C 0.04368 0.90506 0.57125 0.0
C3698 C 0.05754 0.91873 0.57486 0.0
C3699 C 0.05615 0.93512 0.5761 0.0
C3700 C 0.06929 0.9479 0.57946 0.0
C3701 C 0.08386 0.94446 0.58173 0.0
C3702 C 0.08534 0.92822 0.58067 0.0
C3703 C 0.07224 0.9154 0.57729 0.0
H3704 H 0.09401 0.95437 0.58434 0.0
H3705 H 0.9678 0.82879 0.55176 0.0
H3706 H 0.50712 0.7907 0.82516 0.0
H3707 H 0.48242 0.79329 0.81295 0.0
H3708 H 0.48605 0.83959 0.84505 0.0
H3709 H 0.51032 0.83674 0.85775 0.0
H3710 H 0.45748 0.82203 0.84236 0.0
H3711 H 0.49532 0.83754 0.80575 0.0
H3712 H 0.51611 0.83366 0.78817 0.0
H3713 H 0.48592 0.79148 0.75898 0.0
H3714 H 0.465 0.79498 0.77653 0.0
H3715 H 0.4063 0.85783 0.80093 0.0
H3716 H 0.43043 0.85245 0.81182 0.0
H3717 H 0.4192 0.80362 0.78323 0.0
H3718 H 0.395 0.80891 0.77236 0.0
H3719 H 0.45077 0.82069 0.78352 0.0
H3720 H 0.41255 0.80631 0.81984 0.0
H3721 H 0.39188 0.8109 0.83734 0.0
H3722 H 0.42313 0.85183 0.86713 0.0
H3723 H 0.44393 0.84765 0.84963 0.0
C3724 C 0.50255 0.80132 0.82975 0.0
C3725 C 0.51077 0.8136 0.84231 0.0
C3726 C 0.48851 0.80286 0.82266 0.0
C3727 C 0.48252 0.81677 0.82792 0.0
C3728 C 0.4905 0.8288 0.84074 0.0
C3729 C 0.50446 0.82723 0.84787 0.0
C3730 C 0.46808 0.81901 0.81997 0.0
C3731 C 0.45609 0.82189 0.82952 0.0
C3732 C 0.46612 0.81849 0.80316 0.0
C3733 C 0.47865 0.81642 0.79255 0.0
C3734 C 0.49315 0.82736 0.79565 0.0
C3735 C 0.50495 0.82525 0.78568 0.0
C3736 C 0.50235 0.81231 0.77249 0.0
C3737 C 0.48792 0.80148 0.76921 0.0
C3738 C 0.47609 0.80353 0.77916 0.0
C3739 C 0.40912 0.84606 0.79679 0.0
C3740 C 0.39883 0.83376 0.78586 0.0
C3741 C 0.42282 0.84297 0.80307 0.0
C3742 C 0.42647 0.8276 0.79841 0.0
C3743 C 0.41653 0.81554 0.78698 0.0
C3744 C 0.40274 0.81855 0.78085 0.0
C3745 C 0.44037 0.82392 0.80597 0.0
C3746 C 0.45219 0.82075 0.79635 0.0
C3747 C 0.44222 0.82427 0.82273 0.0
C3748 C 0.42976 0.82677 0.83332 0.0
C3749 C 0.41498 0.81639 0.83003 0.0
C3750 C 0.40324 0.81889 0.83997 0.0
C3751 C 0.40617 0.83168 0.85332 0.0
C3752 C 0.42087 0.84195 0.85677 0.0
C3753 C 0.43264 0.83951 0.84685 0.0
H3754 H 0.39708 0.83359 0.861 0.0
H3755 H 0.5115 0.81069 0.76478 0.0
H3756 H 0.50037 0.2035 0.07959 0.0
H3757 H 0.50374 0.17647 0.06726 0.0
H3758 H 0.49533 0.15937 0.11191 0.0
H3759 H 0.49335 0.18666 0.12473 0.0
H3760 H 0.5195 0.15136 0.10221 0.0
H3761 H 0.46945 0.146 0.07623 0.0
H3762 H 0.4489 0.15364 0.06048 0.0
H3763 H 0.47586 0.15292 0.01969 0.0
H3764 H 0.49668 0.14549 0.03526 0.0
H3765 H 0.51714 0.06729 0.06688 0.0
H3766 H 0.50855 0.092 0.07885 0.0
H3767 H 0.5297 0.11721 0.04265 0.0
H3768 H 0.53928 0.09291 0.03148 0.0
H3769 H 0.4977 0.11972 0.04825 0.0
H3770 H 0.54769 0.12422 0.07606 0.0
H3771 H 0.56679 0.11552 0.09278 0.0
H3772 H 0.5378 0.1172 0.13191 0.0
H3773 H 0.51814 0.12499 0.11516 0.0
C3774 C 0.49925 0.19402 0.08683 0.0
C3775 C 0.49677 0.19744 0.10326 0.0
C3776 C 0.50092 0.17844 0.07965 0.0
C3777 C 0.49972 0.1658 0.08862 0.0
C3778 C 0.49635 0.16892 0.10474 0.0
C3779 C 0.49501 0.18456 0.11202 0.0
C3780 C 0.50347 0.14989 0.08175 0.0
C3781 C 0.51445 0.14429 0.09055 0.0
C3782 C 0.49717 0.14081 0.06638 0.0
C3783 C 0.48469 0.14533 0.05698 0.0
C3784 C 0.47106 0.1476 0.06395 0.0
C3785 C 0.45935 0.15187 0.05504 0.0
C3786 C 0.46109 0.1538 0.03911 0.0
C3787 C 0.47453 0.15143 0.03204 0.0
C3788 C 0.48628 0.14717 0.04089 0.0
C3789 C 0.52034 0.07825 0.06183 0.0
C3790 C 0.52906 0.07835 0.04845 0.0
C3791 C 0.51519 0.09223 0.06845 0.0
C3792 C 0.5185 0.10635 0.06158 0.0
C3793 C 0.52695 0.10634 0.04801 0.0
C3794 C 0.53233 0.09247 0.04159 0.0
C3795 C 0.51356 0.12134 0.0688 0.0
C3796 C 0.50249 0.12677 0.06 0.0
C3797 C 0.51954 0.13009 0.08432 0.0
C3798 C 0.53129 0.12495 0.09423 0.0
C3799 C 0.54521 0.12238 0.0881 0.0
C3800 C 0.55616 0.11761 0.0976 0.0
C3801 C 0.55348 0.11571 0.11337 0.0
C3802 C 0.53982 0.11851 0.11965 0.0
C3803 C 0.52873 0.12302 0.11013 0.0
H3804 H 0.56202 0.11215 0.12076 0.0
H3805 H 0.45201 0.1571 0.03224 0.0
H3806 H 0.16846 0.32446 0.34929 0.0
H3807 H 0.18926 0.32839 0.3317 0.0
H3808 H 0.15581 0.31991 0.29068 0.0
H3809 H 0.13488 0.31537 0.30833 0.0
H3810 H 0.17367 0.30142 0.28408 0.0
H3811 H 0.18483 0.3585 0.30091 0.0
H3812 H 0.18918 0.38573 0.31848 0.0
H3813 H 0.22685 0.37481 0.3452 0.0
H3814 H 0.22256 0.34742 0.32794 0.0
H3815 H 0.25365 0.31133 0.25264 0.0
H3816 H 0.22744 0.3159 0.25591 0.0
H3817 H 0.22999 0.30457 0.30363 0.0
H3818 H 0.25645 0.30113 0.30074 0.0
H3819 H 0.22528 0.33852 0.2977 0.0
H3820 H 0.1852 0.27419 0.28153 0.0
H3821 H 0.17537 0.25086 0.25918 0.0
H3822 H 0.1914 0.28126 0.22503 0.0
H3823 H 0.20101 0.30478 0.24715 0.0
C3824 C 0.16556 0.32379 0.33657 0.0
C3825 C 0.1501 0.31942 0.33011 0.0
C3826 C 0.17747 0.32624 0.32652 0.0
C3827 C 0.17417 0.32466 0.30983 0.0
C3828 C 0.15867 0.3212 0.3035 0.0
C3829 C 0.14673 0.3185 0.31354 0.0
C3830 C 0.18673 0.32371 0.29901 0.0
C3831 C 0.18489 0.30976 0.28688 0.0
C3832 C 0.20123 0.33484 0.30213 0.0
C3833 C 0.2034 0.35093 0.31311 0.0
C3834 C 0.19395 0.36185 0.31063 0.0
C3835 C 0.19642 0.37732 0.32051 0.0
C3836 C 0.20829 0.382 0.33294 0.0
C3837 C 0.21767 0.37118 0.33556 0.0
C3838 C 0.21524 0.35569 0.32572 0.0
C3839 C 0.24836 0.30943 0.26362 0.0
C3840 C 0.25678 0.30554 0.27632 0.0
C3841 C 0.23335 0.31182 0.2654 0.0
C3842 C 0.22659 0.31009 0.27984 0.0
C3843 C 0.23487 0.30558 0.29226 0.0
C3844 C 0.24993 0.30358 0.29062 0.0
C3845 C 0.21232 0.31579 0.28358 0.0
C3846 C 0.21391 0.33056 0.29459 0.0
C3847 C 0.19745 0.30576 0.27896 0.0
C3848 C 0.19433 0.29108 0.26602 0.0
C3849 C 0.18691 0.27577 0.26926 0.0
C3850 C 0.18117 0.26259 0.25662 0.0
C3851 C 0.18277 0.26458 0.2407 0.0
C3852 C 0.19024 0.27971 0.23738 0.0
C3853 C 0.19599 0.29293 0.24997 0.0
H3854 H 0.17826 0.25438 0.23092 0.0
H3855 H 0.21023 0.39401 0.34053 0.0
H3856 H 0.94929 0.06157 0.17686 0.0
H3857 H 0.96116 0.05883 0.1514 0.0
H3858 H 0.0045 0.0591 0.17659 0.0
H3859 H 0.9927 0.06199 0.2022 0.0
H3860 H 0.01161 0.07514 0.1539 0.0
H3861 H 0.9781 0.0226 0.1516 0.0
H3862 H 0.95359 1.00299 0.15265 0.0
H3863 H 0.93293 0.01969 0.1135 0.0
H3864 H 0.95727 0.03955 0.11235 0.0
H3865 H 0.04692 0.04643 0.08262 0.0
H3866 H 0.03545 0.04964 0.10837 0.0
H3867 H 0.9925 0.05176 0.08389 0.0
H3868 H 0.00405 0.0487 0.05808 0.0
H3869 H 0.98544 0.03449 0.10624 0.0
H3870 H 0.01932 0.08697 0.10858 0.0
H3871 H 0.04421 0.10576 0.10711 0.0
H3872 H 0.06456 0.0884 0.14598 0.0
H3873 H 0.03981 0.06935 0.14756 0.0
C3874 C 0.96132 0.06087 0.17716 0.0
C3875 C 0.96977 0.06192 0.1921 0.0
C3876 C 0.96821 0.05925 0.16232 0.0
C3877 C 0.9839 0.05836 0.1615 0.0
C3878 C 0.99244 0.05969 0.17641 0.0
C3879 C 0.98557 0.0614 0.19129 0.0
C3880 C 0.99132 0.05616 0.14533 0.0
C3881 C 0.00586 0.06604 0.14363 0.0
C3882 C 0.98409 0.04459 0.13136 0.0
C3883 C 0.96945 0.03268 0.13201 0.0
C3884 C 0.96829 0.02217 0.14329 0.0
C3885 C 0.95444 0.011 0.14389 0.0
C3886 C 0.9417 0.01013 0.13318 0.0
C3887 C 0.9428 0.0204 0.12181 0.0
C3888 C 0.95662 0.03161 0.12117 0.0
C3889 C 0.03516 0.04799 0.08262 0.0
C3890 C 0.02674 0.04774 0.06792 0.0
C3891 C 0.02846 0.04975 0.09757 0.0
C3892 C 0.01297 0.05134 0.09861 0.0
C3893 C 0.00444 0.05069 0.08387 0.0
C3894 C 0.01115 0.04896 0.06893 0.0
C3895 C 0.00567 0.05347 0.11483 0.0
C3896 C 0.99116 0.04358 0.11652 0.0
C3897 C 0.01295 0.06497 0.12879 0.0
C3898 C 0.02775 0.07663 0.1281 0.0
C3899 C 0.02912 0.0871 0.11677 0.0
C3900 C 0.0432 0.0978 0.11592 0.0
C3901 C 0.05597 0.09824 0.12642 0.0
C3902 C 0.05466 0.08803 0.13784 0.0
C3903 C 0.0406 0.07729 0.13874 0.0
H3904 H 0.06687 0.10651 0.12572 0.0
H3905 H 0.93098 1.00147 0.13366 0.0
H3906 H 0.29739 0.73311 0.47108 0.0
H3907 H 0.29473 0.74838 0.44941 0.0
H3908 H 0.29402 0.70485 0.41416 0.0
H3909 H 0.29673 0.68955 0.43576 0.0
H3910 H 0.31005 0.73224 0.40489 0.0
H3911 H 0.26082 0.71435 0.42532 0.0
H3912 H 0.24265 0.71197 0.44636 0.0
H3913 H 0.24874 0.7644 0.45707 0.0
H3914 H 0.26715 0.7671 0.43624 0.0
H3915 H 0.26101 0.73937 0.33837 0.0
H3916 H 0.27191 0.73113 0.3621 0.0
H3917 H 0.27983 0.78104 0.38791 0.0
H3918 H 0.2694 0.78939 0.36394 0.0
H3919 H 0.26253 0.75432 0.40343 0.0
H3920 H 0.30866 0.77098 0.37879 0.0
H3921 H 0.32502 0.7719 0.35625 0.0
H3922 H 0.32422 0.72056 0.35259 0.0
H3923 H 0.30727 0.71918 0.37474 0.0
C3924 C 0.2968 0.72686 0.4587 0.0
C3925 C 0.29708 0.71012 0.45506 0.0
C3926 C 0.29533 0.73559 0.44637 0.0
C3927 C 0.29396 0.72765 0.43022 0.0
C3928 C 0.29509 0.71118 0.42656 0.0
C3929 C 0.29664 0.70247 0.4389 0.0
C3930 C 0.29005 0.73604 0.41716 0.0
C3931 C 0.29965 0.73703 0.40452 0.0
C3932 C 0.27661 0.74253 0.4169 0.0
C3933 C 0.2655 0.74094 0.42937 0.0
C3934 C 0.25838 0.72538 0.43226 0.0
C3935 C 0.24803 0.72397 0.44413 0.0
C3936 C 0.24458 0.73803 0.45308 0.0
C3937 C 0.25145 0.75353 0.45015 0.0
C3938 C 0.26185 0.755 0.43831 0.0
C3939 C 0.26522 0.74853 0.34909 0.0
C3940 C 0.26446 0.76494 0.34946 0.0
C3941 C 0.27143 0.74387 0.36256 0.0
C3942 C 0.27667 0.75553 0.37664 0.0
C3943 C 0.27586 0.77194 0.37708 0.0
C3944 C 0.26997 0.77668 0.36346 0.0
C3945 C 0.2824 0.7503 0.39108 0.0
C3946 C 0.27309 0.74983 0.40395 0.0
C3947 C 0.296 0.74413 0.39144 0.0
C3948 C 0.30646 0.74493 0.37829 0.0
C3949 C 0.31177 0.75982 0.37304 0.0
C3950 C 0.32119 0.76042 0.36032 0.0
C3951 C 0.32562 0.74626 0.3529 0.0
C3952 C 0.32075 0.73151 0.3583 0.0
C3953 C 0.31119 0.7308 0.37092 0.0
H3954 H 0.33282 0.74671 0.34298 0.0
H3955 H 0.23656 0.73692 0.46226 0.0
H3956 H 0.63763 0.04306 0.67559 0.0
H3957 H 0.61992 0.04218 0.6524 0.0
H3958 H 0.59549 0.99377 0.65703 0.0
H3959 H 0.61368 0.99443 0.68009 0.0
H3960 H 0.59837 0.99462 0.62663 0.0
H3961 H 0.57982 0.02787 0.66842 0.0
H3962 H 0.58078 0.04974 0.69201 0.0
H3963 H 0.59813 0.08627 0.66407 0.0
H3964 H 0.5975 0.06462 0.64036 0.0
H3965 H 0.54401 0.0074 0.56549 0.0
H3966 H 0.55372 1.00261 0.59149 0.0
H3967 H 0.59211 0.0438 0.59409 0.0
H3968 H 0.5826 0.04865 0.56825 0.0
H3969 H 0.57601 0.04301 0.62285 0.0
H3970 H 0.59807 0.00708 0.58257 0.0
H3971 H 0.59463 0.98456 0.55907 0.0
H3972 H 0.5669 0.95195 0.5853 0.0
H3973 H 0.57005 0.97435 0.6089 0.0
C3974 C 0.62841 0.03228 0.67174 0.0
C3975 C 0.62688 0.01889 0.6797 0.0
C3976 C 0.61825 0.0318 0.65852 0.0
C3977 C 0.60611 0.01807 0.65322 0.0
C3978 C 0.60469 1.00453 0.661 0.0
C3979 C 0.61505 1.00492 0.67413 0.0
C3980 C 0.59527 0.01796 0.63928 0.0
C3981 C 0.5932 0.00504 0.62597 0.0
C3982 C 0.58835 0.03145 0.63841 0.0
C3983 C 0.58867 0.04458 0.65261 0.0
C3984 C 0.58393 0.04056 0.66732 0.0
C3985 C 0.58441 0.05292 0.68072 0.0
C3986 C 0.58953 0.06938 0.67954 0.0
C3987 C 0.59416 0.07351 0.66496 0.0
C3988 C 0.59372 0.06119 0.65153 0.0
C3989 C 0.5545 0.01545 0.57163 0.0
C3990 C 0.56254 0.02843 0.56485 0.0
C3991 C 0.56001 0.01268 0.58644 0.0
C3992 C 0.57357 0.0229 0.59465 0.0
C3993 C 0.58156 0.03585 0.58792 0.0
C3994 C 0.57616 0.03853 0.57311 0.0
C3995 C 0.57983 0.02013 0.61016 0.0
C3996 C 0.58093 0.03247 0.62375 0.0
C3997 C 0.58554 0.00598 0.61138 0.0
C3998 C 0.58419 0.9924 0.59743 0.0
C3999 C 0.59121 0.99512 0.5833 0.0
C4000 C 0.58931 0.98238 0.56997 0.0
C4001 C 0.58051 0.96684 0.57068 0.0
C4002 C 0.57369 0.96399 0.58476 0.0
C4003 C 0.57555 0.97669 0.59813 0.0
H4004 H 0.579 0.95701 0.56032 0.0
H4005 H 0.5899 0.07893 0.68993 0.0
H4006 H 0.28887 0.36831 0.9388 0.0
H4007 H 0.2896 0.35632 0.91056 0.0
H4008 H 0.29711 0.31167 0.92432 0.0
H4009 H 0.29651 0.32368 0.95268 0.0
H4010 H 0.31611 0.31969 0.90321 0.0
H4011 H 0.26198 0.31402 0.90535 0.0
H4012 H 0.23762 0.3225 0.91127 0.0
H4013 H 0.24639 0.35717 0.87949 0.0
H4014 H 0.27093 0.34908 0.87354 0.0
H4015 H 0.29729 0.28181 0.81497 0.0
H4016 H 0.29777 0.28615 0.8446 0.0
H4017 H 0.30602 0.33842 0.84659 0.0
H4018 H 0.30532 0.33414 0.81726 0.0
H4019 H 0.27733 0.32158 0.85986 0.0
H4020 H 0.33914 0.33301 0.87975 0.0
H4021 H 0.36324 0.32281 0.87836 0.0
H4022 H 0.33687 0.27311 0.8683 0.0
H4023 H 0.31267 0.28308 0.86964 0.0
C4024 C 0.29042 0.35583 0.93583 0.0
C4025 C 0.29258 0.34695 0.94806 0.0
C4026 C 0.29083 0.34897 0.91963 0.0
C4027 C 0.29322 0.33297 0.9152 0.0
C4028 C 0.29525 0.32402 0.92737 0.0
C4029 C 0.29493 0.33092 0.94361 0.0
C4030 C 0.29434 0.32595 0.89796 0.0
C4031 C 0.30747 0.31991 0.89379 0.0
C4032 C 0.2831 0.32607 0.88554 0.0
C4033 C 0.26836 0.33102 0.88909 0.0
C4034 C 0.25878 0.32355 0.89971 0.0
C4035 C 0.24493 0.32827 0.90306 0.0
C4036 C 0.24048 0.34039 0.89579 0.0
C4037 C 0.24986 0.34779 0.88512 0.0
C4038 C 0.26373 0.34313 0.88174 0.0
C4039 C 0.29974 0.29421 0.82183 0.0
C4040 C 0.30139 0.30766 0.81387 0.0
C4041 C 0.30003 0.2967 0.83875 0.0
C4042 C 0.30205 0.31265 0.84786 0.0
C4043 C 0.30456 0.32604 0.83987 0.0
C4044 C 0.30414 0.32357 0.8231 0.0
C4045 C 0.29919 0.31561 0.8652 0.0
C4046 C 0.28578 0.32112 0.86937 0.0
C4047 C 0.30996 0.31468 0.87763 0.0
C4048 C 0.32418 0.30877 0.8744 0.0
C4049 C 0.33853 0.31992 0.87693 0.0
C4050 C 0.35219 0.31419 0.87632 0.0
C4051 C 0.35159 0.29732 0.87325 0.0
C4052 C 0.33732 0.28617 0.87062 0.0
C4053 C 0.32364 0.29185 0.87117 0.0
H4054 H 0.36217 0.29289 0.87285 0.0
H4055 H 0.22975 0.34403 0.89839 0.0
H4056 H 0.95235 0.04603 0.36536 0.0
H4057 H 0.96465 0.04284 0.39074 0.0
H4058 H 0.00606 0.07632 0.38322 0.0
H4059 H 0.99389 0.07936 0.35757 0.0
H4060 H 0.01457 0.05224 0.39562 0.0
H4061 H 0.97962 0.08677 0.41192 0.0
H4062 H 0.95449 0.09479 0.413 0.0
H4063 H 0.93543 0.0518 0.432 0.0
H4064 H 0.9604 0.04342 0.43084 0.0
H4065 H 0.04954 0.05586 0.47636 0.0
H4066 H 0.03974 0.05975 0.45001 0.0
H4067 H 0.99337 0.03889 0.45991 0.0
H4068 H 1.00313 0.03671 0.48666 0.0
H4069 H 0.98824 0.05863 0.44581 0.0
H4070 H 0.02057 0.02061 0.42269 0.0
H4071 H 0.04466 0.01092 0.41859 0.0
H4072 H 0.06805 0.05897 0.41281 0.0
H4073 H 0.04381 0.0687 0.41593 0.0
C4074 C 0.96412 0.05271 0.36889 0.0
C4075 C 0.97189 0.06303 0.35892 0.0
C4076 C 0.9712 0.05098 0.38374 0.0
C4077 C 0.98646 0.05944 0.38949 0.0
C4078 C 0.99433 0.06958 0.37948 0.0
C4079 C 0.9872 0.07144 0.36466 0.0
C4080 C 0.99408 0.05767 0.40572 0.0
C4081 C 0.00877 0.05378 0.40659 0.0
C4082 C 0.98683 0.05935 0.42039 0.0
C4083 C 0.97184 0.06439 0.42115 0.0
C4084 C 0.97004 0.07897 0.41623 0.0
C4085 C 0.95583 0.08359 0.41687 0.0
C4086 C 0.94336 0.07379 0.42252 0.0
C4087 C 0.94509 0.05937 0.4276 0.0
C4088 C 0.95927 0.05469 0.42697 0.0
C4089 C 0.03729 0.05178 0.47276 0.0
C4090 C 0.02726 0.04558 0.48379 0.0
C4091 C 0.03153 0.05391 0.45737 0.0
C4092 C 0.01549 0.04946 0.45205 0.0
C4093 C 0.00568 0.04279 0.46309 0.0
C4094 C 0.01136 0.04125 0.47857 0.0
C4095 C 0.0086 0.05239 0.43578 0.0
C4096 C 0.99405 0.05676 0.4349 0.0
C4097 C 0.01589 0.05096 0.42106 0.0
C4098 C 0.03052 0.04541 0.41981 0.0
C4099 C 0.0309 0.02911 0.42067 0.0
C4100 C 0.04456 0.0236 0.41846 0.0
C4101 C 0.05798 0.03438 0.4158 0.0
C4102 C 0.05769 0.05065 0.41499 0.0
C4103 C 0.04396 0.05612 0.41679 0.0
H4104 H 0.06856 0.03009 0.4142 0.0
H4105 H 0.93237 0.07739 0.42301 0.0
H4106 H 0.31313 0.7239 0.60645 0.0
H4107 H 0.30965 0.73957 0.63256 0.0
H4108 H 0.26041 0.72062 0.62451 0.0
H4109 H 0.26374 0.70534 0.5981 0.0
H4110 H 0.26759 0.75285 0.64026 0.0
H4111 H 0.2809 0.70172 0.64508 0.0
H4112 H 0.29643 0.68062 0.64084 0.0
H4113 H 0.33599 0.71523 0.66632 0.0
H4114 H 0.32075 0.73662 0.67049 0.0
H4115 H 0.2753 0.75069 0.73278 0.0
H4116 H 0.27184 0.73814 0.70436 0.0
H4117 H 0.28799 0.78562 0.69173 0.0
H4118 H 0.29103 0.7984 0.72021 0.0
H4119 H 0.29518 0.73799 0.68604 0.0
H4120 H 0.27234 0.78448 0.65331 0.0
H4121 H 0.25484 0.80361 0.65796 0.0
H4122 H 0.23032 0.77461 0.68939 0.0
H4123 H 0.24752 0.7552 0.68475 0.0
C4124 C 0.30153 0.72335 0.61007 0.0
C4125 C 0.28872 0.7132 0.60035 0.0
C4126 C 0.29957 0.73225 0.625 0.0
C4127 C 0.2848 0.73103 0.6305 0.0
C4128 C 0.2719 0.72166 0.62047 0.0
C4129 C 0.27385 0.71278 0.60551 0.0
C4130 C 0.283 0.73822 0.64729 0.0
C4131 C 0.27363 0.74967 0.6503 0.0
C4132 C 0.29055 0.73367 0.66034 0.0
C4133 C 0.29972 0.72081 0.65796 0.0
C4134 C 0.29294 0.70486 0.64967 0.0
C4135 C 0.30169 0.69285 0.64729 0.0
C4136 C 0.3172 0.69659 0.65327 0.0
C4137 C 0.32398 0.71236 0.66167 0.0
C4138 C 0.31529 0.72443 0.66405 0.0
C4139 C 0.27787 0.75854 0.72398 0.0
C4140 C 0.28384 0.7755 0.72876 0.0
C4141 C 0.2759 0.75133 0.70774 0.0
C4142 C 0.27977 0.76094 0.69598 0.0
C4143 C 0.28487 0.778 0.70063 0.0
C4144 C 0.28677 0.78525 0.71691 0.0
C4145 C 0.27997 0.75287 0.6791 0.0
C4146 C 0.2891 0.74123 0.67605 0.0
C4147 C 0.2719 0.75698 0.66612 0.0
C4148 C 0.26134 0.76848 0.66879 0.0
C4149 C 0.26318 0.78215 0.66116 0.0
C4150 C 0.25331 0.79305 0.6638 0.0
C4151 C 0.24151 0.79036 0.67401 0.0
C4152 C 0.2395 0.77672 0.68154 0.0
C4153 C 0.24933 0.76579 0.67893 0.0
H4154 H 0.23389 0.79882 0.67605 0.0
H4155 H 0.32395 0.68728 0.65142 0.0
H4156 H 0.66753 0.03908 0.84408 0.0
H4157 H 0.65195 0.04178 0.86708 0.0
H4158 H 0.61103 0.01617 0.83625 0.0
H4159 H 0.62632 0.01407 0.81317 0.0
H4160 H 0.60669 0.04372 0.85387 0.0
H4161 H 0.62868 0.9982 0.86362 0.0
H4162 H 0.64984 0.98439 0.8685 0.0
H4163 H 0.66687 0.02062 0.91105 0.0
H4164 H 0.64593 0.03478 0.90629 0.0
H4165 H 0.55095 0.026 0.90718 0.0
H4166 H 0.56982 0.02332 0.88742 0.0
H4167 H 0.60664 0.04926 0.92354 0.0
H4168 H 0.58774 0.05184 0.94347 0.0
H4169 H 0.61494 0.02404 0.90489 0.0
H4170 H 0.5932 0.0691 0.89621 0.0
H4171 H 0.57236 0.08354 0.89198 0.0
H4172 H 0.55562 0.04939 0.84798 0.0
H4173 H 0.57623 0.0346 0.85207 0.0
C4174 C 0.65521 0.03404 0.84221 0.0
C4175 C 0.64817 0.02636 0.82677 0.0
C4176 C 0.64636 0.03544 0.8554 0.0
C4177 C 0.63035 0.02908 0.85339 0.0
C4178 C 0.62337 0.02114 0.83807 0.0
C4179 C 0.63217 0.0198 0.8249 0.0
C4180 C 0.62061 0.03141 0.86694 0.0
C4181 C 0.60839 0.03924 0.86495 0.0
C4182 C 0.62325 0.02618 0.88166 0.0
C4183 C 0.63585 0.01767 0.88448 0.0
C4184 C 0.63702 1.00331 0.87393 0.0
C4185 C 0.64896 0.9954 0.87669 0.0
C4186 C 0.65973 1.00165 0.89004 0.0
C4187 C 0.65855 0.01581 0.90069 0.0
C4188 C 0.64665 0.02378 0.89797 0.0
C4189 C 0.56306 0.0312 0.91089 0.0
C4190 C 0.56786 0.03936 0.92677 0.0
C4191 C 0.57383 0.02963 0.89962 0.0
C4192 C 0.58958 0.03641 0.90394 0.0
C4193 C 0.59451 0.04404 0.91995 0.0
C4194 C 0.58372 0.0455 0.93129 0.0
C4195 C 0.60076 0.03587 0.89155 0.0
C4196 C 0.6133 0.02855 0.89382 0.0
C4197 C 0.59853 0.0417 0.87711 0.0
C4198 C 0.5862 0.05067 0.87451 0.0
C4199 C 0.58502 0.06461 0.88568 0.0
C4200 C 0.57325 0.07286 0.88331 0.0
C4201 C 0.56265 0.06736 0.86974 0.0
C4202 C 0.56383 0.05363 0.85849 0.0
C4203 C 0.57557 0.04531 0.86082 0.0
H4204 H 0.55355 0.07377 0.86792 0.0
H4205 H 0.66896 0.9955 0.89216 0.0
H4206 H 0.27074 0.3466 0.1074 0.0
H4207 H 0.2703 0.33775 0.13343 0.0
H4208 H 0.3172 0.36487 0.14641 0.0
H4209 H 0.31769 0.374 0.12054 0.0
H4210 H 0.31318 0.33493 0.15463 0.0
H4211 H 0.28721 0.37957 0.16196 0.0
H4212 H 0.26787 0.39516 0.15567 0.0
H4213 H 0.23133 0.35501 0.16113 0.0
H4214 H 0.25046 0.33908 0.16722 0.0
H4215 H 0.31473 0.33095 0.23779 0.0
H4216 H 0.31512 0.34201 0.21289 0.0
H4217 H 0.26864 0.31426 0.19823 0.0
H4218 H 0.26808 0.3034 0.22323 0.0
H4219 H 0.27284 0.3451 0.19127 0.0
H4220 H 0.29885 0.30032 0.18361 0.0
H4221 H 0.31821 0.2854 0.19146 0.0
H4222 H 0.35469 0.32613 0.18728 0.0
H4223 H 0.33551 0.34142 0.17968 0.0
C4224 C 0.28094 0.35083 0.11582 0.0
C4225 C 0.29424 0.36108 0.11177 0.0
C4226 C 0.28068 0.3457 0.13072 0.0
C4227 C 0.29368 0.35074 0.142 0.0
C4228 C 0.30704 0.36076 0.13793 0.0
C4229 C 0.3073 0.36593 0.12305 0.0
C4230 C 0.29331 0.34565 0.15805 0.0
C4231 C 0.30446 0.33735 0.1627 0.0
C4232 C 0.28181 0.34851 0.16855 0.0
C4233 C 0.27027 0.35806 0.16487 0.0
C4234 C 0.27505 0.37401 0.16168 0.0
C4235 C 0.26412 0.38292 0.15817 0.0
C4236 C 0.24838 0.37607 0.15795 0.0
C4237 C 0.24353 0.3603 0.16127 0.0
C4238 C 0.25441 0.35132 0.16476 0.0
C4239 C 0.30453 0.32734 0.22936 0.0
C4240 C 0.29142 0.31617 0.23244 0.0
C4241 C 0.3048 0.3336 0.21507 0.0
C4242 C 0.29198 0.32879 0.20356 0.0
C4243 C 0.27868 0.31811 0.20689 0.0
C4244 C 0.27843 0.31182 0.22114 0.0
C4245 C 0.29262 0.33434 0.18776 0.0
C4246 C 0.28154 0.3427 0.18317 0.0
C4247 C 0.30417 0.33152 0.17732 0.0
C4248 C 0.31574 0.32207 0.1812 0.0
C4249 C 0.311 0.30612 0.18441 0.0
C4250 C 0.32194 0.2976 0.18884 0.0
C4251 C 0.33767 0.30483 0.18991 0.0
C4252 C 0.3425 0.32055 0.18646 0.0
C4253 C 0.3316 0.32915 0.18208 0.0
H4254 H 0.34613 0.29824 0.19339 0.0
H4255 H 0.23993 0.38299 0.15525 0.0
H4256 H 0.25222 0.99957 0.03424 0.0
H4257 H 0.2323 0.01538 0.03945 0.0
H4258 H 0.19695 0.97113 0.02466 0.0
H4259 H 0.21697 0.95531 0.01902 0.0
H4260 H 0.18798 0.9974 0.01598 0.0
H4261 H 0.20902 0.98394 0.06359 0.0
H4262 H 0.22965 0.98206 0.08328 0.0
H4263 H 0.24409 0.03461 0.09384 0.0
H4264 H 0.2237 0.03679 0.07398 0.0
H4265 H 0.13015 0.02395 0.06257 0.0
H4266 H 0.15028 0.00894 0.05538 0.0
H4267 H 0.18306 0.05467 0.05739 0.0
H4268 H 0.16274 0.06979 0.06358 0.0
H4269 H 0.19282 0.02742 0.07247 0.0
H4270 H 0.17029 0.03978 0.02406 0.0
H4271 H 0.14851 0.04019 0.00509 0.0
H4272 H 0.13553 0.98757 0.99672 0.0
H4273 H 0.15698 0.98686 0.01605 0.0
C4274 C 0.24018 0.99333 0.03174 0.0
C4275 C 0.23603 0.97627 0.02638 0.0
C4276 C 0.22884 1.00232 0.03478 0.0
C4277 C 0.21319 0.99434 0.03283 0.0
C4278 C 0.20899 0.97748 0.02632 0.0
C4279 C 0.22038 0.96848 0.02309 0.0
C4280 C 0.20143 1.00334 0.03892 0.0
C4281 C 0.18895 1.00382 0.02836 0.0
C4282 C 0.20275 0.01176 0.05509 0.0
C4283 C 0.21493 0.01052 0.06718 0.0
C4284 C 0.21667 0.99509 0.07002 0.0
C4285 C 0.22831 0.99397 0.08122 0.0
C4286 C 0.23819 0.00821 0.08978 0.0
C4287 C 0.23643 0.02359 0.08718 0.0
C4288 C 0.22483 0.02478 0.07596 0.0
C4289 C 0.14164 0.03082 0.06149 0.0
C4290 C 0.14476 0.04803 0.06326 0.0
C4291 C 0.15312 0.02224 0.0575 0.0
C4292 C 0.168 0.03075 0.05563 0.0
C4293 C 0.17155 0.04796 0.05873 0.0
C4294 C 0.15997 0.05656 0.06238 0.0
C4295 C 0.17956 0.02163 0.04948 0.0
C4296 C 0.19193 0.02104 0.06008 0.0
C4297 C 0.17797 0.0129 0.03344 0.0
C4298 C 0.16511 0.01329 0.02172 0.0
C4299 C 0.16267 0.0283 0.01837 0.0
C4300 C 0.15039 0.02859 0.00752 0.0
C4301 C 0.14059 0.01392 0.99977 0.0
C4302 C 0.14311 0.99893 1.00277 0.0
C4303 C 0.15531 0.99858 0.01371 0.0
H4304 H 0.13107 0.01418 0.99143 0.0
H4305 H 0.2472 0.00731 0.09845 0.0
H4306 H 0.70745 0.64183 0.98296 0.0
H4307 H 0.68067 0.62707 0.98324 0.0
H4308 H 0.69297 0.6111 0.02688 0.0
H4309 H 0.71977 0.62568 0.02659 0.0
H4310 H 0.67354 0.58623 0.0053 0.0
H4311 H 0.67621 0.6427 0.02924 0.0
H4312 H 0.68197 0.67259 0.03015 0.0
H4313 H 0.65026 0.66604 0.9884 0.0
H4314 H 0.64448 0.63606 0.98711 0.0
H4315 H 0.59379 0.58757 0.03629 0.0
H4316 H 0.62005 0.60132 0.03276 0.0
H4317 H 0.6182 0.56936 0.98688 0.0
H4318 H 0.59169 0.55577 0.99008 0.0
H4319 H 0.63233 0.61794 0.00909 0.0
H4320 H 0.65496 0.56015 0.985 0.0
H4321 H 0.64954 0.53064 0.9862 0.0
H4322 H 0.63088 0.54052 0.03183 0.0
H4323 H 0.63643 0.57009 0.03103 0.0
C4324 C 0.70449 0.635 0.9925 0.0
C4325 C 0.71572 0.63499 0.00481 0.0
C4326 C 0.68917 0.62665 0.9927 0.0
C4327 C 0.6848 0.61808 0.00515 0.0
C4328 C 0.69608 0.61764 0.01717 0.0
C4329 C 0.71136 0.62608 0.01705 0.0
C4330 C 0.66839 0.61008 0.00604 0.0
C4331 C 0.66452 0.59314 0.00601 0.0
C4332 C 0.65663 0.61912 0.00718 0.0
C4333 C 0.66005 0.63713 0.00797 0.0
C4334 C 0.67057 0.64762 0.02017 0.0
C4335 C 0.67382 0.66458 0.02077 0.0
C4336 C 0.66652 0.67121 0.00931 0.0
C4337 C 0.65593 0.66088 0.99725 0.0
C4338 C 0.65266 0.64391 0.99659 0.0
C4339 C 0.59888 0.58348 0.02538 0.0
C4340 C 0.5907 0.57028 0.01362 0.0
C4341 C 0.61391 0.59141 0.02338 0.0
C4342 C 0.62114 0.58625 0.00966 0.0
C4343 C 0.6129 0.57339 0.99767 0.0
C4344 C 0.59777 0.56557 0.99957 0.0
C4345 C 0.63746 0.59408 0.00818 0.0
C4346 C 0.64132 0.61099 0.00814 0.0
C4347 C 0.64922 0.58505 0.00717 0.0
C4348 C 0.64597 0.56731 0.00786 0.0
C4349 C 0.64976 0.55602 0.99532 0.0
C4350 C 0.64668 0.53929 0.99593 0.0
C4351 C 0.63989 0.53371 0.00909 0.0
C4352 C 0.63614 0.54485 0.02165 0.0
C4353 C 0.63923 0.5616 0.0211 0.0
H4354 H 0.63749 0.52075 0.00953 0.0
H4355 H 0.66905 0.68434 0.0098 0.0
H4356 H 0.72066 0.44182 0.29383 0.0
H4357 H 0.73333 0.41911 0.29447 0.0
H4358 H 0.72227 0.40294 0.24342 0.0
H4359 H 0.70868 0.42512 0.24279 0.0
H4360 H 0.72063 0.37645 0.25387 0.0
H4361 H 0.76164 0.42423 0.26505 0.0
H4362 H 0.77595 0.4516 0.279 0.0
H4363 H 0.77809 0.43381 0.32344 0.0
H4364 H 0.76363 0.40638 0.3098 0.0
H4365 H 0.77545 0.32173 0.24912 0.0
H4366 H 0.76336 0.34507 0.24625 0.0
H4367 H 0.76227 0.35645 0.29767 0.0
H4368 H 0.77373 0.33305 0.30045 0.0
H4369 H 0.77093 0.38533 0.2857 0.0
H4370 H 0.72978 0.33748 0.27403 0.0
H4371 H 0.71607 0.31005 0.25968 0.0
H4372 H 0.71518 0.32806 0.21528 0.0
H4373 H 0.7291 0.35557 0.22934 0.0
C4374 C 0.72062 0.43351 0.28261 0.0
C4375 C 0.71329 0.43603 0.26822 0.0
C4376 C 0.7283 0.42035 0.28297 0.0
C4377 C 0.72944 0.40894 0.26894 0.0
C4378 C 0.72197 0.41125 0.25459 0.0
C4379 C 0.71417 0.42436 0.25423 0.0
C4380 C 0.73817 0.39478 0.26924 0.0
C4381 C 0.73175 0.37866 0.26067 0.0
C4382 C 0.75275 0.39685 0.27819 0.0
C4383 C 0.76142 0.41331 0.28644 0.0
C4384 C 0.76508 0.42619 0.27782 0.0
C4385 C 0.77322 0.44171 0.28567 0.0
C4386 C 0.77789 0.44446 0.3021 0.0
C4387 C 0.77445 0.43168 0.31072 0.0
C4388 C 0.76628 0.41614 0.30294 0.0
C4389 C 0.77287 0.32933 0.25984 0.0
C4390 C 0.77595 0.32538 0.2751 0.0
C4391 C 0.76575 0.34275 0.2582 0.0
C4392 C 0.76161 0.35293 0.27173 0.0
C4393 C 0.76517 0.34917 0.28691 0.0
C4394 C 0.77186 0.33563 0.2885 0.0
C4395 C 0.75337 0.36716 0.27037 0.0
C4396 C 0.75986 0.38323 0.2788 0.0
C4397 C 0.73896 0.36507 0.26121 0.0
C4398 C 0.73065 0.34855 0.2527 0.0
C4399 C 0.7268 0.33556 0.26118 0.0
C4400 C 0.71896 0.32 0.25311 0.0
C4401 C 0.7148 0.3173 0.23657 0.0
C4402 C 0.71844 0.33017 0.22808 0.0
C4403 C 0.7263 0.34575 0.2361 0.0
H4404 H 0.70871 0.30525 0.23035 0.0
H4405 H 0.7842 0.45648 0.30815 0.0
H4406 H 0.87767 0.49089 0.51578 0.0
H4407 H 0.90498 0.50222 0.5142 0.0
H4408 H 0.91487 0.49706 0.56324 0.0
H4409 H 0.88741 0.48645 0.56522 0.0
H4410 H 0.93368 0.52391 0.55652 0.0
H4411 H 0.91688 0.46675 0.53256 0.0
H4412 H 0.90049 0.44299 0.51422 0.0
H4413 H 0.91536 0.46414 0.47343 0.0
H4414 H 0.93167 0.48817 0.49156 0.0
H4415 H 0.00777 0.49495 0.5311 0.0
H4416 H 0.97975 0.48911 0.53296 0.0
H4417 H 0.97918 0.53923 0.5296 0.0
H4418 H 0.00701 0.54523 0.52874 0.0
H4419 H 0.95574 0.4902 0.51355 0.0
H4420 H 0.95321 0.55233 0.55247 0.0
H4421 H 0.97037 0.57455 0.57196 0.0
H4422 H 0.99527 0.54006 0.58589 0.0
H4423 H 0.97817 0.51763 0.5666 0.0
C4424 C 0.88554 0.49267 0.52643 0.0
C4425 C 0.88038 0.48753 0.54057 0.0
C4426 C 0.90118 0.49902 0.52544 0.0
C4427 C 0.91195 0.5001 0.53847 0.0
C4428 C 0.90673 0.49618 0.553 0.0
C4429 C 0.89107 0.48997 0.55405 0.0
C4430 C 0.92868 0.50364 0.53645 0.0
C4431 C 0.9385 0.51661 0.54709 0.0
C4432 C 0.93499 0.49386 0.52435 0.0
C4433 C 0.92535 0.47933 0.51342 0.0
C4434 C 0.91657 0.46639 0.51968 0.0
C4435 C 0.9073 0.45287 0.50933 0.0
C4436 C 0.90685 0.45208 0.49267 0.0
C4437 C 0.9157 0.46478 0.48634 0.0
C4438 C 0.92496 0.47835 0.49664 0.0
C4439 C 1.00157 0.50464 0.53066 0.0
C4440 C 0.00947 0.5204 0.52927 0.0
C4441 C 0.98563 0.5013 0.53166 0.0
C4442 C 0.97743 0.51377 0.5315 0.0
C4443 C 0.9853 0.52947 0.52992 0.0
C4444 C 1.00123 0.53283 0.52914 0.0
C4445 C 0.96072 0.51051 0.53356 0.0
C4446 C 0.9509 0.49759 0.52292 0.0
C4447 C 0.95449 0.52005 0.54593 0.0
C4448 C 0.96446 0.53333 0.55802 0.0
C4449 C 0.96227 0.54948 0.55978 0.0
C4450 C 0.97201 0.56211 0.57076 0.0
C4451 C 0.98392 0.55872 0.58013 0.0
C4452 C 0.98607 0.54268 0.5786 0.0
C4453 C 0.97636 0.53 0.56764 0.0
H4454 H 0.99146 0.56852 0.58859 0.0
H4455 H 0.89967 0.4416 0.48467 0.0
H4456 H 0.34068 0.09222 0.29823 0.0
H4457 H 0.32636 0.11259 0.29246 0.0
H4458 H 0.36865 0.14966 0.29989 0.0
H4459 H 0.38311 0.12932 0.3054 0.0
H4460 H 0.34025 0.16103 0.30915 0.0
H4461 H 0.36152 0.13031 0.26491 0.0
H4462 H 0.3655 0.10444 0.24912 0.0
H4463 H 0.31651 0.08742 0.23813 0.0
H4464 H 0.31224 0.11309 0.25416 0.0
H4465 H 0.3244 0.21431 0.25786 0.0
H4466 H 0.33637 0.19613 0.27144 0.0
H4467 H 0.29777 0.15591 0.25291 0.0
H4468 H 0.28599 0.174 0.239 0.0
H4469 H 0.32333 0.14586 0.25071 0.0
H4470 H 0.30171 0.17748 0.29258 0.0
H4471 H 0.29709 0.20232 0.30978 0.0
H4472 H 0.34528 0.21716 0.32611 0.0
H4473 H 0.35023 0.19253 0.30885 0.0
C4474 C 0.34686 0.10481 0.29905 0.0
C4475 C 0.36302 0.10914 0.30189 0.0
C4476 C 0.33866 0.11643 0.29588 0.0
C4477 C 0.34654 0.13248 0.29553 0.0
C4478 C 0.36242 0.13729 0.30014 0.0
C4479 C 0.37065 0.12566 0.30327 0.0
C4480 C 0.33888 0.14316 0.28749 0.0
C4481 C 0.33661 0.15787 0.29637 0.0
C4482 C 0.33397 0.13874 0.27088 0.0
C4483 C 0.33656 0.12353 0.26086 0.0
C4484 C 0.3516 0.121 0.25922 0.0
C4485 C 0.35391 0.10638 0.25023 0.0
C4486 C 0.34126 0.09427 0.24266 0.0
C4487 C 0.32629 0.0968 0.24402 0.0
C4488 C 0.32392 0.11138 0.25306 0.0
C4489 C 0.31861 0.20153 0.25657 0.0
C4490 C 0.30432 0.19547 0.24743 0.0
C4491 C 0.32534 0.19122 0.26445 0.0
C4492 C 0.31776 0.17478 0.26352 0.0
C4493 C 0.30376 0.16859 0.25387 0.0
C4494 C 0.2971 0.17886 0.24584 0.0
C4495 C 0.32455 0.16393 0.27232 0.0
C4496 C 0.32678 0.14912 0.26353 0.0
C4497 C 0.3293 0.16827 0.28904 0.0
C4498 C 0.32637 0.18323 0.29926 0.0
C4499 C 0.31135 0.18612 0.29971 0.0
C4500 C 0.30867 0.20014 0.30951 0.0
C4501 C 0.3209 0.21133 0.31898 0.0
C4502 C 0.33582 0.2085 0.31874 0.0
C4503 C 0.33857 0.1945 0.30895 0.0
H4504 H 0.31883 0.2222 0.32651 0.0
H4505 H 0.34307 0.08296 0.23571 0.0
H4506 H 0.36752 0.14892 0.53648 0.0
H4507 H 0.3883 0.13442 0.53844 0.0
H4508 H 0.38313 0.11824 0.48689 0.0
H4509 H 0.36165 0.13194 0.48492 0.0
H4510 H 0.38684 0.09394 0.50021 0.0
H4511 H 0.41415 0.14929 0.50659 0.0
H4512 H 0.42081 0.179 0.51749 0.0
H4513 H 0.4315 0.16947 0.56452 0.0
H4514 H 0.42469 0.13967 0.55395 0.0
H4515 H 0.45737 0.06485 0.50377 0.0
H4516 H 0.43968 0.0823 0.49777 0.0
H4517 H 0.43183 0.0924 0.54805 0.0
H4518 H 0.44929 0.07487 0.55402 0.0
H4519 H 0.43645 0.12069 0.53253 0.0
H4520 H 0.40636 0.06463 0.52504 0.0
H4521 H 0.40056 0.03521 0.51286 0.0
H4522 H 0.39648 0.04715 0.46574 0.0
H4523 H 0.40249 0.07668 0.47765 0.0
C4524 C 0.37064 0.14215 0.52554 0.0
C4525 C 0.3628 0.14164 0.51053 0.0
C4526 C 0.38274 0.13404 0.52666 0.0
C4527 C 0.38754 0.12543 0.51279 0.0
C4528 C 0.37975 0.12486 0.49778 0.0
C4529 C 0.36753 0.13286 0.49666 0.0
C4530 C 0.40035 0.11664 0.51408 0.0
C4531 C 0.39778 0.09993 0.50703 0.0
C4532 C 0.41467 0.12431 0.52305 0.0
C4533 C 0.41878 0.14223 0.52949 0.0
C4534 C 0.4178 0.15352 0.51928 0.0
C4535 C 0.42163 0.17038 0.5254 0.0
C4536 C 0.42654 0.17612 0.54169 0.0
C4537 C 0.42768 0.165 0.5519 0.0
C4538 C 0.42385 0.14812 0.54585 0.0
C4539 C 0.452 0.07098 0.51353 0.0
C4540 C 0.45462 0.06848 0.52934 0.0
C4541 C 0.44187 0.08087 0.5101 0.0
C4542 C 0.43439 0.08858 0.52247 0.0
C4543 C 0.43749 0.08658 0.53834 0.0
C4544 C 0.44738 0.07651 0.54172 0.0
C4545 C 0.42275 0.09808 0.51891 0.0
C4546 C 0.42555 0.11487 0.52555 0.0
C4547 C 0.40877 0.09058 0.50936 0.0
C4548 C 0.40505 0.07285 0.50222 0.0
C4549 C 0.40436 0.06098 0.51207 0.0
C4550 C 0.40101 0.04429 0.50522 0.0
C4551 C 0.3982 0.03931 0.48853 0.0
C4552 C 0.39869 0.05102 0.47866 0.0
C4553 C 0.40206 0.06773 0.48546 0.0
H4554 H 0.3956 0.02639 0.48324 0.0
H4555 H 0.4295 0.18918 0.54641 0.0
H4556 H 0.69794 0.61382 0.28478 0.0
H4557 H 0.71037 0.64248 0.28528 0.0
H4558 H 0.74983 0.62739 0.26505 0.0
H4559 H 0.73764 0.59866 0.26493 0.0
H4560 H 0.7599 0.65417 0.28744 0.0
H4561 H 0.72148 0.64061 0.24251 0.0
H4562 H 0.69529 0.6306 0.22867 0.0
H4563 H 0.67922 0.66801 0.25988 0.0
H4564 H 0.70527 0.67811 0.27405 0.0
H4565 H 0.79496 0.73036 0.26613 0.0
H4566 H 0.7826 0.70195 0.26644 0.0
H4567 H 0.7418 0.71741 0.28267 0.0
H4568 H 0.75423 0.74601 0.28197 0.0
H4569 H 0.73233 0.69045 0.26291 0.0
H4570 H 0.77055 0.7044 0.3078 0.0
H4571 H 0.79679 0.71504 0.32136 0.0
H4572 H 0.81314 0.67733 0.2909 0.0
H4573 H 0.78705 0.66662 0.27695 0.0
C4574 C 0.70934 0.61647 0.28056 0.0
C4575 C 0.71661 0.60352 0.27479 0.0
C4576 C 0.71644 0.63305 0.28068 0.0
C4577 C 0.73112 0.63747 0.27499 0.0
C4578 C 0.73853 0.62461 0.26947 0.0
C4579 C 0.7314 0.608 0.26928 0.0
C4580 C 0.73868 0.65534 0.27478 0.0
C4581 C 0.75387 0.66198 0.28188 0.0
C4582 C 0.73094 0.66603 0.26795 0.0
C4583 C 0.71528 0.66 0.25944 0.0
C4584 C 0.71233 0.64662 0.2465 0.0
C4585 C 0.69752 0.64094 0.23858 0.0
C4586 C 0.68559 0.64863 0.24342 0.0
C4587 C 0.68846 0.66205 0.25616 0.0
C4588 C 0.70325 0.66776 0.26413 0.0
C4589 C 0.78356 0.72787 0.27021 0.0
C4590 C 0.77594 0.74079 0.27457 0.0
C4591 C 0.77633 0.7114 0.2703 0.0
C4592 C 0.76123 0.70713 0.27505 0.0
C4593 C 0.75345 0.72003 0.27906 0.0
C4594 C 0.76063 0.73653 0.27873 0.0
C4595 C 0.75357 0.68934 0.27558 0.0
C4596 C 0.73836 0.68269 0.26854 0.0
C4597 C 0.76127 0.67868 0.28256 0.0
C4598 C 0.77686 0.68479 0.29124 0.0
C4599 C 0.77975 0.69841 0.30395 0.0
C4600 C 0.7946 0.70446 0.3117 0.0
C4601 C 0.80663 0.69688 0.30698 0.0
C4602 C 0.80381 0.68319 0.29453 0.0
C4603 C 0.78899 0.67712 0.28671 0.0
H4604 H 0.81811 0.70159 0.31298 0.0
H4605 H 0.67413 0.64422 0.23728 0.0
H4606 H 0.83683 0.46812 0.76096 0.0
H4607 H 0.82678 0.43845 0.75256 0.0
H4608 H 0.86535 0.42934 0.77982 0.0
H4609 H 0.87546 0.45889 0.78818 0.0
H4610 H 0.85967 0.4109 0.74835 0.0
H4611 H 0.83191 0.42456 0.79469 0.0
H4612 H 0.81482 0.43893 0.81096 0.0
H4613 H 0.77811 0.42097 0.77319 0.0
H4614 H 0.79508 0.40669 0.75659 0.0
H4615 H 0.84004 0.3298 0.76077 0.0
H4616 H 0.84799 0.35906 0.7602 0.0
H4617 H 0.80179 0.35896 0.74155 0.0
H4618 H 0.79376 0.3299 0.74316 0.0
H4619 H 0.80932 0.38277 0.76349 0.0
H4620 H 0.83596 0.36472 0.71954 0.0
H4621 H 0.8531 0.35072 0.70305 0.0
H4622 H 0.89187 0.37529 0.73677 0.0
H4623 H 0.8751 0.38989 0.75328 0.0
C4624 C 0.84312 0.45976 0.76517 0.0
C4625 C 0.85687 0.46577 0.77529 0.0
C4626 C 0.83737 0.44286 0.7604 0.0
C4627 C 0.84536 0.43176 0.76557 0.0
C4628 C 0.85906 0.43774 0.77568 0.0
C4629 C 0.86472 0.4546 0.78058 0.0
C4630 C 0.83948 0.41387 0.76056 0.0
C4631 C 0.84876 0.40463 0.75182 0.0
C4632 C 0.82494 0.4059 0.76448 0.0
C4633 C 0.81485 0.41482 0.77428 0.0
C4634 C 0.82027 0.42387 0.78976 0.0
C4635 C 0.81058 0.43195 0.79907 0.0
C4636 C 0.79541 0.43093 0.79308 0.0
C4637 C 0.78988 0.4218 0.77779 0.0
C4638 C 0.79953 0.41373 0.76842 0.0
C4639 C 0.83162 0.3362 0.75677 0.0
C4640 C 0.81615 0.3281 0.75298 0.0
C4641 C 0.83622 0.35279 0.75602 0.0
C4642 C 0.82552 0.36132 0.75075 0.0
C4643 C 0.81023 0.35278 0.74588 0.0
C4644 C 0.8056 0.33625 0.74692 0.0
C4645 C 0.82988 0.37942 0.75205 0.0
C4646 C 0.82023 0.38884 0.75993 0.0
C4647 C 0.84412 0.38748 0.7474 0.0
C4648 C 0.85422 0.37842 0.73768 0.0
C4649 C 0.84811 0.36707 0.72354 0.0
C4650 C 0.85777 0.35903 0.71416 0.0
C4651 C 0.8735 0.36194 0.71895 0.0
C4652 C 0.87966 0.37304 0.73307 0.0
C4653 C 0.87011 0.38132 0.74237 0.0
H4654 H 0.88093 0.35565 0.71168 0.0
H4655 H 0.78792 0.43716 0.80032 0.0
H4656 H 0.06087 0.89995 0.10357 0.0
H4657 H 0.05772 0.92405 0.09281 0.0
H4658 H 0.07378 0.90439 0.04793 0.0
H4659 H 0.07784 0.8806 0.05893 0.0
H4660 H 0.08577 0.93576 0.05487 0.0
H4661 H 0.03386 0.90424 0.05396 0.0
H4662 H 0.01141 0.88945 0.06554 0.0
H4663 H 0.01027 0.93346 0.09883 0.0
H4664 H 0.03284 0.94846 0.08758 0.0
H4665 H 0.0616 0.98989 0.00861 0.0
H4666 H 0.06336 0.9651 0.01925 0.0
H4667 H 0.05043 0.98691 0.06504 0.0
H4668 H 0.04859 0.0117 0.05429 0.0
H4669 H 0.03654 0.9546 0.05768 0.0
H4670 H 0.08766 0.98628 0.05897 0.0
H4671 H 0.11004 1.00176 0.04795 0.0
H4672 H 0.11318 0.95822 0.01505 0.0
H4673 H 0.09048 0.94252 0.02557 0.0
C4674 C 0.06397 0.90073 0.09148 0.0
C4675 C 0.06965 0.88806 0.08223 0.0
C4676 C 0.06191 0.91455 0.0852 0.0
C4677 C 0.0652 0.91611 0.06935 0.0
C4678 C 0.07103 0.90359 0.06014 0.0
C4679 C 0.0732 0.88981 0.06645 0.0
C4680 C 0.06275 0.93079 0.06247 0.0
C4681 C 0.0749 0.93966 0.05528 0.0
C4682 C 0.04875 0.93641 0.06333 0.0
C4683 C 0.03513 0.92743 0.07003 0.0
C4684 C 0.02888 0.91073 0.06382 0.0
C4685 C 0.01613 0.90232 0.07032 0.0
C4686 C 0.00944 0.9105 0.08294 0.0
C4687 C 0.01547 0.92713 0.08907 0.0
C4688 C 0.02823 0.9356 0.08263 0.0
C4689 C 0.05888 0.98925 0.02086 0.0
C4690 C 0.05448 1.00253 0.03044 0.0
C4691 C 0.05999 0.97511 0.027 0.0
C4692 C 0.05715 0.97403 0.04306 0.0
C4693 C 0.05261 0.98728 0.05261 0.0
C4694 C 0.05147 1.00144 0.04644 0.0
C4695 C 0.05951 0.95941 0.05001 0.0
C4696 C 0.04738 0.95061 0.05722 0.0
C4697 C 0.07355 0.95391 0.04927 0.0
C4698 C 0.08727 0.96325 0.04296 0.0
C4699 C 0.09303 0.98002 0.0493 0.0
C4700 C 0.10579 0.98883 0.04315 0.0
C4701 C 0.11305 0.98098 0.03085 0.0
C4702 C 0.10754 0.96429 0.0246 0.0
C4703 C 0.09471 0.95542 0.03063 0.0
H4704 H 0.12297 0.98783 0.02619 0.0
H4705 H 0.99957 0.90396 0.08796 0.0
H4706 H 0.93528 0.24531 0.86434 0.0
H4707 H 0.91202 0.24831 0.84932 0.0
H4708 H 0.93136 0.29997 0.85312 0.0
H4709 H 0.9546 0.29706 0.86811 0.0
H4710 H 0.90033 0.29358 0.85977 0.0
H4711 H 0.93147 0.27472 0.81853 0.0
H4712 H 0.94653 0.25593 0.80477 0.0
H4713 H 0.90651 0.2163 0.79767 0.0
H4714 H 0.89126 0.23481 0.8116 0.0
H4715 H 0.84957 0.3126 0.80181 0.0
H4716 H 0.87197 0.30892 0.8176 0.0
H4717 H 0.85473 0.25645 0.80683 0.0
H4718 H 0.83241 0.26009 0.79089 0.0
H4719 H 0.88438 0.26262 0.80417 0.0
H4720 H 0.85288 0.28033 0.84457 0.0
H4721 H 0.83714 0.29813 0.8587 0.0
H4722 H 0.87661 0.33843 0.86827 0.0
H4723 H 0.89255 0.32093 0.85398 0.0
C4724 C 0.93456 0.25733 0.86204 0.0
C4725 C 0.9469 0.27091 0.86739 0.0
C4726 C 0.92127 0.25901 0.85337 0.0
C4727 C 0.91991 0.27436 0.84996 0.0
C4728 C 0.93209 0.28799 0.85554 0.0
C4729 C 0.94545 0.28627 0.86402 0.0
C4730 C 0.90589 0.27622 0.84048 0.0
C4731 C 0.89695 0.28696 0.84754 0.0
C4732 C 0.90113 0.26724 0.82468 0.0
C4733 C 0.91027 0.25611 0.81627 0.0
C4734 C 0.92591 0.26196 0.81416 0.0
C4735 C 0.93448 0.25137 0.80631 0.0
C4736 C 0.92749 0.23492 0.80039 0.0
C4737 C 0.91192 0.22904 0.80228 0.0
C4738 C 0.9033 0.23958 0.81015 0.0
C4739 C 0.8505 0.30028 0.80285 0.0
C4740 C 0.8392 0.28665 0.79494 0.0
C4741 C 0.86333 0.29817 0.81195 0.0
C4742 C 0.8651 0.28238 0.81363 0.0
C4743 C 0.85378 0.26876 0.80574 0.0
C4744 C 0.84099 0.27087 0.79657 0.0
C4745 C 0.87878 0.28007 0.82341 0.0
C4746 C 0.88769 0.26923 0.81641 0.0
C4747 C 0.88338 0.28881 0.83936 0.0
C4748 C 0.87387 0.29936 0.84806 0.0
C4749 C 0.85818 0.29302 0.84958 0.0
C4750 C 0.84923 0.30305 0.85763 0.0
C4751 C 0.85586 0.31941 0.86434 0.0
C4752 C 0.87148 0.32576 0.86305 0.0
C4753 C 0.88049 0.31579 0.85498 0.0
H4754 H 0.84891 0.32716 0.87057 0.0
H4755 H 0.93414 0.22674 0.79431 0.0
H4756 H 0.56879 0.22459 0.55401 0.0
H4757 H 0.56788 0.19535 0.54459 0.0
H4758 H 0.56129 0.18633 0.59268 0.0
H4759 H 0.56265 0.21544 0.60223 0.0
H4760 H 0.58211 0.17088 0.58022 0.0
H4761 H 0.5314 0.17573 0.56183 0.0
H4762 H 0.51259 0.18673 0.547 0.0
H4763 H 0.53101 0.17081 0.5025 0.0
H4764 H 0.55008 0.1599 0.51711 0.0
H4765 H 0.55504 0.08522 0.56892 0.0
H4766 H 0.56044 0.11507 0.57468 0.0
H4767 H 0.56139 0.11584 0.52387 0.0
H4768 H 0.55502 0.08568 0.51805 0.0
H4769 H 0.54551 0.13616 0.53551 0.0
H4770 H 0.59748 0.13376 0.55361 0.0
H4771 H 0.61771 0.12439 0.56828 0.0
H4772 H 0.59743 0.13614 0.61263 0.0
H4773 H 0.5773 0.14583 0.59823 0.0
C4774 C 0.56721 0.2164 0.56261 0.0
C4775 C 0.5657 0.2225 0.57891 0.0
C4776 C 0.56654 0.19961 0.55716 0.0
C4777 C 0.56435 0.18846 0.56785 0.0
C4778 C 0.56294 0.19456 0.58412 0.0
C4779 C 0.56357 0.21128 0.58955 0.0
C4780 C 0.5639 0.17055 0.56238 0.0
C4781 C 0.57399 0.16329 0.57052 0.0
C4782 C 0.55371 0.1606 0.54937 0.0
C4783 C 0.54229 0.16718 0.54059 0.0
C4784 C 0.53153 0.17471 0.54891 0.0
C4785 C 0.52081 0.1809 0.54053 0.0
C4786 C 0.52064 0.17952 0.52383 0.0
C4787 C 0.53118 0.1719 0.51545 0.0
C4788 C 0.54194 0.16571 0.52377 0.0
C4789 C 0.55673 0.09176 0.55897 0.0
C4790 C 0.55495 0.08303 0.54306 0.0
C4791 C 0.55998 0.10893 0.56229 0.0
C4792 C 0.56173 0.11802 0.5498 0.0
C4793 C 0.56025 0.10929 0.53381 0.0
C4794 C 0.55678 0.09199 0.53047 0.0
C4795 C 0.56365 0.13639 0.55348 0.0
C4796 C 0.55379 0.14376 0.54506 0.0
C4797 C 0.5741 0.14652 0.5662 0.0
C4798 C 0.58581 0.14024 0.57482 0.0
C4799 C 0.59729 0.13415 0.56646 0.0
C4800 C 0.60878 0.12891 0.57474 0.0
C4801 C 0.60877 0.12953 0.59135 0.0
C4802 C 0.59738 0.13559 0.59975 0.0
C4803 C 0.586 0.14106 0.59156 0.0
H4804 H 0.61763 0.12539 0.59771 0.0
H4805 H 0.51232 0.18431 0.51737 0.0
H4806 H 0.60653 0.77768 0.3912 0.0
H4807 H 0.62985 0.77951 0.37683 0.0
H4808 H 0.60205 0.76916 0.33155 0.0
H4809 H 0.57863 0.7667 0.3458 0.0
H4810 H 0.62438 0.75226 0.32953 0.0
H4811 H 0.62232 0.80872 0.34926 0.0
H4812 H 0.62105 0.83246 0.37018 0.0
H4813 H 0.66336 0.82861 0.39441 0.0
H4814 H 0.66478 0.80471 0.37374 0.0
H4815 H 0.67858 0.77864 0.27649 0.0
H4816 H 0.65745 0.77419 0.29353 0.0
H4817 H 0.68987 0.78849 0.33575 0.0
H4818 H 0.7112 0.79391 0.31863 0.0
H4819 H 0.66651 0.80229 0.34124 0.0
H4820 H 0.66989 0.74728 0.32113 0.0
H4821 H 0.6715 0.72326 0.30074 0.0
H4822 H 0.62731 0.72359 0.27808 0.0
H4823 H 0.62552 0.74775 0.2982 0.0
C4824 C 0.60531 0.77561 0.37817 0.0
C4825 C 0.59057 0.77206 0.36973 0.0
C4826 C 0.61873 0.77685 0.36995 0.0
C4827 C 0.61782 0.77469 0.35305 0.0
C4828 C 0.60314 0.77095 0.34457 0.0
C4829 C 0.58971 0.7697 0.35278 0.0
C4830 C 0.6321 0.77629 0.34416 0.0
C4831 C 0.63351 0.76328 0.33198 0.0
C4832 C 0.64436 0.7904 0.34769 0.0
C4833 C 0.64357 0.80483 0.36005 0.0
C4834 C 0.63129 0.81287 0.35911 0.0
C4835 C 0.63056 0.82636 0.37091 0.0
C4836 C 0.64209 0.83201 0.38364 0.0
C4837 C 0.65442 0.8242 0.38456 0.0
C4838 C 0.6552 0.81069 0.3728 0.0
C4839 C 0.68131 0.78094 0.2894 0.0
C4840 C 0.6967 0.78684 0.29612 0.0
C4841 C 0.66914 0.77814 0.29918 0.0
C4842 C 0.67194 0.78077 0.31602 0.0
C4843 C 0.68732 0.78631 0.32281 0.0
C4844 C 0.69957 0.78926 0.31298 0.0
C4845 C 0.65869 0.77834 0.32637 0.0
C4846 C 0.65747 0.79119 0.33884 0.0
C4847 C 0.64664 0.76401 0.32321 0.0
C4848 C 0.64763 0.74941 0.31112 0.0
C4849 C 0.66056 0.7423 0.31174 0.0
C4850 C 0.6615 0.72864 0.30024 0.0
C4851 C 0.64953 0.72192 0.28811 0.0
C4852 C 0.63657 0.72881 0.28748 0.0
C4853 C 0.63558 0.74248 0.29895 0.0
H4854 H 0.65028 0.71136 0.27921 0.0
H4855 H 0.6415 0.84245 0.39276 0.0
H4856 H 0.09279 0.25123 0.45431 0.0
H4857 H 0.08781 0.23222 0.47311 0.0
H4858 H 0.05374 0.19899 0.43806 0.0
H4859 H 0.05845 0.2182 0.41935 0.0
H4860 H 0.04292 0.20168 0.46625 0.0
H4861 H 0.09041 0.19173 0.44664 0.0
H4862 H 0.11747 0.19898 0.44021 0.0
H4863 H 0.13183 0.21853 0.49017 0.0
H4864 H 0.10482 0.2116 0.49686 0.0
H4865 H 0.03676 0.13126 0.50249 0.0
H4866 H 0.04149 0.15127 0.48468 0.0
H4867 H 0.07219 0.18538 0.52216 0.0
H4868 H 0.06781 0.16518 0.53995 0.0
H4869 H 0.08475 0.1826 0.49331 0.0
H4870 H 0.03654 0.19136 0.51253 0.0
H4871 H 0.00937 0.18304 0.51822 0.0
H4872 H 0.99631 0.16433 0.46789 0.0
H4873 H 0.02344 0.17234 0.46192 0.0
C4874 C 0.08438 0.23977 0.45055 0.0
C4875 C 0.07606 0.23614 0.43534 0.0
C4876 C 0.08154 0.22891 0.4613 0.0
C4877 C 0.07054 0.21405 0.45694 0.0
C4878 C 0.06227 0.21038 0.44171 0.0
C4879 C 0.06497 0.22134 0.43102 0.0
C4880 C 0.06736 0.20255 0.46841 0.0
C4881 C 0.05206 0.19734 0.47199 0.0
C4882 C 0.0793 0.19715 0.47621 0.0
C4883 C 0.09557 0.20129 0.47223 0.0
C4884 C 0.09932 0.19769 0.45624 0.0
C4885 C 0.11465 0.20172 0.45255 0.0
C4886 C 0.12635 0.20925 0.46477 0.0
C4887 C 0.12275 0.21272 0.48071 0.0
C4888 C 0.10743 0.20873 0.48446 0.0
C4889 C 0.04452 0.14302 0.50695 0.0
C4890 C 0.05196 0.14663 0.52261 0.0
C4891 C 0.04711 0.1545 0.4968 0.0
C4892 C 0.05711 0.16986 0.50213 0.0
C4893 C 0.0644 0.1736 0.51783 0.0
C4894 C 0.06179 0.16212 0.52802 0.0
C4895 C 0.06034 0.18175 0.49109 0.0
C4896 C 0.07565 0.187 0.48759 0.0
C4897 C 0.04839 0.18705 0.48324 0.0
C4898 C 0.03205 0.18233 0.4868 0.0
C4899 C 0.02789 0.18537 0.50269 0.0
C4900 C 0.01249 0.18073 0.50596 0.0
C4901 C 1.00112 0.17313 0.49343 0.0
C4902 C 0.00512 0.1702 0.47759 0.0
C4903 C 0.02051 0.17481 0.47425 0.0
H4904 H 0.98921 0.16954 0.49599 0.0
H4905 H 0.13822 0.21236 0.46189 0.0
H4906 H 0.575 0.26812 0.22324 0.0
H4907 H 0.59931 0.26501 0.23567 0.0
H4908 H 0.62427 0.29044 0.20162 0.0
H4909 H 0.59994 0.29283 0.18859 0.0
H4910 H 0.63462 0.26439 0.2039 0.0
H4911 H 0.62478 0.30887 0.24141 0.0
H4912 H 0.6097 0.32393 0.25982 0.0
H4913 H 0.60588 0.28708 0.28937 0.0
H4914 H 0.62076 0.27167 0.27101 0.0
H4915 H 0.70271 0.27994 0.26949 0.0
H4916 H 0.67964 0.28755 0.25896 0.0
H4917 H 0.66081 0.23695 0.23715 0.0
H4918 H 0.68405 0.22933 0.24721 0.0
H4919 H 0.64923 0.27889 0.26278 0.0
H4920 H 0.64332 0.23591 0.20035 0.0
H4921 H 0.66013 0.2239 0.1816 0.0
H4922 H 0.69846 0.26352 0.20122 0.0
H4923 H 0.68185 0.27588 0.21992 0.0
C4924 C 0.58565 0.273 0.21835 0.0
C4925 C 0.58551 0.28071 0.20491 0.0
C4926 C 0.59956 0.27139 0.2256 0.0
C4927 C 0.61362 0.27766 0.21968 0.0
C4928 C 0.61355 0.28556 0.20641 0.0
C4929 C 0.59963 0.28707 0.19908 0.0
C4930 C 0.62833 0.27526 0.22689 0.0
C4931 C 0.63782 0.26761 0.21677 0.0
C4932 C 0.63269 0.27979 0.24364 0.0
C4933 C 0.62379 0.28904 0.25476 0.0
C4934 C 0.62063 0.30391 0.25177 0.0
C4935 C 0.61213 0.31252 0.26221 0.0
C4936 C 0.6068 0.30645 0.27573 0.0
C4937 C 0.61 0.29176 0.27888 0.0
C4938 C 0.61849 0.28309 0.26847 0.0
C4939 C 0.69364 0.27044 0.26245 0.0
C4940 C 0.69524 0.25405 0.25905 0.0
C4941 C 0.68044 0.27479 0.25656 0.0
C4942 C 0.66863 0.26284 0.24713 0.0
C4943 C 0.6699 0.24638 0.24425 0.0
C4944 C 0.68311 0.24202 0.25013 0.0
C4945 C 0.6552 0.26764 0.23983 0.0
C4946 C 0.646 0.27573 0.24992 0.0
C4947 C 0.65133 0.26397 0.223 0.0
C4948 C 0.66136 0.25672 0.21164 0.0
C4949 C 0.65532 0.24209 0.20062 0.0
C4950 C 0.66482 0.23521 0.19 0.0
C4951 C 0.68036 0.24291 0.19025 0.0
C4952 C 0.68644 0.25753 0.20108 0.0
C4953 C 0.67699 0.26446 0.2117 0.0
H4954 H 0.6877 0.23756 0.18203 0.0
H4955 H 0.60022 0.31313 0.2838 0.0
H4956 H 0.61389 0.88927 0.96148 0.0
H4957 H 0.61045 0.91547 0.97662 0.0
H4958 H 0.59062 0.92632 0.93321 0.0
H4959 H 0.59472 0.90057 0.91799 0.0
H4960 H 0.60501 0.95401 0.95194 0.0
H4961 H 0.56814 0.90571 0.95846 0.0
H4962 H 0.55994 0.87815 0.96507 0.0
H4963 H 0.58046 0.8964 0.0135 0.0
H4964 H 0.589 0.92403 0.00708 0.0
H4965 H 0.5478 0.99605 0.98313 0.0
H4966 H 0.56113 0.97588 0.96928 0.0
H4967 H 0.5861 0.97557 0.01419 0.0
H4968 H 0.573 0.99587 0.02813 0.0
H4969 H 0.57158 0.94422 0.9962 0.0
H4970 H 0.60513 0.9944 0.98905 0.0
H4971 H 0.61102 0.02154 0.9811 0.0
H4972 H 0.59368 0.99946 0.93237 0.0
H4973 H 0.58754 0.97217 0.94004 0.0
C4974 C 0.6092 0.89751 0.95516 0.0
C4975 C 0.60443 0.89294 0.93866 0.0
C4976 C 0.60721 0.91242 0.96378 0.0
C4977 C 0.59991 0.92264 0.95611 0.0
C4978 C 0.59624 0.91863 0.93938 0.0
C4979 C 0.59855 0.9039 0.93071 0.0
C4980 C 0.59422 0.93621 0.96567 0.0
C4981 C 0.59768 0.95188 0.9616 0.0
C4982 C 0.58466 0.93342 0.97829 0.0
C4983 C 0.57936 0.91688 0.98224 0.0
C4984 C 0.57098 0.90382 0.97049 0.0
C4985 C 0.56627 0.88819 0.9742 0.0
C4986 C 0.56971 0.88552 0.98968 0.0
C4987 C 0.57783 0.89848 1.0015 0.0
C4988 C 0.58261 0.91413 0.99783 0.0
C4989 C 0.55609 0.99167 0.99007 0.0
C4990 C 0.55937 0.99753 0.00671 0.0
C4991 C 0.56378 0.98027 0.98212 0.0
C4992 C 0.5747 0.97447 0.99073 0.0
C4993 C 0.57777 0.98005 0.00737 0.0
C4994 C 0.57025 0.99159 0.01529 0.0
C4995 C 0.58237 0.96195 0.98249 0.0
C4996 C 0.57915 0.94642 0.98675 0.0
C4997 C 0.59184 0.96484 0.96987 0.0
C4998 C 0.59576 0.98122 0.96516 0.0
C4999 C 0.60248 0.99533 0.97666 0.0
C5000 C 0.60588 0.01074 0.9722 0.0
C5001 C 0.60269 0.01223 0.95625 0.0
C5002 C 0.59614 0.99829 0.94472 0.0
C5003 C 0.59273 0.98283 0.94911 0.0
H5004 H 0.60532 0.02417 0.95283 0.0
H5005 H 0.56606 0.87341 0.99254 0.0
H5006 H 0.92541 0.75374 0.69289 0.0
H5007 H 0.90127 0.75182 0.70577 0.0
H5008 H 0.92555 0.78291 0.74906 0.0
H5009 H 0.94995 0.78491 0.73619 0.0
H5010 H 0.9005 0.75367 0.75303 0.0
H5011 H 0.90988 0.80202 0.72959 0.0
H5012 H 0.91705 0.81821 0.70844 0.0
H5013 H 0.8792 0.78758 0.67654 0.0
H5014 H 0.87197 0.77102 0.69743 0.0
H5015 H 0.83003 0.77195 0.78184 0.0
H5016 H 0.85635 0.77085 0.77527 0.0
H5017 H 0.84027 0.75741 0.7247 0.0
H5018 H 0.81451 0.76059 0.73139 0.0
H5019 H 0.86324 0.77937 0.72679 0.0
H5020 H 0.85396 0.731 0.75156 0.0
H5021 H 0.84609 0.71702 0.77407 0.0
H5022 H 0.88345 0.74954 0.8052 0.0
H5023 H 0.89142 0.76388 0.78292 0.0
C5024 C 0.9257 0.75989 0.70527 0.0
C5025 C 0.93954 0.7695 0.71355 0.0
C5026 C 0.91191 0.7588 0.71259 0.0
C5027 C 0.9117 0.76723 0.72832 0.0
C5028 C 0.92556 0.77627 0.73692 0.0
C5029 C 0.93941 0.77751 0.72953 0.0
C5030 C 0.89672 0.76779 0.73493 0.0
C5031 C 0.89236 0.7595 0.74754 0.0
C5032 C 0.88617 0.77529 0.72764 0.0
C5033 C 0.89052 0.78515 0.715 0.0
C5034 C 0.9032 0.79861 0.718 0.0
C5035 C 0.90725 0.80788 0.70607 0.0
C5036 C 0.89862 0.80389 0.69113 0.0
C5037 C 0.8859 0.79064 0.68811 0.0
C5038 C 0.88182 0.78131 0.69998 0.0
C5039 C 0.83234 0.76918 0.76935 0.0
C5040 C 0.82078 0.76764 0.75702 0.0
C5041 C 0.84727 0.76804 0.76557 0.0
C5042 C 0.85048 0.76418 0.74941 0.0
C5043 C 0.83829 0.76084 0.73723 0.0
C5044 C 0.82358 0.7626 0.74102 0.0
C5045 C 0.86656 0.76499 0.74486 0.0
C5046 C 0.87124 0.7736 0.73253 0.0
C5047 C 0.87735 0.75794 0.75259 0.0
C5048 C 0.8732 0.74859 0.76562 0.0
C5049 C 0.86051 0.73514 0.7632 0.0
C5050 C 0.85601 0.72719 0.77594 0.0
C5051 C 0.86419 0.73249 0.7911 0.0
C5052 C 0.87708 0.74552 0.79347 0.0
C5053 C 0.88162 0.75355 0.78079 0.0
H5054 H 0.86055 0.72651 0.80102 0.0
H5055 H 0.90176 0.81109 0.68192 0.0
H5056 H 0.1009 0.01618 0.84223 0.0
H5057 H 0.08921 0.01945 0.86778 0.0
H5058 H 0.13412 0.02963 0.89356 0.0
H5059 H 0.14597 0.02658 0.86806 0.0
H5060 H 0.11542 0.01154 0.90951 0.0
H5061 H 0.11133 0.06023 0.88965 0.0
H5062 H 0.10407 0.07644 0.8701 0.0
H5063 H 0.05631 0.05321 0.87029 0.0
H5064 H 0.06332 0.0367 0.88969 0.0
H5065 H 0.09151 0.04045 0.9872 0.0
H5066 H 0.10327 0.03749 0.96162 0.0
H5067 H 0.05854 0.02955 0.93591 0.0
H5068 H 0.04688 0.03336 0.96153 0.0
H5069 H 0.07714 0.04627 0.91984 0.0
H5070 H 0.08116 0.99762 0.93984 0.0
H5071 H 0.0884 0.98153 0.95951 0.0
H5072 H 0.13619 1.00448 0.95907 0.0
H5073 H 0.12921 0.0209 0.93956 0.0
C5074 C 0.10849 0.01934 0.85322 0.0
C5075 C 0.12466 0.02112 0.85249 0.0
C5076 C 0.10165 0.02122 0.86809 0.0
C5077 C 0.11057 0.02508 0.88311 0.0
C5078 C 0.12667 0.02665 0.88246 0.0
C5079 C 0.13354 0.0248 0.86759 0.0
C5080 C 0.10323 0.02738 0.89931 0.0
C5081 C 0.10721 0.01934 0.91172 0.0
C5082 C 0.09212 0.03721 0.90264 0.0
C5083 C 0.08787 0.04711 0.89099 0.0
C5084 C 0.0993 0.05849 0.88543 0.0
C5085 C 0.09522 0.06774 0.87439 0.0
C5086 C 0.07974 0.06582 0.86893 0.0
C5087 C 0.0683 0.05467 0.87452 0.0
C5088 C 0.07231 0.04537 0.88554 0.0
C5089 C 0.08405 0.03804 0.97616 0.0
C5090 C 0.06797 0.03679 0.97686 0.0
C5091 C 0.09088 0.03617 0.96129 0.0
C5092 C 0.08198 0.03278 0.94628 0.0
C5093 C 0.06595 0.03192 0.94698 0.0
C5094 C 0.05913 0.0339 0.96187 0.0
C5095 C 0.08929 0.0304 0.93006 0.0
C5096 C 0.08532 0.03843 0.91764 0.0
C5097 C 0.10039 0.02054 0.92672 0.0
C5098 C 0.10464 0.01061 0.93835 0.0
C5099 C 0.0932 0.99931 0.94401 0.0
C5100 C 0.09726 0.99013 0.95512 0.0
C5101 C 0.11275 0.99201 0.96056 0.0
C5102 C 0.1242 1.00305 0.95485 0.0
C5103 C 0.1202 0.0123 0.94377 0.0
H5104 H 0.11587 0.9849 0.96917 0.0
H5105 H 0.07661 0.073 0.86038 0.0
H5106 H 0.80457 0.36147 0.58592 0.0
H5107 H 0.80666 0.34848 0.60909 0.0
H5108 H 0.78646 0.38474 0.63757 0.0
H5109 H 0.78553 0.39869 0.61467 0.0
H5110 H 0.80965 0.38128 0.65422 0.0
H5111 H 0.76681 0.34276 0.62568 0.0
H5112 H 0.75087 0.32423 0.60249 0.0
H5113 H 0.78484 0.29473 0.59728 0.0
H5114 H 0.8011 0.3132 0.62029 0.0
H5115 H 0.81717 0.32828 0.71366 0.0
H5116 H 0.80455 0.34264 0.69577 0.0
H5117 H 0.8327 0.32826 0.65809 0.0
H5118 H 0.84537 0.3141 0.67586 0.0
H5119 H 0.79851 0.32084 0.65015 0.0
H5120 H 0.84361 0.3696 0.67129 0.0
H5121 H 0.85911 0.38987 0.69377 0.0
H5122 H 0.81759 0.39847 0.71426 0.0
H5123 H 0.80189 0.37848 0.6917 0.0
C5124 C 0.80063 0.36679 0.5971 0.0
C5125 C 0.79504 0.38126 0.59841 0.0
C5126 C 0.80154 0.35912 0.61031 0.0
C5127 C 0.79644 0.36542 0.62505 0.0
C5128 C 0.79038 0.37958 0.6263 0.0
C5129 C 0.78972 0.38746 0.61312 0.0
C5130 C 0.79876 0.35793 0.63937 0.0
C5131 C 0.80677 0.36807 0.65344 0.0
C5132 C 0.795 0.3407 0.63852 0.0
C5133 C 0.78521 0.32942 0.62472 0.0
C5134 C 0.77093 0.33237 0.61955 0.0
C5135 C 0.76183 0.32187 0.60643 0.0
C5136 C 0.76684 0.30832 0.59842 0.0
C5137 C 0.78096 0.30522 0.60352 0.0
C5138 C 0.79011 0.31569 0.61662 0.0
C5139 C 0.82058 0.3282 0.70153 0.0
C5140 C 0.83215 0.32005 0.69603 0.0
C5141 C 0.81347 0.33646 0.69142 0.0
C5142 C 0.81772 0.33643 0.67567 0.0
C5143 C 0.8293 0.32837 0.67023 0.0
C5144 C 0.83652 0.32032 0.68036 0.0
C5145 C 0.80985 0.34418 0.6644 0.0
C5146 C 0.80081 0.33405 0.65098 0.0
C5147 C 0.81231 0.36136 0.66597 0.0
C5148 C 0.82164 0.3726 0.67991 0.0
C5149 C 0.83783 0.37582 0.68063 0.0
C5150 C 0.84663 0.38734 0.69328 0.0
C5151 C 0.83933 0.39557 0.70534 0.0
C5152 C 0.82322 0.39219 0.70484 0.0
C5153 C 0.81437 0.38082 0.6921 0.0
H5154 H 0.84616 0.40444 0.71515 0.0
H5155 H 0.75978 0.30021 0.58825 0.0
H5156 H 0.48679 0.07337 0.35803 0.0
H5157 H 0.50273 0.07785 0.38343 0.0
H5158 H 0.46385 0.05287 0.40496 0.0
H5159 H 0.44764 0.04931 0.38005 0.0
H5160 H 0.479 0.0779 0.4258 0.0
H5161 H 0.49266 0.03361 0.38919 0.0
H5162 H 0.50188 0.02084 0.36413 0.0
H5163 H 0.54488 0.05639 0.37399 0.0
H5164 H 0.53583 0.0695 0.39902 0.0
H5165 H 0.50771 0.0379 0.48238 0.0
H5166 H 0.49664 0.04529 0.45858 0.0
H5167 H 0.53981 0.07816 0.45464 0.0
H5168 H 0.55098 0.07122 0.47889 0.0
H5169 H 0.52625 0.0553 0.42553 0.0
H5170 H 0.51267 0.09523 0.46618 0.0
H5171 H 0.50244 0.10482 0.4918 0.0
H5172 H 0.45784 0.07417 0.47475 0.0
H5173 H 0.46786 0.06416 0.44913 0.0
C5174 C 0.48156 0.06909 0.36826 0.0
C5175 C 0.46596 0.0608 0.36694 0.0
C5176 C 0.49073 0.07153 0.38272 0.0
C5177 C 0.48454 0.06547 0.39601 0.0
C5178 C 0.46889 0.05761 0.39485 0.0
C5179 C 0.45969 0.05537 0.3805 0.0
C5180 C 0.49436 0.06659 0.41099 0.0
C5181 C 0.48933 0.07296 0.42574 0.0
C5182 C 0.50805 0.06051 0.41089 0.0
C5183 C 0.51349 0.05266 0.39584 0.0
C5184 C 0.50403 0.03878 0.38594 0.0
C5185 C 0.50923 0.03147 0.37176 0.0
C5186 C 0.52393 0.03784 0.36744 0.0
C5187 C 0.53348 0.0515 0.37732 0.0
C5188 C 0.52833 0.05888 0.39151 0.0
C5189 C 0.5149 0.04678 0.47658 0.0
C5190 C 0.53033 0.05382 0.48245 0.0
C5191 C 0.50851 0.05101 0.46299 0.0
C5192 C 0.51741 0.06232 0.45498 0.0
C5193 C 0.5328 0.0694 0.46073 0.0
C5194 C 0.53917 0.06533 0.4745 0.0
C5195 C 0.51057 0.06608 0.44024 0.0
C5196 C 0.51616 0.06065 0.42555 0.0
C5197 C 0.49721 0.07269 0.44041 0.0
C5198 C 0.49105 0.07889 0.45573 0.0
C5199 C 0.5007 0.09045 0.46792 0.0
C5200 C 0.49494 0.09597 0.48245 0.0
C5201 C 0.4795 0.09009 0.48492 0.0
C5202 C 0.46979 0.07872 0.47283 0.0
C5203 C 0.47551 0.07313 0.45829 0.0
H5204 H 0.47507 0.09438 0.49617 0.0
H5205 H 0.52794 0.03216 0.35646 0.0
H5206 H 0.80626 0.71913 0.10303 0.0
H5207 H 0.80325 0.73021 0.13113 0.0
H5208 H 0.7901 0.77215 0.11667 0.0
H5209 H 0.79276 0.7609 0.08835 0.0
H5210 H 0.81494 0.77693 0.14653 0.0
H5211 H 0.76268 0.75071 0.1244 0.0
H5212 H 0.74285 0.72781 0.10889 0.0
H5213 H 0.75303 0.69616 0.14058 0.0
H5214 H 0.77311 0.71882 0.15612 0.0
H5215 H 0.79719 0.80001 0.22793 0.0
H5216 H 0.79466 0.79604 0.19831 0.0
H5217 H 0.78978 0.74387 0.19554 0.0
H5218 H 0.79169 0.74778 0.22483 0.0
H5219 H 0.77149 0.74823 0.17296 0.0
H5220 H 0.82502 0.77075 0.19242 0.0
H5221 H 0.84644 0.79156 0.20829 0.0
H5222 H 0.83592 0.82784 0.18237 0.0
H5223 H 0.81431 0.80726 0.16648 0.0
C5224 C 0.80286 0.73079 0.10584 0.0
C5225 C 0.79978 0.73917 0.09349 0.0
C5226 C 0.8011 0.73708 0.12188 0.0
C5227 C 0.79648 0.75201 0.12597 0.0
C5228 C 0.79372 0.76063 0.11375 0.0
C5229 C 0.79517 0.75417 0.09761 0.0
C5230 C 0.79406 0.75812 0.14301 0.0
C5231 C 0.80526 0.77094 0.15227 0.0
C5232 C 0.78166 0.75002 0.15055 0.0
C5233 C 0.76949 0.73643 0.14133 0.0
C5234 C 0.76079 0.73883 0.12797 0.0
C5235 C 0.74948 0.7259 0.11919 0.0
C5236 C 0.74671 0.71053 0.12373 0.0
C5237 C 0.75521 0.70807 0.13707 0.0
C5238 C 0.76654 0.72096 0.14588 0.0
C5239 C 0.79514 0.7877 0.22092 0.0
C5240 C 0.79431 0.77414 0.22861 0.0
C5241 C 0.79388 0.78543 0.20401 0.0
C5242 C 0.79218 0.76964 0.1946 0.0
C5243 C 0.79099 0.75615 0.20241 0.0
C5244 C 0.79213 0.75839 0.21917 0.0
C5245 C 0.79254 0.76689 0.17671 0.0
C5246 C 0.78099 0.75458 0.16723 0.0
C5247 C 0.80482 0.77523 0.16906 0.0
C5248 C 0.81796 0.78753 0.1784 0.0
C5249 C 0.82724 0.78319 0.19017 0.0
C5250 C 0.83941 0.79494 0.19916 0.0
C5251 C 0.84251 0.81103 0.19637 0.0
C5252 C 0.83348 0.81538 0.18453 0.0
C5253 C 0.82128 0.80368 0.17553 0.0
H5254 H 0.85192 0.82012 0.20336 0.0
H5255 H 0.73795 0.70054 0.11692 0.0
H5256 H 0.13736 0.00698 0.67043 0.0
H5257 H 0.12544 0.01111 0.645 0.0
H5258 H 0.09233 0.03316 0.67105 0.0
H5259 H 0.10454 0.02958 0.69656 0.0
H5260 H 0.07951 0.00757 0.63947 0.0
H5261 H 0.11725 0.05819 0.65949 0.0
H5262 H 0.14337 0.07437 0.66949 0.0
H5263 H 0.16111 0.05456 0.6259 0.0
H5264 H 0.13511 0.03806 0.61574 0.0
H5265 H 0.0476 0.03451 0.57046 0.0
H5266 H 0.05713 0.0324 0.59779 0.0
H5267 H 0.10267 0.03354 0.58197 0.0
H5268 H 0.09339 0.03648 0.55534 0.0
H5269 H 0.10836 0.0479 0.6097 0.0
H5270 H 0.07359 0.99682 0.58919 0.0
H5271 H 0.04888 0.97821 0.57774 0.0
H5272 H 0.02718 0.99486 0.61978 0.0
H5273 H 0.05169 0.01387 0.63134 0.0
C5274 C 0.1275 0.01264 0.67085 0.0
C5275 C 0.12209 0.01789 0.68592 0.0
C5276 C 0.12062 0.01505 0.65614 0.0
C5277 C 0.10774 0.02242 0.6557 0.0
C5278 C 0.10212 0.02736 0.67069 0.0
C5279 C 0.10925 0.02537 0.68544 0.0
C5280 C 0.10062 0.02548 0.63983 0.0
C5281 C 0.08578 0.01657 0.63311 0.0
C5282 C 0.10868 0.03679 0.63088 0.0
C5283 C 0.12427 0.04676 0.63693 0.0
C5284 C 0.12675 0.05716 0.6521 0.0
C5285 C 0.14153 0.06642 0.65779 0.0
C5286 C 0.15391 0.06546 0.64836 0.0
C5287 C 0.15152 0.05528 0.6332 0.0
C5288 C 0.13676 0.04598 0.62747 0.0
C5289 C 0.05971 0.03469 0.57291 0.0
C5290 C 0.06969 0.03599 0.56045 0.0
C5291 C 0.06521 0.03317 0.58864 0.0
C5292 C 0.08083 0.03246 0.59246 0.0
C5293 C 0.09067 0.03406 0.57996 0.0
C5294 C 0.08526 0.03574 0.56447 0.0
C5295 C 0.08713 0.02992 0.60904 0.0
C5296 C 0.10193 0.0389 0.61595 0.0
C5297 C 0.07917 0.01832 0.61789 0.0
C5298 C 0.06443 0.00691 0.61105 0.0
C5299 C 0.06352 0.99661 0.59594 0.0
C5300 C 0.04956 0.98598 0.58944 0.0
C5301 C 0.03649 0.98535 0.59803 0.0
C5302 C 0.03732 0.99537 0.61314 0.0
C5303 C 0.05124 0.0061 0.61967 0.0
H5304 H 0.02573 0.97704 0.59299 0.0
H5305 H 0.16534 0.07264 0.65278 0.0
H5306 H 0.81426 0.39577 0.43831 0.0
H5307 H 0.81505 0.37905 0.41204 0.0
H5308 H 0.79037 0.33621 0.42838 0.0
H5309 H 0.79016 0.35279 0.45508 0.0
H5310 H 0.81357 0.32919 0.41063 0.0
H5311 H 0.77163 0.35585 0.40481 0.0
H5312 H 0.75891 0.37928 0.40698 0.0
H5313 H 0.79026 0.40142 0.37588 0.0
H5314 H 0.80332 0.37823 0.37371 0.0
H5315 H 0.79457 0.28355 0.32955 0.0
H5316 H 0.79458 0.2966 0.35766 0.0
H5317 H 0.8177 0.34295 0.34664 0.0
H5318 H 0.81706 0.33025 0.31852 0.0
H5319 H 0.79332 0.34644 0.36218 0.0
H5320 H 0.83598 0.32031 0.36892 0.0
H5321 H 0.8487 0.29688 0.36676 0.0
H5322 H 0.81585 0.27356 0.39583 0.0
H5323 H 0.80281 0.29677 0.39799 0.0
C5324 C 0.80918 0.38275 0.43643 0.0
C5325 C 0.80213 0.37562 0.44882 0.0
C5326 C 0.8095 0.37323 0.42134 0.0
C5327 C 0.80257 0.35643 0.41818 0.0
C5328 C 0.79572 0.34918 0.43055 0.0
C5329 C 0.79547 0.3587 0.44573 0.0
C5330 C 0.80233 0.3466 0.40186 0.0
C5331 C 0.80894 0.33279 0.40003 0.0
C5332 C 0.79646 0.35145 0.38804 0.0
C5333 C 0.78853 0.36535 0.3892 0.0
C5334 C 0.77588 0.36576 0.39852 0.0
C5335 C 0.7686 0.37899 0.39973 0.0
C5336 C 0.77379 0.39184 0.39159 0.0
C5337 C 0.78626 0.39146 0.38218 0.0
C5338 C 0.79359 0.37827 0.38094 0.0
C5339 C 0.7996 0.29653 0.3331 0.0
C5340 C 0.80533 0.30595 0.32165 0.0
C5341 C 0.79978 0.30393 0.34923 0.0
C5342 C 0.80606 0.32079 0.35424 0.0
C5343 C 0.81263 0.32996 0.34301 0.0
C5344 C 0.81229 0.32264 0.32691 0.0
C5345 C 0.80494 0.32925 0.37086 0.0
C5346 C 0.79793 0.34278 0.37276 0.0
C5347 C 0.81043 0.32411 0.38468 0.0
C5348 C 0.81833 0.3102 0.38348 0.0
C5349 C 0.8314 0.31013 0.37475 0.0
C5350 C 0.83868 0.2969 0.37354 0.0
C5351 C 0.83306 0.28372 0.38111 0.0
C5352 C 0.82017 0.28377 0.38995 0.0
C5353 C 0.81285 0.29697 0.39118 0.0
H5354 H 0.8387 0.27348 0.38016 0.0
H5355 H 0.76815 0.40208 0.39256 0.0
H5356 H 0.43481 0.04734 0.19948 0.0
H5357 H 0.44762 0.04359 0.17453 0.0
H5358 H 0.49148 0.05172 0.20229 0.0
H5359 H 0.47885 0.05596 0.22717 0.0
H5360 H 0.49442 0.06591 0.17614 0.0
H5361 H 0.46973 0.01317 0.18843 0.0
H5362 H 0.44758 0.99229 0.19348 0.0
H5363 H 0.42549 0.99133 0.14693 0.0
H5364 H 0.44746 0.01239 0.14174 0.0
H5365 H 0.54134 0.02018 0.13302 0.0
H5366 H 0.52494 0.03245 0.15158 0.0
H5367 H 0.48789 0.02099 0.11375 0.0
H5368 H 0.50421 0.00838 0.09514 0.0
H5369 H 0.4785 0.01091 0.14115 0.0
H5370 H 0.50302 0.06305 0.12851 0.0
H5371 H 0.52463 0.08457 0.12361 0.0
H5372 H 0.54722 0.08568 0.16996 0.0
H5373 H 0.52538 0.0646 0.17538 0.0
C5374 C 0.44723 0.04871 0.20023 0.0
C5375 C 0.45584 0.05177 0.21525 0.0
C5376 C 0.4545 0.04643 0.18599 0.0
C5377 C 0.47044 0.04712 0.1866 0.0
C5378 C 0.47915 0.05107 0.20157 0.0
C5379 C 0.47191 0.05336 0.21576 0.0
C5380 C 0.47805 0.04268 0.17183 0.0
C5381 C 0.49094 0.05388 0.1685 0.0
C5382 C 0.47326 0.02715 0.1616 0.0
C5383 C 0.4601 0.01451 0.16478 0.0
C5384 C 0.46008 0.00861 0.17934 0.0
C5385 C 0.44758 0.99673 0.18222 0.0
C5386 C 0.43511 0.99053 0.17056 0.0
C5387 C 0.43514 0.99617 0.15598 0.0
C5388 C 0.4476 0.00808 0.15306 0.0
C5389 C 0.5297 0.02026 0.12866 0.0
C5390 C 0.524 0.01319 0.1127 0.0
C5391 C 0.52042 0.0275 0.1392 0.0
C5392 C 0.50528 0.02784 0.13396 0.0
C5393 C 0.49959 0.02098 0.11797 0.0
C5394 C 0.50892 0.0138 0.10738 0.0
C5395 C 0.49508 0.034 0.14572 0.0
C5396 C 0.48175 0.02309 0.14854 0.0
C5397 C 0.49945 0.04975 0.15551 0.0
C5398 C 0.51268 0.06219 0.15227 0.0
C5399 C 0.51264 0.06786 0.13762 0.0
C5400 C 0.52489 0.08003 0.13479 0.0
C5401 C 0.53741 0.08634 0.14638 0.0
C5402 C 0.53755 0.08073 0.16097 0.0
C5403 C 0.52517 0.06879 0.16399 0.0
H5404 H 0.54699 0.09561 0.14408 0.0
H5405 H 0.42544 0.98132 0.17281 0.0
H5406 H 0.79527 0.698 0.91608 0.0
H5407 H 0.79573 0.70717 0.89028 0.0
H5408 H 0.81341 0.75711 0.91475 0.0
H5409 H 0.81212 0.74818 0.94067 0.0
H5410 H 0.79198 0.75697 0.89347 0.0
H5411 H 0.83563 0.73211 0.89221 0.0
H5412 H 0.85048 0.71065 0.89288 0.0
H5413 H 0.82212 0.6804 0.85178 0.0
H5414 H 0.80687 0.70153 0.85107 0.0
H5415 H 0.81046 0.79161 0.82516 0.0
H5416 H 0.81255 0.78117 0.85007 0.0
H5417 H 0.79181 0.73222 0.82474 0.0
H5418 H 0.7904 0.7426 0.79945 0.0
H5419 H 0.81497 0.73153 0.84601 0.0
H5420 H 0.76949 0.75504 0.84999 0.0
H5421 H 0.75453 0.77651 0.84976 0.0
H5422 H 0.78782 0.80971 0.88511 0.0
H5423 H 0.8027 0.78824 0.88594 0.0
C5424 C 0.79913 0.71098 0.91606 0.0
C5425 C 0.80358 0.72232 0.93062 0.0
C5426 C 0.79962 0.71618 0.90119 0.0
C5427 C 0.80481 0.73284 0.90043 0.0
C5428 C 0.80941 0.74417 0.91492 0.0
C5429 C 0.8088 0.739 0.9298 0.0
C5430 C 0.80465 0.73863 0.88467 0.0
C5431 C 0.79725 0.75151 0.88322 0.0
C5432 C 0.8111 0.7313 0.871 0.0
C5433 C 0.81996 0.71834 0.87173 0.0
C5434 C 0.83241 0.7208 0.88345 0.0
C5435 C 0.84092 0.7087 0.88381 0.0
C5436 C 0.83721 0.69415 0.87242 0.0
C5437 C 0.82495 0.69165 0.86064 0.0
C5438 C 0.81636 0.70368 0.86026 0.0
C5439 C 0.80687 0.77855 0.82471 0.0
C5440 C 0.80067 0.7679 0.81019 0.0
C5441 C 0.80771 0.77262 0.8391 0.0
C5442 C 0.80211 0.75592 0.83942 0.0
C5443 C 0.79617 0.74517 0.82486 0.0
C5444 C 0.79536 0.75111 0.81041 0.0
C5445 C 0.80238 0.74981 0.85496 0.0
C5446 C 0.80974 0.7369 0.85634 0.0
C5447 C 0.79598 0.75711 0.86862 0.0
C5448 C 0.78726 0.77012 0.86789 0.0
C5449 C 0.77366 0.76696 0.85762 0.0
C5450 C 0.76518 0.77911 0.85741 0.0
C5451 C 0.77033 0.79453 0.86723 0.0
C5452 C 0.78387 0.79778 0.87745 0.0
C5453 C 0.79227 0.78559 0.87789 0.0
H5454 H 0.76377 0.80393 0.867 0.0
H5455 H 0.84386 0.68483 0.87268 0.0
H5456 H 0.83667 0.07646 0.99667 0.0
H5457 H 0.85746 0.06173 0.99146 0.0
H5458 H 0.8913 0.10655 0.00923 0.0
H5459 H 0.87053 0.12132 0.01459 0.0
H5460 H 0.89614 0.08881 0.97847 0.0
H5461 H 0.88639 0.08006 0.0321 0.0
H5462 H 0.87014 0.07154 0.05329 0.0
H5463 H 0.85693 0.0225 0.02592 0.0
H5464 H 0.87293 0.03079 0.00444 0.0
H5465 H 0.96344 0.05717 0.98248 0.0
H5466 H 0.94225 0.07106 0.98658 0.0
H5467 H 0.9101 0.02427 0.98083 0.0
H5468 H 0.93148 0.0103 0.97826 0.0
H5469 H 0.9037 0.0429 0.00509 0.0
H5470 H 0.91401 0.05098 0.95167 0.0
H5471 H 0.92953 0.05942 0.92994 0.0
H5472 H 0.94056 0.10927 0.95549 0.0
H5473 H 0.92548 0.10107 0.97757 0.0
C5474 C 0.84855 0.08312 0.99952 0.0
C5475 C 0.85205 0.09999 0.00602 0.0
C5476 C 0.86038 0.07471 0.9966 0.0
C5477 C 0.87586 0.08309 0.99999 0.0
C5478 C 0.87939 0.09991 0.00656 0.0
C5479 C 0.86756 0.10829 0.0097 0.0
C5480 C 0.88837 0.07434 0.99624 0.0
C5481 C 0.89798 0.07889 0.98439 0.0
C5482 C 0.89032 0.06111 1.00366 0.0
C5483 C 0.88073 0.05609 0.01658 0.0
C5484 C 0.87991 0.06749 0.03052 0.0
C5485 C 0.87076 0.0627 0.0426 0.0
C5486 C 0.86247 0.0465 0.04093 0.0
C5487 C 0.86334 0.03505 0.02719 0.0
C5488 C 0.87245 0.03979 0.01506 0.0
C5489 C 0.95189 0.04978 0.98218 0.0
C5490 C 0.94926 0.03257 0.98025 0.0
C5491 C 0.9397 0.05777 0.98425 0.0
C5492 C 0.92449 0.04875 0.98383 0.0
C5493 C 0.92173 0.03153 0.98121 0.0
C5494 C 0.93398 0.02353 0.97952 0.0
C5495 C 0.91165 0.05728 0.98717 0.0
C5496 C 0.90191 0.05273 0.99901 0.0
C5497 C 0.9095 0.07044 0.9796 0.0
C5498 C 0.91871 0.07536 0.96636 0.0
C5499 C 0.91988 0.06371 0.95274 0.0
C5500 C 0.92862 0.06845 0.94036 0.0
C5501 C 0.93611 0.08485 0.94137 0.0
C5502 C 0.93485 0.09655 0.95476 0.0
C5503 C 0.92621 0.09186 0.96721 0.0
H5504 H 0.94284 0.08851 0.93176 0.0
H5505 H 0.85541 0.04282 0.0503 0.0
H5506 H 0.37646 0.47389 0.04977 0.0
H5507 H 0.40303 0.48907 0.04947 0.0
H5508 H 0.41609 0.44413 0.02893 0.0
H5509 H 0.38966 0.42887 0.02979 0.0
H5510 H 0.438 0.46072 0.04951 0.0
H5511 H 0.40981 0.47396 0.00618 0.0
H5512 H 0.38908 0.48339 0.99257 0.0
H5513 H 0.40307 0.53095 0.02286 0.0
H5514 H 0.42376 0.52172 0.03682 0.0
H5515 H 0.50546 0.49914 0.01511 0.0
H5516 H 0.47948 0.4842 0.01825 0.0
H5517 H 0.47305 0.52514 0.05317 0.0
H5518 H 0.49927 0.53993 0.05067 0.0
H5519 H 0.44829 0.51107 0.02568 0.0
H5520 H 0.47791 0.49583 0.06801 0.0
H5521 H 0.4995 0.48519 0.07831 0.0
H5522 H 0.48332 0.43945 0.04545 0.0
H5523 H 0.46173 0.44991 0.0348 0.0
C5524 C 0.38502 0.46728 0.04519 0.0
C5525 C 0.38097 0.45021 0.03976 0.0
C5526 C 0.40021 0.47596 0.04496 0.0
C5527 C 0.4116 0.46784 0.0389 0.0
C5528 C 0.40758 0.45073 0.03368 0.0
C5529 C 0.39246 0.44201 0.03416 0.0
C5530 C 0.42765 0.47714 0.03791 0.0
C5531 C 0.44018 0.47163 0.04414 0.0
C5532 C 0.43067 0.49148 0.03099 0.0
C5533 C 0.41822 0.49709 0.02266 0.0
C5534 C 0.40838 0.48639 0.01003 0.0
C5535 C 0.39665 0.4917 1.00224 0.0
C5536 C 0.39473 0.50774 0.00688 0.0
C5537 C 0.40456 0.51852 0.0193 0.0
C5538 C 0.4163 0.51325 0.02715 0.0
C5539 C 0.49861 0.50501 0.02354 0.0
C5540 C 0.50446 0.52095 0.03244 0.0
C5541 C 0.48374 0.49641 0.0253 0.0
C5542 C 0.47433 0.50361 0.03586 0.0
C5543 C 0.4801 0.51943 0.04485 0.0
C5544 C 0.49509 0.52791 0.04333 0.0
C5545 C 0.45841 0.49465 0.03735 0.0
C5546 C 0.44597 0.50021 0.03113 0.0
C5547 C 0.4555 0.48015 0.04387 0.0
C5548 C 0.46828 0.47371 0.05051 0.0
C5549 C 0.47901 0.48355 0.06291 0.0
C5550 C 0.49124 0.47754 0.06882 0.0
C5551 C 0.49281 0.46167 0.06251 0.0
C5552 C 0.4821 0.45175 0.05032 0.0
C5553 C 0.46985 0.4577 0.04436 0.0
H5554 H 0.5023 0.45705 0.06709 0.0
H5555 H 0.38565 0.51184 1.00083 0.0
H5556 H 0.37121 0.63878 0.75177 0.0
H5557 H 0.35828 0.66151 0.75199 0.0
H5558 H 0.37641 0.68118 0.80107 0.0
H5559 H 0.38963 0.65855 0.80094 0.0
H5560 H 0.34834 0.68617 0.79896 0.0
H5561 H 0.38974 0.69846 0.76574 0.0
H5562 H 0.40568 0.69325 0.74315 0.0
H5563 H 0.36605 0.68579 0.70942 0.0
H5564 H 0.34983 0.69076 0.73182 0.0
H5565 H 0.32171 0.76239 0.79922 0.0
H5566 H 0.3346 0.73981 0.80158 0.0
H5567 H 0.32804 0.72398 0.75 0.0
H5568 H 0.31655 0.74731 0.74777 0.0
H5569 H 0.35185 0.71761 0.7546 0.0
H5570 H 0.30965 0.69707 0.78791 0.0
H5571 H 0.29334 0.69873 0.81067 0.0
H5572 H 0.33342 0.72151 0.84334 0.0
H5573 H 0.35006 0.71901 0.82087 0.0
C5574 C 0.37281 0.64793 0.76267 0.0
C5575 C 0.38194 0.64627 0.7763 0.0
C5576 C 0.36521 0.66121 0.76277 0.0
C5577 C 0.36626 0.67376 0.77647 0.0
C5578 C 0.37512 0.67202 0.79018 0.0
C5579 C 0.38278 0.65875 0.79009 0.0
C5580 C 0.35817 0.68841 0.77651 0.0
C5581 C 0.34928 0.69305 0.78923 0.0
C5582 C 0.35882 0.69775 0.76394 0.0
C5583 C 0.36855 0.69483 0.75046 0.0
C5584 C 0.38441 0.6956 0.7535 0.0
C5585 C 0.3935 0.69271 0.74073 0.0
C5586 C 0.38687 0.68915 0.72486 0.0
C5587 C 0.37116 0.68853 0.72172 0.0
C5588 C 0.36201 0.69139 0.73445 0.0
C5589 C 0.32273 0.7539 0.7884 0.0
C5590 C 0.31765 0.75682 0.77328 0.0
C5591 C 0.33015 0.74061 0.78972 0.0
C5592 C 0.33252 0.72926 0.77602 0.0
C5593 C 0.32692 0.73212 0.76102 0.0
C5594 C 0.32 0.74558 0.7597 0.0
C5595 C 0.34133 0.71514 0.77678 0.0
C5596 C 0.35059 0.71066 0.76425 0.0
C5597 C 0.34092 0.70584 0.78944 0.0
C5598 C 0.331 0.70816 0.80273 0.0
C5599 C 0.31494 0.70256 0.79993 0.0
C5600 C 0.30566 0.70357 0.81278 0.0
C5601 C 0.31228 0.71057 0.82839 0.0
C5602 C 0.32828 0.71623 0.83123 0.0
C5603 C 0.33766 0.71484 0.81849 0.0
H5604 H 0.30504 0.71144 0.83829 0.0
H5605 H 0.39393 0.68692 0.71499 0.0
H5606 H 0.20513 0.62916 0.51605 0.0
H5607 H 0.17796 0.61713 0.51758 0.0
H5608 H 0.18826 0.56912 0.51358 0.0
H5609 H 0.21566 0.58114 0.51182 0.0
H5610 H 0.16256 0.56985 0.49343 0.0
H5611 H 0.18066 0.58669 0.54885 0.0
H5612 H 0.19438 0.60538 0.57319 0.0
H5613 H 0.16484 0.63886 0.56881 0.0
H5614 H 0.15108 0.62049 0.54429 0.0
H5615 H 0.08593 0.53799 0.51317 0.0
H5616 H 0.11407 0.54517 0.51385 0.0
H5617 H 0.11253 0.59605 0.51604 0.0
H5618 H 0.08426 0.58885 0.51549 0.0
H5619 H 0.13436 0.59081 0.53884 0.0
H5620 H 0.11851 0.57584 0.48221 0.0
H5621 H 0.1056 0.55833 0.45687 0.0
H5622 H 0.13101 0.52168 0.46341 0.0
H5623 H 0.14394 0.53889 0.48892 0.0
C5624 C 0.20161 0.61601 0.51534 0.0
C5625 C 0.21247 0.60605 0.51369 0.0
C5626 C 0.18612 0.60919 0.5164 0.0
C5627 C 0.18117 0.59228 0.51587 0.0
C5628 C 0.19192 0.58222 0.51409 0.0
C5629 C 0.20751 0.58908 0.51314 0.0
C5630 C 0.16464 0.58529 0.51682 0.0
C5631 C 0.15642 0.57408 0.50353 0.0
C5632 C 0.15667 0.59114 0.52987 0.0
C5633 C 0.16491 0.60225 0.54464 0.0
C5634 C 0.17717 0.5981 0.55299 0.0
C5635 C 0.18494 0.60863 0.56684 0.0
C5636 C 0.1805 0.62331 0.57252 0.0
C5637 C 0.16827 0.62748 0.56438 0.0
C5638 C 0.16046 0.61701 0.55052 0.0
C5639 C 0.09159 0.55072 0.51413 0.0
C5640 C 0.08305 0.563 0.51492 0.0
C5641 C 0.10764 0.55477 0.51429 0.0
C5642 C 0.11531 0.57113 0.51506 0.0
C5643 C 0.10677 0.58337 0.51557 0.0
C5644 C 0.0907 0.57928 0.51524 0.0
C5645 C 0.13228 0.57555 0.51539 0.0
C5646 C 0.14055 0.58628 0.52892 0.0
C5647 C 0.14028 0.56924 0.50257 0.0
C5648 C 0.13208 0.55859 0.48757 0.0
C5649 C 0.1212 0.56396 0.47836 0.0
C5650 C 0.11393 0.55412 0.46393 0.0
C5651 C 0.11754 0.53894 0.45851 0.0
C5652 C 0.12828 0.53347 0.4676 0.0
C5653 C 0.13558 0.54326 0.48205 0.0
H5654 H 0.11201 0.53142 0.44725 0.0
H5655 H 0.18653 0.63144 0.58325 0.0
H5656 H 0.75524 0.97639 0.74987 0.0
H5657 H 0.76721 0.9533 0.75163 0.0
H5658 H 0.72813 0.9203 0.72285 0.0
H5659 H 0.71594 0.94353 0.72131 0.0
H5660 H 0.73358 0.91043 0.75025 0.0
H5661 H 0.76395 0.92426 0.7087 0.0
H5662 H 0.7802 0.94185 0.6929 0.0
H5663 H 0.81531 0.95741 0.73242 0.0
H5664 H 0.79919 0.94012 0.74858 0.0
H5665 H 0.7777 0.85417 0.77546 0.0
H5666 H 0.76393 0.86721 0.75732 0.0
H5667 H 0.79016 0.9148 0.78108 0.0
H5668 H 0.80397 0.90188 0.79908 0.0
H5669 H 0.78908 0.90996 0.7472 0.0
H5670 H 0.75061 0.90629 0.7896 0.0
H5671 H 0.73268 0.89066 0.80573 0.0
H5672 H 0.71354 0.85522 0.76321 0.0
H5673 H 0.73111 0.87093 0.74682 0.0
C5674 C 0.74935 0.96426 0.74365 0.0
C5675 C 0.73464 0.96169 0.73558 0.0
C5676 C 0.75626 0.95108 0.7445 0.0
C5677 C 0.74862 0.93506 0.73725 0.0
C5678 C 0.73426 0.93257 0.72844 0.0
C5679 C 0.72735 0.94583 0.72752 0.0
C5680 C 0.75479 0.92104 0.74099 0.0
C5681 C 0.74559 0.90997 0.74906 0.0
C5682 C 0.77046 0.92045 0.73953 0.0
C5683 C 0.78031 0.93087 0.72988 0.0
C5684 C 0.77509 0.9315 0.71407 0.0
C5685 C 0.78429 0.94142 0.70504 0.0
C5686 C 0.79878 0.95074 0.71165 0.0
C5687 C 0.8041 0.95016 0.7273 0.0
C5688 C 0.79494 0.94026 0.7364 0.0
C5689 C 0.78054 0.86741 0.77671 0.0
C5690 C 0.79193 0.87706 0.78861 0.0
C5691 C 0.77262 0.87482 0.76644 0.0
C5692 C 0.77607 0.89194 0.76788 0.0
C5693 C 0.7874 0.90155 0.77976 0.0
C5694 C 0.79521 0.89419 0.79008 0.0
C5695 C 0.76805 0.90015 0.75711 0.0
C5696 C 0.77693 0.91005 0.74773 0.0
C5697 C 0.75208 0.89957 0.7572 0.0
C5698 C 0.74217 0.88967 0.76707 0.0
C5699 C 0.74259 0.89514 0.78375 0.0
C5700 C 0.7324 0.88636 0.79288 0.0
C5701 C 0.72192 0.872 0.78547 0.0
C5702 C 0.72162 0.86638 0.76891 0.0
C5703 C 0.73162 0.87525 0.75969 0.0
H5704 H 0.71409 0.86519 0.79258 0.0
H5705 H 0.80588 0.95842 0.70464 0.0
H5706 H 0.71677 0.92333 0.53575 0.0
H5707 H 0.69582 0.93805 0.53489 0.0
H5708 H 0.72828 0.98102 0.52744 0.0
H5709 H 0.7493 0.96642 0.52839 0.0
H5710 H 0.70761 0.98792 0.55059 0.0
H5711 H 0.70596 0.95709 0.4963 0.0
H5712 H 0.70396 0.93174 0.47628 0.0
H5713 H 0.65983 0.91151 0.49155 0.0
H5714 H 0.66168 0.93667 0.51182 0.0
H5715 H 0.66212 0.03669 0.52107 0.0
H5716 H 0.68035 0.02009 0.5264 0.0
H5717 H 0.64281 0.97791 0.52315 0.0
H5718 H 0.62449 0.99426 0.51662 0.0
H5719 H 0.66446 0.96875 0.50761 0.0
H5720 H 0.66406 0.99904 0.56009 0.0
H5721 H 0.66524 0.02333 0.58122 0.0
H5722 H 0.71167 0.04316 0.57157 0.0
H5723 H 0.71071 0.0191 0.55021 0.0
C5724 C 0.71946 0.93596 0.53405 0.0
C5725 C 0.7347 0.94369 0.53209 0.0
C5726 C 0.70746 0.94432 0.53347 0.0
C5727 C 0.71047 0.96061 0.53101 0.0
C5728 C 0.7257 0.96845 0.52934 0.0
C5729 C 0.73767 0.96005 0.52976 0.0
C5730 C 0.69775 0.96945 0.5299 0.0
C5731 C 0.69823 0.98384 0.54112 0.0
C5732 C 0.68519 0.96374 0.51795 0.0
C5733 C 0.68404 0.94868 0.50569 0.0
C5734 C 0.69589 0.94718 0.49547 0.0
C5735 C 0.69477 0.93286 0.48406 0.0
C5736 C 0.6818 0.92 0.48267 0.0
C5737 C 0.66989 0.92147 0.49265 0.0
C5738 C 0.67096 0.93576 0.5041 0.0
C5739 C 0.65767 0.02386 0.52136 0.0
C5740 C 0.64177 0.01684 0.51823 0.0
C5741 C 0.66815 0.0144 0.5247 0.0
C5742 C 0.66301 0.99773 0.52543 0.0
C5743 C 0.6471 0.99074 0.52271 0.0
C5744 C 0.6366 1.00018 0.51914 0.0
C5745 C 0.67439 0.98752 0.52815 0.0
C5746 C 0.67369 0.97282 0.51723 0.0
C5747 C 0.6866 0.9928 0.54058 0.0
C5748 C 0.68727 0.0073 0.55345 0.0
C5749 C 0.67449 0.00863 0.56239 0.0
C5750 C 0.67512 0.02236 0.57442 0.0
C5751 C 0.68851 0.0348 0.57771 0.0
C5752 C 0.7013 0.03352 0.569 0.0
C5753 C 0.70073 0.01983 0.55694 0.0
H5754 H 0.68898 0.04541 0.58703 0.0
H5755 H 0.68095 0.90893 0.47383 0.0
H5756 H 0.39989 0.46864 0.77063 0.0
H5757 H 0.38733 0.44005 0.77001 0.0
H5758 H 0.34276 0.45237 0.76668 0.0
H5759 H 0.35532 0.48114 0.76749 0.0
H5760 H 0.34041 0.43101 0.78494 0.0
H5761 H 0.35937 0.43072 0.73342 0.0
H5762 H 0.37822 0.43591 0.71344 0.0
H5763 H 0.4054 0.40605 0.73263 0.0
H5764 H 0.38681 0.40086 0.75289 0.0
H5765 H 0.29993 0.34606 0.75465 0.0
H5766 H 0.31216 0.37491 0.75531 0.0
H5767 H 0.35401 0.36773 0.77793 0.0
H5768 H 0.34154 0.33914 0.77826 0.0
H5769 H 0.35703 0.38603 0.74939 0.0
H5770 H 0.33633 0.38682 0.80121 0.0
H5771 H 0.31548 0.3807 0.8189 0.0
H5772 H 0.28929 0.40914 0.79608 0.0
H5773 H 0.30989 0.41519 0.77804 0.0
C5774 C 0.3874 0.46536 0.76959 0.0
C5775 C 0.37879 0.47756 0.76897 0.0
C5776 C 0.38013 0.44879 0.76921 0.0
C5777 C 0.36389 0.44355 0.76796 0.0
C5778 C 0.35525 0.45575 0.76762 0.0
C5779 C 0.36253 0.47238 0.76811 0.0
C5780 C 0.35604 0.42554 0.76711 0.0
C5781 C 0.34402 0.4213 0.77697 0.0
C5782 C 0.36052 0.41241 0.75688 0.0
C5783 C 0.37178 0.41555 0.74479 0.0
C5784 C 0.36943 0.42537 0.73347 0.0
C5785 C 0.38006 0.42829 0.72208 0.0
C5786 C 0.39302 0.42135 0.7218 0.0
C5787 C 0.39537 0.41144 0.73289 0.0
C5788 C 0.38478 0.4085 0.74432 0.0
C5789 C 0.3116 0.3506 0.76011 0.0
C5790 C 0.31942 0.34005 0.7668 0.0
C5791 C 0.31871 0.3672 0.76031 0.0
C5792 C 0.3341 0.37377 0.76676 0.0
C5793 C 0.34216 0.36315 0.7729 0.0
C5794 C 0.33492 0.34667 0.77308 0.0
C5795 C 0.34166 0.39168 0.76729 0.0
C5796 C 0.35354 0.39584 0.75734 0.0
C5797 C 0.33686 0.40472 0.77718 0.0
C5798 C 0.32457 0.40131 0.78816 0.0
C5799 C 0.32606 0.39165 0.79986 0.0
C5800 C 0.3143 0.38821 0.80997 0.0
C5801 C 0.30104 0.39449 0.80859 0.0
C5802 C 0.29955 0.40426 0.79712 0.0
C5803 C 0.31127 0.40771 0.78696 0.0
H5804 H 0.29195 0.39181 0.81642 0.0
H5805 H 0.40123 0.42362 0.71296 0.0
H5806 H 0.22284 0.6163 0.24445 0.0
H5807 H 0.23435 0.64547 0.24878 0.0
H5808 H 0.27835 0.63607 0.26352 0.0
H5809 H 0.26671 0.60658 0.25934 0.0
H5810 H 0.27219 0.66072 0.28388 0.0
H5811 H 0.27262 0.64858 0.22736 0.0
H5812 H 0.26324 0.6371 0.19899 0.0
H5813 H 0.22869 0.66593 0.20207 0.0
H5814 H 0.23767 0.67738 0.23054 0.0
H5815 H 0.30292 0.7468 0.28748 0.0
H5816 H 0.29787 0.71678 0.28229 0.0
H5817 H 0.25092 0.71479 0.26472 0.0
H5818 H 0.25624 0.74477 0.26948 0.0
H5819 H 0.2623 0.69539 0.24475 0.0
H5820 H 0.26036 0.70365 0.30214 0.0
H5821 H 0.26939 0.71423 0.33076 0.0
H5822 H 0.30941 0.6936 0.32463 0.0
H5823 H 0.30053 0.68271 0.29596 0.0
C5824 C 0.23505 0.62036 0.24826 0.0
C5825 C 0.24392 0.60914 0.25139 0.0
C5826 C 0.24163 0.63707 0.25075 0.0
C5827 C 0.25729 0.64294 0.25619 0.0
C5828 C 0.26626 0.63178 0.25923 0.0
C5829 C 0.25961 0.61498 0.25685 0.0
C5830 C 0.26381 0.66086 0.25957 0.0
C5831 C 0.27059 0.66832 0.27511 0.0
C5832 C 0.26141 0.67079 0.24826 0.0
C5833 C 0.25575 0.66374 0.23117 0.0
C5834 C 0.26291 0.65235 0.22205 0.0
C5835 C 0.25769 0.64587 0.20593 0.0
C5836 C 0.24536 0.65075 0.19874 0.0
C5837 C 0.23823 0.66214 0.20766 0.0
C5838 C 0.24339 0.66864 0.22379 0.0
C5839 C 0.29163 0.73989 0.28228 0.0
C5840 C 0.28026 0.7479 0.2777 0.0
C5841 C 0.28866 0.72276 0.27958 0.0
C5842 C 0.27404 0.71349 0.27299 0.0
C5843 C 0.26239 0.72165 0.2695 0.0
C5844 C 0.26545 0.73873 0.272 0.0
C5845 C 0.27096 0.69534 0.26885 0.0
C5846 C 0.26467 0.68783 0.25321 0.0
C5847 C 0.27417 0.68546 0.27991 0.0
C5848 C 0.27986 0.6925 0.29691 0.0
C5849 C 0.27117 0.70152 0.30686 0.0
C5850 C 0.27623 0.70754 0.32308 0.0
C5851 C 0.28999 0.70467 0.32947 0.0
C5852 C 0.29876 0.69582 0.31965 0.0
C5853 C 0.29369 0.68966 0.30343 0.0
H5854 H 0.29374 0.70917 0.34208 0.0
H5855 H 0.24134 0.64574 0.18625 0.0
H5856 H 0.50037 0.67928 0.45351 0.0
H5857 H 0.50349 0.65509 0.46445 0.0
H5858 H 0.55116 0.67794 0.47957 0.0
H5859 H 0.54811 0.70221 0.46899 0.0
H5860 H 0.54944 0.64779 0.46504 0.0
H5861 H 0.52283 0.67304 0.50631 0.0
H5862 H 0.50203 0.68493 0.51836 0.0
H5863 H 0.46972 0.63894 0.50263 0.0
H5864 H 0.49023 0.62687 0.49005 0.0
H5865 H 0.53627 0.58472 0.52625 0.0
H5866 H 0.53503 0.61148 0.51912 0.0
H5867 H 0.53874 0.59165 0.46935 0.0
H5868 H 0.54111 0.56571 0.47664 0.0
H5869 H 0.5159 0.62164 0.50275 0.0
H5870 H 0.54786 0.61164 0.44818 0.0
H5871 H 0.57133 0.60367 0.43799 0.0
H5872 H 0.59638 0.62472 0.48402 0.0
H5873 H 0.57291 0.63247 0.4945 0.0
C5874 C 0.51148 0.67934 0.45938 0.0
C5875 C 0.524 0.69289 0.46016 0.0
C5876 C 0.51325 0.66539 0.46565 0.0
C5877 C 0.52758 0.66453 0.47296 0.0
C5878 C 0.53999 0.6781 0.47395 0.0
C5879 C 0.53823 0.69204 0.46775 0.0
C5880 C 0.52994 0.64932 0.47888 0.0
C5881 C 0.54205 0.64214 0.4733 0.0
C5882 C 0.52052 0.64181 0.48982 0.0
C5883 C 0.50806 0.64911 0.49705 0.0
C5884 C 0.51125 0.66551 0.50521 0.0
C5885 C 0.49951 0.67228 0.51215 0.0
C5886 C 0.48454 0.66272 0.51117 0.0
C5887 C 0.4813 0.64635 0.50326 0.0
C5888 C 0.49297 0.63955 0.49621 0.0
C5889 C 0.53743 0.58635 0.51392 0.0
C5890 C 0.53948 0.57325 0.50214 0.0
C5891 C 0.53651 0.60162 0.50975 0.0
C5892 C 0.53733 0.6041 0.49365 0.0
C5893 C 0.53894 0.59074 0.48195 0.0
C5894 C 0.54009 0.57569 0.48613 0.0
C5895 C 0.53539 0.62004 0.48882 0.0
C5896 C 0.5233 0.62732 0.49452 0.0
C5897 C 0.54492 0.62785 0.47812 0.0
C5898 C 0.5586 0.62213 0.47225 0.0
C5899 C 0.55834 0.61431 0.45617 0.0
C5900 C 0.57162 0.60985 0.45034 0.0
C5901 C 0.58531 0.61354 0.4604 0.0
C5902 C 0.58574 0.62172 0.47629 0.0
C5903 C 0.57241 0.62596 0.48224 0.0
H5904 H 0.5956 0.61017 0.45585 0.0
H5905 H 0.47548 0.66796 0.5166 0.0
H5906 H 0.64835 0.32309 0.69341 0.0
H5907 H 0.67237 0.32115 0.70749 0.0
H5908 H 0.68798 0.30125 0.66251 0.0
H5909 H 0.66451 0.30403 0.64812 0.0
H5910 H 0.69119 0.28324 0.68874 0.0
H5911 H 0.70371 0.33821 0.67741 0.0
H5912 H 0.69964 0.36618 0.67784 0.0
H5913 H 0.70251 0.37493 0.72953 0.0
H5914 H 0.70637 0.34691 0.72939 0.0
H5915 H 0.76783 0.28425 0.71721 0.0
H5916 H 0.74532 0.28788 0.70168 0.0
H5917 H 0.73571 0.32133 0.74245 0.0
H5918 H 0.75869 0.31855 0.75754 0.0
H5919 H 0.72912 0.3323 0.71784 0.0
H5920 H 0.71554 0.27872 0.73066 0.0
H5921 H 0.7185 0.25068 0.73204 0.0
H5922 H 0.71586 0.23883 0.68042 0.0
H5923 H 0.71308 0.26689 0.67873 0.0
C5924 C 0.65693 0.31858 0.68635 0.0
C5925 C 0.6542 0.31373 0.66945 0.0
C5926 C 0.67067 0.31733 0.69452 0.0
C5927 C 0.68202 0.311 0.6861 0.0
C5928 C 0.67937 0.30604 0.66932 0.0
C5929 C 0.66578 0.30756 0.6611 0.0
C5930 C 0.69665 0.3096 0.69475 0.0
C5931 C 0.69959 0.29397 0.69493 0.0
C5932 C 0.70743 0.32354 0.70328 0.0
C5933 C 0.70517 0.3404 0.70338 0.0
C5934 C 0.70333 0.34604 0.68886 0.0
C5935 C 0.70109 0.36192 0.68906 0.0
C5936 C 0.70077 0.37231 0.7037 0.0
C5937 C 0.70273 0.36686 0.71819 0.0
C5938 C 0.70496 0.35099 0.71806 0.0
C5939 C 0.76099 0.29244 0.7229 0.0
C5940 C 0.76495 0.3007 0.73897 0.0
C5941 C 0.74796 0.29441 0.714 0.0
C5942 C 0.73834 0.3045 0.72095 0.0
C5943 C 0.74268 0.31328 0.73673 0.0
C5944 C 0.75582 0.31151 0.74552 0.0
C5945 C 0.72377 0.30586 0.71193 0.0
C5946 C 0.72079 0.3215 0.71167 0.0
C5947 C 0.71278 0.29189 0.70363 0.0
C5948 C 0.71425 0.27495 0.70458 0.0
C5949 C 0.71567 0.27016 0.7196 0.0
C5950 C 0.7173 0.25426 0.72044 0.0
C5951 C 0.7174 0.24299 0.70632 0.0
C5952 C 0.7158 0.24758 0.69134 0.0
C5953 C 0.71418 0.26347 0.69043 0.0
H5954 H 0.7187 0.2307 0.707 0.0
H5955 H 0.69904 0.3846 0.70383 0.0
H5956 H 0.03599 0.35861 0.98994 0.0
H5957 H 0.0385 0.38813 0.99972 0.0
H5958 H 0.02021 0.39316 0.95317 0.0
H5959 H 0.0178 0.36382 0.94331 0.0
H5960 H 0.04652 0.41667 0.9646 0.0
H5961 H 0.99837 0.39378 0.98522 0.0
H5962 H 0.98222 0.37615 1.0011 0.0
H5963 H 0.011 0.40075 0.04414 0.0
H5964 H 0.02745 0.41838 0.02848 0.0
H5965 H 0.03505 0.49614 0.97717 0.0
H5966 H 0.03003 0.46621 0.97156 0.0
H5967 H 0.04163 0.46631 0.0217 0.0
H5968 H 0.04582 0.49644 0.02746 0.0
H5969 H 0.02025 0.4401 0.0105 0.0
H5970 H 0.06824 0.46275 0.99209 0.0
H5971 H 0.08612 0.48048 0.97773 0.0
H5972 H 0.06071 0.45625 0.93263 0.0
H5973 H 0.04253 0.43852 0.94674 0.0
C5974 C 0.03249 0.366 0.98179 0.0
C5975 C 0.0266 0.35875 0.96584 0.0
C5976 C 0.03384 0.38288 0.98744 0.0
C5977 C 0.02943 0.39293 0.97724 0.0
C5978 C 0.02363 0.38572 0.96132 0.0
C5979 C 0.02215 0.36887 0.95572 0.0
C5980 C 0.0313 0.41104 0.98284 0.0
C5981 C 0.04062 0.42176 0.97452 0.0
C5982 C 0.02418 0.41782 0.99625 0.0
C5983 C 0.01424 0.40728 0.00565 0.0
C5984 C 1.00133 0.39534 0.99805 0.0
C5985 C 0.99211 0.38536 0.00701 0.0
C5986 C 0.99561 0.38729 0.02361 0.0
C5987 C 0.00831 0.39925 0.03128 0.0
C5988 C 0.01758 0.40924 0.02237 0.0
C5989 C 0.03623 0.48974 0.98704 0.0
C5990 C 0.04071 0.4986 1.00274 0.0
C5991 C 0.03351 0.47261 0.98382 0.0
C5992 C 0.03593 0.46386 0.99607 0.0
C5993 C 0.03978 0.47267 0.01196 0.0
C5994 C 0.04216 0.48991 0.01528 0.0
C5995 C 0.03519 0.44574 0.99197 0.0
C5996 C 0.02619 0.43503 1.0006 0.0
C5997 C 0.04292 0.43891 0.97907 0.0
C5998 C 0.05396 0.44939 0.97049 0.0
C5999 C 0.06642 0.46126 0.97912 0.0
C6000 C 0.07661 0.4713 0.97102 0.0
C6001 C 0.07454 0.46951 0.95428 0.0
C6002 C 0.0623 0.45763 0.9456 0.0
C6003 C 0.05205 0.44756 0.95364 0.0
H6004 H 0.08243 0.47731 0.94803 0.0
H6005 H 0.98845 0.37956 0.03053 0.0
H6006 H 0.98583 0.80298 0.15075 0.0
H6007 H 0.96253 0.80057 0.16522 0.0
H6008 H 0.99047 0.80868 0.21021 0.0
H6009 H 0.01377 0.81077 0.19574 0.0
H6010 H 0.96691 0.78527 0.2105 0.0
H6011 H 0.97256 0.83883 0.19699 0.0
H6012 H 0.97539 0.85912 0.17904 0.0
H6013 H 0.93195 0.83411 0.15299 0.0
H6014 H 0.92895 0.81353 0.17067 0.0
H6015 H 0.91391 0.80488 0.26539 0.0
H6016 H 0.93502 0.80818 0.24804 0.0
H6017 H 0.90266 0.78956 0.2061 0.0
H6018 H 0.88129 0.7858 0.22352 0.0
H6019 H 0.92701 0.81713 0.20286 0.0
H6020 H 0.92133 0.7642 0.21774 0.0
H6021 H 0.91868 0.74488 0.23668 0.0
H6022 H 0.96282 0.76999 0.26112 0.0
H6023 H 0.96562 0.78963 0.24247 0.0
C6024 C 0.98703 0.8044 0.16375 0.0
C6025 C 1.00173 0.80713 0.17206 0.0
C6026 C 0.97366 0.80304 0.17204 0.0
C6027 C 0.97463 0.80467 0.18892 0.0
C6028 C 0.98931 0.80735 0.19722 0.0
C6029 C 1.00267 0.80852 0.18891 0.0
C6030 C 0.96041 0.80323 0.19792 0.0
C6031 C 0.95833 0.79242 0.20891 0.0
C6032 C 0.94885 0.81217 0.19566 0.0
C6033 C 0.95062 0.82454 0.18504 0.0
C6034 C 0.96367 0.83758 0.18736 0.0
C6035 C 0.96529 0.84915 0.17724 0.0
C6036 C 0.95388 0.84788 0.16485 0.0
C6037 C 0.9408 0.83506 0.16258 0.0
C6038 C 0.93912 0.82345 0.17265 0.0
C6039 C 0.91119 0.80143 0.25248 0.0
C6040 C 0.89585 0.79472 0.24591 0.0
C6041 C 0.92332 0.80341 0.24256 0.0
C6042 C 0.9205 0.79886 0.22576 0.0
C6043 C 0.90514 0.79309 0.21904 0.0
C6044 C 0.89292 0.79099 0.22902 0.0
C6045 C 0.93376 0.7994 0.21551 0.0
C6046 C 0.93562 0.80997 0.20432 0.0
C6047 C 0.94521 0.79036 0.21765 0.0
C6048 C 0.94363 0.77847 0.22879 0.0
C6049 C 0.93042 0.76568 0.22723 0.0
C6050 C 0.9289 0.75466 0.2379 0.0
C6051 C 0.94056 0.75623 0.25012 0.0
C6052 C 0.95379 0.7688 0.25166 0.0
C6053 C 0.95536 0.77987 0.24103 0.0
H6054 H 0.93936 0.74769 0.25837 0.0
H6055 H 0.95516 0.85685 0.15704 0.0
H6056 H 0.50086 0.3503 0.10346 0.0
H6057 H 0.50458 0.371 0.08625 0.0
H6058 H 0.55375 0.37434 0.09087 0.0
H6059 H 0.55015 0.35387 0.10834 0.0
H6060 H 0.54612 0.40478 0.09334 0.0
H6061 H 0.53296 0.35173 0.05815 0.0
H6062 H 0.5168 0.32413 0.04785 0.0
H6063 H 0.47869 0.34539 0.03653 0.0
H6064 H 0.49456 0.37312 0.04699 0.0
H6065 H 0.56879 0.43756 0.02359 0.0
H6066 H 0.56357 0.41886 0.04287 0.0
H6067 H 0.51568 0.42189 0.04014 0.0
H6068 H 0.52093 0.44086 0.02116 0.0
H6069 H 0.52154 0.38911 0.03732 0.0
H6070 H 0.53445 0.44196 0.07087 0.0
H6071 H 0.54948 0.46976 0.08241 0.0
H6072 H 0.58701 0.44959 0.09773 0.0
H6073 H 0.57232 0.42164 0.08598 0.0
C6074 C 0.51248 0.35562 0.10099 0.0
C6075 C 0.52521 0.35042 0.10716 0.0
C6076 C 0.51457 0.36735 0.09109 0.0
C6077 C 0.52942 0.37404 0.08718 0.0
C6078 C 0.5422 0.36927 0.09372 0.0
C6079 C 0.54011 0.3575 0.10358 0.0
C6080 C 0.53161 0.38557 0.07578 0.0
C6081 C 0.54092 0.40132 0.08103 0.0
C6082 C 0.52442 0.38114 0.05989 0.0
C6083 C 0.5149 0.36448 0.05351 0.0
C6084 C 0.52109 0.35051 0.05358 0.0
C6085 C 0.512 0.33485 0.0477 0.0
C6086 C 0.49672 0.33301 0.04158 0.0
C6087 C 0.49052 0.34683 0.04129 0.0
C6088 C 0.49956 0.36252 0.04719 0.0
C6089 C 0.55713 0.434 0.02696 0.0
C6090 C 0.54521 0.44045 0.02088 0.0
C6091 C 0.5542 0.42351 0.03804 0.0
C6092 C 0.53929 0.41919 0.04298 0.0
C6093 C 0.52726 0.42517 0.03648 0.0
C6094 C 0.53024 0.4359 0.02564 0.0
C6095 C 0.53623 0.40824 0.0548 0.0
C6096 C 0.52674 0.3926 0.04963 0.0
C6097 C 0.54321 0.41283 0.07078 0.0
C6098 C 0.55235 0.42968 0.07729 0.0
C6099 C 0.54601 0.44344 0.07644 0.0
C6100 C 0.55445 0.45923 0.08309 0.0
C6101 C 0.56922 0.46144 0.09073 0.0
C6102 C 0.57559 0.44786 0.09174 0.0
C6103 C 0.56721 0.43204 0.08508 0.0
H6104 H 0.57571 0.47367 0.09594 0.0
H6105 H 0.48969 0.32087 0.03702 0.0
H6106 H 0.00765 0.32893 0.36132 0.0
H6107 H 0.98353 0.33203 0.34876 0.0
H6108 H 0.98103 0.28744 0.31437 0.0
H6109 H 0.00584 0.2848 0.32629 0.0
H6110 H 0.97386 0.30973 0.2995 0.0
H6111 H 0.95738 0.2892 0.34612 0.0
H6112 H 0.9576 0.28739 0.3749 0.0
H6113 H 0.94907 0.33594 0.38629 0.0
H6114 H 0.94901 0.33814 0.3576 0.0
H6115 H 0.89427 0.30632 0.27479 0.0
H6116 H 0.91807 0.30013 0.28555 0.0
H6117 H 0.92985 0.34822 0.31561 0.0
H6118 H 0.90609 0.3545 0.30485 0.0
H6119 H 0.93117 0.32169 0.332 0.0
H6120 H 0.94898 0.34171 0.28445 0.0
H6121 H 0.94801 0.34211 0.25535 0.0
H6122 H 0.95277 0.29205 0.2455 0.0
H6123 H 0.95355 0.29129 0.27455 0.0
C6124 C 1.0021 0.31984 0.35098 0.0
C6125 C 0.00879 0.30667 0.34475 0.0
C6126 C 0.98814 0.3215 0.34395 0.0
C6127 C 0.98032 0.30984 0.33077 0.0
C6128 C 0.98683 0.29656 0.32459 0.0
C6129 C 1.00094 0.29498 0.33151 0.0
C6130 C 0.96563 0.31195 0.32317 0.0
C6131 C 0.96442 0.31204 0.30658 0.0
C6132 C 0.95335 0.31516 0.33241 0.0
C6133 C 0.95331 0.31388 0.3497 0.0
C6134 C 0.95565 0.29954 0.35477 0.0
C6135 C 0.95573 0.29844 0.37107 0.0
C6136 C 0.95338 0.31155 0.38242 0.0
C6137 C 0.9509 0.32579 0.37749 0.0
C6138 C 0.95082 0.32696 0.3612 0.0
C6139 C 0.90202 0.31559 0.28361 0.0
C6140 C 0.89839 0.33089 0.289 0.0
C6141 C 0.91559 0.31207 0.28969 0.0
C6142 C 0.92567 0.32374 0.30135 0.0
C6143 C 0.92218 0.33908 0.30661 0.0
C6144 C 0.9087 0.34269 0.30039 0.0
C6145 C 0.93961 0.31974 0.30848 0.0
C6146 C 0.94061 0.31925 0.32497 0.0
C6147 C 0.95156 0.31591 0.29911 0.0
C6148 C 0.95115 0.31639 0.28166 0.0
C6149 C 0.94968 0.33074 0.27607 0.0
C6150 C 0.94919 0.33104 0.25958 0.0
C6151 C 0.95028 0.3171 0.24858 0.0
C6152 C 0.9519 0.30284 0.25404 0.0
C6153 C 0.95238 0.30247 0.27051 0.0
H6154 H 0.94991 0.31736 0.23582 0.0
H6155 H 0.95345 0.31068 0.39504 0.0
H6156 H 0.98411 0.68555 0.61597 0.0
H6157 H 0.98614 0.65899 0.60079 0.0
H6158 H 0.01742 0.68338 0.57062 0.0
H6159 H 0.01443 0.70988 0.58478 0.0
H6160 H 1.00099 0.65742 0.55326 0.0
H6161 H 0.02944 0.66931 0.60615 0.0
H6162 H 0.03223 0.67521 0.63587 0.0
H6163 H 0.99971 0.63026 0.6368 0.0
H6164 H 0.99666 0.62415 0.60709 0.0
H6165 H 0.05216 0.59397 0.55616 0.0
H6166 H 0.04246 0.61764 0.56865 0.0
H6167 H 0.99963 0.59932 0.53858 0.0
H6168 H 0.00942 0.57594 0.52566 0.0
H6169 H 0.0191 0.62048 0.58587 0.0
H6170 H 0.98497 0.63068 0.53052 0.0
H6171 H 0.98496 0.62537 0.5009 0.0
H6172 H 0.03389 0.62847 0.50515 0.0
H6173 H 0.03418 0.6339 0.53477 0.0
C6174 C 0.99107 0.6853 0.6058 0.0
C6175 C 0.99933 0.69993 0.6018 0.0
C6176 C 0.99238 0.67006 0.59727 0.0
C6177 C 1.00228 0.66917 0.58486 0.0
C6178 C 0.00981 0.68372 0.58025 0.0
C6179 C 0.00826 0.69891 0.58853 0.0
C6180 C 0.0057 0.65331 0.57729 0.0
C6181 C 0.00485 0.6493 0.56041 0.0
C6182 C 0.01084 0.6427 0.58658 0.0
C6183 C 0.01268 0.64639 0.60443 0.0
C6184 C 0.02282 0.66075 0.61271 0.0
C6185 C 0.02446 0.66411 0.62955 0.0
C6186 C 0.01612 0.65314 0.63822 0.0
C6187 C 0.00614 0.63876 0.63007 0.0
C6188 C 0.00446 0.63533 0.61324 0.0
C6189 C 0.04072 0.59503 0.55214 0.0
C6190 C 0.03164 0.58319 0.53981 0.0
C6191 C 0.03515 0.60851 0.55935 0.0
C6192 C 0.02038 0.61032 0.55445 0.0
C6193 C 0.01117 0.59834 0.54234 0.0
C6194 C 0.01681 0.58498 0.53497 0.0
C6195 C 0.01476 0.62489 0.56192 0.0
C6196 C 0.01508 0.62854 0.57875 0.0
C6197 C 0.00953 0.63537 0.55262 0.0
C6198 C 0.00955 0.63256 0.53483 0.0
C6199 C 0.99572 0.63031 0.52512 0.0
C6200 C 0.99567 0.62725 0.50834 0.0
C6201 C 0.00941 0.62655 0.50115 0.0
C6202 C 0.02324 0.62898 0.51073 0.0
C6203 C 0.02336 0.63201 0.52751 0.0
H6204 H 0.00934 0.62413 0.48816 0.0
H6205 H 0.01743 0.65575 0.65125 0.0
H6206 H 0.64326 0.82004 0.81227 0.0
H6207 H 0.66652 0.82564 0.79781 0.0
H6208 H 0.69455 0.82313 0.84009 0.0
H6209 H 0.67148 0.81818 0.85461 0.0
H6210 H 0.70852 0.84712 0.82737 0.0
H6211 H 0.68291 0.79055 0.80668 0.0
H6212 H 0.66193 0.76768 0.79315 0.0
H6213 H 0.66291 0.78885 0.75048 0.0
H6214 H 0.68379 0.81198 0.76386 0.0
H6215 H 0.77107 0.81374 0.8085 0.0
H6216 H 0.74694 0.82142 0.81566 0.0
H6217 H 0.73696 0.82667 0.76657 0.0
H6218 H 0.761 0.8182 0.75933 0.0
H6219 H 0.71264 0.81011 0.77651 0.0
H6220 H 0.74672 0.85915 0.7971 0.0
H6221 H 0.76889 0.87978 0.81138 0.0
H6222 H 0.75514 0.86791 0.85662 0.0
H6223 H 0.73257 0.84741 0.84268 0.0
C6224 C 0.65443 0.82068 0.81839 0.0
C6225 C 0.65565 0.81864 0.83449 0.0
C6226 C 0.66769 0.8239 0.81016 0.0
C6227 C 0.6823 0.82472 0.81783 0.0
C6228 C 0.68344 0.82272 0.83395 0.0
C6229 C 0.67027 0.8198 0.84222 0.0
C6230 C 0.69645 0.82695 0.80909 0.0
C6231 C 0.70954 0.83878 0.81642 0.0
C6232 C 0.69753 0.81675 0.79427 0.0
C6233 C 0.68467 0.80316 0.78637 0.0
C6234 C 0.67849 0.79045 0.79449 0.0
C6235 C 0.66667 0.77741 0.78683 0.0
C6236 C 0.66103 0.77686 0.771 0.0
C6237 C 0.66724 0.78933 0.76278 0.0
C6238 C 0.67906 0.80242 0.77039 0.0
C6239 C 0.7635 0.81618 0.79922 0.0
C6240 C 0.76719 0.81441 0.78323 0.0
C6241 C 0.74994 0.82097 0.80335 0.0
C6242 C 0.74019 0.82477 0.79167 0.0
C6243 C 0.74428 0.82374 0.77575 0.0
C6244 C 0.75787 0.81881 0.77161 0.0
C6245 C 0.72517 0.8284 0.79606 0.0
C6246 C 0.71175 0.81821 0.78761 0.0
C6247 C 0.724 0.83952 0.81022 0.0
C6248 C 0.73772 0.85179 0.81877 0.0
C6249 C 0.74832 0.86091 0.8101 0.0
C6250 C 0.76102 0.8726 0.81815 0.0
C6251 C 0.76349 0.87511 0.83489 0.0
C6252 C 0.75318 0.866 0.84364 0.0
C6253 C 0.74033 0.85443 0.83566 0.0
H6254 H 0.77338 0.88412 0.84109 0.0
H6255 H 0.65189 0.76674 0.76508 0.0
H6256 H 0.45466 0.53876 0.68075 0.0
H6257 H 0.4661 0.5355 0.65505 0.0
H6258 H 0.49882 0.58134 0.6711 0.0
H6259 H 0.48736 0.58474 0.69686 0.0
H6260 H 0.49169 0.58048 0.64118 0.0
H6261 H 0.50734 0.53967 0.66698 0.0
H6262 H 0.50388 0.51581 0.68058 0.0
H6263 H 0.47539 0.48591 0.63939 0.0
H6264 H 0.47853 0.50967 0.62562 0.0
H6265 H 0.54045 0.56957 0.57645 0.0
H6266 H 0.52954 0.57286 0.60251 0.0
H6267 H 0.49694 0.5268 0.58698 0.0
H6268 H 0.50847 0.52312 0.56121 0.0
H6269 H 0.50419 0.52781 0.61677 0.0
H6270 H 0.48848 0.56872 0.59101 0.0
H6271 H 0.49222 0.59255 0.57735 0.0
H6272 H 0.521 0.62224 0.61845 0.0
H6273 H 0.51758 0.59852 0.63227 0.0
C6274 C 0.46442 0.54816 0.67908 0.0
C6275 C 0.46991 0.56203 0.69148 0.0
C6276 C 0.47108 0.54623 0.6641 0.0
C6277 C 0.48377 0.55796 0.6607 0.0
C6278 C 0.48915 0.57193 0.67296 0.0
C6279 C 0.48244 0.5739 0.68793 0.0
C6280 C 0.49125 0.55579 0.64453 0.0
C6281 C 0.49458 0.56896 0.63607 0.0
C6282 C 0.49494 0.54078 0.63712 0.0
C6283 C 0.49305 0.52649 0.64534 0.0
C6284 C 0.50025 0.52804 0.66087 0.0
C6285 C 0.49836 0.51453 0.6686 0.0
C6286 C 0.48938 0.49937 0.66087 0.0
C6287 C 0.48232 0.49767 0.64537 0.0
C6288 C 0.48416 0.51115 0.6376 0.0
C6289 C 0.5312 0.55992 0.57861 0.0
C6290 C 0.52578 0.54588 0.56645 0.0
C6291 C 0.52462 0.56198 0.59362 0.0
C6292 C 0.51201 0.55025 0.59719 0.0
C6293 C 0.50657 0.53621 0.58501 0.0
C6294 C 0.51322 0.53412 0.57002 0.0
C6295 C 0.5046 0.55248 0.6134 0.0
C6296 C 0.5013 0.53932 0.62187 0.0
C6297 C 0.50093 0.5675 0.62082 0.0
C6298 C 0.50289 0.5818 0.61261 0.0
C6299 C 0.49568 0.58031 0.59709 0.0
C6300 C 0.49773 0.5938 0.58933 0.0
C6301 C 0.50687 0.60889 0.59701 0.0
C6302 C 0.51394 0.61053 0.6125 0.0
C6303 C 0.51194 0.59708 0.62032 0.0
H6304 H 0.50846 0.61931 0.59098 0.0
H6305 H 0.48793 0.48892 0.66687 0.0
H6306 H 0.80718 0.20769 0.94831 0.0
H6307 H 0.8027 0.2215 0.92585 0.0
H6308 H 0.75472 0.19648 0.92001 0.0
H6309 H 0.75913 0.18266 0.94243 0.0
H6310 H 0.76877 0.19783 0.89047 0.0
H6311 H 0.76233 0.23313 0.93954 0.0
H6312 H 0.77018 0.24854 0.96718 0.0
H6313 H 0.81008 0.27707 0.9507 0.0
H6314 H 0.80259 0.26164 0.92299 0.0
H6315 H 0.74749 0.26855 0.85582 0.0
H6316 H 0.74658 0.24784 0.87281 0.0
H6317 H 0.79512 0.25 0.86933 0.0
H6318 H 0.79657 0.27159 0.85355 0.0
H6319 H 0.77728 0.25855 0.90289 0.0
H6320 H 0.78295 0.19821 0.86322 0.0
H6321 H 0.77408 0.18094 0.83652 0.0
H6322 H 0.73421 0.20197 0.8344 0.0
H6323 H 0.74251 0.21886 0.86133 0.0
C6324 C 0.79574 0.20501 0.94209 0.0
C6325 C 0.78346 0.19427 0.94714 0.0
C6326 C 0.79319 0.21291 0.92934 0.0
C6327 C 0.77836 0.21005 0.92142 0.0
C6328 C 0.76623 0.19882 0.92602 0.0
C6329 C 0.76873 0.19107 0.93887 0.0
C6330 C 0.77534 0.21948 0.90894 0.0
C6331 C 0.77056 0.21111 0.89314 0.0
C6332 C 0.77751 0.23673 0.91259 0.0
C6333 C 0.78197 0.24613 0.92922 0.0
C6334 C 0.77284 0.2426 0.94183 0.0
C6335 C 0.77722 0.25135 0.95751 0.0
C6336 C 0.79064 0.26375 0.9607 0.0
C6337 C 0.7997 0.26745 0.94821 0.0
C6338 C 0.79539 0.25871 0.93252 0.0
C6339 C 0.758 0.26464 0.8586 0.0
C6340 C 0.77213 0.27194 0.85335 0.0
C6341 C 0.75735 0.25253 0.86803 0.0
C6342 C 0.77069 0.24709 0.87186 0.0
C6343 C 0.78463 0.25376 0.86609 0.0
C6344 C 0.78539 0.26611 0.857 0.0
C6345 C 0.77092 0.23696 0.88432 0.0
C6346 C 0.77535 0.24526 0.9002 0.0
C6347 C 0.76833 0.21965 0.88069 0.0
C6348 C 0.76358 0.21015 0.86415 0.0
C6349 C 0.77231 0.19919 0.85704 0.0
C6350 C 0.7673 0.18933 0.84193 0.0
C6351 C 0.75361 0.19038 0.83375 0.0
C6352 C 0.74486 0.20124 0.84071 0.0
C6353 C 0.74975 0.21101 0.85589 0.0
H6354 H 0.7498 0.18282 0.82201 0.0
H6355 H 0.79401 0.27052 0.97285 0.0
H6356 H 0.15696 0.52513 0.15735 0.0
H6357 H 0.13946 0.52593 0.1345 0.0
H6358 H 0.10032 0.50807 0.15973 0.0
H6359 H 0.11772 0.50771 0.18295 0.0
H6360 H 0.09896 0.49344 0.12517 0.0
H6361 H 0.1074 0.54564 0.16125 0.0
H6362 H 0.1235 0.57042 0.17843 0.0
H6363 H 0.14628 0.58359 0.13743 0.0
H6364 H 0.13048 0.55873 0.12005 0.0
H6365 H 0.04718 0.5152 0.06963 0.0
H6366 H 0.06023 0.51114 0.09417 0.0
H6367 H 0.10292 0.54017 0.08288 0.0
H6368 H 0.08975 0.54533 0.05913 0.0
H6369 H 0.09988 0.54875 0.11274 0.0
H6370 H 0.09378 0.49635 0.07693 0.0
H6371 H 0.07881 0.47133 0.05908 0.0
H6372 H 0.05299 0.45821 0.09828 0.0
H6373 H 0.06768 0.48328 0.11631 0.0
C6374 C 0.14464 0.52139 0.15808 0.0
C6375 C 0.13872 0.51656 0.17204 0.0
C6376 C 0.13468 0.52174 0.14498 0.0
C6377 C 0.11866 0.51717 0.14557 0.0
C6378 C 0.11268 0.51158 0.15911 0.0
C6379 C 0.12264 0.51135 0.17232 0.0
C6380 C 0.10826 0.51939 0.13243 0.0
C6381 C 0.09893 0.50551 0.12252 0.0
C6382 C 0.10849 0.53515 0.12898 0.0
C6383 C 0.11784 0.55025 0.13937 0.0
C6384 C 0.11592 0.55375 0.15592 0.0
C6385 C 0.12498 0.56782 0.16569 0.0
C6386 C 0.13593 0.57856 0.15903 0.0
C6387 C 0.1378 0.57526 0.14258 0.0
C6388 C 0.12879 0.56119 0.13276 0.0
C6389 C 0.05926 0.52097 0.07253 0.0
C6390 C 0.0673 0.53089 0.06258 0.0
C6391 C 0.06678 0.51842 0.08644 0.0
C6392 C 0.0826 0.52526 0.09032 0.0
C6393 C 0.09068 0.53487 0.08021 0.0
C6394 C 0.08312 0.53774 0.06655 0.0
C6395 C 0.09086 0.52274 0.10499 0.0
C6396 C 0.09976 0.53663 0.11533 0.0
C6397 C 0.09037 0.50696 0.10867 0.0
C6398 C 0.08172 0.49176 0.09792 0.0
C6399 C 0.08486 0.48817 0.08171 0.0
C6400 C 0.07643 0.47398 0.07157 0.0
C6401 C 0.06493 0.46321 0.07754 0.0
C6402 C 0.06188 0.46658 0.09367 0.0
C6403 C 0.07026 0.48076 0.10386 0.0
H6404 H 0.0584 0.45224 0.06966 0.0
H6405 H 0.14294 0.58944 0.16662 0.0
H6406 H 0.77831 0.85633 0.44041 0.0
H6407 H 0.77883 0.84451 0.41202 0.0
H6408 H 0.81318 0.81859 0.4249 0.0
H6409 H 0.81276 0.83045 0.4533 0.0
H6410 H 0.82193 0.83348 0.40132 0.0
H6411 H 0.77515 0.79851 0.41106 0.0
H6412 H 0.74904 0.79166 0.42016 0.0
H6413 H 0.73194 0.81714 0.38592 0.0
H6414 H 0.758 0.82435 0.37677 0.0
H6415 H 0.79584 0.7811 0.31543 0.0
H6416 H 0.79872 0.78639 0.34517 0.0
H6417 H 0.80313 0.83807 0.34576 0.0
H6418 H 0.80103 0.83299 0.3164 0.0
H6419 H 0.77627 0.80649 0.36294 0.0
H6420 H 0.82669 0.84808 0.36111 0.0
H6421 H 0.85386 0.85583 0.35533 0.0
H6422 H 0.86448 0.81691 0.37729 0.0
H6423 H 0.83717 0.80856 0.38262 0.0
C6424 C 0.78575 0.84786 0.43724 0.0
C6425 C 0.79552 0.84437 0.44916 0.0
C6426 C 0.78604 0.84109 0.42096 0.0
C6427 C 0.79596 0.83052 0.41624 0.0
C6428 C 0.80545 0.82673 0.42818 0.0
C6429 C 0.80523 0.83355 0.44443 0.0
C6430 C 0.79727 0.82437 0.39885 0.0
C6431 C 0.81192 0.82739 0.39301 0.0
C6432 C 0.78428 0.81643 0.38788 0.0
C6433 C 0.76857 0.81208 0.39332 0.0
C6434 C 0.76585 0.80276 0.40555 0.0
C6435 C 0.75105 0.7988 0.41071 0.0
C6436 C 0.73885 0.80399 0.40364 0.0
C6437 C 0.74141 0.81313 0.39139 0.0
C6438 C 0.75619 0.81714 0.3862 0.0
C6439 C 0.79807 0.79362 0.32197 0.0
C6440 C 0.79869 0.8067 0.31363 0.0
C6441 C 0.79965 0.79664 0.33893 0.0
C6442 C 0.80174 0.81274 0.34773 0.0
C6443 C 0.80232 0.82569 0.33932 0.0
C6444 C 0.80091 0.82273 0.32251 0.0
C6445 C 0.80085 0.81594 0.36548 0.0
C6446 C 0.78625 0.81236 0.37136 0.0
C6447 C 0.81387 0.8234 0.37653 0.0
C6448 C 0.82975 0.82725 0.3716 0.0
C6449 C 0.83466 0.84078 0.36413 0.0
C6450 C 0.85014 0.84541 0.36112 0.0
C6451 C 0.86087 0.83677 0.36579 0.0
C6452 C 0.85614 0.82352 0.37355 0.0
C6453 C 0.84064 0.81874 0.37644 0.0
H6454 H 0.87286 0.84041 0.3635 0.0
H6455 H 0.7274 0.80091 0.40765 0.0
H6456 H 0.49559 0.56496 0.85131 0.0
H6457 H 0.50738 0.56161 0.87681 0.0
H6458 H 0.46519 0.56454 0.89884 0.0
H6459 H 0.45308 0.56744 0.87331 0.0
H6460 H 0.48826 0.58143 0.92006 0.0
H6461 H 0.47887 0.52724 0.88819 0.0
H6462 H 0.48046 0.5061 0.86474 0.0
H6463 H 0.52992 0.51778 0.87282 0.0
H6464 H 0.52863 0.53916 0.8962 0.0
H6465 H 0.50217 0.55052 0.99106 0.0
H6466 H 0.49283 0.55333 0.96428 0.0
H6467 H 0.5384 0.55507 0.94856 0.0
H6468 H 0.54797 0.55266 0.97585 0.0
H6469 H 0.51534 0.53644 0.92397 0.0
H6470 H 0.52516 0.58982 0.95599 0.0
H6471 H 0.5241 0.61077 0.97977 0.0
H6472 H 0.47471 0.60105 0.97144 0.0
H6473 H 0.47546 0.57983 0.94772 0.0
C6474 C 0.48853 0.56468 0.86136 0.0
C6475 C 0.47303 0.56649 0.85955 0.0
C6476 C 0.49547 0.56277 0.87624 0.0
C6477 C 0.48736 0.56258 0.89022 0.0
C6478 C 0.472 0.56462 0.88857 0.0
C6479 C 0.465 0.5664 0.87367 0.0
C6480 C 0.49478 0.5604 0.90641 0.0
C6481 C 0.49398 0.57142 0.92078 0.0
C6482 C 0.50285 0.54772 0.90789 0.0
C6483 C 0.50366 0.53493 0.89383 0.0
C6484 C 0.49009 0.5254 0.88488 0.0
C6485 C 0.49093 0.51336 0.87162 0.0
C6486 C 0.50528 0.51063 0.86726 0.0
C6487 C 0.51881 0.51992 0.87619 0.0
C6488 C 0.51803 0.532 0.88945 0.0
C6489 C 0.51029 0.55136 0.98194 0.0
C6490 C 0.52587 0.55105 0.98588 0.0
C6491 C 0.50488 0.55306 0.96645 0.0
C6492 C 0.51475 0.55459 0.95397 0.0
C6493 C 0.53033 0.55392 0.95769 0.0
C6494 C 0.53585 0.55242 0.9734 0.0
C6495 C 0.50867 0.55738 0.93752 0.0
C6496 C 0.50968 0.54648 0.92317 0.0
C6497 C 0.50088 0.57023 0.93601 0.0
C6498 C 0.50035 0.58311 0.95015 0.0
C6499 C 0.51406 0.59206 0.95929 0.0
C6500 C 0.51352 0.604 0.97275 0.0
C6501 C 0.49934 0.60721 0.97714 0.0
C6502 C 0.48568 0.59853 0.96803 0.0
C6503 C 0.48616 0.58655 0.95456 0.0
H6504 H 0.49893 0.61643 0.98758 0.0
H6505 H 0.50591 0.5013 0.85699 0.0
H6506 H 0.76756 0.20162 0.09669 0.0
H6507 H 0.76755 0.21962 0.12254 0.0
H6508 H 0.81738 0.23144 0.12704 0.0
H6509 H 0.81747 0.21305 0.10138 0.0
H6510 H 0.80673 0.22369 0.15391 0.0
H6511 H 0.7973 0.25968 0.11923 0.0
H6512 H 0.78466 0.26845 0.09669 0.0
H6513 H 0.74178 0.26134 0.11864 0.0
H6514 H 0.75412 0.25228 0.14121 0.0
H6515 H 0.79703 0.29791 0.21627 0.0
H6516 H 0.79744 0.28582 0.1879 0.0
H6517 H 0.77818 0.2379 0.19799 0.0
H6518 H 0.77822 0.24972 0.22632 0.0
H6519 H 0.77653 0.26707 0.16336 0.0
H6520 H 0.7979 0.21101 0.1793 0.0
H6521 H 0.81266 0.20404 0.20159 0.0
H6522 H 0.83547 0.25472 0.21649 0.0
H6523 H 0.82108 0.26195 0.19413 0.0
C6524 C 0.77852 0.20803 0.1032 0.0
C6525 C 0.79252 0.20583 0.09706 0.0
C6526 C 0.7785 0.21846 0.11788 0.0
C6527 C 0.79246 0.22699 0.12665 0.0
C6528 C 0.80647 0.22502 0.12043 0.0
C6529 C 0.8065 0.21459 0.10574 0.0
C6530 C 0.79242 0.23709 0.14279 0.0
C6531 C 0.80018 0.23322 0.15594 0.0
C6532 C 0.78411 0.24974 0.14541 0.0
C6533 C 0.77662 0.25517 0.13186 0.0
C6534 C 0.78515 0.25985 0.11919 0.0
C6535 C 0.77804 0.2649 0.10642 0.0
C6536 C 0.76242 0.26541 0.10622 0.0
C6537 C 0.75388 0.26091 0.11881 0.0
C6538 C 0.76093 0.25584 0.1316 0.0
C6539 C 0.79289 0.2848 0.21244 0.0
C6540 C 0.78815 0.27471 0.22367 0.0
C6541 C 0.79297 0.27795 0.1962 0.0
C6542 C 0.78818 0.26093 0.19095 0.0
C6543 C 0.78224 0.25103 0.20189 0.0
C6544 C 0.78226 0.25784 0.2181 0.0
C6545 C 0.79043 0.25325 0.17441 0.0
C6546 C 0.78312 0.25759 0.16124 0.0
C6547 C 0.79945 0.24126 0.1717 0.0
C6548 C 0.80833 0.23702 0.18508 0.0
C6549 C 0.80613 0.22065 0.18728 0.0
C6550 C 0.81443 0.21666 0.19993 0.0
C6551 C 0.825 0.22893 0.21043 0.0
C6552 C 0.82728 0.24523 0.20834 0.0
C6553 C 0.81905 0.24928 0.19569 0.0
H6554 H 0.83148 0.22579 0.22013 0.0
H6555 H 0.75694 0.26933 0.09632 0.0
H6556 H 0.15962 0.53352 0.33811 0.0
H6557 H 0.1423 0.53371 0.35979 0.0
H6558 H 0.10289 0.51803 0.32453 0.0
H6559 H 0.12013 0.51809 0.30289 0.0
H6560 H 0.09904 0.54261 0.34605 0.0
H6561 H 0.11458 0.49191 0.34767 0.0
H6562 H 0.13295 0.47402 0.34961 0.0
H6563 H 0.15103 0.50174 0.39645 0.0
H6564 H 0.1329 0.51996 0.39469 0.0
H6565 H 0.04063 0.51841 0.39704 0.0
H6566 H 0.05929 0.51705 0.37683 0.0
H6567 H 0.09625 0.54268 0.4128 0.0
H6568 H 0.07769 0.54491 0.43294 0.0
H6569 H 0.10189 0.51356 0.39192 0.0
H6570 H 0.08609 0.56416 0.38987 0.0
H6571 H 0.06726 0.58153 0.38781 0.0
H6572 H 0.04918 0.55298 0.34129 0.0
H6573 H 0.06776 0.53527 0.3432 0.0
C6574 C 0.14726 0.52995 0.33503 0.0
C6575 C 0.14119 0.52588 0.31886 0.0
C6576 C 0.13738 0.53003 0.34741 0.0
C6577 C 0.12129 0.52579 0.34377 0.0
C6578 C 0.11526 0.52142 0.32761 0.0
C6579 C 0.1251 0.52149 0.31527 0.0
C6580 C 0.11067 0.52655 0.35673 0.0
C6581 C 0.09955 0.53606 0.35595 0.0
C6582 C 0.11158 0.51835 0.36988 0.0
C6583 C 0.12249 0.50741 0.37097 0.0
C6584 C 0.12256 0.49428 0.35832 0.0
C6585 C 0.13292 0.48406 0.3594 0.0
C6586 C 0.14318 0.48677 0.37312 0.0
C6587 C 0.14309 0.49968 0.38581 0.0
C6588 C 0.13277 0.50995 0.38479 0.0
C6589 C 0.05269 0.52396 0.40065 0.0
C6590 C 0.0576 0.53182 0.41665 0.0
C6591 C 0.06334 0.52303 0.38911 0.0
C6592 C 0.07909 0.52978 0.39338 0.0
C6593 C 0.08412 0.53732 0.40934 0.0
C6594 C 0.07347 0.53851 0.42083 0.0
C6595 C 0.09024 0.52939 0.38101 0.0
C6596 C 0.10144 0.52005 0.38197 0.0
C6597 C 0.08937 0.53764 0.36795 0.0
C6598 C 0.0782 0.54828 0.36676 0.0
C6599 C 0.07799 0.56148 0.37928 0.0
C6600 C 0.06739 0.57141 0.37812 0.0
C6601 C 0.057 0.56833 0.36445 0.0
C6602 C 0.05722 0.55533 0.35189 0.0
C6603 C 0.06779 0.54535 0.353 0.0
H6604 H 0.0488 0.57604 0.36357 0.0
H6605 H 0.15119 0.47884 0.37393 0.0
H6606 H 0.78535 0.83311 0.60023 0.0
H6607 H 0.78417 0.82366 0.62599 0.0
H6608 H 0.79454 0.87385 0.65128 0.0
H6609 H 0.79614 0.8834 0.6256 0.0
H6610 H 0.81128 0.85568 0.66497 0.0
H6611 H 0.75791 0.85053 0.64753 0.0
H6612 H 0.7345 0.84127 0.6286 0.0
H6613 H 0.73636 0.79102 0.62839 0.0
H6614 H 0.75992 0.79998 0.64715 0.0
H6615 H 0.79462 0.83776 0.74193 0.0
H6616 H 0.79359 0.84843 0.71682 0.0
H6617 H 0.78088 0.79892 0.68978 0.0
H6618 H 0.78178 0.78828 0.7148 0.0
H6619 H 0.76487 0.81746 0.67727 0.0
H6620 H 0.81843 0.82197 0.69337 0.0
H6621 H 0.84209 0.83058 0.71199 0.0
H6622 H 0.84017 0.88113 0.71436 0.0
H6623 H 0.81642 0.87282 0.69584 0.0
C6624 C 0.78747 0.84215 0.61127 0.0
C6625 C 0.79078 0.85903 0.6108 0.0
C6626 C 0.78666 0.83672 0.626 0.0
C6627 C 0.78909 0.84803 0.64061 0.0
C6628 C 0.79255 0.86488 0.64019 0.0
C6629 C 0.79332 0.87032 0.62547 0.0
C6630 C 0.78818 0.84231 0.65632 0.0
C6631 C 0.80104 0.84751 0.66774 0.0
C6632 C 0.77497 0.83134 0.65984 0.0
C6633 C 0.76076 0.82593 0.64863 0.0
C6634 C 0.75339 0.8375 0.64335 0.0
C6635 C 0.74008 0.83231 0.63267 0.0
C6636 C 0.73397 0.81557 0.62726 0.0
C6637 C 0.74112 0.80398 0.63257 0.0
C6638 C 0.75444 0.80911 0.64324 0.0
C6639 C 0.79145 0.82919 0.73062 0.0
C6640 C 0.78807 0.81219 0.73034 0.0
C6641 C 0.79093 0.83528 0.71627 0.0
C6642 C 0.78734 0.82448 0.70133 0.0
C6643 C 0.7836 0.80751 0.70111 0.0
C6644 C 0.78398 0.80143 0.71546 0.0
C6645 C 0.78798 0.83078 0.68591 0.0
C6646 C 0.77508 0.82568 0.67452 0.0
C6647 C 0.8012 0.84174 0.68236 0.0
C6648 C 0.81558 0.84677 0.69334 0.0
C6649 C 0.82301 0.83492 0.69793 0.0
C6650 C 0.83643 0.83974 0.70847 0.0
C6651 C 0.84259 0.85638 0.71441 0.0
C6652 C 0.83538 0.86824 0.70977 0.0
C6653 C 0.82195 0.86348 0.69923 0.0
H6654 H 0.85298 0.86009 0.72257 0.0
H6655 H 0.72366 0.81158 0.61899 0.0
H6656 H 0.75252 0.50186 0.53435 0.0
H6657 H 0.73281 0.51799 0.53926 0.0
H6658 H 0.69824 0.47348 0.53731 0.0
H6659 H 0.71792 0.45727 0.53217 0.0
H6660 H 0.68727 0.49439 0.52224 0.0
H6661 H 0.71445 0.49727 0.57335 0.0
H6662 H 0.73743 0.50244 0.59262 0.0
H6663 H 0.74839 0.55297 0.58742 0.0
H6664 H 0.72559 0.54803 0.56793 0.0
H6665 H 0.63024 0.5289 0.56155 0.0
H6666 H 0.65073 0.51376 0.5572 0.0
H6667 H 0.68276 0.5584 0.5532 0.0
H6668 H 0.6622 0.5736 0.55711 0.0
H6669 H 0.69519 0.53793 0.57115 0.0
H6670 H 0.6661 0.53443 0.52078 0.0
H6671 H 0.6427 0.52822 0.50196 0.0
H6672 H 0.63503 0.47742 0.50602 0.0
H6673 H 0.65797 0.48342 0.52535 0.0
C6674 C 0.74069 0.49553 0.53491 0.0
C6675 C 0.73674 0.47834 0.53303 0.0
C6676 C 0.72947 0.50474 0.53774 0.0
C6677 C 0.71413 0.49695 0.53898 0.0
C6678 C 0.71003 0.47974 0.53646 0.0
C6679 C 0.72125 0.47049 0.53349 0.0
C6680 C 0.70245 0.50676 0.54329 0.0
C6681 C 0.6889 0.50376 0.53304 0.0
C6682 C 0.70476 0.5192 0.55723 0.0
C6683 C 0.7184 0.52224 0.56907 0.0
C6684 C 0.72182 0.50946 0.57623 0.0
C6685 C 0.7348 0.51235 0.5872 0.0
C6686 C 0.74438 0.52801 0.59121 0.0
C6687 C 0.74097 0.54083 0.58429 0.0
C6688 C 0.72801 0.538 0.57329 0.0
C6689 C 0.64166 0.53553 0.55983 0.0
C6690 C 0.64455 0.55241 0.55944 0.0
C6691 C 0.65334 0.52687 0.55739 0.0
C6692 C 0.66814 0.53494 0.55461 0.0
C6693 C 0.67136 0.55197 0.55527 0.0
C6694 C 0.65963 0.56065 0.55759 0.0
C6695 C 0.67998 0.52545 0.55017 0.0
C6696 C 0.69357 0.52855 0.56036 0.0
C6697 C 0.67762 0.51297 0.53625 0.0
C6698 C 0.66366 0.50943 0.52473 0.0
C6699 C 0.65928 0.52198 0.51788 0.0
C6700 C 0.64607 0.5185 0.5071 0.0
C6701 C 0.63728 0.50246 0.50289 0.0
C6702 C 0.64172 0.48987 0.50939 0.0
C6703 C 0.65481 0.49331 0.5203 0.0
H6704 H 0.62707 0.4998 0.49457 0.0
H6705 H 0.75443 0.53023 0.59971 0.0
H6706 H 0.20387 0.15549 0.50572 0.0
H6707 H 0.17772 0.13961 0.50645 0.0
H6708 H 0.1941 0.09477 0.49796 0.0
H6709 H 0.22051 0.11048 0.49826 0.0
H6710 H 0.16312 0.10079 0.47763 0.0
H6711 H 0.18881 0.09809 0.52982 0.0
H6712 H 0.20483 0.11133 0.55511 0.0
H6713 H 0.17327 0.14283 0.56686 0.0
H6714 H 0.1572 0.12992 0.54148 0.0
H6715 H 0.09524 0.04566 0.49181 0.0
H6716 H 0.12157 0.05961 0.48895 0.0
H6717 H 0.11668 0.10086 0.52459 0.0
H6718 H 0.09099 0.0863 0.52858 0.0
H6719 H 0.14279 0.09625 0.53065 0.0
H6720 H 0.11612 0.09976 0.48123 0.0
H6721 H 0.09949 0.08923 0.45585 0.0
H6722 H 0.13134 0.05998 0.43818 0.0
H6723 H 0.14807 0.07018 0.46355 0.0
C6724 C 0.20206 0.14228 0.50423 0.0
C6725 C 0.21449 0.13437 0.50205 0.0
C6726 C 0.18703 0.13322 0.50446 0.0
C6727 C 0.18403 0.11607 0.50221 0.0
C6728 C 0.19622 0.10803 0.4996 0.0
C6729 C 0.21132 0.11708 0.49969 0.0
C6730 C 0.16825 0.10663 0.50333 0.0
C6731 C 0.15866 0.09954 0.48917 0.0
C6732 C 0.16237 0.10556 0.5184 0.0
C6733 C 0.17193 0.11319 0.53369 0.0
C6734 C 0.18538 0.10795 0.53772 0.0
C6735 C 0.19445 0.11537 0.55208 0.0
C6736 C 0.19009 0.12795 0.56256 0.0
C6737 C 0.17664 0.13311 0.55872 0.0
C6738 C 0.16755 0.12574 0.54436 0.0
C6739 C 0.09984 0.05756 0.49923 0.0
C6740 C 0.09106 0.06459 0.51071 0.0
C6741 C 0.11487 0.06572 0.49737 0.0
C6742 C 0.12121 0.08145 0.50645 0.0
C6743 C 0.11221 0.0887 0.51752 0.0
C6744 C 0.0974 0.08035 0.51973 0.0
C6745 C 0.13732 0.09022 0.50487 0.0
C6746 C 0.14707 0.09731 0.519 0.0
C6747 C 0.14318 0.09159 0.48972 0.0
C6748 C 0.13327 0.08562 0.47435 0.0
C6749 C 0.11953 0.09102 0.47197 0.0
C6750 C 0.1101 0.08511 0.45758 0.0
C6751 C 0.11434 0.0739 0.44542 0.0
C6752 C 0.12806 0.06864 0.44761 0.0
C6753 C 0.13754 0.0745 0.46199 0.0
H6754 H 0.107 0.06933 0.4343 0.0
H6755 H 0.19712 0.13368 0.57368 0.0
H6756 H 0.21634 0.94087 0.79581 0.0
H6757 H 0.22947 0.91836 0.7968 0.0
H6758 H 0.2264 0.90738 0.74504 0.0
H6759 H 0.21294 0.92975 0.74394 0.0
H6760 H 0.22189 0.8786 0.75491 0.0
H6761 H 0.26164 0.92738 0.77035 0.0
H6762 H 0.27429 0.9546 0.78606 0.0
H6763 H 0.27326 0.93465 0.82946 0.0
H6764 H 0.26041 0.90735 0.81403 0.0
H6765 H 0.27581 0.82381 0.75336 0.0
H6766 H 0.26379 0.84701 0.7499 0.0
H6767 H 0.26302 0.85972 0.8013 0.0
H6768 H 0.27468 0.83662 0.80467 0.0
H6769 H 0.27017 0.88776 0.7903 0.0
H6770 H 0.22981 0.83991 0.77608 0.0
H6771 H 0.21777 0.81213 0.76124 0.0
H6772 H 0.21995 0.82977 0.71659 0.0
H6773 H 0.23222 0.85768 0.73117 0.0
C6774 C 0.21826 0.93372 0.78451 0.0
C6775 C 0.2133 0.93769 0.76977 0.0
C6776 C 0.22608 0.9207 0.78511 0.0
C6777 C 0.22943 0.91079 0.77101 0.0
C6778 C 0.22426 0.91452 0.75627 0.0
C6779 C 0.21655 0.92765 0.75565 0.0
C6780 C 0.23829 0.89683 0.77169 0.0
C6781 C 0.23258 0.88085 0.7625 0.0
C6782 C 0.25223 0.89898 0.78174 0.0
C6783 C 0.25992 0.91536 0.79106 0.0
C6784 C 0.26401 0.92883 0.78326 0.0
C6785 C 0.27123 0.94426 0.79211 0.0
C6786 C 0.27454 0.94636 0.80875 0.0
C6787 C 0.27066 0.93301 0.81657 0.0
C6788 C 0.26342 0.91755 0.80778 0.0
C6789 C 0.27332 0.83167 0.76395 0.0
C6790 C 0.27658 0.8282 0.77938 0.0
C6791 C 0.26622 0.84501 0.76197 0.0
C6792 C 0.26214 0.85553 0.77531 0.0
C6793 C 0.26585 0.85221 0.79065 0.0
C6794 C 0.27264 0.83882 0.79259 0.0
C6795 C 0.25378 0.8696 0.77358 0.0
C6796 C 0.25954 0.88558 0.78263 0.0
C6797 C 0.23987 0.8674 0.7635 0.0
C6798 C 0.2321 0.85083 0.75469 0.0
C6799 C 0.22779 0.83786 0.76308 0.0
C6800 C 0.22092 0.8221 0.75473 0.0
C6801 C 0.21817 0.81919 0.73799 0.0
C6802 C 0.22214 0.83206 0.72956 0.0
C6803 C 0.22904 0.84786 0.73786 0.0
H6804 H 0.21299 0.80694 0.73157 0.0
H6805 H 0.28013 0.95832 0.81558 0.0
H6806 H 0.38887 0.96868 0.05361 0.0
H6807 H 0.41527 0.98298 0.05217 0.0
H6808 H 0.39933 0.02549 0.04289 0.0
H6809 H 0.3727 0.01156 0.04514 0.0
H6810 H 0.41673 0.01202 0.01903 0.0
H6811 H 0.42094 0.03039 0.07546 0.0
H6812 H 0.41812 0.02814 0.10387 0.0
H6813 H 0.44895 0.99508 0.10106 0.0
H6814 H 0.45172 0.99682 0.07251 0.0
H6815 H 0.50287 0.05053 0.03322 0.0
H6816 H 0.47493 0.047 0.03214 0.0
H6817 H 0.46985 0.99452 0.02383 0.0
H6818 H 0.49796 0.99801 0.02473 0.0
H6819 H 0.4628 0.01946 0.05727 0.0
H6820 H 0.44563 0.992 0.99907 0.0
H6821 H 0.44288 0.99033 0.9696 0.0
H6822 H 0.43583 0.03959 0.97643 0.0
H6823 H 0.43831 0.04138 0.00593 0.0
C6824 C 0.3909 0.98129 0.0519 0.0
C6825 C 0.37856 0.9889 0.04938 0.0
C6826 C 0.40606 0.98943 0.05101 0.0
C6827 C 0.4092 0.00526 0.04745 0.0
C6828 C 0.39707 0.01324 0.04566 0.0
C6829 C 0.38187 0.0052 0.0468 0.0
C6830 C 0.42486 0.01234 0.04351 0.0
C6831 C 0.42681 0.01408 0.02751 0.0
C6832 C 0.43794 0.01467 0.05452 0.0
C6833 C 0.43644 0.01365 0.07176 0.0
C6834 C 0.42702 0.02252 0.08084 0.0
C6835 C 0.42544 0.02135 0.09698 0.0
C6836 C 0.4333 0.01143 0.10424 0.0
C6837 C 0.44284 1.00273 0.0954 0.0
C6838 C 0.44443 1.00382 0.07923 0.0
C6839 C 0.49587 0.03824 0.03016 0.0
C6840 C 0.50261 0.0245 0.02836 0.0
C6841 C 0.47983 0.03624 0.02959 0.0
C6842 C 0.47036 0.02051 0.02762 0.0
C6843 C 0.47699 0.00675 0.02494 0.0
C6844 C 0.49302 0.00874 0.02547 0.0
C6845 C 0.45457 0.01857 0.03269 0.0
C6846 C 0.45267 0.01783 0.04895 0.0
C6847 C 0.44153 0.01699 0.02193 0.0
C6848 C 0.44252 0.01695 0.0046 0.0
C6849 C 0.4438 1.00256 0.99424 0.0
C6850 C 0.44205 1.00151 0.97756 0.0
C6851 C 0.43922 0.01486 0.97114 0.0
C6852 C 0.43807 0.02928 0.98141 0.0
C6853 C 0.43967 0.03033 0.9981 0.0
H6854 H 0.43793 0.01404 0.95822 0.0
H6855 H 0.43198 0.01048 0.1167 0.0
H6856 H 0.8757 0.63717 0.78922 0.0
H6857 H 0.8615 0.65868 0.7888 0.0
H6858 H 0.83293 0.64037 0.82441 0.0
H6859 H 0.84666 0.61809 0.82421 0.0
H6860 H 0.81563 0.64374 0.80034 0.0
H6861 H 0.85706 0.68105 0.83344 0.0
H6862 H 0.88416 0.69407 0.84314 0.0
H6863 H 0.89187 0.70877 0.79756 0.0
H6864 H 0.8649 0.6956 0.7875 0.0
H6865 H 0.77651 0.70489 0.7808 0.0
H6866 H 0.79223 0.69342 0.79865 0.0
H6867 H 0.82487 0.68992 0.76277 0.0
H6868 H 0.80922 0.70126 0.74492 0.0
H6869 H 0.83839 0.70131 0.79612 0.0
H6870 H 0.79887 0.65791 0.76208 0.0
H6871 H 0.77184 0.64479 0.75221 0.0
H6872 H 0.7608 0.6417 0.80061 0.0
H6873 H 0.78776 0.65502 0.81077 0.0
C6874 C 0.86645 0.63774 0.79704 0.0
C6875 C 0.86213 0.62576 0.80654 0.0
C6876 C 0.85852 0.65028 0.79703 0.0
C6877 C 0.84627 0.65133 0.80676 0.0
C6878 C 0.84241 0.63986 0.81689 0.0
C6879 C 0.8503 0.62718 0.8168 0.0
C6880 C 0.83633 0.66296 0.80448 0.0
C6881 C 0.82055 0.65649 0.79997 0.0
C6882 C 0.84268 0.67956 0.80383 0.0
C6883 C 0.85895 0.68741 0.80975 0.0
C6884 C 0.86457 0.68699 0.82547 0.0
C6885 C 0.8799 0.6944 0.83103 0.0
C6886 C 0.88973 0.70225 0.82098 0.0
C6887 C 0.88425 0.7027 0.80534 0.0
C6888 C 0.86894 0.69529 0.79971 0.0
C6889 C 0.78714 0.70184 0.77686 0.0
C6890 C 0.79157 0.70366 0.76142 0.0
C6891 C 0.7961 0.69537 0.78704 0.0
C6892 C 0.80966 0.69086 0.78197 0.0
C6893 C 0.81447 0.69343 0.76689 0.0
C6894 C 0.80545 0.69969 0.75665 0.0
C6895 C 0.81806 0.68181 0.79141 0.0
C6896 C 0.83347 0.68876 0.79717 0.0
C6897 C 0.81138 0.66568 0.7933 0.0
C6898 C 0.79523 0.65764 0.7872 0.0
C6899 C 0.79063 0.65456 0.77062 0.0
C6900 C 0.77534 0.64707 0.76498 0.0
C6901 C 0.76459 0.64247 0.77579 0.0
C6902 C 0.76913 0.64531 0.79226 0.0
C6903 C 0.78441 0.65283 0.79797 0.0
H6904 H 0.75276 0.63666 0.77139 0.0
H6905 H 0.90159 0.70799 0.82531 0.0
H6906 H 0.84717 0.6145 0.0053 0.0
H6907 H 0.86754 0.59955 0.00834 0.0
H6908 H 0.90105 0.64533 0.02187 0.0
H6909 H 0.88069 0.66041 0.01883 0.0
H6910 H 0.91289 0.62316 1.0022 0.0
H6911 H 0.88694 0.62405 0.05039 0.0
H6912 H 0.86458 0.62034 0.06661 0.0
H6913 H 0.85324 0.56876 0.04679 0.0
H6914 H 0.87541 0.57221 0.03026 0.0
H6915 H 0.96939 0.58591 0.03675 0.0
H6916 H 0.95138 0.60314 0.03158 0.0
H6917 H 0.91488 0.5599 0.01713 0.0
H6918 H 0.93277 0.54266 0.02213 0.0
H6919 H 0.90567 0.58241 0.0384 0.0
H6920 H 0.92944 0.58275 0.98744 0.0
H6921 H 0.95151 0.58679 0.9708 0.0
H6922 H 0.96775 0.63586 0.99736 0.0
H6923 H 0.94547 0.63229 0.01379 0.0
C6924 C 0.85886 0.62142 0.00898 0.0
C6925 C 0.86224 0.63868 0.01196 0.0
C6926 C 0.87052 0.61284 0.01068 0.0
C6927 C 0.88582 0.62129 0.01558 0.0
C6928 C 0.88934 0.63852 0.01809 0.0
C6929 C 0.87768 0.64713 0.01632 0.0
C6930 C 0.89797 0.61211 0.01854 0.0
C6931 C 0.91139 0.61442 0.01029 0.0
C6932 C 0.89604 0.60056 0.02897 0.0
C6933 C 0.88276 0.59841 0.03898 0.0
C6934 C 0.87962 0.61193 0.04941 0.0
C6935 C 0.86698 0.60987 0.05866 0.0
C6936 C 0.85748 0.59433 0.0577 0.0
C6937 C 0.8606 0.5808 0.04751 0.0
C6938 C 0.87321 0.58279 0.0382 0.0
C6939 C 0.95757 0.58006 0.03227 0.0
C6940 C 0.9525 0.56289 0.03003 0.0
C6941 C 0.94729 0.58993 0.02929 0.0
C6942 C 0.93174 0.58283 0.02392 0.0
C6943 C 0.92677 0.56569 0.02136 0.0
C6944 C 0.93701 0.55584 0.02433 0.0
C6945 C 0.92039 0.59317 0.02179 0.0
C6946 C 0.90716 0.59116 0.03032 0.0
C6947 C 0.92255 0.60502 0.01171 0.0
C6948 C 0.9359 0.60722 1.00188 0.0
C6949 C 0.93774 0.59439 0.98973 0.0
C6950 C 0.95024 0.59662 0.9803 0.0
C6951 C 0.96111 0.61151 0.98313 0.0
C6952 C 0.95935 0.62432 0.99521 0.0
C6953 C 0.94672 0.62225 0.00449 0.0
H6954 H 0.97085 0.61314 0.97591 0.0
H6955 H 0.8477 0.59276 0.06488 0.0
H6956 H 0.23972 0.10346 0.78351 0.0
H6957 H 0.25265 0.13204 0.78438 0.0
H6958 H 0.21021 0.14218 0.76641 0.0
H6959 H 0.19696 0.1139 0.76611 0.0
H6960 H 0.23438 0.15627 0.75082 0.0
H6961 H 0.22436 0.1554 0.80611 0.0
H6962 H 0.22544 0.1456 0.83187 0.0
H6963 H 0.275 0.15796 0.83503 0.0
H6964 H 0.27421 0.16763 0.80916 0.0
H6965 H 0.25644 0.24325 0.763 0.0
H6966 H 0.24394 0.21489 0.76347 0.0
H6967 H 0.28461 0.20876 0.78948 0.0
H6968 H 0.2968 0.23755 0.78992 0.0
H6969 H 0.26198 0.19209 0.80071 0.0
H6970 H 0.27298 0.19283 0.74623 0.0
H6971 H 0.273 0.20237 0.72028 0.0
H6972 H 0.22344 0.18944 0.71477 0.0
H6973 H 0.22311 0.18006 0.74083 0.0
C6974 C 0.23292 0.11168 0.77995 0.0
C6975 C 0.21705 0.10581 0.77471 0.0
C6976 C 0.24047 0.12821 0.78038 0.0
C6977 C 0.23254 0.13961 0.77552 0.0
C6978 C 0.21679 0.13383 0.77017 0.0
C6979 C 0.20918 0.11738 0.7699 0.0
C6980 C 0.24056 0.15743 0.77594 0.0
C6981 C 0.24024 0.16411 0.76181 0.0
C6982 C 0.24873 0.16784 0.79006 0.0
C6983 C 0.24923 0.16207 0.80562 0.0
C6984 C 0.23549 0.1559 0.81223 0.0
C6985 C 0.23605 0.15039 0.82686 0.0
C6986 C 0.25028 0.15111 0.83506 0.0
C6987 C 0.26398 0.15738 0.82866 0.0
C6988 C 0.26349 0.16289 0.81402 0.0
C6989 C 0.26282 0.23597 0.76886 0.0
C6990 C 0.27795 0.24291 0.77608 0.0
C6991 C 0.25563 0.21949 0.76899 0.0
C6992 C 0.26332 0.20908 0.77606 0.0
C6993 C 0.27827 0.21615 0.78371 0.0
C6994 C 0.2854 0.23274 0.78378 0.0
C6995 C 0.25579 0.19105 0.77556 0.0
C6996 C 0.25618 0.18429 0.78967 0.0
C6997 C 0.24788 0.18048 0.76134 0.0
C6998 C 0.24802 0.18589 0.74556 0.0
C6999 C 0.26208 0.19211 0.73953 0.0
C7000 C 0.26215 0.19748 0.7248 0.0
C7001 C 0.24823 0.19655 0.7159 0.0
C7002 C 0.23421 0.19018 0.72169 0.0
C7003 C 0.23408 0.18482 0.73644 0.0
H7004 H 0.2483 0.20073 0.70451 0.0
H7005 H 0.25069 0.14684 0.84639 0.0
H7006 H 0.34212 0.96611 0.28685 0.0
H7007 H 0.32697 0.93794 0.28314 0.0
H7008 H 0.36137 0.92088 0.25473 0.0
H7009 H 0.37718 0.94858 0.2593 0.0
H7010 H 0.32592 0.90741 0.2433 0.0
H7011 H 0.36696 0.91784 0.28841 0.0
H7012 H 0.37948 0.93322 0.3148 0.0
H7013 H 0.33641 0.92239 0.33593 0.0
H7014 H 0.3236 0.90719 0.30956 0.0
H7015 H 0.33555 0.82644 0.26638 0.0
H7016 H 0.34201 0.85635 0.26972 0.0
H7017 H 0.29441 0.85612 0.25645 0.0
H7018 H 0.28815 0.82613 0.25252 0.0
H7019 H 0.33234 0.87965 0.28945 0.0
H7020 H 0.2959 0.89152 0.23697 0.0
H7021 H 0.28033 0.87601 0.21213 0.0
H7022 H 0.30962 0.84141 0.20739 0.0
H7023 H 0.32607 0.85732 0.23151 0.0
C7024 C 0.34657 0.95639 0.2799 0.0
C7025 C 0.36102 0.95972 0.27352 0.0
C7026 C 0.33775 0.94036 0.2776 0.0
C7027 C 0.34307 0.92749 0.26857 0.0
C7028 C 0.35704 0.93079 0.26154 0.0
C7029 C 0.36603 0.94669 0.26415 0.0
C7030 C 0.33511 0.91033 0.26789 0.0
C7031 C 0.32705 0.9013 0.25342 0.0
C7032 C 0.33651 0.90256 0.2812 0.0
C7033 C 0.34428 0.91166 0.29698 0.0
C7034 C 0.36013 0.91894 0.29864 0.0
C7035 C 0.36728 0.92757 0.3136 0.0
C7036 C 0.35873 0.92885 0.32702 0.0
C7037 C 0.34301 0.92144 0.32551 0.0
C7038 C 0.3358 0.91284 0.31057 0.0
C7039 C 0.32645 0.83286 0.26453 0.0
C7040 C 0.31122 0.8242 0.26016 0.0
C7041 C 0.33013 0.84988 0.26636 0.0
C7042 C 0.31866 0.85846 0.26345 0.0
C7043 C 0.30343 0.84974 0.25875 0.0
C7044 C 0.29982 0.83264 0.25669 0.0
C7045 C 0.32306 0.87645 0.26483 0.0
C7046 C 0.33062 0.88571 0.27944 0.0
C7047 C 0.32082 0.8844 0.25173 0.0
C7048 C 0.31207 0.8755 0.23626 0.0
C7049 C 0.29922 0.88077 0.23046 0.0
C7050 C 0.29029 0.87196 0.21644 0.0
C7051 C 0.29404 0.85777 0.20814 0.0
C7052 C 0.30689 0.85254 0.21369 0.0
C7053 C 0.31607 0.86151 0.2275 0.0
H7054 H 0.28693 0.8508 0.19748 0.0
H7055 H 0.36429 0.93553 0.3386 0.0
H7056 H 0.58076 0.40374 0.60232 0.0
H7057 H 0.57739 0.42799 0.59149 0.0
H7058 H 0.55893 0.39718 0.54589 0.0
H7059 H 0.56202 0.37283 0.55675 0.0
H7060 H 0.58196 0.42667 0.54368 0.0
H7061 H 0.53465 0.41064 0.56831 0.0
H7062 H 0.51928 0.40362 0.59062 0.0
H7063 H 0.53919 0.45103 0.61919 0.0
H7064 H 0.55487 0.45825 0.59713 0.0
H7065 H 0.55777 0.48767 0.50739 0.0
H7066 H 0.55905 0.46244 0.51724 0.0
H7067 H 0.56068 0.48826 0.56618 0.0
H7068 H 0.5577 0.51298 0.55605 0.0
H7069 H 0.54609 0.46048 0.56655 0.0
H7070 H 0.59422 0.47698 0.54377 0.0
H7071 H 0.60977 0.48526 0.52199 0.0
H7072 H 0.59056 0.43861 0.49165 0.0
H7073 H 0.57469 0.43016 0.51316 0.0
C7074 C 0.57605 0.40211 0.58995 0.0
C7075 C 0.57167 0.38626 0.58043 0.0
C7076 C 0.57406 0.41601 0.58378 0.0
C7077 C 0.56787 0.4145 0.56783 0.0
C7078 C 0.56373 0.39873 0.55821 0.0
C7079 C 0.56544 0.38479 0.56447 0.0
C7080 C 0.56557 0.42933 0.56129 0.0
C7081 C 0.57402 0.43399 0.54858 0.0
C7082 C 0.55552 0.43922 0.56789 0.0
C7083 C 0.54606 0.43492 0.58113 0.0
C7084 C 0.53586 0.41951 0.5794 0.0
C7085 C 0.52707 0.41551 0.59199 0.0
C7086 C 0.52829 0.42685 0.60633 0.0
C7087 C 0.53828 0.44225 0.60809 0.0
C7088 C 0.54711 0.4463 0.59554 0.0
C7089 C 0.55812 0.48781 0.52024 0.0
C7090 C 0.55714 0.50212 0.53091 0.0
C7091 C 0.55917 0.47342 0.52595 0.0
C7092 C 0.56044 0.47325 0.54262 0.0
C7093 C 0.55967 0.48776 0.55329 0.0
C7094 C 0.55799 0.50197 0.54752 0.0
C7095 C 0.56265 0.45813 0.54895 0.0
C7096 C 0.55416 0.45334 0.56165 0.0
C7097 C 0.57295 0.44832 0.54258 0.0
C7098 C 0.58318 0.453 0.53002 0.0
C7099 C 0.59334 0.46848 0.53246 0.0
C7100 C 0.60217 0.47322 0.52014 0.0
C7101 C 0.6011 0.46249 0.50541 0.0
C7102 C 0.59134 0.44692 0.50305 0.0
C7103 C 0.58243 0.44214 0.5153 0.0
H7104 H 0.6078 0.46622 0.49582 0.0
H7105 H 0.52147 0.42373 0.61607 0.0
H7106 H 0.4526 0.78087 0.35246 0.0
H7107 H 0.42863 0.78248 0.3381 0.0
H7108 H 0.4025 0.75093 0.36672 0.0
H7109 H 0.42657 0.74905 0.38098 0.0
H7110 H 0.38946 0.74283 0.33741 0.0
H7111 H 0.40567 0.79385 0.37369 0.0
H7112 H 0.42341 0.81957 0.38708 0.0
H7113 H 0.42727 0.83596 0.34186 0.0
H7114 H 0.40971 0.81023 0.32814 0.0
H7115 H 0.32021 0.77716 0.32152 0.0
H7116 H 0.34345 0.77381 0.33664 0.0
H7117 H 0.36801 0.77436 0.29412 0.0
H7118 H 0.34509 0.77769 0.27896 0.0
H7119 H 0.38038 0.79745 0.3316 0.0
H7120 H 0.36379 0.74371 0.29579 0.0
H7121 H 0.34407 0.71868 0.28474 0.0
H7122 H 0.33962 0.70758 0.33215 0.0
H7123 H 0.35887 0.73296 0.34359 0.0
C7124 C 0.44177 0.77431 0.35578 0.0
C7125 C 0.44162 0.76495 0.36805 0.0
C7126 C 0.42799 0.77526 0.34754 0.0
C7127 C 0.41356 0.76712 0.35146 0.0
C7128 C 0.41338 0.7574 0.36341 0.0
C7129 C 0.42721 0.75631 0.37158 0.0
C7130 C 0.39878 0.76893 0.3432 0.0
C7131 C 0.38749 0.75481 0.3363 0.0
C7132 C 0.39594 0.78452 0.34167 0.0
C7133 C 0.40649 0.80003 0.34986 0.0
C7134 C 0.41039 0.80288 0.36658 0.0
C7135 C 0.4204 0.81747 0.37423 0.0
C7136 C 0.42649 0.82937 0.36532 0.0
C7137 C 0.42256 0.82672 0.34874 0.0
C7138 C 0.41257 0.81214 0.34102 0.0
C7139 C 0.33051 0.77637 0.31535 0.0
C7140 C 0.33062 0.77726 0.29889 0.0
C7141 C 0.34372 0.77436 0.32399 0.0
C7142 C 0.35731 0.77335 0.31642 0.0
C7143 C 0.35757 0.77473 0.30015 0.0
C7144 C 0.34437 0.77649 0.29146 0.0
C7145 C 0.37143 0.77141 0.32557 0.0
C7146 C 0.38247 0.78551 0.33272 0.0
C7147 C 0.37391 0.75585 0.32752 0.0
C7148 C 0.36248 0.7405 0.3206 0.0
C7149 C 0.35835 0.73616 0.30392 0.0
C7150 C 0.34729 0.72187 0.29757 0.0
C7151 C 0.34047 0.71164 0.30776 0.0
C7152 C 0.3448 0.71561 0.3243 0.0
C7153 C 0.35577 0.72996 0.33072 0.0
H7154 H 0.33193 0.70056 0.30282 0.0
H7155 H 0.43424 0.84066 0.37127 0.0
H7156 H 0.07945 0.71968 0.09669 0.0
H7157 H 0.0775 0.69039 0.08707 0.0
H7158 H 0.05041 0.69277 0.04413 0.0
H7159 H 0.05159 0.72195 0.05435 0.0
H7160 H 0.03881 0.66601 0.05151 0.0
H7161 H 0.09107 0.68968 0.04597 0.0
H7162 H 0.11731 0.70666 0.05381 0.0
H7163 H 0.12377 0.6783 0.09006 0.0
H7164 H 0.09748 0.66129 0.08259 0.0
H7165 H 0.04842 0.58514 0.01559 0.0
H7166 H 0.0531 0.61529 0.02033 0.0
H7167 H 0.06398 0.61712 0.0709 0.0
H7168 H 0.05899 0.58708 0.06627 0.0
H7169 H 0.0846 0.64157 0.05598 0.0
H7170 H 0.03002 0.619 0.06052 0.0
H7171 H 0.0046 0.60158 0.04959 0.0
H7172 H 0.0039 0.62813 0.01076 0.0
H7173 H 0.02947 0.64553 0.02131 0.0
C7174 C 0.07316 0.71395 0.08515 0.0
C7175 C 0.0658 0.72317 0.07621 0.0
C7176 C 0.07211 0.69716 0.07956 0.0
C7177 C 0.06414 0.68919 0.06457 0.0
C7178 C 0.05669 0.69844 0.05568 0.0
C7179 C 0.05741 0.71518 0.06149 0.0
C7180 C 0.0633 0.67123 0.05844 0.0
C7181 C 0.04894 0.66083 0.05227 0.0
C7182 C 0.07641 0.66412 0.05927 0.0
C7183 C 0.09225 0.6743 0.06381 0.0
C7184 C 0.09805 0.68714 0.05569 0.0
C7185 C 0.11294 0.69676 0.06006 0.0
C7186 C 0.12219 0.69358 0.07245 0.0
C7187 C 0.11658 0.68075 0.08047 0.0
C7188 C 0.10169 0.67111 0.07617 0.0
C7189 C 0.05217 0.592 0.02763 0.0
C7190 C 0.05364 0.58378 0.04053 0.0
C7191 C 0.05473 0.60923 0.03035 0.0
C7192 C 0.05888 0.61849 0.04599 0.0
C7193 C 0.06087 0.61027 0.05874 0.0
C7194 C 0.05802 0.59312 0.05608 0.0
C7195 C 0.0602 0.63663 0.04945 0.0
C7196 C 0.0746 0.64696 0.05511 0.0
C7197 C 0.04725 0.64371 0.04774 0.0
C7198 C 0.03174 0.63345 0.04161 0.0
C7199 C 0.02451 0.62104 0.04958 0.0
C7200 C 0.01006 0.61118 0.04347 0.0
C7201 C 1.00266 0.61372 0.02947 0.0
C7202 C 0.00966 0.62616 0.02159 0.0
C7203 C 0.02413 0.63603 0.02763 0.0
H7204 H 0.99147 0.6061 0.02477 0.0
H7205 H 0.13371 0.70105 0.07581 0.0
H7206 H 0.11065 0.28173 0.89369 0.0
H7207 H 0.13388 0.28327 0.87912 0.0
H7208 H 0.10576 0.27196 0.83397 0.0
H7209 H 0.08244 0.27003 0.84845 0.0
H7210 H 0.12836 0.25462 0.83294 0.0
H7211 H 0.12535 0.31123 0.84986 0.0
H7212 H 0.12381 0.3357 0.8697 0.0
H7213 H 0.16663 0.33399 0.89442 0.0
H7214 H 0.16832 0.30937 0.87484 0.0
H7215 H 0.18135 0.27913 0.7781 0.0
H7216 H 0.16051 0.27506 0.79556 0.0
H7217 H 0.19338 0.29169 0.83734 0.0
H7218 H 0.2144 0.29665 0.81977 0.0
H7219 H 0.16974 0.30529 0.84217 0.0
H7220 H 0.17413 0.25018 0.82483 0.0
H7221 H 0.17604 0.22541 0.80565 0.0
H7222 H 0.13134 0.22345 0.78275 0.0
H7223 H 0.12924 0.24835 0.80166 0.0
C7224 C 0.10937 0.27943 0.88065 0.0
C7225 C 0.0946 0.27578 0.87228 0.0
C7226 C 0.12271 0.28046 0.87233 0.0
C7227 C 0.12165 0.27789 0.85541 0.0
C7228 C 0.10693 0.27404 0.84701 0.0
C7229 C 0.09358 0.27308 0.85533 0.0
C7230 C 0.13582 0.27922 0.84642 0.0
C7231 C 0.13733 0.26576 0.83484 0.0
C7232 C 0.14785 0.29352 0.84927 0.0
C7233 C 0.14688 0.30836 0.86099 0.0
C7234 C 0.13438 0.316 0.8596 0.0
C7235 C 0.13349 0.32991 0.87078 0.0
C7236 C 0.14509 0.33637 0.88334 0.0
C7237 C 0.15764 0.32896 0.8847 0.0
C7238 C 0.15857 0.31504 0.87356 0.0
C7239 C 0.18423 0.282 0.791 0.0
C7240 C 0.19964 0.2884 0.79747 0.0
C7241 C 0.17224 0.27944 0.80103 0.0
C7242 C 0.17527 0.28285 0.81786 0.0
C7243 C 0.19068 0.28891 0.82441 0.0
C7244 C 0.20274 0.29159 0.81433 0.0
C7245 C 0.1622 0.28075 0.82844 0.0
C7246 C 0.16087 0.29407 0.84033 0.0
C7247 C 0.1504 0.26624 0.82599 0.0
C7248 C 0.15158 0.25122 0.8146 0.0
C7249 C 0.16475 0.24454 0.81564 0.0
C7250 C 0.16586 0.23046 0.80482 0.0
C7251 C 0.15383 0.22288 0.79297 0.0
C7252 C 0.14065 0.22934 0.79193 0.0
C7253 C 0.13948 0.24343 0.80271 0.0
H7254 H 0.15472 0.21198 0.78461 0.0
H7255 H 0.14438 0.34713 0.89198 0.0
H7256 H 0.58825 0.72723 0.92417 0.0
H7257 H 0.58123 0.70581 0.94004 0.0
H7258 H 0.53738 0.71916 0.94691 0.0
H7259 H 0.54477 0.74141 0.93215 0.0
H7260 H 0.54853 0.71477 0.9738 0.0
H7261 H 0.5418 0.68339 0.92019 0.0
H7262 H 0.54923 0.67395 0.89306 0.0
H7263 H 0.58618 0.65635 0.91375 0.0
H7264 H 0.5791 0.66589 0.94103 0.0
H7265 H 0.51499 0.64398 0.00494 0.0
H7266 H 0.52008 0.66294 0.98607 0.0
H7267 H 0.56752 0.65837 0.98672 0.0
H7268 H 0.56275 0.63989 0.00596 0.0
H7269 H 0.55349 0.6574 0.95543 0.0
H7270 H 0.56039 0.69016 0.00902 0.0
H7271 H 0.55228 0.69917 0.03595 0.0
H7272 H 0.51375 0.71363 0.01442 0.0
H7273 H 0.52152 0.70447 0.98734 0.0
C7274 C 0.57717 0.72575 0.92917 0.0
C7275 C 0.5671 0.73613 0.92681 0.0
C7276 C 0.57306 0.71329 0.93805 0.0
C7277 C 0.55865 0.71065 0.94447 0.0
C7278 C 0.54853 0.72088 0.94203 0.0
C7279 C 0.55272 0.73351 0.93338 0.0
C7280 C 0.55437 0.69772 0.9543 0.0
C7281 C 0.54936 0.70217 0.96961 0.0
C7282 C 0.55574 0.68131 0.94905 0.0
C7283 C 0.55999 0.67549 0.93266 0.0
C7284 C 0.55157 0.67761 0.91896 0.0
C7285 C 0.55572 0.67223 0.90356 0.0
C7286 C 0.56819 0.66459 0.90169 0.0
C7287 C 0.57653 0.66229 0.91522 0.0
C7288 C 0.57244 0.66766 0.93065 0.0
C7289 C 0.52653 0.64704 1.00114 0.0
C7290 C 0.53847 0.64044 0.00708 0.0
C7291 C 0.52938 0.65778 0.99027 0.0
C7292 C 0.54419 0.66208 0.9851 0.0
C7293 C 0.55599 0.65511 0.99052 0.0
C7294 C 0.5532 0.64449 1.00149 0.0
C7295 C 0.54763 0.67454 0.97473 0.0
C7296 C 0.55253 0.66999 0.95943 0.0
C7297 C 0.54604 0.69083 0.97989 0.0
C7298 C 0.54144 0.69646 0.99616 0.0
C7299 C 0.55012 0.69513 0.01003 0.0
C7300 C 0.5456 0.70029 0.02532 0.0
C7301 C 0.53249 0.70692 0.02689 0.0
C7302 C 0.52389 0.70846 0.01318 0.0
C7303 C 0.52835 0.7033 0.99786 0.0
H7304 H 0.529 0.71091 0.03874 0.0
H7305 H 0.57138 0.66043 0.88975 0.0
H7306 H 0.07609 0.75039 0.70439 0.0
H7307 H 0.10009 0.74655 0.71672 0.0
H7308 H 0.12058 0.79787 0.71952 0.0
H7309 H 0.09683 0.80165 0.70632 0.0
H7310 H 0.14041 0.77978 0.7097 0.0
H7311 H 0.10777 0.78258 0.75295 0.0
H7312 H 0.08408 0.77533 0.76659 0.0
H7313 H 0.0897 0.72569 0.76213 0.0
H7314 H 0.11331 0.73259 0.74825 0.0
H7315 H 0.2032 0.78205 0.76656 0.0
H7316 H 0.17975 0.78664 0.75362 0.0
H7317 H 0.16018 0.73461 0.7447 0.0
H7318 H 0.18383 0.72979 0.75714 0.0
H7319 H 0.14019 0.75368 0.75792 0.0
H7320 H 0.1737 0.75185 0.71505 0.0
H7321 H 0.19727 0.75982 0.70146 0.0
H7322 H 0.19013 0.80888 0.70571 0.0
H7323 H 0.16672 0.80133 0.7197 0.0
C7324 C 0.08575 0.76084 0.70743 0.0
C7325 C 0.08452 0.77634 0.70434 0.0
C7326 C 0.09941 0.75866 0.71468 0.0
C7327 C 0.11205 0.77197 0.71928 0.0
C7328 C 0.11093 0.78744 0.71614 0.0
C7329 C 0.09729 0.78961 0.70874 0.0
C7330 C 0.12646 0.76967 0.72723 0.0
C7331 C 0.14041 0.77432 0.7204 0.0
C7332 C 0.12639 0.76225 0.741 0.0
C7333 C 0.11224 0.75807 0.74943 0.0
C7334 C 0.10389 0.77009 0.75477 0.0
C7335 C 0.09049 0.76605 0.76256 0.0
C7336 C 0.08537 0.75005 0.76519 0.0
C7337 C 0.09367 0.73807 0.76007 0.0
C7338 C 0.10707 0.74205 0.75226 0.0
C7339 C 0.19401 0.77153 0.76167 0.0
C7340 C 0.19546 0.75551 0.7628 0.0
C7341 C 0.18059 0.7742 0.75434 0.0
C7342 C 0.16833 0.76094 0.74809 0.0
C7343 C 0.16956 0.74499 0.74947 0.0
C7344 C 0.18304 0.74228 0.75667 0.0
C7345 C 0.15409 0.76375 0.74036 0.0
C7346 C 0.14018 0.7592 0.74726 0.0
C7347 C 0.15425 0.77142 0.72676 0.0
C7348 C 0.16852 0.77606 0.71861 0.0
C7349 C 0.17725 0.76439 0.71329 0.0
C7350 C 0.19057 0.76883 0.70547 0.0
C7351 C 0.1952 0.78484 0.70273 0.0
C7352 C 0.18652 0.79647 0.70782 0.0
C7353 C 0.17325 0.79213 0.71574 0.0
H7354 H 0.2055 0.78825 0.69666 0.0
H7355 H 0.07499 0.74694 0.77122 0.0
H7356 H 0.11449 0.38941 0.458 0.0
H7357 H 0.11016 0.41565 0.47227 0.0
H7358 H 0.07655 0.41583 0.43369 0.0
H7359 H 0.08157 0.39027 0.41913 0.0
H7360 H 0.09084 0.44522 0.4438 0.0
H7361 H 0.06692 0.4013 0.46974 0.0
H7362 H 0.06612 0.37769 0.4834 0.0
H7363 H 0.0983 0.40804 0.52157 0.0
H7364 H 0.09946 0.43179 0.50801 0.0
H7365 H 0.04165 0.49109 0.48487 0.0
H7366 H 0.05158 0.46788 0.47163 0.0
H7367 H 0.09061 0.48072 0.50725 0.0
H7368 H 0.08101 0.50413 0.52042 0.0
H7369 H 0.07609 0.44653 0.49977 0.0
H7370 H 0.09461 0.49208 0.47346 0.0
H7371 H 0.09058 0.51427 0.45952 0.0
H7372 H 0.06431 0.4789 0.42026 0.0
H7373 H 0.06737 0.45647 0.43439 0.0
C7374 C 0.1064 0.39529 0.45254 0.0
C7375 C 0.09834 0.38797 0.43755 0.0
C7376 C 0.10385 0.41017 0.46069 0.0
C7377 C 0.09279 0.41755 0.4542 0.0
C7378 C 0.08516 0.41043 0.43894 0.0
C7379 C 0.08799 0.39583 0.43064 0.0
C7380 C 0.08836 0.43209 0.46356 0.0
C7381 C 0.08754 0.44545 0.45601 0.0
C7382 C 0.08416 0.43248 0.47955 0.0
C7383 C 0.08341 0.41826 0.48778 0.0
C7384 C 0.0739 0.4029 0.481 0.0
C7385 C 0.07338 0.38951 0.48872 0.0
C7386 C 0.08219 0.39135 0.50332 0.0
C7387 C 0.09151 0.40662 0.51025 0.0
C7388 C 0.0921 0.42005 0.50255 0.0
C7389 C 0.0523 0.48896 0.48996 0.0
C7390 C 0.06051 0.49945 0.50375 0.0
C7391 C 0.05794 0.4757 0.48237 0.0
C7392 C 0.07185 0.47274 0.48844 0.0
C7393 C 0.07983 0.48285 0.50245 0.0
C7394 C 0.07428 0.49619 0.50997 0.0
C7395 C 0.07833 0.45937 0.47988 0.0
C7396 C 0.07956 0.44631 0.48762 0.0
C7397 C 0.08243 0.45906 0.4639 0.0
C7398 C 0.08112 0.47255 0.45509 0.0
C7399 C 0.08785 0.489 0.46193 0.0
C7400 C 0.08574 0.50165 0.45398 0.0
C7401 C 0.07731 0.49801 0.43896 0.0
C7402 C 0.07086 0.48171 0.43189 0.0
C7403 C 0.07271 0.46902 0.43991 0.0
H7404 H 0.07575 0.50781 0.43279 0.0
H7405 H 0.08177 0.38097 0.50929 0.0
H7406 H 0.43738 0.30861 0.19587 0.0
H7407 H 0.41481 0.31018 0.21091 0.0
H7408 H 0.42381 0.27188 0.23526 0.0
H7409 H 0.4464 0.27018 0.22012 0.0
H7410 H 0.39455 0.26563 0.22428 0.0
H7411 H 0.42981 0.31173 0.25516 0.0
H7412 H 0.44945 0.33765 0.26039 0.0
H7413 H 0.41743 0.36205 0.24032 0.0
H7414 H 0.39765 0.3362 0.23472 0.0
H7415 H 0.3324 0.27323 0.27167 0.0
H7416 H 0.35951 0.27541 0.26603 0.0
H7417 H 0.35461 0.30901 0.23407 0.0
H7418 H 0.32753 0.30685 0.23984 0.0
H7419 H 0.38327 0.31754 0.25297 0.0
H7420 H 0.34972 0.26988 0.21874 0.0
H7421 H 0.32959 0.24437 0.2152 0.0
H7422 H 0.35883 0.2232 0.24334 0.0
H7423 H 0.37906 0.2487 0.24723 0.0
C7424 C 0.4347 0.30072 0.20462 0.0
C7425 C 0.44363 0.28928 0.20684 0.0
C7426 C 0.42182 0.30164 0.21323 0.0
C7427 C 0.41775 0.29128 0.22435 0.0
C7428 C 0.42677 0.27999 0.22675 0.0
C7429 C 0.43962 0.279 0.21807 0.0
C7430 C 0.40351 0.29158 0.23266 0.0
C7431 C 0.39224 0.27693 0.23083 0.0
C7432 C 0.40041 0.30636 0.24105 0.0
C7433 C 0.41228 0.32196 0.24439 0.0
C7434 C 0.42699 0.32258 0.25173 0.0
C7435 C 0.43814 0.33727 0.25479 0.0
C7436 C 0.4347 0.35148 0.25066 0.0
C7437 C 0.42008 0.35103 0.24349 0.0
C7438 C 0.40889 0.33636 0.24039 0.0
C7439 C 0.33734 0.28143 0.26383 0.0
C7440 C 0.32829 0.29036 0.25659 0.0
C7441 C 0.3527 0.2826 0.26055 0.0
C7442 C 0.359 0.29239 0.24967 0.0
C7443 C 0.34998 0.30157 0.24266 0.0
C7444 C 0.3346 0.30036 0.24593 0.0
C7445 C 0.37439 0.29173 0.24425 0.0
C7446 C 0.38579 0.30626 0.24661 0.0
C7447 C 0.37766 0.27685 0.23641 0.0
C7448 C 0.36585 0.26123 0.23336 0.0
C7449 C 0.35185 0.25979 0.22418 0.0
C7450 C 0.34042 0.24534 0.22213 0.0
C7451 C 0.34292 0.23218 0.22907 0.0
C7452 C 0.35691 0.23341 0.23798 0.0
C7453 C 0.36837 0.24784 0.24009 0.0
H7454 H 0.33403 0.22104 0.22753 0.0
H7455 H 0.44336 0.36284 0.25304 0.0
H7456 H 0.60029 0.5139 0.34164 0.0
H7457 H 0.58852 0.51651 0.36718 0.0
H7458 H 0.63321 0.52443 0.39293 0.0
H7459 H 0.64509 0.52176 0.36739 0.0
H7460 H 0.61467 0.50717 0.40884 0.0
H7461 H 0.61079 0.55626 0.39013 0.0
H7462 H 0.60395 0.57339 0.37129 0.0
H7463 H 0.55601 0.55038 0.37051 0.0
H7464 H 0.56259 0.53296 0.38919 0.0
H7465 H 0.58996 0.53839 0.48637 0.0
H7466 H 0.60205 0.53531 0.46081 0.0
H7467 H 0.55709 0.52029 0.43476 0.0
H7468 H 0.54508 0.5234 0.46025 0.0
H7469 H 0.5759 0.54129 0.41938 0.0
H7470 H 0.58039 0.49242 0.43869 0.0
H7471 H 0.58771 0.47635 0.45835 0.0
H7472 H 0.6353 0.5005 0.45899 0.0
H7473 H 0.62825 0.51686 0.43943 0.0
C7474 C 0.6078 0.51639 0.35264 0.0
C7475 C 0.6239 0.51765 0.35191 0.0
C7476 C 0.60093 0.51793 0.36751 0.0
C7477 C 0.60977 0.52102 0.38254 0.0
C7478 C 0.62582 0.52206 0.38185 0.0
C7479 C 0.6327 0.52046 0.36697 0.0
C7480 C 0.60239 0.52305 0.39876 0.0
C7481 C 0.60637 0.51487 0.41107 0.0
C7482 C 0.59121 0.5328 0.40221 0.0
C7483 C 0.5872 0.54318 0.39091 0.0
C7484 C 0.5988 0.55476 0.38584 0.0
C7485 C 0.59497 0.56454 0.37521 0.0
C7486 C 0.57956 0.56294 0.36967 0.0
C7487 C 0.56794 0.55158 0.37479 0.0
C7488 C 0.57172 0.54176 0.3854 0.0
C7489 C 0.58257 0.53431 0.47524 0.0
C7490 C 0.56634 0.5308 0.47575 0.0
C7491 C 0.58957 0.53248 0.46045 0.0
C7492 C 0.58068 0.52732 0.44541 0.0
C7493 C 0.56447 0.52415 0.44591 0.0
C7494 C 0.55749 0.52572 0.46071 0.0
C7495 C 0.58817 0.5254 0.42933 0.0
C7496 C 0.58421 0.53361 0.41708 0.0
C7497 C 0.59946 0.51581 0.42602 0.0
C7498 C 0.60378 0.50596 0.4377 0.0
C7499 C 0.59241 0.49438 0.4431 0.0
C7500 C 0.59651 0.48521 0.4542 0.0
C7501 C 0.61196 0.48741 0.45991 0.0
C7502 C 0.62334 0.4988 0.45454 0.0
C7503 C 0.6193 0.50802 0.44343 0.0
H7504 H 0.6151 0.48025 0.46847 0.0
H7505 H 0.57661 0.57053 0.36145 0.0
H7506 H 0.28516 0.86446 0.09426 0.0
H7507 H 0.28937 0.85121 0.11705 0.0
H7508 H 0.31936 0.89607 0.14228 0.0
H7509 H 0.31476 0.90967 0.11986 0.0
H7510 H 0.33275 0.86837 0.13815 0.0
H7511 H 0.28729 0.88426 0.15709 0.0
H7512 H 0.26014 0.88676 0.15558 0.0
H7513 H 0.24506 0.83427 0.14624 0.0
H7514 H 0.27214 0.83144 0.14742 0.0
H7515 H 0.34932 0.8365 0.20717 0.0
H7516 H 0.34115 0.85383 0.18961 0.0
H7517 H 0.30476 0.81324 0.16629 0.0
H7518 H 0.31281 0.79591 0.18391 0.0
H7519 H 0.29445 0.84039 0.17073 0.0
H7520 H 0.33896 0.82414 0.14915 0.0
H7521 H 0.36584 0.82067 0.14977 0.0
H7522 H 0.38239 0.87287 0.16293 0.0
H7523 H 0.35557 0.87664 0.16261 0.0
C7524 C 0.2923 0.87167 0.10482 0.0
C7525 C 0.29977 0.88809 0.10514 0.0
C7526 C 0.29472 0.86406 0.11782 0.0
C7527 C 0.30468 0.8727 0.13128 0.0
C7528 C 0.31167 0.88923 0.13193 0.0
C7529 C 0.30912 0.89691 0.11905 0.0
C7530 C 0.30906 0.864 0.14386 0.0
C7531 C 0.32446 0.86255 0.14555 0.0
C7532 C 0.29809 0.856 0.15306 0.0
C7533 C 0.28177 0.85765 0.15216 0.0
C7534 C 0.2782 0.87325 0.15452 0.0
C7535 C 0.26281 0.87472 0.15377 0.0
C7536 C 0.25088 0.86069 0.15076 0.0
C7537 C 0.25431 0.84514 0.14853 0.0
C7538 C 0.26968 0.84359 0.14926 0.0
C7539 C 0.33962 0.83128 0.19825 0.0
C7540 C 0.33178 0.81483 0.19677 0.0
C7541 C 0.33498 0.84117 0.18823 0.0
C7542 C 0.32252 0.83473 0.17646 0.0
C7543 C 0.3144 0.81845 0.17529 0.0
C7544 C 0.31899 0.80857 0.18537 0.0
C7545 C 0.31817 0.84483 0.1651 0.0
C7546 C 0.30279 0.84646 0.16355 0.0
C7547 C 0.32913 0.85287 0.15587 0.0
C7548 C 0.34526 0.85065 0.15602 0.0
C7549 C 0.34833 0.83487 0.1523 0.0
C7550 C 0.36355 0.83285 0.15258 0.0
C7551 C 0.37582 0.84654 0.15644 0.0
C7552 C 0.37288 0.86228 0.15998 0.0
C7553 C 0.35767 0.86436 0.15974 0.0
H7554 H 0.3876 0.84495 0.15665 0.0
H7555 H 0.23898 0.86186 0.1502 0.0
H7556 H 0.96898 0.58722 0.87096 0.0
H7557 H 0.9855 0.58926 0.89572 0.0
H7558 H 0.96191 0.54056 0.90022 0.0
H7559 H 0.9456 0.53837 0.87542 0.0
H7560 H 0.966 0.5659 0.92937 0.0
H7561 H 0.99413 0.54334 0.88599 0.0
H7562 H 0.00693 0.54399 0.86082 0.0
H7563 H 0.03777 0.58945 0.8825 0.0
H7564 H 0.02498 0.58918 0.90775 0.0
H7565 H 0.00784 0.53141 0.97955 0.0
H7566 H 0.9943 0.53804 0.95679 0.0
H7567 H 0.03067 0.58078 0.95749 0.0
H7568 H 0.04459 0.57398 0.98023 0.0
H7569 H 0.02153 0.56483 0.92728 0.0
H7570 H 0.99657 0.58516 0.97223 0.0
H7571 H 0.9844 0.58425 0.99774 0.0
H7572 H 0.9479 0.54457 0.97391 0.0
H7573 H 0.95998 0.545 0.9483 0.0
C7574 C 0.96735 0.57701 0.8773 0.0
C7575 C 0.95612 0.56261 0.87134 0.0
C7576 C 0.97676 0.57818 0.89136 0.0
C7577 C 0.97485 0.56506 0.89971 0.0
C7578 C 0.96348 0.5508 0.89391 0.0
C7579 C 0.95428 0.54952 0.87973 0.0
C7580 C 0.98487 0.56589 0.91436 0.0
C7581 C 0.97814 0.56566 0.92898 0.0
C7582 C 1.0008 0.5662 0.91383 0.0
C7583 C 0.00846 0.56636 0.89867 0.0
C7584 C 1.00353 0.55356 0.88533 0.0
C7585 C 0.01081 0.55384 0.87107 0.0
C7586 C 0.02312 0.56679 0.87004 0.0
C7587 C 0.0282 0.57946 0.8833 0.0
C7588 C 0.02095 0.57924 0.89759 0.0
C7589 C 0.013 0.54223 0.97491 0.0
C7590 C 0.02724 0.55223 0.98174 0.0
C7591 C 0.0052 0.54605 0.96193 0.0
C7592 C 0.01131 0.56012 0.95571 0.0
C7593 C 0.02571 0.56995 0.96222 0.0
C7594 C 0.03364 0.56603 0.97517 0.0
C7595 C 1.00254 0.56424 0.94226 0.0
C7596 C 0.00949 0.56547 0.92786 0.0
C7597 C 0.98683 0.56505 0.94304 0.0
C7598 C 0.97925 0.56506 0.95833 0.0
C7599 C 0.986 0.57617 0.97243 0.0
C7600 C 0.97914 0.57571 0.98692 0.0
C7601 C 0.96545 0.56429 0.98743 0.0
C7602 C 0.95854 0.55336 0.97347 0.0
C7603 C 0.96538 0.55373 0.95896 0.0
H7604 H 0.96009 0.56401 0.99859 0.0
H7605 H 0.02874 0.56698 0.85899 0.0
H7606 H 0.29564 0.21339 0.60186 0.0
H7607 H 0.29363 0.22488 0.62998 0.0
H7608 H 0.29537 0.27247 0.61763 0.0
H7609 H 0.2976 0.26104 0.58934 0.0
H7610 H 0.31426 0.27379 0.64565 0.0
H7611 H 0.26169 0.251 0.6249 0.0
H7612 H 0.23999 0.22956 0.6104 0.0
H7613 H 0.24643 0.19804 0.64366 0.0
H7614 H 0.26832 0.21918 0.65822 0.0
H7615 H 0.29929 0.30077 0.72751 0.0
H7616 H 0.29603 0.29602 0.69784 0.0
H7617 H 0.28951 0.24386 0.69633 0.0
H7618 H 0.29236 0.24856 0.72565 0.0
H7619 H 0.27046 0.24906 0.67416 0.0
H7620 H 0.3249 0.2685 0.69167 0.0
H7621 H 0.34751 0.28852 0.70639 0.0
H7622 H 0.33847 0.32474 0.67959 0.0
H7623 H 0.31567 0.30498 0.66486 0.0
C7624 C 0.29575 0.22634 0.6051 0.0
C7625 C 0.29683 0.23629 0.5933 0.0
C7626 C 0.29446 0.23287 0.62119 0.0
C7627 C 0.29419 0.24952 0.62593 0.0
C7628 C 0.29549 0.25958 0.61426 0.0
C7629 C 0.29667 0.25301 0.59808 0.0
C7630 C 0.29257 0.25623 0.64309 0.0
C7631 C 0.30452 0.26863 0.65182 0.0
C7632 C 0.27999 0.24934 0.65123 0.0
C7633 C 0.26672 0.23666 0.6426 0.0
C7634 C 0.25855 0.23946 0.62907 0.0
C7635 C 0.2462 0.22736 0.62084 0.0
C7636 C 0.24185 0.21244 0.62609 0.0
C7637 C 0.24982 0.2096 0.6396 0.0
C7638 C 0.26218 0.22165 0.64786 0.0
C7639 C 0.29678 0.28831 0.72076 0.0
C7640 C 0.29578 0.27499 0.7288 0.0
C7641 C 0.29507 0.2856 0.70384 0.0
C7642 C 0.29264 0.26956 0.69478 0.0
C7643 C 0.29128 0.25632 0.70295 0.0
C7644 C 0.29296 0.25902 0.71972 0.0
C7645 C 0.29237 0.26626 0.67685 0.0
C7646 C 0.28005 0.25447 0.66795 0.0
C7647 C 0.30472 0.27353 0.66861 0.0
C7648 C 0.3185 0.28534 0.67731 0.0
C7649 C 0.32769 0.28077 0.689 0.0
C7650 C 0.34054 0.29206 0.69733 0.0
C7651 C 0.34439 0.30791 0.69396 0.0
C7652 C 0.33544 0.31248 0.68221 0.0
C7653 C 0.32256 0.30124 0.67386 0.0
H7654 H 0.35434 0.31664 0.70042 0.0
H7655 H 0.2323 0.20309 0.6197 0.0
H7656 H 0.59915 0.50833 0.1897 0.0
H7657 H 0.58714 0.51221 0.16444 0.0
H7658 H 0.63205 0.52949 0.14902 0.0
H7659 H 0.64415 0.52538 0.17399 0.0
H7660 H 0.61569 0.54824 0.14046 0.0
H7661 H 0.6055 0.49007 0.13232 0.0
H7662 H 0.59578 0.46185 0.13667 0.0
H7663 H 0.54942 0.46928 0.13523 0.0
H7664 H 0.55889 0.49765 0.13112 0.0
H7665 H 0.59384 0.54398 0.05691 0.0
H7666 H 0.6035 0.54041 0.08327 0.0
H7667 H 0.55694 0.52945 0.09685 0.0
H7668 H 0.54716 0.53315 0.07009 0.0
H7669 H 0.57293 0.5078 0.1067 0.0
H7670 H 0.58564 0.56844 0.12093 0.0
H7671 H 0.59655 0.59649 0.11655 0.0
H7672 H 0.63903 0.58254 0.10478 0.0
H7673 H 0.62844 0.55456 0.10949 0.0
C7674 C 0.60665 0.51274 0.18096 0.0
C7675 C 0.62293 0.5165 0.18454 0.0
C7676 C 0.59962 0.51499 0.16624 0.0
C7677 C 0.60843 0.52112 0.15422 0.0
C7678 C 0.62465 0.52486 0.15775 0.0
C7679 C 0.63168 0.52254 0.17239 0.0
C7680 C 0.60101 0.52422 0.1384 0.0
C7681 C 0.60646 0.53916 0.13313 0.0
C7682 C 0.58861 0.51285 0.12843 0.0
C7683 C 0.58295 0.49609 0.13168 0.0
C7684 C 0.59326 0.48579 0.13319 0.0
C7685 C 0.58779 0.46974 0.13555 0.0
C7686 C 0.572 0.46381 0.13631 0.0
C7687 C 0.56166 0.47392 0.13472 0.0
C7688 C 0.56707 0.48998 0.13238 0.0
C7689 C 0.58556 0.54112 0.06556 0.0
C7690 C 0.56964 0.53924 0.06115 0.0
C7691 C 0.59119 0.53912 0.08088 0.0
C7692 C 0.5812 0.53484 0.09268 0.0
C7693 C 0.56517 0.53284 0.08833 0.0
C7694 C 0.55949 0.5351 0.07292 0.0
C7695 C 0.58761 0.53179 0.10895 0.0
C7696 C 0.58206 0.51685 0.11421 0.0
C7697 C 0.60004 0.54301 0.11887 0.0
C7698 C 0.60618 0.55944 0.11527 0.0
C7699 C 0.59725 0.57137 0.11727 0.0
C7700 C 0.60343 0.58728 0.1149 0.0
C7701 C 0.61844 0.59127 0.11028 0.0
C7702 C 0.62738 0.57942 0.10827 0.0
C7703 C 0.62134 0.56358 0.1109 0.0
H7704 H 0.62315 0.60355 0.10833 0.0
H7705 H 0.56778 0.45135 0.13805 0.0
H7706 H 0.32756 0.89396 0.94776 0.0
H7707 H 0.33016 0.87866 0.92111 0.0
H7708 H 0.29384 0.83877 0.92835 0.0
H7709 H 0.29114 0.85407 0.95509 0.0
H7710 H 0.32111 0.82939 0.91402 0.0
H7711 H 0.28371 0.86266 0.90762 0.0
H7712 H 0.27483 0.88865 0.91109 0.0
H7713 H 0.31219 0.90972 0.88553 0.0
H7714 H 0.32143 0.88391 0.88214 0.0
H7715 H 0.29889 0.78749 0.83369 0.0
H7716 H 0.30166 0.80081 0.86183 0.0
H7717 H 0.32718 0.8455 0.84934 0.0
H7718 H 0.32328 0.83264 0.82099 0.0
H7719 H 0.30666 0.85277 0.86707 0.0
H7720 H 0.34382 0.82008 0.8717 0.0
H7721 H 0.35387 0.7948 0.86826 0.0
H7722 H 0.31941 0.77348 0.8969 0.0
H7723 H 0.30901 0.79857 0.90035 0.0
C7724 C 0.32027 0.88184 0.94375 0.0
C7725 C 0.30912 0.87518 0.95343 0.0
C7726 C 0.32175 0.87315 0.92855 0.0
C7727 C 0.31218 0.85764 0.92283 0.0
C7728 C 0.30135 0.85072 0.93263 0.0
C7729 C 0.29973 0.8595 0.94779 0.0
C7730 C 0.31282 0.84914 0.90619 0.0
C7731 C 0.31784 0.83435 0.9037 0.0
C7732 C 0.30897 0.85596 0.89285 0.0
C7733 C 0.30335 0.87143 0.89478 0.0
C7734 C 0.29011 0.87289 0.90287 0.0
C7735 C 0.285 0.88757 0.9048 0.0
C7736 C 0.29297 0.90084 0.89858 0.0
C7737 C 0.30604 0.89944 0.89037 0.0
C7738 C 0.31122 0.88478 0.88843 0.0
C7739 C 0.30499 0.80018 0.83689 0.0
C7740 C 0.31034 0.80916 0.825 0.0
C7741 C 0.30684 0.80772 0.85308 0.0
C7742 C 0.31466 0.8242 0.85778 0.0
C7743 C 0.32096 0.83283 0.84602 0.0
C7744 C 0.31877 0.82541 0.82978 0.0
C7745 C 0.31507 0.83288 0.87467 0.0
C7746 C 0.31014 0.84775 0.87728 0.0
C7747 C 0.31924 0.82622 0.88808 0.0
C7748 C 0.32556 0.81117 0.88619 0.0
C7749 C 0.33832 0.80997 0.87719 0.0
C7750 C 0.34409 0.79568 0.87525 0.0
C7751 C 0.33726 0.78253 0.88233 0.0
C7752 C 0.32468 0.78367 0.89141 0.0
C7753 C 0.31886 0.79794 0.89339 0.0
H7754 H 0.34174 0.77147 0.88079 0.0
H7755 H 0.28899 0.9122 0.90008 0.0
H7756 H 0.93451 0.5462 0.70529 0.0
H7757 H 0.95183 0.54471 0.68375 0.0
H7758 H 0.99062 0.56997 0.71766 0.0
H7759 H 0.97358 0.57097 0.73942 0.0
H7760 H 0.98948 0.58162 0.6875 0.0
H7761 H 0.98572 0.53107 0.70826 0.0
H7762 H 0.97144 0.50552 0.71559 0.0
H7763 H 0.95173 0.48842 0.66674 0.0
H7764 H 0.96573 0.514 0.65918 0.0
H7765 H 0.05302 0.56619 0.64561 0.0
H7766 H 0.0343 0.56792 0.66573 0.0
H7767 H 0.99893 0.53465 0.63216 0.0
H7768 H 0.01772 0.53228 0.61224 0.0
H7769 H 0.99699 0.52715 0.66106 0.0
H7770 H 1.00033 0.57571 0.63918 0.0
H7771 H 0.01309 0.60117 0.63056 0.0
H7772 H 0.03146 0.62208 0.67926 0.0
H7773 H 0.01897 0.59665 0.68816 0.0
C7774 C 0.94674 0.55135 0.70823 0.0
C7775 C 0.95265 0.55863 0.72414 0.0
C7776 C 0.95658 0.55058 0.69587 0.0
C7777 C 0.97246 0.55718 0.69919 0.0
C7778 C 0.97836 0.56489 0.7149 0.0
C7779 C 0.96857 0.56551 0.7273 0.0
C7780 C 0.98307 0.55551 0.68641 0.0
C7781 C 0.99128 0.56975 0.6818 0.0
C7782 C 0.98494 0.53996 0.67868 0.0
C7783 C 0.97664 0.52452 0.6832 0.0
C7784 C 0.97824 0.52192 0.69911 0.0
C7785 C 0.97022 0.50743 0.7033 0.0
C7786 C 0.96065 0.49538 0.69165 0.0
C7787 C 0.95913 0.49778 0.67577 0.0
C7788 C 0.96711 0.51227 0.67152 0.0
C7789 C 0.04132 0.55905 0.6426 0.0
C7790 C 0.03684 0.54919 0.6273 0.0
C7791 C 0.03059 0.56021 0.65403 0.0
C7792 C 0.01517 0.55164 0.65033 0.0
C7793 C 0.01075 0.54145 0.63523 0.0
C7794 C 0.02148 0.54022 0.62382 0.0
C7795 C 0.00364 0.5533 0.66223 0.0
C7796 C 0.99521 0.53905 0.66667 0.0
C7797 C 1.00136 0.56884 0.66958 0.0
C7798 C 0.00884 0.5842 0.66431 0.0
C7799 C 0.00719 0.58568 0.64804 0.0
C7800 C 0.01436 0.60012 0.6431 0.0
C7801 C 0.02313 0.61321 0.65435 0.0
C7802 C 0.02469 0.61192 0.67056 0.0
C7803 C 0.01755 0.5975 0.67556 0.0
H7804 H 0.02869 0.62436 0.6505 0.0
H7805 H 0.95444 0.48416 0.69491 0.0
H7806 H 0.28612 0.20372 0.41772 0.0
H7807 H 0.28519 0.21356 0.39227 0.0
H7808 H 0.31274 0.26073 0.4155 0.0
H7809 H 0.31322 0.25102 0.44116 0.0
H7810 H 0.29198 0.26595 0.39671 0.0
H7811 H 0.3269 0.23036 0.38953 0.0
H7812 H 0.33708 0.20528 0.38816 0.0
H7813 H 0.30185 0.17986 0.35061 0.0
H7814 H 0.29122 0.20467 0.352 0.0
H7815 H 0.31395 0.29238 0.32369 0.0
H7816 H 0.31455 0.28237 0.34911 0.0
H7817 H 0.27737 0.2412 0.3293 0.0
H7818 H 0.27656 0.25127 0.30379 0.0
H7819 H 0.30301 0.2332 0.34592 0.0
H7820 H 0.26898 0.27077 0.35404 0.0
H7821 H 0.26202 0.29749 0.3542 0.0
H7822 H 0.30002 0.32095 0.38937 0.0
H7823 H 0.30738 0.29441 0.38921 0.0
C7824 C 0.29204 0.21616 0.41738 0.0
C7825 C 0.29983 0.22656 0.43144 0.0
C7826 C 0.29157 0.22178 0.40278 0.0
C7827 C 0.29915 0.23783 0.40176 0.0
C7828 C 0.3068 0.24829 0.41587 0.0
C7829 C 0.30708 0.24275 0.43055 0.0
C7830 C 0.29882 0.24377 0.38611 0.0
C7831 C 0.29464 0.25884 0.38569 0.0
C7832 C 0.30207 0.23449 0.37153 0.0
C7833 C 0.3081 0.21934 0.37106 0.0
C7834 C 0.32116 0.21936 0.38115 0.0
C7835 C 0.32705 0.20519 0.38034 0.0
C7836 C 0.32007 0.19096 0.36936 0.0
C7837 C 0.3072 0.19087 0.35917 0.0
C7838 C 0.30122 0.20498 0.35998 0.0
C7839 C 0.30594 0.28114 0.32468 0.0
C7840 C 0.29522 0.27257 0.31171 0.0
C7841 C 0.30625 0.2755 0.33926 0.0
C7842 C 0.29594 0.26111 0.34113 0.0
C7843 C 0.2854 0.25236 0.32812 0.0
C7844 C 0.28492 0.25814 0.31358 0.0
C7845 C 0.29626 0.2552 0.35667 0.0
C7846 C 0.30041 0.24019 0.35702 0.0
C7847 C 0.29338 0.26469 0.3712 0.0
C7848 C 0.2888 0.28061 0.37152 0.0
C7849 C 0.27592 0.28164 0.36172 0.0
C7850 C 0.2719 0.29675 0.36182 0.0
C7851 C 0.28058 0.3109 0.37178 0.0
C7852 C 0.29331 0.30997 0.38166 0.0
C7853 C 0.2974 0.2949 0.38158 0.0
H7854 H 0.27742 0.32257 0.37188 0.0
H7855 H 0.32468 0.18003 0.36871 0.0
H7856 H 0.34717 0.59194 0.50898 0.0
H7857 H 0.36908 0.57886 0.50566 0.0
H7858 H 0.40049 0.6261 0.51923 0.0
H7859 H 0.3785 0.63939 0.52203 0.0
H7860 H 0.40891 0.60813 0.49309 0.0
H7861 H 0.39608 0.59995 0.54534 0.0
H7862 H 0.37921 0.59226 0.56634 0.0
H7863 H 0.36681 0.54249 0.54064 0.0
H7864 H 0.38343 0.54993 0.51934 0.0
H7865 H 0.47165 0.5664 0.49707 0.0
H7866 H 0.45353 0.5843 0.50341 0.0
H7867 H 0.41529 0.54258 0.48993 0.0
H7868 H 0.43329 0.52458 0.48402 0.0
H7869 H 0.41306 0.56084 0.51914 0.0
H7870 H 0.4245 0.57039 0.46569 0.0
H7871 H 0.44174 0.57854 0.44513 0.0
H7872 H 0.4575 0.62655 0.47411 0.0
H7873 H 0.44056 0.61859 0.49503 0.0
C7874 C 0.35873 0.59956 0.51119 0.0
C7875 C 0.36112 0.61669 0.51574 0.0
C7876 C 0.37124 0.59206 0.50945 0.0
C7877 C 0.3864 0.60151 0.5124 0.0
C7878 C 0.38887 0.61861 0.51698 0.0
C7879 C 0.37632 0.62615 0.51871 0.0
C7880 C 0.39956 0.5934 0.51019 0.0
C7881 C 0.41003 0.598 0.49902 0.0
C7882 C 0.4009 0.58011 0.51785 0.0
C7883 C 0.39093 0.57554 0.53068 0.0
C7884 C 0.38967 0.58739 0.5441 0.0
C7885 C 0.38017 0.58307 0.55607 0.0
C7886 C 0.37192 0.5669 0.55481 0.0
C7887 C 0.3732 0.55501 0.5416 0.0
C7888 C 0.38268 0.55927 0.52958 0.0
C7889 C 0.45937 0.56107 0.49541 0.0
C7890 C 0.45387 0.54409 0.49006 0.0
C7891 C 0.44906 0.57132 0.49895 0.0
C7892 C 0.4331 0.56473 0.49711 0.0
C7893 C 0.42759 0.54786 0.49144 0.0
C7894 C 0.43787 0.53763 0.48791 0.0
C7895 C 0.42204 0.57521 0.50165 0.0
C7896 C 0.41204 0.5711 0.51336 0.0
C7897 C 0.42124 0.589 0.49458 0.0
C7898 C 0.4314 0.59382 0.48201 0.0
C7899 C 0.43175 0.58263 0.46776 0.0
C7900 C 0.44146 0.58723 0.45604 0.0
C7901 C 0.45077 0.60303 0.45836 0.0
C7902 C 0.45034 0.6143 0.47238 0.0
C7903 C 0.44069 0.60975 0.48417 0.0
H7904 H 0.45827 0.60657 0.44927 0.0
H7905 H 0.36457 0.56358 0.56409 0.0
H7906 H 0.87545 0.97534 0.54464 0.0
H7907 H 0.90199 0.99044 0.54398 0.0
H7908 H 0.91827 0.94587 0.54365 0.0
H7909 H 0.89181 0.93068 0.54419 0.0
H7910 H 0.93731 0.97138 0.5633 0.0
H7911 H 0.91314 0.96011 0.50897 0.0
H7912 H 0.89318 0.96074 0.48794 0.0
H7913 H 0.90398 0.01343 0.49872 0.0
H7914 H 0.92388 0.0131 0.51997 0.0
H7915 H 1.00129 1.00146 0.50914 0.0
H7916 H 0.97507 0.98812 0.51319 0.0
H7917 H 0.97909 0.01825 0.56043 0.0
H7918 H 0.00555 0.03148 0.5566 0.0
H7919 H 0.94985 1.00057 0.51793 0.0
H7920 H 0.95684 0.99524 0.58471 0.0
H7921 H 0.97699 0.99332 0.60495 0.0
H7922 H 1.00123 0.97131 0.56752 0.0
H7923 H 0.98109 0.97287 0.54708 0.0
C7924 C 0.88467 0.96874 0.54441 0.0
C7925 C 0.88145 0.95176 0.5444 0.0
C7926 C 0.89985 0.97741 0.54408 0.0
C7927 C 0.91213 0.96926 0.54361 0.0
C7928 C 0.90901 0.95243 0.54407 0.0
C7929 C 0.89385 0.94377 0.54443 0.0
C7930 C 0.92814 0.97806 0.54197 0.0
C7931 C 0.94004 0.97783 0.55342 0.0
C7932 C 0.93176 0.98637 0.52901 0.0
C7933 C 0.91989 0.98658 0.51616 0.0
C7934 C 0.91119 0.97183 0.50693 0.0
C7935 C 0.89989 0.97213 0.49496 0.0
C7936 C 0.89728 0.98711 0.49203 0.0
C7937 C 0.906 1.00183 0.50102 0.0
C7938 C 0.91729 1.00159 0.51302 0.0
C7939 C 0.99668 0.00523 0.52044 0.0
C7940 C 0.00553 0.01764 0.53251 0.0
C7941 C 0.98162 0.99764 0.5227 0.0
C7942 C 0.97509 1.00215 0.53711 0.0
C7943 C 0.98391 0.01447 0.54924 0.0
C7944 C 0.99901 0.0221 0.54699 0.0
C7945 C 0.95903 0.99392 0.53927 0.0
C7946 C 0.94711 0.99426 0.5279 0.0
C7947 C 0.95544 0.98557 0.55221 0.0
C7948 C 0.96753 0.98434 0.56436 0.0
C7949 C 0.96644 0.98994 0.58081 0.0
C7950 C 0.97786 0.98892 0.59231 0.0
C7951 C 0.9904 0.98225 0.58752 0.0
C7952 C 0.99153 0.97653 0.57121 0.0
C7953 C 0.98012 0.9775 0.55965 0.0
H7954 H 0.9992 0.98147 0.59646 0.0
H7955 H 0.88854 0.98732 0.48275 0.0
H7956 H 0.8788 0.14235 0.24995 0.0
H7957 H 0.86587 0.16508 0.25002 0.0
H7958 H 0.86774 0.17308 0.30176 0.0
H7959 H 0.88067 0.15024 0.30179 0.0
H7960 H 0.84214 0.17931 0.29347 0.0
H7961 H 0.89156 0.19976 0.27713 0.0
H7962 H 0.91415 0.20055 0.26122 0.0
H7963 H 0.88565 0.19974 0.2185 0.0
H7964 H 0.86284 0.19873 0.23413 0.0
H7965 H 0.81643 0.25708 0.29623 0.0
H7966 H 0.82872 0.23419 0.29946 0.0
H7967 H 0.83326 0.22474 0.24844 0.0
H7968 H 0.82195 0.24804 0.24551 0.0
H7969 H 0.85711 0.22022 0.25859 0.0
H7970 H 0.8068 0.18872 0.27724 0.0
H7971 H 0.78593 0.18574 0.29552 0.0
H7972 H 0.8184 0.20995 0.33596 0.0
H7973 H 0.83956 0.21226 0.318 0.0
C7974 C 0.87674 0.14893 0.26148 0.0
C7975 C 0.88121 0.14395 0.27587 0.0
C7976 C 0.8692 0.16224 0.2615 0.0
C7977 C 0.86577 0.17158 0.27592 0.0
C7978 C 0.87001 0.16649 0.2903 0.0
C7979 C 0.87752 0.15313 0.29029 0.0
C7980 C 0.85777 0.1863 0.27597 0.0
C7981 C 0.8456 0.18824 0.28583 0.0
C7982 C 0.86183 0.19848 0.26625 0.0
C7983 C 0.87546 0.19897 0.25677 0.0
C7984 C 0.89009 0.19961 0.26432 0.0
C7985 C 0.90293 0.20012 0.25536 0.0
C7986 C 0.90133 0.20014 0.23885 0.0
C7987 C 0.88687 0.19968 0.23128 0.0
C7988 C 0.87398 0.19915 0.24019 0.0
C7989 C 0.81978 0.24994 0.28564 0.0
C7990 C 0.81786 0.25463 0.27051 0.0
C7991 C 0.82685 0.2365 0.28744 0.0
C7992 C 0.83217 0.22692 0.27419 0.0
C7993 C 0.82973 0.23152 0.25911 0.0
C7994 C 0.82299 0.24499 0.25738 0.0
C7995 C 0.84094 0.21292 0.27558 0.0
C7996 C 0.85342 0.21118 0.26605 0.0
C7997 C 0.83736 0.20109 0.2858 0.0
C7998 C 0.82461 0.20103 0.29628 0.0
C7999 C 0.80941 0.19356 0.29001 0.0
C8000 C 0.79759 0.19184 0.30032 0.0
C8001 C 0.8008 0.19788 0.31685 0.0
C8002 C 0.8159 0.2054 0.32314 0.0
C8003 C 0.82783 0.20677 0.31294 0.0
H8004 H 0.7916 0.19663 0.32478 0.0
H8005 H 0.91129 0.20055 0.23193 0.0
H8006 H 0.70638 0.07562 0.99028 0.0
H8007 H 0.6791 0.06378 0.99279 0.0
H8008 H 0.67226 0.11193 0.01245 0.0
H8009 H 0.69927 0.12372 0.01043 0.0
H8010 H 0.66572 0.0884 0.03242 0.0
H8011 H 0.65648 0.09361 0.97682 0.0
H8012 H 0.65858 0.0881 0.94754 0.0
H8013 H 0.64037 0.03672 0.94575 0.0
H8014 H 0.6385 0.04185 0.97509 0.0
H8015 H 0.58588 0.08216 0.04038 0.0
H8016 H 0.61353 0.08802 0.03653 0.0
H8017 H 0.60844 0.03921 0.0087 0.0
H8018 H 0.58083 0.03375 0.01185 0.0
H8019 H 0.62181 0.0596 0.99252 0.0
H8020 H 0.63914 0.05165 0.04604 0.0
H8021 H 0.64166 0.05432 0.07563 0.0
H8022 H 0.64581 0.1064 0.08105 0.0
H8023 H 0.64369 0.10402 0.05147 0.0
C8024 C 0.69898 0.08368 0.99494 0.0
C8025 C 0.70501 0.10059 1.00023 0.0
C8026 C 0.68341 0.07693 0.9962 0.0
C8027 C 0.67375 0.08703 1.00278 0.0
C8028 C 0.67955 0.10397 0.00726 0.0
C8029 C 0.69501 0.1107 0.006 0.0
C8030 C 0.65828 0.07998 0.00723 0.0
C8031 C 0.65606 0.08222 0.02367 0.0
C8032 C 0.64597 0.07119 0.99584 0.0
C8033 C 0.64761 0.06809 0.97825 0.0
C8034 C 0.65319 0.08109 0.97026 0.0
C8035 C 0.65428 0.07804 0.95362 0.0
C8036 C 0.64969 0.06206 0.9448 0.0
C8037 C 0.644 0.04909 0.9526 0.0
C8038 C 0.64294 0.05206 0.96924 0.0
C8039 C 0.59083 0.07263 0.03381 0.0
C8040 C 0.58141 0.05739 0.02682 0.0
C8041 C 0.60663 0.07588 0.03172 0.0
C8042 C 0.61316 0.06395 0.02253 0.0
C8043 C 0.60373 0.04855 0.01594 0.0
C8044 C 0.58797 0.04539 0.01785 0.0
C8045 C 0.62912 0.06834 0.01779 0.0
C8046 C 0.63149 0.0656 1.0013 0.0
C8047 C 0.64174 0.07631 0.0291 0.0
C8048 C 0.64093 0.07761 0.04664 0.0
C8049 C 0.64035 0.06362 0.05358 0.0
C8050 C 0.64196 0.06511 0.07032 0.0
C8051 C 0.64394 0.08053 0.08022 0.0
C8052 C 0.64427 0.09447 0.07338 0.0
C8053 C 0.64293 0.09306 0.05664 0.0
H8054 H 0.64512 0.08165 0.09318 0.0
H8055 H 0.65048 0.05975 0.93192 0.0
H8056 H 0.19873 0.43612 0.24742 0.0
H8057 H 0.20597 0.41222 0.25566 0.0
H8058 H 0.25411 0.43484 0.25531 0.0
H8059 H 0.24695 0.45869 0.24689 0.0
H8060 H 0.24721 0.40017 0.2454 0.0
H8061 H 0.23675 0.44246 0.28807 0.0
H8062 H 0.22004 0.45941 0.3017 0.0
H8063 H 0.18737 0.41589 0.30677 0.0
H8064 H 0.20376 0.39868 0.29285 0.0
H8065 H 0.29258 0.379 0.30447 0.0
H8066 H 0.2787 0.39238 0.287 0.0
H8067 H 0.23544 0.36926 0.30269 0.0
H8068 H 0.24948 0.35636 0.32073 0.0
H8069 H 0.23494 0.39875 0.30182 0.0
H8070 H 0.24821 0.35638 0.26471 0.0
H8071 H 0.26472 0.33918 0.25107 0.0
H8072 H 0.29118 0.38089 0.23501 0.0
H8073 H 0.27519 0.39852 0.24889 0.0
C8074 C 0.21083 0.43574 0.24856 0.0
C8075 C 0.22231 0.4493 0.24673 0.0
C8076 C 0.21493 0.42212 0.25331 0.0
C8077 C 0.23055 0.42193 0.25628 0.0
C8078 C 0.24199 0.43481 0.25308 0.0
C8079 C 0.23791 0.44846 0.24841 0.0
C8080 C 0.23511 0.40974 0.26494 0.0
C8081 C 0.24457 0.39976 0.25773 0.0
C8082 C 0.23115 0.40892 0.28082 0.0
C8083 C 0.22135 0.4193 0.2892 0.0
C8084 C 0.22593 0.43651 0.29194 0.0
C8085 C 0.21652 0.44617 0.29973 0.0
C8086 C 0.20261 0.43873 0.30504 0.0
C8087 C 0.19811 0.42163 0.3026 0.0
C8088 C 0.20744 0.41192 0.29474 0.0
C8089 C 0.28011 0.37695 0.30427 0.0
C8090 C 0.27202 0.36686 0.31398 0.0
C8091 C 0.27217 0.38437 0.29413 0.0
C8092 C 0.25598 0.38143 0.29321 0.0
C8093 C 0.24792 0.37155 0.30314 0.0
C8094 C 0.25589 0.36434 0.3135 0.0
C8095 C 0.2476 0.38946 0.28253 0.0
C8096 C 0.23736 0.39869 0.28936 0.0
C8097 C 0.25077 0.38943 0.26626 0.0
C8098 C 0.26048 0.37882 0.25792 0.0
C8099 C 0.25761 0.36194 0.25839 0.0
C8100 C 0.26687 0.3521 0.2506 0.0
C8101 C 0.27891 0.35893 0.24215 0.0
C8102 C 0.2818 0.37562 0.24152 0.0
C8103 C 0.27265 0.38555 0.24936 0.0
H8104 H 0.28603 0.3513 0.23612 0.0
H8105 H 0.19536 0.44623 0.31109 0.0
H8106 H 0.24798 0.46534 0.02026 0.0
H8107 H 0.22733 0.48023 0.01818 0.0
H8108 H 0.19613 0.44292 0.0366 0.0
H8109 H 0.21681 0.42795 0.03876 0.0
H8110 H 0.18348 0.45221 0.00883 0.0
H8111 H 0.20942 0.47749 0.06087 0.0
H8112 H 0.23199 0.49107 0.0801 0.0
H8113 H 0.24158 0.53086 0.05417 0.0
H8114 H 0.21918 0.5174 0.03464 0.0
H8115 H 0.12458 0.49777 0.01403 0.0
H8116 H 0.14303 0.48175 0.02069 0.0
H8117 H 0.18069 0.52105 0.01499 0.0
H8118 H 0.16246 0.53772 0.00989 0.0
H8119 H 0.18903 0.50927 0.03828 0.0
H8120 H 0.16536 0.48373 0.98494 0.0
H8121 H 0.14365 0.47034 0.96455 0.0
H8122 H 0.13078 0.43149 0.99114 0.0
H8123 H 0.15232 0.44475 0.01179 0.0
C8124 C 0.23672 0.46028 0.02383 0.0
C8125 C 0.23404 0.44547 0.02969 0.0
C8126 C 0.22495 0.46884 0.02272 0.0
C8127 C 0.2102 0.46274 0.02731 0.0
C8128 C 0.20743 0.44787 0.03302 0.0
C8129 C 0.21927 0.43939 0.03434 0.0
C8130 C 0.19773 0.47191 0.02606 0.0
C8131 C 0.18455 0.46461 0.01544 0.0
C8132 C 0.19929 0.48818 0.03442 0.0
C8133 C 0.21269 0.49636 0.04622 0.0
C8134 C 0.21641 0.48907 0.0592 0.0
C8135 C 0.22916 0.49676 0.07016 0.0
C8136 C 0.23823 0.5118 0.06833 0.0
C8137 C 0.23455 0.5192 0.05556 0.0
C8138 C 0.22182 0.51156 0.04455 0.0
C8139 C 0.13678 0.5032 0.01451 0.0
C8140 C 0.14189 0.5191 0.01119 0.0
C8141 C 0.14737 0.49385 0.01806 0.0
C8142 C 0.16334 0.49993 0.01794 0.0
C8143 C 0.16847 0.51592 0.01504 0.0
C8144 C 0.15793 0.52541 0.01187 0.0
C8145 C 0.1748 0.48978 0.02071 0.0
C8146 C 0.18783 0.49686 0.03167 0.0
C8147 C 0.1732 0.47337 0.01246 0.0
C8148 C 0.16034 0.46532 0.99999 0.0
C8149 C 0.15784 0.47238 0.98648 0.0
C8150 C 0.14558 0.46481 0.97488 0.0
C8151 C 0.13581 0.4501 0.97658 0.0
C8152 C 0.13834 0.4429 0.98986 0.0
C8153 C 0.15057 0.45043 1.00151 0.0
H8154 H 0.12632 0.44427 0.96759 0.0
H8155 H 0.2481 0.51773 0.07683 0.0
H8156 H 0.85621 0.97687 0.25434 0.0
H8157 H 0.84358 0.94807 0.25297 0.0
H8158 H 0.88152 0.94173 0.28311 0.0
H8159 H 0.89447 0.97032 0.28408 0.0
H8160 H 0.87334 0.91531 0.26089 0.0
H8161 H 0.84436 0.94504 0.29674 0.0
H8162 H 0.82885 0.96551 0.30524 0.0
H8163 H 0.79442 0.94214 0.26625 0.0
H8164 H 0.80983 0.92166 0.25739 0.0
H8165 H 0.83692 0.83955 0.28258 0.0
H8166 H 0.84906 0.86813 0.28238 0.0
H8167 H 0.81095 0.87182 0.25079 0.0
H8168 H 0.79877 0.84306 0.25087 0.0
H8169 H 0.81881 0.89941 0.27295 0.0
H8170 H 0.84738 0.86924 0.2375 0.0
H8171 H 0.86257 0.84841 0.22928 0.0
H8172 H 0.89762 0.8724 0.26749 0.0
H8173 H 0.88252 0.89325 0.27609 0.0
C8174 C 0.86202 0.96941 0.26062 0.0
C8175 C 0.87651 0.97637 0.26942 0.0
C8176 C 0.85461 0.9528 0.25997 0.0
C8177 C 0.86131 0.94239 0.26813 0.0
C8178 C 0.87586 0.94922 0.27671 0.0
C8179 C 0.88326 0.96583 0.27739 0.0
C8180 C 0.8533 0.92451 0.26772 0.0
C8181 C 0.86147 0.91196 0.26375 0.0
C8182 C 0.83761 0.91964 0.27101 0.0
C8183 C 0.82833 0.93193 0.2763 0.0
C8184 C 0.83354 0.94435 0.2899 0.0
C8185 C 0.82476 0.95594 0.2948 0.0
C8186 C 0.81068 0.95515 0.28626 0.0
C8187 C 0.80534 0.94275 0.27284 0.0
C8188 C 0.81409 0.93114 0.26788 0.0
C8189 C 0.83104 0.84632 0.27552 0.0
C8190 C 0.81661 0.83872 0.26688 0.0
C8191 C 0.8381 0.86284 0.27537 0.0
C8192 C 0.83114 0.87248 0.26648 0.0
C8193 C 0.81671 0.86494 0.25786 0.0
C8194 C 0.80965 0.84836 0.25796 0.0
C8195 C 0.83889 0.89027 0.26622 0.0
C8196 C 0.83067 0.90278 0.27006 0.0
C8197 C 0.85452 0.8951 0.26279 0.0
C8198 C 0.86375 0.88273 0.25753 0.0
C8199 C 0.85828 0.87002 0.24421 0.0
C8200 C 0.86688 0.85821 0.23948 0.0
C8201 C 0.88103 0.85905 0.24788 0.0
C8202 C 0.88665 0.87175 0.261 0.0
C8203 C 0.87808 0.88358 0.2658 0.0
H8204 H 0.88767 0.84989 0.24421 0.0
H8205 H 0.8039 0.96414 0.29007 0.0
H8206 H 0.71044 0.12341 0.74733 0.0
H8207 H 0.72064 0.15297 0.75131 0.0
H8208 H 0.76401 0.14686 0.77189 0.0
H8209 H 0.75361 0.11721 0.76834 0.0
H8210 H 0.75711 0.17236 0.78881 0.0
H8211 H 0.75956 0.1545 0.73304 0.0
H8212 H 0.75098 0.14047 0.70508 0.0
H8213 H 0.71729 0.16992 0.70277 0.0
H8214 H 0.7255 0.18395 0.73082 0.0
H8215 H 0.79882 0.25084 0.77904 0.0
H8216 H 0.78898 0.2213 0.77597 0.0
H8217 H 0.74265 0.22769 0.76666 0.0
H8218 H 0.7526 0.25745 0.76946 0.0
H8219 H 0.75183 0.20246 0.74416 0.0
H8220 H 0.75205 0.22043 0.80205 0.0
H8221 H 0.76572 0.23647 0.82773 0.0
H8222 H 0.80027 0.20766 0.82334 0.0
H8223 H 0.78686 0.19152 0.79758 0.0
C8224 C 0.7222 0.12836 0.75256 0.0
C8225 C 0.7313 0.11804 0.75739 0.0
C8226 C 0.72803 0.14526 0.75483 0.0
C8227 C 0.74319 0.15214 0.76166 0.0
C8228 C 0.75228 0.14184 0.76659 0.0
C8229 C 0.74637 0.12493 0.76452 0.0
C8230 C 0.74942 0.1701 0.76373 0.0
C8231 C 0.7561 0.17886 0.77896 0.0
C8232 C 0.74817 0.1787 0.75093 0.0
C8233 C 0.74301 0.17012 0.73412 0.0
C8234 C 0.7502 0.15786 0.72663 0.0
C8235 C 0.74543 0.14993 0.71075 0.0
C8236 C 0.73356 0.15426 0.70217 0.0
C8237 C 0.72646 0.16655 0.70945 0.0
C8238 C 0.73117 0.1745 0.72534 0.0
C8239 C 0.78658 0.24595 0.77614 0.0
C8240 C 0.77649 0.25624 0.77387 0.0
C8241 C 0.78096 0.22911 0.77458 0.0
C8242 C 0.76512 0.22239 0.77105 0.0
C8243 C 0.75493 0.23272 0.76929 0.0
C8244 C 0.76057 0.24962 0.77097 0.0
C8245 C 0.75927 0.20452 0.7691 0.0
C8246 C 0.75274 0.19584 0.75392 0.0
C8247 C 0.76114 0.196 0.78176 0.0
C8248 C 0.76848 0.20481 0.79787 0.0
C8249 C 0.76256 0.21751 0.80658 0.0
C8250 C 0.77029 0.22667 0.82111 0.0
C8251 C 0.78391 0.22316 0.82709 0.0
C8252 C 0.78975 0.2104 0.81864 0.0
C8253 C 0.78205 0.20119 0.80412 0.0
H8254 H 0.78989 0.23023 0.83833 0.0
H8255 H 0.72989 0.14812 0.68987 0.0
loop_
_geom_bond_atom_site_label_1
_geom_bond_atom_site_label_2
_geom_bond_distance
_geom_bond_site_symmetry_2
_ccdc_geom_bond_type
Li0 N17 1.990 . S
Li0 O60 1.956 . S
Li0 O61 1.970 . S
Li0 O62 1.961 . S
Li1 N25 1.990 . S
Li1 O60 1.970 . S
Li1 O61 1.956 . S
Li1 O63 1.961 . S
Li2 N47 1.990 . S
Li2 O60 1.961 . S
Li2 O62 1.956 . S
Li2 O63 1.970 . S
Li3 N53 1.990 . S
Li3 O61 1.961 . S
Li3 O62 1.970 . S
Li3 O63 1.956 . S
C4 C6 1.348 . S
C4 C7 1.356 . S
C4 O60 1.325 . S
N5 C8 1.314 . S
N5 C9 1.279 . S
C6 C4 1.348 . S
C6 C8 1.353 . S
C6 H64 0.929 . S
C7 C4 1.356 . S
C7 C9 1.358 . S
C7 H65 0.930 . S
C8 N5 1.314 . S
C8 C6 1.353 . S
C8 H66 0.930 . S
C9 N5 1.279 . S
C9 C7 1.358 . S
C9 H67 0.930 . S
C10 C13 1.348 . S
C10 C14 1.356 . S
C10 O61 1.325 . S
C11 N12 1.279 . S
C11 C14 1.358 . S
C11 H68 0.930 . S
N12 C11 1.279 . S
N12 C15 1.314 . S
C13 C10 1.348 . S
C13 C15 1.353 . S
C13 H69 0.929 . S
C14 C10 1.356 . S
C14 C11 1.358 . S
C14 H70 0.930 . S
C15 N12 1.314 . S
C15 C13 1.353 . S
C15 H71 0.930 . S
C16 N17 1.314 . S
C16 C21 1.353 . S
C16 H22 0.930 . S
N17 Li0 1.990 . S
N17 C16 1.314 . S
N17 C19 1.279 . S
C18 C19 1.358 . S
C18 C20 1.356 . S
C18 H72 0.930 . S
C19 N17 1.279 . S
C19 C18 1.358 . S
C19 H23 0.930 . S
C20 C18 1.356 . S
C20 C21 1.348 . S
C21 C16 1.353 . S
C21 C20 1.348 . S
C21 H73 0.929 . S
H22 C16 0.930 . S
H23 C19 0.930 . S
C24 N25 1.314 . S
C24 C26 1.353 . S
C24 H30 0.930 . S
N25 Li1 1.990 . S
N25 C24 1.314 . S
N25 C28 1.279 . S
C26 C24 1.353 . S
C26 C29 1.348 . S
C26 H74 0.929 . S
C27 C28 1.358 . S
C27 C29 1.356 . S
C27 H75 0.930 . S
C28 N25 1.279 . S
C28 C27 1.358 . S
C28 H31 0.930 . S
C29 C26 1.348 . S
C29 C27 1.356 . S
H30 C24 0.930 . S
H31 C28 0.930 . S
C32 C34 1.348 . S
C32 C35 1.356 . S
C32 O62 1.325 . S
N33 C36 1.314 . S
N33 C37 1.279 . S
C34 C32 1.348 . S
C34 C36 1.353 . S
C34 H76 0.929 . S
C35 C32 1.356 . S
C35 C37 1.358 . S
C35 H77 0.930 . S
C36 N33 1.314 . S
C36 C34 1.353 . S
C36 H78 0.930 . S
C37 N33 1.279 . S
C37 C35 1.358 . S
C37 H79 0.930 . S
C38 C39 1.348 . S
C38 C40 1.356 . S
C38 O63 1.325 . S
C39 C38 1.348 . S
C39 C41 1.353 . S
C39 H80 0.929 . S
C40 C38 1.356 . S
C40 C42 1.358 . S
C40 H81 0.930 . S
C41 C39 1.353 . S
C41 N43 1.314 . S
C41 H82 0.930 . S
C42 C40 1.358 . S
C42 N43 1.279 . S
C42 H83 0.930 . S
N43 C41 1.314 . S
N43 C42 1.279 . S
C44 C46 1.353 . S
C44 N47 1.314 . S
C44 H50 0.930 . S
C45 N47 1.279 . S
C45 C48 1.358 . S
C45 H51 0.930 . S
C46 C44 1.353 . S
C46 C49 1.348 . S
C46 H84 0.929 . S
N47 Li2 1.990 . S
N47 C44 1.314 . S
N47 C45 1.279 . S
C48 C45 1.358 . S
C48 C49 1.356 . S
C48 H85 0.930 . S
C49 C46 1.348 . S
C49 C48 1.356 . S
H50 C44 0.930 . S
H51 C45 0.930 . S
C52 N53 1.314 . S
C52 C54 1.353 . S
C52 H58 0.930 . S
N53 Li3 1.990 . S
N53 C52 1.314 . S
N53 C56 1.279 . S
C54 C52 1.353 . S
C54 C57 1.348 . S
C54 H86 0.929 . S
C55 C56 1.358 . S
C55 C57 1.356 . S
C55 H87 0.930 . S
C56 N53 1.279 . S
C56 C55 1.358 . S
C56 H59 0.930 . S
C57 C54 1.348 . S
C57 C55 1.356 . S
H58 C52 0.930 . S
H59 C56 0.930 . S
O60 Li0 1.956 . S
O60 Li1 1.970 . S
O60 Li2 1.961 . S
O60 C4 1.325 . S
O61 Li0 1.970 . S
O61 Li1 1.956 . S
O61 Li3 1.961 . S
O61 C10 1.325 . S
O62 Li0 1.961 . S
O62 Li2 1.956 . S
O62 Li3 1.970 . S
O62 C32 1.325 . S
O63 Li1 1.961 . S
O63 Li2 1.970 . S
O63 Li3 1.956 . S
O63 C38 1.325 . S
H64 C6 0.929 . S
H65 C7 0.930 . S
H66 C8 0.930 . S
H67 C9 0.930 . S
H68 C11 0.930 . S
H69 C13 0.929 . S
H70 C14 0.930 . S
H71 C15 0.930 . S
H72 C18 0.930 . S
H73 C21 0.929 . S
H74 C26 0.929 . S
H75 C27 0.930 . S
H76 C34 0.929 . S
H77 C35 0.930 . S
H78 C36 0.930 . S
H79 C37 0.930 . S
H80 C39 0.929 . S
H81 C40 0.930 . S
H82 C41 0.930 . S
H83 C42 0.930 . S
H84 C46 0.929 . S
H85 C48 0.930 . S
H86 C54 0.929 . S
H87 C55 0.930 . S
Li88 N105 1.990 . S
Li88 O148 1.956 . S
Li88 O149 1.970 . S
Li88 O150 1.961 1_455 S
Li89 N113 1.990 . S
Li89 O148 1.970 . S
Li89 O149 1.956 . S
Li89 O151 1.928 1_455 S
Li90 N135 1.990 . S
Li90 O148 1.961 1_655 S
Li90 O150 1.956 . S
Li90 O151 1.973 . S
Li91 N141 1.990 . S
Li91 O149 1.961 1_655 S
Li91 O150 1.970 . S
Li91 O151 2.001 . S
C92 C94 1.348 . S
C92 C95 1.356 . S
C92 O148 1.325 . S
N93 C96 1.314 . S
N93 C97 1.279 . S
C94 C92 1.348 . S
C94 C96 1.353 . S
C94 H152 0.929 . S
C95 C92 1.356 . S
C95 C97 1.358 . S
C95 H153 0.930 . S
C96 N93 1.314 . S
C96 C94 1.353 . S
C96 H154 0.930 . S
C97 N93 1.279 . S
C97 C95 1.358 . S
C97 H155 0.930 . S
C98 C101 1.348 . S
C98 C102 1.356 . S
C98 O149 1.325 . S
C99 N100 1.279 . S
C99 C102 1.358 . S
C99 H156 0.930 . S
N100 C99 1.279 . S
N100 C103 1.314 . S
C101 C98 1.348 . S
C101 C103 1.353 . S
C101 H157 0.929 . S
C102 C98 1.356 . S
C102 C99 1.358 . S
C102 H158 0.924 1_455 S
C103 N100 1.314 . S
C103 C101 1.353 . S
C103 H159 0.930 . S
C104 N105 1.314 1_655 S
C104 C109 1.353 . S
C104 H110 0.930 . S
N105 Li88 1.990 . S
N105 C104 1.314 1_455 S
N105 C107 1.279 . S
C106 C107 1.358 . S
C106 C108 1.356 . S
C106 H160 0.930 . S
C107 N105 1.279 . S
C107 C106 1.358 . S
C107 H111 0.930 . S
C108 C106 1.356 . S
C108 C109 1.348 1_455 S
C109 C104 1.353 . S
C109 C108 1.348 1_655 S
C109 H161 0.929 . S
H110 C104 0.930 . S
H111 C107 0.930 . S
C112 N113 1.314 . S
C112 C114 1.353 . S
C112 H118 0.930 . S
N113 Li89 1.990 . S
N113 C112 1.314 . S
N113 C116 1.279 . S
C114 C112 1.353 . S
C114 C117 1.348 . S
C114 H162 0.929 . S
C115 C116 1.358 . S
C115 C117 1.356 . S
C115 H163 0.930 . S
C116 N113 1.279 . S
C116 C115 1.358 . S
C116 H119 0.930 . S
C117 C114 1.348 . S
C117 C115 1.356 . S
H118 C112 0.930 . S
H119 C116 0.930 . S
C120 C122 1.348 . S
C120 C123 1.356 . S
C120 O150 1.325 . S
N121 C124 1.314 . S
N121 C125 1.279 . S
C122 C120 1.348 . S
C122 C124 1.353 . S
C122 H164 0.929 . S
C123 C120 1.356 . S
C123 C125 1.358 . S
C123 H165 0.930 . S
C124 N121 1.314 . S
C124 C122 1.353 . S
C124 H166 0.930 . S
C125 N121 1.279 . S
C125 C123 1.358 . S
C125 H167 0.930 . S
C126 C127 1.348 . S
C126 C128 1.356 1_655 S
C126 O151 1.323 . S
C127 C126 1.348 . S
C127 C129 1.353 . S
C127 H168 0.929 . S
C128 C126 1.356 1_455 S
C128 C130 1.359 . S
C128 H169 0.930 . S
C129 C127 1.353 . S
C129 N131 1.314 . S
C129 H170 0.930 . S
C130 C128 1.359 . S
C130 N131 1.280 1_455 S
C130 H171 0.929 . S
N131 C129 1.314 . S
N131 C130 1.280 1_655 S
C132 C134 1.353 . S
C132 N135 1.314 1_455 S
C132 H138 0.930 . S
C133 N135 1.279 . S
C133 C136 1.358 . S
C133 H139 0.930 . S
C134 C132 1.353 . S
C134 C137 1.348 1_455 S
C134 H172 0.929 . S
N135 Li90 1.990 . S
N135 C132 1.314 1_655 S
N135 C133 1.279 . S
C136 C133 1.358 . S
C136 C137 1.356 . S
C136 H173 0.930 . S
C137 C134 1.348 1_655 S
C137 C136 1.356 . S
H138 C132 0.930 . S
H139 C133 0.930 . S
C140 N141 1.314 . S
C140 C142 1.353 . S
C140 H146 0.930 . S
N141 Li91 1.990 . S
N141 C140 1.314 . S
N141 C144 1.279 . S
C142 C140 1.353 . S
C142 C145 1.348 . S
C142 H174 0.929 . S
C143 C144 1.358 . S
C143 C145 1.356 . S
C143 H175 0.930 . S
C144 N141 1.279 . S
C144 C143 1.358 . S
C144 H147 0.930 . S
C145 C142 1.348 . S
C145 C143 1.356 . S
H146 C140 0.930 . S
H147 C144 0.930 . S
O148 Li88 1.956 . S
O148 Li89 1.970 . S
O148 Li90 1.961 1_455 S
O148 C92 1.325 . S
O149 Li88 1.970 . S
O149 Li89 1.956 . S
O149 Li91 1.961 1_455 S
O149 C98 1.325 . S
O150 Li88 1.961 1_655 S
O150 Li90 1.956 . S
O150 Li91 1.970 . S
O150 C120 1.325 . S
O151 Li89 1.928 1_655 S
O151 Li90 1.973 . S
O151 Li91 2.001 . S
O151 C126 1.323 . S
H152 C94 0.929 . S
H153 C95 0.930 . S
H154 C96 0.930 . S
H155 C97 0.930 . S
H156 C99 0.930 . S
H157 C101 0.929 . S
H158 C102 0.924 1_655 S
H159 C103 0.930 . S
H160 C106 0.930 . S
H161 C109 0.929 . S
H162 C114 0.929 . S
H163 C115 0.930 . S
H164 C122 0.929 . S
H165 C123 0.930 . S
H166 C124 0.930 . S
H167 C125 0.930 . S
H168 C127 0.929 . S
H169 C128 0.930 . S
H170 C129 0.930 . S
H171 C130 0.929 . S
H172 C134 0.929 . S
H173 C136 0.930 . S
H174 C142 0.929 . S
H175 C143 0.930 . S
Li176 N193 1.990 . S
Li176 O236 1.956 . S
Li176 O237 1.970 . S
Li176 O238 1.961 . S
Li177 N201 1.990 . S
Li177 O236 1.970 . S
Li177 O237 1.956 . S
Li177 O239 1.961 . S
Li178 N223 1.990 . S
Li178 O236 1.961 . S
Li178 O238 1.956 . S
Li178 O239 1.970 . S
Li179 N229 1.990 . S
Li179 O237 1.961 . S
Li179 O238 1.970 . S
Li179 O239 1.956 . S
C180 C182 1.348 . S
C180 C183 1.356 . S
C180 O236 1.325 . S
N181 C184 1.314 . S
N181 C185 1.279 . S
C182 C180 1.348 . S
C182 C184 1.353 . S
C182 H240 0.929 . S
C183 C180 1.356 . S
C183 C185 1.358 . S
C183 H241 0.930 . S
C184 N181 1.314 . S
C184 C182 1.353 . S
C184 H242 0.930 . S
C185 N181 1.279 . S
C185 C183 1.358 . S
C185 H243 0.930 . S
C186 C189 1.348 . S
C186 C190 1.356 . S
C186 O237 1.325 . S
C187 N188 1.279 . S
C187 C190 1.358 . S
C187 H244 0.930 . S
N188 C187 1.279 . S
N188 C191 1.314 . S
C189 C186 1.348 . S
C189 C191 1.353 . S
C189 H245 0.929 . S
C190 C186 1.356 . S
C190 C187 1.358 . S
C190 H246 0.930 . S
C191 N188 1.314 . S
C191 C189 1.353 . S
C191 H247 0.930 . S
C192 N193 1.314 . S
C192 C197 1.353 . S
C192 H198 0.930 . S
N193 Li176 1.990 . S
N193 C192 1.314 . S
N193 C195 1.279 . S
C194 C195 1.358 . S
C194 C196 1.356 . S
C194 H248 0.930 . S
C195 N193 1.279 . S
C195 C194 1.358 . S
C195 H199 0.930 . S
C196 C194 1.356 . S
C196 C197 1.348 . S
C197 C192 1.353 . S
C197 C196 1.348 . S
C197 H249 0.929 . S
H198 C192 0.930 . S
H199 C195 0.930 . S
C200 N201 1.314 . S
C200 C202 1.353 . S
C200 H206 0.930 . S
N201 Li177 1.990 . S
N201 C200 1.314 . S
N201 C204 1.279 . S
C202 C200 1.353 . S
C202 C205 1.348 . S
C202 H250 0.929 . S
C203 C204 1.358 . S
C203 C205 1.356 . S
C203 H251 0.930 . S
C204 N201 1.279 . S
C204 C203 1.358 . S
C204 H207 0.930 . S
C205 C202 1.348 . S
C205 C203 1.356 . S
H206 C200 0.930 . S
H207 C204 0.930 . S
C208 C210 1.348 . S
C208 C211 1.356 . S
C208 O238 1.325 . S
N209 C212 1.314 . S
N209 C213 1.279 . S
C210 C208 1.348 . S
C210 C212 1.353 . S
C210 H252 0.929 . S
C211 C208 1.356 . S
C211 C213 1.358 . S
C211 H253 0.930 . S
C212 N209 1.314 . S
C212 C210 1.353 . S
C212 H254 0.930 . S
C213 N209 1.279 . S
C213 C211 1.358 . S
C213 H255 0.930 . S
C214 C215 1.348 . S
C214 C216 1.356 . S
C214 O239 1.325 . S
C215 C214 1.348 . S
C215 C217 1.353 . S
C215 H256 0.929 . S
C216 C214 1.356 . S
C216 C218 1.358 . S
C216 H257 0.930 . S
C217 C215 1.353 . S
C217 N219 1.314 . S
C217 H258 0.930 . S
C218 C216 1.358 . S
C218 N219 1.279 . S
C218 H259 0.930 . S
N219 C217 1.314 . S
N219 C218 1.279 . S
C220 C222 1.353 . S
C220 N223 1.314 . S
C220 H226 0.930 . S
C221 N223 1.279 . S
C221 C224 1.358 . S
C221 H227 0.930 . S
C222 C220 1.353 . S
C222 C225 1.348 . S
C222 H260 0.929 . S
N223 Li178 1.990 . S
N223 C220 1.314 . S
N223 C221 1.279 . S
C224 C221 1.358 . S
C224 C225 1.356 . S
C224 H261 0.930 . S
C225 C222 1.348 . S
C225 C224 1.356 . S
H226 C220 0.930 . S
H227 C221 0.930 . S
C228 N229 1.314 . S
C228 C230 1.353 . S
C228 H234 0.930 . S
N229 Li179 1.990 . S
N229 C228 1.314 . S
N229 C232 1.279 . S
C230 C228 1.353 . S
C230 C233 1.348 . S
C230 H262 0.929 . S
C231 C232 1.358 . S
C231 C233 1.356 . S
C231 H263 0.930 . S
C232 N229 1.279 . S
C232 C231 1.358 . S
C232 H235 0.930 . S
C233 C230 1.348 . S
C233 C231 1.356 . S
H234 C228 0.930 . S
H235 C232 0.930 . S
O236 Li176 1.956 . S
O236 Li177 1.970 . S
O236 Li178 1.961 . S
O236 C180 1.325 . S
O237 Li176 1.970 . S
O237 Li177 1.956 . S
O237 Li179 1.961 . S
O237 C186 1.325 . S
O238 Li176 1.961 . S
O238 Li178 1.956 . S
O238 Li179 1.970 . S
O238 C208 1.325 . S
O239 Li177 1.961 . S
O239 Li178 1.970 . S
O239 Li179 1.956 . S
O239 C214 1.325 . S
H240 C182 0.929 . S
H241 C183 0.930 . S
H242 C184 0.930 . S
H243 C185 0.930 . S
H244 C187 0.930 . S
H245 C189 0.929 . S
H246 C190 0.930 . S
H247 C191 0.930 . S
H248 C194 0.930 . S
H249 C197 0.929 . S
H250 C202 0.929 . S
H251 C203 0.930 . S
H252 C210 0.929 . S
H253 C211 0.930 . S
H254 C212 0.930 . S
H255 C213 0.930 . S
H256 C215 0.929 . S
H257 C216 0.930 . S
H258 C217 0.930 . S
H259 C218 0.930 . S
H260 C222 0.929 . S
H261 C224 0.930 . S
H262 C230 0.929 . S
H263 C231 0.930 . S
Li264 N281 1.990 . S
Li264 O324 1.956 . S
Li264 O325 1.970 . S
Li264 O326 1.961 . S
Li265 N289 1.990 . S
Li265 O324 1.970 . S
Li265 O325 1.956 . S
Li265 O327 1.961 . S
Li266 N311 1.990 . S
Li266 O324 1.961 . S
Li266 O326 1.956 . S
Li266 O327 1.970 . S
Li267 N317 1.990 . S
Li267 O325 1.961 . S
Li267 O326 1.970 . S
Li267 O327 1.956 . S
C268 C270 1.348 . S
C268 C271 1.356 . S
C268 O324 1.325 . S
N269 C272 1.314 . S
N269 C273 1.279 . S
C270 C268 1.348 . S
C270 C272 1.353 . S
C270 H328 0.929 . S
C271 C268 1.356 . S
C271 C273 1.358 . S
C271 H329 0.930 . S
C272 N269 1.314 . S
C272 C270 1.353 . S
C272 H330 0.930 . S
C273 N269 1.279 . S
C273 C271 1.358 . S
C273 H331 0.930 . S
C274 C277 1.348 . S
C274 C278 1.356 . S
C274 O325 1.325 . S
C275 N276 1.279 . S
C275 C278 1.358 . S
C275 H332 0.930 . S
N276 C275 1.279 . S
N276 C279 1.314 . S
C277 C274 1.348 . S
C277 C279 1.353 . S
C277 H333 0.929 . S
C278 C274 1.356 . S
C278 C275 1.358 . S
C278 H334 0.930 . S
C279 N276 1.314 . S
C279 C277 1.353 . S
C279 H335 0.930 . S
C280 N281 1.314 . S
C280 C285 1.353 . S
C280 H286 0.930 . S
N281 Li264 1.990 . S
N281 C280 1.314 . S
N281 C283 1.279 . S
C282 C283 1.358 . S
C282 C284 1.356 . S
C282 H336 0.930 . S
C283 N281 1.279 . S
C283 C282 1.358 . S
C283 H287 0.930 . S
C284 C282 1.356 . S
C284 C285 1.348 . S
C285 C280 1.353 . S
C285 C284 1.348 . S
C285 H337 0.929 . S
H286 C280 0.930 . S
H287 C283 0.930 . S
C288 N289 1.314 . S
C288 C290 1.353 . S
C288 H294 0.930 . S
N289 Li265 1.990 . S
N289 C288 1.314 . S
N289 C292 1.279 . S
C290 C288 1.353 . S
C290 C293 1.348 . S
C290 H338 0.929 . S
C291 C292 1.358 . S
C291 C293 1.356 . S
C291 H339 0.930 . S
C292 N289 1.279 . S
C292 C291 1.358 . S
C292 H295 0.930 . S
C293 C290 1.348 . S
C293 C291 1.356 . S
H294 C288 0.930 . S
H295 C292 0.930 . S
C296 C298 1.348 . S
C296 C299 1.356 . S
C296 O326 1.325 . S
N297 C300 1.314 . S
N297 C301 1.279 . S
C298 C296 1.348 . S
C298 C300 1.353 . S
C298 H340 0.929 . S
C299 C296 1.356 . S
C299 C301 1.358 . S
C299 H341 0.930 . S
C300 N297 1.314 . S
C300 C298 1.353 . S
C300 H342 0.930 . S
C301 N297 1.279 . S
C301 C299 1.358 . S
C301 H343 0.930 . S
C302 C303 1.348 . S
C302 C304 1.356 . S
C302 O327 1.325 . S
C303 C302 1.348 . S
C303 C305 1.353 . S
C303 H344 0.929 . S
C304 C302 1.356 . S
C304 C306 1.358 . S
C304 H345 0.930 . S
C305 C303 1.353 . S
C305 N307 1.314 . S
C305 H346 0.930 . S
C306 C304 1.358 . S
C306 N307 1.279 . S
C306 H347 0.930 . S
N307 C305 1.314 . S
N307 C306 1.279 . S
C308 C310 1.353 . S
C308 N311 1.314 . S
C308 H314 0.930 . S
C309 N311 1.279 . S
C309 C312 1.358 . S
C309 H315 0.930 . S
C310 C308 1.353 . S
C310 C313 1.348 . S
C310 H348 0.929 . S
N311 Li266 1.990 . S
N311 C308 1.314 . S
N311 C309 1.279 . S
C312 C309 1.358 . S
C312 C313 1.356 . S
C312 H349 0.930 . S
C313 C310 1.348 . S
C313 C312 1.356 . S
H314 C308 0.930 . S
H315 C309 0.930 . S
C316 N317 1.314 . S
C316 C318 1.353 . S
C316 H322 0.930 . S
N317 Li267 1.990 . S
N317 C316 1.314 . S
N317 C320 1.279 . S
C318 C316 1.353 . S
C318 C321 1.348 . S
C318 H350 0.929 . S
C319 C320 1.358 . S
C319 C321 1.356 . S
C319 H351 0.930 . S
C320 N317 1.279 . S
C320 C319 1.358 . S
C320 H323 0.930 . S
C321 C318 1.348 . S
C321 C319 1.356 . S
H322 C316 0.930 . S
H323 C320 0.930 . S
O324 Li264 1.956 . S
O324 Li265 1.970 . S
O324 Li266 1.961 . S
O324 C268 1.325 . S
O325 Li264 1.970 . S
O325 Li265 1.956 . S
O325 Li267 1.961 . S
O325 C274 1.325 . S
O326 Li264 1.961 . S
O326 Li266 1.956 . S
O326 Li267 1.970 . S
O326 C296 1.325 . S
O327 Li265 1.961 . S
O327 Li266 1.970 . S
O327 Li267 1.956 . S
O327 C302 1.325 . S
H328 C270 0.929 . S
H329 C271 0.930 . S
H330 C272 0.930 . S
H331 C273 0.930 . S
H332 C275 0.930 . S
H333 C277 0.929 . S
H334 C278 0.930 . S
H335 C279 0.930 . S
H336 C282 0.930 . S
H337 C285 0.929 . S
H338 C290 0.929 . S
H339 C291 0.930 . S
H340 C298 0.929 . S
H341 C299 0.930 . S
H342 C300 0.930 . S
H343 C301 0.930 . S
H344 C303 0.929 . S
H345 C304 0.930 . S
H346 C305 0.930 . S
H347 C306 0.930 . S
H348 C310 0.929 . S
H349 C312 0.930 . S
H350 C318 0.929 . S
H351 C319 0.930 . S
Li352 N369 1.990 . S
Li352 O412 1.956 . S
Li352 O413 1.970 . S
Li352 O414 1.961 . S
Li353 N377 1.990 . S
Li353 O412 1.970 . S
Li353 O413 1.956 . S
Li353 O415 1.961 . S
Li354 N399 1.990 . S
Li354 O412 1.961 . S
Li354 O414 1.956 . S
Li354 O415 1.970 . S
Li355 N405 1.990 . S
Li355 O413 1.961 . S
Li355 O414 1.970 . S
Li355 O415 1.956 . S
C356 C358 1.348 . S
C356 C359 1.356 . S
C356 O412 1.325 . S
N357 C360 1.314 . S
N357 C361 1.279 . S
C358 C356 1.348 . S
C358 C360 1.353 . S
C358 H416 0.929 . S
C359 C356 1.356 . S
C359 C361 1.358 . S
C359 H417 0.930 . S
C360 N357 1.314 . S
C360 C358 1.353 . S
C360 H418 0.930 . S
C361 N357 1.279 . S
C361 C359 1.358 . S
C361 H419 0.930 . S
C362 C365 1.348 . S
C362 C366 1.356 . S
C362 O413 1.325 . S
C363 N364 1.279 . S
C363 C366 1.358 . S
C363 H420 0.930 . S
N364 C363 1.279 . S
N364 C367 1.314 . S
C365 C362 1.348 . S
C365 C367 1.353 . S
C365 H421 0.929 . S
C366 C362 1.356 . S
C366 C363 1.358 . S
C366 H422 0.930 . S
C367 N364 1.314 . S
C367 C365 1.353 . S
C367 H423 0.930 . S
C368 N369 1.314 . S
C368 C373 1.353 . S
C368 H374 0.930 . S
N369 Li352 1.990 . S
N369 C368 1.314 . S
N369 C371 1.279 . S
C370 C371 1.358 . S
C370 C372 1.356 . S
C370 H424 0.930 . S
C371 N369 1.279 . S
C371 C370 1.358 . S
C371 H375 0.930 . S
C372 C370 1.356 . S
C372 C373 1.348 . S
C373 C368 1.353 . S
C373 C372 1.348 . S
C373 H425 0.929 . S
H374 C368 0.930 . S
H375 C371 0.930 . S
C376 N377 1.314 . S
C376 C378 1.353 . S
C376 H382 0.930 . S
N377 Li353 1.990 . S
N377 C376 1.314 . S
N377 C380 1.279 . S
C378 C376 1.353 . S
C378 C381 1.348 . S
C378 H426 0.929 . S
C379 C380 1.358 . S
C379 C381 1.356 . S
C379 H427 0.930 . S
C380 N377 1.279 . S
C380 C379 1.358 . S
C380 H383 0.930 . S
C381 C378 1.348 . S
C381 C379 1.356 . S
H382 C376 0.930 . S
H383 C380 0.930 . S
C384 C386 1.348 . S
C384 C387 1.356 . S
C384 O414 1.325 . S
N385 C388 1.314 . S
N385 C389 1.279 . S
C386 C384 1.348 . S
C386 C388 1.353 . S
C386 H428 0.929 . S
C387 C384 1.356 . S
C387 C389 1.358 . S
C387 H429 0.930 . S
C388 N385 1.314 . S
C388 C386 1.353 . S
C388 H430 0.930 . S
C389 N385 1.279 . S
C389 C387 1.358 . S
C389 H431 0.930 . S
C390 C391 1.348 . S
C390 C392 1.356 . S
C390 O415 1.325 . S
C391 C390 1.348 . S
C391 C393 1.353 . S
C391 H432 0.929 . S
C392 C390 1.356 . S
C392 C394 1.358 . S
C392 H433 0.930 . S
C393 C391 1.353 . S
C393 N395 1.314 . S
C393 H434 0.930 . S
C394 C392 1.358 . S
C394 N395 1.279 . S
C394 H435 0.930 . S
N395 C393 1.314 . S
N395 C394 1.279 . S
C396 C398 1.353 . S
C396 N399 1.314 . S
C396 H402 0.930 . S
C397 N399 1.279 . S
C397 C400 1.358 . S
C397 H403 0.930 . S
C398 C396 1.353 . S
C398 C401 1.348 . S
C398 H436 0.929 . S
N399 Li354 1.990 . S
N399 C396 1.314 . S
N399 C397 1.279 . S
C400 C397 1.358 . S
C400 C401 1.356 . S
C400 H437 0.930 . S
C401 C398 1.348 . S
C401 C400 1.356 . S
H402 C396 0.930 . S
H403 C397 0.930 . S
C404 N405 1.314 . S
C404 C406 1.353 . S
C404 H410 0.930 . S
N405 Li355 1.990 . S
N405 C404 1.314 . S
N405 C408 1.279 . S
C406 C404 1.353 . S
C406 C409 1.348 . S
C406 H438 0.929 . S
C407 C408 1.358 . S
C407 C409 1.356 . S
C407 H439 0.930 . S
C408 N405 1.279 . S
C408 C407 1.358 . S
C408 H411 0.930 . S
C409 C406 1.348 . S
C409 C407 1.356 . S
H410 C404 0.930 . S
H411 C408 0.930 . S
O412 Li352 1.956 . S
O412 Li353 1.970 . S
O412 Li354 1.961 . S
O412 C356 1.325 . S
O413 Li352 1.970 . S
O413 Li353 1.956 . S
O413 Li355 1.961 . S
O413 C362 1.325 . S
O414 Li352 1.961 . S
O414 Li354 1.956 . S
O414 Li355 1.970 . S
O414 C384 1.325 . S
O415 Li353 1.961 . S
O415 Li354 1.970 . S
O415 Li355 1.956 . S
O415 C390 1.325 . S
H416 C358 0.929 . S
H417 C359 0.930 . S
H418 C360 0.930 . S
H419 C361 0.930 . S
H420 C363 0.930 . S
H421 C365 0.929 . S
H422 C366 0.930 . S
H423 C367 0.930 . S
H424 C370 0.930 . S
H425 C373 0.929 . S
H426 C378 0.929 . S
H427 C379 0.930 . S
H428 C386 0.929 . S
H429 C387 0.930 . S
H430 C388 0.930 . S
H431 C389 0.930 . S
H432 C391 0.929 . S
H433 C392 0.930 . S
H434 C393 0.930 . S
H435 C394 0.930 . S
H436 C398 0.929 . S
H437 C400 0.930 . S
H438 C406 0.929 . S
H439 C407 0.930 . S
Li440 N457 1.990 . S
Li440 O500 1.956 . S
Li440 O501 1.970 . S
Li440 O502 1.961 . S
Li441 N465 1.990 . S
Li441 O500 1.970 . S
Li441 O501 1.956 . S
Li441 O503 1.961 . S
Li442 N487 1.990 . S
Li442 O500 1.961 . S
Li442 O502 1.956 . S
Li442 O503 1.970 . S
Li443 N493 1.990 . S
Li443 O501 1.961 . S
Li443 O502 1.970 . S
Li443 O503 1.956 . S
C444 C446 1.348 . S
C444 C447 1.356 . S
C444 O500 1.325 . S
N445 C448 1.314 . S
N445 C449 1.279 . S
C446 C444 1.348 . S
C446 C448 1.353 . S
C446 H504 0.929 . S
C447 C444 1.356 . S
C447 C449 1.358 . S
C447 H505 0.930 . S
C448 N445 1.314 . S
C448 C446 1.353 . S
C448 H506 0.930 . S
C449 N445 1.279 . S
C449 C447 1.358 . S
C449 H507 0.930 . S
C450 C453 1.348 . S
C450 C454 1.356 . S
C450 O501 1.325 . S
C451 N452 1.279 . S
C451 C454 1.358 . S
C451 H508 0.930 . S
N452 C451 1.279 . S
N452 C455 1.314 . S
C453 C450 1.348 . S
C453 C455 1.353 . S
C453 H509 0.929 . S
C454 C450 1.356 . S
C454 C451 1.358 . S
C454 H510 0.930 . S
C455 N452 1.314 . S
C455 C453 1.353 . S
C455 H511 0.930 . S
C456 N457 1.314 . S
C456 C461 1.353 . S
C456 H462 0.930 . S
N457 Li440 1.990 . S
N457 C456 1.314 . S
N457 C459 1.279 . S
C458 C459 1.358 . S
C458 C460 1.356 . S
C458 H512 0.930 . S
C459 N457 1.279 . S
C459 C458 1.358 . S
C459 H463 0.930 . S
C460 C458 1.356 . S
C460 C461 1.348 . S
C461 C456 1.353 . S
C461 C460 1.348 . S
C461 H513 0.929 . S
H462 C456 0.930 . S
H463 C459 0.930 . S
C464 N465 1.314 . S
C464 C466 1.353 . S
C464 H470 0.930 . S
N465 Li441 1.990 . S
N465 C464 1.314 . S
N465 C468 1.279 . S
C466 C464 1.353 . S
C466 C469 1.348 . S
C466 H514 0.929 . S
C467 C468 1.358 . S
C467 C469 1.356 . S
C467 H515 0.930 . S
C468 N465 1.279 . S
C468 C467 1.358 . S
C468 H471 0.930 . S
C469 C466 1.348 . S
C469 C467 1.356 . S
H470 C464 0.930 . S
H471 C468 0.930 . S
C472 C474 1.348 . S
C472 C475 1.356 . S
C472 O502 1.325 . S
N473 C476 1.314 . S
N473 C477 1.279 . S
C474 C472 1.348 . S
C474 C476 1.353 . S
C474 H516 0.929 . S
C475 C472 1.356 . S
C475 C477 1.358 . S
C475 H517 0.930 . S
C476 N473 1.314 . S
C476 C474 1.353 . S
C476 H518 0.930 . S
C477 N473 1.279 . S
C477 C475 1.358 . S
C477 H519 0.930 . S
C478 C479 1.348 . S
C478 C480 1.356 . S
C478 O503 1.325 . S
C479 C478 1.348 . S
C479 C481 1.353 . S
C479 H520 0.929 . S
C480 C478 1.356 . S
C480 C482 1.358 . S
C480 H521 0.930 . S
C481 C479 1.353 . S
C481 N483 1.314 . S
C481 H522 0.930 . S
C482 C480 1.358 . S
C482 N483 1.279 . S
C482 H523 0.930 . S
N483 C481 1.314 . S
N483 C482 1.279 . S
C484 C486 1.353 . S
C484 N487 1.314 . S
C484 H490 0.930 . S
C485 N487 1.279 . S
C485 C488 1.358 . S
C485 H491 0.930 . S
C486 C484 1.353 . S
C486 C489 1.348 . S
C486 H524 0.929 . S
N487 Li442 1.990 . S
N487 C484 1.314 . S
N487 C485 1.279 . S
C488 C485 1.358 . S
C488 C489 1.356 . S
C488 H525 0.930 . S
C489 C486 1.348 . S
C489 C488 1.356 . S
H490 C484 0.930 . S
H491 C485 0.930 . S
C492 N493 1.314 . S
C492 C494 1.353 . S
C492 H498 0.930 . S
N493 Li443 1.990 . S
N493 C492 1.314 . S
N493 C496 1.279 . S
C494 C492 1.353 . S
C494 C497 1.348 . S
C494 H526 0.929 . S
C495 C496 1.358 . S
C495 C497 1.356 . S
C495 H527 0.930 . S
C496 N493 1.279 . S
C496 C495 1.358 . S
C496 H499 0.930 . S
C497 C494 1.348 . S
C497 C495 1.356 . S
H498 C492 0.930 . S
H499 C496 0.930 . S
O500 Li440 1.956 . S
O500 Li441 1.970 . S
O500 Li442 1.961 . S
O500 C444 1.325 . S
O501 Li440 1.970 . S
O501 Li441 1.956 . S
O501 Li443 1.961 . S
O501 C450 1.325 . S
O502 Li440 1.961 . S
O502 Li442 1.956 . S
O502 Li443 1.970 . S
O502 C472 1.325 . S
O503 Li441 1.961 . S
O503 Li442 1.970 . S
O503 Li443 1.956 . S
O503 C478 1.325 . S
H504 C446 0.929 . S
H505 C447 0.930 . S
H506 C448 0.930 . S
H507 C449 0.930 . S
H508 C451 0.930 . S
H509 C453 0.929 . S
H510 C454 0.930 . S
H511 C455 0.930 . S
H512 C458 0.930 . S
H513 C461 0.929 . S
H514 C466 0.929 . S
H515 C467 0.930 . S
H516 C474 0.929 . S
H517 C475 0.930 . S
H518 C476 0.930 . S
H519 C477 0.930 . S
H520 C479 0.929 . S
H521 C480 0.930 . S
H522 C481 0.930 . S
H523 C482 0.930 . S
H524 C486 0.929 . S
H525 C488 0.930 . S
H526 C494 0.929 . S
H527 C495 0.930 . S
Li528 N545 1.990 . S
Li528 O588 1.956 . S
Li528 O589 1.970 . S
Li528 O590 1.961 . S
Li529 N553 1.990 . S
Li529 O588 1.970 . S
Li529 O589 1.956 . S
Li529 O591 1.961 . S
Li530 N575 1.990 . S
Li530 O588 1.961 . S
Li530 O590 1.956 . S
Li530 O591 1.970 . S
Li531 N581 1.990 . S
Li531 O589 1.961 . S
Li531 O590 1.970 . S
Li531 O591 1.956 . S
C532 C534 1.348 . S
C532 C535 1.356 . S
C532 O588 1.325 . S
N533 C536 1.314 . S
N533 C537 1.279 . S
C534 C532 1.348 . S
C534 C536 1.353 . S
C534 H592 0.929 . S
C535 C532 1.356 . S
C535 C537 1.358 . S
C535 H593 0.930 . S
C536 N533 1.314 . S
C536 C534 1.353 . S
C536 H594 0.930 . S
C537 N533 1.279 . S
C537 C535 1.358 . S
C537 H595 0.930 . S
C538 C541 1.348 . S
C538 C542 1.356 . S
C538 O589 1.325 . S
C539 N540 1.279 . S
C539 C542 1.358 . S
C539 H596 0.930 . S
N540 C539 1.279 . S
N540 C543 1.314 . S
C541 C538 1.348 . S
C541 C543 1.353 . S
C541 H597 0.929 . S
C542 C538 1.356 . S
C542 C539 1.358 . S
C542 H598 0.930 . S
C543 N540 1.314 . S
C543 C541 1.353 . S
C543 H599 0.930 . S
C544 N545 1.314 . S
C544 C549 1.353 . S
C544 H550 0.930 . S
N545 Li528 1.990 . S
N545 C544 1.314 . S
N545 C547 1.279 . S
C546 C547 1.358 . S
C546 C548 1.356 . S
C546 H600 0.930 . S
C547 N545 1.279 . S
C547 C546 1.358 . S
C547 H551 0.930 . S
C548 C546 1.356 . S
C548 C549 1.348 . S
C549 C544 1.353 . S
C549 C548 1.348 . S
C549 H601 0.929 . S
H550 C544 0.930 . S
H551 C547 0.930 . S
C552 N553 1.314 . S
C552 C554 1.353 . S
C552 H558 0.930 . S
N553 Li529 1.990 . S
N553 C552 1.314 . S
N553 C556 1.279 . S
C554 C552 1.353 . S
C554 C557 1.348 . S
C554 H602 0.929 . S
C555 C556 1.358 . S
C555 C557 1.356 . S
C555 H603 0.930 . S
C556 N553 1.279 . S
C556 C555 1.358 . S
C556 H559 0.930 . S
C557 C554 1.348 . S
C557 C555 1.356 . S
H558 C552 0.930 . S
H559 C556 0.930 . S
C560 C562 1.348 . S
C560 C563 1.356 . S
C560 O590 1.325 . S
N561 C564 1.314 . S
N561 C565 1.279 . S
C562 C560 1.348 . S
C562 C564 1.353 . S
C562 H604 0.929 . S
C563 C560 1.356 . S
C563 C565 1.358 . S
C563 H605 0.930 . S
C564 N561 1.314 . S
C564 C562 1.353 . S
C564 H606 0.930 . S
C565 N561 1.279 . S
C565 C563 1.358 . S
C565 H607 0.930 . S
C566 C567 1.348 . S
C566 C568 1.356 . S
C566 O591 1.325 . S
C567 C566 1.348 . S
C567 C569 1.353 . S
C567 H608 0.929 . S
C568 C566 1.356 . S
C568 C570 1.358 . S
C568 H609 0.930 . S
C569 C567 1.353 . S
C569 N571 1.314 . S
C569 H610 0.930 . S
C570 C568 1.358 . S
C570 N571 1.279 . S
C570 H611 0.930 . S
N571 C569 1.314 . S
N571 C570 1.279 . S
C572 C574 1.353 . S
C572 N575 1.314 . S
C572 H578 0.930 . S
C573 N575 1.279 . S
C573 C576 1.358 . S
C573 H579 0.930 . S
C574 C572 1.353 . S
C574 C577 1.348 . S
C574 H612 0.929 . S
N575 Li530 1.990 . S
N575 C572 1.314 . S
N575 C573 1.279 . S
C576 C573 1.358 . S
C576 C577 1.356 . S
C576 H613 0.930 . S
C577 C574 1.348 . S
C577 C576 1.356 . S
H578 C572 0.930 . S
H579 C573 0.930 . S
C580 N581 1.314 . S
C580 C582 1.353 . S
C580 H586 0.930 . S
N581 Li531 1.990 . S
N581 C580 1.314 . S
N581 C584 1.279 . S
C582 C580 1.353 . S
C582 C585 1.348 . S
C582 H614 0.929 . S
C583 C584 1.358 . S
C583 C585 1.356 . S
C583 H615 0.930 . S
C584 N581 1.279 . S
C584 C583 1.358 . S
C584 H587 0.930 . S
C585 C582 1.348 . S
C585 C583 1.356 . S
H586 C580 0.930 . S
H587 C584 0.930 . S
O588 Li528 1.956 . S
O588 Li529 1.970 . S
O588 Li530 1.961 . S
O588 C532 1.325 . S
O589 Li528 1.970 . S
O589 Li529 1.956 . S
O589 Li531 1.961 . S
O589 C538 1.325 . S
O590 Li528 1.961 . S
O590 Li530 1.956 . S
O590 Li531 1.970 . S
O590 C560 1.325 . S
O591 Li529 1.961 . S
O591 Li530 1.970 . S
O591 Li531 1.956 . S
O591 C566 1.325 . S
H592 C534 0.929 . S
H593 C535 0.930 . S
H594 C536 0.930 . S
H595 C537 0.930 . S
H596 C539 0.930 . S
H597 C541 0.929 . S
H598 C542 0.930 . S
H599 C543 0.930 . S
H600 C546 0.930 . S
H601 C549 0.929 . S
H602 C554 0.929 . S
H603 C555 0.930 . S
H604 C562 0.929 . S
H605 C563 0.930 . S
H606 C564 0.930 . S
H607 C565 0.930 . S
H608 C567 0.929 . S
H609 C568 0.930 . S
H610 C569 0.930 . S
H611 C570 0.930 . S
H612 C574 0.929 . S
H613 C576 0.930 . S
H614 C582 0.929 . S
H615 C583 0.930 . S
Li616 N633 1.990 . S
Li616 O676 1.973 . S
Li616 O677 1.970 . S
Li616 O678 1.961 . S
Li617 N641 1.990 1_455 S
Li617 O676 1.973 . S
Li617 O677 1.956 . S
Li617 O679 1.961 . S
Li618 N663 1.990 . S
Li618 O676 1.983 . S
Li618 O678 1.956 . S
Li618 O679 1.970 . S
Li619 N669 1.990 . S
Li619 O677 1.961 . S
Li619 O678 1.970 . S
Li619 O679 1.956 . S
C620 C622 1.348 . S
C620 C623 1.356 . S
C620 O676 1.304 1_655 S
N621 C624 1.314 . S
N621 C625 1.279 . S
C622 C620 1.348 . S
C622 C624 1.353 . S
C622 H680 0.929 . S
C623 C620 1.356 . S
C623 C625 1.358 . S
C623 H681 0.970 . S
C624 N621 1.314 . S
C624 C622 1.353 . S
C624 H682 0.930 . S
C625 N621 1.279 . S
C625 C623 1.358 . S
C625 H683 0.930 . S
C626 C629 1.348 . S
C626 C630 1.356 . S
C626 O677 1.325 . S
C627 N628 1.279 . S
C627 C630 1.358 . S
C627 H684 0.930 . S
N628 C627 1.279 . S
N628 C631 1.314 . S
C629 C626 1.348 . S
C629 C631 1.353 . S
C629 H685 0.929 . S
C630 C626 1.356 . S
C630 C627 1.358 . S
C630 H686 0.930 . S
C631 N628 1.314 . S
C631 C629 1.353 . S
C631 H687 0.930 . S
C632 N633 1.314 . S
C632 C637 1.353 . S
C632 H638 0.930 . S
N633 Li616 1.990 . S
N633 C632 1.314 . S
N633 C635 1.279 . S
C634 C635 1.358 . S
C634 C636 1.356 . S
C634 H688 0.930 . S
C635 N633 1.279 . S
C635 C634 1.358 . S
C635 H639 0.954 . S
C636 C634 1.356 . S
C636 C637 1.348 . S
C637 C632 1.353 . S
C637 C636 1.348 . S
C637 H689 0.929 . S
H638 C632 0.930 . S
H639 C635 0.954 . S
C640 N641 1.314 . S
C640 C642 1.353 . S
C640 H646 0.930 . S
N641 Li617 1.990 1_655 S
N641 C640 1.314 . S
N641 C644 1.279 . S
C642 C640 1.353 . S
C642 C645 1.348 . S
C642 H690 0.929 . S
C643 C644 1.358 . S
C643 C645 1.356 . S
C643 H691 0.930 . S
C644 N641 1.279 . S
C644 C643 1.358 . S
C644 H647 0.930 . S
C645 C642 1.348 . S
C645 C643 1.356 . S
H646 C640 0.930 . S
H647 C644 0.930 . S
C648 C650 1.348 . S
C648 C651 1.356 . S
C648 O678 1.325 . S
N649 C652 1.314 . S
N649 C653 1.279 . S
C650 C648 1.348 . S
C650 C652 1.353 . S
C650 H692 0.929 . S
C651 C648 1.356 . S
C651 C653 1.358 . S
C651 H693 0.930 . S
C652 N649 1.314 . S
C652 C650 1.353 . S
C652 H694 0.930 . S
C653 N649 1.279 . S
C653 C651 1.358 . S
C653 H695 0.930 . S
C654 C655 1.348 . S
C654 C656 1.356 . S
C654 O679 1.325 . S
C655 C654 1.348 . S
C655 C657 1.353 . S
C655 H696 0.929 . S
C656 C654 1.356 . S
C656 C658 1.358 . S
C656 H697 0.930 . S
C657 C655 1.353 . S
C657 N659 1.314 . S
C657 H698 0.930 . S
C658 C656 1.358 . S
C658 N659 1.279 . S
C658 H699 0.930 . S
N659 C657 1.314 . S
N659 C658 1.279 . S
C660 C662 1.354 1_455 S
C660 N663 1.314 . S
C660 H666 0.930 1_455 S
C661 N663 1.279 . S
C661 C664 1.358 . S
C661 H667 0.930 . S
C662 C660 1.354 1_655 S
C662 C665 1.324 1_655 S
C662 H700 0.953 . S
N663 Li618 1.990 . S
N663 C660 1.314 . S
N663 C661 1.279 . S
C664 C661 1.358 . S
C664 C665 1.356 . S
C664 H701 0.930 . S
C665 C662 1.324 1_455 S
C665 C664 1.356 . S
H666 C660 0.930 1_655 S
H667 C661 0.930 . S
C668 N669 1.314 . S
C668 C670 1.353 . S
C668 H674 0.930 . S
N669 Li619 1.990 . S
N669 C668 1.314 . S
N669 C672 1.279 . S
C670 C668 1.353 . S
C670 C673 1.348 . S
C670 H702 0.929 . S
C671 C672 1.358 . S
C671 C673 1.356 . S
C671 H703 0.930 . S
C672 N669 1.279 . S
C672 C671 1.358 . S
C672 H675 0.930 . S
C673 C670 1.348 . S
C673 C671 1.356 . S
H674 C668 0.930 . S
H675 C672 0.930 . S
O676 Li616 1.973 . S
O676 Li617 1.973 . S
O676 Li618 1.983 . S
O676 C620 1.304 1_455 S
O677 Li616 1.970 . S
O677 Li617 1.956 . S
O677 Li619 1.961 . S
O677 C626 1.325 . S
O678 Li616 1.961 . S
O678 Li618 1.956 . S
O678 Li619 1.970 . S
O678 C648 1.325 . S
O679 Li617 1.961 . S
O679 Li618 1.970 . S
O679 Li619 1.956 . S
O679 C654 1.325 . S
H680 C622 0.929 . S
H681 C623 0.970 . S
H682 C624 0.930 . S
H683 C625 0.930 . S
H684 C627 0.930 . S
H685 C629 0.929 . S
H686 C630 0.930 . S
H687 C631 0.930 . S
H688 C634 0.930 . S
H689 C637 0.929 . S
H690 C642 0.929 . S
H691 C643 0.930 . S
H692 C650 0.929 . S
H693 C651 0.930 . S
H694 C652 0.930 . S
H695 C653 0.930 . S
H696 C655 0.929 . S
H697 C656 0.930 . S
H698 C657 0.930 . S
H699 C658 0.930 . S
H700 C662 0.953 . S
H701 C664 0.930 . S
H702 C670 0.929 . S
H703 C671 0.930 . S
Li704 N721 1.990 . S
Li704 O764 1.956 . S
Li704 O765 1.970 . S
Li704 O766 1.961 . S
Li705 N729 1.990 1_545 S
Li705 O764 1.970 . S
Li705 O765 1.956 . S
Li705 O767 1.961 . S
Li706 N751 1.990 . S
Li706 O764 1.961 . S
Li706 O766 1.956 . S
Li706 O767 1.970 . S
Li707 N757 1.990 . S
Li707 O765 1.961 . S
Li707 O766 1.970 . S
Li707 O767 1.956 . S
C708 C710 1.348 1_545 S
C708 C711 1.356 . S
C708 O764 1.325 . S
N709 C712 1.314 . S
N709 C713 1.279 . S
C710 C708 1.348 1_565 S
C710 C712 1.353 . S
C710 H768 0.929 . S
C711 C708 1.356 . S
C711 C713 1.358 1_545 S
C711 H769 0.930 . S
C712 N709 1.314 . S
C712 C710 1.353 . S
C712 H770 0.930 . S
C713 N709 1.279 . S
C713 C711 1.358 1_565 S
C713 H771 0.931 . S
C714 C717 1.348 . S
C714 C718 1.356 . S
C714 O765 1.325 . S
C715 N716 1.279 . S
C715 C718 1.358 . S
C715 H772 0.930 . S
N716 C715 1.279 . S
N716 C719 1.314 . S
C717 C714 1.348 . S
C717 C719 1.353 . S
C717 H773 0.929 . S
C718 C714 1.356 . S
C718 C715 1.358 . S
C718 H774 0.930 . S
C719 N716 1.314 . S
C719 C717 1.353 . S
C719 H775 0.930 . S
C720 N721 1.314 . S
C720 C725 1.353 . S
C720 H726 0.930 . S
N721 Li704 1.990 . S
N721 C720 1.314 . S
N721 C723 1.279 . S
C722 C723 1.358 . S
C722 C724 1.356 . S
C722 H776 0.930 . S
C723 N721 1.279 . S
C723 C722 1.358 . S
C723 H727 0.930 . S
C724 C722 1.356 . S
C724 C725 1.348 . S
C725 C720 1.353 . S
C725 C724 1.348 . S
C725 H777 0.929 . S
H726 C720 0.930 . S
H727 C723 0.930 . S
C728 N729 1.314 . S
C728 C730 1.353 . S
C728 H734 0.930 . S
N729 Li705 1.990 1_565 S
N729 C728 1.314 . S
N729 C732 1.279 . S
C730 C728 1.353 . S
C730 C733 1.348 . S
C730 H778 0.929 . S
C731 C732 1.358 . S
C731 C733 1.356 . S
C731 H779 0.930 . S
C732 N729 1.279 . S
C732 C731 1.358 . S
C732 H735 0.930 . S
C733 C730 1.348 . S
C733 C731 1.356 . S
H734 C728 0.930 . S
H735 C732 0.930 . S
C736 C738 1.348 . S
C736 C739 1.356 . S
C736 O766 1.325 . S
N737 C740 1.314 . S
N737 C741 1.279 . S
C738 C736 1.348 . S
C738 C740 1.353 . S
C738 H780 0.929 . S
C739 C736 1.356 . S
C739 C741 1.358 . S
C739 H781 0.930 . S
C740 N737 1.314 . S
C740 C738 1.353 . S
C740 H782 0.930 . S
C741 N737 1.279 . S
C741 C739 1.358 . S
C741 H783 0.930 . S
C742 C743 1.348 . S
C742 C744 1.356 . S
C742 O767 1.325 . S
C743 C742 1.348 . S
C743 C745 1.353 . S
C743 H784 0.929 . S
C744 C742 1.356 . S
C744 C746 1.358 . S
C744 H785 0.930 . S
C745 C743 1.353 . S
C745 N747 1.314 . S
C745 H786 0.930 . S
C746 C744 1.358 . S
C746 N747 1.279 . S
C746 H787 0.930 . S
N747 C745 1.314 . S
N747 C746 1.279 . S
C748 C750 1.353 . S
C748 N751 1.314 . S
C748 H754 0.930 . S
C749 N751 1.279 . S
C749 C752 1.358 . S
C749 H755 0.930 . S
C750 C748 1.353 . S
C750 C753 1.348 . S
C750 H788 0.929 . S
N751 Li706 1.990 . S
N751 C748 1.314 . S
N751 C749 1.279 . S
C752 C749 1.358 . S
C752 C753 1.356 . S
C752 H789 0.930 . S
C753 C750 1.348 . S
C753 C752 1.356 . S
H754 C748 0.930 . S
H755 C749 0.930 . S
C756 N757 1.314 . S
C756 C758 1.353 . S
C756 H762 0.930 . S
N757 Li707 1.990 . S
N757 C756 1.314 . S
N757 C760 1.279 . S
C758 C756 1.353 . S
C758 C761 1.348 . S
C758 H790 0.929 . S
C759 C760 1.358 . S
C759 C761 1.356 . S
C759 H791 0.930 . S
C760 N757 1.279 . S
C760 C759 1.358 . S
C760 H763 0.930 . S
C761 C758 1.348 . S
C761 C759 1.356 . S
H762 C756 0.930 . S
H763 C760 0.930 . S
O764 Li704 1.956 . S
O764 Li705 1.970 . S
O764 Li706 1.961 . S
O764 C708 1.325 . S
O765 Li704 1.970 . S
O765 Li705 1.956 . S
O765 Li707 1.961 . S
O765 C714 1.325 . S
O766 Li704 1.961 . S
O766 Li706 1.956 . S
O766 Li707 1.970 . S
O766 C736 1.325 . S
O767 Li705 1.961 . S
O767 Li706 1.970 . S
O767 Li707 1.956 . S
O767 C742 1.325 . S
H768 C710 0.929 . S
H769 C711 0.930 . S
H770 C712 0.930 . S
H771 C713 0.931 . S
H772 C715 0.930 . S
H773 C717 0.929 . S
H774 C718 0.930 . S
H775 C719 0.930 . S
H776 C722 0.930 . S
H777 C725 0.929 . S
H778 C730 0.929 . S
H779 C731 0.930 . S
H780 C738 0.929 . S
H781 C739 0.930 . S
H782 C740 0.930 . S
H783 C741 0.930 . S
H784 C743 0.929 . S
H785 C744 0.930 . S
H786 C745 0.930 . S
H787 C746 0.930 . S
H788 C750 0.929 . S
H789 C752 0.930 . S
H790 C758 0.929 . S
H791 C759 0.930 . S
Li792 N809 1.990 . S
Li792 O852 1.956 . S
Li792 O853 1.970 . S
Li792 O854 1.961 . S
Li793 N817 1.990 . S
Li793 O852 1.970 . S
Li793 O853 1.956 . S
Li793 O855 1.961 . S
Li794 N839 1.990 . S
Li794 O852 1.961 . S
Li794 O854 1.956 . S
Li794 O855 1.970 . S
Li795 N845 1.990 . S
Li795 O853 1.961 . S
Li795 O854 1.970 . S
Li795 O855 1.956 . S
C796 C798 1.348 . S
C796 C799 1.356 . S
C796 O852 1.325 . S
N797 C800 1.314 . S
N797 C801 1.279 . S
C798 C796 1.348 . S
C798 C800 1.353 . S
C798 H856 0.929 . S
C799 C796 1.356 . S
C799 C801 1.358 . S
C799 H857 0.930 . S
C800 N797 1.314 . S
C800 C798 1.353 . S
C800 H858 0.930 . S
C801 N797 1.279 . S
C801 C799 1.358 . S
C801 H859 0.930 . S
C802 C805 1.348 . S
C802 C806 1.356 . S
C802 O853 1.325 . S
C803 N804 1.279 . S
C803 C806 1.358 . S
C803 H860 0.930 . S
N804 C803 1.279 . S
N804 C807 1.314 . S
C805 C802 1.348 . S
C805 C807 1.353 . S
C805 H861 0.929 . S
C806 C802 1.356 . S
C806 C803 1.358 . S
C806 H862 0.930 . S
C807 N804 1.314 . S
C807 C805 1.353 . S
C807 H863 0.930 . S
C808 N809 1.314 . S
C808 C813 1.353 . S
C808 H814 0.930 . S
N809 Li792 1.990 . S
N809 C808 1.314 . S
N809 C811 1.279 . S
C810 C811 1.358 . S
C810 C812 1.356 . S
C810 H864 0.930 . S
C811 N809 1.279 . S
C811 C810 1.358 . S
C811 H815 0.930 . S
C812 C810 1.356 . S
C812 C813 1.348 . S
C813 C808 1.353 . S
C813 C812 1.348 . S
C813 H865 0.929 . S
H814 C808 0.930 . S
H815 C811 0.930 . S
C816 N817 1.314 . S
C816 C818 1.353 . S
C816 H822 0.930 . S
N817 Li793 1.990 . S
N817 C816 1.314 . S
N817 C820 1.279 . S
C818 C816 1.353 . S
C818 C821 1.348 . S
C818 H866 0.929 . S
C819 C820 1.358 . S
C819 C821 1.356 . S
C819 H867 0.930 . S
C820 N817 1.279 . S
C820 C819 1.358 . S
C820 H823 0.930 . S
C821 C818 1.348 . S
C821 C819 1.356 . S
H822 C816 0.930 . S
H823 C820 0.930 . S
C824 C826 1.348 . S
C824 C827 1.356 . S
C824 O854 1.325 . S
N825 C828 1.314 . S
N825 C829 1.279 . S
C826 C824 1.348 . S
C826 C828 1.353 . S
C826 H868 0.929 . S
C827 C824 1.356 . S
C827 C829 1.358 . S
C827 H869 0.930 . S
C828 N825 1.314 . S
C828 C826 1.353 . S
C828 H870 0.930 . S
C829 N825 1.279 . S
C829 C827 1.358 . S
C829 H871 0.930 . S
C830 C831 1.348 . S
C830 C832 1.356 . S
C830 O855 1.325 . S
C831 C830 1.348 . S
C831 C833 1.353 . S
C831 H872 0.929 . S
C832 C830 1.356 . S
C832 C834 1.358 . S
C832 H873 0.930 . S
C833 C831 1.353 . S
C833 N835 1.314 . S
C833 H874 0.930 . S
C834 C832 1.358 . S
C834 N835 1.279 . S
C834 H875 0.930 . S
N835 C833 1.314 . S
N835 C834 1.279 . S
C836 C838 1.353 . S
C836 N839 1.314 . S
C836 H842 0.930 . S
C837 N839 1.279 . S
C837 C840 1.358 . S
C837 H843 0.930 . S
C838 C836 1.353 . S
C838 C841 1.348 . S
C838 H876 0.929 . S
N839 Li794 1.990 . S
N839 C836 1.314 . S
N839 C837 1.279 . S
C840 C837 1.358 . S
C840 C841 1.356 . S
C840 H877 0.930 . S
C841 C838 1.348 . S
C841 C840 1.356 . S
H842 C836 0.930 . S
H843 C837 0.930 . S
C844 N845 1.314 . S
C844 C846 1.353 . S
C844 H850 0.930 . S
N845 Li795 1.990 . S
N845 C844 1.314 . S
N845 C848 1.279 . S
C846 C844 1.353 . S
C846 C849 1.348 . S
C846 H878 0.929 . S
C847 C848 1.358 . S
C847 C849 1.356 . S
C847 H879 0.930 . S
C848 N845 1.279 . S
C848 C847 1.358 . S
C848 H851 0.930 . S
C849 C846 1.348 . S
C849 C847 1.356 . S
H850 C844 0.930 . S
H851 C848 0.930 . S
O852 Li792 1.956 . S
O852 Li793 1.970 . S
O852 Li794 1.961 . S
O852 C796 1.325 . S
O853 Li792 1.970 . S
O853 Li793 1.956 . S
O853 Li795 1.961 . S
O853 C802 1.325 . S
O854 Li792 1.961 . S
O854 Li794 1.956 . S
O854 Li795 1.970 . S
O854 C824 1.325 . S
O855 Li793 1.961 . S
O855 Li794 1.970 . S
O855 Li795 1.956 . S
O855 C830 1.325 . S
H856 C798 0.929 . S
H857 C799 0.930 . S
H858 C800 0.930 . S
H859 C801 0.930 . S
H860 C803 0.930 . S
H861 C805 0.929 . S
H862 C806 0.930 . S
H863 C807 0.930 . S
H864 C810 0.930 . S
H865 C813 0.929 . S
H866 C818 0.929 . S
H867 C819 0.930 . S
H868 C826 0.929 . S
H869 C827 0.930 . S
H870 C828 0.930 . S
H871 C829 0.930 . S
H872 C831 0.929 . S
H873 C832 0.930 . S
H874 C833 0.930 . S
H875 C834 0.930 . S
H876 C838 0.929 . S
H877 C840 0.930 . S
H878 C846 0.929 . S
H879 C847 0.930 . S
Li880 N897 1.990 . S
Li880 O940 1.956 . S
Li880 O941 1.970 . S
Li880 O942 1.983 . S
Li881 N905 1.990 . S
Li881 O940 1.967 . S
Li881 O941 1.975 . S
Li881 O943 1.944 1_545 S
Li882 N927 1.990 . S
Li882 O940 1.961 1_565 S
Li882 O942 1.927 1_565 S
Li882 O943 1.970 . S
Li883 N933 1.990 . S
Li883 O941 1.961 1_565 S
Li883 O942 1.972 1_565 S
Li883 O943 1.956 . S
C884 C886 1.348 . S
C884 C887 1.356 . S
C884 O940 1.325 . S
N885 C888 1.314 . S
N885 C889 1.279 . S
C886 C884 1.348 . S
C886 C888 1.353 . S
C886 H944 0.929 . S
C887 C884 1.356 . S
C887 C889 1.358 . S
C887 H945 0.930 . S
C888 N885 1.314 . S
C888 C886 1.353 . S
C888 H946 0.930 . S
C889 N885 1.279 . S
C889 C887 1.358 . S
C889 H947 0.930 . S
C890 C893 1.348 . S
C890 C894 1.356 . S
C890 O941 1.325 . S
C891 N892 1.279 . S
C891 C894 1.358 . S
C891 H948 0.930 . S
N892 C891 1.279 . S
N892 C895 1.314 . S
C893 C890 1.348 . S
C893 C895 1.353 . S
C893 H949 0.929 . S
C894 C890 1.356 . S
C894 C891 1.358 . S
C894 H950 0.930 . S
C895 N892 1.314 . S
C895 C893 1.353 . S
C895 H951 0.930 . S
C896 N897 1.314 . S
C896 C901 1.353 . S
C896 H902 0.930 . S
N897 Li880 1.990 . S
N897 C896 1.314 . S
N897 C899 1.279 . S
C898 C899 1.358 . S
C898 C900 1.356 . S
C898 H952 0.930 . S
C899 N897 1.279 . S
C899 C898 1.358 . S
C899 H903 0.930 . S
C900 C898 1.356 . S
C900 C901 1.348 . S
C901 C896 1.353 . S
C901 C900 1.348 . S
C901 H953 0.929 . S
H902 C896 0.930 . S
H903 C899 0.930 . S
C904 N905 1.296 1_565 S
C904 C906 1.353 . S
C904 H910 0.930 . S
N905 Li881 1.990 . S
N905 C904 1.296 1_545 S
N905 C908 1.296 . S
C906 C904 1.353 . S
C906 C909 1.350 . S
C906 H954 0.929 . S
C907 C908 1.358 . S
C907 C909 1.353 1_545 S
C907 H955 0.930 . S
C908 N905 1.296 . S
C908 C907 1.358 . S
C908 H911 0.930 . S
C909 C906 1.350 . S
C909 C907 1.353 1_565 S
H910 C904 0.930 . S
H911 C908 0.930 . S
C912 C914 1.345 1_545 S
C912 C915 1.358 . S
C912 O942 1.325 . S
N913 C916 1.320 . S
N913 C917 1.275 1_565 S
C914 C912 1.345 1_565 S
C914 C916 1.353 . S
C914 H956 0.929 . S
C915 C912 1.358 . S
C915 C917 1.358 . S
C915 H957 0.930 . S
C916 N913 1.320 . S
C916 C914 1.353 . S
C916 H958 0.930 . S
C917 N913 1.275 1_545 S
C917 C915 1.358 . S
C917 H959 0.930 . S
C918 C919 1.348 . S
C918 C920 1.356 . S
C918 O943 1.325 . S
C919 C918 1.348 . S
C919 C921 1.353 . S
C919 H960 0.929 . S
C920 C918 1.356 . S
C920 C922 1.358 . S
C920 H961 0.930 . S
C921 C919 1.353 . S
C921 N923 1.314 . S
C921 H962 0.930 . S
C922 C920 1.358 . S
C922 N923 1.279 . S
C922 H963 0.930 . S
N923 C921 1.314 . S
N923 C922 1.279 . S
C924 C926 1.353 . S
C924 N927 1.314 . S
C924 H930 0.930 . S
C925 N927 1.279 . S
C925 C928 1.358 . S
C925 H931 0.930 . S
C926 C924 1.353 . S
C926 C929 1.348 . S
C926 H964 0.929 . S
N927 Li882 1.990 . S
N927 C924 1.314 . S
N927 C925 1.279 . S
C928 C925 1.358 . S
C928 C929 1.356 . S
C928 H965 0.930 . S
C929 C926 1.348 . S
C929 C928 1.356 . S
H930 C924 0.930 . S
H931 C925 0.930 . S
C932 N933 1.314 1_545 S
C932 C934 1.353 . S
C932 H938 0.930 . S
N933 Li883 1.990 . S
N933 C932 1.314 1_565 S
N933 C936 1.279 . S
C934 C932 1.353 . S
C934 C937 1.348 1_545 S
C934 H966 0.929 . S
C935 C936 1.358 . S
C935 C937 1.356 . S
C935 H967 0.930 . S
C936 N933 1.279 . S
C936 C935 1.358 . S
C936 H939 0.930 . S
C937 C934 1.348 1_565 S
C937 C935 1.356 . S
H938 C932 0.930 . S
H939 C936 0.930 . S
O940 Li880 1.956 . S
O940 Li881 1.967 . S
O940 Li882 1.961 1_545 S
O940 C884 1.325 . S
O941 Li880 1.970 . S
O941 Li881 1.975 . S
O941 Li883 1.961 1_545 S
O941 C890 1.325 . S
O942 Li880 1.983 . S
O942 Li882 1.927 1_545 S
O942 Li883 1.972 1_545 S
O942 C912 1.325 . S
O943 Li881 1.944 1_565 S
O943 Li882 1.970 . S
O943 Li883 1.956 . S
O943 C918 1.325 . S
H944 C886 0.929 . S
H945 C887 0.930 . S
H946 C888 0.930 . S
H947 C889 0.930 . S
H948 C891 0.930 . S
H949 C893 0.929 . S
H950 C894 0.930 . S
H951 C895 0.930 . S
H952 C898 0.930 . S
H953 C901 0.929 . S
H954 C906 0.929 . S
H955 C907 0.930 . S
H956 C914 0.929 . S
H957 C915 0.930 . S
H958 C916 0.930 . S
H959 C917 0.930 . S
H960 C919 0.929 . S
H961 C920 0.930 . S
H962 C921 0.930 . S
H963 C922 0.930 . S
H964 C926 0.929 . S
H965 C928 0.930 . S
H966 C934 0.929 . S
H967 C935 0.930 . S
Li968 N985 1.990 . S
Li968 O1028 1.956 . S
Li968 O1029 1.970 . S
Li968 O1030 1.961 . S
Li969 N993 1.990 . S
Li969 O1028 1.970 . S
Li969 O1029 1.956 . S
Li969 O1031 1.961 . S
Li970 N1015 1.990 . S
Li970 O1028 1.961 . S
Li970 O1030 1.956 . S
Li970 O1031 1.970 . S
Li971 N1021 1.990 1_554 S
Li971 O1029 1.961 . S
Li971 O1030 1.970 . S
Li971 O1031 1.956 . S
C972 C974 1.348 . S
C972 C975 1.356 . S
C972 O1028 1.325 . S
N973 C976 1.314 . S
N973 C977 1.279 . S
C974 C972 1.348 . S
C974 C976 1.353 . S
C974 H1032 0.929 . S
C975 C972 1.356 . S
C975 C977 1.358 . S
C975 H1033 0.930 . S
C976 N973 1.314 . S
C976 C974 1.353 . S
C976 H1034 0.930 . S
C977 N973 1.279 . S
C977 C975 1.358 . S
C977 H1035 0.930 . S
C978 C981 1.348 . S
C978 C982 1.356 . S
C978 O1029 1.325 . S
C979 N980 1.279 . S
C979 C982 1.358 . S
C979 H1036 0.930 . S
N980 C979 1.279 . S
N980 C983 1.314 . S
C981 C978 1.348 . S
C981 C983 1.353 . S
C981 H1037 0.929 . S
C982 C978 1.356 . S
C982 C979 1.358 . S
C982 H1038 0.930 . S
C983 N980 1.314 . S
C983 C981 1.353 . S
C983 H1039 0.930 . S
C984 N985 1.314 . S
C984 C989 1.353 . S
C984 H990 0.930 1_554 S
N985 Li968 1.990 . S
N985 C984 1.314 . S
N985 C987 1.279 . S
C986 C987 1.358 . S
C986 C988 1.356 . S
C986 H1040 0.930 . S
C987 N985 1.279 . S
C987 C986 1.358 . S
C987 H991 0.930 . S
C988 C986 1.356 . S
C988 C989 1.348 . S
C989 C984 1.353 . S
C989 C988 1.348 . S
C989 H1041 0.929 1_554 S
H990 C984 0.930 1_556 S
H991 C987 0.930 . S
C992 N993 1.314 . S
C992 C994 1.353 . S
C992 H998 0.930 . S
N993 Li969 1.990 . S
N993 C992 1.314 . S
N993 C996 1.279 . S
C994 C992 1.353 . S
C994 C997 1.348 . S
C994 H1042 0.929 . S
C995 C996 1.358 . S
C995 C997 1.356 . S
C995 H1043 0.930 . S
C996 N993 1.279 . S
C996 C995 1.358 . S
C996 H999 0.930 . S
C997 C994 1.348 . S
C997 C995 1.356 . S
H998 C992 0.930 . S
H999 C996 0.930 . S
C1000 C1002 1.348 . S
C1000 C1003 1.356 . S
C1000 O1030 1.325 1_556 S
N1001 C1004 1.314 . S
N1001 C1005 1.279 . S
C1002 C1000 1.348 . S
C1002 C1004 1.353 . S
C1002 H1044 0.929 . S
C1003 C1000 1.356 . S
C1003 C1005 1.358 . S
C1003 H1045 0.930 1_556 S
C1004 N1001 1.314 . S
C1004 C1002 1.353 . S
C1004 H1046 0.930 . S
C1005 N1001 1.279 . S
C1005 C1003 1.358 . S
C1005 H1047 0.930 . S
C1006 C1007 1.348 . S
C1006 C1008 1.356 . S
C1006 O1031 1.325 . S
C1007 C1006 1.348 . S
C1007 C1009 1.353 . S
C1007 H1048 0.929 . S
C1008 C1006 1.356 . S
C1008 C1010 1.358 . S
C1008 H1049 0.930 . S
C1009 C1007 1.353 . S
C1009 N1011 1.314 . S
C1009 H1050 0.930 . S
C1010 C1008 1.358 . S
C1010 N1011 1.279 . S
C1010 H1051 0.930 . S
N1011 C1009 1.314 . S
N1011 C1010 1.279 . S
C1012 C1014 1.353 . S
C1012 N1015 1.314 . S
C1012 H1018 0.930 . S
C1013 N1015 1.279 . S
C1013 C1016 1.358 . S
C1013 H1019 0.930 . S
C1014 C1012 1.353 . S
C1014 C1017 1.348 . S
C1014 H1052 0.929 . S
N1015 Li970 1.990 . S
N1015 C1012 1.314 . S
N1015 C1013 1.279 . S
C1016 C1013 1.358 . S
C1016 C1017 1.356 . S
C1016 H1053 0.930 . S
C1017 C1014 1.348 . S
C1017 C1016 1.356 . S
H1018 C1012 0.930 . S
H1019 C1013 0.930 . S
C1020 N1021 1.314 . S
C1020 C1022 1.353 . S
C1020 H1026 0.930 . S
N1021 Li971 1.990 1_556 S
N1021 C1020 1.314 . S
N1021 C1024 1.279 . S
C1022 C1020 1.353 . S
C1022 C1025 1.348 . S
C1022 H1054 0.929 . S
C1023 C1024 1.358 . S
C1023 C1025 1.356 . S
C1023 H1055 0.930 . S
C1024 N1021 1.279 . S
C1024 C1023 1.358 . S
C1024 H1027 0.930 . S
C1025 C1022 1.348 . S
C1025 C1023 1.356 . S
H1026 C1020 0.930 . S
H1027 C1024 0.930 . S
O1028 Li968 1.956 . S
O1028 Li969 1.970 . S
O1028 Li970 1.961 . S
O1028 C972 1.325 . S
O1029 Li968 1.970 . S
O1029 Li969 1.956 . S
O1029 Li971 1.961 . S
O1029 C978 1.325 . S
O1030 Li968 1.961 . S
O1030 Li970 1.956 . S
O1030 Li971 1.970 . S
O1030 C1000 1.325 1_554 S
O1031 Li969 1.961 . S
O1031 Li970 1.970 . S
O1031 Li971 1.956 . S
O1031 C1006 1.325 . S
H1032 C974 0.929 . S
H1033 C975 0.930 . S
H1034 C976 0.930 . S
H1035 C977 0.930 . S
H1036 C979 0.930 . S
H1037 C981 0.929 . S
H1038 C982 0.930 . S
H1039 C983 0.930 . S
H1040 C986 0.930 . S
H1041 C989 0.929 1_556 S
H1042 C994 0.929 . S
H1043 C995 0.930 . S
H1044 C1002 0.929 . S
H1045 C1003 0.930 1_554 S
H1046 C1004 0.930 . S
H1047 C1005 0.930 . S
H1048 C1007 0.929 . S
H1049 C1008 0.930 . S
H1050 C1009 0.930 . S
H1051 C1010 0.930 . S
H1052 C1014 0.929 . S
H1053 C1016 0.930 . S
H1054 C1022 0.929 . S
H1055 C1023 0.930 . S
Li1056 N1073 1.990 . S
Li1056 O1116 1.956 . S
Li1056 O1117 1.970 . S
Li1056 O1118 1.961 . S
Li1057 N1081 1.990 . S
Li1057 O1116 1.970 . S
Li1057 O1117 1.956 . S
Li1057 O1119 1.961 . S
Li1058 N1103 1.990 . S
Li1058 O1116 1.961 . S
Li1058 O1118 1.956 . S
Li1058 O1119 1.970 . S
Li1059 N1109 1.990 1_554 S
Li1059 O1117 1.961 . S
Li1059 O1118 1.970 . S
Li1059 O1119 1.956 . S
C1060 C1062 1.348 . S
C1060 C1063 1.356 . S
C1060 O1116 1.325 . S
N1061 C1064 1.314 . S
N1061 C1065 1.279 . S
C1062 C1060 1.348 . S
C1062 C1064 1.353 . S
C1062 H1120 0.929 . S
C1063 C1060 1.356 . S
C1063 C1065 1.358 . S
C1063 H1121 0.930 . S
C1064 N1061 1.314 . S
C1064 C1062 1.353 . S
C1064 H1122 0.930 . S
C1065 N1061 1.279 . S
C1065 C1063 1.358 . S
C1065 H1123 0.930 . S
C1066 C1069 1.348 . S
C1066 C1070 1.356 . S
C1066 O1117 1.325 . S
C1067 N1068 1.279 . S
C1067 C1070 1.358 . S
C1067 H1124 0.930 . S
N1068 C1067 1.279 . S
N1068 C1071 1.314 . S
C1069 C1066 1.348 . S
C1069 C1071 1.353 . S
C1069 H1125 0.929 . S
C1070 C1066 1.356 . S
C1070 C1067 1.358 . S
C1070 H1126 0.930 . S
C1071 N1068 1.314 . S
C1071 C1069 1.353 . S
C1071 H1127 0.930 . S
C1072 N1073 1.314 . S
C1072 C1077 1.353 . S
C1072 H1078 0.930 . S
N1073 Li1056 1.990 . S
N1073 C1072 1.314 . S
N1073 C1075 1.279 . S
C1074 C1075 1.358 . S
C1074 C1076 1.356 . S
C1074 H1128 0.930 . S
C1075 N1073 1.279 . S
C1075 C1074 1.358 . S
C1075 H1079 0.930 . S
C1076 C1074 1.356 . S
C1076 C1077 1.348 . S
C1077 C1072 1.353 . S
C1077 C1076 1.348 . S
C1077 H1129 0.929 . S
H1078 C1072 0.930 . S
H1079 C1075 0.930 . S
C1080 N1081 1.314 . S
C1080 C1082 1.353 . S
C1080 H1086 0.930 . S
N1081 Li1057 1.990 . S
N1081 C1080 1.314 . S
N1081 C1084 1.279 . S
C1082 C1080 1.353 . S
C1082 C1085 1.348 . S
C1082 H1130 0.929 . S
C1083 C1084 1.358 . S
C1083 C1085 1.356 . S
C1083 H1131 0.930 . S
C1084 N1081 1.279 . S
C1084 C1083 1.358 . S
C1084 H1087 0.930 . S
C1085 C1082 1.348 . S
C1085 C1083 1.356 . S
H1086 C1080 0.930 . S
H1087 C1084 0.930 . S
C1088 C1090 1.348 1_554 S
C1088 C1091 1.356 . S
C1088 O1118 1.325 . S
N1089 C1092 1.314 . S
N1089 C1093 1.332 . S
C1090 C1088 1.348 1_556 S
C1090 C1092 1.353 . S
C1090 H1132 0.929 . S
C1091 C1088 1.356 . S
C1091 C1093 1.309 1_554 S
C1091 H1133 0.930 . S
C1092 N1089 1.314 . S
C1092 C1090 1.353 . S
C1092 H1134 0.930 . S
C1093 N1089 1.332 . S
C1093 C1091 1.309 1_556 S
C1093 H1135 0.929 1_556 S
C1094 C1095 1.348 . S
C1094 C1096 1.356 . S
C1094 O1119 1.325 . S
C1095 C1094 1.348 . S
C1095 C1097 1.353 . S
C1095 H1136 0.929 . S
C1096 C1094 1.356 . S
C1096 C1098 1.358 . S
C1096 H1137 0.930 . S
C1097 C1095 1.353 . S
C1097 N1099 1.314 . S
C1097 H1138 0.930 . S
C1098 C1096 1.358 . S
C1098 N1099 1.279 . S
C1098 H1139 0.930 . S
N1099 C1097 1.314 . S
N1099 C1098 1.279 . S
C1100 C1102 1.353 . S
C1100 N1103 1.314 . S
C1100 H1106 0.930 . S
C1101 N1103 1.279 . S
C1101 C1104 1.358 . S
C1101 H1107 0.930 . S
C1102 C1100 1.353 . S
C1102 C1105 1.348 . S
C1102 H1140 0.929 . S
N1103 Li1058 1.990 . S
N1103 C1100 1.314 . S
N1103 C1101 1.279 . S
C1104 C1101 1.358 . S
C1104 C1105 1.356 . S
C1104 H1141 0.930 . S
C1105 C1102 1.348 . S
C1105 C1104 1.356 . S
H1106 C1100 0.930 . S
H1107 C1101 0.930 . S
C1108 N1109 1.314 . S
C1108 C1110 1.353 . S
C1108 H1114 0.930 . S
N1109 Li1059 1.990 1_556 S
N1109 C1108 1.314 . S
N1109 C1112 1.279 . S
C1110 C1108 1.353 . S
C1110 C1113 1.348 . S
C1110 H1142 0.929 . S
C1111 C1112 1.358 . S
C1111 C1113 1.356 . S
C1111 H1143 0.930 . S
C1112 N1109 1.279 . S
C1112 C1111 1.358 . S
C1112 H1115 0.930 . S
C1113 C1110 1.348 . S
C1113 C1111 1.356 . S
H1114 C1108 0.930 . S
H1115 C1112 0.930 . S
O1116 Li1056 1.956 . S
O1116 Li1057 1.970 . S
O1116 Li1058 1.961 . S
O1116 C1060 1.325 . S
O1117 Li1056 1.970 . S
O1117 Li1057 1.956 . S
O1117 Li1059 1.961 . S
O1117 C1066 1.325 . S
O1118 Li1056 1.961 . S
O1118 Li1058 1.956 . S
O1118 Li1059 1.970 . S
O1118 C1088 1.325 . S
O1119 Li1057 1.961 . S
O1119 Li1058 1.970 . S
O1119 Li1059 1.956 . S
O1119 C1094 1.325 . S
H1120 C1062 0.929 . S
H1121 C1063 0.930 . S
H1122 C1064 0.930 . S
H1123 C1065 0.930 . S
H1124 C1067 0.930 . S
H1125 C1069 0.929 . S
H1126 C1070 0.930 . S
H1127 C1071 0.930 . S
H1128 C1074 0.930 . S
H1129 C1077 0.929 . S
H1130 C1082 0.929 . S
H1131 C1083 0.930 . S
H1132 C1090 0.929 . S
H1133 C1091 0.930 . S
H1134 C1092 0.930 . S
H1135 C1093 0.929 1_554 S
H1136 C1095 0.929 . S
H1137 C1096 0.930 . S
H1138 C1097 0.930 . S
H1139 C1098 0.930 . S
H1140 C1102 0.929 . S
H1141 C1104 0.930 . S
H1142 C1110 0.929 . S
H1143 C1111 0.930 . S
Li1144 N1161 1.990 . S
Li1144 O1204 1.956 . S
Li1144 O1205 1.970 . S
Li1144 O1206 1.961 . S
Li1145 N1169 1.990 . S
Li1145 O1204 1.970 . S
Li1145 O1205 1.956 . S
Li1145 O1207 1.905 1_554 S
Li1146 N1191 1.990 1_554 S
Li1146 O1204 1.961 . S
Li1146 O1206 1.956 . S
Li1146 O1207 1.971 1_554 S
Li1147 N1197 1.990 . S
Li1147 O1205 1.961 . S
Li1147 O1206 1.970 . S
Li1147 O1207 1.900 1_554 S
C1148 C1150 1.348 . S
C1148 C1151 1.356 . S
C1148 O1204 1.325 . S
N1149 C1152 1.314 . S
N1149 C1153 1.279 . S
C1150 C1148 1.348 . S
C1150 C1152 1.353 . S
C1150 H1208 0.929 . S
C1151 C1148 1.356 . S
C1151 C1153 1.358 . S
C1151 H1209 0.930 . S
C1152 N1149 1.314 . S
C1152 C1150 1.353 . S
C1152 H1210 0.930 . S
C1153 N1149 1.279 . S
C1153 C1151 1.358 . S
C1153 H1211 0.930 . S
C1154 C1157 1.348 . S
C1154 C1158 1.356 . S
C1154 O1205 1.325 . S
C1155 N1156 1.279 . S
C1155 C1158 1.358 . S
C1155 H1212 0.930 . S
N1156 C1155 1.279 . S
N1156 C1159 1.314 . S
C1157 C1154 1.348 . S
C1157 C1159 1.353 . S
C1157 H1213 0.929 . S
C1158 C1154 1.356 . S
C1158 C1155 1.358 . S
C1158 H1214 0.930 . S
C1159 N1156 1.314 . S
C1159 C1157 1.353 . S
C1159 H1215 0.930 . S
C1160 N1161 1.314 . S
C1160 C1165 1.353 . S
C1160 H1166 0.930 . S
N1161 Li1144 1.990 . S
N1161 C1160 1.314 . S
N1161 C1163 1.279 . S
C1162 C1163 1.358 . S
C1162 C1164 1.356 . S
C1162 H1216 0.930 . S
C1163 N1161 1.279 . S
C1163 C1162 1.358 . S
C1163 H1167 0.930 . S
C1164 C1162 1.356 . S
C1164 C1165 1.348 . S
C1165 C1160 1.353 . S
C1165 C1164 1.348 . S
C1165 H1217 0.929 . S
H1166 C1160 0.930 . S
H1167 C1163 0.930 . S
C1168 N1169 1.314 . S
C1168 C1170 1.353 . S
C1168 H1174 0.930 1_554 S
N1169 Li1145 1.990 . S
N1169 C1168 1.314 . S
N1169 C1172 1.279 . S
C1170 C1168 1.353 . S
C1170 C1173 1.348 . S
C1170 H1218 0.929 1_554 S
C1171 C1172 1.358 . S
C1171 C1173 1.356 . S
C1171 H1219 0.930 . S
C1172 N1169 1.279 . S
C1172 C1171 1.358 . S
C1172 H1175 0.930 . S
C1173 C1170 1.348 . S
C1173 C1171 1.356 . S
H1174 C1168 0.930 1_556 S
H1175 C1172 0.930 . S
C1176 C1178 1.348 . S
C1176 C1179 1.356 . S
C1176 O1206 1.325 . S
N1177 C1180 1.314 . S
N1177 C1181 1.279 . S
C1178 C1176 1.348 . S
C1178 C1180 1.353 . S
C1178 H1220 0.929 . S
C1179 C1176 1.356 . S
C1179 C1181 1.358 . S
C1179 H1221 0.930 . S
C1180 N1177 1.314 . S
C1180 C1178 1.353 . S
C1180 H1222 0.930 . S
C1181 N1177 1.279 . S
C1181 C1179 1.358 . S
C1181 H1223 0.930 . S
C1182 C1183 1.348 . S
C1182 C1184 1.356 . S
C1182 O1207 1.383 . S
C1183 C1182 1.348 . S
C1183 C1185 1.353 . S
C1183 H1224 0.929 . S
C1184 C1182 1.356 . S
C1184 C1186 1.358 . S
C1184 H1225 0.930 . S
C1185 C1183 1.353 . S
C1185 N1187 1.314 . S
C1185 H1226 0.930 . S
C1186 C1184 1.358 . S
C1186 N1187 1.279 . S
C1186 H1227 0.930 . S
N1187 C1185 1.314 . S
N1187 C1186 1.279 . S
C1188 C1190 1.353 . S
C1188 N1191 1.314 . S
C1188 H1194 0.930 . S
C1189 N1191 1.279 . S
C1189 C1192 1.358 . S
C1189 H1195 0.930 . S
C1190 C1188 1.353 . S
C1190 C1193 1.348 . S
C1190 H1228 0.929 . S
N1191 Li1146 1.990 1_556 S
N1191 C1188 1.314 . S
N1191 C1189 1.279 . S
C1192 C1189 1.358 . S
C1192 C1193 1.356 . S
C1192 H1229 0.930 . S
C1193 C1190 1.348 . S
C1193 C1192 1.356 . S
H1194 C1188 0.930 . S
H1195 C1189 0.930 . S
C1196 N1197 1.314 . S
C1196 C1198 1.353 . S
C1196 H1202 0.930 . S
N1197 Li1147 1.990 . S
N1197 C1196 1.314 . S
N1197 C1200 1.253 1_554 S
C1198 C1196 1.353 . S
C1198 C1201 1.348 . S
C1198 H1230 0.929 . S
C1199 C1200 1.358 . S
C1199 C1201 1.356 1_556 S
C1199 H1231 0.930 . S
C1200 N1197 1.253 1_556 S
C1200 C1199 1.358 . S
C1200 H1203 0.961 . S
C1201 C1198 1.348 . S
C1201 C1199 1.356 1_554 S
H1202 C1196 0.930 . S
H1203 C1200 0.961 . S
O1204 Li1144 1.956 . S
O1204 Li1145 1.970 . S
O1204 Li1146 1.961 . S
O1204 C1148 1.325 . S
O1205 Li1144 1.970 . S
O1205 Li1145 1.956 . S
O1205 Li1147 1.961 . S
O1205 C1154 1.325 . S
O1206 Li1144 1.961 . S
O1206 Li1146 1.956 . S
O1206 Li1147 1.970 . S
O1206 C1176 1.325 . S
O1207 Li1145 1.905 1_556 S
O1207 Li1146 1.971 1_556 S
O1207 Li1147 1.900 1_556 S
O1207 C1182 1.383 . S
H1208 C1150 0.929 . S
H1209 C1151 0.930 . S
H1210 C1152 0.930 . S
H1211 C1153 0.930 . S
H1212 C1155 0.930 . S
H1213 C1157 0.929 . S
H1214 C1158 0.930 . S
H1215 C1159 0.930 . S
H1216 C1162 0.930 . S
H1217 C1165 0.929 . S
H1218 C1170 0.929 1_556 S
H1219 C1171 0.930 . S
H1220 C1178 0.929 . S
H1221 C1179 0.930 . S
H1222 C1180 0.930 . S
H1223 C1181 0.930 . S
H1224 C1183 0.929 . S
H1225 C1184 0.930 . S
H1226 C1185 0.930 . S
H1227 C1186 0.930 . S
H1228 C1190 0.929 . S
H1229 C1192 0.930 . S
H1230 C1198 0.929 . S
H1231 C1199 0.930 . S
Li1232 N1249 1.990 . S
Li1232 O1292 1.956 . S
Li1232 O1293 1.970 . S
Li1232 O1294 1.961 . S
Li1233 N1257 1.990 . S
Li1233 O1292 1.970 . S
Li1233 O1293 1.956 . S
Li1233 O1295 1.961 . S
Li1234 N1279 1.990 . S
Li1234 O1292 1.961 . S
Li1234 O1294 1.956 . S
Li1234 O1295 1.970 . S
Li1235 N1285 1.990 . S
Li1235 O1293 1.961 . S
Li1235 O1294 1.970 . S
Li1235 O1295 1.956 . S
C1236 C1238 1.348 . S
C1236 C1239 1.356 . S
C1236 O1292 1.325 . S
N1237 C1240 1.314 . S
N1237 C1241 1.279 . S
C1238 C1236 1.348 . S
C1238 C1240 1.353 . S
C1238 H1296 0.929 . S
C1239 C1236 1.356 . S
C1239 C1241 1.358 . S
C1239 H1297 0.930 . S
C1240 N1237 1.314 . S
C1240 C1238 1.353 . S
C1240 H1298 0.930 . S
C1241 N1237 1.279 . S
C1241 C1239 1.358 . S
C1241 H1299 0.930 . S
C1242 C1245 1.348 . S
C1242 C1246 1.356 . S
C1242 O1293 1.325 . S
C1243 N1244 1.279 . S
C1243 C1246 1.358 . S
C1243 H1300 0.930 . S
N1244 C1243 1.279 . S
N1244 C1247 1.314 . S
C1245 C1242 1.348 . S
C1245 C1247 1.353 . S
C1245 H1301 0.929 . S
C1246 C1242 1.356 . S
C1246 C1243 1.358 . S
C1246 H1302 0.930 . S
C1247 N1244 1.314 . S
C1247 C1245 1.353 . S
C1247 H1303 0.930 . S
C1248 N1249 1.314 . S
C1248 C1253 1.353 . S
C1248 H1254 0.930 . S
N1249 Li1232 1.990 . S
N1249 C1248 1.314 . S
N1249 C1251 1.279 . S
C1250 C1251 1.358 . S
C1250 C1252 1.356 . S
C1250 H1304 0.930 . S
C1251 N1249 1.279 . S
C1251 C1250 1.358 . S
C1251 H1255 0.930 . S
C1252 C1250 1.356 . S
C1252 C1253 1.348 . S
C1253 C1248 1.353 . S
C1253 C1252 1.348 . S
C1253 H1305 0.929 . S
H1254 C1248 0.930 . S
H1255 C1251 0.930 . S
C1256 N1257 1.314 . S
C1256 C1258 1.353 . S
C1256 H1262 0.930 . S
N1257 Li1233 1.990 . S
N1257 C1256 1.314 . S
N1257 C1260 1.279 . S
C1258 C1256 1.353 . S
C1258 C1261 1.348 . S
C1258 H1306 0.929 . S
C1259 C1260 1.358 . S
C1259 C1261 1.356 . S
C1259 H1307 0.930 . S
C1260 N1257 1.279 . S
C1260 C1259 1.358 . S
C1260 H1263 0.930 . S
C1261 C1258 1.348 . S
C1261 C1259 1.356 . S
H1262 C1256 0.930 . S
H1263 C1260 0.930 . S
C1264 C1266 1.348 . S
C1264 C1267 1.356 . S
C1264 O1294 1.325 . S
N1265 C1268 1.314 . S
N1265 C1269 1.279 . S
C1266 C1264 1.348 . S
C1266 C1268 1.353 . S
C1266 H1308 0.929 . S
C1267 C1264 1.356 . S
C1267 C1269 1.358 . S
C1267 H1309 0.930 . S
C1268 N1265 1.314 . S
C1268 C1266 1.353 . S
C1268 H1310 0.930 . S
C1269 N1265 1.279 . S
C1269 C1267 1.358 . S
C1269 H1311 0.930 . S
C1270 C1271 1.348 . S
C1270 C1272 1.356 . S
C1270 O1295 1.325 . S
C1271 C1270 1.348 . S
C1271 C1273 1.353 . S
C1271 H1312 0.929 . S
C1272 C1270 1.356 . S
C1272 C1274 1.358 . S
C1272 H1313 0.930 . S
C1273 C1271 1.353 . S
C1273 N1275 1.314 . S
C1273 H1314 0.930 . S
C1274 C1272 1.358 . S
C1274 N1275 1.279 . S
C1274 H1315 0.930 . S
N1275 C1273 1.314 . S
N1275 C1274 1.279 . S
C1276 C1278 1.353 . S
C1276 N1279 1.314 . S
C1276 H1282 0.930 . S
C1277 N1279 1.279 . S
C1277 C1280 1.358 . S
C1277 H1283 0.930 . S
C1278 C1276 1.353 . S
C1278 C1281 1.348 . S
C1278 H1316 0.929 . S
N1279 Li1234 1.990 . S
N1279 C1276 1.314 . S
N1279 C1277 1.279 . S
C1280 C1277 1.358 . S
C1280 C1281 1.356 . S
C1280 H1317 0.930 . S
C1281 C1278 1.348 . S
C1281 C1280 1.356 . S
H1282 C1276 0.930 . S
H1283 C1277 0.930 . S
C1284 N1285 1.314 . S
C1284 C1286 1.353 . S
C1284 H1290 0.930 . S
N1285 Li1235 1.990 . S
N1285 C1284 1.314 . S
N1285 C1288 1.279 . S
C1286 C1284 1.353 . S
C1286 C1289 1.348 . S
C1286 H1318 0.929 . S
C1287 C1288 1.358 . S
C1287 C1289 1.356 . S
C1287 H1319 0.930 . S
C1288 N1285 1.279 . S
C1288 C1287 1.358 . S
C1288 H1291 0.930 . S
C1289 C1286 1.348 . S
C1289 C1287 1.356 . S
H1290 C1284 0.930 . S
H1291 C1288 0.930 . S
O1292 Li1232 1.956 . S
O1292 Li1233 1.970 . S
O1292 Li1234 1.961 . S
O1292 C1236 1.325 . S
O1293 Li1232 1.970 . S
O1293 Li1233 1.956 . S
O1293 Li1235 1.961 . S
O1293 C1242 1.325 . S
O1294 Li1232 1.961 . S
O1294 Li1234 1.956 . S
O1294 Li1235 1.970 . S
O1294 C1264 1.325 . S
O1295 Li1233 1.961 . S
O1295 Li1234 1.970 . S
O1295 Li1235 1.956 . S
O1295 C1270 1.325 . S
H1296 C1238 0.929 . S
H1297 C1239 0.930 . S
H1298 C1240 0.930 . S
H1299 C1241 0.930 . S
H1300 C1243 0.930 . S
H1301 C1245 0.929 . S
H1302 C1246 0.930 . S
H1303 C1247 0.930 . S
H1304 C1250 0.930 . S
H1305 C1253 0.929 . S
H1306 C1258 0.929 . S
H1307 C1259 0.930 . S
H1308 C1266 0.929 . S
H1309 C1267 0.930 . S
H1310 C1268 0.930 . S
H1311 C1269 0.930 . S
H1312 C1271 0.929 . S
H1313 C1272 0.930 . S
H1314 C1273 0.930 . S
H1315 C1274 0.930 . S
H1316 C1278 0.929 . S
H1317 C1280 0.930 . S
H1318 C1286 0.929 . S
H1319 C1287 0.930 . S
Li1320 N1337 1.990 . S
Li1320 O1380 1.956 . S
Li1320 O1381 1.970 . S
Li1320 O1382 1.961 . S
Li1321 N1345 1.990 . S
Li1321 O1380 1.970 . S
Li1321 O1381 1.956 . S
Li1321 O1383 1.961 . S
Li1322 N1367 1.990 . S
Li1322 O1380 1.961 . S
Li1322 O1382 1.956 . S
Li1322 O1383 1.970 . S
Li1323 N1373 1.990 . S
Li1323 O1381 1.961 . S
Li1323 O1382 1.970 . S
Li1323 O1383 1.956 . S
C1324 C1326 1.348 . S
C1324 C1327 1.356 . S
C1324 O1380 1.325 . S
N1325 C1328 1.314 . S
N1325 C1329 1.279 . S
C1326 C1324 1.348 . S
C1326 C1328 1.353 . S
C1326 H1384 0.929 . S
C1327 C1324 1.356 . S
C1327 C1329 1.358 . S
C1327 H1385 0.930 . S
C1328 N1325 1.314 . S
C1328 C1326 1.353 . S
C1328 H1386 0.930 . S
C1329 N1325 1.279 . S
C1329 C1327 1.358 . S
C1329 H1387 0.930 . S
C1330 C1333 1.348 . S
C1330 C1334 1.356 . S
C1330 O1381 1.325 . S
C1331 N1332 1.279 . S
C1331 C1334 1.358 . S
C1331 H1388 0.930 . S
N1332 C1331 1.279 . S
N1332 C1335 1.314 . S
C1333 C1330 1.348 . S
C1333 C1335 1.353 . S
C1333 H1389 0.929 . S
C1334 C1330 1.356 . S
C1334 C1331 1.358 . S
C1334 H1390 0.930 . S
C1335 N1332 1.314 . S
C1335 C1333 1.353 . S
C1335 H1391 0.930 . S
C1336 N1337 1.314 . S
C1336 C1341 1.353 . S
C1336 H1342 0.930 . S
N1337 Li1320 1.990 . S
N1337 C1336 1.314 . S
N1337 C1339 1.279 . S
C1338 C1339 1.358 . S
C1338 C1340 1.356 . S
C1338 H1392 0.930 . S
C1339 N1337 1.279 . S
C1339 C1338 1.358 . S
C1339 H1343 0.930 . S
C1340 C1338 1.356 . S
C1340 C1341 1.348 . S
C1341 C1336 1.353 . S
C1341 C1340 1.348 . S
C1341 H1393 0.929 . S
H1342 C1336 0.930 . S
H1343 C1339 0.930 . S
C1344 N1345 1.314 . S
C1344 C1346 1.353 . S
C1344 H1350 0.930 . S
N1345 Li1321 1.990 . S
N1345 C1344 1.314 . S
N1345 C1348 1.279 . S
C1346 C1344 1.353 . S
C1346 C1349 1.348 . S
C1346 H1394 0.929 . S
C1347 C1348 1.358 . S
C1347 C1349 1.356 . S
C1347 H1395 0.930 . S
C1348 N1345 1.279 . S
C1348 C1347 1.358 . S
C1348 H1351 0.930 . S
C1349 C1346 1.348 . S
C1349 C1347 1.356 . S
H1350 C1344 0.930 . S
H1351 C1348 0.930 . S
C1352 C1354 1.348 . S
C1352 C1355 1.356 . S
C1352 O1382 1.325 . S
N1353 C1356 1.314 . S
N1353 C1357 1.279 . S
C1354 C1352 1.348 . S
C1354 C1356 1.353 . S
C1354 H1396 0.929 . S
C1355 C1352 1.356 . S
C1355 C1357 1.358 . S
C1355 H1397 0.930 . S
C1356 N1353 1.314 . S
C1356 C1354 1.353 . S
C1356 H1398 0.930 . S
C1357 N1353 1.279 . S
C1357 C1355 1.358 . S
C1357 H1399 0.930 . S
C1358 C1359 1.348 . S
C1358 C1360 1.356 . S
C1358 O1383 1.325 . S
C1359 C1358 1.348 . S
C1359 C1361 1.353 . S
C1359 H1400 0.929 . S
C1360 C1358 1.356 . S
C1360 C1362 1.358 . S
C1360 H1401 0.930 . S
C1361 C1359 1.353 . S
C1361 N1363 1.314 . S
C1361 H1402 0.930 . S
C1362 C1360 1.358 . S
C1362 N1363 1.279 . S
C1362 H1403 0.930 . S
N1363 C1361 1.314 . S
N1363 C1362 1.279 . S
C1364 C1366 1.353 . S
C1364 N1367 1.314 . S
C1364 H1370 0.930 . S
C1365 N1367 1.279 . S
C1365 C1368 1.358 . S
C1365 H1371 0.930 . S
C1366 C1364 1.353 . S
C1366 C1369 1.348 . S
C1366 H1404 0.929 . S
N1367 Li1322 1.990 . S
N1367 C1364 1.314 . S
N1367 C1365 1.279 . S
C1368 C1365 1.358 . S
C1368 C1369 1.356 . S
C1368 H1405 0.930 . S
C1369 C1366 1.348 . S
C1369 C1368 1.356 . S
H1370 C1364 0.930 . S
H1371 C1365 0.930 . S
C1372 N1373 1.314 . S
C1372 C1374 1.353 . S
C1372 H1378 0.930 . S
N1373 Li1323 1.990 . S
N1373 C1372 1.314 . S
N1373 C1376 1.279 . S
C1374 C1372 1.353 . S
C1374 C1377 1.348 . S
C1374 H1406 0.929 . S
C1375 C1376 1.358 . S
C1375 C1377 1.356 . S
C1375 H1407 0.930 . S
C1376 N1373 1.279 . S
C1376 C1375 1.358 . S
C1376 H1379 0.930 . S
C1377 C1374 1.348 . S
C1377 C1375 1.356 . S
H1378 C1372 0.930 . S
H1379 C1376 0.930 . S
O1380 Li1320 1.956 . S
O1380 Li1321 1.970 . S
O1380 Li1322 1.961 . S
O1380 C1324 1.325 . S
O1381 Li1320 1.970 . S
O1381 Li1321 1.956 . S
O1381 Li1323 1.961 . S
O1381 C1330 1.325 . S
O1382 Li1320 1.961 . S
O1382 Li1322 1.956 . S
O1382 Li1323 1.970 . S
O1382 C1352 1.325 . S
O1383 Li1321 1.961 . S
O1383 Li1322 1.970 . S
O1383 Li1323 1.956 . S
O1383 C1358 1.325 . S
H1384 C1326 0.929 . S
H1385 C1327 0.930 . S
H1386 C1328 0.930 . S
H1387 C1329 0.930 . S
H1388 C1331 0.930 . S
H1389 C1333 0.929 . S
H1390 C1334 0.930 . S
H1391 C1335 0.930 . S
H1392 C1338 0.930 . S
H1393 C1341 0.929 . S
H1394 C1346 0.929 . S
H1395 C1347 0.930 . S
H1396 C1354 0.929 . S
H1397 C1355 0.930 . S
H1398 C1356 0.930 . S
H1399 C1357 0.930 . S
H1400 C1359 0.929 . S
H1401 C1360 0.930 . S
H1402 C1361 0.930 . S
H1403 C1362 0.930 . S
H1404 C1366 0.929 . S
H1405 C1368 0.930 . S
H1406 C1374 0.929 . S
H1407 C1375 0.930 . S
Li1408 N1425 1.990 . S
Li1408 O1468 1.956 . S
Li1408 O1469 1.970 . S
Li1408 O1470 1.961 . S
Li1409 N1433 1.990 . S
Li1409 O1468 1.970 . S
Li1409 O1469 1.956 . S
Li1409 O1471 1.961 . S
Li1410 N1455 1.990 . S
Li1410 O1468 1.961 . S
Li1410 O1470 1.956 . S
Li1410 O1471 1.970 . S
Li1411 N1461 1.990 . S
Li1411 O1469 1.961 . S
Li1411 O1470 1.970 . S
Li1411 O1471 1.956 . S
C1412 C1414 1.348 . S
C1412 C1415 1.356 . S
C1412 O1468 1.325 . S
N1413 C1416 1.314 . S
N1413 C1417 1.279 . S
C1414 C1412 1.348 . S
C1414 C1416 1.353 . S
C1414 H1472 0.929 . S
C1415 C1412 1.356 . S
C1415 C1417 1.358 . S
C1415 H1473 0.930 . S
C1416 N1413 1.314 . S
C1416 C1414 1.353 . S
C1416 H1474 0.930 . S
C1417 N1413 1.279 . S
C1417 C1415 1.358 . S
C1417 H1475 0.930 . S
C1418 C1421 1.348 . S
C1418 C1422 1.356 . S
C1418 O1469 1.325 . S
C1419 N1420 1.279 . S
C1419 C1422 1.358 . S
C1419 H1476 0.930 . S
N1420 C1419 1.279 . S
N1420 C1423 1.314 . S
C1421 C1418 1.348 . S
C1421 C1423 1.353 . S
C1421 H1477 0.929 . S
C1422 C1418 1.356 . S
C1422 C1419 1.358 . S
C1422 H1478 0.930 . S
C1423 N1420 1.314 . S
C1423 C1421 1.353 . S
C1423 H1479 0.930 . S
C1424 N1425 1.314 . S
C1424 C1429 1.353 . S
C1424 H1430 0.930 . S
N1425 Li1408 1.990 . S
N1425 C1424 1.314 . S
N1425 C1427 1.279 . S
C1426 C1427 1.358 . S
C1426 C1428 1.356 . S
C1426 H1480 0.930 . S
C1427 N1425 1.279 . S
C1427 C1426 1.358 . S
C1427 H1431 0.930 . S
C1428 C1426 1.356 . S
C1428 C1429 1.348 . S
C1429 C1424 1.353 . S
C1429 C1428 1.348 . S
C1429 H1481 0.929 . S
H1430 C1424 0.930 . S
H1431 C1427 0.930 . S
C1432 N1433 1.314 . S
C1432 C1434 1.353 . S
C1432 H1438 0.930 . S
N1433 Li1409 1.990 . S
N1433 C1432 1.314 . S
N1433 C1436 1.279 . S
C1434 C1432 1.353 . S
C1434 C1437 1.348 . S
C1434 H1482 0.929 . S
C1435 C1436 1.358 . S
C1435 C1437 1.356 . S
C1435 H1483 0.930 . S
C1436 N1433 1.279 . S
C1436 C1435 1.358 . S
C1436 H1439 0.930 . S
C1437 C1434 1.348 . S
C1437 C1435 1.356 . S
H1438 C1432 0.930 . S
H1439 C1436 0.930 . S
C1440 C1442 1.348 . S
C1440 C1443 1.356 . S
C1440 O1470 1.325 . S
N1441 C1444 1.314 . S
N1441 C1445 1.279 . S
C1442 C1440 1.348 . S
C1442 C1444 1.353 . S
C1442 H1484 0.929 . S
C1443 C1440 1.356 . S
C1443 C1445 1.358 . S
C1443 H1485 0.930 . S
C1444 N1441 1.314 . S
C1444 C1442 1.353 . S
C1444 H1486 0.930 . S
C1445 N1441 1.279 . S
C1445 C1443 1.358 . S
C1445 H1487 0.930 . S
C1446 C1447 1.348 . S
C1446 C1448 1.356 . S
C1446 O1471 1.325 . S
C1447 C1446 1.348 . S
C1447 C1449 1.353 . S
C1447 H1488 0.929 . S
C1448 C1446 1.356 . S
C1448 C1450 1.358 . S
C1448 H1489 0.930 . S
C1449 C1447 1.353 . S
C1449 N1451 1.314 . S
C1449 H1490 0.930 . S
C1450 C1448 1.358 . S
C1450 N1451 1.279 . S
C1450 H1491 0.930 . S
N1451 C1449 1.314 . S
N1451 C1450 1.279 . S
C1452 C1454 1.353 . S
C1452 N1455 1.314 . S
C1452 H1458 0.930 . S
C1453 N1455 1.279 . S
C1453 C1456 1.358 . S
C1453 H1459 0.930 . S
C1454 C1452 1.353 . S
C1454 C1457 1.348 . S
C1454 H1492 0.929 . S
N1455 Li1410 1.990 . S
N1455 C1452 1.314 . S
N1455 C1453 1.279 . S
C1456 C1453 1.358 . S
C1456 C1457 1.356 . S
C1456 H1493 0.930 . S
C1457 C1454 1.348 . S
C1457 C1456 1.356 . S
H1458 C1452 0.930 . S
H1459 C1453 0.930 . S
C1460 N1461 1.314 . S
C1460 C1462 1.353 . S
C1460 H1466 0.930 . S
N1461 Li1411 1.990 . S
N1461 C1460 1.314 . S
N1461 C1464 1.279 . S
C1462 C1460 1.353 . S
C1462 C1465 1.348 . S
C1462 H1494 0.929 . S
C1463 C1464 1.358 . S
C1463 C1465 1.356 . S
C1463 H1495 0.930 . S
C1464 N1461 1.279 . S
C1464 C1463 1.358 . S
C1464 H1467 0.930 . S
C1465 C1462 1.348 . S
C1465 C1463 1.356 . S
H1466 C1460 0.930 . S
H1467 C1464 0.930 . S
O1468 Li1408 1.956 . S
O1468 Li1409 1.970 . S
O1468 Li1410 1.961 . S
O1468 C1412 1.325 . S
O1469 Li1408 1.970 . S
O1469 Li1409 1.956 . S
O1469 Li1411 1.961 . S
O1469 C1418 1.325 . S
O1470 Li1408 1.961 . S
O1470 Li1410 1.956 . S
O1470 Li1411 1.970 . S
O1470 C1440 1.325 . S
O1471 Li1409 1.961 . S
O1471 Li1410 1.970 . S
O1471 Li1411 1.956 . S
O1471 C1446 1.325 . S
H1472 C1414 0.929 . S
H1473 C1415 0.930 . S
H1474 C1416 0.930 . S
H1475 C1417 0.930 . S
H1476 C1419 0.930 . S
H1477 C1421 0.929 . S
H1478 C1422 0.930 . S
H1479 C1423 0.930 . S
H1480 C1426 0.930 . S
H1481 C1429 0.929 . S
H1482 C1434 0.929 . S
H1483 C1435 0.930 . S
H1484 C1442 0.929 . S
H1485 C1443 0.930 . S
H1486 C1444 0.930 . S
H1487 C1445 0.930 . S
H1488 C1447 0.929 . S
H1489 C1448 0.930 . S
H1490 C1449 0.930 . S
H1491 C1450 0.930 . S
H1492 C1454 0.929 . S
H1493 C1456 0.930 . S
H1494 C1462 0.929 . S
H1495 C1463 0.930 . S
Li1496 N1513 1.990 . S
Li1496 O1556 1.956 . S
Li1496 O1557 1.970 . S
Li1496 O1558 1.961 . S
Li1497 N1521 1.990 . S
Li1497 O1556 1.970 . S
Li1497 O1557 1.956 . S
Li1497 O1559 1.961 . S
Li1498 N1543 1.990 . S
Li1498 O1556 1.961 . S
Li1498 O1558 1.956 . S
Li1498 O1559 1.970 . S
Li1499 N1549 1.990 . S
Li1499 O1557 1.961 . S
Li1499 O1558 1.970 . S
Li1499 O1559 1.956 . S
C1500 C1502 1.348 . S
C1500 C1503 1.356 . S
C1500 O1556 1.325 . S
N1501 C1504 1.314 . S
N1501 C1505 1.279 . S
C1502 C1500 1.348 . S
C1502 C1504 1.353 . S
C1502 H1560 0.929 . S
C1503 C1500 1.356 . S
C1503 C1505 1.358 . S
C1503 H1561 0.930 . S
C1504 N1501 1.314 . S
C1504 C1502 1.353 . S
C1504 H1562 0.930 . S
C1505 N1501 1.279 . S
C1505 C1503 1.358 . S
C1505 H1563 0.930 . S
C1506 C1509 1.348 . S
C1506 C1510 1.356 . S
C1506 O1557 1.325 . S
C1507 N1508 1.279 . S
C1507 C1510 1.358 . S
C1507 H1564 0.930 . S
N1508 C1507 1.279 . S
N1508 C1511 1.314 . S
C1509 C1506 1.348 . S
C1509 C1511 1.353 . S
C1509 H1565 0.929 . S
C1510 C1506 1.356 . S
C1510 C1507 1.358 . S
C1510 H1566 0.930 . S
C1511 N1508 1.314 . S
C1511 C1509 1.353 . S
C1511 H1567 0.930 . S
C1512 N1513 1.314 . S
C1512 C1517 1.353 . S
C1512 H1518 0.930 . S
N1513 Li1496 1.990 . S
N1513 C1512 1.314 . S
N1513 C1515 1.279 . S
C1514 C1515 1.358 . S
C1514 C1516 1.356 . S
C1514 H1568 0.930 . S
C1515 N1513 1.279 . S
C1515 C1514 1.358 . S
C1515 H1519 0.930 . S
C1516 C1514 1.356 . S
C1516 C1517 1.348 . S
C1517 C1512 1.353 . S
C1517 C1516 1.348 . S
C1517 H1569 0.929 . S
H1518 C1512 0.930 . S
H1519 C1515 0.930 . S
C1520 N1521 1.314 . S
C1520 C1522 1.353 . S
C1520 H1526 0.930 . S
N1521 Li1497 1.990 . S
N1521 C1520 1.314 . S
N1521 C1524 1.279 . S
C1522 C1520 1.353 . S
C1522 C1525 1.348 . S
C1522 H1570 0.929 . S
C1523 C1524 1.358 . S
C1523 C1525 1.356 . S
C1523 H1571 0.930 . S
C1524 N1521 1.279 . S
C1524 C1523 1.358 . S
C1524 H1527 0.930 . S
C1525 C1522 1.348 . S
C1525 C1523 1.356 . S
H1526 C1520 0.930 . S
H1527 C1524 0.930 . S
C1528 C1530 1.348 . S
C1528 C1531 1.356 . S
C1528 O1558 1.325 . S
N1529 C1532 1.314 . S
N1529 C1533 1.279 . S
C1530 C1528 1.348 . S
C1530 C1532 1.353 . S
C1530 H1572 0.929 . S
C1531 C1528 1.356 . S
C1531 C1533 1.358 . S
C1531 H1573 0.930 . S
C1532 N1529 1.314 . S
C1532 C1530 1.353 . S
C1532 H1574 0.930 . S
C1533 N1529 1.279 . S
C1533 C1531 1.358 . S
C1533 H1575 0.930 . S
C1534 C1535 1.348 . S
C1534 C1536 1.356 . S
C1534 O1559 1.325 . S
C1535 C1534 1.348 . S
C1535 C1537 1.353 . S
C1535 H1576 0.929 . S
C1536 C1534 1.356 . S
C1536 C1538 1.358 . S
C1536 H1577 0.930 . S
C1537 C1535 1.353 . S
C1537 N1539 1.314 . S
C1537 H1578 0.930 . S
C1538 C1536 1.358 . S
C1538 N1539 1.279 . S
C1538 H1579 0.930 . S
N1539 C1537 1.314 . S
N1539 C1538 1.279 . S
C1540 C1542 1.353 . S
C1540 N1543 1.314 . S
C1540 H1546 0.930 . S
C1541 N1543 1.279 . S
C1541 C1544 1.358 . S
C1541 H1547 0.930 . S
C1542 C1540 1.353 . S
C1542 C1545 1.348 . S
C1542 H1580 0.929 . S
N1543 Li1498 1.990 . S
N1543 C1540 1.314 . S
N1543 C1541 1.279 . S
C1544 C1541 1.358 . S
C1544 C1545 1.356 . S
C1544 H1581 0.930 . S
C1545 C1542 1.348 . S
C1545 C1544 1.356 . S
H1546 C1540 0.930 . S
H1547 C1541 0.930 . S
C1548 N1549 1.314 . S
C1548 C1550 1.353 . S
C1548 H1554 0.930 . S
N1549 Li1499 1.990 . S
N1549 C1548 1.314 . S
N1549 C1552 1.279 . S
C1550 C1548 1.353 . S
C1550 C1553 1.348 . S
C1550 H1582 0.929 . S
C1551 C1552 1.358 . S
C1551 C1553 1.356 . S
C1551 H1583 0.930 . S
C1552 N1549 1.279 . S
C1552 C1551 1.358 . S
C1552 H1555 0.930 . S
C1553 C1550 1.348 . S
C1553 C1551 1.356 . S
H1554 C1548 0.930 . S
H1555 C1552 0.930 . S
O1556 Li1496 1.956 . S
O1556 Li1497 1.970 . S
O1556 Li1498 1.961 . S
O1556 C1500 1.325 . S
O1557 Li1496 1.970 . S
O1557 Li1497 1.956 . S
O1557 Li1499 1.961 . S
O1557 C1506 1.325 . S
O1558 Li1496 1.961 . S
O1558 Li1498 1.956 . S
O1558 Li1499 1.970 . S
O1558 C1528 1.325 . S
O1559 Li1497 1.961 . S
O1559 Li1498 1.970 . S
O1559 Li1499 1.956 . S
O1559 C1534 1.325 . S
H1560 C1502 0.929 . S
H1561 C1503 0.930 . S
H1562 C1504 0.930 . S
H1563 C1505 0.930 . S
H1564 C1507 0.930 . S
H1565 C1509 0.929 . S
H1566 C1510 0.930 . S
H1567 C1511 0.930 . S
H1568 C1514 0.930 . S
H1569 C1517 0.929 . S
H1570 C1522 0.929 . S
H1571 C1523 0.930 . S
H1572 C1530 0.929 . S
H1573 C1531 0.930 . S
H1574 C1532 0.930 . S
H1575 C1533 0.930 . S
H1576 C1535 0.929 . S
H1577 C1536 0.930 . S
H1578 C1537 0.930 . S
H1579 C1538 0.930 . S
H1580 C1542 0.929 . S
H1581 C1544 0.930 . S
H1582 C1550 0.929 . S
H1583 C1551 0.930 . S
Li1584 N1601 1.990 . S
Li1584 O1644 1.956 . S
Li1584 O1645 1.970 . S
Li1584 O1646 1.961 . S
Li1585 N1609 1.990 . S
Li1585 O1644 1.970 . S
Li1585 O1645 1.956 . S
Li1585 O1647 1.961 . S
Li1586 N1631 1.990 . S
Li1586 O1644 1.961 . S
Li1586 O1646 1.956 . S
Li1586 O1647 1.970 . S
Li1587 N1637 1.990 . S
Li1587 O1645 1.961 . S
Li1587 O1646 1.970 . S
Li1587 O1647 1.956 . S
C1588 C1590 1.348 . S
C1588 C1591 1.356 . S
C1588 O1644 1.325 . S
N1589 C1592 1.314 . S
N1589 C1593 1.279 . S
C1590 C1588 1.348 . S
C1590 C1592 1.353 . S
C1590 H1648 0.929 . S
C1591 C1588 1.356 . S
C1591 C1593 1.358 . S
C1591 H1649 0.930 . S
C1592 N1589 1.314 . S
C1592 C1590 1.353 . S
C1592 H1650 0.930 . S
C1593 N1589 1.279 . S
C1593 C1591 1.358 . S
C1593 H1651 0.930 . S
C1594 C1597 1.348 . S
C1594 C1598 1.356 . S
C1594 O1645 1.325 . S
C1595 N1596 1.279 . S
C1595 C1598 1.358 . S
C1595 H1652 0.930 . S
N1596 C1595 1.279 . S
N1596 C1599 1.314 . S
C1597 C1594 1.348 . S
C1597 C1599 1.353 . S
C1597 H1653 0.929 . S
C1598 C1594 1.356 . S
C1598 C1595 1.358 . S
C1598 H1654 0.930 . S
C1599 N1596 1.314 . S
C1599 C1597 1.353 . S
C1599 H1655 0.930 . S
C1600 N1601 1.314 . S
C1600 C1605 1.353 . S
C1600 H1606 0.930 . S
N1601 Li1584 1.990 . S
N1601 C1600 1.314 . S
N1601 C1603 1.279 . S
C1602 C1603 1.358 . S
C1602 C1604 1.356 . S
C1602 H1656 0.930 . S
C1603 N1601 1.279 . S
C1603 C1602 1.358 . S
C1603 H1607 0.930 . S
C1604 C1602 1.356 . S
C1604 C1605 1.348 . S
C1605 C1600 1.353 . S
C1605 C1604 1.348 . S
C1605 H1657 0.929 . S
H1606 C1600 0.930 . S
H1607 C1603 0.930 . S
C1608 N1609 1.314 . S
C1608 C1610 1.353 . S
C1608 H1614 0.930 . S
N1609 Li1585 1.990 . S
N1609 C1608 1.314 . S
N1609 C1612 1.279 . S
C1610 C1608 1.353 . S
C1610 C1613 1.348 . S
C1610 H1658 0.929 . S
C1611 C1612 1.358 . S
C1611 C1613 1.356 . S
C1611 H1659 0.930 . S
C1612 N1609 1.279 . S
C1612 C1611 1.358 . S
C1612 H1615 0.930 . S
C1613 C1610 1.348 . S
C1613 C1611 1.356 . S
H1614 C1608 0.930 . S
H1615 C1612 0.930 . S
C1616 C1618 1.348 . S
C1616 C1619 1.356 . S
C1616 O1646 1.325 . S
N1617 C1620 1.314 . S
N1617 C1621 1.279 . S
C1618 C1616 1.348 . S
C1618 C1620 1.353 . S
C1618 H1660 0.929 . S
C1619 C1616 1.356 . S
C1619 C1621 1.358 . S
C1619 H1661 0.930 . S
C1620 N1617 1.314 . S
C1620 C1618 1.353 . S
C1620 H1662 0.930 . S
C1621 N1617 1.279 . S
C1621 C1619 1.358 . S
C1621 H1663 0.930 . S
C1622 C1623 1.348 . S
C1622 C1624 1.356 . S
C1622 O1647 1.325 . S
C1623 C1622 1.348 . S
C1623 C1625 1.353 . S
C1623 H1664 0.929 . S
C1624 C1622 1.356 . S
C1624 C1626 1.358 . S
C1624 H1665 0.930 . S
C1625 C1623 1.353 . S
C1625 N1627 1.314 . S
C1625 H1666 0.930 . S
C1626 C1624 1.358 . S
C1626 N1627 1.279 . S
C1626 H1667 0.930 . S
N1627 C1625 1.314 . S
N1627 C1626 1.279 . S
C1628 C1630 1.353 . S
C1628 N1631 1.314 . S
C1628 H1634 0.930 . S
C1629 N1631 1.279 . S
C1629 C1632 1.358 . S
C1629 H1635 0.930 . S
C1630 C1628 1.353 . S
C1630 C1633 1.348 . S
C1630 H1668 0.929 . S
N1631 Li1586 1.990 . S
N1631 C1628 1.314 . S
N1631 C1629 1.279 . S
C1632 C1629 1.358 . S
C1632 C1633 1.356 . S
C1632 H1669 0.930 . S
C1633 C1630 1.348 . S
C1633 C1632 1.356 . S
H1634 C1628 0.930 . S
H1635 C1629 0.930 . S
C1636 N1637 1.314 . S
C1636 C1638 1.353 . S
C1636 H1642 0.930 . S
N1637 Li1587 1.990 . S
N1637 C1636 1.314 . S
N1637 C1640 1.279 . S
C1638 C1636 1.353 . S
C1638 C1641 1.348 . S
C1638 H1670 0.929 . S
C1639 C1640 1.358 . S
C1639 C1641 1.356 . S
C1639 H1671 0.930 . S
C1640 N1637 1.279 . S
C1640 C1639 1.358 . S
C1640 H1643 0.930 . S
C1641 C1638 1.348 . S
C1641 C1639 1.356 . S
H1642 C1636 0.930 . S
H1643 C1640 0.930 . S
O1644 Li1584 1.956 . S
O1644 Li1585 1.970 . S
O1644 Li1586 1.961 . S
O1644 C1588 1.325 . S
O1645 Li1584 1.970 . S
O1645 Li1585 1.956 . S
O1645 Li1587 1.961 . S
O1645 C1594 1.325 . S
O1646 Li1584 1.961 . S
O1646 Li1586 1.956 . S
O1646 Li1587 1.970 . S
O1646 C1616 1.325 . S
O1647 Li1585 1.961 . S
O1647 Li1586 1.970 . S
O1647 Li1587 1.956 . S
O1647 C1622 1.325 . S
H1648 C1590 0.929 . S
H1649 C1591 0.930 . S
H1650 C1592 0.930 . S
H1651 C1593 0.930 . S
H1652 C1595 0.930 . S
H1653 C1597 0.929 . S
H1654 C1598 0.930 . S
H1655 C1599 0.930 . S
H1656 C1602 0.930 . S
H1657 C1605 0.929 . S
H1658 C1610 0.929 . S
H1659 C1611 0.930 . S
H1660 C1618 0.929 . S
H1661 C1619 0.930 . S
H1662 C1620 0.930 . S
H1663 C1621 0.930 . S
H1664 C1623 0.929 . S
H1665 C1624 0.930 . S
H1666 C1625 0.930 . S
H1667 C1626 0.930 . S
H1668 C1630 0.929 . S
H1669 C1632 0.930 . S
H1670 C1638 0.929 . S
H1671 C1639 0.930 . S
Li1672 N1689 1.990 . S
Li1672 O1732 1.956 . S
Li1672 O1733 1.970 . S
Li1672 O1734 1.961 . S
Li1673 N1697 1.990 . S
Li1673 O1732 1.970 . S
Li1673 O1733 1.956 . S
Li1673 O1735 1.961 . S
Li1674 N1719 1.990 . S
Li1674 O1732 1.961 . S
Li1674 O1734 1.956 . S
Li1674 O1735 1.970 . S
Li1675 N1725 1.990 . S
Li1675 O1733 1.961 . S
Li1675 O1734 1.970 . S
Li1675 O1735 1.956 . S
C1676 C1678 1.348 . S
C1676 C1679 1.356 . S
C1676 O1732 1.325 . S
N1677 C1680 1.314 . S
N1677 C1681 1.279 . S
C1678 C1676 1.348 . S
C1678 C1680 1.353 . S
C1678 H1736 0.929 . S
C1679 C1676 1.356 . S
C1679 C1681 1.358 . S
C1679 H1737 0.930 . S
C1680 N1677 1.314 . S
C1680 C1678 1.353 . S
C1680 H1738 0.930 . S
C1681 N1677 1.279 . S
C1681 C1679 1.358 . S
C1681 H1739 0.930 . S
C1682 C1685 1.348 . S
C1682 C1686 1.356 . S
C1682 O1733 1.325 . S
C1683 N1684 1.279 . S
C1683 C1686 1.358 . S
C1683 H1740 0.930 . S
N1684 C1683 1.279 . S
N1684 C1687 1.314 . S
C1685 C1682 1.348 . S
C1685 C1687 1.353 . S
C1685 H1741 0.929 . S
C1686 C1682 1.356 . S
C1686 C1683 1.358 . S
C1686 H1742 0.930 . S
C1687 N1684 1.314 . S
C1687 C1685 1.353 . S
C1687 H1743 0.930 . S
C1688 N1689 1.314 . S
C1688 C1693 1.353 . S
C1688 H1694 0.930 . S
N1689 Li1672 1.990 . S
N1689 C1688 1.314 . S
N1689 C1691 1.279 . S
C1690 C1691 1.358 . S
C1690 C1692 1.356 . S
C1690 H1744 0.930 . S
C1691 N1689 1.279 . S
C1691 C1690 1.358 . S
C1691 H1695 0.930 . S
C1692 C1690 1.356 . S
C1692 C1693 1.348 . S
C1693 C1688 1.353 . S
C1693 C1692 1.348 . S
C1693 H1745 0.929 . S
H1694 C1688 0.930 . S
H1695 C1691 0.930 . S
C1696 N1697 1.314 . S
C1696 C1698 1.353 . S
C1696 H1702 0.930 . S
N1697 Li1673 1.990 . S
N1697 C1696 1.314 . S
N1697 C1700 1.279 . S
C1698 C1696 1.353 . S
C1698 C1701 1.348 . S
C1698 H1746 0.929 . S
C1699 C1700 1.358 . S
C1699 C1701 1.356 . S
C1699 H1747 0.930 . S
C1700 N1697 1.279 . S
C1700 C1699 1.358 . S
C1700 H1703 0.930 . S
C1701 C1698 1.348 . S
C1701 C1699 1.356 . S
H1702 C1696 0.930 . S
H1703 C1700 0.930 . S
C1704 C1706 1.348 1_545 S
C1704 C1707 1.356 . S
C1704 O1734 1.325 . S
N1705 C1708 1.314 . S
N1705 C1709 1.279 . S
C1706 C1704 1.348 1_565 S
C1706 C1708 1.353 . S
C1706 H1748 0.929 . S
C1707 C1704 1.356 . S
C1707 C1709 1.358 1_545 S
C1707 H1749 0.930 . S
C1708 N1705 1.314 . S
C1708 C1706 1.353 . S
C1708 H1750 0.930 . S
C1709 N1705 1.279 . S
C1709 C1707 1.358 1_565 S
C1709 H1751 0.930 . S
C1710 C1711 1.348 . S
C1710 C1712 1.356 . S
C1710 O1735 1.325 . S
C1711 C1710 1.348 . S
C1711 C1713 1.353 . S
C1711 H1752 0.929 . S
C1712 C1710 1.356 . S
C1712 C1714 1.358 . S
C1712 H1753 0.930 . S
C1713 C1711 1.353 . S
C1713 N1715 1.314 . S
C1713 H1754 0.930 . S
C1714 C1712 1.358 . S
C1714 N1715 1.279 . S
C1714 H1755 0.930 . S
N1715 C1713 1.314 . S
N1715 C1714 1.279 . S
C1716 C1718 1.353 . S
C1716 N1719 1.314 . S
C1716 H1722 0.930 . S
C1717 N1719 1.279 . S
C1717 C1720 1.358 . S
C1717 H1723 0.930 . S
C1718 C1716 1.353 . S
C1718 C1721 1.348 . S
C1718 H1756 0.929 . S
N1719 Li1674 1.990 . S
N1719 C1716 1.314 . S
N1719 C1717 1.279 . S
C1720 C1717 1.358 . S
C1720 C1721 1.356 . S
C1720 H1757 0.930 . S
C1721 C1718 1.348 . S
C1721 C1720 1.356 . S
H1722 C1716 0.930 . S
H1723 C1717 0.930 . S
C1724 N1725 1.314 . S
C1724 C1726 1.353 1_545 S
C1724 H1730 0.930 . S
N1725 Li1675 1.990 . S
N1725 C1724 1.314 . S
N1725 C1728 1.279 . S
C1726 C1724 1.353 1_565 S
C1726 C1729 1.348 . S
C1726 H1758 0.929 . S
C1727 C1728 1.358 1_565 S
C1727 C1729 1.356 . S
C1727 H1759 0.930 . S
C1728 N1725 1.279 . S
C1728 C1727 1.358 1_545 S
C1728 H1731 0.930 . S
C1729 C1726 1.348 . S
C1729 C1727 1.356 . S
H1730 C1724 0.930 . S
H1731 C1728 0.930 . S
O1732 Li1672 1.956 . S
O1732 Li1673 1.970 . S
O1732 Li1674 1.961 . S
O1732 C1676 1.325 . S
O1733 Li1672 1.970 . S
O1733 Li1673 1.956 . S
O1733 Li1675 1.961 . S
O1733 C1682 1.325 . S
O1734 Li1672 1.961 . S
O1734 Li1674 1.956 . S
O1734 Li1675 1.970 . S
O1734 C1704 1.325 . S
O1735 Li1673 1.961 . S
O1735 Li1674 1.970 . S
O1735 Li1675 1.956 . S
O1735 C1710 1.325 . S
H1736 C1678 0.929 . S
H1737 C1679 0.930 . S
H1738 C1680 0.930 . S
H1739 C1681 0.930 . S
H1740 C1683 0.930 . S
H1741 C1685 0.929 . S
H1742 C1686 0.930 . S
H1743 C1687 0.930 . S
H1744 C1690 0.930 . S
H1745 C1693 0.929 . S
H1746 C1698 0.929 . S
H1747 C1699 0.930 . S
H1748 C1706 0.929 . S
H1749 C1707 0.930 . S
H1750 C1708 0.930 . S
H1751 C1709 0.930 . S
H1752 C1711 0.929 . S
H1753 C1712 0.930 . S
H1754 C1713 0.930 . S
H1755 C1714 0.930 . S
H1756 C1718 0.929 . S
H1757 C1720 0.930 . S
H1758 C1726 0.929 . S
H1759 C1727 0.930 . S
Li1760 N1777 1.990 . S
Li1760 O1820 1.956 . S
Li1760 O1821 1.970 . S
Li1760 O1822 1.961 . S
Li1761 N1785 1.990 . S
Li1761 O1820 1.972 1_556 S
Li1761 O1821 1.942 1_556 S
Li1761 O1823 1.975 . S
Li1762 N1807 1.990 . S
Li1762 O1820 1.961 1_556 S
Li1762 O1822 1.956 1_556 S
Li1762 O1823 1.970 . S
Li1763 N1813 1.990 . S
Li1763 O1821 1.961 1_556 S
Li1763 O1822 1.970 1_556 S
Li1763 O1823 1.956 . S
C1764 C1766 1.348 . S
C1764 C1767 1.356 . S
C1764 O1820 1.325 . S
N1765 C1768 1.314 . S
N1765 C1769 1.279 . S
C1766 C1764 1.348 . S
C1766 C1768 1.353 . S
C1766 H1824 0.929 . S
C1767 C1764 1.356 . S
C1767 C1769 1.358 . S
C1767 H1825 0.942 . S
C1768 N1765 1.314 . S
C1768 C1766 1.353 . S
C1768 H1826 0.930 . S
C1769 N1765 1.279 . S
C1769 C1767 1.358 . S
C1769 H1827 0.930 . S
C1770 C1773 1.348 . S
C1770 C1774 1.356 . S
C1770 O1821 1.325 . S
C1771 N1772 1.279 . S
C1771 C1774 1.358 . S
C1771 H1828 0.930 . S
N1772 C1771 1.279 . S
N1772 C1775 1.314 . S
C1773 C1770 1.348 . S
C1773 C1775 1.353 . S
C1773 H1829 0.929 . S
C1774 C1770 1.356 . S
C1774 C1771 1.358 . S
C1774 H1830 0.930 . S
C1775 N1772 1.314 . S
C1775 C1773 1.353 . S
C1775 H1831 0.930 . S
C1776 N1777 1.314 . S
C1776 C1781 1.353 . S
C1776 H1782 0.930 . S
N1777 Li1760 1.990 . S
N1777 C1776 1.314 . S
N1777 C1779 1.279 . S
C1778 C1779 1.358 . S
C1778 C1780 1.356 . S
C1778 H1832 0.930 . S
C1779 N1777 1.279 . S
C1779 C1778 1.358 . S
C1779 H1783 0.930 . S
C1780 C1778 1.356 . S
C1780 C1781 1.348 . S
C1781 C1776 1.353 . S
C1781 C1780 1.348 . S
C1781 H1833 0.929 . S
H1782 C1776 0.930 . S
H1783 C1779 0.930 . S
C1784 N1785 1.314 . S
C1784 C1786 1.353 . S
C1784 H1790 0.930 . S
N1785 Li1761 1.990 . S
N1785 C1784 1.314 . S
N1785 C1788 1.279 1_556 S
C1786 C1784 1.353 . S
C1786 C1789 1.348 . S
C1786 H1834 0.929 . S
C1787 C1788 1.358 . S
C1787 C1789 1.356 1_554 S
C1787 H1835 0.930 . S
C1788 N1785 1.279 1_554 S
C1788 C1787 1.358 . S
C1788 H1791 0.930 . S
C1789 C1786 1.348 . S
C1789 C1787 1.356 1_556 S
H1790 C1784 0.930 . S
H1791 C1788 0.930 . S
C1792 C1794 1.348 1_554 S
C1792 C1795 1.356 . S
C1792 O1822 1.325 . S
N1793 C1796 1.314 1_554 S
N1793 C1797 1.279 . S
C1794 C1792 1.348 1_556 S
C1794 C1796 1.353 . S
C1794 H1836 0.929 . S
C1795 C1792 1.356 . S
C1795 C1797 1.358 . S
C1795 H1837 0.930 . S
C1796 N1793 1.314 1_556 S
C1796 C1794 1.353 . S
C1796 H1838 0.930 . S
C1797 N1793 1.279 . S
C1797 C1795 1.358 . S
C1797 H1839 0.930 . S
C1798 C1799 1.348 . S
C1798 C1800 1.356 . S
C1798 O1823 1.325 . S
C1799 C1798 1.348 . S
C1799 C1801 1.353 . S
C1799 H1840 0.929 . S
C1800 C1798 1.356 . S
C1800 C1802 1.358 . S
C1800 H1841 0.930 . S
C1801 C1799 1.353 . S
C1801 N1803 1.314 . S
C1801 H1842 0.930 . S
C1802 C1800 1.358 . S
C1802 N1803 1.279 . S
C1802 H1843 0.930 . S
N1803 C1801 1.314 . S
N1803 C1802 1.279 . S
C1804 C1806 1.353 . S
C1804 N1807 1.314 . S
C1804 H1810 0.930 . S
C1805 N1807 1.279 . S
C1805 C1808 1.358 . S
C1805 H1811 0.930 . S
C1806 C1804 1.353 . S
C1806 C1809 1.348 . S
C1806 H1844 0.929 . S
N1807 Li1762 1.990 . S
N1807 C1804 1.314 . S
N1807 C1805 1.279 . S
C1808 C1805 1.358 . S
C1808 C1809 1.356 . S
C1808 H1845 0.930 . S
C1809 C1806 1.348 . S
C1809 C1808 1.356 . S
H1810 C1804 0.930 . S
H1811 C1805 0.930 . S
C1812 N1813 1.314 1_554 S
C1812 C1814 1.353 . S
C1812 H1818 0.930 . S
N1813 Li1763 1.990 . S
N1813 C1812 1.314 1_556 S
N1813 C1816 1.279 . S
C1814 C1812 1.353 . S
C1814 C1817 1.348 1_554 S
C1814 H1846 0.929 . S
C1815 C1816 1.358 . S
C1815 C1817 1.356 . S
C1815 H1847 0.930 . S
C1816 N1813 1.279 . S
C1816 C1815 1.358 . S
C1816 H1819 0.930 . S
C1817 C1814 1.348 1_556 S
C1817 C1815 1.356 . S
H1818 C1812 0.930 . S
H1819 C1816 0.930 . S
O1820 Li1760 1.956 . S
O1820 Li1761 1.972 1_554 S
O1820 Li1762 1.961 1_554 S
O1820 C1764 1.325 . S
O1821 Li1760 1.970 . S
O1821 Li1761 1.942 1_554 S
O1821 Li1763 1.961 1_554 S
O1821 C1770 1.325 . S
O1822 Li1760 1.961 . S
O1822 Li1762 1.956 1_554 S
O1822 Li1763 1.970 1_554 S
O1822 C1792 1.325 . S
O1823 Li1761 1.975 . S
O1823 Li1762 1.970 . S
O1823 Li1763 1.956 . S
O1823 C1798 1.325 . S
H1824 C1766 0.929 . S
H1825 C1767 0.942 . S
H1826 C1768 0.930 . S
H1827 C1769 0.930 . S
H1828 C1771 0.930 . S
H1829 C1773 0.929 . S
H1830 C1774 0.930 . S
H1831 C1775 0.930 . S
H1832 C1778 0.930 . S
H1833 C1781 0.929 . S
H1834 C1786 0.929 . S
H1835 C1787 0.930 . S
H1836 C1794 0.929 . S
H1837 C1795 0.930 . S
H1838 C1796 0.930 . S
H1839 C1797 0.930 . S
H1840 C1799 0.929 . S
H1841 C1800 0.930 . S
H1842 C1801 0.930 . S
H1843 C1802 0.930 . S
H1844 C1806 0.929 . S
H1845 C1808 0.930 . S
H1846 C1814 0.929 . S
H1847 C1815 0.930 . S
Li1848 N1865 1.990 . S
Li1848 O1908 1.956 . S
Li1848 O1909 1.970 . S
Li1848 O1910 1.961 . S
Li1849 N1873 1.990 . S
Li1849 O1908 1.970 . S
Li1849 O1909 1.956 . S
Li1849 O1911 1.961 . S
Li1850 N1895 1.990 . S
Li1850 O1908 1.961 . S
Li1850 O1910 1.956 . S
Li1850 O1911 1.970 . S
Li1851 N1901 1.990 . S
Li1851 O1909 1.961 . S
Li1851 O1910 1.970 . S
Li1851 O1911 1.956 . S
C1852 C1854 1.348 . S
C1852 C1855 1.356 . S
C1852 O1908 1.325 . S
N1853 C1856 1.314 . S
N1853 C1857 1.279 . S
C1854 C1852 1.348 . S
C1854 C1856 1.353 . S
C1854 H1912 0.929 . S
C1855 C1852 1.356 . S
C1855 C1857 1.358 . S
C1855 H1913 0.930 . S
C1856 N1853 1.314 . S
C1856 C1854 1.353 . S
C1856 H1914 0.930 . S
C1857 N1853 1.279 . S
C1857 C1855 1.358 . S
C1857 H1915 0.930 . S
C1858 C1861 1.348 . S
C1858 C1862 1.356 . S
C1858 O1909 1.325 . S
C1859 N1860 1.279 . S
C1859 C1862 1.358 . S
C1859 H1916 0.930 . S
N1860 C1859 1.279 . S
N1860 C1863 1.314 . S
C1861 C1858 1.348 . S
C1861 C1863 1.353 . S
C1861 H1917 0.929 . S
C1862 C1858 1.356 . S
C1862 C1859 1.358 . S
C1862 H1918 0.930 . S
C1863 N1860 1.314 . S
C1863 C1861 1.353 . S
C1863 H1919 0.930 . S
C1864 N1865 1.314 . S
C1864 C1869 1.353 . S
C1864 H1870 0.930 . S
N1865 Li1848 1.990 . S
N1865 C1864 1.314 . S
N1865 C1867 1.279 . S
C1866 C1867 1.358 . S
C1866 C1868 1.356 . S
C1866 H1920 0.930 . S
C1867 N1865 1.279 . S
C1867 C1866 1.358 . S
C1867 H1871 0.930 . S
C1868 C1866 1.356 . S
C1868 C1869 1.348 . S
C1869 C1864 1.353 . S
C1869 C1868 1.348 . S
C1869 H1921 0.929 . S
H1870 C1864 0.930 . S
H1871 C1867 0.930 . S
C1872 N1873 1.314 . S
C1872 C1874 1.353 . S
C1872 H1878 0.930 . S
N1873 Li1849 1.990 . S
N1873 C1872 1.314 . S
N1873 C1876 1.279 . S
C1874 C1872 1.353 . S
C1874 C1877 1.348 . S
C1874 H1922 0.929 . S
C1875 C1876 1.358 . S
C1875 C1877 1.356 . S
C1875 H1923 0.930 . S
C1876 N1873 1.279 . S
C1876 C1875 1.358 . S
C1876 H1879 0.930 . S
C1877 C1874 1.348 . S
C1877 C1875 1.356 . S
H1878 C1872 0.930 . S
H1879 C1876 0.930 . S
C1880 C1882 1.348 . S
C1880 C1883 1.356 . S
C1880 O1910 1.325 . S
N1881 C1884 1.314 . S
N1881 C1885 1.279 . S
C1882 C1880 1.348 . S
C1882 C1884 1.353 . S
C1882 H1924 0.929 . S
C1883 C1880 1.356 . S
C1883 C1885 1.358 . S
C1883 H1925 0.930 . S
C1884 N1881 1.314 . S
C1884 C1882 1.353 . S
C1884 H1926 0.930 . S
C1885 N1881 1.279 . S
C1885 C1883 1.358 . S
C1885 H1927 0.930 . S
C1886 C1887 1.348 . S
C1886 C1888 1.356 . S
C1886 O1911 1.325 . S
C1887 C1886 1.348 . S
C1887 C1889 1.353 . S
C1887 H1928 0.929 . S
C1888 C1886 1.356 . S
C1888 C1890 1.358 . S
C1888 H1929 0.930 . S
C1889 C1887 1.353 . S
C1889 N1891 1.314 . S
C1889 H1930 0.930 . S
C1890 C1888 1.358 . S
C1890 N1891 1.279 . S
C1890 H1931 0.930 . S
N1891 C1889 1.314 . S
N1891 C1890 1.279 . S
C1892 C1894 1.353 . S
C1892 N1895 1.314 . S
C1892 H1898 0.930 . S
C1893 N1895 1.279 . S
C1893 C1896 1.358 . S
C1893 H1899 0.930 . S
C1894 C1892 1.353 . S
C1894 C1897 1.348 . S
C1894 H1932 0.929 . S
N1895 Li1850 1.990 . S
N1895 C1892 1.314 . S
N1895 C1893 1.279 . S
C1896 C1893 1.358 . S
C1896 C1897 1.356 . S
C1896 H1933 0.930 . S
C1897 C1894 1.348 . S
C1897 C1896 1.356 . S
H1898 C1892 0.930 . S
H1899 C1893 0.930 . S
C1900 N1901 1.314 . S
C1900 C1902 1.353 . S
C1900 H1906 0.930 . S
N1901 Li1851 1.990 . S
N1901 C1900 1.314 . S
N1901 C1904 1.279 . S
C1902 C1900 1.353 . S
C1902 C1905 1.348 . S
C1902 H1934 0.929 . S
C1903 C1904 1.358 . S
C1903 C1905 1.356 . S
C1903 H1935 0.930 . S
C1904 N1901 1.279 . S
C1904 C1903 1.358 . S
C1904 H1907 0.930 . S
C1905 C1902 1.348 . S
C1905 C1903 1.356 . S
H1906 C1900 0.930 . S
H1907 C1904 0.930 . S
O1908 Li1848 1.956 . S
O1908 Li1849 1.970 . S
O1908 Li1850 1.961 . S
O1908 C1852 1.325 . S
O1909 Li1848 1.970 . S
O1909 Li1849 1.956 . S
O1909 Li1851 1.961 . S
O1909 C1858 1.325 . S
O1910 Li1848 1.961 . S
O1910 Li1850 1.956 . S
O1910 Li1851 1.970 . S
O1910 C1880 1.325 . S
O1911 Li1849 1.961 . S
O1911 Li1850 1.970 . S
O1911 Li1851 1.956 . S
O1911 C1886 1.325 . S
H1912 C1854 0.929 . S
H1913 C1855 0.930 . S
H1914 C1856 0.930 . S
H1915 C1857 0.930 . S
H1916 C1859 0.930 . S
H1917 C1861 0.929 . S
H1918 C1862 0.930 . S
H1919 C1863 0.930 . S
H1920 C1866 0.930 . S
H1921 C1869 0.929 . S
H1922 C1874 0.929 . S
H1923 C1875 0.930 . S
H1924 C1882 0.929 . S
H1925 C1883 0.930 . S
H1926 C1884 0.930 . S
H1927 C1885 0.930 . S
H1928 C1887 0.929 . S
H1929 C1888 0.930 . S
H1930 C1889 0.930 . S
H1931 C1890 0.930 . S
H1932 C1894 0.929 . S
H1933 C1896 0.930 . S
H1934 C1902 0.929 . S
H1935 C1903 0.930 . S
Li1936 N1953 1.990 . S
Li1936 O1996 1.956 . S
Li1936 O1997 1.970 . S
Li1936 O1998 1.961 . S
Li1937 N1961 1.990 . S
Li1937 O1996 1.970 . S
Li1937 O1997 1.956 . S
Li1937 O1999 1.961 . S
Li1938 N1983 1.990 . S
Li1938 O1996 1.961 . S
Li1938 O1998 1.956 . S
Li1938 O1999 1.970 . S
Li1939 N1989 1.990 . S
Li1939 O1997 1.961 . S
Li1939 O1998 1.970 . S
Li1939 O1999 1.956 . S
C1940 C1942 1.348 . S
C1940 C1943 1.356 . S
C1940 O1996 1.325 . S
N1941 C1944 1.314 . S
N1941 C1945 1.279 . S
C1942 C1940 1.348 . S
C1942 C1944 1.353 . S
C1942 H2000 0.929 . S
C1943 C1940 1.356 . S
C1943 C1945 1.358 . S
C1943 H2001 0.930 . S
C1944 N1941 1.314 . S
C1944 C1942 1.353 . S
C1944 H2002 0.930 . S
C1945 N1941 1.279 . S
C1945 C1943 1.358 . S
C1945 H2003 0.930 . S
C1946 C1949 1.348 . S
C1946 C1950 1.356 . S
C1946 O1997 1.325 . S
C1947 N1948 1.279 . S
C1947 C1950 1.358 . S
C1947 H2004 0.930 . S
N1948 C1947 1.279 . S
N1948 C1951 1.314 . S
C1949 C1946 1.348 . S
C1949 C1951 1.353 . S
C1949 H2005 0.929 . S
C1950 C1946 1.356 . S
C1950 C1947 1.358 . S
C1950 H2006 0.930 . S
C1951 N1948 1.314 . S
C1951 C1949 1.353 . S
C1951 H2007 0.930 . S
C1952 N1953 1.314 . S
C1952 C1957 1.353 . S
C1952 H1958 0.930 . S
N1953 Li1936 1.990 . S
N1953 C1952 1.314 . S
N1953 C1955 1.279 . S
C1954 C1955 1.358 . S
C1954 C1956 1.356 . S
C1954 H2008 0.930 . S
C1955 N1953 1.279 . S
C1955 C1954 1.358 . S
C1955 H1959 0.930 . S
C1956 C1954 1.356 . S
C1956 C1957 1.348 . S
C1957 C1952 1.353 . S
C1957 C1956 1.348 . S
C1957 H2009 0.929 . S
H1958 C1952 0.930 . S
H1959 C1955 0.930 . S
C1960 N1961 1.314 . S
C1960 C1962 1.353 . S
C1960 H1966 0.930 . S
N1961 Li1937 1.990 . S
N1961 C1960 1.314 . S
N1961 C1964 1.279 . S
C1962 C1960 1.353 . S
C1962 C1965 1.348 . S
C1962 H2010 0.929 . S
C1963 C1964 1.358 . S
C1963 C1965 1.356 . S
C1963 H2011 0.930 . S
C1964 N1961 1.279 . S
C1964 C1963 1.358 . S
C1964 H1967 0.930 . S
C1965 C1962 1.348 . S
C1965 C1963 1.356 . S
H1966 C1960 0.930 . S
H1967 C1964 0.930 . S
C1968 C1970 1.348 . S
C1968 C1971 1.356 . S
C1968 O1998 1.325 . S
N1969 C1972 1.314 . S
N1969 C1973 1.279 . S
C1970 C1968 1.348 . S
C1970 C1972 1.353 . S
C1970 H2012 0.929 . S
C1971 C1968 1.356 . S
C1971 C1973 1.358 . S
C1971 H2013 0.930 . S
C1972 N1969 1.314 . S
C1972 C1970 1.353 . S
C1972 H2014 0.930 . S
C1973 N1969 1.279 . S
C1973 C1971 1.358 . S
C1973 H2015 0.930 . S
C1974 C1975 1.348 . S
C1974 C1976 1.356 . S
C1974 O1999 1.325 . S
C1975 C1974 1.348 . S
C1975 C1977 1.353 . S
C1975 H2016 0.929 . S
C1976 C1974 1.356 . S
C1976 C1978 1.358 . S
C1976 H2017 0.930 . S
C1977 C1975 1.353 . S
C1977 N1979 1.314 . S
C1977 H2018 0.930 . S
C1978 C1976 1.358 . S
C1978 N1979 1.279 . S
C1978 H2019 0.930 . S
N1979 C1977 1.314 . S
N1979 C1978 1.279 . S
C1980 C1982 1.353 . S
C1980 N1983 1.314 . S
C1980 H1986 0.930 . S
C1981 N1983 1.279 . S
C1981 C1984 1.358 . S
C1981 H1987 0.930 . S
C1982 C1980 1.353 . S
C1982 C1985 1.348 . S
C1982 H2020 0.929 . S
N1983 Li1938 1.990 . S
N1983 C1980 1.314 . S
N1983 C1981 1.279 . S
C1984 C1981 1.358 . S
C1984 C1985 1.356 . S
C1984 H2021 0.930 . S
C1985 C1982 1.348 . S
C1985 C1984 1.356 . S
H1986 C1980 0.930 . S
H1987 C1981 0.930 . S
C1988 N1989 1.314 . S
C1988 C1990 1.353 . S
C1988 H1994 0.930 . S
N1989 Li1939 1.990 . S
N1989 C1988 1.314 . S
N1989 C1992 1.279 . S
C1990 C1988 1.353 . S
C1990 C1993 1.348 . S
C1990 H2022 0.929 . S
C1991 C1992 1.358 . S
C1991 C1993 1.356 . S
C1991 H2023 0.930 . S
C1992 N1989 1.279 . S
C1992 C1991 1.358 . S
C1992 H1995 0.930 . S
C1993 C1990 1.348 . S
C1993 C1991 1.356 . S
H1994 C1988 0.930 . S
H1995 C1992 0.930 . S
O1996 Li1936 1.956 . S
O1996 Li1937 1.970 . S
O1996 Li1938 1.961 . S
O1996 C1940 1.325 . S
O1997 Li1936 1.970 . S
O1997 Li1937 1.956 . S
O1997 Li1939 1.961 . S
O1997 C1946 1.325 . S
O1998 Li1936 1.961 . S
O1998 Li1938 1.956 . S
O1998 Li1939 1.970 . S
O1998 C1968 1.325 . S
O1999 Li1937 1.961 . S
O1999 Li1938 1.970 . S
O1999 Li1939 1.956 . S
O1999 C1974 1.325 . S
H2000 C1942 0.929 . S
H2001 C1943 0.930 . S
H2002 C1944 0.930 . S
H2003 C1945 0.930 . S
H2004 C1947 0.930 . S
H2005 C1949 0.929 . S
H2006 C1950 0.930 . S
H2007 C1951 0.930 . S
H2008 C1954 0.930 . S
H2009 C1957 0.929 . S
H2010 C1962 0.929 . S
H2011 C1963 0.930 . S
H2012 C1970 0.929 . S
H2013 C1971 0.930 . S
H2014 C1972 0.930 . S
H2015 C1973 0.930 . S
H2016 C1975 0.929 . S
H2017 C1976 0.930 . S
H2018 C1977 0.930 . S
H2019 C1978 0.930 . S
H2020 C1982 0.929 . S
H2021 C1984 0.930 . S
H2022 C1990 0.929 . S
H2023 C1991 0.930 . S
Li2024 N2041 1.990 . S
Li2024 O2084 1.956 . S
Li2024 O2085 1.970 . S
Li2024 O2086 1.961 . S
Li2025 N2049 1.990 . S
Li2025 O2084 1.970 . S
Li2025 O2085 1.956 . S
Li2025 O2087 1.961 . S
Li2026 N2071 1.990 . S
Li2026 O2084 1.961 . S
Li2026 O2086 1.956 . S
Li2026 O2087 1.970 . S
Li2027 N2077 1.990 . S
Li2027 O2085 1.961 . S
Li2027 O2086 1.970 . S
Li2027 O2087 1.956 . S
C2028 C2030 1.348 . S
C2028 C2031 1.356 . S
C2028 O2084 1.325 . S
N2029 C2032 1.314 . S
N2029 C2033 1.279 . S
C2030 C2028 1.348 . S
C2030 C2032 1.353 . S
C2030 H2088 0.929 . S
C2031 C2028 1.356 . S
C2031 C2033 1.358 . S
C2031 H2089 0.930 . S
C2032 N2029 1.314 . S
C2032 C2030 1.353 . S
C2032 H2090 0.930 . S
C2033 N2029 1.279 . S
C2033 C2031 1.358 . S
C2033 H2091 0.930 . S
C2034 C2037 1.348 . S
C2034 C2038 1.356 . S
C2034 O2085 1.325 . S
C2035 N2036 1.279 . S
C2035 C2038 1.358 . S
C2035 H2092 0.930 . S
N2036 C2035 1.279 . S
N2036 C2039 1.314 . S
C2037 C2034 1.348 . S
C2037 C2039 1.353 . S
C2037 H2093 0.929 . S
C2038 C2034 1.356 . S
C2038 C2035 1.358 . S
C2038 H2094 0.930 . S
C2039 N2036 1.314 . S
C2039 C2037 1.353 . S
C2039 H2095 0.930 . S
C2040 N2041 1.314 . S
C2040 C2045 1.353 . S
C2040 H2046 0.930 . S
N2041 Li2024 1.990 . S
N2041 C2040 1.314 . S
N2041 C2043 1.279 . S
C2042 C2043 1.358 . S
C2042 C2044 1.356 . S
C2042 H2096 0.930 . S
C2043 N2041 1.279 . S
C2043 C2042 1.358 . S
C2043 H2047 0.930 . S
C2044 C2042 1.356 . S
C2044 C2045 1.348 . S
C2045 C2040 1.353 . S
C2045 C2044 1.348 . S
C2045 H2097 0.929 . S
H2046 C2040 0.930 . S
H2047 C2043 0.930 . S
C2048 N2049 1.314 . S
C2048 C2050 1.353 . S
C2048 H2054 0.930 . S
N2049 Li2025 1.990 . S
N2049 C2048 1.314 . S
N2049 C2052 1.279 . S
C2050 C2048 1.353 . S
C2050 C2053 1.348 . S
C2050 H2098 0.929 . S
C2051 C2052 1.358 . S
C2051 C2053 1.356 . S
C2051 H2099 0.930 . S
C2052 N2049 1.279 . S
C2052 C2051 1.358 . S
C2052 H2055 0.930 . S
C2053 C2050 1.348 . S
C2053 C2051 1.356 . S
H2054 C2048 0.930 . S
H2055 C2052 0.930 . S
C2056 C2058 1.348 . S
C2056 C2059 1.356 . S
C2056 O2086 1.325 . S
N2057 C2060 1.314 . S
N2057 C2061 1.279 . S
C2058 C2056 1.348 . S
C2058 C2060 1.353 . S
C2058 H2100 0.929 . S
C2059 C2056 1.356 . S
C2059 C2061 1.358 . S
C2059 H2101 0.930 . S
C2060 N2057 1.314 . S
C2060 C2058 1.353 . S
C2060 H2102 0.930 . S
C2061 N2057 1.279 . S
C2061 C2059 1.358 . S
C2061 H2103 0.930 . S
C2062 C2063 1.348 . S
C2062 C2064 1.356 . S
C2062 O2087 1.325 . S
C2063 C2062 1.348 . S
C2063 C2065 1.353 . S
C2063 H2104 0.929 . S
C2064 C2062 1.356 . S
C2064 C2066 1.358 . S
C2064 H2105 0.930 . S
C2065 C2063 1.353 . S
C2065 N2067 1.314 . S
C2065 H2106 0.930 . S
C2066 C2064 1.358 . S
C2066 N2067 1.279 . S
C2066 H2107 0.930 . S
N2067 C2065 1.314 . S
N2067 C2066 1.279 . S
C2068 C2070 1.353 . S
C2068 N2071 1.314 . S
C2068 H2074 0.930 . S
C2069 N2071 1.279 . S
C2069 C2072 1.358 . S
C2069 H2075 0.930 . S
C2070 C2068 1.353 . S
C2070 C2073 1.348 . S
C2070 H2108 0.929 . S
N2071 Li2026 1.990 . S
N2071 C2068 1.314 . S
N2071 C2069 1.279 . S
C2072 C2069 1.358 . S
C2072 C2073 1.356 . S
C2072 H2109 0.930 . S
C2073 C2070 1.348 . S
C2073 C2072 1.356 . S
H2074 C2068 0.930 . S
H2075 C2069 0.930 . S
C2076 N2077 1.314 . S
C2076 C2078 1.353 . S
C2076 H2082 0.930 . S
N2077 Li2027 1.990 . S
N2077 C2076 1.314 . S
N2077 C2080 1.279 . S
C2078 C2076 1.353 . S
C2078 C2081 1.348 . S
C2078 H2110 0.929 . S
C2079 C2080 1.358 . S
C2079 C2081 1.356 . S
C2079 H2111 0.930 . S
C2080 N2077 1.279 . S
C2080 C2079 1.358 . S
C2080 H2083 0.930 . S
C2081 C2078 1.348 . S
C2081 C2079 1.356 . S
H2082 C2076 0.930 . S
H2083 C2080 0.930 . S
O2084 Li2024 1.956 . S
O2084 Li2025 1.970 . S
O2084 Li2026 1.961 . S
O2084 C2028 1.325 . S
O2085 Li2024 1.970 . S
O2085 Li2025 1.956 . S
O2085 Li2027 1.961 . S
O2085 C2034 1.325 . S
O2086 Li2024 1.961 . S
O2086 Li2026 1.956 . S
O2086 Li2027 1.970 . S
O2086 C2056 1.325 . S
O2087 Li2025 1.961 . S
O2087 Li2026 1.970 . S
O2087 Li2027 1.956 . S
O2087 C2062 1.325 . S
H2088 C2030 0.929 . S
H2089 C2031 0.930 . S
H2090 C2032 0.930 . S
H2091 C2033 0.930 . S
H2092 C2035 0.930 . S
H2093 C2037 0.929 . S
H2094 C2038 0.930 . S
H2095 C2039 0.930 . S
H2096 C2042 0.930 . S
H2097 C2045 0.929 . S
H2098 C2050 0.929 . S
H2099 C2051 0.930 . S
H2100 C2058 0.929 . S
H2101 C2059 0.930 . S
H2102 C2060 0.930 . S
H2103 C2061 0.930 . S
H2104 C2063 0.929 . S
H2105 C2064 0.930 . S
H2106 C2065 0.930 . S
H2107 C2066 0.930 . S
H2108 C2070 0.929 . S
H2109 C2072 0.930 . S
H2110 C2078 0.929 . S
H2111 C2079 0.930 . S
Tb2112 N2143 2.660 . S
Tb2112 N2150 2.600 1_554 S
Tb2112 O2156 2.551 1_554 S
Tb2112 O2157 2.610 . S
Tb2112 O2159 2.320 . S
Tb2112 O2160 2.552 . S
Tb2112 O2161 2.413 1_455 S
Tb2112 O2163 2.362 . S
Tb2112 O2164 2.421 1_554 S
Tb2112 C2176 2.816 1_454 S
C2113 C2116 1.432 . S
C2113 C2117 1.414 . S
C2113 N2120 1.359 . S
C2114 C2116 1.417 . S
C2114 C2118 1.432 . S
C2114 C2126 1.410 . S
C2115 C2117 1.444 . S
C2115 C2118 1.317 . S
C2115 H2138 0.929 . S
C2116 C2113 1.432 . S
C2116 C2114 1.417 . S
C2116 N2124 1.360 . S
C2117 C2113 1.414 . S
C2117 C2115 1.444 . S
C2117 C2122 1.385 . S
C2118 C2114 1.432 . S
C2118 C2115 1.317 . S
C2118 H2130 0.930 . S
C2119 C2121 1.392 . S
C2119 C2122 1.370 . S
C2119 H2131 0.931 . S
N2120 C2113 1.359 . S
N2120 C2121 1.327 . S
N2120 Tb2123 2.600 . S
C2121 C2119 1.392 . S
C2121 N2120 1.327 . S
C2121 H2128 0.930 . S
C2122 C2117 1.385 . S
C2122 C2119 1.370 . S
C2122 H2141 0.930 . S
Tb2123 N2120 2.600 . S
Tb2123 N2124 2.660 . S
Tb2123 O2157 2.362 . S
Tb2123 O2158 2.421 . S
Tb2123 O2162 2.546 . S
Tb2123 O2163 2.610 . S
Tb2123 O2165 2.333 . S
Tb2123 O2166 2.552 . S
Tb2123 O2167 2.413 . S
Tb2123 C2187 2.833 . S
N2124 C2116 1.360 . S
N2124 Tb2123 2.660 . S
N2124 C2125 1.320 . S
C2125 N2124 1.320 . S
C2125 C2127 1.399 1_554 S
C2125 H2132 0.924 1_554 S
C2126 C2114 1.410 . S
C2126 C2127 1.345 1_554 S
C2126 H2134 0.891 1_554 S
C2127 C2125 1.399 1_556 S
C2127 C2126 1.345 1_556 S
C2127 H2129 0.930 . S
H2128 C2121 0.930 . S
H2129 C2127 0.930 . S
H2130 C2118 0.930 . S
H2131 C2119 0.931 . S
H2132 C2125 0.924 1_556 S
H2133 C2147 0.930 . S
H2134 C2126 0.891 1_556 S
H2135 C2153 0.990 . S
H2136 C2144 0.930 . S
H2137 C2151 0.931 . S
H2138 C2115 0.929 . S
H2139 C2145 0.930 . S
H2140 C2178 0.930 . S
H2141 C2122 0.930 . S
H2142 C2177 0.929 . S
N2143 Tb2112 2.660 . S
N2143 C2144 1.305 . S
N2143 C2148 1.360 1_545 S
C2144 H2136 0.930 . S
C2144 N2143 1.305 . S
C2144 C2147 1.407 1_545 S
C2145 H2139 0.930 . S
C2145 C2146 1.410 . S
C2145 C2147 1.345 1_655 S
C2146 C2145 1.410 . S
C2146 C2148 1.417 1_655 S
C2146 C2178 1.432 . S
C2147 H2133 0.930 . S
C2147 C2144 1.407 1_565 S
C2147 C2145 1.345 1_455 S
C2148 N2143 1.360 1_565 S
C2148 C2146 1.417 1_455 S
C2148 C2152 1.432 1_554 S
H2149 C2154 0.930 . S
N2150 Tb2112 2.600 1_556 S
N2150 C2152 1.359 1_545 S
N2150 C2153 1.318 . S
C2151 H2137 0.931 . S
C2151 C2153 1.349 1_565 S
C2151 C2154 1.370 1_455 S
C2152 C2148 1.432 1_556 S
C2152 N2150 1.359 1_565 S
C2152 C2155 1.414 1_455 S
C2153 H2135 0.990 . S
C2153 N2150 1.318 . S
C2153 C2151 1.349 1_545 S
C2154 H2149 0.930 . S
C2154 C2151 1.370 1_655 S
C2154 C2155 1.385 . S
C2155 C2152 1.414 1_655 S
C2155 C2154 1.385 . S
C2155 C2177 1.444 . S
O2156 Tb2112 2.551 1_556 S
O2156 C2176 1.300 1_455 S
O2157 Tb2112 2.610 . S
O2157 Tb2123 2.362 . S
O2157 C2168 1.283 . S
O2158 Tb2123 2.421 . S
O2158 C2175 1.262 . S
O2159 Tb2112 2.320 . S
O2159 C2175 1.260 . S
O2160 Tb2112 2.552 . S
O2160 C2168 1.243 . S
O2161 Tb2112 2.413 1_655 S
O2161 C2176 1.190 1_554 S
O2162 Tb2123 2.546 . S
O2162 C2187 1.251 . S
O2163 Tb2112 2.362 . S
O2163 Tb2123 2.610 . S
O2163 C2179 1.283 . S
O2164 Tb2112 2.421 1_556 S
O2164 C2186 1.262 . S
O2165 Tb2123 2.333 . S
O2165 C2186 1.251 1_554 S
O2166 Tb2123 2.552 . S
O2166 C2179 1.243 . S
O2167 Tb2123 2.413 . S
O2167 C2187 1.256 . S
C2168 O2157 1.283 . S
C2168 O2160 1.243 . S
C2169 C2171 1.382 1_556 S
C2169 C2173 1.393 . S
C2169 C2176 1.514 . S
C2170 C2171 1.400 . S
C2170 C2172 1.384 1_554 S
C2171 C2169 1.382 1_554 S
C2171 C2170 1.400 . S
C2171 H2188 0.930 . S
C2172 C2170 1.384 1_556 S
C2172 C2174 1.392 . S
C2172 H2189 0.931 . S
C2173 C2169 1.393 . S
C2173 C2174 1.401 . S
C2173 H2190 0.930 . S
C2174 C2172 1.392 . S
C2174 C2173 1.401 . S
C2174 H2191 0.930 . S
C2175 O2158 1.262 . S
C2175 O2159 1.260 . S
C2176 Tb2112 2.816 1_656 S
C2176 O2156 1.300 1_655 S
C2176 O2161 1.190 1_556 S
C2176 C2169 1.514 . S
C2177 H2142 0.929 . S
C2177 C2155 1.444 . S
C2177 C2178 1.317 1_556 S
C2178 H2140 0.930 . S
C2178 C2146 1.432 . S
C2178 C2177 1.317 1_554 S
C2179 O2163 1.283 . S
C2179 O2166 1.243 . S
C2180 C2181 1.382 . S
C2180 C2184 1.393 . S
C2180 C2187 1.500 . S
C2181 C2180 1.382 . S
C2181 C2182 1.400 . S
C2181 H2192 0.930 . S
C2182 C2181 1.400 . S
C2182 C2183 1.384 . S
C2183 C2182 1.384 . S
C2183 C2185 1.392 . S
C2183 H2193 0.931 . S
C2184 C2180 1.393 . S
C2184 C2185 1.401 . S
C2184 H2194 0.930 . S
C2185 C2183 1.392 . S
C2185 C2184 1.401 . S
C2185 H2195 0.930 . S
C2186 O2164 1.262 . S
C2186 O2165 1.251 1_556 S
C2187 Tb2123 2.833 . S
C2187 O2162 1.251 . S
C2187 O2167 1.256 . S
C2187 C2180 1.500 . S
H2188 C2171 0.930 . S
H2189 C2172 0.931 . S
H2190 C2173 0.930 . S
H2191 C2174 0.930 . S
H2192 C2181 0.930 . S
H2193 C2183 0.931 . S
H2194 C2184 0.930 . S
H2195 C2185 0.930 . S
Tb2196 N2227 2.660 . S
Tb2196 N2234 2.600 . S
Tb2196 O2240 2.546 . S
Tb2196 O2241 2.610 . S
Tb2196 O2243 2.320 . S
Tb2196 O2244 2.552 . S
Tb2196 O2245 2.413 . S
Tb2196 O2247 2.362 . S
Tb2196 O2248 2.421 . S
Tb2196 C2260 2.833 . S
C2197 C2200 1.432 . S
C2197 C2201 1.414 . S
C2197 N2204 1.359 . S
C2198 C2200 1.417 . S
C2198 C2202 1.432 . S
C2198 C2210 1.410 . S
C2199 C2201 1.444 . S
C2199 C2202 1.317 . S
C2199 H2222 0.929 . S
C2200 C2197 1.432 . S
C2200 C2198 1.417 . S
C2200 N2208 1.360 . S
C2201 C2197 1.414 . S
C2201 C2199 1.444 . S
C2201 C2206 1.385 . S
C2202 C2198 1.432 . S
C2202 C2199 1.317 . S
C2202 H2214 0.930 . S
C2203 C2205 1.392 . S
C2203 C2206 1.370 . S
C2203 H2215 0.931 . S
N2204 C2197 1.359 . S
N2204 C2205 1.327 . S
N2204 Tb2207 2.600 . S
C2205 C2203 1.392 . S
C2205 N2204 1.327 . S
C2205 H2212 0.930 . S
C2206 C2201 1.385 . S
C2206 C2203 1.370 . S
C2206 H2225 0.930 . S
Tb2207 N2204 2.600 . S
Tb2207 N2208 2.660 . S
Tb2207 O2241 2.362 . S
Tb2207 O2242 2.421 . S
Tb2207 O2246 2.546 . S
Tb2207 O2247 2.610 . S
Tb2207 O2249 2.320 . S
Tb2207 O2250 2.552 . S
Tb2207 O2251 2.413 . S
Tb2207 C2271 2.833 . S
N2208 C2200 1.360 . S
N2208 Tb2207 2.660 . S
N2208 C2209 1.305 . S
C2209 N2208 1.305 . S
C2209 C2211 1.407 . S
C2209 H2216 0.930 . S
C2210 C2198 1.410 . S
C2210 C2211 1.345 . S
C2210 H2218 0.930 . S
C2211 C2209 1.407 . S
C2211 C2210 1.345 . S
C2211 H2213 0.930 . S
H2212 C2205 0.930 . S
H2213 C2211 0.930 . S
H2214 C2202 0.930 . S
H2215 C2203 0.931 . S
H2216 C2209 0.930 . S
H2217 C2231 0.930 . S
H2218 C2210 0.930 . S
H2219 C2237 0.930 . S
H2220 C2228 0.930 . S
H2221 C2235 0.931 . S
H2222 C2199 0.929 . S
H2223 C2229 0.930 . S
H2224 C2262 0.930 . S
H2225 C2206 0.930 . S
H2226 C2261 0.929 . S
N2227 Tb2196 2.660 . S
N2227 C2228 1.305 . S
N2227 C2232 1.360 . S
C2228 H2220 0.930 . S
C2228 N2227 1.305 . S
C2228 C2231 1.407 . S
C2229 H2223 0.930 . S
C2229 C2230 1.410 . S
C2229 C2231 1.345 . S
C2230 C2229 1.410 . S
C2230 C2232 1.417 . S
C2230 C2262 1.432 . S
C2231 H2217 0.930 . S
C2231 C2228 1.407 . S
C2231 C2229 1.345 . S
C2232 N2227 1.360 . S
C2232 C2230 1.417 . S
C2232 C2236 1.432 . S
H2233 C2238 0.930 . S
N2234 Tb2196 2.600 . S
N2234 C2236 1.359 . S
N2234 C2237 1.327 . S
C2235 H2221 0.931 . S
C2235 C2237 1.392 . S
C2235 C2238 1.370 . S
C2236 C2232 1.432 . S
C2236 N2234 1.359 . S
C2236 C2239 1.414 . S
C2237 H2219 0.930 . S
C2237 N2234 1.327 . S
C2237 C2235 1.392 . S
C2238 H2233 0.930 . S
C2238 C2235 1.370 . S
C2238 C2239 1.385 . S
C2239 C2236 1.414 . S
C2239 C2238 1.385 . S
C2239 C2261 1.444 . S
O2240 Tb2196 2.546 . S
O2240 C2260 1.251 . S
O2241 Tb2196 2.610 . S
O2241 Tb2207 2.362 . S
O2241 C2252 1.283 . S
O2242 Tb2207 2.421 . S
O2242 C2259 1.262 . S
O2243 Tb2196 2.320 . S
O2243 C2259 1.260 . S
O2244 Tb2196 2.552 . S
O2244 C2252 1.243 . S
O2245 Tb2196 2.413 . S
O2245 C2260 1.256 . S
O2246 Tb2207 2.546 . S
O2246 C2271 1.251 . S
O2247 Tb2196 2.362 . S
O2247 Tb2207 2.610 . S
O2247 C2263 1.283 . S
O2248 Tb2196 2.421 . S
O2248 C2270 1.262 . S
O2249 Tb2207 2.320 . S
O2249 C2270 1.260 . S
O2250 Tb2207 2.552 . S
O2250 C2263 1.243 . S
O2251 Tb2207 2.413 . S
O2251 C2271 1.256 . S
C2252 O2241 1.283 . S
C2252 O2244 1.243 . S
C2253 C2255 1.382 . S
C2253 C2257 1.393 . S
C2253 C2260 1.500 . S
C2254 C2255 1.400 . S
C2254 C2256 1.384 . S
C2255 C2253 1.382 . S
C2255 C2254 1.400 . S
C2255 H2272 0.930 . S
C2256 C2254 1.384 . S
C2256 C2258 1.392 . S
C2256 H2273 0.931 . S
C2257 C2253 1.393 . S
C2257 C2258 1.401 . S
C2257 H2274 0.930 . S
C2258 C2256 1.392 . S
C2258 C2257 1.401 . S
C2258 H2275 0.930 . S
C2259 O2242 1.262 . S
C2259 O2243 1.260 . S
C2260 Tb2196 2.833 . S
C2260 O2240 1.251 . S
C2260 O2245 1.256 . S
C2260 C2253 1.500 . S
C2261 H2226 0.929 . S
C2261 C2239 1.444 . S
C2261 C2262 1.317 . S
C2262 H2224 0.930 . S
C2262 C2230 1.432 . S
C2262 C2261 1.317 . S
C2263 O2247 1.283 . S
C2263 O2250 1.243 . S
C2264 C2265 1.382 . S
C2264 C2268 1.393 . S
C2264 C2271 1.500 . S
C2265 C2264 1.382 . S
C2265 C2266 1.400 . S
C2265 H2276 0.930 . S
C2266 C2265 1.400 . S
C2266 C2267 1.384 . S
C2267 C2266 1.384 . S
C2267 C2269 1.392 . S
C2267 H2277 0.931 . S
C2268 C2264 1.393 . S
C2268 C2269 1.401 . S
C2268 H2278 0.930 . S
C2269 C2267 1.392 . S
C2269 C2268 1.401 . S
C2269 H2279 0.930 . S
C2270 O2248 1.262 . S
C2270 O2249 1.260 . S
C2271 Tb2207 2.833 . S
C2271 O2246 1.251 . S
C2271 O2251 1.256 . S
C2271 C2264 1.500 . S
H2272 C2255 0.930 . S
H2273 C2256 0.931 . S
H2274 C2257 0.930 . S
H2275 C2258 0.930 . S
H2276 C2265 0.930 . S
H2277 C2267 0.931 . S
H2278 C2268 0.930 . S
H2279 C2269 0.930 . S
Tb2280 N2311 2.660 . S
Tb2280 N2318 2.600 . S
Tb2280 O2324 2.546 . S
Tb2280 O2325 2.610 . S
Tb2280 O2327 2.320 . S
Tb2280 O2328 2.552 . S
Tb2280 O2329 2.413 . S
Tb2280 O2331 2.362 . S
Tb2280 O2332 2.421 . S
Tb2280 C2344 2.833 . S
C2281 C2284 1.432 1_545 S
C2281 C2285 1.414 1_545 S
C2281 N2288 1.359 . S
C2282 C2284 1.417 . S
C2282 C2286 1.432 . S
C2282 C2294 1.410 . S
C2283 C2285 1.444 . S
C2283 C2286 1.317 . S
C2283 H2306 0.929 . S
C2284 C2281 1.432 1_565 S
C2284 C2282 1.417 . S
C2284 N2292 1.360 1_565 S
C2285 C2281 1.414 1_565 S
C2285 C2283 1.444 . S
C2285 C2290 1.385 . S
C2286 C2282 1.432 . S
C2286 C2283 1.317 . S
C2286 H2298 0.930 . S
C2287 C2289 1.392 . S
C2287 C2290 1.370 1_545 S
C2287 H2299 0.931 . S
N2288 C2281 1.359 . S
N2288 C2289 1.327 . S
N2288 Tb2291 2.600 . S
C2289 C2287 1.392 . S
C2289 N2288 1.327 . S
C2289 H2296 0.930 . S
C2290 C2285 1.385 . S
C2290 C2287 1.370 1_565 S
C2290 H2309 0.930 . S
Tb2291 N2288 2.600 . S
Tb2291 N2292 2.660 . S
Tb2291 O2325 2.362 . S
Tb2291 O2326 2.421 . S
Tb2291 O2330 2.546 . S
Tb2291 O2331 2.610 . S
Tb2291 O2333 2.320 . S
Tb2291 O2334 2.552 . S
Tb2291 O2335 2.413 . S
Tb2291 C2355 2.833 . S
N2292 C2284 1.360 1_545 S
N2292 Tb2291 2.660 . S
N2292 C2293 1.305 . S
C2293 N2292 1.305 . S
C2293 C2295 1.407 1_545 S
C2293 H2300 0.930 . S
C2294 C2282 1.410 . S
C2294 C2295 1.345 . S
C2294 H2302 0.930 . S
C2295 C2293 1.407 1_565 S
C2295 C2294 1.345 . S
C2295 H2297 0.930 . S
H2296 C2289 0.930 . S
H2297 C2295 0.930 . S
H2298 C2286 0.930 . S
H2299 C2287 0.931 . S
H2300 C2293 0.930 . S
H2301 C2315 0.930 . S
H2302 C2294 0.930 . S
H2303 C2321 0.930 . S
H2304 C2312 0.930 . S
H2305 C2319 0.931 . S
H2306 C2283 0.929 . S
H2307 C2313 0.930 . S
H2308 C2346 0.930 . S
H2309 C2290 0.930 . S
H2310 C2345 0.929 . S
N2311 Tb2280 2.660 . S
N2311 C2312 1.305 . S
N2311 C2316 1.360 . S
C2312 H2304 0.930 . S
C2312 N2311 1.305 . S
C2312 C2315 1.407 . S
C2313 H2307 0.930 . S
C2313 C2314 1.410 . S
C2313 C2315 1.345 . S
C2314 C2313 1.410 . S
C2314 C2316 1.417 . S
C2314 C2346 1.432 . S
C2315 H2301 0.930 . S
C2315 C2312 1.407 . S
C2315 C2313 1.345 . S
C2316 N2311 1.360 . S
C2316 C2314 1.417 . S
C2316 C2320 1.432 . S
H2317 C2322 0.930 . S
N2318 Tb2280 2.600 . S
N2318 C2320 1.359 . S
N2318 C2321 1.327 . S
C2319 H2305 0.931 . S
C2319 C2321 1.392 . S
C2319 C2322 1.370 . S
C2320 C2316 1.432 . S
C2320 N2318 1.359 . S
C2320 C2323 1.414 . S
C2321 H2303 0.930 . S
C2321 N2318 1.327 . S
C2321 C2319 1.392 . S
C2322 H2317 0.930 . S
C2322 C2319 1.370 . S
C2322 C2323 1.385 . S
C2323 C2320 1.414 . S
C2323 C2322 1.385 . S
C2323 C2345 1.444 . S
O2324 Tb2280 2.546 . S
O2324 C2344 1.251 . S
O2325 Tb2280 2.610 . S
O2325 Tb2291 2.362 . S
O2325 C2336 1.283 . S
O2326 Tb2291 2.421 . S
O2326 C2343 1.262 . S
O2327 Tb2280 2.320 . S
O2327 C2343 1.260 . S
O2328 Tb2280 2.552 . S
O2328 C2336 1.243 . S
O2329 Tb2280 2.413 . S
O2329 C2344 1.256 . S
O2330 Tb2291 2.546 . S
O2330 C2355 1.251 . S
O2331 Tb2280 2.362 . S
O2331 Tb2291 2.610 . S
O2331 C2347 1.283 . S
O2332 Tb2280 2.421 . S
O2332 C2354 1.262 . S
O2333 Tb2291 2.320 . S
O2333 C2354 1.260 . S
O2334 Tb2291 2.552 . S
O2334 C2347 1.243 . S
O2335 Tb2291 2.413 . S
O2335 C2355 1.256 . S
C2336 O2325 1.283 . S
C2336 O2328 1.243 . S
C2337 C2339 1.382 . S
C2337 C2341 1.393 . S
C2337 C2344 1.500 . S
C2338 C2339 1.400 . S
C2338 C2340 1.384 . S
C2339 C2337 1.382 . S
C2339 C2338 1.400 . S
C2339 H2356 0.930 . S
C2340 C2338 1.384 . S
C2340 C2342 1.392 . S
C2340 H2357 0.931 1_545 S
C2341 C2337 1.393 . S
C2341 C2342 1.401 . S
C2341 H2358 0.930 . S
C2342 C2340 1.392 . S
C2342 C2341 1.401 . S
C2342 H2359 0.930 . S
C2343 O2326 1.262 . S
C2343 O2327 1.260 . S
C2344 Tb2280 2.833 . S
C2344 O2324 1.251 . S
C2344 O2329 1.256 . S
C2344 C2337 1.500 . S
C2345 H2310 0.929 . S
C2345 C2323 1.444 . S
C2345 C2346 1.317 . S
C2346 H2308 0.930 . S
C2346 C2314 1.432 . S
C2346 C2345 1.317 . S
C2347 O2331 1.283 . S
C2347 O2334 1.243 . S
C2348 C2349 1.382 . S
C2348 C2352 1.393 . S
C2348 C2355 1.500 . S
C2349 C2348 1.382 . S
C2349 C2350 1.400 . S
C2349 H2360 0.930 . S
C2350 C2349 1.400 . S
C2350 C2351 1.384 . S
C2351 C2350 1.384 . S
C2351 C2353 1.392 . S
C2351 H2361 0.931 . S
C2352 C2348 1.393 . S
C2352 C2353 1.401 . S
C2352 H2362 0.930 . S
C2353 C2351 1.392 . S
C2353 C2352 1.401 . S
C2353 H2363 0.930 . S
C2354 O2332 1.262 . S
C2354 O2333 1.260 . S
C2355 Tb2291 2.833 . S
C2355 O2330 1.251 . S
C2355 O2335 1.256 . S
C2355 C2348 1.500 . S
H2356 C2339 0.930 . S
H2357 C2340 0.931 1_565 S
H2358 C2341 0.930 . S
H2359 C2342 0.930 . S
H2360 C2349 0.930 . S
H2361 C2351 0.931 . S
H2362 C2352 0.930 . S
H2363 C2353 0.930 . S
Tb2364 N2395 2.660 . S
Tb2364 N2402 2.600 . S
Tb2364 O2408 2.546 . S
Tb2364 O2409 2.610 . S
Tb2364 O2411 2.320 . S
Tb2364 O2412 2.552 . S
Tb2364 O2413 2.413 . S
Tb2364 O2415 2.362 . S
Tb2364 O2416 2.421 . S
Tb2364 C2428 2.833 . S
C2365 C2368 1.432 . S
C2365 C2369 1.414 . S
C2365 N2372 1.359 . S
C2366 C2368 1.417 . S
C2366 C2370 1.432 . S
C2366 C2378 1.410 . S
C2367 C2369 1.444 . S
C2367 C2370 1.317 . S
C2367 H2390 0.929 . S
C2368 C2365 1.432 . S
C2368 C2366 1.417 . S
C2368 N2376 1.360 . S
C2369 C2365 1.414 . S
C2369 C2367 1.444 . S
C2369 C2374 1.385 . S
C2370 C2366 1.432 . S
C2370 C2367 1.317 . S
C2370 H2382 0.930 . S
C2371 C2373 1.392 . S
C2371 C2374 1.370 . S
C2371 H2383 0.931 . S
N2372 C2365 1.359 . S
N2372 C2373 1.327 . S
N2372 Tb2375 2.600 . S
C2373 C2371 1.392 . S
C2373 N2372 1.327 . S
C2373 H2380 0.930 . S
C2374 C2369 1.385 . S
C2374 C2371 1.370 . S
C2374 H2393 0.930 . S
Tb2375 N2372 2.600 . S
Tb2375 N2376 2.660 . S
Tb2375 O2409 2.362 . S
Tb2375 O2410 2.421 . S
Tb2375 O2414 2.546 . S
Tb2375 O2415 2.610 . S
Tb2375 O2417 2.320 . S
Tb2375 O2418 2.552 . S
Tb2375 O2419 2.413 . S
Tb2375 C2439 2.833 . S
N2376 C2368 1.360 . S
N2376 Tb2375 2.660 . S
N2376 C2377 1.305 . S
C2377 N2376 1.305 . S
C2377 C2379 1.407 . S
C2377 H2384 0.930 . S
C2378 C2366 1.410 . S
C2378 C2379 1.345 . S
C2378 H2386 0.930 . S
C2379 C2377 1.407 . S
C2379 C2378 1.345 . S
C2379 H2381 0.930 . S
H2380 C2373 0.930 . S
H2381 C2379 0.930 . S
H2382 C2370 0.930 . S
H2383 C2371 0.931 . S
H2384 C2377 0.930 . S
H2385 C2399 0.930 . S
H2386 C2378 0.930 . S
H2387 C2405 0.930 . S
H2388 C2396 0.930 . S
H2389 C2403 0.931 . S
H2390 C2367 0.929 . S
H2391 C2397 0.930 . S
H2392 C2430 0.930 . S
H2393 C2374 0.930 . S
H2394 C2429 0.929 . S
N2395 Tb2364 2.660 . S
N2395 C2396 1.305 . S
N2395 C2400 1.360 . S
C2396 H2388 0.930 . S
C2396 N2395 1.305 . S
C2396 C2399 1.407 . S
C2397 H2391 0.930 . S
C2397 C2398 1.410 . S
C2397 C2399 1.345 . S
C2398 C2397 1.410 . S
C2398 C2400 1.417 . S
C2398 C2430 1.432 . S
C2399 H2385 0.930 . S
C2399 C2396 1.407 . S
C2399 C2397 1.345 . S
C2400 N2395 1.360 . S
C2400 C2398 1.417 . S
C2400 C2404 1.432 . S
H2401 C2406 0.930 . S
N2402 Tb2364 2.600 . S
N2402 C2404 1.359 . S
N2402 C2405 1.327 . S
C2403 H2389 0.931 . S
C2403 C2405 1.392 . S
C2403 C2406 1.370 . S
C2404 C2400 1.432 . S
C2404 N2402 1.359 . S
C2404 C2407 1.414 . S
C2405 H2387 0.930 . S
C2405 N2402 1.327 . S
C2405 C2403 1.392 . S
C2406 H2401 0.930 . S
C2406 C2403 1.370 . S
C2406 C2407 1.385 . S
C2407 C2404 1.414 . S
C2407 C2406 1.385 . S
C2407 C2429 1.444 . S
O2408 Tb2364 2.546 . S
O2408 C2428 1.251 . S
O2409 Tb2364 2.610 . S
O2409 Tb2375 2.362 . S
O2409 C2420 1.283 . S
O2410 Tb2375 2.421 . S
O2410 C2427 1.262 . S
O2411 Tb2364 2.320 . S
O2411 C2427 1.260 . S
O2412 Tb2364 2.552 . S
O2412 C2420 1.243 . S
O2413 Tb2364 2.413 . S
O2413 C2428 1.256 . S
O2414 Tb2375 2.546 . S
O2414 C2439 1.251 . S
O2415 Tb2364 2.362 . S
O2415 Tb2375 2.610 . S
O2415 C2431 1.283 . S
O2416 Tb2364 2.421 . S
O2416 C2438 1.262 . S
O2417 Tb2375 2.320 . S
O2417 C2438 1.260 . S
O2418 Tb2375 2.552 . S
O2418 C2431 1.243 . S
O2419 Tb2375 2.413 . S
O2419 C2439 1.256 . S
C2420 O2409 1.283 . S
C2420 O2412 1.243 . S
C2421 C2423 1.382 . S
C2421 C2425 1.393 . S
C2421 C2428 1.500 . S
C2422 C2423 1.400 . S
C2422 C2424 1.384 . S
C2423 C2421 1.382 . S
C2423 C2422 1.400 . S
C2423 H2440 0.930 . S
C2424 C2422 1.384 . S
C2424 C2426 1.392 . S
C2424 H2441 0.931 . S
C2425 C2421 1.393 . S
C2425 C2426 1.401 . S
C2425 H2442 0.930 . S
C2426 C2424 1.392 . S
C2426 C2425 1.401 . S
C2426 H2443 0.930 . S
C2427 O2410 1.262 . S
C2427 O2411 1.260 . S
C2428 Tb2364 2.833 . S
C2428 O2408 1.251 . S
C2428 O2413 1.256 . S
C2428 C2421 1.500 . S
C2429 H2394 0.929 . S
C2429 C2407 1.444 . S
C2429 C2430 1.317 . S
C2430 H2392 0.930 . S
C2430 C2398 1.432 . S
C2430 C2429 1.317 . S
C2431 O2415 1.283 . S
C2431 O2418 1.243 . S
C2432 C2433 1.382 . S
C2432 C2436 1.393 . S
C2432 C2439 1.500 . S
C2433 C2432 1.382 . S
C2433 C2434 1.400 . S
C2433 H2444 0.930 . S
C2434 C2433 1.400 . S
C2434 C2435 1.384 . S
C2435 C2434 1.384 . S
C2435 C2437 1.392 . S
C2435 H2445 0.931 . S
C2436 C2432 1.393 . S
C2436 C2437 1.401 . S
C2436 H2446 0.930 . S
C2437 C2435 1.392 . S
C2437 C2436 1.401 . S
C2437 H2447 0.930 . S
C2438 O2416 1.262 . S
C2438 O2417 1.260 . S
C2439 Tb2375 2.833 . S
C2439 O2414 1.251 . S
C2439 O2419 1.256 . S
C2439 C2432 1.500 . S
H2440 C2423 0.930 . S
H2441 C2424 0.931 . S
H2442 C2425 0.930 . S
H2443 C2426 0.930 . S
H2444 C2433 0.930 . S
H2445 C2435 0.931 . S
H2446 C2436 0.930 . S
H2447 C2437 0.930 . S
Tb2448 N2479 2.660 . S
Tb2448 N2486 2.600 . S
Tb2448 O2492 2.546 . S
Tb2448 O2493 2.610 . S
Tb2448 O2495 2.320 . S
Tb2448 O2496 2.552 . S
Tb2448 O2497 2.413 . S
Tb2448 O2499 2.362 . S
Tb2448 O2500 2.421 . S
Tb2448 C2512 2.833 . S
C2449 C2452 1.432 . S
C2449 C2453 1.414 . S
C2449 N2456 1.359 1_565 S
C2450 C2452 1.417 . S
C2450 C2454 1.432 . S
C2450 C2462 1.410 . S
C2451 C2453 1.444 . S
C2451 C2454 1.317 . S
C2451 H2474 0.929 . S
C2452 C2449 1.432 . S
C2452 C2450 1.417 . S
C2452 N2460 1.355 1_565 S
C2453 C2449 1.414 . S
C2453 C2451 1.444 . S
C2453 C2458 1.385 . S
C2454 C2450 1.432 . S
C2454 C2451 1.317 . S
C2454 H2466 0.930 . S
C2455 C2457 1.389 . S
C2455 C2458 1.371 1_545 S
C2455 H2467 0.932 . S
N2456 C2449 1.359 1_545 S
N2456 C2457 1.327 . S
N2456 Tb2459 2.600 . S
C2457 C2455 1.389 . S
C2457 N2456 1.327 . S
C2457 H2464 0.930 . S
C2458 C2453 1.385 . S
C2458 C2455 1.371 1_565 S
C2458 H2477 0.930 . S
Tb2459 N2456 2.600 . S
Tb2459 N2460 2.663 . S
Tb2459 O2493 2.362 . S
Tb2459 O2494 2.421 . S
Tb2459 O2498 2.546 1_545 S
Tb2459 O2499 2.610 . S
Tb2459 O2501 2.320 . S
Tb2459 O2502 2.552 . S
Tb2459 O2503 2.413 1_545 S
Tb2459 C2523 2.833 1_545 S
N2460 C2452 1.355 1_545 S
N2460 Tb2459 2.663 . S
N2460 C2461 1.307 1_545 S
C2461 N2460 1.307 1_565 S
C2461 C2463 1.407 . S
C2461 H2468 0.930 1_565 S
C2462 C2450 1.410 . S
C2462 C2463 1.345 . S
C2462 H2470 0.930 . S
C2463 C2461 1.407 . S
C2463 C2462 1.345 . S
C2463 H2465 0.930 1_455 S
H2464 C2457 0.930 . S
H2465 C2463 0.930 1_655 S
H2466 C2454 0.930 . S
H2467 C2455 0.932 . S
H2468 C2461 0.930 1_545 S
H2469 C2483 0.930 . S
H2470 C2462 0.930 . S
H2471 C2489 0.930 . S
H2472 C2480 0.930 . S
H2473 C2487 0.931 1_655 S
H2474 C2451 0.929 . S
H2475 C2481 0.930 . S
H2476 C2514 0.930 . S
H2477 C2458 0.930 . S
H2478 C2513 0.929 . S
N2479 Tb2448 2.660 . S
N2479 C2480 1.305 . S
N2479 C2484 1.360 . S
C2480 H2472 0.930 . S
C2480 N2479 1.305 . S
C2480 C2483 1.407 . S
C2481 H2475 0.930 . S
C2481 C2482 1.410 . S
C2481 C2483 1.345 . S
C2482 C2481 1.410 . S
C2482 C2484 1.417 . S
C2482 C2514 1.432 . S
C2483 H2469 0.930 . S
C2483 C2480 1.407 . S
C2483 C2481 1.345 . S
C2484 N2479 1.360 . S
C2484 C2482 1.417 . S
C2484 C2488 1.432 . S
H2485 C2490 0.930 . S
N2486 Tb2448 2.600 . S
N2486 C2488 1.359 . S
N2486 C2489 1.327 . S
C2487 H2473 0.931 1_455 S
C2487 C2489 1.392 . S
C2487 C2490 1.370 . S
C2488 C2484 1.432 . S
C2488 N2486 1.359 . S
C2488 C2491 1.414 . S
C2489 H2471 0.930 . S
C2489 N2486 1.327 . S
C2489 C2487 1.392 . S
C2490 H2485 0.930 . S
C2490 C2487 1.370 . S
C2490 C2491 1.385 . S
C2491 C2488 1.414 . S
C2491 C2490 1.385 . S
C2491 C2513 1.444 . S
O2492 Tb2448 2.546 . S
O2492 C2512 1.251 . S
O2493 Tb2448 2.610 . S
O2493 Tb2459 2.362 . S
O2493 C2504 1.283 . S
O2494 Tb2459 2.421 . S
O2494 C2511 1.262 . S
O2495 Tb2448 2.320 . S
O2495 C2511 1.260 . S
O2496 Tb2448 2.552 . S
O2496 C2504 1.243 . S
O2497 Tb2448 2.413 . S
O2497 C2512 1.256 . S
O2498 Tb2459 2.546 1_565 S
O2498 C2523 1.251 . S
O2499 Tb2448 2.362 . S
O2499 Tb2459 2.610 . S
O2499 C2515 1.283 . S
O2500 Tb2448 2.421 . S
O2500 C2522 1.262 . S
O2501 Tb2459 2.320 . S
O2501 C2522 1.260 . S
O2502 Tb2459 2.552 . S
O2502 C2515 1.243 . S
O2503 Tb2459 2.413 1_565 S
O2503 C2523 1.256 . S
C2504 O2493 1.283 . S
C2504 O2496 1.243 . S
C2505 C2507 1.382 . S
C2505 C2509 1.393 . S
C2505 C2512 1.500 . S
C2506 C2507 1.400 . S
C2506 C2508 1.384 . S
C2507 C2505 1.382 . S
C2507 C2506 1.400 . S
C2507 H2524 0.930 . S
C2508 C2506 1.384 . S
C2508 C2510 1.392 . S
C2508 H2525 0.931 . S
C2509 C2505 1.393 . S
C2509 C2510 1.401 . S
C2509 H2526 0.930 . S
C2510 C2508 1.392 . S
C2510 C2509 1.401 . S
C2510 H2527 0.930 . S
C2511 O2494 1.262 . S
C2511 O2495 1.260 . S
C2512 Tb2448 2.833 . S
C2512 O2492 1.251 . S
C2512 O2497 1.256 . S
C2512 C2505 1.500 . S
C2513 H2478 0.929 . S
C2513 C2491 1.444 . S
C2513 C2514 1.317 . S
C2514 H2476 0.930 . S
C2514 C2482 1.432 . S
C2514 C2513 1.317 . S
C2515 O2499 1.283 . S
C2515 O2502 1.243 . S
C2516 C2517 1.382 . S
C2516 C2520 1.393 . S
C2516 C2523 1.500 . S
C2517 C2516 1.382 . S
C2517 C2518 1.400 . S
C2517 H2528 0.930 . S
C2518 C2517 1.400 . S
C2518 C2519 1.384 . S
C2519 C2518 1.384 . S
C2519 C2521 1.392 . S
C2519 H2529 0.931 . S
C2520 C2516 1.393 . S
C2520 C2521 1.401 . S
C2520 H2530 0.930 . S
C2521 C2519 1.392 . S
C2521 C2520 1.401 . S
C2521 H2531 0.930 . S
C2522 O2500 1.262 . S
C2522 O2501 1.260 . S
C2523 Tb2459 2.833 1_565 S
C2523 O2498 1.251 . S
C2523 O2503 1.256 . S
C2523 C2516 1.500 . S
H2524 C2507 0.930 . S
H2525 C2508 0.931 . S
H2526 C2509 0.930 . S
H2527 C2510 0.930 . S
H2528 C2517 0.930 . S
H2529 C2519 0.931 . S
H2530 C2520 0.930 . S
H2531 C2521 0.930 . S
Tb2532 N2563 2.660 . S
Tb2532 N2570 2.600 . S
Tb2532 O2576 2.546 . S
Tb2532 O2577 2.610 . S
Tb2532 O2579 2.320 . S
Tb2532 O2580 2.552 . S
Tb2532 O2581 2.413 . S
Tb2532 O2583 2.362 . S
Tb2532 O2584 2.421 . S
Tb2532 C2596 2.833 . S
C2533 C2536 1.432 . S
C2533 C2537 1.414 . S
C2533 N2540 1.359 . S
C2534 C2536 1.417 . S
C2534 C2538 1.432 . S
C2534 C2546 1.410 . S
C2535 C2537 1.444 . S
C2535 C2538 1.317 . S
C2535 H2558 0.929 . S
C2536 C2533 1.432 . S
C2536 C2534 1.417 . S
C2536 N2544 1.360 . S
C2537 C2533 1.414 . S
C2537 C2535 1.444 . S
C2537 C2542 1.385 . S
C2538 C2534 1.432 . S
C2538 C2535 1.317 . S
C2538 H2550 0.930 . S
C2539 C2541 1.392 . S
C2539 C2542 1.370 . S
C2539 H2551 0.931 . S
N2540 C2533 1.359 . S
N2540 C2541 1.327 . S
N2540 Tb2543 2.600 . S
C2541 C2539 1.392 . S
C2541 N2540 1.327 . S
C2541 H2548 0.930 . S
C2542 C2537 1.385 . S
C2542 C2539 1.370 . S
C2542 H2561 0.930 . S
Tb2543 N2540 2.600 . S
Tb2543 N2544 2.660 . S
Tb2543 O2577 2.362 . S
Tb2543 O2578 2.421 . S
Tb2543 O2582 2.546 . S
Tb2543 O2583 2.610 . S
Tb2543 O2585 2.320 . S
Tb2543 O2586 2.552 . S
Tb2543 O2587 2.413 . S
Tb2543 C2607 2.833 . S
N2544 C2536 1.360 . S
N2544 Tb2543 2.660 . S
N2544 C2545 1.305 . S
C2545 N2544 1.305 . S
C2545 C2547 1.407 . S
C2545 H2552 0.930 . S
C2546 C2534 1.410 . S
C2546 C2547 1.345 . S
C2546 H2554 0.930 . S
C2547 C2545 1.407 . S
C2547 C2546 1.345 . S
C2547 H2549 0.930 . S
H2548 C2541 0.930 . S
H2549 C2547 0.930 . S
H2550 C2538 0.930 . S
H2551 C2539 0.931 . S
H2552 C2545 0.930 . S
H2553 C2567 0.930 . S
H2554 C2546 0.930 . S
H2555 C2573 0.930 . S
H2556 C2564 0.930 . S
H2557 C2571 0.931 . S
H2558 C2535 0.929 . S
H2559 C2565 0.930 . S
H2560 C2598 0.930 . S
H2561 C2542 0.930 . S
H2562 C2597 0.929 . S
N2563 Tb2532 2.660 . S
N2563 C2564 1.305 . S
N2563 C2568 1.360 . S
C2564 H2556 0.930 . S
C2564 N2563 1.305 . S
C2564 C2567 1.407 . S
C2565 H2559 0.930 . S
C2565 C2566 1.410 . S
C2565 C2567 1.345 . S
C2566 C2565 1.410 . S
C2566 C2568 1.417 . S
C2566 C2598 1.432 . S
C2567 H2553 0.930 . S
C2567 C2564 1.407 . S
C2567 C2565 1.345 . S
C2568 N2563 1.360 . S
C2568 C2566 1.417 . S
C2568 C2572 1.432 . S
H2569 C2574 0.930 . S
N2570 Tb2532 2.600 . S
N2570 C2572 1.359 . S
N2570 C2573 1.327 . S
C2571 H2557 0.931 . S
C2571 C2573 1.392 . S
C2571 C2574 1.370 . S
C2572 C2568 1.432 . S
C2572 N2570 1.359 . S
C2572 C2575 1.414 . S
C2573 H2555 0.930 . S
C2573 N2570 1.327 . S
C2573 C2571 1.392 . S
C2574 H2569 0.930 . S
C2574 C2571 1.370 . S
C2574 C2575 1.385 . S
C2575 C2572 1.414 . S
C2575 C2574 1.385 . S
C2575 C2597 1.444 . S
O2576 Tb2532 2.546 . S
O2576 C2596 1.251 . S
O2577 Tb2532 2.610 . S
O2577 Tb2543 2.362 . S
O2577 C2588 1.283 . S
O2578 Tb2543 2.421 . S
O2578 C2595 1.262 . S
O2579 Tb2532 2.320 . S
O2579 C2595 1.260 . S
O2580 Tb2532 2.552 . S
O2580 C2588 1.243 . S
O2581 Tb2532 2.413 . S
O2581 C2596 1.256 . S
O2582 Tb2543 2.546 . S
O2582 C2607 1.251 . S
O2583 Tb2532 2.362 . S
O2583 Tb2543 2.610 . S
O2583 C2599 1.283 . S
O2584 Tb2532 2.421 . S
O2584 C2606 1.262 . S
O2585 Tb2543 2.320 . S
O2585 C2606 1.260 . S
O2586 Tb2543 2.552 . S
O2586 C2599 1.243 . S
O2587 Tb2543 2.413 . S
O2587 C2607 1.256 . S
C2588 O2577 1.283 . S
C2588 O2580 1.243 . S
C2589 C2591 1.382 . S
C2589 C2593 1.393 . S
C2589 C2596 1.500 . S
C2590 C2591 1.400 . S
C2590 C2592 1.384 . S
C2591 C2589 1.382 . S
C2591 C2590 1.400 . S
C2591 H2608 0.930 . S
C2592 C2590 1.384 . S
C2592 C2594 1.392 . S
C2592 H2609 0.931 . S
C2593 C2589 1.393 . S
C2593 C2594 1.401 . S
C2593 H2610 0.930 . S
C2594 C2592 1.392 . S
C2594 C2593 1.401 . S
C2594 H2611 0.930 . S
C2595 O2578 1.262 . S
C2595 O2579 1.260 . S
C2596 Tb2532 2.833 . S
C2596 O2576 1.251 . S
C2596 O2581 1.256 . S
C2596 C2589 1.500 . S
C2597 H2562 0.929 . S
C2597 C2575 1.444 . S
C2597 C2598 1.317 . S
C2598 H2560 0.930 . S
C2598 C2566 1.432 . S
C2598 C2597 1.317 . S
C2599 O2583 1.283 . S
C2599 O2586 1.243 . S
C2600 C2601 1.382 . S
C2600 C2604 1.393 . S
C2600 C2607 1.500 . S
C2601 C2600 1.382 . S
C2601 C2602 1.400 . S
C2601 H2612 0.930 . S
C2602 C2601 1.400 . S
C2602 C2603 1.384 . S
C2603 C2602 1.384 . S
C2603 C2605 1.392 . S
C2603 H2613 0.931 . S
C2604 C2600 1.393 . S
C2604 C2605 1.401 . S
C2604 H2614 0.930 . S
C2605 C2603 1.392 . S
C2605 C2604 1.401 . S
C2605 H2615 0.930 . S
C2606 O2584 1.262 . S
C2606 O2585 1.260 . S
C2607 Tb2543 2.833 . S
C2607 O2582 1.251 . S
C2607 O2587 1.256 . S
C2607 C2600 1.500 . S
H2608 C2591 0.930 . S
H2609 C2592 0.931 . S
H2610 C2593 0.930 . S
H2611 C2594 0.930 . S
H2612 C2601 0.930 . S
H2613 C2603 0.931 . S
H2614 C2604 0.930 . S
H2615 C2605 0.930 . S
Tb2616 N2647 2.660 . S
Tb2616 N2654 2.600 . S
Tb2616 O2660 2.546 . S
Tb2616 O2661 2.610 . S
Tb2616 O2663 2.320 . S
Tb2616 O2664 2.552 . S
Tb2616 O2665 2.413 . S
Tb2616 O2667 2.362 . S
Tb2616 O2668 2.421 . S
Tb2616 C2680 2.833 . S
C2617 C2620 1.432 . S
C2617 C2621 1.414 . S
C2617 N2624 1.359 . S
C2618 C2620 1.417 . S
C2618 C2622 1.432 . S
C2618 C2630 1.410 . S
C2619 C2621 1.444 . S
C2619 C2622 1.317 . S
C2619 H2642 0.929 . S
C2620 C2617 1.432 . S
C2620 C2618 1.417 . S
C2620 N2628 1.360 . S
C2621 C2617 1.414 . S
C2621 C2619 1.444 . S
C2621 C2626 1.385 . S
C2622 C2618 1.432 . S
C2622 C2619 1.317 . S
C2622 H2634 0.930 . S
C2623 C2625 1.392 . S
C2623 C2626 1.370 . S
C2623 H2635 0.931 . S
N2624 C2617 1.359 . S
N2624 C2625 1.327 . S
N2624 Tb2627 2.600 . S
C2625 C2623 1.392 . S
C2625 N2624 1.327 . S
C2625 H2632 0.930 . S
C2626 C2621 1.385 . S
C2626 C2623 1.370 . S
C2626 H2645 0.930 . S
Tb2627 N2624 2.600 . S
Tb2627 N2628 2.660 . S
Tb2627 O2661 2.362 1_556 S
Tb2627 O2662 2.421 1_556 S
Tb2627 O2666 2.546 . S
Tb2627 O2667 2.610 1_556 S
Tb2627 O2669 2.320 . S
Tb2627 O2670 2.552 1_556 S
Tb2627 O2671 2.413 . S
Tb2627 C2691 2.833 . S
N2628 C2620 1.360 . S
N2628 Tb2627 2.660 . S
N2628 C2629 1.305 . S
C2629 N2628 1.305 . S
C2629 C2631 1.407 1_545 S
C2629 H2636 0.930 . S
C2630 C2618 1.410 . S
C2630 C2631 1.345 1_545 S
C2630 H2638 0.930 1_545 S
C2631 C2629 1.407 1_565 S
C2631 C2630 1.345 1_565 S
C2631 H2633 0.930 . S
H2632 C2625 0.930 . S
H2633 C2631 0.930 . S
H2634 C2622 0.930 . S
H2635 C2623 0.931 . S
H2636 C2629 0.930 . S
H2637 C2651 0.930 . S
H2638 C2630 0.930 1_565 S
H2639 C2657 0.930 1_565 S
H2640 C2648 0.930 . S
H2641 C2655 0.931 . S
H2642 C2619 0.929 . S
H2643 C2649 0.930 . S
H2644 C2682 0.930 . S
H2645 C2626 0.930 . S
H2646 C2681 0.929 . S
N2647 Tb2616 2.660 . S
N2647 C2648 1.305 . S
N2647 C2652 1.360 . S
C2648 H2640 0.930 . S
C2648 N2647 1.305 . S
C2648 C2651 1.407 . S
C2649 H2643 0.930 . S
C2649 C2650 1.410 . S
C2649 C2651 1.345 . S
C2650 C2649 1.410 . S
C2650 C2652 1.417 . S
C2650 C2682 1.432 . S
C2651 H2637 0.930 . S
C2651 C2648 1.407 . S
C2651 C2649 1.345 . S
C2652 N2647 1.360 . S
C2652 C2650 1.417 . S
C2652 C2656 1.432 . S
H2653 C2658 0.930 1_565 S
N2654 Tb2616 2.600 . S
N2654 C2656 1.359 . S
N2654 C2657 1.327 . S
C2655 H2641 0.931 . S
C2655 C2657 1.392 1_565 S
C2655 C2658 1.370 1_565 S
C2656 C2652 1.432 . S
C2656 N2654 1.359 . S
C2656 C2659 1.414 . S
C2657 H2639 0.930 1_545 S
C2657 N2654 1.327 . S
C2657 C2655 1.392 1_545 S
C2658 H2653 0.930 1_545 S
C2658 C2655 1.370 1_545 S
C2658 C2659 1.385 . S
C2659 C2656 1.414 . S
C2659 C2658 1.385 . S
C2659 C2681 1.444 . S
O2660 Tb2616 2.546 . S
O2660 C2680 1.251 . S
O2661 Tb2616 2.610 . S
O2661 Tb2627 2.362 1_554 S
O2661 C2672 1.283 . S
O2662 Tb2627 2.421 1_554 S
O2662 C2679 1.262 . S
O2663 Tb2616 2.320 . S
O2663 C2679 1.260 . S
O2664 Tb2616 2.552 . S
O2664 C2672 1.243 . S
O2665 Tb2616 2.413 . S
O2665 C2680 1.256 . S
O2666 Tb2627 2.546 . S
O2666 C2691 1.251 . S
O2667 Tb2616 2.362 . S
O2667 Tb2627 2.610 1_554 S
O2667 C2683 1.283 . S
O2668 Tb2616 2.421 . S
O2668 C2690 1.262 . S
O2669 Tb2627 2.320 . S
O2669 C2690 1.260 1_556 S
O2670 Tb2627 2.552 1_554 S
O2670 C2683 1.243 . S
O2671 Tb2627 2.413 . S
O2671 C2691 1.256 . S
C2672 O2661 1.283 . S
C2672 O2664 1.243 . S
C2673 C2675 1.382 . S
C2673 C2677 1.393 . S
C2673 C2680 1.500 . S
C2674 C2675 1.400 . S
C2674 C2676 1.384 . S
C2675 C2673 1.382 . S
C2675 C2674 1.400 . S
C2675 H2692 0.930 . S
C2676 C2674 1.384 . S
C2676 C2678 1.392 . S
C2676 H2693 0.931 . S
C2677 C2673 1.393 . S
C2677 C2678 1.401 . S
C2677 H2694 0.930 1_545 S
C2678 C2676 1.392 . S
C2678 C2677 1.401 . S
C2678 H2695 0.930 1_545 S
C2679 O2662 1.262 . S
C2679 O2663 1.260 . S
C2680 Tb2616 2.833 . S
C2680 O2660 1.251 . S
C2680 O2665 1.256 . S
C2680 C2673 1.500 . S
C2681 H2646 0.929 . S
C2681 C2659 1.444 . S
C2681 C2682 1.317 . S
C2682 H2644 0.930 . S
C2682 C2650 1.432 . S
C2682 C2681 1.317 . S
C2683 O2667 1.283 . S
C2683 O2670 1.243 . S
C2684 C2685 1.382 . S
C2684 C2688 1.393 . S
C2684 C2691 1.500 . S
C2685 C2684 1.382 . S
C2685 C2686 1.400 . S
C2685 H2696 0.930 . S
C2686 C2685 1.400 . S
C2686 C2687 1.384 . S
C2687 C2686 1.384 . S
C2687 C2689 1.392 . S
C2687 H2697 0.931 . S
C2688 C2684 1.393 . S
C2688 C2689 1.401 . S
C2688 H2698 0.930 . S
C2689 C2687 1.392 . S
C2689 C2688 1.401 . S
C2689 H2699 0.930 . S
C2690 O2668 1.262 . S
C2690 O2669 1.260 1_554 S
C2691 Tb2627 2.833 . S
C2691 O2666 1.251 . S
C2691 O2671 1.256 . S
C2691 C2684 1.500 . S
H2692 C2675 0.930 . S
H2693 C2676 0.931 . S
H2694 C2677 0.930 1_565 S
H2695 C2678 0.930 1_565 S
H2696 C2685 0.930 . S
H2697 C2687 0.931 . S
H2698 C2688 0.930 . S
H2699 C2689 0.930 . S
Tb2700 N2731 2.660 . S
Tb2700 N2738 2.600 . S
Tb2700 O2744 2.546 . S
Tb2700 O2745 2.610 . S
Tb2700 O2747 2.320 . S
Tb2700 O2748 2.552 . S
Tb2700 O2749 2.413 . S
Tb2700 O2751 2.362 . S
Tb2700 O2752 2.421 . S
Tb2700 C2764 2.833 . S
C2701 C2704 1.432 . S
C2701 C2705 1.414 . S
C2701 N2708 1.359 . S
C2702 C2704 1.417 . S
C2702 C2706 1.432 . S
C2702 C2714 1.410 . S
C2703 C2705 1.444 . S
C2703 C2706 1.317 . S
C2703 H2726 0.929 . S
C2704 C2701 1.432 . S
C2704 C2702 1.417 . S
C2704 N2712 1.360 . S
C2705 C2701 1.414 . S
C2705 C2703 1.444 . S
C2705 C2710 1.385 . S
C2706 C2702 1.432 . S
C2706 C2703 1.317 . S
C2706 H2718 0.930 . S
C2707 C2709 1.392 . S
C2707 C2710 1.370 . S
C2707 H2719 0.931 . S
N2708 C2701 1.359 . S
N2708 C2709 1.327 . S
N2708 Tb2711 2.600 . S
C2709 C2707 1.392 . S
C2709 N2708 1.327 . S
C2709 H2716 0.930 . S
C2710 C2705 1.385 . S
C2710 C2707 1.370 . S
C2710 H2729 0.930 . S
Tb2711 N2708 2.600 . S
Tb2711 N2712 2.660 . S
Tb2711 O2745 2.362 . S
Tb2711 O2746 2.421 . S
Tb2711 O2750 2.546 . S
Tb2711 O2751 2.610 . S
Tb2711 O2753 2.320 . S
Tb2711 O2754 2.552 . S
Tb2711 O2755 2.413 . S
Tb2711 C2775 2.833 . S
N2712 C2704 1.360 . S
N2712 Tb2711 2.660 . S
N2712 C2713 1.305 . S
C2713 N2712 1.305 . S
C2713 C2715 1.407 . S
C2713 H2720 0.930 . S
C2714 C2702 1.410 . S
C2714 C2715 1.345 . S
C2714 H2722 0.930 . S
C2715 C2713 1.407 . S
C2715 C2714 1.345 . S
C2715 H2717 0.930 . S
H2716 C2709 0.930 . S
H2717 C2715 0.930 . S
H2718 C2706 0.930 . S
H2719 C2707 0.931 . S
H2720 C2713 0.930 . S
H2721 C2735 0.930 . S
H2722 C2714 0.930 . S
H2723 C2741 0.930 . S
H2724 C2732 0.930 . S
H2725 C2739 0.931 . S
H2726 C2703 0.929 . S
H2727 C2733 0.930 . S
H2728 C2766 0.930 . S
H2729 C2710 0.930 . S
H2730 C2765 0.929 . S
N2731 Tb2700 2.660 . S
N2731 C2732 1.305 . S
N2731 C2736 1.360 . S
C2732 H2724 0.930 . S
C2732 N2731 1.305 . S
C2732 C2735 1.407 . S
C2733 H2727 0.930 . S
C2733 C2734 1.410 . S
C2733 C2735 1.345 . S
C2734 C2733 1.410 . S
C2734 C2736 1.417 . S
C2734 C2766 1.432 . S
C2735 H2721 0.930 . S
C2735 C2732 1.407 . S
C2735 C2733 1.345 . S
C2736 N2731 1.360 . S
C2736 C2734 1.417 . S
C2736 C2740 1.432 . S
H2737 C2742 0.930 . S
N2738 Tb2700 2.600 . S
N2738 C2740 1.359 . S
N2738 C2741 1.327 . S
C2739 H2725 0.931 . S
C2739 C2741 1.392 . S
C2739 C2742 1.370 . S
C2740 C2736 1.432 . S
C2740 N2738 1.359 . S
C2740 C2743 1.414 . S
C2741 H2723 0.930 . S
C2741 N2738 1.327 . S
C2741 C2739 1.392 . S
C2742 H2737 0.930 . S
C2742 C2739 1.370 . S
C2742 C2743 1.385 . S
C2743 C2740 1.414 . S
C2743 C2742 1.385 . S
C2743 C2765 1.444 . S
O2744 Tb2700 2.546 . S
O2744 C2764 1.251 . S
O2745 Tb2700 2.610 . S
O2745 Tb2711 2.362 . S
O2745 C2756 1.283 . S
O2746 Tb2711 2.421 . S
O2746 C2763 1.262 . S
O2747 Tb2700 2.320 . S
O2747 C2763 1.260 . S
O2748 Tb2700 2.552 . S
O2748 C2756 1.243 . S
O2749 Tb2700 2.413 . S
O2749 C2764 1.256 . S
O2750 Tb2711 2.546 . S
O2750 C2775 1.251 . S
O2751 Tb2700 2.362 . S
O2751 Tb2711 2.610 . S
O2751 C2767 1.283 . S
O2752 Tb2700 2.421 . S
O2752 C2774 1.262 . S
O2753 Tb2711 2.320 . S
O2753 C2774 1.260 . S
O2754 Tb2711 2.552 . S
O2754 C2767 1.243 . S
O2755 Tb2711 2.413 . S
O2755 C2775 1.256 . S
C2756 O2745 1.283 . S
C2756 O2748 1.243 . S
C2757 C2759 1.382 . S
C2757 C2761 1.393 . S
C2757 C2764 1.500 . S
C2758 C2759 1.400 . S
C2758 C2760 1.384 . S
C2759 C2757 1.382 . S
C2759 C2758 1.400 . S
C2759 H2776 0.930 . S
C2760 C2758 1.384 . S
C2760 C2762 1.392 . S
C2760 H2777 0.931 . S
C2761 C2757 1.393 . S
C2761 C2762 1.401 . S
C2761 H2778 0.930 . S
C2762 C2760 1.392 . S
C2762 C2761 1.401 . S
C2762 H2779 0.930 . S
C2763 O2746 1.262 . S
C2763 O2747 1.260 . S
C2764 Tb2700 2.833 . S
C2764 O2744 1.251 . S
C2764 O2749 1.256 . S
C2764 C2757 1.500 . S
C2765 H2730 0.929 . S
C2765 C2743 1.444 . S
C2765 C2766 1.317 . S
C2766 H2728 0.930 . S
C2766 C2734 1.432 . S
C2766 C2765 1.317 . S
C2767 O2751 1.283 . S
C2767 O2754 1.243 . S
C2768 C2769 1.382 . S
C2768 C2772 1.393 . S
C2768 C2775 1.500 . S
C2769 C2768 1.382 . S
C2769 C2770 1.400 . S
C2769 H2780 0.930 . S
C2770 C2769 1.400 . S
C2770 C2771 1.384 . S
C2771 C2770 1.384 . S
C2771 C2773 1.392 . S
C2771 H2781 0.931 . S
C2772 C2768 1.393 . S
C2772 C2773 1.401 . S
C2772 H2782 0.930 . S
C2773 C2771 1.392 . S
C2773 C2772 1.401 . S
C2773 H2783 0.930 . S
C2774 O2752 1.262 . S
C2774 O2753 1.260 . S
C2775 Tb2711 2.833 . S
C2775 O2750 1.251 . S
C2775 O2755 1.256 . S
C2775 C2768 1.500 . S
H2776 C2759 0.930 . S
H2777 C2760 0.931 . S
H2778 C2761 0.930 . S
H2779 C2762 0.930 . S
H2780 C2769 0.930 . S
H2781 C2771 0.931 . S
H2782 C2772 0.930 . S
H2783 C2773 0.930 . S
Tb2784 N2815 2.660 . S
Tb2784 N2822 2.600 . S
Tb2784 O2828 2.546 . S
Tb2784 O2829 2.639 . S
Tb2784 O2831 2.320 . S
Tb2784 O2832 2.552 1_554 S
Tb2784 O2833 2.413 . S
Tb2784 O2835 2.362 . S
Tb2784 O2836 2.421 . S
Tb2784 C2848 2.833 . S
C2785 C2788 1.432 . S
C2785 C2789 1.414 . S
C2785 N2792 1.359 . S
C2786 C2788 1.417 . S
C2786 C2790 1.432 . S
C2786 C2798 1.410 . S
C2787 C2789 1.444 . S
C2787 C2790 1.317 . S
C2787 H2810 0.929 . S
C2788 C2785 1.432 . S
C2788 C2786 1.417 . S
C2788 N2796 1.360 . S
C2789 C2785 1.414 . S
C2789 C2787 1.444 . S
C2789 C2794 1.385 . S
C2790 C2786 1.432 . S
C2790 C2787 1.317 . S
C2790 H2802 0.930 . S
C2791 C2793 1.392 . S
C2791 C2794 1.370 . S
C2791 H2803 0.931 . S
N2792 C2785 1.359 . S
N2792 C2793 1.327 . S
N2792 Tb2795 2.600 1_556 S
C2793 C2791 1.392 . S
C2793 N2792 1.327 . S
C2793 H2800 0.930 . S
C2794 C2789 1.385 . S
C2794 C2791 1.370 . S
C2794 H2813 0.930 . S
Tb2795 N2792 2.600 1_554 S
Tb2795 N2796 2.660 1_554 S
Tb2795 O2829 2.385 . S
Tb2795 O2830 2.421 . S
Tb2795 O2834 2.546 . S
Tb2795 O2835 2.610 . S
Tb2795 O2837 2.320 . S
Tb2795 O2838 2.552 . S
Tb2795 O2839 2.413 . S
Tb2795 C2859 2.833 . S
N2796 C2788 1.360 . S
N2796 Tb2795 2.660 1_556 S
N2796 C2797 1.305 . S
C2797 N2796 1.305 . S
C2797 C2799 1.407 . S
C2797 H2804 0.930 . S
C2798 C2786 1.410 . S
C2798 C2799 1.345 . S
C2798 H2806 0.930 . S
C2799 C2797 1.407 . S
C2799 C2798 1.345 . S
C2799 H2801 0.930 . S
H2800 C2793 0.930 . S
H2801 C2799 0.930 . S
H2802 C2790 0.930 . S
H2803 C2791 0.931 . S
H2804 C2797 0.930 . S
H2805 C2819 0.930 . S
H2806 C2798 0.930 . S
H2807 C2825 0.930 . S
H2808 C2816 0.930 . S
H2809 C2823 0.931 . S
H2810 C2787 0.929 . S
H2811 C2817 0.930 . S
H2812 C2850 0.930 . S
H2813 C2794 0.930 . S
H2814 C2849 0.929 . S
N2815 Tb2784 2.660 . S
N2815 C2816 1.305 . S
N2815 C2820 1.360 . S
C2816 H2808 0.930 . S
C2816 N2815 1.305 . S
C2816 C2819 1.407 . S
C2817 H2811 0.930 . S
C2817 C2818 1.410 . S
C2817 C2819 1.345 . S
C2818 C2817 1.410 . S
C2818 C2820 1.417 . S
C2818 C2850 1.432 . S
C2819 H2805 0.930 . S
C2819 C2816 1.407 . S
C2819 C2817 1.345 . S
C2820 N2815 1.360 . S
C2820 C2818 1.417 . S
C2820 C2824 1.432 . S
H2821 C2826 0.930 . S
N2822 Tb2784 2.600 . S
N2822 C2824 1.359 . S
N2822 C2825 1.327 . S
C2823 H2809 0.931 . S
C2823 C2825 1.392 . S
C2823 C2826 1.370 . S
C2824 C2820 1.432 . S
C2824 N2822 1.359 . S
C2824 C2827 1.414 . S
C2825 H2807 0.930 . S
C2825 N2822 1.327 . S
C2825 C2823 1.392 . S
C2826 H2821 0.930 . S
C2826 C2823 1.370 . S
C2826 C2827 1.385 . S
C2827 C2824 1.414 . S
C2827 C2826 1.385 . S
C2827 C2849 1.444 . S
O2828 Tb2784 2.546 . S
O2828 C2848 1.251 . S
O2829 Tb2784 2.639 . S
O2829 Tb2795 2.385 . S
O2829 C2840 1.249 1_554 S
O2830 Tb2795 2.421 . S
O2830 C2847 1.262 . S
O2831 Tb2784 2.320 . S
O2831 C2847 1.260 . S
O2832 Tb2784 2.552 1_556 S
O2832 C2840 1.243 . S
O2833 Tb2784 2.413 . S
O2833 C2848 1.256 . S
O2834 Tb2795 2.546 . S
O2834 C2859 1.251 . S
O2835 Tb2784 2.362 . S
O2835 Tb2795 2.610 . S
O2835 C2851 1.283 . S
O2836 Tb2784 2.421 . S
O2836 C2858 1.262 . S
O2837 Tb2795 2.320 . S
O2837 C2858 1.260 . S
O2838 Tb2795 2.552 . S
O2838 C2851 1.243 . S
O2839 Tb2795 2.413 . S
O2839 C2859 1.256 . S
C2840 O2829 1.249 1_556 S
C2840 O2832 1.243 . S
C2841 C2843 1.382 . S
C2841 C2845 1.393 . S
C2841 C2848 1.500 . S
C2842 C2843 1.429 . S
C2842 C2844 1.402 . S
C2843 C2841 1.382 . S
C2843 C2842 1.429 . S
C2843 H2860 0.930 . S
C2844 C2842 1.402 . S
C2844 C2846 1.392 . S
C2844 H2861 0.931 . S
C2845 C2841 1.393 . S
C2845 C2846 1.401 . S
C2845 H2862 0.930 . S
C2846 C2844 1.392 . S
C2846 C2845 1.401 . S
C2846 H2863 0.930 . S
C2847 O2830 1.262 . S
C2847 O2831 1.260 . S
C2848 Tb2784 2.833 . S
C2848 O2828 1.251 . S
C2848 O2833 1.256 . S
C2848 C2841 1.500 . S
C2849 H2814 0.929 . S
C2849 C2827 1.444 . S
C2849 C2850 1.317 . S
C2850 H2812 0.930 . S
C2850 C2818 1.432 . S
C2850 C2849 1.317 . S
C2851 O2835 1.283 . S
C2851 O2838 1.243 . S
C2852 C2853 1.382 . S
C2852 C2856 1.393 . S
C2852 C2859 1.500 . S
C2853 C2852 1.382 . S
C2853 C2854 1.400 . S
C2853 H2864 0.930 . S
C2854 C2853 1.400 . S
C2854 C2855 1.384 . S
C2855 C2854 1.384 . S
C2855 C2857 1.392 . S
C2855 H2865 0.931 . S
C2856 C2852 1.393 . S
C2856 C2857 1.401 . S
C2856 H2866 0.930 . S
C2857 C2855 1.392 . S
C2857 C2856 1.401 . S
C2857 H2867 0.930 . S
C2858 O2836 1.262 . S
C2858 O2837 1.260 . S
C2859 Tb2795 2.833 . S
C2859 O2834 1.251 . S
C2859 O2839 1.256 . S
C2859 C2852 1.500 . S
H2860 C2843 0.930 . S
H2861 C2844 0.931 . S
H2862 C2845 0.930 . S
H2863 C2846 0.930 . S
H2864 C2853 0.930 . S
H2865 C2855 0.931 . S
H2866 C2856 0.930 . S
H2867 C2857 0.930 . S
Tb2868 N2899 2.660 . S
Tb2868 N2906 2.600 . S
Tb2868 O2912 2.546 . S
Tb2868 O2913 2.610 . S
Tb2868 O2915 2.320 . S
Tb2868 O2916 2.552 . S
Tb2868 O2917 2.413 . S
Tb2868 O2919 2.362 . S
Tb2868 O2920 2.421 . S
Tb2868 C2932 2.833 . S
C2869 C2872 1.432 . S
C2869 C2873 1.414 . S
C2869 N2876 1.359 . S
C2870 C2872 1.417 . S
C2870 C2874 1.432 . S
C2870 C2882 1.410 . S
C2871 C2873 1.444 . S
C2871 C2874 1.317 . S
C2871 H2894 0.929 . S
C2872 C2869 1.432 . S
C2872 C2870 1.417 . S
C2872 N2880 1.360 . S
C2873 C2869 1.414 . S
C2873 C2871 1.444 . S
C2873 C2878 1.385 . S
C2874 C2870 1.432 . S
C2874 C2871 1.317 . S
C2874 H2886 0.930 . S
C2875 C2877 1.392 . S
C2875 C2878 1.370 . S
C2875 H2887 0.931 . S
N2876 C2869 1.359 . S
N2876 C2877 1.327 . S
N2876 Tb2879 2.600 . S
C2877 C2875 1.392 . S
C2877 N2876 1.327 . S
C2877 H2884 0.930 . S
C2878 C2873 1.385 . S
C2878 C2875 1.370 . S
C2878 H2897 0.930 . S
Tb2879 N2876 2.600 . S
Tb2879 N2880 2.660 . S
Tb2879 O2913 2.362 . S
Tb2879 O2914 2.421 . S
Tb2879 O2918 2.546 . S
Tb2879 O2919 2.610 . S
Tb2879 O2921 2.320 . S
Tb2879 O2922 2.552 . S
Tb2879 O2923 2.413 . S
Tb2879 C2943 2.833 . S
N2880 C2872 1.360 . S
N2880 Tb2879 2.660 . S
N2880 C2881 1.305 . S
C2881 N2880 1.305 . S
C2881 C2883 1.407 . S
C2881 H2888 0.930 . S
C2882 C2870 1.410 . S
C2882 C2883 1.345 . S
C2882 H2890 0.930 . S
C2883 C2881 1.407 . S
C2883 C2882 1.345 . S
C2883 H2885 0.930 . S
H2884 C2877 0.930 . S
H2885 C2883 0.930 . S
H2886 C2874 0.930 . S
H2887 C2875 0.931 . S
H2888 C2881 0.930 . S
H2889 C2903 0.930 . S
H2890 C2882 0.930 . S
H2891 C2909 0.930 . S
H2892 C2900 0.930 . S
H2893 C2907 0.931 . S
H2894 C2871 0.929 . S
H2895 C2901 0.930 . S
H2896 C2934 0.930 . S
H2897 C2878 0.930 . S
H2898 C2933 0.929 . S
N2899 Tb2868 2.660 . S
N2899 C2900 1.305 . S
N2899 C2904 1.360 . S
C2900 H2892 0.930 . S
C2900 N2899 1.305 . S
C2900 C2903 1.407 . S
C2901 H2895 0.930 . S
C2901 C2902 1.410 . S
C2901 C2903 1.345 . S
C2902 C2901 1.410 . S
C2902 C2904 1.417 . S
C2902 C2934 1.432 . S
C2903 H2889 0.930 . S
C2903 C2900 1.407 . S
C2903 C2901 1.345 . S
C2904 N2899 1.360 . S
C2904 C2902 1.417 . S
C2904 C2908 1.432 . S
H2905 C2910 0.930 . S
N2906 Tb2868 2.600 . S
N2906 C2908 1.359 . S
N2906 C2909 1.327 . S
C2907 H2893 0.931 . S
C2907 C2909 1.392 . S
C2907 C2910 1.370 . S
C2908 C2904 1.432 . S
C2908 N2906 1.359 . S
C2908 C2911 1.414 . S
C2909 H2891 0.930 . S
C2909 N2906 1.327 . S
C2909 C2907 1.392 . S
C2910 H2905 0.930 . S
C2910 C2907 1.370 . S
C2910 C2911 1.385 . S
C2911 C2908 1.414 . S
C2911 C2910 1.385 . S
C2911 C2933 1.444 . S
O2912 Tb2868 2.546 . S
O2912 C2932 1.251 . S
O2913 Tb2868 2.610 . S
O2913 Tb2879 2.362 . S
O2913 C2924 1.283 . S
O2914 Tb2879 2.421 . S
O2914 C2931 1.262 . S
O2915 Tb2868 2.320 . S
O2915 C2931 1.260 . S
O2916 Tb2868 2.552 . S
O2916 C2924 1.243 . S
O2917 Tb2868 2.413 . S
O2917 C2932 1.256 . S
O2918 Tb2879 2.546 . S
O2918 C2943 1.251 . S
O2919 Tb2868 2.362 . S
O2919 Tb2879 2.610 . S
O2919 C2935 1.283 . S
O2920 Tb2868 2.421 . S
O2920 C2942 1.262 . S
O2921 Tb2879 2.320 . S
O2921 C2942 1.260 . S
O2922 Tb2879 2.552 . S
O2922 C2935 1.243 . S
O2923 Tb2879 2.413 . S
O2923 C2943 1.256 . S
C2924 O2913 1.283 . S
C2924 O2916 1.243 . S
C2925 C2927 1.382 . S
C2925 C2929 1.393 . S
C2925 C2932 1.500 . S
C2926 C2927 1.400 . S
C2926 C2928 1.384 . S
C2927 C2925 1.382 . S
C2927 C2926 1.400 . S
C2927 H2944 0.930 . S
C2928 C2926 1.384 . S
C2928 C2930 1.392 . S
C2928 H2945 0.931 . S
C2929 C2925 1.393 . S
C2929 C2930 1.401 . S
C2929 H2946 0.930 . S
C2930 C2928 1.392 . S
C2930 C2929 1.401 . S
C2930 H2947 0.930 . S
C2931 O2914 1.262 . S
C2931 O2915 1.260 . S
C2932 Tb2868 2.833 . S
C2932 O2912 1.251 . S
C2932 O2917 1.256 . S
C2932 C2925 1.500 . S
C2933 H2898 0.929 . S
C2933 C2911 1.444 . S
C2933 C2934 1.317 . S
C2934 H2896 0.930 . S
C2934 C2902 1.432 . S
C2934 C2933 1.317 . S
C2935 O2919 1.283 . S
C2935 O2922 1.243 . S
C2936 C2937 1.382 . S
C2936 C2940 1.393 . S
C2936 C2943 1.500 . S
C2937 C2936 1.382 . S
C2937 C2938 1.400 . S
C2937 H2948 0.930 . S
C2938 C2937 1.400 . S
C2938 C2939 1.384 . S
C2939 C2938 1.384 . S
C2939 C2941 1.392 . S
C2939 H2949 0.931 . S
C2940 C2936 1.393 . S
C2940 C2941 1.401 . S
C2940 H2950 0.930 . S
C2941 C2939 1.392 . S
C2941 C2940 1.401 . S
C2941 H2951 0.930 . S
C2942 O2920 1.262 . S
C2942 O2921 1.260 . S
C2943 Tb2879 2.833 . S
C2943 O2918 1.251 . S
C2943 O2923 1.256 . S
C2943 C2936 1.500 . S
H2944 C2927 0.930 . S
H2945 C2928 0.931 . S
H2946 C2929 0.930 . S
H2947 C2930 0.930 . S
H2948 C2937 0.930 . S
H2949 C2939 0.931 . S
H2950 C2940 0.930 . S
H2951 C2941 0.930 . S
Tb2952 N2983 2.660 . S
Tb2952 N2990 2.600 . S
Tb2952 O2996 2.546 . S
Tb2952 O2997 2.610 . S
Tb2952 O2999 2.320 . S
Tb2952 O3000 2.552 . S
Tb2952 O3001 2.413 . S
Tb2952 O3003 2.362 . S
Tb2952 O3004 2.421 . S
Tb2952 C3016 2.833 . S
C2953 C2956 1.432 . S
C2953 C2957 1.414 1_455 S
C2953 N2960 1.359 . S
C2954 C2956 1.417 1_655 S
C2954 C2958 1.432 . S
C2954 C2966 1.410 . S
C2955 C2957 1.444 . S
C2955 C2958 1.317 . S
C2955 H2978 0.929 . S
C2956 C2953 1.432 . S
C2956 C2954 1.417 1_455 S
C2956 N2964 1.360 . S
C2957 C2953 1.414 1_655 S
C2957 C2955 1.444 . S
C2957 C2962 1.385 . S
C2958 C2954 1.432 . S
C2958 C2955 1.317 . S
C2958 H2970 0.930 . S
C2959 C2961 1.392 . S
C2959 C2962 1.370 1_455 S
C2959 H2971 0.931 . S
N2960 C2953 1.359 . S
N2960 C2961 1.327 . S
N2960 Tb2963 2.600 . S
C2961 C2959 1.392 . S
C2961 N2960 1.327 . S
C2961 H2968 0.930 . S
C2962 C2957 1.385 . S
C2962 C2959 1.370 1_655 S
C2962 H2981 0.930 . S
Tb2963 N2960 2.600 . S
Tb2963 N2964 2.660 . S
Tb2963 O2997 2.362 . S
Tb2963 O2998 2.421 . S
Tb2963 O3002 2.546 . S
Tb2963 O3003 2.610 . S
Tb2963 O3005 2.320 . S
Tb2963 O3006 2.552 . S
Tb2963 O3007 2.413 . S
Tb2963 C3027 2.833 . S
N2964 C2956 1.360 . S
N2964 Tb2963 2.660 . S
N2964 C2965 1.305 . S
C2965 N2964 1.305 . S
C2965 C2967 1.407 . S
C2965 H2972 0.930 . S
C2966 C2954 1.410 . S
C2966 C2967 1.345 1_655 S
C2966 H2974 0.930 . S
C2967 C2965 1.407 . S
C2967 C2966 1.345 1_455 S
C2967 H2969 0.926 . S
H2968 C2961 0.930 . S
H2969 C2967 0.926 . S
H2970 C2958 0.930 . S
H2971 C2959 0.931 . S
H2972 C2965 0.930 . S
H2973 C2987 0.930 . S
H2974 C2966 0.930 . S
H2975 C2993 0.930 . S
H2976 C2984 0.930 . S
H2977 C2991 0.931 . S
H2978 C2955 0.929 . S
H2979 C2985 0.930 . S
H2980 C3018 0.930 . S
H2981 C2962 0.930 . S
H2982 C3017 0.929 . S
N2983 Tb2952 2.660 . S
N2983 C2984 1.305 . S
N2983 C2988 1.360 . S
C2984 H2976 0.930 . S
C2984 N2983 1.305 . S
C2984 C2987 1.407 . S
C2985 H2979 0.930 . S
C2985 C2986 1.410 . S
C2985 C2987 1.345 . S
C2986 C2985 1.410 . S
C2986 C2988 1.417 . S
C2986 C3018 1.432 . S
C2987 H2973 0.930 . S
C2987 C2984 1.407 . S
C2987 C2985 1.345 . S
C2988 N2983 1.360 . S
C2988 C2986 1.417 . S
C2988 C2992 1.432 . S
H2989 C2994 0.930 . S
N2990 Tb2952 2.600 . S
N2990 C2992 1.359 . S
N2990 C2993 1.327 . S
C2991 H2977 0.931 . S
C2991 C2993 1.392 . S
C2991 C2994 1.370 . S
C2992 C2988 1.432 . S
C2992 N2990 1.359 . S
C2992 C2995 1.414 . S
C2993 H2975 0.930 . S
C2993 N2990 1.327 . S
C2993 C2991 1.392 . S
C2994 H2989 0.930 . S
C2994 C2991 1.370 . S
C2994 C2995 1.385 . S
C2995 C2992 1.414 . S
C2995 C2994 1.385 . S
C2995 C3017 1.444 . S
O2996 Tb2952 2.546 . S
O2996 C3016 1.251 . S
O2997 Tb2952 2.610 . S
O2997 Tb2963 2.362 . S
O2997 C3008 1.283 . S
O2998 Tb2963 2.421 . S
O2998 C3015 1.262 . S
O2999 Tb2952 2.320 . S
O2999 C3015 1.260 . S
O3000 Tb2952 2.552 . S
O3000 C3008 1.243 . S
O3001 Tb2952 2.413 . S
O3001 C3016 1.256 . S
O3002 Tb2963 2.546 . S
O3002 C3027 1.251 . S
O3003 Tb2952 2.362 . S
O3003 Tb2963 2.610 . S
O3003 C3019 1.283 . S
O3004 Tb2952 2.421 . S
O3004 C3026 1.262 . S
O3005 Tb2963 2.320 . S
O3005 C3026 1.260 . S
O3006 Tb2963 2.552 . S
O3006 C3019 1.243 . S
O3007 Tb2963 2.413 . S
O3007 C3027 1.256 . S
C3008 O2997 1.283 . S
C3008 O3000 1.243 . S
C3009 C3011 1.382 . S
C3009 C3013 1.393 . S
C3009 C3016 1.500 . S
C3010 C3011 1.400 . S
C3010 C3012 1.384 . S
C3011 C3009 1.382 . S
C3011 C3010 1.400 . S
C3011 H3028 0.930 . S
C3012 C3010 1.384 . S
C3012 C3014 1.392 . S
C3012 H3029 0.931 . S
C3013 C3009 1.393 . S
C3013 C3014 1.401 . S
C3013 H3030 0.930 . S
C3014 C3012 1.392 . S
C3014 C3013 1.401 . S
C3014 H3031 0.930 . S
C3015 O2998 1.262 . S
C3015 O2999 1.260 . S
C3016 Tb2952 2.833 . S
C3016 O2996 1.251 . S
C3016 O3001 1.256 . S
C3016 C3009 1.500 . S
C3017 H2982 0.929 . S
C3017 C2995 1.444 . S
C3017 C3018 1.317 . S
C3018 H2980 0.930 . S
C3018 C2986 1.432 . S
C3018 C3017 1.317 . S
C3019 O3003 1.283 . S
C3019 O3006 1.243 . S
C3020 C3021 1.382 . S
C3020 C3024 1.393 . S
C3020 C3027 1.500 . S
C3021 C3020 1.382 . S
C3021 C3022 1.400 . S
C3021 H3032 0.930 . S
C3022 C3021 1.400 . S
C3022 C3023 1.384 . S
C3023 C3022 1.384 . S
C3023 C3025 1.392 . S
C3023 H3033 0.931 . S
C3024 C3020 1.393 . S
C3024 C3025 1.401 . S
C3024 H3034 0.930 . S
C3025 C3023 1.392 . S
C3025 C3024 1.401 . S
C3025 H3035 0.930 . S
C3026 O3004 1.262 . S
C3026 O3005 1.260 . S
C3027 Tb2963 2.833 . S
C3027 O3002 1.251 . S
C3027 O3007 1.256 . S
C3027 C3020 1.500 . S
H3028 C3011 0.930 . S
H3029 C3012 0.931 . S
H3030 C3013 0.930 . S
H3031 C3014 0.930 . S
H3032 C3021 0.930 . S
H3033 C3023 0.931 . S
H3034 C3024 0.930 . S
H3035 C3025 0.930 . S
Tb3036 N3067 2.660 . S
Tb3036 N3074 2.600 . S
Tb3036 O3080 2.546 . S
Tb3036 O3081 2.610 . S
Tb3036 O3083 2.320 . S
Tb3036 O3084 2.552 . S
Tb3036 O3085 2.413 . S
Tb3036 O3087 2.362 . S
Tb3036 O3088 2.421 . S
Tb3036 C3100 2.833 . S
C3037 C3040 1.432 . S
C3037 C3041 1.414 . S
C3037 N3044 1.359 . S
C3038 C3040 1.417 . S
C3038 C3042 1.432 . S
C3038 C3050 1.410 . S
C3039 C3041 1.444 . S
C3039 C3042 1.317 . S
C3039 H3062 0.929 . S
C3040 C3037 1.432 . S
C3040 C3038 1.417 . S
C3040 N3048 1.360 . S
C3041 C3037 1.414 . S
C3041 C3039 1.444 . S
C3041 C3046 1.385 . S
C3042 C3038 1.432 . S
C3042 C3039 1.317 . S
C3042 H3054 0.930 . S
C3043 C3045 1.392 . S
C3043 C3046 1.370 . S
C3043 H3055 0.931 . S
N3044 C3037 1.359 . S
N3044 C3045 1.327 . S
N3044 Tb3047 2.600 . S
C3045 C3043 1.392 . S
C3045 N3044 1.327 . S
C3045 H3052 0.930 . S
C3046 C3041 1.385 . S
C3046 C3043 1.370 . S
C3046 H3065 0.930 . S
Tb3047 N3044 2.600 . S
Tb3047 N3048 2.660 . S
Tb3047 O3081 2.362 . S
Tb3047 O3082 2.421 . S
Tb3047 O3086 2.546 . S
Tb3047 O3087 2.610 . S
Tb3047 O3089 2.320 . S
Tb3047 O3090 2.552 . S
Tb3047 O3091 2.413 . S
Tb3047 C3111 2.833 . S
N3048 C3040 1.360 . S
N3048 Tb3047 2.660 . S
N3048 C3049 1.305 . S
C3049 N3048 1.305 . S
C3049 C3051 1.407 . S
C3049 H3056 0.930 . S
C3050 C3038 1.410 . S
C3050 C3051 1.345 . S
C3050 H3058 0.930 . S
C3051 C3049 1.407 . S
C3051 C3050 1.345 . S
C3051 H3053 0.930 . S
H3052 C3045 0.930 . S
H3053 C3051 0.930 . S
H3054 C3042 0.930 . S
H3055 C3043 0.931 . S
H3056 C3049 0.930 . S
H3057 C3071 0.930 . S
H3058 C3050 0.930 . S
H3059 C3077 0.930 . S
H3060 C3068 0.930 . S
H3061 C3075 0.931 . S
H3062 C3039 0.929 . S
H3063 C3069 0.930 . S
H3064 C3102 0.930 . S
H3065 C3046 0.930 . S
H3066 C3101 0.929 . S
N3067 Tb3036 2.660 . S
N3067 C3068 1.305 . S
N3067 C3072 1.360 . S
C3068 H3060 0.930 . S
C3068 N3067 1.305 . S
C3068 C3071 1.407 . S
C3069 H3063 0.930 . S
C3069 C3070 1.410 . S
C3069 C3071 1.345 . S
C3070 C3069 1.410 . S
C3070 C3072 1.417 . S
C3070 C3102 1.432 . S
C3071 H3057 0.930 . S
C3071 C3068 1.407 . S
C3071 C3069 1.345 . S
C3072 N3067 1.360 . S
C3072 C3070 1.417 . S
C3072 C3076 1.432 . S
H3073 C3078 0.930 . S
N3074 Tb3036 2.600 . S
N3074 C3076 1.359 . S
N3074 C3077 1.327 . S
C3075 H3061 0.931 . S
C3075 C3077 1.392 . S
C3075 C3078 1.370 . S
C3076 C3072 1.432 . S
C3076 N3074 1.359 . S
C3076 C3079 1.414 . S
C3077 H3059 0.930 . S
C3077 N3074 1.327 . S
C3077 C3075 1.392 . S
C3078 H3073 0.930 . S
C3078 C3075 1.370 . S
C3078 C3079 1.385 . S
C3079 C3076 1.414 . S
C3079 C3078 1.385 . S
C3079 C3101 1.444 . S
O3080 Tb3036 2.546 . S
O3080 C3100 1.251 . S
O3081 Tb3036 2.610 . S
O3081 Tb3047 2.362 . S
O3081 C3092 1.283 . S
O3082 Tb3047 2.421 . S
O3082 C3099 1.262 . S
O3083 Tb3036 2.320 . S
O3083 C3099 1.260 . S
O3084 Tb3036 2.552 . S
O3084 C3092 1.243 . S
O3085 Tb3036 2.413 . S
O3085 C3100 1.256 . S
O3086 Tb3047 2.546 . S
O3086 C3111 1.251 . S
O3087 Tb3036 2.362 . S
O3087 Tb3047 2.610 . S
O3087 C3103 1.283 . S
O3088 Tb3036 2.421 . S
O3088 C3110 1.262 . S
O3089 Tb3047 2.320 . S
O3089 C3110 1.260 . S
O3090 Tb3047 2.552 . S
O3090 C3103 1.243 . S
O3091 Tb3047 2.413 . S
O3091 C3111 1.256 . S
C3092 O3081 1.283 . S
C3092 O3084 1.243 . S
C3093 C3095 1.382 . S
C3093 C3097 1.393 . S
C3093 C3100 1.500 . S
C3094 C3095 1.400 . S
C3094 C3096 1.384 . S
C3095 C3093 1.382 . S
C3095 C3094 1.400 . S
C3095 H3112 0.930 . S
C3096 C3094 1.384 . S
C3096 C3098 1.392 . S
C3096 H3113 0.931 . S
C3097 C3093 1.393 . S
C3097 C3098 1.401 . S
C3097 H3114 0.930 . S
C3098 C3096 1.392 . S
C3098 C3097 1.401 . S
C3098 H3115 0.930 . S
C3099 O3082 1.262 . S
C3099 O3083 1.260 . S
C3100 Tb3036 2.833 . S
C3100 O3080 1.251 . S
C3100 O3085 1.256 . S
C3100 C3093 1.500 . S
C3101 H3066 0.929 . S
C3101 C3079 1.444 . S
C3101 C3102 1.317 . S
C3102 H3064 0.930 . S
C3102 C3070 1.432 . S
C3102 C3101 1.317 . S
C3103 O3087 1.283 . S
C3103 O3090 1.243 . S
C3104 C3105 1.382 . S
C3104 C3108 1.393 . S
C3104 C3111 1.500 . S
C3105 C3104 1.382 . S
C3105 C3106 1.400 . S
C3105 H3116 0.930 . S
C3106 C3105 1.400 . S
C3106 C3107 1.384 . S
C3107 C3106 1.384 . S
C3107 C3109 1.392 . S
C3107 H3117 0.931 . S
C3108 C3104 1.393 . S
C3108 C3109 1.401 . S
C3108 H3118 0.930 . S
C3109 C3107 1.392 . S
C3109 C3108 1.401 . S
C3109 H3119 0.930 . S
C3110 O3088 1.262 . S
C3110 O3089 1.260 . S
C3111 Tb3047 2.833 . S
C3111 O3086 1.251 . S
C3111 O3091 1.256 . S
C3111 C3104 1.500 . S
H3112 C3095 0.930 . S
H3113 C3096 0.931 . S
H3114 C3097 0.930 . S
H3115 C3098 0.930 . S
H3116 C3105 0.930 . S
H3117 C3107 0.931 . S
H3118 C3108 0.930 . S
H3119 C3109 0.930 . S
Tb3120 N3151 2.660 . S
Tb3120 N3158 2.600 . S
Tb3120 O3164 2.546 . S
Tb3120 O3165 2.610 . S
Tb3120 O3167 2.320 . S
Tb3120 O3168 2.552 . S
Tb3120 O3169 2.413 . S
Tb3120 O3171 2.362 . S
Tb3120 O3172 2.421 . S
Tb3120 C3184 2.833 . S
C3121 C3124 1.432 . S
C3121 C3125 1.414 . S
C3121 N3128 1.359 . S
C3122 C3124 1.417 . S
C3122 C3126 1.432 . S
C3122 C3134 1.410 . S
C3123 C3125 1.444 . S
C3123 C3126 1.317 . S
C3123 H3146 0.929 . S
C3124 C3121 1.432 . S
C3124 C3122 1.417 . S
C3124 N3132 1.360 . S
C3125 C3121 1.414 . S
C3125 C3123 1.444 . S
C3125 C3130 1.385 . S
C3126 C3122 1.432 . S
C3126 C3123 1.317 . S
C3126 H3138 0.930 . S
C3127 C3129 1.392 . S
C3127 C3130 1.370 . S
C3127 H3139 0.931 . S
N3128 C3121 1.359 . S
N3128 C3129 1.327 . S
N3128 Tb3131 2.600 . S
C3129 C3127 1.392 . S
C3129 N3128 1.327 . S
C3129 H3136 0.930 . S
C3130 C3125 1.385 . S
C3130 C3127 1.370 . S
C3130 H3149 0.930 . S
Tb3131 N3128 2.600 . S
Tb3131 N3132 2.660 . S
Tb3131 O3165 2.362 . S
Tb3131 O3166 2.421 . S
Tb3131 O3170 2.546 . S
Tb3131 O3171 2.610 . S
Tb3131 O3173 2.320 . S
Tb3131 O3174 2.552 . S
Tb3131 O3175 2.413 . S
Tb3131 C3195 2.833 . S
N3132 C3124 1.360 . S
N3132 Tb3131 2.660 . S
N3132 C3133 1.305 . S
C3133 N3132 1.305 . S
C3133 C3135 1.407 . S
C3133 H3140 0.930 . S
C3134 C3122 1.410 . S
C3134 C3135 1.345 . S
C3134 H3142 0.930 . S
C3135 C3133 1.407 . S
C3135 C3134 1.345 . S
C3135 H3137 0.930 . S
H3136 C3129 0.930 . S
H3137 C3135 0.930 . S
H3138 C3126 0.930 . S
H3139 C3127 0.931 . S
H3140 C3133 0.930 . S
H3141 C3155 0.930 . S
H3142 C3134 0.930 . S
H3143 C3161 0.930 . S
H3144 C3152 0.930 . S
H3145 C3159 0.931 . S
H3146 C3123 0.929 . S
H3147 C3153 0.930 . S
H3148 C3186 0.930 . S
H3149 C3130 0.930 . S
H3150 C3185 0.929 . S
N3151 Tb3120 2.660 . S
N3151 C3152 1.305 . S
N3151 C3156 1.360 . S
C3152 H3144 0.930 . S
C3152 N3151 1.305 . S
C3152 C3155 1.407 . S
C3153 H3147 0.930 . S
C3153 C3154 1.410 . S
C3153 C3155 1.345 . S
C3154 C3153 1.410 . S
C3154 C3156 1.417 . S
C3154 C3186 1.432 . S
C3155 H3141 0.930 . S
C3155 C3152 1.407 . S
C3155 C3153 1.345 . S
C3156 N3151 1.360 . S
C3156 C3154 1.417 . S
C3156 C3160 1.432 . S
H3157 C3162 0.930 . S
N3158 Tb3120 2.600 . S
N3158 C3160 1.359 . S
N3158 C3161 1.327 . S
C3159 H3145 0.931 . S
C3159 C3161 1.392 . S
C3159 C3162 1.370 . S
C3160 C3156 1.432 . S
C3160 N3158 1.359 . S
C3160 C3163 1.414 . S
C3161 H3143 0.930 . S
C3161 N3158 1.327 . S
C3161 C3159 1.392 . S
C3162 H3157 0.930 . S
C3162 C3159 1.370 . S
C3162 C3163 1.385 . S
C3163 C3160 1.414 . S
C3163 C3162 1.385 . S
C3163 C3185 1.444 . S
O3164 Tb3120 2.546 . S
O3164 C3184 1.251 . S
O3165 Tb3120 2.610 . S
O3165 Tb3131 2.362 . S
O3165 C3176 1.283 . S
O3166 Tb3131 2.421 . S
O3166 C3183 1.262 . S
O3167 Tb3120 2.320 . S
O3167 C3183 1.260 . S
O3168 Tb3120 2.552 . S
O3168 C3176 1.243 . S
O3169 Tb3120 2.413 . S
O3169 C3184 1.256 . S
O3170 Tb3131 2.546 . S
O3170 C3195 1.251 . S
O3171 Tb3120 2.362 . S
O3171 Tb3131 2.610 . S
O3171 C3187 1.283 . S
O3172 Tb3120 2.421 . S
O3172 C3194 1.262 . S
O3173 Tb3131 2.320 . S
O3173 C3194 1.260 . S
O3174 Tb3131 2.552 . S
O3174 C3187 1.243 . S
O3175 Tb3131 2.413 . S
O3175 C3195 1.256 . S
C3176 O3165 1.283 . S
C3176 O3168 1.243 . S
C3177 C3179 1.382 . S
C3177 C3181 1.393 . S
C3177 C3184 1.500 . S
C3178 C3179 1.400 . S
C3178 C3180 1.384 . S
C3179 C3177 1.382 . S
C3179 C3178 1.400 . S
C3179 H3196 0.930 . S
C3180 C3178 1.384 . S
C3180 C3182 1.392 . S
C3180 H3197 0.931 . S
C3181 C3177 1.393 . S
C3181 C3182 1.401 . S
C3181 H3198 0.930 . S
C3182 C3180 1.392 . S
C3182 C3181 1.401 . S
C3182 H3199 0.930 . S
C3183 O3166 1.262 . S
C3183 O3167 1.260 . S
C3184 Tb3120 2.833 . S
C3184 O3164 1.251 . S
C3184 O3169 1.256 . S
C3184 C3177 1.500 . S
C3185 H3150 0.929 . S
C3185 C3163 1.444 . S
C3185 C3186 1.317 . S
C3186 H3148 0.930 . S
C3186 C3154 1.432 . S
C3186 C3185 1.317 . S
C3187 O3171 1.283 . S
C3187 O3174 1.243 . S
C3188 C3189 1.382 . S
C3188 C3192 1.393 . S
C3188 C3195 1.500 . S
C3189 C3188 1.382 . S
C3189 C3190 1.400 . S
C3189 H3200 0.930 . S
C3190 C3189 1.400 . S
C3190 C3191 1.384 . S
C3191 C3190 1.384 . S
C3191 C3193 1.392 . S
C3191 H3201 0.931 . S
C3192 C3188 1.393 . S
C3192 C3193 1.401 . S
C3192 H3202 0.930 . S
C3193 C3191 1.392 . S
C3193 C3192 1.401 . S
C3193 H3203 0.930 . S
C3194 O3172 1.262 . S
C3194 O3173 1.260 . S
C3195 Tb3131 2.833 . S
C3195 O3170 1.251 . S
C3195 O3175 1.256 . S
C3195 C3188 1.500 . S
H3196 C3179 0.930 . S
H3197 C3180 0.931 . S
H3198 C3181 0.930 . S
H3199 C3182 0.930 . S
H3200 C3189 0.930 . S
H3201 C3191 0.931 . S
H3202 C3192 0.930 . S
H3203 C3193 0.930 . S
Tb3204 N3235 2.660 . S
Tb3204 N3242 2.600 . S
Tb3204 O3248 2.546 . S
Tb3204 O3249 2.610 . S
Tb3204 O3251 2.320 . S
Tb3204 O3252 2.552 . S
Tb3204 O3253 2.413 . S
Tb3204 O3255 2.362 . S
Tb3204 O3256 2.421 . S
Tb3204 C3268 2.833 . S
C3205 C3208 1.432 . S
C3205 C3209 1.414 . S
C3205 N3212 1.359 . S
C3206 C3208 1.417 . S
C3206 C3210 1.432 . S
C3206 C3218 1.410 . S
C3207 C3209 1.444 . S
C3207 C3210 1.317 . S
C3207 H3230 0.929 . S
C3208 C3205 1.432 . S
C3208 C3206 1.417 . S
C3208 N3216 1.360 . S
C3209 C3205 1.414 . S
C3209 C3207 1.444 . S
C3209 C3214 1.385 . S
C3210 C3206 1.432 . S
C3210 C3207 1.317 . S
C3210 H3222 0.930 . S
C3211 C3213 1.392 . S
C3211 C3214 1.370 . S
C3211 H3223 0.931 . S
N3212 C3205 1.359 . S
N3212 C3213 1.327 . S
N3212 Tb3215 2.600 . S
C3213 C3211 1.392 . S
C3213 N3212 1.327 . S
C3213 H3220 0.930 . S
C3214 C3209 1.385 . S
C3214 C3211 1.370 . S
C3214 H3233 0.930 . S
Tb3215 N3212 2.600 . S
Tb3215 N3216 2.660 . S
Tb3215 O3249 2.362 . S
Tb3215 O3250 2.421 . S
Tb3215 O3254 2.546 . S
Tb3215 O3255 2.610 . S
Tb3215 O3257 2.320 . S
Tb3215 O3258 2.552 . S
Tb3215 O3259 2.413 . S
Tb3215 C3279 2.833 . S
N3216 C3208 1.360 . S
N3216 Tb3215 2.660 . S
N3216 C3217 1.305 . S
C3217 N3216 1.305 . S
C3217 C3219 1.407 . S
C3217 H3224 0.930 . S
C3218 C3206 1.410 . S
C3218 C3219 1.345 . S
C3218 H3226 0.930 . S
C3219 C3217 1.407 . S
C3219 C3218 1.345 . S
C3219 H3221 0.930 . S
H3220 C3213 0.930 . S
H3221 C3219 0.930 . S
H3222 C3210 0.930 . S
H3223 C3211 0.931 . S
H3224 C3217 0.930 . S
H3225 C3239 0.930 . S
H3226 C3218 0.930 . S
H3227 C3245 0.930 . S
H3228 C3236 0.930 . S
H3229 C3243 0.931 . S
H3230 C3207 0.929 . S
H3231 C3237 0.930 . S
H3232 C3270 0.930 . S
H3233 C3214 0.930 . S
H3234 C3269 0.929 . S
N3235 Tb3204 2.660 . S
N3235 C3236 1.305 . S
N3235 C3240 1.360 . S
C3236 H3228 0.930 . S
C3236 N3235 1.305 . S
C3236 C3239 1.407 . S
C3237 H3231 0.930 . S
C3237 C3238 1.410 . S
C3237 C3239 1.345 . S
C3238 C3237 1.410 . S
C3238 C3240 1.417 . S
C3238 C3270 1.432 . S
C3239 H3225 0.930 . S
C3239 C3236 1.407 . S
C3239 C3237 1.345 . S
C3240 N3235 1.360 . S
C3240 C3238 1.417 . S
C3240 C3244 1.432 . S
H3241 C3246 0.930 . S
N3242 Tb3204 2.600 . S
N3242 C3244 1.359 . S
N3242 C3245 1.327 . S
C3243 H3229 0.931 . S
C3243 C3245 1.392 . S
C3243 C3246 1.370 . S
C3244 C3240 1.432 . S
C3244 N3242 1.359 . S
C3244 C3247 1.414 . S
C3245 H3227 0.930 . S
C3245 N3242 1.327 . S
C3245 C3243 1.392 . S
C3246 H3241 0.930 . S
C3246 C3243 1.370 . S
C3246 C3247 1.385 . S
C3247 C3244 1.414 . S
C3247 C3246 1.385 . S
C3247 C3269 1.444 . S
O3248 Tb3204 2.546 . S
O3248 C3268 1.251 . S
O3249 Tb3204 2.610 . S
O3249 Tb3215 2.362 . S
O3249 C3260 1.283 . S
O3250 Tb3215 2.421 . S
O3250 C3267 1.262 . S
O3251 Tb3204 2.320 . S
O3251 C3267 1.260 . S
O3252 Tb3204 2.552 . S
O3252 C3260 1.243 . S
O3253 Tb3204 2.413 . S
O3253 C3268 1.256 . S
O3254 Tb3215 2.546 . S
O3254 C3279 1.251 . S
O3255 Tb3204 2.362 . S
O3255 Tb3215 2.610 . S
O3255 C3271 1.283 . S
O3256 Tb3204 2.421 . S
O3256 C3278 1.262 . S
O3257 Tb3215 2.320 . S
O3257 C3278 1.260 . S
O3258 Tb3215 2.552 . S
O3258 C3271 1.243 . S
O3259 Tb3215 2.413 . S
O3259 C3279 1.256 . S
C3260 O3249 1.283 . S
C3260 O3252 1.243 . S
C3261 C3263 1.382 . S
C3261 C3265 1.393 . S
C3261 C3268 1.500 . S
C3262 C3263 1.400 . S
C3262 C3264 1.384 . S
C3263 C3261 1.382 . S
C3263 C3262 1.400 . S
C3263 H3280 0.930 . S
C3264 C3262 1.384 . S
C3264 C3266 1.392 . S
C3264 H3281 0.931 . S
C3265 C3261 1.393 . S
C3265 C3266 1.401 . S
C3265 H3282 0.930 . S
C3266 C3264 1.392 . S
C3266 C3265 1.401 . S
C3266 H3283 0.930 . S
C3267 O3250 1.262 . S
C3267 O3251 1.260 . S
C3268 Tb3204 2.833 . S
C3268 O3248 1.251 . S
C3268 O3253 1.256 . S
C3268 C3261 1.500 . S
C3269 H3234 0.929 . S
C3269 C3247 1.444 . S
C3269 C3270 1.317 . S
C3270 H3232 0.930 . S
C3270 C3238 1.432 . S
C3270 C3269 1.317 . S
C3271 O3255 1.283 . S
C3271 O3258 1.243 . S
C3272 C3273 1.382 . S
C3272 C3276 1.393 . S
C3272 C3279 1.500 . S
C3273 C3272 1.382 . S
C3273 C3274 1.400 . S
C3273 H3284 0.930 . S
C3274 C3273 1.400 . S
C3274 C3275 1.384 . S
C3275 C3274 1.384 . S
C3275 C3277 1.392 . S
C3275 H3285 0.931 . S
C3276 C3272 1.393 . S
C3276 C3277 1.401 . S
C3276 H3286 0.930 . S
C3277 C3275 1.392 . S
C3277 C3276 1.401 . S
C3277 H3287 0.930 . S
C3278 O3256 1.262 . S
C3278 O3257 1.260 . S
C3279 Tb3215 2.833 . S
C3279 O3254 1.251 . S
C3279 O3259 1.256 . S
C3279 C3272 1.500 . S
H3280 C3263 0.930 . S
H3281 C3264 0.931 . S
H3282 C3265 0.930 . S
H3283 C3266 0.930 . S
H3284 C3273 0.930 . S
H3285 C3275 0.931 . S
H3286 C3276 0.930 . S
H3287 C3277 0.930 . S
Tb3288 N3319 2.660 . S
Tb3288 N3326 2.600 . S
Tb3288 O3332 2.546 . S
Tb3288 O3333 2.610 . S
Tb3288 O3335 2.320 . S
Tb3288 O3336 2.552 . S
Tb3288 O3337 2.413 . S
Tb3288 O3339 2.362 . S
Tb3288 O3340 2.421 . S
Tb3288 C3352 2.833 . S
C3289 C3292 1.432 . S
C3289 C3293 1.414 . S
C3289 N3296 1.359 . S
C3290 C3292 1.417 . S
C3290 C3294 1.432 . S
C3290 C3302 1.410 . S
C3291 C3293 1.444 . S
C3291 C3294 1.317 . S
C3291 H3314 0.929 . S
C3292 C3289 1.432 . S
C3292 C3290 1.417 . S
C3292 N3300 1.360 . S
C3293 C3289 1.414 . S
C3293 C3291 1.444 . S
C3293 C3298 1.385 . S
C3294 C3290 1.432 . S
C3294 C3291 1.317 . S
C3294 H3306 0.930 . S
C3295 C3297 1.392 . S
C3295 C3298 1.370 . S
C3295 H3307 0.931 . S
N3296 C3289 1.359 . S
N3296 C3297 1.327 . S
N3296 Tb3299 2.600 . S
C3297 C3295 1.392 . S
C3297 N3296 1.327 . S
C3297 H3304 0.930 . S
C3298 C3293 1.385 . S
C3298 C3295 1.370 . S
C3298 H3317 0.930 . S
Tb3299 N3296 2.600 . S
Tb3299 N3300 2.660 . S
Tb3299 O3333 2.362 . S
Tb3299 O3334 2.421 . S
Tb3299 O3338 2.546 . S
Tb3299 O3339 2.610 . S
Tb3299 O3341 2.320 . S
Tb3299 O3342 2.552 . S
Tb3299 O3343 2.413 . S
Tb3299 C3363 2.833 . S
N3300 C3292 1.360 . S
N3300 Tb3299 2.660 . S
N3300 C3301 1.305 . S
C3301 N3300 1.305 . S
C3301 C3303 1.407 . S
C3301 H3308 0.930 . S
C3302 C3290 1.410 . S
C3302 C3303 1.345 . S
C3302 H3310 0.930 . S
C3303 C3301 1.407 . S
C3303 C3302 1.345 . S
C3303 H3305 0.930 . S
H3304 C3297 0.930 . S
H3305 C3303 0.930 . S
H3306 C3294 0.930 . S
H3307 C3295 0.931 . S
H3308 C3301 0.930 . S
H3309 C3323 0.930 . S
H3310 C3302 0.930 . S
H3311 C3329 0.930 . S
H3312 C3320 0.930 . S
H3313 C3327 0.931 . S
H3314 C3291 0.929 . S
H3315 C3321 0.930 . S
H3316 C3354 0.930 . S
H3317 C3298 0.930 . S
H3318 C3353 0.929 . S
N3319 Tb3288 2.660 . S
N3319 C3320 1.305 . S
N3319 C3324 1.360 . S
C3320 H3312 0.930 . S
C3320 N3319 1.305 . S
C3320 C3323 1.407 . S
C3321 H3315 0.930 . S
C3321 C3322 1.410 . S
C3321 C3323 1.345 . S
C3322 C3321 1.410 . S
C3322 C3324 1.417 . S
C3322 C3354 1.432 . S
C3323 H3309 0.930 . S
C3323 C3320 1.407 . S
C3323 C3321 1.345 . S
C3324 N3319 1.360 . S
C3324 C3322 1.417 . S
C3324 C3328 1.432 . S
H3325 C3330 0.930 . S
N3326 Tb3288 2.600 . S
N3326 C3328 1.359 . S
N3326 C3329 1.327 . S
C3327 H3313 0.931 . S
C3327 C3329 1.392 . S
C3327 C3330 1.370 . S
C3328 C3324 1.432 . S
C3328 N3326 1.359 . S
C3328 C3331 1.414 . S
C3329 H3311 0.930 . S
C3329 N3326 1.327 . S
C3329 C3327 1.392 . S
C3330 H3325 0.930 . S
C3330 C3327 1.370 . S
C3330 C3331 1.385 . S
C3331 C3328 1.414 . S
C3331 C3330 1.385 . S
C3331 C3353 1.444 . S
O3332 Tb3288 2.546 . S
O3332 C3352 1.251 . S
O3333 Tb3288 2.610 . S
O3333 Tb3299 2.362 . S
O3333 C3344 1.283 . S
O3334 Tb3299 2.421 . S
O3334 C3351 1.262 . S
O3335 Tb3288 2.320 . S
O3335 C3351 1.260 . S
O3336 Tb3288 2.552 . S
O3336 C3344 1.243 . S
O3337 Tb3288 2.413 . S
O3337 C3352 1.256 . S
O3338 Tb3299 2.546 . S
O3338 C3363 1.251 . S
O3339 Tb3288 2.362 . S
O3339 Tb3299 2.610 . S
O3339 C3355 1.283 . S
O3340 Tb3288 2.421 . S
O3340 C3362 1.262 . S
O3341 Tb3299 2.320 . S
O3341 C3362 1.260 . S
O3342 Tb3299 2.552 . S
O3342 C3355 1.243 . S
O3343 Tb3299 2.413 . S
O3343 C3363 1.256 . S
C3344 O3333 1.283 . S
C3344 O3336 1.243 . S
C3345 C3347 1.382 . S
C3345 C3349 1.393 . S
C3345 C3352 1.500 . S
C3346 C3347 1.400 . S
C3346 C3348 1.384 . S
C3347 C3345 1.382 . S
C3347 C3346 1.400 . S
C3347 H3364 0.930 . S
C3348 C3346 1.384 . S
C3348 C3350 1.392 . S
C3348 H3365 0.931 . S
C3349 C3345 1.393 . S
C3349 C3350 1.401 . S
C3349 H3366 0.930 . S
C3350 C3348 1.392 . S
C3350 C3349 1.401 . S
C3350 H3367 0.930 . S
C3351 O3334 1.262 . S
C3351 O3335 1.260 . S
C3352 Tb3288 2.833 . S
C3352 O3332 1.251 . S
C3352 O3337 1.256 . S
C3352 C3345 1.500 . S
C3353 H3318 0.929 . S
C3353 C3331 1.444 . S
C3353 C3354 1.317 . S
C3354 H3316 0.930 . S
C3354 C3322 1.432 . S
C3354 C3353 1.317 . S
C3355 O3339 1.283 . S
C3355 O3342 1.243 . S
C3356 C3357 1.382 . S
C3356 C3360 1.393 . S
C3356 C3363 1.500 . S
C3357 C3356 1.382 . S
C3357 C3358 1.400 . S
C3357 H3368 0.930 . S
C3358 C3357 1.400 . S
C3358 C3359 1.384 . S
C3359 C3358 1.384 . S
C3359 C3361 1.392 . S
C3359 H3369 0.931 . S
C3360 C3356 1.393 . S
C3360 C3361 1.401 . S
C3360 H3370 0.930 . S
C3361 C3359 1.392 . S
C3361 C3360 1.401 . S
C3361 H3371 0.930 . S
C3362 O3340 1.262 . S
C3362 O3341 1.260 . S
C3363 Tb3299 2.833 . S
C3363 O3338 1.251 . S
C3363 O3343 1.256 . S
C3363 C3356 1.500 . S
H3364 C3347 0.930 . S
H3365 C3348 0.931 . S
H3366 C3349 0.930 . S
H3367 C3350 0.930 . S
H3368 C3357 0.930 . S
H3369 C3359 0.931 . S
H3370 C3360 0.930 . S
H3371 C3361 0.930 . S
Tb3372 N3403 2.660 . S
Tb3372 N3410 2.600 1_554 S
Tb3372 O3416 2.546 1_554 S
Tb3372 O3417 2.610 . S
Tb3372 O3419 2.320 . S
Tb3372 O3420 2.552 . S
Tb3372 O3421 2.413 . S
Tb3372 O3423 2.362 . S
Tb3372 O3424 2.421 1_554 S
Tb3372 C3436 2.834 1_554 S
C3373 C3376 1.431 1_455 S
C3373 C3377 1.407 1_455 S
C3373 N3380 1.367 . S
C3374 C3376 1.417 . S
C3374 C3378 1.432 . S
C3374 C3386 1.410 1_554 S
C3375 C3377 1.444 . S
C3375 C3378 1.317 . S
C3375 H3398 0.929 . S
C3376 C3373 1.431 1_655 S
C3376 C3374 1.417 . S
C3376 N3384 1.360 1_655 S
C3377 C3373 1.407 1_655 S
C3377 C3375 1.444 . S
C3377 C3382 1.385 . S
C3378 C3374 1.432 . S
C3378 C3375 1.317 . S
C3378 H3390 0.930 . S
C3379 C3381 1.392 . S
C3379 C3382 1.370 1_455 S
C3379 H3391 0.931 . S
N3380 C3373 1.367 . S
N3380 C3381 1.327 . S
N3380 Tb3383 2.600 . S
C3381 C3379 1.392 . S
C3381 N3380 1.327 . S
C3381 H3388 0.930 . S
C3382 C3377 1.385 . S
C3382 C3379 1.370 1_655 S
C3382 H3401 0.930 . S
Tb3383 N3380 2.600 . S
Tb3383 N3384 2.660 . S
Tb3383 O3417 2.362 . S
Tb3383 O3418 2.421 . S
Tb3383 O3422 2.546 . S
Tb3383 O3423 2.610 . S
Tb3383 O3425 2.316 1_554 S
Tb3383 O3426 2.552 . S
Tb3383 O3427 2.346 1_455 S
Tb3383 C3447 2.833 1_455 S
N3384 C3376 1.360 1_455 S
N3384 Tb3383 2.660 . S
N3384 C3385 1.305 1_554 S
C3385 N3384 1.305 1_556 S
C3385 C3387 1.407 1_455 S
C3385 H3392 0.930 . S
C3386 C3374 1.410 1_556 S
C3386 C3387 1.345 . S
C3386 H3394 0.930 . S
C3387 C3385 1.407 1_655 S
C3387 C3386 1.345 . S
C3387 H3389 0.930 . S
H3388 C3381 0.930 . S
H3389 C3387 0.930 . S
H3390 C3378 0.930 . S
H3391 C3379 0.931 . S
H3392 C3385 0.930 . S
H3393 C3407 0.930 . S
H3394 C3386 0.930 . S
H3395 C3413 0.930 . S
H3396 C3404 0.930 . S
H3397 C3411 0.931 . S
H3398 C3375 0.929 . S
H3399 C3405 0.930 . S
H3400 C3438 0.930 . S
H3401 C3382 0.930 . S
H3402 C3437 0.929 . S
N3403 Tb3372 2.660 . S
N3403 C3404 1.305 . S
N3403 C3408 1.360 . S
C3404 H3396 0.930 . S
C3404 N3403 1.305 . S
C3404 C3407 1.407 . S
C3405 H3399 0.930 . S
C3405 C3406 1.410 . S
C3405 C3407 1.345 . S
C3406 C3405 1.410 . S
C3406 C3408 1.417 . S
C3406 C3438 1.432 . S
C3407 H3393 0.930 . S
C3407 C3404 1.407 . S
C3407 C3405 1.345 . S
C3408 N3403 1.360 . S
C3408 C3406 1.417 . S
C3408 C3412 1.432 1_554 S
H3409 C3414 0.930 . S
N3410 Tb3372 2.600 1_556 S
N3410 C3412 1.359 . S
N3410 C3413 1.327 . S
C3411 H3397 0.931 . S
C3411 C3413 1.392 . S
C3411 C3414 1.370 . S
C3412 C3408 1.432 1_556 S
C3412 N3410 1.359 . S
C3412 C3415 1.414 . S
C3413 H3395 0.930 . S
C3413 N3410 1.327 . S
C3413 C3411 1.392 . S
C3414 H3409 0.930 . S
C3414 C3411 1.370 . S
C3414 C3415 1.385 . S
C3415 C3412 1.414 . S
C3415 C3414 1.385 . S
C3415 C3437 1.444 . S
O3416 Tb3372 2.546 1_556 S
O3416 C3436 1.248 . S
O3417 Tb3372 2.610 . S
O3417 Tb3383 2.362 . S
O3417 C3428 1.283 . S
O3418 Tb3383 2.421 . S
O3418 C3435 1.262 . S
O3419 Tb3372 2.320 . S
O3419 C3435 1.260 . S
O3420 Tb3372 2.552 . S
O3420 C3428 1.243 . S
O3421 Tb3372 2.413 . S
O3421 C3436 1.259 1_554 S
O3422 Tb3383 2.546 . S
O3422 C3447 1.251 1_455 S
O3423 Tb3372 2.362 . S
O3423 Tb3383 2.610 . S
O3423 C3439 1.283 . S
O3424 Tb3372 2.421 1_556 S
O3424 C3446 1.262 . S
O3425 Tb3383 2.316 1_556 S
O3425 C3446 1.263 . S
O3426 Tb3383 2.552 . S
O3426 C3439 1.243 . S
O3427 Tb3383 2.346 1_655 S
O3427 C3447 1.276 . S
C3428 O3417 1.283 . S
C3428 O3420 1.243 . S
C3429 C3431 1.382 1_556 S
C3429 C3433 1.393 . S
C3429 C3436 1.499 . S
C3430 C3431 1.400 . S
C3430 C3432 1.384 1_554 S
C3431 C3429 1.382 1_554 S
C3431 C3430 1.400 . S
C3431 H3448 0.930 . S
C3432 C3430 1.384 1_556 S
C3432 C3434 1.392 . S
C3432 H3449 0.931 . S
C3433 C3429 1.393 . S
C3433 C3434 1.401 . S
C3433 H3450 0.930 . S
C3434 C3432 1.392 . S
C3434 C3433 1.401 . S
C3434 H3451 0.930 . S
C3435 O3418 1.262 . S
C3435 O3419 1.260 . S
C3436 Tb3372 2.834 1_556 S
C3436 O3416 1.248 . S
C3436 O3421 1.259 1_556 S
C3436 C3429 1.499 . S
C3437 H3402 0.929 . S
C3437 C3415 1.444 . S
C3437 C3438 1.317 1_556 S
C3438 H3400 0.930 . S
C3438 C3406 1.432 . S
C3438 C3437 1.317 1_554 S
C3439 O3423 1.283 . S
C3439 O3426 1.243 . S
C3440 C3441 1.382 . S
C3440 C3444 1.393 . S
C3440 C3447 1.500 . S
C3441 C3440 1.382 . S
C3441 C3442 1.400 . S
C3441 H3452 0.930 . S
C3442 C3441 1.400 . S
C3442 C3443 1.384 . S
C3443 C3442 1.384 . S
C3443 C3445 1.392 . S
C3443 H3453 0.931 . S
C3444 C3440 1.393 . S
C3444 C3445 1.401 . S
C3444 H3454 0.930 . S
C3445 C3443 1.392 . S
C3445 C3444 1.401 . S
C3445 H3455 0.930 . S
C3446 O3424 1.262 . S
C3446 O3425 1.263 . S
C3447 Tb3383 2.833 1_655 S
C3447 O3422 1.251 1_655 S
C3447 O3427 1.276 . S
C3447 C3440 1.500 . S
H3448 C3431 0.930 . S
H3449 C3432 0.931 . S
H3450 C3433 0.930 . S
H3451 C3434 0.930 . S
H3452 C3441 0.930 . S
H3453 C3443 0.931 . S
H3454 C3444 0.930 . S
H3455 C3445 0.930 . S
H3456 C3474 0.951 . S
H3457 C3476 0.951 . S
H3458 C3478 0.950 . S
H3459 C3479 0.950 1_554 S
H3460 C3481 0.950 . S
H3461 C3484 0.950 1_554 S
H3462 C3485 0.950 . S
H3463 C3487 0.950 . S
H3464 C3488 0.950 . S
H3465 C3489 0.951 . S
H3466 C3491 0.951 . S
H3467 C3493 0.950 . S
H3468 C3494 0.950 . S
H3469 C3496 0.950 . S
H3470 C3499 0.950 1_556 S
H3471 C3500 0.956 . S
H3472 C3502 0.950 . S
H3473 C3503 0.950 . S
C3474 H3456 0.951 . S
C3474 C3475 1.366 . S
C3474 C3476 1.388 . S
C3475 C3474 1.366 . S
C3475 C3479 1.385 . S
C3476 H3457 0.951 . S
C3476 C3474 1.388 . S
C3476 C3477 1.366 . S
C3477 C3476 1.366 . S
C3477 C3478 1.414 1_556 S
C3477 C3480 1.499 . S
C3478 H3458 0.950 . S
C3478 C3477 1.414 1_554 S
C3478 C3479 1.374 1_554 S
C3479 H3459 0.950 1_556 S
C3479 C3475 1.385 . S
C3479 C3478 1.374 1_556 S
C3480 C3477 1.499 . S
C3480 C3481 1.373 1_556 S
C3480 C3482 1.389 . S
C3481 H3460 0.950 . S
C3481 C3480 1.373 1_554 S
C3481 C3497 1.377 . S
C3482 C3480 1.389 . S
C3482 C3483 1.524 1_455 S
C3482 C3496 1.377 . S
C3483 C3482 1.524 1_655 S
C3483 C3484 1.397 . S
C3483 C3488 1.363 . S
C3484 H3461 0.950 1_556 S
C3484 C3483 1.397 . S
C3484 C3485 1.334 . S
C3485 H3462 0.950 . S
C3485 C3484 1.334 . S
C3485 C3486 1.287 . S
C3486 C3485 1.287 . S
C3486 C3487 1.524 . S
C3486 H3505 0.913 . S
C3487 H3463 0.950 . S
C3487 C3486 1.524 . S
C3487 C3488 1.415 . S
C3488 H3464 0.950 . S
C3488 C3483 1.363 . S
C3488 C3487 1.415 . S
C3489 H3465 0.951 . S
C3489 C3490 1.366 . S
C3489 C3491 1.388 . S
C3490 C3489 1.366 . S
C3490 C3494 1.385 1_554 S
C3491 H3466 0.951 . S
C3491 C3489 1.388 . S
C3491 C3492 1.366 . S
C3492 C3491 1.366 . S
C3492 C3493 1.414 1_554 S
C3492 C3495 1.531 . S
C3493 H3467 0.950 . S
C3493 C3492 1.414 1_556 S
C3493 C3494 1.374 . S
C3494 H3468 0.950 . S
C3494 C3490 1.385 1_556 S
C3494 C3493 1.374 . S
C3495 C3492 1.531 . S
C3495 C3496 1.347 1_554 S
C3495 C3497 1.393 . S
C3496 H3469 0.950 . S
C3496 C3482 1.377 . S
C3496 C3495 1.347 1_556 S
C3497 C3481 1.377 . S
C3497 C3495 1.393 . S
C3497 C3498 1.524 . S
C3498 C3497 1.524 . S
C3498 C3499 1.397 . S
C3498 C3503 1.363 . S
C3499 H3470 0.950 1_554 S
C3499 C3498 1.397 . S
C3499 C3500 1.334 . S
C3500 H3471 0.956 . S
C3500 C3499 1.334 . S
C3500 C3501 1.287 . S
C3501 C3500 1.287 . S
C3501 C3502 1.524 . S
C3501 H3504 0.999 . S
C3502 H3472 0.950 . S
C3502 C3501 1.524 . S
C3502 C3503 1.415 . S
C3503 H3473 0.950 . S
C3503 C3498 1.363 . S
C3503 C3502 1.415 . S
H3504 C3501 0.999 . S
H3505 C3486 0.913 . S
H3506 C3524 0.951 . S
H3507 C3526 0.951 . S
H3508 C3528 0.950 . S
H3509 C3529 0.950 . S
H3510 C3531 0.950 . S
H3511 C3534 0.950 . S
H3512 C3535 0.950 . S
H3513 C3537 0.950 . S
H3514 C3538 0.950 . S
H3515 C3539 0.951 . S
H3516 C3541 0.951 . S
H3517 C3543 0.950 . S
H3518 C3544 0.950 . S
H3519 C3546 0.950 . S
H3520 C3549 0.950 . S
H3521 C3550 0.950 . S
H3522 C3552 0.950 . S
H3523 C3553 0.950 . S
C3524 H3506 0.951 . S
C3524 C3525 1.366 . S
C3524 C3526 1.388 . S
C3525 C3524 1.366 . S
C3525 C3529 1.385 . S
C3526 H3507 0.951 . S
C3526 C3524 1.388 . S
C3526 C3527 1.366 . S
C3527 C3526 1.366 . S
C3527 C3528 1.414 . S
C3527 C3530 1.499 . S
C3528 H3508 0.950 . S
C3528 C3527 1.414 . S
C3528 C3529 1.374 . S
C3529 H3509 0.950 . S
C3529 C3525 1.385 . S
C3529 C3528 1.374 . S
C3530 C3527 1.499 . S
C3530 C3531 1.373 . S
C3530 C3532 1.389 . S
C3531 H3510 0.950 . S
C3531 C3530 1.373 . S
C3531 C3547 1.377 . S
C3532 C3530 1.389 . S
C3532 C3533 1.524 . S
C3532 C3546 1.377 . S
C3533 C3532 1.524 . S
C3533 C3534 1.397 . S
C3533 C3538 1.363 . S
C3534 H3511 0.950 . S
C3534 C3533 1.397 . S
C3534 C3535 1.334 . S
C3535 H3512 0.950 . S
C3535 C3534 1.334 . S
C3535 C3536 1.287 . S
C3536 C3535 1.287 . S
C3536 C3537 1.524 . S
C3536 H3555 0.913 . S
C3537 H3513 0.950 . S
C3537 C3536 1.524 . S
C3537 C3538 1.415 . S
C3538 H3514 0.950 . S
C3538 C3533 1.363 . S
C3538 C3537 1.415 . S
C3539 H3515 0.951 . S
C3539 C3540 1.366 . S
C3539 C3541 1.388 . S
C3540 C3539 1.366 . S
C3540 C3544 1.385 . S
C3541 H3516 0.951 . S
C3541 C3539 1.388 . S
C3541 C3542 1.366 . S
C3542 C3541 1.366 . S
C3542 C3543 1.414 . S
C3542 C3545 1.499 . S
C3543 H3517 0.950 . S
C3543 C3542 1.414 . S
C3543 C3544 1.374 . S
C3544 H3518 0.950 . S
C3544 C3540 1.385 . S
C3544 C3543 1.374 . S
C3545 C3542 1.499 . S
C3545 C3546 1.373 . S
C3545 C3547 1.389 . S
C3546 H3519 0.950 . S
C3546 C3532 1.377 . S
C3546 C3545 1.373 . S
C3547 C3531 1.377 . S
C3547 C3545 1.389 . S
C3547 C3548 1.524 . S
C3548 C3547 1.524 . S
C3548 C3549 1.397 . S
C3548 C3553 1.363 . S
C3549 H3520 0.950 . S
C3549 C3548 1.397 . S
C3549 C3550 1.334 . S
C3550 H3521 0.950 . S
C3550 C3549 1.334 . S
C3550 C3551 1.287 . S
C3551 C3550 1.287 . S
C3551 C3552 1.524 . S
C3551 H3554 0.999 . S
C3552 H3522 0.950 . S
C3552 C3551 1.524 . S
C3552 C3553 1.415 . S
C3553 H3523 0.950 . S
C3553 C3548 1.363 . S
C3553 C3552 1.415 . S
H3554 C3551 0.999 . S
H3555 C3536 0.913 . S
H3556 C3574 0.951 . S
H3557 C3576 0.951 . S
H3558 C3578 0.950 . S
H3559 C3579 0.950 . S
H3560 C3581 0.950 . S
H3561 C3584 0.950 . S
H3562 C3585 0.950 . S
H3563 C3587 0.950 . S
H3564 C3588 0.950 . S
H3565 C3589 0.951 . S
H3566 C3591 0.951 . S
H3567 C3593 0.950 . S
H3568 C3594 0.950 . S
H3569 C3596 0.950 . S
H3570 C3599 0.950 . S
H3571 C3600 0.950 . S
H3572 C3602 0.950 . S
H3573 C3603 0.950 . S
C3574 H3556 0.951 . S
C3574 C3575 1.366 . S
C3574 C3576 1.388 . S
C3575 C3574 1.366 . S
C3575 C3579 1.385 . S
C3576 H3557 0.951 . S
C3576 C3574 1.388 . S
C3576 C3577 1.366 . S
C3577 C3576 1.366 . S
C3577 C3578 1.414 . S
C3577 C3580 1.499 . S
C3578 H3558 0.950 . S
C3578 C3577 1.414 . S
C3578 C3579 1.374 . S
C3579 H3559 0.950 . S
C3579 C3575 1.385 . S
C3579 C3578 1.374 . S
C3580 C3577 1.499 . S
C3580 C3581 1.373 . S
C3580 C3582 1.389 . S
C3581 H3560 0.950 . S
C3581 C3580 1.373 . S
C3581 C3597 1.377 . S
C3582 C3580 1.389 . S
C3582 C3583 1.524 . S
C3582 C3596 1.377 . S
C3583 C3582 1.524 . S
C3583 C3584 1.397 . S
C3583 C3588 1.363 . S
C3584 H3561 0.950 . S
C3584 C3583 1.397 . S
C3584 C3585 1.334 . S
C3585 H3562 0.950 . S
C3585 C3584 1.334 . S
C3585 C3586 1.287 . S
C3586 C3585 1.287 . S
C3586 C3587 1.524 . S
C3586 H3605 0.913 . S
C3587 H3563 0.950 . S
C3587 C3586 1.524 . S
C3587 C3588 1.415 . S
C3588 H3564 0.950 . S
C3588 C3583 1.363 . S
C3588 C3587 1.415 . S
C3589 H3565 0.951 . S
C3589 C3590 1.366 . S
C3589 C3591 1.388 . S
C3590 C3589 1.366 . S
C3590 C3594 1.385 . S
C3591 H3566 0.951 . S
C3591 C3589 1.388 . S
C3591 C3592 1.366 . S
C3592 C3591 1.366 . S
C3592 C3593 1.414 . S
C3592 C3595 1.499 . S
C3593 H3567 0.950 . S
C3593 C3592 1.414 . S
C3593 C3594 1.374 . S
C3594 H3568 0.950 . S
C3594 C3590 1.385 . S
C3594 C3593 1.374 . S
C3595 C3592 1.499 . S
C3595 C3596 1.373 . S
C3595 C3597 1.389 . S
C3596 H3569 0.950 . S
C3596 C3582 1.377 . S
C3596 C3595 1.373 . S
C3597 C3581 1.377 . S
C3597 C3595 1.389 . S
C3597 C3598 1.524 . S
C3598 C3597 1.524 . S
C3598 C3599 1.397 . S
C3598 C3603 1.363 . S
C3599 H3570 0.950 . S
C3599 C3598 1.397 . S
C3599 C3600 1.334 . S
C3600 H3571 0.950 . S
C3600 C3599 1.334 . S
C3600 C3601 1.287 . S
C3601 C3600 1.287 . S
C3601 C3602 1.524 . S
C3601 H3604 0.999 . S
C3602 H3572 0.950 . S
C3602 C3601 1.524 . S
C3602 C3603 1.415 . S
C3603 H3573 0.950 . S
C3603 C3598 1.363 . S
C3603 C3602 1.415 . S
H3604 C3601 0.999 . S
H3605 C3586 0.913 . S
H3606 C3624 0.951 . S
H3607 C3626 0.951 . S
H3608 C3628 0.950 . S
H3609 C3629 0.950 . S
H3610 C3631 0.950 . S
H3611 C3634 0.950 . S
H3612 C3635 0.950 . S
H3613 C3637 0.950 . S
H3614 C3638 0.950 . S
H3615 C3639 0.951 . S
H3616 C3641 0.951 . S
H3617 C3643 0.950 . S
H3618 C3644 0.950 . S
H3619 C3646 0.950 . S
H3620 C3649 0.950 . S
H3621 C3650 0.950 . S
H3622 C3652 0.950 . S
H3623 C3653 0.950 . S
C3624 H3606 0.951 . S
C3624 C3625 1.366 . S
C3624 C3626 1.388 . S
C3625 C3624 1.366 . S
C3625 C3629 1.385 . S
C3626 H3607 0.951 . S
C3626 C3624 1.388 . S
C3626 C3627 1.366 . S
C3627 C3626 1.366 . S
C3627 C3628 1.414 . S
C3627 C3630 1.499 . S
C3628 H3608 0.950 . S
C3628 C3627 1.414 . S
C3628 C3629 1.374 . S
C3629 H3609 0.950 . S
C3629 C3625 1.385 . S
C3629 C3628 1.374 . S
C3630 C3627 1.499 . S
C3630 C3631 1.373 . S
C3630 C3632 1.389 . S
C3631 H3610 0.950 . S
C3631 C3630 1.373 . S
C3631 C3647 1.377 . S
C3632 C3630 1.389 . S
C3632 C3633 1.524 . S
C3632 C3646 1.377 . S
C3633 C3632 1.524 . S
C3633 C3634 1.397 . S
C3633 C3638 1.363 . S
C3634 H3611 0.950 . S
C3634 C3633 1.397 . S
C3634 C3635 1.334 . S
C3635 H3612 0.950 . S
C3635 C3634 1.334 . S
C3635 C3636 1.287 . S
C3636 C3635 1.287 . S
C3636 C3637 1.524 . S
C3636 H3655 0.913 . S
C3637 H3613 0.950 . S
C3637 C3636 1.524 . S
C3637 C3638 1.415 . S
C3638 H3614 0.950 . S
C3638 C3633 1.363 . S
C3638 C3637 1.415 . S
C3639 H3615 0.951 . S
C3639 C3640 1.366 . S
C3639 C3641 1.388 . S
C3640 C3639 1.366 . S
C3640 C3644 1.385 . S
C3641 H3616 0.951 . S
C3641 C3639 1.388 . S
C3641 C3642 1.366 . S
C3642 C3641 1.366 . S
C3642 C3643 1.414 . S
C3642 C3645 1.499 . S
C3643 H3617 0.950 . S
C3643 C3642 1.414 . S
C3643 C3644 1.374 . S
C3644 H3618 0.950 . S
C3644 C3640 1.385 . S
C3644 C3643 1.374 . S
C3645 C3642 1.499 . S
C3645 C3646 1.373 . S
C3645 C3647 1.389 . S
C3646 H3619 0.950 . S
C3646 C3632 1.377 . S
C3646 C3645 1.373 . S
C3647 C3631 1.377 . S
C3647 C3645 1.389 . S
C3647 C3648 1.524 . S
C3648 C3647 1.524 . S
C3648 C3649 1.397 . S
C3648 C3653 1.363 . S
C3649 H3620 0.950 . S
C3649 C3648 1.397 . S
C3649 C3650 1.334 . S
C3650 H3621 0.950 . S
C3650 C3649 1.334 . S
C3650 C3651 1.287 . S
C3651 C3650 1.287 . S
C3651 C3652 1.524 . S
C3651 H3654 0.999 . S
C3652 H3622 0.950 . S
C3652 C3651 1.524 . S
C3652 C3653 1.415 . S
C3653 H3623 0.950 . S
C3653 C3648 1.363 . S
C3653 C3652 1.415 . S
H3654 C3651 0.999 . S
H3655 C3636 0.913 . S
H3656 C3674 0.951 . S
H3657 C3676 0.915 1_655 S
H3658 C3678 0.950 . S
H3659 C3679 0.950 . S
H3660 C3681 0.950 . S
H3661 C3684 0.950 1_455 S
H3662 C3685 0.950 . S
H3663 C3687 0.950 . S
H3664 C3688 0.950 . S
H3665 C3689 0.951 . S
H3666 C3691 0.951 . S
H3667 C3693 0.950 . S
H3668 C3694 0.950 . S
H3669 C3696 0.950 . S
H3670 C3699 0.950 . S
H3671 C3700 0.950 . S
H3672 C3702 0.950 . S
H3673 C3703 0.950 . S
C3674 H3656 0.951 . S
C3674 C3675 1.366 1_655 S
C3674 C3676 1.386 1_655 S
C3675 C3674 1.366 1_455 S
C3675 C3679 1.385 . S
C3676 H3657 0.915 1_455 S
C3676 C3674 1.386 1_455 S
C3676 C3677 1.404 . S
C3677 C3676 1.404 . S
C3677 C3678 1.414 . S
C3677 C3680 1.499 . S
C3678 H3658 0.950 . S
C3678 C3677 1.414 . S
C3678 C3679 1.374 . S
C3679 H3659 0.950 . S
C3679 C3675 1.385 . S
C3679 C3678 1.374 . S
C3680 C3677 1.499 . S
C3680 C3681 1.373 . S
C3680 C3682 1.389 . S
C3681 H3660 0.950 . S
C3681 C3680 1.373 . S
C3681 C3697 1.377 . S
C3682 C3680 1.389 . S
C3682 C3683 1.524 1_455 S
C3682 C3696 1.377 . S
C3683 C3682 1.524 1_655 S
C3683 C3684 1.397 . S
C3683 C3688 1.363 . S
C3684 H3661 0.950 1_655 S
C3684 C3683 1.397 . S
C3684 C3685 1.334 . S
C3685 H3662 0.950 . S
C3685 C3684 1.334 . S
C3685 C3686 1.287 . S
C3686 C3685 1.287 . S
C3686 C3687 1.524 . S
C3686 H3705 0.913 . S
C3687 H3663 0.950 . S
C3687 C3686 1.524 . S
C3687 C3688 1.415 . S
C3688 H3664 0.950 . S
C3688 C3683 1.363 . S
C3688 C3687 1.415 . S
C3689 H3665 0.951 . S
C3689 C3690 1.366 . S
C3689 C3691 1.388 . S
C3690 C3689 1.366 . S
C3690 C3694 1.385 . S
C3691 H3666 0.951 . S
C3691 C3689 1.388 . S
C3691 C3692 1.366 . S
C3692 C3691 1.366 . S
C3692 C3693 1.414 . S
C3692 C3695 1.499 . S
C3693 H3667 0.950 . S
C3693 C3692 1.414 . S
C3693 C3694 1.374 . S
C3694 H3668 0.950 . S
C3694 C3690 1.385 . S
C3694 C3693 1.374 . S
C3695 C3692 1.499 . S
C3695 C3696 1.373 . S
C3695 C3697 1.389 . S
C3696 H3669 0.950 . S
C3696 C3682 1.377 . S
C3696 C3695 1.373 . S
C3697 C3681 1.377 . S
C3697 C3695 1.389 . S
C3697 C3698 1.524 . S
C3698 C3697 1.524 . S
C3698 C3699 1.397 . S
C3698 C3703 1.363 . S
C3699 H3670 0.950 . S
C3699 C3698 1.397 . S
C3699 C3700 1.334 . S
C3700 H3671 0.950 . S
C3700 C3699 1.334 . S
C3700 C3701 1.287 . S
C3701 C3700 1.287 . S
C3701 C3702 1.524 . S
C3701 H3704 0.999 . S
C3702 H3672 0.950 . S
C3702 C3701 1.524 . S
C3702 C3703 1.415 . S
C3703 H3673 0.950 . S
C3703 C3698 1.363 . S
C3703 C3702 1.415 . S
H3704 C3701 0.999 . S
H3705 C3686 0.913 . S
H3706 C3724 0.951 . S
H3707 C3726 0.951 . S
H3708 C3728 0.950 . S
H3709 C3729 0.950 . S
H3710 C3731 0.950 . S
H3711 C3734 0.950 . S
H3712 C3735 0.950 . S
H3713 C3737 0.950 . S
H3714 C3738 0.950 . S
H3715 C3739 0.951 . S
H3716 C3741 0.951 . S
H3717 C3743 0.950 . S
H3718 C3744 0.950 . S
H3719 C3746 0.950 . S
H3720 C3749 0.950 . S
H3721 C3750 0.950 . S
H3722 C3752 0.950 . S
H3723 C3753 0.950 . S
C3724 H3706 0.951 . S
C3724 C3725 1.366 . S
C3724 C3726 1.388 . S
C3725 C3724 1.366 . S
C3725 C3729 1.385 . S
C3726 H3707 0.951 . S
C3726 C3724 1.388 . S
C3726 C3727 1.366 . S
C3727 C3726 1.366 . S
C3727 C3728 1.414 . S
C3727 C3730 1.499 . S
C3728 H3708 0.950 . S
C3728 C3727 1.414 . S
C3728 C3729 1.374 . S
C3729 H3709 0.950 . S
C3729 C3725 1.385 . S
C3729 C3728 1.374 . S
C3730 C3727 1.499 . S
C3730 C3731 1.373 . S
C3730 C3732 1.389 . S
C3731 H3710 0.950 . S
C3731 C3730 1.373 . S
C3731 C3747 1.377 . S
C3732 C3730 1.389 . S
C3732 C3733 1.524 . S
C3732 C3746 1.377 . S
C3733 C3732 1.524 . S
C3733 C3734 1.397 . S
C3733 C3738 1.363 . S
C3734 H3711 0.950 . S
C3734 C3733 1.397 . S
C3734 C3735 1.334 . S
C3735 H3712 0.950 . S
C3735 C3734 1.334 . S
C3735 C3736 1.287 . S
C3736 C3735 1.287 . S
C3736 C3737 1.524 . S
C3736 H3755 0.913 . S
C3737 H3713 0.950 . S
C3737 C3736 1.524 . S
C3737 C3738 1.415 . S
C3738 H3714 0.950 . S
C3738 C3733 1.363 . S
C3738 C3737 1.415 . S
C3739 H3715 0.951 . S
C3739 C3740 1.366 . S
C3739 C3741 1.388 . S
C3740 C3739 1.366 . S
C3740 C3744 1.385 . S
C3741 H3716 0.951 . S
C3741 C3739 1.388 . S
C3741 C3742 1.366 . S
C3742 C3741 1.366 . S
C3742 C3743 1.414 . S
C3742 C3745 1.499 . S
C3743 H3717 0.950 . S
C3743 C3742 1.414 . S
C3743 C3744 1.374 . S
C3744 H3718 0.950 . S
C3744 C3740 1.385 . S
C3744 C3743 1.374 . S
C3745 C3742 1.499 . S
C3745 C3746 1.373 . S
C3745 C3747 1.389 . S
C3746 H3719 0.950 . S
C3746 C3732 1.377 . S
C3746 C3745 1.373 . S
C3747 C3731 1.377 . S
C3747 C3745 1.389 . S
C3747 C3748 1.524 . S
C3748 C3747 1.524 . S
C3748 C3749 1.397 . S
C3748 C3753 1.363 . S
C3749 H3720 0.950 . S
C3749 C3748 1.397 . S
C3749 C3750 1.334 . S
C3750 H3721 0.950 . S
C3750 C3749 1.334 . S
C3750 C3751 1.287 . S
C3751 C3750 1.287 . S
C3751 C3752 1.524 . S
C3751 H3754 0.999 . S
C3752 H3722 0.950 . S
C3752 C3751 1.524 . S
C3752 C3753 1.415 . S
C3753 H3723 0.950 . S
C3753 C3748 1.363 . S
C3753 C3752 1.415 . S
H3754 C3751 0.999 . S
H3755 C3736 0.913 . S
H3756 C3774 0.951 . S
H3757 C3776 0.951 . S
H3758 C3778 0.950 . S
H3759 C3779 0.950 . S
H3760 C3781 0.950 . S
H3761 C3784 0.950 . S
H3762 C3785 0.950 . S
H3763 C3787 0.950 . S
H3764 C3788 0.950 . S
H3765 C3789 0.951 . S
H3766 C3791 0.951 . S
H3767 C3793 0.950 . S
H3768 C3794 0.950 . S
H3769 C3796 0.950 . S
H3770 C3799 0.950 . S
H3771 C3800 0.950 . S
H3772 C3802 0.950 . S
H3773 C3803 0.950 . S
C3774 H3756 0.951 . S
C3774 C3775 1.366 . S
C3774 C3776 1.388 . S
C3775 C3774 1.366 . S
C3775 C3779 1.385 . S
C3776 H3757 0.951 . S
C3776 C3774 1.388 . S
C3776 C3777 1.366 . S
C3777 C3776 1.366 . S
C3777 C3778 1.414 . S
C3777 C3780 1.499 . S
C3778 H3758 0.950 . S
C3778 C3777 1.414 . S
C3778 C3779 1.374 . S
C3779 H3759 0.950 . S
C3779 C3775 1.385 . S
C3779 C3778 1.374 . S
C3780 C3777 1.499 . S
C3780 C3781 1.373 . S
C3780 C3782 1.389 . S
C3781 H3760 0.950 . S
C3781 C3780 1.373 . S
C3781 C3797 1.377 . S
C3782 C3780 1.389 . S
C3782 C3783 1.524 . S
C3782 C3796 1.377 . S
C3783 C3782 1.524 . S
C3783 C3784 1.397 . S
C3783 C3788 1.363 . S
C3784 H3761 0.950 . S
C3784 C3783 1.397 . S
C3784 C3785 1.334 . S
C3785 H3762 0.950 . S
C3785 C3784 1.334 . S
C3785 C3786 1.287 . S
C3786 C3785 1.287 . S
C3786 C3787 1.524 . S
C3786 H3805 0.913 . S
C3787 H3763 0.950 . S
C3787 C3786 1.524 . S
C3787 C3788 1.415 . S
C3788 H3764 0.950 . S
C3788 C3783 1.363 . S
C3788 C3787 1.415 . S
C3789 H3765 0.951 . S
C3789 C3790 1.366 . S
C3789 C3791 1.388 . S
C3790 C3789 1.366 . S
C3790 C3794 1.385 . S
C3791 H3766 0.951 . S
C3791 C3789 1.388 . S
C3791 C3792 1.366 . S
C3792 C3791 1.366 . S
C3792 C3793 1.414 . S
C3792 C3795 1.499 . S
C3793 H3767 0.950 . S
C3793 C3792 1.414 . S
C3793 C3794 1.374 . S
C3794 H3768 0.950 . S
C3794 C3790 1.385 . S
C3794 C3793 1.374 . S
C3795 C3792 1.499 . S
C3795 C3796 1.373 . S
C3795 C3797 1.389 . S
C3796 H3769 0.950 . S
C3796 C3782 1.377 . S
C3796 C3795 1.373 . S
C3797 C3781 1.377 . S
C3797 C3795 1.389 . S
C3797 C3798 1.524 . S
C3798 C3797 1.524 . S
C3798 C3799 1.397 . S
C3798 C3803 1.363 . S
C3799 H3770 0.950 . S
C3799 C3798 1.397 . S
C3799 C3800 1.334 . S
C3800 H3771 0.950 . S
C3800 C3799 1.334 . S
C3800 C3801 1.287 . S
C3801 C3800 1.287 . S
C3801 C3802 1.524 . S
C3801 H3804 0.999 . S
C3802 H3772 0.950 . S
C3802 C3801 1.524 . S
C3802 C3803 1.415 . S
C3803 H3773 0.950 . S
C3803 C3798 1.363 . S
C3803 C3802 1.415 . S
H3804 C3801 0.999 . S
H3805 C3786 0.913 . S
H3806 C3824 0.951 . S
H3807 C3826 0.951 . S
H3808 C3828 0.950 . S
H3809 C3829 0.950 . S
H3810 C3831 0.950 . S
H3811 C3834 0.950 . S
H3812 C3835 0.950 . S
H3813 C3837 0.950 . S
H3814 C3838 0.950 . S
H3815 C3839 0.951 . S
H3816 C3841 0.951 . S
H3817 C3843 0.950 . S
H3818 C3844 0.950 . S
H3819 C3846 0.950 . S
H3820 C3849 0.950 . S
H3821 C3850 0.950 . S
H3822 C3852 0.950 . S
H3823 C3853 0.950 . S
C3824 H3806 0.951 . S
C3824 C3825 1.366 . S
C3824 C3826 1.388 . S
C3825 C3824 1.366 . S
C3825 C3829 1.385 . S
C3826 H3807 0.951 . S
C3826 C3824 1.388 . S
C3826 C3827 1.366 . S
C3827 C3826 1.366 . S
C3827 C3828 1.414 . S
C3827 C3830 1.499 . S
C3828 H3808 0.950 . S
C3828 C3827 1.414 . S
C3828 C3829 1.374 . S
C3829 H3809 0.950 . S
C3829 C3825 1.385 . S
C3829 C3828 1.374 . S
C3830 C3827 1.499 . S
C3830 C3831 1.373 . S
C3830 C3832 1.389 . S
C3831 H3810 0.950 . S
C3831 C3830 1.373 . S
C3831 C3847 1.377 . S
C3832 C3830 1.389 . S
C3832 C3833 1.524 . S
C3832 C3846 1.377 . S
C3833 C3832 1.524 . S
C3833 C3834 1.397 . S
C3833 C3838 1.363 . S
C3834 H3811 0.950 . S
C3834 C3833 1.397 . S
C3834 C3835 1.334 . S
C3835 H3812 0.950 . S
C3835 C3834 1.334 . S
C3835 C3836 1.287 . S
C3836 C3835 1.287 . S
C3836 C3837 1.524 . S
C3836 H3855 0.913 . S
C3837 H3813 0.950 . S
C3837 C3836 1.524 . S
C3837 C3838 1.415 . S
C3838 H3814 0.950 . S
C3838 C3833 1.363 . S
C3838 C3837 1.415 . S
C3839 H3815 0.951 . S
C3839 C3840 1.366 . S
C3839 C3841 1.388 . S
C3840 C3839 1.366 . S
C3840 C3844 1.385 . S
C3841 H3816 0.951 . S
C3841 C3839 1.388 . S
C3841 C3842 1.366 . S
C3842 C3841 1.366 . S
C3842 C3843 1.414 . S
C3842 C3845 1.499 . S
C3843 H3817 0.950 . S
C3843 C3842 1.414 . S
C3843 C3844 1.374 . S
C3844 H3818 0.950 . S
C3844 C3840 1.385 . S
C3844 C3843 1.374 . S
C3845 C3842 1.499 . S
C3845 C3846 1.373 . S
C3845 C3847 1.389 . S
C3846 H3819 0.950 . S
C3846 C3832 1.377 . S
C3846 C3845 1.373 . S
C3847 C3831 1.377 . S
C3847 C3845 1.389 . S
C3847 C3848 1.524 . S
C3848 C3847 1.524 . S
C3848 C3849 1.397 . S
C3848 C3853 1.363 . S
C3849 H3820 0.950 . S
C3849 C3848 1.397 . S
C3849 C3850 1.334 . S
C3850 H3821 0.950 . S
C3850 C3849 1.334 . S
C3850 C3851 1.287 . S
C3851 C3850 1.287 . S
C3851 C3852 1.524 . S
C3851 H3854 0.999 . S
C3852 H3822 0.950 . S
C3852 C3851 1.524 . S
C3852 C3853 1.415 . S
C3853 H3823 0.950 . S
C3853 C3848 1.363 . S
C3853 C3852 1.415 . S
H3854 C3851 0.999 . S
H3855 C3836 0.913 . S
H3856 C3874 0.951 . S
H3857 C3876 0.951 . S
H3858 C3878 0.950 . S
H3859 C3879 0.952 1_455 S
H3860 C3881 0.950 . S
H3861 C3884 0.950 . S
H3862 C3885 0.950 . S
H3863 C3887 0.950 . S
H3864 C3888 0.950 . S
H3865 C3889 0.951 . S
H3866 C3891 0.951 . S
H3867 C3893 0.950 1_655 S
H3868 C3894 0.950 . S
H3869 C3896 0.950 . S
H3870 C3899 0.950 . S
H3871 C3900 0.950 . S
H3872 C3902 0.950 . S
H3873 C3903 0.950 . S
C3874 H3856 0.951 . S
C3874 C3875 1.366 . S
C3874 C3876 1.388 . S
C3875 C3874 1.366 . S
C3875 C3879 1.381 . S
C3876 H3857 0.951 . S
C3876 C3874 1.388 . S
C3876 C3877 1.366 . S
C3877 C3876 1.366 . S
C3877 C3878 1.414 1_655 S
C3877 C3880 1.481 1_655 S
C3878 H3858 0.950 . S
C3878 C3877 1.414 1_455 S
C3878 C3879 1.375 1_455 S
C3879 H3859 0.952 1_655 S
C3879 C3875 1.381 . S
C3879 C3878 1.375 1_655 S
C3880 C3877 1.481 1_455 S
C3880 C3881 1.406 . S
C3880 C3882 1.375 1_455 S
C3881 H3860 0.950 . S
C3881 C3880 1.406 . S
C3881 C3897 1.377 . S
C3882 C3880 1.375 1_655 S
C3882 C3883 1.524 . S
C3882 C3896 1.377 . S
C3883 C3882 1.524 . S
C3883 C3884 1.397 . S
C3883 C3888 1.363 . S
C3884 H3861 0.950 . S
C3884 C3883 1.397 . S
C3884 C3885 1.334 . S
C3885 H3862 0.950 . S
C3885 C3884 1.334 . S
C3885 C3886 1.287 . S
C3886 C3885 1.287 . S
C3886 C3887 1.524 . S
C3886 H3905 0.913 . S
C3887 H3863 0.950 . S
C3887 C3886 1.524 . S
C3887 C3888 1.415 . S
C3888 H3864 0.950 . S
C3888 C3883 1.363 . S
C3888 C3887 1.415 . S
C3889 H3865 0.951 . S
C3889 C3890 1.366 . S
C3889 C3891 1.388 . S
C3890 C3889 1.366 . S
C3890 C3894 1.385 . S
C3891 H3866 0.951 . S
C3891 C3889 1.388 . S
C3891 C3892 1.366 . S
C3892 C3891 1.366 . S
C3892 C3893 1.414 . S
C3892 C3895 1.499 . S
C3893 H3867 0.950 1_455 S
C3893 C3892 1.414 . S
C3893 C3894 1.374 . S
C3894 H3868 0.950 . S
C3894 C3890 1.385 . S
C3894 C3893 1.374 . S
C3895 C3892 1.499 . S
C3895 C3896 1.373 1_455 S
C3895 C3897 1.389 . S
C3896 H3869 0.950 . S
C3896 C3882 1.377 . S
C3896 C3895 1.373 1_655 S
C3897 C3881 1.377 . S
C3897 C3895 1.389 . S
C3897 C3898 1.524 . S
C3898 C3897 1.524 . S
C3898 C3899 1.397 . S
C3898 C3903 1.363 . S
C3899 H3870 0.950 . S
C3899 C3898 1.397 . S
C3899 C3900 1.334 . S
C3900 H3871 0.950 . S
C3900 C3899 1.334 . S
C3900 C3901 1.287 . S
C3901 C3900 1.287 . S
C3901 C3902 1.524 . S
C3901 H3904 0.999 . S
C3902 H3872 0.950 . S
C3902 C3901 1.524 . S
C3902 C3903 1.415 . S
C3903 H3873 0.950 . S
C3903 C3898 1.363 . S
C3903 C3902 1.415 . S
H3904 C3901 0.999 . S
H3905 C3886 0.913 . S
H3906 C3924 0.951 . S
H3907 C3926 0.951 . S
H3908 C3928 0.950 . S
H3909 C3929 0.950 . S
H3910 C3931 0.950 . S
H3911 C3934 0.950 . S
H3912 C3935 0.950 . S
H3913 C3937 0.950 . S
H3914 C3938 0.950 . S
H3915 C3939 0.951 . S
H3916 C3941 0.951 . S
H3917 C3943 0.950 . S
H3918 C3944 0.950 . S
H3919 C3946 0.950 . S
H3920 C3949 0.950 . S
H3921 C3950 0.950 . S
H3922 C3952 0.950 . S
H3923 C3953 0.950 . S
C3924 H3906 0.951 . S
C3924 C3925 1.366 . S
C3924 C3926 1.388 . S
C3925 C3924 1.366 . S
C3925 C3929 1.385 . S
C3926 H3907 0.951 . S
C3926 C3924 1.388 . S
C3926 C3927 1.366 . S
C3927 C3926 1.366 . S
C3927 C3928 1.414 . S
C3927 C3930 1.499 . S
C3928 H3908 0.950 . S
C3928 C3927 1.414 . S
C3928 C3929 1.374 . S
C3929 H3909 0.950 . S
C3929 C3925 1.385 . S
C3929 C3928 1.374 . S
C3930 C3927 1.499 . S
C3930 C3931 1.373 . S
C3930 C3932 1.389 . S
C3931 H3910 0.950 . S
C3931 C3930 1.373 . S
C3931 C3947 1.377 . S
C3932 C3930 1.389 . S
C3932 C3933 1.524 . S
C3932 C3946 1.377 . S
C3933 C3932 1.524 . S
C3933 C3934 1.397 . S
C3933 C3938 1.363 . S
C3934 H3911 0.950 . S
C3934 C3933 1.397 . S
C3934 C3935 1.334 . S
C3935 H3912 0.950 . S
C3935 C3934 1.334 . S
C3935 C3936 1.287 . S
C3936 C3935 1.287 . S
C3936 C3937 1.524 . S
C3936 H3955 0.913 . S
C3937 H3913 0.950 . S
C3937 C3936 1.524 . S
C3937 C3938 1.415 . S
C3938 H3914 0.950 . S
C3938 C3933 1.363 . S
C3938 C3937 1.415 . S
C3939 H3915 0.951 . S
C3939 C3940 1.366 . S
C3939 C3941 1.388 . S
C3940 C3939 1.366 . S
C3940 C3944 1.385 . S
C3941 H3916 0.951 . S
C3941 C3939 1.388 . S
C3941 C3942 1.366 . S
C3942 C3941 1.366 . S
C3942 C3943 1.414 . S
C3942 C3945 1.499 . S
C3943 H3917 0.950 . S
C3943 C3942 1.414 . S
C3943 C3944 1.374 . S
C3944 H3918 0.950 . S
C3944 C3940 1.385 . S
C3944 C3943 1.374 . S
C3945 C3942 1.499 . S
C3945 C3946 1.373 . S
C3945 C3947 1.389 . S
C3946 H3919 0.950 . S
C3946 C3932 1.377 . S
C3946 C3945 1.373 . S
C3947 C3931 1.377 . S
C3947 C3945 1.389 . S
C3947 C3948 1.524 . S
C3948 C3947 1.524 . S
C3948 C3949 1.397 . S
C3948 C3953 1.363 . S
C3949 H3920 0.950 . S
C3949 C3948 1.397 . S
C3949 C3950 1.334 . S
C3950 H3921 0.950 . S
C3950 C3949 1.334 . S
C3950 C3951 1.287 . S
C3951 C3950 1.287 . S
C3951 C3952 1.524 . S
C3951 H3954 0.999 . S
C3952 H3922 0.950 . S
C3952 C3951 1.524 . S
C3952 C3953 1.415 . S
C3953 H3923 0.950 . S
C3953 C3948 1.363 . S
C3953 C3952 1.415 . S
H3954 C3951 0.999 . S
H3955 C3936 0.913 . S
H3956 C3974 0.951 . S
H3957 C3976 0.951 . S
H3958 C3978 0.950 . S
H3959 C3979 0.950 . S
H3960 C3981 0.950 . S
H3961 C3984 0.950 . S
H3962 C3985 0.950 . S
H3963 C3987 0.950 . S
H3964 C3988 0.950 . S
H3965 C3989 0.951 . S
H3966 C3991 0.951 . S
H3967 C3993 0.950 . S
H3968 C3994 0.950 . S
H3969 C3996 0.950 . S
H3970 C3999 0.950 . S
H3971 C4000 0.950 . S
H3972 C4002 0.950 . S
H3973 C4003 0.950 . S
C3974 H3956 0.951 . S
C3974 C3975 1.366 . S
C3974 C3976 1.388 . S
C3975 C3974 1.366 . S
C3975 C3979 1.385 . S
C3976 H3957 0.951 . S
C3976 C3974 1.388 . S
C3976 C3977 1.366 . S
C3977 C3976 1.366 . S
C3977 C3978 1.414 . S
C3977 C3980 1.499 . S
C3978 H3958 0.950 . S
C3978 C3977 1.414 . S
C3978 C3979 1.374 . S
C3979 H3959 0.950 . S
C3979 C3975 1.385 . S
C3979 C3978 1.374 . S
C3980 C3977 1.499 . S
C3980 C3981 1.373 . S
C3980 C3982 1.389 . S
C3981 H3960 0.950 . S
C3981 C3980 1.373 . S
C3981 C3997 1.377 . S
C3982 C3980 1.389 . S
C3982 C3983 1.524 . S
C3982 C3996 1.377 . S
C3983 C3982 1.524 . S
C3983 C3984 1.397 . S
C3983 C3988 1.363 . S
C3984 H3961 0.950 . S
C3984 C3983 1.397 . S
C3984 C3985 1.334 . S
C3985 H3962 0.950 . S
C3985 C3984 1.334 . S
C3985 C3986 1.287 . S
C3986 C3985 1.287 . S
C3986 C3987 1.524 . S
C3986 H4005 0.913 . S
C3987 H3963 0.950 . S
C3987 C3986 1.524 . S
C3987 C3988 1.415 . S
C3988 H3964 0.950 . S
C3988 C3983 1.363 . S
C3988 C3987 1.415 . S
C3989 H3965 0.951 . S
C3989 C3990 1.366 . S
C3989 C3991 1.388 . S
C3990 C3989 1.366 . S
C3990 C3994 1.385 . S
C3991 H3966 0.951 . S
C3991 C3989 1.388 . S
C3991 C3992 1.366 . S
C3992 C3991 1.366 . S
C3992 C3993 1.414 . S
C3992 C3995 1.499 . S
C3993 H3967 0.950 . S
C3993 C3992 1.414 . S
C3993 C3994 1.374 . S
C3994 H3968 0.950 . S
C3994 C3990 1.385 . S
C3994 C3993 1.374 . S
C3995 C3992 1.499 . S
C3995 C3996 1.373 . S
C3995 C3997 1.389 . S
C3996 H3969 0.950 . S
C3996 C3982 1.377 . S
C3996 C3995 1.373 . S
C3997 C3981 1.377 . S
C3997 C3995 1.389 . S
C3997 C3998 1.524 . S
C3998 C3997 1.524 . S
C3998 C3999 1.397 . S
C3998 C4003 1.363 1_545 S
C3999 H3970 0.950 . S
C3999 C3998 1.397 . S
C3999 C4000 1.334 . S
C4000 H3971 0.950 . S
C4000 C3999 1.334 . S
C4000 C4001 1.287 1_545 S
C4001 C4000 1.287 1_565 S
C4001 C4002 1.524 . S
C4001 H4004 0.999 . S
C4002 H3972 0.950 . S
C4002 C4001 1.524 . S
C4002 C4003 1.415 . S
C4003 H3973 0.950 . S
C4003 C3998 1.363 1_565 S
C4003 C4002 1.415 . S
H4004 C4001 0.999 . S
H4005 C3986 0.913 . S
H4006 C4024 0.951 . S
H4007 C4026 0.951 . S
H4008 C4028 0.950 . S
H4009 C4029 0.950 . S
H4010 C4031 0.950 . S
H4011 C4034 0.950 . S
H4012 C4035 0.950 . S
H4013 C4037 0.950 . S
H4014 C4038 0.950 . S
H4015 C4039 0.951 . S
H4016 C4041 0.951 . S
H4017 C4043 0.950 . S
H4018 C4044 0.950 . S
H4019 C4046 0.950 . S
H4020 C4049 0.950 . S
H4021 C4050 0.950 . S
H4022 C4052 0.950 . S
H4023 C4053 0.950 . S
C4024 H4006 0.951 . S
C4024 C4025 1.366 . S
C4024 C4026 1.388 . S
C4025 C4024 1.366 . S
C4025 C4029 1.385 . S
C4026 H4007 0.951 . S
C4026 C4024 1.388 . S
C4026 C4027 1.366 . S
C4027 C4026 1.366 . S
C4027 C4028 1.414 . S
C4027 C4030 1.499 . S
C4028 H4008 0.950 . S
C4028 C4027 1.414 . S
C4028 C4029 1.374 . S
C4029 H4009 0.950 . S
C4029 C4025 1.385 . S
C4029 C4028 1.374 . S
C4030 C4027 1.499 . S
C4030 C4031 1.373 . S
C4030 C4032 1.389 . S
C4031 H4010 0.950 . S
C4031 C4030 1.373 . S
C4031 C4047 1.377 . S
C4032 C4030 1.389 . S
C4032 C4033 1.524 . S
C4032 C4046 1.377 . S
C4033 C4032 1.524 . S
C4033 C4034 1.397 . S
C4033 C4038 1.363 . S
C4034 H4011 0.950 . S
C4034 C4033 1.397 . S
C4034 C4035 1.334 . S
C4035 H4012 0.950 . S
C4035 C4034 1.334 . S
C4035 C4036 1.287 . S
C4036 C4035 1.287 . S
C4036 C4037 1.524 . S
C4036 H4055 0.913 . S
C4037 H4013 0.950 . S
C4037 C4036 1.524 . S
C4037 C4038 1.415 . S
C4038 H4014 0.950 . S
C4038 C4033 1.363 . S
C4038 C4037 1.415 . S
C4039 H4015 0.951 . S
C4039 C4040 1.366 . S
C4039 C4041 1.388 . S
C4040 C4039 1.366 . S
C4040 C4044 1.385 . S
C4041 H4016 0.951 . S
C4041 C4039 1.388 . S
C4041 C4042 1.366 . S
C4042 C4041 1.366 . S
C4042 C4043 1.414 . S
C4042 C4045 1.499 . S
C4043 H4017 0.950 . S
C4043 C4042 1.414 . S
C4043 C4044 1.374 . S
C4044 H4018 0.950 . S
C4044 C4040 1.385 . S
C4044 C4043 1.374 . S
C4045 C4042 1.499 . S
C4045 C4046 1.373 . S
C4045 C4047 1.389 . S
C4046 H4019 0.950 . S
C4046 C4032 1.377 . S
C4046 C4045 1.373 . S
C4047 C4031 1.377 . S
C4047 C4045 1.389 . S
C4047 C4048 1.524 . S
C4048 C4047 1.524 . S
C4048 C4049 1.397 . S
C4048 C4053 1.363 . S
C4049 H4020 0.950 . S
C4049 C4048 1.397 . S
C4049 C4050 1.334 . S
C4050 H4021 0.950 . S
C4050 C4049 1.334 . S
C4050 C4051 1.287 . S
C4051 C4050 1.287 . S
C4051 C4052 1.524 . S
C4051 H4054 0.999 . S
C4052 H4022 0.950 . S
C4052 C4051 1.524 . S
C4052 C4053 1.415 . S
C4053 H4023 0.950 . S
C4053 C4048 1.363 . S
C4053 C4052 1.415 . S
H4054 C4051 0.999 . S
H4055 C4036 0.913 . S
H4056 C4074 0.951 . S
H4057 C4076 0.951 . S
H4058 C4078 0.950 . S
H4059 C4079 0.949 . S
H4060 C4081 0.950 . S
H4061 C4084 0.950 . S
H4062 C4085 0.950 . S
H4063 C4087 0.950 . S
H4064 C4088 0.950 . S
H4065 C4089 0.951 . S
H4066 C4091 0.951 . S
H4067 C4093 0.950 . S
H4068 C4094 0.950 . S
H4069 C4096 0.950 1_655 S
H4070 C4099 0.950 . S
H4071 C4100 0.950 . S
H4072 C4102 0.950 . S
H4073 C4103 0.950 . S
C4074 H4056 0.951 . S
C4074 C4075 1.366 . S
C4074 C4076 1.388 . S
C4075 C4074 1.366 . S
C4075 C4079 1.385 . S
C4076 H4057 0.951 . S
C4076 C4074 1.388 . S
C4076 C4077 1.371 . S
C4077 C4076 1.371 . S
C4077 C4078 1.414 1_655 S
C4077 C4080 1.492 1_655 S
C4078 H4058 0.950 . S
C4078 C4077 1.414 1_455 S
C4078 C4079 1.374 1_455 S
C4079 H4059 0.949 . S
C4079 C4075 1.385 . S
C4079 C4078 1.374 1_655 S
C4080 C4077 1.492 1_455 S
C4080 C4081 1.373 . S
C4080 C4082 1.389 1_455 S
C4081 H4060 0.950 . S
C4081 C4080 1.373 . S
C4081 C4097 1.377 . S
C4082 C4080 1.389 1_655 S
C4082 C4083 1.524 . S
C4082 C4096 1.377 1_655 S
C4083 C4082 1.524 . S
C4083 C4084 1.397 . S
C4083 C4088 1.363 . S
C4084 H4061 0.950 . S
C4084 C4083 1.397 . S
C4084 C4085 1.334 . S
C4085 H4062 0.950 . S
C4085 C4084 1.334 . S
C4085 C4086 1.287 . S
C4086 C4085 1.287 . S
C4086 C4087 1.524 . S
C4086 H4105 0.913 . S
C4087 H4063 0.950 . S
C4087 C4086 1.524 . S
C4087 C4088 1.415 . S
C4088 H4064 0.950 . S
C4088 C4083 1.363 . S
C4088 C4087 1.415 . S
C4089 H4065 0.951 . S
C4089 C4090 1.366 . S
C4089 C4091 1.388 . S
C4090 C4089 1.366 . S
C4090 C4094 1.385 . S
C4091 H4066 0.951 . S
C4091 C4089 1.388 . S
C4091 C4092 1.366 . S
C4092 C4091 1.366 . S
C4092 C4093 1.414 . S
C4092 C4095 1.499 . S
C4093 H4067 0.950 . S
C4093 C4092 1.414 . S
C4093 C4094 1.374 . S
C4094 H4068 0.950 . S
C4094 C4090 1.385 . S
C4094 C4093 1.374 . S
C4095 C4092 1.499 . S
C4095 C4096 1.373 . S
C4095 C4097 1.389 . S
C4096 H4069 0.950 1_455 S
C4096 C4082 1.377 1_455 S
C4096 C4095 1.373 . S
C4097 C4081 1.377 . S
C4097 C4095 1.389 . S
C4097 C4098 1.524 . S
C4098 C4097 1.524 . S
C4098 C4099 1.397 . S
C4098 C4103 1.363 . S
C4099 H4070 0.950 . S
C4099 C4098 1.397 . S
C4099 C4100 1.334 . S
C4100 H4071 0.950 . S
C4100 C4099 1.334 . S
C4100 C4101 1.287 . S
C4101 C4100 1.287 . S
C4101 C4102 1.524 . S
C4101 H4104 0.999 . S
C4102 H4072 0.950 . S
C4102 C4101 1.524 . S
C4102 C4103 1.415 . S
C4103 H4073 0.950 . S
C4103 C4098 1.363 . S
C4103 C4102 1.415 . S
H4104 C4101 0.999 . S
H4105 C4086 0.913 . S
H4106 C4124 0.951 . S
H4107 C4126 0.951 . S
H4108 C4128 0.950 . S
H4109 C4129 0.950 . S
H4110 C4131 0.950 . S
H4111 C4134 0.950 . S
H4112 C4135 0.950 . S
H4113 C4137 0.950 . S
H4114 C4138 0.950 . S
H4115 C4139 0.951 . S
H4116 C4141 0.951 . S
H4117 C4143 0.950 . S
H4118 C4144 0.950 . S
H4119 C4146 0.950 . S
H4120 C4149 0.950 . S
H4121 C4150 0.950 . S
H4122 C4152 0.950 . S
H4123 C4153 0.950 . S
C4124 H4106 0.951 . S
C4124 C4125 1.366 . S
C4124 C4126 1.388 . S
C4125 C4124 1.366 . S
C4125 C4129 1.385 . S
C4126 H4107 0.951 . S
C4126 C4124 1.388 . S
C4126 C4127 1.366 . S
C4127 C4126 1.366 . S
C4127 C4128 1.414 . S
C4127 C4130 1.499 . S
C4128 H4108 0.950 . S
C4128 C4127 1.414 . S
C4128 C4129 1.374 . S
C4129 H4109 0.950 . S
C4129 C4125 1.385 . S
C4129 C4128 1.374 . S
C4130 C4127 1.499 . S
C4130 C4131 1.373 . S
C4130 C4132 1.389 . S
C4131 H4110 0.950 . S
C4131 C4130 1.373 . S
C4131 C4147 1.377 . S
C4132 C4130 1.389 . S
C4132 C4133 1.524 . S
C4132 C4146 1.377 . S
C4133 C4132 1.524 . S
C4133 C4134 1.397 . S
C4133 C4138 1.363 . S
C4134 H4111 0.950 . S
C4134 C4133 1.397 . S
C4134 C4135 1.334 . S
C4135 H4112 0.950 . S
C4135 C4134 1.334 . S
C4135 C4136 1.287 . S
C4136 C4135 1.287 . S
C4136 C4137 1.524 . S
C4136 H4155 0.913 . S
C4137 H4113 0.950 . S
C4137 C4136 1.524 . S
C4137 C4138 1.415 . S
C4138 H4114 0.950 . S
C4138 C4133 1.363 . S
C4138 C4137 1.415 . S
C4139 H4115 0.951 . S
C4139 C4140 1.366 . S
C4139 C4141 1.388 . S
C4140 C4139 1.366 . S
C4140 C4144 1.385 . S
C4141 H4116 0.951 . S
C4141 C4139 1.388 . S
C4141 C4142 1.366 . S
C4142 C4141 1.366 . S
C4142 C4143 1.414 . S
C4142 C4145 1.499 . S
C4143 H4117 0.950 . S
C4143 C4142 1.414 . S
C4143 C4144 1.374 . S
C4144 H4118 0.950 . S
C4144 C4140 1.385 . S
C4144 C4143 1.374 . S
C4145 C4142 1.499 . S
C4145 C4146 1.373 . S
C4145 C4147 1.389 . S
C4146 H4119 0.950 . S
C4146 C4132 1.377 . S
C4146 C4145 1.373 . S
C4147 C4131 1.377 . S
C4147 C4145 1.389 . S
C4147 C4148 1.524 . S
C4148 C4147 1.524 . S
C4148 C4149 1.397 . S
C4148 C4153 1.363 . S
C4149 H4120 0.950 . S
C4149 C4148 1.397 . S
C4149 C4150 1.334 . S
C4150 H4121 0.950 . S
C4150 C4149 1.334 . S
C4150 C4151 1.287 . S
C4151 C4150 1.287 . S
C4151 C4152 1.524 . S
C4151 H4154 0.999 . S
C4152 H4122 0.950 . S
C4152 C4151 1.524 . S
C4152 C4153 1.415 . S
C4153 H4123 0.950 . S
C4153 C4148 1.363 . S
C4153 C4152 1.415 . S
H4154 C4151 0.999 . S
H4155 C4136 0.913 . S
H4156 C4174 0.951 . S
H4157 C4176 0.951 . S
H4158 C4178 0.950 . S
H4159 C4179 0.950 . S
H4160 C4181 0.950 . S
H4161 C4184 0.950 . S
H4162 C4185 0.950 . S
H4163 C4187 0.950 . S
H4164 C4188 0.950 . S
H4165 C4189 0.951 . S
H4166 C4191 0.951 . S
H4167 C4193 0.950 . S
H4168 C4194 0.950 . S
H4169 C4196 0.950 . S
H4170 C4199 0.950 . S
H4171 C4200 0.950 . S
H4172 C4202 0.950 . S
H4173 C4203 0.950 . S
C4174 H4156 0.951 . S
C4174 C4175 1.366 . S
C4174 C4176 1.388 . S
C4175 C4174 1.366 . S
C4175 C4179 1.385 . S
C4176 H4157 0.951 . S
C4176 C4174 1.388 . S
C4176 C4177 1.366 . S
C4177 C4176 1.366 . S
C4177 C4178 1.414 . S
C4177 C4180 1.499 . S
C4178 H4158 0.950 . S
C4178 C4177 1.414 . S
C4178 C4179 1.374 . S
C4179 H4159 0.950 . S
C4179 C4175 1.385 . S
C4179 C4178 1.374 . S
C4180 C4177 1.499 . S
C4180 C4181 1.373 . S
C4180 C4182 1.389 . S
C4181 H4160 0.950 . S
C4181 C4180 1.373 . S
C4181 C4197 1.377 . S
C4182 C4180 1.389 . S
C4182 C4183 1.524 . S
C4182 C4196 1.377 . S
C4183 C4182 1.524 . S
C4183 C4184 1.397 . S
C4183 C4188 1.363 . S
C4184 H4161 0.950 . S
C4184 C4183 1.397 . S
C4184 C4185 1.334 . S
C4185 H4162 0.950 . S
C4185 C4184 1.334 . S
C4185 C4186 1.287 . S
C4186 C4185 1.287 . S
C4186 C4187 1.524 . S
C4186 H4205 0.913 . S
C4187 H4163 0.950 . S
C4187 C4186 1.524 . S
C4187 C4188 1.415 . S
C4188 H4164 0.950 . S
C4188 C4183 1.363 . S
C4188 C4187 1.415 . S
C4189 H4165 0.951 . S
C4189 C4190 1.366 . S
C4189 C4191 1.388 . S
C4190 C4189 1.366 . S
C4190 C4194 1.385 . S
C4191 H4166 0.951 . S
C4191 C4189 1.388 . S
C4191 C4192 1.366 . S
C4192 C4191 1.366 . S
C4192 C4193 1.414 . S
C4192 C4195 1.499 . S
C4193 H4167 0.950 . S
C4193 C4192 1.414 . S
C4193 C4194 1.374 . S
C4194 H4168 0.950 . S
C4194 C4190 1.385 . S
C4194 C4193 1.374 . S
C4195 C4192 1.499 . S
C4195 C4196 1.373 . S
C4195 C4197 1.389 . S
C4196 H4169 0.950 . S
C4196 C4182 1.377 . S
C4196 C4195 1.373 . S
C4197 C4181 1.377 . S
C4197 C4195 1.389 . S
C4197 C4198 1.524 . S
C4198 C4197 1.524 . S
C4198 C4199 1.397 . S
C4198 C4203 1.363 . S
C4199 H4170 0.950 . S
C4199 C4198 1.397 . S
C4199 C4200 1.334 . S
C4200 H4171 0.950 . S
C4200 C4199 1.334 . S
C4200 C4201 1.287 . S
C4201 C4200 1.287 . S
C4201 C4202 1.524 . S
C4201 H4204 0.999 . S
C4202 H4172 0.950 . S
C4202 C4201 1.524 . S
C4202 C4203 1.415 . S
C4203 H4173 0.950 . S
C4203 C4198 1.363 . S
C4203 C4202 1.415 . S
H4204 C4201 0.999 . S
H4205 C4186 0.913 . S
H4206 C4224 0.951 . S
H4207 C4226 0.951 . S
H4208 C4228 0.950 . S
H4209 C4229 0.950 . S
H4210 C4231 0.950 . S
H4211 C4234 0.950 . S
H4212 C4235 0.950 . S
H4213 C4237 0.950 . S
H4214 C4238 0.950 . S
H4215 C4239 0.951 . S
H4216 C4241 0.951 . S
H4217 C4243 0.950 . S
H4218 C4244 0.950 . S
H4219 C4246 0.950 . S
H4220 C4249 0.950 . S
H4221 C4250 0.950 . S
H4222 C4252 0.950 . S
H4223 C4253 0.950 . S
C4224 H4206 0.951 . S
C4224 C4225 1.366 . S
C4224 C4226 1.388 . S
C4225 C4224 1.366 . S
C4225 C4229 1.385 . S
C4226 H4207 0.951 . S
C4226 C4224 1.388 . S
C4226 C4227 1.366 . S
C4227 C4226 1.366 . S
C4227 C4228 1.414 . S
C4227 C4230 1.499 . S
C4228 H4208 0.950 . S
C4228 C4227 1.414 . S
C4228 C4229 1.374 . S
C4229 H4209 0.950 . S
C4229 C4225 1.385 . S
C4229 C4228 1.374 . S
C4230 C4227 1.499 . S
C4230 C4231 1.373 . S
C4230 C4232 1.389 . S
C4231 H4210 0.950 . S
C4231 C4230 1.373 . S
C4231 C4247 1.377 . S
C4232 C4230 1.389 . S
C4232 C4233 1.524 . S
C4232 C4246 1.377 . S
C4233 C4232 1.524 . S
C4233 C4234 1.397 . S
C4233 C4238 1.363 . S
C4234 H4211 0.950 . S
C4234 C4233 1.397 . S
C4234 C4235 1.334 . S
C4235 H4212 0.950 . S
C4235 C4234 1.334 . S
C4235 C4236 1.287 . S
C4236 C4235 1.287 . S
C4236 C4237 1.524 . S
C4236 H4255 0.913 . S
C4237 H4213 0.950 . S
C4237 C4236 1.524 . S
C4237 C4238 1.415 . S
C4238 H4214 0.950 . S
C4238 C4233 1.363 . S
C4238 C4237 1.415 . S
C4239 H4215 0.951 . S
C4239 C4240 1.366 . S
C4239 C4241 1.388 . S
C4240 C4239 1.366 . S
C4240 C4244 1.385 . S
C4241 H4216 0.951 . S
C4241 C4239 1.388 . S
C4241 C4242 1.366 . S
C4242 C4241 1.366 . S
C4242 C4243 1.414 . S
C4242 C4245 1.499 . S
C4243 H4217 0.950 . S
C4243 C4242 1.414 . S
C4243 C4244 1.374 . S
C4244 H4218 0.950 . S
C4244 C4240 1.385 . S
C4244 C4243 1.374 . S
C4245 C4242 1.499 . S
C4245 C4246 1.373 . S
C4245 C4247 1.389 . S
C4246 H4219 0.950 . S
C4246 C4232 1.377 . S
C4246 C4245 1.373 . S
C4247 C4231 1.377 . S
C4247 C4245 1.389 . S
C4247 C4248 1.524 . S
C4248 C4247 1.524 . S
C4248 C4249 1.397 . S
C4248 C4253 1.363 . S
C4249 H4220 0.950 . S
C4249 C4248 1.397 . S
C4249 C4250 1.334 . S
C4250 H4221 0.950 . S
C4250 C4249 1.334 . S
C4250 C4251 1.287 . S
C4251 C4250 1.287 . S
C4251 C4252 1.524 . S
C4251 H4254 0.999 . S
C4252 H4222 0.950 . S
C4252 C4251 1.524 . S
C4252 C4253 1.415 . S
C4253 H4223 0.950 . S
C4253 C4248 1.363 . S
C4253 C4252 1.415 . S
H4254 C4251 0.999 . S
H4255 C4236 0.913 . S
H4256 C4274 0.951 . S
H4257 C4276 0.951 . S
H4258 C4278 0.971 . S
H4259 C4279 0.953 1_556 S
H4260 C4281 0.950 . S
H4261 C4284 0.950 . S
H4262 C4285 0.950 . S
H4263 C4287 0.950 . S
H4264 C4288 0.950 . S
H4265 C4289 0.951 1_565 S
H4266 C4291 0.951 . S
H4267 C4293 0.950 . S
H4268 C4294 0.950 . S
H4269 C4296 0.950 . S
H4270 C4299 0.969 . S
H4271 C4300 0.950 . S
H4272 C4302 0.964 . S
H4273 C4303 0.950 . S
C4274 H4256 0.951 . S
C4274 C4275 1.366 . S
C4274 C4276 1.388 . S
C4275 C4274 1.366 . S
C4275 C4279 1.385 . S
C4276 H4257 0.951 . S
C4276 C4274 1.388 . S
C4276 C4277 1.366 . S
C4277 C4276 1.366 . S
C4277 C4278 1.414 . S
C4277 C4280 1.499 . S
C4278 H4258 0.971 . S
C4278 C4277 1.414 . S
C4278 C4279 1.374 . S
C4279 H4259 0.953 1_554 S
C4279 C4275 1.385 . S
C4279 C4278 1.374 . S
C4280 C4277 1.499 . S
C4280 C4281 1.373 . S
C4280 C4282 1.389 . S
C4281 H4260 0.950 . S
C4281 C4280 1.373 . S
C4281 C4297 1.377 . S
C4282 C4280 1.389 . S
C4282 C4283 1.524 . S
C4282 C4296 1.377 . S
C4283 C4282 1.524 . S
C4283 C4284 1.397 . S
C4283 C4288 1.363 . S
C4284 H4261 0.950 . S
C4284 C4283 1.397 . S
C4284 C4285 1.334 . S
C4285 H4262 0.950 . S
C4285 C4284 1.334 . S
C4285 C4286 1.287 . S
C4286 C4285 1.287 . S
C4286 C4287 1.524 . S
C4286 H4305 0.913 . S
C4287 H4263 0.950 . S
C4287 C4286 1.524 . S
C4287 C4288 1.415 . S
C4288 H4264 0.950 . S
C4288 C4283 1.363 . S
C4288 C4287 1.415 . S
C4289 H4265 0.951 1_545 S
C4289 C4290 1.366 . S
C4289 C4291 1.388 1_545 S
C4290 C4289 1.366 . S
C4290 C4294 1.385 . S
C4291 H4266 0.951 . S
C4291 C4289 1.388 1_565 S
C4291 C4292 1.366 1_565 S
C4292 C4291 1.366 1_545 S
C4292 C4293 1.414 . S
C4292 C4295 1.499 1_545 S
C4293 H4267 0.950 . S
C4293 C4292 1.414 . S
C4293 C4294 1.374 . S
C4294 H4268 0.950 . S
C4294 C4290 1.385 . S
C4294 C4293 1.374 . S
C4295 C4292 1.499 1_565 S
C4295 C4296 1.373 . S
C4295 C4297 1.389 . S
C4296 H4269 0.950 . S
C4296 C4282 1.377 . S
C4296 C4295 1.373 . S
C4297 C4281 1.377 . S
C4297 C4295 1.389 . S
C4297 C4298 1.524 1_564 S
C4298 C4297 1.524 1_546 S
C4298 C4299 1.396 1_556 S
C4298 C4303 1.363 1_545 S
C4299 H4270 0.969 . S
C4299 C4298 1.396 1_554 S
C4299 C4300 1.316 1_554 S
C4300 H4271 0.950 . S
C4300 C4299 1.316 1_556 S
C4300 C4301 1.287 . S
C4301 C4300 1.287 . S
C4301 C4302 1.524 . S
C4301 H4304 0.999 . S
C4302 H4272 0.964 . S
C4302 C4301 1.524 . S
C4302 C4303 1.415 1_545 S
C4303 H4273 0.950 . S
C4303 C4298 1.363 1_565 S
C4303 C4302 1.415 1_565 S
H4304 C4301 0.999 . S
H4305 C4286 0.913 . S
H4306 C4324 0.951 . S
H4307 C4326 0.951 . S
H4308 C4328 0.950 . S
H4309 C4329 0.950 . S
H4310 C4331 0.950 . S
H4311 C4334 0.950 . S
H4312 C4335 0.950 . S
H4313 C4337 0.950 . S
H4314 C4338 0.950 . S
H4315 C4339 0.951 . S
H4316 C4341 0.951 . S
H4317 C4343 0.950 . S
H4318 C4344 0.950 . S
H4319 C4346 0.950 . S
H4320 C4349 0.950 . S
H4321 C4350 0.950 . S
H4322 C4352 0.950 . S
H4323 C4353 0.950 . S
C4324 H4306 0.951 . S
C4324 C4325 1.366 . S
C4324 C4326 1.388 . S
C4325 C4324 1.366 . S
C4325 C4329 1.385 1_556 S
C4326 H4307 0.951 . S
C4326 C4324 1.388 . S
C4326 C4327 1.366 . S
C4327 C4326 1.366 . S
C4327 C4328 1.414 1_556 S
C4327 C4330 1.499 . S
C4328 H4308 0.950 . S
C4328 C4327 1.414 1_554 S
C4328 C4329 1.374 . S
C4329 H4309 0.950 . S
C4329 C4325 1.385 1_554 S
C4329 C4328 1.374 . S
C4330 C4327 1.499 . S
C4330 C4331 1.373 1_556 S
C4330 C4332 1.389 . S
C4331 H4310 0.950 . S
C4331 C4330 1.373 1_554 S
C4331 C4347 1.377 . S
C4332 C4330 1.389 . S
C4332 C4333 1.524 . S
C4332 C4346 1.377 . S
C4333 C4332 1.524 . S
C4333 C4334 1.397 1_556 S
C4333 C4338 1.363 . S
C4334 H4311 0.950 . S
C4334 C4333 1.397 1_554 S
C4334 C4335 1.334 . S
C4335 H4312 0.950 . S
C4335 C4334 1.334 . S
C4335 C4336 1.287 1_554 S
C4336 C4335 1.287 1_556 S
C4336 C4337 1.524 . S
C4336 H4355 0.913 . S
C4337 H4313 0.950 . S
C4337 C4336 1.524 . S
C4337 C4338 1.415 . S
C4338 H4314 0.950 . S
C4338 C4333 1.363 . S
C4338 C4337 1.415 . S
C4339 H4315 0.951 . S
C4339 C4340 1.366 . S
C4339 C4341 1.388 . S
C4340 C4339 1.366 . S
C4340 C4344 1.385 1_554 S
C4341 H4316 0.951 . S
C4341 C4339 1.388 . S
C4341 C4342 1.366 . S
C4342 C4341 1.366 . S
C4342 C4343 1.414 1_554 S
C4342 C4345 1.491 1_554 S
C4343 H4317 0.950 . S
C4343 C4342 1.414 1_556 S
C4343 C4344 1.374 . S
C4344 H4318 0.950 . S
C4344 C4340 1.385 1_556 S
C4344 C4343 1.374 . S
C4345 C4342 1.491 1_556 S
C4345 C4346 1.384 . S
C4345 C4347 1.385 1_556 S
C4346 H4319 0.950 . S
C4346 C4332 1.377 . S
C4346 C4345 1.384 . S
C4347 C4331 1.377 . S
C4347 C4345 1.385 1_554 S
C4347 C4348 1.524 . S
C4348 C4347 1.524 . S
C4348 C4349 1.397 1_554 S
C4348 C4353 1.363 . S
C4349 H4320 0.950 . S
C4349 C4348 1.397 1_556 S
C4349 C4350 1.334 . S
C4350 H4321 0.950 . S
C4350 C4349 1.334 . S
C4350 C4351 1.287 1_556 S
C4351 C4350 1.287 1_554 S
C4351 C4352 1.524 . S
C4351 H4354 0.999 . S
C4352 H4322 0.950 . S
C4352 C4351 1.524 . S
C4352 C4353 1.415 . S
C4353 H4323 0.950 . S
C4353 C4348 1.363 . S
C4353 C4352 1.415 . S
H4354 C4351 0.999 . S
H4355 C4336 0.913 . S
H4356 C4374 0.951 . S
H4357 C4376 0.951 . S
H4358 C4378 0.950 . S
H4359 C4379 0.950 . S
H4360 C4381 0.950 . S
H4361 C4384 0.950 . S
H4362 C4385 0.950 . S
H4363 C4387 0.950 . S
H4364 C4388 0.950 . S
H4365 C4389 0.951 . S
H4366 C4391 0.951 . S
H4367 C4393 0.950 . S
H4368 C4394 0.950 . S
H4369 C4396 0.950 . S
H4370 C4399 0.950 . S
H4371 C4400 0.950 . S
H4372 C4402 0.950 . S
H4373 C4403 0.950 . S
C4374 H4356 0.951 . S
C4374 C4375 1.366 . S
C4374 C4376 1.388 . S
C4375 C4374 1.366 . S
C4375 C4379 1.385 . S
C4376 H4357 0.951 . S
C4376 C4374 1.388 . S
C4376 C4377 1.366 . S
C4377 C4376 1.366 . S
C4377 C4378 1.414 . S
C4377 C4380 1.499 . S
C4378 H4358 0.950 . S
C4378 C4377 1.414 . S
C4378 C4379 1.374 . S
C4379 H4359 0.950 . S
C4379 C4375 1.385 . S
C4379 C4378 1.374 . S
C4380 C4377 1.499 . S
C4380 C4381 1.373 . S
C4380 C4382 1.389 . S
C4381 H4360 0.950 . S
C4381 C4380 1.373 . S
C4381 C4397 1.377 . S
C4382 C4380 1.389 . S
C4382 C4383 1.524 . S
C4382 C4396 1.377 . S
C4383 C4382 1.524 . S
C4383 C4384 1.397 . S
C4383 C4388 1.363 . S
C4384 H4361 0.950 . S
C4384 C4383 1.397 . S
C4384 C4385 1.334 . S
C4385 H4362 0.950 . S
C4385 C4384 1.334 . S
C4385 C4386 1.287 . S
C4386 C4385 1.287 . S
C4386 C4387 1.524 . S
C4386 H4405 0.913 . S
C4387 H4363 0.950 . S
C4387 C4386 1.524 . S
C4387 C4388 1.415 . S
C4388 H4364 0.950 . S
C4388 C4383 1.363 . S
C4388 C4387 1.415 . S
C4389 H4365 0.951 . S
C4389 C4390 1.366 . S
C4389 C4391 1.388 . S
C4390 C4389 1.366 . S
C4390 C4394 1.385 . S
C4391 H4366 0.951 . S
C4391 C4389 1.388 . S
C4391 C4392 1.366 . S
C4392 C4391 1.366 . S
C4392 C4393 1.414 . S
C4392 C4395 1.499 . S
C4393 H4367 0.950 . S
C4393 C4392 1.414 . S
C4393 C4394 1.374 . S
C4394 H4368 0.950 . S
C4394 C4390 1.385 . S
C4394 C4393 1.374 . S
C4395 C4392 1.499 . S
C4395 C4396 1.373 . S
C4395 C4397 1.389 . S
C4396 H4369 0.950 . S
C4396 C4382 1.377 . S
C4396 C4395 1.373 . S
C4397 C4381 1.377 . S
C4397 C4395 1.389 . S
C4397 C4398 1.524 . S
C4398 C4397 1.524 . S
C4398 C4399 1.397 . S
C4398 C4403 1.363 . S
C4399 H4370 0.950 . S
C4399 C4398 1.397 . S
C4399 C4400 1.334 . S
C4400 H4371 0.950 . S
C4400 C4399 1.334 . S
C4400 C4401 1.287 . S
C4401 C4400 1.287 . S
C4401 C4402 1.524 . S
C4401 H4404 0.999 . S
C4402 H4372 0.950 . S
C4402 C4401 1.524 . S
C4402 C4403 1.415 . S
C4403 H4373 0.950 . S
C4403 C4398 1.363 . S
C4403 C4402 1.415 . S
H4404 C4401 0.999 . S
H4405 C4386 0.913 . S
H4406 C4424 0.951 . S
H4407 C4426 0.951 . S
H4408 C4428 0.950 . S
H4409 C4429 0.950 . S
H4410 C4431 0.950 . S
H4411 C4434 0.950 . S
H4412 C4435 0.950 . S
H4413 C4437 0.950 . S
H4414 C4438 0.950 . S
H4415 C4439 0.951 . S
H4416 C4441 0.951 . S
H4417 C4443 0.950 . S
H4418 C4444 0.950 . S
H4419 C4446 0.950 . S
H4420 C4449 0.950 . S
H4421 C4450 0.950 . S
H4422 C4452 0.950 . S
H4423 C4453 0.950 . S
C4424 H4406 0.951 . S
C4424 C4425 1.366 . S
C4424 C4426 1.388 . S
C4425 C4424 1.366 . S
C4425 C4429 1.385 . S
C4426 H4407 0.951 . S
C4426 C4424 1.388 . S
C4426 C4427 1.366 . S
C4427 C4426 1.366 . S
C4427 C4428 1.414 . S
C4427 C4430 1.499 . S
C4428 H4408 0.950 . S
C4428 C4427 1.414 . S
C4428 C4429 1.374 . S
C4429 H4409 0.950 . S
C4429 C4425 1.385 . S
C4429 C4428 1.374 . S
C4430 C4427 1.499 . S
C4430 C4431 1.373 . S
C4430 C4432 1.389 . S
C4431 H4410 0.950 . S
C4431 C4430 1.373 . S
C4431 C4447 1.377 . S
C4432 C4430 1.389 . S
C4432 C4433 1.524 . S
C4432 C4446 1.377 . S
C4433 C4432 1.524 . S
C4433 C4434 1.397 . S
C4433 C4438 1.363 . S
C4434 H4411 0.950 . S
C4434 C4433 1.397 . S
C4434 C4435 1.334 . S
C4435 H4412 0.950 . S
C4435 C4434 1.334 . S
C4435 C4436 1.287 . S
C4436 C4435 1.287 . S
C4436 C4437 1.524 . S
C4436 H4455 0.913 . S
C4437 H4413 0.950 . S
C4437 C4436 1.524 . S
C4437 C4438 1.415 . S
C4438 H4414 0.950 . S
C4438 C4433 1.363 . S
C4438 C4437 1.415 . S
C4439 H4415 0.951 . S
C4439 C4440 1.366 . S
C4439 C4441 1.388 1_455 S
C4440 C4439 1.366 . S
C4440 C4444 1.385 . S
C4441 H4416 0.951 . S
C4441 C4439 1.388 1_655 S
C4441 C4442 1.366 . S
C4442 C4441 1.366 . S
C4442 C4443 1.414 . S
C4442 C4445 1.499 . S
C4443 H4417 0.950 . S
C4443 C4442 1.414 . S
C4443 C4444 1.374 1_655 S
C4444 H4418 0.950 . S
C4444 C4440 1.385 . S
C4444 C4443 1.374 1_455 S
C4445 C4442 1.499 . S
C4445 C4446 1.373 . S
C4445 C4447 1.389 . S
C4446 H4419 0.950 . S
C4446 C4432 1.377 . S
C4446 C4445 1.373 . S
C4447 C4431 1.377 . S
C4447 C4445 1.389 . S
C4447 C4448 1.524 . S
C4448 C4447 1.524 . S
C4448 C4449 1.397 . S
C4448 C4453 1.363 . S
C4449 H4420 0.950 . S
C4449 C4448 1.397 . S
C4449 C4450 1.334 . S
C4450 H4421 0.950 . S
C4450 C4449 1.334 . S
C4450 C4451 1.287 . S
C4451 C4450 1.287 . S
C4451 C4452 1.524 . S
C4451 H4454 0.999 . S
C4452 H4422 0.950 . S
C4452 C4451 1.524 . S
C4452 C4453 1.415 . S
C4453 H4423 0.950 . S
C4453 C4448 1.363 . S
C4453 C4452 1.415 . S
H4454 C4451 0.999 . S
H4455 C4436 0.913 . S
H4456 C4474 0.951 . S
H4457 C4476 0.951 . S
H4458 C4478 0.950 . S
H4459 C4479 0.950 . S
H4460 C4481 0.950 . S
H4461 C4484 0.950 . S
H4462 C4485 0.950 . S
H4463 C4487 0.950 . S
H4464 C4488 0.950 . S
H4465 C4489 0.951 . S
H4466 C4491 0.951 . S
H4467 C4493 0.950 . S
H4468 C4494 0.950 . S
H4469 C4496 0.950 . S
H4470 C4499 0.950 . S
H4471 C4500 0.950 . S
H4472 C4502 0.950 . S
H4473 C4503 0.950 . S
C4474 H4456 0.951 . S
C4474 C4475 1.366 . S
C4474 C4476 1.388 . S
C4475 C4474 1.366 . S
C4475 C4479 1.385 . S
C4476 H4457 0.951 . S
C4476 C4474 1.388 . S
C4476 C4477 1.366 . S
C4477 C4476 1.366 . S
C4477 C4478 1.414 . S
C4477 C4480 1.499 . S
C4478 H4458 0.950 . S
C4478 C4477 1.414 . S
C4478 C4479 1.374 . S
C4479 H4459 0.950 . S
C4479 C4475 1.385 . S
C4479 C4478 1.374 . S
C4480 C4477 1.499 . S
C4480 C4481 1.373 . S
C4480 C4482 1.389 . S
C4481 H4460 0.950 . S
C4481 C4480 1.373 . S
C4481 C4497 1.377 . S
C4482 C4480 1.389 . S
C4482 C4483 1.524 . S
C4482 C4496 1.377 . S
C4483 C4482 1.524 . S
C4483 C4484 1.397 . S
C4483 C4488 1.363 . S
C4484 H4461 0.950 . S
C4484 C4483 1.397 . S
C4484 C4485 1.334 . S
C4485 H4462 0.950 . S
C4485 C4484 1.334 . S
C4485 C4486 1.287 . S
C4486 C4485 1.287 . S
C4486 C4487 1.524 . S
C4486 H4505 0.913 . S
C4487 H4463 0.950 . S
C4487 C4486 1.524 . S
C4487 C4488 1.415 . S
C4488 H4464 0.950 . S
C4488 C4483 1.363 . S
C4488 C4487 1.415 . S
C4489 H4465 0.951 . S
C4489 C4490 1.366 . S
C4489 C4491 1.388 . S
C4490 C4489 1.366 . S
C4490 C4494 1.385 . S
C4491 H4466 0.951 . S
C4491 C4489 1.388 . S
C4491 C4492 1.366 . S
C4492 C4491 1.366 . S
C4492 C4493 1.414 . S
C4492 C4495 1.499 . S
C4493 H4467 0.950 . S
C4493 C4492 1.414 . S
C4493 C4494 1.374 . S
C4494 H4468 0.950 . S
C4494 C4490 1.385 . S
C4494 C4493 1.374 . S
C4495 C4492 1.499 . S
C4495 C4496 1.373 . S
C4495 C4497 1.389 . S
C4496 H4469 0.950 . S
C4496 C4482 1.377 . S
C4496 C4495 1.373 . S
C4497 C4481 1.377 . S
C4497 C4495 1.389 . S
C4497 C4498 1.524 . S
C4498 C4497 1.524 . S
C4498 C4499 1.397 . S
C4498 C4503 1.363 . S
C4499 H4470 0.950 . S
C4499 C4498 1.397 . S
C4499 C4500 1.334 . S
C4500 H4471 0.950 . S
C4500 C4499 1.334 . S
C4500 C4501 1.287 . S
C4501 C4500 1.287 . S
C4501 C4502 1.524 . S
C4501 H4504 0.999 . S
C4502 H4472 0.950 . S
C4502 C4501 1.524 . S
C4502 C4503 1.415 . S
C4503 H4473 0.950 . S
C4503 C4498 1.363 . S
C4503 C4502 1.415 . S
H4504 C4501 0.999 . S
H4505 C4486 0.913 . S
H4506 C4524 0.951 . S
H4507 C4526 0.951 . S
H4508 C4528 0.950 . S
H4509 C4529 0.950 . S
H4510 C4531 0.950 . S
H4511 C4534 0.950 . S
H4512 C4535 0.950 . S
H4513 C4537 0.950 . S
H4514 C4538 0.950 . S
H4515 C4539 0.951 . S
H4516 C4541 0.951 . S
H4517 C4543 0.950 . S
H4518 C4544 0.950 . S
H4519 C4546 0.950 . S
H4520 C4549 0.950 . S
H4521 C4550 0.950 . S
H4522 C4552 0.950 . S
H4523 C4553 0.950 . S
C4524 H4506 0.951 . S
C4524 C4525 1.366 . S
C4524 C4526 1.388 . S
C4525 C4524 1.366 . S
C4525 C4529 1.385 . S
C4526 H4507 0.951 . S
C4526 C4524 1.388 . S
C4526 C4527 1.366 . S
C4527 C4526 1.366 . S
C4527 C4528 1.414 . S
C4527 C4530 1.499 . S
C4528 H4508 0.950 . S
C4528 C4527 1.414 . S
C4528 C4529 1.374 . S
C4529 H4509 0.950 . S
C4529 C4525 1.385 . S
C4529 C4528 1.374 . S
C4530 C4527 1.499 . S
C4530 C4531 1.373 . S
C4530 C4532 1.389 . S
C4531 H4510 0.950 . S
C4531 C4530 1.373 . S
C4531 C4547 1.377 . S
C4532 C4530 1.389 . S
C4532 C4533 1.524 . S
C4532 C4546 1.377 . S
C4533 C4532 1.524 . S
C4533 C4534 1.397 . S
C4533 C4538 1.363 . S
C4534 H4511 0.950 . S
C4534 C4533 1.397 . S
C4534 C4535 1.334 . S
C4535 H4512 0.950 . S
C4535 C4534 1.334 . S
C4535 C4536 1.287 . S
C4536 C4535 1.287 . S
C4536 C4537 1.524 . S
C4536 H4555 0.913 . S
C4537 H4513 0.950 . S
C4537 C4536 1.524 . S
C4537 C4538 1.415 . S
C4538 H4514 0.950 . S
C4538 C4533 1.363 . S
C4538 C4537 1.415 . S
C4539 H4515 0.951 . S
C4539 C4540 1.366 . S
C4539 C4541 1.388 . S
C4540 C4539 1.366 . S
C4540 C4544 1.385 . S
C4541 H4516 0.951 . S
C4541 C4539 1.388 . S
C4541 C4542 1.366 . S
C4542 C4541 1.366 . S
C4542 C4543 1.414 . S
C4542 C4545 1.499 . S
C4543 H4517 0.950 . S
C4543 C4542 1.414 . S
C4543 C4544 1.374 . S
C4544 H4518 0.950 . S
C4544 C4540 1.385 . S
C4544 C4543 1.374 . S
C4545 C4542 1.499 . S
C4545 C4546 1.373 . S
C4545 C4547 1.389 . S
C4546 H4519 0.950 . S
C4546 C4532 1.377 . S
C4546 C4545 1.373 . S
C4547 C4531 1.377 . S
C4547 C4545 1.389 . S
C4547 C4548 1.524 . S
C4548 C4547 1.524 . S
C4548 C4549 1.397 . S
C4548 C4553 1.363 . S
C4549 H4520 0.950 . S
C4549 C4548 1.397 . S
C4549 C4550 1.334 . S
C4550 H4521 0.950 . S
C4550 C4549 1.334 . S
C4550 C4551 1.287 . S
C4551 C4550 1.287 . S
C4551 C4552 1.524 . S
C4551 H4554 0.999 . S
C4552 H4522 0.950 . S
C4552 C4551 1.524 . S
C4552 C4553 1.415 . S
C4553 H4523 0.950 . S
C4553 C4548 1.363 . S
C4553 C4552 1.415 . S
H4554 C4551 0.999 . S
H4555 C4536 0.913 . S
H4556 C4574 0.951 . S
H4557 C4576 0.951 . S
H4558 C4578 0.950 . S
H4559 C4579 0.950 . S
H4560 C4581 0.950 . S
H4561 C4584 0.950 . S
H4562 C4585 0.950 . S
H4563 C4587 0.950 . S
H4564 C4588 0.950 . S
H4565 C4589 0.951 . S
H4566 C4591 0.951 . S
H4567 C4593 0.950 . S
H4568 C4594 0.950 . S
H4569 C4596 0.950 . S
H4570 C4599 0.950 . S
H4571 C4600 0.950 . S
H4572 C4602 0.950 . S
H4573 C4603 0.950 . S
C4574 H4556 0.951 . S
C4574 C4575 1.366 . S
C4574 C4576 1.388 . S
C4575 C4574 1.366 . S
C4575 C4579 1.385 . S
C4576 H4557 0.951 . S
C4576 C4574 1.388 . S
C4576 C4577 1.366 . S
C4577 C4576 1.366 . S
C4577 C4578 1.414 . S
C4577 C4580 1.499 . S
C4578 H4558 0.950 . S
C4578 C4577 1.414 . S
C4578 C4579 1.374 . S
C4579 H4559 0.950 . S
C4579 C4575 1.385 . S
C4579 C4578 1.374 . S
C4580 C4577 1.499 . S
C4580 C4581 1.373 . S
C4580 C4582 1.389 . S
C4581 H4560 0.950 . S
C4581 C4580 1.373 . S
C4581 C4597 1.377 . S
C4582 C4580 1.389 . S
C4582 C4583 1.524 . S
C4582 C4596 1.377 . S
C4583 C4582 1.524 . S
C4583 C4584 1.397 . S
C4583 C4588 1.363 . S
C4584 H4561 0.950 . S
C4584 C4583 1.397 . S
C4584 C4585 1.334 . S
C4585 H4562 0.950 . S
C4585 C4584 1.334 . S
C4585 C4586 1.287 . S
C4586 C4585 1.287 . S
C4586 C4587 1.524 . S
C4586 H4605 0.913 . S
C4587 H4563 0.950 . S
C4587 C4586 1.524 . S
C4587 C4588 1.415 . S
C4588 H4564 0.950 . S
C4588 C4583 1.363 . S
C4588 C4587 1.415 . S
C4589 H4565 0.951 . S
C4589 C4590 1.366 . S
C4589 C4591 1.388 . S
C4590 C4589 1.366 . S
C4590 C4594 1.385 . S
C4591 H4566 0.951 . S
C4591 C4589 1.388 . S
C4591 C4592 1.366 . S
C4592 C4591 1.366 . S
C4592 C4593 1.414 . S
C4592 C4595 1.499 . S
C4593 H4567 0.950 . S
C4593 C4592 1.414 . S
C4593 C4594 1.374 . S
C4594 H4568 0.950 . S
C4594 C4590 1.385 . S
C4594 C4593 1.374 . S
C4595 C4592 1.499 . S
C4595 C4596 1.373 . S
C4595 C4597 1.389 . S
C4596 H4569 0.950 . S
C4596 C4582 1.377 . S
C4596 C4595 1.373 . S
C4597 C4581 1.377 . S
C4597 C4595 1.389 . S
C4597 C4598 1.524 . S
C4598 C4597 1.524 . S
C4598 C4599 1.397 . S
C4598 C4603 1.363 . S
C4599 H4570 0.950 . S
C4599 C4598 1.397 . S
C4599 C4600 1.334 . S
C4600 H4571 0.950 . S
C4600 C4599 1.334 . S
C4600 C4601 1.287 . S
C4601 C4600 1.287 . S
C4601 C4602 1.524 . S
C4601 H4604 0.999 . S
C4602 H4572 0.950 . S
C4602 C4601 1.524 . S
C4602 C4603 1.415 . S
C4603 H4573 0.950 . S
C4603 C4598 1.363 . S
C4603 C4602 1.415 . S
H4604 C4601 0.999 . S
H4605 C4586 0.913 . S
H4606 C4624 0.951 . S
H4607 C4626 0.951 . S
H4608 C4628 0.950 . S
H4609 C4629 0.950 . S
H4610 C4631 0.950 . S
H4611 C4634 0.950 . S
H4612 C4635 0.950 . S
H4613 C4637 0.950 . S
H4614 C4638 0.950 . S
H4615 C4639 0.951 . S
H4616 C4641 0.951 . S
H4617 C4643 0.950 . S
H4618 C4644 0.950 . S
H4619 C4646 0.950 . S
H4620 C4649 0.950 . S
H4621 C4650 0.950 . S
H4622 C4652 0.950 . S
H4623 C4653 0.950 . S
C4624 H4606 0.951 . S
C4624 C4625 1.366 . S
C4624 C4626 1.388 . S
C4625 C4624 1.366 . S
C4625 C4629 1.385 . S
C4626 H4607 0.951 . S
C4626 C4624 1.388 . S
C4626 C4627 1.366 . S
C4627 C4626 1.366 . S
C4627 C4628 1.414 . S
C4627 C4630 1.499 . S
C4628 H4608 0.950 . S
C4628 C4627 1.414 . S
C4628 C4629 1.374 . S
C4629 H4609 0.950 . S
C4629 C4625 1.385 . S
C4629 C4628 1.374 . S
C4630 C4627 1.499 . S
C4630 C4631 1.373 . S
C4630 C4632 1.389 . S
C4631 H4610 0.950 . S
C4631 C4630 1.373 . S
C4631 C4647 1.377 . S
C4632 C4630 1.389 . S
C4632 C4633 1.524 . S
C4632 C4646 1.377 . S
C4633 C4632 1.524 . S
C4633 C4634 1.397 . S
C4633 C4638 1.363 . S
C4634 H4611 0.950 . S
C4634 C4633 1.397 . S
C4634 C4635 1.334 . S
C4635 H4612 0.950 . S
C4635 C4634 1.334 . S
C4635 C4636 1.287 . S
C4636 C4635 1.287 . S
C4636 C4637 1.524 . S
C4636 H4655 0.913 . S
C4637 H4613 0.950 . S
C4637 C4636 1.524 . S
C4637 C4638 1.415 . S
C4638 H4614 0.950 . S
C4638 C4633 1.363 . S
C4638 C4637 1.415 . S
C4639 H4615 0.951 . S
C4639 C4640 1.366 . S
C4639 C4641 1.388 . S
C4640 C4639 1.366 . S
C4640 C4644 1.385 . S
C4641 H4616 0.951 . S
C4641 C4639 1.388 . S
C4641 C4642 1.366 . S
C4642 C4641 1.366 . S
C4642 C4643 1.414 . S
C4642 C4645 1.499 . S
C4643 H4617 0.950 . S
C4643 C4642 1.414 . S
C4643 C4644 1.374 . S
C4644 H4618 0.950 . S
C4644 C4640 1.385 . S
C4644 C4643 1.374 . S
C4645 C4642 1.499 . S
C4645 C4646 1.373 . S
C4645 C4647 1.389 . S
C4646 H4619 0.950 . S
C4646 C4632 1.377 . S
C4646 C4645 1.373 . S
C4647 C4631 1.377 . S
C4647 C4645 1.389 . S
C4647 C4648 1.524 . S
C4648 C4647 1.524 . S
C4648 C4649 1.397 . S
C4648 C4653 1.363 . S
C4649 H4620 0.950 . S
C4649 C4648 1.397 . S
C4649 C4650 1.334 . S
C4650 H4621 0.950 . S
C4650 C4649 1.334 . S
C4650 C4651 1.287 . S
C4651 C4650 1.287 . S
C4651 C4652 1.524 . S
C4651 H4654 0.999 . S
C4652 H4622 0.950 . S
C4652 C4651 1.524 . S
C4652 C4653 1.415 . S
C4653 H4623 0.950 . S
C4653 C4648 1.363 . S
C4653 C4652 1.415 . S
H4654 C4651 0.999 . S
H4655 C4636 0.913 . S
H4656 C4674 0.951 . S
H4657 C4676 0.951 . S
H4658 C4678 0.950 . S
H4659 C4679 0.950 . S
H4660 C4681 0.950 . S
H4661 C4684 0.950 . S
H4662 C4685 0.950 . S
H4663 C4687 0.950 . S
H4664 C4688 0.950 . S
H4665 C4689 0.951 . S
H4666 C4691 0.951 . S
H4667 C4693 0.950 . S
H4668 C4694 0.950 1_545 S
H4669 C4696 0.950 . S
H4670 C4699 0.950 . S
H4671 C4700 0.950 . S
H4672 C4702 0.950 . S
H4673 C4703 0.950 . S
C4674 H4656 0.951 . S
C4674 C4675 1.366 . S
C4674 C4676 1.388 . S
C4675 C4674 1.366 . S
C4675 C4679 1.385 . S
C4676 H4657 0.951 . S
C4676 C4674 1.388 . S
C4676 C4677 1.366 . S
C4677 C4676 1.366 . S
C4677 C4678 1.414 . S
C4677 C4680 1.499 . S
C4678 H4658 0.950 . S
C4678 C4677 1.414 . S
C4678 C4679 1.374 . S
C4679 H4659 0.950 . S
C4679 C4675 1.385 . S
C4679 C4678 1.374 . S
C4680 C4677 1.499 . S
C4680 C4681 1.373 . S
C4680 C4682 1.389 . S
C4681 H4660 0.950 . S
C4681 C4680 1.373 . S
C4681 C4697 1.377 . S
C4682 C4680 1.389 . S
C4682 C4683 1.524 . S
C4682 C4696 1.377 . S
C4683 C4682 1.524 . S
C4683 C4684 1.397 . S
C4683 C4688 1.363 . S
C4684 H4661 0.950 . S
C4684 C4683 1.397 . S
C4684 C4685 1.334 . S
C4685 H4662 0.950 . S
C4685 C4684 1.334 . S
C4685 C4686 1.287 . S
C4686 C4685 1.287 . S
C4686 C4687 1.524 . S
C4686 H4705 0.913 . S
C4687 H4663 0.950 . S
C4687 C4686 1.524 . S
C4687 C4688 1.415 . S
C4688 H4664 0.950 . S
C4688 C4683 1.363 . S
C4688 C4687 1.415 . S
C4689 H4665 0.951 . S
C4689 C4690 1.366 . S
C4689 C4691 1.388 . S
C4690 C4689 1.366 . S
C4690 C4694 1.385 . S
C4691 H4666 0.951 . S
C4691 C4689 1.388 . S
C4691 C4692 1.366 . S
C4692 C4691 1.366 . S
C4692 C4693 1.414 . S
C4692 C4695 1.499 . S
C4693 H4667 0.950 . S
C4693 C4692 1.414 . S
C4693 C4694 1.374 . S
C4694 H4668 0.950 1_565 S
C4694 C4690 1.385 . S
C4694 C4693 1.374 . S
C4695 C4692 1.499 . S
C4695 C4696 1.373 . S
C4695 C4697 1.389 . S
C4696 H4669 0.950 . S
C4696 C4682 1.377 . S
C4696 C4695 1.373 . S
C4697 C4681 1.377 . S
C4697 C4695 1.389 . S
C4697 C4698 1.524 . S
C4698 C4697 1.524 . S
C4698 C4699 1.397 . S
C4698 C4703 1.363 1_554 S
C4699 H4670 0.950 . S
C4699 C4698 1.397 . S
C4699 C4700 1.334 1_554 S
C4700 H4671 0.950 . S
C4700 C4699 1.334 1_556 S
C4700 C4701 1.287 . S
C4701 C4700 1.287 . S
C4701 C4702 1.524 . S
C4701 H4704 0.999 . S
C4702 H4672 0.950 . S
C4702 C4701 1.524 . S
C4702 C4703 1.415 . S
C4703 H4673 0.950 . S
C4703 C4698 1.363 1_556 S
C4703 C4702 1.415 . S
H4704 C4701 0.999 . S
H4705 C4686 0.913 . S
H4706 C4724 0.951 . S
H4707 C4726 0.951 . S
H4708 C4728 0.950 . S
H4709 C4729 0.950 . S
H4710 C4731 0.950 . S
H4711 C4734 0.950 . S
H4712 C4735 0.950 . S
H4713 C4737 0.950 . S
H4714 C4738 0.950 . S
H4715 C4739 0.951 . S
H4716 C4741 0.951 . S
H4717 C4743 0.950 . S
H4718 C4744 0.950 . S
H4719 C4746 0.950 . S
H4720 C4749 0.950 . S
H4721 C4750 0.950 . S
H4722 C4752 0.950 . S
H4723 C4753 0.950 . S
C4724 H4706 0.951 . S
C4724 C4725 1.366 . S
C4724 C4726 1.388 . S
C4725 C4724 1.366 . S
C4725 C4729 1.385 . S
C4726 H4707 0.951 . S
C4726 C4724 1.388 . S
C4726 C4727 1.366 . S
C4727 C4726 1.366 . S
C4727 C4728 1.414 . S
C4727 C4730 1.499 . S
C4728 H4708 0.950 . S
C4728 C4727 1.414 . S
C4728 C4729 1.374 . S
C4729 H4709 0.950 . S
C4729 C4725 1.385 . S
C4729 C4728 1.374 . S
C4730 C4727 1.499 . S
C4730 C4731 1.373 . S
C4730 C4732 1.389 . S
C4731 H4710 0.950 . S
C4731 C4730 1.373 . S
C4731 C4747 1.377 . S
C4732 C4730 1.389 . S
C4732 C4733 1.524 . S
C4732 C4746 1.377 . S
C4733 C4732 1.524 . S
C4733 C4734 1.397 . S
C4733 C4738 1.363 . S
C4734 H4711 0.950 . S
C4734 C4733 1.397 . S
C4734 C4735 1.334 . S
C4735 H4712 0.950 . S
C4735 C4734 1.334 . S
C4735 C4736 1.287 . S
C4736 C4735 1.287 . S
C4736 C4737 1.524 . S
C4736 H4755 0.913 . S
C4737 H4713 0.950 . S
C4737 C4736 1.524 . S
C4737 C4738 1.415 . S
C4738 H4714 0.950 . S
C4738 C4733 1.363 . S
C4738 C4737 1.415 . S
C4739 H4715 0.951 . S
C4739 C4740 1.366 . S
C4739 C4741 1.388 . S
C4740 C4739 1.366 . S
C4740 C4744 1.385 . S
C4741 H4716 0.951 . S
C4741 C4739 1.388 . S
C4741 C4742 1.366 . S
C4742 C4741 1.366 . S
C4742 C4743 1.414 . S
C4742 C4745 1.499 . S
C4743 H4717 0.950 . S
C4743 C4742 1.414 . S
C4743 C4744 1.374 . S
C4744 H4718 0.950 . S
C4744 C4740 1.385 . S
C4744 C4743 1.374 . S
C4745 C4742 1.499 . S
C4745 C4746 1.373 . S
C4745 C4747 1.389 . S
C4746 H4719 0.950 . S
C4746 C4732 1.377 . S
C4746 C4745 1.373 . S
C4747 C4731 1.377 . S
C4747 C4745 1.389 . S
C4747 C4748 1.524 . S
C4748 C4747 1.524 . S
C4748 C4749 1.397 . S
C4748 C4753 1.363 . S
C4749 H4720 0.950 . S
C4749 C4748 1.397 . S
C4749 C4750 1.334 . S
C4750 H4721 0.950 . S
C4750 C4749 1.334 . S
C4750 C4751 1.287 . S
C4751 C4750 1.287 . S
C4751 C4752 1.524 . S
C4751 H4754 0.999 . S
C4752 H4722 0.950 . S
C4752 C4751 1.524 . S
C4752 C4753 1.415 . S
C4753 H4723 0.950 . S
C4753 C4748 1.363 . S
C4753 C4752 1.415 . S
H4754 C4751 0.999 . S
H4755 C4736 0.913 . S
H4756 C4774 0.951 . S
H4757 C4776 0.951 . S
H4758 C4778 0.950 . S
H4759 C4779 0.950 . S
H4760 C4781 0.950 . S
H4761 C4784 0.950 . S
H4762 C4785 0.950 . S
H4763 C4787 0.950 . S
H4764 C4788 0.950 . S
H4765 C4789 0.951 . S
H4766 C4791 0.951 . S
H4767 C4793 0.950 . S
H4768 C4794 0.950 . S
H4769 C4796 0.950 . S
H4770 C4799 0.950 . S
H4771 C4800 0.950 . S
H4772 C4802 0.950 . S
H4773 C4803 0.950 . S
C4774 H4756 0.951 . S
C4774 C4775 1.366 . S
C4774 C4776 1.388 . S
C4775 C4774 1.366 . S
C4775 C4779 1.385 . S
C4776 H4757 0.951 . S
C4776 C4774 1.388 . S
C4776 C4777 1.366 . S
C4777 C4776 1.366 . S
C4777 C4778 1.414 . S
C4777 C4780 1.499 . S
C4778 H4758 0.950 . S
C4778 C4777 1.414 . S
C4778 C4779 1.374 . S
C4779 H4759 0.950 . S
C4779 C4775 1.385 . S
C4779 C4778 1.374 . S
C4780 C4777 1.499 . S
C4780 C4781 1.373 . S
C4780 C4782 1.389 . S
C4781 H4760 0.950 . S
C4781 C4780 1.373 . S
C4781 C4797 1.377 . S
C4782 C4780 1.389 . S
C4782 C4783 1.524 . S
C4782 C4796 1.377 . S
C4783 C4782 1.524 . S
C4783 C4784 1.397 . S
C4783 C4788 1.363 . S
C4784 H4761 0.950 . S
C4784 C4783 1.397 . S
C4784 C4785 1.334 . S
C4785 H4762 0.950 . S
C4785 C4784 1.334 . S
C4785 C4786 1.287 . S
C4786 C4785 1.287 . S
C4786 C4787 1.524 . S
C4786 H4805 0.913 . S
C4787 H4763 0.950 . S
C4787 C4786 1.524 . S
C4787 C4788 1.415 . S
C4788 H4764 0.950 . S
C4788 C4783 1.363 . S
C4788 C4787 1.415 . S
C4789 H4765 0.951 . S
C4789 C4790 1.366 . S
C4789 C4791 1.388 . S
C4790 C4789 1.366 . S
C4790 C4794 1.385 . S
C4791 H4766 0.951 . S
C4791 C4789 1.388 . S
C4791 C4792 1.366 . S
C4792 C4791 1.366 . S
C4792 C4793 1.414 . S
C4792 C4795 1.499 . S
C4793 H4767 0.950 . S
C4793 C4792 1.414 . S
C4793 C4794 1.374 . S
C4794 H4768 0.950 . S
C4794 C4790 1.385 . S
C4794 C4793 1.374 . S
C4795 C4792 1.499 . S
C4795 C4796 1.373 . S
C4795 C4797 1.389 . S
C4796 H4769 0.950 . S
C4796 C4782 1.377 . S
C4796 C4795 1.373 . S
C4797 C4781 1.377 . S
C4797 C4795 1.389 . S
C4797 C4798 1.524 . S
C4798 C4797 1.524 . S
C4798 C4799 1.397 . S
C4798 C4803 1.363 . S
C4799 H4770 0.950 . S
C4799 C4798 1.397 . S
C4799 C4800 1.334 . S
C4800 H4771 0.950 . S
C4800 C4799 1.334 . S
C4800 C4801 1.287 . S
C4801 C4800 1.287 . S
C4801 C4802 1.524 . S
C4801 H4804 0.999 . S
C4802 H4772 0.950 . S
C4802 C4801 1.524 . S
C4802 C4803 1.415 . S
C4803 H4773 0.950 . S
C4803 C4798 1.363 . S
C4803 C4802 1.415 . S
H4804 C4801 0.999 . S
H4805 C4786 0.913 . S
H4806 C4824 0.951 . S
H4807 C4826 0.951 . S
H4808 C4828 0.950 . S
H4809 C4829 0.950 . S
H4810 C4831 0.950 . S
H4811 C4834 0.950 . S
H4812 C4835 0.950 . S
H4813 C4837 0.950 . S
H4814 C4838 0.950 . S
H4815 C4839 0.951 . S
H4816 C4841 0.951 . S
H4817 C4843 0.950 . S
H4818 C4844 0.950 . S
H4819 C4846 0.950 . S
H4820 C4849 0.950 . S
H4821 C4850 0.950 . S
H4822 C4852 0.950 . S
H4823 C4853 0.950 . S
C4824 H4806 0.951 . S
C4824 C4825 1.366 . S
C4824 C4826 1.388 . S
C4825 C4824 1.366 . S
C4825 C4829 1.385 . S
C4826 H4807 0.951 . S
C4826 C4824 1.388 . S
C4826 C4827 1.366 . S
C4827 C4826 1.366 . S
C4827 C4828 1.414 . S
C4827 C4830 1.499 . S
C4828 H4808 0.950 . S
C4828 C4827 1.414 . S
C4828 C4829 1.374 . S
C4829 H4809 0.950 . S
C4829 C4825 1.385 . S
C4829 C4828 1.374 . S
C4830 C4827 1.499 . S
C4830 C4831 1.373 . S
C4830 C4832 1.389 . S
C4831 H4810 0.950 . S
C4831 C4830 1.373 . S
C4831 C4847 1.377 . S
C4832 C4830 1.389 . S
C4832 C4833 1.524 . S
C4832 C4846 1.377 . S
C4833 C4832 1.524 . S
C4833 C4834 1.397 . S
C4833 C4838 1.363 . S
C4834 H4811 0.950 . S
C4834 C4833 1.397 . S
C4834 C4835 1.334 . S
C4835 H4812 0.950 . S
C4835 C4834 1.334 . S
C4835 C4836 1.287 . S
C4836 C4835 1.287 . S
C4836 C4837 1.524 . S
C4836 H4855 0.913 . S
C4837 H4813 0.950 . S
C4837 C4836 1.524 . S
C4837 C4838 1.415 . S
C4838 H4814 0.950 . S
C4838 C4833 1.363 . S
C4838 C4837 1.415 . S
C4839 H4815 0.951 . S
C4839 C4840 1.366 . S
C4839 C4841 1.388 . S
C4840 C4839 1.366 . S
C4840 C4844 1.385 . S
C4841 H4816 0.951 . S
C4841 C4839 1.388 . S
C4841 C4842 1.366 . S
C4842 C4841 1.366 . S
C4842 C4843 1.414 . S
C4842 C4845 1.499 . S
C4843 H4817 0.950 . S
C4843 C4842 1.414 . S
C4843 C4844 1.374 . S
C4844 H4818 0.950 . S
C4844 C4840 1.385 . S
C4844 C4843 1.374 . S
C4845 C4842 1.499 . S
C4845 C4846 1.373 . S
C4845 C4847 1.389 . S
C4846 H4819 0.950 . S
C4846 C4832 1.377 . S
C4846 C4845 1.373 . S
C4847 C4831 1.377 . S
C4847 C4845 1.389 . S
C4847 C4848 1.524 . S
C4848 C4847 1.524 . S
C4848 C4849 1.397 . S
C4848 C4853 1.363 . S
C4849 H4820 0.950 . S
C4849 C4848 1.397 . S
C4849 C4850 1.334 . S
C4850 H4821 0.950 . S
C4850 C4849 1.334 . S
C4850 C4851 1.287 . S
C4851 C4850 1.287 . S
C4851 C4852 1.524 . S
C4851 H4854 0.999 . S
C4852 H4822 0.950 . S
C4852 C4851 1.524 . S
C4852 C4853 1.415 . S
C4853 H4823 0.950 . S
C4853 C4848 1.363 . S
C4853 C4852 1.415 . S
H4854 C4851 0.999 . S
H4855 C4836 0.913 . S
H4856 C4874 0.951 . S
H4857 C4876 0.951 . S
H4858 C4878 0.950 . S
H4859 C4879 0.950 . S
H4860 C4881 0.950 . S
H4861 C4884 0.950 . S
H4862 C4885 0.950 . S
H4863 C4887 0.950 . S
H4864 C4888 0.950 . S
H4865 C4889 0.951 . S
H4866 C4891 0.951 . S
H4867 C4893 0.950 . S
H4868 C4894 0.950 . S
H4869 C4896 0.950 . S
H4870 C4899 0.950 . S
H4871 C4900 0.950 . S
H4872 C4902 0.988 . S
H4873 C4903 0.950 . S
C4874 H4856 0.951 . S
C4874 C4875 1.366 . S
C4874 C4876 1.388 . S
C4875 C4874 1.366 . S
C4875 C4879 1.385 . S
C4876 H4857 0.951 . S
C4876 C4874 1.388 . S
C4876 C4877 1.366 . S
C4877 C4876 1.366 . S
C4877 C4878 1.414 . S
C4877 C4880 1.499 . S
C4878 H4858 0.950 . S
C4878 C4877 1.414 . S
C4878 C4879 1.374 . S
C4879 H4859 0.950 . S
C4879 C4875 1.385 . S
C4879 C4878 1.374 . S
C4880 C4877 1.499 . S
C4880 C4881 1.373 . S
C4880 C4882 1.389 . S
C4881 H4860 0.950 . S
C4881 C4880 1.373 . S
C4881 C4897 1.377 . S
C4882 C4880 1.389 . S
C4882 C4883 1.524 . S
C4882 C4896 1.377 . S
C4883 C4882 1.524 . S
C4883 C4884 1.397 . S
C4883 C4888 1.363 . S
C4884 H4861 0.950 . S
C4884 C4883 1.397 . S
C4884 C4885 1.334 . S
C4885 H4862 0.950 . S
C4885 C4884 1.334 . S
C4885 C4886 1.287 . S
C4886 C4885 1.287 . S
C4886 C4887 1.524 . S
C4886 H4905 0.913 . S
C4887 H4863 0.950 . S
C4887 C4886 1.524 . S
C4887 C4888 1.415 . S
C4888 H4864 0.950 . S
C4888 C4883 1.363 . S
C4888 C4887 1.415 . S
C4889 H4865 0.951 . S
C4889 C4890 1.366 . S
C4889 C4891 1.388 . S
C4890 C4889 1.366 . S
C4890 C4894 1.385 . S
C4891 H4866 0.951 . S
C4891 C4889 1.388 . S
C4891 C4892 1.366 . S
C4892 C4891 1.366 . S
C4892 C4893 1.414 . S
C4892 C4895 1.499 . S
C4893 H4867 0.950 . S
C4893 C4892 1.414 . S
C4893 C4894 1.374 . S
C4894 H4868 0.950 . S
C4894 C4890 1.385 . S
C4894 C4893 1.374 . S
C4895 C4892 1.499 . S
C4895 C4896 1.373 . S
C4895 C4897 1.389 . S
C4896 H4869 0.950 . S
C4896 C4882 1.377 . S
C4896 C4895 1.373 . S
C4897 C4881 1.377 . S
C4897 C4895 1.389 . S
C4897 C4898 1.524 . S
C4898 C4897 1.524 . S
C4898 C4899 1.397 . S
C4898 C4903 1.363 . S
C4899 H4870 0.950 . S
C4899 C4898 1.397 . S
C4899 C4900 1.334 . S
C4900 H4871 0.950 . S
C4900 C4899 1.334 . S
C4900 C4901 1.287 . S
C4901 C4900 1.287 . S
C4901 C4902 1.524 . S
C4901 H4904 0.999 1_455 S
C4902 H4872 0.988 . S
C4902 C4901 1.524 . S
C4902 C4903 1.415 . S
C4903 H4873 0.950 . S
C4903 C4898 1.363 . S
C4903 C4902 1.415 . S
H4904 C4901 0.999 1_655 S
H4905 C4886 0.913 . S
H4906 C4924 0.951 . S
H4907 C4926 0.951 . S
H4908 C4928 0.950 . S
H4909 C4929 0.950 . S
H4910 C4931 0.950 . S
H4911 C4934 0.950 . S
H4912 C4935 0.950 . S
H4913 C4937 0.950 . S
H4914 C4938 0.950 . S
H4915 C4939 0.951 . S
H4916 C4941 0.951 . S
H4917 C4943 0.950 . S
H4918 C4944 0.950 . S
H4919 C4946 0.950 . S
H4920 C4949 0.950 . S
H4921 C4950 0.950 . S
H4922 C4952 0.950 . S
H4923 C4953 0.950 . S
C4924 H4906 0.951 . S
C4924 C4925 1.366 . S
C4924 C4926 1.388 . S
C4925 C4924 1.366 . S
C4925 C4929 1.385 . S
C4926 H4907 0.951 . S
C4926 C4924 1.388 . S
C4926 C4927 1.366 . S
C4927 C4926 1.366 . S
C4927 C4928 1.414 . S
C4927 C4930 1.499 . S
C4928 H4908 0.950 . S
C4928 C4927 1.414 . S
C4928 C4929 1.374 . S
C4929 H4909 0.950 . S
C4929 C4925 1.385 . S
C4929 C4928 1.374 . S
C4930 C4927 1.499 . S
C4930 C4931 1.373 . S
C4930 C4932 1.389 . S
C4931 H4910 0.950 . S
C4931 C4930 1.373 . S
C4931 C4947 1.377 . S
C4932 C4930 1.389 . S
C4932 C4933 1.524 . S
C4932 C4946 1.377 . S
C4933 C4932 1.524 . S
C4933 C4934 1.397 . S
C4933 C4938 1.363 . S
C4934 H4911 0.950 . S
C4934 C4933 1.397 . S
C4934 C4935 1.334 . S
C4935 H4912 0.950 . S
C4935 C4934 1.334 . S
C4935 C4936 1.287 . S
C4936 C4935 1.287 . S
C4936 C4937 1.524 . S
C4936 H4955 0.913 . S
C4937 H4913 0.950 . S
C4937 C4936 1.524 . S
C4937 C4938 1.415 . S
C4938 H4914 0.950 . S
C4938 C4933 1.363 . S
C4938 C4937 1.415 . S
C4939 H4915 0.951 . S
C4939 C4940 1.366 . S
C4939 C4941 1.388 . S
C4940 C4939 1.366 . S
C4940 C4944 1.385 . S
C4941 H4916 0.951 . S
C4941 C4939 1.388 . S
C4941 C4942 1.366 . S
C4942 C4941 1.366 . S
C4942 C4943 1.414 . S
C4942 C4945 1.499 . S
C4943 H4917 0.950 . S
C4943 C4942 1.414 . S
C4943 C4944 1.374 . S
C4944 H4918 0.950 . S
C4944 C4940 1.385 . S
C4944 C4943 1.374 . S
C4945 C4942 1.499 . S
C4945 C4946 1.373 . S
C4945 C4947 1.389 . S
C4946 H4919 0.950 . S
C4946 C4932 1.377 . S
C4946 C4945 1.373 . S
C4947 C4931 1.377 . S
C4947 C4945 1.389 . S
C4947 C4948 1.524 . S
C4948 C4947 1.524 . S
C4948 C4949 1.397 . S
C4948 C4953 1.363 . S
C4949 H4920 0.950 . S
C4949 C4948 1.397 . S
C4949 C4950 1.334 . S
C4950 H4921 0.950 . S
C4950 C4949 1.334 . S
C4950 C4951 1.287 . S
C4951 C4950 1.287 . S
C4951 C4952 1.524 . S
C4951 H4954 0.999 . S
C4952 H4922 0.950 . S
C4952 C4951 1.524 . S
C4952 C4953 1.415 . S
C4953 H4923 0.950 . S
C4953 C4948 1.363 . S
C4953 C4952 1.415 . S
H4954 C4951 0.999 . S
H4955 C4936 0.913 . S
H4956 C4974 0.951 . S
H4957 C4976 0.951 . S
H4958 C4978 0.950 . S
H4959 C4979 0.950 . S
H4960 C4981 0.950 . S
H4961 C4984 0.950 . S
H4962 C4985 0.950 . S
H4963 C4987 0.950 . S
H4964 C4988 0.950 . S
H4965 C4989 0.951 . S
H4966 C4991 0.951 . S
H4967 C4993 0.950 1_554 S
H4968 C4994 0.950 . S
H4969 C4996 0.950 . S
H4970 C4999 0.950 . S
H4971 C5000 0.950 1_545 S
H4972 C5002 0.950 . S
H4973 C5003 0.950 . S
C4974 H4956 0.951 . S
C4974 C4975 1.366 . S
C4974 C4976 1.388 . S
C4975 C4974 1.366 . S
C4975 C4979 1.385 . S
C4976 H4957 0.951 . S
C4976 C4974 1.388 . S
C4976 C4977 1.366 . S
C4977 C4976 1.366 . S
C4977 C4978 1.414 . S
C4977 C4980 1.499 . S
C4978 H4958 0.950 . S
C4978 C4977 1.414 . S
C4978 C4979 1.374 . S
C4979 H4959 0.950 . S
C4979 C4975 1.385 . S
C4979 C4978 1.374 . S
C4980 C4977 1.499 . S
C4980 C4981 1.373 . S
C4980 C4982 1.389 . S
C4981 H4960 0.950 . S
C4981 C4980 1.373 . S
C4981 C4997 1.377 . S
C4982 C4980 1.389 . S
C4982 C4983 1.524 . S
C4982 C4996 1.377 . S
C4983 C4982 1.524 . S
C4983 C4984 1.397 . S
C4983 C4988 1.363 1_556 S
C4984 H4961 0.950 . S
C4984 C4983 1.397 . S
C4984 C4985 1.334 . S
C4985 H4962 0.950 . S
C4985 C4984 1.334 . S
C4985 C4986 1.287 1_556 S
C4986 C4985 1.287 1_554 S
C4986 C4987 1.524 . S
C4986 H5005 0.913 . S
C4987 H4963 0.950 . S
C4987 C4986 1.524 . S
C4987 C4988 1.415 . S
C4988 H4964 0.950 . S
C4988 C4983 1.363 1_554 S
C4988 C4987 1.415 . S
C4989 H4965 0.951 . S
C4989 C4990 1.366 1_566 S
C4989 C4991 1.388 . S
C4990 C4989 1.366 1_544 S
C4990 C4994 1.385 . S
C4991 H4966 0.951 . S
C4991 C4989 1.388 . S
C4991 C4992 1.366 . S
C4992 C4991 1.366 . S
C4992 C4993 1.414 . S
C4992 C4995 1.499 . S
C4993 H4967 0.950 1_556 S
C4993 C4992 1.414 . S
C4993 C4994 1.374 1_566 S
C4994 H4968 0.950 . S
C4994 C4990 1.385 . S
C4994 C4993 1.374 1_544 S
C4995 C4992 1.499 . S
C4995 C4996 1.373 . S
C4995 C4997 1.389 . S
C4996 H4969 0.950 . S
C4996 C4982 1.377 . S
C4996 C4995 1.373 . S
C4997 C4981 1.377 . S
C4997 C4995 1.389 . S
C4997 C4998 1.524 . S
C4998 C4997 1.524 . S
C4998 C4999 1.397 . S
C4998 C5003 1.363 . S
C4999 H4970 0.950 . S
C4999 C4998 1.397 . S
C4999 C5000 1.334 . S
C5000 H4971 0.950 1_565 S
C5000 C4999 1.334 . S
C5000 C5001 1.287 . S
C5001 C5000 1.287 . S
C5001 C5002 1.524 . S
C5001 H5004 0.993 . S
C5002 H4972 0.950 . S
C5002 C5001 1.524 . S
C5002 C5003 1.415 . S
C5003 H4973 0.950 . S
C5003 C4998 1.363 . S
C5003 C5002 1.415 . S
H5004 C5001 0.993 . S
H5005 C4986 0.913 . S
H5006 C5024 0.951 . S
H5007 C5026 0.951 . S
H5008 C5028 0.950 . S
H5009 C5029 0.950 . S
H5010 C5031 0.950 . S
H5011 C5034 0.950 . S
H5012 C5035 0.950 . S
H5013 C5037 0.950 . S
H5014 C5038 0.950 . S
H5015 C5039 0.951 . S
H5016 C5041 0.951 . S
H5017 C5043 0.950 . S
H5018 C5044 0.950 . S
H5019 C5046 0.950 . S
H5020 C5049 0.950 . S
H5021 C5050 0.950 . S
H5022 C5052 0.950 . S
H5023 C5053 0.950 . S
C5024 H5006 0.951 . S
C5024 C5025 1.366 . S
C5024 C5026 1.388 . S
C5025 C5024 1.366 . S
C5025 C5029 1.385 . S
C5026 H5007 0.951 . S
C5026 C5024 1.388 . S
C5026 C5027 1.366 . S
C5027 C5026 1.366 . S
C5027 C5028 1.414 . S
C5027 C5030 1.499 . S
C5028 H5008 0.950 . S
C5028 C5027 1.414 . S
C5028 C5029 1.374 . S
C5029 H5009 0.950 . S
C5029 C5025 1.385 . S
C5029 C5028 1.374 . S
C5030 C5027 1.499 . S
C5030 C5031 1.373 . S
C5030 C5032 1.389 . S
C5031 H5010 0.950 . S
C5031 C5030 1.373 . S
C5031 C5047 1.377 . S
C5032 C5030 1.389 . S
C5032 C5033 1.524 . S
C5032 C5046 1.377 . S
C5033 C5032 1.524 . S
C5033 C5034 1.397 . S
C5033 C5038 1.363 . S
C5034 H5011 0.950 . S
C5034 C5033 1.397 . S
C5034 C5035 1.334 . S
C5035 H5012 0.950 . S
C5035 C5034 1.334 . S
C5035 C5036 1.287 . S
C5036 C5035 1.287 . S
C5036 C5037 1.524 . S
C5036 H5055 0.913 . S
C5037 H5013 0.950 . S
C5037 C5036 1.524 . S
C5037 C5038 1.415 . S
C5038 H5014 0.950 . S
C5038 C5033 1.363 . S
C5038 C5037 1.415 . S
C5039 H5015 0.951 . S
C5039 C5040 1.366 . S
C5039 C5041 1.388 . S
C5040 C5039 1.366 . S
C5040 C5044 1.385 . S
C5041 H5016 0.951 . S
C5041 C5039 1.388 . S
C5041 C5042 1.366 . S
C5042 C5041 1.366 . S
C5042 C5043 1.414 . S
C5042 C5045 1.499 . S
C5043 H5017 0.950 . S
C5043 C5042 1.414 . S
C5043 C5044 1.374 . S
C5044 H5018 0.950 . S
C5044 C5040 1.385 . S
C5044 C5043 1.374 . S
C5045 C5042 1.499 . S
C5045 C5046 1.373 . S
C5045 C5047 1.389 . S
C5046 H5019 0.950 . S
C5046 C5032 1.377 . S
C5046 C5045 1.373 . S
C5047 C5031 1.377 . S
C5047 C5045 1.389 . S
C5047 C5048 1.524 . S
C5048 C5047 1.524 . S
C5048 C5049 1.397 . S
C5048 C5053 1.363 . S
C5049 H5020 0.950 . S
C5049 C5048 1.397 . S
C5049 C5050 1.334 . S
C5050 H5021 0.950 . S
C5050 C5049 1.334 . S
C5050 C5051 1.287 . S
C5051 C5050 1.287 . S
C5051 C5052 1.524 . S
C5051 H5054 0.999 . S
C5052 H5022 0.950 . S
C5052 C5051 1.524 . S
C5052 C5053 1.415 . S
C5053 H5023 0.950 . S
C5053 C5048 1.363 . S
C5053 C5052 1.415 . S
H5054 C5051 0.999 . S
H5055 C5036 0.913 . S
H5056 C5074 0.951 . S
H5057 C5076 0.951 . S
H5058 C5078 0.950 . S
H5059 C5079 0.933 1_565 S
H5060 C5081 0.950 . S
H5061 C5084 0.950 . S
H5062 C5085 0.950 . S
H5063 C5087 0.950 . S
H5064 C5088 0.950 . S
H5065 C5089 0.951 . S
H5066 C5091 0.951 . S
H5067 C5093 0.950 . S
H5068 C5094 0.950 . S
H5069 C5096 0.950 . S
H5070 C5099 0.950 . S
H5071 C5100 0.950 . S
H5072 C5102 0.950 . S
H5073 C5103 0.950 . S
C5074 H5056 0.951 . S
C5074 C5075 1.366 . S
C5074 C5076 1.388 . S
C5075 C5074 1.366 . S
C5075 C5079 1.385 . S
C5076 H5057 0.951 . S
C5076 C5074 1.388 . S
C5076 C5077 1.366 . S
C5077 C5076 1.366 . S
C5077 C5078 1.414 . S
C5077 C5080 1.499 . S
C5078 H5058 0.950 . S
C5078 C5077 1.414 . S
C5078 C5079 1.374 . S
C5079 H5059 0.933 1_545 S
C5079 C5075 1.385 . S
C5079 C5078 1.374 . S
C5080 C5077 1.499 . S
C5080 C5081 1.373 1_545 S
C5080 C5082 1.389 . S
C5081 H5060 0.950 . S
C5081 C5080 1.373 1_565 S
C5081 C5097 1.377 . S
C5082 C5080 1.389 . S
C5082 C5083 1.524 . S
C5082 C5096 1.377 . S
C5083 C5082 1.524 . S
C5083 C5084 1.397 . S
C5083 C5088 1.363 . S
C5084 H5061 0.950 . S
C5084 C5083 1.397 . S
C5084 C5085 1.334 . S
C5085 H5062 0.950 . S
C5085 C5084 1.334 . S
C5085 C5086 1.287 . S
C5086 C5085 1.287 . S
C5086 C5087 1.524 . S
C5086 H5105 0.913 . S
C5087 H5063 0.950 . S
C5087 C5086 1.524 . S
C5087 C5088 1.415 . S
C5088 H5064 0.950 . S
C5088 C5083 1.363 . S
C5088 C5087 1.415 . S
C5089 H5065 0.951 . S
C5089 C5090 1.366 . S
C5089 C5091 1.388 . S
C5090 C5089 1.366 . S
C5090 C5094 1.385 . S
C5091 H5066 0.951 . S
C5091 C5089 1.388 . S
C5091 C5092 1.366 . S
C5092 C5091 1.366 . S
C5092 C5093 1.414 . S
C5092 C5095 1.499 . S
C5093 H5067 0.950 . S
C5093 C5092 1.414 . S
C5093 C5094 1.374 . S
C5094 H5068 0.950 . S
C5094 C5090 1.385 . S
C5094 C5093 1.374 . S
C5095 C5092 1.499 . S
C5095 C5096 1.373 . S
C5095 C5097 1.347 1_545 S
C5096 H5069 0.950 . S
C5096 C5082 1.377 . S
C5096 C5095 1.373 . S
C5097 C5081 1.377 . S
C5097 C5095 1.347 1_565 S
C5097 C5098 1.571 . S
C5098 C5097 1.571 . S
C5098 C5099 1.397 . S
C5098 C5103 1.363 . S
C5099 H5070 0.950 . S
C5099 C5098 1.397 . S
C5099 C5100 1.334 . S
C5100 H5071 0.950 . S
C5100 C5099 1.334 . S
C5100 C5101 1.287 . S
C5101 C5100 1.287 . S
C5101 C5102 1.524 . S
C5101 H5104 0.999 . S
C5102 H5072 0.950 . S
C5102 C5101 1.524 . S
C5102 C5103 1.415 . S
C5103 H5073 0.950 . S
C5103 C5098 1.363 . S
C5103 C5102 1.415 . S
H5104 C5101 0.999 . S
H5105 C5086 0.913 . S
H5106 C5124 0.951 . S
H5107 C5126 0.951 . S
H5108 C5128 0.950 . S
H5109 C5129 0.950 . S
H5110 C5131 0.950 . S
H5111 C5134 0.950 . S
H5112 C5135 0.950 . S
H5113 C5137 0.950 . S
H5114 C5138 0.950 . S
H5115 C5139 0.951 . S
H5116 C5141 0.951 . S
H5117 C5143 0.950 . S
H5118 C5144 0.950 . S
H5119 C5146 0.950 . S
H5120 C5149 0.950 . S
H5121 C5150 0.950 . S
H5122 C5152 0.950 . S
H5123 C5153 0.950 . S
C5124 H5106 0.951 . S
C5124 C5125 1.366 . S
C5124 C5126 1.388 . S
C5125 C5124 1.366 . S
C5125 C5129 1.385 . S
C5126 H5107 0.951 . S
C5126 C5124 1.388 . S
C5126 C5127 1.366 . S
C5127 C5126 1.366 . S
C5127 C5128 1.414 . S
C5127 C5130 1.499 . S
C5128 H5108 0.950 . S
C5128 C5127 1.414 . S
C5128 C5129 1.374 . S
C5129 H5109 0.950 . S
C5129 C5125 1.385 . S
C5129 C5128 1.374 . S
C5130 C5127 1.499 . S
C5130 C5131 1.373 . S
C5130 C5132 1.389 . S
C5131 H5110 0.950 . S
C5131 C5130 1.373 . S
C5131 C5147 1.377 . S
C5132 C5130 1.389 . S
C5132 C5133 1.524 . S
C5132 C5146 1.377 . S
C5133 C5132 1.524 . S
C5133 C5134 1.397 . S
C5133 C5138 1.363 . S
C5134 H5111 0.950 . S
C5134 C5133 1.397 . S
C5134 C5135 1.334 . S
C5135 H5112 0.950 . S
C5135 C5134 1.334 . S
C5135 C5136 1.287 . S
C5136 C5135 1.287 . S
C5136 C5137 1.524 . S
C5136 H5155 0.913 . S
C5137 H5113 0.950 . S
C5137 C5136 1.524 . S
C5137 C5138 1.415 . S
C5138 H5114 0.950 . S
C5138 C5133 1.363 . S
C5138 C5137 1.415 . S
C5139 H5115 0.951 . S
C5139 C5140 1.366 . S
C5139 C5141 1.388 . S
C5140 C5139 1.366 . S
C5140 C5144 1.385 . S
C5141 H5116 0.951 . S
C5141 C5139 1.388 . S
C5141 C5142 1.366 . S
C5142 C5141 1.366 . S
C5142 C5143 1.414 . S
C5142 C5145 1.499 . S
C5143 H5117 0.950 . S
C5143 C5142 1.414 . S
C5143 C5144 1.374 . S
C5144 H5118 0.950 . S
C5144 C5140 1.385 . S
C5144 C5143 1.374 . S
C5145 C5142 1.499 . S
C5145 C5146 1.373 . S
C5145 C5147 1.389 . S
C5146 H5119 0.950 . S
C5146 C5132 1.377 . S
C5146 C5145 1.373 . S
C5147 C5131 1.377 . S
C5147 C5145 1.389 . S
C5147 C5148 1.524 . S
C5148 C5147 1.524 . S
C5148 C5149 1.397 . S
C5148 C5153 1.363 . S
C5149 H5120 0.950 . S
C5149 C5148 1.397 . S
C5149 C5150 1.334 . S
C5150 H5121 0.950 . S
C5150 C5149 1.334 . S
C5150 C5151 1.287 . S
C5151 C5150 1.287 . S
C5151 C5152 1.524 . S
C5151 H5154 0.999 . S
C5152 H5122 0.950 . S
C5152 C5151 1.524 . S
C5152 C5153 1.415 . S
C5153 H5123 0.950 . S
C5153 C5148 1.363 . S
C5153 C5152 1.415 . S
H5154 C5151 0.999 . S
H5155 C5136 0.913 . S
H5156 C5174 0.951 . S
H5157 C5176 0.951 . S
H5158 C5178 0.950 . S
H5159 C5179 0.950 . S
H5160 C5181 0.950 . S
H5161 C5184 0.950 . S
H5162 C5185 0.950 . S
H5163 C5187 0.950 . S
H5164 C5188 0.950 . S
H5165 C5189 0.951 . S
H5166 C5191 0.951 . S
H5167 C5193 0.950 . S
H5168 C5194 0.950 . S
H5169 C5196 0.950 . S
H5170 C5199 0.950 . S
H5171 C5200 0.950 . S
H5172 C5202 0.950 . S
H5173 C5203 0.950 . S
C5174 H5156 0.951 . S
C5174 C5175 1.366 . S
C5174 C5176 1.388 . S
C5175 C5174 1.366 . S
C5175 C5179 1.385 . S
C5176 H5157 0.951 . S
C5176 C5174 1.388 . S
C5176 C5177 1.366 . S
C5177 C5176 1.366 . S
C5177 C5178 1.414 . S
C5177 C5180 1.499 . S
C5178 H5158 0.950 . S
C5178 C5177 1.414 . S
C5178 C5179 1.374 . S
C5179 H5159 0.950 . S
C5179 C5175 1.385 . S
C5179 C5178 1.374 . S
C5180 C5177 1.499 . S
C5180 C5181 1.373 . S
C5180 C5182 1.389 . S
C5181 H5160 0.950 . S
C5181 C5180 1.373 . S
C5181 C5197 1.377 . S
C5182 C5180 1.389 . S
C5182 C5183 1.524 . S
C5182 C5196 1.377 . S
C5183 C5182 1.524 . S
C5183 C5184 1.397 . S
C5183 C5188 1.363 . S
C5184 H5161 0.950 . S
C5184 C5183 1.397 . S
C5184 C5185 1.334 . S
C5185 H5162 0.950 . S
C5185 C5184 1.334 . S
C5185 C5186 1.287 . S
C5186 C5185 1.287 . S
C5186 C5187 1.524 . S
C5186 H5205 0.913 . S
C5187 H5163 0.950 . S
C5187 C5186 1.524 . S
C5187 C5188 1.415 . S
C5188 H5164 0.950 . S
C5188 C5183 1.363 . S
C5188 C5187 1.415 . S
C5189 H5165 0.951 . S
C5189 C5190 1.366 . S
C5189 C5191 1.388 . S
C5190 C5189 1.366 . S
C5190 C5194 1.385 . S
C5191 H5166 0.951 . S
C5191 C5189 1.388 . S
C5191 C5192 1.366 . S
C5192 C5191 1.366 . S
C5192 C5193 1.414 . S
C5192 C5195 1.499 . S
C5193 H5167 0.950 . S
C5193 C5192 1.414 . S
C5193 C5194 1.374 . S
C5194 H5168 0.950 . S
C5194 C5190 1.385 . S
C5194 C5193 1.374 . S
C5195 C5192 1.499 . S
C5195 C5196 1.373 . S
C5195 C5197 1.389 . S
C5196 H5169 0.950 . S
C5196 C5182 1.377 . S
C5196 C5195 1.373 . S
C5197 C5181 1.377 . S
C5197 C5195 1.389 . S
C5197 C5198 1.524 . S
C5198 C5197 1.524 . S
C5198 C5199 1.397 . S
C5198 C5203 1.363 . S
C5199 H5170 0.950 . S
C5199 C5198 1.397 . S
C5199 C5200 1.334 . S
C5200 H5171 0.950 . S
C5200 C5199 1.334 . S
C5200 C5201 1.287 . S
C5201 C5200 1.287 . S
C5201 C5202 1.524 . S
C5201 H5204 0.999 . S
C5202 H5172 0.950 . S
C5202 C5201 1.524 . S
C5202 C5203 1.415 . S
C5203 H5173 0.950 . S
C5203 C5198 1.363 . S
C5203 C5202 1.415 . S
H5204 C5201 0.999 . S
H5205 C5186 0.913 . S
H5206 C5224 0.951 . S
H5207 C5226 0.951 . S
H5208 C5228 0.950 . S
H5209 C5229 0.950 . S
H5210 C5231 0.950 . S
H5211 C5234 0.950 . S
H5212 C5235 0.950 . S
H5213 C5237 0.950 . S
H5214 C5238 0.950 . S
H5215 C5239 0.951 . S
H5216 C5241 0.951 . S
H5217 C5243 0.950 . S
H5218 C5244 0.950 . S
H5219 C5246 0.950 . S
H5220 C5249 0.950 . S
H5221 C5250 0.950 . S
H5222 C5252 0.950 . S
H5223 C5253 0.950 . S
C5224 H5206 0.951 . S
C5224 C5225 1.366 . S
C5224 C5226 1.388 . S
C5225 C5224 1.366 . S
C5225 C5229 1.385 . S
C5226 H5207 0.951 . S
C5226 C5224 1.388 . S
C5226 C5227 1.366 . S
C5227 C5226 1.366 . S
C5227 C5228 1.414 . S
C5227 C5230 1.499 . S
C5228 H5208 0.950 . S
C5228 C5227 1.414 . S
C5228 C5229 1.374 . S
C5229 H5209 0.950 . S
C5229 C5225 1.385 . S
C5229 C5228 1.374 . S
C5230 C5227 1.499 . S
C5230 C5231 1.373 . S
C5230 C5232 1.389 . S
C5231 H5210 0.950 . S
C5231 C5230 1.373 . S
C5231 C5247 1.377 . S
C5232 C5230 1.389 . S
C5232 C5233 1.524 . S
C5232 C5246 1.377 . S
C5233 C5232 1.524 . S
C5233 C5234 1.397 . S
C5233 C5238 1.363 . S
C5234 H5211 0.950 . S
C5234 C5233 1.397 . S
C5234 C5235 1.334 . S
C5235 H5212 0.950 . S
C5235 C5234 1.334 . S
C5235 C5236 1.287 . S
C5236 C5235 1.287 . S
C5236 C5237 1.524 . S
C5236 H5255 0.913 . S
C5237 H5213 0.950 . S
C5237 C5236 1.524 . S
C5237 C5238 1.415 . S
C5238 H5214 0.950 . S
C5238 C5233 1.363 . S
C5238 C5237 1.415 . S
C5239 H5215 0.951 . S
C5239 C5240 1.366 . S
C5239 C5241 1.388 . S
C5240 C5239 1.366 . S
C5240 C5244 1.385 . S
C5241 H5216 0.951 . S
C5241 C5239 1.388 . S
C5241 C5242 1.366 . S
C5242 C5241 1.366 . S
C5242 C5243 1.414 . S
C5242 C5245 1.499 . S
C5243 H5217 0.950 . S
C5243 C5242 1.414 . S
C5243 C5244 1.374 . S
C5244 H5218 0.950 . S
C5244 C5240 1.385 . S
C5244 C5243 1.374 . S
C5245 C5242 1.499 . S
C5245 C5246 1.373 . S
C5245 C5247 1.389 . S
C5246 H5219 0.950 . S
C5246 C5232 1.377 . S
C5246 C5245 1.373 . S
C5247 C5231 1.377 . S
C5247 C5245 1.389 . S
C5247 C5248 1.524 . S
C5248 C5247 1.524 . S
C5248 C5249 1.397 . S
C5248 C5253 1.363 . S
C5249 H5220 0.950 . S
C5249 C5248 1.397 . S
C5249 C5250 1.334 . S
C5250 H5221 0.950 . S
C5250 C5249 1.334 . S
C5250 C5251 1.287 . S
C5251 C5250 1.287 . S
C5251 C5252 1.524 . S
C5251 H5254 0.999 . S
C5252 H5222 0.950 . S
C5252 C5251 1.524 . S
C5252 C5253 1.415 . S
C5253 H5223 0.950 . S
C5253 C5248 1.363 . S
C5253 C5252 1.415 . S
H5254 C5251 0.999 . S
H5255 C5236 0.913 . S
H5256 C5274 0.951 . S
H5257 C5276 0.951 . S
H5258 C5278 0.976 . S
H5259 C5279 0.950 . S
H5260 C5281 0.983 . S
H5261 C5284 0.950 . S
H5262 C5285 0.950 . S
H5263 C5287 0.950 . S
H5264 C5288 0.950 . S
H5265 C5289 0.951 . S
H5266 C5291 0.951 . S
H5267 C5293 0.950 . S
H5268 C5294 0.950 . S
H5269 C5296 0.950 . S
H5270 C5299 0.950 . S
H5271 C5300 0.950 . S
H5272 C5302 0.950 . S
H5273 C5303 0.950 . S
C5274 H5256 0.951 . S
C5274 C5275 1.366 . S
C5274 C5276 1.388 . S
C5275 C5274 1.366 . S
C5275 C5279 1.385 . S
C5276 H5257 0.951 . S
C5276 C5274 1.388 . S
C5276 C5277 1.366 1_565 S
C5277 C5276 1.366 1_545 S
C5277 C5278 1.417 . S
C5277 C5280 1.499 . S
C5278 H5258 0.976 . S
C5278 C5277 1.417 . S
C5278 C5279 1.348 1_545 S
C5279 H5259 0.950 . S
C5279 C5275 1.385 . S
C5279 C5278 1.348 1_565 S
C5280 C5277 1.499 . S
C5280 C5281 1.366 1_545 S
C5280 C5282 1.389 . S
C5281 H5260 0.983 . S
C5281 C5280 1.366 1_565 S
C5281 C5297 1.354 1_565 S
C5282 C5280 1.389 . S
C5282 C5283 1.524 . S
C5282 C5296 1.377 . S
C5283 C5282 1.524 . S
C5283 C5284 1.397 . S
C5283 C5288 1.363 . S
C5284 H5261 0.950 . S
C5284 C5283 1.397 . S
C5284 C5285 1.334 . S
C5285 H5262 0.950 . S
C5285 C5284 1.334 . S
C5285 C5286 1.287 . S
C5286 C5285 1.287 . S
C5286 C5287 1.524 . S
C5286 H5305 0.913 . S
C5287 H5263 0.950 . S
C5287 C5286 1.524 . S
C5287 C5288 1.415 . S
C5288 H5264 0.950 . S
C5288 C5283 1.363 . S
C5288 C5287 1.415 . S
C5289 H5265 0.951 . S
C5289 C5290 1.366 . S
C5289 C5291 1.388 . S
C5290 C5289 1.366 . S
C5290 C5294 1.385 . S
C5291 H5266 0.951 . S
C5291 C5289 1.388 . S
C5291 C5292 1.366 . S
C5292 C5291 1.366 . S
C5292 C5293 1.414 . S
C5292 C5295 1.499 . S
C5293 H5267 0.950 . S
C5293 C5292 1.414 . S
C5293 C5294 1.374 . S
C5294 H5268 0.950 . S
C5294 C5290 1.385 . S
C5294 C5293 1.374 . S
C5295 C5292 1.499 . S
C5295 C5296 1.373 . S
C5295 C5297 1.389 . S
C5296 H5269 0.950 . S
C5296 C5282 1.377 . S
C5296 C5295 1.373 . S
C5297 C5281 1.354 1_545 S
C5297 C5295 1.389 . S
C5297 C5298 1.524 1_545 S
C5298 C5297 1.524 1_565 S
C5298 C5299 1.397 . S
C5298 C5303 1.363 . S
C5299 H5270 0.950 . S
C5299 C5298 1.397 . S
C5299 C5300 1.334 . S
C5300 H5271 0.950 . S
C5300 C5299 1.334 . S
C5300 C5301 1.287 . S
C5301 C5300 1.287 . S
C5301 C5302 1.524 . S
C5301 H5304 0.999 . S
C5302 H5272 0.950 . S
C5302 C5301 1.524 . S
C5302 C5303 1.415 . S
C5303 H5273 0.950 . S
C5303 C5298 1.363 . S
C5303 C5302 1.415 . S
H5304 C5301 0.999 . S
H5305 C5286 0.913 . S
H5306 C5324 0.951 . S
H5307 C5326 0.951 . S
H5308 C5328 0.950 . S
H5309 C5329 0.950 . S
H5310 C5331 0.950 . S
H5311 C5334 0.950 . S
H5312 C5335 0.950 . S
H5313 C5337 0.950 . S
H5314 C5338 0.950 . S
H5315 C5339 0.951 . S
H5316 C5341 0.951 . S
H5317 C5343 0.950 . S
H5318 C5344 0.950 . S
H5319 C5346 0.950 . S
H5320 C5349 0.950 . S
H5321 C5350 0.950 . S
H5322 C5352 0.950 . S
H5323 C5353 0.950 . S
C5324 H5306 0.951 . S
C5324 C5325 1.366 . S
C5324 C5326 1.388 . S
C5325 C5324 1.366 . S
C5325 C5329 1.385 . S
C5326 H5307 0.951 . S
C5326 C5324 1.388 . S
C5326 C5327 1.366 . S
C5327 C5326 1.366 . S
C5327 C5328 1.414 . S
C5327 C5330 1.499 . S
C5328 H5308 0.950 . S
C5328 C5327 1.414 . S
C5328 C5329 1.374 . S
C5329 H5309 0.950 . S
C5329 C5325 1.385 . S
C5329 C5328 1.374 . S
C5330 C5327 1.499 . S
C5330 C5331 1.373 . S
C5330 C5332 1.389 . S
C5331 H5310 0.950 . S
C5331 C5330 1.373 . S
C5331 C5347 1.377 . S
C5332 C5330 1.389 . S
C5332 C5333 1.524 . S
C5332 C5346 1.377 . S
C5333 C5332 1.524 . S
C5333 C5334 1.397 . S
C5333 C5338 1.363 . S
C5334 H5311 0.950 . S
C5334 C5333 1.397 . S
C5334 C5335 1.334 . S
C5335 H5312 0.950 . S
C5335 C5334 1.334 . S
C5335 C5336 1.287 . S
C5336 C5335 1.287 . S
C5336 C5337 1.524 . S
C5336 H5355 0.913 . S
C5337 H5313 0.950 . S
C5337 C5336 1.524 . S
C5337 C5338 1.415 . S
C5338 H5314 0.950 . S
C5338 C5333 1.363 . S
C5338 C5337 1.415 . S
C5339 H5315 0.951 . S
C5339 C5340 1.366 . S
C5339 C5341 1.388 . S
C5340 C5339 1.366 . S
C5340 C5344 1.385 . S
C5341 H5316 0.951 . S
C5341 C5339 1.388 . S
C5341 C5342 1.366 . S
C5342 C5341 1.366 . S
C5342 C5343 1.414 . S
C5342 C5345 1.499 . S
C5343 H5317 0.950 . S
C5343 C5342 1.414 . S
C5343 C5344 1.374 . S
C5344 H5318 0.950 . S
C5344 C5340 1.385 . S
C5344 C5343 1.374 . S
C5345 C5342 1.499 . S
C5345 C5346 1.373 . S
C5345 C5347 1.389 . S
C5346 H5319 0.950 . S
C5346 C5332 1.377 . S
C5346 C5345 1.373 . S
C5347 C5331 1.377 . S
C5347 C5345 1.389 . S
C5347 C5348 1.524 . S
C5348 C5347 1.524 . S
C5348 C5349 1.397 . S
C5348 C5353 1.363 . S
C5349 H5320 0.950 . S
C5349 C5348 1.397 . S
C5349 C5350 1.334 . S
C5350 H5321 0.950 . S
C5350 C5349 1.334 . S
C5350 C5351 1.287 . S
C5351 C5350 1.287 . S
C5351 C5352 1.524 . S
C5351 H5354 0.999 . S
C5352 H5322 0.950 . S
C5352 C5351 1.524 . S
C5352 C5353 1.415 . S
C5353 H5323 0.950 . S
C5353 C5348 1.363 . S
C5353 C5352 1.415 . S
H5354 C5351 0.999 . S
H5355 C5336 0.913 . S
H5356 C5374 0.951 . S
H5357 C5376 0.951 . S
H5358 C5378 0.950 . S
H5359 C5379 0.950 . S
H5360 C5381 0.950 . S
H5361 C5384 0.950 . S
H5362 C5385 0.950 . S
H5363 C5387 0.950 . S
H5364 C5388 0.910 1_545 S
H5365 C5389 0.951 . S
H5366 C5391 0.951 . S
H5367 C5393 0.950 . S
H5368 C5394 0.950 . S
H5369 C5396 0.950 . S
H5370 C5399 0.950 . S
H5371 C5400 0.950 . S
H5372 C5402 0.950 . S
H5373 C5403 0.950 . S
C5374 H5356 0.951 . S
C5374 C5375 1.366 . S
C5374 C5376 1.388 . S
C5375 C5374 1.366 . S
C5375 C5379 1.385 . S
C5376 H5357 0.951 . S
C5376 C5374 1.388 . S
C5376 C5377 1.366 . S
C5377 C5376 1.366 . S
C5377 C5378 1.414 . S
C5377 C5380 1.499 . S
C5378 H5358 0.950 . S
C5378 C5377 1.414 . S
C5378 C5379 1.374 . S
C5379 H5359 0.950 . S
C5379 C5375 1.385 . S
C5379 C5378 1.374 . S
C5380 C5377 1.499 . S
C5380 C5381 1.373 . S
C5380 C5382 1.389 . S
C5381 H5360 0.950 . S
C5381 C5380 1.373 . S
C5381 C5397 1.377 . S
C5382 C5380 1.389 . S
C5382 C5383 1.524 . S
C5382 C5396 1.377 . S
C5383 C5382 1.524 . S
C5383 C5384 1.397 1_545 S
C5383 C5388 1.363 1_545 S
C5384 H5361 0.950 . S
C5384 C5383 1.397 1_565 S
C5384 C5385 1.334 . S
C5385 H5362 0.950 . S
C5385 C5384 1.334 . S
C5385 C5386 1.287 . S
C5386 C5385 1.287 . S
C5386 C5387 1.524 . S
C5386 H5405 0.913 . S
C5387 H5363 0.950 . S
C5387 C5386 1.524 . S
C5387 C5388 1.457 . S
C5388 H5364 0.910 1_565 S
C5388 C5383 1.363 1_565 S
C5388 C5387 1.457 . S
C5389 H5365 0.951 . S
C5389 C5390 1.366 . S
C5389 C5391 1.388 . S
C5390 C5389 1.366 . S
C5390 C5394 1.385 . S
C5391 H5366 0.951 . S
C5391 C5389 1.388 . S
C5391 C5392 1.366 . S
C5392 C5391 1.366 . S
C5392 C5393 1.414 . S
C5392 C5395 1.499 . S
C5393 H5367 0.950 . S
C5393 C5392 1.414 . S
C5393 C5394 1.374 . S
C5394 H5368 0.950 . S
C5394 C5390 1.385 . S
C5394 C5393 1.374 . S
C5395 C5392 1.499 . S
C5395 C5396 1.373 . S
C5395 C5397 1.389 . S
C5396 H5369 0.950 . S
C5396 C5382 1.377 . S
C5396 C5395 1.373 . S
C5397 C5381 1.377 . S
C5397 C5395 1.389 . S
C5397 C5398 1.524 . S
C5398 C5397 1.524 . S
C5398 C5399 1.397 . S
C5398 C5403 1.363 . S
C5399 H5370 0.950 . S
C5399 C5398 1.397 . S
C5399 C5400 1.334 . S
C5400 H5371 0.950 . S
C5400 C5399 1.334 . S
C5400 C5401 1.287 . S
C5401 C5400 1.287 . S
C5401 C5402 1.524 . S
C5401 H5404 0.999 . S
C5402 H5372 0.950 . S
C5402 C5401 1.524 . S
C5402 C5403 1.415 . S
C5403 H5373 0.950 . S
C5403 C5398 1.363 . S
C5403 C5402 1.415 . S
H5404 C5401 0.999 . S
H5405 C5386 0.913 . S
H5406 C5424 0.951 . S
H5407 C5426 0.951 . S
H5408 C5428 0.950 . S
H5409 C5429 0.950 . S
H5410 C5431 0.950 . S
H5411 C5434 0.950 . S
H5412 C5435 0.950 . S
H5413 C5437 0.950 . S
H5414 C5438 0.950 . S
H5415 C5439 0.951 . S
H5416 C5441 0.951 . S
H5417 C5443 0.950 . S
H5418 C5444 0.950 . S
H5419 C5446 0.950 . S
H5420 C5449 0.950 . S
H5421 C5450 0.950 . S
H5422 C5452 0.950 . S
H5423 C5453 0.950 . S
C5424 H5406 0.951 . S
C5424 C5425 1.366 . S
C5424 C5426 1.388 . S
C5425 C5424 1.366 . S
C5425 C5429 1.385 . S
C5426 H5407 0.951 . S
C5426 C5424 1.388 . S
C5426 C5427 1.366 . S
C5427 C5426 1.366 . S
C5427 C5428 1.414 . S
C5427 C5430 1.499 . S
C5428 H5408 0.950 . S
C5428 C5427 1.414 . S
C5428 C5429 1.374 . S
C5429 H5409 0.950 . S
C5429 C5425 1.385 . S
C5429 C5428 1.374 . S
C5430 C5427 1.499 . S
C5430 C5431 1.373 . S
C5430 C5432 1.389 . S
C5431 H5410 0.950 . S
C5431 C5430 1.373 . S
C5431 C5447 1.377 . S
C5432 C5430 1.389 . S
C5432 C5433 1.524 . S
C5432 C5446 1.377 . S
C5433 C5432 1.524 . S
C5433 C5434 1.397 . S
C5433 C5438 1.363 . S
C5434 H5411 0.950 . S
C5434 C5433 1.397 . S
C5434 C5435 1.334 . S
C5435 H5412 0.950 . S
C5435 C5434 1.334 . S
C5435 C5436 1.287 . S
C5436 C5435 1.287 . S
C5436 C5437 1.524 . S
C5436 H5455 0.913 . S
C5437 H5413 0.950 . S
C5437 C5436 1.524 . S
C5437 C5438 1.415 . S
C5438 H5414 0.950 . S
C5438 C5433 1.363 . S
C5438 C5437 1.415 . S
C5439 H5415 0.951 . S
C5439 C5440 1.366 . S
C5439 C5441 1.388 . S
C5440 C5439 1.366 . S
C5440 C5444 1.385 . S
C5441 H5416 0.951 . S
C5441 C5439 1.388 . S
C5441 C5442 1.366 . S
C5442 C5441 1.366 . S
C5442 C5443 1.414 . S
C5442 C5445 1.499 . S
C5443 H5417 0.950 . S
C5443 C5442 1.414 . S
C5443 C5444 1.374 . S
C5444 H5418 0.950 . S
C5444 C5440 1.385 . S
C5444 C5443 1.374 . S
C5445 C5442 1.499 . S
C5445 C5446 1.373 . S
C5445 C5447 1.389 . S
C5446 H5419 0.950 . S
C5446 C5432 1.377 . S
C5446 C5445 1.373 . S
C5447 C5431 1.377 . S
C5447 C5445 1.389 . S
C5447 C5448 1.524 . S
C5448 C5447 1.524 . S
C5448 C5449 1.397 . S
C5448 C5453 1.363 . S
C5449 H5420 0.950 . S
C5449 C5448 1.397 . S
C5449 C5450 1.334 . S
C5450 H5421 0.950 . S
C5450 C5449 1.334 . S
C5450 C5451 1.287 . S
C5451 C5450 1.287 . S
C5451 C5452 1.524 . S
C5451 H5454 0.999 . S
C5452 H5422 0.950 . S
C5452 C5451 1.524 . S
C5452 C5453 1.415 . S
C5453 H5423 0.950 . S
C5453 C5448 1.363 . S
C5453 C5452 1.415 . S
H5454 C5451 0.999 . S
H5455 C5436 0.913 . S
H5456 C5474 0.951 . S
H5457 C5476 0.951 . S
H5458 C5478 0.950 . S
H5459 C5479 0.950 . S
H5460 C5481 0.950 . S
H5461 C5484 0.950 . S
H5462 C5485 0.950 . S
H5463 C5487 0.950 . S
H5464 C5488 0.950 . S
H5465 C5489 0.951 . S
H5466 C5491 0.951 . S
H5467 C5493 0.950 . S
H5468 C5494 0.950 . S
H5469 C5496 0.950 . S
H5470 C5499 0.950 . S
H5471 C5500 0.950 . S
H5472 C5502 0.950 . S
H5473 C5503 0.950 1_554 S
C5474 H5456 0.951 . S
C5474 C5475 1.366 . S
C5474 C5476 1.388 . S
C5475 C5474 1.366 . S
C5475 C5479 1.385 . S
C5476 H5457 0.951 . S
C5476 C5474 1.388 . S
C5476 C5477 1.366 . S
C5477 C5476 1.366 . S
C5477 C5478 1.414 . S
C5477 C5480 1.499 . S
C5478 H5458 0.950 . S
C5478 C5477 1.414 . S
C5478 C5479 1.374 . S
C5479 H5459 0.950 . S
C5479 C5475 1.385 . S
C5479 C5478 1.374 . S
C5480 C5477 1.499 . S
C5480 C5481 1.373 . S
C5480 C5482 1.389 . S
C5481 H5460 0.950 . S
C5481 C5480 1.373 . S
C5481 C5497 1.377 . S
C5482 C5480 1.389 . S
C5482 C5483 1.524 . S
C5482 C5496 1.377 . S
C5483 C5482 1.524 . S
C5483 C5484 1.397 . S
C5483 C5488 1.363 . S
C5484 H5461 0.950 . S
C5484 C5483 1.397 . S
C5484 C5485 1.334 . S
C5485 H5462 0.950 . S
C5485 C5484 1.334 . S
C5485 C5486 1.287 . S
C5486 C5485 1.287 . S
C5486 C5487 1.524 . S
C5486 H5505 0.913 . S
C5487 H5463 0.950 . S
C5487 C5486 1.524 . S
C5487 C5488 1.415 . S
C5488 H5464 0.950 . S
C5488 C5483 1.363 . S
C5488 C5487 1.415 . S
C5489 H5465 0.951 . S
C5489 C5490 1.366 . S
C5489 C5491 1.388 . S
C5490 C5489 1.366 . S
C5490 C5494 1.385 . S
C5491 H5466 0.951 . S
C5491 C5489 1.388 . S
C5491 C5492 1.366 . S
C5492 C5491 1.366 . S
C5492 C5493 1.414 . S
C5492 C5495 1.499 . S
C5493 H5467 0.950 . S
C5493 C5492 1.414 . S
C5493 C5494 1.374 . S
C5494 H5468 0.950 . S
C5494 C5490 1.385 . S
C5494 C5493 1.374 . S
C5495 C5492 1.499 . S
C5495 C5496 1.373 . S
C5495 C5497 1.389 . S
C5496 H5469 0.950 . S
C5496 C5482 1.377 . S
C5496 C5495 1.373 . S
C5497 C5481 1.377 . S
C5497 C5495 1.389 . S
C5497 C5498 1.524 1_554 S
C5498 C5497 1.524 1_556 S
C5498 C5499 1.397 . S
C5498 C5503 1.363 . S
C5499 H5470 0.950 . S
C5499 C5498 1.397 . S
C5499 C5500 1.334 . S
C5500 H5471 0.950 . S
C5500 C5499 1.334 . S
C5500 C5501 1.287 . S
C5501 C5500 1.287 . S
C5501 C5502 1.524 . S
C5501 H5504 0.999 . S
C5502 H5472 0.950 . S
C5502 C5501 1.524 . S
C5502 C5503 1.415 . S
C5503 H5473 0.950 1_556 S
C5503 C5498 1.363 . S
C5503 C5502 1.415 . S
H5504 C5501 0.999 . S
H5505 C5486 0.913 . S
H5506 C5524 0.951 . S
H5507 C5526 0.951 . S
H5508 C5528 0.950 . S
H5509 C5529 0.950 . S
H5510 C5531 0.950 . S
H5511 C5534 0.950 . S
H5512 C5535 0.950 . S
H5513 C5537 0.950 . S
H5514 C5538 0.950 . S
H5515 C5539 0.951 . S
H5516 C5541 0.951 . S
H5517 C5543 0.950 . S
H5518 C5544 0.950 . S
H5519 C5546 0.950 . S
H5520 C5549 0.950 . S
H5521 C5550 0.950 . S
H5522 C5552 0.950 . S
H5523 C5553 0.950 . S
C5524 H5506 0.951 . S
C5524 C5525 1.366 . S
C5524 C5526 1.388 . S
C5525 C5524 1.366 . S
C5525 C5529 1.385 . S
C5526 H5507 0.951 . S
C5526 C5524 1.388 . S
C5526 C5527 1.366 . S
C5527 C5526 1.366 . S
C5527 C5528 1.414 . S
C5527 C5530 1.499 . S
C5528 H5508 0.950 . S
C5528 C5527 1.414 . S
C5528 C5529 1.374 . S
C5529 H5509 0.950 . S
C5529 C5525 1.385 . S
C5529 C5528 1.374 . S
C5530 C5527 1.499 . S
C5530 C5531 1.373 . S
C5530 C5532 1.389 . S
C5531 H5510 0.950 . S
C5531 C5530 1.373 . S
C5531 C5547 1.377 . S
C5532 C5530 1.389 . S
C5532 C5533 1.524 . S
C5532 C5546 1.377 . S
C5533 C5532 1.524 . S
C5533 C5534 1.397 . S
C5533 C5538 1.363 . S
C5534 H5511 0.950 . S
C5534 C5533 1.397 . S
C5534 C5535 1.334 1_554 S
C5535 H5512 0.950 . S
C5535 C5534 1.334 1_556 S
C5535 C5536 1.287 . S
C5536 C5535 1.287 . S
C5536 C5537 1.524 . S
C5536 H5555 0.913 . S
C5537 H5513 0.950 . S
C5537 C5536 1.524 . S
C5537 C5538 1.415 1_556 S
C5538 H5514 0.950 . S
C5538 C5533 1.363 . S
C5538 C5537 1.415 1_554 S
C5539 H5515 0.951 . S
C5539 C5540 1.366 . S
C5539 C5541 1.388 . S
C5540 C5539 1.366 . S
C5540 C5544 1.385 . S
C5541 H5516 0.951 . S
C5541 C5539 1.388 . S
C5541 C5542 1.366 . S
C5542 C5541 1.366 . S
C5542 C5543 1.414 . S
C5542 C5545 1.499 . S
C5543 H5517 0.950 . S
C5543 C5542 1.414 . S
C5543 C5544 1.374 . S
C5544 H5518 0.950 . S
C5544 C5540 1.385 . S
C5544 C5543 1.374 . S
C5545 C5542 1.499 . S
C5545 C5546 1.373 . S
C5545 C5547 1.389 . S
C5546 H5519 0.950 . S
C5546 C5532 1.377 . S
C5546 C5545 1.373 . S
C5547 C5531 1.377 . S
C5547 C5545 1.389 . S
C5547 C5548 1.524 . S
C5548 C5547 1.524 . S
C5548 C5549 1.397 . S
C5548 C5553 1.363 . S
C5549 H5520 0.950 . S
C5549 C5548 1.397 . S
C5549 C5550 1.334 . S
C5550 H5521 0.950 . S
C5550 C5549 1.334 . S
C5550 C5551 1.287 . S
C5551 C5550 1.287 . S
C5551 C5552 1.524 . S
C5551 H5554 0.999 . S
C5552 H5522 0.950 . S
C5552 C5551 1.524 . S
C5552 C5553 1.415 . S
C5553 H5523 0.950 . S
C5553 C5548 1.363 . S
C5553 C5552 1.415 . S
H5554 C5551 0.999 . S
H5555 C5536 0.913 . S
H5556 C5574 0.951 . S
H5557 C5576 0.951 . S
H5558 C5578 0.950 . S
H5559 C5579 0.950 . S
H5560 C5581 0.950 . S
H5561 C5584 0.950 . S
H5562 C5585 0.950 . S
H5563 C5587 0.950 . S
H5564 C5588 0.950 . S
H5565 C5589 0.951 . S
H5566 C5591 0.951 . S
H5567 C5593 0.950 . S
H5568 C5594 0.950 . S
H5569 C5596 0.950 . S
H5570 C5599 0.950 . S
H5571 C5600 0.950 . S
H5572 C5602 0.950 . S
H5573 C5603 0.950 . S
C5574 H5556 0.951 . S
C5574 C5575 1.366 . S
C5574 C5576 1.388 . S
C5575 C5574 1.366 . S
C5575 C5579 1.385 . S
C5576 H5557 0.951 . S
C5576 C5574 1.388 . S
C5576 C5577 1.366 . S
C5577 C5576 1.366 . S
C5577 C5578 1.414 . S
C5577 C5580 1.499 . S
C5578 H5558 0.950 . S
C5578 C5577 1.414 . S
C5578 C5579 1.374 . S
C5579 H5559 0.950 . S
C5579 C5575 1.385 . S
C5579 C5578 1.374 . S
C5580 C5577 1.499 . S
C5580 C5581 1.373 . S
C5580 C5582 1.389 . S
C5581 H5560 0.950 . S
C5581 C5580 1.373 . S
C5581 C5597 1.377 . S
C5582 C5580 1.389 . S
C5582 C5583 1.524 . S
C5582 C5596 1.377 . S
C5583 C5582 1.524 . S
C5583 C5584 1.397 . S
C5583 C5588 1.363 . S
C5584 H5561 0.950 . S
C5584 C5583 1.397 . S
C5584 C5585 1.334 . S
C5585 H5562 0.950 . S
C5585 C5584 1.334 . S
C5585 C5586 1.287 . S
C5586 C5585 1.287 . S
C5586 C5587 1.524 . S
C5586 H5605 0.913 . S
C5587 H5563 0.950 . S
C5587 C5586 1.524 . S
C5587 C5588 1.415 . S
C5588 H5564 0.950 . S
C5588 C5583 1.363 . S
C5588 C5587 1.415 . S
C5589 H5565 0.951 . S
C5589 C5590 1.366 . S
C5589 C5591 1.388 . S
C5590 C5589 1.366 . S
C5590 C5594 1.385 . S
C5591 H5566 0.951 . S
C5591 C5589 1.388 . S
C5591 C5592 1.366 . S
C5592 C5591 1.366 . S
C5592 C5593 1.414 . S
C5592 C5595 1.499 . S
C5593 H5567 0.950 . S
C5593 C5592 1.414 . S
C5593 C5594 1.374 . S
C5594 H5568 0.950 . S
C5594 C5590 1.385 . S
C5594 C5593 1.374 . S
C5595 C5592 1.499 . S
C5595 C5596 1.373 . S
C5595 C5597 1.389 . S
C5596 H5569 0.950 . S
C5596 C5582 1.377 . S
C5596 C5595 1.373 . S
C5597 C5581 1.377 . S
C5597 C5595 1.389 . S
C5597 C5598 1.524 . S
C5598 C5597 1.524 . S
C5598 C5599 1.397 . S
C5598 C5603 1.363 . S
C5599 H5570 0.950 . S
C5599 C5598 1.397 . S
C5599 C5600 1.334 . S
C5600 H5571 0.950 . S
C5600 C5599 1.334 . S
C5600 C5601 1.287 . S
C5601 C5600 1.287 . S
C5601 C5602 1.524 . S
C5601 H5604 0.999 . S
C5602 H5572 0.950 . S
C5602 C5601 1.524 . S
C5602 C5603 1.415 . S
C5603 H5573 0.950 . S
C5603 C5598 1.363 . S
C5603 C5602 1.415 . S
H5604 C5601 0.999 . S
H5605 C5586 0.913 . S
H5606 C5624 0.951 . S
H5607 C5626 0.951 . S
H5608 C5628 0.950 . S
H5609 C5629 0.950 . S
H5610 C5631 0.950 . S
H5611 C5634 0.950 . S
H5612 C5635 0.950 . S
H5613 C5637 0.950 . S
H5614 C5638 0.950 . S
H5615 C5639 0.951 . S
H5616 C5641 0.951 . S
H5617 C5643 0.950 . S
H5618 C5644 0.950 . S
H5619 C5646 0.950 . S
H5620 C5649 0.950 . S
H5621 C5650 0.950 . S
H5622 C5652 0.950 . S
H5623 C5653 0.950 . S
C5624 H5606 0.951 . S
C5624 C5625 1.366 . S
C5624 C5626 1.388 . S
C5625 C5624 1.366 . S
C5625 C5629 1.385 . S
C5626 H5607 0.951 . S
C5626 C5624 1.388 . S
C5626 C5627 1.366 . S
C5627 C5626 1.366 . S
C5627 C5628 1.414 . S
C5627 C5630 1.499 . S
C5628 H5608 0.950 . S
C5628 C5627 1.414 . S
C5628 C5629 1.374 . S
C5629 H5609 0.950 . S
C5629 C5625 1.385 . S
C5629 C5628 1.374 . S
C5630 C5627 1.499 . S
C5630 C5631 1.373 . S
C5630 C5632 1.389 . S
C5631 H5610 0.950 . S
C5631 C5630 1.373 . S
C5631 C5647 1.377 . S
C5632 C5630 1.389 . S
C5632 C5633 1.524 . S
C5632 C5646 1.377 . S
C5633 C5632 1.524 . S
C5633 C5634 1.397 . S
C5633 C5638 1.363 . S
C5634 H5611 0.950 . S
C5634 C5633 1.397 . S
C5634 C5635 1.334 . S
C5635 H5612 0.950 . S
C5635 C5634 1.334 . S
C5635 C5636 1.287 . S
C5636 C5635 1.287 . S
C5636 C5637 1.524 . S
C5636 H5655 0.913 . S
C5637 H5613 0.950 . S
C5637 C5636 1.524 . S
C5637 C5638 1.415 . S
C5638 H5614 0.950 . S
C5638 C5633 1.363 . S
C5638 C5637 1.415 . S
C5639 H5615 0.951 . S
C5639 C5640 1.366 . S
C5639 C5641 1.388 . S
C5640 C5639 1.366 . S
C5640 C5644 1.385 . S
C5641 H5616 0.951 . S
C5641 C5639 1.388 . S
C5641 C5642 1.366 . S
C5642 C5641 1.366 . S
C5642 C5643 1.414 . S
C5642 C5645 1.499 . S
C5643 H5617 0.950 . S
C5643 C5642 1.414 . S
C5643 C5644 1.374 . S
C5644 H5618 0.950 . S
C5644 C5640 1.385 . S
C5644 C5643 1.374 . S
C5645 C5642 1.499 . S
C5645 C5646 1.373 . S
C5645 C5647 1.389 . S
C5646 H5619 0.950 . S
C5646 C5632 1.377 . S
C5646 C5645 1.373 . S
C5647 C5631 1.377 . S
C5647 C5645 1.389 . S
C5647 C5648 1.524 . S
C5648 C5647 1.524 . S
C5648 C5649 1.397 . S
C5648 C5653 1.363 . S
C5649 H5620 0.950 . S
C5649 C5648 1.397 . S
C5649 C5650 1.334 . S
C5650 H5621 0.950 . S
C5650 C5649 1.334 . S
C5650 C5651 1.287 . S
C5651 C5650 1.287 . S
C5651 C5652 1.524 . S
C5651 H5654 0.999 . S
C5652 H5622 0.950 . S
C5652 C5651 1.524 . S
C5652 C5653 1.415 . S
C5653 H5623 0.950 . S
C5653 C5648 1.363 . S
C5653 C5652 1.415 . S
H5654 C5651 0.999 . S
H5655 C5636 0.913 . S
H5656 C5674 0.951 . S
H5657 C5676 0.951 . S
H5658 C5678 0.950 . S
H5659 C5679 0.950 . S
H5660 C5681 0.950 . S
H5661 C5684 0.950 . S
H5662 C5685 0.950 . S
H5663 C5687 0.950 . S
H5664 C5688 0.950 . S
H5665 C5689 0.951 . S
H5666 C5691 0.951 . S
H5667 C5693 0.950 . S
H5668 C5694 0.950 . S
H5669 C5696 0.950 . S
H5670 C5699 0.950 . S
H5671 C5700 0.950 . S
H5672 C5702 0.950 . S
H5673 C5703 0.950 . S
C5674 H5656 0.951 . S
C5674 C5675 1.366 . S
C5674 C5676 1.388 . S
C5675 C5674 1.366 . S
C5675 C5679 1.385 . S
C5676 H5657 0.951 . S
C5676 C5674 1.388 . S
C5676 C5677 1.366 . S
C5677 C5676 1.366 . S
C5677 C5678 1.414 . S
C5677 C5680 1.499 . S
C5678 H5658 0.950 . S
C5678 C5677 1.414 . S
C5678 C5679 1.374 . S
C5679 H5659 0.950 . S
C5679 C5675 1.385 . S
C5679 C5678 1.374 . S
C5680 C5677 1.499 . S
C5680 C5681 1.373 . S
C5680 C5682 1.389 . S
C5681 H5660 0.950 . S
C5681 C5680 1.373 . S
C5681 C5697 1.377 . S
C5682 C5680 1.389 . S
C5682 C5683 1.524 . S
C5682 C5696 1.377 . S
C5683 C5682 1.524 . S
C5683 C5684 1.397 . S
C5683 C5688 1.363 . S
C5684 H5661 0.950 . S
C5684 C5683 1.397 . S
C5684 C5685 1.334 . S
C5685 H5662 0.950 . S
C5685 C5684 1.334 . S
C5685 C5686 1.287 . S
C5686 C5685 1.287 . S
C5686 C5687 1.524 . S
C5686 H5705 0.913 . S
C5687 H5663 0.950 . S
C5687 C5686 1.524 . S
C5687 C5688 1.415 . S
C5688 H5664 0.950 . S
C5688 C5683 1.363 . S
C5688 C5687 1.415 . S
C5689 H5665 0.951 . S
C5689 C5690 1.366 . S
C5689 C5691 1.388 . S
C5690 C5689 1.366 . S
C5690 C5694 1.385 . S
C5691 H5666 0.951 . S
C5691 C5689 1.388 . S
C5691 C5692 1.366 . S
C5692 C5691 1.366 . S
C5692 C5693 1.414 . S
C5692 C5695 1.499 . S
C5693 H5667 0.950 . S
C5693 C5692 1.414 . S
C5693 C5694 1.374 . S
C5694 H5668 0.950 . S
C5694 C5690 1.385 . S
C5694 C5693 1.374 . S
C5695 C5692 1.499 . S
C5695 C5696 1.373 . S
C5695 C5697 1.389 . S
C5696 H5669 0.950 . S
C5696 C5682 1.377 . S
C5696 C5695 1.373 . S
C5697 C5681 1.377 . S
C5697 C5695 1.389 . S
C5697 C5698 1.524 . S
C5698 C5697 1.524 . S
C5698 C5699 1.397 . S
C5698 C5703 1.363 . S
C5699 H5670 0.950 . S
C5699 C5698 1.397 . S
C5699 C5700 1.334 . S
C5700 H5671 0.950 . S
C5700 C5699 1.334 . S
C5700 C5701 1.287 . S
C5701 C5700 1.287 . S
C5701 C5702 1.524 . S
C5701 H5704 0.999 . S
C5702 H5672 0.950 . S
C5702 C5701 1.524 . S
C5702 C5703 1.415 . S
C5703 H5673 0.950 . S
C5703 C5698 1.363 . S
C5703 C5702 1.415 . S
H5704 C5701 0.999 . S
H5705 C5686 0.913 . S
H5706 C5724 0.951 . S
H5707 C5726 0.951 . S
H5708 C5728 0.950 . S
H5709 C5729 0.950 . S
H5710 C5731 0.950 . S
H5711 C5734 0.950 . S
H5712 C5735 0.950 . S
H5713 C5737 0.950 . S
H5714 C5738 0.950 . S
H5715 C5739 0.911 1_545 S
H5716 C5741 0.951 . S
H5717 C5743 0.950 . S
H5718 C5744 0.950 . S
H5719 C5746 0.950 . S
H5720 C5749 0.950 . S
H5721 C5750 0.950 . S
H5722 C5752 0.950 . S
H5723 C5753 0.969 . S
C5724 H5706 0.951 . S
C5724 C5725 1.366 . S
C5724 C5726 1.388 . S
C5725 C5724 1.366 . S
C5725 C5729 1.385 . S
C5726 H5707 0.951 . S
C5726 C5724 1.388 . S
C5726 C5727 1.366 . S
C5727 C5726 1.366 . S
C5727 C5728 1.414 . S
C5727 C5730 1.499 . S
C5728 H5708 0.950 . S
C5728 C5727 1.414 . S
C5728 C5729 1.374 . S
C5729 H5709 0.950 . S
C5729 C5725 1.385 . S
C5729 C5728 1.374 . S
C5730 C5727 1.499 . S
C5730 C5731 1.373 . S
C5730 C5732 1.389 . S
C5731 H5710 0.950 . S
C5731 C5730 1.373 . S
C5731 C5747 1.377 . S
C5732 C5730 1.389 . S
C5732 C5733 1.524 . S
C5732 C5746 1.377 . S
C5733 C5732 1.524 . S
C5733 C5734 1.397 . S
C5733 C5738 1.363 . S
C5734 H5711 0.950 . S
C5734 C5733 1.397 . S
C5734 C5735 1.334 . S
C5735 H5712 0.950 . S
C5735 C5734 1.334 . S
C5735 C5736 1.287 . S
C5736 C5735 1.287 . S
C5736 C5737 1.524 . S
C5736 H5755 0.913 . S
C5737 H5713 0.950 . S
C5737 C5736 1.524 . S
C5737 C5738 1.415 . S
C5738 H5714 0.950 . S
C5738 C5733 1.363 . S
C5738 C5737 1.415 . S
C5739 H5715 0.911 1_565 S
C5739 C5740 1.376 . S
C5739 C5741 1.418 . S
C5740 C5739 1.376 . S
C5740 C5744 1.385 . S
C5741 H5716 0.951 . S
C5741 C5739 1.418 . S
C5741 C5742 1.366 . S
C5742 C5741 1.366 . S
C5742 C5743 1.414 . S
C5742 C5745 1.499 . S
C5743 H5717 0.950 . S
C5743 C5742 1.414 . S
C5743 C5744 1.374 . S
C5744 H5718 0.950 . S
C5744 C5740 1.385 . S
C5744 C5743 1.374 . S
C5745 C5742 1.499 . S
C5745 C5746 1.373 . S
C5745 C5747 1.389 . S
C5746 H5719 0.950 . S
C5746 C5732 1.377 . S
C5746 C5745 1.373 . S
C5747 C5731 1.377 . S
C5747 C5745 1.389 . S
C5747 C5748 1.524 . S
C5748 C5747 1.524 . S
C5748 C5749 1.397 . S
C5748 C5753 1.363 1_565 S
C5749 H5720 0.950 . S
C5749 C5748 1.397 . S
C5749 C5750 1.334 1_565 S
C5750 H5721 0.950 . S
C5750 C5749 1.334 1_545 S
C5750 C5751 1.287 . S
C5751 C5750 1.287 . S
C5751 C5752 1.524 . S
C5751 H5754 0.999 . S
C5752 H5722 0.950 . S
C5752 C5751 1.524 . S
C5752 C5753 1.415 . S
C5753 H5723 0.969 . S
C5753 C5748 1.363 1_545 S
C5753 C5752 1.415 . S
H5754 C5751 0.999 . S
H5755 C5736 0.913 . S
H5756 C5774 0.951 . S
H5757 C5776 0.951 . S
H5758 C5778 0.950 . S
H5759 C5779 0.950 . S
H5760 C5781 0.950 . S
H5761 C5784 0.950 . S
H5762 C5785 0.950 . S
H5763 C5787 0.950 . S
H5764 C5788 0.950 . S
H5765 C5789 0.951 . S
H5766 C5791 0.951 . S
H5767 C5793 0.950 . S
H5768 C5794 0.950 . S
H5769 C5796 0.950 . S
H5770 C5799 0.950 . S
H5771 C5800 0.950 . S
H5772 C5802 0.950 . S
H5773 C5803 0.950 . S
C5774 H5756 0.951 . S
C5774 C5775 1.366 . S
C5774 C5776 1.388 . S
C5775 C5774 1.366 . S
C5775 C5779 1.385 . S
C5776 H5757 0.951 . S
C5776 C5774 1.388 . S
C5776 C5777 1.366 . S
C5777 C5776 1.366 . S
C5777 C5778 1.414 . S
C5777 C5780 1.499 . S
C5778 H5758 0.950 . S
C5778 C5777 1.414 . S
C5778 C5779 1.374 . S
C5779 H5759 0.950 . S
C5779 C5775 1.385 . S
C5779 C5778 1.374 . S
C5780 C5777 1.499 . S
C5780 C5781 1.373 . S
C5780 C5782 1.389 . S
C5781 H5760 0.950 . S
C5781 C5780 1.373 . S
C5781 C5797 1.377 . S
C5782 C5780 1.389 . S
C5782 C5783 1.524 . S
C5782 C5796 1.377 . S
C5783 C5782 1.524 . S
C5783 C5784 1.397 . S
C5783 C5788 1.363 . S
C5784 H5761 0.950 . S
C5784 C5783 1.397 . S
C5784 C5785 1.334 . S
C5785 H5762 0.950 . S
C5785 C5784 1.334 . S
C5785 C5786 1.287 . S
C5786 C5785 1.287 . S
C5786 C5787 1.524 . S
C5786 H5805 0.913 . S
C5787 H5763 0.950 . S
C5787 C5786 1.524 . S
C5787 C5788 1.415 . S
C5788 H5764 0.950 . S
C5788 C5783 1.363 . S
C5788 C5787 1.415 . S
C5789 H5765 0.951 . S
C5789 C5790 1.366 . S
C5789 C5791 1.388 . S
C5790 C5789 1.366 . S
C5790 C5794 1.385 . S
C5791 H5766 0.951 . S
C5791 C5789 1.388 . S
C5791 C5792 1.366 . S
C5792 C5791 1.366 . S
C5792 C5793 1.414 . S
C5792 C5795 1.499 . S
C5793 H5767 0.950 . S
C5793 C5792 1.414 . S
C5793 C5794 1.374 . S
C5794 H5768 0.950 . S
C5794 C5790 1.385 . S
C5794 C5793 1.374 . S
C5795 C5792 1.499 . S
C5795 C5796 1.373 . S
C5795 C5797 1.389 . S
C5796 H5769 0.950 . S
C5796 C5782 1.377 . S
C5796 C5795 1.373 . S
C5797 C5781 1.377 . S
C5797 C5795 1.389 . S
C5797 C5798 1.524 . S
C5798 C5797 1.524 . S
C5798 C5799 1.397 . S
C5798 C5803 1.363 . S
C5799 H5770 0.950 . S
C5799 C5798 1.397 . S
C5799 C5800 1.334 . S
C5800 H5771 0.950 . S
C5800 C5799 1.334 . S
C5800 C5801 1.287 . S
C5801 C5800 1.287 . S
C5801 C5802 1.524 . S
C5801 H5804 0.999 . S
C5802 H5772 0.950 . S
C5802 C5801 1.524 . S
C5802 C5803 1.415 . S
C5803 H5773 0.950 . S
C5803 C5798 1.363 . S
C5803 C5802 1.415 . S
H5804 C5801 0.999 . S
H5805 C5786 0.913 . S
H5806 C5824 0.951 . S
H5807 C5826 0.951 . S
H5808 C5828 0.950 . S
H5809 C5829 0.950 . S
H5810 C5831 0.950 . S
H5811 C5834 0.950 . S
H5812 C5835 0.950 . S
H5813 C5837 0.950 . S
H5814 C5838 0.950 . S
H5815 C5839 0.951 . S
H5816 C5841 0.951 . S
H5817 C5843 0.950 . S
H5818 C5844 0.950 . S
H5819 C5846 0.950 . S
H5820 C5849 0.950 . S
H5821 C5850 0.950 . S
H5822 C5852 0.950 . S
H5823 C5853 0.950 . S
C5824 H5806 0.951 . S
C5824 C5825 1.366 . S
C5824 C5826 1.388 . S
C5825 C5824 1.366 . S
C5825 C5829 1.385 . S
C5826 H5807 0.951 . S
C5826 C5824 1.388 . S
C5826 C5827 1.366 . S
C5827 C5826 1.366 . S
C5827 C5828 1.414 . S
C5827 C5830 1.499 . S
C5828 H5808 0.950 . S
C5828 C5827 1.414 . S
C5828 C5829 1.374 . S
C5829 H5809 0.950 . S
C5829 C5825 1.385 . S
C5829 C5828 1.374 . S
C5830 C5827 1.499 . S
C5830 C5831 1.373 . S
C5830 C5832 1.389 . S
C5831 H5810 0.950 . S
C5831 C5830 1.373 . S
C5831 C5847 1.377 . S
C5832 C5830 1.389 . S
C5832 C5833 1.524 . S
C5832 C5846 1.377 . S
C5833 C5832 1.524 . S
C5833 C5834 1.397 . S
C5833 C5838 1.363 . S
C5834 H5811 0.950 . S
C5834 C5833 1.397 . S
C5834 C5835 1.334 . S
C5835 H5812 0.950 . S
C5835 C5834 1.334 . S
C5835 C5836 1.287 . S
C5836 C5835 1.287 . S
C5836 C5837 1.524 . S
C5836 H5855 0.913 . S
C5837 H5813 0.950 . S
C5837 C5836 1.524 . S
C5837 C5838 1.415 . S
C5838 H5814 0.950 . S
C5838 C5833 1.363 . S
C5838 C5837 1.415 . S
C5839 H5815 0.951 . S
C5839 C5840 1.366 . S
C5839 C5841 1.388 . S
C5840 C5839 1.366 . S
C5840 C5844 1.385 . S
C5841 H5816 0.951 . S
C5841 C5839 1.388 . S
C5841 C5842 1.366 . S
C5842 C5841 1.366 . S
C5842 C5843 1.414 . S
C5842 C5845 1.499 . S
C5843 H5817 0.950 . S
C5843 C5842 1.414 . S
C5843 C5844 1.374 . S
C5844 H5818 0.950 . S
C5844 C5840 1.385 . S
C5844 C5843 1.374 . S
C5845 C5842 1.499 . S
C5845 C5846 1.373 . S
C5845 C5847 1.389 . S
C5846 H5819 0.950 . S
C5846 C5832 1.377 . S
C5846 C5845 1.373 . S
C5847 C5831 1.377 . S
C5847 C5845 1.389 . S
C5847 C5848 1.524 . S
C5848 C5847 1.524 . S
C5848 C5849 1.397 . S
C5848 C5853 1.363 . S
C5849 H5820 0.950 . S
C5849 C5848 1.397 . S
C5849 C5850 1.334 . S
C5850 H5821 0.950 . S
C5850 C5849 1.334 . S
C5850 C5851 1.287 . S
C5851 C5850 1.287 . S
C5851 C5852 1.524 . S
C5851 H5854 0.999 . S
C5852 H5822 0.950 . S
C5852 C5851 1.524 . S
C5852 C5853 1.415 . S
C5853 H5823 0.950 . S
C5853 C5848 1.363 . S
C5853 C5852 1.415 . S
H5854 C5851 0.999 . S
H5855 C5836 0.913 . S
H5856 C5874 0.951 . S
H5857 C5876 0.951 . S
H5858 C5878 0.950 . S
H5859 C5879 0.950 . S
H5860 C5881 0.950 . S
H5861 C5884 0.950 . S
H5862 C5885 0.950 . S
H5863 C5887 0.950 . S
H5864 C5888 0.950 . S
H5865 C5889 0.951 . S
H5866 C5891 0.951 . S
H5867 C5893 0.950 . S
H5868 C5894 0.950 . S
H5869 C5896 0.950 . S
H5870 C5899 0.950 . S
H5871 C5900 0.950 . S
H5872 C5902 0.950 . S
H5873 C5903 0.950 . S
C5874 H5856 0.951 . S
C5874 C5875 1.366 . S
C5874 C5876 1.388 . S
C5875 C5874 1.366 . S
C5875 C5879 1.385 . S
C5876 H5857 0.951 . S
C5876 C5874 1.388 . S
C5876 C5877 1.366 . S
C5877 C5876 1.366 . S
C5877 C5878 1.414 . S
C5877 C5880 1.499 . S
C5878 H5858 0.950 . S
C5878 C5877 1.414 . S
C5878 C5879 1.374 . S
C5879 H5859 0.950 . S
C5879 C5875 1.385 . S
C5879 C5878 1.374 . S
C5880 C5877 1.499 . S
C5880 C5881 1.373 . S
C5880 C5882 1.389 . S
C5881 H5860 0.950 . S
C5881 C5880 1.373 . S
C5881 C5897 1.377 . S
C5882 C5880 1.389 . S
C5882 C5883 1.524 . S
C5882 C5896 1.377 . S
C5883 C5882 1.524 . S
C5883 C5884 1.397 . S
C5883 C5888 1.363 . S
C5884 H5861 0.950 . S
C5884 C5883 1.397 . S
C5884 C5885 1.334 . S
C5885 H5862 0.950 . S
C5885 C5884 1.334 . S
C5885 C5886 1.287 . S
C5886 C5885 1.287 . S
C5886 C5887 1.524 . S
C5886 H5905 0.913 . S
C5887 H5863 0.950 . S
C5887 C5886 1.524 . S
C5887 C5888 1.415 . S
C5888 H5864 0.950 . S
C5888 C5883 1.363 . S
C5888 C5887 1.415 . S
C5889 H5865 0.951 . S
C5889 C5890 1.366 . S
C5889 C5891 1.388 . S
C5890 C5889 1.366 . S
C5890 C5894 1.385 . S
C5891 H5866 0.951 . S
C5891 C5889 1.388 . S
C5891 C5892 1.366 . S
C5892 C5891 1.366 . S
C5892 C5893 1.414 . S
C5892 C5895 1.499 . S
C5893 H5867 0.950 . S
C5893 C5892 1.414 . S
C5893 C5894 1.374 . S
C5894 H5868 0.950 . S
C5894 C5890 1.385 . S
C5894 C5893 1.374 . S
C5895 C5892 1.499 . S
C5895 C5896 1.373 . S
C5895 C5897 1.389 . S
C5896 H5869 0.950 . S
C5896 C5882 1.377 . S
C5896 C5895 1.373 . S
C5897 C5881 1.377 . S
C5897 C5895 1.389 . S
C5897 C5898 1.524 . S
C5898 C5897 1.524 . S
C5898 C5899 1.397 . S
C5898 C5903 1.363 . S
C5899 H5870 0.950 . S
C5899 C5898 1.397 . S
C5899 C5900 1.334 . S
C5900 H5871 0.950 . S
C5900 C5899 1.334 . S
C5900 C5901 1.287 . S
C5901 C5900 1.287 . S
C5901 C5902 1.524 . S
C5901 H5904 0.999 . S
C5902 H5872 0.950 . S
C5902 C5901 1.524 . S
C5902 C5903 1.415 . S
C5903 H5873 0.950 . S
C5903 C5898 1.363 . S
C5903 C5902 1.415 . S
H5904 C5901 0.999 . S
H5905 C5886 0.913 . S
H5906 C5924 0.951 . S
H5907 C5926 0.951 . S
H5908 C5928 0.950 . S
H5909 C5929 0.950 . S
H5910 C5931 0.950 . S
H5911 C5934 0.950 . S
H5912 C5935 0.950 . S
H5913 C5937 0.950 . S
H5914 C5938 0.950 . S
H5915 C5939 0.951 . S
H5916 C5941 0.951 . S
H5917 C5943 0.950 . S
H5918 C5944 0.950 . S
H5919 C5946 0.950 . S
H5920 C5949 0.950 . S
H5921 C5950 0.950 . S
H5922 C5952 0.950 . S
H5923 C5953 0.950 . S
C5924 H5906 0.951 . S
C5924 C5925 1.366 . S
C5924 C5926 1.388 . S
C5925 C5924 1.366 . S
C5925 C5929 1.385 . S
C5926 H5907 0.951 . S
C5926 C5924 1.388 . S
C5926 C5927 1.366 . S
C5927 C5926 1.366 . S
C5927 C5928 1.414 . S
C5927 C5930 1.499 . S
C5928 H5908 0.950 . S
C5928 C5927 1.414 . S
C5928 C5929 1.374 . S
C5929 H5909 0.950 . S
C5929 C5925 1.385 . S
C5929 C5928 1.374 . S
C5930 C5927 1.499 . S
C5930 C5931 1.373 . S
C5930 C5932 1.389 . S
C5931 H5910 0.950 . S
C5931 C5930 1.373 . S
C5931 C5947 1.377 . S
C5932 C5930 1.389 . S
C5932 C5933 1.524 . S
C5932 C5946 1.377 . S
C5933 C5932 1.524 . S
C5933 C5934 1.397 . S
C5933 C5938 1.363 . S
C5934 H5911 0.950 . S
C5934 C5933 1.397 . S
C5934 C5935 1.334 . S
C5935 H5912 0.950 . S
C5935 C5934 1.334 . S
C5935 C5936 1.287 . S
C5936 C5935 1.287 . S
C5936 C5937 1.524 . S
C5936 H5955 0.913 . S
C5937 H5913 0.950 . S
C5937 C5936 1.524 . S
C5937 C5938 1.415 . S
C5938 H5914 0.950 . S
C5938 C5933 1.363 . S
C5938 C5937 1.415 . S
C5939 H5915 0.951 . S
C5939 C5940 1.366 . S
C5939 C5941 1.388 . S
C5940 C5939 1.366 . S
C5940 C5944 1.385 . S
C5941 H5916 0.951 . S
C5941 C5939 1.388 . S
C5941 C5942 1.366 . S
C5942 C5941 1.366 . S
C5942 C5943 1.414 . S
C5942 C5945 1.499 . S
C5943 H5917 0.950 . S
C5943 C5942 1.414 . S
C5943 C5944 1.374 . S
C5944 H5918 0.950 . S
C5944 C5940 1.385 . S
C5944 C5943 1.374 . S
C5945 C5942 1.499 . S
C5945 C5946 1.373 . S
C5945 C5947 1.389 . S
C5946 H5919 0.950 . S
C5946 C5932 1.377 . S
C5946 C5945 1.373 . S
C5947 C5931 1.377 . S
C5947 C5945 1.389 . S
C5947 C5948 1.524 . S
C5948 C5947 1.524 . S
C5948 C5949 1.397 . S
C5948 C5953 1.363 . S
C5949 H5920 0.950 . S
C5949 C5948 1.397 . S
C5949 C5950 1.334 . S
C5950 H5921 0.950 . S
C5950 C5949 1.334 . S
C5950 C5951 1.287 . S
C5951 C5950 1.287 . S
C5951 C5952 1.524 . S
C5951 H5954 0.999 . S
C5952 H5922 0.950 . S
C5952 C5951 1.524 . S
C5952 C5953 1.415 . S
C5953 H5923 0.950 . S
C5953 C5948 1.363 . S
C5953 C5952 1.415 . S
H5954 C5951 0.999 . S
H5955 C5936 0.913 . S
H5956 C5974 0.951 . S
H5957 C5976 0.951 . S
H5958 C5978 0.950 . S
H5959 C5979 0.950 . S
H5960 C5981 0.950 . S
H5961 C5984 0.950 . S
H5962 C5985 0.950 . S
H5963 C5987 0.950 . S
H5964 C5988 0.950 . S
H5965 C5989 0.951 . S
H5966 C5991 0.951 . S
H5967 C5993 0.950 . S
H5968 C5994 0.950 . S
H5969 C5996 0.950 . S
H5970 C5999 0.950 . S
H5971 C6000 0.950 . S
H5972 C6002 0.950 . S
H5973 C6003 0.931 1_655 S
C5974 H5956 0.951 . S
C5974 C5975 1.366 . S
C5974 C5976 1.388 . S
C5975 C5974 1.366 . S
C5975 C5979 1.385 . S
C5976 H5957 0.951 . S
C5976 C5974 1.388 . S
C5976 C5977 1.366 . S
C5977 C5976 1.366 . S
C5977 C5978 1.414 . S
C5977 C5980 1.499 1_556 S
C5978 H5958 0.950 . S
C5978 C5977 1.414 . S
C5978 C5979 1.374 . S
C5979 H5959 0.950 . S
C5979 C5975 1.385 . S
C5979 C5978 1.374 . S
C5980 C5977 1.499 1_554 S
C5980 C5981 1.376 1_554 S
C5980 C5982 1.387 . S
C5981 H5960 0.950 . S
C5981 C5980 1.376 1_556 S
C5981 C5997 1.377 . S
C5982 C5980 1.387 . S
C5982 C5983 1.524 . S
C5982 C5996 1.377 . S
C5983 C5982 1.524 . S
C5983 C5984 1.397 . S
C5983 C5988 1.363 . S
C5984 H5961 0.950 . S
C5984 C5983 1.397 . S
C5984 C5985 1.334 . S
C5985 H5962 0.950 . S
C5985 C5984 1.334 . S
C5985 C5986 1.287 . S
C5986 C5985 1.287 . S
C5986 C5987 1.524 . S
C5986 H6005 0.913 . S
C5987 H5963 0.950 . S
C5987 C5986 1.524 . S
C5987 C5988 1.415 . S
C5988 H5964 0.950 . S
C5988 C5983 1.363 . S
C5988 C5987 1.415 . S
C5989 H5965 0.951 . S
C5989 C5990 1.366 . S
C5989 C5991 1.388 . S
C5990 C5989 1.366 . S
C5990 C5994 1.385 . S
C5991 H5966 0.951 . S
C5991 C5989 1.388 . S
C5991 C5992 1.366 . S
C5992 C5991 1.366 . S
C5992 C5993 1.414 . S
C5992 C5995 1.499 . S
C5993 H5967 0.950 . S
C5993 C5992 1.414 . S
C5993 C5994 1.374 . S
C5994 H5968 0.950 . S
C5994 C5990 1.385 . S
C5994 C5993 1.374 . S
C5995 C5992 1.499 . S
C5995 C5996 1.373 . S
C5995 C5997 1.389 1_554 S
C5996 H5969 0.950 . S
C5996 C5982 1.377 . S
C5996 C5995 1.373 . S
C5997 C5981 1.377 . S
C5997 C5995 1.389 1_556 S
C5997 C5998 1.524 . S
C5998 C5997 1.524 . S
C5998 C5999 1.397 . S
C5998 C6003 1.413 . S
C5999 H5970 0.950 . S
C5999 C5998 1.397 . S
C5999 C6000 1.334 . S
C6000 H5971 0.950 . S
C6000 C5999 1.334 . S
C6000 C6001 1.287 . S
C6001 C6000 1.287 . S
C6001 C6002 1.524 1_455 S
C6001 H6004 0.999 1_455 S
C6002 H5972 0.950 . S
C6002 C6001 1.524 1_655 S
C6002 C6003 1.386 1_655 S
C6003 H5973 0.931 1_455 S
C6003 C5998 1.413 . S
C6003 C6002 1.386 1_455 S
H6004 C6001 0.999 1_655 S
H6005 C5986 0.913 . S
H6006 C6024 0.951 . S
H6007 C6026 0.951 . S
H6008 C6028 0.950 . S
H6009 C6029 0.950 1_455 S
H6010 C6031 0.950 . S
H6011 C6034 0.950 . S
H6012 C6035 0.950 . S
H6013 C6037 0.950 . S
H6014 C6038 0.950 . S
H6015 C6039 0.951 . S
H6016 C6041 0.951 . S
H6017 C6043 0.950 . S
H6018 C6044 0.950 . S
H6019 C6046 0.950 . S
H6020 C6049 0.950 . S
H6021 C6050 0.950 . S
H6022 C6052 0.950 . S
H6023 C6053 0.950 . S
C6024 H6006 0.951 . S
C6024 C6025 1.366 . S
C6024 C6026 1.388 . S
C6025 C6024 1.366 . S
C6025 C6029 1.385 . S
C6026 H6007 0.951 . S
C6026 C6024 1.388 . S
C6026 C6027 1.366 . S
C6027 C6026 1.366 . S
C6027 C6028 1.414 . S
C6027 C6030 1.499 . S
C6028 H6008 0.950 . S
C6028 C6027 1.414 . S
C6028 C6029 1.374 . S
C6029 H6009 0.950 1_655 S
C6029 C6025 1.385 . S
C6029 C6028 1.374 . S
C6030 C6027 1.499 . S
C6030 C6031 1.373 . S
C6030 C6032 1.389 . S
C6031 H6010 0.950 . S
C6031 C6030 1.373 . S
C6031 C6047 1.377 . S
C6032 C6030 1.389 . S
C6032 C6033 1.524 . S
C6032 C6046 1.377 . S
C6033 C6032 1.524 . S
C6033 C6034 1.397 . S
C6033 C6038 1.363 . S
C6034 H6011 0.950 . S
C6034 C6033 1.397 . S
C6034 C6035 1.334 . S
C6035 H6012 0.950 . S
C6035 C6034 1.334 . S
C6035 C6036 1.287 . S
C6036 C6035 1.287 . S
C6036 C6037 1.524 . S
C6036 H6055 0.913 . S
C6037 H6013 0.950 . S
C6037 C6036 1.524 . S
C6037 C6038 1.415 . S
C6038 H6014 0.950 . S
C6038 C6033 1.363 . S
C6038 C6037 1.415 . S
C6039 H6015 0.951 . S
C6039 C6040 1.366 . S
C6039 C6041 1.388 . S
C6040 C6039 1.366 . S
C6040 C6044 1.385 . S
C6041 H6016 0.951 . S
C6041 C6039 1.388 . S
C6041 C6042 1.366 . S
C6042 C6041 1.366 . S
C6042 C6043 1.414 . S
C6042 C6045 1.499 . S
C6043 H6017 0.950 . S
C6043 C6042 1.414 . S
C6043 C6044 1.374 . S
C6044 H6018 0.950 . S
C6044 C6040 1.385 . S
C6044 C6043 1.374 . S
C6045 C6042 1.499 . S
C6045 C6046 1.373 . S
C6045 C6047 1.389 . S
C6046 H6019 0.950 . S
C6046 C6032 1.377 . S
C6046 C6045 1.373 . S
C6047 C6031 1.377 . S
C6047 C6045 1.389 . S
C6047 C6048 1.524 . S
C6048 C6047 1.524 . S
C6048 C6049 1.397 . S
C6048 C6053 1.363 . S
C6049 H6020 0.950 . S
C6049 C6048 1.397 . S
C6049 C6050 1.334 . S
C6050 H6021 0.950 . S
C6050 C6049 1.334 . S
C6050 C6051 1.287 . S
C6051 C6050 1.287 . S
C6051 C6052 1.524 . S
C6051 H6054 0.999 . S
C6052 H6022 0.950 . S
C6052 C6051 1.524 . S
C6052 C6053 1.415 . S
C6053 H6023 0.950 . S
C6053 C6048 1.363 . S
C6053 C6052 1.415 . S
H6054 C6051 0.999 . S
H6055 C6036 0.913 . S
H6056 C6074 0.951 . S
H6057 C6076 0.951 . S
H6058 C6078 0.950 . S
H6059 C6079 0.950 . S
H6060 C6081 0.950 . S
H6061 C6084 0.950 . S
H6062 C6085 0.950 . S
H6063 C6087 0.950 . S
H6064 C6088 0.950 . S
H6065 C6089 0.951 . S
H6066 C6091 0.951 . S
H6067 C6093 0.950 . S
H6068 C6094 0.950 . S
H6069 C6096 0.950 . S
H6070 C6099 0.950 . S
H6071 C6100 0.950 . S
H6072 C6102 0.950 . S
H6073 C6103 0.950 . S
C6074 H6056 0.951 . S
C6074 C6075 1.366 . S
C6074 C6076 1.388 . S
C6075 C6074 1.366 . S
C6075 C6079 1.385 . S
C6076 H6057 0.951 . S
C6076 C6074 1.388 . S
C6076 C6077 1.366 . S
C6077 C6076 1.366 . S
C6077 C6078 1.414 . S
C6077 C6080 1.499 . S
C6078 H6058 0.950 . S
C6078 C6077 1.414 . S
C6078 C6079 1.374 . S
C6079 H6059 0.950 . S
C6079 C6075 1.385 . S
C6079 C6078 1.374 . S
C6080 C6077 1.499 . S
C6080 C6081 1.373 . S
C6080 C6082 1.389 . S
C6081 H6060 0.950 . S
C6081 C6080 1.373 . S
C6081 C6097 1.377 . S
C6082 C6080 1.389 . S
C6082 C6083 1.524 . S
C6082 C6096 1.377 . S
C6083 C6082 1.524 . S
C6083 C6084 1.397 . S
C6083 C6088 1.363 . S
C6084 H6061 0.950 . S
C6084 C6083 1.397 . S
C6084 C6085 1.334 . S
C6085 H6062 0.950 . S
C6085 C6084 1.334 . S
C6085 C6086 1.287 . S
C6086 C6085 1.287 . S
C6086 C6087 1.524 . S
C6086 H6105 0.913 . S
C6087 H6063 0.950 . S
C6087 C6086 1.524 . S
C6087 C6088 1.415 . S
C6088 H6064 0.950 . S
C6088 C6083 1.363 . S
C6088 C6087 1.415 . S
C6089 H6065 0.951 . S
C6089 C6090 1.366 . S
C6089 C6091 1.388 . S
C6090 C6089 1.366 . S
C6090 C6094 1.385 . S
C6091 H6066 0.951 . S
C6091 C6089 1.388 . S
C6091 C6092 1.366 . S
C6092 C6091 1.366 . S
C6092 C6093 1.414 . S
C6092 C6095 1.499 . S
C6093 H6067 0.950 . S
C6093 C6092 1.414 . S
C6093 C6094 1.374 . S
C6094 H6068 0.950 . S
C6094 C6090 1.385 . S
C6094 C6093 1.374 . S
C6095 C6092 1.499 . S
C6095 C6096 1.373 . S
C6095 C6097 1.389 . S
C6096 H6069 0.950 . S
C6096 C6082 1.377 . S
C6096 C6095 1.373 . S
C6097 C6081 1.377 . S
C6097 C6095 1.389 . S
C6097 C6098 1.524 . S
C6098 C6097 1.524 . S
C6098 C6099 1.397 . S
C6098 C6103 1.363 . S
C6099 H6070 0.950 . S
C6099 C6098 1.397 . S
C6099 C6100 1.334 . S
C6100 H6071 0.950 . S
C6100 C6099 1.334 . S
C6100 C6101 1.287 . S
C6101 C6100 1.287 . S
C6101 C6102 1.524 . S
C6101 H6104 0.999 . S
C6102 H6072 0.950 . S
C6102 C6101 1.524 . S
C6102 C6103 1.415 . S
C6103 H6073 0.950 . S
C6103 C6098 1.363 . S
C6103 C6102 1.415 . S
H6104 C6101 0.999 . S
H6105 C6086 0.913 . S
H6106 C6124 0.951 . S
H6107 C6126 0.951 . S
H6108 C6128 0.950 . S
H6109 C6129 0.950 . S
H6110 C6131 0.950 . S
H6111 C6134 0.950 . S
H6112 C6135 0.950 . S
H6113 C6137 0.950 . S
H6114 C6138 0.950 . S
H6115 C6139 0.951 . S
H6116 C6141 0.951 . S
H6117 C6143 0.950 . S
H6118 C6144 0.950 . S
H6119 C6146 0.950 . S
H6120 C6149 0.950 . S
H6121 C6150 0.950 . S
H6122 C6152 0.950 . S
H6123 C6153 0.950 . S
C6124 H6106 0.951 . S
C6124 C6125 1.366 . S
C6124 C6126 1.388 1_455 S
C6125 C6124 1.366 . S
C6125 C6129 1.385 . S
C6126 H6107 0.951 . S
C6126 C6124 1.388 1_655 S
C6126 C6127 1.366 . S
C6127 C6126 1.366 . S
C6127 C6128 1.414 . S
C6127 C6130 1.499 . S
C6128 H6108 0.950 . S
C6128 C6127 1.414 . S
C6128 C6129 1.374 1_655 S
C6129 H6109 0.950 . S
C6129 C6125 1.385 . S
C6129 C6128 1.374 1_455 S
C6130 C6127 1.499 . S
C6130 C6131 1.373 . S
C6130 C6132 1.389 . S
C6131 H6110 0.950 . S
C6131 C6130 1.373 . S
C6131 C6147 1.377 . S
C6132 C6130 1.389 . S
C6132 C6133 1.524 . S
C6132 C6146 1.377 . S
C6133 C6132 1.524 . S
C6133 C6134 1.397 . S
C6133 C6138 1.363 . S
C6134 H6111 0.950 . S
C6134 C6133 1.397 . S
C6134 C6135 1.334 . S
C6135 H6112 0.950 . S
C6135 C6134 1.334 . S
C6135 C6136 1.287 . S
C6136 C6135 1.287 . S
C6136 C6137 1.524 . S
C6136 H6155 0.913 . S
C6137 H6113 0.950 . S
C6137 C6136 1.524 . S
C6137 C6138 1.415 . S
C6138 H6114 0.950 . S
C6138 C6133 1.363 . S
C6138 C6137 1.415 . S
C6139 H6115 0.951 . S
C6139 C6140 1.366 . S
C6139 C6141 1.388 . S
C6140 C6139 1.366 . S
C6140 C6144 1.385 . S
C6141 H6116 0.951 . S
C6141 C6139 1.388 . S
C6141 C6142 1.366 . S
C6142 C6141 1.366 . S
C6142 C6143 1.414 . S
C6142 C6145 1.499 . S
C6143 H6117 0.950 . S
C6143 C6142 1.414 . S
C6143 C6144 1.374 . S
C6144 H6118 0.950 . S
C6144 C6140 1.385 . S
C6144 C6143 1.374 . S
C6145 C6142 1.499 . S
C6145 C6146 1.373 . S
C6145 C6147 1.389 . S
C6146 H6119 0.950 . S
C6146 C6132 1.377 . S
C6146 C6145 1.373 . S
C6147 C6131 1.377 . S
C6147 C6145 1.389 . S
C6147 C6148 1.524 . S
C6148 C6147 1.524 . S
C6148 C6149 1.397 . S
C6148 C6153 1.363 . S
C6149 H6120 0.950 . S
C6149 C6148 1.397 . S
C6149 C6150 1.334 . S
C6150 H6121 0.950 . S
C6150 C6149 1.334 . S
C6150 C6151 1.287 . S
C6151 C6150 1.287 . S
C6151 C6152 1.524 . S
C6151 H6154 0.999 . S
C6152 H6122 0.950 . S
C6152 C6151 1.524 . S
C6152 C6153 1.415 . S
C6153 H6123 0.950 . S
C6153 C6148 1.363 . S
C6153 C6152 1.415 . S
H6154 C6151 0.999 . S
H6155 C6136 0.913 . S
H6156 C6174 0.951 . S
H6157 C6176 0.951 . S
H6158 C6178 0.950 . S
H6159 C6179 0.950 . S
H6160 C6181 0.950 . S
H6161 C6184 0.950 . S
H6162 C6185 0.950 1_455 S
H6163 C6187 0.950 . S
H6164 C6188 0.950 . S
H6165 C6189 0.951 . S
H6166 C6191 0.951 . S
H6167 C6193 1.009 . S
H6168 C6194 0.950 . S
H6169 C6196 0.950 . S
H6170 C6199 0.950 . S
H6171 C6200 0.950 . S
H6172 C6202 0.950 . S
H6173 C6203 0.950 . S
C6174 H6156 0.951 . S
C6174 C6175 1.366 . S
C6174 C6176 1.388 . S
C6175 C6174 1.366 . S
C6175 C6179 1.385 1_655 S
C6176 H6157 0.951 . S
C6176 C6174 1.388 . S
C6176 C6177 1.366 1_655 S
C6177 C6176 1.366 1_455 S
C6177 C6178 1.414 . S
C6177 C6180 1.498 . S
C6178 H6158 0.950 . S
C6178 C6177 1.414 . S
C6178 C6179 1.374 . S
C6179 H6159 0.950 . S
C6179 C6175 1.385 1_455 S
C6179 C6178 1.374 . S
C6180 C6177 1.498 . S
C6180 C6181 1.373 . S
C6180 C6182 1.389 . S
C6181 H6160 0.950 . S
C6181 C6180 1.373 . S
C6181 C6197 1.377 . S
C6182 C6180 1.389 . S
C6182 C6183 1.524 1_455 S
C6182 C6196 1.377 . S
C6183 C6182 1.524 1_655 S
C6183 C6184 1.397 1_655 S
C6183 C6188 1.363 . S
C6184 H6161 0.950 . S
C6184 C6183 1.397 1_455 S
C6184 C6185 1.334 1_455 S
C6185 H6162 0.950 1_655 S
C6185 C6184 1.334 1_655 S
C6185 C6186 1.287 . S
C6186 C6185 1.287 . S
C6186 C6187 1.524 . S
C6186 H6205 0.913 . S
C6187 H6163 0.950 . S
C6187 C6186 1.524 . S
C6187 C6188 1.415 . S
C6188 H6164 0.950 . S
C6188 C6183 1.363 . S
C6188 C6187 1.415 . S
C6189 H6165 0.951 . S
C6189 C6190 1.366 . S
C6189 C6191 1.388 . S
C6190 C6189 1.366 . S
C6190 C6194 1.385 . S
C6191 H6166 0.951 . S
C6191 C6189 1.388 . S
C6191 C6192 1.366 . S
C6192 C6191 1.366 . S
C6192 C6193 1.414 . S
C6192 C6195 1.499 . S
C6193 H6167 1.009 . S
C6193 C6192 1.414 . S
C6193 C6194 1.374 . S
C6194 H6168 0.950 . S
C6194 C6190 1.385 . S
C6194 C6193 1.374 . S
C6195 C6192 1.499 . S
C6195 C6196 1.373 . S
C6195 C6197 1.389 . S
C6196 H6169 0.950 . S
C6196 C6182 1.377 . S
C6196 C6195 1.373 . S
C6197 C6181 1.377 . S
C6197 C6195 1.389 . S
C6197 C6198 1.524 . S
C6198 C6197 1.524 . S
C6198 C6199 1.397 . S
C6198 C6203 1.363 . S
C6199 H6170 0.950 . S
C6199 C6198 1.397 . S
C6199 C6200 1.334 . S
C6200 H6171 0.950 . S
C6200 C6199 1.334 . S
C6200 C6201 1.287 . S
C6201 C6200 1.287 . S
C6201 C6202 1.524 . S
C6201 H6204 0.999 . S
C6202 H6172 0.950 . S
C6202 C6201 1.524 . S
C6202 C6203 1.415 . S
C6203 H6173 0.950 . S
C6203 C6198 1.363 . S
C6203 C6202 1.415 . S
H6204 C6201 0.999 . S
H6205 C6186 0.913 . S
H6206 C6224 0.951 . S
H6207 C6226 0.951 . S
H6208 C6228 0.950 . S
H6209 C6229 0.950 . S
H6210 C6231 0.950 . S
H6211 C6234 0.950 . S
H6212 C6235 0.950 . S
H6213 C6237 0.950 . S
H6214 C6238 0.950 . S
H6215 C6239 0.951 . S
H6216 C6241 0.951 . S
H6217 C6243 0.950 . S
H6218 C6244 0.950 . S
H6219 C6246 0.950 . S
H6220 C6249 0.950 . S
H6221 C6250 0.950 . S
H6222 C6252 0.950 . S
H6223 C6253 0.950 . S
C6224 H6206 0.951 . S
C6224 C6225 1.366 . S
C6224 C6226 1.388 . S
C6225 C6224 1.366 . S
C6225 C6229 1.385 . S
C6226 H6207 0.951 . S
C6226 C6224 1.388 . S
C6226 C6227 1.366 . S
C6227 C6226 1.366 . S
C6227 C6228 1.414 . S
C6227 C6230 1.499 . S
C6228 H6208 0.950 . S
C6228 C6227 1.414 . S
C6228 C6229 1.374 . S
C6229 H6209 0.950 . S
C6229 C6225 1.385 . S
C6229 C6228 1.374 . S
C6230 C6227 1.499 . S
C6230 C6231 1.373 . S
C6230 C6232 1.389 . S
C6231 H6210 0.950 . S
C6231 C6230 1.373 . S
C6231 C6247 1.377 . S
C6232 C6230 1.389 . S
C6232 C6233 1.524 . S
C6232 C6246 1.377 . S
C6233 C6232 1.524 . S
C6233 C6234 1.397 . S
C6233 C6238 1.363 . S
C6234 H6211 0.950 . S
C6234 C6233 1.397 . S
C6234 C6235 1.334 . S
C6235 H6212 0.950 . S
C6235 C6234 1.334 . S
C6235 C6236 1.287 . S
C6236 C6235 1.287 . S
C6236 C6237 1.524 . S
C6236 H6255 0.913 . S
C6237 H6213 0.950 . S
C6237 C6236 1.524 . S
C6237 C6238 1.415 . S
C6238 H6214 0.950 . S
C6238 C6233 1.363 . S
C6238 C6237 1.415 . S
C6239 H6215 0.951 . S
C6239 C6240 1.366 . S
C6239 C6241 1.388 . S
C6240 C6239 1.366 . S
C6240 C6244 1.385 . S
C6241 H6216 0.951 . S
C6241 C6239 1.388 . S
C6241 C6242 1.366 . S
C6242 C6241 1.366 . S
C6242 C6243 1.414 . S
C6242 C6245 1.499 . S
C6243 H6217 0.950 . S
C6243 C6242 1.414 . S
C6243 C6244 1.374 . S
C6244 H6218 0.950 . S
C6244 C6240 1.385 . S
C6244 C6243 1.374 . S
C6245 C6242 1.499 . S
C6245 C6246 1.373 . S
C6245 C6247 1.389 . S
C6246 H6219 0.950 . S
C6246 C6232 1.377 . S
C6246 C6245 1.373 . S
C6247 C6231 1.377 . S
C6247 C6245 1.389 . S
C6247 C6248 1.524 . S
C6248 C6247 1.524 . S
C6248 C6249 1.397 . S
C6248 C6253 1.363 . S
C6249 H6220 0.950 . S
C6249 C6248 1.397 . S
C6249 C6250 1.334 . S
C6250 H6221 0.950 . S
C6250 C6249 1.334 . S
C6250 C6251 1.287 . S
C6251 C6250 1.287 . S
C6251 C6252 1.524 . S
C6251 H6254 0.999 . S
C6252 H6222 0.950 . S
C6252 C6251 1.524 . S
C6252 C6253 1.415 . S
C6253 H6223 0.950 . S
C6253 C6248 1.363 . S
C6253 C6252 1.415 . S
H6254 C6251 0.999 . S
H6255 C6236 0.913 . S
H6256 C6274 0.951 . S
H6257 C6276 0.951 . S
H6258 C6278 0.950 . S
H6259 C6279 0.950 . S
H6260 C6281 0.950 . S
H6261 C6284 0.950 . S
H6262 C6285 0.950 . S
H6263 C6287 0.950 . S
H6264 C6288 0.950 . S
H6265 C6289 0.951 . S
H6266 C6291 0.951 . S
H6267 C6293 0.950 . S
H6268 C6294 0.950 . S
H6269 C6296 0.950 . S
H6270 C6299 0.950 . S
H6271 C6300 0.950 . S
H6272 C6302 0.950 . S
H6273 C6303 0.950 . S
C6274 H6256 0.951 . S
C6274 C6275 1.366 . S
C6274 C6276 1.388 . S
C6275 C6274 1.366 . S
C6275 C6279 1.385 . S
C6276 H6257 0.951 . S
C6276 C6274 1.388 . S
C6276 C6277 1.366 . S
C6277 C6276 1.366 . S
C6277 C6278 1.414 . S
C6277 C6280 1.499 . S
C6278 H6258 0.950 . S
C6278 C6277 1.414 . S
C6278 C6279 1.374 . S
C6279 H6259 0.950 . S
C6279 C6275 1.385 . S
C6279 C6278 1.374 . S
C6280 C6277 1.499 . S
C6280 C6281 1.373 . S
C6280 C6282 1.389 . S
C6281 H6260 0.950 . S
C6281 C6280 1.373 . S
C6281 C6297 1.377 . S
C6282 C6280 1.389 . S
C6282 C6283 1.524 . S
C6282 C6296 1.377 . S
C6283 C6282 1.524 . S
C6283 C6284 1.397 . S
C6283 C6288 1.363 . S
C6284 H6261 0.950 . S
C6284 C6283 1.397 . S
C6284 C6285 1.334 . S
C6285 H6262 0.950 . S
C6285 C6284 1.334 . S
C6285 C6286 1.287 . S
C6286 C6285 1.287 . S
C6286 C6287 1.524 . S
C6286 H6305 0.913 . S
C6287 H6263 0.950 . S
C6287 C6286 1.524 . S
C6287 C6288 1.415 . S
C6288 H6264 0.950 . S
C6288 C6283 1.363 . S
C6288 C6287 1.415 . S
C6289 H6265 0.951 . S
C6289 C6290 1.366 . S
C6289 C6291 1.388 . S
C6290 C6289 1.366 . S
C6290 C6294 1.385 . S
C6291 H6266 0.951 . S
C6291 C6289 1.388 . S
C6291 C6292 1.366 . S
C6292 C6291 1.366 . S
C6292 C6293 1.414 . S
C6292 C6295 1.499 . S
C6293 H6267 0.950 . S
C6293 C6292 1.414 . S
C6293 C6294 1.374 . S
C6294 H6268 0.950 . S
C6294 C6290 1.385 . S
C6294 C6293 1.374 . S
C6295 C6292 1.499 . S
C6295 C6296 1.373 . S
C6295 C6297 1.389 . S
C6296 H6269 0.950 . S
C6296 C6282 1.377 . S
C6296 C6295 1.373 . S
C6297 C6281 1.377 . S
C6297 C6295 1.389 . S
C6297 C6298 1.524 . S
C6298 C6297 1.524 . S
C6298 C6299 1.397 . S
C6298 C6303 1.363 . S
C6299 H6270 0.950 . S
C6299 C6298 1.397 . S
C6299 C6300 1.334 . S
C6300 H6271 0.950 . S
C6300 C6299 1.334 . S
C6300 C6301 1.287 . S
C6301 C6300 1.287 . S
C6301 C6302 1.524 . S
C6301 H6304 0.999 . S
C6302 H6272 0.950 . S
C6302 C6301 1.524 . S
C6302 C6303 1.415 . S
C6303 H6273 0.950 . S
C6303 C6298 1.363 . S
C6303 C6302 1.415 . S
H6304 C6301 0.999 . S
H6305 C6286 0.913 . S
H6306 C6324 0.951 . S
H6307 C6326 0.951 . S
H6308 C6328 0.950 . S
H6309 C6329 0.950 . S
H6310 C6331 0.950 . S
H6311 C6334 0.950 . S
H6312 C6335 0.950 . S
H6313 C6337 0.950 . S
H6314 C6338 0.950 . S
H6315 C6339 0.951 . S
H6316 C6341 0.951 . S
H6317 C6343 0.950 . S
H6318 C6344 0.950 . S
H6319 C6346 0.950 . S
H6320 C6349 0.950 . S
H6321 C6350 0.950 . S
H6322 C6352 0.950 . S
H6323 C6353 0.950 . S
C6324 H6306 0.951 . S
C6324 C6325 1.366 . S
C6324 C6326 1.388 . S
C6325 C6324 1.366 . S
C6325 C6329 1.385 . S
C6326 H6307 0.951 . S
C6326 C6324 1.388 . S
C6326 C6327 1.366 . S
C6327 C6326 1.366 . S
C6327 C6328 1.414 . S
C6327 C6330 1.499 . S
C6328 H6308 0.950 . S
C6328 C6327 1.414 . S
C6328 C6329 1.374 . S
C6329 H6309 0.950 . S
C6329 C6325 1.385 . S
C6329 C6328 1.374 . S
C6330 C6327 1.499 . S
C6330 C6331 1.373 . S
C6330 C6332 1.389 . S
C6331 H6310 0.950 . S
C6331 C6330 1.373 . S
C6331 C6347 1.377 . S
C6332 C6330 1.389 . S
C6332 C6333 1.524 . S
C6332 C6346 1.377 . S
C6333 C6332 1.524 . S
C6333 C6334 1.397 . S
C6333 C6338 1.363 . S
C6334 H6311 0.950 . S
C6334 C6333 1.397 . S
C6334 C6335 1.334 . S
C6335 H6312 0.950 . S
C6335 C6334 1.334 . S
C6335 C6336 1.287 . S
C6336 C6335 1.287 . S
C6336 C6337 1.524 . S
C6336 H6355 0.913 . S
C6337 H6313 0.950 . S
C6337 C6336 1.524 . S
C6337 C6338 1.415 . S
C6338 H6314 0.950 . S
C6338 C6333 1.363 . S
C6338 C6337 1.415 . S
C6339 H6315 0.951 . S
C6339 C6340 1.366 . S
C6339 C6341 1.388 . S
C6340 C6339 1.366 . S
C6340 C6344 1.385 . S
C6341 H6316 0.951 . S
C6341 C6339 1.388 . S
C6341 C6342 1.366 . S
C6342 C6341 1.366 . S
C6342 C6343 1.414 . S
C6342 C6345 1.499 . S
C6343 H6317 0.950 . S
C6343 C6342 1.414 . S
C6343 C6344 1.374 . S
C6344 H6318 0.950 . S
C6344 C6340 1.385 . S
C6344 C6343 1.374 . S
C6345 C6342 1.499 . S
C6345 C6346 1.373 . S
C6345 C6347 1.389 . S
C6346 H6319 0.950 . S
C6346 C6332 1.377 . S
C6346 C6345 1.373 . S
C6347 C6331 1.377 . S
C6347 C6345 1.389 . S
C6347 C6348 1.524 . S
C6348 C6347 1.524 . S
C6348 C6349 1.397 . S
C6348 C6353 1.363 . S
C6349 H6320 0.950 . S
C6349 C6348 1.397 . S
C6349 C6350 1.334 . S
C6350 H6321 0.950 . S
C6350 C6349 1.334 . S
C6350 C6351 1.287 . S
C6351 C6350 1.287 . S
C6351 C6352 1.524 . S
C6351 H6354 0.999 . S
C6352 H6322 0.950 . S
C6352 C6351 1.524 . S
C6352 C6353 1.415 . S
C6353 H6323 0.950 . S
C6353 C6348 1.363 . S
C6353 C6352 1.415 . S
H6354 C6351 0.999 . S
H6355 C6336 0.913 . S
H6356 C6374 0.951 . S
H6357 C6376 0.951 . S
H6358 C6378 0.950 . S
H6359 C6379 0.950 . S
H6360 C6381 0.950 . S
H6361 C6384 0.950 . S
H6362 C6385 0.950 . S
H6363 C6387 0.950 . S
H6364 C6388 0.950 . S
H6365 C6389 0.951 . S
H6366 C6391 0.951 . S
H6367 C6393 0.950 . S
H6368 C6394 0.950 . S
H6369 C6396 0.950 . S
H6370 C6399 0.950 . S
H6371 C6400 0.950 . S
H6372 C6402 0.950 . S
H6373 C6403 0.950 . S
C6374 H6356 0.951 . S
C6374 C6375 1.366 . S
C6374 C6376 1.388 . S
C6375 C6374 1.366 . S
C6375 C6379 1.385 . S
C6376 H6357 0.951 . S
C6376 C6374 1.388 . S
C6376 C6377 1.366 . S
C6377 C6376 1.366 . S
C6377 C6378 1.414 . S
C6377 C6380 1.499 . S
C6378 H6358 0.950 . S
C6378 C6377 1.414 . S
C6378 C6379 1.374 . S
C6379 H6359 0.950 . S
C6379 C6375 1.385 . S
C6379 C6378 1.374 . S
C6380 C6377 1.499 . S
C6380 C6381 1.373 . S
C6380 C6382 1.389 . S
C6381 H6360 0.950 . S
C6381 C6380 1.373 . S
C6381 C6397 1.377 . S
C6382 C6380 1.389 . S
C6382 C6383 1.524 . S
C6382 C6396 1.377 . S
C6383 C6382 1.524 . S
C6383 C6384 1.397 . S
C6383 C6388 1.363 . S
C6384 H6361 0.950 . S
C6384 C6383 1.397 . S
C6384 C6385 1.334 . S
C6385 H6362 0.950 . S
C6385 C6384 1.334 . S
C6385 C6386 1.287 . S
C6386 C6385 1.287 . S
C6386 C6387 1.524 . S
C6386 H6405 0.913 . S
C6387 H6363 0.950 . S
C6387 C6386 1.524 . S
C6387 C6388 1.415 . S
C6388 H6364 0.950 . S
C6388 C6383 1.363 . S
C6388 C6387 1.415 . S
C6389 H6365 0.951 . S
C6389 C6390 1.366 . S
C6389 C6391 1.388 . S
C6390 C6389 1.366 . S
C6390 C6394 1.385 . S
C6391 H6366 0.951 . S
C6391 C6389 1.388 . S
C6391 C6392 1.366 . S
C6392 C6391 1.366 . S
C6392 C6393 1.414 . S
C6392 C6395 1.499 . S
C6393 H6367 0.950 . S
C6393 C6392 1.414 . S
C6393 C6394 1.374 . S
C6394 H6368 0.950 . S
C6394 C6390 1.385 . S
C6394 C6393 1.374 . S
C6395 C6392 1.499 . S
C6395 C6396 1.373 . S
C6395 C6397 1.389 . S
C6396 H6369 0.950 . S
C6396 C6382 1.377 . S
C6396 C6395 1.373 . S
C6397 C6381 1.377 . S
C6397 C6395 1.389 . S
C6397 C6398 1.524 . S
C6398 C6397 1.524 . S
C6398 C6399 1.397 . S
C6398 C6403 1.363 . S
C6399 H6370 0.950 . S
C6399 C6398 1.397 . S
C6399 C6400 1.334 . S
C6400 H6371 0.950 . S
C6400 C6399 1.334 . S
C6400 C6401 1.287 . S
C6401 C6400 1.287 . S
C6401 C6402 1.524 . S
C6401 H6404 0.999 . S
C6402 H6372 0.950 . S
C6402 C6401 1.524 . S
C6402 C6403 1.415 . S
C6403 H6373 0.950 . S
C6403 C6398 1.363 . S
C6403 C6402 1.415 . S
H6404 C6401 0.999 . S
H6405 C6386 0.913 . S
H6406 C6424 0.951 . S
H6407 C6426 0.951 . S
H6408 C6428 0.950 . S
H6409 C6429 0.950 . S
H6410 C6431 0.950 . S
H6411 C6434 0.950 . S
H6412 C6435 0.950 . S
H6413 C6437 0.950 . S
H6414 C6438 0.950 . S
H6415 C6439 0.951 . S
H6416 C6441 0.951 . S
H6417 C6443 0.950 . S
H6418 C6444 0.950 . S
H6419 C6446 0.950 . S
H6420 C6449 0.950 . S
H6421 C6450 0.950 . S
H6422 C6452 0.950 . S
H6423 C6453 0.950 . S
C6424 H6406 0.951 . S
C6424 C6425 1.366 . S
C6424 C6426 1.388 . S
C6425 C6424 1.366 . S
C6425 C6429 1.385 . S
C6426 H6407 0.951 . S
C6426 C6424 1.388 . S
C6426 C6427 1.366 . S
C6427 C6426 1.366 . S
C6427 C6428 1.414 . S
C6427 C6430 1.499 . S
C6428 H6408 0.950 . S
C6428 C6427 1.414 . S
C6428 C6429 1.374 . S
C6429 H6409 0.950 . S
C6429 C6425 1.385 . S
C6429 C6428 1.374 . S
C6430 C6427 1.499 . S
C6430 C6431 1.373 . S
C6430 C6432 1.389 . S
C6431 H6410 0.950 . S
C6431 C6430 1.373 . S
C6431 C6447 1.377 . S
C6432 C6430 1.389 . S
C6432 C6433 1.524 . S
C6432 C6446 1.377 . S
C6433 C6432 1.524 . S
C6433 C6434 1.397 . S
C6433 C6438 1.363 . S
C6434 H6411 0.950 . S
C6434 C6433 1.397 . S
C6434 C6435 1.334 . S
C6435 H6412 0.950 . S
C6435 C6434 1.334 . S
C6435 C6436 1.287 . S
C6436 C6435 1.287 . S
C6436 C6437 1.524 . S
C6436 H6455 0.913 . S
C6437 H6413 0.950 . S
C6437 C6436 1.524 . S
C6437 C6438 1.415 . S
C6438 H6414 0.950 . S
C6438 C6433 1.363 . S
C6438 C6437 1.415 . S
C6439 H6415 0.951 . S
C6439 C6440 1.366 . S
C6439 C6441 1.388 . S
C6440 C6439 1.366 . S
C6440 C6444 1.385 . S
C6441 H6416 0.951 . S
C6441 C6439 1.388 . S
C6441 C6442 1.366 . S
C6442 C6441 1.366 . S
C6442 C6443 1.414 . S
C6442 C6445 1.499 . S
C6443 H6417 0.950 . S
C6443 C6442 1.414 . S
C6443 C6444 1.374 . S
C6444 H6418 0.950 . S
C6444 C6440 1.385 . S
C6444 C6443 1.374 . S
C6445 C6442 1.499 . S
C6445 C6446 1.373 . S
C6445 C6447 1.389 . S
C6446 H6419 0.950 . S
C6446 C6432 1.377 . S
C6446 C6445 1.373 . S
C6447 C6431 1.377 . S
C6447 C6445 1.389 . S
C6447 C6448 1.524 . S
C6448 C6447 1.524 . S
C6448 C6449 1.397 . S
C6448 C6453 1.363 . S
C6449 H6420 0.950 . S
C6449 C6448 1.397 . S
C6449 C6450 1.334 . S
C6450 H6421 0.950 . S
C6450 C6449 1.334 . S
C6450 C6451 1.287 . S
C6451 C6450 1.287 . S
C6451 C6452 1.524 . S
C6451 H6454 0.999 . S
C6452 H6422 0.950 . S
C6452 C6451 1.524 . S
C6452 C6453 1.415 . S
C6453 H6423 0.950 . S
C6453 C6448 1.363 . S
C6453 C6452 1.415 . S
H6454 C6451 0.999 . S
H6455 C6436 0.913 . S
H6456 C6474 0.951 . S
H6457 C6476 0.951 . S
H6458 C6478 0.950 . S
H6459 C6479 0.950 . S
H6460 C6481 0.950 . S
H6461 C6484 0.950 . S
H6462 C6485 0.950 . S
H6463 C6487 0.950 . S
H6464 C6488 0.950 . S
H6465 C6489 0.951 . S
H6466 C6491 0.951 . S
H6467 C6493 0.950 . S
H6468 C6494 0.950 . S
H6469 C6496 0.950 . S
H6470 C6499 0.950 . S
H6471 C6500 0.950 . S
H6472 C6502 0.950 . S
H6473 C6503 0.950 . S
C6474 H6456 0.951 . S
C6474 C6475 1.366 . S
C6474 C6476 1.388 . S
C6475 C6474 1.366 . S
C6475 C6479 1.385 . S
C6476 H6457 0.951 . S
C6476 C6474 1.388 . S
C6476 C6477 1.366 . S
C6477 C6476 1.366 . S
C6477 C6478 1.414 . S
C6477 C6480 1.499 . S
C6478 H6458 0.950 . S
C6478 C6477 1.414 . S
C6478 C6479 1.374 . S
C6479 H6459 0.950 . S
C6479 C6475 1.385 . S
C6479 C6478 1.374 . S
C6480 C6477 1.499 . S
C6480 C6481 1.373 . S
C6480 C6482 1.389 . S
C6481 H6460 0.950 . S
C6481 C6480 1.373 . S
C6481 C6497 1.377 . S
C6482 C6480 1.389 . S
C6482 C6483 1.524 . S
C6482 C6496 1.377 . S
C6483 C6482 1.524 . S
C6483 C6484 1.397 . S
C6483 C6488 1.363 . S
C6484 H6461 0.950 . S
C6484 C6483 1.397 . S
C6484 C6485 1.334 . S
C6485 H6462 0.950 . S
C6485 C6484 1.334 . S
C6485 C6486 1.287 . S
C6486 C6485 1.287 . S
C6486 C6487 1.524 . S
C6486 H6505 0.913 . S
C6487 H6463 0.950 . S
C6487 C6486 1.524 . S
C6487 C6488 1.415 . S
C6488 H6464 0.950 . S
C6488 C6483 1.363 . S
C6488 C6487 1.415 . S
C6489 H6465 0.951 . S
C6489 C6490 1.366 . S
C6489 C6491 1.388 . S
C6490 C6489 1.366 . S
C6490 C6494 1.385 . S
C6491 H6466 0.951 . S
C6491 C6489 1.388 . S
C6491 C6492 1.366 . S
C6492 C6491 1.366 . S
C6492 C6493 1.414 . S
C6492 C6495 1.499 . S
C6493 H6467 0.950 . S
C6493 C6492 1.414 . S
C6493 C6494 1.374 . S
C6494 H6468 0.950 . S
C6494 C6490 1.385 . S
C6494 C6493 1.374 . S
C6495 C6492 1.499 . S
C6495 C6496 1.373 . S
C6495 C6497 1.389 . S
C6496 H6469 0.950 . S
C6496 C6482 1.377 . S
C6496 C6495 1.373 . S
C6497 C6481 1.377 . S
C6497 C6495 1.389 . S
C6497 C6498 1.524 . S
C6498 C6497 1.524 . S
C6498 C6499 1.397 . S
C6498 C6503 1.363 . S
C6499 H6470 0.950 . S
C6499 C6498 1.397 . S
C6499 C6500 1.334 . S
C6500 H6471 0.950 . S
C6500 C6499 1.334 . S
C6500 C6501 1.287 . S
C6501 C6500 1.287 . S
C6501 C6502 1.524 . S
C6501 H6504 0.999 . S
C6502 H6472 0.950 . S
C6502 C6501 1.524 . S
C6502 C6503 1.415 . S
C6503 H6473 0.950 . S
C6503 C6498 1.363 . S
C6503 C6502 1.415 . S
H6504 C6501 0.999 . S
H6505 C6486 0.913 . S
H6506 C6524 0.951 . S
H6507 C6526 0.951 . S
H6508 C6528 0.950 . S
H6509 C6529 0.950 . S
H6510 C6531 0.950 . S
H6511 C6534 0.950 . S
H6512 C6535 0.950 . S
H6513 C6537 0.950 . S
H6514 C6538 0.950 . S
H6515 C6539 0.951 . S
H6516 C6541 0.951 . S
H6517 C6543 0.950 . S
H6518 C6544 0.950 . S
H6519 C6546 0.950 . S
H6520 C6549 0.950 . S
H6521 C6550 0.950 . S
H6522 C6552 0.950 . S
H6523 C6553 0.950 . S
C6524 H6506 0.951 . S
C6524 C6525 1.366 . S
C6524 C6526 1.388 . S
C6525 C6524 1.366 . S
C6525 C6529 1.385 . S
C6526 H6507 0.951 . S
C6526 C6524 1.388 . S
C6526 C6527 1.366 . S
C6527 C6526 1.366 . S
C6527 C6528 1.414 . S
C6527 C6530 1.499 . S
C6528 H6508 0.950 . S
C6528 C6527 1.414 . S
C6528 C6529 1.374 . S
C6529 H6509 0.950 . S
C6529 C6525 1.385 . S
C6529 C6528 1.374 . S
C6530 C6527 1.499 . S
C6530 C6531 1.373 . S
C6530 C6532 1.389 . S
C6531 H6510 0.950 . S
C6531 C6530 1.373 . S
C6531 C6547 1.377 . S
C6532 C6530 1.389 . S
C6532 C6533 1.524 . S
C6532 C6546 1.377 . S
C6533 C6532 1.524 . S
C6533 C6534 1.397 . S
C6533 C6538 1.363 . S
C6534 H6511 0.950 . S
C6534 C6533 1.397 . S
C6534 C6535 1.334 . S
C6535 H6512 0.950 . S
C6535 C6534 1.334 . S
C6535 C6536 1.287 . S
C6536 C6535 1.287 . S
C6536 C6537 1.524 . S
C6536 H6555 0.913 . S
C6537 H6513 0.950 . S
C6537 C6536 1.524 . S
C6537 C6538 1.415 . S
C6538 H6514 0.950 . S
C6538 C6533 1.363 . S
C6538 C6537 1.415 . S
C6539 H6515 0.951 . S
C6539 C6540 1.366 . S
C6539 C6541 1.388 . S
C6540 C6539 1.366 . S
C6540 C6544 1.385 . S
C6541 H6516 0.951 . S
C6541 C6539 1.388 . S
C6541 C6542 1.366 . S
C6542 C6541 1.366 . S
C6542 C6543 1.414 . S
C6542 C6545 1.499 . S
C6543 H6517 0.950 . S
C6543 C6542 1.414 . S
C6543 C6544 1.374 . S
C6544 H6518 0.950 . S
C6544 C6540 1.385 . S
C6544 C6543 1.374 . S
C6545 C6542 1.499 . S
C6545 C6546 1.373 . S
C6545 C6547 1.389 . S
C6546 H6519 0.950 . S
C6546 C6532 1.377 . S
C6546 C6545 1.373 . S
C6547 C6531 1.377 . S
C6547 C6545 1.389 . S
C6547 C6548 1.524 . S
C6548 C6547 1.524 . S
C6548 C6549 1.397 . S
C6548 C6553 1.363 . S
C6549 H6520 0.950 . S
C6549 C6548 1.397 . S
C6549 C6550 1.334 . S
C6550 H6521 0.950 . S
C6550 C6549 1.334 . S
C6550 C6551 1.287 . S
C6551 C6550 1.287 . S
C6551 C6552 1.524 . S
C6551 H6554 0.999 . S
C6552 H6522 0.950 . S
C6552 C6551 1.524 . S
C6552 C6553 1.415 . S
C6553 H6523 0.950 . S
C6553 C6548 1.363 . S
C6553 C6552 1.415 . S
H6554 C6551 0.999 . S
H6555 C6536 0.913 . S
H6556 C6574 0.951 . S
H6557 C6576 0.951 . S
H6558 C6578 0.950 . S
H6559 C6579 0.950 . S
H6560 C6581 0.950 . S
H6561 C6584 0.950 . S
H6562 C6585 0.950 . S
H6563 C6587 0.950 . S
H6564 C6588 0.950 . S
H6565 C6589 0.951 . S
H6566 C6591 0.951 . S
H6567 C6593 0.950 . S
H6568 C6594 0.950 . S
H6569 C6596 0.950 . S
H6570 C6599 0.950 . S
H6571 C6600 0.950 . S
H6572 C6602 0.950 . S
H6573 C6603 0.950 . S
C6574 H6556 0.951 . S
C6574 C6575 1.366 . S
C6574 C6576 1.388 . S
C6575 C6574 1.366 . S
C6575 C6579 1.385 . S
C6576 H6557 0.951 . S
C6576 C6574 1.388 . S
C6576 C6577 1.366 . S
C6577 C6576 1.366 . S
C6577 C6578 1.414 . S
C6577 C6580 1.499 . S
C6578 H6558 0.950 . S
C6578 C6577 1.414 . S
C6578 C6579 1.374 . S
C6579 H6559 0.950 . S
C6579 C6575 1.385 . S
C6579 C6578 1.374 . S
C6580 C6577 1.499 . S
C6580 C6581 1.373 . S
C6580 C6582 1.389 . S
C6581 H6560 0.950 . S
C6581 C6580 1.373 . S
C6581 C6597 1.377 . S
C6582 C6580 1.389 . S
C6582 C6583 1.524 . S
C6582 C6596 1.377 . S
C6583 C6582 1.524 . S
C6583 C6584 1.397 . S
C6583 C6588 1.363 . S
C6584 H6561 0.950 . S
C6584 C6583 1.397 . S
C6584 C6585 1.334 . S
C6585 H6562 0.950 . S
C6585 C6584 1.334 . S
C6585 C6586 1.287 . S
C6586 C6585 1.287 . S
C6586 C6587 1.524 . S
C6586 H6605 0.913 . S
C6587 H6563 0.950 . S
C6587 C6586 1.524 . S
C6587 C6588 1.415 . S
C6588 H6564 0.950 . S
C6588 C6583 1.363 . S
C6588 C6587 1.415 . S
C6589 H6565 0.951 . S
C6589 C6590 1.366 . S
C6589 C6591 1.388 . S
C6590 C6589 1.366 . S
C6590 C6594 1.385 . S
C6591 H6566 0.951 . S
C6591 C6589 1.388 . S
C6591 C6592 1.366 . S
C6592 C6591 1.366 . S
C6592 C6593 1.414 . S
C6592 C6595 1.499 . S
C6593 H6567 0.950 . S
C6593 C6592 1.414 . S
C6593 C6594 1.374 . S
C6594 H6568 0.950 . S
C6594 C6590 1.385 . S
C6594 C6593 1.374 . S
C6595 C6592 1.499 . S
C6595 C6596 1.373 . S
C6595 C6597 1.389 . S
C6596 H6569 0.950 . S
C6596 C6582 1.377 . S
C6596 C6595 1.373 . S
C6597 C6581 1.377 . S
C6597 C6595 1.389 . S
C6597 C6598 1.524 . S
C6598 C6597 1.524 . S
C6598 C6599 1.397 . S
C6598 C6603 1.363 . S
C6599 H6570 0.950 . S
C6599 C6598 1.397 . S
C6599 C6600 1.334 . S
C6600 H6571 0.950 . S
C6600 C6599 1.334 . S
C6600 C6601 1.287 . S
C6601 C6600 1.287 . S
C6601 C6602 1.524 . S
C6601 H6604 0.999 . S
C6602 H6572 0.950 . S
C6602 C6601 1.524 . S
C6602 C6603 1.415 . S
C6603 H6573 0.950 . S
C6603 C6598 1.363 . S
C6603 C6602 1.415 . S
H6604 C6601 0.999 . S
H6605 C6586 0.913 . S
H6606 C6624 0.951 . S
H6607 C6626 0.951 . S
H6608 C6628 0.950 . S
H6609 C6629 0.950 . S
H6610 C6631 0.950 . S
H6611 C6634 0.950 . S
H6612 C6635 0.950 . S
H6613 C6637 0.950 . S
H6614 C6638 0.950 . S
H6615 C6639 0.951 . S
H6616 C6641 0.951 . S
H6617 C6643 0.950 . S
H6618 C6644 0.950 . S
H6619 C6646 0.950 . S
H6620 C6649 0.950 . S
H6621 C6650 0.950 . S
H6622 C6652 0.950 . S
H6623 C6653 0.950 . S
C6624 H6606 0.951 . S
C6624 C6625 1.366 . S
C6624 C6626 1.388 . S
C6625 C6624 1.366 . S
C6625 C6629 1.385 . S
C6626 H6607 0.951 . S
C6626 C6624 1.388 . S
C6626 C6627 1.366 . S
C6627 C6626 1.366 . S
C6627 C6628 1.414 . S
C6627 C6630 1.499 . S
C6628 H6608 0.950 . S
C6628 C6627 1.414 . S
C6628 C6629 1.374 . S
C6629 H6609 0.950 . S
C6629 C6625 1.385 . S
C6629 C6628 1.374 . S
C6630 C6627 1.499 . S
C6630 C6631 1.373 . S
C6630 C6632 1.389 . S
C6631 H6610 0.950 . S
C6631 C6630 1.373 . S
C6631 C6647 1.377 . S
C6632 C6630 1.389 . S
C6632 C6633 1.524 . S
C6632 C6646 1.377 . S
C6633 C6632 1.524 . S
C6633 C6634 1.397 . S
C6633 C6638 1.363 . S
C6634 H6611 0.950 . S
C6634 C6633 1.397 . S
C6634 C6635 1.334 . S
C6635 H6612 0.950 . S
C6635 C6634 1.334 . S
C6635 C6636 1.287 . S
C6636 C6635 1.287 . S
C6636 C6637 1.524 . S
C6636 H6655 0.913 . S
C6637 H6613 0.950 . S
C6637 C6636 1.524 . S
C6637 C6638 1.415 . S
C6638 H6614 0.950 . S
C6638 C6633 1.363 . S
C6638 C6637 1.415 . S
C6639 H6615 0.951 . S
C6639 C6640 1.366 . S
C6639 C6641 1.388 . S
C6640 C6639 1.366 . S
C6640 C6644 1.385 . S
C6641 H6616 0.951 . S
C6641 C6639 1.388 . S
C6641 C6642 1.366 . S
C6642 C6641 1.366 . S
C6642 C6643 1.414 . S
C6642 C6645 1.499 . S
C6643 H6617 0.950 . S
C6643 C6642 1.414 . S
C6643 C6644 1.374 . S
C6644 H6618 0.950 . S
C6644 C6640 1.385 . S
C6644 C6643 1.374 . S
C6645 C6642 1.499 . S
C6645 C6646 1.373 . S
C6645 C6647 1.389 . S
C6646 H6619 0.950 . S
C6646 C6632 1.377 . S
C6646 C6645 1.373 . S
C6647 C6631 1.377 . S
C6647 C6645 1.389 . S
C6647 C6648 1.524 . S
C6648 C6647 1.524 . S
C6648 C6649 1.397 . S
C6648 C6653 1.363 . S
C6649 H6620 0.950 . S
C6649 C6648 1.397 . S
C6649 C6650 1.334 . S
C6650 H6621 0.950 . S
C6650 C6649 1.334 . S
C6650 C6651 1.287 . S
C6651 C6650 1.287 . S
C6651 C6652 1.524 . S
C6651 H6654 0.999 . S
C6652 H6622 0.950 . S
C6652 C6651 1.524 . S
C6652 C6653 1.415 . S
C6653 H6623 0.950 . S
C6653 C6648 1.363 . S
C6653 C6652 1.415 . S
H6654 C6651 0.999 . S
H6655 C6636 0.913 . S
H6656 C6674 0.951 . S
H6657 C6676 0.951 . S
H6658 C6678 0.950 . S
H6659 C6679 0.950 . S
H6660 C6681 0.950 . S
H6661 C6684 0.950 . S
H6662 C6685 0.950 . S
H6663 C6687 0.950 . S
H6664 C6688 0.950 . S
H6665 C6689 0.951 . S
H6666 C6691 0.951 . S
H6667 C6693 0.950 . S
H6668 C6694 0.950 . S
H6669 C6696 0.950 . S
H6670 C6699 0.950 . S
H6671 C6700 0.950 . S
H6672 C6702 0.950 . S
H6673 C6703 0.950 . S
C6674 H6656 0.951 . S
C6674 C6675 1.366 . S
C6674 C6676 1.388 . S
C6675 C6674 1.366 . S
C6675 C6679 1.385 . S
C6676 H6657 0.951 . S
C6676 C6674 1.388 . S
C6676 C6677 1.366 . S
C6677 C6676 1.366 . S
C6677 C6678 1.414 . S
C6677 C6680 1.499 . S
C6678 H6658 0.950 . S
C6678 C6677 1.414 . S
C6678 C6679 1.374 . S
C6679 H6659 0.950 . S
C6679 C6675 1.385 . S
C6679 C6678 1.374 . S
C6680 C6677 1.499 . S
C6680 C6681 1.373 . S
C6680 C6682 1.389 . S
C6681 H6660 0.950 . S
C6681 C6680 1.373 . S
C6681 C6697 1.377 . S
C6682 C6680 1.389 . S
C6682 C6683 1.524 . S
C6682 C6696 1.377 . S
C6683 C6682 1.524 . S
C6683 C6684 1.397 . S
C6683 C6688 1.363 . S
C6684 H6661 0.950 . S
C6684 C6683 1.397 . S
C6684 C6685 1.334 . S
C6685 H6662 0.950 . S
C6685 C6684 1.334 . S
C6685 C6686 1.287 . S
C6686 C6685 1.287 . S
C6686 C6687 1.524 . S
C6686 H6705 0.913 . S
C6687 H6663 0.950 . S
C6687 C6686 1.524 . S
C6687 C6688 1.415 . S
C6688 H6664 0.950 . S
C6688 C6683 1.363 . S
C6688 C6687 1.415 . S
C6689 H6665 0.951 . S
C6689 C6690 1.366 . S
C6689 C6691 1.388 . S
C6690 C6689 1.366 . S
C6690 C6694 1.385 . S
C6691 H6666 0.951 . S
C6691 C6689 1.388 . S
C6691 C6692 1.366 . S
C6692 C6691 1.366 . S
C6692 C6693 1.414 . S
C6692 C6695 1.499 . S
C6693 H6667 0.950 . S
C6693 C6692 1.414 . S
C6693 C6694 1.374 . S
C6694 H6668 0.950 . S
C6694 C6690 1.385 . S
C6694 C6693 1.374 . S
C6695 C6692 1.499 . S
C6695 C6696 1.373 . S
C6695 C6697 1.389 . S
C6696 H6669 0.950 . S
C6696 C6682 1.377 . S
C6696 C6695 1.373 . S
C6697 C6681 1.377 . S
C6697 C6695 1.389 . S
C6697 C6698 1.524 . S
C6698 C6697 1.524 . S
C6698 C6699 1.397 . S
C6698 C6703 1.363 . S
C6699 H6670 0.950 . S
C6699 C6698 1.397 . S
C6699 C6700 1.334 . S
C6700 H6671 0.950 . S
C6700 C6699 1.334 . S
C6700 C6701 1.287 . S
C6701 C6700 1.287 . S
C6701 C6702 1.524 . S
C6701 H6704 0.999 . S
C6702 H6672 0.950 . S
C6702 C6701 1.524 . S
C6702 C6703 1.415 . S
C6703 H6673 0.950 . S
C6703 C6698 1.363 . S
C6703 C6702 1.415 . S
H6704 C6701 0.999 . S
H6705 C6686 0.913 . S
H6706 C6724 0.951 . S
H6707 C6726 0.951 . S
H6708 C6728 0.950 . S
H6709 C6729 0.950 . S
H6710 C6731 0.950 . S
H6711 C6734 0.950 . S
H6712 C6735 0.950 . S
H6713 C6737 0.950 . S
H6714 C6738 0.950 . S
H6715 C6739 0.951 . S
H6716 C6741 0.951 . S
H6717 C6743 0.950 . S
H6718 C6744 0.950 . S
H6719 C6746 0.950 . S
H6720 C6749 0.950 . S
H6721 C6750 0.950 . S
H6722 C6752 0.950 . S
H6723 C6753 0.950 . S
C6724 H6706 0.951 . S
C6724 C6725 1.366 . S
C6724 C6726 1.388 . S
C6725 C6724 1.366 . S
C6725 C6729 1.385 . S
C6726 H6707 0.951 . S
C6726 C6724 1.388 . S
C6726 C6727 1.366 . S
C6727 C6726 1.366 . S
C6727 C6728 1.414 . S
C6727 C6730 1.499 . S
C6728 H6708 0.950 . S
C6728 C6727 1.414 . S
C6728 C6729 1.374 . S
C6729 H6709 0.950 . S
C6729 C6725 1.385 . S
C6729 C6728 1.374 . S
C6730 C6727 1.499 . S
C6730 C6731 1.373 . S
C6730 C6732 1.389 . S
C6731 H6710 0.950 . S
C6731 C6730 1.373 . S
C6731 C6747 1.377 . S
C6732 C6730 1.389 . S
C6732 C6733 1.524 . S
C6732 C6746 1.377 . S
C6733 C6732 1.524 . S
C6733 C6734 1.397 . S
C6733 C6738 1.363 . S
C6734 H6711 0.950 . S
C6734 C6733 1.397 . S
C6734 C6735 1.334 . S
C6735 H6712 0.950 . S
C6735 C6734 1.334 . S
C6735 C6736 1.287 . S
C6736 C6735 1.287 . S
C6736 C6737 1.524 . S
C6736 H6755 0.913 . S
C6737 H6713 0.950 . S
C6737 C6736 1.524 . S
C6737 C6738 1.415 . S
C6738 H6714 0.950 . S
C6738 C6733 1.363 . S
C6738 C6737 1.415 . S
C6739 H6715 0.951 . S
C6739 C6740 1.366 . S
C6739 C6741 1.388 . S
C6740 C6739 1.366 . S
C6740 C6744 1.385 . S
C6741 H6716 0.951 . S
C6741 C6739 1.388 . S
C6741 C6742 1.366 . S
C6742 C6741 1.366 . S
C6742 C6743 1.414 . S
C6742 C6745 1.499 . S
C6743 H6717 0.950 . S
C6743 C6742 1.414 . S
C6743 C6744 1.374 . S
C6744 H6718 0.950 . S
C6744 C6740 1.385 . S
C6744 C6743 1.374 . S
C6745 C6742 1.499 . S
C6745 C6746 1.373 . S
C6745 C6747 1.389 . S
C6746 H6719 0.950 . S
C6746 C6732 1.377 . S
C6746 C6745 1.373 . S
C6747 C6731 1.377 . S
C6747 C6745 1.389 . S
C6747 C6748 1.524 . S
C6748 C6747 1.524 . S
C6748 C6749 1.397 . S
C6748 C6753 1.363 . S
C6749 H6720 0.950 . S
C6749 C6748 1.397 . S
C6749 C6750 1.334 . S
C6750 H6721 0.950 . S
C6750 C6749 1.334 . S
C6750 C6751 1.287 . S
C6751 C6750 1.287 . S
C6751 C6752 1.524 . S
C6751 H6754 0.999 . S
C6752 H6722 0.950 . S
C6752 C6751 1.524 . S
C6752 C6753 1.415 . S
C6753 H6723 0.950 . S
C6753 C6748 1.363 . S
C6753 C6752 1.415 . S
H6754 C6751 0.999 . S
H6755 C6736 0.913 . S
H6756 C6774 0.951 . S
H6757 C6776 0.951 . S
H6758 C6778 0.950 . S
H6759 C6779 0.950 . S
H6760 C6781 0.950 . S
H6761 C6784 0.950 . S
H6762 C6785 0.950 . S
H6763 C6787 0.950 . S
H6764 C6788 0.950 . S
H6765 C6789 0.951 . S
H6766 C6791 0.951 . S
H6767 C6793 0.950 . S
H6768 C6794 0.950 . S
H6769 C6796 0.950 . S
H6770 C6799 0.950 . S
H6771 C6800 0.950 . S
H6772 C6802 0.950 . S
H6773 C6803 0.950 . S
C6774 H6756 0.951 . S
C6774 C6775 1.366 . S
C6774 C6776 1.388 . S
C6775 C6774 1.366 . S
C6775 C6779 1.385 . S
C6776 H6757 0.951 . S
C6776 C6774 1.388 . S
C6776 C6777 1.366 . S
C6777 C6776 1.366 . S
C6777 C6778 1.414 . S
C6777 C6780 1.499 . S
C6778 H6758 0.950 . S
C6778 C6777 1.414 . S
C6778 C6779 1.374 . S
C6779 H6759 0.950 . S
C6779 C6775 1.385 . S
C6779 C6778 1.374 . S
C6780 C6777 1.499 . S
C6780 C6781 1.373 . S
C6780 C6782 1.389 . S
C6781 H6760 0.950 . S
C6781 C6780 1.373 . S
C6781 C6797 1.377 . S
C6782 C6780 1.389 . S
C6782 C6783 1.524 . S
C6782 C6796 1.377 . S
C6783 C6782 1.524 . S
C6783 C6784 1.397 . S
C6783 C6788 1.363 . S
C6784 H6761 0.950 . S
C6784 C6783 1.397 . S
C6784 C6785 1.334 . S
C6785 H6762 0.950 . S
C6785 C6784 1.334 . S
C6785 C6786 1.287 . S
C6786 C6785 1.287 . S
C6786 C6787 1.524 . S
C6786 H6805 0.913 . S
C6787 H6763 0.950 . S
C6787 C6786 1.524 . S
C6787 C6788 1.415 . S
C6788 H6764 0.950 . S
C6788 C6783 1.363 . S
C6788 C6787 1.415 . S
C6789 H6765 0.951 . S
C6789 C6790 1.366 . S
C6789 C6791 1.388 . S
C6790 C6789 1.366 . S
C6790 C6794 1.385 . S
C6791 H6766 0.951 . S
C6791 C6789 1.388 . S
C6791 C6792 1.366 . S
C6792 C6791 1.366 . S
C6792 C6793 1.414 . S
C6792 C6795 1.499 . S
C6793 H6767 0.950 . S
C6793 C6792 1.414 . S
C6793 C6794 1.374 . S
C6794 H6768 0.950 . S
C6794 C6790 1.385 . S
C6794 C6793 1.374 . S
C6795 C6792 1.499 . S
C6795 C6796 1.373 . S
C6795 C6797 1.389 . S
C6796 H6769 0.950 . S
C6796 C6782 1.377 . S
C6796 C6795 1.373 . S
C6797 C6781 1.377 . S
C6797 C6795 1.389 . S
C6797 C6798 1.524 . S
C6798 C6797 1.524 . S
C6798 C6799 1.397 . S
C6798 C6803 1.363 . S
C6799 H6770 0.950 . S
C6799 C6798 1.397 . S
C6799 C6800 1.334 . S
C6800 H6771 0.950 . S
C6800 C6799 1.334 . S
C6800 C6801 1.287 . S
C6801 C6800 1.287 . S
C6801 C6802 1.524 . S
C6801 H6804 0.999 . S
C6802 H6772 0.950 . S
C6802 C6801 1.524 . S
C6802 C6803 1.415 . S
C6803 H6773 0.950 . S
C6803 C6798 1.363 . S
C6803 C6802 1.415 . S
H6804 C6801 0.999 . S
H6805 C6786 0.913 . S
H6806 C6824 0.951 . S
H6807 C6826 0.951 . S
H6808 C6828 0.950 1_545 S
H6809 C6829 0.950 . S
H6810 C6831 0.945 . S
H6811 C6834 0.950 . S
H6812 C6835 0.950 . S
H6813 C6837 0.950 . S
H6814 C6838 0.950 . S
H6815 C6839 0.951 . S
H6816 C6841 0.951 . S
H6817 C6843 0.950 1_565 S
H6818 C6844 0.950 . S
H6819 C6846 0.950 . S
H6820 C6849 0.966 . S
H6821 C6850 0.937 1_565 S
H6822 C6852 0.950 . S
H6823 C6853 0.950 . S
C6824 H6806 0.951 . S
C6824 C6825 1.366 . S
C6824 C6826 1.388 . S
C6825 C6824 1.366 . S
C6825 C6829 1.385 . S
C6826 H6807 0.951 . S
C6826 C6824 1.388 . S
C6826 C6827 1.366 . S
C6827 C6826 1.366 . S
C6827 C6828 1.414 . S
C6827 C6830 1.499 . S
C6828 H6808 0.950 1_565 S
C6828 C6827 1.414 . S
C6828 C6829 1.374 . S
C6829 H6809 0.950 . S
C6829 C6825 1.385 . S
C6829 C6828 1.374 . S
C6830 C6827 1.499 . S
C6830 C6831 1.373 1_565 S
C6830 C6832 1.386 . S
C6831 H6810 0.945 . S
C6831 C6830 1.373 1_545 S
C6831 C6847 1.377 . S
C6832 C6830 1.386 . S
C6832 C6833 1.529 . S
C6832 C6846 1.375 1_565 S
C6833 C6832 1.529 . S
C6833 C6834 1.397 1_565 S
C6833 C6838 1.363 . S
C6834 H6811 0.950 . S
C6834 C6833 1.397 1_545 S
C6834 C6835 1.334 . S
C6835 H6812 0.950 . S
C6835 C6834 1.334 . S
C6835 C6836 1.287 1_545 S
C6836 C6835 1.287 1_565 S
C6836 C6837 1.524 . S
C6836 H6855 0.913 . S
C6837 H6813 0.950 . S
C6837 C6836 1.524 . S
C6837 C6838 1.415 . S
C6838 H6814 0.950 . S
C6838 C6833 1.363 . S
C6838 C6837 1.415 . S
C6839 H6815 0.951 . S
C6839 C6840 1.366 . S
C6839 C6841 1.388 . S
C6840 C6839 1.366 . S
C6840 C6844 1.385 . S
C6841 H6816 0.951 . S
C6841 C6839 1.388 . S
C6841 C6842 1.366 . S
C6842 C6841 1.366 . S
C6842 C6843 1.414 . S
C6842 C6845 1.499 . S
C6843 H6817 0.950 1_545 S
C6843 C6842 1.414 . S
C6843 C6844 1.374 . S
C6844 H6818 0.950 . S
C6844 C6840 1.385 . S
C6844 C6843 1.374 . S
C6845 C6842 1.499 . S
C6845 C6846 1.373 . S
C6845 C6847 1.389 . S
C6846 H6819 0.950 . S
C6846 C6832 1.375 1_545 S
C6846 C6845 1.373 . S
C6847 C6831 1.377 . S
C6847 C6845 1.389 . S
C6847 C6848 1.524 1_554 S
C6848 C6847 1.524 1_556 S
C6848 C6849 1.384 1_545 S
C6848 C6853 1.363 . S
C6849 H6820 0.966 . S
C6849 C6848 1.384 1_565 S
C6849 C6850 1.328 1_565 S
C6850 H6821 0.937 1_545 S
C6850 C6849 1.328 1_545 S
C6850 C6851 1.305 . S
C6851 C6850 1.305 . S
C6851 C6852 1.524 . S
C6851 H6854 0.999 . S
C6852 H6822 0.950 . S
C6852 C6851 1.524 . S
C6852 C6853 1.415 . S
C6853 H6823 0.950 . S
C6853 C6848 1.363 . S
C6853 C6852 1.415 . S
H6854 C6851 0.999 . S
H6855 C6836 0.913 . S
H6856 C6874 0.951 . S
H6857 C6876 0.951 . S
H6858 C6878 0.950 . S
H6859 C6879 0.950 . S
H6860 C6881 0.950 . S
H6861 C6884 0.950 . S
H6862 C6885 0.950 . S
H6863 C6887 0.950 . S
H6864 C6888 0.950 . S
H6865 C6889 0.951 . S
H6866 C6891 0.951 . S
H6867 C6893 0.950 . S
H6868 C6894 0.950 . S
H6869 C6896 0.950 . S
H6870 C6899 0.950 . S
H6871 C6900 0.950 . S
H6872 C6902 0.950 . S
H6873 C6903 0.950 . S
C6874 H6856 0.951 . S
C6874 C6875 1.366 . S
C6874 C6876 1.388 . S
C6875 C6874 1.366 . S
C6875 C6879 1.385 . S
C6876 H6857 0.951 . S
C6876 C6874 1.388 . S
C6876 C6877 1.366 . S
C6877 C6876 1.366 . S
C6877 C6878 1.414 . S
C6877 C6880 1.499 . S
C6878 H6858 0.950 . S
C6878 C6877 1.414 . S
C6878 C6879 1.374 . S
C6879 H6859 0.950 . S
C6879 C6875 1.385 . S
C6879 C6878 1.374 . S
C6880 C6877 1.499 . S
C6880 C6881 1.373 . S
C6880 C6882 1.389 . S
C6881 H6860 0.950 . S
C6881 C6880 1.373 . S
C6881 C6897 1.377 . S
C6882 C6880 1.389 . S
C6882 C6883 1.524 . S
C6882 C6896 1.377 . S
C6883 C6882 1.524 . S
C6883 C6884 1.397 . S
C6883 C6888 1.363 . S
C6884 H6861 0.950 . S
C6884 C6883 1.397 . S
C6884 C6885 1.334 . S
C6885 H6862 0.950 . S
C6885 C6884 1.334 . S
C6885 C6886 1.287 . S
C6886 C6885 1.287 . S
C6886 C6887 1.524 . S
C6886 H6905 0.913 . S
C6887 H6863 0.950 . S
C6887 C6886 1.524 . S
C6887 C6888 1.415 . S
C6888 H6864 0.950 . S
C6888 C6883 1.363 . S
C6888 C6887 1.415 . S
C6889 H6865 0.951 . S
C6889 C6890 1.366 . S
C6889 C6891 1.388 . S
C6890 C6889 1.366 . S
C6890 C6894 1.385 . S
C6891 H6866 0.951 . S
C6891 C6889 1.388 . S
C6891 C6892 1.366 . S
C6892 C6891 1.366 . S
C6892 C6893 1.414 . S
C6892 C6895 1.499 . S
C6893 H6867 0.950 . S
C6893 C6892 1.414 . S
C6893 C6894 1.374 . S
C6894 H6868 0.950 . S
C6894 C6890 1.385 . S
C6894 C6893 1.374 . S
C6895 C6892 1.499 . S
C6895 C6896 1.373 . S
C6895 C6897 1.389 . S
C6896 H6869 0.950 . S
C6896 C6882 1.377 . S
C6896 C6895 1.373 . S
C6897 C6881 1.377 . S
C6897 C6895 1.389 . S
C6897 C6898 1.524 . S
C6898 C6897 1.524 . S
C6898 C6899 1.397 . S
C6898 C6903 1.363 . S
C6899 H6870 0.950 . S
C6899 C6898 1.397 . S
C6899 C6900 1.334 . S
C6900 H6871 0.950 . S
C6900 C6899 1.334 . S
C6900 C6901 1.287 . S
C6901 C6900 1.287 . S
C6901 C6902 1.524 . S
C6901 H6904 0.999 . S
C6902 H6872 0.950 . S
C6902 C6901 1.524 . S
C6902 C6903 1.415 . S
C6903 H6873 0.950 . S
C6903 C6898 1.363 . S
C6903 C6902 1.415 . S
H6904 C6901 0.999 . S
H6905 C6886 0.913 . S
H6906 C6924 0.956 . S
H6907 C6926 0.951 . S
H6908 C6928 0.950 . S
H6909 C6929 0.950 . S
H6910 C6931 0.950 . S
H6911 C6934 0.950 . S
H6912 C6935 0.950 . S
H6913 C6937 0.950 . S
H6914 C6938 0.950 . S
H6915 C6939 0.951 . S
H6916 C6941 0.951 . S
H6917 C6943 0.950 . S
H6918 C6944 0.950 . S
H6919 C6946 0.950 . S
H6920 C6949 0.950 . S
H6921 C6950 0.950 . S
H6922 C6952 0.950 . S
H6923 C6953 0.950 . S
C6924 H6906 0.956 . S
C6924 C6925 1.348 1_554 S
C6924 C6926 1.403 . S
C6925 C6924 1.348 1_556 S
C6925 C6929 1.385 . S
C6926 H6907 0.951 . S
C6926 C6924 1.403 . S
C6926 C6927 1.366 . S
C6927 C6926 1.366 . S
C6927 C6928 1.414 . S
C6927 C6930 1.499 . S
C6928 H6908 0.950 . S
C6928 C6927 1.414 . S
C6928 C6929 1.374 1_554 S
C6929 H6909 0.950 . S
C6929 C6925 1.385 . S
C6929 C6928 1.374 1_556 S
C6930 C6927 1.499 . S
C6930 C6931 1.373 1_554 S
C6930 C6932 1.389 . S
C6931 H6910 0.950 . S
C6931 C6930 1.373 1_556 S
C6931 C6947 1.365 1_556 S
C6932 C6930 1.389 . S
C6932 C6933 1.524 . S
C6932 C6946 1.377 . S
C6933 C6932 1.524 . S
C6933 C6934 1.397 . S
C6933 C6938 1.363 . S
C6934 H6911 0.950 . S
C6934 C6933 1.397 . S
C6934 C6935 1.334 . S
C6935 H6912 0.950 . S
C6935 C6934 1.334 . S
C6935 C6936 1.287 . S
C6936 C6935 1.287 . S
C6936 C6937 1.524 . S
C6936 H6955 0.913 . S
C6937 H6913 0.950 . S
C6937 C6936 1.524 . S
C6937 C6938 1.415 . S
C6938 H6914 0.950 . S
C6938 C6933 1.363 . S
C6938 C6937 1.415 . S
C6939 H6915 0.951 . S
C6939 C6940 1.366 . S
C6939 C6941 1.388 . S
C6940 C6939 1.366 . S
C6940 C6944 1.385 . S
C6941 H6916 0.951 . S
C6941 C6939 1.388 . S
C6941 C6942 1.366 . S
C6942 C6941 1.366 . S
C6942 C6943 1.414 . S
C6942 C6945 1.499 . S
C6943 H6917 0.950 . S
C6943 C6942 1.414 . S
C6943 C6944 1.374 . S
C6944 H6918 0.950 . S
C6944 C6940 1.385 . S
C6944 C6943 1.374 . S
C6945 C6942 1.499 . S
C6945 C6946 1.373 . S
C6945 C6947 1.446 . S
C6946 H6919 0.950 . S
C6946 C6932 1.377 . S
C6946 C6945 1.373 . S
C6947 C6931 1.365 1_554 S
C6947 C6945 1.446 . S
C6947 C6948 1.477 1_554 S
C6948 C6947 1.477 1_556 S
C6948 C6949 1.397 . S
C6948 C6953 1.363 . S
C6949 H6920 0.950 . S
C6949 C6948 1.397 . S
C6949 C6950 1.334 . S
C6950 H6921 0.950 . S
C6950 C6949 1.334 . S
C6950 C6951 1.287 . S
C6951 C6950 1.287 . S
C6951 C6952 1.524 . S
C6951 H6954 0.999 . S
C6952 H6922 0.950 . S
C6952 C6951 1.524 . S
C6952 C6953 1.415 . S
C6953 H6923 0.950 . S
C6953 C6948 1.363 . S
C6953 C6952 1.415 . S
H6954 C6951 0.999 . S
H6955 C6936 0.913 . S
H6956 C6974 0.951 . S
H6957 C6976 0.951 . S
H6958 C6978 0.950 . S
H6959 C6979 0.950 . S
H6960 C6981 0.950 . S
H6961 C6984 0.950 . S
H6962 C6985 0.950 . S
H6963 C6987 0.950 . S
H6964 C6988 0.950 . S
H6965 C6989 0.951 . S
H6966 C6991 0.951 . S
H6967 C6993 0.950 . S
H6968 C6994 0.950 . S
H6969 C6996 0.950 . S
H6970 C6999 0.950 . S
H6971 C7000 0.950 . S
H6972 C7002 0.950 . S
H6973 C7003 0.950 . S
C6974 H6956 0.951 . S
C6974 C6975 1.366 . S
C6974 C6976 1.388 . S
C6975 C6974 1.366 . S
C6975 C6979 1.385 . S
C6976 H6957 0.951 . S
C6976 C6974 1.388 . S
C6976 C6977 1.366 . S
C6977 C6976 1.366 . S
C6977 C6978 1.414 . S
C6977 C6980 1.499 . S
C6978 H6958 0.950 . S
C6978 C6977 1.414 . S
C6978 C6979 1.374 . S
C6979 H6959 0.950 . S
C6979 C6975 1.385 . S
C6979 C6978 1.374 . S
C6980 C6977 1.499 . S
C6980 C6981 1.373 . S
C6980 C6982 1.389 . S
C6981 H6960 0.950 . S
C6981 C6980 1.373 . S
C6981 C6997 1.377 . S
C6982 C6980 1.389 . S
C6982 C6983 1.524 . S
C6982 C6996 1.377 . S
C6983 C6982 1.524 . S
C6983 C6984 1.397 . S
C6983 C6988 1.363 . S
C6984 H6961 0.950 . S
C6984 C6983 1.397 . S
C6984 C6985 1.334 . S
C6985 H6962 0.950 . S
C6985 C6984 1.334 . S
C6985 C6986 1.287 . S
C6986 C6985 1.287 . S
C6986 C6987 1.524 . S
C6986 H7005 0.913 . S
C6987 H6963 0.950 . S
C6987 C6986 1.524 . S
C6987 C6988 1.415 . S
C6988 H6964 0.950 . S
C6988 C6983 1.363 . S
C6988 C6987 1.415 . S
C6989 H6965 0.951 . S
C6989 C6990 1.366 . S
C6989 C6991 1.388 . S
C6990 C6989 1.366 . S
C6990 C6994 1.385 . S
C6991 H6966 0.951 . S
C6991 C6989 1.388 . S
C6991 C6992 1.366 . S
C6992 C6991 1.366 . S
C6992 C6993 1.414 . S
C6992 C6995 1.499 . S
C6993 H6967 0.950 . S
C6993 C6992 1.414 . S
C6993 C6994 1.374 . S
C6994 H6968 0.950 . S
C6994 C6990 1.385 . S
C6994 C6993 1.374 . S
C6995 C6992 1.499 . S
C6995 C6996 1.373 . S
C6995 C6997 1.389 . S
C6996 H6969 0.950 . S
C6996 C6982 1.377 . S
C6996 C6995 1.373 . S
C6997 C6981 1.377 . S
C6997 C6995 1.389 . S
C6997 C6998 1.524 . S
C6998 C6997 1.524 . S
C6998 C6999 1.397 . S
C6998 C7003 1.363 . S
C6999 H6970 0.950 . S
C6999 C6998 1.397 . S
C6999 C7000 1.334 . S
C7000 H6971 0.950 . S
C7000 C6999 1.334 . S
C7000 C7001 1.287 . S
C7001 C7000 1.287 . S
C7001 C7002 1.524 . S
C7001 H7004 0.999 . S
C7002 H6972 0.950 . S
C7002 C7001 1.524 . S
C7002 C7003 1.415 . S
C7003 H6973 0.950 . S
C7003 C6998 1.363 . S
C7003 C7002 1.415 . S
H7004 C7001 0.999 . S
H7005 C6986 0.913 . S
H7006 C7024 0.951 . S
H7007 C7026 0.951 . S
H7008 C7028 0.950 . S
H7009 C7029 0.950 . S
H7010 C7031 0.950 . S
H7011 C7034 0.950 . S
H7012 C7035 0.950 . S
H7013 C7037 0.950 . S
H7014 C7038 0.950 . S
H7015 C7039 0.951 . S
H7016 C7041 0.951 . S
H7017 C7043 0.950 . S
H7018 C7044 0.950 . S
H7019 C7046 0.950 . S
H7020 C7049 0.950 . S
H7021 C7050 0.950 . S
H7022 C7052 0.950 . S
H7023 C7053 0.950 . S
C7024 H7006 0.951 . S
C7024 C7025 1.366 . S
C7024 C7026 1.388 . S
C7025 C7024 1.366 . S
C7025 C7029 1.385 . S
C7026 H7007 0.951 . S
C7026 C7024 1.388 . S
C7026 C7027 1.366 . S
C7027 C7026 1.366 . S
C7027 C7028 1.414 . S
C7027 C7030 1.499 . S
C7028 H7008 0.950 . S
C7028 C7027 1.414 . S
C7028 C7029 1.374 . S
C7029 H7009 0.950 . S
C7029 C7025 1.385 . S
C7029 C7028 1.374 . S
C7030 C7027 1.499 . S
C7030 C7031 1.373 . S
C7030 C7032 1.389 . S
C7031 H7010 0.950 . S
C7031 C7030 1.373 . S
C7031 C7047 1.377 . S
C7032 C7030 1.389 . S
C7032 C7033 1.524 . S
C7032 C7046 1.377 . S
C7033 C7032 1.524 . S
C7033 C7034 1.397 . S
C7033 C7038 1.363 . S
C7034 H7011 0.950 . S
C7034 C7033 1.397 . S
C7034 C7035 1.334 . S
C7035 H7012 0.950 . S
C7035 C7034 1.334 . S
C7035 C7036 1.287 . S
C7036 C7035 1.287 . S
C7036 C7037 1.524 . S
C7036 H7055 0.913 . S
C7037 H7013 0.950 . S
C7037 C7036 1.524 . S
C7037 C7038 1.415 . S
C7038 H7014 0.950 . S
C7038 C7033 1.363 . S
C7038 C7037 1.415 . S
C7039 H7015 0.951 . S
C7039 C7040 1.366 . S
C7039 C7041 1.388 . S
C7040 C7039 1.366 . S
C7040 C7044 1.385 . S
C7041 H7016 0.951 . S
C7041 C7039 1.388 . S
C7041 C7042 1.366 . S
C7042 C7041 1.366 . S
C7042 C7043 1.414 . S
C7042 C7045 1.499 . S
C7043 H7017 0.950 . S
C7043 C7042 1.414 . S
C7043 C7044 1.374 . S
C7044 H7018 0.950 . S
C7044 C7040 1.385 . S
C7044 C7043 1.374 . S
C7045 C7042 1.499 . S
C7045 C7046 1.373 . S
C7045 C7047 1.389 . S
C7046 H7019 0.950 . S
C7046 C7032 1.377 . S
C7046 C7045 1.373 . S
C7047 C7031 1.377 . S
C7047 C7045 1.389 . S
C7047 C7048 1.524 . S
C7048 C7047 1.524 . S
C7048 C7049 1.397 . S
C7048 C7053 1.363 . S
C7049 H7020 0.950 . S
C7049 C7048 1.397 . S
C7049 C7050 1.334 . S
C7050 H7021 0.950 . S
C7050 C7049 1.334 . S
C7050 C7051 1.287 . S
C7051 C7050 1.287 . S
C7051 C7052 1.524 . S
C7051 H7054 0.999 . S
C7052 H7022 0.950 . S
C7052 C7051 1.524 . S
C7052 C7053 1.415 . S
C7053 H7023 0.950 . S
C7053 C7048 1.363 . S
C7053 C7052 1.415 . S
H7054 C7051 0.999 . S
H7055 C7036 0.913 . S
H7056 C7074 0.951 . S
H7057 C7076 0.951 . S
H7058 C7078 0.950 . S
H7059 C7079 0.950 . S
H7060 C7081 0.950 . S
H7061 C7084 0.950 . S
H7062 C7085 0.950 . S
H7063 C7087 0.950 . S
H7064 C7088 0.950 . S
H7065 C7089 0.951 . S
H7066 C7091 0.951 . S
H7067 C7093 0.950 . S
H7068 C7094 0.950 . S
H7069 C7096 0.950 . S
H7070 C7099 0.950 . S
H7071 C7100 0.950 . S
H7072 C7102 0.950 . S
H7073 C7103 0.950 . S
C7074 H7056 0.951 . S
C7074 C7075 1.366 . S
C7074 C7076 1.388 . S
C7075 C7074 1.366 . S
C7075 C7079 1.385 . S
C7076 H7057 0.951 . S
C7076 C7074 1.388 . S
C7076 C7077 1.366 . S
C7077 C7076 1.366 . S
C7077 C7078 1.414 . S
C7077 C7080 1.499 . S
C7078 H7058 0.950 . S
C7078 C7077 1.414 . S
C7078 C7079 1.374 . S
C7079 H7059 0.950 . S
C7079 C7075 1.385 . S
C7079 C7078 1.374 . S
C7080 C7077 1.499 . S
C7080 C7081 1.373 . S
C7080 C7082 1.389 . S
C7081 H7060 0.950 . S
C7081 C7080 1.373 . S
C7081 C7097 1.377 . S
C7082 C7080 1.389 . S
C7082 C7083 1.524 . S
C7082 C7096 1.377 . S
C7083 C7082 1.524 . S
C7083 C7084 1.397 . S
C7083 C7088 1.363 . S
C7084 H7061 0.950 . S
C7084 C7083 1.397 . S
C7084 C7085 1.334 . S
C7085 H7062 0.950 . S
C7085 C7084 1.334 . S
C7085 C7086 1.287 . S
C7086 C7085 1.287 . S
C7086 C7087 1.524 . S
C7086 H7105 0.913 . S
C7087 H7063 0.950 . S
C7087 C7086 1.524 . S
C7087 C7088 1.415 . S
C7088 H7064 0.950 . S
C7088 C7083 1.363 . S
C7088 C7087 1.415 . S
C7089 H7065 0.951 . S
C7089 C7090 1.366 . S
C7089 C7091 1.388 . S
C7090 C7089 1.366 . S
C7090 C7094 1.385 . S
C7091 H7066 0.951 . S
C7091 C7089 1.388 . S
C7091 C7092 1.366 . S
C7092 C7091 1.366 . S
C7092 C7093 1.414 . S
C7092 C7095 1.499 . S
C7093 H7067 0.950 . S
C7093 C7092 1.414 . S
C7093 C7094 1.374 . S
C7094 H7068 0.950 . S
C7094 C7090 1.385 . S
C7094 C7093 1.374 . S
C7095 C7092 1.499 . S
C7095 C7096 1.373 . S
C7095 C7097 1.389 . S
C7096 H7069 0.950 . S
C7096 C7082 1.377 . S
C7096 C7095 1.373 . S
C7097 C7081 1.377 . S
C7097 C7095 1.389 . S
C7097 C7098 1.524 . S
C7098 C7097 1.524 . S
C7098 C7099 1.397 . S
C7098 C7103 1.363 . S
C7099 H7070 0.950 . S
C7099 C7098 1.397 . S
C7099 C7100 1.334 . S
C7100 H7071 0.950 . S
C7100 C7099 1.334 . S
C7100 C7101 1.287 . S
C7101 C7100 1.287 . S
C7101 C7102 1.524 . S
C7101 H7104 0.999 . S
C7102 H7072 0.950 . S
C7102 C7101 1.524 . S
C7102 C7103 1.415 . S
C7103 H7073 0.950 . S
C7103 C7098 1.363 . S
C7103 C7102 1.415 . S
H7104 C7101 0.999 . S
H7105 C7086 0.913 . S
H7106 C7124 0.951 . S
H7107 C7126 0.951 . S
H7108 C7128 0.950 . S
H7109 C7129 0.950 . S
H7110 C7131 0.950 . S
H7111 C7134 0.950 . S
H7112 C7135 0.950 . S
H7113 C7137 0.950 . S
H7114 C7138 0.950 . S
H7115 C7139 0.951 . S
H7116 C7141 0.951 . S
H7117 C7143 0.950 . S
H7118 C7144 0.950 . S
H7119 C7146 0.950 . S
H7120 C7149 0.950 . S
H7121 C7150 0.950 . S
H7122 C7152 0.950 . S
H7123 C7153 0.950 . S
C7124 H7106 0.951 . S
C7124 C7125 1.366 . S
C7124 C7126 1.388 . S
C7125 C7124 1.366 . S
C7125 C7129 1.385 . S
C7126 H7107 0.951 . S
C7126 C7124 1.388 . S
C7126 C7127 1.366 . S
C7127 C7126 1.366 . S
C7127 C7128 1.414 . S
C7127 C7130 1.499 . S
C7128 H7108 0.950 . S
C7128 C7127 1.414 . S
C7128 C7129 1.374 . S
C7129 H7109 0.950 . S
C7129 C7125 1.385 . S
C7129 C7128 1.374 . S
C7130 C7127 1.499 . S
C7130 C7131 1.373 . S
C7130 C7132 1.389 . S
C7131 H7110 0.950 . S
C7131 C7130 1.373 . S
C7131 C7147 1.377 . S
C7132 C7130 1.389 . S
C7132 C7133 1.524 . S
C7132 C7146 1.377 . S
C7133 C7132 1.524 . S
C7133 C7134 1.397 . S
C7133 C7138 1.363 . S
C7134 H7111 0.950 . S
C7134 C7133 1.397 . S
C7134 C7135 1.334 . S
C7135 H7112 0.950 . S
C7135 C7134 1.334 . S
C7135 C7136 1.287 . S
C7136 C7135 1.287 . S
C7136 C7137 1.524 . S
C7136 H7155 0.913 . S
C7137 H7113 0.950 . S
C7137 C7136 1.524 . S
C7137 C7138 1.415 . S
C7138 H7114 0.950 . S
C7138 C7133 1.363 . S
C7138 C7137 1.415 . S
C7139 H7115 0.951 . S
C7139 C7140 1.366 . S
C7139 C7141 1.388 . S
C7140 C7139 1.366 . S
C7140 C7144 1.385 . S
C7141 H7116 0.951 . S
C7141 C7139 1.388 . S
C7141 C7142 1.366 . S
C7142 C7141 1.366 . S
C7142 C7143 1.414 . S
C7142 C7145 1.499 . S
C7143 H7117 0.950 . S
C7143 C7142 1.414 . S
C7143 C7144 1.374 . S
C7144 H7118 0.950 . S
C7144 C7140 1.385 . S
C7144 C7143 1.374 . S
C7145 C7142 1.499 . S
C7145 C7146 1.373 . S
C7145 C7147 1.389 . S
C7146 H7119 0.950 . S
C7146 C7132 1.377 . S
C7146 C7145 1.373 . S
C7147 C7131 1.377 . S
C7147 C7145 1.389 . S
C7147 C7148 1.524 . S
C7148 C7147 1.524 . S
C7148 C7149 1.397 . S
C7148 C7153 1.363 . S
C7149 H7120 0.950 . S
C7149 C7148 1.397 . S
C7149 C7150 1.334 . S
C7150 H7121 0.950 . S
C7150 C7149 1.334 . S
C7150 C7151 1.287 . S
C7151 C7150 1.287 . S
C7151 C7152 1.524 . S
C7151 H7154 0.999 . S
C7152 H7122 0.950 . S
C7152 C7151 1.524 . S
C7152 C7153 1.415 . S
C7153 H7123 0.950 . S
C7153 C7148 1.363 . S
C7153 C7152 1.415 . S
H7154 C7151 0.999 . S
H7155 C7136 0.913 . S
H7156 C7174 0.951 . S
H7157 C7176 0.951 . S
H7158 C7178 0.950 . S
H7159 C7179 0.950 . S
H7160 C7181 0.950 . S
H7161 C7184 0.950 . S
H7162 C7185 0.950 . S
H7163 C7187 0.950 . S
H7164 C7188 0.950 . S
H7165 C7189 0.951 . S
H7166 C7191 0.951 . S
H7167 C7193 0.950 . S
H7168 C7194 0.950 . S
H7169 C7196 0.950 . S
H7170 C7199 0.950 . S
H7171 C7200 0.950 1_655 S
H7172 C7202 0.950 1_556 S
H7173 C7203 0.950 . S
C7174 H7156 0.951 . S
C7174 C7175 1.366 . S
C7174 C7176 1.388 . S
C7175 C7174 1.366 . S
C7175 C7179 1.385 . S
C7176 H7157 0.951 . S
C7176 C7174 1.388 . S
C7176 C7177 1.366 . S
C7177 C7176 1.366 . S
C7177 C7178 1.414 . S
C7177 C7180 1.499 . S
C7178 H7158 0.950 . S
C7178 C7177 1.414 . S
C7178 C7179 1.374 . S
C7179 H7159 0.950 . S
C7179 C7175 1.385 . S
C7179 C7178 1.374 . S
C7180 C7177 1.499 . S
C7180 C7181 1.373 . S
C7180 C7182 1.389 . S
C7181 H7160 0.950 . S
C7181 C7180 1.373 . S
C7181 C7197 1.377 . S
C7182 C7180 1.389 . S
C7182 C7183 1.524 . S
C7182 C7196 1.377 . S
C7183 C7182 1.524 . S
C7183 C7184 1.397 . S
C7183 C7188 1.363 . S
C7184 H7161 0.950 . S
C7184 C7183 1.397 . S
C7184 C7185 1.334 . S
C7185 H7162 0.950 . S
C7185 C7184 1.334 . S
C7185 C7186 1.287 . S
C7186 C7185 1.287 . S
C7186 C7187 1.524 . S
C7186 H7205 0.913 . S
C7187 H7163 0.950 . S
C7187 C7186 1.524 . S
C7187 C7188 1.415 . S
C7188 H7164 0.950 . S
C7188 C7183 1.363 . S
C7188 C7187 1.415 . S
C7189 H7165 0.951 . S
C7189 C7190 1.366 . S
C7189 C7191 1.388 . S
C7190 C7189 1.366 . S
C7190 C7194 1.385 . S
C7191 H7166 0.951 . S
C7191 C7189 1.388 . S
C7191 C7192 1.366 . S
C7192 C7191 1.366 . S
C7192 C7193 1.414 . S
C7192 C7195 1.499 . S
C7193 H7167 0.950 . S
C7193 C7192 1.414 . S
C7193 C7194 1.374 . S
C7194 H7168 0.950 . S
C7194 C7190 1.385 . S
C7194 C7193 1.374 . S
C7195 C7192 1.499 . S
C7195 C7196 1.373 . S
C7195 C7197 1.389 . S
C7196 H7169 0.950 . S
C7196 C7182 1.377 . S
C7196 C7195 1.373 . S
C7197 C7181 1.377 . S
C7197 C7195 1.389 . S
C7197 C7198 1.524 . S
C7198 C7197 1.524 . S
C7198 C7199 1.397 . S
C7198 C7203 1.363 . S
C7199 H7170 0.950 . S
C7199 C7198 1.397 . S
C7199 C7200 1.334 . S
C7200 H7171 0.950 1_455 S
C7200 C7199 1.334 . S
C7200 C7201 1.287 1_455 S
C7201 C7200 1.287 1_655 S
C7201 C7202 1.524 . S
C7201 H7204 0.999 . S
C7202 H7172 0.950 1_554 S
C7202 C7201 1.524 . S
C7202 C7203 1.414 1_655 S
C7203 H7173 0.950 . S
C7203 C7198 1.363 . S
C7203 C7202 1.414 1_455 S
H7204 C7201 0.999 . S
H7205 C7186 0.913 . S
H7206 C7224 0.951 . S
H7207 C7226 0.951 . S
H7208 C7228 0.950 . S
H7209 C7229 0.950 . S
H7210 C7231 0.950 . S
H7211 C7234 0.950 . S
H7212 C7235 0.950 . S
H7213 C7237 0.950 . S
H7214 C7238 0.950 . S
H7215 C7239 0.951 . S
H7216 C7241 0.951 . S
H7217 C7243 0.950 . S
H7218 C7244 0.950 . S
H7219 C7246 0.950 . S
H7220 C7249 0.950 . S
H7221 C7250 0.950 . S
H7222 C7252 0.950 . S
H7223 C7253 0.950 . S
C7224 H7206 0.951 . S
C7224 C7225 1.366 . S
C7224 C7226 1.388 . S
C7225 C7224 1.366 . S
C7225 C7229 1.385 . S
C7226 H7207 0.951 . S
C7226 C7224 1.388 . S
C7226 C7227 1.366 . S
C7227 C7226 1.366 . S
C7227 C7228 1.414 . S
C7227 C7230 1.499 . S
C7228 H7208 0.950 . S
C7228 C7227 1.414 . S
C7228 C7229 1.374 . S
C7229 H7209 0.950 . S
C7229 C7225 1.385 . S
C7229 C7228 1.374 . S
C7230 C7227 1.499 . S
C7230 C7231 1.373 . S
C7230 C7232 1.389 . S
C7231 H7210 0.950 . S
C7231 C7230 1.373 . S
C7231 C7247 1.377 . S
C7232 C7230 1.389 . S
C7232 C7233 1.524 . S
C7232 C7246 1.377 . S
C7233 C7232 1.524 . S
C7233 C7234 1.397 . S
C7233 C7238 1.363 . S
C7234 H7211 0.950 . S
C7234 C7233 1.397 . S
C7234 C7235 1.334 . S
C7235 H7212 0.950 . S
C7235 C7234 1.334 . S
C7235 C7236 1.287 . S
C7236 C7235 1.287 . S
C7236 C7237 1.524 . S
C7236 H7255 0.913 . S
C7237 H7213 0.950 . S
C7237 C7236 1.524 . S
C7237 C7238 1.415 . S
C7238 H7214 0.950 . S
C7238 C7233 1.363 . S
C7238 C7237 1.415 . S
C7239 H7215 0.951 . S
C7239 C7240 1.366 . S
C7239 C7241 1.388 . S
C7240 C7239 1.366 . S
C7240 C7244 1.385 . S
C7241 H7216 0.951 . S
C7241 C7239 1.388 . S
C7241 C7242 1.366 . S
C7242 C7241 1.366 . S
C7242 C7243 1.414 . S
C7242 C7245 1.499 . S
C7243 H7217 0.950 . S
C7243 C7242 1.414 . S
C7243 C7244 1.374 . S
C7244 H7218 0.950 . S
C7244 C7240 1.385 . S
C7244 C7243 1.374 . S
C7245 C7242 1.499 . S
C7245 C7246 1.373 . S
C7245 C7247 1.389 . S
C7246 H7219 0.950 . S
C7246 C7232 1.377 . S
C7246 C7245 1.373 . S
C7247 C7231 1.377 . S
C7247 C7245 1.389 . S
C7247 C7248 1.524 . S
C7248 C7247 1.524 . S
C7248 C7249 1.397 . S
C7248 C7253 1.363 . S
C7249 H7220 0.950 . S
C7249 C7248 1.397 . S
C7249 C7250 1.334 . S
C7250 H7221 0.950 . S
C7250 C7249 1.334 . S
C7250 C7251 1.287 . S
C7251 C7250 1.287 . S
C7251 C7252 1.524 . S
C7251 H7254 0.999 . S
C7252 H7222 0.950 . S
C7252 C7251 1.524 . S
C7252 C7253 1.415 . S
C7253 H7223 0.950 . S
C7253 C7248 1.363 . S
C7253 C7252 1.415 . S
H7254 C7251 0.999 . S
H7255 C7236 0.913 . S
H7256 C7274 0.951 . S
H7257 C7276 0.951 . S
H7258 C7278 0.950 . S
H7259 C7279 0.950 . S
H7260 C7281 0.950 . S
H7261 C7284 0.950 . S
H7262 C7285 0.950 . S
H7263 C7287 0.950 . S
H7264 C7288 0.950 . S
H7265 C7289 0.951 . S
H7266 C7291 0.951 . S
H7267 C7293 0.950 . S
H7268 C7294 0.950 . S
H7269 C7296 0.950 . S
H7270 C7299 0.961 . S
H7271 C7300 0.950 . S
H7272 C7302 0.950 . S
H7273 C7303 0.950 . S
C7274 H7256 0.951 . S
C7274 C7275 1.366 . S
C7274 C7276 1.388 . S
C7275 C7274 1.366 . S
C7275 C7279 1.385 . S
C7276 H7257 0.951 . S
C7276 C7274 1.388 . S
C7276 C7277 1.366 . S
C7277 C7276 1.366 . S
C7277 C7278 1.414 . S
C7277 C7280 1.499 . S
C7278 H7258 0.950 . S
C7278 C7277 1.414 . S
C7278 C7279 1.374 . S
C7279 H7259 0.950 . S
C7279 C7275 1.385 . S
C7279 C7278 1.374 . S
C7280 C7277 1.499 . S
C7280 C7281 1.373 . S
C7280 C7282 1.389 . S
C7281 H7260 0.950 . S
C7281 C7280 1.373 . S
C7281 C7297 1.377 . S
C7282 C7280 1.389 . S
C7282 C7283 1.524 . S
C7282 C7296 1.377 . S
C7283 C7282 1.524 . S
C7283 C7284 1.397 . S
C7283 C7288 1.363 . S
C7284 H7261 0.950 . S
C7284 C7283 1.397 . S
C7284 C7285 1.334 . S
C7285 H7262 0.950 . S
C7285 C7284 1.334 . S
C7285 C7286 1.287 . S
C7286 C7285 1.287 . S
C7286 C7287 1.524 . S
C7286 H7305 0.913 . S
C7287 H7263 0.950 . S
C7287 C7286 1.524 . S
C7287 C7288 1.415 . S
C7288 H7264 0.950 . S
C7288 C7283 1.363 . S
C7288 C7287 1.415 . S
C7289 H7265 0.951 . S
C7289 C7290 1.366 . S
C7289 C7291 1.388 . S
C7290 C7289 1.366 . S
C7290 C7294 1.385 . S
C7291 H7266 0.951 . S
C7291 C7289 1.388 . S
C7291 C7292 1.366 . S
C7292 C7291 1.366 . S
C7292 C7293 1.414 . S
C7292 C7295 1.499 . S
C7293 H7267 0.950 . S
C7293 C7292 1.414 . S
C7293 C7294 1.374 . S
C7294 H7268 0.950 . S
C7294 C7290 1.385 . S
C7294 C7293 1.374 . S
C7295 C7292 1.499 . S
C7295 C7296 1.373 . S
C7295 C7297 1.389 . S
C7296 H7269 0.950 . S
C7296 C7282 1.377 . S
C7296 C7295 1.373 . S
C7297 C7281 1.377 . S
C7297 C7295 1.389 . S
C7297 C7298 1.524 . S
C7298 C7297 1.524 . S
C7298 C7299 1.341 1_556 S
C7298 C7303 1.363 . S
C7299 H7270 0.961 . S
C7299 C7298 1.341 1_554 S
C7299 C7300 1.381 . S
C7300 H7271 0.950 . S
C7300 C7299 1.381 . S
C7300 C7301 1.287 . S
C7301 C7300 1.287 . S
C7301 C7302 1.524 1_554 S
C7301 H7304 0.999 . S
C7302 H7272 0.950 . S
C7302 C7301 1.524 1_556 S
C7302 C7303 1.415 . S
C7303 H7273 0.950 . S
C7303 C7298 1.363 . S
C7303 C7302 1.415 . S
H7304 C7301 0.999 . S
H7305 C7286 0.913 . S
H7306 C7324 0.951 . S
H7307 C7326 0.951 . S
H7308 C7328 0.950 . S
H7309 C7329 0.950 . S
H7310 C7331 0.950 . S
H7311 C7334 0.950 . S
H7312 C7335 0.950 . S
H7313 C7337 0.950 . S
H7314 C7338 0.950 . S
H7315 C7339 0.951 . S
H7316 C7341 0.951 . S
H7317 C7343 0.950 . S
H7318 C7344 0.950 . S
H7319 C7346 0.950 . S
H7320 C7349 0.950 . S
H7321 C7350 0.950 . S
H7322 C7352 0.950 . S
H7323 C7353 0.950 . S
C7324 H7306 0.951 . S
C7324 C7325 1.366 . S
C7324 C7326 1.388 . S
C7325 C7324 1.366 . S
C7325 C7329 1.385 . S
C7326 H7307 0.951 . S
C7326 C7324 1.388 . S
C7326 C7327 1.366 . S
C7327 C7326 1.366 . S
C7327 C7328 1.414 . S
C7327 C7330 1.499 . S
C7328 H7308 0.950 . S
C7328 C7327 1.414 . S
C7328 C7329 1.374 . S
C7329 H7309 0.950 . S
C7329 C7325 1.385 . S
C7329 C7328 1.374 . S
C7330 C7327 1.499 . S
C7330 C7331 1.373 . S
C7330 C7332 1.389 . S
C7331 H7310 0.950 . S
C7331 C7330 1.373 . S
C7331 C7347 1.377 . S
C7332 C7330 1.389 . S
C7332 C7333 1.524 . S
C7332 C7346 1.377 . S
C7333 C7332 1.524 . S
C7333 C7334 1.397 . S
C7333 C7338 1.363 . S
C7334 H7311 0.950 . S
C7334 C7333 1.397 . S
C7334 C7335 1.334 . S
C7335 H7312 0.950 . S
C7335 C7334 1.334 . S
C7335 C7336 1.287 . S
C7336 C7335 1.287 . S
C7336 C7337 1.524 . S
C7336 H7355 0.913 . S
C7337 H7313 0.950 . S
C7337 C7336 1.524 . S
C7337 C7338 1.415 . S
C7338 H7314 0.950 . S
C7338 C7333 1.363 . S
C7338 C7337 1.415 . S
C7339 H7315 0.951 . S
C7339 C7340 1.366 . S
C7339 C7341 1.388 . S
C7340 C7339 1.366 . S
C7340 C7344 1.385 . S
C7341 H7316 0.951 . S
C7341 C7339 1.388 . S
C7341 C7342 1.366 . S
C7342 C7341 1.366 . S
C7342 C7343 1.414 . S
C7342 C7345 1.499 . S
C7343 H7317 0.950 . S
C7343 C7342 1.414 . S
C7343 C7344 1.374 . S
C7344 H7318 0.950 . S
C7344 C7340 1.385 . S
C7344 C7343 1.374 . S
C7345 C7342 1.499 . S
C7345 C7346 1.373 . S
C7345 C7347 1.389 . S
C7346 H7319 0.950 . S
C7346 C7332 1.377 . S
C7346 C7345 1.373 . S
C7347 C7331 1.377 . S
C7347 C7345 1.389 . S
C7347 C7348 1.524 . S
C7348 C7347 1.524 . S
C7348 C7349 1.397 . S
C7348 C7353 1.363 . S
C7349 H7320 0.950 . S
C7349 C7348 1.397 . S
C7349 C7350 1.334 . S
C7350 H7321 0.950 . S
C7350 C7349 1.334 . S
C7350 C7351 1.287 . S
C7351 C7350 1.287 . S
C7351 C7352 1.524 . S
C7351 H7354 0.999 . S
C7352 H7322 0.950 . S
C7352 C7351 1.524 . S
C7352 C7353 1.415 . S
C7353 H7323 0.950 . S
C7353 C7348 1.363 . S
C7353 C7352 1.415 . S
H7354 C7351 0.999 . S
H7355 C7336 0.913 . S
H7356 C7374 0.951 . S
H7357 C7376 0.951 . S
H7358 C7378 0.950 . S
H7359 C7379 0.950 . S
H7360 C7381 0.950 . S
H7361 C7384 0.950 . S
H7362 C7385 0.950 . S
H7363 C7387 0.950 . S
H7364 C7388 0.950 . S
H7365 C7389 0.951 . S
H7366 C7391 0.951 . S
H7367 C7393 0.950 . S
H7368 C7394 0.950 . S
H7369 C7396 0.950 . S
H7370 C7399 0.950 . S
H7371 C7400 0.950 . S
H7372 C7402 0.950 . S
H7373 C7403 0.950 . S
C7374 H7356 0.951 . S
C7374 C7375 1.366 . S
C7374 C7376 1.388 . S
C7375 C7374 1.366 . S
C7375 C7379 1.385 . S
C7376 H7357 0.951 . S
C7376 C7374 1.388 . S
C7376 C7377 1.366 . S
C7377 C7376 1.366 . S
C7377 C7378 1.414 . S
C7377 C7380 1.499 . S
C7378 H7358 0.950 . S
C7378 C7377 1.414 . S
C7378 C7379 1.374 . S
C7379 H7359 0.950 . S
C7379 C7375 1.385 . S
C7379 C7378 1.374 . S
C7380 C7377 1.499 . S
C7380 C7381 1.373 . S
C7380 C7382 1.389 . S
C7381 H7360 0.950 . S
C7381 C7380 1.373 . S
C7381 C7397 1.377 . S
C7382 C7380 1.389 . S
C7382 C7383 1.524 . S
C7382 C7396 1.377 . S
C7383 C7382 1.524 . S
C7383 C7384 1.397 . S
C7383 C7388 1.363 . S
C7384 H7361 0.950 . S
C7384 C7383 1.397 . S
C7384 C7385 1.334 . S
C7385 H7362 0.950 . S
C7385 C7384 1.334 . S
C7385 C7386 1.287 . S
C7386 C7385 1.287 . S
C7386 C7387 1.524 . S
C7386 H7405 0.913 . S
C7387 H7363 0.950 . S
C7387 C7386 1.524 . S
C7387 C7388 1.415 . S
C7388 H7364 0.950 . S
C7388 C7383 1.363 . S
C7388 C7387 1.415 . S
C7389 H7365 0.951 . S
C7389 C7390 1.366 . S
C7389 C7391 1.388 . S
C7390 C7389 1.366 . S
C7390 C7394 1.385 . S
C7391 H7366 0.951 . S
C7391 C7389 1.388 . S
C7391 C7392 1.366 . S
C7392 C7391 1.366 . S
C7392 C7393 1.414 . S
C7392 C7395 1.499 . S
C7393 H7367 0.950 . S
C7393 C7392 1.414 . S
C7393 C7394 1.374 . S
C7394 H7368 0.950 . S
C7394 C7390 1.385 . S
C7394 C7393 1.374 . S
C7395 C7392 1.499 . S
C7395 C7396 1.373 . S
C7395 C7397 1.389 . S
C7396 H7369 0.950 . S
C7396 C7382 1.377 . S
C7396 C7395 1.373 . S
C7397 C7381 1.377 . S
C7397 C7395 1.389 . S
C7397 C7398 1.524 . S
C7398 C7397 1.524 . S
C7398 C7399 1.397 . S
C7398 C7403 1.363 . S
C7399 H7370 0.950 . S
C7399 C7398 1.397 . S
C7399 C7400 1.334 . S
C7400 H7371 0.950 . S
C7400 C7399 1.334 . S
C7400 C7401 1.287 . S
C7401 C7400 1.287 . S
C7401 C7402 1.524 . S
C7401 H7404 0.999 . S
C7402 H7372 0.950 . S
C7402 C7401 1.524 . S
C7402 C7403 1.415 . S
C7403 H7373 0.950 . S
C7403 C7398 1.363 . S
C7403 C7402 1.415 . S
H7404 C7401 0.999 . S
H7405 C7386 0.913 . S
H7406 C7424 0.951 . S
H7407 C7426 0.951 . S
H7408 C7428 0.950 . S
H7409 C7429 0.950 . S
H7410 C7431 0.950 . S
H7411 C7434 0.950 . S
H7412 C7435 0.950 . S
H7413 C7437 0.950 . S
H7414 C7438 0.950 . S
H7415 C7439 0.951 . S
H7416 C7441 0.951 . S
H7417 C7443 0.950 . S
H7418 C7444 0.950 . S
H7419 C7446 0.950 . S
H7420 C7449 0.950 . S
H7421 C7450 0.950 . S
H7422 C7452 0.950 . S
H7423 C7453 0.950 . S
C7424 H7406 0.951 . S
C7424 C7425 1.366 . S
C7424 C7426 1.388 . S
C7425 C7424 1.366 . S
C7425 C7429 1.385 . S
C7426 H7407 0.951 . S
C7426 C7424 1.388 . S
C7426 C7427 1.366 . S
C7427 C7426 1.366 . S
C7427 C7428 1.414 . S
C7427 C7430 1.499 . S
C7428 H7408 0.950 . S
C7428 C7427 1.414 . S
C7428 C7429 1.374 . S
C7429 H7409 0.950 . S
C7429 C7425 1.385 . S
C7429 C7428 1.374 . S
C7430 C7427 1.499 . S
C7430 C7431 1.373 . S
C7430 C7432 1.389 . S
C7431 H7410 0.950 . S
C7431 C7430 1.373 . S
C7431 C7447 1.377 . S
C7432 C7430 1.389 . S
C7432 C7433 1.524 . S
C7432 C7446 1.377 . S
C7433 C7432 1.524 . S
C7433 C7434 1.397 . S
C7433 C7438 1.363 . S
C7434 H7411 0.950 . S
C7434 C7433 1.397 . S
C7434 C7435 1.334 . S
C7435 H7412 0.950 . S
C7435 C7434 1.334 . S
C7435 C7436 1.287 . S
C7436 C7435 1.287 . S
C7436 C7437 1.524 . S
C7436 H7455 0.913 . S
C7437 H7413 0.950 . S
C7437 C7436 1.524 . S
C7437 C7438 1.415 . S
C7438 H7414 0.950 . S
C7438 C7433 1.363 . S
C7438 C7437 1.415 . S
C7439 H7415 0.951 . S
C7439 C7440 1.366 . S
C7439 C7441 1.388 . S
C7440 C7439 1.366 . S
C7440 C7444 1.385 . S
C7441 H7416 0.951 . S
C7441 C7439 1.388 . S
C7441 C7442 1.366 . S
C7442 C7441 1.366 . S
C7442 C7443 1.414 . S
C7442 C7445 1.499 . S
C7443 H7417 0.950 . S
C7443 C7442 1.414 . S
C7443 C7444 1.374 . S
C7444 H7418 0.950 . S
C7444 C7440 1.385 . S
C7444 C7443 1.374 . S
C7445 C7442 1.499 . S
C7445 C7446 1.373 . S
C7445 C7447 1.389 . S
C7446 H7419 0.950 . S
C7446 C7432 1.377 . S
C7446 C7445 1.373 . S
C7447 C7431 1.377 . S
C7447 C7445 1.389 . S
C7447 C7448 1.524 . S
C7448 C7447 1.524 . S
C7448 C7449 1.397 . S
C7448 C7453 1.363 . S
C7449 H7420 0.950 . S
C7449 C7448 1.397 . S
C7449 C7450 1.334 . S
C7450 H7421 0.950 . S
C7450 C7449 1.334 . S
C7450 C7451 1.287 . S
C7451 C7450 1.287 . S
C7451 C7452 1.524 . S
C7451 H7454 0.999 . S
C7452 H7422 0.950 . S
C7452 C7451 1.524 . S
C7452 C7453 1.415 . S
C7453 H7423 0.950 . S
C7453 C7448 1.363 . S
C7453 C7452 1.415 . S
H7454 C7451 0.999 . S
H7455 C7436 0.913 . S
H7456 C7474 0.951 . S
H7457 C7476 0.951 . S
H7458 C7478 0.950 . S
H7459 C7479 0.950 . S
H7460 C7481 0.950 . S
H7461 C7484 0.950 . S
H7462 C7485 0.950 . S
H7463 C7487 0.950 . S
H7464 C7488 0.950 . S
H7465 C7489 0.951 . S
H7466 C7491 0.951 . S
H7467 C7493 0.950 . S
H7468 C7494 0.950 . S
H7469 C7496 0.950 . S
H7470 C7499 0.950 . S
H7471 C7500 0.950 . S
H7472 C7502 0.950 . S
H7473 C7503 0.950 . S
C7474 H7456 0.951 . S
C7474 C7475 1.366 . S
C7474 C7476 1.388 . S
C7475 C7474 1.366 . S
C7475 C7479 1.385 . S
C7476 H7457 0.951 . S
C7476 C7474 1.388 . S
C7476 C7477 1.366 . S
C7477 C7476 1.366 . S
C7477 C7478 1.414 . S
C7477 C7480 1.499 . S
C7478 H7458 0.950 . S
C7478 C7477 1.414 . S
C7478 C7479 1.374 . S
C7479 H7459 0.950 . S
C7479 C7475 1.385 . S
C7479 C7478 1.374 . S
C7480 C7477 1.499 . S
C7480 C7481 1.373 . S
C7480 C7482 1.389 . S
C7481 H7460 0.950 . S
C7481 C7480 1.373 . S
C7481 C7497 1.377 . S
C7482 C7480 1.389 . S
C7482 C7483 1.524 . S
C7482 C7496 1.377 . S
C7483 C7482 1.524 . S
C7483 C7484 1.397 . S
C7483 C7488 1.363 . S
C7484 H7461 0.950 . S
C7484 C7483 1.397 . S
C7484 C7485 1.334 . S
C7485 H7462 0.950 . S
C7485 C7484 1.334 . S
C7485 C7486 1.287 . S
C7486 C7485 1.287 . S
C7486 C7487 1.524 . S
C7486 H7505 0.913 . S
C7487 H7463 0.950 . S
C7487 C7486 1.524 . S
C7487 C7488 1.415 . S
C7488 H7464 0.950 . S
C7488 C7483 1.363 . S
C7488 C7487 1.415 . S
C7489 H7465 0.951 . S
C7489 C7490 1.366 . S
C7489 C7491 1.388 . S
C7490 C7489 1.366 . S
C7490 C7494 1.385 . S
C7491 H7466 0.951 . S
C7491 C7489 1.388 . S
C7491 C7492 1.366 . S
C7492 C7491 1.366 . S
C7492 C7493 1.414 . S
C7492 C7495 1.499 . S
C7493 H7467 0.950 . S
C7493 C7492 1.414 . S
C7493 C7494 1.374 . S
C7494 H7468 0.950 . S
C7494 C7490 1.385 . S
C7494 C7493 1.374 . S
C7495 C7492 1.499 . S
C7495 C7496 1.373 . S
C7495 C7497 1.389 . S
C7496 H7469 0.950 . S
C7496 C7482 1.377 . S
C7496 C7495 1.373 . S
C7497 C7481 1.377 . S
C7497 C7495 1.389 . S
C7497 C7498 1.524 . S
C7498 C7497 1.524 . S
C7498 C7499 1.397 . S
C7498 C7503 1.363 . S
C7499 H7470 0.950 . S
C7499 C7498 1.397 . S
C7499 C7500 1.334 . S
C7500 H7471 0.950 . S
C7500 C7499 1.334 . S
C7500 C7501 1.287 . S
C7501 C7500 1.287 . S
C7501 C7502 1.524 . S
C7501 H7504 0.999 . S
C7502 H7472 0.950 . S
C7502 C7501 1.524 . S
C7502 C7503 1.415 . S
C7503 H7473 0.950 . S
C7503 C7498 1.363 . S
C7503 C7502 1.415 . S
H7504 C7501 0.999 . S
H7505 C7486 0.913 . S
H7506 C7524 0.951 . S
H7507 C7526 0.951 . S
H7508 C7528 0.950 . S
H7509 C7529 0.950 . S
H7510 C7531 0.950 . S
H7511 C7534 0.950 . S
H7512 C7535 0.950 . S
H7513 C7537 0.950 . S
H7514 C7538 0.950 . S
H7515 C7539 0.951 . S
H7516 C7541 0.951 . S
H7517 C7543 0.950 . S
H7518 C7544 0.950 . S
H7519 C7546 0.950 . S
H7520 C7549 0.950 . S
H7521 C7550 0.950 . S
H7522 C7552 0.950 . S
H7523 C7553 0.950 . S
C7524 H7506 0.951 . S
C7524 C7525 1.366 . S
C7524 C7526 1.388 . S
C7525 C7524 1.366 . S
C7525 C7529 1.385 . S
C7526 H7507 0.951 . S
C7526 C7524 1.388 . S
C7526 C7527 1.366 . S
C7527 C7526 1.366 . S
C7527 C7528 1.414 . S
C7527 C7530 1.499 . S
C7528 H7508 0.950 . S
C7528 C7527 1.414 . S
C7528 C7529 1.374 . S
C7529 H7509 0.950 . S
C7529 C7525 1.385 . S
C7529 C7528 1.374 . S
C7530 C7527 1.499 . S
C7530 C7531 1.373 . S
C7530 C7532 1.389 . S
C7531 H7510 0.950 . S
C7531 C7530 1.373 . S
C7531 C7547 1.377 . S
C7532 C7530 1.389 . S
C7532 C7533 1.524 . S
C7532 C7546 1.377 . S
C7533 C7532 1.524 . S
C7533 C7534 1.397 . S
C7533 C7538 1.363 . S
C7534 H7511 0.950 . S
C7534 C7533 1.397 . S
C7534 C7535 1.334 . S
C7535 H7512 0.950 . S
C7535 C7534 1.334 . S
C7535 C7536 1.287 . S
C7536 C7535 1.287 . S
C7536 C7537 1.524 . S
C7536 H7555 0.913 . S
C7537 H7513 0.950 . S
C7537 C7536 1.524 . S
C7537 C7538 1.415 . S
C7538 H7514 0.950 . S
C7538 C7533 1.363 . S
C7538 C7537 1.415 . S
C7539 H7515 0.951 . S
C7539 C7540 1.366 . S
C7539 C7541 1.388 . S
C7540 C7539 1.366 . S
C7540 C7544 1.385 . S
C7541 H7516 0.951 . S
C7541 C7539 1.388 . S
C7541 C7542 1.366 . S
C7542 C7541 1.366 . S
C7542 C7543 1.414 . S
C7542 C7545 1.499 . S
C7543 H7517 0.950 . S
C7543 C7542 1.414 . S
C7543 C7544 1.374 . S
C7544 H7518 0.950 . S
C7544 C7540 1.385 . S
C7544 C7543 1.374 . S
C7545 C7542 1.499 . S
C7545 C7546 1.373 . S
C7545 C7547 1.389 . S
C7546 H7519 0.950 . S
C7546 C7532 1.377 . S
C7546 C7545 1.373 . S
C7547 C7531 1.377 . S
C7547 C7545 1.389 . S
C7547 C7548 1.524 . S
C7548 C7547 1.524 . S
C7548 C7549 1.397 . S
C7548 C7553 1.363 . S
C7549 H7520 0.950 . S
C7549 C7548 1.397 . S
C7549 C7550 1.334 . S
C7550 H7521 0.950 . S
C7550 C7549 1.334 . S
C7550 C7551 1.287 . S
C7551 C7550 1.287 . S
C7551 C7552 1.524 . S
C7551 H7554 0.999 . S
C7552 H7522 0.950 . S
C7552 C7551 1.524 . S
C7552 C7553 1.415 . S
C7553 H7523 0.950 . S
C7553 C7548 1.363 . S
C7553 C7552 1.415 . S
H7554 C7551 0.999 . S
H7555 C7536 0.913 . S
H7556 C7574 0.951 . S
H7557 C7576 0.951 . S
H7558 C7578 0.950 . S
H7559 C7579 0.950 . S
H7560 C7581 0.950 . S
H7561 C7584 0.950 . S
H7562 C7585 0.950 . S
H7563 C7587 0.950 . S
H7564 C7588 0.950 . S
H7565 C7589 0.951 . S
H7566 C7591 0.951 . S
H7567 C7593 0.950 . S
H7568 C7594 0.950 . S
H7569 C7596 0.950 . S
H7570 C7599 0.950 . S
H7571 C7600 0.950 . S
H7572 C7602 0.950 . S
H7573 C7603 0.950 . S
C7574 H7556 0.951 . S
C7574 C7575 1.366 . S
C7574 C7576 1.388 . S
C7575 C7574 1.366 . S
C7575 C7579 1.385 . S
C7576 H7557 0.951 . S
C7576 C7574 1.388 . S
C7576 C7577 1.366 . S
C7577 C7576 1.366 . S
C7577 C7578 1.414 . S
C7577 C7580 1.499 . S
C7578 H7558 0.950 . S
C7578 C7577 1.414 . S
C7578 C7579 1.374 . S
C7579 H7559 0.950 . S
C7579 C7575 1.385 . S
C7579 C7578 1.374 . S
C7580 C7577 1.499 . S
C7580 C7581 1.373 . S
C7580 C7582 1.389 . S
C7581 H7560 0.950 . S
C7581 C7580 1.373 . S
C7581 C7597 1.377 . S
C7582 C7580 1.389 . S
C7582 C7583 1.524 1_655 S
C7582 C7596 1.377 1_655 S
C7583 C7582 1.524 1_455 S
C7583 C7584 1.397 . S
C7583 C7588 1.363 . S
C7584 H7561 0.950 . S
C7584 C7583 1.397 . S
C7584 C7585 1.334 . S
C7585 H7562 0.950 . S
C7585 C7584 1.334 . S
C7585 C7586 1.287 . S
C7586 C7585 1.287 . S
C7586 C7587 1.524 . S
C7586 H7605 0.913 . S
C7587 H7563 0.950 . S
C7587 C7586 1.524 . S
C7587 C7588 1.415 . S
C7588 H7564 0.950 . S
C7588 C7583 1.363 . S
C7588 C7587 1.415 . S
C7589 H7565 0.951 . S
C7589 C7590 1.366 . S
C7589 C7591 1.388 . S
C7590 C7589 1.366 . S
C7590 C7594 1.385 . S
C7591 H7566 0.951 . S
C7591 C7589 1.388 . S
C7591 C7592 1.366 . S
C7592 C7591 1.366 . S
C7592 C7593 1.414 . S
C7592 C7595 1.470 1_455 S
C7593 H7567 0.950 . S
C7593 C7592 1.414 . S
C7593 C7594 1.374 . S
C7594 H7568 0.950 . S
C7594 C7590 1.385 . S
C7594 C7593 1.374 . S
C7595 C7592 1.470 1_655 S
C7595 C7596 1.354 1_655 S
C7595 C7597 1.437 . S
C7596 H7569 0.950 . S
C7596 C7582 1.377 1_455 S
C7596 C7595 1.354 1_455 S
C7597 C7581 1.377 . S
C7597 C7595 1.437 . S
C7597 C7598 1.524 . S
C7598 C7597 1.524 . S
C7598 C7599 1.397 . S
C7598 C7603 1.363 . S
C7599 H7570 0.950 . S
C7599 C7598 1.397 . S
C7599 C7600 1.334 . S
C7600 H7571 0.950 . S
C7600 C7599 1.334 . S
C7600 C7601 1.287 . S
C7601 C7600 1.287 . S
C7601 C7602 1.524 . S
C7601 H7604 0.999 . S
C7602 H7572 0.950 . S
C7602 C7601 1.524 . S
C7602 C7603 1.415 . S
C7603 H7573 0.950 . S
C7603 C7598 1.363 . S
C7603 C7602 1.415 . S
H7604 C7601 0.999 . S
H7605 C7586 0.913 . S
H7606 C7624 0.951 . S
H7607 C7626 0.951 . S
H7608 C7628 0.950 . S
H7609 C7629 0.950 . S
H7610 C7631 0.950 . S
H7611 C7634 0.950 . S
H7612 C7635 0.950 . S
H7613 C7637 0.950 . S
H7614 C7638 0.950 . S
H7615 C7639 0.951 . S
H7616 C7641 0.951 . S
H7617 C7643 0.950 . S
H7618 C7644 0.950 . S
H7619 C7646 0.950 . S
H7620 C7649 0.950 . S
H7621 C7650 0.950 . S
H7622 C7652 0.950 . S
H7623 C7653 0.950 . S
C7624 H7606 0.951 . S
C7624 C7625 1.366 . S
C7624 C7626 1.388 . S
C7625 C7624 1.366 . S
C7625 C7629 1.385 . S
C7626 H7607 0.951 . S
C7626 C7624 1.388 . S
C7626 C7627 1.366 . S
C7627 C7626 1.366 . S
C7627 C7628 1.414 . S
C7627 C7630 1.499 . S
C7628 H7608 0.950 . S
C7628 C7627 1.414 . S
C7628 C7629 1.374 . S
C7629 H7609 0.950 . S
C7629 C7625 1.385 . S
C7629 C7628 1.374 . S
C7630 C7627 1.499 . S
C7630 C7631 1.373 . S
C7630 C7632 1.389 . S
C7631 H7610 0.950 . S
C7631 C7630 1.373 . S
C7631 C7647 1.377 . S
C7632 C7630 1.389 . S
C7632 C7633 1.524 . S
C7632 C7646 1.377 . S
C7633 C7632 1.524 . S
C7633 C7634 1.397 . S
C7633 C7638 1.363 . S
C7634 H7611 0.950 . S
C7634 C7633 1.397 . S
C7634 C7635 1.334 . S
C7635 H7612 0.950 . S
C7635 C7634 1.334 . S
C7635 C7636 1.287 . S
C7636 C7635 1.287 . S
C7636 C7637 1.524 . S
C7636 H7655 0.913 . S
C7637 H7613 0.950 . S
C7637 C7636 1.524 . S
C7637 C7638 1.415 . S
C7638 H7614 0.950 . S
C7638 C7633 1.363 . S
C7638 C7637 1.415 . S
C7639 H7615 0.951 . S
C7639 C7640 1.366 . S
C7639 C7641 1.388 . S
C7640 C7639 1.366 . S
C7640 C7644 1.385 . S
C7641 H7616 0.951 . S
C7641 C7639 1.388 . S
C7641 C7642 1.366 . S
C7642 C7641 1.366 . S
C7642 C7643 1.414 . S
C7642 C7645 1.499 . S
C7643 H7617 0.950 . S
C7643 C7642 1.414 . S
C7643 C7644 1.374 . S
C7644 H7618 0.950 . S
C7644 C7640 1.385 . S
C7644 C7643 1.374 . S
C7645 C7642 1.499 . S
C7645 C7646 1.373 . S
C7645 C7647 1.389 . S
C7646 H7619 0.950 . S
C7646 C7632 1.377 . S
C7646 C7645 1.373 . S
C7647 C7631 1.377 . S
C7647 C7645 1.389 . S
C7647 C7648 1.524 . S
C7648 C7647 1.524 . S
C7648 C7649 1.397 . S
C7648 C7653 1.363 . S
C7649 H7620 0.950 . S
C7649 C7648 1.397 . S
C7649 C7650 1.334 . S
C7650 H7621 0.950 . S
C7650 C7649 1.334 . S
C7650 C7651 1.287 . S
C7651 C7650 1.287 . S
C7651 C7652 1.524 . S
C7651 H7654 0.999 . S
C7652 H7622 0.950 . S
C7652 C7651 1.524 . S
C7652 C7653 1.415 . S
C7653 H7623 0.950 . S
C7653 C7648 1.363 . S
C7653 C7652 1.415 . S
H7654 C7651 0.999 . S
H7655 C7636 0.913 . S
H7656 C7674 0.951 . S
H7657 C7676 0.951 . S
H7658 C7678 0.950 . S
H7659 C7679 0.950 . S
H7660 C7681 0.950 . S
H7661 C7684 0.950 . S
H7662 C7685 0.950 . S
H7663 C7687 0.950 . S
H7664 C7688 0.950 . S
H7665 C7689 0.951 . S
H7666 C7691 0.951 . S
H7667 C7693 0.950 . S
H7668 C7694 0.950 . S
H7669 C7696 0.950 . S
H7670 C7699 0.950 . S
H7671 C7700 0.950 . S
H7672 C7702 0.950 . S
H7673 C7703 0.950 . S
C7674 H7656 0.951 . S
C7674 C7675 1.366 . S
C7674 C7676 1.388 . S
C7675 C7674 1.366 . S
C7675 C7679 1.385 . S
C7676 H7657 0.951 . S
C7676 C7674 1.388 . S
C7676 C7677 1.366 . S
C7677 C7676 1.366 . S
C7677 C7678 1.414 . S
C7677 C7680 1.499 . S
C7678 H7658 0.950 . S
C7678 C7677 1.414 . S
C7678 C7679 1.374 . S
C7679 H7659 0.950 . S
C7679 C7675 1.385 . S
C7679 C7678 1.374 . S
C7680 C7677 1.499 . S
C7680 C7681 1.373 . S
C7680 C7682 1.389 . S
C7681 H7660 0.950 . S
C7681 C7680 1.373 . S
C7681 C7697 1.377 . S
C7682 C7680 1.389 . S
C7682 C7683 1.524 . S
C7682 C7696 1.377 . S
C7683 C7682 1.524 . S
C7683 C7684 1.397 . S
C7683 C7688 1.363 . S
C7684 H7661 0.950 . S
C7684 C7683 1.397 . S
C7684 C7685 1.334 . S
C7685 H7662 0.950 . S
C7685 C7684 1.334 . S
C7685 C7686 1.287 . S
C7686 C7685 1.287 . S
C7686 C7687 1.524 . S
C7686 H7705 0.913 . S
C7687 H7663 0.950 . S
C7687 C7686 1.524 . S
C7687 C7688 1.415 . S
C7688 H7664 0.950 . S
C7688 C7683 1.363 . S
C7688 C7687 1.415 . S
C7689 H7665 0.951 . S
C7689 C7690 1.366 . S
C7689 C7691 1.388 . S
C7690 C7689 1.366 . S
C7690 C7694 1.385 . S
C7691 H7666 0.951 . S
C7691 C7689 1.388 . S
C7691 C7692 1.366 . S
C7692 C7691 1.366 . S
C7692 C7693 1.414 . S
C7692 C7695 1.499 . S
C7693 H7667 0.950 . S
C7693 C7692 1.414 . S
C7693 C7694 1.374 . S
C7694 H7668 0.950 . S
C7694 C7690 1.385 . S
C7694 C7693 1.374 . S
C7695 C7692 1.499 . S
C7695 C7696 1.373 . S
C7695 C7697 1.389 . S
C7696 H7669 0.950 . S
C7696 C7682 1.377 . S
C7696 C7695 1.373 . S
C7697 C7681 1.377 . S
C7697 C7695 1.389 . S
C7697 C7698 1.524 . S
C7698 C7697 1.524 . S
C7698 C7699 1.397 . S
C7698 C7703 1.363 . S
C7699 H7670 0.950 . S
C7699 C7698 1.397 . S
C7699 C7700 1.334 . S
C7700 H7671 0.950 . S
C7700 C7699 1.334 . S
C7700 C7701 1.287 . S
C7701 C7700 1.287 . S
C7701 C7702 1.524 . S
C7701 H7704 0.999 . S
C7702 H7672 0.950 . S
C7702 C7701 1.524 . S
C7702 C7703 1.415 . S
C7703 H7673 0.950 . S
C7703 C7698 1.363 . S
C7703 C7702 1.415 . S
H7704 C7701 0.999 . S
H7705 C7686 0.913 . S
H7706 C7724 0.951 . S
H7707 C7726 0.951 . S
H7708 C7728 0.950 . S
H7709 C7729 0.950 . S
H7710 C7731 0.950 . S
H7711 C7734 0.950 . S
H7712 C7735 0.950 . S
H7713 C7737 0.950 . S
H7714 C7738 0.950 . S
H7715 C7739 0.951 . S
H7716 C7741 0.951 . S
H7717 C7743 0.950 . S
H7718 C7744 0.950 . S
H7719 C7746 0.950 . S
H7720 C7749 0.950 . S
H7721 C7750 0.950 . S
H7722 C7752 0.950 . S
H7723 C7753 0.950 . S
C7724 H7706 0.951 . S
C7724 C7725 1.366 . S
C7724 C7726 1.388 . S
C7725 C7724 1.366 . S
C7725 C7729 1.385 . S
C7726 H7707 0.951 . S
C7726 C7724 1.388 . S
C7726 C7727 1.366 . S
C7727 C7726 1.366 . S
C7727 C7728 1.414 . S
C7727 C7730 1.499 . S
C7728 H7708 0.950 . S
C7728 C7727 1.414 . S
C7728 C7729 1.374 . S
C7729 H7709 0.950 . S
C7729 C7725 1.385 . S
C7729 C7728 1.374 . S
C7730 C7727 1.499 . S
C7730 C7731 1.373 . S
C7730 C7732 1.389 . S
C7731 H7710 0.950 . S
C7731 C7730 1.373 . S
C7731 C7747 1.377 . S
C7732 C7730 1.389 . S
C7732 C7733 1.524 . S
C7732 C7746 1.377 . S
C7733 C7732 1.524 . S
C7733 C7734 1.397 . S
C7733 C7738 1.363 . S
C7734 H7711 0.950 . S
C7734 C7733 1.397 . S
C7734 C7735 1.334 . S
C7735 H7712 0.950 . S
C7735 C7734 1.334 . S
C7735 C7736 1.287 . S
C7736 C7735 1.287 . S
C7736 C7737 1.524 . S
C7736 H7755 0.913 . S
C7737 H7713 0.950 . S
C7737 C7736 1.524 . S
C7737 C7738 1.415 . S
C7738 H7714 0.950 . S
C7738 C7733 1.363 . S
C7738 C7737 1.415 . S
C7739 H7715 0.951 . S
C7739 C7740 1.366 . S
C7739 C7741 1.388 . S
C7740 C7739 1.366 . S
C7740 C7744 1.385 . S
C7741 H7716 0.951 . S
C7741 C7739 1.388 . S
C7741 C7742 1.366 . S
C7742 C7741 1.366 . S
C7742 C7743 1.414 . S
C7742 C7745 1.499 . S
C7743 H7717 0.950 . S
C7743 C7742 1.414 . S
C7743 C7744 1.374 . S
C7744 H7718 0.950 . S
C7744 C7740 1.385 . S
C7744 C7743 1.374 . S
C7745 C7742 1.499 . S
C7745 C7746 1.373 . S
C7745 C7747 1.389 . S
C7746 H7719 0.950 . S
C7746 C7732 1.377 . S
C7746 C7745 1.373 . S
C7747 C7731 1.377 . S
C7747 C7745 1.389 . S
C7747 C7748 1.524 . S
C7748 C7747 1.524 . S
C7748 C7749 1.397 . S
C7748 C7753 1.363 . S
C7749 H7720 0.950 . S
C7749 C7748 1.397 . S
C7749 C7750 1.334 . S
C7750 H7721 0.950 . S
C7750 C7749 1.334 . S
C7750 C7751 1.287 . S
C7751 C7750 1.287 . S
C7751 C7752 1.524 . S
C7751 H7754 0.999 . S
C7752 H7722 0.950 . S
C7752 C7751 1.524 . S
C7752 C7753 1.415 . S
C7753 H7723 0.950 . S
C7753 C7748 1.363 . S
C7753 C7752 1.415 . S
H7754 C7751 0.999 . S
H7755 C7736 0.913 . S
H7756 C7774 0.951 . S
H7757 C7776 0.951 . S
H7758 C7778 0.950 . S
H7759 C7779 0.950 . S
H7760 C7781 0.950 . S
H7761 C7784 0.950 . S
H7762 C7785 0.950 . S
H7763 C7787 0.950 . S
H7764 C7788 0.950 . S
H7765 C7789 0.951 . S
H7766 C7791 0.951 . S
H7767 C7793 0.950 . S
H7768 C7794 0.950 . S
H7769 C7796 0.950 . S
H7770 C7799 0.950 . S
H7771 C7800 0.950 . S
H7772 C7802 0.950 . S
H7773 C7803 0.950 . S
C7774 H7756 0.951 . S
C7774 C7775 1.366 . S
C7774 C7776 1.388 . S
C7775 C7774 1.366 . S
C7775 C7779 1.385 . S
C7776 H7757 0.951 . S
C7776 C7774 1.388 . S
C7776 C7777 1.366 . S
C7777 C7776 1.366 . S
C7777 C7778 1.414 . S
C7777 C7780 1.499 . S
C7778 H7758 0.950 . S
C7778 C7777 1.414 . S
C7778 C7779 1.374 . S
C7779 H7759 0.950 . S
C7779 C7775 1.385 . S
C7779 C7778 1.374 . S
C7780 C7777 1.499 . S
C7780 C7781 1.373 . S
C7780 C7782 1.389 . S
C7781 H7760 0.950 . S
C7781 C7780 1.373 . S
C7781 C7797 1.377 . S
C7782 C7780 1.389 . S
C7782 C7783 1.524 . S
C7782 C7796 1.377 . S
C7783 C7782 1.524 . S
C7783 C7784 1.397 . S
C7783 C7788 1.363 . S
C7784 H7761 0.950 . S
C7784 C7783 1.397 . S
C7784 C7785 1.334 . S
C7785 H7762 0.950 . S
C7785 C7784 1.334 . S
C7785 C7786 1.287 . S
C7786 C7785 1.287 . S
C7786 C7787 1.524 . S
C7786 H7805 0.913 . S
C7787 H7763 0.950 . S
C7787 C7786 1.524 . S
C7787 C7788 1.415 . S
C7788 H7764 0.950 . S
C7788 C7783 1.363 . S
C7788 C7787 1.415 . S
C7789 H7765 0.951 . S
C7789 C7790 1.366 . S
C7789 C7791 1.388 . S
C7790 C7789 1.366 . S
C7790 C7794 1.385 1_455 S
C7791 H7766 0.951 . S
C7791 C7789 1.388 . S
C7791 C7792 1.366 1_455 S
C7792 C7791 1.366 1_655 S
C7792 C7793 1.414 . S
C7792 C7795 1.499 . S
C7793 H7767 0.950 . S
C7793 C7792 1.414 . S
C7793 C7794 1.374 . S
C7794 H7768 0.950 . S
C7794 C7790 1.385 1_655 S
C7794 C7793 1.374 . S
C7795 C7792 1.499 . S
C7795 C7796 1.373 . S
C7795 C7797 1.389 . S
C7796 H7769 0.950 . S
C7796 C7782 1.377 . S
C7796 C7795 1.373 . S
C7797 C7781 1.377 . S
C7797 C7795 1.389 . S
C7797 C7798 1.524 1_655 S
C7798 C7797 1.524 1_455 S
C7798 C7799 1.397 1_455 S
C7798 C7803 1.363 . S
C7799 H7770 0.950 . S
C7799 C7798 1.397 1_655 S
C7799 C7800 1.334 1_655 S
C7800 H7771 0.950 . S
C7800 C7799 1.334 1_455 S
C7800 C7801 1.287 . S
C7801 C7800 1.287 . S
C7801 C7802 1.524 . S
C7801 H7804 0.999 . S
C7802 H7772 0.950 . S
C7802 C7801 1.524 . S
C7802 C7803 1.415 . S
C7803 H7773 0.950 . S
C7803 C7798 1.363 . S
C7803 C7802 1.415 . S
H7804 C7801 0.999 . S
H7805 C7786 0.913 . S
H7806 C7824 0.951 . S
H7807 C7826 0.951 . S
H7808 C7828 0.950 . S
H7809 C7829 0.950 . S
H7810 C7831 0.950 . S
H7811 C7834 0.950 . S
H7812 C7835 0.950 . S
H7813 C7837 0.950 . S
H7814 C7838 0.950 . S
H7815 C7839 0.951 . S
H7816 C7841 0.951 . S
H7817 C7843 0.950 . S
H7818 C7844 0.950 . S
H7819 C7846 0.950 . S
H7820 C7849 0.950 . S
H7821 C7850 0.950 . S
H7822 C7852 0.950 . S
H7823 C7853 0.950 . S
C7824 H7806 0.951 . S
C7824 C7825 1.366 . S
C7824 C7826 1.388 . S
C7825 C7824 1.366 . S
C7825 C7829 1.385 . S
C7826 H7807 0.951 . S
C7826 C7824 1.388 . S
C7826 C7827 1.366 . S
C7827 C7826 1.366 . S
C7827 C7828 1.414 . S
C7827 C7830 1.499 . S
C7828 H7808 0.950 . S
C7828 C7827 1.414 . S
C7828 C7829 1.374 . S
C7829 H7809 0.950 . S
C7829 C7825 1.385 . S
C7829 C7828 1.374 . S
C7830 C7827 1.499 . S
C7830 C7831 1.373 . S
C7830 C7832 1.389 . S
C7831 H7810 0.950 . S
C7831 C7830 1.373 . S
C7831 C7847 1.377 . S
C7832 C7830 1.389 . S
C7832 C7833 1.524 . S
C7832 C7846 1.377 . S
C7833 C7832 1.524 . S
C7833 C7834 1.397 . S
C7833 C7838 1.363 . S
C7834 H7811 0.950 . S
C7834 C7833 1.397 . S
C7834 C7835 1.334 . S
C7835 H7812 0.950 . S
C7835 C7834 1.334 . S
C7835 C7836 1.287 . S
C7836 C7835 1.287 . S
C7836 C7837 1.524 . S
C7836 H7855 0.913 . S
C7837 H7813 0.950 . S
C7837 C7836 1.524 . S
C7837 C7838 1.415 . S
C7838 H7814 0.950 . S
C7838 C7833 1.363 . S
C7838 C7837 1.415 . S
C7839 H7815 0.951 . S
C7839 C7840 1.366 . S
C7839 C7841 1.388 . S
C7840 C7839 1.366 . S
C7840 C7844 1.385 . S
C7841 H7816 0.951 . S
C7841 C7839 1.388 . S
C7841 C7842 1.366 . S
C7842 C7841 1.366 . S
C7842 C7843 1.414 . S
C7842 C7845 1.499 . S
C7843 H7817 0.950 . S
C7843 C7842 1.414 . S
C7843 C7844 1.374 . S
C7844 H7818 0.950 . S
C7844 C7840 1.385 . S
C7844 C7843 1.374 . S
C7845 C7842 1.499 . S
C7845 C7846 1.373 . S
C7845 C7847 1.389 . S
C7846 H7819 0.950 . S
C7846 C7832 1.377 . S
C7846 C7845 1.373 . S
C7847 C7831 1.377 . S
C7847 C7845 1.389 . S
C7847 C7848 1.524 . S
C7848 C7847 1.524 . S
C7848 C7849 1.397 . S
C7848 C7853 1.363 . S
C7849 H7820 0.950 . S
C7849 C7848 1.397 . S
C7849 C7850 1.334 . S
C7850 H7821 0.950 . S
C7850 C7849 1.334 . S
C7850 C7851 1.287 . S
C7851 C7850 1.287 . S
C7851 C7852 1.524 . S
C7851 H7854 0.999 . S
C7852 H7822 0.950 . S
C7852 C7851 1.524 . S
C7852 C7853 1.415 . S
C7853 H7823 0.950 . S
C7853 C7848 1.363 . S
C7853 C7852 1.415 . S
H7854 C7851 0.999 . S
H7855 C7836 0.913 . S
H7856 C7874 0.951 . S
H7857 C7876 0.951 . S
H7858 C7878 0.950 . S
H7859 C7879 0.950 . S
H7860 C7881 0.950 . S
H7861 C7884 0.950 . S
H7862 C7885 0.950 . S
H7863 C7887 0.950 . S
H7864 C7888 0.950 . S
H7865 C7889 0.951 . S
H7866 C7891 0.951 . S
H7867 C7893 0.950 . S
H7868 C7894 0.950 . S
H7869 C7896 0.950 . S
H7870 C7899 0.950 . S
H7871 C7900 0.950 . S
H7872 C7902 0.950 . S
H7873 C7903 0.950 . S
C7874 H7856 0.951 . S
C7874 C7875 1.366 . S
C7874 C7876 1.388 . S
C7875 C7874 1.366 . S
C7875 C7879 1.385 . S
C7876 H7857 0.951 . S
C7876 C7874 1.388 . S
C7876 C7877 1.366 . S
C7877 C7876 1.366 . S
C7877 C7878 1.414 . S
C7877 C7880 1.499 . S
C7878 H7858 0.950 . S
C7878 C7877 1.414 . S
C7878 C7879 1.374 . S
C7879 H7859 0.950 . S
C7879 C7875 1.385 . S
C7879 C7878 1.374 . S
C7880 C7877 1.499 . S
C7880 C7881 1.373 . S
C7880 C7882 1.389 . S
C7881 H7860 0.950 . S
C7881 C7880 1.373 . S
C7881 C7897 1.377 . S
C7882 C7880 1.389 . S
C7882 C7883 1.524 . S
C7882 C7896 1.377 . S
C7883 C7882 1.524 . S
C7883 C7884 1.397 . S
C7883 C7888 1.363 . S
C7884 H7861 0.950 . S
C7884 C7883 1.397 . S
C7884 C7885 1.334 . S
C7885 H7862 0.950 . S
C7885 C7884 1.334 . S
C7885 C7886 1.287 . S
C7886 C7885 1.287 . S
C7886 C7887 1.524 . S
C7886 H7905 0.913 . S
C7887 H7863 0.950 . S
C7887 C7886 1.524 . S
C7887 C7888 1.415 . S
C7888 H7864 0.950 . S
C7888 C7883 1.363 . S
C7888 C7887 1.415 . S
C7889 H7865 0.951 . S
C7889 C7890 1.366 . S
C7889 C7891 1.388 . S
C7890 C7889 1.366 . S
C7890 C7894 1.385 . S
C7891 H7866 0.951 . S
C7891 C7889 1.388 . S
C7891 C7892 1.366 . S
C7892 C7891 1.366 . S
C7892 C7893 1.414 . S
C7892 C7895 1.499 . S
C7893 H7867 0.950 . S
C7893 C7892 1.414 . S
C7893 C7894 1.374 . S
C7894 H7868 0.950 . S
C7894 C7890 1.385 . S
C7894 C7893 1.374 . S
C7895 C7892 1.499 . S
C7895 C7896 1.373 . S
C7895 C7897 1.389 . S
C7896 H7869 0.950 . S
C7896 C7882 1.377 . S
C7896 C7895 1.373 . S
C7897 C7881 1.377 . S
C7897 C7895 1.389 . S
C7897 C7898 1.524 . S
C7898 C7897 1.524 . S
C7898 C7899 1.397 . S
C7898 C7903 1.363 . S
C7899 H7870 0.950 . S
C7899 C7898 1.397 . S
C7899 C7900 1.334 . S
C7900 H7871 0.950 . S
C7900 C7899 1.334 . S
C7900 C7901 1.287 . S
C7901 C7900 1.287 . S
C7901 C7902 1.524 . S
C7901 H7904 0.999 . S
C7902 H7872 0.950 . S
C7902 C7901 1.524 . S
C7902 C7903 1.415 . S
C7903 H7873 0.950 . S
C7903 C7898 1.363 . S
C7903 C7902 1.415 . S
H7904 C7901 0.999 . S
H7905 C7886 0.913 . S
H7906 C7924 0.951 . S
H7907 C7926 0.951 . S
H7908 C7928 0.950 . S
H7909 C7929 0.950 . S
H7910 C7931 0.950 . S
H7911 C7934 0.950 . S
H7912 C7935 0.950 . S
H7913 C7937 0.950 . S
H7914 C7938 0.950 . S
H7915 C7939 0.951 1_455 S
H7916 C7941 0.951 . S
H7917 C7943 0.950 . S
H7918 C7944 0.950 . S
H7919 C7946 0.950 . S
H7920 C7949 0.950 1_545 S
H7921 C7950 0.950 1_545 S
H7922 C7952 0.950 . S
H7923 C7953 0.950 . S
C7924 H7906 0.951 . S
C7924 C7925 1.366 . S
C7924 C7926 1.388 . S
C7925 C7924 1.366 . S
C7925 C7929 1.385 . S
C7926 H7907 0.951 . S
C7926 C7924 1.388 . S
C7926 C7927 1.366 . S
C7927 C7926 1.366 . S
C7927 C7928 1.414 . S
C7927 C7930 1.499 . S
C7928 H7908 0.950 . S
C7928 C7927 1.414 . S
C7928 C7929 1.374 . S
C7929 H7909 0.950 . S
C7929 C7925 1.385 . S
C7929 C7928 1.374 . S
C7930 C7927 1.499 . S
C7930 C7931 1.373 . S
C7930 C7932 1.389 . S
C7931 H7910 0.950 . S
C7931 C7930 1.373 . S
C7931 C7947 1.377 . S
C7932 C7930 1.389 . S
C7932 C7933 1.524 . S
C7932 C7946 1.377 . S
C7933 C7932 1.524 . S
C7933 C7934 1.397 . S
C7933 C7938 1.363 . S
C7934 H7911 0.950 . S
C7934 C7933 1.397 . S
C7934 C7935 1.334 . S
C7935 H7912 0.950 . S
C7935 C7934 1.334 . S
C7935 C7936 1.287 . S
C7936 C7935 1.287 . S
C7936 C7937 1.524 . S
C7936 H7955 0.913 . S
C7937 H7913 0.950 . S
C7937 C7936 1.524 . S
C7937 C7938 1.415 . S
C7938 H7914 0.950 . S
C7938 C7933 1.363 . S
C7938 C7937 1.415 . S
C7939 H7915 0.951 1_655 S
C7939 C7940 1.366 1_565 S
C7939 C7941 1.388 . S
C7940 C7939 1.366 1_545 S
C7940 C7944 1.385 . S
C7941 H7916 0.951 . S
C7941 C7939 1.388 . S
C7941 C7942 1.366 . S
C7942 C7941 1.366 . S
C7942 C7943 1.414 1_565 S
C7942 C7945 1.499 . S
C7943 H7917 0.950 . S
C7943 C7942 1.414 1_545 S
C7943 C7944 1.374 . S
C7944 H7918 0.950 . S
C7944 C7940 1.385 . S
C7944 C7943 1.374 . S
C7945 C7942 1.499 . S
C7945 C7946 1.373 . S
C7945 C7947 1.389 . S
C7946 H7919 0.950 . S
C7946 C7932 1.377 . S
C7946 C7945 1.373 . S
C7947 C7931 1.377 . S
C7947 C7945 1.389 . S
C7947 C7948 1.524 . S
C7948 C7947 1.524 . S
C7948 C7949 1.397 . S
C7948 C7953 1.363 . S
C7949 H7920 0.950 1_565 S
C7949 C7948 1.397 . S
C7949 C7950 1.334 . S
C7950 H7921 0.950 1_565 S
C7950 C7949 1.334 . S
C7950 C7951 1.287 . S
C7951 C7950 1.287 . S
C7951 C7952 1.524 . S
C7951 H7954 0.999 . S
C7952 H7922 0.950 . S
C7952 C7951 1.524 . S
C7952 C7953 1.415 . S
C7953 H7923 0.950 . S
C7953 C7948 1.363 . S
C7953 C7952 1.415 . S
H7954 C7951 0.999 . S
H7955 C7936 0.913 . S
H7956 C7974 0.951 . S
H7957 C7976 0.951 . S
H7958 C7978 0.950 . S
H7959 C7979 0.950 . S
H7960 C7981 0.950 . S
H7961 C7984 0.950 . S
H7962 C7985 0.950 . S
H7963 C7987 0.950 . S
H7964 C7988 0.950 . S
H7965 C7989 0.951 . S
H7966 C7991 0.951 . S
H7967 C7993 0.950 . S
H7968 C7994 0.950 . S
H7969 C7996 0.950 . S
H7970 C7999 0.950 . S
H7971 C8000 0.950 . S
H7972 C8002 0.950 . S
H7973 C8003 0.950 . S
C7974 H7956 0.951 . S
C7974 C7975 1.366 . S
C7974 C7976 1.388 . S
C7975 C7974 1.366 . S
C7975 C7979 1.385 . S
C7976 H7957 0.951 . S
C7976 C7974 1.388 . S
C7976 C7977 1.366 . S
C7977 C7976 1.366 . S
C7977 C7978 1.414 . S
C7977 C7980 1.499 . S
C7978 H7958 0.950 . S
C7978 C7977 1.414 . S
C7978 C7979 1.374 . S
C7979 H7959 0.950 . S
C7979 C7975 1.385 . S
C7979 C7978 1.374 . S
C7980 C7977 1.499 . S
C7980 C7981 1.373 . S
C7980 C7982 1.389 . S
C7981 H7960 0.950 . S
C7981 C7980 1.373 . S
C7981 C7997 1.377 . S
C7982 C7980 1.389 . S
C7982 C7983 1.524 . S
C7982 C7996 1.377 . S
C7983 C7982 1.524 . S
C7983 C7984 1.397 . S
C7983 C7988 1.363 . S
C7984 H7961 0.950 . S
C7984 C7983 1.397 . S
C7984 C7985 1.334 . S
C7985 H7962 0.950 . S
C7985 C7984 1.334 . S
C7985 C7986 1.287 . S
C7986 C7985 1.287 . S
C7986 C7987 1.524 . S
C7986 H8005 0.913 . S
C7987 H7963 0.950 . S
C7987 C7986 1.524 . S
C7987 C7988 1.415 . S
C7988 H7964 0.950 . S
C7988 C7983 1.363 . S
C7988 C7987 1.415 . S
C7989 H7965 0.951 . S
C7989 C7990 1.366 . S
C7989 C7991 1.388 . S
C7990 C7989 1.366 . S
C7990 C7994 1.385 . S
C7991 H7966 0.951 . S
C7991 C7989 1.388 . S
C7991 C7992 1.366 . S
C7992 C7991 1.366 . S
C7992 C7993 1.414 . S
C7992 C7995 1.499 . S
C7993 H7967 0.950 . S
C7993 C7992 1.414 . S
C7993 C7994 1.374 . S
C7994 H7968 0.950 . S
C7994 C7990 1.385 . S
C7994 C7993 1.374 . S
C7995 C7992 1.499 . S
C7995 C7996 1.373 . S
C7995 C7997 1.389 . S
C7996 H7969 0.950 . S
C7996 C7982 1.377 . S
C7996 C7995 1.373 . S
C7997 C7981 1.377 . S
C7997 C7995 1.389 . S
C7997 C7998 1.524 . S
C7998 C7997 1.524 . S
C7998 C7999 1.397 . S
C7998 C8003 1.363 . S
C7999 H7970 0.950 . S
C7999 C7998 1.397 . S
C7999 C8000 1.334 . S
C8000 H7971 0.950 . S
C8000 C7999 1.334 . S
C8000 C8001 1.287 . S
C8001 C8000 1.287 . S
C8001 C8002 1.524 . S
C8001 H8004 0.999 . S
C8002 H7972 0.950 . S
C8002 C8001 1.524 . S
C8002 C8003 1.415 . S
C8003 H7973 0.950 . S
C8003 C7998 1.363 . S
C8003 C8002 1.415 . S
H8004 C8001 0.999 . S
H8005 C7986 0.913 . S
H8006 C8024 0.951 1_556 S
H8007 C8026 0.951 1_556 S
H8008 C8028 0.950 . S
H8009 C8029 0.950 . S
H8010 C8031 0.950 . S
H8011 C8034 0.950 . S
H8012 C8035 0.950 . S
H8013 C8037 0.950 . S
H8014 C8038 0.950 . S
H8015 C8039 0.951 . S
H8016 C8041 0.951 . S
H8017 C8043 0.950 . S
H8018 C8044 0.950 . S
H8019 C8046 0.949 1_556 S
H8020 C8049 0.950 . S
H8021 C8050 0.950 . S
H8022 C8052 0.950 . S
H8023 C8053 0.950 . S
C8024 H8006 0.951 1_554 S
C8024 C8025 1.366 . S
C8024 C8026 1.388 . S
C8025 C8024 1.366 . S
C8025 C8029 1.385 . S
C8026 H8007 0.951 1_554 S
C8026 C8024 1.388 . S
C8026 C8027 1.366 . S
C8027 C8026 1.366 . S
C8027 C8028 1.414 . S
C8027 C8030 1.499 . S
C8028 H8008 0.950 . S
C8028 C8027 1.414 . S
C8028 C8029 1.374 . S
C8029 H8009 0.950 . S
C8029 C8025 1.385 . S
C8029 C8028 1.374 . S
C8030 C8027 1.499 . S
C8030 C8031 1.373 . S
C8030 C8032 1.389 1_554 S
C8031 H8010 0.950 . S
C8031 C8030 1.373 . S
C8031 C8047 1.377 . S
C8032 C8030 1.389 1_556 S
C8032 C8033 1.524 . S
C8032 C8046 1.376 1_556 S
C8033 C8032 1.524 . S
C8033 C8034 1.397 . S
C8033 C8038 1.363 . S
C8034 H8011 0.950 . S
C8034 C8033 1.397 . S
C8034 C8035 1.334 . S
C8035 H8012 0.950 . S
C8035 C8034 1.334 . S
C8035 C8036 1.287 . S
C8036 C8035 1.287 . S
C8036 C8037 1.524 . S
C8036 H8055 0.913 . S
C8037 H8013 0.950 . S
C8037 C8036 1.524 . S
C8037 C8038 1.415 . S
C8038 H8014 0.950 . S
C8038 C8033 1.363 . S
C8038 C8037 1.415 . S
C8039 H8015 0.951 . S
C8039 C8040 1.366 . S
C8039 C8041 1.388 . S
C8040 C8039 1.366 . S
C8040 C8044 1.385 . S
C8041 H8016 0.951 . S
C8041 C8039 1.388 . S
C8041 C8042 1.366 . S
C8042 C8041 1.366 . S
C8042 C8043 1.414 . S
C8042 C8045 1.499 . S
C8043 H8017 0.950 . S
C8043 C8042 1.414 . S
C8043 C8044 1.374 . S
C8044 H8018 0.950 . S
C8044 C8040 1.385 . S
C8044 C8043 1.374 . S
C8045 C8042 1.499 . S
C8045 C8046 1.375 . S
C8045 C8047 1.389 . S
C8046 H8019 0.949 1_554 S
C8046 C8032 1.376 1_554 S
C8046 C8045 1.375 . S
C8047 C8031 1.377 . S
C8047 C8045 1.389 . S
C8047 C8048 1.524 . S
C8048 C8047 1.524 . S
C8048 C8049 1.397 . S
C8048 C8053 1.363 . S
C8049 H8020 0.950 . S
C8049 C8048 1.397 . S
C8049 C8050 1.334 . S
C8050 H8021 0.950 . S
C8050 C8049 1.334 . S
C8050 C8051 1.287 . S
C8051 C8050 1.287 . S
C8051 C8052 1.524 . S
C8051 H8054 0.999 . S
C8052 H8022 0.950 . S
C8052 C8051 1.524 . S
C8052 C8053 1.415 . S
C8053 H8023 0.950 . S
C8053 C8048 1.363 . S
C8053 C8052 1.415 . S
H8054 C8051 0.999 . S
H8055 C8036 0.913 . S
H8056 C8074 0.951 . S
H8057 C8076 0.951 . S
H8058 C8078 0.950 . S
H8059 C8079 0.950 . S
H8060 C8081 0.950 . S
H8061 C8084 0.950 . S
H8062 C8085 0.950 . S
H8063 C8087 0.950 . S
H8064 C8088 0.950 . S
H8065 C8089 0.951 . S
H8066 C8091 0.951 . S
H8067 C8093 0.950 . S
H8068 C8094 0.950 . S
H8069 C8096 0.950 . S
H8070 C8099 0.950 . S
H8071 C8100 0.950 . S
H8072 C8102 0.950 . S
H8073 C8103 0.950 . S
C8074 H8056 0.951 . S
C8074 C8075 1.366 . S
C8074 C8076 1.388 . S
C8075 C8074 1.366 . S
C8075 C8079 1.385 . S
C8076 H8057 0.951 . S
C8076 C8074 1.388 . S
C8076 C8077 1.366 . S
C8077 C8076 1.366 . S
C8077 C8078 1.414 . S
C8077 C8080 1.499 . S
C8078 H8058 0.950 . S
C8078 C8077 1.414 . S
C8078 C8079 1.374 . S
C8079 H8059 0.950 . S
C8079 C8075 1.385 . S
C8079 C8078 1.374 . S
C8080 C8077 1.499 . S
C8080 C8081 1.373 . S
C8080 C8082 1.389 . S
C8081 H8060 0.950 . S
C8081 C8080 1.373 . S
C8081 C8097 1.377 . S
C8082 C8080 1.389 . S
C8082 C8083 1.524 . S
C8082 C8096 1.377 . S
C8083 C8082 1.524 . S
C8083 C8084 1.397 . S
C8083 C8088 1.363 . S
C8084 H8061 0.950 . S
C8084 C8083 1.397 . S
C8084 C8085 1.334 . S
C8085 H8062 0.950 . S
C8085 C8084 1.334 . S
C8085 C8086 1.287 . S
C8086 C8085 1.287 . S
C8086 C8087 1.524 . S
C8086 H8105 0.913 . S
C8087 H8063 0.950 . S
C8087 C8086 1.524 . S
C8087 C8088 1.415 . S
C8088 H8064 0.950 . S
C8088 C8083 1.363 . S
C8088 C8087 1.415 . S
C8089 H8065 0.951 . S
C8089 C8090 1.366 . S
C8089 C8091 1.388 . S
C8090 C8089 1.366 . S
C8090 C8094 1.385 . S
C8091 H8066 0.951 . S
C8091 C8089 1.388 . S
C8091 C8092 1.366 . S
C8092 C8091 1.366 . S
C8092 C8093 1.414 . S
C8092 C8095 1.499 . S
C8093 H8067 0.950 . S
C8093 C8092 1.414 . S
C8093 C8094 1.374 . S
C8094 H8068 0.950 . S
C8094 C8090 1.385 . S
C8094 C8093 1.374 . S
C8095 C8092 1.499 . S
C8095 C8096 1.373 . S
C8095 C8097 1.389 . S
C8096 H8069 0.950 . S
C8096 C8082 1.377 . S
C8096 C8095 1.373 . S
C8097 C8081 1.377 . S
C8097 C8095 1.389 . S
C8097 C8098 1.524 . S
C8098 C8097 1.524 . S
C8098 C8099 1.397 . S
C8098 C8103 1.363 . S
C8099 H8070 0.950 . S
C8099 C8098 1.397 . S
C8099 C8100 1.334 . S
C8100 H8071 0.950 . S
C8100 C8099 1.334 . S
C8100 C8101 1.287 . S
C8101 C8100 1.287 . S
C8101 C8102 1.524 . S
C8101 H8104 0.999 . S
C8102 H8072 0.950 . S
C8102 C8101 1.524 . S
C8102 C8103 1.415 . S
C8103 H8073 0.950 . S
C8103 C8098 1.363 . S
C8103 C8102 1.415 . S
H8104 C8101 0.999 . S
H8105 C8086 0.913 . S
H8106 C8124 0.951 . S
H8107 C8126 0.951 . S
H8108 C8128 0.950 . S
H8109 C8129 0.950 . S
H8110 C8131 0.950 . S
H8111 C8134 0.950 . S
H8112 C8135 0.950 . S
H8113 C8137 0.950 . S
H8114 C8138 0.950 . S
H8115 C8139 0.951 . S
H8116 C8141 0.951 . S
H8117 C8143 0.950 . S
H8118 C8144 0.950 1_556 S
H8119 C8146 0.950 . S
H8120 C8149 0.950 . S
H8121 C8150 0.950 . S
H8122 C8152 0.950 . S
H8123 C8153 0.950 . S
C8124 H8106 0.951 . S
C8124 C8125 1.366 . S
C8124 C8126 1.388 . S
C8125 C8124 1.366 . S
C8125 C8129 1.385 . S
C8126 H8107 0.951 . S
C8126 C8124 1.388 . S
C8126 C8127 1.366 . S
C8127 C8126 1.366 . S
C8127 C8128 1.414 . S
C8127 C8130 1.499 . S
C8128 H8108 0.950 . S
C8128 C8127 1.414 . S
C8128 C8129 1.374 . S
C8129 H8109 0.950 . S
C8129 C8125 1.385 . S
C8129 C8128 1.374 . S
C8130 C8127 1.499 . S
C8130 C8131 1.373 . S
C8130 C8132 1.389 . S
C8131 H8110 0.950 . S
C8131 C8130 1.373 . S
C8131 C8147 1.377 . S
C8132 C8130 1.389 . S
C8132 C8133 1.524 . S
C8132 C8146 1.377 . S
C8133 C8132 1.524 . S
C8133 C8134 1.397 . S
C8133 C8138 1.363 . S
C8134 H8111 0.950 . S
C8134 C8133 1.397 . S
C8134 C8135 1.334 . S
C8135 H8112 0.950 . S
C8135 C8134 1.334 . S
C8135 C8136 1.287 . S
C8136 C8135 1.287 . S
C8136 C8137 1.524 . S
C8136 H8155 0.913 . S
C8137 H8113 0.950 . S
C8137 C8136 1.524 . S
C8137 C8138 1.415 . S
C8138 H8114 0.950 . S
C8138 C8133 1.363 . S
C8138 C8137 1.415 . S
C8139 H8115 0.951 . S
C8139 C8140 1.366 . S
C8139 C8141 1.388 . S
C8140 C8139 1.366 . S
C8140 C8144 1.385 . S
C8141 H8116 0.951 . S
C8141 C8139 1.388 . S
C8141 C8142 1.366 . S
C8142 C8141 1.366 . S
C8142 C8143 1.414 . S
C8142 C8145 1.499 . S
C8143 H8117 0.950 . S
C8143 C8142 1.414 . S
C8143 C8144 1.374 . S
C8144 H8118 0.950 1_554 S
C8144 C8140 1.385 . S
C8144 C8143 1.374 . S
C8145 C8142 1.499 . S
C8145 C8146 1.373 . S
C8145 C8147 1.389 . S
C8146 H8119 0.950 . S
C8146 C8132 1.377 . S
C8146 C8145 1.373 . S
C8147 C8131 1.377 . S
C8147 C8145 1.389 . S
C8147 C8148 1.524 . S
C8148 C8147 1.524 . S
C8148 C8149 1.397 1_554 S
C8148 C8153 1.363 . S
C8149 H8120 0.950 . S
C8149 C8148 1.397 1_556 S
C8149 C8150 1.334 . S
C8150 H8121 0.950 . S
C8150 C8149 1.334 . S
C8150 C8151 1.323 . S
C8151 C8150 1.323 . S
C8151 C8152 1.472 1_556 S
C8151 H8154 1.012 . S
C8152 H8122 0.950 . S
C8152 C8151 1.472 1_554 S
C8152 C8153 1.415 . S
C8153 H8123 0.950 . S
C8153 C8148 1.363 . S
C8153 C8152 1.415 . S
H8154 C8151 1.012 . S
H8155 C8136 0.913 . S
H8156 C8174 0.951 . S
H8157 C8176 0.951 . S
H8158 C8178 0.950 . S
H8159 C8179 0.950 . S
H8160 C8181 0.950 . S
H8161 C8184 0.950 . S
H8162 C8185 0.950 . S
H8163 C8187 0.950 . S
H8164 C8188 0.950 . S
H8165 C8189 0.951 . S
H8166 C8191 0.951 . S
H8167 C8193 0.950 . S
H8168 C8194 0.950 . S
H8169 C8196 0.950 . S
H8170 C8199 0.950 . S
H8171 C8200 0.950 . S
H8172 C8202 0.950 . S
H8173 C8203 0.950 . S
C8174 H8156 0.951 . S
C8174 C8175 1.366 . S
C8174 C8176 1.388 . S
C8175 C8174 1.366 . S
C8175 C8179 1.385 . S
C8176 H8157 0.951 . S
C8176 C8174 1.388 . S
C8176 C8177 1.366 . S
C8177 C8176 1.366 . S
C8177 C8178 1.414 . S
C8177 C8180 1.499 . S
C8178 H8158 0.950 . S
C8178 C8177 1.414 . S
C8178 C8179 1.374 . S
C8179 H8159 0.950 . S
C8179 C8175 1.385 . S
C8179 C8178 1.374 . S
C8180 C8177 1.499 . S
C8180 C8181 1.373 . S
C8180 C8182 1.389 . S
C8181 H8160 0.950 . S
C8181 C8180 1.373 . S
C8181 C8197 1.377 . S
C8182 C8180 1.389 . S
C8182 C8183 1.524 . S
C8182 C8196 1.377 . S
C8183 C8182 1.524 . S
C8183 C8184 1.397 . S
C8183 C8188 1.363 . S
C8184 H8161 0.950 . S
C8184 C8183 1.397 . S
C8184 C8185 1.334 . S
C8185 H8162 0.950 . S
C8185 C8184 1.334 . S
C8185 C8186 1.287 . S
C8186 C8185 1.287 . S
C8186 C8187 1.524 . S
C8186 H8205 0.913 . S
C8187 H8163 0.950 . S
C8187 C8186 1.524 . S
C8187 C8188 1.415 . S
C8188 H8164 0.950 . S
C8188 C8183 1.363 . S
C8188 C8187 1.415 . S
C8189 H8165 0.951 . S
C8189 C8190 1.366 . S
C8189 C8191 1.388 . S
C8190 C8189 1.366 . S
C8190 C8194 1.385 . S
C8191 H8166 0.951 . S
C8191 C8189 1.388 . S
C8191 C8192 1.366 . S
C8192 C8191 1.366 . S
C8192 C8193 1.414 . S
C8192 C8195 1.499 . S
C8193 H8167 0.950 . S
C8193 C8192 1.414 . S
C8193 C8194 1.374 . S
C8194 H8168 0.950 . S
C8194 C8190 1.385 . S
C8194 C8193 1.374 . S
C8195 C8192 1.499 . S
C8195 C8196 1.373 . S
C8195 C8197 1.389 . S
C8196 H8169 0.950 . S
C8196 C8182 1.377 . S
C8196 C8195 1.373 . S
C8197 C8181 1.377 . S
C8197 C8195 1.389 . S
C8197 C8198 1.524 . S
C8198 C8197 1.524 . S
C8198 C8199 1.397 . S
C8198 C8203 1.363 . S
C8199 H8170 0.950 . S
C8199 C8198 1.397 . S
C8199 C8200 1.334 . S
C8200 H8171 0.950 . S
C8200 C8199 1.334 . S
C8200 C8201 1.287 . S
C8201 C8200 1.287 . S
C8201 C8202 1.524 . S
C8201 H8204 0.999 . S
C8202 H8172 0.950 . S
C8202 C8201 1.524 . S
C8202 C8203 1.415 . S
C8203 H8173 0.950 . S
C8203 C8198 1.363 . S
C8203 C8202 1.415 . S
H8204 C8201 0.999 . S
H8205 C8186 0.913 . S
H8206 C8224 0.951 . S
H8207 C8226 0.951 . S
H8208 C8228 0.950 . S
H8209 C8229 0.950 . S
H8210 C8231 0.950 . S
H8211 C8234 0.950 . S
H8212 C8235 0.950 . S
H8213 C8237 0.950 . S
H8214 C8238 0.950 . S
H8215 C8239 0.951 . S
H8216 C8241 0.951 . S
H8217 C8243 0.950 . S
H8218 C8244 0.950 . S
H8219 C8246 0.950 . S
H8220 C8249 0.950 . S
H8221 C8250 0.950 . S
H8222 C8252 0.950 . S
H8223 C8253 0.950 . S
C8224 H8206 0.951 . S
C8224 C8225 1.366 . S
C8224 C8226 1.388 . S
C8225 C8224 1.366 . S
C8225 C8229 1.385 . S
C8226 H8207 0.951 . S
C8226 C8224 1.388 . S
C8226 C8227 1.366 . S
C8227 C8226 1.366 . S
C8227 C8228 1.414 . S
C8227 C8230 1.499 . S
C8228 H8208 0.950 . S
C8228 C8227 1.414 . S
C8228 C8229 1.374 . S
C8229 H8209 0.950 . S
C8229 C8225 1.385 . S
C8229 C8228 1.374 . S
C8230 C8227 1.499 . S
C8230 C8231 1.373 . S
C8230 C8232 1.389 . S
C8231 H8210 0.950 . S
C8231 C8230 1.373 . S
C8231 C8247 1.377 . S
C8232 C8230 1.389 . S
C8232 C8233 1.524 . S
C8232 C8246 1.377 . S
C8233 C8232 1.524 . S
C8233 C8234 1.397 . S
C8233 C8238 1.363 . S
C8234 H8211 0.950 . S
C8234 C8233 1.397 . S
C8234 C8235 1.334 . S
C8235 H8212 0.950 . S
C8235 C8234 1.334 . S
C8235 C8236 1.287 . S
C8236 C8235 1.287 . S
C8236 C8237 1.524 . S
C8236 H8255 0.913 . S
C8237 H8213 0.950 . S
C8237 C8236 1.524 . S
C8237 C8238 1.415 . S
C8238 H8214 0.950 . S
C8238 C8233 1.363 . S
C8238 C8237 1.415 . S
C8239 H8215 0.951 . S
C8239 C8240 1.366 . S
C8239 C8241 1.388 . S
C8240 C8239 1.366 . S
C8240 C8244 1.385 . S
C8241 H8216 0.951 . S
C8241 C8239 1.388 . S
C8241 C8242 1.366 . S
C8242 C8241 1.366 . S
C8242 C8243 1.414 . S
C8242 C8245 1.499 . S
C8243 H8217 0.950 . S
C8243 C8242 1.414 . S
C8243 C8244 1.374 . S
C8244 H8218 0.950 . S
C8244 C8240 1.385 . S
C8244 C8243 1.374 . S
C8245 C8242 1.499 . S
C8245 C8246 1.373 . S
C8245 C8247 1.389 . S
C8246 H8219 0.950 . S
C8246 C8232 1.377 . S
C8246 C8245 1.373 . S
C8247 C8231 1.377 . S
C8247 C8245 1.389 . S
C8247 C8248 1.524 . S
C8248 C8247 1.524 . S
C8248 C8249 1.397 . S
C8248 C8253 1.363 . S
C8249 H8220 0.950 . S
C8249 C8248 1.397 . S
C8249 C8250 1.334 . S
C8250 H8221 0.950 . S
C8250 C8249 1.334 . S
C8250 C8251 1.287 . S
C8251 C8250 1.287 . S
C8251 C8252 1.524 . S
C8251 H8254 0.999 . S
C8252 H8222 0.950 . S
C8252 C8251 1.524 . S
C8252 C8253 1.415 . S
C8253 H8223 0.950 . S
C8253 C8248 1.363 . S
C8253 C8252 1.415 . S
H8254 C8251 0.999 . S
H8255 C8236 0.913 . S
C3475 C665 1.429 . S
C3490 C2168 1.349 . S
C3525 C381 2.161 . S
C3540 C2259 2.123 . S
C3575 C460 1.423 . S
C3590 C2336 1.394 1_565 S
C3640 C2434 1.616 . S
C3625 C585 1.771 . S
C3675 C108 1.617 . S
C3690 C2518 1.527 . S
C3740 C2590 0.853 . S
C3725 C196 0.910 . S
C3790 C2679 0.540 . S
C3775 C313 0.546 . S
C3825 C49 1.048 . S
C3840 C2756 0.973 . S
C3890 C2175 1.857 . S
C3875 C1457 1.943 . S
C3925 C1545 0.369 . S
C3940 C2266 0.550 . S
C3990 C2343 1.142 . S
C3975 C1721 1.173 . S
C4040 C2420 1.558 . S
C4025 C1113 1.614 . S
C4075 C1428 2.015 . S
C4090 C2504 1.890 . S
C4140 C2606 0.992 . S
C4125 C1516 1.042 . S
C4190 C2686 0.659 . S
C4175 C1692 0.597 . S
C4240 C2763 1.187 . S
C4225 C1085 1.261 . S
C4290 C2182 1.413 . S
C4275 C988 1.547 . S
C4325 C1817 2.043 . S
C4340 C2847 1.970 . S
C4390 C2935 2.004 . S
C4375 C2081 2.171 . S
C4440 C3008 0.474 . S
C4425 C1993 0.234 . S
C4475 C761 0.495 . S
C4490 C2770 0.545 . S
C4525 C821 1.388 . S
C4540 C2350 1.322 . S
C4575 C2053 2.426 . S
C4590 C3099 2.345 . S
C4640 C3176 0.626 . S
C4625 C1868 0.587 . S
C4690 C2179 1.344 1_565 S
C4675 C372 1.428 . S
C4740 C3194 2.120 . S
C4725 C645 2.154 . S
C4775 C577 1.417 . S
C4790 C2347 1.389 . S
C4825 C497 1.769 . S
C4840 C3094 1.612 . S
C4890 C2506 1.525 . S
C4875 C57 1.616 . S
C4925 C293 0.905 . S
C4940 C2938 0.850 . S
C4990 C2690 0.533 . S
C4975 C205 0.546 . S
C5040 C3271 0.971 . S
C5025 C145 1.046 . S
C5090 C2186 1.852 . S
C5075 C909 1.937 1_545 S
C5140 C3178 0.550 . S
C5125 C1956 0.365 . S
C5175 C724 1.169 . S
C5190 C2354 1.139 . S
C5225 C1780 1.610 . S
C5240 C3103 1.543 . S
C5275 C937 2.016 . S
C5290 C2515 1.883 . S
C5340 C2931 0.988 . S
C5325 C1985 1.038 . S
C5375 C753 0.592 . S
C5390 C2674 0.654 . S
C5425 C1809 1.255 . S
C5440 C3278 1.188 . S
C5475 C1173 1.544 . S
C5490 C2170 1.411 . S
C5525 C1105 2.037 . S
C5540 C2858 1.970 . S
C5575 C1633 2.167 . S
C5590 C2588 2.000 . S
C5625 C1553 0.223 . S
C5640 C3019 0.479 . S
C5690 C3262 0.544 . S
C5675 C1729 0.486 . S
C5725 C1340 1.388 . S
C5740 C2338 1.319 1_565 S
C5790 C2438 2.341 . S
C5775 C1604 2.421 . S
C5840 C2263 0.621 . S
C5825 C1252 0.581 . S
C5875 C489 1.429 . S
C5890 C3344 1.350 . S
C5940 C3183 2.123 . S
C5925 C557 2.161 . S
C5975 C636 1.423 . S
C5990 C3428 1.395 . S
C6025 C409 1.772 1_655 S
C6040 C3106 1.616 . S
C6075 C284 1.617 . S
C6090 C2854 1.527 . S
C6140 C2926 0.856 . S
C6125 C20 0.911 . S
C6190 C3015 0.539 . S
C6175 C137 0.548 . S
C6240 C3260 0.975 . S
C6225 C225 1.049 . S
C6290 C3351 1.857 . S
C6275 C1641 1.943 . S
C6325 C1193 0.369 . S
C6340 C3190 0.550 . S
C6390 C3435 1.142 . S
C6375 C1289 1.174 . S
C6440 C3092 1.558 . S
C6425 C1377 1.614 . S
C6490 C2840 1.891 . S
C6475 C1613 2.016 . S
C6525 C1164 1.042 . S
C6540 C2942 0.994 . S
C6590 C3022 0.659 . S
C6575 C1261 0.597 . S
C6625 C1349 1.261 . S
C6640 C3267 1.187 . S
C6690 C3358 1.412 . S
C6675 C1965 1.547 . S
C6725 C849 2.042 . S
C6740 C2511 1.973 . S
C6790 C2599 2.005 . S
C6775 C929 2.179 . S
C6840 C2672 0.473 . S
C6825 C1017 0.231 . S
C6890 C3274 0.548 . S
C6875 C1897 0.493 . S
C6925 C1789 1.389 . S
C6940 C3442 1.316 . S
C6990 C2427 2.344 . S
C6975 C900 2.418 . S
C7040 C2252 0.625 . S
C7025 C733 0.588 . S
C7075 C548 1.428 . S
C7090 C3355 1.344 . S
C7140 C2270 2.120 . S
C7125 C469 2.155 . S
C7175 C401 1.418 . S
C7190 C3439 1.389 . S
C7225 C673 1.769 . S
C7240 C2422 1.612 . S
C7275 C233 1.616 . S
C7290 C2842 1.482 1_556 S
C7340 C2602 0.850 . S
C7325 C117 0.905 . S
C7375 C29 0.547 . S
C7390 C3026 0.533 . S
C7425 C321 1.046 . S
C7440 C2767 0.971 . S
C7490 C3362 1.853 . S
C7475 C2044 1.938 . S
C7525 C997 0.365 . S
C7540 C2254 0.552 . S
C7590 C3446 1.139 . S
C7575 C1877 1.169 . S
C7625 C812 1.610 . S
C7640 C2431 1.552 . S
C7675 C2073 2.015 . S
C7690 C2851 1.885 . S
C7740 C2595 0.988 . S
C7725 C1025 1.038 . S
C7775 C1905 0.592 . S
C7790 C3010 0.653 . S
C7840 C2774 1.181 . S
C7825 C841 1.255 . S
C7890 C3346 1.411 . S
C7875 C1525 1.544 . S
C7940 C2522 1.970 1_655 S
C7925 C1369 2.037 . S
C7975 C1465 2.167 . S
C7990 C2924 1.999 . S
C8040 C2683 0.476 . S
C8025 C1201 0.221 . S
C8075 C1281 0.489 . S
C8090 C2758 0.542 . S
C8125 C1076 1.388 . S
C8140 C3430 1.320 . S
C8190 C3110 2.341 . S
C8175 C1437 2.421 1_565 S
C8240 C3187 0.621 . S
C8225 C1701 0.581 . S
