# Generated by pormake.
# Topology gar, (4,6)-cn, num edge types: 1
# Building blocks:
#     Node 0, Type 0, BuildingBlock: QUQFOY_clean_sbu_1, # of connection points: 4
#     Node 1, Type 0, BuildingBlock: QUQFOY_clean_sbu_1, # of connection points: 4
#     Node 2, Type 0, BuildingBlock: QUQFOY_clean_sbu_1, # of connection points: 4
#     Node 3, Type 0, BuildingBlock: QUQFOY_clean_sbu_1, # of connection points: 4
#     Node 4, Type 0, BuildingBlock: QUQFOY_clean_sbu_1, # of connection points: 4
#     Node 5, Type 0, BuildingBlock: QUQFOY_clean_sbu_1, # of connection points: 4
#     Node 6, Type 0, BuildingBlock: QUQFOY_clean_sbu_1, # of connection points: 4
#     Node 7, Type 0, BuildingBlock: QUQFOY_clean_sbu_1, # of connection points: 4
#     Node 8, Type 0, BuildingBlock: QUQFOY_clean_sbu_1, # of connection points: 4
#     Node 9, Type 0, BuildingBlock: QUQFOY_clean_sbu_1, # of connection points: 4
#     Node 10, Type 0, BuildingBlock: QUQFOY_clean_sbu_1, # of connection points: 4
#     Node 11, Type 0, BuildingBlock: QUQFOY_clean_sbu_1, # of connection points: 4
#     Node 12, Type 0, BuildingBlock: QUQFOY_clean_sbu_1, # of connection points: 4
#     Node 13, Type 0, BuildingBlock: QUQFOY_clean_sbu_1, # of connection points: 4
#     Node 14, Type 0, BuildingBlock: QUQFOY_clean_sbu_1, # of connection points: 4
#     Node 15, Type 0, BuildingBlock: QUQFOY_clean_sbu_1, # of connection points: 4
#     Node 16, Type 0, BuildingBlock: QUQFOY_clean_sbu_1, # of connection points: 4
#     Node 17, Type 0, BuildingBlock: QUQFOY_clean_sbu_1, # of connection points: 4
#     Node 18, Type 0, BuildingBlock: QUQFOY_clean_sbu_1, # of connection points: 4
#     Node 19, Type 0, BuildingBlock: QUQFOY_clean_sbu_1, # of connection points: 4
#     Node 20, Type 0, BuildingBlock: QUQFOY_clean_sbu_1, # of connection points: 4
#     Node 21, Type 0, BuildingBlock: QUQFOY_clean_sbu_1, # of connection points: 4
#     Node 22, Type 0, BuildingBlock: QUQFOY_clean_sbu_1, # of connection points: 4
#     Node 23, Type 0, BuildingBlock: QUQFOY_clean_sbu_1, # of connection points: 4
#     Node 24, Type 1, BuildingBlock: BETFEN_clean_sbu_0, # of connection points: 6
#     Node 25, Type 1, BuildingBlock: BETFEN_clean_sbu_0, # of connection points: 6
#     Node 26, Type 1, BuildingBlock: BETFEN_clean_sbu_0, # of connection points: 6
#     Node 27, Type 1, BuildingBlock: BETFEN_clean_sbu_0, # of connection points: 6
#     Node 28, Type 1, BuildingBlock: BETFEN_clean_sbu_0, # of connection points: 6
#     Node 29, Type 1, BuildingBlock: BETFEN_clean_sbu_0, # of connection points: 6
#     Node 30, Type 1, BuildingBlock: BETFEN_clean_sbu_0, # of connection points: 6
#     Node 31, Type 1, BuildingBlock: BETFEN_clean_sbu_0, # of connection points: 6
#     Node 32, Type 1, BuildingBlock: BETFEN_clean_sbu_0, # of connection points: 6
#     Node 33, Type 1, BuildingBlock: BETFEN_clean_sbu_0, # of connection points: 6
#     Node 34, Type 1, BuildingBlock: BETFEN_clean_sbu_0, # of connection points: 6
#     Node 35, Type 1, BuildingBlock: BETFEN_clean_sbu_0, # of connection points: 6
#     Node 36, Type 1, BuildingBlock: BETFEN_clean_sbu_0, # of connection points: 6
#     Node 37, Type 1, BuildingBlock: BETFEN_clean_sbu_0, # of connection points: 6
#     Node 38, Type 1, BuildingBlock: BETFEN_clean_sbu_0, # of connection points: 6
#     Node 39, Type 1, BuildingBlock: BETFEN_clean_sbu_0, # of connection points: 6
#     Edge 40, Type (0, 1), BuildingBlock: TEMPAE_clean_linker_10, # of connection points: 2
#     Edge 41, Type (0, 1), BuildingBlock: TEMPAE_clean_linker_10, # of connection points: 2
#     Edge 42, Type (0, 1), BuildingBlock: TEMPAE_clean_linker_10, # of connection points: 2
#     Edge 43, Type (0, 1), BuildingBlock: TEMPAE_clean_linker_10, # of connection points: 2
#     Edge 44, Type (0, 1), BuildingBlock: TEMPAE_clean_linker_10, # of connection points: 2
#     Edge 45, Type (0, 1), BuildingBlock: TEMPAE_clean_linker_10, # of connection points: 2
#     Edge 46, Type (0, 1), BuildingBlock: TEMPAE_clean_linker_10, # of connection points: 2
#     Edge 47, Type (0, 1), BuildingBlock: TEMPAE_clean_linker_10, # of connection points: 2
#     Edge 48, Type (0, 1), BuildingBlock: TEMPAE_clean_linker_10, # of connection points: 2
#     Edge 49, Type (0, 1), BuildingBlock: TEMPAE_clean_linker_10, # of connection points: 2
#     Edge 50, Type (0, 1), BuildingBlock: TEMPAE_clean_linker_10, # of connection points: 2
#     Edge 51, Type (0, 1), BuildingBlock: TEMPAE_clean_linker_10, # of connection points: 2
#     Edge 52, Type (0, 1), BuildingBlock: TEMPAE_clean_linker_10, # of connection points: 2
#     Edge 53, Type (0, 1), BuildingBlock: TEMPAE_clean_linker_10, # of connection points: 2
#     Edge 54, Type (0, 1), BuildingBlock: TEMPAE_clean_linker_10, # of connection points: 2
#     Edge 55, Type (0, 1), BuildingBlock: TEMPAE_clean_linker_10, # of connection points: 2
#     Edge 56, Type (0, 1), BuildingBlock: TEMPAE_clean_linker_10, # of connection points: 2
#     Edge 57, Type (0, 1), BuildingBlock: TEMPAE_clean_linker_10, # of connection points: 2
#     Edge 58, Type (0, 1), BuildingBlock: TEMPAE_clean_linker_10, # of connection points: 2
#     Edge 59, Type (0, 1), BuildingBlock: TEMPAE_clean_linker_10, # of connection points: 2
#     Edge 60, Type (0, 1), BuildingBlock: TEMPAE_clean_linker_10, # of connection points: 2
#     Edge 61, Type (0, 1), BuildingBlock: TEMPAE_clean_linker_10, # of connection points: 2
#     Edge 62, Type (0, 1), BuildingBlock: TEMPAE_clean_linker_10, # of connection points: 2
#     Edge 63, Type (0, 1), BuildingBlock: TEMPAE_clean_linker_10, # of connection points: 2
#     Edge 64, Type (0, 1), BuildingBlock: TEMPAE_clean_linker_10, # of connection points: 2
#     Edge 65, Type (0, 1), BuildingBlock: TEMPAE_clean_linker_10, # of connection points: 2
#     Edge 66, Type (0, 1), BuildingBlock: TEMPAE_clean_linker_10, # of connection points: 2
#     Edge 67, Type (0, 1), BuildingBlock: TEMPAE_clean_linker_10, # of connection points: 2
#     Edge 68, Type (0, 1), BuildingBlock: TEMPAE_clean_linker_10, # of connection points: 2
#     Edge 69, Type (0, 1), BuildingBlock: TEMPAE_clean_linker_10, # of connection points: 2
#     Edge 70, Type (0, 1), BuildingBlock: TEMPAE_clean_linker_10, # of connection points: 2
#     Edge 71, Type (0, 1), BuildingBlock: TEMPAE_clean_linker_10, # of connection points: 2
#     Edge 72, Type (0, 1), BuildingBlock: TEMPAE_clean_linker_10, # of connection points: 2
#     Edge 73, Type (0, 1), BuildingBlock: TEMPAE_clean_linker_10, # of connection points: 2
#     Edge 74, Type (0, 1), BuildingBlock: TEMPAE_clean_linker_10, # of connection points: 2
#     Edge 75, Type (0, 1), BuildingBlock: TEMPAE_clean_linker_10, # of connection points: 2
#     Edge 76, Type (0, 1), BuildingBlock: TEMPAE_clean_linker_10, # of connection points: 2
#     Edge 77, Type (0, 1), BuildingBlock: TEMPAE_clean_linker_10, # of connection points: 2
#     Edge 78, Type (0, 1), BuildingBlock: TEMPAE_clean_linker_10, # of connection points: 2
#     Edge 79, Type (0, 1), BuildingBlock: TEMPAE_clean_linker_10, # of connection points: 2
#     Edge 80, Type (0, 1), BuildingBlock: TEMPAE_clean_linker_10, # of connection points: 2
#     Edge 81, Type (0, 1), BuildingBlock: TEMPAE_clean_linker_10, # of connection points: 2
#     Edge 82, Type (0, 1), BuildingBlock: TEMPAE_clean_linker_10, # of connection points: 2
#     Edge 83, Type (0, 1), BuildingBlock: TEMPAE_clean_linker_10, # of connection points: 2
#     Edge 84, Type (0, 1), BuildingBlock: TEMPAE_clean_linker_10, # of connection points: 2
#     Edge 85, Type (0, 1), BuildingBlock: TEMPAE_clean_linker_10, # of connection points: 2
#     Edge 86, Type (0, 1), BuildingBlock: TEMPAE_clean_linker_10, # of connection points: 2
#     Edge 87, Type (0, 1), BuildingBlock: TEMPAE_clean_linker_10, # of connection points: 2
#     Edge 88, Type (0, 1), BuildingBlock: TEMPAE_clean_linker_10, # of connection points: 2
#     Edge 89, Type (0, 1), BuildingBlock: TEMPAE_clean_linker_10, # of connection points: 2
#     Edge 90, Type (0, 1), BuildingBlock: TEMPAE_clean_linker_10, # of connection points: 2
#     Edge 91, Type (0, 1), BuildingBlock: TEMPAE_clean_linker_10, # of connection points: 2
#     Edge 92, Type (0, 1), BuildingBlock: TEMPAE_clean_linker_10, # of connection points: 2
#     Edge 93, Type (0, 1), BuildingBlock: TEMPAE_clean_linker_10, # of connection points: 2
#     Edge 94, Type (0, 1), BuildingBlock: TEMPAE_clean_linker_10, # of connection points: 2
#     Edge 95, Type (0, 1), BuildingBlock: TEMPAE_clean_linker_10, # of connection points: 2
#     Edge 96, Type (0, 1), BuildingBlock: TEMPAE_clean_linker_10, # of connection points: 2
#     Edge 97, Type (0, 1), BuildingBlock: TEMPAE_clean_linker_10, # of connection points: 2
#     Edge 98, Type (0, 1), BuildingBlock: TEMPAE_clean_linker_10, # of connection points: 2
#     Edge 99, Type (0, 1), BuildingBlock: TEMPAE_clean_linker_10, # of connection points: 2
#     Edge 100, Type (0, 1), BuildingBlock: TEMPAE_clean_linker_10, # of connection points: 2
#     Edge 101, Type (0, 1), BuildingBlock: TEMPAE_clean_linker_10, # of connection points: 2
#     Edge 102, Type (0, 1), BuildingBlock: TEMPAE_clean_linker_10, # of connection points: 2
#     Edge 103, Type (0, 1), BuildingBlock: TEMPAE_clean_linker_10, # of connection points: 2
#     Edge 104, Type (0, 1), BuildingBlock: TEMPAE_clean_linker_10, # of connection points: 2
#     Edge 105, Type (0, 1), BuildingBlock: TEMPAE_clean_linker_10, # of connection points: 2
#     Edge 106, Type (0, 1), BuildingBlock: TEMPAE_clean_linker_10, # of connection points: 2
#     Edge 107, Type (0, 1), BuildingBlock: TEMPAE_clean_linker_10, # of connection points: 2
#     Edge 108, Type (0, 1), BuildingBlock: TEMPAE_clean_linker_10, # of connection points: 2
#     Edge 109, Type (0, 1), BuildingBlock: TEMPAE_clean_linker_10, # of connection points: 2
#     Edge 110, Type (0, 1), BuildingBlock: TEMPAE_clean_linker_10, # of connection points: 2
#     Edge 111, Type (0, 1), BuildingBlock: TEMPAE_clean_linker_10, # of connection points: 2
#     Edge 112, Type (0, 1), BuildingBlock: TEMPAE_clean_linker_10, # of connection points: 2
#     Edge 113, Type (0, 1), BuildingBlock: TEMPAE_clean_linker_10, # of connection points: 2
#     Edge 114, Type (0, 1), BuildingBlock: TEMPAE_clean_linker_10, # of connection points: 2
#     Edge 115, Type (0, 1), BuildingBlock: TEMPAE_clean_linker_10, # of connection points: 2
#     Edge 116, Type (0, 1), BuildingBlock: TEMPAE_clean_linker_10, # of connection points: 2
#     Edge 117, Type (0, 1), BuildingBlock: TEMPAE_clean_linker_10, # of connection points: 2
#     Edge 118, Type (0, 1), BuildingBlock: TEMPAE_clean_linker_10, # of connection points: 2
#     Edge 119, Type (0, 1), BuildingBlock: TEMPAE_clean_linker_10, # of connection points: 2
#     Edge 120, Type (0, 1), BuildingBlock: TEMPAE_clean_linker_10, # of connection points: 2
#     Edge 121, Type (0, 1), BuildingBlock: TEMPAE_clean_linker_10, # of connection points: 2
#     Edge 122, Type (0, 1), BuildingBlock: TEMPAE_clean_linker_10, # of connection points: 2
#     Edge 123, Type (0, 1), BuildingBlock: TEMPAE_clean_linker_10, # of connection points: 2
#     Edge 124, Type (0, 1), BuildingBlock: TEMPAE_clean_linker_10, # of connection points: 2
#     Edge 125, Type (0, 1), BuildingBlock: TEMPAE_clean_linker_10, # of connection points: 2
#     Edge 126, Type (0, 1), BuildingBlock: TEMPAE_clean_linker_10, # of connection points: 2
#     Edge 127, Type (0, 1), BuildingBlock: TEMPAE_clean_linker_10, # of connection points: 2
#     Edge 128, Type (0, 1), BuildingBlock: TEMPAE_clean_linker_10, # of connection points: 2
#     Edge 129, Type (0, 1), BuildingBlock: TEMPAE_clean_linker_10, # of connection points: 2
#     Edge 130, Type (0, 1), BuildingBlock: TEMPAE_clean_linker_10, # of connection points: 2
#     Edge 131, Type (0, 1), BuildingBlock: TEMPAE_clean_linker_10, # of connection points: 2
#     Edge 132, Type (0, 1), BuildingBlock: TEMPAE_clean_linker_10, # of connection points: 2
#     Edge 133, Type (0, 1), BuildingBlock: TEMPAE_clean_linker_10, # of connection points: 2
#     Edge 134, Type (0, 1), BuildingBlock: TEMPAE_clean_linker_10, # of connection points: 2
#     Edge 135, Type (0, 1), BuildingBlock: TEMPAE_clean_linker_10, # of connection points: 2
# Relax obj value: 0.205
# Max RMSD: 0.320
# Mean RMSD: 0.189
data_MOF--net-gar--node1-QUQFOY_clean_sbu_1--node2-BETFEN_clean_sbu_0--edge1-TEMPAE_clean_linker_10
_symmetry_space_group_name_H-M    P1
_symmetry_Int_Tables_number       1
_symmetry_cell_setting            triclinic
loop_
_symmetry_equiv_pos_as_xyz
'x, y, z'
_cell_length_a     65.32034
_cell_length_b     58.157441
_cell_length_c     58.286611
_cell_angle_alpha  94.785481
_cell_angle_beta   99.119361
_cell_angle_gamma 104.96526
loop_
_atom_site_label
_atom_site_type_symbol
_atom_site_fract_x
_atom_site_fract_y
_atom_site_fract_z
_atom_type_partial_charge
O0 O 0.03388 0.27573 0.43673 0.0
Cd1 Cd 0.03392 0.30072 0.41325 0.0
Cd2 Cd 0.02226 0.32415 0.45354 0.0
O3 O 0.0281 0.29415 0.46886 0.0
O4 O 0.04551 0.28666 0.38718 0.0
O5 O 0.06308 0.32108 0.40887 0.0
C6 C 0.06255 0.30459 0.39233 0.0
C7 C 0.03623 0.36471 0.47148 0.0
C8 C 0.03194 0.27606 0.45815 0.0
C9 C 0.99053 0.31217 0.40678 0.0
O10 O 0.99415 0.31851 0.42882 0.0
O11 O 1.00474 0.30581 0.39709 0.0
O12 O 0.0206 0.34988 0.47817 0.0
O13 O 0.04495 0.35619 0.45552 0.0
O14 O 0.06467 0.79306 0.64258 0.0
Cd15 Cd 0.07053 0.82388 0.66647 0.0
Cd16 Cd 0.0907 0.84542 0.63182 0.0
O17 O 0.07983 0.80988 0.61451 0.0
O18 O 0.05097 0.81558 0.68986 0.0
O19 O 0.04879 0.84337 0.66683 0.0
C20 C 0.04173 0.83161 0.68316 0.0
C21 C 0.08396 0.87954 0.61502 0.0
C22 C 0.07018 0.79111 0.62263 0.0
C23 C 0.11904 0.84597 0.67876 0.0
O24 O 0.11801 0.85141 0.65794 0.0
O25 O 0.10185 0.83589 0.68588 0.0
O26 O 0.09803 0.86941 0.60889 0.0
O27 O 0.07311 0.86985 0.63016 0.0
O28 O 0.5751 0.82055 0.92685 0.0
Cd29 Cd 0.55572 0.82059 0.95173 0.0
Cd30 Cd 0.53071 0.83566 0.91095 0.0
O31 O 0.55517 0.82769 0.89534 0.0
O32 O 0.56805 0.80204 0.97564 0.0
O33 O 0.53512 0.7884 0.9549 0.0
C34 C 0.55051 0.78475 0.96978 0.0
C35 C 0.49543 0.82675 0.88848 0.0
C36 C 0.57218 0.82289 0.90517 0.0
C37 C 0.54796 0.87032 0.95734 0.0
O38 O 0.53858 0.86578 0.93591 0.0
O39 O 0.55529 0.85458 0.96744 0.0
O40 O 0.51105 0.84369 0.88451 0.0
O41 O 0.49987 0.8142 0.90488 0.0
O42 O 0.56741 0.29332 0.14393 0.0
Cd43 Cd 0.57399 0.32385 0.16833 0.0
Cd44 Cd 0.59483 0.34548 0.13469 0.0
O45 O 0.58325 0.31031 0.11638 0.0
O46 O 0.55338 0.31624 0.19077 0.0
O47 O 0.55343 0.34477 0.16813 0.0
C48 C 0.54522 0.33302 0.18388 0.0
C49 C 0.58817 0.38029 0.11929 0.0
C50 C 0.57295 0.29153 0.12398 0.0
C51 C 0.62257 0.34449 0.18163 0.0
O52 O 0.62194 0.35039 0.16099 0.0
O53 O 0.60512 0.3346 0.18837 0.0
O54 O 0.60229 0.3705 0.11272 0.0
O55 O 0.5773 0.36994 0.13409 0.0
O56 O 0.08257 0.80968 0.15392 0.0
Cd57 Cd 0.08975 0.84196 0.17544 0.0
Cd58 Cd 0.10882 0.85882 0.13942 0.0
O59 O 0.09563 0.82325 0.12347 0.0
O60 O 0.07028 0.83546 0.19899 0.0
O61 O 0.0682 0.86165 0.17407 0.0
C62 C 0.06083 0.85072 0.19071 0.0
C63 C 0.10031 0.89161 0.12205 0.0
C64 C 0.08629 0.80578 0.13338 0.0
C65 C 0.13835 0.86076 0.18584 0.0
O66 O 0.13705 0.86406 0.16433 0.0
O67 O 0.12124 0.85362 0.1942 0.0
O68 O 0.11361 0.88107 0.1146 0.0
O69 O 0.09173 0.8835 0.13932 0.0
O70 O 0.56634 0.81406 0.42613 0.0
Cd71 Cd 0.54497 0.81303 0.44912 0.0
Cd72 Cd 0.52117 0.8252 0.40502 0.0
O73 O 0.54649 0.81623 0.39226 0.0
O74 O 0.55794 0.79898 0.47661 0.0
O75 O 0.52748 0.77953 0.45294 0.0
C76 C 0.54242 0.77954 0.47037 0.0
C77 C 0.48668 0.81705 0.38065 0.0
C78 C 0.56396 0.81408 0.40401 0.0
C79 C 0.53563 0.8617 0.44998 0.0
O80 O 0.52901 0.85659 0.42794 0.0
O81 O 0.54082 0.8461 0.4622 0.0
O82 O 0.50318 0.83287 0.37681 0.0
O83 O 0.48982 0.80497 0.39786 0.0
O84 O 0.58438 0.30593 0.659 0.0
Cd85 Cd 0.59138 0.3381 0.68069 0.0
Cd86 Cd 0.61033 0.35543 0.64489 0.0
O87 O 0.59733 0.31993 0.62864 0.0
O88 O 0.57158 0.33172 0.70394 0.0
O89 O 0.56983 0.35775 0.67877 0.0
C90 C 0.56223 0.34694 0.69535 0.0
C91 C 0.60121 0.38817 0.62804 0.0
C92 C 0.58805 0.30229 0.63839 0.0
C93 C 0.63992 0.35768 0.69137 0.0
O94 O 0.6386 0.36095 0.66986 0.0
O95 O 0.62281 0.35021 0.69965 0.0
O96 O 0.61476 0.37816 0.62041 0.0
O97 O 0.59274 0.37956 0.64518 0.0
O98 O 0.02627 0.27005 0.93281 0.0
Cd99 Cd 0.02615 0.29573 0.91009 0.0
Cd100 Cd 0.01483 0.31866 0.94866 0.0
O101 O 0.02278 0.29031 0.965 0.0
O102 O 0.04061 0.28544 0.8848 0.0
O103 O 0.05494 0.31899 0.90914 0.0
C104 C 0.05655 0.30433 0.89203 0.0
C105 C 0.02868 0.35925 0.96526 0.0
C106 C 0.02591 0.27164 0.95465 0.0
C107 C 0.98263 0.30628 0.90264 0.0
O108 O 0.98606 0.31238 0.92471 0.0
O109 O 0.99703 0.30014 0.89315 0.0
O110 O 1.01389 0.34453 0.97327 0.0
O111 O 0.03657 0.35058 0.94862 0.0
O112 O 0.49541 0.20439 0.28502 0.0
Cd113 Cd 0.47243 0.19399 0.30549 0.0
Cd114 Cd 0.51063 0.18313 0.3314 0.0
O115 O 0.52536 0.20341 0.30818 0.0
O116 O 0.44629 0.19698 0.28475 0.0
O117 O 0.45855 0.21747 0.32002 0.0
C118 C 0.44401 0.21175 0.30116 0.0
C119 C 0.52846 0.18251 0.36932 0.0
C120 C 0.51579 0.20816 0.28915 0.0
C121 C 0.47118 0.14281 0.31217 0.0
O122 O 0.49149 0.1491 0.3187 0.0
O123 O 0.461 0.15836 0.30849 0.0
O124 O 0.5348 0.17485 0.35108 0.0
O125 O 0.51301 0.19267 0.36609 0.0
O126 O 0.29749 0.23091 0.56535 0.0
Cd127 Cd 0.29064 0.20635 0.53554 0.0
Cd128 Cd 0.27303 0.24124 0.51641 0.0
O129 O 0.28447 0.25928 0.55094 0.0
O130 O 0.30787 0.18333 0.54452 0.0
O131 O 0.31354 0.20519 0.51586 0.0
C132 C 0.31888 0.18969 0.5285 0.0
C133 C 0.28242 0.25902 0.48267 0.0
C134 C 0.29351 0.25114 0.56833 0.0
C135 C 0.24219 0.19227 0.51782 0.0
O136 O 0.24446 0.21338 0.51211 0.0
O137 O 0.25863 0.18578 0.52659 0.0
O138 O 0.26845 0.26485 0.49367 0.0
O139 O 0.2915 0.24343 0.49109 0.0
O140 O 0.21587 0.096 0.83596 0.0
Cd141 Cd 0.23277 0.11113 0.86905 0.0
Cd142 Cd 0.19834 0.12479 0.87443 0.0
O143 O 0.18682 0.10647 0.84147 0.0
O144 O 0.25798 0.09798 0.87335 0.0
O145 O 0.23223 0.0895 0.89441 0.0
C146 C 0.24992 0.08644 0.88921 0.0
C147 C 0.17569 0.11258 0.90063 0.0
C148 C 0.19655 0.09612 0.82855 0.0
C149 C 0.23762 0.16438 0.8751 0.0
O150 O 0.21775 0.15948 0.87643 0.0
O151 O 0.24669 0.14761 0.87332 0.0
O152 O 0.17154 0.12642 0.88542 0.0
O153 O 0.19364 0.10684 0.90202 0.0
O154 O 0.31937 0.93897 0.08945 0.0
Cd155 Cd 0.32114 0.96189 0.06393 0.0
Cd156 Cd 0.33256 0.92207 0.04139 0.0
O157 O 0.32519 0.90673 0.07175 0.0
O158 O 0.30958 0.98777 0.07734 0.0
O159 O 0.29376 0.96501 0.04386 0.0
C160 C 0.29388 0.98204 0.05965 0.0
C161 C 0.32025 0.90294 1.00201 0.0
C162 C 0.32114 0.91769 0.08972 0.0
C163 C 0.36599 0.97092 0.05247 0.0
O164 O 0.36164 0.94846 0.04606 0.0
O165 O 0.35169 0.97999 0.05887 0.0
O166 O 0.33459 0.89693 0.01633 0.0
O167 O 0.31177 0.9188 0.01042 0.0
O168 O 0.32322 0.42847 0.10005 0.0
Cd169 Cd 0.32713 0.45449 0.07757 0.0
Cd170 Cd 0.33861 0.41694 0.05091 0.0
O171 O 0.331 0.39888 0.07987 0.0
O172 O 0.31326 0.47871 0.0901 0.0
O173 O 0.30041 0.4566 0.05567 0.0
C174 C 0.29858 0.4726 0.0714 0.0
C175 C 0.32643 0.40052 0.01099 0.0
C176 C 0.32533 0.40728 0.0981 0.0
C177 C 0.37188 0.4658 0.06497 0.0
O178 O 0.36709 0.44417 0.05539 0.0
O179 O 0.35836 0.47359 0.07466 0.0
O180 O 0.34079 0.39361 0.0244 0.0
O181 O 0.3177 0.41543 0.02069 0.0
O182 O 0.81434 0.23345 0.08908 0.0
Cd183 Cd 0.80853 0.20863 0.05926 0.0
Cd184 Cd 0.79234 0.24496 0.03903 0.0
O185 O 0.8037 0.26282 0.07345 0.0
O186 O 0.82373 0.18398 0.06885 0.0
O187 O 0.83223 0.20621 0.04113 0.0
C188 C 0.83558 0.18956 0.05336 0.0
C189 C 0.79847 0.26207 1.00418 0.0
C190 C 0.81118 0.25419 0.09139 0.0
C191 C 0.76072 0.19644 0.03908 0.0
O192 O 0.76376 0.21807 0.03491 0.0
O193 O 0.77657 0.18888 0.04764 0.0
O194 O 0.78575 0.26817 0.01686 0.0
O195 O 0.80879 0.24725 0.01197 0.0
O196 O 0.14287 0.47456 0.18889 0.0
Cd197 Cd 0.17009 0.48015 0.21433 0.0
Cd198 Cd 0.14951 0.49967 0.2433 0.0
O199 O 0.12812 0.49479 0.21198 0.0
O200 O 0.18586 0.45537 0.21259 0.0
O201 O 0.17229 0.46496 0.24361 0.0
C202 C 0.1839 0.45331 0.23413 0.0
C203 C 0.13362 0.49806 0.27683 0.0
C204 C 0.12795 0.48419 0.19195 0.0
C205 C 0.19221 0.52954 0.23398 0.0
O206 O 0.17806 0.52641 0.24696 0.0
O207 O 0.19137 0.5133 0.21765 0.0
O208 O 0.13445 0.51532 0.26431 0.0
O209 O 0.14183 0.48122 0.27033 0.0
O210 O 0.82346 0.93183 0.59846 0.0
Cd211 Cd 0.82681 0.95555 0.57331 0.0
Cd212 Cd 0.84151 0.91828 0.55318 0.0
O213 O 0.83111 0.90068 0.58099 0.0
O214 O 0.81298 0.98041 0.58448 0.0
O215 O 0.79941 0.95604 0.55146 0.0
C216 C 0.79783 0.973 0.5663 0.0
C217 C 0.83032 0.90332 0.51283 0.0
C218 C 0.82517 0.91047 0.59825 0.0
C219 C 0.87338 0.96693 0.56546 0.0
O220 O 0.87074 0.94445 0.56111 0.0
O221 O 0.85758 0.97506 0.56884 0.0
O222 O 0.84358 0.89511 0.52646 0.0
O223 O 0.82232 0.91903 0.52241 0.0
O224 O 0.91229 0.05838 0.15334 0.0
Cd225 Cd 0.88693 0.04932 0.17108 0.0
Cd226 Cd 0.91759 0.0489 0.20887 0.0
O227 O 0.93641 0.06217 0.18544 0.0
O228 O 0.86506 0.06678 0.16184 0.0
O229 O 0.88685 0.07411 0.19655 0.0
C230 C 0.87154 0.07891 0.18252 0.0
C231 C 0.93261 0.06418 0.24788 0.0
C232 C 0.93183 0.06432 0.16389 0.0
C233 C 0.88113 1.00343 0.19145 0.0
O234 O 0.8991 0.01375 0.20479 0.0
O235 O 0.87277 0.01449 0.17628 0.0
O236 O 0.93986 0.04925 0.23624 0.0
O237 O 0.9167 0.07091 0.23719 0.0
O238 O 0.31552 0.73339 0.58338 0.0
Cd239 Cd 0.3103 0.70838 0.55378 0.0
Cd240 Cd 0.2936 0.74506 0.53277 0.0
O241 O 0.30383 0.76216 0.56764 0.0
O242 O 0.32553 0.68396 0.56427 0.0
O243 O 0.33454 0.70579 0.53646 0.0
C244 C 0.33779 0.68942 0.54914 0.0
C245 C 0.29969 0.76386 0.49863 0.0
C246 C 0.31158 0.75375 0.58562 0.0
C247 C 0.26255 0.69572 0.5321 0.0
O248 O 0.26552 0.71725 0.52761 0.0
O249 O 0.27835 0.6885 0.54151 0.0
O250 O 0.28637 0.76862 0.51121 0.0
O251 O 0.31058 0.74942 0.5061 0.0
O252 O 0.41594 0.56385 0.65443 0.0
Cd253 Cd 0.39091 0.55567 0.67262 0.0
Cd254 Cd 0.42184 0.55674 0.71081 0.0
O255 O 0.43996 0.57114 0.68711 0.0
O256 O 0.36821 0.57115 0.66097 0.0
O257 O 0.39002 0.58237 0.69568 0.0
C258 C 0.37444 0.58531 0.68056 0.0
C259 C 0.4373 0.57238 0.74961 0.0
C260 C 0.43535 0.57177 0.66524 0.0
C261 C 0.38625 0.5105 0.69441 0.0
O262 O 0.40454 0.521 0.70706 0.0
O263 O 0.37732 0.52137 0.67951 0.0
O264 O 0.44523 0.55849 0.73752 0.0
O265 O 0.42035 0.57773 0.73959 0.0
O266 O 0.63775 0.96948 0.68841 0.0
Cd267 Cd 0.66508 0.97421 0.71335 0.0
Cd268 Cd 0.64536 0.9933 0.74365 0.0
O269 O 0.62434 0.99045 0.71236 0.0
O270 O 0.68045 0.94906 0.71147 0.0
O271 O 0.66674 0.95862 0.74239 0.0
C272 C 0.67832 0.9469 0.73295 0.0
C273 C 0.62926 0.99184 0.77699 0.0
C274 C 0.62351 0.97996 0.69207 0.0
C275 C 0.68872 0.02223 0.73526 0.0
O276 O 0.67503 0.01847 0.74875 0.0
O277 O 0.68672 1.00724 0.7174 0.0
O278 O 0.63119 0.00965 0.76509 0.0
O279 O 0.63635 0.97428 0.76987 0.0
O280 O 0.79937 0.73187 0.06681 0.0
Cd281 Cd 0.79295 0.70672 0.03751 0.0
Cd282 Cd 0.77405 0.74045 0.01765 0.0
O283 O 0.78472 0.75895 0.052 0.0
O284 O 0.81092 0.68456 0.0471 0.0
O285 O 0.81577 0.70555 0.0177 0.0
C286 C 0.82161 0.69061 0.03076 0.0
C287 C 0.78267 0.75832 0.98372 0.0
C288 C 0.79439 0.75156 0.06951 0.0
C289 C 0.74449 0.69101 0.02012 0.0
O290 O 0.74621 0.71175 0.01366 0.0
O291 O 0.76123 0.68528 0.02926 0.0
O292 O 0.76798 0.76296 0.9943 0.0
O293 O 0.79292 0.74393 0.99269 0.0
O294 O 0.98831 0.69839 0.78233 0.0
Cd295 Cd 0.9635 0.68867 0.80033 0.0
Cd296 Cd 1.00238 0.68143 0.83372 0.0
O297 O 0.01699 0.69763 0.80794 0.0
O298 O 0.93859 0.69166 0.77752 0.0
O299 O 0.94931 0.7128 0.81265 0.0
C300 C 0.93582 0.70711 0.79297 0.0
C301 C 0.02342 0.68241 0.8705 0.0
C302 C 1.00856 0.70174 0.78802 0.0
C303 C 0.96172 0.63982 0.81487 0.0
O304 O 0.98108 0.64777 0.82569 0.0
O305 O 0.95206 0.65344 0.80459 0.0
O306 O 0.0268 0.67203 0.85169 0.0
O307 O 1.0091 0.69418 0.86835 0.0
O308 O 0.8246 0.43816 0.59637 0.0
Cd309 Cd 0.8264 0.46075 0.57055 0.0
Cd310 Cd 0.8367 0.42047 0.54789 0.0
O311 O 0.82933 0.40544 0.57832 0.0
O312 O 0.81559 0.48748 0.58345 0.0
O313 O 0.79871 0.4635 0.55093 0.0
C314 C 0.79947 0.48128 0.5662 0.0
C315 C 0.82356 0.40119 0.50876 0.0
C316 C 0.82577 0.41664 0.59644 0.0
C317 C 0.87079 0.4687 0.55797 0.0
O318 O 0.8661 0.44616 0.55186 0.0
O319 O 0.85681 0.47816 0.5646 0.0
O320 O 0.83794 0.39497 0.52283 0.0
O321 O 0.81551 0.41737 0.51733 0.0
O322 O 0.68858 0.60102 0.34553 0.0
Cd323 Cd 0.71719 0.61282 0.3694 0.0
Cd324 Cd 0.69506 0.63935 0.38778 0.0
O325 O 0.67335 0.6285 0.35695 0.0
O326 O 0.73431 0.59316 0.35629 0.0
O327 O 0.72656 0.59085 0.39164 0.0
C328 C 0.73577 0.58375 0.37545 0.0
C329 C 0.68191 0.62381 0.41924 0.0
C330 C 0.67325 0.6108 0.3426 0.0
C331 C 0.73583 0.66717 0.37712 0.0
O332 O 0.72081 0.66872 0.38809 0.0
O333 O 0.73663 0.64677 0.36829 0.0
O334 O 0.67878 0.6436 0.41291 0.0
O335 O 0.69424 0.61398 0.40886 0.0
Pr336 Pr 0.03741 0.07036 0.03385 0.0
Pr337 Pr 0.08724 0.09819 0.05381 0.0
C338 C 0.99397 0.05963 0.02791 0.0
C339 C 0.97813 0.07366 0.02899 0.0
C340 C 0.95597 0.06228 0.02282 0.0
C341 C 0.94089 0.07537 0.02461 0.0
C342 C 0.94766 0.10024 0.03244 0.0
C343 C 0.96999 0.11157 0.03836 0.0
C344 C 0.985 0.09837 0.03694 0.0
C345 C 0.06548 0.07114 1.00271 0.0
C346 C 0.0566 0.131 0.03309 0.0
C347 C 0.13064 0.10931 0.06129 0.0
C348 C 0.14701 0.09575 0.06057 0.0
C349 C 0.15078 0.08071 0.07751 0.0
C350 C 0.16596 0.06769 0.07614 0.0
C351 C 0.17772 0.0693 0.05775 0.0
C352 C 0.17383 0.08432 0.04081 0.0
C353 C 0.15876 0.09742 0.04226 0.0
C354 C 0.05861 0.09811 0.08408 0.0
C355 C 0.06847 0.0375 0.05401 0.0
O356 O 1.00641 0.05962 0.04784 0.0
O357 O 1.00439 0.06185 0.01039 0.0
O358 O 0.06576 0.08798 0.0178 0.0
O359 O 0.0488 0.05266 1.00175 0.0
O360 O 0.07686 0.13026 0.03862 0.0
O361 O 0.04012 0.11196 0.03308 0.0
O362 O 0.11881 0.10986 0.04111 0.0
O363 O 0.11968 0.10708 0.07838 0.0
O364 O 0.05889 0.08085 0.06984 0.0
O365 O 0.07477 0.11694 0.08436 0.0
O366 O 0.04814 0.03796 0.04806 0.0
O367 O 0.08491 0.05672 0.0545 0.0
H368 H 0.9503 0.04317 0.01693 0.0
H369 H 0.9239 0.06586 0.02031 0.0
H370 H 0.97594 0.13066 0.04423 0.0
H371 H 1.00199 0.10744 0.0423 0.0
H372 H 0.142 0.07892 0.09184 0.0
H373 H 0.16868 0.05662 0.08972 0.0
H374 H 0.18225 0.08579 0.02619 0.0
H375 H 0.15616 0.10877 0.02888 0.0
Pr376 Pr 0.32442 0.8656 0.30555 0.0
Pr377 Pr 0.29467 0.81374 0.28043 0.0
C378 C 0.3548 0.90305 0.33104 0.0
C379 C 0.36496 0.92797 0.32873 0.0
C380 C 0.3586 0.93778 0.30853 0.0
C381 C 0.3694 0.96112 0.30575 0.0
C382 C 0.38669 0.97487 0.32313 0.0
C383 C 0.39274 0.96499 0.34349 0.0
C384 C 0.38194 0.94165 0.34624 0.0
C385 C 0.28267 0.86474 0.28437 0.0
C386 C 0.31639 0.85559 0.24807 0.0
C387 C 0.26255 0.77675 0.2568 0.0
C388 C 0.25993 0.75134 0.24959 0.0
C389 C 0.27795 0.74287 0.24775 0.0
C390 C 0.27538 0.71839 0.24194 0.0
C391 C 0.25475 0.70208 0.23801 0.0
C392 C 0.23675 0.71079 0.23963 0.0
C393 C 0.23934 0.73525 0.24534 0.0
C394 C 0.33803 0.8128 0.29381 0.0
C395 C 0.30411 0.82297 0.3386 0.0
O396 O 0.35912 0.88709 0.31675 0.0
O397 O 0.33452 0.89789 0.33333 0.0
O398 O 0.28754 0.84826 0.29516 0.0
O399 O 0.29926 0.88337 0.28658 0.0
O400 O 0.3 0.83723 0.24967 0.0
O401 O 0.33062 0.86742 0.26688 0.0
O402 O 0.26488 0.78315 0.27935 0.0
O403 O 0.27554 0.79184 0.24651 0.0
O404 O 0.32987 0.82992 0.29574 0.0
O405 O 0.32296 0.79401 0.28309 0.0
O406 O 0.31799 0.84376 0.33736 0.0
O407 O 0.29165 0.8092 0.31962 0.0
H408 H 0.34551 0.92727 0.29483 0.0
H409 H 0.36427 0.96841 0.29001 0.0
H410 H 0.40617 0.97509 0.35702 0.0
H411 H 0.38708 0.93413 0.36183 0.0
H412 H 0.29401 0.75514 0.25107 0.0
H413 H 0.2895 0.71222 0.2407 0.0
H414 H 0.2207 0.69863 0.2372 0.0
H415 H 0.22532 0.74155 0.24687 0.0
Pr416 Pr 0.58307 0.08557 0.55029 0.0
Pr417 Pr 0.53334 0.07837 0.53435 0.0
C418 C 0.62326 0.0824 0.56673 0.0
C419 C 0.63916 0.06882 0.56356 0.0
C420 C 0.66048 0.08163 0.56333 0.0
C421 C 0.67623 0.06965 0.56126 0.0
C422 C 0.6711 0.04444 0.55937 0.0
C423 C 0.64964 0.03155 0.55952 0.0
C424 C 0.63381 0.04361 0.56156 0.0
C425 C 0.57162 0.10744 0.51148 0.0
C426 C 0.55213 0.03394 0.51737 0.0
C427 C 0.49306 0.08145 0.51834 0.0
C428 C 0.47836 0.09712 0.51791 0.0
C429 C 0.47639 0.11018 0.53847 0.0
C430 C 0.46043 0.12238 0.53809 0.0
C431 C 0.44606 0.12183 0.51715 0.0
C432 C 0.44871 0.10953 0.49644 0.0
C433 C 0.46463 0.0973 0.49685 0.0
C434 C 0.54531 0.05661 0.57316 0.0
C435 C 0.56422 0.12941 0.56773 0.0
O436 O 0.60632 0.0721 0.57527 0.0
O437 O 0.61909 0.09575 0.55061 0.0
O438 O 0.56173 0.08664 0.51494 0.0
O439 O 0.58873 0.11685 0.52745 0.0
O440 O 0.5358 0.0435 0.51311 0.0
O441 O 0.57058 0.04573 0.53133 0.0
O442 O 0.50844 0.08595 0.50604 0.0
O443 O 0.49876 0.07385 0.53824 0.0
O444 O 0.5547 0.07746 0.56945 0.0
O445 O 0.5282 0.04686 0.55723 0.0
O446 O 0.57949 0.11864 0.57351 0.0
O447 O 0.54671 0.11877 0.5518 0.0
H448 H 0.66504 0.10107 0.56505 0.0
H449 H 0.6926 0.08025 0.56168 0.0
H450 H 0.64503 0.01213 0.55792 0.0
H451 H 0.61746 0.03324 0.56168 0.0
H452 H 0.48676 0.11039 0.555 0.0
H453 H 0.45884 0.13147 0.55443 0.0
H454 H 0.43827 0.10906 0.4799 0.0
H455 H 0.46582 0.08739 0.48075 0.0
Pr456 Pr 0.28371 0.33155 0.78181 0.0
Pr457 Pr 0.33398 0.34888 0.79108 0.0
C458 C 0.24137 0.31457 0.78312 0.0
C459 C 0.2252 0.31585 0.7981 0.0
C460 C 0.22031 0.33754 0.80395 0.0
C461 C 0.20351 0.33797 0.81607 0.0
C462 C 0.19122 0.31678 0.82269 0.0
C463 C 0.19662 0.29524 0.81751 0.0
C464 C 0.21337 0.29479 0.8053 0.0
C465 C 0.30176 0.37391 0.76458 0.0
C466 C 0.31103 0.36091 0.83462 0.0
C467 C 0.37641 0.36766 0.79104 0.0
C468 C 0.39439 0.36682 0.77877 0.0
C469 C 0.41491 0.36996 0.79225 0.0
C470 C 0.43247 0.36936 0.78152 0.0
C471 C 0.42997 0.36563 0.75695 0.0
C472 C 0.40928 0.36238 0.7434 0.0
C473 C 0.39164 0.36301 0.75421 0.0
C474 C 0.31613 0.30656 0.80848 0.0
C475 C 0.30648 0.31753 0.73877 0.0
O476 O 0.25552 0.30291 0.78966 0.0
O477 O 0.24939 0.33374 0.7737 0.0
O478 O 0.30816 0.3687 0.78457 0.0
O479 O 0.28496 0.35742 0.75316 0.0
O480 O 0.32824 0.36885 0.82516 0.0
O481 O 0.29334 0.3454 0.82235 0.0
O482 O 0.36139 0.37687 0.78133 0.0
O483 O 0.36897 0.34926 0.80172 0.0
O484 O 0.30959 0.31179 0.78855 0.0
O485 O 0.33336 0.32272 0.81947 0.0
O486 O 0.28903 0.3108 0.74813 0.0
O487 O 0.32447 0.33287 0.75081 0.0
H488 H 0.22915 0.35414 0.79878 0.0
H489 H 0.20003 0.35493 0.8201 0.0
H490 H 0.1874 0.27854 0.82216 0.0
H491 H 0.21672 0.27782 0.80094 0.0
H492 H 0.41738 0.37283 0.81121 0.0
H493 H 0.44799 0.37146 0.79256 0.0
H494 H 0.40679 0.35961 0.72444 0.0
H495 H 0.37592 0.36051 0.74342 0.0
Pr496 Pr 0.04695 0.06677 0.51664 0.0
Pr497 Pr 0.06716 0.0928 0.56419 0.0
C498 C 0.01983 0.04685 0.47604 0.0
C499 C 1.00984 0.05462 0.45491 0.0
C500 C 0.99867 0.03743 0.43582 0.0
C501 C 0.98821 0.0443 0.4159 0.0
C502 C 0.98863 0.06852 0.41483 0.0
C503 C 1.00008 0.08579 0.434 0.0
C504 C 1.01063 0.07887 0.45392 0.0
C505 C 0.09101 0.08969 0.52069 0.0
C506 C 0.04767 0.12475 0.5274 0.0
C507 C 0.09445 0.11308 0.60447 0.0
C508 C 0.1049 0.10579 0.62569 0.0
C509 C 0.10824 0.12023 0.64709 0.0
C510 C 0.11917 0.1144 0.66732 0.0
C511 C 0.12708 0.09407 0.66644 0.0
C512 C 0.12317 0.07921 0.64504 0.0
C513 C 0.11214 0.08504 0.62478 0.0
C514 C 0.02307 0.07046 0.55996 0.0
C515 C 0.06584 0.03454 0.55395 0.0
O516 O 1.0134 0.05265 0.49527 0.0
O517 O 0.04062 0.04953 0.47893 0.0
O518 O 0.07753 0.09852 0.52889 0.0
O519 O 0.08171 0.06841 0.50926 0.0
O520 O 0.06193 0.12611 0.54656 0.0
O521 O 0.03782 0.10373 0.51462 0.0
O522 O 0.10081 0.10763 0.58505 0.0
O523 O 0.07364 0.11015 0.60188 0.0
O524 O 0.03641 0.06129 0.55185 0.0
O525 O 0.03256 0.09163 0.57158 0.0
O526 O 0.0521 0.03335 0.53436 0.0
O527 O 0.07554 0.05551 0.5669 0.0
H528 H 0.99797 0.01866 0.43634 0.0
H529 H 0.97999 0.03065 0.40121 0.0
H530 H 1.00068 0.10455 0.43369 0.0
H531 H 0.01924 0.09236 0.4686 0.0
H532 H 0.10261 0.13619 0.64811 0.0
H533 H 0.12149 0.12588 0.68368 0.0
H534 H 0.12908 0.06346 0.64385 0.0
H535 H 0.10962 0.0736 0.60837 0.0
Pr536 Pr 0.2934 0.80401 0.78842 0.0
Pr537 Pr 0.31573 0.86275 0.79095 0.0
C538 C 0.2789 0.75704 0.77247 0.0
C539 C 0.28621 0.74059 0.75744 0.0
C540 C 0.2727 0.71761 0.74883 0.0
C541 C 0.28018 0.70133 0.73577 0.0
C542 C 0.30134 0.70781 0.73129 0.0
C543 C 0.31446 0.73133 0.73913 0.0
C544 C 0.30692 0.7476 0.75207 0.0
C545 C 0.29148 0.82941 0.83135 0.0
C546 C 0.346 0.82735 0.80959 0.0
C547 C 0.33012 0.90982 0.80671 0.0
C548 C 0.32393 0.92605 0.82313 0.0
C549 C 0.33384 0.95074 0.82569 0.0
C550 C 0.32682 0.9665 0.83991 0.0
C551 C 0.31002 0.95767 0.85196 0.0
C552 C 0.30068 0.93286 0.85011 0.0
C553 C 0.30741 0.91714 0.8355 0.0
C554 C 0.31946 0.83715 0.74892 0.0
C555 C 0.26276 0.83943 0.76998 0.0
O556 O 0.27169 0.77329 0.76209 0.0
O557 O 0.29144 0.76545 0.79295 0.0
O558 O 0.29881 0.83757 0.81408 0.0
O559 O 0.28339 0.80629 0.82607 0.0
O560 O 0.34309 0.84909 0.81152 0.0
O561 O 0.33077 0.80815 0.79836 0.0
O562 O 0.33856 0.89382 0.81598 0.0
O563 O 0.31611 0.90117 0.78722 0.0
O564 O 0.31096 0.82912 0.76559 0.0
O565 O 0.32736 0.8603 0.75418 0.0
O566 O 0.26523 0.8175 0.76925 0.0
O567 O 0.27846 0.8588 0.77997 0.0
H568 H 0.25656 0.71209 0.7526 0.0
H569 H 0.26954 0.68351 0.72958 0.0
H570 H 0.33087 0.73687 0.73616 0.0
H571 H 0.31747 0.76544 0.75845 0.0
H572 H 0.34654 0.95786 0.81618 0.0
H573 H 0.3341 0.98564 0.84104 0.0
H574 H 0.28748 0.92578 0.85899 0.0
H575 H 0.2993 0.89813 0.83326 0.0
Pr576 Pr 0.56935 0.08029 0.0698 0.0
Pr577 Pr 0.55596 0.08043 0.01543 0.0
C578 C 0.58415 0.09231 0.11619 0.0
C579 C 0.58222 0.11132 0.13312 0.0
C580 C 0.5929 0.11438 0.15641 0.0
C581 C 0.59017 0.13183 0.17272 0.0
C582 C 0.57687 0.14655 0.16584 0.0
C583 C 0.56677 0.14394 0.14229 0.0
C584 C 0.56931 0.12631 0.12607 0.0
C585 C 0.56375 0.0361 0.0427 0.0
C586 C 0.51802 0.06576 0.04725 0.0
C587 C 0.54566 0.06405 0.96953 0.0
C588 C 0.55473 0.05081 0.95277 0.0
C589 C 0.57339 0.06238 0.94465 0.0
C590 C 0.58166 0.04993 0.92856 0.0
C591 C 0.57152 0.0256 0.92018 0.0
C592 C 0.55302 0.0139 0.92852 0.0
C593 C 0.54471 0.0264 0.94466 0.0
C594 C 0.55404 0.12429 0.03924 0.0
C595 C 0.60766 0.1011 0.03867 0.0
O596 O 0.59571 0.09959 0.10049 0.0
O597 O 0.56624 0.07573 0.10734 0.0
O598 O 0.5725 0.0565 0.03729 0.0
O599 O 0.55941 0.03819 0.0636 0.0
O600 O 0.52364 0.06165 0.02685 0.0
O601 O 0.53245 0.07724 0.06591 0.0
O602 O 0.53707 0.05202 0.98531 0.0
O603 O 0.55668 0.08625 0.97776 0.0
O604 O 0.55906 0.10702 0.04802 0.0
O605 O 0.54883 0.11881 0.01659 0.0
O606 O 0.60218 0.09981 0.0595 0.0
O607 O 0.59344 0.09277 0.01905 0.0
H608 H 0.60296 0.10297 0.16206 0.0
H609 H 0.59807 0.13352 0.19083 0.0
H610 H 0.55616 0.15478 0.13666 0.0
H611 H 0.56077 0.12395 0.10815 0.0
H612 H 0.58154 0.08117 0.95047 0.0
H613 H 0.59569 0.05962 0.92216 0.0
H614 H 0.54493 0.99513 0.92252 0.0
H615 H 0.53035 0.01698 0.95068 0.0
Pr616 Pr 0.2836 0.31046 0.28287 0.0
Pr617 Pr 0.33067 0.3504 0.29441 0.0
C618 C 0.24284 0.28538 0.28386 0.0
C619 C 0.22504 0.28893 0.29544 0.0
C620 C 0.21379 0.27052 0.30658 0.0
C621 C 0.19679 0.2735 0.31743 0.0
C622 C 0.19063 0.295 0.31738 0.0
C623 C 0.20205 0.31344 0.30628 0.0
C624 C 0.21905 0.31049 0.29548 0.0
C625 C 0.30029 0.32679 0.24366 0.0
C626 C 0.28833 0.36921 0.29904 0.0
C627 C 0.3701 0.37673 0.28945 0.0
C628 C 0.38699 0.37302 0.27645 0.0
C629 C 0.38746 0.34978 0.26832 0.0
C630 C 0.4041 0.34623 0.25715 0.0
C631 C 0.42074 0.36587 0.25387 0.0
C632 C 0.42004 0.38919 0.2618 0.0
C633 C 0.40332 0.3927 0.27293 0.0
C634 C 0.31917 0.3321 0.33579 0.0
C635 C 0.32591 0.29226 0.28145 0.0
O636 O 0.25968 0.28219 0.29731 0.0
O637 O 0.24793 0.29892 0.26761 0.0
O638 O 0.30202 0.33942 0.26302 0.0
O639 O 0.2886 0.30493 0.24377 0.0
O640 O 0.30884 0.37621 0.29686 0.0
O641 O 0.27742 0.34634 0.29761 0.0
O642 O 0.35214 0.37854 0.27714 0.0
O643 O 0.36684 0.36372 0.30645 0.0
O644 O 0.30893 0.32662 0.31505 0.0
O645 O 0.3365 0.34928 0.33592 0.0
O646 O 0.30673 0.28603 0.28737 0.0
O647 O 0.33498 0.31435 0.27771 0.0
H648 H 0.21808 0.25373 0.30678 0.0
H649 H 0.18823 0.25875 0.3255 0.0
H650 H 0.19793 0.33028 0.30608 0.0
H651 H 0.22747 0.32509 0.28713 0.0
H652 H 0.37517 0.33432 0.271 0.0
H653 H 0.40422 0.32804 0.25162 0.0
H654 H 0.4324 0.40476 0.25935 0.0
H655 H 0.40331 0.4108 0.27905 0.0
Pr656 Pr 0.55007 0.56539 0.01919 0.0
Pr657 Pr 0.56556 0.59212 0.06573 0.0
C658 C 0.52505 0.54428 0.97779 0.0
C659 C 0.51534 0.55153 0.95609 0.0
C660 C 0.52688 0.57039 0.94565 0.0
C661 C 0.51705 0.57705 0.92514 0.0
C662 C 0.49549 0.56511 0.91491 0.0
C663 C 0.48388 0.54672 0.9259 0.0
C664 C 0.49376 0.53994 0.94622 0.0
C665 C 0.59437 0.58812 0.02637 0.0
C666 C 0.5506 0.62347 0.02584 0.0
C667 C 0.58669 0.61486 0.10824 0.0
C668 C 0.5907 0.61082 0.13271 0.0
C669 C 0.59729 0.63068 0.15007 0.0
C670 C 0.60204 0.62756 0.17353 0.0
C671 C 0.6003 0.60448 0.17996 0.0
C672 C 0.59295 0.58445 0.16256 0.0
C673 C 0.58817 0.58761 0.13899 0.0
C674 C 0.52138 0.56837 0.05765 0.0
C675 C 0.56714 0.53459 0.05893 0.0
O676 O 0.5173 0.5493 0.99633 0.0
O677 O 0.546 0.54786 0.982 0.0
O678 O 0.58038 0.59752 0.03269 0.0
O679 O 0.58554 0.56648 0.01553 0.0
O680 O 0.56305 0.62506 0.04631 0.0
O681 O 0.54187 0.60233 0.01295 0.0
O682 O 0.59561 0.60396 0.09374 0.0
O683 O 0.56704 0.61499 0.09953 0.0
O684 O 0.536 0.55946 0.05262 0.0
O685 O 0.52933 0.59055 0.06703 0.0
O686 O 0.55517 0.53274 0.03803 0.0
O687 O 0.57485 0.55575 0.07209 0.0
H688 H 0.54348 0.57985 0.95323 0.0
H689 H 0.5265 0.59113 0.91701 0.0
H690 H 0.46714 0.53748 0.91875 0.0
H691 H 0.48452 0.52562 0.9543 0.0
H692 H 0.59906 0.64867 0.14543 0.0
H693 H 0.60737 0.64324 0.18666 0.0
H694 H 0.59161 0.5665 0.16709 0.0
H695 H 0.58289 0.57207 0.12569 0.0
Pr696 Pr 0.79565 0.3023 0.29552 0.0
Pr697 Pr 0.81801 0.36112 0.29818 0.0
C698 C 0.78157 0.2548 0.28161 0.0
C699 C 0.78817 0.23642 0.26802 0.0
C700 C 0.78736 0.2144 0.27641 0.0
C701 C 0.79481 0.19725 0.2646 0.0
C702 C 0.80307 0.20177 0.24403 0.0
C703 C 0.80345 0.22373 0.23543 0.0
C704 C 0.79621 0.24095 0.24741 0.0
C705 C 0.79326 0.3278 0.3382 0.0
C706 C 0.84879 0.32565 0.31581 0.0
C707 C 0.83146 0.40803 0.31472 0.0
C708 C 0.82363 0.42353 0.33028 0.0
C709 C 0.83407 0.4481 0.33523 0.0
C710 C 0.82557 0.46321 0.34848 0.0
C711 C 0.80652 0.45391 0.35706 0.0
C712 C 0.79671 0.42901 0.3529 0.0
C713 C 0.8051 0.41399 0.33945 0.0
C714 C 0.82129 0.33608 0.25584 0.0
C715 C 0.7651 0.33734 0.27604 0.0
O716 O 0.77455 0.27052 0.27005 0.0
O717 O 0.79406 0.26414 0.30188 0.0
O718 O 0.80086 0.33588 0.32105 0.0
O719 O 0.78507 0.30474 0.33285 0.0
O720 O 0.84644 0.34766 0.31682 0.0
O721 O 0.83295 0.30635 0.30598 0.0
O722 O 0.83941 0.39198 0.32457 0.0
O723 O 0.81886 0.39962 0.29429 0.0
O724 O 0.81297 0.3276 0.2725 0.0
O725 O 0.82943 0.35918 0.26139 0.0
O726 O 0.76758 0.3154 0.27558 0.0
O727 O 0.78068 0.35676 0.28624 0.0
H728 H 0.78138 0.21067 0.29241 0.0
H729 H 0.79463 0.18072 0.27195 0.0
H730 H 0.80946 0.22767 0.2195 0.0
H731 H 0.79718 0.25788 0.24074 0.0
H732 H 0.84838 0.45571 0.32821 0.0
H733 H 0.83334 0.48232 0.35101 0.0
H734 H 0.78218 0.42125 0.35947 0.0
H735 H 0.7968 0.395 0.33566 0.0
Pr736 Pr 0.07444 0.58281 0.56962 0.0
Pr737 Pr 0.05732 0.58186 0.51265 0.0
C738 C 0.08757 0.59726 0.61581 0.0
C739 C 0.08493 0.6156 0.63294 0.0
C740 C 0.09639 0.61909 0.65595 0.0
C741 C 0.093 0.63553 0.67278 0.0
C742 C 0.07827 0.64884 0.66668 0.0
C743 C 0.06737 0.64592 0.6434 0.0
C744 C 0.07059 0.62926 0.62664 0.0
C745 C 0.07406 0.53904 0.54399 0.0
C746 C 0.02162 0.56386 0.54711 0.0
C747 C 0.04588 0.56674 0.46644 0.0
C748 C 0.053 0.55173 0.44965 0.0
C749 C 0.04309 0.54765 0.42602 0.0
C750 C 0.05082 0.53487 0.40959 0.0
C751 C 0.06862 0.52596 0.41658 0.0
C752 C 0.07801 0.52937 0.4405 0.0
C753 C 0.07028 0.54221 0.45691 0.0
C754 C 0.05679 0.62522 0.53853 0.0
C755 C 0.10976 0.60246 0.53529 0.0
O756 O 0.09913 0.60521 0.60024 0.0
O757 O 0.07018 0.57979 0.607 0.0
O758 O 0.06921 0.55693 0.53633 0.0
O759 O 0.08042 0.54404 0.56657 0.0
O760 O 0.02584 0.56311 0.52561 0.0
O761 O 0.03669 0.5732 0.56605 0.0
O762 O 0.03608 0.55565 0.482 0.0
O763 O 0.05974 0.58745 0.47521 0.0
O764 O 0.06245 0.6077 0.54606 0.0
O765 O 0.05019 0.62017 0.51594 0.0
O766 O 0.10507 0.60385 0.55652 0.0
O767 O 0.09511 0.59178 0.51641 0.0
H768 H 0.10754 0.60867 0.66102 0.0
H769 H 0.10145 0.63745 0.6907 0.0
H770 H 0.05563 0.65564 0.63846 0.0
H771 H 0.06146 0.62653 0.60895 0.0
H772 H 0.02975 0.55491 0.42016 0.0
H773 H 0.04342 0.53288 0.39128 0.0
H774 H 0.09159 0.52254 0.44646 0.0
H775 H 0.07809 0.54519 0.47516 0.0
Pr776 Pr 0.78419 0.82788 0.28474 0.0
Pr777 Pr 0.83447 0.84916 0.29137 0.0
C778 C 0.74292 0.80689 0.28825 0.0
C779 C 0.72607 0.80878 0.30211 0.0
C780 C 0.71678 0.82806 0.3014 0.0
C781 C 0.69973 0.82859 0.31309 0.0
C782 C 0.69151 0.80987 0.32582 0.0
C783 C 0.70112 0.79082 0.32687 0.0
C784 C 0.71813 0.79025 0.31509 0.0
C785 C 0.79843 0.87143 0.26773 0.0
C786 C 0.81256 0.85957 0.33649 0.0
C787 C 0.87542 0.87108 0.28746 0.0
C788 C 0.89224 0.86957 0.27358 0.0
C789 C 0.89488 0.84737 0.26516 0.0
C790 C 0.91224 0.84643 0.25407 0.0
C791 C 0.92733 0.86767 0.25113 0.0
C792 C 0.92411 0.88985 0.25885 0.0
C793 C 0.90677 0.89076 0.26995 0.0
C794 C 0.82033 0.80507 0.30758 0.0
C795 C 0.80614 0.8167 0.23996 0.0
O796 O 0.75926 0.79987 0.29824 0.0
O797 O 0.74838 0.82335 0.27465 0.0
O798 O 0.80651 0.86613 0.28703 0.0
O799 O 0.78146 0.85456 0.25736 0.0
O800 O 0.82915 0.86809 0.32623 0.0
O801 O 0.79497 0.84325 0.32498 0.0
O802 O 0.85877 0.87757 0.27744 0.0
O803 O 0.87039 0.85441 0.30095 0.0
O804 O 0.81213 0.81089 0.28862 0.0
O805 O 0.83754 0.82164 0.318 0.0
O806 O 0.78966 0.80821 0.25039 0.0
O807 O 0.82367 0.83329 0.25122 0.0
H808 H 0.72238 0.84258 0.29145 0.0
H809 H 0.6926 0.8434 0.31161 0.0
H810 H 0.69547 0.77626 0.33676 0.0
H811 H 0.72488 0.7751 0.31584 0.0
H812 H 0.88384 0.83075 0.26769 0.0
H813 H 0.91425 0.82903 0.24853 0.0
H814 H 0.93513 0.90656 0.25651 0.0
H815 H 0.90498 0.90809 0.27619 0.0
Pr816 Pr 0.82544 0.35861 0.80983 0.0
Pr817 Pr 0.79807 0.31091 0.78628 0.0
C818 C 0.85424 0.39703 0.8361 0.0
C819 C 0.86394 0.42236 0.83403 0.0
C820 C 0.85118 0.43807 0.82902 0.0
C821 C 0.86082 0.46177 0.82615 0.0
C822 C 0.88327 0.46997 0.82796 0.0
C823 C 0.89599 0.4543 0.83315 0.0
C824 C 0.8864 0.43072 0.83628 0.0
C825 C 0.78399 0.35996 0.78928 0.0
C826 C 0.81883 0.35224 0.75332 0.0
C827 C 0.77097 0.2728 0.75784 0.0
C828 C 0.76595 0.24669 0.75533 0.0
C829 C 0.75345 0.23335 0.73441 0.0
C830 C 0.74884 0.20841 0.73147 0.0
C831 C 0.75667 0.19649 0.74947 0.0
C832 C 0.76949 0.21002 0.77033 0.0
C833 C 0.77414 0.23502 0.77323 0.0
C834 C 0.83954 0.30969 0.80654 0.0
C835 C 0.80424 0.31743 0.843 0.0
O836 O 0.8597 0.38138 0.82264 0.0
O837 O 0.83385 0.39061 0.83779 0.0
O838 O 0.78803 0.3434 0.80049 0.0
O839 O 0.80134 0.37717 0.78991 0.0
O840 O 0.80243 0.33407 0.75505 0.0
O841 O 0.83293 0.36357 0.77222 0.0
O842 O 0.76568 0.28321 0.77592 0.0
O843 O 0.78994 0.28387 0.75388 0.0
O844 O 0.83537 0.32612 0.79525 0.0
O845 O 0.82226 0.29246 0.80598 0.0
O846 O 0.81994 0.33648 0.84153 0.0
O847 O 0.79077 0.30532 0.82392 0.0
H848 H 0.83379 0.43203 0.82704 0.0
H849 H 0.85071 0.47355 0.82203 0.0
H850 H 0.91337 0.46035 0.8349 0.0
H851 H 0.89651 0.41889 0.84018 0.0
H852 H 0.74728 0.24224 0.72035 0.0
H853 H 0.73916 0.19844 0.7151 0.0
H854 H 0.77553 0.20128 0.78457 0.0
H855 H 0.784 0.24523 0.78942 0.0
Pr856 Pr 0.78241 0.81273 0.78367 0.0
Pr857 Pr 0.82671 0.84831 0.79434 0.0
C858 C 0.74119 0.78846 0.78424 0.0
C859 C 0.72375 0.79244 0.79607 0.0
C860 C 0.70215 0.78158 0.78556 0.0
C861 C 0.68541 0.78553 0.7963 0.0
C862 C 0.68991 0.80051 0.8178 0.0
C863 C 0.71165 0.81151 0.82819 0.0
C864 C 0.72838 0.8075 0.81744 0.0
C865 C 0.796 0.83115 0.74375 0.0
C866 C 0.78692 0.86905 0.80176 0.0
C867 C 0.86792 0.87275 0.79347 0.0
C868 C 0.88557 0.8686 0.78191 0.0
C869 C 0.90024 0.88802 0.77535 0.0
C870 C 0.91699 0.88438 0.76436 0.0
C871 C 0.9194 0.86117 0.75959 0.0
C872 C 0.90462 0.84175 0.7662 0.0
C873 C 0.88789 0.8454 0.77719 0.0
C874 C 0.81297 0.82991 0.83422 0.0
C875 C 0.82107 0.79138 0.77453 0.0
O876 O 0.75788 0.78469 0.79739 0.0
O877 O 0.74656 0.80258 0.76861 0.0
O878 O 0.79856 0.84319 0.7636 0.0
O879 O 0.78536 0.80891 0.74379 0.0
O880 O 0.80573 0.87528 0.79502 0.0
O881 O 0.77847 0.84669 0.80489 0.0
O882 O 0.85123 0.87601 0.77995 0.0
O883 O 0.86249 0.85932 0.80963 0.0
O884 O 0.81067 0.81779 0.81444 0.0
O885 O 0.82322 0.85228 0.83403 0.0
O886 O 0.80231 0.78517 0.78123 0.0
O887 O 0.83084 0.81403 0.77353 0.0
H888 H 0.69822 0.77007 0.76897 0.0
H889 H 0.66891 0.77705 0.7876 0.0
H890 H 0.71576 0.82295 0.84483 0.0
H891 H 0.74495 0.81618 0.82584 0.0
H892 H 0.89874 0.90606 0.7787 0.0
H893 H 0.92791 0.89973 0.75934 0.0
H894 H 0.90621 0.82376 0.76322 0.0
H895 H 0.87686 0.83007 0.78211 0.0
Pr896 Pr 0.54148 0.56917 0.53922 0.0
Pr897 Pr 0.59173 0.59522 0.55868 0.0
C898 C 0.49806 0.55995 0.53225 0.0
C899 C 0.48222 0.57411 0.53242 0.0
C900 C 0.489 0.59924 0.53748 0.0
C901 C 0.47389 0.61248 0.53811 0.0
C902 C 0.4516 0.60085 0.53397 0.0
C903 C 0.44494 0.5756 0.52884 0.0
C904 C 0.46008 0.56243 0.52805 0.0
C905 C 0.56932 0.56366 0.50932 0.0
C906 C 0.5628 0.62849 0.53558 0.0
C907 C 0.63523 0.60658 0.56807 0.0
C908 C 0.65178 0.59339 0.56875 0.0
C909 C 0.67297 0.60546 0.56724 0.0
C910 C 0.68849 0.59284 0.56635 0.0
C911 C 0.68312 0.56784 0.5669 0.0
C912 C 0.66186 0.5559 0.56877 0.0
C913 C 0.64637 0.56855 0.56962 0.0
C914 C 0.56302 0.59934 0.58806 0.0
C915 C 0.57076 0.53556 0.562 0.0
O916 O 0.50998 0.55988 0.55254 0.0
O917 O 0.50896 0.56182 0.51513 0.0
O918 O 0.5708 0.58246 0.52255 0.0
O919 O 0.55124 0.54729 0.50868 0.0
O920 O 0.58264 0.62627 0.54014 0.0
O921 O 0.54577 0.61089 0.53739 0.0
O922 O 0.62406 0.60646 0.54731 0.0
O923 O 0.62342 0.60379 0.58436 0.0
O924 O 0.56282 0.5809 0.57521 0.0
O925 O 0.57944 0.61737 0.58704 0.0
O926 O 0.55073 0.53699 0.55584 0.0
O927 O 0.5878 0.55384 0.56168 0.0
H928 H 0.50599 0.60862 0.54114 0.0
H929 H 0.47971 0.63185 0.54189 0.0
H930 H 0.42801 0.56591 0.52597 0.0
H931 H 0.45449 0.54304 0.52432 0.0
H932 H 0.67746 0.62462 0.56645 0.0
H933 H 0.70475 0.60275 0.56532 0.0
H934 H 0.65698 0.53665 0.5689 0.0
H935 H 0.63005 0.55885 0.57041 0.0
Pr936 Pr 0.08629 0.58925 0.05061 0.0
Pr937 Pr 0.03638 0.58075 0.03389 0.0
C938 C 0.12692 0.58752 0.0672 0.0
C939 C 0.14266 0.57339 0.06594 0.0
C940 C 0.16439 0.58572 0.06735 0.0
C941 C 0.17992 0.57323 0.06627 0.0
C942 C 0.17413 0.54797 0.06366 0.0
C943 C 0.15225 0.53557 0.0624 0.0
C944 C 0.13665 0.54816 0.06348 0.0
C945 C 0.07453 0.61072 0.01158 0.0
C946 C 0.0563 0.53713 0.01803 0.0
C947 C 0.99585 0.58286 0.01749 0.0
C948 C 0.98093 0.59823 0.01745 0.0
C949 C 0.97957 0.61167 0.03808 0.0
C950 C 0.96356 0.62377 0.03813 0.0
C951 C 0.94855 0.62274 0.01755 0.0
C952 C 0.95057 0.61003 0.99676 0.0
C953 C 0.96654 0.59791 0.99674 0.0
C954 C 0.04852 0.55912 0.07276 0.0
C955 C 0.06627 0.63252 0.06697 0.0
O956 O 0.11062 0.57939 0.07756 0.0
O957 O 0.12186 0.59781 0.04885 0.0
O958 O 0.06506 0.58978 0.01505 0.0
O959 O 0.09137 0.62062 0.02777 0.0
O960 O 0.04027 0.54684 0.01228 0.0
O961 O 0.07406 0.54888 0.03313 0.0
O962 O 1.01145 0.58825 1.00557 0.0
O963 O 1.00147 0.57477 0.03713 0.0
O964 O 0.05759 0.58015 0.0692 0.0
O965 O 0.0316 0.54913 0.05665 0.0
O966 O 0.08205 0.6225 0.07295 0.0
O967 O 0.04882 0.62118 0.05123 0.0
H968 H 0.16942 0.60517 0.06941 0.0
H969 H 0.19659 0.58347 0.06782 0.0
H970 H 0.14714 0.51614 0.06026 0.0
H971 H 0.11994 0.53821 0.06234 0.0
H972 H 0.99048 0.61228 0.05433 0.0
H973 H 0.96247 0.6332 0.05452 0.0
H974 H 0.93964 0.60919 0.98048 0.0
H975 H 0.96728 0.58772 0.98061 0.0
C976 C 0.03236 0.23086 0.95593 0.0
C977 C 0.0297 0.25162 0.96788 0.0
C978 C 0.03652 0.21198 0.96785 0.0
C979 C 0.03815 0.21366 0.9925 0.0
C980 C 0.03536 0.23446 1.00473 0.0
C981 C 0.03115 0.25312 0.99232 0.0
C982 C 0.03926 0.19021 0.95399 0.0
C983 C 0.03696 0.23705 0.03097 0.0
C984 C 0.03057 0.15408 0.01789 0.0
C985 C 0.05195 0.15324 0.02498 0.0
C986 C 0.02586 0.17395 1.00817 0.0
C987 C 0.0429 0.19362 1.00527 0.0
C988 C 0.0645 0.19327 0.01309 0.0
C989 C 0.06876 0.17317 0.02281 0.0
C990 C 1.00258 0.17343 1.00019 0.0
C991 C 0.0832 0.2138 0.01045 0.0
H992 H 0.03128 0.22931 0.93709 0.0
H993 H 0.02918 0.269 1.00182 0.0
H994 H 0.0555 0.18797 0.96021 0.0
H995 H 0.02725 0.17381 0.95676 0.0
H996 H 0.03733 0.1915 0.9349 0.0
H997 H 0.03416 0.25413 0.03792 0.0
H998 H 0.02499 0.22186 0.03589 0.0
H999 H 0.05317 0.23639 0.0396 0.0
H1000 H 0.01738 0.13892 0.01935 0.0
H1001 H 0.08534 0.17287 0.02817 0.0
H1002 H 0.99901 0.17235 0.98082 0.0
H1003 H 0.99955 0.19021 1.0075 0.0
H1004 H 0.99124 0.1579 1.00552 0.0
H1005 H 0.08339 0.21493 0.99158 0.0
H1006 H 0.09897 0.2117 0.01894 0.0
H1007 H 0.08135 0.23106 0.0182 0.0
C1008 C 0.17787 0.86288 0.19053 0.0
C1009 C 0.15979 0.86294 0.20077 0.0
C1010 C 0.19763 0.86254 0.20416 0.0
C1011 C 0.19961 0.86267 0.22876 0.0
C1012 C 0.18156 0.86324 0.23925 0.0
C1013 C 0.1619 0.86316 0.22516 0.0
C1014 C 0.21634 0.86169 0.19217 0.0
C1015 C 0.18302 0.8639 0.26542 0.0
C1016 C 0.24532 0.8419 0.26288 0.0
C1017 C 0.26101 0.86377 0.27103 0.0
C1018 C 0.22532 0.8412 0.24899 0.0
C1019 C 0.22071 0.86292 0.24357 0.0
C1020 C 0.23642 0.88503 0.25221 0.0
C1021 C 0.25638 0.88515 0.26554 0.0
C1022 C 0.20927 0.8172 0.23979 0.0
C1023 C 0.23218 0.90864 0.2473 0.0
H1024 H 0.17643 0.86243 0.17171 0.0
H1025 H 0.14809 0.86319 0.2333 0.0
H1026 H 0.23015 0.87769 0.19903 0.0
H1027 H 0.22184 0.84565 0.19602 0.0
H1028 H 0.21209 0.86106 0.17286 0.0
H1029 H 0.16767 0.86468 0.27095 0.0
H1030 H 0.18724 0.84773 0.2712 0.0
H1031 H 0.19605 0.87978 0.27462 0.0
H1032 H 0.24888 0.82531 0.26687 0.0
H1033 H 0.26842 0.90214 0.2718 0.0
H1034 H 0.20546 0.81514 0.22036 0.0
H1035 H 0.19397 0.8162 0.24615 0.0
H1036 H 0.21537 0.80196 0.24527 0.0
H1037 H 0.22955 0.90948 0.22815 0.0
H1038 H 0.24572 0.9243 0.25601 0.0
H1039 H 0.21727 0.91014 0.25341 0.0
C1040 C 0.53881 0.90512 0.4467 0.0
C1041 C 0.53796 0.88663 0.46091 0.0
C1042 C 0.54117 0.92888 0.45618 0.0
C1043 C 0.54234 0.9345 0.48054 0.0
C1044 C 0.54134 0.91595 0.49504 0.0
C1045 C 0.53938 0.8923 0.48511 0.0
C1046 C 0.54261 0.94806 0.44007 0.0
C1047 C 0.54218 0.92109 0.52104 0.0
C1048 C 0.5677 0.99997 0.50719 0.0
C1049 C 0.54954 1.00866 0.50736 0.0
C1050 C 0.56559 0.97591 0.49877 0.0
C1051 C 0.54479 0.95987 0.49063 0.0
C1052 C 0.52638 0.96845 0.49104 0.0
C1053 C 0.52897 0.99273 0.49918 0.0
C1054 C 0.58568 0.96776 0.49827 0.0
C1055 C 0.5039 0.95193 0.4829 0.0
H1056 H 0.53794 0.9011 0.42802 0.0
H1057 H 0.53867 0.87819 0.49624 0.0
H1058 H 0.52923 0.95645 0.44068 0.0
H1059 H 0.55793 0.96245 0.44601 0.0
H1060 H 0.54185 0.94086 0.4216 0.0
H1061 H 0.54072 0.90468 0.52986 0.0
H1062 H 0.55758 0.93448 0.52929 0.0
H1063 H 0.52895 0.92898 0.52416 0.0
H1064 H 0.58368 0.01206 0.51351 0.0
H1065 H 0.51483 0.99912 0.49955 0.0
H1066 H 0.58629 0.96145 0.47996 0.0
H1067 H 0.58534 0.95239 0.5084 0.0
H1068 H 0.60066 0.98229 0.50563 0.0
H1069 H 0.50152 0.94516 0.46404 0.0
H1070 H 0.49125 0.96101 0.48543 0.0
H1071 H 0.50169 0.93611 0.4926 0.0
C1072 C 0.53527 0.33921 0.722 0.0
C1073 C 0.543 0.35114 0.70381 0.0
C1074 C 0.51672 0.34225 0.72976 0.0
C1075 C 0.50547 0.35757 0.71909 0.0
C1076 C 0.51321 0.36978 0.70079 0.0
C1077 C 0.53188 0.36644 0.69339 0.0
C1078 C 0.50911 0.32897 0.74939 0.0
C1079 C 0.50171 0.38627 0.68895 0.0
C1080 C 0.44699 0.34733 0.72685 0.0
C1081 C 0.44892 0.36477 0.74584 0.0
C1082 C 0.46513 0.34523 0.71751 0.0
C1083 C 0.48575 0.36092 0.72737 0.0
C1084 C 0.48769 0.37903 0.74603 0.0
C1085 C 0.46931 0.38076 0.75497 0.0
C1086 C 0.46232 0.3257 0.69757 0.0
C1087 C 0.50931 0.3962 0.75701 0.0
H1088 H 0.5437 0.32734 0.73017 0.0
H1089 H 0.53766 0.3757 0.67929 0.0
H1090 H 0.50872 0.34194 0.76427 0.0
H1091 H 0.49244 0.31723 0.74332 0.0
H1092 H 0.51964 0.31772 0.75584 0.0
H1093 H 0.50979 0.39448 0.67504 0.0
H1094 H 0.48486 0.37616 0.68101 0.0
H1095 H 0.50095 0.40083 0.70208 0.0
H1096 H 0.43139 0.33477 0.71977 0.0
H1097 H 0.47094 0.39459 0.76934 0.0
H1098 H 0.47093 0.31252 0.70357 0.0
H1099 H 0.46953 0.33341 0.68295 0.0
H1100 H 0.44509 0.31603 0.69081 0.0
H1101 H 0.52015 0.3861 0.76526 0.0
H1102 H 0.50796 0.41005 0.77057 0.0
H1103 H 0.51708 0.40535 0.74338 0.0
C1104 C 0.09414 0.91309 0.59046 0.0
C1105 C 0.08097 0.90195 0.60554 0.0
C1106 C 0.09208 0.93459 0.58197 0.0
C1107 C 0.07638 0.94544 0.58853 0.0
C1108 C 0.06294 0.93421 0.60362 0.0
C1109 C 0.06541 0.91274 0.61195 0.0
C1110 C 0.10683 0.94579 0.56602 0.0
C1111 C 0.04592 0.94492 0.61105 0.0
C1112 C 0.08327 0.01242 0.58353 0.0
C1113 C 0.0692 0.01182 0.56241 0.0
C1114 C 0.0858 0.99111 0.59216 0.0
C1115 C 0.07397 0.9684 0.57949 0.0
C1116 C 0.05985 0.96768 0.5581 0.0
C1117 C 0.05767 0.98925 0.54986 0.0
C1118 C 0.1011 0.99295 0.61497 0.0
C1119 C 0.04685 0.94403 0.54396 0.0
H1120 H 0.10627 0.90509 0.58539 0.0
H1121 H 0.05514 0.90444 0.62358 0.0
H1122 H 0.09716 0.9473 0.54905 0.0
H1123 H 0.11627 0.96425 0.57398 0.0
H1124 H 0.11824 0.93526 0.56256 0.0
H1125 H 0.03664 0.93403 0.62271 0.0
H1126 H 0.05355 0.96332 0.62039 0.0
H1127 H 0.0345 0.94647 0.59538 0.0
H1128 H 0.09226 0.0296 0.59351 0.0
H1129 H 0.04668 0.98837 0.53359 0.0
H1130 H 0.11363 0.98382 0.61213 0.0
H1131 H 0.09222 0.98368 0.62781 0.0
H1132 H 0.10921 0.01186 0.6227 0.0
H1133 H 0.05778 0.93345 0.5391 0.0
H1134 H 0.03662 0.94641 0.52768 0.0
H1135 H 0.03629 0.93333 0.55465 0.0
C1136 C 0.45517 0.81014 0.88395 0.0
C1137 C 0.47307 0.82291 0.87534 0.0
C1138 C 0.43397 0.80868 0.87289 0.0
C1139 C 0.43053 0.81996 0.85252 0.0
C1140 C 0.44854 0.83193 0.84318 0.0
C1141 C 0.46952 0.83343 0.85478 0.0
C1142 C 0.41529 0.79599 0.88362 0.0
C1143 C 0.44568 0.84391 0.82134 0.0
C1144 C 0.3744 0.80485 0.81397 0.0
C1145 C 0.36727 0.82471 0.82085 0.0
C1146 C 0.39486 0.80289 0.8242 0.0
C1147 C 0.40836 0.82099 0.84203 0.0
C1148 C 0.40097 0.84075 0.84938 0.0
C1149 C 0.38068 0.84245 0.83862 0.0
C1150 C 0.40221 0.78172 0.8156 0.0
C1151 C 0.41461 0.86029 0.86854 0.0
H1152 H 0.45774 0.80203 0.89986 0.0
H1153 H 0.48322 0.8432 0.84788 0.0
H1154 H 0.40731 0.80922 0.89017 0.0
H1155 H 0.40307 0.78266 0.87022 0.0
H1156 H 0.42048 0.78666 0.89842 0.0
H1157 H 0.46111 0.85055 0.81512 0.0
H1158 H 0.43392 0.8312 0.80706 0.0
H1159 H 0.4391 0.85935 0.82492 0.0
H1160 H 0.3642 0.79109 0.80023 0.0
H1161 H 0.37527 0.85773 0.8443 0.0
H1162 H 0.40661 0.7721 0.83046 0.0
H1163 H 0.41688 0.7881 0.808 0.0
H1164 H 0.38963 0.76884 0.80211 0.0
H1165 H 0.41924 0.85238 0.88457 0.0
H1166 H 0.40612 0.87383 0.87305 0.0
H1167 H 0.42973 0.86961 0.86293 0.0
C1168 C 0.57979 0.2633 0.09238 0.0
C1169 C 0.56873 0.26704 0.11056 0.0
C1170 C 0.57735 0.24001 0.0811 0.0
C1171 C 0.56319 0.21977 0.08771 0.0
C1172 C 0.55168 0.22348 0.10574 0.0
C1173 C 0.55472 0.24689 0.11702 0.0
C1174 C 0.59034 0.23703 0.06238 0.0
C1175 C 0.53624 0.20266 0.11333 0.0
C1176 C 0.54316 0.16268 0.04307 0.0
C1177 C 0.55572 0.14815 0.05226 0.0
C1178 C 0.54506 0.18566 0.05466 0.0
C1179 C 0.56037 0.19481 0.07571 0.0
C1180 C 0.57316 0.18016 0.08501 0.0
C1181 C 0.57056 0.15701 0.07331 0.0
C1182 C 0.53063 0.20017 0.04435 0.0
C1183 C 0.59003 0.18918 0.10703 0.0
H1184 H 0.59086 0.27856 0.08737 0.0
H1185 H 0.54612 0.24938 0.13106 0.0
H1186 H 0.6005 0.22496 0.06737 0.0
H1187 H 0.57939 0.22849 0.04558 0.0
H1188 H 0.60095 0.25441 0.05949 0.0
H1189 H 0.52727 0.20863 0.12627 0.0
H1190 H 0.52445 0.19186 0.09791 0.0
H1191 H 0.54526 0.1907 0.12137 0.0
H1192 H 0.53167 0.15598 0.02681 0.0
H1193 H 0.58065 0.14611 0.08025 0.0
H1194 H 0.54054 0.21698 0.03953 0.0
H1195 H 0.5216 0.20538 0.05758 0.0
H1196 H 0.51889 0.19017 0.02852 0.0
H1197 H 0.60225 0.20541 0.10425 0.0
H1198 H 0.59836 0.1755 0.11231 0.0
H1199 H 0.58257 0.19451 0.12168 0.0
C1200 C 0.10032 0.32406 0.38667 0.0
C1201 C 0.0812 0.30528 0.38039 0.0
C1202 C 0.11847 0.32383 0.37649 0.0
C1203 C 0.11753 0.30432 0.35968 0.0
C1204 C 0.09814 0.28556 0.35298 0.0
C1205 C 0.08027 0.28629 0.36335 0.0
C1206 C 0.13877 0.34427 0.38401 0.0
C1207 C 0.09639 0.26441 0.33516 0.0
C1208 C 0.15772 0.30994 0.31816 0.0
C1209 C 0.17228 0.29811 0.32865 0.0
C1210 C 0.14017 0.3126 0.32832 0.0
C1211 C 0.13691 0.30308 0.34946 0.0
C1212 C 0.15167 0.29139 0.36031 0.0
C1213 C 0.16915 0.2891 0.34983 0.0
C1214 C 0.12486 0.3252 0.31617 0.0
C1215 C 0.14882 0.28098 0.38285 0.0
H1216 H 0.10123 0.3388 0.39981 0.0
H1217 H 0.06562 0.27166 0.35834 0.0
H1218 H 0.15207 0.33741 0.39244 0.0
H1219 H 0.14383 0.35229 0.36849 0.0
H1220 H 0.13665 0.35857 0.39653 0.0
H1221 H 0.08002 0.2516 0.33137 0.0
H1222 H 0.10034 0.27073 0.31853 0.0
H1223 H 0.10823 0.25468 0.34166 0.0
H1224 H 0.15975 0.31672 0.30166 0.0
H1225 H 0.18046 0.28032 0.35835 0.0
H1226 H 0.12323 0.33995 0.32848 0.0
H1227 H 0.1086 0.31241 0.31047 0.0
H1228 H 0.13029 0.33279 0.30058 0.0
H1229 H 0.14825 0.2951 0.39656 0.0
H1230 H 0.16203 0.27304 0.38943 0.0
H1231 H 0.13326 0.26682 0.38009 0.0
C1232 C 0.94606 0.0749 0.12734 0.0
C1233 C 0.94973 0.07396 0.15157 0.0
C1234 C 0.96341 0.08254 0.11569 0.0
C1235 C 0.9848 0.08934 0.12862 0.0
C1236 C 0.98847 0.08976 0.15322 0.0
C1237 C 0.97093 0.08208 0.16436 0.0
C1238 C 0.95895 0.08241 0.08949 0.0
C1239 C 1.01102 0.09687 0.16766 0.0
C1240 C 0.02869 0.07436 0.10042 0.0
C1241 C 0.04053 0.09693 0.09645 0.0
C1242 C 1.01024 0.07171 0.11031 0.0
C1243 C 1.00339 0.0922 0.11638 0.0
C1244 C 0.01524 0.11514 0.11234 0.0
C1245 C 0.03386 0.11727 0.10246 0.0
C1246 C 0.9982 0.04694 0.11445 0.0
C1247 C 1.00815 0.13728 0.11825 0.0
H1248 H 0.92972 0.06904 0.11738 0.0
H1249 H 0.97397 0.08186 0.18316 0.0
H1250 H 0.96738 0.10008 0.08497 0.0
H1251 H 0.96535 0.06873 0.08088 0.0
H1252 H 0.94145 0.07849 0.08221 0.0
H1253 H 1.01103 0.0988 0.18678 0.0
H1254 H 0.01928 0.083 0.16357 0.0
H1255 H 0.02061 0.11408 0.16324 0.0
H1256 H 0.03385 0.0586 0.09565 0.0
H1257 H 0.04284 0.13465 0.09893 0.0
H1258 H 0.98113 0.04245 0.10538 0.0
H1259 H 0.99822 0.04651 0.13345 0.0
H1260 H 1.0054 0.03282 0.10814 0.0
H1261 H 0.99211 0.13561 0.10747 0.0
H1262 H 0.01968 0.1539 0.11506 0.0
H1263 H 1.00641 0.1391 0.1369 0.0
C1264 C 0.2884 0.78818 0.46752 0.0
C1265 C 0.30138 0.77359 0.47573 0.0
C1266 C 0.28873 0.79634 0.44541 0.0
C1267 C 0.30239 0.78988 0.4309 0.0
C1268 C 0.31573 0.7754 0.43919 0.0
C1269 C 0.31505 0.76744 0.4614 0.0
C1270 C 0.27424 0.81173 0.43746 0.0
C1271 C 0.33062 0.76811 0.42448 0.0
C1272 C 0.28894 0.79269 0.36476 0.0
C1273 C 0.30319 0.81462 0.36223 0.0
C1274 C 0.28852 0.78444 0.38687 0.0
C1275 C 0.30272 0.79834 0.40714 0.0
C1276 C 0.31711 0.82048 0.4047 0.0
C1277 C 0.31716 0.82832 0.38243 0.0
C1278 C 0.27287 0.76077 0.38852 0.0
C1279 C 0.33257 0.83595 0.42568 0.0
H1280 H 0.2777 0.79304 0.47829 0.0
H1281 H 0.32511 0.75614 0.46741 0.0
H1282 H 0.28403 0.82912 0.43362 0.0
H1283 H 0.26295 0.80272 0.421 0.0
H1284 H 0.26467 0.81537 0.4508 0.0
H1285 H 0.34019 0.7571 0.43345 0.0
H1286 H 0.3211 0.75766 0.40764 0.0
H1287 H 0.3419 0.78431 0.4202 0.0
H1288 H 0.27809 0.78183 0.34942 0.0
H1289 H 0.32836 0.84523 0.38089 0.0
H1290 H 0.26198 0.76352 0.40066 0.0
H1291 H 0.28179 0.74837 0.39584 0.0
H1292 H 0.26289 0.75204 0.37123 0.0
H1293 H 0.32347 0.84096 0.43891 0.0
H1294 H 0.34282 0.85263 0.42093 0.0
H1295 H 0.34321 0.82572 0.43408 0.0
C1296 C 0.61331 0.9844 0.64978 0.0
C1297 C 0.60812 0.98386 0.67223 0.0
C1298 C 0.60176 0.99391 0.63233 0.0
C1299 C 0.58448 1.00275 0.63742 0.0
C1300 C 0.57812 1.00045 0.65942 0.0
C1301 C 0.59009 0.99115 0.67659 0.0
C1302 C 0.60906 0.99609 0.60908 0.0
C1303 C 0.55958 1.00932 0.66541 0.0
C1304 C 0.57302 0.05468 0.60718 0.0
C1305 C 0.55489 0.043 0.59004 0.0
C1306 C 0.58294 0.0417 0.6225 0.0
C1307 C 0.57439 0.01646 0.62074 0.0
C1308 C 0.55598 1.0046 0.60352 0.0
C1309 C 0.54643 0.01804 0.58838 0.0
C1310 C 0.60263 0.05501 0.64056 0.0
C1311 C 0.54644 0.97775 0.60107 0.0
H1312 H 0.62732 0.97896 0.64633 0.0
H1313 H 0.58593 0.99066 0.69386 0.0
H1314 H 0.59509 0.98962 0.59437 0.0
H1315 H 0.61665 0.01526 0.60787 0.0
H1316 H 0.62095 0.98585 0.60682 0.0
H1317 H 0.55519 1.00382 0.68218 0.0
H1318 H 0.56407 0.02921 0.66694 0.0
H1319 H 0.54517 1.00242 0.65127 0.0
H1320 H 0.57954 0.07398 0.60851 0.0
H1321 H 0.53247 1.00892 0.57502 0.0
H1322 H 0.61638 0.04771 0.63828 0.0
H1323 H 0.59942 0.05239 0.65842 0.0
H1324 H 0.60746 0.07458 0.63934 0.0
H1325 H 0.55873 0.96849 0.59763 0.0
H1326 H 0.53217 0.97125 0.58665 0.0
H1327 H 0.54152 0.97251 0.61768 0.0
C1328 C 0.33091 0.37635 0.97514 0.0
C1329 C 0.32169 0.39318 0.98506 0.0
C1330 C 0.32844 0.37096 0.95065 0.0
C1331 C 0.31657 0.38277 0.93551 0.0
C1332 C 0.30682 0.39937 0.9454 0.0
C1333 C 0.30943 0.40431 0.96997 0.0
C1334 C 0.33891 0.35292 0.94098 0.0
C1335 C 0.29401 0.41236 0.92999 0.0
C1336 C 0.32898 0.38615 0.87358 0.0
C1337 C 0.31193 0.36768 0.86017 0.0
C1338 C 0.33046 0.39153 0.89796 0.0
C1339 C 0.31467 0.37796 0.90939 0.0
C1340 C 0.29738 0.35938 0.89591 0.0
C1341 C 0.29617 0.35457 0.87157 0.0
C1342 C 0.34912 0.41155 0.91156 0.0
C1343 C 0.28035 0.34418 0.90726 0.0
H1344 H 0.34043 0.36762 0.98654 0.0
H1345 H 0.30232 0.41743 0.97736 0.0
H1346 H 0.3267 0.33852 0.92858 0.0
H1347 H 0.35119 0.36182 0.93103 0.0
H1348 H 0.34685 0.34456 0.95499 0.0
H1349 H 0.28696 0.42426 0.94029 0.0
H1350 H 0.30456 0.42339 0.9195 0.0
H1351 H 0.28076 0.39922 0.91747 0.0
H1352 H 0.34128 0.39636 0.86505 0.0
H1353 H 0.28304 0.34004 0.86156 0.0
H1354 H 0.35906 0.40423 0.92473 0.0
H1355 H 0.34302 0.42482 0.92126 0.0
H1356 H 0.35962 0.42099 0.90005 0.0
H1357 H 0.28791 0.33432 0.92007 0.0
H1358 H 0.26756 0.33093 0.89427 0.0
H1359 H 0.27271 0.35577 0.91709 0.0
C1360 C 0.95813 0.06296 0.28382 0.0
C1361 C 0.94163 0.07196 0.27303 0.0
C1362 C 0.96528 0.06737 0.30806 0.0
C1363 C 0.95589 0.08144 0.32191 0.0
C1364 C 0.94024 0.09196 0.31103 0.0
C1365 C 0.93312 0.08692 0.28662 0.0
C1366 C 0.98202 0.05577 0.31894 0.0
C1367 C 0.93028 0.10755 0.32519 0.0
C1368 C 0.95777 0.06071 0.3813 0.0
C1369 C 0.97779 0.07546 0.39326 0.0
C1370 C 0.9493 0.06393 0.35859 0.0
C1371 C 0.96103 0.0826 0.34775 0.0
C1372 C 0.97999 0.09921 0.36072 0.0
C1373 C 0.98829 0.09534 0.38335 0.0
C1374 C 0.92895 0.04586 0.34542 0.0
C1375 C 0.99256 0.11979 0.34999 0.0
H1376 H 0.96496 0.05159 0.27341 0.0
H1377 H 0.92049 0.09412 0.27833 0.0
H1378 H 0.99576 0.06947 0.33024 0.0
H1379 H 0.97485 0.04262 0.33022 0.0
H1380 H 0.98838 0.04625 0.30558 0.0
H1381 H 0.92224 0.11849 0.31406 0.0
H1382 H 0.918 0.09603 0.33354 0.0
H1383 H 0.94262 0.11973 0.33938 0.0
H1384 H 0.94926 0.04578 0.38923 0.0
H1385 H 1.0037 0.10694 0.39257 0.0
H1386 H 0.9331 0.03407 0.33197 0.0
H1387 H 0.9178 0.05503 0.33618 0.0
H1388 H 0.92037 0.03439 0.35719 0.0
H1389 H 1.00224 0.113 0.33841 0.0
H1390 H 1.00376 0.13388 0.36361 0.0
H1391 H 0.98154 0.128 0.33912 0.0
C1392 C 0.32753 0.76111 0.62888 0.0
C1393 C 0.3143 0.76655 0.6098 0.0
C1394 C 0.32899 0.7716 0.65204 0.0
C1395 C 0.31656 0.78761 0.65651 0.0
C1396 C 0.30308 0.79307 0.63734 0.0
C1397 C 0.30232 0.78275 0.6143 0.0
C1398 C 0.34401 0.76567 0.67171 0.0
C1399 C 0.28915 0.80956 0.6412 0.0
C1400 C 0.30579 0.80023 0.71866 0.0
C1401 C 0.31964 0.82336 0.72621 0.0
C1402 C 0.30476 0.7882 0.69621 0.0
C1403 C 0.31818 0.79938 0.68103 0.0
C1404 C 0.33277 0.82237 0.68905 0.0
C1405 C 0.33313 0.83412 0.71132 0.0
C1406 C 0.28886 0.76381 0.68852 0.0
C1407 C 0.34787 0.83476 0.67396 0.0
H1408 H 0.33685 0.7486 0.62571 0.0
H1409 H 0.29178 0.78683 0.59984 0.0
H1410 H 0.35626 0.78234 0.68057 0.0
H1411 H 0.33491 0.75789 0.68505 0.0
H1412 H 0.35246 0.75277 0.66543 0.0
H1413 H 0.27883 0.81119 0.62467 0.0
H1414 H 0.27863 0.80278 0.65377 0.0
H1415 H 0.29944 0.82771 0.64902 0.0
H1416 H 0.29526 0.79184 0.73 0.0
H1417 H 0.34399 0.85193 0.71704 0.0
H1418 H 0.29745 0.75037 0.68415 0.0
H1419 H 0.27748 0.76437 0.67241 0.0
H1420 H 0.27946 0.75764 0.70224 0.0
H1421 H 0.35726 0.82274 0.66805 0.0
H1422 H 0.35932 0.85176 0.68335 0.0
H1423 H 0.33844 0.8389 0.65805 0.0
C1424 C 0.61768 0.97333 0.81203 0.0
C1425 C 0.61965 0.99224 0.79833 0.0
C1426 C 0.60925 0.97444 0.83275 0.0
C1427 C 0.60281 0.99497 0.83988 0.0
C1428 C 0.60448 0.01388 0.82589 0.0
C1429 C 0.61281 0.01224 0.80532 0.0
C1430 C 0.60751 0.95387 0.84716 0.0
C1431 C 0.59784 0.03613 0.83284 0.0
C1432 C 0.56505 0.99932 0.88193 0.0
C1433 C 0.57953 0.01327 0.90157 0.0
C1434 C 0.57251 0.99128 0.86229 0.0
C1435 C 0.59494 0.99751 0.86229 0.0
C1436 C 0.60966 0.00985 0.88279 0.0
C1437 C 0.60176 0.0175 0.90222 0.0
C1438 C 0.5563 0.9779 0.84088 0.0
C1439 C 0.6337 0.01679 0.88356 0.0
H1440 H 0.6229 0.9578 0.80669 0.0
H1441 H 0.6142 0.02692 0.79484 0.0
H1442 H 0.61831 0.96008 0.8645 0.0
H1443 H 0.59082 0.94743 0.85042 0.0
H1444 H 0.61192 0.93857 0.83849 0.0
H1445 H 0.59988 0.04904 0.8198 0.0
H1446 H 0.58069 0.03114 0.8348 0.0
H1447 H 0.60762 0.04534 0.85004 0.0
H1448 H 0.54784 0.99598 0.88125 0.0
H1449 H 0.61303 0.02778 0.91758 0.0
H1450 H 0.56148 0.96281 0.833 0.0
H1451 H 0.55513 0.99024 0.8275 0.0
H1452 H 0.54 0.97073 0.84502 0.0
H1453 H 0.6388 1.00138 0.87627 0.0
H1454 H 0.64297 0.02321 0.90166 0.0
H1455 H 0.63798 0.03138 0.87259 0.0
C1456 C 0.30499 0.39493 0.13017 0.0
C1457 C 0.32128 0.39275 0.11773 0.0
C1458 C 0.30169 0.38289 0.14985 0.0
C1459 C 0.3155 0.36889 0.15802 0.0
C1460 C 0.33197 0.36654 0.14547 0.0
C1461 C 0.33442 0.37815 0.12528 0.0
C1462 C 0.28349 0.38539 0.16205 0.0
C1463 C 0.34751 0.35249 0.15388 0.0
C1464 C 0.31833 0.36055 0.22287 0.0
C1465 C 0.30542 0.33697 0.22182 0.0
C1466 C 0.32259 0.37069 0.20236 0.0
C1467 C 0.31294 0.35735 0.18001 0.0
C1468 C 0.29983 0.33351 0.17884 0.0
C1469 C 0.29653 0.32352 0.19968 0.0
C1470 C 0.33715 0.39589 0.20468 0.0
C1471 C 0.28861 0.31881 0.15555 0.0
H1472 H 0.29471 0.4061 0.12443 0.0
H1473 H 0.34722 0.37662 0.11598 0.0
H1474 H 0.27326 0.3674 0.16385 0.0
H1475 H 0.29013 0.39511 0.17997 0.0
H1476 H 0.27315 0.3953 0.15247 0.0
H1477 H 0.35923 0.35204 0.14208 0.0
H1478 H 0.35658 0.36066 0.1717 0.0
H1479 H 0.33858 0.3338 0.15522 0.0
H1480 H 0.32496 0.37125 0.23976 0.0
H1481 H 0.28635 0.30535 0.19859 0.0
H1482 H 0.32756 0.40812 0.19845 0.0
H1483 H 0.34956 0.39651 0.19358 0.0
H1484 H 0.34539 0.40277 0.22308 0.0
H1485 H 0.27731 0.32782 0.14629 0.0
H1486 H 0.2794 0.30038 0.15752 0.0
H1487 H 0.30054 0.31751 0.14427 0.0
C1488 C 0.26063 0.99042 0.03774 0.0
C1489 C 0.27647 0.99438 0.05806 0.0
C1490 C 0.24408 1.00202 0.03641 0.0
C1491 C 0.24321 0.01775 0.05595 0.0
C1492 C 0.25912 0.0217 0.07652 0.0
C1493 C 0.27555 0.0101 0.07727 0.0
C1494 C 0.22759 0.99753 0.01407 0.0
C1495 C 0.25874 0.03815 0.09783 0.0
C1496 C 0.21349 0.06591 0.0489 0.0
C1497 C 0.19413 0.05562 0.05639 0.0
C1498 C 0.22926 0.05352 0.04799 0.0
C1499 C 0.22583 0.0303 0.05502 0.0
C1500 C 0.20625 0.01965 0.06232 0.0
C1501 C 0.19064 0.03235 0.06281 0.0
C1502 C 0.24983 0.06551 0.03998 0.0
C1503 C 0.20195 0.99499 0.07005 0.0
H1504 H 0.26121 0.97835 0.0228 0.0
H1505 H 0.28763 0.01322 0.09311 0.0
H1506 H 0.21118 0.99003 0.01771 0.0
H1507 H 0.22781 0.01473 1.00703 0.0
H1508 H 0.23054 0.98492 1.0004 0.0
H1509 H 0.27211 0.03907 0.11257 0.0
H1510 H 0.25997 0.05654 0.09328 0.0
H1511 H 0.2432 0.03185 0.10387 0.0
H1512 H 0.21659 0.08396 0.0442 0.0
H1513 H 0.17563 0.02397 0.06821 0.0
H1514 H 0.25272 0.05359 0.0257 0.0
H1515 H 0.26372 0.06883 0.05469 0.0
H1516 H 0.24945 0.0829 0.03361 0.0
H1517 H 0.20342 0.98175 0.056 0.0
H1518 H 0.18566 0.98889 0.07453 0.0
H1519 H 0.21418 0.99508 0.08565 0.0
C1520 C 0.70428 0.67747 1.00511 0.0
C1521 C 0.72266 0.67424 0.0191 0.0
C1522 C 0.68345 0.66288 1.00554 0.0
C1523 C 0.68077 0.64492 0.02071 0.0
C1524 C 0.69928 0.64143 0.03469 0.0
C1525 C 0.71993 0.6559 0.03353 0.0
C1526 C 0.66426 0.6669 0.98994 0.0
C1527 C 0.69724 0.62285 0.05143 0.0
C1528 C 0.626 0.62454 0.03933 0.0
C1529 C 0.61668 0.60225 0.02545 0.0
C1530 C 0.64687 0.63844 0.03817 0.0
C1531 C 0.65863 0.63013 0.02236 0.0
C1532 C 0.64922 0.60764 1.00823 0.0
C1533 C 0.62851 0.59388 0.01014 0.0
C1534 C 0.65638 0.66201 0.05392 0.0
C1535 C 0.66093 0.59826 0.99085 0.0
H1536 H 0.70616 0.69152 0.99388 0.0
H1537 H 0.73393 0.65336 0.04461 0.0
H1538 H 0.65456 0.64983 0.97908 0.0
H1539 H 0.65366 0.6729 1.00083 0.0
H1540 H 0.66909 0.68058 0.97816 0.0
H1541 H 0.71317 0.62215 0.06092 0.0
H1542 H 0.68759 0.62693 0.06448 0.0
H1543 H 0.68856 0.60482 0.0418 0.0
H1544 H 0.61698 0.63108 0.05125 0.0
H1545 H 0.62139 0.57674 0.99924 0.0
H1546 H 0.65973 0.67695 0.04318 0.0
H1547 H 0.67198 0.66205 0.06475 0.0
H1548 H 0.64548 0.66559 0.06576 0.0
H1549 H 0.66481 0.61132 0.97827 0.0
H1550 H 0.65129 0.58066 0.98085 0.0
H1551 H 0.67644 0.5962 1.00007 0.0
C1552 C 0.74635 0.55166 0.39702 0.0
C1553 C 0.74733 0.5651 0.37813 0.0
C1554 C 0.75624 0.53287 0.39842 0.0
C1555 C 0.76729 0.52755 0.38051 0.0
C1556 C 0.7689 0.54164 0.36187 0.0
C1557 C 0.75891 0.56018 0.36092 0.0
C1558 C 0.7543 0.51827 0.41858 0.0
C1559 C 0.78061 0.53667 0.34243 0.0
C1560 C 0.80778 0.49138 0.38266 0.0
C1561 C 0.79569 0.47048 0.36771 0.0
C1562 C 0.79825 0.50943 0.38892 0.0
C1563 C 0.77614 0.50646 0.37999 0.0
C1564 C 0.76347 0.48449 0.36671 0.0
C1565 C 0.77341 0.46679 0.36068 0.0
C1566 C 0.81225 0.53247 0.40339 0.0
C1567 C 0.73981 0.48054 0.35692 0.0
H1568 H 0.73745 0.55543 0.4104 0.0
H1569 H 0.75993 0.57062 0.34638 0.0
H1570 H 0.74372 0.49991 0.41204 0.0
H1571 H 0.77031 0.51644 0.42653 0.0
H1572 H 0.74742 0.52637 0.4324 0.0
H1573 H 0.78112 0.54995 0.32974 0.0
H1574 H 0.79741 0.53696 0.34986 0.0
H1575 H 0.77249 0.51851 0.33274 0.0
H1576 H 0.82493 0.49411 0.38858 0.0
H1577 H 0.76392 0.4508 0.34902 0.0
H1578 H 0.80375 0.53893 0.41654 0.0
H1579 H 0.81591 0.54656 0.39175 0.0
H1580 H 0.82775 0.53029 0.41259 0.0
H1581 H 0.73149 0.48662 0.37042 0.0
H1582 H 0.73158 0.46138 0.35026 0.0
H1583 H 0.7381 0.49128 0.34221 0.0
C1584 C 0.8978 0.50912 0.56134 0.0
C1585 C 0.89283 0.48396 0.55744 0.0
C1586 C 0.91854 0.52361 0.56057 0.0
C1587 C 0.93478 0.51273 0.55597 0.0
C1588 C 0.92995 0.48737 0.55231 0.0
C1589 C 0.90907 0.47334 0.553 0.0
C1590 C 0.92298 0.55058 0.56438 0.0
C1591 C 0.94681 0.47502 0.54749 0.0
C1592 C 0.98227 0.54611 0.53027 0.0
C1593 C 0.99907 0.55272 0.54992 0.0
C1594 C 0.96118 0.53382 0.53216 0.0
C1595 C 0.95668 0.52773 0.55421 0.0
C1596 C 0.9734 0.53491 0.57425 0.0
C1597 C 0.99435 0.5474 0.57189 0.0
C1598 C 0.94382 0.52675 0.5104 0.0
C1599 C 0.96931 0.52868 0.59805 0.0
H1600 H 0.88542 0.51755 0.56477 0.0
H1601 H 0.90551 0.45395 0.55008 0.0
H1602 H 0.93675 0.55839 0.57909 0.0
H1603 H 0.92761 0.5582 0.54851 0.0
H1604 H 0.90879 0.55627 0.56828 0.0
H1605 H 0.94069 0.45515 0.5458 0.0
H1606 H 0.95225 0.48001 0.53104 0.0
H1607 H 0.96114 0.48102 0.56182 0.0
H1608 H 0.98563 0.55026 0.51323 0.0
H1609 H 1.00717 0.55234 0.58718 0.0
H1610 H 0.9297 0.53311 0.51331 0.0
H1611 H 0.93817 0.5069 0.5064 0.0
H1612 H 0.94958 0.53418 0.49489 0.0
H1613 H 0.95556 0.53492 0.60246 0.0
H1614 H 0.98365 0.53675 0.6121 0.0
H1615 H 0.96486 0.50889 0.59777 0.0
C1616 C 0.42453 0.24144 0.31266 0.0
C1617 C 0.42489 0.22105 0.29836 0.0
C1618 C 0.40657 0.25066 0.30934 0.0
C1619 C 0.38849 0.23891 0.29159 0.0
C1620 C 0.38851 0.21783 0.27766 0.0
C1621 C 0.40679 0.20927 0.28108 0.0
C1622 C 0.40719 0.2734 0.32433 0.0
C1623 C 0.36948 0.20471 0.25872 0.0
C1624 C 0.33726 0.2572 0.29545 0.0
C1625 C 0.33894 0.27507 0.28062 0.0
C1626 C 0.35284 0.24442 0.29851 0.0
C1627 C 0.37034 0.24976 0.28642 0.0
C1628 C 0.37118 0.2666 0.27019 0.0
C1629 C 0.35542 0.27898 0.26745 0.0
C1630 C 0.35123 0.22622 0.31561 0.0
C1631 C 0.38946 0.27274 0.2568 0.0
H1632 H 0.43847 0.25054 0.32605 0.0
H1633 H 0.40688 0.19329 0.27016 0.0
H1634 H 0.40651 0.2878 0.31312 0.0
H1635 H 0.39292 0.27046 0.33293 0.0
H1636 H 0.42201 0.27973 0.33806 0.0
H1637 H 0.37132 0.18749 0.25079 0.0
H1638 H 0.35439 0.20096 0.26593 0.0
H1639 H 0.36762 0.21616 0.24466 0.0
H1640 H 0.32457 0.25421 0.30571 0.0
H1641 H 0.35651 0.2925 0.25562 0.0
H1642 H 0.36422 0.23322 0.33124 0.0
H1643 H 0.35351 0.20928 0.30761 0.0
H1644 H 0.33545 0.22214 0.32148 0.0
H1645 H 0.40436 0.28341 0.26899 0.0
H1646 H 0.386 0.28337 0.24243 0.0
H1647 H 0.39276 0.25626 0.24916 0.0
C1648 C 0.34317 0.16387 0.54021 0.0
C1649 C 0.3374 0.17993 0.5254 0.0
C1650 C 0.36097 0.15496 0.53821 0.0
C1651 C 0.37342 0.16218 0.52092 0.0
C1652 C 0.36762 0.17826 0.50579 0.0
C1653 C 0.34972 0.18696 0.50822 0.0
C1654 C 0.36653 0.13788 0.55474 0.0
C1655 C 0.38038 0.18633 0.48706 0.0
C1656 C 0.43052 0.15491 0.53099 0.0
C1657 C 0.42779 0.13301 0.51711 0.0
C1658 C 0.41313 0.16488 0.53198 0.0
C1659 C 0.39241 0.15273 0.51875 0.0
C1660 C 0.38964 0.1309 0.50432 0.0
C1661 C 0.40727 0.12131 0.50372 0.0
C1662 C 0.41684 0.1882 0.54757 0.0
C1663 C 0.36787 0.11731 0.48995 0.0
H1664 H 0.33384 0.15832 0.55359 0.0
H1665 H 0.34544 0.19937 0.4967 0.0
H1666 H 0.36615 0.1207 0.54463 0.0
H1667 H 0.38314 0.14558 0.56492 0.0
H1668 H 0.35525 0.13399 0.56722 0.0
H1669 H 0.37375 0.19877 0.4766 0.0
H1670 H 0.39741 0.1955 0.49521 0.0
H1671 H 0.38044 0.17053 0.47504 0.0
H1672 H 0.4463 0.16431 0.54116 0.0
H1673 H 0.4048 0.10422 0.4932 0.0
H1674 H 0.40704 0.18522 0.56151 0.0
H1675 H 0.41154 0.20151 0.53727 0.0
H1676 H 0.43406 0.19594 0.55599 0.0
H1677 H 0.35635 0.11125 0.50175 0.0
H1678 H 0.36862 0.10135 0.47858 0.0
H1679 H 0.3613 0.12922 0.47874 0.0
C1680 C 0.76857 0.68709 0.36167 0.0
C1681 C 0.75089 0.68906 0.37181 0.0
C1682 C 0.78095 0.70658 0.35277 0.0
C1683 C 0.77551 0.72862 0.35398 0.0
C1684 C 0.75838 0.73115 0.36526 0.0
C1685 C 0.7463 0.71133 0.37413 0.0
C1686 C 0.79921 0.70323 0.34107 0.0
C1687 C 0.75216 0.75441 0.36694 0.0
C1688 C 0.8168 0.7838 0.34278 0.0
C1689 C 0.80928 0.78508 0.31915 0.0
C1690 C 0.80585 0.76569 0.35446 0.0
C1691 C 0.78695 0.74846 0.34217 0.0
C1692 C 0.77932 0.74967 0.31827 0.0
C1693 C 0.79065 0.76793 0.30701 0.0
C1694 C 0.81446 0.76502 0.37994 0.0
C1695 C 0.75914 0.73171 0.30459 0.0
H1696 H 0.77233 0.67 0.35993 0.0
H1697 H 0.73263 0.713 0.38186 0.0
H1698 H 0.79525 0.70458 0.32208 0.0
H1699 H 0.81422 0.71761 0.3485 0.0
H1700 H 0.80236 0.68555 0.34308 0.0
H1701 H 0.73956 0.75405 0.37777 0.0
H1702 H 0.76648 0.76963 0.37456 0.0
H1703 H 0.74594 0.75796 0.34913 0.0
H1704 H 0.83115 0.79715 0.35227 0.0
H1705 H 0.78482 0.7689 0.28873 0.0
H1706 H 0.81837 0.74776 0.38208 0.0
H1707 H 0.80198 0.76605 0.39056 0.0
H1708 H 0.82918 0.77997 0.38707 0.0
H1709 H 0.76116 0.71332 0.30428 0.0
H1710 H 0.7552 0.73537 0.28624 0.0
H1711 H 0.74526 0.73203 0.31326 0.0
C1712 C 0.95816 0.60117 0.8315 0.0
C1713 C 0.94998 0.61455 0.81525 0.0
C1714 C 0.94672 0.57757 0.83294 0.0
C1715 C 0.9268 0.56704 0.81754 0.0
C1716 C 0.9186 0.58028 0.80084 0.0
C1717 C 0.93024 0.60398 0.79998 0.0
C1718 C 0.95583 0.56402 0.85116 0.0
C1719 C 0.89751 0.56943 0.78397 0.0
C1720 C 0.90837 0.49918 0.80927 0.0
C1721 C 0.8935 0.4948 0.82436 0.0
C1722 C 0.91889 0.52268 0.80635 0.0
C1723 C 0.91457 0.54214 0.81906 0.0
C1724 C 0.89928 0.5378 0.83403 0.0
C1725 C 0.8888 0.5141 0.83639 0.0
C1726 C 0.93488 0.52668 0.79 0.0
C1727 C 0.89447 0.55817 0.84803 0.0
H1728 H 0.97332 0.60929 0.84346 0.0
H1729 H 0.92389 0.61423 0.78733 0.0
H1730 H 0.94424 0.55845 0.863 0.0
H1731 H 0.95825 0.54744 0.84253 0.0
H1732 H 0.97147 0.5749 0.86191 0.0
H1733 H 0.89362 0.58198 0.7717 0.0
H1734 H 0.89815 0.55283 0.7736 0.0
H1735 H 0.88418 0.56428 0.79383 0.0
H1736 H 0.91175 0.48418 0.79976 0.0
H1737 H 0.87738 0.51063 0.84816 0.0
H1738 H 0.95125 0.53597 0.80011 0.0
H1739 H 0.93068 0.53844 0.77704 0.0
H1740 H 0.93546 0.50959 0.78041 0.0
H1741 H 0.90927 0.56873 0.86042 0.0
H1742 H 0.88156 0.55172 0.85819 0.0
H1743 H 0.88945 0.57053 0.83622 0.0
C1744 C 0.08602 0.92801 0.12314 0.0
C1745 C 0.09524 0.91244 0.11124 0.0
C1746 C 0.08173 0.94809 0.11341 0.0
C1747 C 0.08626 0.95257 0.09091 0.0
C1748 C 0.09521 0.93665 0.07864 0.0
C1749 C 0.09981 0.91702 0.08903 0.0
C1750 C 0.07263 0.96476 0.1274 0.0
C1751 C 0.0999 0.9403 0.05446 0.0
C1752 C 0.05714 0.99331 0.05849 0.0
C1753 C 0.07324 0.01529 0.06206 0.0
C1754 C 0.06127 0.9727 0.06727 0.0
C1755 C 0.0819 0.97405 0.08041 0.0
C1756 C 0.09826 0.99613 0.08386 0.0
C1757 C 0.09381 0.01631 0.07453 0.0
C1758 C 0.04347 0.94948 0.06261 0.0
C1759 C 0.12039 0.99867 0.09796 0.0
H1760 H 0.08252 0.92476 0.14033 0.0
H1761 H 0.10681 0.90508 0.07958 0.0
H1762 H 0.08366 0.98322 0.13024 0.0
H1763 H 0.05691 0.96557 0.11753 0.0
H1764 H 0.07025 0.95904 0.14473 0.0
H1765 H 0.10601 0.92582 0.0468 0.0
H1766 H 0.08505 0.94093 0.04257 0.0
H1767 H 0.11208 0.95775 0.05517 0.0
H1768 H 0.04122 0.99218 0.04886 0.0
H1769 H 0.1064 0.03314 0.07759 0.0
H1770 H 0.03915 0.94404 0.0794 0.0
H1771 H 0.04909 0.93495 0.05429 0.0
H1772 H 0.02874 0.95096 0.05106 0.0
H1773 H 0.11903 0.99484 0.11608 0.0
H1774 H 0.13144 0.01693 0.09882 0.0
H1775 H 0.12773 0.98541 0.09021 0.0
C1776 C 0.95761 0.30001 0.86351 0.0
C1777 C 0.96193 0.30701 0.88786 0.0
C1778 C 0.93828 0.30095 0.8494 0.0
C1779 C 0.9228 0.30917 0.85976 0.0
C1780 C 0.92712 0.31641 0.88427 0.0
C1781 C 0.94653 0.31521 0.89797 0.0
C1782 C 0.93431 0.29289 0.8234 0.0
C1783 C 0.91112 0.3253 0.89609 0.0
C1784 C 0.8792 0.32953 0.82138 0.0
C1785 C 0.86122 0.30954 0.81901 0.0
C1786 C 0.89937 0.32968 0.83449 0.0
C1787 C 0.90171 0.30922 0.84519 0.0
C1788 C 0.88366 0.28883 0.84237 0.0
C1789 C 0.8637 0.28931 0.82949 0.0
C1790 C 0.91809 0.35189 0.8372 0.0
C1791 C 0.88536 0.26655 0.85324 0.0
H1792 H 0.96934 0.2937 0.85542 0.0
H1793 H 0.94963 0.32078 0.9167 0.0
H1794 H 0.91969 0.27742 0.81842 0.0
H1795 H 0.93128 0.30753 0.81349 0.0
H1796 H 0.94812 0.28751 0.81791 0.0
H1797 H 0.91718 0.3311 0.91515 0.0
H1798 H 0.90741 0.34064 0.88786 0.0
H1799 H 0.89577 0.31089 0.89374 0.0
H1800 H 0.87744 0.34519 0.8133 0.0
H1801 H 0.8499 0.27375 0.82775 0.0
H1802 H 0.93172 0.34735 0.83048 0.0
H1803 H 0.92389 0.35898 0.85604 0.0
H1804 H 0.9137 0.36626 0.82776 0.0
H1805 H 0.89838 0.25993 0.84733 0.0
H1806 H 0.87006 0.25188 0.84868 0.0
H1807 H 0.88967 0.27087 0.87259 0.0
C1808 C 0.58937 0.27189 0.60543 0.0
C1809 C 0.58282 0.27707 0.62664 0.0
C1810 C 0.58607 0.24799 0.59538 0.0
C1811 C 0.57595 0.22872 0.60674 0.0
C1812 C 0.56888 0.23384 0.62785 0.0
C1813 C 0.57239 0.25784 0.6375 0.0
C1814 C 0.59379 0.24336 0.57281 0.0
C1815 C 0.55792 0.21393 0.64052 0.0
C1816 C 0.55116 0.16638 0.57188 0.0
C1817 C 0.56705 0.15458 0.57835 0.0
C1818 C 0.55387 0.19042 0.58086 0.0
C1819 C 0.57296 0.20318 0.59678 0.0
C1820 C 0.58902 0.19138 0.60349 0.0
C1821 C 0.58589 0.16729 0.59423 0.0
C1822 C 0.53629 0.2022 0.57324 0.0
C1823 C 0.60959 0.20426 0.62045 0.0
H1824 H 0.59749 0.28651 0.59687 0.0
H1825 H 0.56721 0.2615 0.65386 0.0
H1826 H 0.60621 0.23349 0.57575 0.0
H1827 H 0.58022 0.23189 0.55939 0.0
H1828 H 0.60078 0.26023 0.56577 0.0
H1829 H 0.55287 0.22085 0.65642 0.0
H1830 H 0.54348 0.20185 0.62866 0.0
H1831 H 0.56902 0.20292 0.6458 0.0
H1832 H 0.53654 0.15688 0.5596 0.0
H1833 H 0.59833 0.15849 0.59933 0.0
H1834 H 0.54283 0.21822 0.56479 0.0
H1835 H 0.53034 0.20848 0.58875 0.0
H1836 H 0.52242 0.18986 0.56075 0.0
H1837 H 0.61824 0.22041 0.61346 0.0
H1838 H 0.62057 0.19266 0.62384 0.0
H1839 H 0.60576 0.21047 0.63737 0.0
C1840 C 0.60081 0.80817 0.4046 0.0
C1841 C 0.58213 0.81223 0.39203 0.0
C1842 C 0.61846 0.80725 0.3939 0.0
C1843 C 0.61757 0.81056 0.37 0.0
C1844 C 0.59871 0.8144 0.35712 0.0
C1845 C 0.58122 0.81513 0.36824 0.0
C1846 C 0.63818 0.80296 0.40825 0.0
C1847 C 0.59712 0.81807 0.33163 0.0
C1848 C 0.67081 0.83144 0.34874 0.0
C1849 C 0.67269 0.80999 0.33745 0.0
C1850 C 0.65294 0.8319 0.35926 0.0
C1851 C 0.63652 0.81036 0.35864 0.0
C1852 C 0.63835 0.78862 0.34739 0.0
C1853 C 0.65634 0.78871 0.33691 0.0
C1854 C 0.65167 0.85546 0.3711 0.0
C1855 C 0.62124 0.76526 0.34637 0.0
H1856 H 0.60173 0.80582 0.42295 0.0
H1857 H 0.56694 0.81832 0.35834 0.0
H1858 H 0.64177 0.78697 0.39989 0.0
H1859 H 0.6524 0.81852 0.40894 0.0
H1860 H 0.63616 0.80017 0.42648 0.0
H1861 H 0.58122 0.82041 0.32393 0.0
H1862 H 0.60994 0.83418 0.32976 0.0
H1863 H 0.59973 0.8025 0.32135 0.0
H1864 H 0.68345 0.84793 0.34958 0.0
H1865 H 0.6574 0.77209 0.32794 0.0
H1866 H 0.65117 0.85425 0.38991 0.0
H1867 H 0.63657 0.85941 0.36311 0.0
H1868 H 0.66558 0.87067 0.36976 0.0
H1869 H 0.6194 0.76142 0.36437 0.0
H1870 H 0.62511 0.74987 0.33712 0.0
H1871 H 0.60545 0.76667 0.33724 0.0
C1872 C 0.04527 0.23935 0.4612 0.0
C1873 C 0.03424 0.25481 0.47019 0.0
C1874 C 0.04708 0.21865 0.47136 0.0
C1875 C 0.03725 0.21269 0.49088 0.0
C1876 C 0.02608 0.2282 0.50012 0.0
C1877 C 0.02491 0.24916 0.48986 0.0
C1878 C 0.05957 0.20312 0.46114 0.0
C1879 C 0.01505 0.22242 0.52062 0.0
C1880 C 0.02669 0.14663 0.50111 0.0
C1881 C 0.044 0.14734 0.51912 0.0
C1882 C 0.02386 0.16776 0.49235 0.0
C1883 C 0.03886 0.19029 0.50151 0.0
C1884 C 0.0562 0.19114 0.5199 0.0
C1885 C 0.05845 0.1698 0.52856 0.0
C1886 C 1.00498 0.16589 0.47298 0.0
C1887 C 0.07287 0.21453 0.52993 0.0
H1888 H 0.0527 0.24352 0.44613 0.0
H1889 H 0.01621 0.2608 0.49688 0.0
H1890 H 0.07264 0.20123 0.4749 0.0
H1891 H 0.04878 0.18485 0.45465 0.0
H1892 H 0.06684 0.21057 0.44642 0.0
H1893 H 1.00691 0.23611 0.52571 0.0
H1894 H 1.00288 0.20467 0.51617 0.0
H1895 H 0.02697 0.22118 0.53597 0.0
H1896 H 0.01534 0.12949 0.49371 0.0
H1897 H 0.07198 0.17068 0.54235 0.0
H1898 H 1.0109 0.17122 0.45686 0.0
H1899 H 0.99569 0.1784 0.47797 0.0
H1900 H 0.99395 0.14741 0.46884 0.0
H1901 H 0.0815 0.22189 0.51607 0.0
H1902 H 0.08491 0.21239 0.54476 0.0
H1903 H 0.06494 0.22796 0.53613 0.0
C1904 C 0.66314 0.35364 0.1885 0.0
C1905 C 0.64385 0.34726 0.19722 0.0
C1906 C 0.68304 0.35374 0.20211 0.0
C1907 C 0.68388 0.34751 0.22518 0.0
C1908 C 0.66463 0.34203 0.23443 0.0
C1909 C 0.64491 0.34185 0.22037 0.0
C1910 C 0.70306 0.35957 0.1914 0.0
C1911 C 0.66473 0.33553 0.25898 0.0
C1912 C 0.72892 0.32042 0.2495 0.0
C1913 C 0.74406 0.34007 0.26383 0.0
C1914 C 0.70938 0.32264 0.23701 0.0
C1915 C 0.70454 0.34503 0.23891 0.0
C1916 C 0.71957 0.36489 0.25359 0.0
C1917 C 0.73915 0.36223 0.26574 0.0
C1918 C 0.69401 0.30099 0.22148 0.0
C1919 C 0.71501 0.38902 0.25634 0.0
H1920 H 0.66263 0.35781 0.17068 0.0
H1921 H 0.63021 0.33697 0.2274 0.0
H1922 H 0.71604 0.37388 0.20303 0.0
H1923 H 0.70909 0.34346 0.18957 0.0
H1924 H 0.70004 0.36552 0.17387 0.0
H1925 H 0.64888 0.3338 0.26435 0.0
H1926 H 0.66879 0.31823 0.26008 0.0
H1927 H 0.67728 0.34932 0.27167 0.0
H1928 H 0.73244 0.30322 0.24767 0.0
H1929 H 0.75062 0.37755 0.27675 0.0
H1930 H 0.69137 0.30489 0.2031 0.0
H1931 H 0.67811 0.29683 0.22701 0.0
H1932 H 0.70007 0.28482 0.22194 0.0
H1933 H 0.71336 0.39588 0.23914 0.0
H1934 H 0.72794 0.40249 0.26897 0.0
H1935 H 0.69948 0.3872 0.26245 0.0
C1936 C 0.53612 0.90799 0.96263 0.0
C1937 C 0.55049 0.89463 0.97012 0.0
C1938 C 0.53847 0.93129 0.97363 0.0
C1939 C 0.55597 0.942 0.99235 0.0
C1940 C 0.57073 0.92875 0.99981 0.0
C1941 C 0.56766 0.90517 0.98885 0.0
C1942 C 0.52198 0.9443 0.96541 0.0
C1943 C 0.58987 0.93958 0.01932 0.0
C1944 C 0.57067 0.01047 1.00897 0.0
C1945 C 0.56159 0.01239 0.02909 0.0
C1946 C 0.56916 0.98777 0.99691 0.0
C1947 C 0.55805 0.96645 1.00493 0.0
C1948 C 0.54849 0.96844 0.02494 0.0
C1949 C 0.55051 0.99125 0.03678 0.0
C1950 C 0.57974 0.98661 0.9758 0.0
C1951 C 0.53597 0.94643 0.03383 0.0
H1952 H 0.52276 0.90006 0.94822 0.0
H1953 H 0.57903 0.8952 0.99459 0.0
H1954 H 0.51413 0.94865 0.98012 0.0
H1955 H 0.52998 0.96155 0.95969 0.0
H1956 H 0.5093 0.93354 0.95066 0.0
H1957 H 0.60056 0.9276 0.02222 0.0
H1958 H 0.59944 0.95697 0.01524 0.0
H1959 H 0.58426 0.94331 0.03588 0.0
H1960 H 0.5792 0.02669 1.00285 0.0
H1961 H 0.54327 0.99251 0.05217 0.0
H1962 H 0.56766 0.97652 0.96029 0.0
H1963 H 0.59217 0.97678 0.97905 0.0
H1964 H 0.58747 1.00473 0.97155 0.0
H1965 H 0.52264 0.93567 0.01972 0.0
H1966 H 0.52903 0.95101 0.04923 0.0
H1967 H 0.54663 0.93489 0.03887 0.0
C1968 C 1.01173 0.85137 0.68474 0.0
C1969 C 0.02369 0.83626 0.69398 0.0
C1970 C 0.99457 0.85565 0.69481 0.0
C1971 C 0.98932 0.8448 0.71481 0.0
C1972 C 1.00142 0.82965 0.72428 0.0
C1973 C 0.01832 0.82548 0.71371 0.0
C1974 C 0.982 0.87172 0.68398 0.0
C1975 C 0.99659 0.81788 0.74568 0.0
C1976 C 0.95822 0.87269 0.75437 0.0
C1977 C 0.93725 0.85719 0.74785 0.0
C1978 C 0.97523 0.86893 0.74375 0.0
C1979 C 0.97125 0.84932 0.72593 0.0
C1980 C 0.95007 0.83375 0.71911 0.0
C1981 C 0.93341 0.83779 0.73019 0.0
C1982 C 0.99757 0.8858 0.75184 0.0
C1983 C 0.94498 0.81277 0.70007 0.0
H1984 H 0.01566 0.85974 0.66947 0.0
H1985 H 0.02745 0.81384 0.72108 0.0
H1986 H 0.96467 0.86177 0.67882 0.0
H1987 H 0.98318 0.88727 0.69701 0.0
H1988 H 0.98786 0.87855 0.66829 0.0
H1989 H 1.0076 0.80678 0.75105 0.0
H1990 H 0.99806 0.83178 0.76055 0.0
H1991 H 0.97975 0.80626 0.74219 0.0
H1992 H 0.96146 0.88754 0.76818 0.0
H1993 H 0.91724 0.82586 0.72481 0.0
H1994 H 1.00353 0.89408 0.73683 0.0
H1995 H 1.0089 0.87563 0.75878 0.0
H1996 H 0.998 0.90032 0.76571 0.0
H1997 H 0.94943 0.8192 0.68366 0.0
H1998 H 0.92764 0.80263 0.69642 0.0
H1999 H 0.95468 0.8003 0.7052 0.0
C2000 C 0.16531 0.09229 0.93509 0.0
C2001 C 0.15966 0.10279 0.91509 0.0
C2002 C 0.15006 0.08369 0.94909 0.0
C2003 C 0.12869 0.08534 0.94266 0.0
C2004 C 0.12272 0.09487 0.92187 0.0
C2005 C 0.13831 0.10364 0.90847 0.0
C2006 C 0.15705 0.07395 0.97133 0.0
C2007 C 0.10008 0.09684 0.91433 0.0
C2008 C 0.08274 0.05442 0.972 0.0
C2009 C 0.08175 0.07365 0.98752 0.0
C2010 C 0.09842 0.05762 0.95763 0.0
C2011 C 0.11338 0.08048 0.95912 0.0
C2012 C 0.11263 0.0997 0.97518 0.0
C2013 C 0.09666 0.09612 0.98885 0.0
C2014 C 0.09867 0.03682 0.94049 0.0
C2015 C 0.12833 0.12433 0.97751 0.0
H2016 H 0.18176 0.09143 0.94015 0.0
H2017 H 0.13373 0.11133 0.89279 0.0
H2018 H 0.15648 0.08623 0.98669 0.0
H2019 H 0.14581 0.05623 0.97211 0.0
H2020 H 0.17367 0.07202 0.97288 0.0
H2021 H 0.09743 0.10206 0.89642 0.0
H2022 H 0.08808 0.07953 0.91472 0.0
H2023 H 0.09698 0.11054 0.92672 0.0
H2024 H 0.0712 0.03704 0.97095 0.0
H2025 H 0.09571 0.11121 1.00047 0.0
H2026 H 0.11506 0.03419 0.94269 0.0
H2027 H 0.09455 0.0408 0.92232 0.0
H2028 H 0.08702 0.01983 0.94267 0.0
H2029 H 0.14516 0.12299 0.98051 0.0
H2030 H 0.12659 0.13676 0.99215 0.0
H2031 H 0.12569 0.13229 0.96101 0.0
C2032 C 0.81594 0.41604 0.63647 0.0
C2033 C 0.82383 0.40534 0.61848 0.0
C2034 C 0.81519 0.40687 0.65802 0.0
C2035 C 0.82272 0.38654 0.66208 0.0
C2036 C 0.83051 0.37545 0.64395 0.0
C2037 C 0.83086 0.38487 0.62238 0.0
C2038 C 0.80643 0.41912 0.67657 0.0
C2039 C 0.8388 0.35383 0.6475 0.0
C2040 C 0.83863 0.37796 0.72638 0.0
C2041 C 0.82036 0.36062 0.72988 0.0
C2042 C 0.83984 0.3861 0.70433 0.0
C2043 C 0.82229 0.37694 0.68526 0.0
C2044 C 0.80386 0.35937 0.68869 0.0
C2045 C 0.80317 0.35139 0.7108 0.0
C2046 C 0.85985 0.40475 0.70152 0.0
C2047 C 0.78462 0.3493 0.6691 0.0
H2048 H 0.81036 0.43178 0.63375 0.0
H2049 H 0.83712 0.37651 0.60876 0.0
H2050 H 0.79277 0.40607 0.68166 0.0
H2051 H 0.81908 0.42587 0.69252 0.0
H2052 H 0.80076 0.43443 0.67055 0.0
H2053 H 0.84422 0.34716 0.63175 0.0
H2054 H 0.85253 0.35844 0.66253 0.0
H2055 H 0.826 0.33909 0.65184 0.0
H2056 H 0.85203 0.38521 0.74089 0.0
H2057 H 0.78889 0.33808 0.71319 0.0
H2058 H 0.85568 0.42141 0.69719 0.0
H2059 H 0.8666 0.39823 0.68675 0.0
H2060 H 0.8725 0.40926 0.71762 0.0
H2061 H 0.77772 0.36394 0.66351 0.0
H2062 H 0.77176 0.33526 0.67434 0.0
H2063 H 0.78966 0.34145 0.65365 0.0
C2064 C 0.55355 0.16557 0.39506 0.0
C2065 C 0.53676 0.17666 0.39263 0.0
C2066 C 0.55916 0.15575 0.41551 0.0
C2067 C 0.5478 0.15714 0.4341 0.0
C2068 C 0.53161 0.16942 0.4323 0.0
C2069 C 0.52626 0.17904 0.41154 0.0
C2070 C 0.57662 0.14294 0.41677 0.0
C2071 C 0.51934 0.17151 0.4519 0.0
C2072 C 0.54757 0.10845 0.4738 0.0
C2073 C 0.56451 0.12025 0.49225 0.0
C2074 C 0.54146 0.1205 0.45508 0.0
C2075 C 0.5525 0.14492 0.45496 0.0
C2076 C 0.56912 0.15709 0.47399 0.0
C2077 C 0.57498 0.14457 0.49235 0.0
C2078 C 0.52365 0.1069 0.43508 0.0
C2079 C 0.58112 0.18316 0.47466 0.0
H2080 H 0.56181 0.1637 0.38058 0.0
H2081 H 0.51321 0.18749 0.40977 0.0
H2082 H 0.58912 0.15046 0.43272 0.0
H2083 H 0.56961 0.12366 0.418 0.0
H2084 H 0.58454 0.14435 0.40122 0.0
H2085 H 0.50862 0.1834 0.44866 0.0
H2086 H 0.50933 0.15346 0.45385 0.0
H2087 H 0.5307 0.17861 0.46878 0.0
H2088 H 0.5394 0.08967 0.47375 0.0
H2089 H 0.58795 0.15384 0.50675 0.0
H2090 H 0.5303 0.1056 0.41879 0.0
H2091 H 0.51116 0.11665 0.43189 0.0
H2092 H 0.51583 0.08846 0.43848 0.0
H2093 H 0.59057 0.18512 0.46037 0.0
H2094 H 0.59233 0.19053 0.49161 0.0
H2095 H 0.56957 0.19413 0.4717 0.0
C2096 C 0.81035 0.75684 0.11243 0.0
C2097 C 0.79826 0.7644 0.09384 0.0
C2098 C 0.81215 0.76641 0.13589 0.0
C2099 C 0.80162 0.78409 0.14118 0.0
C2100 C 0.79001 0.79246 0.1225 0.0
C2101 C 0.78847 0.78256 0.0991 0.0
C2102 C 0.82487 0.75704 0.15509 0.0
C2103 C 0.77863 0.81138 0.12729 0.0
C2104 C 0.78795 0.78881 0.20259 0.0
C2105 C 0.80485 0.80827 0.21468 0.0
C2106 C 0.78652 0.78105 0.17865 0.0
C2107 C 0.80227 0.7931 0.1663 0.0
C2108 C 0.81916 0.813 0.17832 0.0
C2109 C 0.82029 0.82026 0.20227 0.0
C2110 C 0.76824 0.75974 0.16663 0.0
C2111 C 0.83622 0.82654 0.16594 0.0
H2112 H 0.81809 0.74292 0.10873 0.0
H2113 H 0.77902 0.78852 0.08499 0.0
H2114 H 0.8374 0.77212 0.16631 0.0
H2115 H 0.81399 0.74809 0.16647 0.0
H2116 H 0.83285 0.74399 0.14808 0.0
H2117 H 0.77151 0.81717 0.11092 0.0
H2118 H 0.76553 0.80423 0.13697 0.0
H2119 H 0.79001 0.82732 0.13855 0.0
H2120 H 0.77586 0.77946 0.21187 0.0
H2121 H 0.83328 0.83554 0.21123 0.0
H2122 H 0.77481 0.74506 0.1604 0.0
H2123 H 0.7591 0.76474 0.15101 0.0
H2124 H 0.7569 0.7528 0.17839 0.0
H2125 H 0.84553 0.81446 0.15998 0.0
H2126 H 0.84762 0.84239 0.17738 0.0
H2127 H 0.82856 0.83271 0.15012 0.0
C2128 C 0.19749 0.07997 0.78759 0.0
C2129 C 0.18583 0.08644 0.80411 0.0
C2130 C 0.18846 0.07553 0.76359 0.0
C2131 C 0.16748 0.07788 0.75614 0.0
C2132 C 0.15495 0.08203 0.77292 0.0
C2133 C 0.16426 0.08615 0.79671 0.0
C2134 C 0.202 0.07031 0.74618 0.0
C2135 C 0.13243 0.08452 0.76573 0.0
C2136 C 0.15485 0.10776 0.70289 0.0
C2137 C 0.13962 0.08887 0.68789 0.0
C2138 C 0.16502 0.10402 0.72466 0.0
C2139 C 0.16008 0.0807 0.73143 0.0
C2140 C 0.146 0.06116 0.71563 0.0
C2141 C 0.13576 0.06551 0.69401 0.0
C2142 C 0.18 0.12539 0.74097 0.0
C2143 C 0.14075 0.03596 0.72202 0.0
H2144 H 0.21406 0.07975 0.79322 0.0
H2145 H 0.15496 0.09058 0.80942 0.0
H2146 H 0.19207 0.05672 0.73141 0.0
H2147 H 0.20883 0.08697 0.73879 0.0
H2148 H 0.21558 0.06379 0.75451 0.0
H2149 H 0.124 0.08495 0.78081 0.0
H2150 H 0.13332 0.10142 0.75789 0.0
H2151 H 0.12262 0.06948 0.75226 0.0
H2152 H 0.15835 0.12571 0.69789 0.0
H2153 H 0.12406 0.05081 0.68239 0.0
H2154 H 0.19564 0.12178 0.74733 0.0
H2155 H 0.17279 0.12867 0.75653 0.0
H2156 H 0.18314 0.142 0.73243 0.0
H2157 H 0.15528 0.03215 0.73175 0.0
H2158 H 0.13398 0.02238 0.70624 0.0
H2159 H 0.12861 0.03393 0.73357 0.0
C2160 C 0.80211 0.39786 0.46781 0.0
C2161 C 0.81761 0.39106 0.48334 0.0
C2162 C 0.79727 0.38918 0.44363 0.0
C2163 C 0.80824 0.37339 0.43459 0.0
C2164 C 0.82394 0.36656 0.45019 0.0
C2165 C 0.82835 0.37536 0.47424 0.0
C2166 C 0.78034 0.39685 0.42775 0.0
C2167 C 0.83616 0.3499 0.44145 0.0
C2168 C 0.78382 0.33001 0.37814 0.0
C2169 C 0.79559 0.34103 0.36194 0.0
C2170 C 0.78718 0.34079 0.40148 0.0
C2171 C 0.80286 0.36316 0.40907 0.0
C2172 C 0.81433 0.37476 0.39256 0.0
C2173 C 0.81059 0.36352 0.36925 0.0
C2174 C 0.7744 0.32778 0.41825 0.0
C2175 C 0.83112 0.39862 0.39969 0.0
H2176 H 0.79378 0.41006 0.47453 0.0
H2177 H 0.84048 0.37008 0.48592 0.0
H2178 H 0.78737 0.40563 0.4135 0.0
H2179 H 0.76705 0.38086 0.41934 0.0
H2180 H 0.77348 0.40948 0.43733 0.0
H2181 H 0.84829 0.34682 0.45564 0.0
H2182 H 0.82474 0.33232 0.43361 0.0
H2183 H 0.84455 0.35747 0.4275 0.0
H2184 H 0.7722 0.31261 0.37267 0.0
H2185 H 0.81999 0.37194 0.35699 0.0
H2186 H 0.76665 0.33986 0.42724 0.0
H2187 H 0.78538 0.32234 0.43195 0.0
H2188 H 0.7617 0.31147 0.40927 0.0
H2189 H 0.82415 0.41183 0.40817 0.0
H2190 H 0.83766 0.40599 0.38453 0.0
H2191 H 0.84465 0.39655 0.41274 0.0
C2192 C 0.55028 0.21783 0.27375 0.0
C2193 C 0.52773 0.21285 0.26968 0.0
C2194 C 0.56107 0.21433 0.25531 0.0
C2195 C 0.54889 0.20496 0.23262 0.0
C2196 C 0.52658 0.20325 0.22789 0.0
C2197 C 0.51629 0.20755 0.2465 0.0
C2198 C 0.58512 0.2179 0.26065 0.0
C2199 C 0.51299 0.19364 0.20387 0.0
C2200 C 0.57288 0.18658 0.18088 0.0
C2201 C 0.57151 0.16253 0.1836 0.0
C2202 C 0.56628 0.20113 0.19709 0.0
C2203 C 0.55781 0.19111 0.21609 0.0
C2204 C 0.55659 0.16682 0.21887 0.0
C2205 C 0.56366 0.15296 0.20273 0.0
C2206 C 0.56863 0.22713 0.19396 0.0
C2207 C 0.54712 0.15511 0.23847 0.0
H2208 H 0.55934 0.22263 0.29155 0.0
H2209 H 0.4989 0.20416 0.24306 0.0
H2210 H 0.58847 0.20037 0.26279 0.0
H2211 H 0.59267 0.22513 0.24604 0.0
H2212 H 0.59276 0.23031 0.27709 0.0
H2213 H 0.49698 0.1973 0.20211 0.0
H2214 H 0.52125 0.20156 0.19 0.0
H2215 H 0.51039 0.17391 0.20081 0.0
H2216 H 0.57909 0.19396 0.16608 0.0
H2217 H 0.56231 0.13425 0.20458 0.0
H2218 H 0.58292 0.23848 0.20658 0.0
H2219 H 0.55441 0.23283 0.19767 0.0
H2220 H 0.57095 0.23067 0.17597 0.0
H2221 H 0.55673 0.16448 0.25568 0.0
H2222 H 0.54674 0.13585 0.23762 0.0
H2223 H 0.5304 0.15649 0.23772 0.0
C2224 C 0.77332 0.78074 0.95007 0.0
C2225 C 0.78721 0.76881 0.96178 0.0
C2226 C 0.77704 0.79033 0.92914 0.0
C2227 C 0.79529 0.78834 0.91964 0.0
C2228 C 0.80944 0.77643 0.93144 0.0
C2229 C 0.80517 0.76671 0.95218 0.0
C2230 C 0.76132 0.80254 0.91714 0.0
C2231 C 0.82924 0.77409 0.92223 0.0
C2232 C 0.7961 0.79528 0.85476 0.0
C2233 C 0.80814 0.81928 0.85593 0.0
C2234 C 0.79167 0.78505 0.87522 0.0
C2235 C 0.79971 0.79899 0.89757 0.0
C2236 C 0.81193 0.82324 0.8988 0.0
C2237 C 0.81582 0.83309 0.87805 0.0
C2238 C 0.7783 0.75931 0.8729 0.0
C2239 C 0.82104 0.83879 0.9221 0.0
H2240 H 0.75932 0.7824 0.95714 0.0
H2241 H 0.81604 0.75758 0.961 0.0
H2242 H 0.76973 0.82153 0.91621 0.0
H2243 H 0.75481 0.7937 0.89887 0.0
H2244 H 0.74762 0.80211 0.92636 0.0
H2245 H 0.83873 0.76449 0.93343 0.0
H2246 H 0.82448 0.76424 0.90422 0.0
H2247 H 0.83975 0.79216 0.92118 0.0
H2248 H 0.79004 0.78445 0.83779 0.0
H2249 H 0.82517 0.85162 0.8792 0.0
H2250 H 0.76389 0.75833 0.88102 0.0
H2251 H 0.7878 0.74857 0.88241 0.0
H2252 H 0.77288 0.75099 0.85432 0.0
H2253 H 0.80778 0.84028 0.93139 0.0
H2254 H 0.83048 0.85714 0.92018 0.0
H2255 H 0.83165 0.8304 0.93334 0.0
C2256 C 0.853 0.15644 0.06059 0.0
C2257 C 0.8523 0.17703 0.04984 0.0
C2258 C 0.86853 0.14419 0.05748 0.0
C2259 C 0.88402 0.15282 0.0435 0.0
C2260 C 0.8835 0.1737 0.03271 0.0
C2261 C 0.86758 0.18544 0.03587 0.0
C2262 C 0.86827 0.12188 0.0691 0.0
C2263 C 0.89987 0.1837 0.01793 0.0
C2264 C 0.9355 0.13253 0.05367 0.0
C2265 C 0.93155 0.11414 0.03493 0.0
C2266 C 0.92043 0.14556 0.05638 0.0
C2267 C 0.90067 0.13992 0.04019 0.0
C2268 C 0.89655 0.12142 0.02124 0.0
C2269 C 0.91204 0.10891 0.01876 0.0
C2270 C 0.92557 0.16521 0.07677 0.0
C2271 C 0.87564 0.11464 1.00369 0.0
H2272 H 0.84124 0.1497 0.07134 0.0
H2273 H 0.86724 0.20136 0.02756 0.0
H2274 H 0.86634 0.10641 0.05565 0.0
H2275 H 0.88386 0.12436 0.08114 0.0
H2276 H 0.85504 0.11734 0.07922 0.0
H2277 H 0.89748 0.20022 0.01097 0.0
H2278 H 0.9164 0.18793 0.02847 0.0
H2279 H 0.89883 0.17009 1.00296 0.0
H2280 H 0.95027 0.13653 0.06656 0.0
H2281 H 0.90886 0.09505 1.00401 0.0
H2282 H 0.91378 0.16053 0.08856 0.0
H2283 H 0.92416 0.18227 0.07035 0.0
H2284 H 0.94207 0.16823 0.08713 0.0
H2285 H 0.86185 0.10881 0.01279 0.0
H2286 H 0.87491 0.09994 0.98987 0.0
H2287 H 0.87356 0.13046 0.99518 0.0
C2288 C 0.40572 0.49789 0.08369 0.0
C2289 C 0.39329 0.48209 0.064 0.0
C2290 C 0.4266 0.51226 0.08311 0.0
C2291 C 0.43488 0.51153 0.06204 0.0
C2292 C 0.422 0.49616 0.0419 0.0
C2293 C 0.4016 0.4813 0.04328 0.0
C2294 C 0.44004 0.5277 0.10521 0.0
C2295 C 0.42974 0.4954 0.01885 0.0
C2296 C 0.48193 0.56404 0.05553 0.0
C2297 C 0.49927 0.55388 0.05851 0.0
C2298 C 0.46085 0.55042 0.05629 0.0
C2299 C 0.45718 0.52633 0.06114 0.0
C2300 C 0.47482 0.5162 0.06464 0.0
C2301 C 0.49553 0.52992 0.0628 0.0
C2302 C 0.44247 0.56166 0.0515 0.0
C2303 C 0.47187 0.49092 0.07061 0.0
H2304 H 0.39941 0.49839 0.09979 0.0
H2305 H 0.39194 0.46923 0.02796 0.0
H2306 H 0.45522 0.52252 0.10994 0.0
H2307 H 0.44458 0.54681 0.10232 0.0
H2308 H 0.43142 0.52601 0.12022 0.0
H2309 H 0.41715 0.4839 1.00442 0.0
H2310 H 0.43473 0.51379 0.01397 0.0
H2311 H 0.44408 0.48837 0.02053 0.0
H2312 H 0.48478 0.58253 0.05209 0.0
H2313 H 0.50895 0.52207 0.06533 0.0
H2314 H 0.43457 0.562 0.06697 0.0
H2315 H 0.43009 0.55071 0.03661 0.0
H2316 H 0.44788 0.58029 0.04726 0.0
H2317 H 0.46411 0.48875 0.08622 0.0
H2318 H 0.48741 0.48622 0.07426 0.0
H2319 H 0.46103 0.47793 0.05591 0.0
C2320 C 0.345 0.60507 0.67081 0.0
C2321 C 0.36387 0.60426 0.68564 0.0
C2322 C 0.33429 0.62234 0.676 0.0
C2323 C 0.3428 0.63926 0.69637 0.0
C2324 C 0.3622 0.63898 0.71101 0.0
C2325 C 0.37245 0.6214 0.70553 0.0
C2326 C 0.31355 0.622 0.6601 0.0
C2327 C 0.37185 0.6569 0.7328 0.0
C2328 C 0.32442 0.69573 0.70453 0.0
C2329 C 0.31034 0.68963 0.72029 0.0
C2330 C 0.33473 0.6793 0.69604 0.0
C2331 C 0.3307 0.65622 0.70338 0.0
C2332 C 0.31587 0.64964 0.71854 0.0
C2333 C 0.30597 0.66646 0.7269 0.0
C2334 C 0.35045 0.68693 0.67989 0.0
C2335 C 0.31104 0.62512 0.72663 0.0
H2336 H 0.3383 0.59189 0.65539 0.0
H2337 H 0.38712 0.62098 0.71695 0.0
H2338 H 0.29998 0.61753 0.66973 0.0
H2339 H 0.31445 0.64 0.65465 0.0
H2340 H 0.30984 0.60868 0.64415 0.0
H2341 H 0.38773 0.65523 0.74145 0.0
H2342 H 0.37394 0.67546 0.72839 0.0
H2343 H 0.36074 0.65421 0.74551 0.0
H2344 H 0.32763 0.7135 0.69911 0.0
H2345 H 0.2954 0.6617 0.73937 0.0
H2346 H 0.34634 0.67367 0.66388 0.0
H2347 H 0.36694 0.6875 0.68878 0.0
H2348 H 0.35068 0.7049 0.67461 0.0
H2349 H 0.30623 0.6109 0.71134 0.0
H2350 H 0.29798 0.62227 0.73707 0.0
H2351 H 0.32577 0.62292 0.73756 0.0
C2352 C 0.22246 0.68855 0.52084 0.0
C2353 C 0.24013 0.67961 0.52817 0.0
C2354 C 0.20117 0.67467 0.51981 0.0
C2355 C 0.19731 0.65113 0.52609 0.0
C2356 C 0.21497 0.64152 0.53231 0.0
C2357 C 0.23615 0.65588 0.53337 0.0
C2358 C 0.18287 0.68569 0.51318 0.0
C2359 C 0.21156 0.61643 0.53887 0.0
C2360 C 0.14703 0.62863 0.55197 0.0
C2361 C 0.13233 0.61404 0.53278 0.0
C2362 C 0.16819 0.64048 0.55002 0.0
C2363 C 0.17507 0.63762 0.52838 0.0
C2364 C 0.1605 0.62259 0.50901 0.0
C2365 C 0.13927 0.61107 0.51139 0.0
C2366 C 0.18309 0.65647 0.5711 0.0
C2367 C 0.16727 0.6189 0.4857 0.0
H2368 H 0.22525 0.7068 0.5167 0.0
H2369 H 0.24961 0.6487 0.53892 0.0
H2370 H 0.17021 0.67355 0.49927 0.0
H2371 H 0.17531 0.68822 0.52862 0.0
H2372 H 0.18835 0.70337 0.50689 0.0
H2373 H 0.2266 0.61063 0.54068 0.0
H2374 H 0.2058 0.61567 0.55578 0.0
H2375 H 0.19897 0.60346 0.5255 0.0
H2376 H 0.14192 0.63118 0.56859 0.0
H2377 H 0.12812 0.59979 0.49647 0.0
H2378 H 0.18818 0.67517 0.56702 0.0
H2379 H 0.19788 0.65048 0.57548 0.0
H2380 H 0.17538 0.65649 0.58677 0.0
H2381 H 0.1714 0.63622 0.4785 0.0
H2382 H 0.15441 0.60575 0.4727 0.0
H2383 H 0.18196 0.61248 0.48802 0.0
C2384 C 0.69895 0.94224 0.77124 0.0
C2385 C 0.69139 0.93417 0.74726 0.0
C2386 C 0.71472 0.93359 0.78424 0.0
C2387 C 0.72266 0.91606 0.77309 0.0
C2388 C 0.71413 0.90686 0.74921 0.0
C2389 C 0.69882 0.91629 0.7365 0.0
C2390 C 0.72369 0.94415 0.80951 0.0
C2391 C 0.7217 0.88759 0.73686 0.0
C2392 C 0.77789 0.90654 0.7909 0.0
C2393 C 0.7726 0.88512 0.80078 0.0
C2394 C 0.76201 0.91809 0.78359 0.0
C2395 C 0.74039 0.9077 0.78589 0.0
C2396 C 0.73544 0.88738 0.79784 0.0
C2397 C 0.75169 0.87657 0.80545 0.0
C2398 C 0.76805 0.94028 0.77167 0.0
C2399 C 0.71262 0.87555 0.80054 0.0
H2400 H 0.69347 0.95635 0.77953 0.0
H2401 H 0.69299 0.91005 0.71797 0.0
H2402 H 0.72364 0.92973 0.82083 0.0
H2403 H 0.74071 0.95485 0.81116 0.0
H2404 H 0.71443 0.95597 0.81618 0.0
H2405 H 0.71226 0.88109 0.71884 0.0
H2406 H 0.73894 0.89471 0.73572 0.0
H2407 H 0.72038 0.87209 0.74696 0.0
H2408 H 0.79401 0.91341 0.78741 0.0
H2409 H 0.74748 0.86024 0.81344 0.0
H2410 H 0.76045 0.95399 0.778 0.0
H2411 H 0.76202 0.93556 0.75251 0.0
H2412 H 0.7858 0.94828 0.7747 0.0
H2413 H 0.70463 0.88908 0.80632 0.0
H2414 H 0.71205 0.86232 0.81327 0.0
H2415 H 0.70314 0.866 0.78332 0.0
C2416 C 0.77858 1.00255 0.57906 0.0
C2417 C 0.77895 0.98312 0.56328 0.0
C2418 C 0.76057 0.01175 0.57734 0.0
C2419 C 0.7423 1.00126 0.55945 0.0
C2420 C 0.74261 0.98175 0.54332 0.0
C2421 C 0.76093 0.97296 0.54538 0.0
C2422 C 0.76106 0.03267 0.59482 0.0
C2423 C 0.72347 0.96999 0.52405 0.0
C2424 C 0.68944 0.01263 0.57048 0.0
C2425 C 0.68832 0.03196 0.55786 0.0
C2426 C 0.70653 1.00198 0.57056 0.0
C2427 C 0.72299 0.01084 0.55776 0.0
C2428 C 0.7216 0.02984 0.54443 0.0
C2429 C 0.70432 0.04009 0.54459 0.0
C2430 C 0.70732 0.98173 0.58498 0.0
C2431 C 0.73872 0.03982 0.53048 0.0
H2432 H 0.79238 0.01058 0.59295 0.0
H2433 H 0.761 0.95789 0.53316 0.0
H2434 H 0.75848 0.04786 0.58551 0.0
H2435 H 0.74776 0.02744 0.60472 0.0
H2436 H 0.77657 0.039 0.60752 0.0
H2437 H 0.7263 0.95519 0.51275 0.0
H2438 H 0.70904 0.96266 0.53176 0.0
H2439 H 0.71972 0.98348 0.51291 0.0
H2440 H 0.67734 1.00632 0.58096 0.0
H2441 H 0.70344 0.05468 0.53441 0.0
H2442 H 0.72149 0.98761 0.59951 0.0
H2443 H 0.70928 0.96616 0.57407 0.0
H2444 H 0.69256 0.97576 0.59258 0.0
H2445 H 0.7544 0.0479 0.54253 0.0
H2446 H 0.73473 0.05375 0.52005 0.0
H2447 H 0.74087 0.02521 0.51841 0.0
C2448 C 0.38506 0.47165 0.71042 0.0
C2449 C 0.37412 0.48695 0.69975 0.0
C2450 C 0.37386 0.45127 0.71921 0.0
C2451 C 0.35131 0.44659 0.718 0.0
C2452 C 0.34009 0.46142 0.70638 0.0
C2453 C 0.3516 0.48123 0.6971 0.0
C2454 C 0.38628 0.43534 0.73066 0.0
C2455 C 0.31611 0.45729 0.70505 0.0
C2456 C 0.31616 0.38716 0.72941 0.0
C2457 C 0.31501 0.39222 0.75303 0.0
C2458 C 0.32873 0.4043 0.71802 0.0
C2459 C 0.33964 0.42735 0.73033 0.0
C2460 C 0.33863 0.43243 0.75429 0.0
C2461 C 0.32663 0.41458 0.76549 0.0
C2462 C 0.33016 0.39778 0.69282 0.0
C2463 C 0.34972 0.45691 0.76793 0.0
H2464 H 0.40247 0.47595 0.71241 0.0
H2465 H 0.34309 0.49311 0.68909 0.0
H2466 H 0.38707 0.43786 0.74988 0.0
H2467 H 0.37799 0.41615 0.72424 0.0
H2468 H 0.40303 0.4394 0.72725 0.0
H2469 H 0.30965 0.46984 0.6946 0.0
H2470 H 0.30734 0.43863 0.69716 0.0
H2471 H 0.31265 0.45966 0.72301 0.0
H2472 H 0.30747 0.36962 0.71992 0.0
H2473 H 0.32578 0.41834 0.7838 0.0
H2474 H 0.34726 0.40263 0.69062 0.0
H2475 H 0.32169 0.40807 0.68138 0.0
H2476 H 0.32287 0.37831 0.6867 0.0
H2477 H 0.3673 0.46142 0.76803 0.0
H2478 H 0.3472 0.45799 0.78635 0.0
H2479 H 0.34352 0.47073 0.75933 0.0
C2480 C 0.20715 0.57188 0.2527 0.0
C2481 C 0.20816 0.55321 0.23646 0.0
C2482 C 0.21916 0.59549 0.25246 0.0
C2483 C 0.23276 0.60048 0.23581 0.0
C2484 C 0.23542 0.58147 0.22084 0.0
C2485 C 0.22292 0.55797 0.22121 0.0
C2486 C 0.21593 0.61529 0.26882 0.0
C2487 C 0.25032 0.58606 0.2034 0.0
C2488 C 0.23404 0.66129 0.2178 0.0
C2489 C 0.2519 0.6759 0.23378 0.0
C2490 C 0.22858 0.63632 0.21693 0.0
C2491 C 0.24154 0.62575 0.23216 0.0
C2492 C 0.26083 0.64021 0.24656 0.0
C2493 C 0.26571 0.66524 0.24736 0.0
C2494 C 0.20791 0.62147 0.2012 0.0
C2495 C 0.27537 0.62949 0.2625 0.0
H2496 H 0.19604 0.56832 0.26479 0.0
H2497 H 0.22403 0.54355 0.20885 0.0
H2498 H 0.2317 0.62701 0.2784 0.0
H2499 H 0.20773 0.62664 0.2585 0.0
H2500 H 0.20604 0.6082 0.28185 0.0
H2501 H 0.2543 0.56947 0.19709 0.0
H2502 H 0.24239 0.59267 0.18804 0.0
H2503 H 0.26552 0.60004 0.21117 0.0
H2504 H 0.22369 0.66948 0.20679 0.0
H2505 H 0.2796 0.67642 0.25972 0.0
H2506 H 0.19589 0.61412 0.2121 0.0
H2507 H 0.21075 0.60604 0.19094 0.0
H2508 H 0.20086 0.63214 0.18883 0.0
H2509 H 0.26842 0.6254 0.27835 0.0
H2510 H 0.29177 0.64205 0.26821 0.0
H2511 H 0.27675 0.61243 0.2537 0.0
C2512 C 0.53206 0.73458 0.46951 0.0
C2513 C 0.54288 0.75747 0.48166 0.0
C2514 C 0.53453 0.71358 0.47875 0.0
C2515 C 0.54775 0.71535 0.501 0.0
C2516 C 0.55794 0.73842 0.51378 0.0
C2517 C 0.55564 0.75912 0.50385 0.0
C2518 C 0.52369 0.68949 0.46425 0.0
C2519 C 0.57169 0.74126 0.53779 0.0
C2520 C 0.54139 0.65881 0.53174 0.0
C2521 C 0.5593 0.65112 0.52752 0.0
C2522 C 0.5376 0.6798 0.5236 0.0
C2523 C 0.55176 0.69324 0.51038 0.0
C2524 C 0.56984 0.68547 0.50602 0.0
C2525 C 0.57353 0.66476 0.51488 0.0
C2526 C 0.51845 0.68762 0.52924 0.0
C2527 C 0.58513 0.69882 0.49162 0.0
H2528 H 0.52234 0.73307 0.45227 0.0
H2529 H 0.56402 0.7767 0.51343 0.0
H2530 H 0.53611 0.6808 0.45995 0.0
H2531 H 0.51354 0.67747 0.47437 0.0
H2532 H 0.51343 0.69103 0.44764 0.0
H2533 H 0.57697 0.76018 0.54631 0.0
H2534 H 0.56264 0.72989 0.54926 0.0
H2535 H 0.58624 0.73515 0.53638 0.0
H2536 H 0.53044 0.64858 0.54172 0.0
H2537 H 0.5873 0.65887 0.51133 0.0
H2538 H 0.50723 0.68757 0.51281 0.0
H2539 H 0.52389 0.70628 0.53837 0.0
H2540 H 0.50946 0.67578 0.54045 0.0
H2541 H 0.5761 0.69975 0.47407 0.0
H2542 H 0.5981 0.69017 0.48928 0.0
H2543 H 0.59271 0.71752 0.50016 0.0
C2544 C 0.67945 0.35989 0.69626 0.0
C2545 C 0.66141 0.36037 0.70641 0.0
C2546 C 0.69924 0.35985 0.71004 0.0
C2547 C 0.70131 0.36078 0.73472 0.0
C2548 C 0.68335 0.36198 0.74513 0.0
C2549 C 0.66363 0.36151 0.73089 0.0
C2550 C 0.71781 0.35821 0.6981 0.0
C2551 C 0.68492 0.36358 0.77137 0.0
C2552 C 0.74592 0.33863 0.76909 0.0
C2553 C 0.76237 0.36004 0.77659 0.0
C2554 C 0.72604 0.33856 0.7554 0.0
C2555 C 0.72225 0.36053 0.74958 0.0
C2556 C 0.73865 0.38225 0.75771 0.0
C2557 C 0.75855 0.3817 0.77077 0.0
C2558 C 0.70928 0.31492 0.74669 0.0
C2559 C 0.73523 0.40613 0.75249 0.0
H2560 H 0.67793 0.35875 0.67738 0.0
H2561 H 0.64986 0.36191 0.73897 0.0
H2562 H 0.73191 0.37394 0.70483 0.0
H2563 H 0.72285 0.34195 0.70215 0.0
H2564 H 0.7136 0.3574 0.67876 0.0
H2565 H 0.66983 0.36544 0.77686 0.0
H2566 H 0.68843 0.34726 0.77762 0.0
H2567 H 0.69844 0.37918 0.78018 0.0
H2568 H 0.74884 0.32183 0.77333 0.0
H2569 H 0.77118 0.39834 0.77653 0.0
H2570 H 0.70539 0.31246 0.72725 0.0
H2571 H 0.69415 0.31486 0.75308 0.0
H2572 H 0.71476 0.29942 0.7525 0.0
H2573 H 0.7328 0.40676 0.73331 0.0
H2574 H 0.7491 0.42148 0.76114 0.0
H2575 H 0.72046 0.40837 0.75843 0.0
C2576 C 0.04815 0.40205 0.9623 0.0
C2577 C 0.03512 0.38546 0.97383 0.0
C2578 C 0.05264 0.42698 0.96893 0.0
C2579 C 0.04401 0.43562 0.98766 0.0
C2580 C 0.03135 0.41894 0.99977 0.0
C2581 C 0.02701 0.39416 0.99268 0.0
C2582 C 0.06622 0.44409 0.95556 0.0
C2583 C 0.02202 0.4273 0.01999 0.0
C2584 C 0.06868 0.49966 0.01856 0.0
C2585 C 0.05385 0.51161 1.00891 0.0
C2586 C 0.06588 0.47513 0.01158 0.0
C2587 C 0.04786 0.46205 0.99437 0.0
C2588 C 0.03307 0.4741 0.98419 0.0
C2589 C 0.03618 0.49865 0.99162 0.0
C2590 C 0.08195 0.46307 0.02311 0.0
C2591 C 1.01369 0.46091 0.96571 0.0
H2592 H 0.05444 0.39558 0.94767 0.0
H2593 H 0.01695 0.38156 1.00176 0.0
H2594 H 0.05659 0.45524 0.947 0.0
H2595 H 0.08023 0.45648 0.96777 0.0
H2596 H 0.07227 0.43458 0.9419 0.0
H2597 H 1.01319 0.4121 0.02815 0.0
H2598 H 0.03506 0.43933 0.03362 0.0
H2599 H 1.01075 0.43782 0.01381 0.0
H2600 H 0.08232 0.50934 0.03206 0.0
H2601 H 0.02461 0.50761 0.98405 0.0
H2602 H 0.08849 0.45403 0.00963 0.0
H2603 H 0.07379 0.44902 0.03295 0.0
H2604 H 0.09561 0.47594 0.03544 0.0
H2605 H 0.01889 0.45207 0.95093 0.0
H2606 H 1.00424 0.47301 0.95876 0.0
H2607 H 1.00297 0.44658 0.9732 0.0
C2608 C 0.03058 0.87034 0.18965 0.0
C2609 C 0.0417 0.85479 0.19954 0.0
C2610 C 1.01193 0.87342 0.19731 0.0
C2611 C 1.0042 0.86068 0.21531 0.0
C2612 C 0.01549 0.84516 0.2255 0.0
C2613 C 0.03404 0.84241 0.21752 0.0
C2614 C 1.0004 0.89016 0.186 0.0
C2615 C 1.00788 0.83127 0.24476 0.0
C2616 C 0.96709 0.88248 0.25097 0.0
C2617 C 0.94681 0.86668 0.24103 0.0
C2618 C 0.98578 0.88107 0.24246 0.0
C2619 C 0.98427 0.86342 0.22352 0.0
C2620 C 0.9638 0.8477 0.21312 0.0
C2621 C 0.94537 0.84951 0.22199 0.0
C2622 C 1.00725 0.89812 0.25414 0.0
C2623 C 0.96143 0.82869 0.19284 0.0
H2624 H 0.03631 0.87995 0.17573 0.0
H2625 H 0.04247 0.83034 0.22529 0.0
H2626 H 0.98363 0.88007 0.17772 0.0
H2627 H 0.99941 0.90426 0.19949 0.0
H2628 H 1.0086 0.89898 0.17244 0.0
H2629 H 0.01859 0.82015 0.25105 0.0
H2630 H 1.00713 0.84381 0.25983 0.0
H2631 H 0.99134 0.81931 0.23837 0.0
H2632 H 0.96849 0.89558 0.26589 0.0
H2633 H 0.92977 0.83743 0.21397 0.0
H2634 H 0.01531 0.90772 0.24093 0.0
H2635 H 0.01797 0.88787 0.26232 0.0
H2636 H 1.00558 0.9116 0.26788 0.0
H2637 H 0.96831 0.83704 0.17831 0.0
H2638 H 0.94432 0.81851 0.18608 0.0
H2639 H 0.9706 0.81586 0.19841 0.0
C2640 C 0.56866 0.41268 0.11646 0.0
C2641 C 0.58504 0.40298 0.11057 0.0
C2642 C 0.56581 0.43421 0.10859 0.0
C2643 C 0.57976 0.44667 0.09458 0.0
C2644 C 0.5964 0.43702 0.0887 0.0
C2645 C 0.59877 0.41538 0.09664 0.0
C2646 C 0.54774 0.44355 0.11519 0.0
C2647 C 0.61176 0.44959 0.07396 0.0
C2648 C 0.56063 0.48956 0.05511 0.0
C2649 C 0.57082 0.51228 0.06809 0.0
C2650 C 0.56331 0.46826 0.06355 0.0
C2651 C 0.57664 0.4694 0.08556 0.0
C2652 C 0.58706 0.49226 0.09874 0.0
C2653 C 0.58398 0.51332 0.08994 0.0
C2654 C 0.55172 0.44445 0.04886 0.0
C2655 C 0.60152 0.4945 0.1222 0.0
H2656 H 0.55794 0.40339 0.12721 0.0
H2657 H 0.61156 0.40826 0.09202 0.0
H2658 H 0.55435 0.46195 0.12481 0.0
H2659 H 0.5366 0.44472 0.09912 0.0
H2660 H 0.53835 0.43196 0.12629 0.0
H2661 H 0.62417 0.44017 0.07134 0.0
H2662 H 0.60267 0.45081 0.05655 0.0
H2663 H 0.62003 0.46821 0.0824 0.0
H2664 H 0.55032 0.48832 0.03829 0.0
H2665 H 0.59193 0.53065 0.10022 0.0
H2666 H 0.54111 0.43288 0.05893 0.0
H2667 H 0.56359 0.43494 0.04452 0.0
H2668 H 0.54174 0.44649 0.03227 0.0
H2669 H 0.59232 0.48435 0.13433 0.0
H2670 H 0.60847 0.51346 0.13035 0.0
H2671 H 0.61493 0.48651 0.12013 0.0
C2672 C 0.95281 0.31645 0.4032 0.0
C2673 C 0.9696 0.31263 0.39233 0.0
C2674 C 0.93318 0.31758 0.38998 0.0
C2675 C 0.93015 0.31507 0.36519 0.0
C2676 C 0.94694 0.31101 0.35407 0.0
C2677 C 0.96637 0.30973 0.36773 0.0
C2678 C 0.91571 0.32172 0.40261 0.0
C2679 C 0.9445 0.30844 0.32772 0.0
C2680 C 0.8722 0.29982 0.33117 0.0
C2681 C 0.87 0.32258 0.32696 0.0
C2682 C 0.89174 0.29703 0.34319 0.0
C2683 C 0.90967 0.31744 0.35106 0.0
C2684 C 0.90773 0.34035 0.34626 0.0
C2685 C 0.88797 0.34265 0.33443 0.0
C2686 C 0.89302 0.2723 0.34804 0.0
C2687 C 0.92643 0.36257 0.35407 0.0
H2688 H 0.95499 0.3186 0.42215 0.0
H2689 H 0.97918 0.30683 0.35909 0.0
H2690 H 0.9123 0.33888 0.39881 0.0
H2691 H 0.90054 0.3072 0.39624 0.0
H2692 H 0.92022 0.32239 0.4219 0.0
H2693 H 0.95879 0.30477 0.32169 0.0
H2694 H 0.93001 0.29363 0.31961 0.0
H2695 H 0.94211 0.32514 0.32124 0.0
H2696 H 0.85848 0.28417 0.32559 0.0
H2697 H 0.8866 0.36032 0.33121 0.0
H2698 H 0.89591 0.27172 0.36724 0.0
H2699 H 0.9068 0.26811 0.34135 0.0
H2700 H 0.87802 0.25813 0.3399 0.0
H2701 H 0.9307 0.36559 0.37348 0.0
H2702 H 0.92273 0.37887 0.34788 0.0
H2703 H 0.94084 0.36015 0.34742 0.0
C2704 C 0.07823 0.76303 0.59186 0.0
C2705 C 0.06691 0.76652 0.60986 0.0
C2706 C 0.07674 0.73978 0.58117 0.0
C2707 C 0.0633 0.71929 0.58823 0.0
C2708 C 0.05158 0.72272 0.60614 0.0
C2709 C 0.05368 0.74613 0.61683 0.0
C2710 C 0.08982 0.73714 0.56246 0.0
C2711 C 0.03682 0.70162 0.61412 0.0
C2712 C 0.04437 0.66234 0.54364 0.0
C2713 C 0.05772 0.64839 0.55239 0.0
C2714 C 0.04562 0.68497 0.55544 0.0
C2715 C 0.06101 0.69443 0.57634 0.0
C2716 C 0.07448 0.68032 0.58537 0.0
C2717 C 0.07257 0.65745 0.57339 0.0
C2718 C 0.03052 0.69888 0.54538 0.0
C2719 C 0.09136 0.68968 0.60732 0.0
H2720 H 0.08873 0.77849 0.58647 0.0
H2721 H 0.0449 0.74844 0.63076 0.0
H2722 H 0.10034 0.72544 0.56751 0.0
H2723 H 0.07894 0.72834 0.5457 0.0
H2724 H 0.10009 0.75468 0.55947 0.0
H2725 H 0.028 0.70727 0.62738 0.0
H2726 H 0.02491 0.69059 0.59892 0.0
H2727 H 0.04636 0.68999 0.62186 0.0
H2728 H 0.03284 0.65549 0.52743 0.0
H2729 H 0.08319 0.64697 0.58005 0.0
H2730 H 0.03991 0.71581 0.54025 0.0
H2731 H 0.0216 0.70384 0.55883 0.0
H2732 H 0.01867 0.68854 0.52977 0.0
H2733 H 0.10312 0.70631 0.60459 0.0
H2734 H 0.10024 0.67641 0.6124 0.0
H2735 H 0.08377 0.69445 0.62208 0.0
C2736 C 0.58701 0.82333 0.86767 0.0
C2737 C 0.58902 0.82001 0.89144 0.0
C2738 C 0.60299 0.82071 0.85479 0.0
C2739 C 0.62144 0.81457 0.86588 0.0
C2740 C 0.62355 0.81123 0.88984 0.0
C2741 C 0.6074 0.81399 0.90227 0.0
C2742 C 0.60012 0.82445 0.8293 0.0
C2743 C 0.6429 0.80464 0.90237 0.0
C2744 C 0.65391 0.78517 0.82973 0.0
C2745 C 0.67202 0.80438 0.82944 0.0
C2746 C 0.63717 0.78835 0.84107 0.0
C2747 C 0.63847 0.8113 0.85248 0.0
C2748 C 0.65653 0.83085 0.85198 0.0
C2749 C 0.67306 0.82715 0.84052 0.0
C2750 C 0.61828 0.76699 0.84124 0.0
C2751 C 0.65855 0.85563 0.86384 0.0
H2752 H 0.57295 0.82802 0.85909 0.0
H2753 H 0.60921 0.81136 0.92059 0.0
H2754 H 0.61399 0.83883 0.82636 0.0
H2755 H 0.59981 0.80781 0.81828 0.0
H2756 H 0.58502 0.82942 0.82329 0.0
H2757 H 0.64222 0.80281 0.92108 0.0
H2758 H 0.64397 0.78743 0.8936 0.0
H2759 H 0.65792 0.81854 0.9015 0.0
H2760 H 0.65303 0.76744 0.82152 0.0
H2761 H 0.68679 0.84219 0.84015 0.0
H2762 H 0.60294 0.77099 0.83426 0.0
H2763 H 0.61774 0.76319 0.85951 0.0
H2764 H 0.61918 0.7506 0.83067 0.0
H2765 H 0.64408 0.86147 0.85717 0.0
H2766 H 0.67311 0.86914 0.861 0.0
H2767 H 0.65941 0.85528 0.88296 0.0
C2768 C 0.47373 0.59331 0.66579 0.0
C2769 C 0.45309 0.5816 0.65279 0.0
C2770 C 0.49143 0.60054 0.65477 0.0
C2771 C 0.48847 0.59593 0.63011 0.0
C2772 C 0.46744 0.58578 0.61674 0.0
C2773 C 0.44993 0.5787 0.62825 0.0
C2774 C 0.51356 0.61144 0.66967 0.0
C2775 C 0.46366 0.58106 0.59039 0.0
C2776 C 0.53727 0.62013 0.60206 0.0
C2777 C 0.54512 0.59996 0.60022 0.0
C2778 C 0.51843 0.6191 0.61128 0.0
C2779 C 0.50765 0.59753 0.61902 0.0
C2780 C 0.51581 0.57728 0.61731 0.0
C2781 C 0.53433 0.57873 0.6078 0.0
C2782 C 0.50982 0.6408 0.61223 0.0
C2783 C 0.50498 0.55399 0.62554 0.0
H2784 H 0.47628 0.59613 0.68477 0.0
H2785 H 0.43398 0.57002 0.61807 0.0
H2786 H 0.52312 0.59821 0.66929 0.0
H2787 H 0.52232 0.62749 0.66262 0.0
H2788 H 0.51277 0.61672 0.68821 0.0
H2789 H 0.44628 0.57678 0.58242 0.0
H2790 H 0.47263 0.59691 0.5833 0.0
H2791 H 0.4698 0.56573 0.58504 0.0
H2792 H 0.54538 0.63632 0.59558 0.0
H2793 H 0.54038 0.56308 0.60613 0.0
H2794 H 0.50669 0.64523 0.63 0.0
H2795 H 0.49422 0.63677 0.59982 0.0
H2796 H 0.5211 0.65677 0.60754 0.0
H2797 H 0.50451 0.55709 0.64447 0.0
H2798 H 0.51342 0.53994 0.62285 0.0
H2799 H 0.48808 0.54706 0.61598 0.0
C2800 C 0.78807 0.28626 0.97258 0.0
C2801 C 0.80008 0.27076 0.98086 0.0
C2802 C 0.78837 0.2936 0.95015 0.0
C2803 C 0.80096 0.28532 0.93537 0.0
C2804 C 0.81325 0.26981 0.94366 0.0
C2805 C 0.81266 0.26274 0.96622 0.0
C2806 C 0.7751 0.31022 0.94222 0.0
C2807 C 0.82697 0.26057 0.92864 0.0
C2808 C 0.78742 0.2882 0.86926 0.0
C2809 C 0.80285 0.30915 0.86655 0.0
C2810 C 0.78665 0.28018 0.89143 0.0
C2811 C 0.80165 0.29336 0.91152 0.0
C2812 C 0.81723 0.3145 0.90886 0.0
C2813 C 0.81764 0.32209 0.88656 0.0
C2814 C 0.76977 0.25754 0.89337 0.0
C2815 C 0.83356 0.32919 0.92963 0.0
H2816 H 0.77822 0.29255 0.9836 0.0
H2817 H 0.82193 0.2507 0.97228 0.0
H2818 H 0.78574 0.327 0.93816 0.0
H2819 H 0.76342 0.30167 0.92589 0.0
H2820 H 0.76606 0.31498 0.95566 0.0
H2821 H 0.83549 0.24856 0.93749 0.0
H2822 H 0.81676 0.25056 0.91193 0.0
H2823 H 0.83914 0.27585 0.92413 0.0
H2824 H 0.77597 0.27796 0.85402 0.0
H2825 H 0.82972 0.33826 0.88487 0.0
H2826 H 0.75941 0.26156 0.90564 0.0
H2827 H 0.77766 0.24429 0.90067 0.0
H2828 H 0.75935 0.24923 0.87618 0.0
H2829 H 0.82516 0.33538 0.94302 0.0
H2830 H 0.8447 0.34512 0.92469 0.0
H2831 H 0.84325 0.31795 0.93793 0.0
C2832 C 0.11839 0.48853 0.14955 0.0
C2833 C 0.11255 0.48727 0.17167 0.0
C2834 C 0.10678 0.49772 0.13186 0.0
C2835 C 0.08878 0.50548 0.13636 0.0
C2836 C 0.08178 0.50233 0.15795 0.0
C2837 C 0.09382 0.49339 0.17538 0.0
C2838 C 0.11479 0.50083 0.10907 0.0
C2839 C 0.06247 0.51 0.1633 0.0
C2840 C 0.07615 0.55738 0.10696 0.0
C2841 C 0.0585 0.54551 0.08932 0.0
C2842 C 0.08636 0.54448 0.1221 0.0
C2843 C 0.0786 0.51911 0.11964 0.0
C2844 C 0.06077 0.50703 0.10181 0.0
C2845 C 0.0509 0.5204 0.08688 0.0
C2846 C 0.10545 0.55804 0.14079 0.0
C2847 C 0.05211 0.48002 0.09853 0.0
H2848 H 0.13295 0.48402 0.14661 0.0
H2849 H 0.08916 0.49235 0.1924 0.0
H2850 H 0.10123 0.49441 0.0939 0.0
H2851 H 0.12214 0.52019 0.10846 0.0
H2852 H 0.12708 0.49109 0.10704 0.0
H2853 H 0.05769 0.50387 0.17972 0.0
H2854 H 0.06629 0.52988 0.1652 0.0
H2855 H 0.04849 0.50284 0.14868 0.0
H2856 H 0.08201 0.57679 0.10887 0.0
H2857 H 0.03735 0.51112 0.07309 0.0
H2858 H 0.11966 0.55142 0.13888 0.0
H2859 H 0.10179 0.55484 0.15839 0.0
H2860 H 0.10983 0.57768 0.13995 0.0
H2861 H 0.06508 0.47161 0.09567 0.0
H2862 H 0.03845 0.47334 0.08346 0.0
H2863 H 0.04656 0.47401 0.11463 0.0
C2864 C 0.81435 0.90803 0.47169 0.0
C2865 C 0.82569 0.8961 0.48688 0.0
C2866 C 0.81148 0.9027 0.44711 0.0
C2867 C 0.82002 0.88487 0.43732 0.0
C2868 C 0.83107 0.87241 0.45258 0.0
C2869 C 0.83383 0.87821 0.47705 0.0
C2870 C 0.79962 0.91647 0.43161 0.0
C2871 C 0.84026 0.85311 0.44303 0.0
C2872 C 0.79786 0.85566 0.37386 0.0
C2873 C 0.81395 0.86726 0.362 0.0
C2874 C 0.79949 0.86139 0.39818 0.0
C2875 C 0.81759 0.87933 0.41119 0.0
C2876 C 0.83368 0.89146 0.39928 0.0
C2877 C 0.83172 0.88524 0.37493 0.0
C2878 C 0.782 0.84783 0.41003 0.0
C2879 C 0.8532 0.91078 0.41234 0.0
H2880 H 0.80807 0.92195 0.47899 0.0
H2881 H 0.84263 0.86885 0.48853 0.0
H2882 H 0.81048 0.92644 0.42075 0.0
H2883 H 0.78573 0.90387 0.41942 0.0
H2884 H 0.79359 0.92945 0.44184 0.0
H2885 H 0.84788 0.84459 0.45714 0.0
H2886 H 0.82735 0.83898 0.4311 0.0
H2887 H 0.85254 0.86088 0.4326 0.0
H2888 H 0.78408 0.84163 0.36423 0.0
H2889 H 0.84427 0.89435 0.36608 0.0
H2890 H 0.77525 0.86057 0.41958 0.0
H2891 H 0.78892 0.8378 0.42316 0.0
H2892 H 0.76864 0.83491 0.3974 0.0
H2893 H 0.84806 0.92496 0.42195 0.0
H2894 H 0.86384 0.91921 0.40048 0.0
H2895 H 0.86271 0.90305 0.42555 0.0
C2896 C 0.46798 0.57986 0.78285 0.0
C2897 C 0.44672 0.58016 0.77461 0.0
C2898 C 0.47609 0.58226 0.80687 0.0
C2899 C 0.46249 0.58474 0.82299 0.0
C2900 C 0.44164 0.58718 0.81484 0.0
C2901 C 0.43399 0.58496 0.79061 0.0
C2902 C 0.49855 0.57994 0.81483 0.0
C2903 C 0.42674 0.58999 0.83153 0.0
C2904 C 0.4727 0.55204 0.87502 0.0
C2905 C 0.48548 0.57076 0.89216 0.0
C2906 C 0.46422 0.55661 0.85285 0.0
C2907 C 0.4688 0.5805 0.84752 0.0
C2908 C 0.48108 0.59962 0.86492 0.0
C2909 C 0.4893 0.59451 0.8871 0.0
C2910 C 0.45116 0.53567 0.83477 0.0
C2911 C 0.48625 0.6253 0.85985 0.0
H2912 H 0.47798 0.57656 0.77046 0.0
H2913 H 0.41756 0.58529 0.78424 0.0
H2914 H 0.50741 0.59383 0.82981 0.0
H2915 H 0.49747 0.56214 0.82088 0.0
H2916 H 0.50805 0.58159 0.80054 0.0
H2917 H 0.41299 0.59616 0.82308 0.0
H2918 H 0.42018 0.57243 0.83756 0.0
H2919 H 0.43556 0.60291 0.84725 0.0
H2920 H 0.46996 0.53361 0.87862 0.0
H2921 H 0.49891 0.6091 0.90039 0.0
H2922 H 0.46015 0.53383 0.82039 0.0
H2923 H 0.43566 0.53882 0.82693 0.0
H2924 H 0.44762 0.51845 0.8423 0.0
H2925 H 0.49786 0.62797 0.84768 0.0
H2926 H 0.49345 0.63825 0.87602 0.0
H2927 H 0.47151 0.62945 0.8511 0.0
C2928 C 0.82506 0.25923 0.135 0.0
C2929 C 0.81448 0.26723 0.11559 0.0
C2930 C 0.82665 0.26984 0.15812 0.0
C2931 C 0.81727 0.28886 0.16219 0.0
C2932 C 0.80673 0.29718 0.14269 0.0
C2933 C 0.80559 0.28642 0.11971 0.0
C2934 C 0.83832 0.26057 0.17823 0.0
C2935 C 0.79627 0.3172 0.14612 0.0
C2936 C 0.80397 0.30241 0.22286 0.0
C2937 C 0.82084 0.32283 0.2327 0.0
C2938 C 0.80264 0.29107 0.20006 0.0
C2939 C 0.81868 0.30026 0.18677 0.0
C2940 C 0.83593 0.32069 0.19688 0.0
C2941 C 0.83666 0.33182 0.21954 0.0
C2942 C 0.78385 0.26951 0.19002 0.0
C2943 C 0.85356 0.33097 0.18367 0.0
H2944 H 0.832 0.24443 0.13217 0.0
H2945 H 0.79718 0.29265 0.10499 0.0
H2946 H 0.85187 0.27535 0.18844 0.0
H2947 H 0.82724 0.25401 0.19032 0.0
H2948 H 0.84483 0.24573 0.17221 0.0
H2949 H 0.78854 0.32152 0.12925 0.0
H2950 H 0.78385 0.3121 0.15713 0.0
H2951 H 0.80847 0.33365 0.15553 0.0
H2952 H 0.79141 0.2958 0.23271 0.0
H2953 H 0.84968 0.3477 0.22699 0.0
H2954 H 0.78981 0.25366 0.18615 0.0
H2955 H 0.7751 0.27281 0.17323 0.0
H2956 H 0.77231 0.26511 0.20216 0.0
H2957 H 0.8611 0.31687 0.17817 0.0
H2958 H 0.86633 0.34628 0.19432 0.0
H2959 H 0.84662 0.33721 0.16752 0.0
C2960 C 0.11489 0.5169 0.30384 0.0
C2961 C 0.12373 0.49813 0.298 0.0
C2962 C 0.1059 0.51805 0.32401 0.0
C2963 C 0.10568 0.49995 0.33883 0.0
C2964 C 0.11431 0.48073 0.33297 0.0
C2965 C 0.12328 0.48005 0.31257 0.0
C2966 C 0.09687 0.53889 0.32959 0.0
C2967 C 0.11427 0.46111 0.34836 0.0
C2968 C 0.10089 0.52243 0.39995 0.0
C2969 C 0.07846 0.51525 0.39861 0.0
C2970 C 0.11022 0.5159 0.38123 0.0
C2971 C 0.0968 0.50189 0.36067 0.0
C2972 C 0.07434 0.49304 0.35994 0.0
C2973 C 0.06543 0.49986 0.37892 0.0
C2974 C 0.13424 0.52568 0.38276 0.0
C2975 C 0.0595 0.47786 0.33844 0.0
H2976 H 0.1151 0.53094 0.29268 0.0
H2977 H 0.13007 0.46548 0.30815 0.0
H2978 H 0.07968 0.53214 0.33106 0.0
H2979 H 0.10572 0.54924 0.34672 0.0
H2980 H 0.09802 0.55128 0.31604 0.0
H2981 H 0.12077 0.4469 0.34086 0.0
H2982 H 0.12415 0.46885 0.36592 0.0
H2983 H 0.09763 0.45276 0.35092 0.0
H2984 H 0.11107 0.53445 0.41502 0.0
H2985 H 0.04813 0.49387 0.37798 0.0
H2986 H 0.13736 0.54021 0.37151 0.0
H2987 H 0.14123 0.5115 0.37624 0.0
H2988 H 0.14274 0.53312 0.40097 0.0
H2989 H 0.05771 0.4893 0.32435 0.0
H2990 H 0.04322 0.46931 0.34198 0.0
H2991 H 0.06637 0.46363 0.33176 0.0
C2992 C 0.80524 0.90209 0.63154 0.0
C2993 C 0.82047 0.89734 0.61865 0.0
C2994 C 0.80106 0.89063 0.65138 0.0
C2995 C 0.81288 0.87454 0.65918 0.0
C2996 C 0.82838 0.86977 0.6463 0.0
C2997 C 0.83172 0.88089 0.62602 0.0
C2998 C 0.78393 0.89579 0.66399 0.0
C2999 C 0.84184 0.85337 0.65428 0.0
C3000 C 0.81543 0.86465 0.72369 0.0
C3001 C 0.80077 0.84194 0.72215 0.0
C3002 C 0.82002 0.87509 0.70342 0.0
C3003 C 0.80912 0.86297 0.68091 0.0
C3004 C 0.79414 0.84009 0.67929 0.0
C3005 C 0.79043 0.82973 0.69984 0.0
C3006 C 0.83655 0.89915 0.70613 0.0
C3007 C 0.78163 0.82677 0.65584 0.0
H3008 H 0.79638 0.91467 0.62595 0.0
H3009 H 0.84368 0.87729 0.61636 0.0
H3010 H 0.77198 0.87874 0.66536 0.0
H3011 H 0.79135 0.90458 0.68209 0.0
H3012 H 0.77529 0.90761 0.65497 0.0
H3013 H 0.85341 0.85171 0.6426 0.0
H3014 H 0.85103 0.8603 0.67232 0.0
H3015 H 0.83127 0.83522 0.65489 0.0
H3016 H 0.82346 0.87425 0.74081 0.0
H3017 H 0.77896 0.81225 0.69844 0.0
H3018 H 0.82864 0.91279 0.69988 0.0
H3019 H 0.84884 0.89815 0.69521 0.0
H3020 H 0.84486 0.90534 0.72462 0.0
H3021 H 0.77212 0.83787 0.64696 0.0
H3022 H 0.77045 0.80926 0.6575 0.0
H3023 H 0.79288 0.82348 0.64438 0.0
C3024 C 0.78488 0.51463 0.5802 0.0
C3025 C 0.78229 0.49393 0.56456 0.0
C3026 C 0.7686 0.52643 0.5797 0.0
C3027 C 0.74906 0.51728 0.56328 0.0
C3028 C 0.74638 0.49651 0.54727 0.0
C3029 C 0.76305 0.48514 0.54804 0.0
C3030 C 0.77225 0.54863 0.59695 0.0
C3031 C 0.72576 0.4861 0.52958 0.0
C3032 C 0.70038 0.53547 0.57878 0.0
C3033 C 0.69957 0.55429 0.56536 0.0
C3034 C 0.71602 0.52289 0.57781 0.0
C3035 C 0.73142 0.52935 0.5632 0.0
C3036 C 0.73053 0.54809 0.54936 0.0
C3037 C 0.71461 0.56024 0.55053 0.0
C3038 C 0.71632 0.50297 0.59279 0.0
C3039 C 0.74664 0.55558 0.53358 0.0
H3040 H 0.79969 0.52165 0.59298 0.0
H3041 H 0.76085 0.46912 0.53594 0.0
H3042 H 0.77032 0.56391 0.58743 0.0
H3043 H 0.76 0.54553 0.60837 0.0
H3044 H 0.78854 0.55381 0.60821 0.0
H3045 H 0.72633 0.47014 0.51807 0.0
H3046 H 0.71197 0.4808 0.53878 0.0
H3047 H 0.72257 0.49982 0.51846 0.0
H3048 H 0.68904 0.53084 0.59049 0.0
H3049 H 0.71391 0.57439 0.53971 0.0
H3050 H 0.73152 0.5079 0.60594 0.0
H3051 H 0.71587 0.48626 0.5818 0.0
H3052 H 0.70251 0.4992 0.60216 0.0
H3053 H 0.76316 0.56212 0.54423 0.0
H3054 H 0.74339 0.57 0.52341 0.0
H3055 H 0.74635 0.53995 0.52113 0.0
C3056 C 0.21689 0.15671 0.52974 0.0
C3057 C 0.22011 0.17579 0.5162 0.0
C3058 C 0.19604 0.14227 0.5302 0.0
C3059 C 0.17782 0.14656 0.51641 0.0
C3060 C 0.18099 0.1653 0.50213 0.0
C3061 C 0.20201 0.17983 0.5024 0.0
C3062 C 0.19349 0.12285 0.54603 0.0
C3063 C 0.16212 0.17022 0.48676 0.0
C3064 C 0.12505 0.09604 0.50411 0.0
C3065 C 0.11332 0.10393 0.51981 0.0
C3066 C 0.14587 0.10985 0.50256 0.0
C3067 C 0.15547 0.13186 0.51745 0.0
C3068 C 0.14376 0.1397 0.53357 0.0
C3069 C 0.12279 0.12581 0.53436 0.0
C3070 C 0.15753 0.10098 0.48482 0.0
C3071 C 0.15343 0.16274 0.55012 0.0
H3072 H 0.23067 0.15351 0.54065 0.0
H3073 H 0.20426 0.19445 0.49184 0.0
H3074 H 0.18374 0.12648 0.55914 0.0
H3075 H 0.18469 0.1052 0.53568 0.0
H3076 H 0.20925 0.12157 0.55546 0.0
H3077 H 0.16732 0.18443 0.47562 0.0
H3078 H 0.15232 0.15358 0.47526 0.0
H3079 H 0.1515 0.17593 0.4978 0.0
H3080 H 0.1178 0.07923 0.4927 0.0
H3081 H 0.11383 0.13203 0.54654 0.0
H3082 H 0.17281 0.09821 0.49385 0.0
H3083 H 0.16182 0.11467 0.47293 0.0
H3084 H 0.14767 0.08385 0.4741 0.0
H3085 H 0.16886 0.16216 0.5609 0.0
H3086 H 0.14249 0.16603 0.56202 0.0
H3087 H 0.15715 0.17814 0.54001 0.0
C3088 C 0.28152 0.07121 0.90104 0.0
C3089 C 0.2592 0.06769 0.89806 0.0
C3090 C 0.29024 0.0516 0.90087 0.0
C3091 C 0.27615 0.02806 0.89675 0.0
C3092 C 0.25392 0.02463 0.89703 0.0
C3093 C 0.24567 0.04465 0.8979 0.0
C3094 C 0.31417 0.05605 0.90177 0.0
C3095 C 0.23839 0.99984 0.89302 0.0
C3096 C 0.29158 0.98971 0.85063 0.0
C3097 C 0.30054 0.97456 0.86386 0.0
C3098 C 0.28284 1.00646 0.86115 0.0
C3099 C 0.28347 1.00843 0.88569 0.0
C3100 C 0.29209 0.99273 0.89912 0.0
C3101 C 0.30041 0.97574 0.88794 0.0
C3102 C 0.27337 0.02242 0.84596 0.0
C3103 C 0.29338 0.99447 0.9253 0.0
H3104 H 0.29199 0.08913 0.90151 0.0
H3105 H 0.22837 0.04197 0.89566 0.0
H3106 H 0.32041 0.043 0.91163 0.0
H3107 H 0.3173 0.05373 0.88367 0.0
H3108 H 0.32324 0.07454 0.91005 0.0
H3109 H 0.22307 0.99994 0.89898 0.0
H3110 H 0.23454 0.9932 0.87399 0.0
H3111 H 0.2456 0.98706 0.90223 0.0
H3112 H 0.29145 0.98842 0.83193 0.0
H3113 H 0.30735 0.96385 0.89805 0.0
H3114 H 0.28325 0.04133 0.85087 0.0
H3115 H 0.25678 0.02156 0.84871 0.0
H3116 H 0.27272 0.01729 0.82701 0.0
H3117 H 0.30759 1.00939 0.93394 0.0
H3118 H 0.29526 0.97767 0.93206 0.0
H3119 H 0.27888 0.99842 0.93043 0.0
C3120 C 0.3926 0.01166 0.05617 0.0
C3121 C 0.38807 0.98652 0.05272 0.0
C3122 C 0.41342 0.02644 0.05618 0.0
C3123 C 0.43019 0.01588 0.05291 0.0
C3124 C 0.42577 0.99055 0.04974 0.0
C3125 C 0.40481 0.97622 0.04956 0.0
C3126 C 0.4174 0.05336 0.05935 0.0
C3127 C 0.44319 0.97852 0.04637 0.0
C3128 C 0.47903 0.04862 0.02901 0.0
C3129 C 0.49513 0.05563 0.04926 0.0
C3130 C 0.45766 0.03663 0.03011 0.0
C3131 C 0.45222 0.03114 0.05197 0.0
C3132 C 0.46822 0.03886 0.07261 0.0
C3133 C 0.48946 0.05117 0.07103 0.0
C3134 C 0.44107 0.02908 1.00772 0.0
C3135 C 0.46315 0.03318 0.09623 0.0
H3136 H 0.37982 0.01983 0.05859 0.0
H3137 H 0.40158 0.95685 0.04702 0.0
H3138 H 0.43059 0.06162 0.07453 0.0
H3139 H 0.42265 0.06075 0.04363 0.0
H3140 H 0.40279 0.05879 0.06218 0.0
H3141 H 0.43736 0.95865 0.04503 0.0
H3142 H 0.44928 0.98324 0.03017 0.0
H3143 H 0.45704 0.98504 0.06123 0.0
H3144 H 0.48321 0.05216 0.01212 0.0
H3145 H 0.5018 0.0564 0.08676 0.0
H3146 H 0.42656 0.03508 0.00968 0.0
H3147 H 0.43584 1.00921 1.00389 0.0
H3148 H 0.44741 0.03649 0.99249 0.0
H3149 H 0.4489 0.03908 0.09945 0.0
H3150 H 0.47692 0.04188 0.11076 0.0
H3151 H 0.45905 0.01347 0.0965 0.0
C3152 C 0.91629 0.73725 0.80273 0.0
C3153 C 0.91733 0.7173 0.78825 0.0
C3154 C 0.89873 0.74696 0.79824 0.0
C3155 C 0.88173 0.73621 0.77902 0.0
C3156 C 0.88257 0.71589 0.76452 0.0
C3157 C 0.90044 0.70676 0.76922 0.0
C3158 C 0.89851 0.76893 0.81388 0.0
C3159 C 0.86462 0.70383 0.74405 0.0
C3160 C 0.83043 0.75377 0.78336 0.0
C3161 C 0.83319 0.77366 0.77102 0.0
C3162 C 0.8455 0.74033 0.78497 0.0
C3163 C 0.86351 0.74693 0.7738 0.0
C3164 C 0.86524 0.76564 0.75958 0.0
C3165 C 0.85006 0.77885 0.75842 0.0
C3166 C 0.84303 0.7203 0.80009 0.0
C3167 C 0.8839 0.77273 0.74688 0.0
H3168 H 0.92931 0.74545 0.81741 0.0
H3169 H 0.90108 0.69118 0.75807 0.0
H3170 H 0.89819 0.78393 0.80337 0.0
H3171 H 0.88372 0.76517 0.82164 0.0
H3172 H 0.9128 0.77486 0.82831 0.0
H3173 H 0.86749 0.68776 0.73486 0.0
H3174 H 0.84905 0.69829 0.75018 0.0
H3175 H 0.86292 0.71663 0.73128 0.0
H3176 H 0.81743 0.74976 0.79316 0.0
H3177 H 0.85204 0.79406 0.7486 0.0
H3178 H 0.85521 0.72616 0.81654 0.0
H3179 H 0.84596 0.70421 0.79107 0.0
H3180 H 0.82675 0.71517 0.80474 0.0
H3181 H 0.89922 0.77947 0.75979 0.0
H3182 H 0.88225 0.78685 0.73557 0.0
H3183 H 0.88517 0.75689 0.73581 0.0
C3184 C 0.8521 0.6876 0.01 0.0
C3185 C 0.84024 0.68104 0.02766 0.0
C3186 C 0.86999 0.67893 1.00741 0.0
C3187 C 0.87623 0.66334 0.02287 0.0
C3188 C 0.86429 0.65666 0.0407 0.0
C3189 C 0.8465 0.66553 0.04285 0.0
C3190 C 0.88221 0.68644 0.98813 0.0
C3191 C 0.87034 0.64012 0.05759 0.0
C3192 C 0.90954 0.62196 1.00536 0.0
C3193 C 0.93031 0.6339 0.018 0.0
C3194 C 0.89198 0.6316 1.00634 0.0
C3195 C 0.89509 0.65374 0.02039 0.0
C3196 C 0.91605 0.6661 0.0329 0.0
C3197 C 0.93335 0.65607 0.03155 0.0
C3198 C 0.86995 0.61775 0.99275 0.0
C3199 C 0.92012 0.68976 0.04807 0.0
H3200 H 0.84745 0.69959 0.99819 0.0
H3201 H 0.83753 0.66036 0.0566 0.0
H3202 H 0.89936 0.69562 0.99574 0.0
H3203 H 0.88192 0.67036 0.97627 0.0
H3204 H 0.87538 0.69869 0.97759 0.0
H3205 H 0.85949 0.63672 0.07056 0.0
H3206 H 0.8697 0.62267 0.04781 0.0
H3207 H 0.88714 0.648 0.06721 0.0
H3208 H 0.90683 0.60465 0.99512 0.0
H3209 H 0.94932 0.66566 0.04114 0.0
H3210 H 0.8631 0.62933 0.98135 0.0
H3211 H 0.85883 0.61218 1.00507 0.0
H3212 H 0.8704 0.60147 0.98165 0.0
H3213 H 0.91457 0.70281 0.03758 0.0
H3214 H 0.93745 0.69759 0.05596 0.0
H3215 H 0.91073 0.68722 0.06239 0.0
C3216 C 0.23876 0.20665 0.86772 0.0
C3217 C 0.24953 0.18892 0.87168 0.0
C3218 C 0.24885 0.22804 0.85959 0.0
C3219 C 0.27009 0.23162 0.85518 0.0
C3220 C 0.28148 0.21454 0.86064 0.0
C3221 C 0.27113 0.19352 0.86897 0.0
C3222 C 0.23639 0.24617 0.85454 0.0
C3223 C 0.30418 0.2177 0.85628 0.0
C3224 C 0.2885 0.26755 0.80711 0.0
C3225 C 0.30326 0.28805 0.8202 0.0
C3226 C 0.27698 0.24936 0.81831 0.0
C3227 C 0.27996 0.25211 0.84313 0.0
C3228 C 0.29395 0.27348 0.85632 0.0
C3229 C 0.3057 0.29105 0.84469 0.0
C3230 C 0.26229 0.22677 0.80362 0.0
C3231 C 0.29703 0.27753 0.88271 0.0
H3232 H 0.2221 0.20334 0.86983 0.0
H3233 H 0.27969 0.18008 0.87216 0.0
H3234 H 0.24651 0.26461 0.86164 0.0
H3235 H 0.23179 0.24568 0.83531 0.0
H3236 H 0.22146 0.24251 0.86208 0.0
H3237 H 0.31121 0.2034 0.86263 0.0
H3238 H 0.30415 0.21738 0.8372 0.0
H3239 H 0.3148 0.23535 0.86507 0.0
H3240 H 0.28649 0.26541 0.78816 0.0
H3241 H 0.31678 0.30721 0.85481 0.0
H3242 H 0.24592 0.22312 0.80795 0.0
H3243 H 0.26854 0.21124 0.8076 0.0
H3244 H 0.26095 0.22794 0.78453 0.0
H3245 H 0.28124 0.27265 0.88847 0.0
H3246 H 0.30558 0.2965 0.88994 0.0
H3247 H 0.30661 0.26587 0.89034 0.0
C3248 C 0.46966 0.10008 0.3167 0.0
C3249 C 0.45901 0.11732 0.31035 0.0
C3250 C 0.45801 0.07631 0.31725 0.0
C3251 C 0.43523 0.06972 0.3113 0.0
C3252 C 0.42444 0.08677 0.30398 0.0
C3253 C 0.43647 0.11038 0.30358 0.0
C3254 C 0.47003 0.0585 0.32506 0.0
C3255 C 0.40013 0.0803 0.29745 0.0
C3256 C 0.40489 1.00374 0.29835 0.0
C3257 C 0.39871 0.99927 0.31987 0.0
C3258 C 0.4168 0.02665 0.29524 0.0
C3259 C 0.4226 0.0454 0.31413 0.0
C3260 C 0.41629 0.04103 0.33586 0.0
C3261 C 0.40439 0.01797 0.33846 0.0
C3262 C 0.42331 0.03075 0.27186 0.0
C3263 C 0.42214 0.06069 0.35636 0.0
H3264 H 0.48708 0.10528 0.32189 0.0
H3265 H 0.42811 0.12356 0.29851 0.0
H3266 H 0.46598 0.05295 0.34192 0.0
H3267 H 0.46502 0.0421 0.31206 0.0
H3268 H 0.48779 0.06603 0.32746 0.0
H3269 H 0.39434 0.09522 0.29063 0.0
H3270 H 0.39408 0.06429 0.28396 0.0
H3271 H 0.39296 0.07563 0.31305 0.0
H3272 H 0.40074 0.9892 0.28405 0.0
H3273 H 0.39939 0.0146 0.35502 0.0
H3274 H 0.44115 0.03683 0.27413 0.0
H3275 H 0.41701 0.04516 0.26466 0.0
H3276 H 0.41726 0.01429 0.25887 0.0
H3277 H 0.43992 0.06804 0.3611 0.0
H3278 H 0.41598 0.05427 0.37205 0.0
H3279 H 0.41544 0.07567 0.35145 0.0
C3280 C 0.58528 0.42336 0.62927 0.0
C3281 C 0.59575 0.40901 0.61761 0.0
C3282 C 0.58068 0.44352 0.61999 0.0
C3283 C 0.58628 0.44937 0.59822 0.0
C3284 C 0.59645 0.43464 0.58614 0.0
C3285 C 0.60123 0.41487 0.59605 0.0
C3286 C 0.57021 0.45887 0.63375 0.0
C3287 C 0.60242 0.43986 0.56276 0.0
C3288 C 0.55859 0.49118 0.56555 0.0
C3289 C 0.57462 0.51323 0.57069 0.0
C3290 C 0.56222 0.47024 0.5741 0.0
C3291 C 0.58221 0.47134 0.58852 0.0
C3292 C 0.59837 0.4936 0.59383 0.0
C3293 C 0.59443 0.51411 0.58481 0.0
C3294 C 0.54465 0.44689 0.56761 0.0
C3295 C 0.61981 0.49589 0.60936 0.0
H3296 H 0.58102 0.41911 0.64596 0.0
H3297 H 0.6092 0.40388 0.58678 0.0
H3298 H 0.58099 0.47743 0.6382 0.0
H3299 H 0.55496 0.45993 0.62299 0.0
H3300 H 0.56661 0.45182 0.65024 0.0
H3301 H 0.6092 0.42604 0.55498 0.0
H3302 H 0.58802 0.44079 0.5503 0.0
H3303 H 0.61452 0.45759 0.56482 0.0
H3304 H 0.54324 0.49021 0.55467 0.0
H3305 H 0.60681 0.53105 0.58934 0.0
H3306 H 0.5396 0.44013 0.58366 0.0
H3307 H 0.55085 0.43311 0.55885 0.0
H3308 H 0.53026 0.44879 0.55575 0.0
H3309 H 0.61722 0.49081 0.62683 0.0
H3310 H 0.63074 0.5144 0.61175 0.0
H3311 H 0.62798 0.4834 0.60176 0.0
C3312 C 0.46248 0.82474 0.34588 0.0
C3313 C 0.46481 0.81401 0.3665 0.0
C3314 C 0.44199 0.82371 0.33317 0.0
C3315 C 0.42321 0.81194 0.34136 0.0
C3316 C 0.42542 0.8007 0.36195 0.0
C3317 C 0.44615 0.80173 0.37416 0.0
C3318 C 0.44045 0.83567 0.31118 0.0
C3319 C 0.40589 0.78816 0.37146 0.0
C3320 C 0.3722 0.83152 0.32285 0.0
C3321 C 0.36006 0.81291 0.30528 0.0
C3322 C 0.39266 0.83136 0.33477 0.0
C3323 C 0.40136 0.81218 0.32886 0.0
C3324 C 0.3892 0.7934 0.31096 0.0
C3325 C 0.36864 0.7939 0.29952 0.0
C3326 C 0.40485 0.85162 0.35389 0.0
C3327 C 0.39791 0.77277 0.30388 0.0
H3328 H 0.47676 0.83422 0.33973 0.0
H3329 H 0.44774 0.7935 0.39012 0.0
H3330 H 0.42984 0.8227 0.29631 0.0
H3331 H 0.43306 0.85065 0.31368 0.0
H3332 H 0.45646 0.8429 0.3064 0.0
H3333 H 0.41024 0.77966 0.38721 0.0
H3334 H 0.39704 0.80125 0.37617 0.0
H3335 H 0.39467 0.77414 0.35785 0.0
H3336 H 0.36548 0.84599 0.32772 0.0
H3337 H 0.35927 0.7794 0.28601 0.0
H3338 H 0.42067 0.86075 0.34964 0.0
H3339 H 0.40813 0.84437 0.37069 0.0
H3340 H 0.39585 0.86516 0.35641 0.0
H3341 H 0.41355 0.77968 0.29822 0.0
H3342 H 0.38665 0.75978 0.2894 0.0
H3343 H 0.40099 0.76311 0.31912 0.0
C3344 C 0.07118 0.76139 0.13333 0.0
C3345 C 0.08131 0.78045 0.12206 0.0
C3346 C 0.06819 0.73732 0.12428 0.0
C3347 C 0.07546 0.73194 0.10337 0.0
C3348 C 0.08519 0.75102 0.09155 0.0
C3349 C 0.088 0.775 0.10101 0.0
C3350 C 0.05763 0.71762 0.13742 0.0
C3351 C 0.09307 0.7461 0.06915 0.0
C3352 C 0.08711 0.67118 0.09274 0.0
C3353 C 0.06845 0.6577 0.07702 0.0
C3354 C 0.08962 0.69532 0.10136 0.0
C3355 C 0.07311 0.70637 0.09413 0.0
C3356 C 0.05421 0.69283 0.07838 0.0
C3357 C 0.05211 0.66876 0.07006 0.0
C3358 C 0.11001 0.70904 0.11819 0.0
C3359 C 0.03619 0.7038 0.07021 0.0
H3360 H 0.0659 0.76526 0.14957 0.0
H3361 H 0.0959 0.78948 0.09216 0.0
H3362 H 0.04342 0.70496 0.12573 0.0
H3363 H 0.0691 0.70719 0.14321 0.0
H3364 H 0.0523 0.72471 0.15306 0.0
H3365 H 0.09961 0.7628 0.06163 0.0
H3366 H 0.1059 0.73683 0.07252 0.0
H3367 H 0.07971 0.73397 0.05593 0.0
H3368 H 0.09988 0.66295 0.0982 0.0
H3369 H 0.03762 0.65866 0.0579 0.0
H3370 H 0.10598 0.71553 0.13489 0.0
H3371 H 0.11831 0.72508 0.11077 0.0
H3372 H 0.12135 0.69796 0.12206 0.0
H3373 H 0.03004 0.71026 0.08549 0.0
H3374 H 0.02252 0.69089 0.05794 0.0
H3375 H 0.04235 0.7196 0.0613 0.0
C3376 C 0.09488 0.32695 0.89135 0.0
C3377 C 0.07636 0.30823 0.88161 0.0
C3378 C 0.11408 0.32969 0.88244 0.0
C3379 C 0.11477 0.3134 0.86327 0.0
C3380 C 0.096 0.29476 0.85312 0.0
C3381 C 0.07709 0.29239 0.86241 0.0
C3382 C 0.13374 0.34979 0.89377 0.0
C3383 C 0.09595 0.27707 0.83258 0.0
C3384 C 0.15788 0.32996 0.82581 0.0
C3385 C 0.17229 0.31694 0.83403 0.0
C3386 C 0.13939 0.3294 0.83549 0.0
C3387 C 0.13513 0.31552 0.85392 0.0
C3388 C 0.14982 0.30273 0.86263 0.0
C3389 C 0.16816 0.30355 0.85257 0.0
C3390 C 0.12411 0.34317 0.82557 0.0
C3391 C 0.14596 0.28783 0.88234 0.0
H3392 H 0.09452 0.33924 0.90622 0.0
H3393 H 0.06289 0.27788 0.85472 0.0
H3394 H 0.147 0.34223 0.90096 0.0
H3395 H 0.13954 0.36122 0.8805 0.0
H3396 H 0.13046 0.36128 0.90817 0.0
H3397 H 0.07989 0.26397 0.82632 0.0
H3398 H 0.10077 0.28676 0.81783 0.0
H3399 H 0.10793 0.26704 0.83763 0.0
H3400 H 0.16074 0.34009 0.8113 0.0
H3401 H 0.17931 0.29368 0.85923 0.0
H3402 H 0.12132 0.35527 0.83977 0.0
H3403 H 0.10825 0.33047 0.81752 0.0
H3404 H 0.13027 0.35407 0.81207 0.0
H3405 H 0.14392 0.29902 0.89773 0.0
H3406 H 0.1594 0.27986 0.88785 0.0
H3407 H 0.13084 0.2731 0.87676 0.0
C3408 C 0.52892 0.74449 0.97825 0.0
C3409 C 0.54894 0.76093 0.97843 0.0
C3410 C 0.52758 0.7217 0.98569 0.0
C3411 C 0.54668 0.71473 0.9928 0.0
C3412 C 0.5669 0.73119 0.99267 0.0
C3413 C 0.56778 0.75408 0.98587 0.0
C3414 C 0.5057 0.70514 0.98619 0.0
C3415 C 0.5877 0.72451 0.99949 0.0
C3416 C 0.54922 0.66622 0.03286 0.0
C3417 C 0.54764 0.64602 0.01698 0.0
C3418 C 0.54796 0.68824 0.02516 0.0
C3419 C 0.54573 0.69058 1.00092 0.0
C3420 C 0.54383 0.67012 0.98474 0.0
C3421 C 0.5445 0.64805 0.99292 0.0
C3422 C 0.54941 0.70918 0.04307 0.0
C3423 C 0.54199 0.67178 0.95883 0.0
H3424 H 0.51427 0.74956 0.97253 0.0
H3425 H 0.58334 0.76645 0.98579 0.0
H3426 H 0.50294 0.68818 0.97445 0.0
H3427 H 0.50505 0.70038 1.00415 0.0
H3428 H 0.49242 0.71333 0.98066 0.0
H3429 H 0.60202 0.7388 0.99736 0.0
H3430 H 0.58973 0.72107 0.01803 0.0
H3431 H 0.58718 0.70771 0.9886 0.0
H3432 H 0.55149 0.66482 0.05147 0.0
H3433 H 0.54343 0.63264 0.98051 0.0
H3434 H 0.53587 0.71711 0.03803 0.0
H3435 H 0.56461 0.7234 0.0437 0.0
H3436 H 0.54904 0.70391 0.06092 0.0
H3437 H 0.52827 0.67895 0.95243 0.0
H3438 H 0.53968 0.65411 0.94842 0.0
H3439 H 0.55684 0.68447 0.95562 0.0
C3440 C 0.15958 0.85567 0.68486 0.0
C3441 C 0.14054 0.84926 0.69404 0.0
C3442 C 0.17968 0.85595 0.69809 0.0
C3443 C 0.18097 0.84987 0.72123 0.0
C3444 C 0.16199 0.84446 0.73098 0.0
C3445 C 0.14206 0.84411 0.71728 0.0
C3446 C 0.1994 0.86169 0.68689 0.0
C3447 C 0.1626 0.83814 0.75563 0.0
C3448 C 0.22617 0.82259 0.74432 0.0
C3449 C 0.24158 0.84224 0.75833 0.0
C3450 C 0.20647 0.82486 0.73234 0.0
C3451 C 0.20177 0.84732 0.73446 0.0
C3452 C 0.21707 0.86718 0.74884 0.0
C3453 C 0.2368 0.86445 0.76049 0.0
C3454 C 0.19079 0.80322 0.7171 0.0
C3455 C 0.21265 0.89137 0.7518 0.0
H3456 H 0.1587 0.85966 0.66695 0.0
H3457 H 0.12755 0.83921 0.72466 0.0
H3458 H 0.2126 0.87595 0.69832 0.0
H3459 H 0.20531 0.84553 0.68476 0.0
H3460 H 0.19607 0.86769 0.66942 0.0
H3461 H 0.14696 0.83663 0.76144 0.0
H3462 H 0.16653 0.82076 0.7566 0.0
H3463 H 0.17543 0.8519 0.76805 0.0
H3464 H 0.22959 0.80534 0.74234 0.0
H3465 H 0.24849 0.87977 0.77126 0.0
H3466 H 0.18778 0.80707 0.69873 0.0
H3467 H 0.17508 0.79919 0.72306 0.0
H3468 H 0.19678 0.787 0.71736 0.0
H3469 H 0.21066 0.89817 0.73459 0.0
H3470 H 0.22582 0.90482 0.76417 0.0
H3471 H 0.19734 0.88966 0.75833 0.0
C3472 C 0.03082 0.40011 0.4953 0.0
C3473 C 0.043 0.39085 0.48098 0.0
C3474 C 0.03627 0.42476 0.50373 0.0
C3475 C 0.05456 0.44082 0.49803 0.0
C3476 C 0.06693 0.43164 0.48355 0.0
C3477 C 0.06096 0.40687 0.47512 0.0
C3478 C 0.02245 0.43362 0.51891 0.0
C3479 C 0.08667 0.44795 0.47721 0.0
C3480 C 0.05824 0.50804 0.50812 0.0
C3481 C 0.07076 0.51488 0.53074 0.0
C3482 C 0.0534 0.48426 0.49686 0.0
C3483 C 0.0613 0.46685 0.50845 0.0
C3484 C 0.07466 0.47403 0.53092 0.0
C3485 C 0.0791 0.49779 0.54176 0.0
C3486 C 0.03915 0.47757 0.47292 0.0
C3487 C 0.08375 0.45639 0.54391 0.0
H3488 H 0.01679 0.38807 0.4998 0.0
H3489 H 0.07046 0.40003 0.46401 0.0
H3490 H 0.03214 0.44117 0.5366 0.0
H3491 H 0.01677 0.44825 0.51132 0.0
H3492 H 1.00818 0.41914 0.52083 0.0
H3493 H 0.0942 0.43828 0.4652 0.0
H3494 H 0.08239 0.46288 0.46872 0.0
H3495 H 0.09879 0.45609 0.49334 0.0
H3496 H 0.05162 0.52104 0.49956 0.0
H3497 H 0.08886 0.5029 0.55921 0.0
H3498 H 0.0237 0.46454 0.47405 0.0
H3499 H 0.04692 0.46867 0.4606 0.0
H3500 H 0.03557 0.49343 0.46556 0.0
H3501 H 0.07041 0.44235 0.54833 0.0
H3502 H 0.09517 0.46517 0.56039 0.0
H3503 H 0.09224 0.44725 0.53266 0.0
C3504 C 0.51718 0.35565 0.18524 0.0
C3505 C 0.52698 0.33842 0.19376 0.0
C3506 C 0.49984 0.36067 0.19439 0.0
C3507 C 0.4921 0.3483 0.21261 0.0
C3508 C 0.50198 0.33095 0.22131 0.0
C3509 C 0.5192 0.32621 0.21178 0.0
C3510 C 0.48976 0.37921 0.1845 0.0
C3511 C 0.49437 0.31739 0.24076 0.0
C3512 C 0.46032 0.37549 0.25178 0.0
C3513 C 0.43896 0.36195 0.24274 0.0
C3514 C 0.47768 0.37143 0.24202 0.0
C3515 C 0.4737 0.35343 0.22263 0.0
C3516 C 0.45217 0.33992 0.21322 0.0
C3517 C 0.43512 0.34429 0.22339 0.0
C3518 C 0.50035 0.38614 0.25275 0.0
C3519 C 0.44712 0.32067 0.1925 0.0
H3520 H 0.52301 0.36517 0.17131 0.0
H3521 H 0.52662 0.31289 0.21855 0.0
H3522 H 0.47234 0.37093 0.17743 0.0
H3523 H 0.491 0.39381 0.1986 0.0
H3524 H 0.49754 0.38719 0.1703 0.0
H3525 H 0.50381 0.30458 0.2457 0.0
H3526 H 0.49568 0.33018 0.25651 0.0
H3527 H 0.47712 0.30724 0.23529 0.0
H3528 H 0.46356 0.38894 0.26691 0.0
H3529 H 0.4187 0.33392 0.21604 0.0
H3530 H 0.50828 0.39532 0.23923 0.0
H3531 H 0.51002 0.37419 0.25951 0.0
H3532 H 0.50073 0.39988 0.26736 0.0
H3533 H 0.45363 0.3284 0.17751 0.0
H3534 H 0.42952 0.31219 0.18684 0.0
H3535 H 0.45507 0.30651 0.19701 0.0
C3536 C 0.66369 0.58612 0.43383 0.0
C3537 C 0.66925 0.61126 0.43558 0.0
C3538 C 0.64801 0.57363 0.44566 0.0
C3539 C 0.63801 0.58668 0.45976 0.0
C3540 C 0.64472 0.6121 0.46288 0.0
C3541 C 0.66011 0.62408 0.45055 0.0
C3542 C 0.64144 0.54654 0.4422 0.0
C3543 C 0.635 0.62668 0.47849 0.0
C3544 C 0.58126 0.56497 0.47113 0.0
C3545 C 0.58544 0.56223 0.49484 0.0
C3546 C 0.59825 0.57091 0.45872 0.0
C3547 C 0.61973 0.57413 0.47046 0.0
C3548 C 0.62362 0.56892 0.49376 0.0
C3549 C 0.60638 0.56326 0.50579 0.0
C3550 C 0.59339 0.5759 0.43373 0.0
C3551 C 0.64612 0.57149 0.50685 0.0
H3552 H 0.67064 0.57612 0.42215 0.0
H3553 H 0.6645 0.64351 0.45205 0.0
H3554 H 0.64185 0.53961 0.45939 0.0
H3555 H 0.6246 0.53979 0.43239 0.0
H3556 H 0.65204 0.53911 0.43236 0.0
H3557 H 0.64285 0.64626 0.48002 0.0
H3558 H 0.61755 0.62334 0.47138 0.0
H3559 H 0.6365 0.62113 0.4963 0.0
H3560 H 0.56502 0.56435 0.46282 0.0
H3561 H 0.60948 0.56098 0.52417 0.0
H3562 H 0.60249 0.5675 0.42262 0.0
H3563 H 0.59856 0.59555 0.43319 0.0
H3564 H 0.5759 0.56916 0.4261 0.0
H3565 H 0.65707 0.56822 0.495 0.0
H3566 H 0.64583 0.55878 0.52004 0.0
H3567 H 0.65291 0.59001 0.51614 0.0
C3568 C 0.31142 0.91711 0.12981 0.0
C3569 C 0.31953 0.90656 0.11193 0.0
C3570 C 0.31114 0.90833 0.1516 0.0
C3571 C 0.31936 0.88852 0.15601 0.0
C3572 C 0.32736 0.87755 0.13798 0.0
C3573 C 0.32725 0.88659 0.11617 0.0
C3574 C 0.30214 0.92044 0.17001 0.0
C3575 C 0.33633 0.85646 0.14186 0.0
C3576 C 0.3358 0.88122 0.22067 0.0
C3577 C 0.31782 0.86359 0.22441 0.0
C3578 C 0.33677 0.88904 0.19844 0.0
C3579 C 0.31928 0.87925 0.17939 0.0
C3580 C 0.30118 0.86136 0.18306 0.0
C3581 C 0.30072 0.85373 0.20534 0.0
C3582 C 0.35644 0.90806 0.19539 0.0
C3583 C 0.282 0.8506 0.16354 0.0
H3584 H 0.30532 0.93248 0.12686 0.0
H3585 H 0.3337 0.87836 0.10265 0.0
H3586 H 0.28875 0.90719 0.17531 0.0
H3587 H 0.3148 0.92766 0.1859 0.0
H3588 H 0.29602 0.93539 0.16377 0.0
H3589 H 0.34188 0.84984 0.12617 0.0
H3590 H 0.35012 0.86164 0.15684 0.0
H3591 H 0.32388 0.84151 0.14645 0.0
H3592 H 0.34913 0.88899 0.23514 0.0
H3593 H 0.28664 0.84021 0.20786 0.0
H3594 H 0.35181 0.92441 0.19083 0.0
H3595 H 0.36333 0.90165 0.1807 0.0
H3596 H 0.36912 0.91305 0.21148 0.0
H3597 H 0.27462 0.86482 0.15776 0.0
H3598 H 0.26946 0.83632 0.16894 0.0
H3599 H 0.28724 0.84287 0.14817 0.0
C3600 C 0.05046 0.66691 0.8949 0.0
C3601 C 0.03358 0.67783 0.89359 0.0
C3602 C 0.05757 0.65784 0.91529 0.0
C3603 C 0.04756 0.65972 0.93492 0.0
C3604 C 0.03137 0.67197 0.93424 0.0
C3605 C 0.02458 0.68095 0.91354 0.0
C3606 C 0.07504 0.64515 0.91537 0.0
C3607 C 0.02045 0.67447 0.95491 0.0
C3608 C 0.04945 0.61138 0.97459 0.0
C3609 C 0.06692 0.62332 0.99243 0.0
C3610 C 0.0425 0.62328 0.95615 0.0
C3611 C 0.05335 0.64767 0.95556 0.0
C3612 C 0.07067 0.65994 0.97387 0.0
C3613 C 0.07726 0.6476 0.99206 0.0
C3614 C 0.02391 0.60959 0.93697 0.0
C3615 C 0.08257 0.68593 0.97394 0.0
H3616 H 0.05757 0.66454 0.87958 0.0
H3617 H 1.01145 0.68925 0.91262 0.0
H3618 H 0.08813 0.65268 0.93082 0.0
H3619 H 0.06827 0.62584 0.91673 0.0
H3620 H 0.08215 0.64661 0.89927 0.0
H3621 H 1.00979 0.68654 0.95249 0.0
H3622 H 1.01056 0.65656 0.9574 0.0
H3623 H 0.03262 0.68155 0.97121 0.0
H3624 H 0.04142 0.59262 0.97487 0.0
H3625 H 0.09068 0.65697 1.00595 0.0
H3626 H 0.02965 0.60818 0.92012 0.0
H3627 H 1.01137 0.61936 0.93464 0.0
H3628 H 0.01641 0.5912 0.94073 0.0
H3629 H 0.09103 0.6877 0.95884 0.0
H3630 H 0.09464 0.69335 0.9903 0.0
H3631 H 0.07102 0.69699 0.97192 0.0
C3632 C 0.30877 0.25502 0.61135 0.0
C3633 C 0.29793 0.26391 0.59278 0.0
C3634 C 0.31107 0.26478 0.63484 0.0
C3635 C 0.30236 0.28405 0.64022 0.0
C3636 C 0.29207 0.29373 0.62158 0.0
C3637 C 0.28997 0.28358 0.59813 0.0
C3638 C 0.32227 0.25389 0.654 0.0
C3639 C 0.28266 0.31436 0.62644 0.0
C3640 C 0.28781 0.29051 0.70106 0.0
C3641 C 0.30558 0.30873 0.71365 0.0
C3642 C 0.28647 0.28259 0.6772 0.0
C3643 C 0.30321 0.29318 0.66537 0.0
C3644 C 0.3211 0.31174 0.67792 0.0
C3645 C 0.3221 0.31921 0.70182 0.0
C3646 C 0.26714 0.2627 0.66466 0.0
C3647 C 0.33926 0.32369 0.6661 0.0
H3648 H 0.31511 0.23992 0.60759 0.0
H3649 H 0.28152 0.29062 0.58406 0.0
H3650 H 0.33551 0.268 0.66553 0.0
H3651 H 0.31067 0.24584 0.66507 0.0
H3652 H 0.32908 0.23975 0.64694 0.0
H3653 H 0.27658 0.32101 0.61012 0.0
H3654 H 0.26912 0.30856 0.63589 0.0
H3655 H 0.29496 0.32944 0.63794 0.0
H3656 H 0.27489 0.28231 0.70989 0.0
H3657 H 0.3358 0.33351 0.71118 0.0
H3658 H 0.27244 0.24707 0.65828 0.0
H3659 H 0.25898 0.26879 0.64909 0.0
H3660 H 0.25524 0.25669 0.67611 0.0
H3661 H 0.34715 0.31024 0.65982 0.0
H3662 H 0.35167 0.3384 0.67801 0.0
H3663 H 0.33282 0.33119 0.65053 0.0
C3664 C 0.65798 0.58562 0.30384 0.0
C3665 C 0.65654 0.60315 0.32111 0.0
C3666 C 0.64514 0.5817 0.28148 0.0
C3667 C 0.63053 0.59559 0.27639 0.0
C3668 C 0.62733 0.61137 0.29446 0.0
C3669 C 0.64046 0.61502 0.31666 0.0
C3670 C 0.64889 0.56455 0.26272 0.0
C3671 C 0.61163 0.6262 0.28978 0.0
C3672 C 0.62743 0.61667 0.21681 0.0
C3673 C 0.60764 0.60171 0.20461 0.0
C3674 C 0.63492 0.61477 0.24018 0.0
C3675 C 0.62227 0.59743 0.25165 0.0
C3676 C 0.60228 0.58213 0.23944 0.0
C3677 C 0.5952 0.58439 0.21591 0.0
C3678 C 0.65645 0.63131 0.25253 0.0
C3679 C 0.5884 0.56357 0.25126 0.0
H3680 H 0.67009 0.57602 0.30726 0.0
H3681 H 0.63894 0.62825 0.33006 0.0
H3682 H 0.63342 0.55393 0.25153 0.0
H3683 H 0.65878 0.57494 0.25125 0.0
H3684 H 0.65754 0.55201 0.27031 0.0
H3685 H 0.60794 0.63379 0.30627 0.0
H3686 H 0.61871 0.64131 0.28044 0.0
H3687 H 0.59633 0.61534 0.27842 0.0
H3688 H 0.63724 0.62975 0.20794 0.0
H3689 H 0.57983 0.5729 0.20644 0.0
H3690 H 0.66753 0.62062 0.25879 0.0
H3691 H 0.65433 0.64216 0.2681 0.0
H3692 H 0.66424 0.64376 0.24099 0.0
H3693 H 0.59757 0.55117 0.25803 0.0
H3694 H 0.57341 0.55287 0.2392 0.0
H3695 H 0.58392 0.57249 0.26653 0.0
C3696 C 0.32487 0.87627 0.96795 0.0
C3697 C 0.31477 0.89291 0.97654 0.0
C3698 C 0.32085 0.86743 0.94392 0.0
C3699 C 0.30626 0.87525 0.92777 0.0
C3700 C 0.29601 0.8921 0.93627 0.0
C3701 C 0.30037 0.90069 0.96047 0.0
C3702 C 0.33227 0.84964 0.9358 0.0
C3703 C 0.28039 0.90101 0.9198 0.0
C3704 C 0.31001 0.86444 0.86284 0.0
C3705 C 0.29404 0.84268 0.85514 0.0
C3706 C 0.3137 0.87575 0.88613 0.0
C3707 C 0.3012 0.86496 0.90225 0.0
C3708 C 0.28467 0.84328 0.89428 0.0
C3709 C 0.28139 0.83241 0.87097 0.0
C3710 C 0.33144 0.89883 0.89367 0.0
C3711 C 0.27078 0.83115 0.91059 0.0
H3712 H 0.33614 0.8702 0.98005 0.0
H3713 H 0.29258 0.91367 0.96676 0.0
H3714 H 0.32027 0.8325 0.92772 0.0
H3715 H 0.34143 0.85659 0.92218 0.0
H3716 H 0.3436 0.84585 0.95037 0.0
H3717 H 0.27393 0.91428 0.92901 0.0
H3718 H 0.28844 0.90947 0.90601 0.0
H3719 H 0.26669 0.88567 0.91083 0.0
H3720 H 0.32015 0.87221 0.85089 0.0
H3721 H 0.26906 0.81554 0.8652 0.0
H3722 H 0.34403 0.89606 0.90748 0.0
H3723 H 0.32495 0.91294 0.90134 0.0
H3724 H 0.33909 0.90545 0.87887 0.0
H3725 H 0.28089 0.82516 0.92473 0.0
H3726 H 0.25768 0.81531 0.90136 0.0
H3727 H 0.26344 0.84401 0.91906 0.0
C3728 C 1.01176 0.70101 0.74599 0.0
C3729 C 0.02186 0.70614 0.76967 0.0
C3730 C 0.02346 0.6978 0.7284 0.0
C3731 C 0.04584 0.70041 0.73464 0.0
C3732 C 0.0566 0.70918 0.75799 0.0
C3733 C 0.04442 0.71156 0.7754 0.0
C3734 C 1.01141 0.68883 0.70362 0.0
C3735 C 0.08069 0.71381 0.76492 0.0
C3736 C 0.06436 0.65212 0.70349 0.0
C3737 C 0.07217 0.66328 0.68508 0.0
C3738 C 0.05624 0.66433 0.71998 0.0
C3739 C 0.05654 0.68862 0.7184 0.0
C3740 C 0.0654 0.70038 0.70041 0.0
C3741 C 0.07272 0.68735 0.6836 0.0
C3742 C 0.04641 0.6508 0.73843 0.0
C3743 C 0.0666 0.72635 0.69826 0.0
H3744 H 0.99438 0.69725 0.74131 0.0
H3745 H 0.05243 0.7162 0.7936 0.0
H3746 H 0.01969 0.69929 0.69106 0.0
H3747 H 1.01111 0.66979 0.69918 0.0
H3748 H 0.99451 0.69001 0.7012 0.0
H3749 H 0.08708 0.72548 0.78199 0.0
H3750 H 0.08467 0.69652 0.76654 0.0
H3751 H 0.08897 0.72239 0.75131 0.0
H3752 H 0.0637 0.63339 0.70436 0.0
H3753 H 0.07878 0.69592 0.66926 0.0
H3754 H 0.02929 0.65094 0.73701 0.0
H3755 H 0.05504 0.65964 0.75618 0.0
H3756 H 0.04703 0.63183 0.7368 0.0
H3757 H 0.05217 0.72733 0.68589 0.0
H3758 H 0.081 0.735 0.69099 0.0
H3759 H 0.06723 0.73674 0.71534 0.0
C3760 C 0.30103 0.26143 0.44764 0.0
C3761 C 0.2875 0.26958 0.46091 0.0
C3762 C 0.30562 0.27102 0.42693 0.0
C3763 C 0.29663 0.28943 0.41918 0.0
C3764 C 0.28295 0.29771 0.4325 0.0
C3765 C 0.27852 0.28769 0.45304 0.0
C3766 C 0.32017 0.26147 0.41334 0.0
C3767 C 0.27309 0.31736 0.42515 0.0
C3768 C 0.32549 0.33063 0.37923 0.0
C3769 C 0.3128 0.32143 0.35696 0.0
C3770 C 0.32035 0.32052 0.39948 0.0
C3771 C 0.30206 0.30052 0.39762 0.0
C3772 C 0.2891 0.29122 0.37514 0.0
C3773 C 0.29461 0.30177 0.35516 0.0
C3774 C 0.3346 0.33125 0.42294 0.0
C3775 C 0.26949 0.26994 0.37215 0.0
H3776 H 0.30801 0.2474 0.45338 0.0
H3777 H 0.26804 0.29419 0.46302 0.0
H3778 H 0.3117 0.25472 0.39501 0.0
H3779 H 0.3347 0.27613 0.41261 0.0
H3780 H 0.32542 0.24671 0.42123 0.0
H3781 H 0.26258 0.32164 0.43714 0.0
H3782 H 0.28604 0.33391 0.42473 0.0
H3783 H 0.26339 0.31197 0.40716 0.0
H3784 H 0.3396 0.34579 0.38086 0.0
H3785 H 0.2848 0.29444 0.33808 0.0
H3786 H 0.34154 0.31756 0.43078 0.0
H3787 H 0.32491 0.33696 0.43516 0.0
H3788 H 0.34803 0.347 0.42155 0.0
H3789 H 0.27438 0.25416 0.37802 0.0
H3790 H 0.2608 0.26516 0.35366 0.0
H3791 H 0.25818 0.27382 0.38327 0.0
C3792 C 0.36965 0.68448 0.53171 0.0
C3793 C 0.35489 0.67712 0.54654 0.0
C3794 C 0.38585 0.67291 0.52931 0.0
C3795 C 0.38728 0.65334 0.54188 0.0
C3796 C 0.3724 0.64584 0.55683 0.0
C3797 C 0.3565 0.65783 0.55903 0.0
C3798 C 0.40147 0.68165 0.51334 0.0
C3799 C 0.37316 0.62499 0.57044 0.0
C3800 C 0.4154 0.60806 0.52005 0.0
C3801 C 0.43539 0.61482 0.53553 0.0
C3802 C 0.39976 0.62054 0.52177 0.0
C3803 C 0.40414 0.6405 0.53927 0.0
C3804 C 0.42439 0.64767 0.55473 0.0
C3805 C 0.43967 0.63473 0.55275 0.0
C3806 C 0.37839 0.61216 0.50498 0.0
C3807 C 0.42982 0.66885 0.57361 0.0
H3808 H 0.36862 0.69939 0.52202 0.0
H3809 H 0.3452 0.65192 0.57051 0.0
H3810 H 0.41825 0.68685 0.52338 0.0
H3811 H 0.40024 0.66697 0.49932 0.0
H3812 H 0.39845 0.69728 0.50506 0.0
H3813 H 0.36048 0.62137 0.58135 0.0
H3814 H 0.37107 0.60854 0.55818 0.0
H3815 H 0.38915 0.62864 0.58205 0.0
H3816 H 0.41195 0.593 0.50643 0.0
H3817 H 0.45486 0.63996 0.56508 0.0
H3818 H 0.37557 0.62698 0.49522 0.0
H3819 H 0.36509 0.60701 0.51489 0.0
H3820 H 0.37755 0.59655 0.49215 0.0
H3821 H 0.42776 0.68503 0.56577 0.0
H3822 H 0.4466 0.67285 0.58352 0.0
H3823 H 0.41858 0.66522 0.58612 0.0
C3824 C 0.8971 1.00485 0.5557 0.0
C3825 C 0.89499 0.9836 0.56597 0.0
C3826 C 0.91758 0.01973 0.55442 0.0
C3827 C 0.93646 0.01371 0.56446 0.0
C3828 C 0.93435 0.99268 0.5756 0.0
C3829 C 0.91369 0.97766 0.57579 0.0
C3830 C 0.91901 0.04145 0.54163 0.0
C3831 C 0.95394 0.98596 0.58728 0.0
C3832 C 0.98998 0.03655 0.544 0.0
C3833 C 1.00065 0.0566 0.56067 0.0
C3834 C 0.96885 0.02301 0.54454 0.0
C3835 C 0.9584 0.02898 0.56282 0.0
C3836 C 0.96925 0.04908 0.57987 0.0
C3837 C 0.99005 0.0629 0.57833 0.0
C3838 C 0.95773 1.00226 0.52554 0.0
C3839 C 0.95913 0.0556 0.60014 0.0
H3840 H 0.88269 1.00936 0.54785 0.0
H3841 H 0.91214 0.96131 0.58385 0.0
H3842 H 0.92855 0.05793 0.55348 0.0
H3843 H 0.92751 0.03984 0.52678 0.0
H3844 H 0.90286 0.04363 0.5347 0.0
H3845 H 0.94958 0.97015 0.5968 0.0
H3846 H 0.96327 0.98175 0.57395 0.0
H3847 H 0.96472 1.0013 0.59985 0.0
H3848 H 0.99811 0.03152 0.53038 0.0
H3849 H 0.9983 0.07823 0.59141 0.0
H3850 H 0.94164 1.0039 0.5176 0.0
H3851 H 0.9551 0.98513 0.53316 0.0
H3852 H 0.96724 1.0013 0.51146 0.0
H3853 H 0.94355 0.05925 0.59356 0.0
H3854 H 0.96971 0.07161 0.61205 0.0
H3855 H 0.95562 0.04027 0.6104 0.0
C3856 C 0.84684 0.10484 0.17401 0.0
C3857 C 0.86154 0.09759 0.19009 0.0
C3858 C 0.83698 0.12228 0.18115 0.0
C3859 C 0.8418 0.13247 0.20495 0.0
C3860 C 0.85674 0.12534 0.22121 0.0
C3861 C 0.8665 0.10805 0.21355 0.0
C3862 C 0.82131 0.12968 0.1633 0.0
C3863 C 0.86218 0.13573 0.24677 0.0
C3864 C 0.8312 0.1917 0.22353 0.0
C3865 C 0.81207 0.18402 0.23225 0.0
C3866 C 0.84068 0.17509 0.21382 0.0
C3867 C 0.83093 0.15024 0.21308 0.0
C3868 C 0.81134 0.14236 0.22126 0.0
C3869 C 0.80208 0.15935 0.23062 0.0
C3870 C 0.86149 0.18415 0.20506 0.0
C3871 C 0.80049 0.11597 0.22074 0.0
H3872 H 0.84304 0.09691 0.15582 0.0
H3873 H 0.87782 0.1025 0.22607 0.0
H3874 H 0.80512 0.12533 0.16815 0.0
H3875 H 0.82655 0.14938 0.1631 0.0
H3876 H 0.81985 0.1206 0.14533 0.0
H3877 H 0.87431 0.12844 0.2571 0.0
H3878 H 0.86857 0.15554 0.24854 0.0
H3879 H 0.84738 0.13176 0.2545 0.0
H3880 H 0.83917 0.21071 0.22495 0.0
H3881 H 0.78709 0.15329 0.2369 0.0
H3882 H 0.86014 0.17536 0.18704 0.0
H3883 H 0.87476 0.1795 0.2164 0.0
H3884 H 0.86595 0.20392 0.20498 0.0
H3885 H 0.79755 0.10653 0.20269 0.0
H3886 H 0.78487 0.11281 0.22691 0.0
H3887 H 0.81122 0.10779 0.23205 0.0
C3888 C 0.72063 0.18982 0.02968 0.0
C3889 C 0.73831 0.18051 0.03559 0.0
C3890 C 0.69941 0.17581 0.02869 0.0
C3891 C 0.69564 0.15177 0.03353 0.0
C3892 C 0.7133 0.14191 0.03853 0.0
C3893 C 0.73441 0.15641 0.0396 0.0
C3894 C 0.68106 0.18707 0.02338 0.0
C3895 C 0.70995 0.11628 0.04352 0.0
C3896 C 0.64481 0.12614 0.0575 0.0
C3897 C 0.63046 0.11295 0.0374 0.0
C3898 C 0.66609 0.13853 0.0565 0.0
C3899 C 0.67339 0.13758 0.03491 0.0
C3900 C 0.65917 0.12384 0.01464 0.0
C3901 C 0.63785 0.11181 0.0161 0.0
C3902 C 0.68065 0.15312 0.07849 0.0
C3903 C 0.66639 0.12215 0.99136 0.0
H3904 H 0.72338 0.20838 0.02652 0.0
H3905 H 0.7479 0.14896 0.04407 0.0
H3906 H 0.66859 0.17591 1.00871 0.0
H3907 H 0.67328 0.18793 0.03891 0.0
H3908 H 0.68654 0.20551 0.01871 0.0
H3909 H 0.72509 0.11068 0.04507 0.0
H3910 H 0.70381 0.11422 0.06013 0.0
H3911 H 0.69765 0.10394 0.02941 0.0
H3912 H 0.63929 0.12726 0.07404 0.0
H3913 H 0.62695 0.10158 1.00048 0.0
H3914 H 0.68563 0.17233 0.07591 0.0
H3915 H 0.69553 0.14719 0.08227 0.0
H3916 H 0.67268 0.15159 0.09399 0.0
H3917 H 0.6705 0.14017 0.98549 0.0
H3918 H 0.65379 0.10969 0.97756 0.0
H3919 H 0.68119 0.11593 0.99319 0.0
C3920 C 0.20331 0.42175 0.23759 0.0
C3921 C 0.19703 0.44057 0.24833 0.0
C3922 C 0.21838 0.41184 0.25008 0.0
C3923 C 0.22791 0.42155 0.27364 0.0
C3924 C 0.22122 0.44019 0.28474 0.0
C3925 C 0.20561 0.44928 0.27202 0.0
C3926 C 0.22449 0.39134 0.23786 0.0
C3927 C 0.23117 0.45114 0.30972 0.0
C3928 C 0.25489 0.37995 0.30509 0.0
C3929 C 0.27549 0.38677 0.29929 0.0
C3930 C 0.23961 0.39239 0.29858 0.0
C3931 C 0.24515 0.41228 0.28618 0.0
C3932 C 0.2667 0.421 0.28284 0.0
C3933 C 0.28165 0.40806 0.28939 0.0
C3934 C 0.21699 0.38252 0.30288 0.0
C3935 C 0.27345 0.44272 0.27045 0.0
H3936 H 0.19668 0.41503 0.21928 0.0
H3937 H 0.20099 0.4641 0.28025 0.0
H3938 H 0.24173 0.39715 0.2363 0.0
H3939 H 0.22247 0.37609 0.24833 0.0
H3940 H 0.21461 0.38489 0.22003 0.0
H3941 H 0.22342 0.46467 0.31619 0.0
H3942 H 0.22988 0.43699 0.32147 0.0
H3943 H 0.2486 0.45996 0.31092 0.0
H3944 H 0.25013 0.36379 0.31324 0.0
H3945 H 0.29757 0.41358 0.28499 0.0
H3946 H 0.20736 0.36963 0.28744 0.0
H3947 H 0.20884 0.39681 0.3054 0.0
H3948 H 0.21703 0.37285 0.31852 0.0
H3949 H 0.26685 0.43785 0.25141 0.0
H3950 H 0.29128 0.4496 0.27288 0.0
H3951 H 0.2669 0.45732 0.27692 0.0
C3952 C 0.27943 0.50183 0.08527 0.0
C3953 C 0.27995 0.48315 0.06866 0.0
C3954 C 0.26171 0.51152 0.0836 0.0
C3955 C 0.24387 0.50227 0.06494 0.0
C3956 C 0.24428 0.48345 0.04806 0.0
C3957 C 0.26232 0.47417 0.05007 0.0
C3958 C 0.26209 0.53171 0.10187 0.0
C3959 C 0.22558 0.47298 0.02797 0.0
C3960 C 0.19097 0.51484 0.07433 0.0
C3961 C 0.19104 0.53495 0.06253 0.0
C3962 C 0.2077 0.50358 0.07468 0.0
C3963 C 0.225 0.51264 0.06303 0.0
C3964 C 0.22483 0.53249 0.05056 0.0
C3965 C 0.20788 0.54329 0.05038 0.0
C3966 C 0.20716 0.48241 0.08811 0.0
C3967 C 0.24289 0.54276 0.03787 0.0
H3968 H 0.29293 0.50893 0.0997 0.0
H3969 H 0.26249 0.45968 0.03722 0.0
H3970 H 0.26047 0.54768 0.09335 0.0
H3971 H 0.24819 0.52628 0.11089 0.0
H3972 H 0.27718 0.53696 0.11524 0.0
H3973 H 0.2283 0.45834 0.01637 0.0
H3974 H 0.21062 0.46579 0.03484 0.0
H3975 H 0.22282 0.48722 0.01732 0.0
H3976 H 0.17819 0.50832 0.08393 0.0
H3977 H 0.20792 0.55848 0.04079 0.0
H3978 H 0.22085 0.48725 0.10319 0.0
H3979 H 0.20909 0.4671 0.07677 0.0
H3980 H 0.19191 0.47647 0.09482 0.0
H3981 H 0.25827 0.54974 0.05066 0.0
H3982 H 0.23993 0.55756 0.02813 0.0
H3983 H 0.24501 0.52851 0.02533 0.0
C3984 C 0.87928 0.96446 0.20722 0.0
C3985 C 0.86861 0.98002 0.19661 0.0
C3986 C 0.86797 0.94469 0.21672 0.0
C3987 C 0.8456 0.9409 0.21624 0.0
C3988 C 0.83457 0.95582 0.20449 0.0
C3989 C 0.84618 0.97502 0.1945 0.0
C3990 C 0.88018 0.92866 0.22835 0.0
C3991 C 0.81079 0.95261 0.20392 0.0
C3992 C 0.81052 0.88309 0.23098 0.0
C3993 C 0.81063 0.88917 0.2548 0.0
C3994 C 0.82248 0.89941 0.21838 0.0
C3995 C 0.83407 0.92269 0.22966 0.0
C3996 C 0.83418 0.92888 0.25376 0.0
C3997 C 0.82277 0.91182 0.26618 0.0
C3998 C 0.82281 0.8917 0.19307 0.0
C3999 C 0.84602 0.95366 0.26632 0.0
H4000 H 0.89663 0.96825 0.20881 0.0
H4001 H 0.83791 0.98715 0.18656 0.0
H4002 H 0.88182 0.93219 0.24764 0.0
H4003 H 0.87125 0.90948 0.22291 0.0
H4004 H 0.89659 0.93172 0.22412 0.0
H4005 H 0.80437 0.96481 0.19293 0.0
H4006 H 0.80147 0.93383 0.19708 0.0
H4007 H 0.80803 0.95626 0.22201 0.0
H4008 H 0.80143 0.86534 0.22231 0.0
H4009 H 0.8229 0.91635 0.28464 0.0
H4010 H 0.83971 0.89463 0.19046 0.0
H4011 H 0.81535 0.90276 0.18159 0.0
H4012 H 0.81403 0.87248 0.18736 0.0
H4013 H 0.86348 0.95743 0.26594 0.0
H4014 H 0.844 0.95578 0.28489 0.0
H4015 H 0.84003 0.96735 0.25724 0.0
C4016 C 0.71597 0.05372 0.72111 0.0
C4017 C 0.70549 0.04539 0.73926 0.0
C4018 C 0.72837 0.07763 0.72308 0.0
C4019 C 0.7303 0.09334 0.74369 0.0
C4020 C 0.72158 0.08435 0.76291 0.0
C4021 C 0.70922 0.06044 0.76044 0.0
C4022 C 0.73766 0.08656 0.70231 0.0
C4023 C 0.72351 0.10048 0.7853 0.0
C4024 C 0.76571 0.15756 0.75399 0.0
C4025 C 0.75051 0.16997 0.74688 0.0
C4026 C 0.7596 0.13243 0.75243 0.0
C4027 C 0.73781 0.11962 0.74369 0.0
C4028 C 0.72252 0.13206 0.73608 0.0
C4029 C 0.72907 0.15708 0.73781 0.0
C4030 C 0.77629 0.11965 0.76057 0.0
C4031 C 0.69907 0.11901 0.72673 0.0
H4032 H 0.71332 0.04208 0.70477 0.0
H4033 H 0.70151 0.05394 0.77471 0.0
H4034 H 0.72739 0.09673 0.69311 0.0
H4035 H 0.75411 0.09893 0.70802 0.0
H4036 H 0.73837 0.07155 0.68964 0.0
H4037 H 0.71885 0.09007 0.79971 0.0
H4038 H 0.74023 0.11215 0.79109 0.0
H4039 H 0.71278 0.11235 0.78215 0.0
H4040 H 0.78236 0.16752 0.76079 0.0
H4041 H 0.71722 0.16664 0.73264 0.0
H4042 H 0.77599 0.10517 0.74677 0.0
H4043 H 0.77247 0.11105 0.77624 0.0
H4044 H 0.79284 0.13206 0.76512 0.0
H4045 H 0.69766 0.10511 0.71188 0.0
H4046 H 0.68948 0.13132 0.72063 0.0
H4047 H 0.69185 0.10973 0.74061 0.0
loop_
_geom_bond_atom_site_label_1
_geom_bond_atom_site_label_2
_geom_bond_distance
_geom_bond_site_symmetry_2
_ccdc_geom_bond_type
O0 Cd1 2.219 1_655 S
O0 C8 1.315 1_655 S
Cd1 O0 2.219 1_455 S
Cd1 O4 2.297 . S
Cd1 O5 2.439 . S
Cd1 O11 2.240 1_455 S
Cd2 O3 2.240 . S
Cd2 O10 2.223 1_455 S
Cd2 O12 2.297 1_455 S
Cd2 O13 2.439 . S
O3 Cd2 2.240 . S
O3 C8 1.279 . S
O4 Cd1 2.297 . S
O4 C6 1.247 . S
O5 Cd1 2.439 . S
O5 C6 1.208 . S
C6 O4 1.247 . S
C6 O5 1.208 . S
C7 O12 1.247 1_455 S
C7 O13 1.208 . S
C8 O0 1.315 1_455 S
C8 O3 1.279 . S
C9 O10 1.315 . S
C9 O11 1.279 . S
O10 Cd2 2.223 1_655 S
O10 C9 1.315 . S
O11 Cd1 2.240 1_655 S
O11 C9 1.279 . S
O12 Cd2 2.297 1_655 S
O12 C7 1.247 1_655 S
O13 Cd2 2.439 . S
O13 C7 1.208 . S
O14 Cd15 2.223 . S
O14 C22 1.315 . S
Cd15 O14 2.223 . S
Cd15 O18 2.297 . S
Cd15 O19 2.439 . S
Cd15 O25 2.240 . S
Cd16 O17 2.240 . S
Cd16 O24 2.223 . S
Cd16 O26 2.297 . S
Cd16 O27 2.439 . S
O17 Cd16 2.240 . S
O17 C22 1.279 . S
O18 Cd15 2.297 . S
O18 C20 1.247 . S
O19 Cd15 2.439 . S
O19 C20 1.208 . S
C20 O18 1.247 . S
C20 O19 1.208 . S
C21 O26 1.247 . S
C21 O27 1.208 . S
C22 O14 1.315 . S
C22 O17 1.279 . S
C23 O24 1.315 . S
C23 O25 1.279 . S
O24 Cd16 2.223 . S
O24 C23 1.315 . S
O25 Cd15 2.240 . S
O25 C23 1.279 . S
O26 Cd16 2.297 . S
O26 C21 1.247 . S
O27 Cd16 2.439 . S
O27 C21 1.208 . S
O28 Cd29 2.223 . S
O28 C36 1.315 . S
Cd29 O28 2.223 . S
Cd29 O32 2.297 . S
Cd29 O33 2.439 . S
Cd29 O39 2.240 . S
Cd30 O31 2.240 . S
Cd30 O38 2.223 . S
Cd30 O40 2.297 . S
Cd30 O41 2.439 . S
O31 Cd30 2.240 . S
O31 C36 1.279 . S
O32 Cd29 2.297 . S
O32 C34 1.247 . S
O33 Cd29 2.439 . S
O33 C34 1.208 . S
C34 O32 1.247 . S
C34 O33 1.208 . S
C35 O40 1.247 . S
C35 O41 1.208 . S
C36 O28 1.315 . S
C36 O31 1.279 . S
C37 O38 1.315 . S
C37 O39 1.279 . S
O38 Cd30 2.223 . S
O38 C37 1.315 . S
O39 Cd29 2.240 . S
O39 C37 1.279 . S
O40 Cd30 2.297 . S
O40 C35 1.247 . S
O41 Cd30 2.439 . S
O41 C35 1.208 . S
O42 Cd43 2.223 . S
O42 C50 1.315 . S
Cd43 O42 2.223 . S
Cd43 O46 2.297 . S
Cd43 O47 2.439 . S
Cd43 O53 2.240 . S
Cd44 O45 2.240 . S
Cd44 O52 2.223 . S
Cd44 O54 2.297 . S
Cd44 O55 2.439 . S
O45 Cd44 2.240 . S
O45 C50 1.279 . S
O46 Cd43 2.297 . S
O46 C48 1.247 . S
O47 Cd43 2.439 . S
O47 C48 1.208 . S
C48 O46 1.247 . S
C48 O47 1.208 . S
C49 O54 1.247 . S
C49 O55 1.208 . S
C50 O42 1.315 . S
C50 O45 1.279 . S
C51 O52 1.315 . S
C51 O53 1.279 . S
O52 Cd44 2.223 . S
O52 C51 1.315 . S
O53 Cd43 2.240 . S
O53 C51 1.279 . S
O54 Cd44 2.297 . S
O54 C49 1.247 . S
O55 Cd44 2.439 . S
O55 C49 1.208 . S
O56 Cd57 2.223 . S
O56 C64 1.315 . S
Cd57 O56 2.223 . S
Cd57 O60 2.297 . S
Cd57 O61 2.439 . S
Cd57 O67 2.240 . S
Cd58 O59 2.240 . S
Cd58 O66 2.223 . S
Cd58 O68 2.297 . S
Cd58 O69 2.439 . S
O59 Cd58 2.240 . S
O59 C64 1.279 . S
O60 Cd57 2.297 . S
O60 C62 1.247 . S
O61 Cd57 2.439 . S
O61 C62 1.208 . S
C62 O60 1.247 . S
C62 O61 1.208 . S
C63 O68 1.247 . S
C63 O69 1.208 . S
C64 O56 1.315 . S
C64 O59 1.279 . S
C65 O66 1.315 . S
C65 O67 1.279 . S
O66 Cd58 2.223 . S
O66 C65 1.315 . S
O67 Cd57 2.240 . S
O67 C65 1.279 . S
O68 Cd58 2.297 . S
O68 C63 1.247 . S
O69 Cd58 2.439 . S
O69 C63 1.208 . S
O70 Cd71 2.223 . S
O70 C78 1.315 . S
Cd71 O70 2.223 . S
Cd71 O74 2.297 . S
Cd71 O75 2.439 . S
Cd71 O81 2.240 . S
Cd72 O73 2.240 . S
Cd72 O80 2.223 . S
Cd72 O82 2.297 . S
Cd72 O83 2.439 . S
O73 Cd72 2.240 . S
O73 C78 1.279 . S
O74 Cd71 2.297 . S
O74 C76 1.247 . S
O75 Cd71 2.439 . S
O75 C76 1.208 . S
C76 O74 1.247 . S
C76 O75 1.208 . S
C77 O82 1.247 . S
C77 O83 1.208 . S
C78 O70 1.315 . S
C78 O73 1.279 . S
C79 O80 1.315 . S
C79 O81 1.279 . S
O80 Cd72 2.223 . S
O80 C79 1.315 . S
O81 Cd71 2.240 . S
O81 C79 1.279 . S
O82 Cd72 2.297 . S
O82 C77 1.247 . S
O83 Cd72 2.439 . S
O83 C77 1.208 . S
O84 Cd85 2.223 . S
O84 C92 1.315 . S
Cd85 O84 2.223 . S
Cd85 O88 2.297 . S
Cd85 O89 2.439 . S
Cd85 O95 2.240 . S
Cd86 O87 2.240 . S
Cd86 O94 2.223 . S
Cd86 O96 2.297 . S
Cd86 O97 2.439 . S
O87 Cd86 2.240 . S
O87 C92 1.279 . S
O88 Cd85 2.297 . S
O88 C90 1.247 . S
O89 Cd85 2.439 . S
O89 C90 1.208 . S
C90 O88 1.247 . S
C90 O89 1.208 . S
C91 O96 1.247 . S
C91 O97 1.208 . S
C92 O84 1.315 . S
C92 O87 1.279 . S
C93 O94 1.315 . S
C93 O95 1.279 . S
O94 Cd86 2.223 . S
O94 C93 1.315 . S
O95 Cd85 2.240 . S
O95 C93 1.279 . S
O96 Cd86 2.297 . S
O96 C91 1.247 . S
O97 Cd86 2.439 . S
O97 C91 1.208 . S
O98 Cd99 2.223 . S
O98 C106 1.315 . S
Cd99 O98 2.223 . S
Cd99 O102 2.297 . S
Cd99 O103 2.439 . S
Cd99 O109 2.234 . S
Cd100 O101 2.240 . S
Cd100 O108 2.223 1_455 S
Cd100 O110 2.297 . S
Cd100 O111 2.439 . S
O101 Cd100 2.240 . S
O101 C106 1.279 . S
O102 Cd99 2.297 . S
O102 C104 1.247 . S
O103 Cd99 2.439 . S
O103 C104 1.208 . S
C104 O102 1.247 . S
C104 O103 1.208 . S
C105 O110 1.247 . S
C105 O111 1.208 . S
C106 O98 1.315 . S
C106 O101 1.279 . S
C107 O108 1.315 . S
C107 O109 1.285 1_655 S
O108 Cd100 2.223 1_655 S
O108 C107 1.315 . S
O109 Cd99 2.234 . S
O109 C107 1.285 1_455 S
O110 Cd100 2.297 . S
O110 C105 1.247 . S
O111 Cd100 2.439 . S
O111 C105 1.208 . S
O112 Cd113 2.223 . S
O112 C120 1.315 . S
Cd113 O112 2.223 . S
Cd113 O116 2.297 . S
Cd113 O117 2.439 . S
Cd113 O123 2.240 . S
Cd114 O115 2.240 . S
Cd114 O122 2.223 . S
Cd114 O124 2.297 . S
Cd114 O125 2.439 . S
O115 Cd114 2.240 . S
O115 C120 1.279 . S
O116 Cd113 2.297 . S
O116 C118 1.247 . S
O117 Cd113 2.439 . S
O117 C118 1.208 . S
C118 O116 1.247 . S
C118 O117 1.208 . S
C119 O124 1.247 . S
C119 O125 1.208 . S
C120 O112 1.315 . S
C120 O115 1.279 . S
C121 O122 1.315 . S
C121 O123 1.279 . S
O122 Cd114 2.223 . S
O122 C121 1.315 . S
O123 Cd113 2.240 . S
O123 C121 1.279 . S
O124 Cd114 2.297 . S
O124 C119 1.247 . S
O125 Cd114 2.439 . S
O125 C119 1.208 . S
O126 Cd127 2.223 . S
O126 C134 1.315 . S
Cd127 O126 2.223 . S
Cd127 O130 2.297 . S
Cd127 O131 2.439 . S
Cd127 O137 2.240 . S
Cd128 O129 2.240 . S
Cd128 O136 2.223 . S
Cd128 O138 2.297 . S
Cd128 O139 2.439 . S
O129 Cd128 2.240 . S
O129 C134 1.279 . S
O130 Cd127 2.297 . S
O130 C132 1.247 . S
O131 Cd127 2.439 . S
O131 C132 1.208 . S
C132 O130 1.247 . S
C132 O131 1.208 . S
C133 O138 1.247 . S
C133 O139 1.208 . S
C134 O126 1.315 . S
C134 O129 1.279 . S
C135 O136 1.315 . S
C135 O137 1.279 . S
O136 Cd128 2.223 . S
O136 C135 1.315 . S
O137 Cd127 2.240 . S
O137 C135 1.279 . S
O138 Cd128 2.297 . S
O138 C133 1.247 . S
O139 Cd128 2.439 . S
O139 C133 1.208 . S
O140 Cd141 2.223 . S
O140 C148 1.315 . S
Cd141 O140 2.223 . S
Cd141 O144 2.297 . S
Cd141 O145 2.439 . S
Cd141 O151 2.240 . S
Cd142 O143 2.240 . S
Cd142 O150 2.223 . S
Cd142 O152 2.297 . S
Cd142 O153 2.439 . S
O143 Cd142 2.240 . S
O143 C148 1.279 . S
O144 Cd141 2.297 . S
O144 C146 1.247 . S
O145 Cd141 2.439 . S
O145 C146 1.208 . S
C146 O144 1.247 . S
C146 O145 1.208 . S
C147 O152 1.247 . S
C147 O153 1.208 . S
C148 O140 1.315 . S
C148 O143 1.279 . S
C149 O150 1.315 . S
C149 O151 1.279 . S
O150 Cd142 2.223 . S
O150 C149 1.315 . S
O151 Cd141 2.240 . S
O151 C149 1.279 . S
O152 Cd142 2.297 . S
O152 C147 1.247 . S
O153 Cd142 2.439 . S
O153 C147 1.208 . S
O154 Cd155 2.223 . S
O154 C162 1.315 . S
Cd155 O154 2.223 . S
Cd155 O158 2.297 . S
Cd155 O159 2.439 . S
Cd155 O165 2.240 . S
Cd156 O157 2.240 . S
Cd156 O164 2.223 . S
Cd156 O166 2.308 . S
Cd156 O167 2.439 . S
O157 Cd156 2.240 . S
O157 C162 1.279 . S
O158 Cd155 2.297 . S
O158 C160 1.247 . S
O159 Cd155 2.439 . S
O159 C160 1.208 . S
C160 O158 1.247 . S
C160 O159 1.208 . S
C161 O166 1.243 1_556 S
C161 O167 1.208 1_556 S
C162 O154 1.315 . S
C162 O157 1.279 . S
C163 O164 1.315 . S
C163 O165 1.279 . S
O164 Cd156 2.223 . S
O164 C163 1.315 . S
O165 Cd155 2.240 . S
O165 C163 1.279 . S
O166 Cd156 2.308 . S
O166 C161 1.243 1_554 S
O167 Cd156 2.439 . S
O167 C161 1.208 1_554 S
O168 Cd169 2.223 . S
O168 C176 1.315 . S
Cd169 O168 2.223 . S
Cd169 O172 2.297 . S
Cd169 O173 2.439 . S
Cd169 O179 2.240 . S
Cd170 O171 2.240 . S
Cd170 O178 2.223 . S
Cd170 O180 2.297 1_554 S
Cd170 O181 2.439 1_554 S
O171 Cd170 2.240 . S
O171 C176 1.279 . S
O172 Cd169 2.297 . S
O172 C174 1.247 . S
O173 Cd169 2.439 . S
O173 C174 1.208 . S
C174 O172 1.247 . S
C174 O173 1.208 . S
C175 O180 1.247 . S
C175 O181 1.208 . S
C176 O168 1.315 . S
C176 O171 1.279 . S
C177 O178 1.315 . S
C177 O179 1.279 . S
O178 Cd170 2.223 . S
O178 C177 1.315 . S
O179 Cd169 2.240 . S
O179 C177 1.279 . S
O180 Cd170 2.297 1_556 S
O180 C175 1.247 . S
O181 Cd170 2.439 1_556 S
O181 C175 1.208 . S
O182 Cd183 2.223 . S
O182 C190 1.315 . S
Cd183 O182 2.223 . S
Cd183 O186 2.297 . S
Cd183 O187 2.439 1_554 S
Cd183 O193 2.240 1_554 S
Cd184 O185 2.240 1_556 S
Cd184 O192 2.207 1_556 S
Cd184 O194 2.297 . S
Cd184 O195 2.439 . S
O185 Cd184 2.240 1_554 S
O185 C190 1.279 . S
O186 Cd183 2.297 . S
O186 C188 1.247 . S
O187 Cd183 2.439 1_556 S
O187 C188 1.208 1_556 S
C188 O186 1.247 . S
C188 O187 1.208 1_554 S
C189 O194 1.247 . S
C189 O195 1.208 . S
C190 O182 1.315 . S
C190 O185 1.279 . S
C191 O192 1.313 1_556 S
C191 O193 1.279 . S
O192 Cd184 2.207 1_554 S
O192 C191 1.313 1_554 S
O193 Cd183 2.240 1_556 S
O193 C191 1.279 . S
O194 Cd184 2.297 . S
O194 C189 1.247 . S
O195 Cd184 2.439 . S
O195 C189 1.208 . S
O196 Cd197 2.223 . S
O196 C204 1.315 . S
Cd197 O196 2.223 . S
Cd197 O200 2.297 . S
Cd197 O201 2.439 . S
Cd197 O207 2.240 . S
Cd198 O199 2.240 . S
Cd198 O206 2.223 . S
Cd198 O208 2.297 . S
Cd198 O209 2.439 . S
O199 Cd198 2.240 . S
O199 C204 1.279 . S
O200 Cd197 2.297 . S
O200 C202 1.247 . S
O201 Cd197 2.439 . S
O201 C202 1.208 . S
C202 O200 1.247 . S
C202 O201 1.208 . S
C203 O208 1.247 . S
C203 O209 1.208 . S
C204 O196 1.315 . S
C204 O199 1.279 . S
C205 O206 1.315 . S
C205 O207 1.279 . S
O206 Cd198 2.223 . S
O206 C205 1.315 . S
O207 Cd197 2.240 . S
O207 C205 1.279 . S
O208 Cd198 2.297 . S
O208 C203 1.247 . S
O209 Cd198 2.439 . S
O209 C203 1.208 . S
O210 Cd211 2.223 . S
O210 C218 1.315 . S
Cd211 O210 2.223 . S
Cd211 O214 2.297 . S
Cd211 O215 2.439 . S
Cd211 O221 2.240 . S
Cd212 O213 2.240 . S
Cd212 O220 2.223 . S
Cd212 O222 2.297 . S
Cd212 O223 2.439 . S
O213 Cd212 2.240 . S
O213 C218 1.279 . S
O214 Cd211 2.297 . S
O214 C216 1.247 . S
O215 Cd211 2.439 . S
O215 C216 1.208 . S
C216 O214 1.247 . S
C216 O215 1.208 . S
C217 O222 1.247 . S
C217 O223 1.208 . S
C218 O210 1.315 . S
C218 O213 1.279 . S
C219 O220 1.315 . S
C219 O221 1.279 . S
O220 Cd212 2.223 . S
O220 C219 1.315 . S
O221 Cd211 2.240 . S
O221 C219 1.279 . S
O222 Cd212 2.297 . S
O222 C217 1.247 . S
O223 Cd212 2.439 . S
O223 C217 1.208 . S
O224 Cd225 2.223 . S
O224 C232 1.315 . S
Cd225 O224 2.223 . S
Cd225 O228 2.297 . S
Cd225 O229 2.439 . S
Cd225 O235 2.240 . S
Cd226 O227 2.240 . S
Cd226 O234 2.223 1_545 S
Cd226 O236 2.297 . S
Cd226 O237 2.439 . S
O227 Cd226 2.240 . S
O227 C232 1.279 . S
O228 Cd225 2.297 . S
O228 C230 1.247 . S
O229 Cd225 2.439 . S
O229 C230 1.208 . S
C230 O228 1.247 . S
C230 O229 1.208 . S
C231 O236 1.247 . S
C231 O237 1.208 . S
C232 O224 1.315 . S
C232 O227 1.279 . S
C233 O234 1.315 . S
C233 O235 1.279 1_565 S
O234 Cd226 2.223 1_565 S
O234 C233 1.315 . S
O235 Cd225 2.240 . S
O235 C233 1.279 1_545 S
O236 Cd226 2.297 . S
O236 C231 1.247 . S
O237 Cd226 2.439 . S
O237 C231 1.208 . S
O238 Cd239 2.223 . S
O238 C246 1.315 . S
Cd239 O238 2.223 . S
Cd239 O242 2.297 . S
Cd239 O243 2.439 . S
Cd239 O249 2.240 . S
Cd240 O241 2.240 . S
Cd240 O248 2.223 . S
Cd240 O250 2.297 . S
Cd240 O251 2.439 . S
O241 Cd240 2.240 . S
O241 C246 1.279 . S
O242 Cd239 2.297 . S
O242 C244 1.247 . S
O243 Cd239 2.439 . S
O243 C244 1.208 . S
C244 O242 1.247 . S
C244 O243 1.208 . S
C245 O250 1.247 . S
C245 O251 1.208 . S
C246 O238 1.315 . S
C246 O241 1.279 . S
C247 O248 1.315 . S
C247 O249 1.279 . S
O248 Cd240 2.223 . S
O248 C247 1.315 . S
O249 Cd239 2.240 . S
O249 C247 1.279 . S
O250 Cd240 2.297 . S
O250 C245 1.247 . S
O251 Cd240 2.439 . S
O251 C245 1.208 . S
O252 Cd253 2.223 . S
O252 C260 1.315 . S
Cd253 O252 2.223 . S
Cd253 O256 2.297 . S
Cd253 O257 2.439 . S
Cd253 O263 2.240 . S
Cd254 O255 2.240 . S
Cd254 O262 2.223 . S
Cd254 O264 2.297 . S
Cd254 O265 2.439 . S
O255 Cd254 2.240 . S
O255 C260 1.279 . S
O256 Cd253 2.297 . S
O256 C258 1.247 . S
O257 Cd253 2.439 . S
O257 C258 1.208 . S
C258 O256 1.247 . S
C258 O257 1.208 . S
C259 O264 1.247 . S
C259 O265 1.208 . S
C260 O252 1.315 . S
C260 O255 1.279 . S
C261 O262 1.315 . S
C261 O263 1.279 . S
O262 Cd254 2.223 . S
O262 C261 1.315 . S
O263 Cd253 2.240 . S
O263 C261 1.279 . S
O264 Cd254 2.297 . S
O264 C259 1.247 . S
O265 Cd254 2.439 . S
O265 C259 1.208 . S
O266 Cd267 2.223 1_545 S
O266 C274 1.315 1_545 S
Cd267 O266 2.223 1_565 S
Cd267 O270 2.297 . S
Cd267 O271 2.439 . S
Cd267 O277 2.240 1_565 S
Cd268 O269 2.240 1_545 S
Cd268 O276 2.223 . S
Cd268 O278 2.297 . S
Cd268 O279 2.439 1_545 S
O269 Cd268 2.240 1_565 S
O269 C274 1.279 . S
O270 Cd267 2.297 . S
O270 C272 1.247 . S
O271 Cd267 2.439 . S
O271 C272 1.208 . S
C272 O270 1.247 . S
C272 O271 1.208 . S
C273 O278 1.247 . S
C273 O279 1.208 1_545 S
C274 O266 1.315 1_565 S
C274 O269 1.279 . S
C275 O276 1.315 . S
C275 O277 1.279 . S
O276 Cd268 2.223 . S
O276 C275 1.315 . S
O277 Cd267 2.240 1_545 S
O277 C275 1.279 . S
O278 Cd268 2.297 . S
O278 C273 1.247 . S
O279 Cd268 2.439 1_565 S
O279 C273 1.208 1_565 S
O280 Cd281 2.223 . S
O280 C288 1.315 . S
Cd281 O280 2.223 . S
Cd281 O284 2.297 . S
Cd281 O285 2.439 . S
Cd281 O291 2.240 . S
Cd282 O283 2.240 . S
Cd282 O290 2.223 . S
Cd282 O292 2.297 1_554 S
Cd282 O293 2.439 1_554 S
O283 Cd282 2.240 . S
O283 C288 1.279 . S
O284 Cd281 2.297 . S
O284 C286 1.247 . S
O285 Cd281 2.439 . S
O285 C286 1.208 . S
C286 O284 1.247 . S
C286 O285 1.208 . S
C287 O292 1.247 . S
C287 O293 1.208 . S
C288 O280 1.315 . S
C288 O283 1.279 . S
C289 O290 1.315 . S
C289 O291 1.279 . S
O290 Cd282 2.223 . S
O290 C289 1.315 . S
O291 Cd281 2.240 . S
O291 C289 1.279 . S
O292 Cd282 2.297 1_556 S
O292 C287 1.247 . S
O293 Cd282 2.439 1_556 S
O293 C287 1.208 . S
O294 Cd295 2.223 . S
O294 C302 1.315 . S
Cd295 O294 2.223 . S
Cd295 O298 2.297 . S
Cd295 O299 2.439 . S
Cd295 O305 2.240 . S
Cd296 O297 2.240 . S
Cd296 O304 2.223 . S
Cd296 O306 2.297 . S
Cd296 O307 2.439 . S
O297 Cd296 2.240 . S
O297 C302 1.279 . S
O298 Cd295 2.297 . S
O298 C300 1.247 . S
O299 Cd295 2.439 . S
O299 C300 1.208 . S
C300 O298 1.247 . S
C300 O299 1.208 . S
C301 O306 1.247 . S
C301 O307 1.208 . S
C302 O294 1.315 . S
C302 O297 1.279 . S
C303 O304 1.315 . S
C303 O305 1.279 . S
O304 Cd296 2.223 . S
O304 C303 1.315 . S
O305 Cd295 2.240 . S
O305 C303 1.279 . S
O306 Cd296 2.297 . S
O306 C301 1.247 . S
O307 Cd296 2.439 . S
O307 C301 1.208 . S
O308 Cd309 2.223 . S
O308 C316 1.315 . S
Cd309 O308 2.223 . S
Cd309 O312 2.297 . S
Cd309 O313 2.439 . S
Cd309 O319 2.240 . S
Cd310 O311 2.240 . S
Cd310 O318 2.223 . S
Cd310 O320 2.297 . S
Cd310 O321 2.439 . S
O311 Cd310 2.240 . S
O311 C316 1.279 . S
O312 Cd309 2.297 . S
O312 C314 1.247 . S
O313 Cd309 2.439 . S
O313 C314 1.208 . S
C314 O312 1.247 . S
C314 O313 1.208 . S
C315 O320 1.247 . S
C315 O321 1.208 . S
C316 O308 1.315 . S
C316 O311 1.279 . S
C317 O318 1.315 . S
C317 O319 1.279 . S
O318 Cd310 2.223 . S
O318 C317 1.315 . S
O319 Cd309 2.240 . S
O319 C317 1.279 . S
O320 Cd310 2.297 . S
O320 C315 1.247 . S
O321 Cd310 2.439 . S
O321 C315 1.208 . S
O322 Cd323 2.223 . S
O322 C330 1.315 . S
Cd323 O322 2.223 . S
Cd323 O326 2.297 . S
Cd323 O327 2.439 . S
Cd323 O333 2.240 . S
Cd324 O325 2.240 . S
Cd324 O332 2.223 . S
Cd324 O334 2.297 . S
Cd324 O335 2.439 . S
O325 Cd324 2.240 . S
O325 C330 1.279 . S
O326 Cd323 2.297 . S
O326 C328 1.247 . S
O327 Cd323 2.439 . S
O327 C328 1.208 . S
C328 O326 1.247 . S
C328 O327 1.208 . S
C329 O334 1.247 . S
C329 O335 1.208 . S
C330 O322 1.315 . S
C330 O325 1.279 . S
C331 O332 1.315 . S
C331 O333 1.279 . S
O332 Cd324 2.223 . S
O332 C331 1.315 . S
O333 Cd323 2.240 . S
O333 C331 1.279 . S
O334 Cd324 2.297 . S
O334 C329 1.247 . S
O335 Cd324 2.439 . S
O335 C329 1.208 . S
Pr336 C338 2.880 1_455 S
Pr336 O356 2.562 1_455 S
Pr336 O357 2.490 1_454 S
Pr336 O358 2.695 . S
Pr336 O359 2.512 1_554 S
Pr336 O361 2.437 . S
Pr336 O364 2.436 . S
Pr336 O366 2.438 . S
Pr337 C347 2.880 . S
Pr337 O358 2.436 . S
Pr337 O360 2.438 . S
Pr337 O362 2.562 . S
Pr337 O363 2.490 . S
Pr337 O364 2.695 . S
Pr337 O365 2.512 . S
Pr337 O367 2.437 . S
C338 Pr336 2.880 1_655 S
C338 C339 1.479 1_554 S
C338 O356 1.254 . S
C338 O357 1.225 1_554 S
C339 C338 1.479 1_556 S
C339 C340 1.438 . S
C339 C344 1.324 1_556 S
C340 C339 1.438 . S
C340 C341 1.368 . S
C340 H368 0.929 . S
C341 C340 1.368 . S
C341 C342 1.386 . S
C341 H369 0.929 . S
C342 C341 1.386 . S
C342 C343 1.373 1_556 S
C343 C342 1.373 1_554 S
C343 C344 1.409 . S
C343 H370 0.931 . S
C344 C339 1.324 1_554 S
C344 C343 1.409 . S
C344 H371 0.930 . S
C345 O358 1.269 . S
C345 O359 1.249 1_554 S
C346 O360 1.267 . S
C346 O361 1.278 . S
C347 Pr337 2.880 . S
C347 C348 1.491 . S
C347 O362 1.254 . S
C347 O363 1.225 . S
C348 C347 1.491 . S
C348 C349 1.392 . S
C348 C353 1.356 . S
C349 C348 1.392 . S
C349 C350 1.368 . S
C349 H372 0.929 . S
C350 C349 1.368 . S
C350 C351 1.386 . S
C350 H373 0.929 . S
C351 C350 1.386 . S
C351 C352 1.373 . S
C352 C351 1.373 . S
C352 C353 1.409 . S
C352 H374 0.931 . S
C353 C348 1.356 . S
C353 C352 1.409 . S
C353 H375 0.930 . S
C354 O364 1.270 . S
C354 O365 1.248 . S
C355 O366 1.267 . S
C355 O367 1.278 . S
O356 Pr336 2.562 1_655 S
O356 C338 1.254 . S
O357 Pr336 2.490 1_656 S
O357 C338 1.225 1_556 S
O358 Pr336 2.695 . S
O358 Pr337 2.436 . S
O358 C345 1.269 . S
O359 Pr336 2.512 1_556 S
O359 C345 1.249 1_556 S
O360 Pr337 2.438 . S
O360 C346 1.267 . S
O361 Pr336 2.437 . S
O361 C346 1.278 . S
O362 Pr337 2.562 . S
O362 C347 1.254 . S
O363 Pr337 2.490 . S
O363 C347 1.225 . S
O364 Pr336 2.436 . S
O364 Pr337 2.695 . S
O364 C354 1.270 . S
O365 Pr337 2.512 . S
O365 C354 1.248 . S
O366 Pr336 2.438 . S
O366 C355 1.267 . S
O367 Pr337 2.437 . S
O367 C355 1.278 . S
H368 C340 0.929 . S
H369 C341 0.929 . S
H370 C343 0.931 . S
H371 C344 0.930 . S
H372 C349 0.929 . S
H373 C350 0.929 . S
H374 C352 0.931 . S
H375 C353 0.930 . S
Pr376 C378 2.880 . S
Pr376 O396 2.562 . S
Pr376 O397 2.490 . S
Pr376 O398 2.695 . S
Pr376 O399 2.512 . S
Pr376 O401 2.437 . S
Pr376 O404 2.436 . S
Pr376 O406 2.438 . S
Pr377 C387 2.880 . S
Pr377 O398 2.436 . S
Pr377 O400 2.438 . S
Pr377 O402 2.562 . S
Pr377 O403 2.490 . S
Pr377 O404 2.695 . S
Pr377 O405 2.512 . S
Pr377 O407 2.437 . S
C378 Pr376 2.880 . S
C378 C379 1.491 . S
C378 O396 1.254 . S
C378 O397 1.225 . S
C379 C378 1.491 . S
C379 C380 1.392 . S
C379 C384 1.356 . S
C380 C379 1.392 . S
C380 C381 1.368 . S
C380 H408 0.929 . S
C381 C380 1.368 . S
C381 C382 1.386 . S
C381 H409 0.929 . S
C382 C381 1.386 . S
C382 C383 1.373 . S
C383 C382 1.373 . S
C383 C384 1.409 . S
C383 H410 0.931 . S
C384 C379 1.356 . S
C384 C383 1.409 . S
C384 H411 0.930 . S
C385 O398 1.270 . S
C385 O399 1.248 . S
C386 O400 1.267 . S
C386 O401 1.278 . S
C387 Pr377 2.880 . S
C387 C388 1.491 . S
C387 O402 1.254 . S
C387 O403 1.225 . S
C388 C387 1.491 . S
C388 C389 1.392 . S
C388 C393 1.356 . S
C389 C388 1.392 . S
C389 C390 1.368 . S
C389 H412 0.929 . S
C390 C389 1.368 . S
C390 C391 1.386 . S
C390 H413 0.929 . S
C391 C390 1.386 . S
C391 C392 1.373 . S
C392 C391 1.373 . S
C392 C393 1.409 . S
C392 H414 0.931 . S
C393 C388 1.356 . S
C393 C392 1.409 . S
C393 H415 0.930 . S
C394 O404 1.270 . S
C394 O405 1.248 . S
C395 O406 1.267 . S
C395 O407 1.278 . S
O396 Pr376 2.562 . S
O396 C378 1.254 . S
O397 Pr376 2.490 . S
O397 C378 1.225 . S
O398 Pr376 2.695 . S
O398 Pr377 2.436 . S
O398 C385 1.270 . S
O399 Pr376 2.512 . S
O399 C385 1.248 . S
O400 Pr377 2.438 . S
O400 C386 1.267 . S
O401 Pr376 2.437 . S
O401 C386 1.278 . S
O402 Pr377 2.562 . S
O402 C387 1.254 . S
O403 Pr377 2.490 . S
O403 C387 1.225 . S
O404 Pr376 2.436 . S
O404 Pr377 2.695 . S
O404 C394 1.270 . S
O405 Pr377 2.512 . S
O405 C394 1.248 . S
O406 Pr376 2.438 . S
O406 C395 1.267 . S
O407 Pr377 2.437 . S
O407 C395 1.278 . S
H408 C380 0.929 . S
H409 C381 0.929 . S
H410 C383 0.931 . S
H411 C384 0.930 . S
H412 C389 0.929 . S
H413 C390 0.929 . S
H414 C392 0.931 . S
H415 C393 0.930 . S
Pr416 C418 2.880 . S
Pr416 O436 2.562 . S
Pr416 O437 2.490 . S
Pr416 O438 2.695 . S
Pr416 O439 2.512 . S
Pr416 O441 2.437 . S
Pr416 O444 2.436 . S
Pr416 O446 2.438 . S
Pr417 C427 2.880 . S
Pr417 O438 2.436 . S
Pr417 O440 2.438 . S
Pr417 O442 2.562 . S
Pr417 O443 2.490 . S
Pr417 O444 2.695 . S
Pr417 O445 2.512 . S
Pr417 O447 2.437 . S
C418 Pr416 2.880 . S
C418 C419 1.491 . S
C418 O436 1.254 . S
C418 O437 1.225 . S
C419 C418 1.491 . S
C419 C420 1.392 . S
C419 C424 1.356 . S
C420 C419 1.392 . S
C420 C421 1.368 . S
C420 H448 0.929 . S
C421 C420 1.368 . S
C421 C422 1.386 . S
C421 H449 0.929 . S
C422 C421 1.386 . S
C422 C423 1.373 . S
C423 C422 1.373 . S
C423 C424 1.409 . S
C423 H450 0.931 . S
C424 C419 1.356 . S
C424 C423 1.409 . S
C424 H451 0.930 . S
C425 O438 1.270 . S
C425 O439 1.248 . S
C426 O440 1.267 . S
C426 O441 1.278 . S
C427 Pr417 2.880 . S
C427 C428 1.491 . S
C427 O442 1.254 . S
C427 O443 1.225 . S
C428 C427 1.491 . S
C428 C429 1.392 . S
C428 C433 1.356 . S
C429 C428 1.392 . S
C429 C430 1.368 . S
C429 H452 0.929 . S
C430 C429 1.368 . S
C430 C431 1.386 . S
C430 H453 0.929 . S
C431 C430 1.386 . S
C431 C432 1.373 . S
C432 C431 1.373 . S
C432 C433 1.409 . S
C432 H454 0.931 . S
C433 C428 1.356 . S
C433 C432 1.409 . S
C433 H455 0.930 . S
C434 O444 1.270 . S
C434 O445 1.248 . S
C435 O446 1.267 . S
C435 O447 1.278 . S
O436 Pr416 2.562 . S
O436 C418 1.254 . S
O437 Pr416 2.490 . S
O437 C418 1.225 . S
O438 Pr416 2.695 . S
O438 Pr417 2.436 . S
O438 C425 1.270 . S
O439 Pr416 2.512 . S
O439 C425 1.248 . S
O440 Pr417 2.438 . S
O440 C426 1.267 . S
O441 Pr416 2.437 . S
O441 C426 1.278 . S
O442 Pr417 2.562 . S
O442 C427 1.254 . S
O443 Pr417 2.490 . S
O443 C427 1.225 . S
O444 Pr416 2.436 . S
O444 Pr417 2.695 . S
O444 C434 1.270 . S
O445 Pr417 2.512 . S
O445 C434 1.248 . S
O446 Pr416 2.438 . S
O446 C435 1.267 . S
O447 Pr417 2.437 . S
O447 C435 1.278 . S
H448 C420 0.929 . S
H449 C421 0.929 . S
H450 C423 0.931 . S
H451 C424 0.930 . S
H452 C429 0.929 . S
H453 C430 0.929 . S
H454 C432 0.931 . S
H455 C433 0.930 . S
Pr456 C458 2.880 . S
Pr456 O476 2.562 . S
Pr456 O477 2.490 . S
Pr456 O478 2.695 . S
Pr456 O479 2.512 . S
Pr456 O481 2.437 . S
Pr456 O484 2.436 . S
Pr456 O486 2.438 . S
Pr457 C467 2.880 . S
Pr457 O478 2.436 . S
Pr457 O480 2.438 . S
Pr457 O482 2.562 . S
Pr457 O483 2.490 . S
Pr457 O484 2.695 . S
Pr457 O485 2.512 . S
Pr457 O487 2.437 . S
C458 Pr456 2.880 . S
C458 C459 1.491 . S
C458 O476 1.254 . S
C458 O477 1.225 . S
C459 C458 1.491 . S
C459 C460 1.392 . S
C459 C464 1.356 . S
C460 C459 1.392 . S
C460 C461 1.368 . S
C460 H488 0.929 . S
C461 C460 1.368 . S
C461 C462 1.386 . S
C461 H489 0.929 . S
C462 C461 1.386 . S
C462 C463 1.373 . S
C463 C462 1.373 . S
C463 C464 1.409 . S
C463 H490 0.931 . S
C464 C459 1.356 . S
C464 C463 1.409 . S
C464 H491 0.930 . S
C465 O478 1.270 . S
C465 O479 1.248 . S
C466 O480 1.267 . S
C466 O481 1.278 . S
C467 Pr457 2.880 . S
C467 C468 1.491 . S
C467 O482 1.254 . S
C467 O483 1.225 . S
C468 C467 1.491 . S
C468 C469 1.392 . S
C468 C473 1.356 . S
C469 C468 1.392 . S
C469 C470 1.368 . S
C469 H492 0.929 . S
C470 C469 1.368 . S
C470 C471 1.386 . S
C470 H493 0.929 . S
C471 C470 1.386 . S
C471 C472 1.373 . S
C472 C471 1.373 . S
C472 C473 1.409 . S
C472 H494 0.931 . S
C473 C468 1.356 . S
C473 C472 1.409 . S
C473 H495 0.930 . S
C474 O484 1.270 . S
C474 O485 1.248 . S
C475 O486 1.267 . S
C475 O487 1.278 . S
O476 Pr456 2.562 . S
O476 C458 1.254 . S
O477 Pr456 2.490 . S
O477 C458 1.225 . S
O478 Pr456 2.695 . S
O478 Pr457 2.436 . S
O478 C465 1.270 . S
O479 Pr456 2.512 . S
O479 C465 1.248 . S
O480 Pr457 2.438 . S
O480 C466 1.267 . S
O481 Pr456 2.437 . S
O481 C466 1.278 . S
O482 Pr457 2.562 . S
O482 C467 1.254 . S
O483 Pr457 2.490 . S
O483 C467 1.225 . S
O484 Pr456 2.436 . S
O484 Pr457 2.695 . S
O484 C474 1.270 . S
O485 Pr457 2.512 . S
O485 C474 1.248 . S
O486 Pr456 2.438 . S
O486 C475 1.267 . S
O487 Pr457 2.437 . S
O487 C475 1.278 . S
H488 C460 0.929 . S
H489 C461 0.929 . S
H490 C463 0.931 . S
H491 C464 0.930 . S
H492 C469 0.929 . S
H493 C470 0.929 . S
H494 C472 0.931 . S
H495 C473 0.930 . S
Pr496 C498 2.880 . S
Pr496 O516 2.562 . S
Pr496 O517 2.490 . S
Pr496 O518 2.695 . S
Pr496 O519 2.512 . S
Pr496 O521 2.437 . S
Pr496 O524 2.436 . S
Pr496 O526 2.438 . S
Pr497 C507 2.880 . S
Pr497 O518 2.436 . S
Pr497 O520 2.438 . S
Pr497 O522 2.562 . S
Pr497 O523 2.490 . S
Pr497 O524 2.695 . S
Pr497 O525 2.512 . S
Pr497 O527 2.437 . S
C498 Pr496 2.880 . S
C498 C499 1.491 . S
C498 O516 1.254 . S
C498 O517 1.225 . S
C499 C498 1.491 . S
C499 C500 1.392 . S
C499 C504 1.395 . S
C500 C499 1.392 . S
C500 C501 1.368 . S
C500 H528 0.929 . S
C501 C500 1.368 . S
C501 C502 1.386 . S
C501 H529 0.929 . S
C502 C501 1.386 . S
C502 C503 1.373 1_455 S
C503 C502 1.373 1_655 S
C503 C504 1.398 1_655 S
C503 H530 0.931 . S
C504 C499 1.395 . S
C504 C503 1.398 1_455 S
C504 H531 0.902 1_455 S
C505 O518 1.270 . S
C505 O519 1.248 . S
C506 O520 1.267 . S
C506 O521 1.278 . S
C507 Pr497 2.880 . S
C507 C508 1.491 . S
C507 O522 1.254 . S
C507 O523 1.225 . S
C508 C507 1.491 . S
C508 C509 1.392 . S
C508 C513 1.356 . S
C509 C508 1.392 . S
C509 C510 1.368 . S
C509 H532 0.929 . S
C510 C509 1.368 . S
C510 C511 1.386 . S
C510 H533 0.929 . S
C511 C510 1.386 . S
C511 C512 1.373 . S
C512 C511 1.373 . S
C512 C513 1.409 . S
C512 H534 0.931 . S
C513 C508 1.356 . S
C513 C512 1.409 . S
C513 H535 0.930 . S
C514 O524 1.270 . S
C514 O525 1.248 . S
C515 O526 1.267 . S
C515 O527 1.278 . S
O516 Pr496 2.562 . S
O516 C498 1.254 . S
O517 Pr496 2.490 . S
O517 C498 1.225 . S
O518 Pr496 2.695 . S
O518 Pr497 2.436 . S
O518 C505 1.270 . S
O519 Pr496 2.512 . S
O519 C505 1.248 . S
O520 Pr497 2.438 . S
O520 C506 1.267 . S
O521 Pr496 2.437 . S
O521 C506 1.278 . S
O522 Pr497 2.562 . S
O522 C507 1.254 . S
O523 Pr497 2.490 . S
O523 C507 1.225 . S
O524 Pr496 2.436 . S
O524 Pr497 2.695 . S
O524 C514 1.270 . S
O525 Pr497 2.512 . S
O525 C514 1.248 . S
O526 Pr496 2.438 . S
O526 C515 1.267 . S
O527 Pr497 2.437 . S
O527 C515 1.278 . S
H528 C500 0.929 . S
H529 C501 0.929 . S
H530 C503 0.931 . S
H531 C504 0.902 1_655 S
H532 C509 0.929 . S
H533 C510 0.929 . S
H534 C512 0.931 . S
H535 C513 0.930 . S
Pr536 C538 2.880 . S
Pr536 O556 2.562 . S
Pr536 O557 2.490 . S
Pr536 O558 2.695 . S
Pr536 O559 2.512 . S
Pr536 O561 2.437 . S
Pr536 O564 2.436 . S
Pr536 O566 2.438 . S
Pr537 C547 2.880 . S
Pr537 O558 2.436 . S
Pr537 O560 2.438 . S
Pr537 O562 2.562 . S
Pr537 O563 2.490 . S
Pr537 O564 2.695 . S
Pr537 O565 2.512 . S
Pr537 O567 2.437 . S
C538 Pr536 2.880 . S
C538 C539 1.491 . S
C538 O556 1.254 . S
C538 O557 1.225 . S
C539 C538 1.491 . S
C539 C540 1.392 . S
C539 C544 1.356 . S
C540 C539 1.392 . S
C540 C541 1.368 . S
C540 H568 0.929 . S
C541 C540 1.368 . S
C541 C542 1.386 . S
C541 H569 0.929 . S
C542 C541 1.386 . S
C542 C543 1.373 . S
C543 C542 1.373 . S
C543 C544 1.409 . S
C543 H570 0.931 . S
C544 C539 1.356 . S
C544 C543 1.409 . S
C544 H571 0.930 . S
C545 O558 1.270 . S
C545 O559 1.248 . S
C546 O560 1.267 . S
C546 O561 1.278 . S
C547 Pr537 2.880 . S
C547 C548 1.491 . S
C547 O562 1.254 . S
C547 O563 1.225 . S
C548 C547 1.491 . S
C548 C549 1.392 . S
C548 C553 1.356 . S
C549 C548 1.392 . S
C549 C550 1.368 . S
C549 H572 0.929 . S
C550 C549 1.368 . S
C550 C551 1.386 . S
C550 H573 0.929 . S
C551 C550 1.386 . S
C551 C552 1.373 . S
C552 C551 1.373 . S
C552 C553 1.409 . S
C552 H574 0.931 . S
C553 C548 1.356 . S
C553 C552 1.409 . S
C553 H575 0.930 . S
C554 O564 1.270 . S
C554 O565 1.248 . S
C555 O566 1.267 . S
C555 O567 1.278 . S
O556 Pr536 2.562 . S
O556 C538 1.254 . S
O557 Pr536 2.490 . S
O557 C538 1.225 . S
O558 Pr536 2.695 . S
O558 Pr537 2.436 . S
O558 C545 1.270 . S
O559 Pr536 2.512 . S
O559 C545 1.248 . S
O560 Pr537 2.438 . S
O560 C546 1.267 . S
O561 Pr536 2.437 . S
O561 C546 1.278 . S
O562 Pr537 2.562 . S
O562 C547 1.254 . S
O563 Pr537 2.490 . S
O563 C547 1.225 . S
O564 Pr536 2.436 . S
O564 Pr537 2.695 . S
O564 C554 1.270 . S
O565 Pr537 2.512 . S
O565 C554 1.248 . S
O566 Pr536 2.438 . S
O566 C555 1.267 . S
O567 Pr537 2.437 . S
O567 C555 1.278 . S
H568 C540 0.929 . S
H569 C541 0.929 . S
H570 C543 0.931 . S
H571 C544 0.930 . S
H572 C549 0.929 . S
H573 C550 0.929 . S
H574 C552 0.931 . S
H575 C553 0.930 . S
Pr576 C578 2.880 . S
Pr576 O596 2.562 . S
Pr576 O597 2.490 . S
Pr576 O598 2.695 . S
Pr576 O599 2.512 . S
Pr576 O601 2.437 . S
Pr576 O604 2.436 . S
Pr576 O606 2.438 . S
Pr577 C587 2.880 1_554 S
Pr577 O598 2.436 . S
Pr577 O600 2.438 . S
Pr577 O602 2.562 1_554 S
Pr577 O603 2.490 1_554 S
Pr577 O604 2.695 . S
Pr577 O605 2.512 . S
Pr577 O607 2.437 . S
C578 Pr576 2.880 . S
C578 C579 1.491 . S
C578 O596 1.254 . S
C578 O597 1.225 . S
C579 C578 1.491 . S
C579 C580 1.392 . S
C579 C584 1.356 . S
C580 C579 1.392 . S
C580 C581 1.368 . S
C580 H608 0.929 . S
C581 C580 1.368 . S
C581 C582 1.386 . S
C581 H609 0.929 . S
C582 C581 1.386 . S
C582 C583 1.373 . S
C583 C582 1.373 . S
C583 C584 1.409 . S
C583 H610 0.931 . S
C584 C579 1.356 . S
C584 C583 1.409 . S
C584 H611 0.930 . S
C585 O598 1.270 . S
C585 O599 1.248 . S
C586 O600 1.267 . S
C586 O601 1.278 . S
C587 Pr577 2.880 1_556 S
C587 C588 1.491 . S
C587 O602 1.254 . S
C587 O603 1.225 . S
C588 C587 1.491 . S
C588 C589 1.392 . S
C588 C593 1.356 . S
C589 C588 1.392 . S
C589 C590 1.368 . S
C589 H612 0.929 . S
C590 C589 1.368 . S
C590 C591 1.386 . S
C590 H613 0.929 . S
C591 C590 1.386 . S
C591 C592 1.373 . S
C592 C591 1.373 . S
C592 C593 1.409 . S
C592 H614 0.931 . S
C593 C588 1.356 . S
C593 C592 1.409 . S
C593 H615 0.930 . S
C594 O604 1.270 . S
C594 O605 1.248 . S
C595 O606 1.267 . S
C595 O607 1.278 . S
O596 Pr576 2.562 . S
O596 C578 1.254 . S
O597 Pr576 2.490 . S
O597 C578 1.225 . S
O598 Pr576 2.695 . S
O598 Pr577 2.436 . S
O598 C585 1.270 . S
O599 Pr576 2.512 . S
O599 C585 1.248 . S
O600 Pr577 2.438 . S
O600 C586 1.267 . S
O601 Pr576 2.437 . S
O601 C586 1.278 . S
O602 Pr577 2.562 1_556 S
O602 C587 1.254 . S
O603 Pr577 2.490 1_556 S
O603 C587 1.225 . S
O604 Pr576 2.436 . S
O604 Pr577 2.695 . S
O604 C594 1.270 . S
O605 Pr577 2.512 . S
O605 C594 1.248 . S
O606 Pr576 2.438 . S
O606 C595 1.267 . S
O607 Pr577 2.437 . S
O607 C595 1.278 . S
H608 C580 0.929 . S
H609 C581 0.929 . S
H610 C583 0.931 . S
H611 C584 0.930 . S
H612 C589 0.929 . S
H613 C590 0.929 . S
H614 C592 0.931 . S
H615 C593 0.930 . S
Pr616 C618 2.880 . S
Pr616 O636 2.562 . S
Pr616 O637 2.490 . S
Pr616 O638 2.695 . S
Pr616 O639 2.512 . S
Pr616 O641 2.437 . S
Pr616 O644 2.436 . S
Pr616 O646 2.438 . S
Pr617 C627 2.880 . S
Pr617 O638 2.436 . S
Pr617 O640 2.438 . S
Pr617 O642 2.562 . S
Pr617 O643 2.490 . S
Pr617 O644 2.695 . S
Pr617 O645 2.512 . S
Pr617 O647 2.437 . S
C618 Pr616 2.880 . S
C618 C619 1.491 . S
C618 O636 1.254 . S
C618 O637 1.225 . S
C619 C618 1.491 . S
C619 C620 1.392 . S
C619 C624 1.356 . S
C620 C619 1.392 . S
C620 C621 1.368 . S
C620 H648 0.929 . S
C621 C620 1.368 . S
C621 C622 1.386 . S
C621 H649 0.929 . S
C622 C621 1.386 . S
C622 C623 1.373 . S
C623 C622 1.373 . S
C623 C624 1.409 . S
C623 H650 0.931 . S
C624 C619 1.356 . S
C624 C623 1.409 . S
C624 H651 0.930 . S
C625 O638 1.270 . S
C625 O639 1.248 . S
C626 O640 1.267 . S
C626 O641 1.278 . S
C627 Pr617 2.880 . S
C627 C628 1.491 . S
C627 O642 1.254 . S
C627 O643 1.225 . S
C628 C627 1.491 . S
C628 C629 1.392 . S
C628 C633 1.356 . S
C629 C628 1.392 . S
C629 C630 1.368 . S
C629 H652 0.929 . S
C630 C629 1.368 . S
C630 C631 1.386 . S
C630 H653 0.929 . S
C631 C630 1.386 . S
C631 C632 1.373 . S
C632 C631 1.373 . S
C632 C633 1.409 . S
C632 H654 0.931 . S
C633 C628 1.356 . S
C633 C632 1.409 . S
C633 H655 0.930 . S
C634 O644 1.270 . S
C634 O645 1.248 . S
C635 O646 1.267 . S
C635 O647 1.278 . S
O636 Pr616 2.562 . S
O636 C618 1.254 . S
O637 Pr616 2.490 . S
O637 C618 1.225 . S
O638 Pr616 2.695 . S
O638 Pr617 2.436 . S
O638 C625 1.270 . S
O639 Pr616 2.512 . S
O639 C625 1.248 . S
O640 Pr617 2.438 . S
O640 C626 1.267 . S
O641 Pr616 2.437 . S
O641 C626 1.278 . S
O642 Pr617 2.562 . S
O642 C627 1.254 . S
O643 Pr617 2.490 . S
O643 C627 1.225 . S
O644 Pr616 2.436 . S
O644 Pr617 2.695 . S
O644 C634 1.270 . S
O645 Pr617 2.512 . S
O645 C634 1.248 . S
O646 Pr616 2.438 . S
O646 C635 1.267 . S
O647 Pr617 2.437 . S
O647 C635 1.278 . S
H648 C620 0.929 . S
H649 C621 0.929 . S
H650 C623 0.931 . S
H651 C624 0.930 . S
H652 C629 0.929 . S
H653 C630 0.929 . S
H654 C632 0.931 . S
H655 C633 0.930 . S
Pr656 C658 2.880 1_554 S
Pr656 O676 2.562 1_554 S
Pr656 O677 2.490 1_554 S
Pr656 O678 2.695 . S
Pr656 O679 2.512 . S
Pr656 O681 2.437 . S
Pr656 O684 2.436 . S
Pr656 O686 2.438 . S
Pr657 C667 2.880 . S
Pr657 O678 2.436 . S
Pr657 O680 2.438 . S
Pr657 O682 2.562 . S
Pr657 O683 2.490 . S
Pr657 O684 2.695 . S
Pr657 O685 2.512 . S
Pr657 O687 2.437 . S
C658 Pr656 2.880 1_556 S
C658 C659 1.491 . S
C658 O676 1.254 . S
C658 O677 1.225 . S
C659 C658 1.491 . S
C659 C660 1.392 . S
C659 C664 1.356 . S
C660 C659 1.392 . S
C660 C661 1.368 . S
C660 H688 0.929 . S
C661 C660 1.368 . S
C661 C662 1.386 . S
C661 H689 0.929 . S
C662 C661 1.386 . S
C662 C663 1.373 . S
C663 C662 1.373 . S
C663 C664 1.409 . S
C663 H690 0.931 . S
C664 C659 1.356 . S
C664 C663 1.409 . S
C664 H691 0.930 . S
C665 O678 1.270 . S
C665 O679 1.248 . S
C666 O680 1.267 . S
C666 O681 1.278 . S
C667 Pr657 2.880 . S
C667 C668 1.491 . S
C667 O682 1.254 . S
C667 O683 1.225 . S
C668 C667 1.491 . S
C668 C669 1.392 . S
C668 C673 1.356 . S
C669 C668 1.392 . S
C669 C670 1.368 . S
C669 H692 0.929 . S
C670 C669 1.368 . S
C670 C671 1.386 . S
C670 H693 0.929 . S
C671 C670 1.386 . S
C671 C672 1.373 . S
C672 C671 1.373 . S
C672 C673 1.409 . S
C672 H694 0.931 . S
C673 C668 1.356 . S
C673 C672 1.409 . S
C673 H695 0.930 . S
C674 O684 1.270 . S
C674 O685 1.248 . S
C675 O686 1.267 . S
C675 O687 1.278 . S
O676 Pr656 2.562 1_556 S
O676 C658 1.254 . S
O677 Pr656 2.490 1_556 S
O677 C658 1.225 . S
O678 Pr656 2.695 . S
O678 Pr657 2.436 . S
O678 C665 1.270 . S
O679 Pr656 2.512 . S
O679 C665 1.248 . S
O680 Pr657 2.438 . S
O680 C666 1.267 . S
O681 Pr656 2.437 . S
O681 C666 1.278 . S
O682 Pr657 2.562 . S
O682 C667 1.254 . S
O683 Pr657 2.490 . S
O683 C667 1.225 . S
O684 Pr656 2.436 . S
O684 Pr657 2.695 . S
O684 C674 1.270 . S
O685 Pr657 2.512 . S
O685 C674 1.248 . S
O686 Pr656 2.438 . S
O686 C675 1.267 . S
O687 Pr657 2.437 . S
O687 C675 1.278 . S
H688 C660 0.929 . S
H689 C661 0.929 . S
H690 C663 0.931 . S
H691 C664 0.930 . S
H692 C669 0.929 . S
H693 C670 0.929 . S
H694 C672 0.931 . S
H695 C673 0.930 . S
Pr696 C698 2.880 . S
Pr696 O716 2.562 . S
Pr696 O717 2.490 . S
Pr696 O718 2.695 . S
Pr696 O719 2.512 . S
Pr696 O721 2.437 . S
Pr696 O724 2.436 . S
Pr696 O726 2.438 . S
Pr697 C707 2.880 . S
Pr697 O718 2.436 . S
Pr697 O720 2.438 . S
Pr697 O722 2.562 . S
Pr697 O723 2.490 . S
Pr697 O724 2.695 . S
Pr697 O725 2.512 . S
Pr697 O727 2.437 . S
C698 Pr696 2.880 . S
C698 C699 1.491 . S
C698 O716 1.254 . S
C698 O717 1.225 . S
C699 C698 1.491 . S
C699 C700 1.392 . S
C699 C704 1.356 . S
C700 C699 1.392 . S
C700 C701 1.368 . S
C700 H728 0.929 . S
C701 C700 1.368 . S
C701 C702 1.386 . S
C701 H729 0.929 . S
C702 C701 1.386 . S
C702 C703 1.373 . S
C703 C702 1.373 . S
C703 C704 1.409 . S
C703 H730 0.931 . S
C704 C699 1.356 . S
C704 C703 1.409 . S
C704 H731 0.930 . S
C705 O718 1.270 . S
C705 O719 1.248 . S
C706 O720 1.267 . S
C706 O721 1.278 . S
C707 Pr697 2.880 . S
C707 C708 1.491 . S
C707 O722 1.254 . S
C707 O723 1.225 . S
C708 C707 1.491 . S
C708 C709 1.392 . S
C708 C713 1.356 . S
C709 C708 1.392 . S
C709 C710 1.368 . S
C709 H732 0.929 . S
C710 C709 1.368 . S
C710 C711 1.386 . S
C710 H733 0.929 . S
C711 C710 1.386 . S
C711 C712 1.373 . S
C712 C711 1.373 . S
C712 C713 1.409 . S
C712 H734 0.931 . S
C713 C708 1.356 . S
C713 C712 1.409 . S
C713 H735 0.930 . S
C714 O724 1.270 . S
C714 O725 1.248 . S
C715 O726 1.267 . S
C715 O727 1.278 . S
O716 Pr696 2.562 . S
O716 C698 1.254 . S
O717 Pr696 2.490 . S
O717 C698 1.225 . S
O718 Pr696 2.695 . S
O718 Pr697 2.436 . S
O718 C705 1.270 . S
O719 Pr696 2.512 . S
O719 C705 1.248 . S
O720 Pr697 2.438 . S
O720 C706 1.267 . S
O721 Pr696 2.437 . S
O721 C706 1.278 . S
O722 Pr697 2.562 . S
O722 C707 1.254 . S
O723 Pr697 2.490 . S
O723 C707 1.225 . S
O724 Pr696 2.436 . S
O724 Pr697 2.695 . S
O724 C714 1.270 . S
O725 Pr697 2.512 . S
O725 C714 1.248 . S
O726 Pr696 2.438 . S
O726 C715 1.267 . S
O727 Pr697 2.437 . S
O727 C715 1.278 . S
H728 C700 0.929 . S
H729 C701 0.929 . S
H730 C703 0.931 . S
H731 C704 0.930 . S
H732 C709 0.929 . S
H733 C710 0.929 . S
H734 C712 0.931 . S
H735 C713 0.930 . S
Pr736 C738 2.880 . S
Pr736 O756 2.562 . S
Pr736 O757 2.490 . S
Pr736 O758 2.695 . S
Pr736 O759 2.512 . S
Pr736 O761 2.437 . S
Pr736 O764 2.436 . S
Pr736 O766 2.438 . S
Pr737 C747 2.880 . S
Pr737 O758 2.436 . S
Pr737 O760 2.436 . S
Pr737 O762 2.562 . S
Pr737 O763 2.490 . S
Pr737 O764 2.695 . S
Pr737 O765 2.512 . S
Pr737 O767 2.437 . S
C738 Pr736 2.880 . S
C738 C739 1.491 . S
C738 O756 1.254 . S
C738 O757 1.225 . S
C739 C738 1.491 . S
C739 C740 1.392 . S
C739 C744 1.356 . S
C740 C739 1.392 . S
C740 C741 1.368 . S
C740 H768 0.929 . S
C741 C740 1.368 . S
C741 C742 1.388 1_455 S
C741 H769 0.929 . S
C742 C741 1.388 1_655 S
C742 C743 1.372 . S
C743 C742 1.372 . S
C743 C744 1.409 1_655 S
C743 H770 0.931 . S
C744 C739 1.356 . S
C744 C743 1.409 1_455 S
C744 H771 0.930 . S
C745 O758 1.270 . S
C745 O759 1.248 . S
C746 O760 1.267 1_655 S
C746 O761 1.278 1_655 S
C747 Pr737 2.880 . S
C747 C748 1.491 . S
C747 O762 1.254 . S
C747 O763 1.225 . S
C748 C747 1.491 . S
C748 C749 1.392 . S
C748 C753 1.356 . S
C749 C748 1.392 . S
C749 C750 1.368 . S
C749 H772 0.929 . S
C750 C749 1.368 . S
C750 C751 1.386 . S
C750 H773 0.929 . S
C751 C750 1.386 . S
C751 C752 1.373 . S
C752 C751 1.373 . S
C752 C753 1.409 . S
C752 H774 0.931 . S
C753 C748 1.356 . S
C753 C752 1.409 . S
C753 H775 0.930 . S
C754 O764 1.270 . S
C754 O765 1.248 . S
C755 O766 1.267 . S
C755 O767 1.278 . S
O756 Pr736 2.562 . S
O756 C738 1.254 . S
O757 Pr736 2.490 . S
O757 C738 1.225 . S
O758 Pr736 2.695 . S
O758 Pr737 2.436 . S
O758 C745 1.270 . S
O759 Pr736 2.512 . S
O759 C745 1.248 . S
O760 Pr737 2.436 . S
O760 C746 1.267 1_455 S
O761 Pr736 2.437 . S
O761 C746 1.278 1_455 S
O762 Pr737 2.562 . S
O762 C747 1.254 . S
O763 Pr737 2.490 . S
O763 C747 1.225 . S
O764 Pr736 2.436 . S
O764 Pr737 2.695 . S
O764 C754 1.270 . S
O765 Pr737 2.512 . S
O765 C754 1.248 . S
O766 Pr736 2.438 . S
O766 C755 1.267 . S
O767 Pr737 2.437 . S
O767 C755 1.278 . S
H768 C740 0.929 . S
H769 C741 0.929 . S
H770 C743 0.931 . S
H771 C744 0.930 . S
H772 C749 0.929 . S
H773 C750 0.929 . S
H774 C752 0.931 . S
H775 C753 0.930 . S
Pr776 C778 2.880 . S
Pr776 O796 2.562 . S
Pr776 O797 2.490 . S
Pr776 O798 2.695 . S
Pr776 O799 2.512 . S
Pr776 O801 2.437 . S
Pr776 O804 2.436 . S
Pr776 O806 2.438 . S
Pr777 C787 2.880 . S
Pr777 O798 2.436 . S
Pr777 O800 2.438 . S
Pr777 O802 2.562 . S
Pr777 O803 2.490 . S
Pr777 O804 2.695 . S
Pr777 O805 2.512 . S
Pr777 O807 2.437 . S
C778 Pr776 2.880 . S
C778 C779 1.491 . S
C778 O796 1.254 . S
C778 O797 1.225 . S
C779 C778 1.491 . S
C779 C780 1.392 . S
C779 C784 1.356 . S
C780 C779 1.392 . S
C780 C781 1.368 . S
C780 H808 0.929 . S
C781 C780 1.368 . S
C781 C782 1.386 . S
C781 H809 0.929 . S
C782 C781 1.386 . S
C782 C783 1.373 . S
C783 C782 1.373 . S
C783 C784 1.409 . S
C783 H810 0.931 . S
C784 C779 1.356 . S
C784 C783 1.409 . S
C784 H811 0.930 . S
C785 O798 1.270 . S
C785 O799 1.248 . S
C786 O800 1.267 . S
C786 O801 1.278 . S
C787 Pr777 2.880 . S
C787 C788 1.491 . S
C787 O802 1.254 . S
C787 O803 1.225 . S
C788 C787 1.491 . S
C788 C789 1.392 . S
C788 C793 1.356 . S
C789 C788 1.392 . S
C789 C790 1.368 . S
C789 H812 0.929 . S
C790 C789 1.368 . S
C790 C791 1.386 . S
C790 H813 0.929 . S
C791 C790 1.386 . S
C791 C792 1.373 . S
C792 C791 1.373 . S
C792 C793 1.409 . S
C792 H814 0.931 . S
C793 C788 1.356 . S
C793 C792 1.409 . S
C793 H815 0.930 . S
C794 O804 1.270 . S
C794 O805 1.248 . S
C795 O806 1.267 . S
C795 O807 1.278 . S
O796 Pr776 2.562 . S
O796 C778 1.254 . S
O797 Pr776 2.490 . S
O797 C778 1.225 . S
O798 Pr776 2.695 . S
O798 Pr777 2.436 . S
O798 C785 1.270 . S
O799 Pr776 2.512 . S
O799 C785 1.248 . S
O800 Pr777 2.438 . S
O800 C786 1.267 . S
O801 Pr776 2.437 . S
O801 C786 1.278 . S
O802 Pr777 2.562 . S
O802 C787 1.254 . S
O803 Pr777 2.490 . S
O803 C787 1.225 . S
O804 Pr776 2.436 . S
O804 Pr777 2.695 . S
O804 C794 1.270 . S
O805 Pr777 2.512 . S
O805 C794 1.248 . S
O806 Pr776 2.438 . S
O806 C795 1.267 . S
O807 Pr777 2.437 . S
O807 C795 1.278 . S
H808 C780 0.929 . S
H809 C781 0.929 . S
H810 C783 0.931 . S
H811 C784 0.930 . S
H812 C789 0.929 . S
H813 C790 0.929 . S
H814 C792 0.931 . S
H815 C793 0.930 . S
Pr816 C818 2.880 . S
Pr816 O836 2.562 . S
Pr816 O837 2.490 . S
Pr816 O838 2.695 . S
Pr816 O839 2.512 . S
Pr816 O841 2.437 . S
Pr816 O844 2.436 . S
Pr816 O846 2.438 . S
Pr817 C827 2.880 . S
Pr817 O838 2.436 . S
Pr817 O840 2.438 . S
Pr817 O842 2.562 . S
Pr817 O843 2.490 . S
Pr817 O844 2.695 . S
Pr817 O845 2.512 . S
Pr817 O847 2.437 . S
C818 Pr816 2.880 . S
C818 C819 1.491 . S
C818 O836 1.254 . S
C818 O837 1.225 . S
C819 C818 1.491 . S
C819 C820 1.392 . S
C819 C824 1.356 . S
C820 C819 1.392 . S
C820 C821 1.368 . S
C820 H848 0.929 . S
C821 C820 1.368 . S
C821 C822 1.386 . S
C821 H849 0.929 . S
C822 C821 1.386 . S
C822 C823 1.373 . S
C823 C822 1.373 . S
C823 C824 1.409 . S
C823 H850 0.931 . S
C824 C819 1.356 . S
C824 C823 1.409 . S
C824 H851 0.930 . S
C825 O838 1.270 . S
C825 O839 1.248 . S
C826 O840 1.267 . S
C826 O841 1.278 . S
C827 Pr817 2.880 . S
C827 C828 1.491 . S
C827 O842 1.254 . S
C827 O843 1.225 . S
C828 C827 1.491 . S
C828 C829 1.392 . S
C828 C833 1.356 . S
C829 C828 1.392 . S
C829 C830 1.368 . S
C829 H852 0.929 . S
C830 C829 1.368 . S
C830 C831 1.386 . S
C830 H853 0.929 . S
C831 C830 1.386 . S
C831 C832 1.373 . S
C832 C831 1.373 . S
C832 C833 1.409 . S
C832 H854 0.931 . S
C833 C828 1.356 . S
C833 C832 1.409 . S
C833 H855 0.930 . S
C834 O844 1.270 . S
C834 O845 1.248 . S
C835 O846 1.267 . S
C835 O847 1.278 . S
O836 Pr816 2.562 . S
O836 C818 1.254 . S
O837 Pr816 2.490 . S
O837 C818 1.225 . S
O838 Pr816 2.695 . S
O838 Pr817 2.436 . S
O838 C825 1.270 . S
O839 Pr816 2.512 . S
O839 C825 1.248 . S
O840 Pr817 2.438 . S
O840 C826 1.267 . S
O841 Pr816 2.437 . S
O841 C826 1.278 . S
O842 Pr817 2.562 . S
O842 C827 1.254 . S
O843 Pr817 2.490 . S
O843 C827 1.225 . S
O844 Pr816 2.436 . S
O844 Pr817 2.695 . S
O844 C834 1.270 . S
O845 Pr817 2.512 . S
O845 C834 1.248 . S
O846 Pr816 2.438 . S
O846 C835 1.267 . S
O847 Pr817 2.437 . S
O847 C835 1.278 . S
H848 C820 0.929 . S
H849 C821 0.929 . S
H850 C823 0.931 . S
H851 C824 0.930 . S
H852 C829 0.929 . S
H853 C830 0.929 . S
H854 C832 0.931 . S
H855 C833 0.930 . S
Pr856 C858 2.880 . S
Pr856 O876 2.562 . S
Pr856 O877 2.490 . S
Pr856 O878 2.695 . S
Pr856 O879 2.512 . S
Pr856 O881 2.437 . S
Pr856 O884 2.436 . S
Pr856 O886 2.438 . S
Pr857 C867 2.880 . S
Pr857 O878 2.436 . S
Pr857 O880 2.438 . S
Pr857 O882 2.562 . S
Pr857 O883 2.490 . S
Pr857 O884 2.695 . S
Pr857 O885 2.512 . S
Pr857 O887 2.437 . S
C858 Pr856 2.880 . S
C858 C859 1.491 . S
C858 O876 1.254 . S
C858 O877 1.225 . S
C859 C858 1.491 . S
C859 C860 1.392 . S
C859 C864 1.356 . S
C860 C859 1.392 . S
C860 C861 1.368 . S
C860 H888 0.929 . S
C861 C860 1.368 . S
C861 C862 1.386 . S
C861 H889 0.929 . S
C862 C861 1.386 . S
C862 C863 1.373 . S
C863 C862 1.373 . S
C863 C864 1.409 . S
C863 H890 0.931 . S
C864 C859 1.356 . S
C864 C863 1.409 . S
C864 H891 0.930 . S
C865 O878 1.270 . S
C865 O879 1.248 . S
C866 O880 1.267 . S
C866 O881 1.278 . S
C867 Pr857 2.880 . S
C867 C868 1.491 . S
C867 O882 1.254 . S
C867 O883 1.225 . S
C868 C867 1.491 . S
C868 C869 1.392 . S
C868 C873 1.356 . S
C869 C868 1.392 . S
C869 C870 1.368 . S
C869 H892 0.929 . S
C870 C869 1.368 . S
C870 C871 1.386 . S
C870 H893 0.929 . S
C871 C870 1.386 . S
C871 C872 1.373 . S
C872 C871 1.373 . S
C872 C873 1.409 . S
C872 H894 0.931 . S
C873 C868 1.356 . S
C873 C872 1.409 . S
C873 H895 0.930 . S
C874 O884 1.270 . S
C874 O885 1.248 . S
C875 O886 1.267 . S
C875 O887 1.278 . S
O876 Pr856 2.562 . S
O876 C858 1.254 . S
O877 Pr856 2.490 . S
O877 C858 1.225 . S
O878 Pr856 2.695 . S
O878 Pr857 2.436 . S
O878 C865 1.270 . S
O879 Pr856 2.512 . S
O879 C865 1.248 . S
O880 Pr857 2.438 . S
O880 C866 1.267 . S
O881 Pr856 2.437 . S
O881 C866 1.278 . S
O882 Pr857 2.562 . S
O882 C867 1.254 . S
O883 Pr857 2.490 . S
O883 C867 1.225 . S
O884 Pr856 2.436 . S
O884 Pr857 2.695 . S
O884 C874 1.270 . S
O885 Pr857 2.512 . S
O885 C874 1.248 . S
O886 Pr856 2.438 . S
O886 C875 1.267 . S
O887 Pr857 2.437 . S
O887 C875 1.278 . S
H888 C860 0.929 . S
H889 C861 0.929 . S
H890 C863 0.931 . S
H891 C864 0.930 . S
H892 C869 0.929 . S
H893 C870 0.929 . S
H894 C872 0.931 . S
H895 C873 0.930 . S
Pr896 C898 2.880 . S
Pr896 O916 2.562 . S
Pr896 O917 2.490 . S
Pr896 O918 2.695 . S
Pr896 O919 2.512 . S
Pr896 O921 2.437 . S
Pr896 O924 2.436 . S
Pr896 O926 2.438 . S
Pr897 C907 2.880 . S
Pr897 O918 2.436 . S
Pr897 O920 2.438 . S
Pr897 O922 2.562 . S
Pr897 O923 2.490 . S
Pr897 O924 2.695 . S
Pr897 O925 2.512 . S
Pr897 O927 2.437 . S
C898 Pr896 2.880 . S
C898 C899 1.491 . S
C898 O916 1.254 . S
C898 O917 1.225 . S
C899 C898 1.491 . S
C899 C900 1.392 . S
C899 C904 1.356 . S
C900 C899 1.392 . S
C900 C901 1.368 . S
C900 H928 0.929 . S
C901 C900 1.368 . S
C901 C902 1.386 . S
C901 H929 0.929 . S
C902 C901 1.386 . S
C902 C903 1.373 . S
C903 C902 1.373 . S
C903 C904 1.409 . S
C903 H930 0.931 . S
C904 C899 1.356 . S
C904 C903 1.409 . S
C904 H931 0.930 . S
C905 O918 1.270 . S
C905 O919 1.248 . S
C906 O920 1.267 . S
C906 O921 1.278 . S
C907 Pr897 2.880 . S
C907 C908 1.491 . S
C907 O922 1.254 . S
C907 O923 1.225 . S
C908 C907 1.491 . S
C908 C909 1.392 . S
C908 C913 1.356 . S
C909 C908 1.392 . S
C909 C910 1.368 . S
C909 H932 0.929 . S
C910 C909 1.368 . S
C910 C911 1.386 . S
C910 H933 0.929 . S
C911 C910 1.386 . S
C911 C912 1.373 . S
C912 C911 1.373 . S
C912 C913 1.409 . S
C912 H934 0.931 . S
C913 C908 1.356 . S
C913 C912 1.409 . S
C913 H935 0.930 . S
C914 O924 1.270 . S
C914 O925 1.248 . S
C915 O926 1.267 . S
C915 O927 1.278 . S
O916 Pr896 2.562 . S
O916 C898 1.254 . S
O917 Pr896 2.490 . S
O917 C898 1.225 . S
O918 Pr896 2.695 . S
O918 Pr897 2.436 . S
O918 C905 1.270 . S
O919 Pr896 2.512 . S
O919 C905 1.248 . S
O920 Pr897 2.438 . S
O920 C906 1.267 . S
O921 Pr896 2.437 . S
O921 C906 1.278 . S
O922 Pr897 2.562 . S
O922 C907 1.254 . S
O923 Pr897 2.490 . S
O923 C907 1.225 . S
O924 Pr896 2.436 . S
O924 Pr897 2.695 . S
O924 C914 1.270 . S
O925 Pr897 2.512 . S
O925 C914 1.248 . S
O926 Pr896 2.438 . S
O926 C915 1.267 . S
O927 Pr897 2.437 . S
O927 C915 1.278 . S
H928 C900 0.929 . S
H929 C901 0.929 . S
H930 C903 0.931 . S
H931 C904 0.930 . S
H932 C909 0.929 . S
H933 C910 0.929 . S
H934 C912 0.931 . S
H935 C913 0.930 . S
Pr936 C938 2.880 . S
Pr936 O956 2.562 . S
Pr936 O957 2.490 . S
Pr936 O958 2.695 . S
Pr936 O959 2.512 . S
Pr936 O961 2.437 . S
Pr936 O964 2.436 . S
Pr936 O966 2.438 . S
Pr937 C947 2.880 1_455 S
Pr937 O958 2.436 . S
Pr937 O960 2.438 . S
Pr937 O962 2.562 1_455 S
Pr937 O963 2.490 1_455 S
Pr937 O964 2.695 . S
Pr937 O965 2.512 . S
Pr937 O967 2.437 . S
C938 Pr936 2.880 . S
C938 C939 1.491 . S
C938 O956 1.254 . S
C938 O957 1.225 . S
C939 C938 1.491 . S
C939 C940 1.392 . S
C939 C944 1.356 . S
C940 C939 1.392 . S
C940 C941 1.368 . S
C940 H968 0.929 . S
C941 C940 1.368 . S
C941 C942 1.386 . S
C941 H969 0.899 1_554 S
C942 C941 1.386 . S
C942 C943 1.373 . S
C943 C942 1.373 . S
C943 C944 1.409 . S
C943 H970 0.931 . S
C944 C939 1.356 . S
C944 C943 1.409 . S
C944 H971 0.930 . S
C945 O958 1.270 . S
C945 O959 1.248 . S
C946 O960 1.267 . S
C946 O961 1.278 . S
C947 Pr937 2.880 1_655 S
C947 C948 1.491 . S
C947 O962 1.254 . S
C947 O963 1.225 . S
C948 C947 1.491 . S
C948 C949 1.392 . S
C948 C953 1.356 . S
C949 C948 1.392 . S
C949 C950 1.368 . S
C949 H972 0.929 . S
C950 C949 1.368 . S
C950 C951 1.386 . S
C950 H973 0.929 . S
C951 C950 1.386 . S
C951 C952 1.373 . S
C952 C951 1.373 . S
C952 C953 1.409 . S
C952 H974 0.931 . S
C953 C948 1.356 . S
C953 C952 1.409 . S
C953 H975 0.930 . S
C954 O964 1.270 . S
C954 O965 1.248 . S
C955 O966 1.267 . S
C955 O967 1.278 . S
O956 Pr936 2.562 . S
O956 C938 1.254 . S
O957 Pr936 2.490 . S
O957 C938 1.225 . S
O958 Pr936 2.695 . S
O958 Pr937 2.436 . S
O958 C945 1.270 . S
O959 Pr936 2.512 . S
O959 C945 1.248 . S
O960 Pr937 2.438 . S
O960 C946 1.267 . S
O961 Pr936 2.437 . S
O961 C946 1.278 . S
O962 Pr937 2.562 1_655 S
O962 C947 1.254 . S
O963 Pr937 2.490 1_655 S
O963 C947 1.225 . S
O964 Pr936 2.436 . S
O964 Pr937 2.695 . S
O964 C954 1.270 . S
O965 Pr937 2.512 . S
O965 C954 1.248 . S
O966 Pr936 2.438 . S
O966 C955 1.267 . S
O967 Pr937 2.437 . S
O967 C955 1.278 . S
H968 C940 0.929 . S
H969 C941 0.899 1_556 S
H970 C943 0.931 . S
H971 C944 0.930 . S
H972 C949 0.929 . S
H973 C950 0.929 . S
H974 C952 0.931 . S
H975 C953 0.930 . S
C976 C977 1.391 . S
C976 C978 1.394 . S
C976 H992 0.931 1_455 S
C977 C976 1.391 . S
C977 C981 1.376 . S
C978 C976 1.394 . S
C978 C979 1.369 . S
C978 C982 1.531 1_455 S
C979 C978 1.369 . S
C979 C980 1.410 . S
C979 C987 1.503 . S
C980 C979 1.410 . S
C980 C981 1.392 . S
C980 C983 1.511 . S
C981 C977 1.376 . S
C981 C980 1.392 . S
C981 H993 0.929 . S
C982 C978 1.531 1_655 S
C982 H994 0.960 . S
C982 H995 0.962 . S
C982 H996 0.960 . S
C983 C980 1.511 . S
C983 H997 0.961 . S
C983 H998 0.961 . S
C983 H999 0.961 . S
C984 C985 1.370 . S
C984 C986 1.363 . S
C984 H1000 0.931 . S
C985 C984 1.370 . S
C985 C989 1.408 1_554 S
C986 C984 1.363 . S
C986 C987 1.370 1_554 S
C986 C990 1.524 . S
C987 C979 1.503 . S
C987 C986 1.370 1_556 S
C987 C988 1.403 . S
C988 C987 1.403 . S
C988 C989 1.404 . S
C988 C991 1.539 . S
C989 C985 1.408 1_556 S
C989 C988 1.404 . S
C989 H1001 0.930 . S
C990 C986 1.524 . S
C990 H1002 0.956 . S
C990 H1003 0.961 . S
C990 H1004 0.961 . S
C991 C988 1.539 . S
C991 H1005 0.958 . S
C991 H1006 0.961 . S
C991 H1007 0.960 . S
H992 C976 0.931 1_655 S
H993 C981 0.929 . S
H994 C982 0.960 . S
H995 C982 0.962 . S
H996 C982 0.960 . S
H997 C983 0.961 . S
H998 C983 0.961 . S
H999 C983 0.961 . S
H1000 C984 0.931 . S
H1001 C989 0.930 . S
H1002 C990 0.956 . S
H1003 C990 0.961 . S
H1004 C990 0.961 . S
H1005 C991 0.958 . S
H1006 C991 0.961 . S
H1007 C991 0.960 . S
C1008 C1009 1.391 . S
C1008 C1010 1.394 . S
C1008 H1024 0.931 . S
C1009 C1008 1.391 . S
C1009 C1013 1.376 . S
C1010 C1008 1.394 . S
C1010 C1011 1.369 . S
C1010 C1014 1.531 . S
C1011 C1010 1.369 . S
C1011 C1012 1.410 . S
C1011 C1019 1.503 . S
C1012 C1011 1.410 . S
C1012 C1013 1.392 . S
C1012 C1015 1.511 . S
C1013 C1009 1.376 . S
C1013 C1012 1.392 . S
C1013 H1025 0.929 . S
C1014 C1010 1.531 . S
C1014 H1026 0.960 . S
C1014 H1027 0.962 . S
C1014 H1028 0.960 . S
C1015 C1012 1.511 . S
C1015 H1029 0.961 . S
C1015 H1030 0.961 . S
C1015 H1031 0.961 . S
C1016 C1017 1.370 . S
C1016 C1018 1.363 . S
C1016 H1032 0.931 . S
C1017 C1016 1.370 . S
C1017 C1021 1.408 . S
C1018 C1016 1.363 . S
C1018 C1019 1.370 . S
C1018 C1022 1.524 . S
C1019 C1011 1.503 . S
C1019 C1018 1.370 . S
C1019 C1020 1.403 . S
C1020 C1019 1.403 . S
C1020 C1021 1.404 . S
C1020 C1023 1.539 . S
C1021 C1017 1.408 . S
C1021 C1020 1.404 . S
C1021 H1033 0.930 . S
C1022 C1018 1.524 . S
C1022 H1034 0.956 . S
C1022 H1035 0.961 . S
C1022 H1036 0.961 . S
C1023 C1020 1.539 . S
C1023 H1037 0.958 . S
C1023 H1038 0.961 . S
C1023 H1039 0.960 . S
H1024 C1008 0.931 . S
H1025 C1013 0.929 . S
H1026 C1014 0.960 . S
H1027 C1014 0.962 . S
H1028 C1014 0.960 . S
H1029 C1015 0.961 . S
H1030 C1015 0.961 . S
H1031 C1015 0.961 . S
H1032 C1016 0.931 . S
H1033 C1021 0.930 . S
H1034 C1022 0.956 . S
H1035 C1022 0.961 . S
H1036 C1022 0.961 . S
H1037 C1023 0.958 . S
H1038 C1023 0.961 . S
H1039 C1023 0.960 . S
C1040 C1041 1.391 . S
C1040 C1042 1.394 . S
C1040 H1056 0.931 . S
C1041 C1040 1.391 . S
C1041 C1045 1.376 . S
C1042 C1040 1.394 . S
C1042 C1043 1.369 . S
C1042 C1046 1.531 . S
C1043 C1042 1.369 . S
C1043 C1044 1.410 . S
C1043 C1051 1.503 . S
C1044 C1043 1.410 . S
C1044 C1045 1.392 . S
C1044 C1047 1.511 . S
C1045 C1041 1.376 . S
C1045 C1044 1.392 . S
C1045 H1057 0.929 . S
C1046 C1042 1.531 . S
C1046 H1058 0.960 . S
C1046 H1059 0.962 . S
C1046 H1060 0.960 . S
C1047 C1044 1.511 . S
C1047 H1061 0.961 . S
C1047 H1062 0.961 . S
C1047 H1063 0.961 . S
C1048 C1049 1.370 1_565 S
C1048 C1050 1.363 . S
C1048 H1064 0.931 . S
C1049 C1048 1.370 1_545 S
C1049 C1053 1.408 . S
C1050 C1048 1.363 . S
C1050 C1051 1.370 . S
C1050 C1054 1.524 . S
C1051 C1043 1.503 . S
C1051 C1050 1.370 . S
C1051 C1052 1.403 . S
C1052 C1051 1.403 . S
C1052 C1053 1.404 1_565 S
C1052 C1055 1.539 . S
C1053 C1049 1.408 . S
C1053 C1052 1.404 1_545 S
C1053 H1065 0.930 . S
C1054 C1050 1.524 . S
C1054 H1066 0.956 . S
C1054 H1067 0.961 . S
C1054 H1068 0.961 . S
C1055 C1052 1.539 . S
C1055 H1069 0.958 . S
C1055 H1070 0.961 . S
C1055 H1071 0.960 . S
H1056 C1040 0.931 . S
H1057 C1045 0.929 . S
H1058 C1046 0.960 . S
H1059 C1046 0.962 . S
H1060 C1046 0.960 . S
H1061 C1047 0.961 . S
H1062 C1047 0.961 . S
H1063 C1047 0.961 . S
H1064 C1048 0.931 . S
H1065 C1053 0.930 . S
H1066 C1054 0.956 . S
H1067 C1054 0.961 . S
H1068 C1054 0.961 . S
H1069 C1055 0.958 . S
H1070 C1055 0.961 . S
H1071 C1055 0.960 . S
C1072 C1073 1.391 . S
C1072 C1074 1.394 . S
C1072 H1088 0.931 . S
C1073 C1072 1.391 . S
C1073 C1077 1.376 . S
C1074 C1072 1.394 . S
C1074 C1075 1.369 . S
C1074 C1078 1.531 . S
C1075 C1074 1.369 . S
C1075 C1076 1.410 . S
C1075 C1083 1.503 . S
C1076 C1075 1.410 . S
C1076 C1077 1.392 . S
C1076 C1079 1.511 . S
C1077 C1073 1.376 . S
C1077 C1076 1.392 . S
C1077 H1089 0.929 . S
C1078 C1074 1.531 . S
C1078 H1090 0.960 . S
C1078 H1091 0.962 . S
C1078 H1092 0.960 . S
C1079 C1076 1.511 . S
C1079 H1093 0.961 . S
C1079 H1094 0.961 . S
C1079 H1095 0.961 . S
C1080 C1081 1.370 . S
C1080 C1082 1.363 . S
C1080 H1096 0.931 . S
C1081 C1080 1.370 . S
C1081 C1085 1.408 . S
C1082 C1080 1.363 . S
C1082 C1083 1.370 . S
C1082 C1086 1.524 . S
C1083 C1075 1.503 . S
C1083 C1082 1.370 . S
C1083 C1084 1.403 . S
C1084 C1083 1.403 . S
C1084 C1085 1.404 . S
C1084 C1087 1.539 . S
C1085 C1081 1.408 . S
C1085 C1084 1.404 . S
C1085 H1097 0.930 . S
C1086 C1082 1.524 . S
C1086 H1098 0.956 . S
C1086 H1099 0.961 . S
C1086 H1100 0.961 . S
C1087 C1084 1.539 . S
C1087 H1101 0.958 . S
C1087 H1102 0.961 . S
C1087 H1103 0.960 . S
H1088 C1072 0.931 . S
H1089 C1077 0.929 . S
H1090 C1078 0.960 . S
H1091 C1078 0.962 . S
H1092 C1078 0.960 . S
H1093 C1079 0.961 . S
H1094 C1079 0.961 . S
H1095 C1079 0.961 . S
H1096 C1080 0.931 . S
H1097 C1085 0.930 . S
H1098 C1086 0.956 . S
H1099 C1086 0.961 . S
H1100 C1086 0.961 . S
H1101 C1087 0.958 . S
H1102 C1087 0.961 . S
H1103 C1087 0.960 . S
C1104 C1105 1.391 . S
C1104 C1106 1.394 . S
C1104 H1120 0.931 . S
C1105 C1104 1.391 . S
C1105 C1109 1.376 . S
C1106 C1104 1.394 . S
C1106 C1107 1.369 . S
C1106 C1110 1.531 . S
C1107 C1106 1.369 . S
C1107 C1108 1.410 . S
C1107 C1115 1.503 . S
C1108 C1107 1.410 . S
C1108 C1109 1.392 . S
C1108 C1111 1.511 . S
C1109 C1105 1.376 . S
C1109 C1108 1.392 . S
C1109 H1121 0.929 . S
C1110 C1106 1.531 . S
C1110 H1122 0.960 . S
C1110 H1123 0.962 . S
C1110 H1124 0.960 . S
C1111 C1108 1.511 . S
C1111 H1125 0.961 . S
C1111 H1126 0.961 . S
C1111 H1127 0.961 . S
C1112 C1113 1.370 . S
C1112 C1114 1.363 1_545 S
C1112 H1128 0.931 . S
C1113 C1112 1.370 . S
C1113 C1117 1.408 1_545 S
C1114 C1112 1.363 1_565 S
C1114 C1115 1.370 . S
C1114 C1118 1.524 . S
C1115 C1107 1.503 . S
C1115 C1114 1.370 . S
C1115 C1116 1.403 . S
C1116 C1115 1.403 . S
C1116 C1117 1.404 . S
C1116 C1119 1.539 . S
C1117 C1113 1.408 1_565 S
C1117 C1116 1.404 . S
C1117 H1129 0.930 . S
C1118 C1114 1.524 . S
C1118 H1130 0.956 . S
C1118 H1131 0.961 . S
C1118 H1132 0.961 1_565 S
C1119 C1116 1.539 . S
C1119 H1133 0.958 . S
C1119 H1134 0.961 . S
C1119 H1135 0.960 . S
H1120 C1104 0.931 . S
H1121 C1109 0.929 . S
H1122 C1110 0.960 . S
H1123 C1110 0.962 . S
H1124 C1110 0.960 . S
H1125 C1111 0.961 . S
H1126 C1111 0.961 . S
H1127 C1111 0.961 . S
H1128 C1112 0.931 . S
H1129 C1117 0.930 . S
H1130 C1118 0.956 . S
H1131 C1118 0.961 . S
H1132 C1118 0.961 1_545 S
H1133 C1119 0.958 . S
H1134 C1119 0.961 . S
H1135 C1119 0.960 . S
C1136 C1137 1.391 . S
C1136 C1138 1.394 . S
C1136 H1152 0.931 . S
C1137 C1136 1.391 . S
C1137 C1141 1.376 . S
C1138 C1136 1.394 . S
C1138 C1139 1.369 . S
C1138 C1142 1.531 . S
C1139 C1138 1.369 . S
C1139 C1140 1.410 . S
C1139 C1147 1.503 . S
C1140 C1139 1.410 . S
C1140 C1141 1.392 . S
C1140 C1143 1.511 . S
C1141 C1137 1.376 . S
C1141 C1140 1.392 . S
C1141 H1153 0.929 . S
C1142 C1138 1.531 . S
C1142 H1154 0.960 . S
C1142 H1155 0.962 . S
C1142 H1156 0.960 . S
C1143 C1140 1.511 . S
C1143 H1157 0.961 . S
C1143 H1158 0.961 . S
C1143 H1159 0.961 . S
C1144 C1145 1.370 . S
C1144 C1146 1.363 . S
C1144 H1160 0.931 . S
C1145 C1144 1.370 . S
C1145 C1149 1.408 . S
C1146 C1144 1.363 . S
C1146 C1147 1.370 . S
C1146 C1150 1.524 . S
C1147 C1139 1.503 . S
C1147 C1146 1.370 . S
C1147 C1148 1.403 . S
C1148 C1147 1.403 . S
C1148 C1149 1.404 . S
C1148 C1151 1.539 . S
C1149 C1145 1.408 . S
C1149 C1148 1.404 . S
C1149 H1161 0.930 . S
C1150 C1146 1.524 . S
C1150 H1162 0.956 . S
C1150 H1163 0.961 . S
C1150 H1164 0.961 . S
C1151 C1148 1.539 . S
C1151 H1165 0.958 . S
C1151 H1166 0.961 . S
C1151 H1167 0.960 . S
H1152 C1136 0.931 . S
H1153 C1141 0.929 . S
H1154 C1142 0.960 . S
H1155 C1142 0.962 . S
H1156 C1142 0.960 . S
H1157 C1143 0.961 . S
H1158 C1143 0.961 . S
H1159 C1143 0.961 . S
H1160 C1144 0.931 . S
H1161 C1149 0.930 . S
H1162 C1150 0.956 . S
H1163 C1150 0.961 . S
H1164 C1150 0.961 . S
H1165 C1151 0.958 . S
H1166 C1151 0.961 . S
H1167 C1151 0.960 . S
C1168 C1169 1.391 . S
C1168 C1170 1.394 . S
C1168 H1184 0.931 . S
C1169 C1168 1.391 . S
C1169 C1173 1.376 . S
C1170 C1168 1.394 . S
C1170 C1171 1.369 . S
C1170 C1174 1.531 . S
C1171 C1170 1.369 . S
C1171 C1172 1.410 . S
C1171 C1179 1.503 . S
C1172 C1171 1.410 . S
C1172 C1173 1.392 . S
C1172 C1175 1.511 . S
C1173 C1169 1.376 . S
C1173 C1172 1.392 . S
C1173 H1185 0.929 . S
C1174 C1170 1.531 . S
C1174 H1186 0.960 . S
C1174 H1187 0.962 . S
C1174 H1188 0.960 . S
C1175 C1172 1.511 . S
C1175 H1189 0.961 . S
C1175 H1190 0.961 . S
C1175 H1191 0.961 . S
C1176 C1177 1.370 . S
C1176 C1178 1.363 . S
C1176 H1192 0.931 . S
C1177 C1176 1.370 . S
C1177 C1181 1.408 . S
C1178 C1176 1.363 . S
C1178 C1179 1.370 . S
C1178 C1182 1.524 . S
C1179 C1171 1.503 . S
C1179 C1178 1.370 . S
C1179 C1180 1.403 . S
C1180 C1179 1.403 . S
C1180 C1181 1.404 . S
C1180 C1183 1.539 . S
C1181 C1177 1.408 . S
C1181 C1180 1.404 . S
C1181 H1193 0.930 . S
C1182 C1178 1.524 . S
C1182 H1194 0.956 . S
C1182 H1195 0.961 . S
C1182 H1196 0.961 . S
C1183 C1180 1.539 . S
C1183 H1197 0.958 . S
C1183 H1198 0.961 . S
C1183 H1199 0.960 . S
H1184 C1168 0.931 . S
H1185 C1173 0.929 . S
H1186 C1174 0.960 . S
H1187 C1174 0.962 . S
H1188 C1174 0.960 . S
H1189 C1175 0.961 . S
H1190 C1175 0.961 . S
H1191 C1175 0.961 . S
H1192 C1176 0.931 . S
H1193 C1181 0.930 . S
H1194 C1182 0.956 . S
H1195 C1182 0.961 . S
H1196 C1182 0.961 . S
H1197 C1183 0.958 . S
H1198 C1183 0.961 . S
H1199 C1183 0.960 . S
C1200 C1201 1.391 . S
C1200 C1202 1.394 . S
C1200 H1216 0.931 . S
C1201 C1200 1.391 . S
C1201 C1205 1.376 . S
C1202 C1200 1.394 . S
C1202 C1203 1.369 . S
C1202 C1206 1.531 . S
C1203 C1202 1.369 . S
C1203 C1204 1.410 . S
C1203 C1211 1.503 . S
C1204 C1203 1.410 . S
C1204 C1205 1.392 . S
C1204 C1207 1.511 . S
C1205 C1201 1.376 . S
C1205 C1204 1.392 . S
C1205 H1217 0.929 . S
C1206 C1202 1.531 . S
C1206 H1218 0.960 . S
C1206 H1219 0.962 . S
C1206 H1220 0.960 . S
C1207 C1204 1.511 . S
C1207 H1221 0.961 . S
C1207 H1222 0.961 . S
C1207 H1223 0.961 . S
C1208 C1209 1.370 . S
C1208 C1210 1.363 . S
C1208 H1224 0.931 . S
C1209 C1208 1.370 . S
C1209 C1213 1.408 . S
C1210 C1208 1.363 . S
C1210 C1211 1.370 . S
C1210 C1214 1.524 . S
C1211 C1203 1.503 . S
C1211 C1210 1.370 . S
C1211 C1212 1.403 . S
C1212 C1211 1.403 . S
C1212 C1213 1.404 . S
C1212 C1215 1.539 . S
C1213 C1209 1.408 . S
C1213 C1212 1.404 . S
C1213 H1225 0.930 . S
C1214 C1210 1.524 . S
C1214 H1226 0.956 . S
C1214 H1227 0.961 . S
C1214 H1228 0.961 . S
C1215 C1212 1.539 . S
C1215 H1229 0.958 . S
C1215 H1230 0.961 . S
C1215 H1231 0.960 . S
H1216 C1200 0.931 . S
H1217 C1205 0.929 . S
H1218 C1206 0.960 . S
H1219 C1206 0.962 . S
H1220 C1206 0.960 . S
H1221 C1207 0.961 . S
H1222 C1207 0.961 . S
H1223 C1207 0.961 . S
H1224 C1208 0.931 . S
H1225 C1213 0.930 . S
H1226 C1214 0.956 . S
H1227 C1214 0.961 . S
H1228 C1214 0.961 . S
H1229 C1215 0.958 . S
H1230 C1215 0.961 . S
H1231 C1215 0.960 . S
C1232 C1233 1.391 . S
C1232 C1234 1.394 . S
C1232 H1248 0.931 . S
C1233 C1232 1.391 . S
C1233 C1237 1.376 . S
C1234 C1232 1.394 . S
C1234 C1235 1.369 . S
C1234 C1238 1.531 . S
C1235 C1234 1.369 . S
C1235 C1236 1.410 . S
C1235 C1243 1.503 . S
C1236 C1235 1.410 . S
C1236 C1237 1.392 . S
C1236 C1239 1.511 . S
C1237 C1233 1.376 . S
C1237 C1236 1.392 . S
C1237 H1249 0.929 . S
C1238 C1234 1.531 . S
C1238 H1250 0.960 . S
C1238 H1251 0.962 . S
C1238 H1252 0.960 . S
C1239 C1236 1.511 . S
C1239 H1253 0.961 . S
C1239 H1254 0.961 . S
C1239 H1255 0.961 . S
C1240 C1241 1.370 . S
C1240 C1242 1.363 . S
C1240 H1256 0.931 . S
C1241 C1240 1.370 . S
C1241 C1245 1.385 1_455 S
C1242 C1240 1.363 . S
C1242 C1243 1.370 1_455 S
C1242 C1246 1.524 . S
C1243 C1235 1.503 . S
C1243 C1242 1.370 1_655 S
C1243 C1244 1.403 . S
C1244 C1243 1.403 . S
C1244 C1245 1.425 . S
C1244 C1247 1.539 . S
C1245 C1241 1.385 1_655 S
C1245 C1244 1.425 . S
C1245 H1257 0.932 . S
C1246 C1242 1.524 . S
C1246 H1258 0.956 . S
C1246 H1259 0.961 . S
C1246 H1260 0.961 . S
C1247 C1244 1.539 . S
C1247 H1261 0.958 . S
C1247 H1262 0.961 . S
C1247 H1263 0.960 . S
H1248 C1232 0.931 . S
H1249 C1237 0.929 . S
H1250 C1238 0.960 . S
H1251 C1238 0.962 . S
H1252 C1238 0.960 . S
H1253 C1239 0.961 . S
H1254 C1239 0.961 . S
H1255 C1239 0.961 . S
H1256 C1240 0.931 . S
H1257 C1245 0.932 . S
H1258 C1246 0.956 . S
H1259 C1246 0.961 . S
H1260 C1246 0.961 . S
H1261 C1247 0.958 . S
H1262 C1247 0.961 . S
H1263 C1247 0.960 . S
C1264 C1265 1.391 . S
C1264 C1266 1.394 . S
C1264 H1280 0.931 . S
C1265 C1264 1.391 . S
C1265 C1269 1.376 . S
C1266 C1264 1.394 . S
C1266 C1267 1.369 . S
C1266 C1270 1.531 . S
C1267 C1266 1.369 . S
C1267 C1268 1.410 . S
C1267 C1275 1.503 . S
C1268 C1267 1.410 . S
C1268 C1269 1.392 . S
C1268 C1271 1.511 . S
C1269 C1265 1.376 . S
C1269 C1268 1.392 . S
C1269 H1281 0.929 . S
C1270 C1266 1.531 . S
C1270 H1282 0.960 . S
C1270 H1283 0.962 . S
C1270 H1284 0.960 . S
C1271 C1268 1.511 . S
C1271 H1285 0.961 . S
C1271 H1286 0.961 . S
C1271 H1287 0.961 . S
C1272 C1273 1.370 . S
C1272 C1274 1.363 . S
C1272 H1288 0.931 . S
C1273 C1272 1.370 . S
C1273 C1277 1.408 . S
C1274 C1272 1.363 . S
C1274 C1275 1.370 . S
C1274 C1278 1.524 . S
C1275 C1267 1.503 . S
C1275 C1274 1.370 . S
C1275 C1276 1.403 . S
C1276 C1275 1.403 . S
C1276 C1277 1.404 . S
C1276 C1279 1.539 . S
C1277 C1273 1.408 . S
C1277 C1276 1.404 . S
C1277 H1289 0.930 . S
C1278 C1274 1.524 . S
C1278 H1290 0.956 . S
C1278 H1291 0.961 . S
C1278 H1292 0.961 . S
C1279 C1276 1.539 . S
C1279 H1293 0.958 . S
C1279 H1294 0.961 . S
C1279 H1295 0.960 . S
H1280 C1264 0.931 . S
H1281 C1269 0.929 . S
H1282 C1270 0.960 . S
H1283 C1270 0.962 . S
H1284 C1270 0.960 . S
H1285 C1271 0.961 . S
H1286 C1271 0.961 . S
H1287 C1271 0.961 . S
H1288 C1272 0.931 . S
H1289 C1277 0.930 . S
H1290 C1278 0.956 . S
H1291 C1278 0.961 . S
H1292 C1278 0.961 . S
H1293 C1279 0.958 . S
H1294 C1279 0.961 . S
H1295 C1279 0.960 . S
C1296 C1297 1.391 . S
C1296 C1298 1.394 . S
C1296 H1312 0.931 1_545 S
C1297 C1296 1.391 . S
C1297 C1301 1.376 . S
C1298 C1296 1.394 . S
C1298 C1299 1.369 . S
C1298 C1302 1.531 . S
C1299 C1298 1.369 . S
C1299 C1300 1.410 . S
C1299 C1307 1.503 . S
C1300 C1299 1.410 . S
C1300 C1301 1.392 . S
C1300 C1303 1.511 . S
C1301 C1297 1.376 . S
C1301 C1300 1.392 . S
C1301 H1313 0.929 . S
C1302 C1298 1.531 . S
C1302 H1314 0.960 . S
C1302 H1315 0.962 . S
C1302 H1316 0.957 . S
C1303 C1300 1.511 . S
C1303 H1317 0.961 . S
C1303 H1318 0.961 . S
C1303 H1319 0.961 . S
C1304 C1305 1.370 . S
C1304 C1306 1.363 . S
C1304 H1320 0.931 . S
C1305 C1304 1.370 . S
C1305 C1309 1.408 . S
C1306 C1304 1.363 . S
C1306 C1307 1.370 . S
C1306 C1310 1.524 . S
C1307 C1299 1.503 . S
C1307 C1306 1.370 . S
C1307 C1308 1.403 . S
C1308 C1307 1.403 . S
C1308 C1309 1.404 . S
C1308 C1311 1.539 1_545 S
C1309 C1305 1.408 . S
C1309 C1308 1.404 . S
C1309 H1321 0.930 . S
C1310 C1306 1.524 . S
C1310 H1322 0.956 . S
C1310 H1323 0.961 . S
C1310 H1324 0.961 . S
C1311 C1308 1.539 1_565 S
C1311 H1325 0.958 . S
C1311 H1326 0.961 . S
C1311 H1327 0.960 . S
H1312 C1296 0.931 1_565 S
H1313 C1301 0.929 . S
H1314 C1302 0.960 . S
H1315 C1302 0.962 . S
H1316 C1302 0.957 . S
H1317 C1303 0.961 . S
H1318 C1303 0.961 . S
H1319 C1303 0.961 . S
H1320 C1304 0.931 . S
H1321 C1309 0.930 . S
H1322 C1310 0.956 . S
H1323 C1310 0.961 . S
H1324 C1310 0.961 . S
H1325 C1311 0.958 . S
H1326 C1311 0.961 . S
H1327 C1311 0.960 . S
C1328 C1329 1.391 . S
C1328 C1330 1.394 . S
C1328 H1344 0.931 . S
C1329 C1328 1.391 . S
C1329 C1333 1.376 . S
C1330 C1328 1.394 . S
C1330 C1331 1.369 . S
C1330 C1334 1.531 . S
C1331 C1330 1.369 . S
C1331 C1332 1.410 . S
C1331 C1339 1.503 . S
C1332 C1331 1.410 . S
C1332 C1333 1.392 . S
C1332 C1335 1.511 . S
C1333 C1329 1.376 . S
C1333 C1332 1.392 . S
C1333 H1345 0.929 . S
C1334 C1330 1.531 . S
C1334 H1346 0.960 . S
C1334 H1347 0.962 . S
C1334 H1348 0.960 . S
C1335 C1332 1.511 . S
C1335 H1349 0.961 . S
C1335 H1350 0.961 . S
C1335 H1351 0.961 . S
C1336 C1337 1.370 . S
C1336 C1338 1.363 . S
C1336 H1352 0.931 . S
C1337 C1336 1.370 . S
C1337 C1341 1.408 . S
C1338 C1336 1.363 . S
C1338 C1339 1.370 . S
C1338 C1342 1.524 . S
C1339 C1331 1.503 . S
C1339 C1338 1.370 . S
C1339 C1340 1.403 . S
C1340 C1339 1.403 . S
C1340 C1341 1.404 . S
C1340 C1343 1.539 . S
C1341 C1337 1.408 . S
C1341 C1340 1.404 . S
C1341 H1353 0.930 . S
C1342 C1338 1.524 . S
C1342 H1354 0.956 . S
C1342 H1355 0.961 . S
C1342 H1356 0.961 . S
C1343 C1340 1.539 . S
C1343 H1357 0.958 . S
C1343 H1358 0.961 . S
C1343 H1359 0.960 . S
H1344 C1328 0.931 . S
H1345 C1333 0.929 . S
H1346 C1334 0.960 . S
H1347 C1334 0.962 . S
H1348 C1334 0.960 . S
H1349 C1335 0.961 . S
H1350 C1335 0.961 . S
H1351 C1335 0.961 . S
H1352 C1336 0.931 . S
H1353 C1341 0.930 . S
H1354 C1342 0.956 . S
H1355 C1342 0.961 . S
H1356 C1342 0.961 . S
H1357 C1343 0.958 . S
H1358 C1343 0.961 . S
H1359 C1343 0.960 . S
C1360 C1361 1.391 . S
C1360 C1362 1.394 . S
C1360 H1376 0.931 . S
C1361 C1360 1.391 . S
C1361 C1365 1.376 . S
C1362 C1360 1.394 . S
C1362 C1363 1.369 . S
C1362 C1366 1.531 . S
C1363 C1362 1.369 . S
C1363 C1364 1.410 . S
C1363 C1371 1.503 . S
C1364 C1363 1.410 . S
C1364 C1365 1.392 . S
C1364 C1367 1.511 . S
C1365 C1361 1.376 . S
C1365 C1364 1.392 . S
C1365 H1377 0.929 . S
C1366 C1362 1.531 . S
C1366 H1378 0.960 1_655 S
C1366 H1379 0.993 . S
C1366 H1380 0.960 . S
C1367 C1364 1.511 . S
C1367 H1381 0.961 . S
C1367 H1382 0.961 . S
C1367 H1383 0.961 . S
C1368 C1369 1.370 1_655 S
C1368 C1370 1.363 . S
C1368 H1384 0.931 1_655 S
C1369 C1368 1.370 1_455 S
C1369 C1373 1.408 . S
C1370 C1368 1.363 . S
C1370 C1371 1.370 . S
C1370 C1374 1.524 . S
C1371 C1363 1.503 . S
C1371 C1370 1.370 . S
C1371 C1372 1.403 . S
C1372 C1371 1.403 . S
C1372 C1373 1.404 1_655 S
C1372 C1375 1.539 . S
C1373 C1369 1.408 . S
C1373 C1372 1.404 1_455 S
C1373 H1385 0.930 . S
C1374 C1370 1.524 . S
C1374 H1386 0.956 . S
C1374 H1387 0.961 . S
C1374 H1388 0.961 . S
C1375 C1372 1.539 . S
C1375 H1389 0.958 . S
C1375 H1390 0.961 . S
C1375 H1391 0.960 . S
H1376 C1360 0.931 . S
H1377 C1365 0.929 . S
H1378 C1366 0.960 1_455 S
H1379 C1366 0.993 . S
H1380 C1366 0.960 . S
H1381 C1367 0.961 . S
H1382 C1367 0.961 . S
H1383 C1367 0.961 . S
H1384 C1368 0.931 1_455 S
H1385 C1373 0.930 . S
H1386 C1374 0.956 . S
H1387 C1374 0.961 . S
H1388 C1374 0.961 . S
H1389 C1375 0.958 . S
H1390 C1375 0.961 . S
H1391 C1375 0.960 . S
C1392 C1393 1.391 . S
C1392 C1394 1.394 . S
C1392 H1408 0.931 . S
C1393 C1392 1.391 . S
C1393 C1397 1.376 . S
C1394 C1392 1.394 . S
C1394 C1395 1.369 . S
C1394 C1398 1.531 . S
C1395 C1394 1.369 . S
C1395 C1396 1.410 . S
C1395 C1403 1.503 . S
C1396 C1395 1.410 . S
C1396 C1397 1.392 . S
C1396 C1399 1.511 . S
C1397 C1393 1.376 . S
C1397 C1396 1.392 . S
C1397 H1409 0.929 . S
C1398 C1394 1.531 . S
C1398 H1410 0.960 . S
C1398 H1411 0.962 . S
C1398 H1412 0.960 . S
C1399 C1396 1.511 . S
C1399 H1413 0.961 . S
C1399 H1414 0.961 . S
C1399 H1415 0.961 . S
C1400 C1401 1.370 . S
C1400 C1402 1.363 . S
C1400 H1416 0.931 . S
C1401 C1400 1.370 . S
C1401 C1405 1.408 . S
C1402 C1400 1.363 . S
C1402 C1403 1.370 . S
C1402 C1406 1.524 . S
C1403 C1395 1.503 . S
C1403 C1402 1.370 . S
C1403 C1404 1.403 . S
C1404 C1403 1.403 . S
C1404 C1405 1.404 . S
C1404 C1407 1.539 . S
C1405 C1401 1.408 . S
C1405 C1404 1.404 . S
C1405 H1417 0.930 . S
C1406 C1402 1.524 . S
C1406 H1418 0.956 . S
C1406 H1419 0.961 . S
C1406 H1420 0.961 . S
C1407 C1404 1.539 . S
C1407 H1421 0.958 . S
C1407 H1422 0.961 . S
C1407 H1423 0.960 . S
H1408 C1392 0.931 . S
H1409 C1397 0.929 . S
H1410 C1398 0.960 . S
H1411 C1398 0.962 . S
H1412 C1398 0.960 . S
H1413 C1399 0.961 . S
H1414 C1399 0.961 . S
H1415 C1399 0.961 . S
H1416 C1400 0.931 . S
H1417 C1405 0.930 . S
H1418 C1406 0.956 . S
H1419 C1406 0.961 . S
H1420 C1406 0.961 . S
H1421 C1407 0.958 . S
H1422 C1407 0.961 . S
H1423 C1407 0.960 . S
C1424 C1425 1.391 . S
C1424 C1426 1.394 . S
C1424 H1440 0.931 . S
C1425 C1424 1.391 . S
C1425 C1429 1.376 . S
C1426 C1424 1.394 . S
C1426 C1427 1.369 . S
C1426 C1430 1.531 . S
C1427 C1426 1.369 . S
C1427 C1428 1.410 . S
C1427 C1435 1.503 . S
C1428 C1427 1.410 . S
C1428 C1429 1.392 . S
C1428 C1431 1.511 . S
C1429 C1425 1.376 . S
C1429 C1428 1.392 . S
C1429 H1441 0.929 . S
C1430 C1426 1.531 . S
C1430 H1442 0.960 . S
C1430 H1443 0.962 . S
C1430 H1444 0.960 . S
C1431 C1428 1.511 . S
C1431 H1445 0.961 . S
C1431 H1446 0.961 . S
C1431 H1447 0.961 . S
C1432 C1433 1.370 . S
C1432 C1434 1.363 . S
C1432 H1448 0.931 . S
C1433 C1432 1.370 . S
C1433 C1437 1.408 . S
C1434 C1432 1.363 . S
C1434 C1435 1.370 . S
C1434 C1438 1.524 . S
C1435 C1427 1.503 . S
C1435 C1434 1.370 . S
C1435 C1436 1.403 . S
C1436 C1435 1.403 . S
C1436 C1437 1.404 . S
C1436 C1439 1.539 . S
C1437 C1433 1.408 . S
C1437 C1436 1.404 . S
C1437 H1449 0.930 . S
C1438 C1434 1.524 . S
C1438 H1450 0.956 . S
C1438 H1451 0.961 . S
C1438 H1452 0.961 . S
C1439 C1436 1.539 . S
C1439 H1453 0.958 . S
C1439 H1454 0.961 . S
C1439 H1455 0.960 . S
H1440 C1424 0.931 . S
H1441 C1429 0.929 . S
H1442 C1430 0.960 . S
H1443 C1430 0.962 . S
H1444 C1430 0.960 . S
H1445 C1431 0.961 . S
H1446 C1431 0.961 . S
H1447 C1431 0.961 . S
H1448 C1432 0.931 . S
H1449 C1437 0.930 . S
H1450 C1438 0.956 . S
H1451 C1438 0.961 . S
H1452 C1438 0.961 . S
H1453 C1439 0.958 . S
H1454 C1439 0.961 . S
H1455 C1439 0.960 . S
C1456 C1457 1.391 . S
C1456 C1458 1.394 . S
C1456 H1472 0.931 . S
C1457 C1456 1.391 . S
C1457 C1461 1.376 . S
C1458 C1456 1.394 . S
C1458 C1459 1.369 . S
C1458 C1462 1.531 . S
C1459 C1458 1.369 . S
C1459 C1460 1.410 . S
C1459 C1467 1.503 . S
C1460 C1459 1.410 . S
C1460 C1461 1.392 . S
C1460 C1463 1.511 . S
C1461 C1457 1.376 . S
C1461 C1460 1.392 . S
C1461 H1473 0.929 . S
C1462 C1458 1.531 . S
C1462 H1474 0.960 . S
C1462 H1475 0.962 . S
C1462 H1476 0.960 . S
C1463 C1460 1.511 . S
C1463 H1477 0.961 . S
C1463 H1478 0.961 . S
C1463 H1479 0.961 . S
C1464 C1465 1.370 . S
C1464 C1466 1.363 . S
C1464 H1480 0.931 . S
C1465 C1464 1.370 . S
C1465 C1469 1.408 . S
C1466 C1464 1.363 . S
C1466 C1467 1.370 . S
C1466 C1470 1.524 . S
C1467 C1459 1.503 . S
C1467 C1466 1.370 . S
C1467 C1468 1.403 . S
C1468 C1467 1.403 . S
C1468 C1469 1.404 . S
C1468 C1471 1.539 . S
C1469 C1465 1.408 . S
C1469 C1468 1.404 . S
C1469 H1481 0.930 . S
C1470 C1466 1.524 . S
C1470 H1482 0.956 . S
C1470 H1483 0.961 . S
C1470 H1484 0.961 . S
C1471 C1468 1.539 . S
C1471 H1485 0.958 . S
C1471 H1486 0.961 . S
C1471 H1487 0.960 . S
H1472 C1456 0.931 . S
H1473 C1461 0.929 . S
H1474 C1462 0.960 . S
H1475 C1462 0.962 . S
H1476 C1462 0.960 . S
H1477 C1463 0.961 . S
H1478 C1463 0.961 . S
H1479 C1463 0.961 . S
H1480 C1464 0.931 . S
H1481 C1469 0.930 . S
H1482 C1470 0.956 . S
H1483 C1470 0.961 . S
H1484 C1470 0.961 . S
H1485 C1471 0.958 . S
H1486 C1471 0.961 . S
H1487 C1471 0.960 . S
C1488 C1489 1.391 . S
C1488 C1490 1.394 . S
C1488 H1504 0.931 . S
C1489 C1488 1.391 . S
C1489 C1493 1.376 . S
C1490 C1488 1.394 . S
C1490 C1491 1.369 . S
C1490 C1494 1.531 . S
C1491 C1490 1.369 . S
C1491 C1492 1.408 . S
C1491 C1499 1.503 1_565 S
C1492 C1491 1.408 . S
C1492 C1493 1.401 . S
C1492 C1495 1.505 1_565 S
C1493 C1489 1.376 . S
C1493 C1492 1.401 . S
C1493 H1505 0.929 . S
C1494 C1490 1.531 . S
C1494 H1506 0.960 . S
C1494 H1507 0.962 . S
C1494 H1508 0.960 . S
C1495 C1492 1.505 1_545 S
C1495 H1509 0.961 . S
C1495 H1510 0.961 . S
C1495 H1511 0.961 . S
C1496 C1497 1.370 . S
C1496 C1498 1.363 . S
C1496 H1512 0.931 . S
C1497 C1496 1.370 . S
C1497 C1501 1.408 . S
C1498 C1496 1.363 . S
C1498 C1499 1.370 . S
C1498 C1502 1.524 . S
C1499 C1491 1.503 1_545 S
C1499 C1498 1.370 . S
C1499 C1500 1.403 . S
C1500 C1499 1.403 . S
C1500 C1501 1.404 . S
C1500 C1503 1.539 1_545 S
C1501 C1497 1.408 . S
C1501 C1500 1.404 . S
C1501 H1513 0.930 . S
C1502 C1498 1.524 . S
C1502 H1514 0.956 . S
C1502 H1515 0.961 . S
C1502 H1516 0.961 . S
C1503 C1500 1.539 1_565 S
C1503 H1517 0.958 . S
C1503 H1518 0.961 . S
C1503 H1519 0.960 . S
H1504 C1488 0.931 . S
H1505 C1493 0.929 . S
H1506 C1494 0.960 . S
H1507 C1494 0.962 . S
H1508 C1494 0.960 . S
H1509 C1495 0.961 . S
H1510 C1495 0.961 . S
H1511 C1495 0.961 . S
H1512 C1496 0.931 . S
H1513 C1501 0.930 . S
H1514 C1502 0.956 . S
H1515 C1502 0.961 . S
H1516 C1502 0.961 . S
H1517 C1503 0.958 . S
H1518 C1503 0.961 . S
H1519 C1503 0.960 . S
C1520 C1521 1.391 . S
C1520 C1522 1.394 . S
C1520 H1536 0.920 1_554 S
C1521 C1520 1.391 . S
C1521 C1525 1.376 . S
C1522 C1520 1.394 . S
C1522 C1523 1.369 . S
C1522 C1526 1.531 1_554 S
C1523 C1522 1.369 . S
C1523 C1524 1.410 . S
C1523 C1531 1.503 . S
C1524 C1523 1.410 . S
C1524 C1525 1.392 . S
C1524 C1527 1.511 . S
C1525 C1521 1.376 . S
C1525 C1524 1.392 . S
C1525 H1537 0.929 . S
C1526 C1522 1.531 1_556 S
C1526 H1538 0.960 . S
C1526 H1539 0.983 . S
C1526 H1540 0.960 . S
C1527 C1524 1.511 . S
C1527 H1541 0.961 . S
C1527 H1542 0.961 . S
C1527 H1543 0.961 . S
C1528 C1529 1.370 . S
C1528 C1530 1.363 . S
C1528 H1544 0.931 . S
C1529 C1528 1.370 . S
C1529 C1533 1.408 . S
C1530 C1528 1.363 . S
C1530 C1531 1.370 . S
C1530 C1534 1.524 . S
C1531 C1523 1.503 . S
C1531 C1530 1.370 . S
C1531 C1532 1.403 . S
C1532 C1531 1.403 . S
C1532 C1533 1.404 . S
C1532 C1535 1.539 1_554 S
C1533 C1529 1.408 . S
C1533 C1532 1.404 . S
C1533 H1545 0.930 . S
C1534 C1530 1.524 . S
C1534 H1546 0.956 . S
C1534 H1547 0.961 . S
C1534 H1548 0.961 . S
C1535 C1532 1.539 1_556 S
C1535 H1549 0.958 . S
C1535 H1550 0.961 . S
C1535 H1551 0.960 1_556 S
H1536 C1520 0.920 1_556 S
H1537 C1525 0.929 . S
H1538 C1526 0.960 . S
H1539 C1526 0.983 . S
H1540 C1526 0.960 . S
H1541 C1527 0.961 . S
H1542 C1527 0.961 . S
H1543 C1527 0.961 . S
H1544 C1528 0.931 . S
H1545 C1533 0.930 . S
H1546 C1534 0.956 . S
H1547 C1534 0.961 . S
H1548 C1534 0.961 . S
H1549 C1535 0.958 . S
H1550 C1535 0.961 . S
H1551 C1535 0.960 1_554 S
C1552 C1553 1.391 . S
C1552 C1554 1.394 . S
C1552 H1568 0.931 . S
C1553 C1552 1.391 . S
C1553 C1557 1.376 . S
C1554 C1552 1.394 . S
C1554 C1555 1.369 . S
C1554 C1558 1.531 . S
C1555 C1554 1.369 . S
C1555 C1556 1.410 . S
C1555 C1563 1.503 . S
C1556 C1555 1.410 . S
C1556 C1557 1.392 . S
C1556 C1559 1.511 . S
C1557 C1553 1.376 . S
C1557 C1556 1.392 . S
C1557 H1569 0.929 . S
C1558 C1554 1.531 . S
C1558 H1570 0.960 . S
C1558 H1571 0.962 . S
C1558 H1572 0.960 . S
C1559 C1556 1.511 . S
C1559 H1573 0.961 . S
C1559 H1574 0.961 . S
C1559 H1575 0.961 . S
C1560 C1561 1.370 . S
C1560 C1562 1.363 . S
C1560 H1576 0.931 . S
C1561 C1560 1.370 . S
C1561 C1565 1.408 . S
C1562 C1560 1.363 . S
C1562 C1563 1.370 . S
C1562 C1566 1.524 . S
C1563 C1555 1.503 . S
C1563 C1562 1.370 . S
C1563 C1564 1.403 . S
C1564 C1563 1.403 . S
C1564 C1565 1.404 . S
C1564 C1567 1.539 . S
C1565 C1561 1.408 . S
C1565 C1564 1.404 . S
C1565 H1577 0.930 . S
C1566 C1562 1.524 . S
C1566 H1578 0.956 . S
C1566 H1579 0.961 . S
C1566 H1580 0.961 . S
C1567 C1564 1.539 . S
C1567 H1581 0.958 . S
C1567 H1582 0.961 . S
C1567 H1583 0.960 . S
H1568 C1552 0.931 . S
H1569 C1557 0.929 . S
H1570 C1558 0.960 . S
H1571 C1558 0.962 . S
H1572 C1558 0.960 . S
H1573 C1559 0.961 . S
H1574 C1559 0.961 . S
H1575 C1559 0.961 . S
H1576 C1560 0.931 . S
H1577 C1565 0.930 . S
H1578 C1566 0.956 . S
H1579 C1566 0.961 . S
H1580 C1566 0.961 . S
H1581 C1567 0.958 . S
H1582 C1567 0.961 . S
H1583 C1567 0.960 . S
C1584 C1585 1.391 . S
C1584 C1586 1.394 . S
C1584 H1600 0.931 . S
C1585 C1584 1.391 . S
C1585 C1589 1.376 . S
C1586 C1584 1.394 . S
C1586 C1587 1.369 . S
C1586 C1590 1.531 . S
C1587 C1586 1.369 . S
C1587 C1588 1.410 . S
C1587 C1595 1.503 . S
C1588 C1587 1.410 . S
C1588 C1589 1.392 . S
C1588 C1591 1.511 . S
C1589 C1585 1.376 . S
C1589 C1588 1.392 . S
C1589 H1601 0.929 . S
C1590 C1586 1.531 . S
C1590 H1602 0.960 . S
C1590 H1603 0.962 . S
C1590 H1604 0.960 . S
C1591 C1588 1.511 . S
C1591 H1605 0.961 . S
C1591 H1606 0.961 . S
C1591 H1607 0.961 . S
C1592 C1593 1.370 . S
C1592 C1594 1.363 . S
C1592 H1608 0.931 . S
C1593 C1592 1.370 . S
C1593 C1597 1.408 . S
C1594 C1592 1.363 . S
C1594 C1595 1.370 . S
C1594 C1598 1.524 . S
C1595 C1587 1.503 . S
C1595 C1594 1.370 . S
C1595 C1596 1.403 . S
C1596 C1595 1.403 . S
C1596 C1597 1.404 . S
C1596 C1599 1.539 . S
C1597 C1593 1.408 . S
C1597 C1596 1.404 . S
C1597 H1609 0.930 . S
C1598 C1594 1.524 . S
C1598 H1610 0.956 . S
C1598 H1611 0.961 . S
C1598 H1612 0.961 . S
C1599 C1596 1.539 . S
C1599 H1613 0.958 . S
C1599 H1614 0.961 . S
C1599 H1615 0.960 . S
H1600 C1584 0.931 . S
H1601 C1589 0.929 . S
H1602 C1590 0.960 . S
H1603 C1590 0.962 . S
H1604 C1590 0.960 . S
H1605 C1591 0.961 . S
H1606 C1591 0.961 . S
H1607 C1591 0.961 . S
H1608 C1592 0.931 . S
H1609 C1597 0.930 . S
H1610 C1598 0.956 . S
H1611 C1598 0.961 . S
H1612 C1598 0.961 . S
H1613 C1599 0.958 . S
H1614 C1599 0.961 . S
H1615 C1599 0.960 . S
C1616 C1617 1.391 . S
C1616 C1618 1.394 . S
C1616 H1632 0.931 . S
C1617 C1616 1.391 . S
C1617 C1621 1.376 . S
C1618 C1616 1.394 . S
C1618 C1619 1.369 . S
C1618 C1622 1.531 . S
C1619 C1618 1.369 . S
C1619 C1620 1.410 . S
C1619 C1627 1.503 . S
C1620 C1619 1.410 . S
C1620 C1621 1.392 . S
C1620 C1623 1.511 . S
C1621 C1617 1.376 . S
C1621 C1620 1.392 . S
C1621 H1633 0.929 . S
C1622 C1618 1.531 . S
C1622 H1634 0.960 . S
C1622 H1635 0.962 . S
C1622 H1636 0.960 . S
C1623 C1620 1.511 . S
C1623 H1637 0.961 . S
C1623 H1638 0.961 . S
C1623 H1639 0.961 . S
C1624 C1625 1.370 . S
C1624 C1626 1.363 . S
C1624 H1640 0.931 . S
C1625 C1624 1.370 . S
C1625 C1629 1.408 . S
C1626 C1624 1.363 . S
C1626 C1627 1.370 . S
C1626 C1630 1.524 . S
C1627 C1619 1.503 . S
C1627 C1626 1.370 . S
C1627 C1628 1.403 . S
C1628 C1627 1.403 . S
C1628 C1629 1.404 . S
C1628 C1631 1.539 . S
C1629 C1625 1.408 . S
C1629 C1628 1.404 . S
C1629 H1641 0.930 . S
C1630 C1626 1.524 . S
C1630 H1642 0.956 . S
C1630 H1643 0.961 . S
C1630 H1644 0.961 . S
C1631 C1628 1.539 . S
C1631 H1645 0.958 . S
C1631 H1646 0.961 . S
C1631 H1647 0.960 . S
H1632 C1616 0.931 . S
H1633 C1621 0.929 . S
H1634 C1622 0.960 . S
H1635 C1622 0.962 . S
H1636 C1622 0.960 . S
H1637 C1623 0.961 . S
H1638 C1623 0.961 . S
H1639 C1623 0.961 . S
H1640 C1624 0.931 . S
H1641 C1629 0.930 . S
H1642 C1630 0.956 . S
H1643 C1630 0.961 . S
H1644 C1630 0.961 . S
H1645 C1631 0.958 . S
H1646 C1631 0.961 . S
H1647 C1631 0.960 . S
C1648 C1649 1.391 . S
C1648 C1650 1.394 . S
C1648 H1664 0.931 . S
C1649 C1648 1.391 . S
C1649 C1653 1.376 . S
C1650 C1648 1.394 . S
C1650 C1651 1.369 . S
C1650 C1654 1.531 . S
C1651 C1650 1.369 . S
C1651 C1652 1.410 . S
C1651 C1659 1.503 . S
C1652 C1651 1.410 . S
C1652 C1653 1.392 . S
C1652 C1655 1.511 . S
C1653 C1649 1.376 . S
C1653 C1652 1.392 . S
C1653 H1665 0.929 . S
C1654 C1650 1.531 . S
C1654 H1666 0.960 . S
C1654 H1667 0.962 . S
C1654 H1668 0.960 . S
C1655 C1652 1.511 . S
C1655 H1669 0.961 . S
C1655 H1670 0.961 . S
C1655 H1671 0.961 . S
C1656 C1657 1.370 . S
C1656 C1658 1.363 . S
C1656 H1672 0.931 . S
C1657 C1656 1.370 . S
C1657 C1661 1.408 . S
C1658 C1656 1.363 . S
C1658 C1659 1.370 . S
C1658 C1662 1.524 . S
C1659 C1651 1.503 . S
C1659 C1658 1.370 . S
C1659 C1660 1.403 . S
C1660 C1659 1.403 . S
C1660 C1661 1.404 . S
C1660 C1663 1.539 . S
C1661 C1657 1.408 . S
C1661 C1660 1.404 . S
C1661 H1673 0.930 . S
C1662 C1658 1.524 . S
C1662 H1674 0.956 . S
C1662 H1675 0.961 . S
C1662 H1676 0.961 . S
C1663 C1660 1.539 . S
C1663 H1677 0.958 . S
C1663 H1678 0.961 . S
C1663 H1679 0.960 . S
H1664 C1648 0.931 . S
H1665 C1653 0.929 . S
H1666 C1654 0.960 . S
H1667 C1654 0.962 . S
H1668 C1654 0.960 . S
H1669 C1655 0.961 . S
H1670 C1655 0.961 . S
H1671 C1655 0.961 . S
H1672 C1656 0.931 . S
H1673 C1661 0.930 . S
H1674 C1662 0.956 . S
H1675 C1662 0.961 . S
H1676 C1662 0.961 . S
H1677 C1663 0.958 . S
H1678 C1663 0.961 . S
H1679 C1663 0.960 . S
C1680 C1681 1.391 . S
C1680 C1682 1.394 . S
C1680 H1696 0.931 . S
C1681 C1680 1.391 . S
C1681 C1685 1.376 . S
C1682 C1680 1.394 . S
C1682 C1683 1.369 . S
C1682 C1686 1.531 . S
C1683 C1682 1.369 . S
C1683 C1684 1.410 . S
C1683 C1691 1.503 . S
C1684 C1683 1.410 . S
C1684 C1685 1.392 . S
C1684 C1687 1.511 . S
C1685 C1681 1.376 . S
C1685 C1684 1.392 . S
C1685 H1697 0.929 . S
C1686 C1682 1.531 . S
C1686 H1698 0.960 . S
C1686 H1699 0.962 . S
C1686 H1700 0.960 . S
C1687 C1684 1.511 . S
C1687 H1701 0.961 . S
C1687 H1702 0.961 . S
C1687 H1703 0.961 . S
C1688 C1689 1.370 . S
C1688 C1690 1.363 . S
C1688 H1704 0.931 . S
C1689 C1688 1.370 . S
C1689 C1693 1.408 . S
C1690 C1688 1.363 . S
C1690 C1691 1.370 . S
C1690 C1694 1.524 . S
C1691 C1683 1.503 . S
C1691 C1690 1.370 . S
C1691 C1692 1.403 . S
C1692 C1691 1.403 . S
C1692 C1693 1.404 . S
C1692 C1695 1.539 . S
C1693 C1689 1.408 . S
C1693 C1692 1.404 . S
C1693 H1705 0.930 . S
C1694 C1690 1.524 . S
C1694 H1706 0.956 . S
C1694 H1707 0.961 . S
C1694 H1708 0.961 . S
C1695 C1692 1.539 . S
C1695 H1709 0.958 . S
C1695 H1710 0.961 . S
C1695 H1711 0.960 . S
H1696 C1680 0.931 . S
H1697 C1685 0.929 . S
H1698 C1686 0.960 . S
H1699 C1686 0.962 . S
H1700 C1686 0.960 . S
H1701 C1687 0.961 . S
H1702 C1687 0.961 . S
H1703 C1687 0.961 . S
H1704 C1688 0.931 . S
H1705 C1693 0.930 . S
H1706 C1694 0.956 . S
H1707 C1694 0.961 . S
H1708 C1694 0.961 . S
H1709 C1695 0.958 . S
H1710 C1695 0.961 . S
H1711 C1695 0.960 . S
C1712 C1713 1.391 . S
C1712 C1714 1.394 . S
C1712 H1728 0.931 . S
C1713 C1712 1.391 . S
C1713 C1717 1.376 . S
C1714 C1712 1.394 . S
C1714 C1715 1.369 . S
C1714 C1718 1.531 . S
C1715 C1714 1.369 . S
C1715 C1716 1.410 . S
C1715 C1723 1.503 . S
C1716 C1715 1.410 . S
C1716 C1717 1.392 . S
C1716 C1719 1.511 . S
C1717 C1713 1.376 . S
C1717 C1716 1.392 . S
C1717 H1729 0.929 . S
C1718 C1714 1.531 . S
C1718 H1730 0.960 . S
C1718 H1731 0.962 . S
C1718 H1732 0.960 . S
C1719 C1716 1.511 . S
C1719 H1733 0.961 . S
C1719 H1734 0.961 . S
C1719 H1735 0.961 . S
C1720 C1721 1.370 . S
C1720 C1722 1.363 . S
C1720 H1736 0.931 . S
C1721 C1720 1.370 . S
C1721 C1725 1.408 . S
C1722 C1720 1.363 . S
C1722 C1723 1.370 . S
C1722 C1726 1.524 . S
C1723 C1715 1.503 . S
C1723 C1722 1.370 . S
C1723 C1724 1.403 . S
C1724 C1723 1.403 . S
C1724 C1725 1.404 . S
C1724 C1727 1.539 . S
C1725 C1721 1.408 . S
C1725 C1724 1.404 . S
C1725 H1737 0.930 . S
C1726 C1722 1.524 . S
C1726 H1738 0.956 . S
C1726 H1739 0.961 . S
C1726 H1740 0.961 . S
C1727 C1724 1.539 . S
C1727 H1741 0.958 . S
C1727 H1742 0.961 . S
C1727 H1743 0.960 . S
H1728 C1712 0.931 . S
H1729 C1717 0.929 . S
H1730 C1718 0.960 . S
H1731 C1718 0.962 . S
H1732 C1718 0.960 . S
H1733 C1719 0.961 . S
H1734 C1719 0.961 . S
H1735 C1719 0.961 . S
H1736 C1720 0.931 . S
H1737 C1725 0.930 . S
H1738 C1726 0.956 . S
H1739 C1726 0.961 . S
H1740 C1726 0.961 . S
H1741 C1727 0.958 . S
H1742 C1727 0.961 . S
H1743 C1727 0.960 . S
C1744 C1745 1.391 . S
C1744 C1746 1.394 . S
C1744 H1760 0.931 . S
C1745 C1744 1.391 . S
C1745 C1749 1.376 . S
C1746 C1744 1.394 . S
C1746 C1747 1.369 . S
C1746 C1750 1.531 . S
C1747 C1746 1.369 . S
C1747 C1748 1.410 . S
C1747 C1755 1.503 . S
C1748 C1747 1.410 . S
C1748 C1749 1.392 . S
C1748 C1751 1.511 . S
C1749 C1745 1.376 . S
C1749 C1748 1.392 . S
C1749 H1761 0.929 . S
C1750 C1746 1.531 . S
C1750 H1762 0.960 . S
C1750 H1763 0.962 . S
C1750 H1764 0.960 . S
C1751 C1748 1.511 . S
C1751 H1765 0.961 . S
C1751 H1766 0.961 . S
C1751 H1767 0.961 . S
C1752 C1753 1.370 1_565 S
C1752 C1754 1.363 . S
C1752 H1768 0.931 . S
C1753 C1752 1.370 1_545 S
C1753 C1757 1.408 . S
C1754 C1752 1.363 . S
C1754 C1755 1.370 . S
C1754 C1758 1.524 . S
C1755 C1747 1.503 . S
C1755 C1754 1.370 . S
C1755 C1756 1.403 1_565 S
C1756 C1755 1.403 1_545 S
C1756 C1757 1.404 . S
C1756 C1759 1.539 . S
C1757 C1753 1.408 . S
C1757 C1756 1.404 . S
C1757 H1769 0.930 . S
C1758 C1754 1.524 . S
C1758 H1770 0.956 . S
C1758 H1771 0.961 . S
C1758 H1772 0.961 . S
C1759 C1756 1.539 . S
C1759 H1773 0.958 . S
C1759 H1774 0.961 . S
C1759 H1775 0.960 1_545 S
H1760 C1744 0.931 . S
H1761 C1749 0.929 . S
H1762 C1750 0.960 . S
H1763 C1750 0.962 . S
H1764 C1750 0.960 . S
H1765 C1751 0.961 . S
H1766 C1751 0.961 . S
H1767 C1751 0.961 . S
H1768 C1752 0.931 . S
H1769 C1757 0.930 . S
H1770 C1758 0.956 . S
H1771 C1758 0.961 . S
H1772 C1758 0.961 . S
H1773 C1759 0.958 . S
H1774 C1759 0.961 . S
H1775 C1759 0.960 1_565 S
C1776 C1777 1.391 . S
C1776 C1778 1.394 . S
C1776 H1792 0.931 . S
C1777 C1776 1.391 . S
C1777 C1781 1.376 . S
C1778 C1776 1.394 . S
C1778 C1779 1.369 . S
C1778 C1782 1.531 . S
C1779 C1778 1.369 . S
C1779 C1780 1.410 . S
C1779 C1787 1.503 . S
C1780 C1779 1.410 . S
C1780 C1781 1.392 . S
C1780 C1783 1.511 . S
C1781 C1777 1.376 . S
C1781 C1780 1.392 . S
C1781 H1793 0.929 . S
C1782 C1778 1.531 . S
C1782 H1794 0.960 . S
C1782 H1795 0.962 . S
C1782 H1796 0.960 . S
C1783 C1780 1.511 . S
C1783 H1797 0.961 . S
C1783 H1798 0.961 . S
C1783 H1799 0.961 . S
C1784 C1785 1.370 . S
C1784 C1786 1.363 . S
C1784 H1800 0.931 . S
C1785 C1784 1.370 . S
C1785 C1789 1.408 . S
C1786 C1784 1.363 . S
C1786 C1787 1.370 . S
C1786 C1790 1.524 . S
C1787 C1779 1.503 . S
C1787 C1786 1.370 . S
C1787 C1788 1.403 . S
C1788 C1787 1.403 . S
C1788 C1789 1.404 . S
C1788 C1791 1.539 . S
C1789 C1785 1.408 . S
C1789 C1788 1.404 . S
C1789 H1801 0.930 . S
C1790 C1786 1.524 . S
C1790 H1802 0.956 . S
C1790 H1803 0.961 . S
C1790 H1804 0.961 . S
C1791 C1788 1.539 . S
C1791 H1805 0.958 . S
C1791 H1806 0.961 . S
C1791 H1807 0.960 . S
H1792 C1776 0.931 . S
H1793 C1781 0.929 . S
H1794 C1782 0.960 . S
H1795 C1782 0.962 . S
H1796 C1782 0.960 . S
H1797 C1783 0.961 . S
H1798 C1783 0.961 . S
H1799 C1783 0.961 . S
H1800 C1784 0.931 . S
H1801 C1789 0.930 . S
H1802 C1790 0.956 . S
H1803 C1790 0.961 . S
H1804 C1790 0.961 . S
H1805 C1791 0.958 . S
H1806 C1791 0.961 . S
H1807 C1791 0.960 . S
C1808 C1809 1.391 . S
C1808 C1810 1.394 . S
C1808 H1824 0.931 . S
C1809 C1808 1.391 . S
C1809 C1813 1.376 . S
C1810 C1808 1.394 . S
C1810 C1811 1.369 . S
C1810 C1814 1.531 . S
C1811 C1810 1.369 . S
C1811 C1812 1.410 . S
C1811 C1819 1.503 . S
C1812 C1811 1.410 . S
C1812 C1813 1.392 . S
C1812 C1815 1.511 . S
C1813 C1809 1.376 . S
C1813 C1812 1.392 . S
C1813 H1825 0.929 . S
C1814 C1810 1.531 . S
C1814 H1826 0.960 . S
C1814 H1827 0.962 . S
C1814 H1828 0.960 . S
C1815 C1812 1.511 . S
C1815 H1829 0.961 . S
C1815 H1830 0.961 . S
C1815 H1831 0.961 . S
C1816 C1817 1.370 . S
C1816 C1818 1.363 . S
C1816 H1832 0.931 . S
C1817 C1816 1.370 . S
C1817 C1821 1.408 . S
C1818 C1816 1.363 . S
C1818 C1819 1.370 . S
C1818 C1822 1.524 . S
C1819 C1811 1.503 . S
C1819 C1818 1.370 . S
C1819 C1820 1.403 . S
C1820 C1819 1.403 . S
C1820 C1821 1.404 . S
C1820 C1823 1.539 . S
C1821 C1817 1.408 . S
C1821 C1820 1.404 . S
C1821 H1833 0.930 . S
C1822 C1818 1.524 . S
C1822 H1834 0.956 . S
C1822 H1835 0.961 . S
C1822 H1836 0.961 . S
C1823 C1820 1.539 . S
C1823 H1837 0.958 . S
C1823 H1838 0.961 . S
C1823 H1839 0.960 . S
H1824 C1808 0.931 . S
H1825 C1813 0.929 . S
H1826 C1814 0.960 . S
H1827 C1814 0.962 . S
H1828 C1814 0.960 . S
H1829 C1815 0.961 . S
H1830 C1815 0.961 . S
H1831 C1815 0.961 . S
H1832 C1816 0.931 . S
H1833 C1821 0.930 . S
H1834 C1822 0.956 . S
H1835 C1822 0.961 . S
H1836 C1822 0.961 . S
H1837 C1823 0.958 . S
H1838 C1823 0.961 . S
H1839 C1823 0.960 . S
C1840 C1841 1.391 . S
C1840 C1842 1.394 . S
C1840 H1856 0.931 . S
C1841 C1840 1.391 . S
C1841 C1845 1.376 . S
C1842 C1840 1.394 . S
C1842 C1843 1.369 . S
C1842 C1846 1.531 . S
C1843 C1842 1.369 . S
C1843 C1844 1.410 . S
C1843 C1851 1.503 . S
C1844 C1843 1.410 . S
C1844 C1845 1.392 . S
C1844 C1847 1.511 . S
C1845 C1841 1.376 . S
C1845 C1844 1.392 . S
C1845 H1857 0.929 . S
C1846 C1842 1.531 . S
C1846 H1858 0.960 . S
C1846 H1859 0.962 . S
C1846 H1860 0.960 . S
C1847 C1844 1.511 . S
C1847 H1861 0.961 . S
C1847 H1862 0.961 . S
C1847 H1863 0.961 . S
C1848 C1849 1.370 . S
C1848 C1850 1.363 . S
C1848 H1864 0.931 . S
C1849 C1848 1.370 . S
C1849 C1853 1.408 . S
C1850 C1848 1.363 . S
C1850 C1851 1.370 . S
C1850 C1854 1.524 . S
C1851 C1843 1.503 . S
C1851 C1850 1.370 . S
C1851 C1852 1.403 . S
C1852 C1851 1.403 . S
C1852 C1853 1.404 . S
C1852 C1855 1.539 . S
C1853 C1849 1.408 . S
C1853 C1852 1.404 . S
C1853 H1865 0.930 . S
C1854 C1850 1.524 . S
C1854 H1866 0.956 . S
C1854 H1867 0.961 . S
C1854 H1868 0.961 . S
C1855 C1852 1.539 . S
C1855 H1869 0.958 . S
C1855 H1870 0.961 . S
C1855 H1871 0.960 . S
H1856 C1840 0.931 . S
H1857 C1845 0.929 . S
H1858 C1846 0.960 . S
H1859 C1846 0.962 . S
H1860 C1846 0.960 . S
H1861 C1847 0.961 . S
H1862 C1847 0.961 . S
H1863 C1847 0.961 . S
H1864 C1848 0.931 . S
H1865 C1853 0.930 . S
H1866 C1854 0.956 . S
H1867 C1854 0.961 . S
H1868 C1854 0.961 . S
H1869 C1855 0.958 . S
H1870 C1855 0.961 . S
H1871 C1855 0.960 . S
C1872 C1873 1.391 . S
C1872 C1874 1.394 . S
C1872 H1888 0.931 . S
C1873 C1872 1.391 . S
C1873 C1877 1.376 1_455 S
C1874 C1872 1.394 . S
C1874 C1875 1.369 . S
C1874 C1878 1.531 . S
C1875 C1874 1.369 . S
C1875 C1876 1.410 1_455 S
C1875 C1883 1.503 . S
C1876 C1875 1.410 1_655 S
C1876 C1877 1.392 . S
C1876 C1879 1.511 . S
C1877 C1873 1.376 1_655 S
C1877 C1876 1.392 . S
C1877 H1889 0.929 . S
C1878 C1874 1.531 . S
C1878 H1890 0.960 . S
C1878 H1891 0.962 . S
C1878 H1892 0.960 . S
C1879 C1876 1.511 . S
C1879 H1893 0.961 . S
C1879 H1894 0.961 . S
C1879 H1895 0.961 . S
C1880 C1881 1.370 . S
C1880 C1882 1.363 . S
C1880 H1896 0.931 . S
C1881 C1880 1.370 . S
C1881 C1885 1.408 . S
C1882 C1880 1.363 . S
C1882 C1883 1.370 . S
C1882 C1886 1.524 . S
C1883 C1875 1.503 . S
C1883 C1882 1.370 . S
C1883 C1884 1.403 . S
C1884 C1883 1.403 . S
C1884 C1885 1.404 . S
C1884 C1887 1.539 1_455 S
C1885 C1881 1.408 . S
C1885 C1884 1.404 . S
C1885 H1897 0.930 . S
C1886 C1882 1.524 . S
C1886 H1898 0.956 . S
C1886 H1899 0.961 . S
C1886 H1900 0.961 . S
C1887 C1884 1.539 1_655 S
C1887 H1901 0.958 1_655 S
C1887 H1902 0.961 . S
C1887 H1903 0.960 . S
H1888 C1872 0.931 . S
H1889 C1877 0.929 . S
H1890 C1878 0.960 . S
H1891 C1878 0.962 . S
H1892 C1878 0.960 . S
H1893 C1879 0.961 . S
H1894 C1879 0.961 . S
H1895 C1879 0.961 . S
H1896 C1880 0.931 . S
H1897 C1885 0.930 . S
H1898 C1886 0.956 . S
H1899 C1886 0.961 . S
H1900 C1886 0.961 . S
H1901 C1887 0.958 1_455 S
H1902 C1887 0.961 . S
H1903 C1887 0.960 . S
C1904 C1905 1.391 . S
C1904 C1906 1.394 . S
C1904 H1920 0.931 . S
C1905 C1904 1.391 . S
C1905 C1909 1.376 . S
C1906 C1904 1.394 . S
C1906 C1907 1.369 . S
C1906 C1910 1.531 . S
C1907 C1906 1.369 . S
C1907 C1908 1.410 . S
C1907 C1915 1.503 . S
C1908 C1907 1.410 . S
C1908 C1909 1.392 . S
C1908 C1911 1.511 . S
C1909 C1905 1.376 . S
C1909 C1908 1.392 . S
C1909 H1921 0.929 . S
C1910 C1906 1.531 . S
C1910 H1922 0.960 . S
C1910 H1923 0.962 . S
C1910 H1924 0.960 . S
C1911 C1908 1.511 . S
C1911 H1925 0.961 . S
C1911 H1926 0.961 . S
C1911 H1927 0.961 . S
C1912 C1913 1.370 . S
C1912 C1914 1.363 . S
C1912 H1928 0.931 . S
C1913 C1912 1.370 . S
C1913 C1917 1.408 . S
C1914 C1912 1.363 . S
C1914 C1915 1.370 . S
C1914 C1918 1.524 . S
C1915 C1907 1.503 . S
C1915 C1914 1.370 . S
C1915 C1916 1.403 . S
C1916 C1915 1.403 . S
C1916 C1917 1.404 . S
C1916 C1919 1.539 . S
C1917 C1913 1.408 . S
C1917 C1916 1.404 . S
C1917 H1929 0.930 . S
C1918 C1914 1.524 . S
C1918 H1930 0.956 . S
C1918 H1931 0.961 . S
C1918 H1932 0.961 . S
C1919 C1916 1.539 . S
C1919 H1933 0.958 . S
C1919 H1934 0.961 . S
C1919 H1935 0.960 . S
H1920 C1904 0.931 . S
H1921 C1909 0.929 . S
H1922 C1910 0.960 . S
H1923 C1910 0.962 . S
H1924 C1910 0.960 . S
H1925 C1911 0.961 . S
H1926 C1911 0.961 . S
H1927 C1911 0.961 . S
H1928 C1912 0.931 . S
H1929 C1917 0.930 . S
H1930 C1918 0.956 . S
H1931 C1918 0.961 . S
H1932 C1918 0.961 . S
H1933 C1919 0.958 . S
H1934 C1919 0.961 . S
H1935 C1919 0.960 . S
C1936 C1937 1.391 . S
C1936 C1938 1.394 . S
C1936 H1952 0.931 . S
C1937 C1936 1.391 . S
C1937 C1941 1.376 . S
C1938 C1936 1.394 . S
C1938 C1939 1.369 . S
C1938 C1942 1.531 . S
C1939 C1938 1.369 . S
C1939 C1940 1.410 . S
C1939 C1947 1.503 . S
C1940 C1939 1.410 . S
C1940 C1941 1.392 . S
C1940 C1943 1.511 . S
C1941 C1937 1.376 . S
C1941 C1940 1.392 . S
C1941 H1953 0.929 . S
C1942 C1938 1.531 . S
C1942 H1954 0.960 . S
C1942 H1955 0.962 . S
C1942 H1956 0.960 . S
C1943 C1940 1.511 . S
C1943 H1957 0.961 . S
C1943 H1958 0.961 . S
C1943 H1959 0.961 1_556 S
C1944 C1945 1.370 1_556 S
C1944 C1946 1.363 . S
C1944 H1960 0.931 1_565 S
C1945 C1944 1.370 1_554 S
C1945 C1949 1.408 . S
C1946 C1944 1.363 . S
C1946 C1947 1.370 . S
C1946 C1950 1.524 . S
C1947 C1939 1.503 . S
C1947 C1946 1.370 . S
C1947 C1948 1.403 1_556 S
C1948 C1947 1.403 1_554 S
C1948 C1949 1.404 . S
C1948 C1951 1.539 . S
C1949 C1945 1.408 . S
C1949 C1948 1.404 . S
C1949 H1961 0.930 . S
C1950 C1946 1.524 . S
C1950 H1962 0.956 . S
C1950 H1963 0.961 . S
C1950 H1964 0.961 . S
C1951 C1948 1.539 . S
C1951 H1965 0.958 . S
C1951 H1966 0.961 . S
C1951 H1967 0.960 . S
H1952 C1936 0.931 . S
H1953 C1941 0.929 . S
H1954 C1942 0.960 . S
H1955 C1942 0.962 . S
H1956 C1942 0.960 . S
H1957 C1943 0.961 . S
H1958 C1943 0.961 . S
H1959 C1943 0.961 1_554 S
H1960 C1944 0.931 1_545 S
H1961 C1949 0.930 . S
H1962 C1950 0.956 . S
H1963 C1950 0.961 . S
H1964 C1950 0.961 . S
H1965 C1951 0.958 . S
H1966 C1951 0.961 . S
H1967 C1951 0.960 . S
C1968 C1969 1.391 . S
C1968 C1970 1.394 . S
C1968 H1984 0.931 . S
C1969 C1968 1.391 . S
C1969 C1973 1.376 1_455 S
C1970 C1968 1.394 . S
C1970 C1971 1.369 1_455 S
C1970 C1974 1.531 . S
C1971 C1970 1.369 1_655 S
C1971 C1972 1.410 . S
C1971 C1979 1.503 . S
C1972 C1971 1.410 . S
C1972 C1973 1.392 . S
C1972 C1975 1.511 . S
C1973 C1969 1.376 1_655 S
C1973 C1972 1.392 . S
C1973 H1985 0.929 . S
C1974 C1970 1.531 . S
C1974 H1986 0.960 . S
C1974 H1987 0.962 . S
C1974 H1988 0.960 . S
C1975 C1972 1.511 . S
C1975 H1989 0.961 . S
C1975 H1990 0.961 . S
C1975 H1991 0.961 . S
C1976 C1977 1.370 . S
C1976 C1978 1.363 . S
C1976 H1992 0.931 . S
C1977 C1976 1.370 . S
C1977 C1981 1.408 . S
C1978 C1976 1.363 . S
C1978 C1979 1.370 . S
C1978 C1982 1.524 . S
C1979 C1971 1.503 . S
C1979 C1978 1.370 . S
C1979 C1980 1.403 . S
C1980 C1979 1.403 . S
C1980 C1981 1.404 . S
C1980 C1983 1.539 . S
C1981 C1977 1.408 . S
C1981 C1980 1.404 . S
C1981 H1993 0.930 . S
C1982 C1978 1.524 . S
C1982 H1994 0.956 . S
C1982 H1995 0.961 . S
C1982 H1996 0.961 . S
C1983 C1980 1.539 . S
C1983 H1997 0.958 . S
C1983 H1998 0.961 . S
C1983 H1999 0.960 . S
H1984 C1968 0.931 . S
H1985 C1973 0.929 . S
H1986 C1974 0.960 . S
H1987 C1974 0.962 . S
H1988 C1974 0.960 . S
H1989 C1975 0.961 . S
H1990 C1975 0.961 . S
H1991 C1975 0.961 . S
H1992 C1976 0.931 . S
H1993 C1981 0.930 . S
H1994 C1982 0.956 . S
H1995 C1982 0.961 . S
H1996 C1982 0.961 . S
H1997 C1983 0.958 . S
H1998 C1983 0.961 . S
H1999 C1983 0.960 . S
C2000 C2001 1.391 . S
C2000 C2002 1.394 . S
C2000 H2016 0.931 . S
C2001 C2000 1.391 . S
C2001 C2005 1.376 . S
C2002 C2000 1.394 . S
C2002 C2003 1.369 . S
C2002 C2006 1.531 . S
C2003 C2002 1.369 . S
C2003 C2004 1.410 . S
C2003 C2011 1.503 . S
C2004 C2003 1.410 . S
C2004 C2005 1.392 . S
C2004 C2007 1.511 . S
C2005 C2001 1.376 . S
C2005 C2004 1.392 . S
C2005 H2017 0.929 . S
C2006 C2002 1.531 . S
C2006 H2018 0.960 . S
C2006 H2019 0.962 . S
C2006 H2020 0.960 . S
C2007 C2004 1.511 . S
C2007 H2021 0.961 . S
C2007 H2022 0.961 . S
C2007 H2023 0.961 . S
C2008 C2009 1.370 . S
C2008 C2010 1.363 . S
C2008 H2024 0.931 . S
C2009 C2008 1.370 . S
C2009 C2013 1.408 . S
C2010 C2008 1.363 . S
C2010 C2011 1.370 . S
C2010 C2014 1.524 . S
C2011 C2003 1.503 . S
C2011 C2010 1.370 . S
C2011 C2012 1.403 . S
C2012 C2011 1.403 . S
C2012 C2013 1.404 . S
C2012 C2015 1.539 . S
C2013 C2009 1.408 . S
C2013 C2012 1.404 . S
C2013 H2025 0.930 1_556 S
C2014 C2010 1.524 . S
C2014 H2026 0.956 . S
C2014 H2027 0.961 . S
C2014 H2028 0.961 . S
C2015 C2012 1.539 . S
C2015 H2029 0.958 . S
C2015 H2030 0.961 . S
C2015 H2031 0.960 . S
H2016 C2000 0.931 . S
H2017 C2005 0.929 . S
H2018 C2006 0.960 . S
H2019 C2006 0.962 . S
H2020 C2006 0.960 . S
H2021 C2007 0.961 . S
H2022 C2007 0.961 . S
H2023 C2007 0.961 . S
H2024 C2008 0.931 . S
H2025 C2013 0.930 1_554 S
H2026 C2014 0.956 . S
H2027 C2014 0.961 . S
H2028 C2014 0.961 . S
H2029 C2015 0.958 . S
H2030 C2015 0.961 . S
H2031 C2015 0.960 . S
C2032 C2033 1.391 . S
C2032 C2034 1.394 . S
C2032 H2048 0.931 . S
C2033 C2032 1.391 . S
C2033 C2037 1.376 . S
C2034 C2032 1.394 . S
C2034 C2035 1.369 . S
C2034 C2038 1.531 . S
C2035 C2034 1.369 . S
C2035 C2036 1.410 . S
C2035 C2043 1.503 . S
C2036 C2035 1.410 . S
C2036 C2037 1.392 . S
C2036 C2039 1.511 . S
C2037 C2033 1.376 . S
C2037 C2036 1.392 . S
C2037 H2049 0.929 . S
C2038 C2034 1.531 . S
C2038 H2050 0.960 . S
C2038 H2051 0.962 . S
C2038 H2052 0.960 . S
C2039 C2036 1.511 . S
C2039 H2053 0.961 . S
C2039 H2054 0.961 . S
C2039 H2055 0.961 . S
C2040 C2041 1.370 . S
C2040 C2042 1.363 . S
C2040 H2056 0.931 . S
C2041 C2040 1.370 . S
C2041 C2045 1.408 . S
C2042 C2040 1.363 . S
C2042 C2043 1.370 . S
C2042 C2046 1.524 . S
C2043 C2035 1.503 . S
C2043 C2042 1.370 . S
C2043 C2044 1.403 . S
C2044 C2043 1.403 . S
C2044 C2045 1.404 . S
C2044 C2047 1.539 . S
C2045 C2041 1.408 . S
C2045 C2044 1.404 . S
C2045 H2057 0.930 . S
C2046 C2042 1.524 . S
C2046 H2058 0.956 . S
C2046 H2059 0.961 . S
C2046 H2060 0.961 . S
C2047 C2044 1.539 . S
C2047 H2061 0.958 . S
C2047 H2062 0.961 . S
C2047 H2063 0.960 . S
H2048 C2032 0.931 . S
H2049 C2037 0.929 . S
H2050 C2038 0.960 . S
H2051 C2038 0.962 . S
H2052 C2038 0.960 . S
H2053 C2039 0.961 . S
H2054 C2039 0.961 . S
H2055 C2039 0.961 . S
H2056 C2040 0.931 . S
H2057 C2045 0.930 . S
H2058 C2046 0.956 . S
H2059 C2046 0.961 . S
H2060 C2046 0.961 . S
H2061 C2047 0.958 . S
H2062 C2047 0.961 . S
H2063 C2047 0.960 . S
C2064 C2065 1.391 . S
C2064 C2066 1.394 . S
C2064 H2080 0.931 . S
C2065 C2064 1.391 . S
C2065 C2069 1.376 . S
C2066 C2064 1.394 . S
C2066 C2067 1.369 . S
C2066 C2070 1.531 . S
C2067 C2066 1.369 . S
C2067 C2068 1.410 . S
C2067 C2075 1.503 . S
C2068 C2067 1.410 . S
C2068 C2069 1.392 . S
C2068 C2071 1.511 . S
C2069 C2065 1.376 . S
C2069 C2068 1.392 . S
C2069 H2081 0.929 . S
C2070 C2066 1.531 . S
C2070 H2082 0.960 . S
C2070 H2083 0.962 . S
C2070 H2084 0.960 . S
C2071 C2068 1.511 . S
C2071 H2085 0.961 . S
C2071 H2086 0.961 . S
C2071 H2087 0.961 . S
C2072 C2073 1.370 . S
C2072 C2074 1.363 . S
C2072 H2088 0.931 . S
C2073 C2072 1.370 . S
C2073 C2077 1.408 . S
C2074 C2072 1.363 . S
C2074 C2075 1.370 . S
C2074 C2078 1.524 . S
C2075 C2067 1.503 . S
C2075 C2074 1.370 . S
C2075 C2076 1.403 . S
C2076 C2075 1.403 . S
C2076 C2077 1.404 . S
C2076 C2079 1.539 . S
C2077 C2073 1.408 . S
C2077 C2076 1.404 . S
C2077 H2089 0.930 . S
C2078 C2074 1.524 . S
C2078 H2090 0.956 . S
C2078 H2091 0.961 . S
C2078 H2092 0.961 . S
C2079 C2076 1.539 . S
C2079 H2093 0.958 . S
C2079 H2094 0.961 . S
C2079 H2095 0.960 . S
H2080 C2064 0.931 . S
H2081 C2069 0.929 . S
H2082 C2070 0.960 . S
H2083 C2070 0.962 . S
H2084 C2070 0.960 . S
H2085 C2071 0.961 . S
H2086 C2071 0.961 . S
H2087 C2071 0.961 . S
H2088 C2072 0.931 . S
H2089 C2077 0.930 . S
H2090 C2078 0.956 . S
H2091 C2078 0.961 . S
H2092 C2078 0.961 . S
H2093 C2079 0.958 . S
H2094 C2079 0.961 . S
H2095 C2079 0.960 . S
C2096 C2097 1.391 . S
C2096 C2098 1.394 . S
C2096 H2112 0.931 . S
C2097 C2096 1.391 . S
C2097 C2101 1.376 . S
C2098 C2096 1.394 . S
C2098 C2099 1.369 . S
C2098 C2102 1.531 . S
C2099 C2098 1.369 . S
C2099 C2100 1.410 . S
C2099 C2107 1.503 . S
C2100 C2099 1.410 . S
C2100 C2101 1.392 . S
C2100 C2103 1.511 . S
C2101 C2097 1.376 . S
C2101 C2100 1.392 . S
C2101 H2113 0.929 . S
C2102 C2098 1.531 . S
C2102 H2114 0.960 . S
C2102 H2115 0.962 . S
C2102 H2116 0.960 . S
C2103 C2100 1.511 . S
C2103 H2117 0.961 . S
C2103 H2118 0.961 . S
C2103 H2119 0.961 . S
C2104 C2105 1.370 . S
C2104 C2106 1.363 . S
C2104 H2120 0.931 . S
C2105 C2104 1.370 . S
C2105 C2109 1.408 . S
C2106 C2104 1.363 . S
C2106 C2107 1.370 . S
C2106 C2110 1.524 . S
C2107 C2099 1.503 . S
C2107 C2106 1.370 . S
C2107 C2108 1.403 . S
C2108 C2107 1.403 . S
C2108 C2109 1.404 . S
C2108 C2111 1.539 . S
C2109 C2105 1.408 . S
C2109 C2108 1.404 . S
C2109 H2121 0.930 . S
C2110 C2106 1.524 . S
C2110 H2122 0.956 . S
C2110 H2123 0.961 . S
C2110 H2124 0.961 . S
C2111 C2108 1.539 . S
C2111 H2125 0.958 . S
C2111 H2126 0.961 . S
C2111 H2127 0.960 . S
H2112 C2096 0.931 . S
H2113 C2101 0.929 . S
H2114 C2102 0.960 . S
H2115 C2102 0.962 . S
H2116 C2102 0.960 . S
H2117 C2103 0.961 . S
H2118 C2103 0.961 . S
H2119 C2103 0.961 . S
H2120 C2104 0.931 . S
H2121 C2109 0.930 . S
H2122 C2110 0.956 . S
H2123 C2110 0.961 . S
H2124 C2110 0.961 . S
H2125 C2111 0.958 . S
H2126 C2111 0.961 . S
H2127 C2111 0.960 . S
C2128 C2129 1.391 . S
C2128 C2130 1.394 . S
C2128 H2144 0.931 . S
C2129 C2128 1.391 . S
C2129 C2133 1.376 . S
C2130 C2128 1.394 . S
C2130 C2131 1.369 . S
C2130 C2134 1.531 . S
C2131 C2130 1.369 . S
C2131 C2132 1.410 . S
C2131 C2139 1.503 . S
C2132 C2131 1.410 . S
C2132 C2133 1.392 . S
C2132 C2135 1.511 . S
C2133 C2129 1.376 . S
C2133 C2132 1.392 . S
C2133 H2145 0.929 . S
C2134 C2130 1.531 . S
C2134 H2146 0.960 . S
C2134 H2147 0.962 . S
C2134 H2148 0.960 . S
C2135 C2132 1.511 . S
C2135 H2149 0.961 . S
C2135 H2150 0.961 . S
C2135 H2151 0.961 . S
C2136 C2137 1.370 . S
C2136 C2138 1.363 . S
C2136 H2152 0.931 . S
C2137 C2136 1.370 . S
C2137 C2141 1.408 . S
C2138 C2136 1.363 . S
C2138 C2139 1.370 . S
C2138 C2142 1.524 . S
C2139 C2131 1.503 . S
C2139 C2138 1.370 . S
C2139 C2140 1.403 . S
C2140 C2139 1.403 . S
C2140 C2141 1.404 . S
C2140 C2143 1.539 . S
C2141 C2137 1.408 . S
C2141 C2140 1.404 . S
C2141 H2153 0.930 . S
C2142 C2138 1.524 . S
C2142 H2154 0.956 . S
C2142 H2155 0.961 . S
C2142 H2156 0.961 . S
C2143 C2140 1.539 . S
C2143 H2157 0.958 . S
C2143 H2158 0.961 . S
C2143 H2159 0.960 . S
H2144 C2128 0.931 . S
H2145 C2133 0.929 . S
H2146 C2134 0.960 . S
H2147 C2134 0.962 . S
H2148 C2134 0.960 . S
H2149 C2135 0.961 . S
H2150 C2135 0.961 . S
H2151 C2135 0.961 . S
H2152 C2136 0.931 . S
H2153 C2141 0.930 . S
H2154 C2142 0.956 . S
H2155 C2142 0.961 . S
H2156 C2142 0.961 . S
H2157 C2143 0.958 . S
H2158 C2143 0.961 . S
H2159 C2143 0.960 . S
C2160 C2161 1.391 . S
C2160 C2162 1.394 . S
C2160 H2176 0.931 . S
C2161 C2160 1.391 . S
C2161 C2165 1.376 . S
C2162 C2160 1.394 . S
C2162 C2163 1.369 . S
C2162 C2166 1.531 . S
C2163 C2162 1.369 . S
C2163 C2164 1.410 . S
C2163 C2171 1.503 . S
C2164 C2163 1.410 . S
C2164 C2165 1.392 . S
C2164 C2167 1.511 . S
C2165 C2161 1.376 . S
C2165 C2164 1.392 . S
C2165 H2177 0.929 . S
C2166 C2162 1.531 . S
C2166 H2178 0.960 . S
C2166 H2179 0.962 . S
C2166 H2180 0.960 . S
C2167 C2164 1.511 . S
C2167 H2181 0.961 . S
C2167 H2182 0.961 . S
C2167 H2183 0.961 . S
C2168 C2169 1.370 . S
C2168 C2170 1.363 . S
C2168 H2184 0.931 . S
C2169 C2168 1.370 . S
C2169 C2173 1.408 . S
C2170 C2168 1.363 . S
C2170 C2171 1.370 . S
C2170 C2174 1.524 . S
C2171 C2163 1.503 . S
C2171 C2170 1.370 . S
C2171 C2172 1.403 . S
C2172 C2171 1.403 . S
C2172 C2173 1.404 . S
C2172 C2175 1.539 . S
C2173 C2169 1.408 . S
C2173 C2172 1.404 . S
C2173 H2185 0.930 . S
C2174 C2170 1.524 . S
C2174 H2186 0.956 . S
C2174 H2187 0.961 . S
C2174 H2188 0.961 . S
C2175 C2172 1.539 . S
C2175 H2189 0.958 . S
C2175 H2190 0.961 . S
C2175 H2191 0.960 . S
H2176 C2160 0.931 . S
H2177 C2165 0.929 . S
H2178 C2166 0.960 . S
H2179 C2166 0.962 . S
H2180 C2166 0.960 . S
H2181 C2167 0.961 . S
H2182 C2167 0.961 . S
H2183 C2167 0.961 . S
H2184 C2168 0.931 . S
H2185 C2173 0.930 . S
H2186 C2174 0.956 . S
H2187 C2174 0.961 . S
H2188 C2174 0.961 . S
H2189 C2175 0.958 . S
H2190 C2175 0.961 . S
H2191 C2175 0.960 . S
C2192 C2193 1.391 . S
C2192 C2194 1.394 . S
C2192 H2208 0.931 . S
C2193 C2192 1.391 . S
C2193 C2197 1.376 . S
C2194 C2192 1.394 . S
C2194 C2195 1.369 . S
C2194 C2198 1.531 . S
C2195 C2194 1.369 . S
C2195 C2196 1.410 . S
C2195 C2203 1.503 . S
C2196 C2195 1.410 . S
C2196 C2197 1.392 . S
C2196 C2199 1.511 . S
C2197 C2193 1.376 . S
C2197 C2196 1.392 . S
C2197 H2209 0.929 . S
C2198 C2194 1.531 . S
C2198 H2210 0.960 . S
C2198 H2211 0.962 . S
C2198 H2212 0.960 . S
C2199 C2196 1.511 . S
C2199 H2213 0.961 . S
C2199 H2214 0.961 . S
C2199 H2215 0.961 . S
C2200 C2201 1.370 . S
C2200 C2202 1.363 . S
C2200 H2216 0.931 . S
C2201 C2200 1.370 . S
C2201 C2205 1.408 . S
C2202 C2200 1.363 . S
C2202 C2203 1.370 . S
C2202 C2206 1.524 . S
C2203 C2195 1.503 . S
C2203 C2202 1.370 . S
C2203 C2204 1.403 . S
C2204 C2203 1.403 . S
C2204 C2205 1.404 . S
C2204 C2207 1.539 . S
C2205 C2201 1.408 . S
C2205 C2204 1.404 . S
C2205 H2217 0.930 . S
C2206 C2202 1.524 . S
C2206 H2218 0.956 . S
C2206 H2219 0.961 . S
C2206 H2220 0.961 . S
C2207 C2204 1.539 . S
C2207 H2221 0.958 . S
C2207 H2222 0.961 . S
C2207 H2223 0.960 . S
H2208 C2192 0.931 . S
H2209 C2197 0.929 . S
H2210 C2198 0.960 . S
H2211 C2198 0.962 . S
H2212 C2198 0.960 . S
H2213 C2199 0.961 . S
H2214 C2199 0.961 . S
H2215 C2199 0.961 . S
H2216 C2200 0.931 . S
H2217 C2205 0.930 . S
H2218 C2206 0.956 . S
H2219 C2206 0.961 . S
H2220 C2206 0.961 . S
H2221 C2207 0.958 . S
H2222 C2207 0.961 . S
H2223 C2207 0.960 . S
C2224 C2225 1.391 . S
C2224 C2226 1.394 . S
C2224 H2240 0.931 . S
C2225 C2224 1.391 . S
C2225 C2229 1.376 . S
C2226 C2224 1.394 . S
C2226 C2227 1.369 . S
C2226 C2230 1.531 . S
C2227 C2226 1.369 . S
C2227 C2228 1.410 . S
C2227 C2235 1.503 . S
C2228 C2227 1.410 . S
C2228 C2229 1.392 . S
C2228 C2231 1.511 . S
C2229 C2225 1.376 . S
C2229 C2228 1.392 . S
C2229 H2241 0.929 . S
C2230 C2226 1.531 . S
C2230 H2242 0.960 . S
C2230 H2243 0.962 . S
C2230 H2244 0.960 . S
C2231 C2228 1.511 . S
C2231 H2245 0.961 . S
C2231 H2246 0.961 . S
C2231 H2247 0.961 . S
C2232 C2233 1.370 . S
C2232 C2234 1.363 . S
C2232 H2248 0.931 . S
C2233 C2232 1.370 . S
C2233 C2237 1.408 . S
C2234 C2232 1.363 . S
C2234 C2235 1.370 . S
C2234 C2238 1.524 . S
C2235 C2227 1.503 . S
C2235 C2234 1.370 . S
C2235 C2236 1.403 . S
C2236 C2235 1.403 . S
C2236 C2237 1.404 . S
C2236 C2239 1.539 . S
C2237 C2233 1.408 . S
C2237 C2236 1.404 . S
C2237 H2249 0.930 . S
C2238 C2234 1.524 . S
C2238 H2250 0.956 . S
C2238 H2251 0.961 . S
C2238 H2252 0.961 . S
C2239 C2236 1.539 . S
C2239 H2253 0.958 . S
C2239 H2254 0.961 . S
C2239 H2255 0.960 . S
H2240 C2224 0.931 . S
H2241 C2229 0.929 . S
H2242 C2230 0.960 . S
H2243 C2230 0.962 . S
H2244 C2230 0.960 . S
H2245 C2231 0.961 . S
H2246 C2231 0.961 . S
H2247 C2231 0.961 . S
H2248 C2232 0.931 . S
H2249 C2237 0.930 . S
H2250 C2238 0.956 . S
H2251 C2238 0.961 . S
H2252 C2238 0.961 . S
H2253 C2239 0.958 . S
H2254 C2239 0.961 . S
H2255 C2239 0.960 . S
C2256 C2257 1.391 1_556 S
C2256 C2258 1.394 . S
C2256 H2272 0.931 . S
C2257 C2256 1.391 1_554 S
C2257 C2261 1.376 . S
C2258 C2256 1.394 . S
C2258 C2259 1.369 . S
C2258 C2262 1.531 . S
C2259 C2258 1.369 . S
C2259 C2260 1.410 1_556 S
C2259 C2267 1.503 . S
C2260 C2259 1.410 1_554 S
C2260 C2261 1.392 . S
C2260 C2263 1.511 . S
C2261 C2257 1.376 . S
C2261 C2260 1.392 . S
C2261 H2273 0.929 . S
C2262 C2258 1.531 . S
C2262 H2274 0.960 . S
C2262 H2275 0.962 . S
C2262 H2276 0.960 . S
C2263 C2260 1.511 . S
C2263 H2277 0.961 . S
C2263 H2278 0.961 . S
C2263 H2279 0.961 1_554 S
C2264 C2265 1.370 1_554 S
C2264 C2266 1.363 . S
C2264 H2280 0.931 . S
C2265 C2264 1.370 1_556 S
C2265 C2269 1.408 . S
C2266 C2264 1.363 . S
C2266 C2267 1.370 1_554 S
C2266 C2270 1.524 . S
C2267 C2259 1.503 . S
C2267 C2266 1.370 1_556 S
C2267 C2268 1.403 . S
C2268 C2267 1.403 . S
C2268 C2269 1.404 . S
C2268 C2271 1.539 . S
C2269 C2265 1.408 . S
C2269 C2268 1.404 . S
C2269 H2281 0.930 . S
C2270 C2266 1.524 . S
C2270 H2282 0.956 . S
C2270 H2283 0.961 . S
C2270 H2284 0.961 . S
C2271 C2268 1.539 . S
C2271 H2285 0.958 . S
C2271 H2286 0.961 . S
C2271 H2287 0.960 . S
H2272 C2256 0.931 . S
H2273 C2261 0.929 . S
H2274 C2262 0.960 . S
H2275 C2262 0.962 . S
H2276 C2262 0.960 . S
H2277 C2263 0.961 . S
H2278 C2263 0.961 . S
H2279 C2263 0.961 1_556 S
H2280 C2264 0.931 . S
H2281 C2269 0.930 . S
H2282 C2270 0.956 . S
H2283 C2270 0.961 . S
H2284 C2270 0.961 . S
H2285 C2271 0.958 . S
H2286 C2271 0.961 . S
H2287 C2271 0.960 . S
C2288 C2289 1.391 . S
C2288 C2290 1.394 . S
C2288 H2304 0.931 . S
C2289 C2288 1.391 . S
C2289 C2293 1.376 . S
C2290 C2288 1.394 . S
C2290 C2291 1.369 . S
C2290 C2294 1.531 . S
C2291 C2290 1.369 . S
C2291 C2292 1.410 . S
C2291 C2299 1.503 . S
C2292 C2291 1.410 . S
C2292 C2293 1.392 . S
C2292 C2295 1.511 . S
C2293 C2289 1.376 . S
C2293 C2292 1.392 . S
C2293 H2305 0.929 . S
C2294 C2290 1.531 . S
C2294 H2306 0.960 . S
C2294 H2307 0.962 . S
C2294 H2308 0.960 . S
C2295 C2292 1.511 . S
C2295 H2309 0.961 . S
C2295 H2310 0.961 . S
C2295 H2311 0.961 . S
C2296 C2297 1.370 . S
C2296 C2298 1.363 . S
C2296 H2312 0.931 . S
C2297 C2296 1.370 . S
C2297 C2301 1.408 . S
C2298 C2296 1.363 . S
C2298 C2299 1.370 . S
C2298 C2302 1.524 . S
C2299 C2291 1.503 . S
C2299 C2298 1.370 . S
C2299 C2300 1.403 . S
C2300 C2299 1.403 . S
C2300 C2301 1.404 . S
C2300 C2303 1.539 . S
C2301 C2297 1.408 . S
C2301 C2300 1.404 . S
C2301 H2313 0.930 . S
C2302 C2298 1.524 . S
C2302 H2314 0.956 . S
C2302 H2315 0.961 . S
C2302 H2316 0.961 1_554 S
C2303 C2300 1.539 . S
C2303 H2317 0.958 . S
C2303 H2318 0.961 . S
C2303 H2319 0.960 . S
H2304 C2288 0.931 . S
H2305 C2293 0.929 . S
H2306 C2294 0.960 . S
H2307 C2294 0.962 . S
H2308 C2294 0.960 . S
H2309 C2295 0.961 . S
H2310 C2295 0.961 . S
H2311 C2295 0.961 . S
H2312 C2296 0.931 . S
H2313 C2301 0.930 . S
H2314 C2302 0.956 . S
H2315 C2302 0.961 . S
H2316 C2302 0.961 1_556 S
H2317 C2303 0.958 . S
H2318 C2303 0.961 . S
H2319 C2303 0.960 . S
C2320 C2321 1.391 . S
C2320 C2322 1.394 . S
C2320 H2336 0.931 . S
C2321 C2320 1.391 . S
C2321 C2325 1.376 . S
C2322 C2320 1.394 . S
C2322 C2323 1.369 . S
C2322 C2326 1.531 . S
C2323 C2322 1.369 . S
C2323 C2324 1.410 . S
C2323 C2331 1.503 . S
C2324 C2323 1.410 . S
C2324 C2325 1.392 . S
C2324 C2327 1.511 . S
C2325 C2321 1.376 . S
C2325 C2324 1.392 . S
C2325 H2337 0.929 . S
C2326 C2322 1.531 . S
C2326 H2338 0.960 . S
C2326 H2339 0.962 . S
C2326 H2340 0.960 . S
C2327 C2324 1.511 . S
C2327 H2341 0.961 . S
C2327 H2342 0.961 . S
C2327 H2343 0.961 . S
C2328 C2329 1.370 . S
C2328 C2330 1.363 . S
C2328 H2344 0.931 . S
C2329 C2328 1.370 . S
C2329 C2333 1.408 . S
C2330 C2328 1.363 . S
C2330 C2331 1.370 . S
C2330 C2334 1.524 . S
C2331 C2323 1.503 . S
C2331 C2330 1.370 . S
C2331 C2332 1.403 . S
C2332 C2331 1.403 . S
C2332 C2333 1.404 . S
C2332 C2335 1.539 . S
C2333 C2329 1.408 . S
C2333 C2332 1.404 . S
C2333 H2345 0.930 . S
C2334 C2330 1.524 . S
C2334 H2346 0.956 . S
C2334 H2347 0.961 . S
C2334 H2348 0.961 . S
C2335 C2332 1.539 . S
C2335 H2349 0.958 . S
C2335 H2350 0.961 . S
C2335 H2351 0.960 . S
H2336 C2320 0.931 . S
H2337 C2325 0.929 . S
H2338 C2326 0.960 . S
H2339 C2326 0.962 . S
H2340 C2326 0.960 . S
H2341 C2327 0.961 . S
H2342 C2327 0.961 . S
H2343 C2327 0.961 . S
H2344 C2328 0.931 . S
H2345 C2333 0.930 . S
H2346 C2334 0.956 . S
H2347 C2334 0.961 . S
H2348 C2334 0.961 . S
H2349 C2335 0.958 . S
H2350 C2335 0.961 . S
H2351 C2335 0.960 . S
C2352 C2353 1.391 . S
C2352 C2354 1.394 . S
C2352 H2368 0.931 . S
C2353 C2352 1.391 . S
C2353 C2357 1.376 . S
C2354 C2352 1.394 . S
C2354 C2355 1.369 . S
C2354 C2358 1.531 . S
C2355 C2354 1.369 . S
C2355 C2356 1.410 . S
C2355 C2363 1.503 . S
C2356 C2355 1.410 . S
C2356 C2357 1.392 . S
C2356 C2359 1.511 . S
C2357 C2353 1.376 . S
C2357 C2356 1.392 . S
C2357 H2369 0.929 . S
C2358 C2354 1.531 . S
C2358 H2370 0.960 . S
C2358 H2371 0.962 . S
C2358 H2372 0.960 . S
C2359 C2356 1.511 . S
C2359 H2373 0.961 . S
C2359 H2374 0.961 . S
C2359 H2375 0.961 . S
C2360 C2361 1.370 . S
C2360 C2362 1.363 . S
C2360 H2376 0.931 . S
C2361 C2360 1.370 . S
C2361 C2365 1.408 . S
C2362 C2360 1.363 . S
C2362 C2363 1.370 . S
C2362 C2366 1.524 . S
C2363 C2355 1.503 . S
C2363 C2362 1.370 . S
C2363 C2364 1.403 . S
C2364 C2363 1.403 . S
C2364 C2365 1.404 . S
C2364 C2367 1.539 . S
C2365 C2361 1.408 . S
C2365 C2364 1.404 . S
C2365 H2377 0.930 . S
C2366 C2362 1.524 . S
C2366 H2378 0.956 . S
C2366 H2379 0.961 . S
C2366 H2380 0.961 . S
C2367 C2364 1.539 . S
C2367 H2381 0.958 . S
C2367 H2382 0.961 . S
C2367 H2383 0.960 . S
H2368 C2352 0.931 . S
H2369 C2357 0.929 . S
H2370 C2358 0.960 . S
H2371 C2358 0.962 . S
H2372 C2358 0.960 . S
H2373 C2359 0.961 . S
H2374 C2359 0.961 . S
H2375 C2359 0.961 . S
H2376 C2360 0.931 . S
H2377 C2365 0.930 . S
H2378 C2366 0.956 . S
H2379 C2366 0.961 . S
H2380 C2366 0.961 . S
H2381 C2367 0.958 . S
H2382 C2367 0.961 . S
H2383 C2367 0.960 . S
C2384 C2385 1.391 . S
C2384 C2386 1.394 . S
C2384 H2400 0.931 . S
C2385 C2384 1.391 . S
C2385 C2389 1.376 . S
C2386 C2384 1.394 . S
C2386 C2387 1.369 . S
C2386 C2390 1.531 . S
C2387 C2386 1.369 . S
C2387 C2388 1.410 . S
C2387 C2395 1.503 . S
C2388 C2387 1.410 . S
C2388 C2389 1.392 . S
C2388 C2391 1.511 . S
C2389 C2385 1.376 . S
C2389 C2388 1.392 . S
C2389 H2401 0.929 . S
C2390 C2386 1.531 . S
C2390 H2402 0.960 . S
C2390 H2403 0.962 . S
C2390 H2404 0.960 . S
C2391 C2388 1.511 . S
C2391 H2405 0.961 . S
C2391 H2406 0.961 . S
C2391 H2407 0.961 . S
C2392 C2393 1.370 . S
C2392 C2394 1.363 . S
C2392 H2408 0.931 . S
C2393 C2392 1.370 . S
C2393 C2397 1.408 . S
C2394 C2392 1.363 . S
C2394 C2395 1.370 . S
C2394 C2398 1.524 . S
C2395 C2387 1.503 . S
C2395 C2394 1.370 . S
C2395 C2396 1.403 . S
C2396 C2395 1.403 . S
C2396 C2397 1.404 . S
C2396 C2399 1.539 . S
C2397 C2393 1.408 . S
C2397 C2396 1.404 . S
C2397 H2409 0.930 . S
C2398 C2394 1.524 . S
C2398 H2410 0.956 . S
C2398 H2411 0.961 . S
C2398 H2412 0.961 . S
C2399 C2396 1.539 . S
C2399 H2413 0.958 . S
C2399 H2414 0.961 . S
C2399 H2415 0.960 . S
H2400 C2384 0.931 . S
H2401 C2389 0.929 . S
H2402 C2390 0.960 . S
H2403 C2390 0.962 . S
H2404 C2390 0.960 . S
H2405 C2391 0.961 . S
H2406 C2391 0.961 . S
H2407 C2391 0.961 . S
H2408 C2392 0.931 . S
H2409 C2397 0.930 . S
H2410 C2398 0.956 . S
H2411 C2398 0.961 . S
H2412 C2398 0.961 . S
H2413 C2399 0.958 . S
H2414 C2399 0.961 . S
H2415 C2399 0.960 . S
C2416 C2417 1.391 . S
C2416 C2418 1.394 . S
C2416 H2432 0.931 . S
C2417 C2416 1.391 . S
C2417 C2421 1.376 . S
C2418 C2416 1.394 . S
C2418 C2419 1.369 . S
C2418 C2422 1.531 1_565 S
C2419 C2418 1.369 . S
C2419 C2420 1.410 . S
C2419 C2427 1.503 . S
C2420 C2419 1.410 . S
C2420 C2421 1.392 . S
C2420 C2423 1.511 . S
C2421 C2417 1.376 . S
C2421 C2420 1.392 . S
C2421 H2433 0.929 . S
C2422 C2418 1.531 1_545 S
C2422 H2434 0.960 . S
C2422 H2435 0.962 . S
C2422 H2436 0.960 . S
C2423 C2420 1.511 . S
C2423 H2437 0.961 . S
C2423 H2438 0.961 . S
C2423 H2439 0.961 . S
C2424 C2425 1.370 . S
C2424 C2426 1.363 . S
C2424 H2440 0.931 . S
C2425 C2424 1.370 . S
C2425 C2429 1.408 . S
C2426 C2424 1.363 . S
C2426 C2427 1.370 1_545 S
C2426 C2430 1.524 . S
C2427 C2419 1.503 . S
C2427 C2426 1.370 1_565 S
C2427 C2428 1.403 . S
C2428 C2427 1.403 . S
C2428 C2429 1.404 1_565 S
C2428 C2431 1.539 . S
C2429 C2425 1.408 . S
C2429 C2428 1.404 1_545 S
C2429 H2441 0.925 . S
C2430 C2426 1.524 . S
C2430 H2442 0.956 . S
C2430 H2443 0.961 1_545 S
C2430 H2444 0.961 . S
C2431 C2428 1.539 . S
C2431 H2445 0.958 . S
C2431 H2446 0.961 . S
C2431 H2447 0.960 . S
H2432 C2416 0.931 . S
H2433 C2421 0.929 . S
H2434 C2422 0.960 . S
H2435 C2422 0.962 . S
H2436 C2422 0.960 . S
H2437 C2423 0.961 . S
H2438 C2423 0.961 . S
H2439 C2423 0.961 . S
H2440 C2424 0.931 . S
H2441 C2429 0.925 . S
H2442 C2430 0.956 . S
H2443 C2430 0.961 1_565 S
H2444 C2430 0.961 . S
H2445 C2431 0.958 . S
H2446 C2431 0.961 . S
H2447 C2431 0.960 . S
C2448 C2449 1.391 . S
C2448 C2450 1.394 . S
C2448 H2464 0.931 . S
C2449 C2448 1.391 . S
C2449 C2453 1.376 . S
C2450 C2448 1.394 . S
C2450 C2451 1.369 . S
C2450 C2454 1.531 . S
C2451 C2450 1.369 . S
C2451 C2452 1.410 . S
C2451 C2459 1.503 . S
C2452 C2451 1.410 . S
C2452 C2453 1.392 . S
C2452 C2455 1.511 . S
C2453 C2449 1.376 . S
C2453 C2452 1.392 . S
C2453 H2465 0.929 . S
C2454 C2450 1.531 . S
C2454 H2466 0.960 . S
C2454 H2467 0.962 . S
C2454 H2468 0.960 . S
C2455 C2452 1.511 . S
C2455 H2469 0.961 . S
C2455 H2470 0.961 . S
C2455 H2471 0.961 . S
C2456 C2457 1.370 . S
C2456 C2458 1.363 . S
C2456 H2472 0.931 . S
C2457 C2456 1.370 . S
C2457 C2461 1.408 . S
C2458 C2456 1.363 . S
C2458 C2459 1.370 . S
C2458 C2462 1.524 . S
C2459 C2451 1.503 . S
C2459 C2458 1.370 . S
C2459 C2460 1.403 . S
C2460 C2459 1.403 . S
C2460 C2461 1.404 . S
C2460 C2463 1.539 . S
C2461 C2457 1.408 . S
C2461 C2460 1.404 . S
C2461 H2473 0.930 . S
C2462 C2458 1.524 . S
C2462 H2474 0.956 . S
C2462 H2475 0.961 . S
C2462 H2476 0.961 . S
C2463 C2460 1.539 . S
C2463 H2477 0.958 . S
C2463 H2478 0.961 . S
C2463 H2479 0.960 . S
H2464 C2448 0.931 . S
H2465 C2453 0.929 . S
H2466 C2454 0.960 . S
H2467 C2454 0.962 . S
H2468 C2454 0.960 . S
H2469 C2455 0.961 . S
H2470 C2455 0.961 . S
H2471 C2455 0.961 . S
H2472 C2456 0.931 . S
H2473 C2461 0.930 . S
H2474 C2462 0.956 . S
H2475 C2462 0.961 . S
H2476 C2462 0.961 . S
H2477 C2463 0.958 . S
H2478 C2463 0.961 . S
H2479 C2463 0.960 . S
C2480 C2481 1.391 . S
C2480 C2482 1.394 . S
C2480 H2496 0.931 . S
C2481 C2480 1.391 . S
C2481 C2485 1.376 . S
C2482 C2480 1.394 . S
C2482 C2483 1.369 . S
C2482 C2486 1.531 . S
C2483 C2482 1.369 . S
C2483 C2484 1.410 . S
C2483 C2491 1.503 . S
C2484 C2483 1.410 . S
C2484 C2485 1.392 . S
C2484 C2487 1.511 . S
C2485 C2481 1.376 . S
C2485 C2484 1.392 . S
C2485 H2497 0.929 . S
C2486 C2482 1.531 . S
C2486 H2498 0.960 . S
C2486 H2499 0.962 . S
C2486 H2500 0.960 . S
C2487 C2484 1.511 . S
C2487 H2501 0.961 . S
C2487 H2502 0.961 . S
C2487 H2503 0.961 . S
C2488 C2489 1.370 . S
C2488 C2490 1.363 . S
C2488 H2504 0.931 . S
C2489 C2488 1.370 . S
C2489 C2493 1.408 . S
C2490 C2488 1.363 . S
C2490 C2491 1.370 . S
C2490 C2494 1.524 . S
C2491 C2483 1.503 . S
C2491 C2490 1.370 . S
C2491 C2492 1.403 . S
C2492 C2491 1.403 . S
C2492 C2493 1.404 . S
C2492 C2495 1.539 . S
C2493 C2489 1.408 . S
C2493 C2492 1.404 . S
C2493 H2505 0.930 . S
C2494 C2490 1.524 . S
C2494 H2506 0.956 . S
C2494 H2507 0.961 . S
C2494 H2508 0.961 . S
C2495 C2492 1.539 . S
C2495 H2509 0.958 . S
C2495 H2510 0.961 . S
C2495 H2511 0.960 . S
H2496 C2480 0.931 . S
H2497 C2485 0.929 . S
H2498 C2486 0.960 . S
H2499 C2486 0.962 . S
H2500 C2486 0.960 . S
H2501 C2487 0.961 . S
H2502 C2487 0.961 . S
H2503 C2487 0.961 . S
H2504 C2488 0.931 . S
H2505 C2493 0.930 . S
H2506 C2494 0.956 . S
H2507 C2494 0.961 . S
H2508 C2494 0.961 . S
H2509 C2495 0.958 . S
H2510 C2495 0.961 . S
H2511 C2495 0.960 . S
C2512 C2513 1.391 . S
C2512 C2514 1.394 . S
C2512 H2528 0.931 . S
C2513 C2512 1.391 . S
C2513 C2517 1.376 . S
C2514 C2512 1.394 . S
C2514 C2515 1.369 . S
C2514 C2518 1.531 . S
C2515 C2514 1.369 . S
C2515 C2516 1.410 . S
C2515 C2523 1.503 . S
C2516 C2515 1.410 . S
C2516 C2517 1.392 . S
C2516 C2519 1.511 . S
C2517 C2513 1.376 . S
C2517 C2516 1.392 . S
C2517 H2529 0.929 . S
C2518 C2514 1.531 . S
C2518 H2530 0.960 . S
C2518 H2531 0.962 . S
C2518 H2532 0.960 . S
C2519 C2516 1.511 . S
C2519 H2533 0.961 . S
C2519 H2534 0.961 . S
C2519 H2535 0.961 . S
C2520 C2521 1.370 . S
C2520 C2522 1.363 . S
C2520 H2536 0.931 . S
C2521 C2520 1.370 . S
C2521 C2525 1.408 . S
C2522 C2520 1.363 . S
C2522 C2523 1.370 . S
C2522 C2526 1.524 . S
C2523 C2515 1.503 . S
C2523 C2522 1.370 . S
C2523 C2524 1.403 . S
C2524 C2523 1.403 . S
C2524 C2525 1.404 . S
C2524 C2527 1.539 . S
C2525 C2521 1.408 . S
C2525 C2524 1.404 . S
C2525 H2537 0.930 . S
C2526 C2522 1.524 . S
C2526 H2538 0.956 . S
C2526 H2539 0.961 . S
C2526 H2540 0.961 . S
C2527 C2524 1.539 . S
C2527 H2541 0.958 . S
C2527 H2542 0.961 . S
C2527 H2543 0.960 . S
H2528 C2512 0.931 . S
H2529 C2517 0.929 . S
H2530 C2518 0.960 . S
H2531 C2518 0.962 . S
H2532 C2518 0.960 . S
H2533 C2519 0.961 . S
H2534 C2519 0.961 . S
H2535 C2519 0.961 . S
H2536 C2520 0.931 . S
H2537 C2525 0.930 . S
H2538 C2526 0.956 . S
H2539 C2526 0.961 . S
H2540 C2526 0.961 . S
H2541 C2527 0.958 . S
H2542 C2527 0.961 . S
H2543 C2527 0.960 . S
C2544 C2545 1.391 . S
C2544 C2546 1.394 . S
C2544 H2560 0.931 . S
C2545 C2544 1.391 . S
C2545 C2549 1.376 . S
C2546 C2544 1.394 . S
C2546 C2547 1.369 . S
C2546 C2550 1.531 . S
C2547 C2546 1.369 . S
C2547 C2548 1.410 . S
C2547 C2555 1.503 . S
C2548 C2547 1.410 . S
C2548 C2549 1.392 . S
C2548 C2551 1.511 . S
C2549 C2545 1.376 . S
C2549 C2548 1.392 . S
C2549 H2561 0.929 . S
C2550 C2546 1.531 . S
C2550 H2562 0.960 . S
C2550 H2563 0.962 . S
C2550 H2564 0.960 . S
C2551 C2548 1.511 . S
C2551 H2565 0.961 . S
C2551 H2566 0.961 . S
C2551 H2567 0.961 . S
C2552 C2553 1.370 . S
C2552 C2554 1.363 . S
C2552 H2568 0.931 . S
C2553 C2552 1.370 . S
C2553 C2557 1.408 . S
C2554 C2552 1.363 . S
C2554 C2555 1.370 . S
C2554 C2558 1.524 . S
C2555 C2547 1.503 . S
C2555 C2554 1.370 . S
C2555 C2556 1.403 . S
C2556 C2555 1.403 . S
C2556 C2557 1.404 . S
C2556 C2559 1.539 . S
C2557 C2553 1.408 . S
C2557 C2556 1.404 . S
C2557 H2569 0.930 . S
C2558 C2554 1.524 . S
C2558 H2570 0.956 . S
C2558 H2571 0.961 . S
C2558 H2572 0.961 . S
C2559 C2556 1.539 . S
C2559 H2573 0.958 . S
C2559 H2574 0.961 . S
C2559 H2575 0.960 . S
H2560 C2544 0.931 . S
H2561 C2549 0.929 . S
H2562 C2550 0.960 . S
H2563 C2550 0.962 . S
H2564 C2550 0.960 . S
H2565 C2551 0.961 . S
H2566 C2551 0.961 . S
H2567 C2551 0.961 . S
H2568 C2552 0.931 . S
H2569 C2557 0.930 . S
H2570 C2558 0.956 . S
H2571 C2558 0.961 . S
H2572 C2558 0.961 . S
H2573 C2559 0.958 . S
H2574 C2559 0.961 . S
H2575 C2559 0.960 . S
C2576 C2577 1.391 . S
C2576 C2578 1.394 . S
C2576 H2592 0.931 . S
C2577 C2576 1.391 . S
C2577 C2581 1.376 . S
C2578 C2576 1.394 . S
C2578 C2579 1.369 . S
C2578 C2582 1.531 . S
C2579 C2578 1.369 . S
C2579 C2580 1.410 . S
C2579 C2587 1.503 . S
C2580 C2579 1.410 . S
C2580 C2581 1.392 . S
C2580 C2583 1.511 1_455 S
C2581 C2577 1.376 . S
C2581 C2580 1.392 . S
C2581 H2593 0.948 . S
C2582 C2578 1.531 . S
C2582 H2594 0.960 . S
C2582 H2595 0.962 . S
C2582 H2596 0.960 . S
C2583 C2580 1.511 1_655 S
C2583 H2597 0.961 . S
C2583 H2598 0.961 1_656 S
C2583 H2599 0.961 . S
C2584 C2585 1.370 . S
C2584 C2586 1.363 . S
C2584 H2600 0.931 . S
C2585 C2584 1.370 . S
C2585 C2589 1.409 . S
C2586 C2584 1.363 . S
C2586 C2587 1.370 1_554 S
C2586 C2590 1.524 . S
C2587 C2579 1.503 . S
C2587 C2586 1.370 1_556 S
C2587 C2588 1.403 . S
C2588 C2587 1.403 . S
C2588 C2589 1.403 1_556 S
C2588 C2591 1.539 . S
C2589 C2585 1.409 . S
C2589 C2588 1.403 1_554 S
C2589 H2601 0.929 1_554 S
C2590 C2586 1.524 . S
C2590 H2602 0.956 . S
C2590 H2603 0.961 . S
C2590 H2604 0.961 . S
C2591 C2588 1.539 . S
C2591 H2605 0.958 . S
C2591 H2606 0.961 . S
C2591 H2607 0.960 . S
H2592 C2576 0.931 . S
H2593 C2581 0.948 . S
H2594 C2582 0.960 . S
H2595 C2582 0.962 . S
H2596 C2582 0.960 . S
H2597 C2583 0.961 . S
H2598 C2583 0.961 1_454 S
H2599 C2583 0.961 . S
H2600 C2584 0.931 . S
H2601 C2589 0.929 1_556 S
H2602 C2590 0.956 . S
H2603 C2590 0.961 . S
H2604 C2590 0.961 . S
H2605 C2591 0.958 . S
H2606 C2591 0.961 . S
H2607 C2591 0.960 . S
C2608 C2609 1.391 1_655 S
C2608 C2610 1.394 . S
C2608 H2624 0.931 . S
C2609 C2608 1.391 1_455 S
C2609 C2613 1.376 . S
C2610 C2608 1.394 . S
C2610 C2611 1.369 . S
C2610 C2614 1.531 . S
C2611 C2610 1.369 . S
C2611 C2612 1.410 . S
C2611 C2619 1.503 . S
C2612 C2611 1.410 . S
C2612 C2613 1.392 1_655 S
C2612 C2615 1.511 . S
C2613 C2609 1.376 . S
C2613 C2612 1.392 1_455 S
C2613 H2625 0.929 . S
C2614 C2610 1.531 . S
C2614 H2626 0.960 . S
C2614 H2627 0.962 . S
C2614 H2628 0.960 . S
C2615 C2612 1.511 . S
C2615 H2629 0.961 1_655 S
C2615 H2630 0.961 . S
C2615 H2631 0.961 . S
C2616 C2617 1.370 . S
C2616 C2618 1.363 . S
C2616 H2632 0.931 . S
C2617 C2616 1.370 . S
C2617 C2621 1.408 . S
C2618 C2616 1.363 . S
C2618 C2619 1.370 . S
C2618 C2622 1.524 . S
C2619 C2611 1.503 . S
C2619 C2618 1.370 . S
C2619 C2620 1.403 . S
C2620 C2619 1.403 . S
C2620 C2621 1.404 . S
C2620 C2623 1.539 . S
C2621 C2617 1.408 . S
C2621 C2620 1.404 . S
C2621 H2633 0.930 . S
C2622 C2618 1.524 . S
C2622 H2634 0.956 . S
C2622 H2635 0.961 . S
C2622 H2636 0.961 . S
C2623 C2620 1.539 . S
C2623 H2637 0.958 . S
C2623 H2638 0.961 . S
C2623 H2639 0.960 . S
H2624 C2608 0.931 . S
H2625 C2613 0.929 . S
H2626 C2614 0.960 . S
H2627 C2614 0.962 . S
H2628 C2614 0.960 . S
H2629 C2615 0.961 1_455 S
H2630 C2615 0.961 . S
H2631 C2615 0.961 . S
H2632 C2616 0.931 . S
H2633 C2621 0.930 . S
H2634 C2622 0.956 . S
H2635 C2622 0.961 . S
H2636 C2622 0.961 . S
H2637 C2623 0.958 . S
H2638 C2623 0.961 . S
H2639 C2623 0.960 . S
C2640 C2641 1.391 . S
C2640 C2642 1.394 . S
C2640 H2656 0.931 . S
C2641 C2640 1.391 . S
C2641 C2645 1.376 . S
C2642 C2640 1.394 . S
C2642 C2643 1.369 . S
C2642 C2646 1.531 . S
C2643 C2642 1.369 . S
C2643 C2644 1.410 . S
C2643 C2651 1.503 . S
C2644 C2643 1.410 . S
C2644 C2645 1.392 . S
C2644 C2647 1.511 . S
C2645 C2641 1.376 . S
C2645 C2644 1.392 . S
C2645 H2657 0.929 . S
C2646 C2642 1.531 . S
C2646 H2658 0.960 . S
C2646 H2659 0.962 . S
C2646 H2660 0.960 . S
C2647 C2644 1.511 . S
C2647 H2661 0.961 . S
C2647 H2662 0.961 . S
C2647 H2663 0.961 . S
C2648 C2649 1.370 . S
C2648 C2650 1.363 . S
C2648 H2664 0.931 . S
C2649 C2648 1.370 . S
C2649 C2653 1.408 . S
C2650 C2648 1.363 . S
C2650 C2651 1.370 . S
C2650 C2654 1.524 . S
C2651 C2643 1.503 . S
C2651 C2650 1.370 . S
C2651 C2652 1.403 . S
C2652 C2651 1.403 . S
C2652 C2653 1.404 . S
C2652 C2655 1.539 . S
C2653 C2649 1.408 . S
C2653 C2652 1.404 . S
C2653 H2665 0.930 . S
C2654 C2650 1.524 . S
C2654 H2666 0.956 . S
C2654 H2667 0.961 . S
C2654 H2668 0.961 . S
C2655 C2652 1.539 . S
C2655 H2669 0.958 . S
C2655 H2670 0.961 . S
C2655 H2671 0.960 . S
H2656 C2640 0.931 . S
H2657 C2645 0.929 . S
H2658 C2646 0.960 . S
H2659 C2646 0.962 . S
H2660 C2646 0.960 . S
H2661 C2647 0.961 . S
H2662 C2647 0.961 . S
H2663 C2647 0.961 . S
H2664 C2648 0.931 . S
H2665 C2653 0.930 . S
H2666 C2654 0.956 . S
H2667 C2654 0.961 . S
H2668 C2654 0.961 . S
H2669 C2655 0.958 . S
H2670 C2655 0.961 . S
H2671 C2655 0.960 . S
C2672 C2673 1.391 . S
C2672 C2674 1.394 . S
C2672 H2688 0.931 . S
C2673 C2672 1.391 . S
C2673 C2677 1.376 . S
C2674 C2672 1.394 . S
C2674 C2675 1.369 . S
C2674 C2678 1.531 . S
C2675 C2674 1.369 . S
C2675 C2676 1.410 . S
C2675 C2683 1.503 . S
C2676 C2675 1.410 . S
C2676 C2677 1.392 . S
C2676 C2679 1.511 . S
C2677 C2673 1.376 . S
C2677 C2676 1.392 . S
C2677 H2689 0.929 . S
C2678 C2674 1.531 . S
C2678 H2690 0.960 . S
C2678 H2691 0.962 . S
C2678 H2692 0.960 . S
C2679 C2676 1.511 . S
C2679 H2693 0.961 . S
C2679 H2694 0.961 . S
C2679 H2695 0.961 . S
C2680 C2681 1.370 . S
C2680 C2682 1.363 . S
C2680 H2696 0.931 . S
C2681 C2680 1.370 . S
C2681 C2685 1.408 . S
C2682 C2680 1.363 . S
C2682 C2683 1.370 . S
C2682 C2686 1.524 . S
C2683 C2675 1.503 . S
C2683 C2682 1.370 . S
C2683 C2684 1.403 . S
C2684 C2683 1.403 . S
C2684 C2685 1.404 . S
C2684 C2687 1.539 . S
C2685 C2681 1.408 . S
C2685 C2684 1.404 . S
C2685 H2697 0.930 . S
C2686 C2682 1.524 . S
C2686 H2698 0.956 . S
C2686 H2699 0.961 . S
C2686 H2700 0.961 . S
C2687 C2684 1.539 . S
C2687 H2701 0.958 . S
C2687 H2702 0.961 . S
C2687 H2703 0.960 . S
H2688 C2672 0.931 . S
H2689 C2677 0.929 . S
H2690 C2678 0.960 . S
H2691 C2678 0.962 . S
H2692 C2678 0.960 . S
H2693 C2679 0.961 . S
H2694 C2679 0.961 . S
H2695 C2679 0.961 . S
H2696 C2680 0.931 . S
H2697 C2685 0.930 . S
H2698 C2686 0.956 . S
H2699 C2686 0.961 . S
H2700 C2686 0.961 . S
H2701 C2687 0.958 . S
H2702 C2687 0.961 . S
H2703 C2687 0.960 . S
C2704 C2705 1.391 . S
C2704 C2706 1.394 . S
C2704 H2720 0.931 . S
C2705 C2704 1.391 . S
C2705 C2709 1.376 . S
C2706 C2704 1.394 . S
C2706 C2707 1.369 . S
C2706 C2710 1.531 . S
C2707 C2706 1.369 . S
C2707 C2708 1.410 . S
C2707 C2715 1.503 . S
C2708 C2707 1.410 . S
C2708 C2709 1.392 . S
C2708 C2711 1.511 . S
C2709 C2705 1.376 . S
C2709 C2708 1.392 . S
C2709 H2721 0.929 . S
C2710 C2706 1.531 . S
C2710 H2722 0.960 . S
C2710 H2723 0.962 . S
C2710 H2724 0.960 . S
C2711 C2708 1.511 . S
C2711 H2725 0.961 . S
C2711 H2726 0.961 . S
C2711 H2727 0.961 . S
C2712 C2713 1.370 . S
C2712 C2714 1.363 . S
C2712 H2728 0.931 . S
C2713 C2712 1.370 . S
C2713 C2717 1.408 . S
C2714 C2712 1.363 . S
C2714 C2715 1.370 . S
C2714 C2718 1.524 . S
C2715 C2707 1.503 . S
C2715 C2714 1.370 . S
C2715 C2716 1.403 . S
C2716 C2715 1.403 . S
C2716 C2717 1.404 . S
C2716 C2719 1.539 . S
C2717 C2713 1.408 . S
C2717 C2716 1.404 . S
C2717 H2729 0.930 . S
C2718 C2714 1.524 . S
C2718 H2730 0.956 . S
C2718 H2731 0.961 . S
C2718 H2732 0.961 . S
C2719 C2716 1.539 . S
C2719 H2733 0.958 . S
C2719 H2734 0.961 . S
C2719 H2735 0.960 . S
H2720 C2704 0.931 . S
H2721 C2709 0.929 . S
H2722 C2710 0.960 . S
H2723 C2710 0.962 . S
H2724 C2710 0.960 . S
H2725 C2711 0.961 . S
H2726 C2711 0.961 . S
H2727 C2711 0.961 . S
H2728 C2712 0.931 . S
H2729 C2717 0.930 . S
H2730 C2718 0.956 . S
H2731 C2718 0.961 . S
H2732 C2718 0.961 . S
H2733 C2719 0.958 . S
H2734 C2719 0.961 . S
H2735 C2719 0.960 . S
C2736 C2737 1.391 . S
C2736 C2738 1.394 . S
C2736 H2752 0.931 . S
C2737 C2736 1.391 . S
C2737 C2741 1.376 . S
C2738 C2736 1.394 . S
C2738 C2739 1.369 . S
C2738 C2742 1.531 . S
C2739 C2738 1.369 . S
C2739 C2740 1.410 . S
C2739 C2747 1.503 . S
C2740 C2739 1.410 . S
C2740 C2741 1.392 . S
C2740 C2743 1.511 . S
C2741 C2737 1.376 . S
C2741 C2740 1.392 . S
C2741 H2753 0.929 . S
C2742 C2738 1.531 . S
C2742 H2754 0.960 . S
C2742 H2755 0.962 . S
C2742 H2756 0.960 . S
C2743 C2740 1.511 . S
C2743 H2757 0.961 . S
C2743 H2758 0.961 . S
C2743 H2759 0.961 . S
C2744 C2745 1.370 . S
C2744 C2746 1.363 . S
C2744 H2760 0.931 . S
C2745 C2744 1.370 . S
C2745 C2749 1.408 . S
C2746 C2744 1.363 . S
C2746 C2747 1.370 . S
C2746 C2750 1.524 . S
C2747 C2739 1.503 . S
C2747 C2746 1.370 . S
C2747 C2748 1.403 . S
C2748 C2747 1.403 . S
C2748 C2749 1.404 . S
C2748 C2751 1.539 . S
C2749 C2745 1.408 . S
C2749 C2748 1.404 . S
C2749 H2761 0.930 . S
C2750 C2746 1.524 . S
C2750 H2762 0.956 . S
C2750 H2763 0.961 . S
C2750 H2764 0.961 . S
C2751 C2748 1.539 . S
C2751 H2765 0.958 . S
C2751 H2766 0.961 . S
C2751 H2767 0.960 . S
H2752 C2736 0.931 . S
H2753 C2741 0.929 . S
H2754 C2742 0.960 . S
H2755 C2742 0.962 . S
H2756 C2742 0.960 . S
H2757 C2743 0.961 . S
H2758 C2743 0.961 . S
H2759 C2743 0.961 . S
H2760 C2744 0.931 . S
H2761 C2749 0.930 . S
H2762 C2750 0.956 . S
H2763 C2750 0.961 . S
H2764 C2750 0.961 . S
H2765 C2751 0.958 . S
H2766 C2751 0.961 . S
H2767 C2751 0.960 . S
C2768 C2769 1.391 . S
C2768 C2770 1.394 . S
C2768 H2784 0.931 . S
C2769 C2768 1.391 . S
C2769 C2773 1.376 . S
C2770 C2768 1.394 . S
C2770 C2771 1.369 . S
C2770 C2774 1.531 . S
C2771 C2770 1.369 . S
C2771 C2772 1.410 . S
C2771 C2779 1.503 . S
C2772 C2771 1.410 . S
C2772 C2773 1.392 . S
C2772 C2775 1.511 . S
C2773 C2769 1.376 . S
C2773 C2772 1.392 . S
C2773 H2785 0.929 . S
C2774 C2770 1.531 . S
C2774 H2786 0.960 . S
C2774 H2787 0.962 . S
C2774 H2788 0.960 . S
C2775 C2772 1.511 . S
C2775 H2789 0.961 . S
C2775 H2790 0.961 . S
C2775 H2791 0.961 . S
C2776 C2777 1.370 . S
C2776 C2778 1.363 . S
C2776 H2792 0.931 . S
C2777 C2776 1.370 . S
C2777 C2781 1.408 . S
C2778 C2776 1.363 . S
C2778 C2779 1.370 . S
C2778 C2782 1.524 . S
C2779 C2771 1.503 . S
C2779 C2778 1.370 . S
C2779 C2780 1.403 . S
C2780 C2779 1.403 . S
C2780 C2781 1.404 . S
C2780 C2783 1.539 . S
C2781 C2777 1.408 . S
C2781 C2780 1.404 . S
C2781 H2793 0.930 . S
C2782 C2778 1.524 . S
C2782 H2794 0.956 . S
C2782 H2795 0.961 . S
C2782 H2796 0.961 . S
C2783 C2780 1.539 . S
C2783 H2797 0.958 . S
C2783 H2798 0.961 . S
C2783 H2799 0.960 . S
H2784 C2768 0.931 . S
H2785 C2773 0.929 . S
H2786 C2774 0.960 . S
H2787 C2774 0.962 . S
H2788 C2774 0.960 . S
H2789 C2775 0.961 . S
H2790 C2775 0.961 . S
H2791 C2775 0.961 . S
H2792 C2776 0.931 . S
H2793 C2781 0.930 . S
H2794 C2782 0.956 . S
H2795 C2782 0.961 . S
H2796 C2782 0.961 . S
H2797 C2783 0.958 . S
H2798 C2783 0.961 . S
H2799 C2783 0.960 . S
C2800 C2801 1.391 . S
C2800 C2802 1.394 . S
C2800 H2816 0.931 . S
C2801 C2800 1.391 . S
C2801 C2805 1.376 . S
C2802 C2800 1.394 . S
C2802 C2803 1.369 . S
C2802 C2806 1.531 . S
C2803 C2802 1.369 . S
C2803 C2804 1.410 . S
C2803 C2811 1.503 . S
C2804 C2803 1.410 . S
C2804 C2805 1.392 . S
C2804 C2807 1.511 . S
C2805 C2801 1.376 . S
C2805 C2804 1.392 . S
C2805 H2817 0.929 . S
C2806 C2802 1.531 . S
C2806 H2818 0.960 . S
C2806 H2819 0.962 . S
C2806 H2820 0.960 . S
C2807 C2804 1.511 . S
C2807 H2821 0.961 . S
C2807 H2822 0.961 . S
C2807 H2823 0.961 . S
C2808 C2809 1.370 . S
C2808 C2810 1.363 . S
C2808 H2824 0.931 . S
C2809 C2808 1.370 . S
C2809 C2813 1.408 . S
C2810 C2808 1.363 . S
C2810 C2811 1.370 . S
C2810 C2814 1.524 . S
C2811 C2803 1.503 . S
C2811 C2810 1.370 . S
C2811 C2812 1.403 . S
C2812 C2811 1.403 . S
C2812 C2813 1.404 . S
C2812 C2815 1.539 . S
C2813 C2809 1.408 . S
C2813 C2812 1.404 . S
C2813 H2825 0.930 . S
C2814 C2810 1.524 . S
C2814 H2826 0.956 . S
C2814 H2827 0.961 . S
C2814 H2828 0.961 . S
C2815 C2812 1.539 . S
C2815 H2829 0.958 . S
C2815 H2830 0.961 . S
C2815 H2831 0.960 . S
H2816 C2800 0.931 . S
H2817 C2805 0.929 . S
H2818 C2806 0.960 . S
H2819 C2806 0.962 . S
H2820 C2806 0.960 . S
H2821 C2807 0.961 . S
H2822 C2807 0.961 . S
H2823 C2807 0.961 . S
H2824 C2808 0.931 . S
H2825 C2813 0.930 . S
H2826 C2814 0.956 . S
H2827 C2814 0.961 . S
H2828 C2814 0.961 . S
H2829 C2815 0.958 . S
H2830 C2815 0.961 . S
H2831 C2815 0.960 . S
C2832 C2833 1.391 . S
C2832 C2834 1.394 . S
C2832 H2848 0.931 . S
C2833 C2832 1.391 . S
C2833 C2837 1.376 . S
C2834 C2832 1.394 . S
C2834 C2835 1.369 . S
C2834 C2838 1.531 . S
C2835 C2834 1.369 . S
C2835 C2836 1.410 . S
C2835 C2843 1.503 . S
C2836 C2835 1.410 . S
C2836 C2837 1.392 . S
C2836 C2839 1.511 . S
C2837 C2833 1.376 . S
C2837 C2836 1.392 . S
C2837 H2849 0.929 . S
C2838 C2834 1.531 . S
C2838 H2850 0.960 . S
C2838 H2851 0.962 . S
C2838 H2852 0.960 . S
C2839 C2836 1.511 . S
C2839 H2853 0.961 . S
C2839 H2854 0.961 . S
C2839 H2855 0.961 . S
C2840 C2841 1.370 . S
C2840 C2842 1.363 . S
C2840 H2856 0.931 . S
C2841 C2840 1.370 . S
C2841 C2845 1.408 . S
C2842 C2840 1.363 . S
C2842 C2843 1.370 . S
C2842 C2846 1.524 . S
C2843 C2835 1.503 . S
C2843 C2842 1.370 . S
C2843 C2844 1.403 . S
C2844 C2843 1.403 . S
C2844 C2845 1.404 . S
C2844 C2847 1.539 . S
C2845 C2841 1.408 . S
C2845 C2844 1.404 . S
C2845 H2857 0.930 . S
C2846 C2842 1.524 . S
C2846 H2858 0.956 . S
C2846 H2859 0.961 . S
C2846 H2860 0.961 . S
C2847 C2844 1.539 . S
C2847 H2861 0.958 . S
C2847 H2862 0.961 . S
C2847 H2863 0.960 . S
H2848 C2832 0.931 . S
H2849 C2837 0.929 . S
H2850 C2838 0.960 . S
H2851 C2838 0.962 . S
H2852 C2838 0.960 . S
H2853 C2839 0.961 . S
H2854 C2839 0.961 . S
H2855 C2839 0.961 . S
H2856 C2840 0.931 . S
H2857 C2845 0.930 . S
H2858 C2846 0.956 . S
H2859 C2846 0.961 . S
H2860 C2846 0.961 . S
H2861 C2847 0.958 . S
H2862 C2847 0.961 . S
H2863 C2847 0.960 . S
C2864 C2865 1.391 . S
C2864 C2866 1.394 . S
C2864 H2880 0.931 . S
C2865 C2864 1.391 . S
C2865 C2869 1.376 . S
C2866 C2864 1.394 . S
C2866 C2867 1.369 . S
C2866 C2870 1.531 . S
C2867 C2866 1.369 . S
C2867 C2868 1.410 . S
C2867 C2875 1.503 . S
C2868 C2867 1.410 . S
C2868 C2869 1.392 . S
C2868 C2871 1.511 . S
C2869 C2865 1.376 . S
C2869 C2868 1.392 . S
C2869 H2881 0.929 . S
C2870 C2866 1.531 . S
C2870 H2882 0.960 . S
C2870 H2883 0.962 . S
C2870 H2884 0.960 . S
C2871 C2868 1.511 . S
C2871 H2885 0.961 . S
C2871 H2886 0.961 . S
C2871 H2887 0.961 . S
C2872 C2873 1.370 . S
C2872 C2874 1.363 . S
C2872 H2888 0.931 . S
C2873 C2872 1.370 . S
C2873 C2877 1.408 . S
C2874 C2872 1.363 . S
C2874 C2875 1.370 . S
C2874 C2878 1.524 . S
C2875 C2867 1.503 . S
C2875 C2874 1.370 . S
C2875 C2876 1.403 . S
C2876 C2875 1.403 . S
C2876 C2877 1.404 . S
C2876 C2879 1.539 . S
C2877 C2873 1.408 . S
C2877 C2876 1.404 . S
C2877 H2889 0.930 . S
C2878 C2874 1.524 . S
C2878 H2890 0.956 . S
C2878 H2891 0.961 . S
C2878 H2892 0.961 . S
C2879 C2876 1.539 . S
C2879 H2893 0.958 . S
C2879 H2894 0.961 . S
C2879 H2895 0.960 . S
H2880 C2864 0.931 . S
H2881 C2869 0.929 . S
H2882 C2870 0.960 . S
H2883 C2870 0.962 . S
H2884 C2870 0.960 . S
H2885 C2871 0.961 . S
H2886 C2871 0.961 . S
H2887 C2871 0.961 . S
H2888 C2872 0.931 . S
H2889 C2877 0.930 . S
H2890 C2878 0.956 . S
H2891 C2878 0.961 . S
H2892 C2878 0.961 . S
H2893 C2879 0.958 . S
H2894 C2879 0.961 . S
H2895 C2879 0.960 . S
C2896 C2897 1.391 . S
C2896 C2898 1.394 . S
C2896 H2912 0.931 . S
C2897 C2896 1.391 . S
C2897 C2901 1.376 . S
C2898 C2896 1.394 . S
C2898 C2899 1.369 . S
C2898 C2902 1.531 . S
C2899 C2898 1.369 . S
C2899 C2900 1.410 . S
C2899 C2907 1.503 . S
C2900 C2899 1.410 . S
C2900 C2901 1.392 . S
C2900 C2903 1.511 . S
C2901 C2897 1.376 . S
C2901 C2900 1.392 . S
C2901 H2913 0.929 . S
C2902 C2898 1.531 . S
C2902 H2914 0.960 . S
C2902 H2915 0.962 . S
C2902 H2916 0.960 . S
C2903 C2900 1.511 . S
C2903 H2917 0.961 . S
C2903 H2918 0.961 . S
C2903 H2919 0.961 . S
C2904 C2905 1.370 . S
C2904 C2906 1.363 . S
C2904 H2920 0.931 . S
C2905 C2904 1.370 . S
C2905 C2909 1.408 . S
C2906 C2904 1.363 . S
C2906 C2907 1.370 . S
C2906 C2910 1.524 . S
C2907 C2899 1.503 . S
C2907 C2906 1.370 . S
C2907 C2908 1.403 . S
C2908 C2907 1.403 . S
C2908 C2909 1.404 . S
C2908 C2911 1.539 . S
C2909 C2905 1.408 . S
C2909 C2908 1.404 . S
C2909 H2921 0.930 . S
C2910 C2906 1.524 . S
C2910 H2922 0.956 . S
C2910 H2923 0.961 . S
C2910 H2924 0.961 . S
C2911 C2908 1.539 . S
C2911 H2925 0.958 . S
C2911 H2926 0.961 . S
C2911 H2927 0.960 . S
H2912 C2896 0.931 . S
H2913 C2901 0.929 . S
H2914 C2902 0.960 . S
H2915 C2902 0.962 . S
H2916 C2902 0.960 . S
H2917 C2903 0.961 . S
H2918 C2903 0.961 . S
H2919 C2903 0.961 . S
H2920 C2904 0.931 . S
H2921 C2909 0.930 . S
H2922 C2910 0.956 . S
H2923 C2910 0.961 . S
H2924 C2910 0.961 . S
H2925 C2911 0.958 . S
H2926 C2911 0.961 . S
H2927 C2911 0.960 . S
C2928 C2929 1.391 . S
C2928 C2930 1.394 . S
C2928 H2944 0.931 . S
C2929 C2928 1.391 . S
C2929 C2933 1.376 . S
C2930 C2928 1.394 . S
C2930 C2931 1.369 . S
C2930 C2934 1.531 . S
C2931 C2930 1.369 . S
C2931 C2932 1.410 . S
C2931 C2939 1.503 . S
C2932 C2931 1.410 . S
C2932 C2933 1.392 . S
C2932 C2935 1.511 . S
C2933 C2929 1.376 . S
C2933 C2932 1.392 . S
C2933 H2945 0.929 . S
C2934 C2930 1.531 . S
C2934 H2946 0.960 . S
C2934 H2947 0.962 . S
C2934 H2948 0.960 . S
C2935 C2932 1.511 . S
C2935 H2949 0.961 . S
C2935 H2950 0.961 . S
C2935 H2951 0.961 . S
C2936 C2937 1.370 . S
C2936 C2938 1.363 . S
C2936 H2952 0.931 . S
C2937 C2936 1.370 . S
C2937 C2941 1.408 . S
C2938 C2936 1.363 . S
C2938 C2939 1.370 . S
C2938 C2942 1.524 . S
C2939 C2931 1.503 . S
C2939 C2938 1.370 . S
C2939 C2940 1.403 . S
C2940 C2939 1.403 . S
C2940 C2941 1.404 . S
C2940 C2943 1.539 . S
C2941 C2937 1.408 . S
C2941 C2940 1.404 . S
C2941 H2953 0.930 . S
C2942 C2938 1.524 . S
C2942 H2954 0.956 . S
C2942 H2955 0.961 . S
C2942 H2956 0.961 . S
C2943 C2940 1.539 . S
C2943 H2957 0.958 . S
C2943 H2958 0.961 . S
C2943 H2959 0.960 . S
H2944 C2928 0.931 . S
H2945 C2933 0.929 . S
H2946 C2934 0.960 . S
H2947 C2934 0.962 . S
H2948 C2934 0.960 . S
H2949 C2935 0.961 . S
H2950 C2935 0.961 . S
H2951 C2935 0.961 . S
H2952 C2936 0.931 . S
H2953 C2941 0.930 . S
H2954 C2942 0.956 . S
H2955 C2942 0.961 . S
H2956 C2942 0.961 . S
H2957 C2943 0.958 . S
H2958 C2943 0.961 . S
H2959 C2943 0.960 . S
C2960 C2961 1.391 . S
C2960 C2962 1.394 . S
C2960 H2976 0.931 . S
C2961 C2960 1.391 . S
C2961 C2965 1.376 . S
C2962 C2960 1.394 . S
C2962 C2963 1.369 . S
C2962 C2966 1.531 . S
C2963 C2962 1.369 . S
C2963 C2964 1.410 . S
C2963 C2971 1.503 . S
C2964 C2963 1.410 . S
C2964 C2965 1.392 . S
C2964 C2967 1.511 . S
C2965 C2961 1.376 . S
C2965 C2964 1.392 . S
C2965 H2977 0.929 . S
C2966 C2962 1.531 . S
C2966 H2978 0.960 . S
C2966 H2979 0.962 . S
C2966 H2980 0.960 . S
C2967 C2964 1.511 . S
C2967 H2981 0.961 . S
C2967 H2982 0.961 . S
C2967 H2983 0.961 . S
C2968 C2969 1.370 . S
C2968 C2970 1.363 . S
C2968 H2984 0.931 . S
C2969 C2968 1.370 . S
C2969 C2973 1.408 . S
C2970 C2968 1.363 . S
C2970 C2971 1.370 . S
C2970 C2974 1.524 . S
C2971 C2963 1.503 . S
C2971 C2970 1.370 . S
C2971 C2972 1.403 . S
C2972 C2971 1.403 . S
C2972 C2973 1.404 . S
C2972 C2975 1.539 . S
C2973 C2969 1.408 . S
C2973 C2972 1.404 . S
C2973 H2985 0.930 . S
C2974 C2970 1.524 . S
C2974 H2986 0.956 . S
C2974 H2987 0.961 . S
C2974 H2988 0.961 . S
C2975 C2972 1.539 . S
C2975 H2989 0.958 . S
C2975 H2990 0.961 . S
C2975 H2991 0.960 . S
H2976 C2960 0.931 . S
H2977 C2965 0.929 . S
H2978 C2966 0.960 . S
H2979 C2966 0.962 . S
H2980 C2966 0.960 . S
H2981 C2967 0.961 . S
H2982 C2967 0.961 . S
H2983 C2967 0.961 . S
H2984 C2968 0.931 . S
H2985 C2973 0.930 . S
H2986 C2974 0.956 . S
H2987 C2974 0.961 . S
H2988 C2974 0.961 . S
H2989 C2975 0.958 . S
H2990 C2975 0.961 . S
H2991 C2975 0.960 . S
C2992 C2993 1.391 . S
C2992 C2994 1.394 . S
C2992 H3008 0.931 . S
C2993 C2992 1.391 . S
C2993 C2997 1.376 . S
C2994 C2992 1.394 . S
C2994 C2995 1.369 . S
C2994 C2998 1.531 . S
C2995 C2994 1.369 . S
C2995 C2996 1.410 . S
C2995 C3003 1.503 . S
C2996 C2995 1.410 . S
C2996 C2997 1.392 . S
C2996 C2999 1.511 . S
C2997 C2993 1.376 . S
C2997 C2996 1.392 . S
C2997 H3009 0.929 . S
C2998 C2994 1.531 . S
C2998 H3010 0.960 . S
C2998 H3011 0.962 . S
C2998 H3012 0.960 . S
C2999 C2996 1.511 . S
C2999 H3013 0.961 . S
C2999 H3014 0.961 . S
C2999 H3015 0.961 . S
C3000 C3001 1.370 . S
C3000 C3002 1.363 . S
C3000 H3016 0.931 . S
C3001 C3000 1.370 . S
C3001 C3005 1.408 . S
C3002 C3000 1.363 . S
C3002 C3003 1.370 . S
C3002 C3006 1.524 . S
C3003 C2995 1.503 . S
C3003 C3002 1.370 . S
C3003 C3004 1.403 . S
C3004 C3003 1.403 . S
C3004 C3005 1.404 . S
C3004 C3007 1.539 . S
C3005 C3001 1.408 . S
C3005 C3004 1.404 . S
C3005 H3017 0.930 . S
C3006 C3002 1.524 . S
C3006 H3018 0.956 . S
C3006 H3019 0.961 . S
C3006 H3020 0.961 . S
C3007 C3004 1.539 . S
C3007 H3021 0.958 . S
C3007 H3022 0.961 . S
C3007 H3023 0.960 . S
H3008 C2992 0.931 . S
H3009 C2997 0.929 . S
H3010 C2998 0.960 . S
H3011 C2998 0.962 . S
H3012 C2998 0.960 . S
H3013 C2999 0.961 . S
H3014 C2999 0.961 . S
H3015 C2999 0.961 . S
H3016 C3000 0.931 . S
H3017 C3005 0.930 . S
H3018 C3006 0.956 . S
H3019 C3006 0.961 . S
H3020 C3006 0.961 . S
H3021 C3007 0.958 . S
H3022 C3007 0.961 . S
H3023 C3007 0.960 . S
C3024 C3025 1.391 . S
C3024 C3026 1.394 . S
C3024 H3040 0.931 . S
C3025 C3024 1.391 . S
C3025 C3029 1.376 . S
C3026 C3024 1.394 . S
C3026 C3027 1.369 . S
C3026 C3030 1.531 . S
C3027 C3026 1.369 . S
C3027 C3028 1.410 . S
C3027 C3035 1.503 . S
C3028 C3027 1.410 . S
C3028 C3029 1.392 . S
C3028 C3031 1.511 . S
C3029 C3025 1.376 . S
C3029 C3028 1.392 . S
C3029 H3041 0.929 . S
C3030 C3026 1.531 . S
C3030 H3042 0.960 . S
C3030 H3043 0.962 . S
C3030 H3044 0.960 . S
C3031 C3028 1.511 . S
C3031 H3045 0.961 . S
C3031 H3046 0.961 . S
C3031 H3047 0.961 . S
C3032 C3033 1.370 . S
C3032 C3034 1.363 . S
C3032 H3048 0.931 . S
C3033 C3032 1.370 . S
C3033 C3037 1.408 . S
C3034 C3032 1.363 . S
C3034 C3035 1.370 . S
C3034 C3038 1.524 . S
C3035 C3027 1.503 . S
C3035 C3034 1.370 . S
C3035 C3036 1.403 . S
C3036 C3035 1.403 . S
C3036 C3037 1.404 . S
C3036 C3039 1.539 . S
C3037 C3033 1.408 . S
C3037 C3036 1.404 . S
C3037 H3049 0.930 . S
C3038 C3034 1.524 . S
C3038 H3050 0.956 . S
C3038 H3051 0.961 . S
C3038 H3052 0.961 . S
C3039 C3036 1.539 . S
C3039 H3053 0.958 . S
C3039 H3054 0.961 . S
C3039 H3055 0.960 . S
H3040 C3024 0.931 . S
H3041 C3029 0.929 . S
H3042 C3030 0.960 . S
H3043 C3030 0.962 . S
H3044 C3030 0.960 . S
H3045 C3031 0.961 . S
H3046 C3031 0.961 . S
H3047 C3031 0.961 . S
H3048 C3032 0.931 . S
H3049 C3037 0.930 . S
H3050 C3038 0.956 . S
H3051 C3038 0.961 . S
H3052 C3038 0.961 . S
H3053 C3039 0.958 . S
H3054 C3039 0.961 . S
H3055 C3039 0.960 . S
C3056 C3057 1.391 . S
C3056 C3058 1.394 . S
C3056 H3072 0.931 . S
C3057 C3056 1.391 . S
C3057 C3061 1.376 . S
C3058 C3056 1.394 . S
C3058 C3059 1.369 . S
C3058 C3062 1.531 . S
C3059 C3058 1.369 . S
C3059 C3060 1.410 . S
C3059 C3067 1.503 . S
C3060 C3059 1.410 . S
C3060 C3061 1.392 . S
C3060 C3063 1.511 . S
C3061 C3057 1.376 . S
C3061 C3060 1.392 . S
C3061 H3073 0.929 . S
C3062 C3058 1.531 . S
C3062 H3074 0.960 . S
C3062 H3075 0.962 . S
C3062 H3076 0.960 . S
C3063 C3060 1.511 . S
C3063 H3077 0.961 . S
C3063 H3078 0.961 . S
C3063 H3079 0.961 . S
C3064 C3065 1.370 . S
C3064 C3066 1.363 . S
C3064 H3080 0.931 . S
C3065 C3064 1.370 . S
C3065 C3069 1.408 . S
C3066 C3064 1.363 . S
C3066 C3067 1.370 . S
C3066 C3070 1.524 . S
C3067 C3059 1.503 . S
C3067 C3066 1.370 . S
C3067 C3068 1.403 . S
C3068 C3067 1.403 . S
C3068 C3069 1.404 . S
C3068 C3071 1.539 . S
C3069 C3065 1.408 . S
C3069 C3068 1.404 . S
C3069 H3081 0.930 . S
C3070 C3066 1.524 . S
C3070 H3082 0.956 . S
C3070 H3083 0.961 . S
C3070 H3084 0.961 . S
C3071 C3068 1.539 . S
C3071 H3085 0.958 . S
C3071 H3086 0.961 . S
C3071 H3087 0.960 . S
H3072 C3056 0.931 . S
H3073 C3061 0.929 . S
H3074 C3062 0.960 . S
H3075 C3062 0.962 . S
H3076 C3062 0.960 . S
H3077 C3063 0.961 . S
H3078 C3063 0.961 . S
H3079 C3063 0.961 . S
H3080 C3064 0.931 . S
H3081 C3069 0.930 . S
H3082 C3070 0.956 . S
H3083 C3070 0.961 . S
H3084 C3070 0.961 . S
H3085 C3071 0.958 . S
H3086 C3071 0.961 . S
H3087 C3071 0.960 . S
C3088 C3089 1.391 . S
C3088 C3090 1.394 . S
C3088 H3104 0.931 . S
C3089 C3088 1.391 . S
C3089 C3093 1.376 . S
C3090 C3088 1.394 . S
C3090 C3091 1.369 . S
C3090 C3094 1.531 . S
C3091 C3090 1.369 . S
C3091 C3092 1.410 1_545 S
C3091 C3099 1.503 1_545 S
C3092 C3091 1.410 1_565 S
C3092 C3093 1.392 1_565 S
C3092 C3095 1.511 . S
C3093 C3089 1.376 . S
C3093 C3092 1.392 1_545 S
C3093 H3105 0.929 . S
C3094 C3090 1.531 . S
C3094 H3106 0.960 . S
C3094 H3107 0.962 . S
C3094 H3108 0.960 . S
C3095 C3092 1.511 . S
C3095 H3109 0.961 . S
C3095 H3110 0.961 . S
C3095 H3111 0.961 . S
C3096 C3097 1.370 . S
C3096 C3098 1.363 . S
C3096 H3112 0.931 . S
C3097 C3096 1.370 . S
C3097 C3101 1.408 . S
C3098 C3096 1.363 . S
C3098 C3099 1.370 . S
C3098 C3102 1.524 1_565 S
C3099 C3091 1.503 1_565 S
C3099 C3098 1.370 . S
C3099 C3100 1.403 . S
C3100 C3099 1.403 . S
C3100 C3101 1.404 . S
C3100 C3103 1.539 . S
C3101 C3097 1.408 . S
C3101 C3100 1.404 . S
C3101 H3113 0.930 . S
C3102 C3098 1.524 1_545 S
C3102 H3114 0.956 . S
C3102 H3115 0.961 . S
C3102 H3116 0.961 . S
C3103 C3100 1.539 . S
C3103 H3117 0.958 . S
C3103 H3118 0.961 . S
C3103 H3119 0.960 . S
H3104 C3088 0.931 . S
H3105 C3093 0.929 . S
H3106 C3094 0.960 . S
H3107 C3094 0.962 . S
H3108 C3094 0.960 . S
H3109 C3095 0.961 . S
H3110 C3095 0.961 . S
H3111 C3095 0.961 . S
H3112 C3096 0.931 . S
H3113 C3101 0.930 . S
H3114 C3102 0.956 . S
H3115 C3102 0.961 . S
H3116 C3102 0.961 . S
H3117 C3103 0.958 . S
H3118 C3103 0.961 . S
H3119 C3103 0.960 . S
C3120 C3121 1.391 . S
C3120 C3122 1.394 1_565 S
C3120 H3136 0.931 . S
C3121 C3120 1.391 . S
C3121 C3125 1.376 . S
C3122 C3120 1.394 1_545 S
C3122 C3123 1.341 1_545 S
C3122 C3126 1.531 . S
C3123 C3122 1.341 1_565 S
C3123 C3124 1.457 . S
C3123 C3131 1.486 1_565 S
C3124 C3123 1.457 . S
C3124 C3125 1.392 . S
C3124 C3127 1.511 . S
C3125 C3121 1.376 . S
C3125 C3124 1.392 . S
C3125 H3137 0.929 . S
C3126 C3122 1.531 . S
C3126 H3138 0.960 . S
C3126 H3139 0.962 . S
C3126 H3140 0.960 . S
C3127 C3124 1.511 . S
C3127 H3141 0.961 . S
C3127 H3142 0.961 . S
C3127 H3143 0.961 . S
C3128 C3129 1.370 . S
C3128 C3130 1.363 . S
C3128 H3144 0.931 . S
C3129 C3128 1.370 . S
C3129 C3133 1.408 . S
C3130 C3128 1.363 . S
C3130 C3131 1.370 . S
C3130 C3134 1.524 . S
C3131 C3123 1.486 1_545 S
C3131 C3130 1.370 . S
C3131 C3132 1.403 . S
C3132 C3131 1.403 . S
C3132 C3133 1.404 . S
C3132 C3135 1.539 . S
C3133 C3129 1.408 . S
C3133 C3132 1.404 . S
C3133 H3145 0.930 . S
C3134 C3130 1.524 . S
C3134 H3146 0.956 . S
C3134 H3147 0.961 1_545 S
C3134 H3148 0.961 1_554 S
C3135 C3132 1.539 . S
C3135 H3149 0.958 . S
C3135 H3150 0.961 . S
C3135 H3151 0.960 . S
H3136 C3120 0.931 . S
H3137 C3125 0.929 . S
H3138 C3126 0.960 . S
H3139 C3126 0.962 . S
H3140 C3126 0.960 . S
H3141 C3127 0.961 . S
H3142 C3127 0.961 . S
H3143 C3127 0.961 . S
H3144 C3128 0.931 . S
H3145 C3133 0.930 . S
H3146 C3134 0.956 . S
H3147 C3134 0.961 1_565 S
H3148 C3134 0.961 1_556 S
H3149 C3135 0.958 . S
H3150 C3135 0.961 . S
H3151 C3135 0.960 . S
C3152 C3153 1.391 . S
C3152 C3154 1.394 . S
C3152 H3168 0.931 . S
C3153 C3152 1.391 . S
C3153 C3157 1.376 . S
C3154 C3152 1.394 . S
C3154 C3155 1.369 . S
C3154 C3158 1.531 . S
C3155 C3154 1.369 . S
C3155 C3156 1.410 . S
C3155 C3163 1.503 . S
C3156 C3155 1.410 . S
C3156 C3157 1.392 . S
C3156 C3159 1.511 . S
C3157 C3153 1.376 . S
C3157 C3156 1.392 . S
C3157 H3169 0.929 . S
C3158 C3154 1.531 . S
C3158 H3170 0.960 . S
C3158 H3171 0.962 . S
C3158 H3172 0.960 . S
C3159 C3156 1.511 . S
C3159 H3173 0.961 . S
C3159 H3174 0.961 . S
C3159 H3175 0.961 . S
C3160 C3161 1.370 . S
C3160 C3162 1.363 . S
C3160 H3176 0.931 . S
C3161 C3160 1.370 . S
C3161 C3165 1.408 . S
C3162 C3160 1.363 . S
C3162 C3163 1.370 . S
C3162 C3166 1.524 . S
C3163 C3155 1.503 . S
C3163 C3162 1.370 . S
C3163 C3164 1.403 . S
C3164 C3163 1.403 . S
C3164 C3165 1.404 . S
C3164 C3167 1.539 . S
C3165 C3161 1.408 . S
C3165 C3164 1.404 . S
C3165 H3177 0.930 . S
C3166 C3162 1.524 . S
C3166 H3178 0.956 . S
C3166 H3179 0.961 . S
C3166 H3180 0.961 . S
C3167 C3164 1.539 . S
C3167 H3181 0.958 . S
C3167 H3182 0.961 . S
C3167 H3183 0.960 . S
H3168 C3152 0.931 . S
H3169 C3157 0.929 . S
H3170 C3158 0.960 . S
H3171 C3158 0.962 . S
H3172 C3158 0.960 . S
H3173 C3159 0.961 . S
H3174 C3159 0.961 . S
H3175 C3159 0.961 . S
H3176 C3160 0.931 . S
H3177 C3165 0.930 . S
H3178 C3166 0.956 . S
H3179 C3166 0.961 . S
H3180 C3166 0.961 . S
H3181 C3167 0.958 . S
H3182 C3167 0.961 . S
H3183 C3167 0.960 . S
C3184 C3185 1.391 . S
C3184 C3186 1.394 . S
C3184 H3200 0.931 . S
C3185 C3184 1.391 . S
C3185 C3189 1.376 . S
C3186 C3184 1.394 . S
C3186 C3187 1.369 . S
C3186 C3190 1.531 . S
C3187 C3186 1.369 . S
C3187 C3188 1.410 . S
C3187 C3195 1.503 . S
C3188 C3187 1.410 . S
C3188 C3189 1.392 . S
C3188 C3191 1.511 . S
C3189 C3185 1.376 . S
C3189 C3188 1.392 . S
C3189 H3201 0.929 . S
C3190 C3186 1.531 . S
C3190 H3202 0.960 . S
C3190 H3203 0.962 . S
C3190 H3204 0.960 . S
C3191 C3188 1.511 . S
C3191 H3205 0.961 . S
C3191 H3206 0.961 . S
C3191 H3207 0.961 . S
C3192 C3193 1.370 . S
C3192 C3194 1.363 . S
C3192 H3208 0.931 . S
C3193 C3192 1.370 . S
C3193 C3197 1.408 . S
C3194 C3192 1.363 . S
C3194 C3195 1.370 . S
C3194 C3198 1.524 . S
C3195 C3187 1.503 . S
C3195 C3194 1.370 . S
C3195 C3196 1.403 . S
C3196 C3195 1.403 . S
C3196 C3197 1.404 . S
C3196 C3199 1.539 . S
C3197 C3193 1.408 . S
C3197 C3196 1.404 . S
C3197 H3209 0.930 . S
C3198 C3194 1.524 . S
C3198 H3210 0.956 . S
C3198 H3211 0.961 . S
C3198 H3212 0.961 . S
C3199 C3196 1.539 . S
C3199 H3213 0.958 . S
C3199 H3214 0.961 . S
C3199 H3215 0.960 . S
H3200 C3184 0.931 . S
H3201 C3189 0.929 . S
H3202 C3190 0.960 . S
H3203 C3190 0.962 . S
H3204 C3190 0.960 . S
H3205 C3191 0.961 . S
H3206 C3191 0.961 . S
H3207 C3191 0.961 . S
H3208 C3192 0.931 . S
H3209 C3197 0.930 . S
H3210 C3198 0.956 . S
H3211 C3198 0.961 . S
H3212 C3198 0.961 . S
H3213 C3199 0.958 . S
H3214 C3199 0.961 . S
H3215 C3199 0.960 . S
C3216 C3217 1.391 . S
C3216 C3218 1.394 . S
C3216 H3232 0.931 . S
C3217 C3216 1.391 . S
C3217 C3221 1.376 . S
C3218 C3216 1.394 . S
C3218 C3219 1.369 . S
C3218 C3222 1.531 . S
C3219 C3218 1.369 . S
C3219 C3220 1.410 . S
C3219 C3227 1.503 . S
C3220 C3219 1.410 . S
C3220 C3221 1.392 . S
C3220 C3223 1.511 . S
C3221 C3217 1.376 . S
C3221 C3220 1.392 . S
C3221 H3233 0.929 . S
C3222 C3218 1.531 . S
C3222 H3234 0.960 . S
C3222 H3235 0.962 . S
C3222 H3236 0.960 . S
C3223 C3220 1.511 . S
C3223 H3237 0.961 . S
C3223 H3238 0.961 . S
C3223 H3239 0.961 . S
C3224 C3225 1.370 . S
C3224 C3226 1.363 . S
C3224 H3240 0.931 . S
C3225 C3224 1.370 . S
C3225 C3229 1.408 . S
C3226 C3224 1.363 . S
C3226 C3227 1.370 . S
C3226 C3230 1.524 . S
C3227 C3219 1.503 . S
C3227 C3226 1.370 . S
C3227 C3228 1.403 . S
C3228 C3227 1.403 . S
C3228 C3229 1.404 . S
C3228 C3231 1.539 . S
C3229 C3225 1.408 . S
C3229 C3228 1.404 . S
C3229 H3241 0.930 . S
C3230 C3226 1.524 . S
C3230 H3242 0.956 . S
C3230 H3243 0.961 . S
C3230 H3244 0.961 . S
C3231 C3228 1.539 . S
C3231 H3245 0.958 . S
C3231 H3246 0.961 . S
C3231 H3247 0.960 . S
H3232 C3216 0.931 . S
H3233 C3221 0.929 . S
H3234 C3222 0.960 . S
H3235 C3222 0.962 . S
H3236 C3222 0.960 . S
H3237 C3223 0.961 . S
H3238 C3223 0.961 . S
H3239 C3223 0.961 . S
H3240 C3224 0.931 . S
H3241 C3229 0.930 . S
H3242 C3230 0.956 . S
H3243 C3230 0.961 . S
H3244 C3230 0.961 . S
H3245 C3231 0.958 . S
H3246 C3231 0.961 . S
H3247 C3231 0.960 . S
C3248 C3249 1.391 . S
C3248 C3250 1.394 . S
C3248 H3264 0.931 . S
C3249 C3248 1.391 . S
C3249 C3253 1.376 . S
C3250 C3248 1.394 . S
C3250 C3251 1.369 . S
C3250 C3254 1.531 . S
C3251 C3250 1.369 . S
C3251 C3252 1.410 . S
C3251 C3259 1.503 . S
C3252 C3251 1.410 . S
C3252 C3253 1.392 . S
C3252 C3255 1.511 . S
C3253 C3249 1.376 . S
C3253 C3252 1.392 . S
C3253 H3265 0.929 . S
C3254 C3250 1.531 . S
C3254 H3266 0.960 . S
C3254 H3267 0.962 . S
C3254 H3268 0.960 . S
C3255 C3252 1.511 . S
C3255 H3269 0.961 . S
C3255 H3270 0.961 . S
C3255 H3271 0.961 . S
C3256 C3257 1.370 1_545 S
C3256 C3258 1.363 . S
C3256 H3272 0.931 . S
C3257 C3256 1.370 1_565 S
C3257 C3261 1.408 . S
C3258 C3256 1.363 . S
C3258 C3259 1.370 . S
C3258 C3262 1.524 . S
C3259 C3251 1.503 . S
C3259 C3258 1.370 . S
C3259 C3260 1.403 . S
C3260 C3259 1.403 . S
C3260 C3261 1.404 1_545 S
C3260 C3263 1.539 . S
C3261 C3257 1.408 . S
C3261 C3260 1.404 1_565 S
C3261 H3273 0.930 . S
C3262 C3258 1.524 . S
C3262 H3274 0.956 . S
C3262 H3275 0.961 . S
C3262 H3276 0.961 . S
C3263 C3260 1.539 . S
C3263 H3277 0.958 . S
C3263 H3278 0.961 1_545 S
C3263 H3279 0.960 . S
H3264 C3248 0.931 . S
H3265 C3253 0.929 . S
H3266 C3254 0.960 . S
H3267 C3254 0.962 . S
H3268 C3254 0.960 . S
H3269 C3255 0.961 . S
H3270 C3255 0.961 . S
H3271 C3255 0.961 . S
H3272 C3256 0.931 . S
H3273 C3261 0.930 . S
H3274 C3262 0.956 . S
H3275 C3262 0.961 . S
H3276 C3262 0.961 . S
H3277 C3263 0.958 . S
H3278 C3263 0.961 1_565 S
H3279 C3263 0.960 . S
C3280 C3281 1.391 . S
C3280 C3282 1.394 . S
C3280 H3296 0.931 . S
C3281 C3280 1.391 . S
C3281 C3285 1.376 . S
C3282 C3280 1.394 . S
C3282 C3283 1.369 . S
C3282 C3286 1.531 . S
C3283 C3282 1.369 . S
C3283 C3284 1.410 . S
C3283 C3291 1.503 . S
C3284 C3283 1.410 . S
C3284 C3285 1.392 . S
C3284 C3287 1.511 . S
C3285 C3281 1.376 . S
C3285 C3284 1.392 . S
C3285 H3297 0.929 . S
C3286 C3282 1.531 . S
C3286 H3298 0.960 . S
C3286 H3299 0.962 . S
C3286 H3300 0.960 . S
C3287 C3284 1.511 . S
C3287 H3301 0.961 . S
C3287 H3302 0.961 . S
C3287 H3303 0.961 . S
C3288 C3289 1.370 . S
C3288 C3290 1.363 . S
C3288 H3304 0.931 . S
C3289 C3288 1.370 . S
C3289 C3293 1.408 . S
C3290 C3288 1.363 . S
C3290 C3291 1.370 . S
C3290 C3294 1.524 . S
C3291 C3283 1.503 . S
C3291 C3290 1.370 . S
C3291 C3292 1.403 . S
C3292 C3291 1.403 . S
C3292 C3293 1.404 . S
C3292 C3295 1.539 . S
C3293 C3289 1.408 . S
C3293 C3292 1.404 . S
C3293 H3305 0.930 . S
C3294 C3290 1.524 . S
C3294 H3306 0.956 . S
C3294 H3307 0.961 . S
C3294 H3308 0.961 . S
C3295 C3292 1.539 . S
C3295 H3309 0.958 . S
C3295 H3310 0.961 . S
C3295 H3311 0.960 . S
H3296 C3280 0.931 . S
H3297 C3285 0.929 . S
H3298 C3286 0.960 . S
H3299 C3286 0.962 . S
H3300 C3286 0.960 . S
H3301 C3287 0.961 . S
H3302 C3287 0.961 . S
H3303 C3287 0.961 . S
H3304 C3288 0.931 . S
H3305 C3293 0.930 . S
H3306 C3294 0.956 . S
H3307 C3294 0.961 . S
H3308 C3294 0.961 . S
H3309 C3295 0.958 . S
H3310 C3295 0.961 . S
H3311 C3295 0.960 . S
C3312 C3313 1.391 . S
C3312 C3314 1.394 . S
C3312 H3328 0.931 . S
C3313 C3312 1.391 . S
C3313 C3317 1.376 . S
C3314 C3312 1.394 . S
C3314 C3315 1.369 . S
C3314 C3318 1.531 . S
C3315 C3314 1.369 . S
C3315 C3316 1.410 . S
C3315 C3323 1.503 . S
C3316 C3315 1.410 . S
C3316 C3317 1.392 . S
C3316 C3319 1.511 . S
C3317 C3313 1.376 . S
C3317 C3316 1.392 . S
C3317 H3329 0.929 . S
C3318 C3314 1.531 . S
C3318 H3330 0.960 . S
C3318 H3331 0.962 . S
C3318 H3332 0.960 . S
C3319 C3316 1.511 . S
C3319 H3333 0.961 . S
C3319 H3334 0.961 . S
C3319 H3335 0.961 . S
C3320 C3321 1.370 . S
C3320 C3322 1.363 . S
C3320 H3336 0.931 . S
C3321 C3320 1.370 . S
C3321 C3325 1.408 . S
C3322 C3320 1.363 . S
C3322 C3323 1.370 . S
C3322 C3326 1.524 . S
C3323 C3315 1.503 . S
C3323 C3322 1.370 . S
C3323 C3324 1.403 . S
C3324 C3323 1.403 . S
C3324 C3325 1.404 . S
C3324 C3327 1.539 . S
C3325 C3321 1.408 . S
C3325 C3324 1.404 . S
C3325 H3337 0.930 . S
C3326 C3322 1.524 . S
C3326 H3338 0.956 . S
C3326 H3339 0.961 . S
C3326 H3340 0.961 . S
C3327 C3324 1.539 . S
C3327 H3341 0.958 . S
C3327 H3342 0.961 . S
C3327 H3343 0.960 . S
H3328 C3312 0.931 . S
H3329 C3317 0.929 . S
H3330 C3318 0.960 . S
H3331 C3318 0.962 . S
H3332 C3318 0.960 . S
H3333 C3319 0.961 . S
H3334 C3319 0.961 . S
H3335 C3319 0.961 . S
H3336 C3320 0.931 . S
H3337 C3325 0.930 . S
H3338 C3326 0.956 . S
H3339 C3326 0.961 . S
H3340 C3326 0.961 . S
H3341 C3327 0.958 . S
H3342 C3327 0.961 . S
H3343 C3327 0.960 . S
C3344 C3345 1.391 . S
C3344 C3346 1.394 . S
C3344 H3360 0.931 . S
C3345 C3344 1.391 . S
C3345 C3349 1.376 . S
C3346 C3344 1.394 . S
C3346 C3347 1.369 . S
C3346 C3350 1.531 . S
C3347 C3346 1.369 . S
C3347 C3348 1.410 . S
C3347 C3355 1.503 . S
C3348 C3347 1.410 . S
C3348 C3349 1.392 . S
C3348 C3351 1.511 . S
C3349 C3345 1.376 . S
C3349 C3348 1.392 . S
C3349 H3361 0.929 . S
C3350 C3346 1.531 . S
C3350 H3362 0.960 . S
C3350 H3363 0.962 . S
C3350 H3364 0.960 . S
C3351 C3348 1.511 . S
C3351 H3365 0.961 . S
C3351 H3366 0.961 . S
C3351 H3367 0.961 . S
C3352 C3353 1.370 . S
C3352 C3354 1.363 . S
C3352 H3368 0.931 . S
C3353 C3352 1.370 . S
C3353 C3357 1.408 . S
C3354 C3352 1.363 . S
C3354 C3355 1.370 . S
C3354 C3358 1.524 . S
C3355 C3347 1.503 . S
C3355 C3354 1.370 . S
C3355 C3356 1.403 . S
C3356 C3355 1.403 . S
C3356 C3357 1.404 . S
C3356 C3359 1.539 . S
C3357 C3353 1.408 . S
C3357 C3356 1.404 . S
C3357 H3369 0.930 . S
C3358 C3354 1.524 . S
C3358 H3370 0.956 . S
C3358 H3371 0.961 . S
C3358 H3372 0.961 . S
C3359 C3356 1.539 . S
C3359 H3373 0.958 . S
C3359 H3374 0.961 . S
C3359 H3375 0.960 . S
H3360 C3344 0.931 . S
H3361 C3349 0.929 . S
H3362 C3350 0.960 . S
H3363 C3350 0.962 . S
H3364 C3350 0.960 . S
H3365 C3351 0.961 . S
H3366 C3351 0.961 . S
H3367 C3351 0.961 . S
H3368 C3352 0.931 . S
H3369 C3357 0.930 . S
H3370 C3358 0.956 . S
H3371 C3358 0.961 . S
H3372 C3358 0.961 . S
H3373 C3359 0.958 . S
H3374 C3359 0.961 . S
H3375 C3359 0.960 . S
C3376 C3377 1.391 . S
C3376 C3378 1.394 . S
C3376 H3392 0.931 . S
C3377 C3376 1.391 . S
C3377 C3381 1.376 . S
C3378 C3376 1.394 . S
C3378 C3379 1.369 . S
C3378 C3382 1.531 . S
C3379 C3378 1.369 . S
C3379 C3380 1.410 . S
C3379 C3387 1.503 . S
C3380 C3379 1.410 . S
C3380 C3381 1.392 . S
C3380 C3383 1.511 . S
C3381 C3377 1.376 . S
C3381 C3380 1.392 . S
C3381 H3393 0.929 . S
C3382 C3378 1.531 . S
C3382 H3394 0.960 . S
C3382 H3395 0.962 . S
C3382 H3396 0.960 . S
C3383 C3380 1.511 . S
C3383 H3397 0.961 . S
C3383 H3398 0.961 . S
C3383 H3399 0.961 . S
C3384 C3385 1.370 . S
C3384 C3386 1.363 . S
C3384 H3400 0.931 . S
C3385 C3384 1.370 . S
C3385 C3389 1.408 . S
C3386 C3384 1.363 . S
C3386 C3387 1.370 . S
C3386 C3390 1.524 . S
C3387 C3379 1.503 . S
C3387 C3386 1.370 . S
C3387 C3388 1.403 . S
C3388 C3387 1.403 . S
C3388 C3389 1.404 . S
C3388 C3391 1.539 . S
C3389 C3385 1.408 . S
C3389 C3388 1.404 . S
C3389 H3401 0.930 . S
C3390 C3386 1.524 . S
C3390 H3402 0.956 . S
C3390 H3403 0.961 . S
C3390 H3404 0.961 . S
C3391 C3388 1.539 . S
C3391 H3405 0.958 . S
C3391 H3406 0.961 . S
C3391 H3407 0.960 . S
H3392 C3376 0.931 . S
H3393 C3381 0.929 . S
H3394 C3382 0.960 . S
H3395 C3382 0.962 . S
H3396 C3382 0.960 . S
H3397 C3383 0.961 . S
H3398 C3383 0.961 . S
H3399 C3383 0.961 . S
H3400 C3384 0.931 . S
H3401 C3389 0.930 . S
H3402 C3390 0.956 . S
H3403 C3390 0.961 . S
H3404 C3390 0.961 . S
H3405 C3391 0.958 . S
H3406 C3391 0.961 . S
H3407 C3391 0.960 . S
C3408 C3409 1.391 . S
C3408 C3410 1.394 . S
C3408 H3424 0.931 . S
C3409 C3408 1.391 . S
C3409 C3413 1.376 . S
C3410 C3408 1.394 . S
C3410 C3411 1.369 . S
C3410 C3414 1.531 . S
C3411 C3410 1.369 . S
C3411 C3412 1.410 . S
C3411 C3419 1.503 . S
C3412 C3411 1.410 . S
C3412 C3413 1.392 . S
C3412 C3415 1.511 1_556 S
C3413 C3409 1.376 . S
C3413 C3412 1.392 . S
C3413 H3425 0.929 . S
C3414 C3410 1.531 . S
C3414 H3426 0.960 . S
C3414 H3427 0.962 . S
C3414 H3428 0.960 . S
C3415 C3412 1.511 1_554 S
C3415 H3429 0.961 . S
C3415 H3430 0.961 . S
C3415 H3431 0.961 . S
C3416 C3417 1.370 . S
C3416 C3418 1.363 . S
C3416 H3432 0.931 . S
C3417 C3416 1.370 . S
C3417 C3421 1.408 . S
C3418 C3416 1.363 . S
C3418 C3419 1.370 . S
C3418 C3422 1.524 . S
C3419 C3411 1.503 . S
C3419 C3418 1.370 . S
C3419 C3420 1.403 . S
C3420 C3419 1.403 . S
C3420 C3421 1.404 . S
C3420 C3423 1.539 . S
C3421 C3417 1.408 . S
C3421 C3420 1.404 . S
C3421 H3433 0.930 . S
C3422 C3418 1.524 . S
C3422 H3434 0.956 . S
C3422 H3435 0.961 . S
C3422 H3436 0.961 . S
C3423 C3420 1.539 . S
C3423 H3437 0.958 . S
C3423 H3438 0.961 . S
C3423 H3439 0.960 . S
H3424 C3408 0.931 . S
H3425 C3413 0.929 . S
H3426 C3414 0.960 . S
H3427 C3414 0.962 . S
H3428 C3414 0.960 . S
H3429 C3415 0.961 . S
H3430 C3415 0.961 . S
H3431 C3415 0.961 . S
H3432 C3416 0.931 . S
H3433 C3421 0.930 . S
H3434 C3422 0.956 . S
H3435 C3422 0.961 . S
H3436 C3422 0.961 . S
H3437 C3423 0.958 . S
H3438 C3423 0.961 . S
H3439 C3423 0.960 . S
C3440 C3441 1.391 . S
C3440 C3442 1.394 . S
C3440 H3456 0.931 . S
C3441 C3440 1.391 . S
C3441 C3445 1.376 . S
C3442 C3440 1.394 . S
C3442 C3443 1.369 . S
C3442 C3446 1.531 . S
C3443 C3442 1.369 . S
C3443 C3444 1.410 . S
C3443 C3451 1.503 . S
C3444 C3443 1.410 . S
C3444 C3445 1.392 . S
C3444 C3447 1.511 . S
C3445 C3441 1.376 . S
C3445 C3444 1.392 . S
C3445 H3457 0.929 . S
C3446 C3442 1.531 . S
C3446 H3458 0.960 . S
C3446 H3459 0.962 . S
C3446 H3460 0.960 . S
C3447 C3444 1.511 . S
C3447 H3461 0.961 . S
C3447 H3462 0.961 . S
C3447 H3463 0.961 . S
C3448 C3449 1.370 . S
C3448 C3450 1.363 . S
C3448 H3464 0.931 . S
C3449 C3448 1.370 . S
C3449 C3453 1.408 . S
C3450 C3448 1.363 . S
C3450 C3451 1.370 . S
C3450 C3454 1.524 . S
C3451 C3443 1.503 . S
C3451 C3450 1.370 . S
C3451 C3452 1.403 . S
C3452 C3451 1.403 . S
C3452 C3453 1.404 . S
C3452 C3455 1.539 . S
C3453 C3449 1.408 . S
C3453 C3452 1.404 . S
C3453 H3465 0.930 . S
C3454 C3450 1.524 . S
C3454 H3466 0.956 . S
C3454 H3467 0.961 . S
C3454 H3468 0.961 . S
C3455 C3452 1.539 . S
C3455 H3469 0.958 . S
C3455 H3470 0.961 . S
C3455 H3471 0.960 . S
H3456 C3440 0.931 . S
H3457 C3445 0.929 . S
H3458 C3446 0.960 . S
H3459 C3446 0.962 . S
H3460 C3446 0.960 . S
H3461 C3447 0.961 . S
H3462 C3447 0.961 . S
H3463 C3447 0.961 . S
H3464 C3448 0.931 . S
H3465 C3453 0.930 . S
H3466 C3454 0.956 . S
H3467 C3454 0.961 . S
H3468 C3454 0.961 . S
H3469 C3455 0.958 . S
H3470 C3455 0.961 . S
H3471 C3455 0.960 . S
C3472 C3473 1.391 . S
C3472 C3474 1.394 . S
C3472 H3488 0.931 1_455 S
C3473 C3472 1.391 . S
C3473 C3477 1.376 . S
C3474 C3472 1.394 . S
C3474 C3475 1.369 . S
C3474 C3478 1.547 . S
C3475 C3474 1.369 . S
C3475 C3476 1.410 . S
C3475 C3483 1.503 . S
C3476 C3475 1.410 . S
C3476 C3477 1.392 . S
C3476 C3479 1.511 . S
C3477 C3473 1.376 . S
C3477 C3476 1.392 . S
C3477 H3489 0.929 . S
C3478 C3474 1.547 . S
C3478 H3490 0.968 . S
C3478 H3491 0.941 1_455 S
C3478 H3492 0.958 1_455 S
C3479 C3476 1.511 . S
C3479 H3493 0.961 . S
C3479 H3494 0.961 . S
C3479 H3495 0.961 . S
C3480 C3481 1.370 . S
C3480 C3482 1.363 . S
C3480 H3496 0.931 . S
C3481 C3480 1.370 . S
C3481 C3485 1.408 . S
C3482 C3480 1.363 . S
C3482 C3483 1.370 . S
C3482 C3486 1.524 . S
C3483 C3475 1.503 . S
C3483 C3482 1.370 . S
C3483 C3484 1.403 . S
C3484 C3483 1.403 . S
C3484 C3485 1.404 . S
C3484 C3487 1.539 . S
C3485 C3481 1.408 . S
C3485 C3484 1.404 . S
C3485 H3497 0.930 . S
C3486 C3482 1.524 . S
C3486 H3498 0.956 1_455 S
C3486 H3499 0.961 . S
C3486 H3500 0.946 1_455 S
C3487 C3484 1.539 . S
C3487 H3501 0.958 . S
C3487 H3502 0.961 . S
C3487 H3503 0.960 . S
H3488 C3472 0.931 1_655 S
H3489 C3477 0.929 . S
H3490 C3478 0.968 . S
H3491 C3478 0.941 1_655 S
H3492 C3478 0.958 1_655 S
H3493 C3479 0.961 . S
H3494 C3479 0.961 . S
H3495 C3479 0.961 . S
H3496 C3480 0.931 . S
H3497 C3485 0.930 . S
H3498 C3486 0.956 1_655 S
H3499 C3486 0.961 . S
H3500 C3486 0.946 1_655 S
H3501 C3487 0.958 . S
H3502 C3487 0.961 . S
H3503 C3487 0.960 . S
C3504 C3505 1.391 . S
C3504 C3506 1.394 . S
C3504 H3520 0.931 . S
C3505 C3504 1.391 . S
C3505 C3509 1.376 . S
C3506 C3504 1.394 . S
C3506 C3507 1.369 . S
C3506 C3510 1.531 . S
C3507 C3506 1.369 . S
C3507 C3508 1.410 . S
C3507 C3515 1.503 . S
C3508 C3507 1.410 . S
C3508 C3509 1.392 . S
C3508 C3511 1.511 . S
C3509 C3505 1.376 . S
C3509 C3508 1.392 . S
C3509 H3521 0.929 . S
C3510 C3506 1.531 . S
C3510 H3522 0.960 . S
C3510 H3523 0.962 . S
C3510 H3524 0.960 . S
C3511 C3508 1.511 . S
C3511 H3525 0.961 . S
C3511 H3526 0.961 . S
C3511 H3527 0.961 . S
C3512 C3513 1.370 . S
C3512 C3514 1.363 . S
C3512 H3528 0.931 . S
C3513 C3512 1.370 . S
C3513 C3517 1.408 . S
C3514 C3512 1.363 . S
C3514 C3515 1.370 . S
C3514 C3518 1.524 . S
C3515 C3507 1.503 . S
C3515 C3514 1.370 . S
C3515 C3516 1.403 . S
C3516 C3515 1.403 . S
C3516 C3517 1.404 . S
C3516 C3519 1.539 . S
C3517 C3513 1.408 . S
C3517 C3516 1.404 . S
C3517 H3529 0.930 . S
C3518 C3514 1.524 . S
C3518 H3530 0.956 . S
C3518 H3531 0.961 . S
C3518 H3532 0.961 . S
C3519 C3516 1.539 . S
C3519 H3533 0.958 . S
C3519 H3534 0.961 . S
C3519 H3535 0.960 . S
H3520 C3504 0.931 . S
H3521 C3509 0.929 . S
H3522 C3510 0.960 . S
H3523 C3510 0.962 . S
H3524 C3510 0.960 . S
H3525 C3511 0.961 . S
H3526 C3511 0.961 . S
H3527 C3511 0.961 . S
H3528 C3512 0.931 . S
H3529 C3517 0.930 . S
H3530 C3518 0.956 . S
H3531 C3518 0.961 . S
H3532 C3518 0.961 . S
H3533 C3519 0.958 . S
H3534 C3519 0.961 . S
H3535 C3519 0.960 . S
C3536 C3537 1.391 . S
C3536 C3538 1.394 . S
C3536 H3552 0.931 . S
C3537 C3536 1.391 . S
C3537 C3541 1.376 . S
C3538 C3536 1.394 . S
C3538 C3539 1.369 . S
C3538 C3542 1.531 . S
C3539 C3538 1.369 . S
C3539 C3540 1.410 . S
C3539 C3547 1.503 . S
C3540 C3539 1.410 . S
C3540 C3541 1.392 . S
C3540 C3543 1.511 . S
C3541 C3537 1.376 . S
C3541 C3540 1.392 . S
C3541 H3553 0.929 . S
C3542 C3538 1.531 . S
C3542 H3554 0.960 . S
C3542 H3555 0.962 . S
C3542 H3556 0.960 . S
C3543 C3540 1.511 . S
C3543 H3557 0.961 . S
C3543 H3558 0.961 . S
C3543 H3559 0.961 . S
C3544 C3545 1.370 . S
C3544 C3546 1.363 . S
C3544 H3560 0.931 . S
C3545 C3544 1.370 . S
C3545 C3549 1.408 . S
C3546 C3544 1.363 . S
C3546 C3547 1.370 . S
C3546 C3550 1.524 . S
C3547 C3539 1.503 . S
C3547 C3546 1.370 . S
C3547 C3548 1.403 . S
C3548 C3547 1.403 . S
C3548 C3549 1.404 . S
C3548 C3551 1.539 . S
C3549 C3545 1.408 . S
C3549 C3548 1.404 . S
C3549 H3561 0.930 . S
C3550 C3546 1.524 . S
C3550 H3562 0.956 . S
C3550 H3563 0.961 . S
C3550 H3564 0.961 . S
C3551 C3548 1.539 . S
C3551 H3565 0.958 . S
C3551 H3566 0.961 . S
C3551 H3567 0.960 . S
H3552 C3536 0.931 . S
H3553 C3541 0.929 . S
H3554 C3542 0.960 . S
H3555 C3542 0.962 . S
H3556 C3542 0.960 . S
H3557 C3543 0.961 . S
H3558 C3543 0.961 . S
H3559 C3543 0.961 . S
H3560 C3544 0.931 . S
H3561 C3549 0.930 . S
H3562 C3550 0.956 . S
H3563 C3550 0.961 . S
H3564 C3550 0.961 . S
H3565 C3551 0.958 . S
H3566 C3551 0.961 . S
H3567 C3551 0.960 . S
C3568 C3569 1.391 . S
C3568 C3570 1.394 . S
C3568 H3584 0.931 . S
C3569 C3568 1.391 . S
C3569 C3573 1.376 . S
C3570 C3568 1.394 . S
C3570 C3571 1.369 . S
C3570 C3574 1.531 . S
C3571 C3570 1.369 . S
C3571 C3572 1.410 . S
C3571 C3579 1.503 . S
C3572 C3571 1.410 . S
C3572 C3573 1.392 . S
C3572 C3575 1.511 . S
C3573 C3569 1.376 . S
C3573 C3572 1.392 . S
C3573 H3585 0.929 . S
C3574 C3570 1.531 . S
C3574 H3586 0.960 . S
C3574 H3587 0.962 . S
C3574 H3588 0.960 . S
C3575 C3572 1.511 . S
C3575 H3589 0.961 . S
C3575 H3590 0.961 . S
C3575 H3591 0.961 . S
C3576 C3577 1.370 . S
C3576 C3578 1.363 . S
C3576 H3592 0.931 . S
C3577 C3576 1.370 . S
C3577 C3581 1.408 . S
C3578 C3576 1.363 . S
C3578 C3579 1.370 . S
C3578 C3582 1.524 . S
C3579 C3571 1.503 . S
C3579 C3578 1.370 . S
C3579 C3580 1.403 . S
C3580 C3579 1.403 . S
C3580 C3581 1.404 . S
C3580 C3583 1.539 . S
C3581 C3577 1.408 . S
C3581 C3580 1.404 . S
C3581 H3593 0.930 . S
C3582 C3578 1.524 . S
C3582 H3594 0.956 . S
C3582 H3595 0.961 . S
C3582 H3596 0.961 . S
C3583 C3580 1.539 . S
C3583 H3597 0.958 . S
C3583 H3598 0.961 . S
C3583 H3599 0.960 . S
H3584 C3568 0.931 . S
H3585 C3573 0.929 . S
H3586 C3574 0.960 . S
H3587 C3574 0.962 . S
H3588 C3574 0.960 . S
H3589 C3575 0.961 . S
H3590 C3575 0.961 . S
H3591 C3575 0.961 . S
H3592 C3576 0.931 . S
H3593 C3581 0.930 . S
H3594 C3582 0.956 . S
H3595 C3582 0.961 . S
H3596 C3582 0.961 . S
H3597 C3583 0.958 . S
H3598 C3583 0.961 . S
H3599 C3583 0.960 . S
C3600 C3601 1.391 . S
C3600 C3602 1.394 . S
C3600 H3616 0.931 . S
C3601 C3600 1.391 . S
C3601 C3605 1.376 1_655 S
C3602 C3600 1.394 . S
C3602 C3603 1.369 1_655 S
C3602 C3606 1.531 . S
C3603 C3602 1.369 1_455 S
C3603 C3604 1.410 . S
C3603 C3611 1.503 . S
C3604 C3603 1.410 . S
C3604 C3605 1.392 . S
C3604 C3607 1.511 . S
C3605 C3601 1.376 1_455 S
C3605 C3604 1.392 . S
C3605 H3617 0.929 . S
C3606 C3602 1.531 . S
C3606 H3618 0.960 . S
C3606 H3619 0.962 . S
C3606 H3620 0.960 . S
C3607 C3604 1.511 . S
C3607 H3621 0.961 . S
C3607 H3622 0.961 . S
C3607 H3623 0.961 . S
C3608 C3609 1.370 . S
C3608 C3610 1.363 . S
C3608 H3624 0.931 1_556 S
C3609 C3608 1.370 . S
C3609 C3613 1.408 . S
C3610 C3608 1.363 . S
C3610 C3611 1.370 . S
C3610 C3614 1.524 1_455 S
C3611 C3603 1.503 . S
C3611 C3610 1.370 . S
C3611 C3612 1.403 . S
C3612 C3611 1.403 . S
C3612 C3613 1.404 . S
C3612 C3615 1.539 . S
C3613 C3609 1.408 . S
C3613 C3612 1.404 . S
C3613 H3625 0.930 . S
C3614 C3610 1.524 1_655 S
C3614 H3626 0.956 . S
C3614 H3627 0.961 . S
C3614 H3628 0.961 . S
C3615 C3612 1.539 . S
C3615 H3629 0.958 . S
C3615 H3630 0.961 . S
C3615 H3631 0.960 . S
H3616 C3600 0.931 . S
H3617 C3605 0.929 . S
H3618 C3606 0.960 . S
H3619 C3606 0.962 . S
H3620 C3606 0.960 . S
H3621 C3607 0.961 . S
H3622 C3607 0.961 . S
H3623 C3607 0.961 . S
H3624 C3608 0.931 1_554 S
H3625 C3613 0.930 . S
H3626 C3614 0.956 . S
H3627 C3614 0.961 . S
H3628 C3614 0.961 . S
H3629 C3615 0.958 . S
H3630 C3615 0.961 . S
H3631 C3615 0.960 . S
C3632 C3633 1.391 . S
C3632 C3634 1.394 . S
C3632 H3648 0.931 . S
C3633 C3632 1.391 . S
C3633 C3637 1.376 . S
C3634 C3632 1.394 . S
C3634 C3635 1.369 . S
C3634 C3638 1.531 . S
C3635 C3634 1.369 . S
C3635 C3636 1.410 . S
C3635 C3643 1.503 . S
C3636 C3635 1.410 . S
C3636 C3637 1.392 . S
C3636 C3639 1.511 . S
C3637 C3633 1.376 . S
C3637 C3636 1.392 . S
C3637 H3649 0.929 . S
C3638 C3634 1.531 . S
C3638 H3650 0.960 . S
C3638 H3651 0.962 . S
C3638 H3652 0.960 . S
C3639 C3636 1.511 . S
C3639 H3653 0.961 . S
C3639 H3654 0.961 . S
C3639 H3655 0.961 . S
C3640 C3641 1.370 . S
C3640 C3642 1.363 . S
C3640 H3656 0.931 . S
C3641 C3640 1.370 . S
C3641 C3645 1.408 . S
C3642 C3640 1.363 . S
C3642 C3643 1.370 . S
C3642 C3646 1.524 . S
C3643 C3635 1.503 . S
C3643 C3642 1.370 . S
C3643 C3644 1.403 . S
C3644 C3643 1.403 . S
C3644 C3645 1.404 . S
C3644 C3647 1.539 . S
C3645 C3641 1.408 . S
C3645 C3644 1.404 . S
C3645 H3657 0.930 . S
C3646 C3642 1.524 . S
C3646 H3658 0.956 . S
C3646 H3659 0.961 . S
C3646 H3660 0.961 . S
C3647 C3644 1.539 . S
C3647 H3661 0.958 . S
C3647 H3662 0.961 . S
C3647 H3663 0.960 . S
H3648 C3632 0.931 . S
H3649 C3637 0.929 . S
H3650 C3638 0.960 . S
H3651 C3638 0.962 . S
H3652 C3638 0.960 . S
H3653 C3639 0.961 . S
H3654 C3639 0.961 . S
H3655 C3639 0.961 . S
H3656 C3640 0.931 . S
H3657 C3645 0.930 . S
H3658 C3646 0.956 . S
H3659 C3646 0.961 . S
H3660 C3646 0.961 . S
H3661 C3647 0.958 . S
H3662 C3647 0.961 . S
H3663 C3647 0.960 . S
C3664 C3665 1.391 . S
C3664 C3666 1.394 . S
C3664 H3680 0.931 . S
C3665 C3664 1.391 . S
C3665 C3669 1.376 . S
C3666 C3664 1.394 . S
C3666 C3667 1.369 . S
C3666 C3670 1.531 . S
C3667 C3666 1.369 . S
C3667 C3668 1.410 . S
C3667 C3675 1.503 . S
C3668 C3667 1.410 . S
C3668 C3669 1.392 . S
C3668 C3671 1.511 . S
C3669 C3665 1.376 . S
C3669 C3668 1.392 . S
C3669 H3681 0.929 . S
C3670 C3666 1.531 . S
C3670 H3682 0.960 . S
C3670 H3683 0.962 . S
C3670 H3684 0.960 . S
C3671 C3668 1.511 . S
C3671 H3685 0.961 . S
C3671 H3686 0.961 . S
C3671 H3687 0.961 . S
C3672 C3673 1.370 . S
C3672 C3674 1.363 . S
C3672 H3688 0.931 . S
C3673 C3672 1.370 . S
C3673 C3677 1.408 . S
C3674 C3672 1.363 . S
C3674 C3675 1.370 . S
C3674 C3678 1.524 . S
C3675 C3667 1.503 . S
C3675 C3674 1.370 . S
C3675 C3676 1.403 . S
C3676 C3675 1.403 . S
C3676 C3677 1.404 . S
C3676 C3679 1.539 . S
C3677 C3673 1.408 . S
C3677 C3676 1.404 . S
C3677 H3689 0.930 . S
C3678 C3674 1.524 . S
C3678 H3690 0.956 . S
C3678 H3691 0.961 . S
C3678 H3692 0.961 . S
C3679 C3676 1.539 . S
C3679 H3693 0.958 . S
C3679 H3694 0.961 . S
C3679 H3695 0.960 . S
H3680 C3664 0.931 . S
H3681 C3669 0.929 . S
H3682 C3670 0.960 . S
H3683 C3670 0.962 . S
H3684 C3670 0.960 . S
H3685 C3671 0.961 . S
H3686 C3671 0.961 . S
H3687 C3671 0.961 . S
H3688 C3672 0.931 . S
H3689 C3677 0.930 . S
H3690 C3678 0.956 . S
H3691 C3678 0.961 . S
H3692 C3678 0.961 . S
H3693 C3679 0.958 . S
H3694 C3679 0.961 . S
H3695 C3679 0.960 . S
C3696 C3697 1.391 . S
C3696 C3698 1.394 . S
C3696 H3712 0.931 . S
C3697 C3696 1.391 . S
C3697 C3701 1.376 . S
C3698 C3696 1.394 . S
C3698 C3699 1.369 . S
C3698 C3702 1.531 . S
C3699 C3698 1.369 . S
C3699 C3700 1.410 . S
C3699 C3707 1.503 . S
C3700 C3699 1.410 . S
C3700 C3701 1.392 . S
C3700 C3703 1.511 . S
C3701 C3697 1.376 . S
C3701 C3700 1.392 . S
C3701 H3713 0.929 . S
C3702 C3698 1.531 . S
C3702 H3714 0.960 . S
C3702 H3715 0.962 . S
C3702 H3716 0.960 . S
C3703 C3700 1.511 . S
C3703 H3717 0.961 . S
C3703 H3718 0.961 . S
C3703 H3719 0.961 . S
C3704 C3705 1.370 . S
C3704 C3706 1.363 . S
C3704 H3720 0.931 . S
C3705 C3704 1.370 . S
C3705 C3709 1.408 . S
C3706 C3704 1.363 . S
C3706 C3707 1.370 . S
C3706 C3710 1.524 . S
C3707 C3699 1.503 . S
C3707 C3706 1.370 . S
C3707 C3708 1.403 . S
C3708 C3707 1.403 . S
C3708 C3709 1.404 . S
C3708 C3711 1.539 . S
C3709 C3705 1.408 . S
C3709 C3708 1.404 . S
C3709 H3721 0.930 . S
C3710 C3706 1.524 . S
C3710 H3722 0.956 . S
C3710 H3723 0.961 . S
C3710 H3724 0.961 . S
C3711 C3708 1.539 . S
C3711 H3725 0.958 . S
C3711 H3726 0.961 . S
C3711 H3727 0.960 . S
H3712 C3696 0.931 . S
H3713 C3701 0.929 . S
H3714 C3702 0.960 . S
H3715 C3702 0.962 . S
H3716 C3702 0.960 . S
H3717 C3703 0.961 . S
H3718 C3703 0.961 . S
H3719 C3703 0.961 . S
H3720 C3704 0.931 . S
H3721 C3709 0.930 . S
H3722 C3710 0.956 . S
H3723 C3710 0.961 . S
H3724 C3710 0.961 . S
H3725 C3711 0.958 . S
H3726 C3711 0.961 . S
H3727 C3711 0.960 . S
C3728 C3729 1.391 . S
C3728 C3730 1.394 . S
C3728 H3744 0.931 . S
C3729 C3728 1.391 . S
C3729 C3733 1.376 . S
C3730 C3728 1.394 . S
C3730 C3731 1.369 . S
C3730 C3734 1.531 . S
C3731 C3730 1.369 . S
C3731 C3732 1.410 . S
C3731 C3739 1.503 . S
C3732 C3731 1.410 . S
C3732 C3733 1.392 . S
C3732 C3735 1.511 1_655 S
C3733 C3729 1.376 . S
C3733 C3732 1.392 . S
C3733 H3745 0.927 1_655 S
C3734 C3730 1.531 . S
C3734 H3746 0.960 . S
C3734 H3747 0.962 . S
C3734 H3748 0.960 . S
C3735 C3732 1.511 1_455 S
C3735 H3749 0.961 . S
C3735 H3750 0.961 . S
C3735 H3751 0.961 . S
C3736 C3737 1.370 . S
C3736 C3738 1.363 . S
C3736 H3752 0.931 . S
C3737 C3736 1.370 . S
C3737 C3741 1.409 . S
C3738 C3736 1.363 . S
C3738 C3739 1.370 . S
C3738 C3742 1.524 . S
C3739 C3731 1.503 . S
C3739 C3738 1.370 . S
C3739 C3740 1.403 . S
C3740 C3739 1.403 . S
C3740 C3741 1.434 . S
C3740 C3743 1.538 1_655 S
C3741 C3737 1.409 . S
C3741 C3740 1.434 . S
C3741 H3753 0.904 1_655 S
C3742 C3738 1.524 . S
C3742 H3754 0.956 . S
C3742 H3755 0.961 . S
C3742 H3756 0.961 . S
C3743 C3740 1.538 1_455 S
C3743 H3757 0.917 1_455 S
C3743 H3758 1.012 . S
C3743 H3759 0.955 . S
H3744 C3728 0.931 . S
H3745 C3733 0.927 1_455 S
H3746 C3734 0.960 . S
H3747 C3734 0.962 . S
H3748 C3734 0.960 . S
H3749 C3735 0.961 . S
H3750 C3735 0.961 . S
H3751 C3735 0.961 . S
H3752 C3736 0.931 . S
H3753 C3741 0.904 1_455 S
H3754 C3742 0.956 . S
H3755 C3742 0.961 . S
H3756 C3742 0.961 . S
H3757 C3743 0.917 1_655 S
H3758 C3743 1.012 . S
H3759 C3743 0.955 . S
C3760 C3761 1.391 . S
C3760 C3762 1.394 . S
C3760 H3776 0.931 . S
C3761 C3760 1.391 . S
C3761 C3765 1.376 . S
C3762 C3760 1.394 . S
C3762 C3763 1.369 . S
C3762 C3766 1.531 . S
C3763 C3762 1.369 . S
C3763 C3764 1.410 . S
C3763 C3771 1.503 . S
C3764 C3763 1.410 . S
C3764 C3765 1.392 . S
C3764 C3767 1.511 . S
C3765 C3761 1.376 . S
C3765 C3764 1.392 . S
C3765 H3777 0.929 . S
C3766 C3762 1.531 . S
C3766 H3778 0.960 . S
C3766 H3779 0.962 . S
C3766 H3780 0.960 . S
C3767 C3764 1.511 . S
C3767 H3781 0.961 . S
C3767 H3782 0.961 . S
C3767 H3783 0.961 . S
C3768 C3769 1.370 . S
C3768 C3770 1.363 . S
C3768 H3784 0.931 . S
C3769 C3768 1.370 . S
C3769 C3773 1.408 . S
C3770 C3768 1.363 . S
C3770 C3771 1.370 . S
C3770 C3774 1.524 . S
C3771 C3763 1.503 . S
C3771 C3770 1.370 . S
C3771 C3772 1.403 . S
C3772 C3771 1.403 . S
C3772 C3773 1.404 . S
C3772 C3775 1.539 . S
C3773 C3769 1.408 . S
C3773 C3772 1.404 . S
C3773 H3785 0.930 . S
C3774 C3770 1.524 . S
C3774 H3786 0.956 . S
C3774 H3787 0.961 . S
C3774 H3788 0.961 . S
C3775 C3772 1.539 . S
C3775 H3789 0.958 . S
C3775 H3790 0.961 . S
C3775 H3791 0.960 . S
H3776 C3760 0.931 . S
H3777 C3765 0.929 . S
H3778 C3766 0.960 . S
H3779 C3766 0.962 . S
H3780 C3766 0.960 . S
H3781 C3767 0.961 . S
H3782 C3767 0.961 . S
H3783 C3767 0.961 . S
H3784 C3768 0.931 . S
H3785 C3773 0.930 . S
H3786 C3774 0.956 . S
H3787 C3774 0.961 . S
H3788 C3774 0.961 . S
H3789 C3775 0.958 . S
H3790 C3775 0.961 . S
H3791 C3775 0.960 . S
C3792 C3793 1.391 . S
C3792 C3794 1.394 . S
C3792 H3808 0.931 . S
C3793 C3792 1.391 . S
C3793 C3797 1.376 . S
C3794 C3792 1.394 . S
C3794 C3795 1.369 . S
C3794 C3798 1.531 . S
C3795 C3794 1.369 . S
C3795 C3796 1.410 . S
C3795 C3803 1.503 . S
C3796 C3795 1.410 . S
C3796 C3797 1.392 . S
C3796 C3799 1.511 . S
C3797 C3793 1.376 . S
C3797 C3796 1.392 . S
C3797 H3809 0.929 . S
C3798 C3794 1.531 . S
C3798 H3810 0.960 . S
C3798 H3811 0.962 . S
C3798 H3812 0.960 . S
C3799 C3796 1.511 . S
C3799 H3813 0.961 . S
C3799 H3814 0.961 . S
C3799 H3815 0.961 . S
C3800 C3801 1.370 . S
C3800 C3802 1.363 . S
C3800 H3816 0.931 . S
C3801 C3800 1.370 . S
C3801 C3805 1.408 . S
C3802 C3800 1.363 . S
C3802 C3803 1.370 . S
C3802 C3806 1.524 . S
C3803 C3795 1.503 . S
C3803 C3802 1.370 . S
C3803 C3804 1.403 . S
C3804 C3803 1.403 . S
C3804 C3805 1.404 . S
C3804 C3807 1.539 . S
C3805 C3801 1.408 . S
C3805 C3804 1.404 . S
C3805 H3817 0.930 . S
C3806 C3802 1.524 . S
C3806 H3818 0.956 . S
C3806 H3819 0.961 . S
C3806 H3820 0.961 . S
C3807 C3804 1.539 . S
C3807 H3821 0.958 . S
C3807 H3822 0.961 . S
C3807 H3823 0.960 . S
H3808 C3792 0.931 . S
H3809 C3797 0.929 . S
H3810 C3798 0.960 . S
H3811 C3798 0.962 . S
H3812 C3798 0.960 . S
H3813 C3799 0.961 . S
H3814 C3799 0.961 . S
H3815 C3799 0.961 . S
H3816 C3800 0.931 . S
H3817 C3805 0.930 . S
H3818 C3806 0.956 . S
H3819 C3806 0.961 . S
H3820 C3806 0.961 . S
H3821 C3807 0.958 . S
H3822 C3807 0.961 . S
H3823 C3807 0.960 . S
C3824 C3825 1.391 . S
C3824 C3826 1.394 1_565 S
C3824 H3840 0.931 . S
C3825 C3824 1.391 . S
C3825 C3829 1.376 . S
C3826 C3824 1.394 1_545 S
C3826 C3827 1.369 1_545 S
C3826 C3830 1.531 . S
C3827 C3826 1.369 1_565 S
C3827 C3828 1.410 . S
C3827 C3835 1.503 1_565 S
C3828 C3827 1.410 . S
C3828 C3829 1.392 . S
C3828 C3831 1.511 . S
C3829 C3825 1.376 . S
C3829 C3828 1.392 . S
C3829 H3841 0.929 . S
C3830 C3826 1.531 . S
C3830 H3842 0.960 . S
C3830 H3843 0.962 . S
C3830 H3844 0.960 . S
C3831 C3828 1.511 . S
C3831 H3845 0.961 . S
C3831 H3846 0.961 . S
C3831 H3847 0.961 . S
C3832 C3833 1.370 . S
C3832 C3834 1.363 . S
C3832 H3848 0.931 . S
C3833 C3832 1.370 . S
C3833 C3837 1.408 . S
C3834 C3832 1.363 . S
C3834 C3835 1.370 . S
C3834 C3838 1.524 1_545 S
C3835 C3827 1.503 1_545 S
C3835 C3834 1.370 . S
C3835 C3836 1.403 . S
C3836 C3835 1.403 . S
C3836 C3837 1.404 . S
C3836 C3839 1.539 . S
C3837 C3833 1.408 . S
C3837 C3836 1.404 . S
C3837 H3849 0.930 . S
C3838 C3834 1.524 1_565 S
C3838 H3850 0.956 . S
C3838 H3851 0.961 . S
C3838 H3852 0.961 . S
C3839 C3836 1.539 . S
C3839 H3853 0.958 . S
C3839 H3854 0.961 . S
C3839 H3855 0.960 . S
H3840 C3824 0.931 . S
H3841 C3829 0.929 . S
H3842 C3830 0.960 . S
H3843 C3830 0.962 . S
H3844 C3830 0.960 . S
H3845 C3831 0.961 . S
H3846 C3831 0.961 . S
H3847 C3831 0.961 . S
H3848 C3832 0.931 . S
H3849 C3837 0.930 . S
H3850 C3838 0.956 . S
H3851 C3838 0.961 . S
H3852 C3838 0.961 . S
H3853 C3839 0.958 . S
H3854 C3839 0.961 . S
H3855 C3839 0.960 . S
C3856 C3857 1.391 . S
C3856 C3858 1.394 . S
C3856 H3872 0.931 . S
C3857 C3856 1.391 . S
C3857 C3861 1.376 . S
C3858 C3856 1.394 . S
C3858 C3859 1.369 . S
C3858 C3862 1.531 . S
C3859 C3858 1.369 . S
C3859 C3860 1.410 . S
C3859 C3867 1.503 . S
C3860 C3859 1.410 . S
C3860 C3861 1.392 . S
C3860 C3863 1.511 . S
C3861 C3857 1.376 . S
C3861 C3860 1.392 . S
C3861 H3873 0.929 . S
C3862 C3858 1.531 . S
C3862 H3874 0.960 . S
C3862 H3875 0.962 . S
C3862 H3876 0.960 . S
C3863 C3860 1.511 . S
C3863 H3877 0.961 . S
C3863 H3878 0.961 . S
C3863 H3879 0.961 . S
C3864 C3865 1.370 . S
C3864 C3866 1.363 . S
C3864 H3880 0.931 . S
C3865 C3864 1.370 . S
C3865 C3869 1.408 . S
C3866 C3864 1.363 . S
C3866 C3867 1.370 . S
C3866 C3870 1.524 . S
C3867 C3859 1.503 . S
C3867 C3866 1.370 . S
C3867 C3868 1.403 . S
C3868 C3867 1.403 . S
C3868 C3869 1.404 . S
C3868 C3871 1.539 . S
C3869 C3865 1.408 . S
C3869 C3868 1.404 . S
C3869 H3881 0.930 . S
C3870 C3866 1.524 . S
C3870 H3882 0.956 . S
C3870 H3883 0.961 . S
C3870 H3884 0.961 . S
C3871 C3868 1.539 . S
C3871 H3885 0.958 . S
C3871 H3886 0.961 . S
C3871 H3887 0.960 . S
H3872 C3856 0.931 . S
H3873 C3861 0.929 . S
H3874 C3862 0.960 . S
H3875 C3862 0.962 . S
H3876 C3862 0.960 . S
H3877 C3863 0.961 . S
H3878 C3863 0.961 . S
H3879 C3863 0.961 . S
H3880 C3864 0.931 . S
H3881 C3869 0.930 . S
H3882 C3870 0.956 . S
H3883 C3870 0.961 . S
H3884 C3870 0.961 . S
H3885 C3871 0.958 . S
H3886 C3871 0.961 . S
H3887 C3871 0.960 . S
C3888 C3889 1.405 . S
C3888 C3890 1.394 . S
C3888 H3904 0.931 . S
C3889 C3888 1.405 . S
C3889 C3893 1.368 1_554 S
C3890 C3888 1.394 . S
C3890 C3891 1.369 . S
C3890 C3894 1.531 . S
C3891 C3890 1.369 . S
C3891 C3892 1.410 1_554 S
C3891 C3899 1.503 . S
C3892 C3891 1.410 1_556 S
C3892 C3893 1.392 . S
C3892 C3895 1.511 . S
C3893 C3889 1.368 1_556 S
C3893 C3892 1.392 . S
C3893 H3905 0.929 . S
C3894 C3890 1.531 . S
C3894 H3906 0.960 . S
C3894 H3907 0.962 . S
C3894 H3908 0.960 . S
C3895 C3892 1.511 . S
C3895 H3909 0.961 . S
C3895 H3910 0.961 . S
C3895 H3911 0.961 . S
C3896 C3897 1.370 . S
C3896 C3898 1.363 . S
C3896 H3912 0.931 . S
C3897 C3896 1.370 . S
C3897 C3901 1.408 . S
C3898 C3896 1.363 . S
C3898 C3899 1.370 . S
C3898 C3902 1.524 . S
C3899 C3891 1.503 . S
C3899 C3898 1.370 . S
C3899 C3900 1.403 . S
C3900 C3899 1.403 . S
C3900 C3901 1.404 . S
C3900 C3903 1.539 1_554 S
C3901 C3897 1.408 . S
C3901 C3900 1.404 . S
C3901 H3913 0.930 . S
C3902 C3898 1.524 . S
C3902 H3914 0.956 . S
C3902 H3915 0.961 . S
C3902 H3916 0.961 . S
C3903 C3900 1.539 1_556 S
C3903 H3917 0.958 . S
C3903 H3918 0.961 . S
C3903 H3919 0.960 . S
H3904 C3888 0.931 . S
H3905 C3893 0.929 . S
H3906 C3894 0.960 . S
H3907 C3894 0.962 . S
H3908 C3894 0.960 . S
H3909 C3895 0.961 . S
H3910 C3895 0.961 . S
H3911 C3895 0.961 . S
H3912 C3896 0.931 . S
H3913 C3901 0.930 . S
H3914 C3902 0.956 . S
H3915 C3902 0.961 . S
H3916 C3902 0.961 . S
H3917 C3903 0.958 . S
H3918 C3903 0.961 . S
H3919 C3903 0.960 . S
C3920 C3921 1.391 . S
C3920 C3922 1.394 . S
C3920 H3936 0.931 . S
C3921 C3920 1.391 . S
C3921 C3925 1.376 . S
C3922 C3920 1.394 . S
C3922 C3923 1.369 . S
C3922 C3926 1.531 . S
C3923 C3922 1.369 . S
C3923 C3924 1.410 . S
C3923 C3931 1.503 . S
C3924 C3923 1.410 . S
C3924 C3925 1.392 . S
C3924 C3927 1.511 . S
C3925 C3921 1.376 . S
C3925 C3924 1.392 . S
C3925 H3937 0.929 . S
C3926 C3922 1.531 . S
C3926 H3938 0.960 . S
C3926 H3939 0.962 . S
C3926 H3940 0.960 . S
C3927 C3924 1.511 . S
C3927 H3941 0.961 . S
C3927 H3942 0.961 . S
C3927 H3943 0.961 . S
C3928 C3929 1.370 . S
C3928 C3930 1.363 . S
C3928 H3944 0.931 . S
C3929 C3928 1.370 . S
C3929 C3933 1.408 . S
C3930 C3928 1.363 . S
C3930 C3931 1.370 . S
C3930 C3934 1.524 . S
C3931 C3923 1.503 . S
C3931 C3930 1.370 . S
C3931 C3932 1.403 . S
C3932 C3931 1.403 . S
C3932 C3933 1.404 . S
C3932 C3935 1.539 . S
C3933 C3929 1.408 . S
C3933 C3932 1.404 . S
C3933 H3945 0.930 . S
C3934 C3930 1.524 . S
C3934 H3946 0.956 . S
C3934 H3947 0.961 . S
C3934 H3948 0.961 . S
C3935 C3932 1.539 . S
C3935 H3949 0.958 . S
C3935 H3950 0.961 . S
C3935 H3951 0.960 . S
H3936 C3920 0.931 . S
H3937 C3925 0.929 . S
H3938 C3926 0.960 . S
H3939 C3926 0.962 . S
H3940 C3926 0.960 . S
H3941 C3927 0.961 . S
H3942 C3927 0.961 . S
H3943 C3927 0.961 . S
H3944 C3928 0.931 . S
H3945 C3933 0.930 . S
H3946 C3934 0.956 . S
H3947 C3934 0.961 . S
H3948 C3934 0.961 . S
H3949 C3935 0.958 . S
H3950 C3935 0.961 . S
H3951 C3935 0.960 . S
C3952 C3953 1.391 . S
C3952 C3954 1.394 . S
C3952 H3968 0.931 . S
C3953 C3952 1.391 . S
C3953 C3957 1.376 . S
C3954 C3952 1.394 . S
C3954 C3955 1.369 . S
C3954 C3958 1.531 . S
C3955 C3954 1.369 . S
C3955 C3956 1.410 . S
C3955 C3963 1.503 . S
C3956 C3955 1.410 . S
C3956 C3957 1.392 . S
C3956 C3959 1.511 . S
C3957 C3953 1.376 . S
C3957 C3956 1.392 . S
C3957 H3969 0.929 . S
C3958 C3954 1.531 . S
C3958 H3970 0.960 . S
C3958 H3971 0.962 . S
C3958 H3972 0.960 . S
C3959 C3956 1.511 . S
C3959 H3973 0.961 . S
C3959 H3974 0.961 . S
C3959 H3975 0.961 . S
C3960 C3961 1.370 . S
C3960 C3962 1.363 . S
C3960 H3976 0.931 . S
C3961 C3960 1.370 . S
C3961 C3965 1.408 . S
C3962 C3960 1.363 . S
C3962 C3963 1.370 . S
C3962 C3966 1.524 . S
C3963 C3955 1.503 . S
C3963 C3962 1.370 . S
C3963 C3964 1.403 . S
C3964 C3963 1.403 . S
C3964 C3965 1.404 . S
C3964 C3967 1.539 1_554 S
C3965 C3961 1.408 . S
C3965 C3964 1.404 . S
C3965 H3977 0.930 1_554 S
C3966 C3962 1.524 . S
C3966 H3978 0.956 . S
C3966 H3979 0.961 . S
C3966 H3980 0.961 . S
C3967 C3964 1.539 1_556 S
C3967 H3981 0.958 . S
C3967 H3982 0.961 . S
C3967 H3983 0.960 . S
H3968 C3952 0.931 . S
H3969 C3957 0.929 . S
H3970 C3958 0.960 . S
H3971 C3958 0.962 . S
H3972 C3958 0.960 . S
H3973 C3959 0.961 . S
H3974 C3959 0.961 . S
H3975 C3959 0.961 . S
H3976 C3960 0.931 . S
H3977 C3965 0.930 1_556 S
H3978 C3966 0.956 . S
H3979 C3966 0.961 . S
H3980 C3966 0.961 . S
H3981 C3967 0.958 . S
H3982 C3967 0.961 . S
H3983 C3967 0.960 . S
C3984 C3985 1.391 . S
C3984 C3986 1.394 . S
C3984 H4000 0.931 . S
C3985 C3984 1.391 . S
C3985 C3989 1.376 . S
C3986 C3984 1.394 . S
C3986 C3987 1.369 . S
C3986 C3990 1.531 . S
C3987 C3986 1.369 . S
C3987 C3988 1.410 . S
C3987 C3995 1.503 . S
C3988 C3987 1.410 . S
C3988 C3989 1.392 . S
C3988 C3991 1.511 . S
C3989 C3985 1.376 . S
C3989 C3988 1.392 . S
C3989 H4001 0.929 . S
C3990 C3986 1.531 . S
C3990 H4002 0.960 . S
C3990 H4003 0.962 . S
C3990 H4004 0.960 . S
C3991 C3988 1.511 . S
C3991 H4005 0.961 . S
C3991 H4006 0.961 . S
C3991 H4007 0.961 . S
C3992 C3993 1.370 . S
C3992 C3994 1.363 . S
C3992 H4008 0.931 . S
C3993 C3992 1.370 . S
C3993 C3997 1.408 . S
C3994 C3992 1.363 . S
C3994 C3995 1.370 . S
C3994 C3998 1.524 . S
C3995 C3987 1.503 . S
C3995 C3994 1.370 . S
C3995 C3996 1.403 . S
C3996 C3995 1.403 . S
C3996 C3997 1.404 . S
C3996 C3999 1.539 . S
C3997 C3993 1.408 . S
C3997 C3996 1.404 . S
C3997 H4009 0.930 . S
C3998 C3994 1.524 . S
C3998 H4010 0.956 . S
C3998 H4011 0.961 . S
C3998 H4012 0.961 . S
C3999 C3996 1.539 . S
C3999 H4013 0.958 . S
C3999 H4014 0.961 . S
C3999 H4015 0.960 . S
H4000 C3984 0.931 . S
H4001 C3989 0.929 . S
H4002 C3990 0.960 . S
H4003 C3990 0.962 . S
H4004 C3990 0.960 . S
H4005 C3991 0.961 . S
H4006 C3991 0.961 . S
H4007 C3991 0.961 . S
H4008 C3992 0.931 . S
H4009 C3997 0.930 . S
H4010 C3998 0.956 . S
H4011 C3998 0.961 . S
H4012 C3998 0.961 . S
H4013 C3999 0.958 . S
H4014 C3999 0.961 . S
H4015 C3999 0.960 . S
C4016 C4017 1.391 . S
C4016 C4018 1.394 . S
C4016 H4032 0.931 . S
C4017 C4016 1.391 . S
C4017 C4021 1.376 . S
C4018 C4016 1.394 . S
C4018 C4019 1.369 . S
C4018 C4022 1.531 . S
C4019 C4018 1.369 . S
C4019 C4020 1.410 . S
C4019 C4027 1.503 . S
C4020 C4019 1.410 . S
C4020 C4021 1.392 . S
C4020 C4023 1.511 . S
C4021 C4017 1.376 . S
C4021 C4020 1.392 . S
C4021 H4033 0.929 . S
C4022 C4018 1.531 . S
C4022 H4034 0.960 . S
C4022 H4035 0.962 . S
C4022 H4036 0.960 . S
C4023 C4020 1.511 . S
C4023 H4037 0.961 . S
C4023 H4038 0.961 . S
C4023 H4039 0.961 . S
C4024 C4025 1.370 . S
C4024 C4026 1.363 . S
C4024 H4040 0.931 . S
C4025 C4024 1.370 . S
C4025 C4029 1.408 . S
C4026 C4024 1.363 . S
C4026 C4027 1.370 . S
C4026 C4030 1.524 . S
C4027 C4019 1.503 . S
C4027 C4026 1.370 . S
C4027 C4028 1.403 . S
C4028 C4027 1.403 . S
C4028 C4029 1.404 . S
C4028 C4031 1.539 . S
C4029 C4025 1.408 . S
C4029 C4028 1.404 . S
C4029 H4041 0.930 . S
C4030 C4026 1.524 . S
C4030 H4042 0.956 . S
C4030 H4043 0.961 . S
C4030 H4044 0.961 . S
C4031 C4028 1.539 . S
C4031 H4045 0.958 . S
C4031 H4046 0.961 . S
C4031 H4047 0.960 . S
H4032 C4016 0.931 . S
H4033 C4021 0.929 . S
H4034 C4022 0.960 . S
H4035 C4022 0.962 . S
H4036 C4022 0.960 . S
H4037 C4023 0.961 . S
H4038 C4023 0.961 . S
H4039 C4023 0.961 . S
H4040 C4024 0.931 . S
H4041 C4029 0.930 . S
H4042 C4030 0.956 . S
H4043 C4030 0.961 . S
H4044 C4030 0.961 . S
H4045 C4031 0.958 . S
H4046 C4031 0.961 . S
H4047 C4031 0.960 . S
C977 C106 2.493 . S
C985 C346 2.441 . S
C1009 C65 1.752 . S
C1017 C385 1.696 . S
C1041 C79 1.784 . S
C1049 C426 1.775 . S
C1081 C471 1.233 . S
C1073 C90 1.234 . S
C1105 C21 1.793 . S
C1113 C515 1.830 . S
C1145 C546 1.436 . S
C1137 C35 1.461 . S
C1177 C594 2.035 . S
C1169 C50 2.008 . S
C1201 C6 1.760 . S
C1209 C622 1.805 . S
C1241 C354 1.884 . S
C1233 C232 1.837 . S
C1265 C245 1.485 . S
C1273 C395 1.488 . S
C1305 C434 1.470 . S
C1297 C274 1.490 1_545 S
C1337 C466 1.478 . S
C1329 C175 1.437 . S
C1361 C231 0.411 . S
C1369 C502 0.285 . S
C1401 C554 2.180 . S
C1393 C246 2.152 . S
C1433 C591 0.870 . S
C1425 C273 0.756 . S
C1465 C625 2.210 . S
C1457 C176 2.193 . S
C1497 C351 1.963 . S
C1489 C160 1.971 . S
C1521 C289 1.937 . S
C1529 C665 1.891 . S
C1561 C711 1.343 . S
C1553 C328 1.317 . S
C1593 C746 1.559 . S
C1585 C317 1.617 . S
C1617 C118 1.937 . S
C1625 C635 2.010 . S
C1649 C132 1.379 . S
C1657 C431 1.375 . S
C1681 C331 1.388 . S
C1689 C794 1.410 . S
C1721 C822 0.699 . S
C1713 C303 0.684 . S
C1753 C355 2.051 . S
C1745 C63 2.085 . S
C1785 C834 2.172 . S
C1777 C107 2.209 . S
C1809 C92 1.491 . S
C1817 C435 1.508 . S
C1841 C78 1.628 . S
C1849 C782 1.626 . S
C1881 C506 2.517 . S
C1873 C8 2.482 . S
C1905 C51 1.520 . S
C1913 C715 1.462 . S
C1945 C585 2.288 1_565 S
C1937 C37 2.268 . S
C1977 C871 1.648 . S
C1969 C20 1.673 . S
C2009 C345 1.504 1_556 S
C2001 C147 1.435 . S
C2041 C826 1.629 . S
C2033 C316 1.669 . S
C2065 C119 1.466 . S
C2073 C425 1.525 . S
C2097 C288 1.585 . S
C2105 C795 1.615 . S
C2129 C148 0.307 . S
C2137 C511 0.346 . S
C2169 C705 2.176 . S
C2161 C315 2.164 . S
C2193 C120 1.279 . S
C2201 C582 1.275 . S
C2225 C287 1.908 . S
C2233 C874 1.953 . S
C2257 C188 1.737 . S
C2265 C342 1.719 . S
C2289 C177 2.249 . S
C2297 C674 2.225 . S
C2321 C258 1.265 . S
C2329 C542 1.301 . S
C2353 C247 1.859 . S
C2361 C755 1.804 . S
C2393 C866 1.826 . S
C2385 C272 1.827 . S
C2417 C216 1.251 . S
C2425 C422 1.268 . S
C2457 C465 1.698 . S
C2449 C261 1.579 . S
C2489 C391 0.598 . S
C2481 C205 0.592 . S
C2513 C76 2.092 . S
C2521 C906 2.071 . S
C2553 C825 1.785 . S
C2545 C93 1.837 . S
C2577 C105 1.410 . S
C2585 C946 1.394 . S
C2609 C62 1.248 . S
C2617 C791 1.274 . S
C2641 C49 1.809 . S
C2649 C675 1.812 . S
C2681 C706 1.846 . S
C2673 C9 1.860 . S
C2713 C754 1.971 . S
C2705 C22 1.972 . S
C2745 C862 2.033 . S
C2737 C36 2.118 . S
C2777 C914 1.780 . S
C2769 C260 1.748 . S
C2801 C189 1.369 . S
C2809 C835 1.395 . S
C2841 C954 1.413 . S
C2833 C204 1.433 . S
C2873 C786 1.284 . S
C2865 C217 1.296 . S
C2905 C662 0.329 . S
C2897 C259 0.315 . S
C2929 C190 2.278 . S
C2937 C714 2.274 . S
C2969 C751 1.018 . S
C2961 C203 0.906 . S
C2993 C218 2.230 . S
C3001 C865 2.251 . S
C3033 C911 1.952 . S
C3025 C314 1.917 . S
C3057 C135 1.975 . S
C3065 C505 1.941 . S
C3097 C551 1.304 . S
C3089 C146 1.306 . S
C3129 C586 1.657 . S
C3121 C163 1.708 . S
C3161 C875 2.040 . S
C3153 C300 1.967 . S
C3185 C286 1.320 . S
C3193 C951 1.377 . S
C3225 C474 1.310 . S
C3217 C149 1.326 . S
C3257 C382 0.671 . S
C3249 C121 0.694 . S
C3281 C91 2.066 . S
C3289 C915 2.047 . S
C3321 C394 1.760 . S
C3313 C77 1.730 . S
C3345 C64 1.495 . S
C3353 C955 1.498 . S
C3377 C104 1.355 . S
C3385 C462 1.346 . S
C3409 C34 2.039 . S
C3417 C666 2.104 1_556 S
C3449 C555 1.446 . S
C3441 C23 1.483 . S
C3473 C7 1.804 . S
C3481 C745 1.868 . S
C3505 C48 1.548 . S
C3513 C631 1.565 . S
C3545 C905 1.463 . S
C3537 C329 1.404 . S
C3569 C162 1.671 . S
C3577 C386 1.637 . S
C3609 C945 1.512 1_556 S
C3601 C301 1.388 . S
C3633 C134 1.576 . S
C3641 C475 1.611 . S
C3665 C330 0.344 . S
C3673 C671 0.382 . S
C3705 C545 2.151 . S
C3697 C161 2.126 . S
C3729 C302 1.284 . S
C3737 C742 1.178 . S
C3769 C634 1.934 . S
C3761 C133 1.921 . S
C3801 C902 1.859 . S
C3793 C244 1.893 . S
C3833 C514 2.212 1_655 S
C3825 C219 2.247 . S
C3857 C230 1.126 . S
C3865 C702 1.205 . S
C3897 C595 1.718 . S
C3889 C191 1.795 1_554 S
C3921 C202 1.973 . S
C3929 C626 2.058 . S
C3953 C174 1.417 . S
C3961 C942 1.432 . S
C3993 C785 1.680 . S
C3985 C233 1.547 . S
C4025 C831 0.643 . S
C4017 C275 0.651 . S
