# Generated by pormake.
# Topology soc, (4,6)-cn, num edge types: 1
# Building blocks:
#     Node 0, Type 0, BuildingBlock: ESEHIV_clean_sbu_0, # of connection points: 4
#     Node 1, Type 0, BuildingBlock: ESEHIV_clean_sbu_0, # of connection points: 4
#     Node 2, Type 0, BuildingBlock: ESEHIV_clean_sbu_0, # of connection points: 4
#     Node 3, Type 0, BuildingBlock: ESEHIV_clean_sbu_0, # of connection points: 4
#     Node 4, Type 0, BuildingBlock: ESEHIV_clean_sbu_0, # of connection points: 4
#     Node 5, Type 0, BuildingBlock: ESEHIV_clean_sbu_0, # of connection points: 4
#     Node 6, Type 0, BuildingBlock: ESEHIV_clean_sbu_0, # of connection points: 4
#     Node 7, Type 0, BuildingBlock: ESEHIV_clean_sbu_0, # of connection points: 4
#     Node 8, Type 0, BuildingBlock: ESEHIV_clean_sbu_0, # of connection points: 4
#     Node 9, Type 0, BuildingBlock: ESEHIV_clean_sbu_0, # of connection points: 4
#     Node 10, Type 0, BuildingBlock: ESEHIV_clean_sbu_0, # of connection points: 4
#     Node 11, Type 0, BuildingBlock: ESEHIV_clean_sbu_0, # of connection points: 4
#     Node 12, Type 1, BuildingBlock: KUMBUR_clean_sbu_0, # of connection points: 6
#     Node 13, Type 1, BuildingBlock: KUMBUR_clean_sbu_0, # of connection points: 6
#     Node 14, Type 1, BuildingBlock: KUMBUR_clean_sbu_0, # of connection points: 6
#     Node 15, Type 1, BuildingBlock: KUMBUR_clean_sbu_0, # of connection points: 6
#     Node 16, Type 1, BuildingBlock: KUMBUR_clean_sbu_0, # of connection points: 6
#     Node 17, Type 1, BuildingBlock: KUMBUR_clean_sbu_0, # of connection points: 6
#     Node 18, Type 1, BuildingBlock: KUMBUR_clean_sbu_0, # of connection points: 6
#     Node 19, Type 1, BuildingBlock: KUMBUR_clean_sbu_0, # of connection points: 6
#     Edge 20, Type (0, 1), BuildingBlock: XUDNAN_clean_linker_2, # of connection points: 2
#     Edge 21, Type (0, 1), BuildingBlock: XUDNAN_clean_linker_2, # of connection points: 2
#     Edge 22, Type (0, 1), BuildingBlock: XUDNAN_clean_linker_2, # of connection points: 2
#     Edge 23, Type (0, 1), BuildingBlock: XUDNAN_clean_linker_2, # of connection points: 2
#     Edge 24, Type (0, 1), BuildingBlock: XUDNAN_clean_linker_2, # of connection points: 2
#     Edge 25, Type (0, 1), BuildingBlock: XUDNAN_clean_linker_2, # of connection points: 2
#     Edge 26, Type (0, 1), BuildingBlock: XUDNAN_clean_linker_2, # of connection points: 2
#     Edge 27, Type (0, 1), BuildingBlock: XUDNAN_clean_linker_2, # of connection points: 2
#     Edge 28, Type (0, 1), BuildingBlock: XUDNAN_clean_linker_2, # of connection points: 2
#     Edge 29, Type (0, 1), BuildingBlock: XUDNAN_clean_linker_2, # of connection points: 2
#     Edge 30, Type (0, 1), BuildingBlock: XUDNAN_clean_linker_2, # of connection points: 2
#     Edge 31, Type (0, 1), BuildingBlock: XUDNAN_clean_linker_2, # of connection points: 2
#     Edge 32, Type (0, 1), BuildingBlock: XUDNAN_clean_linker_2, # of connection points: 2
#     Edge 33, Type (0, 1), BuildingBlock: XUDNAN_clean_linker_2, # of connection points: 2
#     Edge 34, Type (0, 1), BuildingBlock: XUDNAN_clean_linker_2, # of connection points: 2
#     Edge 35, Type (0, 1), BuildingBlock: XUDNAN_clean_linker_2, # of connection points: 2
#     Edge 36, Type (0, 1), BuildingBlock: XUDNAN_clean_linker_2, # of connection points: 2
#     Edge 37, Type (0, 1), BuildingBlock: XUDNAN_clean_linker_2, # of connection points: 2
#     Edge 38, Type (0, 1), BuildingBlock: XUDNAN_clean_linker_2, # of connection points: 2
#     Edge 39, Type (0, 1), BuildingBlock: XUDNAN_clean_linker_2, # of connection points: 2
#     Edge 40, Type (0, 1), BuildingBlock: XUDNAN_clean_linker_2, # of connection points: 2
#     Edge 41, Type (0, 1), BuildingBlock: XUDNAN_clean_linker_2, # of connection points: 2
#     Edge 42, Type (0, 1), BuildingBlock: XUDNAN_clean_linker_2, # of connection points: 2
#     Edge 43, Type (0, 1), BuildingBlock: XUDNAN_clean_linker_2, # of connection points: 2
#     Edge 44, Type (0, 1), BuildingBlock: XUDNAN_clean_linker_2, # of connection points: 2
#     Edge 45, Type (0, 1), BuildingBlock: XUDNAN_clean_linker_2, # of connection points: 2
#     Edge 46, Type (0, 1), BuildingBlock: XUDNAN_clean_linker_2, # of connection points: 2
#     Edge 47, Type (0, 1), BuildingBlock: XUDNAN_clean_linker_2, # of connection points: 2
#     Edge 48, Type (0, 1), BuildingBlock: XUDNAN_clean_linker_2, # of connection points: 2
#     Edge 49, Type (0, 1), BuildingBlock: XUDNAN_clean_linker_2, # of connection points: 2
#     Edge 50, Type (0, 1), BuildingBlock: XUDNAN_clean_linker_2, # of connection points: 2
#     Edge 51, Type (0, 1), BuildingBlock: XUDNAN_clean_linker_2, # of connection points: 2
#     Edge 52, Type (0, 1), BuildingBlock: XUDNAN_clean_linker_2, # of connection points: 2
#     Edge 53, Type (0, 1), BuildingBlock: XUDNAN_clean_linker_2, # of connection points: 2
#     Edge 54, Type (0, 1), BuildingBlock: XUDNAN_clean_linker_2, # of connection points: 2
#     Edge 55, Type (0, 1), BuildingBlock: XUDNAN_clean_linker_2, # of connection points: 2
#     Edge 56, Type (0, 1), BuildingBlock: XUDNAN_clean_linker_2, # of connection points: 2
#     Edge 57, Type (0, 1), BuildingBlock: XUDNAN_clean_linker_2, # of connection points: 2
#     Edge 58, Type (0, 1), BuildingBlock: XUDNAN_clean_linker_2, # of connection points: 2
#     Edge 59, Type (0, 1), BuildingBlock: XUDNAN_clean_linker_2, # of connection points: 2
#     Edge 60, Type (0, 1), BuildingBlock: XUDNAN_clean_linker_2, # of connection points: 2
#     Edge 61, Type (0, 1), BuildingBlock: XUDNAN_clean_linker_2, # of connection points: 2
#     Edge 62, Type (0, 1), BuildingBlock: XUDNAN_clean_linker_2, # of connection points: 2
#     Edge 63, Type (0, 1), BuildingBlock: XUDNAN_clean_linker_2, # of connection points: 2
#     Edge 64, Type (0, 1), BuildingBlock: XUDNAN_clean_linker_2, # of connection points: 2
#     Edge 65, Type (0, 1), BuildingBlock: XUDNAN_clean_linker_2, # of connection points: 2
#     Edge 66, Type (0, 1), BuildingBlock: XUDNAN_clean_linker_2, # of connection points: 2
#     Edge 67, Type (0, 1), BuildingBlock: XUDNAN_clean_linker_2, # of connection points: 2
# Relax obj value: 0.068
# Max RMSD: 0.201
# Mean RMSD: 0.141
data_MOF--net-soc--node1-ESEHIV_clean_sbu_0--node2-KUMBUR_clean_sbu_0--edge1-XUDNAN_clean_linker_2
_symmetry_space_group_name_H-M    P1
_symmetry_Int_Tables_number       1
_symmetry_cell_setting            triclinic
loop_
_symmetry_equiv_pos_as_xyz
'x, y, z'
_cell_length_a     51.592002
_cell_length_b     49.836983
_cell_length_c     41.349388
_cell_angle_alpha  82.841853
_cell_angle_beta   81.500583
_cell_angle_gamma 72.419625
loop_
_atom_site_label
_atom_site_type_symbol
_atom_site_fract_x
_atom_site_fract_y
_atom_site_fract_z
_atom_type_partial_charge
Cu0 Cu 0.04944 0.04829 0.35403 0.0
N1 N 0.05936 0.06742 0.38362 0.0
N2 N 0.08367 0.0935 0.39779 0.0
C3 C 0.08364 0.07287 0.37955 0.0
C4 C 0.05836 0.10086 0.41461 0.0
C5 C 0.04334 0.08487 0.4056 0.0
O6 O 0.08478 0.02641 0.33316 0.0
C7 C 0.99932 0.0818 0.32949 0.0
O8 O 0.9895 0.0608 0.34163 0.0
H9 H 0.10027 0.06312 0.3617 0.0
H10 H 1.02171 0.08747 0.41241 0.0
N11 N 0.03126 0.02307 0.37587 0.0
N12 N 1.00808 0.99127 0.38242 0.0
C13 C 1.02227 1.00571 0.36101 0.0
C14 C 1.02273 0.01932 0.40803 0.0
C15 C 1.00823 0.99969 0.41215 0.0
C16 C 0.09089 1.00408 0.31818 0.0
O17 O 0.07172 0.99713 0.3065 0.0
H18 H 0.0243 1.00525 0.33468 0.0
H19 H 0.02622 0.03055 0.42696 0.0
O20 O 0.02494 0.07869 0.32843 0.0
H21 H 0.05048 0.11809 0.43026 0.0
H22 H 0.99828 0.9925 0.43506 0.0
Cu23 Cu 0.04443 0.03949 0.77327 0.0
N24 N 0.03174 0.02381 0.74205 0.0
N25 N 1.01117 0.99838 0.71937 0.0
C26 C 1.01596 1.0061 0.74765 0.0
C27 C 0.02448 0.01189 0.69525 0.0
C28 C 0.03715 0.02739 0.70927 0.0
O29 O 1.01316 0.06412 0.79885 0.0
C30 C 0.09036 0.99645 0.77382 0.0
O31 O 0.09069 0.00843 0.74367 0.0
H32 H 1.00857 0.99875 0.77197 0.0
H33 H 0.04961 0.04024 0.69643 0.0
N34 N 0.06401 0.06412 0.75276 0.0
N35 N 0.09395 0.0891 0.74528 0.0
C36 C 0.08699 0.06686 0.76196 0.0
C37 C 0.05613 0.08546 0.72963 0.0
C38 C 0.07457 0.10103 0.72506 0.0
C39 C 0.99332 0.07858 0.7829 0.0
O40 O 0.99348 0.0733 0.75256 0.0
H41 H 0.09742 0.05393 0.78189 0.0
H42 H 0.03759 0.09018 0.71809 0.0
O43 O 0.07056 1.00752 0.79501 0.0
H44 H 0.02494 0.01095 0.66918 0.0
H45 H 0.0733 0.12024 0.70914 0.0
Cu46 Cu 0.30472 0.07093 0.10887 0.0
N47 N 0.33169 0.05295 0.07709 0.0
N48 N 0.33939 0.02553 0.03565 0.0
C49 C 0.33381 0.0272 0.06849 0.0
C50 C 0.34317 0.05069 0.02358 0.0
C51 C 0.33838 0.06744 0.04903 0.0
O52 O 0.29271 0.04201 0.1407 0.0
C53 C 0.27144 0.12356 0.0833 0.0
O54 O 0.26974 0.1315 0.11284 0.0
H55 H 0.32813 0.01129 0.08564 0.0
H56 H 0.33494 0.09006 0.04614 0.0
N57 N 0.3192 0.09301 0.1308 0.0
N58 N 0.32238 0.1228 0.16523 0.0
C59 C 0.31082 0.10271 0.16086 0.0
C60 C 0.33689 0.1072 0.11627 0.0
C61 C 0.33879 0.12561 0.13733 0.0
C62 C 0.28434 0.02173 0.13423 0.0
O63 O 0.27892 0.02099 0.10436 0.0
H64 H 0.29536 0.09652 0.17826 0.0
H65 H 0.34679 0.10533 0.09143 0.0
O66 O 0.27959 0.09719 0.07962 0.0
H67 H 0.34524 0.0582 0.99792 0.0
H68 H 0.3509 0.14032 0.13238 0.0
Cu69 Cu 0.07226 0.30622 0.1079 0.0
N70 N 0.10088 0.28723 0.07813 0.0
N71 N 0.13303 0.28464 0.03481 0.0
C72 C 0.11241 0.30166 0.05349 0.0
C73 C 0.13432 0.25817 0.04833 0.0
C74 C 0.11443 0.25983 0.07509 0.0
O75 O 0.08995 0.32413 0.13491 0.0
C76 C 0.03646 0.31205 0.0647 0.0
O77 O 0.04788 0.28471 0.06973 0.0
H78 H 0.1054 0.32442 0.04943 0.0
H79 H 0.11036 0.24237 0.09117 0.0
N80 N 0.05369 0.2838 0.13627 0.0
N81 N 1.01892 0.27362 0.16953 0.0
C82 C 0.02717 0.29333 0.14878 0.0
C83 C 0.06245 0.25697 0.14934 0.0
C84 C 0.04108 0.25072 0.17007 0.0
C85 C 0.1079 0.30646 0.15146 0.0
O86 O 0.11178 0.2794 0.14955 0.0
H87 H 1.01444 0.31468 0.14358 0.0
H88 H 0.08298 0.24309 0.14472 0.0
O89 O 0.04455 0.32862 0.07953 0.0
H90 H 0.14884 0.23895 0.03999 0.0
H91 H 0.04186 0.23096 0.1847 0.0
Cu92 Cu 0.81062 0.01586 1.00379 0.0
N93 N 0.82214 0.04047 0.97082 0.0
N94 N 0.82078 0.08304 0.94494 0.0
C95 C 0.807 0.06743 0.96547 0.0
C96 C 0.84564 0.06484 0.93665 0.0
C97 C 0.84648 0.03861 0.95284 0.0
O98 O 0.79845 0.03835 0.04188 0.0
C99 C 0.78724 0.99523 0.95764 0.0
O100 O 0.80069 0.00931 0.9361 0.0
H101 H 0.78649 0.07552 0.9776 0.0
H102 H 0.86401 0.02005 0.95287 0.0
N103 N 0.8382 0.98492 1.01829 0.0
N104 N 0.854 0.94657 0.05193 0.0
C105 C 0.83522 0.97189 0.04852 0.0
C106 C 0.85979 0.96739 1.00179 0.0
C107 C 0.86965 0.94363 0.02258 0.0
C108 C 0.81873 0.04476 0.04993 0.0
O109 O 0.84264 0.03593 0.03241 0.0
H110 H 0.81785 0.97961 0.06655 0.0
H111 H 0.86647 0.97054 0.97592 0.0
O112 O 0.78603 0.99815 0.98818 0.0
H113 H 0.86254 0.07035 0.92144 0.0
H114 H 0.88586 0.92488 1.01594 0.0
Cu115 Cu 0.03033 0.79244 0.02879 0.0
N116 N 1.00688 0.80335 0.99604 0.0
N117 N 0.97571 0.80368 0.96348 0.0
C118 C 0.99172 0.78861 0.98655 0.0
C119 C 0.9812 0.82883 0.95843 0.0
C120 C 1.00031 0.82855 0.97849 0.0
O121 O 1.01324 0.77134 0.06663 0.0
C122 C 0.07832 0.78473 0.9801 0.0
O123 O 0.06036 0.80112 0.96143 0.0
H124 H 0.99237 0.76737 0.99669 0.0
H125 H 1.00861 0.84569 0.98048 0.0
N126 N 0.0313 0.82468 0.04619 0.0
N127 N 0.04683 0.84868 0.07672 0.0
C128 C 0.05212 0.82481 0.06192 0.0
C129 C 1.01217 0.84967 0.05083 0.0
C130 C 1.02167 0.86449 0.07026 0.0
C131 C 0.9902 0.78516 0.08154 0.0
O132 O 0.97872 0.81106 0.06976 0.0
H133 H 0.07022 0.80698 0.06413 0.0
H134 H 0.99226 0.85611 0.04214 0.0
O135 O 0.06963 0.77646 1.00935 0.0
H136 H 0.97158 0.8466 0.94213 0.0
H137 H 1.01082 0.88472 0.07961 0.0
Cu138 Cu 0.54647 0.54389 0.86023 0.0
N139 N 0.55564 0.56324 0.89038 0.0
N140 N 0.57342 0.59426 0.90645 0.0
C141 C 0.57192 0.58003 0.8815 0.0
C142 C 0.55737 0.58611 0.93223 0.0
C143 C 0.54643 0.5668 0.92222 0.0
O144 O 0.58096 0.52354 0.83762 0.0
C145 C 0.50165 0.58704 0.85107 0.0
O146 O 0.49882 0.58062 0.88292 0.0
H147 H 0.58167 0.58252 0.85671 0.0
H148 H 0.53212 0.55683 0.93678 0.0
N149 N 0.52782 0.51861 0.88038 0.0
N150 N 0.49965 0.49165 0.88617 0.0
C151 C 0.5089 0.51151 0.86695 0.0
C152 C 0.53074 0.50284 0.90917 0.0
C153 C 0.51327 0.48618 0.91288 0.0
C154 C 0.58616 0.50004 0.8254 0.0
O155 O 0.566 0.49051 0.82078 0.0
H156 H 0.50233 0.52064 0.84332 0.0
H157 H 0.54498 0.50298 0.92584 0.0
O158 O 0.52217 0.57225 0.83365 0.0
H159 H 0.55377 0.59359 0.95643 0.0
H160 H 0.5115 0.47056 0.93309 0.0
Cu161 Cu 0.55313 0.55088 0.26739 0.0
N162 N 0.53284 0.53766 0.24307 0.0
N163 N 0.5065 0.51173 0.23443 0.0
C164 C 0.52322 0.51568 0.25434 0.0
C165 C 0.50562 0.53222 0.20954 0.0
C166 C 0.52175 0.54836 0.2151 0.0
O167 O 0.52482 0.57586 0.29643 0.0
C168 C 0.59565 0.50437 0.25993 0.0
O169 O 0.5881 0.51369 0.23061 0.0
H170 H 0.52737 0.50386 0.27771 0.0
H171 H 0.52408 0.56721 0.20058 0.0
N172 N 0.57405 0.57179 0.24199 0.0
N173 N 0.60639 0.59372 0.23364 0.0
C174 C 0.59319 0.57848 0.25519 0.0
C175 C 0.57564 0.58235 0.21039 0.0
C176 C 0.59571 0.59608 0.20517 0.0
C177 C 0.52082 0.60262 0.29502 0.0
O178 O 0.54047 0.61339 0.28134 0.0
H179 H 0.597 0.57249 0.28051 0.0
H180 H 0.56327 0.58039 0.19244 0.0
O181 O 0.58118 0.51737 0.2843 0.0
H182 H 0.49368 0.53583 0.18916 0.0
H183 H 0.60141 0.60753 0.18258 0.0
Cu184 Cu 0.79107 0.581 0.6232 0.0
N185 N 0.77122 0.60735 0.59285 0.0
N186 N 0.76575 0.63544 0.54637 0.0
C187 C 0.78195 0.62422 0.57029 0.0
C188 C 0.74382 0.62554 0.5543 0.0
C189 C 0.7471 0.60841 0.58324 0.0
O190 O 0.80985 0.60073 0.64619 0.0
C191 C 0.81103 0.54529 0.57054 0.0
O192 O 0.80286 0.56832 0.55115 0.0
H193 H 0.80272 0.6253 0.56919 0.0
H194 H 0.73424 0.59544 0.59459 0.0
N195 N 0.76849 0.56501 0.65411 0.0
N196 N 0.75869 0.52669 0.6812 0.0
C197 C 0.7673 0.53868 0.65212 0.0
C198 C 0.75963 0.57041 0.68556 0.0
C199 C 0.75345 0.54686 0.70231 0.0
C200 C 0.79564 0.62508 0.65504 0.0
O201 O 0.77015 0.63473 0.64844 0.0
H202 H 0.77587 0.52736 0.63057 0.0
H203 H 0.76036 0.58882 0.69634 0.0
O204 O 0.81336 0.54753 0.60035 0.0
H205 H 0.72792 0.62836 0.53871 0.0
H206 H 0.74768 0.54415 0.72847 0.0
Cu207 Cu 0.57626 0.8041 0.60053 0.0
N208 N 0.61044 0.78782 0.57324 0.0
N209 N 0.64381 0.78628 0.53002 0.0
C210 C 0.61646 0.79175 0.53985 0.0
C211 C 0.65557 0.77874 0.55796 0.0
C212 C 0.63532 0.77967 0.58411 0.0
O213 O 0.58697 0.82546 0.63038 0.0
C214 C 0.54825 0.80812 0.55122 0.0
O215 O 0.56174 0.78124 0.55527 0.0
H216 H 0.60121 0.80015 0.52305 0.0
H217 H 0.6387 0.77622 0.60957 0.0
N218 N 0.55365 0.78267 0.62698 0.0
N219 N 0.51465 0.77679 0.65698 0.0
C220 C 0.53085 0.79419 0.64782 0.0
C221 C 0.55165 0.75685 0.62336 0.0
C222 C 0.52786 0.75327 0.64159 0.0
C223 C 0.59932 0.81064 0.65409 0.0
O224 O 0.60147 0.78353 0.65841 0.0
H225 H 0.52548 0.81559 0.65478 0.0
H226 H 0.56569 0.74215 0.60713 0.0
O227 O 0.55154 0.82534 0.56947 0.0
H228 H 0.67734 0.77351 0.55943 0.0
H229 H 0.52059 0.73487 0.64299 0.0
Cu230 Cu 0.31184 0.51452 0.51341 0.0
N231 N 0.33041 0.53622 0.48299 0.0
N232 N 0.33669 0.57371 0.44978 0.0
C233 C 0.31964 0.56389 0.47303 0.0
C234 C 0.35908 0.55131 0.44501 0.0
C235 C 0.35526 0.52837 0.46561 0.0
O236 O 0.29153 0.54077 0.54504 0.0
C237 C 0.30422 0.48207 0.4692 0.0
O238 O 0.33101 0.47625 0.46631 0.0
H239 H 0.29921 0.57628 0.48176 0.0
H240 H 0.36934 0.50731 0.46722 0.0
N241 N 0.33297 0.4836 0.5388 0.0
N242 N 0.33895 0.44892 0.57969 0.0
C243 C 0.32194 0.46502 0.55828 0.0
C244 C 0.35817 0.47859 0.54792 0.0
C245 C 0.36183 0.45728 0.57328 0.0
C246 C 0.30801 0.54985 0.55764 0.0
O247 O 0.33441 0.53987 0.5489 0.0
H248 H 0.3012 0.46437 0.55797 0.0
H249 H 0.37235 0.49054 0.53808 0.0
O250 O 0.29006 0.4997 0.4895 0.0
H251 H 0.37682 0.55137 0.4274 0.0
H252 H 0.37975 0.44881 0.58621 0.0
Cu253 Cu 0.52119 0.2876 0.52504 0.0
N254 N 0.55197 0.26939 0.49683 0.0
N255 N 0.59221 0.26512 0.46561 0.0
C256 C 0.56914 0.28306 0.47938 0.0
C257 C 0.58943 0.23908 0.47451 0.0
C258 C 0.56457 0.24175 0.49366 0.0
O259 O 0.53679 0.30836 0.55127 0.0
C260 C 0.48596 0.29523 0.47629 0.0
O261 O 0.50414 0.27164 0.4678 0.0
H262 H 0.56543 0.30571 0.47835 0.0
H263 H 0.55685 0.22464 0.50522 0.0
N264 N 0.5059 0.26419 0.55632 0.0
N265 N 0.47758 0.25563 0.60053 0.0
C266 C 0.4847 0.27539 0.57849 0.0
C267 C 0.51245 0.23612 0.56422 0.0
C268 C 0.49502 0.23079 0.59143 0.0
C269 C 0.55502 0.29097 0.56767 0.0
O270 O 0.55918 0.26388 0.56553 0.0
H271 H 0.47501 0.29788 0.57838 0.0
H272 H 0.52912 0.22058 0.55197 0.0
O273 O 0.49041 0.30775 0.49931 0.0
H274 H 0.60443 0.2195 0.46798 0.0
H275 H 0.49584 0.21024 0.60406 0.0
Tb276 Tb 0.27004 0.29361 0.35878 0.0
C277 C 0.31721 0.31401 0.21477 0.0
C278 C 0.3584 0.27514 0.20642 0.0
C279 C 0.33603 0.30111 0.15948 0.0
C280 C 0.33801 0.29266 0.22748 0.0
C281 C 0.31611 0.31878 0.18058 0.0
C282 C 0.35725 0.27944 0.17236 0.0
C283 C 0.27829 0.36059 0.19031 0.0
N284 N 0.29936 0.33161 0.23578 0.0
C285 C 0.28083 0.35549 0.22388 0.0
C286 C 0.29587 0.34202 0.16855 0.0
Tb287 Tb 0.30647 0.32311 0.28999 0.0
N288 N 0.33902 0.28997 0.26036 0.0
C289 C 0.36041 0.2703 0.27367 0.0
C290 C 0.3796 0.25421 0.22016 0.0
C291 C 0.38061 0.25182 0.25395 0.0
H292 H 0.26782 0.37048 0.24042 0.0
H293 H 0.39719 0.23602 0.26478 0.0
H294 H 0.37272 0.26622 0.15579 0.0
H295 H 0.26314 0.37914 0.18119 0.0
H296 H 0.36209 0.26854 0.29957 0.0
H297 H 0.17274 0.37253 0.38392 0.0
H298 H 0.39551 0.24017 0.20486 0.0
H299 H 0.31201 0.25148 0.40959 0.0
H300 H 0.20913 0.34093 0.34972 0.0
H301 H 0.31904 0.24845 0.46784 0.0
H302 H 0.33557 0.30445 0.13314 0.0
H303 H 0.17813 0.37598 0.44154 0.0
H304 H 0.20603 0.35869 0.48888 0.0
H305 H 0.2943 0.34637 0.14247 0.0
H306 H 0.246 0.32495 0.51177 0.0
N307 N 0.23551 0.32574 0.38743 0.0
C308 C 0.21205 0.34173 0.37479 0.0
C309 C 0.19429 0.36179 0.42666 0.0
C310 C 0.21786 0.34473 0.43983 0.0
C311 C 0.19113 0.35982 0.3942 0.0
C312 C 0.23812 0.32641 0.41947 0.0
H313 H 0.28809 0.2835 0.50421 0.0
N314 N 0.27811 0.28866 0.41253 0.0
C315 C 0.3025 0.26519 0.45817 0.0
C316 C 0.26028 0.30728 0.43246 0.0
C317 C 0.29842 0.26694 0.42519 0.0
C318 C 0.28504 0.28506 0.47859 0.0
C319 C 0.26328 0.30612 0.46599 0.0
O320 O 0.27119 0.25122 0.37145 0.0
O321 O 0.29466 0.28629 0.3119 0.0
O322 O 0.27267 0.31544 0.26986 0.0
O323 O 0.24391 0.3096 0.31802 0.0
O324 O 0.30563 0.2572 0.34996 0.0
O325 O 0.2334 0.2826 0.36129 0.0
O326 O 0.30908 0.3646 0.27963 0.0
O327 O 0.28073 0.32979 0.33533 0.0
O328 O 0.30069 0.30801 0.37759 0.0
O329 O 0.33233 0.30561 0.33106 0.0
O330 O 0.2731 0.36179 0.3011 0.0
O331 O 0.3448 0.3301 0.28943 0.0
C332 C 0.31038 0.26203 0.3187 0.0
C333 C 0.23048 0.24265 0.39746 0.0
C334 C 0.20352 0.20963 0.41497 0.0
C335 C 0.2156 0.22541 0.38994 0.0
C336 C 0.20613 0.212 0.44784 0.0
C337 C 0.23265 0.24494 0.43033 0.0
C338 C 0.22042 0.22973 0.45538 0.0
C339 C 0.24869 0.31408 0.28552 0.0
C340 C 0.24507 0.25623 0.37039 0.0
C341 C 0.24398 0.32535 0.48599 0.0
C342 C 0.22124 0.34458 0.47295 0.0
C343 C 0.26604 0.3549 0.33141 0.0
C344 C 0.35168 0.36905 0.2543 0.0
C345 C 0.36984 0.38254 0.26214 0.0
C346 C 0.38483 0.39534 0.23712 0.0
C347 C 0.38183 0.39404 0.20415 0.0
C348 C 0.34875 0.36822 0.22128 0.0
C349 C 0.36388 0.38049 0.19635 0.0
C350 C 0.32582 0.30643 0.36341 0.0
C351 C 0.33536 0.35701 0.28098 0.0
H352 H 0.21371 0.22421 0.36443 0.0
H353 H 0.19764 0.19978 0.46778 0.0
H354 H 0.2441 0.25801 0.43667 0.0
H355 H 0.22241 0.23131 0.48072 0.0
H356 H 0.3718 0.38367 0.28766 0.0
H357 H 0.39346 0.4034 0.18441 0.0
H358 H 0.33466 0.3585 0.21456 0.0
H359 H 0.36152 0.37967 0.17094 0.0
Tb360 Tb 0.80655 0.31532 0.34626 0.0
C361 C 0.72968 0.26985 0.29306 0.0
C362 C 0.7299 0.22789 0.32973 0.0
C363 C 0.68901 0.25333 0.30429 0.0
C364 C 0.74321 0.24778 0.31385 0.0
C365 C 0.7025 0.27252 0.28771 0.0
C366 C 0.70275 0.23095 0.32505 0.0
C367 C 0.70496 0.3103 0.24623 0.0
N368 N 0.7435 0.28768 0.27668 0.0
C369 C 0.73197 0.30635 0.25168 0.0
C370 C 0.68997 0.29361 0.26473 0.0
Tb371 Tb 0.78874 0.27774 0.28636 0.0
N372 N 0.76951 0.24538 0.31806 0.0
C373 C 0.78327 0.22337 0.33833 0.0
C374 C 0.74431 0.20519 0.34956 0.0
C375 C 0.77099 0.20312 0.35414 0.0
H376 H 0.74369 0.31825 0.23534 0.0
H377 H 0.78225 0.18577 0.36979 0.0
H378 H 0.69229 0.21589 0.33708 0.0
H379 H 0.69601 0.3257 0.22709 0.0
H380 H 0.80381 0.22058 0.34284 0.0
H381 H 0.83254 0.39017 0.24964 0.0
H382 H 0.73501 0.1892 0.36154 0.0
H383 H 0.83839 0.28239 0.41071 0.0
H384 H 0.80267 0.36463 0.2825 0.0
H385 H 0.88279 0.2756 0.43102 0.0
H386 H 0.6682 0.25514 0.30048 0.0
H387 H 0.87981 0.3818 0.2624 0.0
H388 H 0.91605 0.35781 0.29939 0.0
H389 H 0.66919 0.29629 0.25999 0.0
H390 H 0.92972 0.3267 0.34883 0.0
N391 N 0.83259 0.34084 0.31374 0.0
C392 C 0.82305 0.36056 0.28881 0.0
C393 C 0.86671 0.37039 0.2771 0.0
C394 C 0.87588 0.35149 0.30377 0.0
C395 C 0.84005 0.37519 0.26986 0.0
C396 C 0.85807 0.33701 0.32194 0.0
H397 H 0.91729 0.29637 0.39835 0.0
N398 N 0.84782 0.30634 0.36649 0.0
C399 C 0.87839 0.28777 0.40788 0.0
C400 C 0.86585 0.31932 0.34943 0.0
C401 C 0.85326 0.29171 0.39628 0.0
C402 C 0.89782 0.29949 0.38936 0.0
C403 C 0.89154 0.31582 0.35996 0.0
O404 O 0.79877 0.32543 0.39584 0.0
O405 O 0.77765 0.29621 0.33287 0.0
O406 O 0.76504 0.32218 0.27999 0.0
O407 O 0.77254 0.34505 0.32225 0.0
O408 O 0.78344 0.29117 0.38107 0.0
O409 O 0.78665 0.3573 0.35666 0.0
O410 O 0.79492 0.27659 0.23533 0.0
O411 O 0.81786 0.2964 0.29954 0.0
O412 O 0.83336 0.27162 0.35172 0.0
O413 O 0.82503 0.24941 0.30882 0.0
O414 O 0.8153 0.29742 0.2509 0.0
O415 O 0.80092 0.23786 0.26677 0.0
C416 C 0.76952 0.2859 0.36045 0.0
C417 C 0.80337 0.37103 0.40038 0.0
C418 C 0.80971 0.39774 0.44309 0.0
C419 C 0.79641 0.3798 0.43266 0.0
C420 C 0.83068 0.40539 0.42189 0.0
C421 C 0.82284 0.38127 0.37916 0.0
C422 C 0.83702 0.39737 0.39009 0.0
C423 C 0.76012 0.34448 0.29667 0.0
C424 C 0.78992 0.35248 0.38776 0.0
C425 C 0.90978 0.32935 0.34133 0.0
C426 C 0.90199 0.3471 0.31322 0.0
C427 C 0.82886 0.30321 0.27143 0.0
C428 C 0.78438 0.23896 0.21526 0.0
C429 C 0.79212 0.21016 0.20929 0.0
C430 C 0.77933 0.20071 0.18671 0.0
C431 C 0.75791 0.2204 0.17141 0.0
C432 C 0.76373 0.2581 0.19826 0.0
C433 C 0.75018 0.24876 0.17728 0.0
C434 C 0.83845 0.2496 0.33405 0.0
C435 C 0.79945 0.24931 0.23667 0.0
H436 H 0.7803 0.37366 0.44891 0.0
H437 H 0.84121 0.41894 0.4295 0.0
H438 H 0.82664 0.37768 0.35368 0.0
H439 H 0.85231 0.40453 0.37343 0.0
H440 H 0.80859 0.19539 0.22148 0.0
H441 H 0.74795 0.21429 0.15344 0.0
H442 H 0.75851 0.28051 0.20016 0.0
H443 H 0.7343 0.26381 0.16449 0.0
Tb444 Tb 0.79628 0.77158 0.27643 0.0
C445 C 0.80684 0.82461 0.39188 0.0
C446 C 0.77654 0.87146 0.38013 0.0
C447 C 0.78533 0.85484 0.43624 0.0
C448 C 0.79446 0.84575 0.36934 0.0
C449 C 0.80221 0.82892 0.42567 0.0
C450 C 0.7724 0.87601 0.41354 0.0
C451 C 0.83271 0.78242 0.43631 0.0
N452 N 0.82361 0.80002 0.38077 0.0
C453 C 0.83729 0.77939 0.40266 0.0
C454 C 0.815 0.80725 0.44792 0.0
Tb455 Tb 0.83273 0.79955 0.3243 0.0
N456 N 0.79906 0.84077 0.33712 0.0
C457 C 0.78441 0.86007 0.31494 0.0
C458 C 0.7627 0.8916 0.35717 0.0
C459 C 0.7663 0.88564 0.32455 0.0
H460 H 0.85275 0.76075 0.39423 0.0
H461 H 0.75497 0.90068 0.30673 0.0
H462 H 0.75888 0.89567 0.42215 0.0
H463 H 0.84355 0.76588 0.45317 0.0
H464 H 0.78551 0.85595 0.28988 0.0
H465 H 0.86523 0.66718 0.25453 0.0
H466 H 0.74862 0.91145 0.36453 0.0
H467 H 0.75982 0.82147 0.22508 0.0
H468 H 0.83952 0.70513 0.28818 0.0
H469 H 0.75779 0.83073 0.16522 0.0
H470 H 0.78175 0.85854 0.46201 0.0
H471 H 0.86766 0.67461 0.19419 0.0
H472 H 0.85327 0.7062 0.14433 0.0
H473 H 0.81184 0.80974 0.474 0.0
H474 H 0.82442 0.75066 0.12005 0.0
N475 N 0.82501 0.7349 0.24798 0.0
C476 C 0.8391 0.70925 0.26217 0.0
C477 C 0.8556 0.69158 0.20896 0.0
C478 C 0.84105 0.71752 0.19442 0.0
C479 C 0.85415 0.68726 0.24299 0.0
C480 C 0.82533 0.73889 0.21477 0.0
H481 H 0.78871 0.79689 0.1276 0.0
N482 N 0.79276 0.78345 0.22124 0.0
C483 C 0.77236 0.81198 0.17492 0.0
C484 C 0.80877 0.76385 0.20102 0.0
C485 C 0.77358 0.80667 0.20873 0.0
C486 C 0.78984 0.79282 0.15379 0.0
C487 C 0.80793 0.76819 0.16672 0.0
O488 O 0.75432 0.78032 0.27349 0.0
O489 O 0.79531 0.7891 0.32213 0.0
O490 O 0.82714 0.76067 0.35167 0.0
O491 O 0.80898 0.73931 0.31702 0.0
O492 O 0.7621 0.80469 0.29971 0.0
O493 O 0.78005 0.73713 0.28039 0.0
O494 O 0.87126 0.79023 0.34098 0.0
O495 O 0.83504 0.778 0.28146 0.0
O496 O 0.80872 0.80535 0.24593 0.0
O497 O 0.82997 0.82671 0.27681 0.0
O498 O 0.86844 0.76605 0.30443 0.0
O499 O 0.85227 0.83164 0.31822 0.0
C500 C 0.77073 0.80397 0.32763 0.0
C501 C 0.74259 0.74528 0.24977 0.0
C502 C 0.72291 0.71126 0.23307 0.0
C503 C 0.73749 0.71895 0.25471 0.0
C504 C 0.71519 0.72936 0.20501 0.0
C505 C 0.73301 0.76385 0.22276 0.0
C506 C 0.7203 0.75552 0.19994 0.0
C507 C 0.81932 0.73936 0.34448 0.0
C508 C 0.75587 0.75361 0.27452 0.0
C509 C 0.82462 0.74756 0.14643 0.0
C510 C 0.84108 0.72226 0.16025 0.0
C511 C 0.85944 0.76198 0.27857 0.0
C512 C 0.88095 0.82944 0.35891 0.0
C513 C 0.88964 0.85375 0.34979 0.0
C514 C 0.89854 0.86625 0.37314 0.0
C515 C 0.89714 0.85512 0.4061 0.0
C516 C 0.88189 0.81752 0.39151 0.0
C517 C 0.88892 0.83084 0.41512 0.0
C518 C 0.82018 0.82502 0.2493 0.0
C519 C 0.87268 0.81603 0.33372 0.0
H520 H 0.74374 0.70501 0.27627 0.0
H521 H 0.70363 0.72417 0.1881 0.0
H522 H 0.73431 0.78514 0.2197 0.0
H523 H 0.71323 0.76991 0.17909 0.0
H524 H 0.89033 0.86237 0.32438 0.0
H525 H 0.90405 0.86408 0.42459 0.0
H526 H 0.87819 0.79746 0.39876 0.0
H527 H 0.88912 0.82163 0.44025 0.0
Tb528 Tb 0.28842 0.79061 0.27725 0.0
C529 C 0.31698 0.88077 0.3266 0.0
C530 C 0.35111 0.88719 0.28178 0.0
C531 C 0.32243 0.9276 0.31012 0.0
C532 C 0.33787 0.86947 0.30273 0.0
C533 C 0.30966 0.90985 0.33126 0.0
C534 C 0.34301 0.91631 0.28531 0.0
C535 C 0.27994 0.90129 0.37962 0.0
N536 N 0.30465 0.86312 0.34624 0.0
C537 C 0.28799 0.87267 0.37412 0.0
C538 C 0.29035 0.9201 0.35765 0.0
Tb539 Tb 0.31969 0.81633 0.3349 0.0
N540 N 0.34503 0.84124 0.29978 0.0
C541 C 0.36618 0.82937 0.27691 0.0
C542 C 0.37209 0.87517 0.25782 0.0
C543 C 0.37976 0.84611 0.25555 0.0
H544 H 0.28102 0.85802 0.39231 0.0
H545 H 0.3961 0.83656 0.2372 0.0
H546 H 0.35281 0.93023 0.26927 0.0
H547 H 0.2661 0.90868 0.40112 0.0
H548 H 0.37253 0.80713 0.27405 0.0
H549 H 0.21419 0.76325 0.37316 0.0
H550 H 0.3826 0.88809 0.24113 0.0
H551 H 0.32808 0.75465 0.21664 0.0
H552 H 0.24149 0.79295 0.34433 0.0
H553 H 0.33607 0.70852 0.19492 0.0
H554 H 0.31684 0.95 0.31307 0.0
H555 H 0.21937 0.71651 0.35459 0.0
H556 H 0.24231 0.6801 0.31484 0.0
H557 H 0.28428 0.94224 0.36209 0.0
H558 H 0.27565 0.66503 0.26682 0.0
N559 N 0.26244 0.76412 0.30827 0.0
C560 C 0.24396 0.77311 0.33492 0.0
C561 C 0.2314 0.72971 0.34133 0.0
C562 C 0.24998 0.72062 0.31395 0.0
C563 C 0.22841 0.75606 0.35185 0.0
C564 C 0.2653 0.73855 0.29766 0.0
H565 H 0.31079 0.67533 0.22223 0.0
N566 N 0.29951 0.74717 0.25696 0.0
C567 C 0.32169 0.7141 0.21659 0.0
C568 C 0.2844 0.72984 0.27107 0.0
C569 C 0.31724 0.74011 0.22914 0.0
C570 C 0.3073 0.69549 0.23197 0.0
C571 C 0.28825 0.70331 0.25942 0.0
O572 O 0.28499 0.80185 0.22726 0.0
O573 O 0.30078 0.82552 0.28953 0.0
O574 O 0.27537 0.83768 0.34309 0.0
O575 O 0.25626 0.82403 0.3022 0.0
O576 O 0.31027 0.81542 0.24211 0.0
O577 O 0.24899 0.80278 0.262 0.0
O578 O 0.32421 0.81413 0.38498 0.0
O579 O 0.30544 0.78275 0.32347 0.0
O580 O 0.33101 0.76377 0.27452 0.0
O581 O 0.35117 0.77994 0.31246 0.0
O582 O 0.30331 0.7874 0.37173 0.0
O583 O 0.35955 0.8065 0.34854 0.0
C584 C 0.30945 0.83431 0.26114 0.0
C585 C 0.24778 0.79319 0.2075 0.0
C586 C 0.20917 0.79378 0.17982 0.0
C587 C 0.21968 0.80281 0.20453 0.0
C588 C 0.22664 0.77356 0.15945 0.0
C589 C 0.26519 0.77426 0.18555 0.0
C590 C 0.25453 0.76385 0.16241 0.0
C591 C 0.25445 0.83934 0.32693 0.0
C592 C 0.25865 0.80555 0.23112 0.0
C593 C 0.27292 0.68551 0.27536 0.0
C594 C 0.25389 0.69411 0.30264 0.0
C595 C 0.29938 0.77152 0.35174 0.0
C596 C 0.36297 0.82569 0.39701 0.0
C597 C 0.38556 0.81184 0.41421 0.0
C598 C 0.39623 0.82736 0.43227 0.0
C599 C 0.38422 0.85658 0.43323 0.0
C600 C 0.35224 0.85512 0.39732 0.0
C601 C 0.36245 0.87038 0.41557 0.0
C602 C 0.35216 0.7624 0.2901 0.0
C603 C 0.35073 0.8092 0.37953 0.0
H604 H 0.20633 0.81867 0.22004 0.0
H605 H 0.21885 0.76612 0.14043 0.0
H606 H 0.28707 0.76821 0.18524 0.0
H607 H 0.26807 0.74907 0.14586 0.0
H608 H 0.39482 0.78925 0.41349 0.0
H609 H 0.39245 0.86894 0.44655 0.0
H610 H 0.33619 0.86675 0.38349 0.0
H611 H 0.35372 0.89305 0.41558 0.0
Tb612 Tb 0.30074 0.80171 0.8457 0.0
C613 C 0.23063 0.74699 0.79491 0.0
C614 C 0.24376 0.70034 0.82327 0.0
C615 C 0.20004 0.71725 0.80156 0.0
C616 C 0.24989 0.72566 0.81017 0.0
C617 C 0.20527 0.74314 0.79085 0.0
C618 C 0.21922 0.69591 0.8179 0.0
C619 C 0.19212 0.79043 0.76507 0.0
N620 N 0.23646 0.77171 0.78464 0.0
C621 C 0.21768 0.79301 0.76889 0.0
C622 C 0.18586 0.76536 0.77605 0.0
Tb623 Tb 0.28151 0.77103 0.78392 0.0
N624 N 0.27337 0.73085 0.81503 0.0
C625 C 0.28885 0.71325 0.83796 0.0
C626 C 0.26164 0.68093 0.84305 0.0
C627 C 0.28375 0.68792 0.85135 0.0
H628 H 0.22244 0.81167 0.75728 0.0
H629 H 0.29661 0.67411 0.86873 0.0
H630 H 0.21441 0.67648 0.82739 0.0
H631 H 0.17759 0.80753 0.75262 0.0
H632 H 0.30448 0.71862 0.84782 0.0
H633 H 0.32891 0.88401 0.76263 0.0
H634 H 0.25754 0.66144 0.85379 0.0
H635 H 0.3327 0.7569 0.90291 0.0
H636 H 0.30162 0.85151 0.78299 0.0
H637 H 0.3739 0.74986 0.93072 0.0
H638 H 0.18084 0.71385 0.79827 0.0
H639 H 0.36956 0.88191 0.789 0.0
H640 H 0.40095 0.85871 0.83194 0.0
H641 H 0.16618 0.76323 0.77258 0.0
H642 H 0.41355 0.82187 0.87708 0.0
N643 N 0.32591 0.83115 0.8215 0.0
C644 C 0.31889 0.85046 0.79536 0.0
C645 C 0.35744 0.86766 0.79839 0.0
C646 C 0.36473 0.84769 0.82489 0.0
C647 C 0.33452 0.8689 0.78344 0.0
C648 C 0.34834 0.82955 0.83601 0.0
H649 H 0.40391 0.78083 0.91363 0.0
N650 N 0.34032 0.79039 0.86941 0.0
C651 C 0.36917 0.76628 0.91091 0.0
C652 C 0.35575 0.80847 0.8609 0.0
C653 C 0.34602 0.77016 0.89501 0.0
C654 C 0.38599 0.78388 0.9013 0.0
C655 C 0.3793 0.80541 0.87612 0.0
O656 O 0.28535 0.80093 0.89534 0.0
O657 O 0.26813 0.78784 0.83107 0.0
O658 O 0.25827 0.81565 0.78201 0.0
O659 O 0.26868 0.83642 0.82395 0.0
O660 O 0.28146 0.771 0.87434 0.0
O661 O 0.28752 0.84019 0.86813 0.0
O662 O 0.27345 0.78872 0.73623 0.0
O663 O 0.30866 0.79364 0.79469 0.0
O664 O 0.33341 0.76177 0.83717 0.0
O665 O 0.31946 0.74064 0.79736 0.0
O666 O 0.31874 0.77511 0.75229 0.0
O667 O 0.28582 0.74267 0.7486 0.0
C668 C 0.26194 0.77347 0.85689 0.0
C669 C 0.29352 0.83437 0.92493 0.0
C670 C 0.30111 0.86937 0.95578 0.0
C671 C 0.29158 0.86254 0.92865 0.0
C672 C 0.31287 0.84763 0.97901 0.0
C673 C 0.30466 0.81308 0.94902 0.0
C674 C 0.31451 0.81972 0.97563 0.0
C675 C 0.25506 0.83754 0.79885 0.0
C676 C 0.28259 0.82753 0.89699 0.0
C677 C 0.39537 0.82386 0.86569 0.0
C678 C 0.38815 0.84489 0.84006 0.0
C679 C 0.32701 0.78999 0.76945 0.0
C680 C 0.27746 0.75918 0.69217 0.0
C681 C 0.27746 0.73261 0.68452 0.0
C682 C 0.27753 0.72759 0.65198 0.0
C683 C 0.27749 0.74938 0.62692 0.0
C684 C 0.27697 0.78102 0.66706 0.0
C685 C 0.277 0.77606 0.63455 0.0
C686 C 0.33718 0.74146 0.81726 0.0
C687 C 0.27896 0.76361 0.72612 0.0
H688 H 0.28235 0.87913 0.91069 0.0
H689 H 0.32112 0.85212 0.99965 0.0
H690 H 0.30573 0.79125 0.9475 0.0
H691 H 0.32343 0.80316 0.99374 0.0
H692 H 0.27793 0.71561 0.70376 0.0
H693 H 0.27761 0.74581 0.60158 0.0
H694 H 0.27698 0.80173 0.67248 0.0
H695 H 0.27683 0.79286 0.61521 0.0
Tb696 Tb 0.28638 0.2629 0.80395 0.0
C697 C 0.31174 0.31267 0.91609 0.0
C698 C 0.27922 0.35937 0.91644 0.0
C699 C 0.29562 0.33491 0.96736 0.0
C700 C 0.29516 0.33588 0.89941 0.0
C701 C 0.31267 0.31229 0.9501 0.0
C702 C 0.27895 0.35841 0.95056 0.0
C703 C 0.34936 0.26867 0.94697 0.0
N704 N 0.32811 0.29116 0.89872 0.0
C705 C 0.34785 0.27004 0.91331 0.0
C706 C 0.3314 0.28966 0.96555 0.0
Tb707 Tb 0.32442 0.29638 0.84358 0.0
N708 N 0.296 0.33624 0.86633 0.0
C709 C 0.28251 0.36029 0.8487 0.0
C710 C 0.2649 0.38362 0.89854 0.0
C711 C 0.26705 0.38428 0.86448 0.0
H712 H 0.36167 0.25367 0.89895 0.0
H713 H 0.25636 0.4031 0.85035 0.0
H714 H 0.26656 0.37611 0.96404 0.0
H715 H 0.3644 0.25147 0.95853 0.0
H716 H 0.28326 0.3615 0.82246 0.0
H717 H 0.36391 0.16106 0.80341 0.0
H718 H 0.25263 0.40215 0.91069 0.0
H719 H 0.24957 0.30157 0.74628 0.0
H720 H 0.33383 0.2031 0.82833 0.0
H721 H 0.24573 0.29865 0.68796 0.0
H722 H 0.29581 0.33483 0.99354 0.0
H723 H 0.36524 0.15655 0.74431 0.0
H724 H 0.34764 0.17681 0.69054 0.0
H725 H 0.3327 0.28863 0.99162 0.0
H726 H 0.31613 0.21445 0.65898 0.0
N727 N 0.31728 0.22305 0.78395 0.0
C728 C 0.33351 0.20172 0.80264 0.0
C729 C 0.35171 0.17523 0.75515 0.0
C730 C 0.33495 0.19689 0.73616 0.0
C731 C 0.35095 0.17767 0.78852 0.0
C732 C 0.3178 0.22088 0.75139 0.0
H733 H 0.27784 0.25963 0.65789 0.0
N734 N 0.28338 0.26457 0.74909 0.0
C735 C 0.26122 0.28271 0.70039 0.0
C736 C 0.30023 0.24223 0.73346 0.0
C737 C 0.26325 0.28413 0.73345 0.0
C738 C 0.27945 0.26072 0.6835 0.0
C739 C 0.29901 0.23992 0.70009 0.0
O740 O 0.24383 0.27136 0.81075 0.0
O741 O 0.28596 0.28873 0.84195 0.0
O742 O 0.31099 0.26613 0.88016 0.0
O743 O 0.29627 0.23708 0.85139 0.0
O744 O 0.25434 0.3022 0.81531 0.0
O745 O 0.2693 0.22854 0.80874 0.0
O746 O 0.36681 0.28802 0.84161 0.0
O747 O 0.32445 0.2716 0.80507 0.0
O748 O 0.29789 0.29414 0.76695 0.0
O749 O 0.31186 0.32288 0.7973 0.0
O750 O 0.35764 0.25906 0.82782 0.0
O751 O 0.34108 0.33097 0.83501 0.0
C752 C 0.2629 0.30679 0.84133 0.0
C753 C 0.22636 0.24123 0.78655 0.0
C754 C 0.20246 0.21218 0.76674 0.0
C755 C 0.22119 0.21499 0.7868 0.0
C756 C 0.19064 0.23503 0.74483 0.0
C757 C 0.21219 0.26437 0.7664 0.0
C758 C 0.19538 0.26098 0.74486 0.0
C759 C 0.30345 0.24315 0.8787 0.0
C760 C 0.24436 0.24537 0.8092 0.0
C761 C 0.31661 0.21648 0.68465 0.0
C762 C 0.3345 0.195 0.70266 0.0
C763 C 0.34857 0.25557 0.80167 0.0
C764 C 0.38098 0.32286 0.86216 0.0
C765 C 0.384 0.35024 0.85892 0.0
C766 C 0.40014 0.35746 0.87927 0.0
C767 C 0.41231 0.33718 0.90366 0.0
C768 C 0.39449 0.30276 0.88584 0.0
C769 C 0.40939 0.31012 0.9069 0.0
C770 C 0.30483 0.31735 0.76951 0.0
C771 C 0.36567 0.31465 0.83929 0.0
H772 H 0.23046 0.19744 0.80368 0.0
H773 H 0.17666 0.23313 0.72867 0.0
H774 H 0.2136 0.2854 0.7675 0.0
H775 H 0.18521 0.27881 0.72895 0.0
H776 H 0.37441 0.36561 0.84008 0.0
H777 H 0.4253 0.34169 0.91929 0.0
H778 H 0.39425 0.28104 0.88772 0.0
H779 H 0.41955 0.29446 0.92507 0.0
Tb780 Tb 0.78717 0.28917 0.78109 0.0
C781 C 0.82326 0.3756 0.84717 0.0
C782 C 0.85975 0.38484 0.80748 0.0
C783 C 0.83762 0.41758 0.849 0.0
C784 C 0.8427 0.36772 0.82056 0.0
C785 C 0.82072 0.40046 0.86193 0.0
C786 C 0.85708 0.4098 0.82181 0.0
C787 C 0.78735 0.3879 0.90357 0.0
N788 N 0.80793 0.35807 0.85973 0.0
C789 C 0.79118 0.36315 0.88853 0.0
C790 C 0.80203 0.40678 0.89005 0.0
Tb791 Tb 0.81935 0.31583 0.8374 0.0
N792 N 0.84558 0.34276 0.80834 0.0
C793 C 0.86562 0.33363 0.78313 0.0
C794 C 0.87942 0.37607 0.78088 0.0
C795 C 0.88233 0.35035 0.76865 0.0
H796 H 0.78049 0.34809 0.89967 0.0
H797 H 0.8978 0.34314 0.7484 0.0
H798 H 0.8701 0.42312 0.8122 0.0
H799 H 0.77349 0.39209 0.92591 0.0
H800 H 0.8689 0.31352 0.77368 0.0
H801 H 0.70661 0.26032 0.86419 0.0
H802 H 0.89277 0.38871 0.77 0.0
H803 H 0.83042 0.25625 0.72117 0.0
H804 H 0.73323 0.29215 0.83807 0.0
H805 H 0.84274 0.20975 0.69848 0.0
H806 H 0.83601 0.43671 0.86005 0.0
H807 H 0.71853 0.21153 0.84811 0.0
H808 H 0.7473 0.1748 0.81098 0.0
H809 H 0.79944 0.42569 0.90208 0.0
H810 H 0.78431 0.161 0.76599 0.0
N811 N 0.7613 0.2614 0.80833 0.0
C812 C 0.73904 0.27089 0.83085 0.0
C813 C 0.73059 0.22534 0.83672 0.0
C814 C 0.75236 0.21625 0.81232 0.0
C815 C 0.72376 0.25288 0.84579 0.0
C816 C 0.7676 0.23495 0.79852 0.0
H817 H 0.82008 0.17381 0.72404 0.0
N818 N 0.80199 0.24612 0.75995 0.0
C819 C 0.82757 0.2143 0.71967 0.0
C820 C 0.78851 0.22711 0.77337 0.0
C821 C 0.82064 0.24052 0.73261 0.0
C822 C 0.81476 0.19406 0.73419 0.0
C823 C 0.79461 0.20051 0.76099 0.0
O824 O 0.78149 0.30421 0.73209 0.0
O825 O 0.80391 0.32184 0.79026 0.0
O826 O 0.77958 0.34711 0.83417 0.0
O827 O 0.75652 0.32365 0.80743 0.0
O828 O 0.81532 0.30616 0.74581 0.0
O829 O 0.74725 0.29974 0.76634 0.0
O830 O 0.82622 0.29616 0.88459 0.0
O831 O 0.80097 0.28442 0.82856 0.0
O832 O 0.82618 0.25679 0.78885 0.0
O833 O 0.84989 0.28235 0.81054 0.0
O834 O 0.79117 0.29913 0.87379 0.0
O835 O 0.85843 0.30837 0.85346 0.0
C836 C 0.81572 0.32647 0.76214 0.0
C837 C 0.74628 0.29312 0.71 0.0
C838 C 0.71032 0.28987 0.67867 0.0
C839 C 0.71838 0.30125 0.70409 0.0
C840 C 0.73047 0.27049 0.65955 0.0
C841 C 0.76568 0.27436 0.68948 0.0
C842 C 0.7578 0.2629 0.66491 0.0
C843 C 0.75718 0.34479 0.82387 0.0
C844 C 0.75565 0.30548 0.73568 0.0
C845 C 0.77984 0.1816 0.77504 0.0
C846 C 0.75874 0.18946 0.80064 0.0
C847 C 0.78802 0.28088 0.85627 0.0
C848 C 0.85481 0.31368 0.91097 0.0
C849 C 0.88083 0.31642 0.91419 0.0
C850 C 0.88427 0.32987 0.94079 0.0
C851 C 0.86165 0.34096 0.96348 0.0
C852 C 0.83297 0.32363 0.93543 0.0
C853 C 0.83624 0.33771 0.96088 0.0
C854 C 0.84881 0.25936 0.79833 0.0
C855 C 0.85026 0.29978 0.88318 0.0
H856 H 0.70318 0.31626 0.71902 0.0
H857 H 0.72519 0.26165 0.63966 0.0
H858 H 0.78721 0.26901 0.69163 0.0
H859 H 0.77309 0.24843 0.64947 0.0
H860 H 0.89826 0.30782 0.89657 0.0
H861 H 0.86393 0.35128 0.98403 0.0
H862 H 0.81314 0.32058 0.93509 0.0
H863 H 0.81908 0.34567 0.97906 0.0
Tb864 Tb 0.76845 0.78869 0.84404 0.0
C865 C 0.80395 0.81555 0.70319 0.0
C866 C 0.84278 0.77552 0.689 0.0
C867 C 0.81284 0.80051 0.6479 0.0
C868 C 0.82639 0.79396 0.71218 0.0
C869 C 0.79717 0.81941 0.67081 0.0
C870 C 0.83561 0.77862 0.65698 0.0
C871 C 0.76126 0.86157 0.68546 0.0
N872 N 0.78928 0.83338 0.72599 0.0
C873 C 0.76888 0.85699 0.71724 0.0
C874 C 0.77525 0.84251 0.66225 0.0
Tb875 Tb 0.80299 0.82286 0.77751 0.0
N876 N 0.83281 0.79176 0.74326 0.0
C877 C 0.85646 0.77267 0.75212 0.0
C878 C 0.86622 0.75497 0.69848 0.0
C879 C 0.8733 0.75383 0.73002 0.0
H880 H 0.75801 0.8717 0.73522 0.0
H881 H 0.89164 0.73833 0.73743 0.0
H882 H 0.84781 0.7645 0.63891 0.0
H883 H 0.74463 0.87978 0.67889 0.0
H884 H 0.86217 0.77131 0.77646 0.0
H885 H 0.69001 0.88057 0.89013 0.0
H886 H 0.87929 0.74033 0.68144 0.0
H887 H 0.80372 0.72929 0.88439 0.0
H888 H 0.71587 0.84985 0.84808 0.0
H889 H 0.81184 0.71229 0.94117 0.0
H890 H 0.80782 0.80294 0.62296 0.0
H891 H 0.69937 0.86864 0.94782 0.0
H892 H 0.72491 0.83451 0.9899 0.0
H893 H 0.76935 0.84615 0.63763 0.0
H894 H 0.75801 0.78888 1.00381 0.0
N895 N 0.74149 0.82003 0.88061 0.0
C896 C 0.72077 0.84369 0.87279 0.0
C897 C 0.71114 0.85478 0.92929 0.0
C898 C 0.73105 0.82979 0.93768 0.0
C899 C 0.70577 0.86155 0.89679 0.0
C900 C 0.74593 0.8125 0.9126 0.0
H901 H 0.7902 0.74317 0.98594 0.0
N902 N 0.77806 0.7702 0.89597 0.0
C903 C 0.7987 0.73338 0.93569 0.0
C904 C 0.76483 0.78688 0.92047 0.0
C905 C 0.79389 0.74319 0.90333 0.0
C906 C 0.78651 0.75089 0.96086 0.0
C907 C 0.76898 0.7778 0.95354 0.0
O908 O 0.75307 0.76253 0.82039 0.0
O909 O 0.79234 0.78493 0.79667 0.0
O910 O 0.76696 0.81558 0.76174 0.0
O911 O 0.74009 0.81766 0.81173 0.0
O912 O 0.80133 0.75086 0.83004 0.0
O913 O 0.73575 0.77414 0.86857 0.0
O914 O 0.80449 0.86474 0.77108 0.0
O915 O 0.78282 0.82499 0.82699 0.0
O916 O 0.8072 0.78544 0.86167 0.0
O917 O 0.83143 0.80254 0.81482 0.0
O918 O 0.77306 0.86078 0.79669 0.0
O919 O 0.84179 0.83048 0.76693 0.0
C920 C 0.80766 0.75983 0.80018 0.0
C921 C 0.73647 0.72924 0.85606 0.0
C922 C 0.71167 0.69443 0.87361 0.0
C923 C 0.71165 0.72248 0.86395 0.0
C924 C 0.73674 0.6734 0.87627 0.0
C925 C 0.7613 0.70783 0.85816 0.0
C926 C 0.76138 0.68013 0.86861 0.0
C927 C 0.74277 0.81929 0.77932 0.0
C928 C 0.73606 0.75861 0.84556 0.0
C929 C 0.75491 0.79542 0.97833 0.0
C930 C 0.73603 0.82138 0.97041 0.0
C931 C 0.77018 0.85094 0.82693 0.0
C932 C 0.84173 0.87466 0.73671 0.0
C933 C 0.86559 0.88256 0.73819 0.0
C934 C 0.87451 0.90038 0.71255 0.0
C935 C 0.85895 0.91068 0.68606 0.0
C936 C 0.82693 0.88504 0.70966 0.0
C937 C 0.8354 0.903 0.68466 0.0
C938 C 0.82954 0.79098 0.84566 0.0
C939 C 0.83103 0.85785 0.7646 0.0
H940 H 0.69244 0.73886 0.86176 0.0
H941 H 0.73725 0.6517 0.88414 0.0
H942 H 0.78065 0.71231 0.85152 0.0
H943 H 0.78059 0.66378 0.87045 0.0
H944 H 0.87717 0.87478 0.75898 0.0
H945 H 0.86505 0.92479 0.66632 0.0
H946 H 0.80841 0.87989 0.70807 0.0
H947 H 0.82357 0.91113 0.66418 0.0
H948 H 0.08957 0.12782 0.4411 0.0
H949 H 0.12529 0.09252 0.3481 0.0
H950 H 0.15999 0.11758 0.34314 0.0
H951 H 0.09798 0.19654 0.41637 0.0
H952 H 0.10594 0.20138 0.45586 0.0
H953 H 0.08436 0.17949 0.45315 0.0
H954 H 0.11696 0.13771 0.48476 0.0
H955 H 0.13866 0.15948 0.48751 0.0
H956 H 0.1528 0.12623 0.46952 0.0
H957 H 0.19124 0.14625 0.34803 0.0
H958 H 0.216 0.17756 0.36205 0.0
H959 H 0.15781 0.1975 0.44931 0.0
C960 C 0.10458 0.12533 0.41964 0.0
C961 C 0.10457 0.10776 0.39529 0.0
C962 C 0.12489 0.10515 0.36767 0.0
C963 C 0.14473 0.11955 0.36439 0.0
C964 C 0.14401 0.13668 0.38877 0.0
C965 C 0.12444 0.13975 0.41579 0.0
C966 C 0.12792 0.16001 0.43809 0.0
C967 C 0.10254 0.18589 0.44102 0.0
C968 C 0.13448 0.14495 0.47198 0.0
C969 C 0.1524 0.16791 0.41924 0.0
C970 C 0.16149 0.15405 0.39099 0.0
C971 C 0.18416 0.15745 0.36994 0.0
C972 C 0.19795 0.17554 0.37802 0.0
C973 C 0.1888 0.19035 0.40669 0.0
C974 C 0.16563 0.18637 0.42742 0.0
H975 H 0.9463 0.096 0.31504 0.0
H976 H 1.00762 0.132 0.33778 0.0
H977 H 0.97249 0.17802 0.34329 0.0
H978 H 0.90873 0.15943 0.26653 0.0
H979 H 0.8759 0.15392 0.28128 0.0
H980 H 0.90613 0.12413 0.27789 0.0
H981 H 0.89538 0.10822 0.33921 0.0
H982 H 0.86543 0.13829 0.34294 0.0
H983 H 0.89146 0.13236 0.36984 0.0
H984 H 0.92981 0.21768 0.35417 0.0
H985 H 0.88479 0.25256 0.35639 0.0
H986 H 0.85114 0.19365 0.32013 0.0
C987 C 0.95245 0.11378 0.32037 0.0
C988 C 0.97977 0.11043 0.32581 0.0
C989 C 0.98697 0.13411 0.33304 0.0
C990 C 0.96707 0.16027 0.33661 0.0
C991 C 0.94017 0.16255 0.33226 0.0
C992 C 0.93294 0.14025 0.32329 0.0
C993 C 0.90257 0.14863 0.31959 0.0
C994 C 0.89807 0.1464 0.28421 0.0
C995 C 0.88785 0.1308 0.34437 0.0
C996 C 0.89387 0.17913 0.32792 0.0
C997 C 0.91579 0.18633 0.33607 0.0
C998 C 0.91264 0.21245 0.34715 0.0
C999 C 0.88667 0.23213 0.34875 0.0
C1000 C 0.86415 0.22625 0.33818 0.0
C1001 C 0.86787 0.19907 0.32806 0.0
H1002 H 0.96007 0.98394 0.41283 0.0
H1003 H 0.0239 0.95716 0.33281 0.0
H1004 H 0.9987 0.92698 0.31656 0.0
H1005 H 0.94835 0.91809 0.43612 0.0
H1006 H 0.91182 0.93217 0.44566 0.0
H1007 H 0.93384 0.9534 0.44883 0.0
H1008 H 0.90646 0.99269 0.4092 0.0
H1009 H 0.88456 0.97133 0.40554 0.0
H1010 H 0.90265 0.98435 0.3693 0.0
H1011 H 0.96849 0.89731 0.31156 0.0
H1012 H 0.93756 0.86714 0.32107 0.0
H1013 H 0.89273 0.91386 0.40367 0.0
C1014 C 0.96871 0.97167 0.39196 0.0
C1015 C 0.99384 0.97289 0.374 0.0
C1016 C 1.00447 0.95674 0.34662 0.0
C1017 C 0.99028 0.93964 0.33716 0.0
C1018 C 0.96538 0.93916 0.35516 0.0
C1019 C 0.95471 0.95466 0.38204 0.0
C1020 C 0.92835 0.94916 0.3983 0.0
C1021 C 0.93076 0.9375 0.43435 0.0
C1022 C 0.90407 0.97598 0.39541 0.0
C1023 C 0.92659 0.92708 0.37736 0.0
C1024 C 0.9478 0.9221 0.35214 0.0
C1025 C 0.95153 0.90131 0.33087 0.0
C1026 C 0.93372 0.88442 0.33631 0.0
C1027 C 0.91268 0.88828 0.36301 0.0
C1028 C 0.90857 0.91054 0.383 0.0
H1029 H 0.11781 0.95893 0.28105 0.0
H1030 H 0.12433 1.00027 0.36473 0.0
H1031 H 0.16495 0.96132 0.37736 0.0
H1032 H 0.13891 0.888 0.31572 0.0
H1033 H 0.15932 0.87362 0.27917 0.0
H1034 H 0.13062 0.90483 0.27586 0.0
H1035 H 0.16226 0.93219 0.24143 0.0
H1036 H 0.1909 0.90086 0.24421 0.0
H1037 H 0.19254 0.93338 0.25743 0.0
H1038 H 0.20066 0.91501 0.38566 0.0
H1039 H 0.23671 0.86978 0.38124 0.0
H1040 H 0.21274 0.86146 0.28764 0.0
C1041 C 0.12806 0.95995 0.30171 0.0
C1042 C 0.11773 0.98268 0.32194 0.0
C1043 C 0.13181 0.98325 0.34872 0.0
C1044 C 0.15482 0.96106 0.35633 0.0
C1045 C 0.16398 0.93863 0.33656 0.0
C1046 C 0.15167 0.93826 0.30917 0.0
C1047 C 0.16664 0.91205 0.29131 0.0
C1048 C 0.14773 0.89354 0.29047 0.0
C1049 C 0.17881 0.92011 0.25654 0.0
C1050 C 0.18893 0.89769 0.31324 0.0
C1051 C 0.18656 0.91313 0.33957 0.0
C1052 C 0.20344 0.9033 0.36444 0.0
C1053 C 0.22418 0.87769 0.36151 0.0
C1054 C 0.22882 0.86274 0.33327 0.0
C1055 C 0.21023 0.87252 0.30935 0.0
H1056 H 0.12334 0.97463 0.8251 0.0
H1057 H 0.10353 0.95573 0.73355 0.0
H1058 H 0.14465 0.9153 0.73028 0.0
H1059 H 0.19446 0.95693 0.80633 0.0
H1060 H 0.20394 0.93866 0.84519 0.0
H1061 H 0.1716 0.96557 0.84341 0.0
H1062 H 0.14578 0.93026 0.87187 0.0
H1063 H 0.1781 0.90345 0.87456 0.0
H1064 H 0.15182 0.89691 0.85509 0.0
H1065 H 0.1912 0.88549 0.72904 0.0
H1066 H 0.23541 0.8525 0.74019 0.0
H1067 H 0.22427 0.88128 0.83767 0.0
C1068 C 0.12724 0.96125 0.80516 0.0
C1069 C 0.11043 0.9685 0.77927 0.0
C1070 C 0.1163 0.95076 0.75335 0.0
C1071 C 0.1397 0.92782 0.75113 0.0
C1072 C 0.15685 0.92228 0.77552 0.0
C1073 C 0.15053 0.93734 0.80294 0.0
C1074 C 0.17293 0.92548 0.82565 0.0
C1075 C 0.18652 0.94801 0.83042 0.0
C1076 C 0.16147 0.91329 0.85876 0.0
C1077 C 0.19279 0.90217 0.80597 0.0
C1078 C 0.18314 0.90165 0.77674 0.0
C1079 C 0.19847 0.88457 0.75251 0.0
C1080 C 0.22361 0.86587 0.75914 0.0
C1081 C 0.23267 0.86313 0.7904 0.0
C1082 C 0.2176 0.8824 0.81378 0.0
H1083 H 0.08612 0.14192 0.76025 0.0
H1084 H 0.14793 0.06217 0.74602 0.0
H1085 H 0.18381 0.08339 0.75556 0.0
H1086 H 0.1231 0.18663 0.72083 0.0
H1087 H 0.10992 0.21333 0.74952 0.0
H1088 H 0.08977 0.19087 0.74384 0.0
H1089 H 0.0862 0.17565 0.8063 0.0
H1090 H 0.1065 0.19804 0.81215 0.0
H1091 H 0.11702 0.16101 0.82591 0.0
H1092 H 0.21309 0.116 0.7612 0.0
H1093 H 0.23213 0.15602 0.76325 0.0
H1094 H 0.14973 0.21231 0.77764 0.0
C1095 C 0.10723 0.12901 0.75937 0.0
C1096 C 0.1146 0.1007 0.75208 0.0
C1097 C 0.1422 0.08401 0.75152 0.0
C1098 C 0.16255 0.09586 0.75699 0.0
C1099 C 0.15464 0.12414 0.76384 0.0
C1100 C 0.1275 0.14028 0.76553 0.0
C1101 C 0.12405 0.17018 0.77257 0.0
C1102 C 0.11095 0.19149 0.74504 0.0
C1103 C 0.10746 0.17658 0.80624 0.0
C1104 C 0.15358 0.16891 0.77296 0.0
C1105 C 0.17108 0.14221 0.76827 0.0
C1106 C 0.19951 0.13686 0.76546 0.0
C1107 C 0.21017 0.15958 0.76674 0.0
C1108 C 0.19232 0.18709 0.77051 0.0
C1109 C 0.1638 0.19143 0.77467 0.0
H1110 H 0.94301 0.10356 0.763 0.0
H1111 H 0.99786 0.11261 0.82819 0.0
H1112 H 0.96672 0.16011 0.83939 0.0
H1113 H 0.92556 0.17376 0.72733 0.0
H1114 H 0.89034 0.176 0.72504 0.0
H1115 H 0.91613 0.14234 0.72375 0.0
H1116 H 0.88869 0.12212 0.77275 0.0
H1117 H 0.86278 0.15565 0.77497 0.0
H1118 H 0.87989 0.13898 0.81051 0.0
H1119 H 0.93171 0.20881 0.83833 0.0
H1120 H 0.89306 0.25173 0.83159 0.0
H1121 H 0.8598 0.20907 0.7699 0.0
C1122 C 0.94823 0.11527 0.78019 0.0
C1123 C 0.97277 0.1043 0.79496 0.0
C1124 C 0.97895 0.12038 0.81707 0.0
C1125 C 0.96152 0.14749 0.82327 0.0
C1126 C 0.9379 0.158 0.80742 0.0
C1127 C 0.93104 0.14213 0.78678 0.0
C1128 C 0.90466 0.15816 0.77258 0.0
C1129 C 0.90948 0.16283 0.73495 0.0
C1130 C 0.88266 0.14285 0.78336 0.0
C1131 C 0.89774 0.18573 0.78824 0.0
C1132 C 0.91735 0.18541 0.80785 0.0
C1133 C 0.9161 0.2091 0.82335 0.0
C1134 C 0.89407 0.23352 0.81911 0.0
C1135 C 0.87326 0.23412 0.79982 0.0
C1136 C 0.87529 0.2097 0.78438 0.0
H1137 H 0.9711 0.98364 0.76312 0.0
H1138 H 1.01583 0.96976 0.66609 0.0
H1139 H 0.98809 0.93992 0.65691 0.0
H1140 H 0.9636 0.91076 0.78008 0.0
H1141 H 0.92984 0.9228 0.80191 0.0
H1142 H 0.95453 0.94172 0.80247 0.0
H1143 H 0.92043 0.9878 0.78061 0.0
H1144 H 0.89569 0.96906 0.78008 0.0
H1145 H 0.90614 0.98841 0.74319 0.0
H1146 H 0.95465 0.91425 0.65594 0.0
H1147 H 0.91529 0.89511 0.66254 0.0
H1148 H 0.89128 0.92386 0.76033 0.0
C1149 C 0.97542 0.97393 0.74019 0.0
C1150 C 0.99569 0.97943 0.71523 0.0
C1151 C 1.00026 0.9665 0.68543 0.0
C1152 C 0.98476 0.94916 0.68006 0.0
C1153 C 0.96488 0.94445 0.70486 0.0
C1154 C 0.96014 0.95627 0.73443 0.0
C1155 C 0.93656 0.94849 0.75626 0.0
C1156 C 0.94674 0.92984 0.78701 0.0
C1157 C 0.91333 0.97503 0.76555 0.0
C1158 C 0.92803 0.9317 0.73354 0.0
C1159 C 0.94518 0.92924 0.70434 0.0
C1160 C 0.94122 0.91576 0.67878 0.0
C1161 C 0.91878 0.90501 0.68273 0.0
C1162 C 0.90029 0.90799 0.71188 0.0
C1163 C 0.90534 0.92094 0.73798 0.0
H1164 H 0.30758 0.17973 0.16431 0.0
H1165 H 0.32746 0.10256 0.22825 0.0
H1166 H 0.32723 0.1302 0.27436 0.0
H1167 H 0.34607 0.2174 0.19468 0.0
H1168 H 0.31939 0.25049 0.1908 0.0
H1169 H 0.32236 0.22327 0.16473 0.0
H1170 H 0.27079 0.22841 0.18557 0.0
H1171 H 0.27004 0.25401 0.21317 0.0
H1172 H 0.26099 0.22223 0.22892 0.0
H1173 H 0.33178 0.16541 0.31019 0.0
H1174 H 0.33027 0.20656 0.33843 0.0
H1175 H 0.30078 0.26225 0.25385 0.0
C1176 C 0.31146 0.16885 0.18824 0.0
C1177 C 0.31785 0.13908 0.19294 0.0
C1178 C 0.32254 0.12535 0.22443 0.0
C1179 C 0.32264 0.14086 0.25054 0.0
C1180 C 0.31732 0.17013 0.24479 0.0
C1181 C 0.31083 0.18411 0.21476 0.0
C1182 C 0.30487 0.2158 0.21548 0.0
C1183 C 0.32444 0.22734 0.18989 0.0
C1184 C 0.27488 0.23104 0.21046 0.0
C1185 C 0.3103 0.21742 0.25017 0.0
C1186 C 0.31777 0.19073 0.26642 0.0
C1187 C 0.32543 0.18644 0.29794 0.0
C1188 C 0.32469 0.21002 0.31367 0.0
C1189 C 0.31559 0.23782 0.29841 0.0
C1190 C 0.30836 0.24143 0.26607 0.0
H1191 H 0.96794 0.30136 0.15175 0.0
H1192 H 1.01109 0.254 0.23273 0.0
H1193 H 0.96712 0.25948 0.26789 0.0
H1194 H 0.91286 0.35087 0.20044 0.0
H1195 H 0.88662 0.35049 0.17631 0.0
H1196 H 0.92149 0.34468 0.15758 0.0
H1197 H 0.92085 0.29727 0.13863 0.0
H1198 H 0.88602 0.30295 0.15737 0.0
H1199 H 0.91192 0.27101 0.16858 0.0
H1200 H 0.91964 0.26854 0.29381 0.0
H1201 H 0.87036 0.27917 0.30888 0.0
H1202 H 0.85537 0.31949 0.21224 0.0
C1203 C 0.96799 0.29244 0.177 0.0
C1204 C 0.99293 0.27721 0.18963 0.0
C1205 C 0.99226 0.26544 0.22256 0.0
C1206 C 0.96741 0.26864 0.24275 0.0
C1207 C 0.94325 0.28352 0.22961 0.0
C1208 C 0.94314 0.29511 0.19749 0.0
C1209 C 0.91387 0.30865 0.18939 0.0
C1210 C 0.9084 0.34057 0.18039 0.0
C1211 C 0.90782 0.2941 0.16186 0.0
C1212 C 0.8977 0.30271 0.22197 0.0
C1213 C 0.91529 0.28839 0.24468 0.0
C1214 C 0.90572 0.27978 0.27617 0.0
C1215 C 0.87749 0.28567 0.28462 0.0
C1216 C 0.85869 0.30029 0.26239 0.0
C1217 C 0.8691 0.30884 0.23032 0.0
H1218 H 0.8395 0.95338 0.11727 0.0
H1219 H 0.86398 0.89099 0.04569 0.0
H1220 H 0.85654 0.8546 0.08901 0.0
H1221 H 0.87192 0.90661 0.18384 0.0
H1222 H 0.84509 0.92127 0.21545 0.0
H1223 H 0.85175 0.94306 0.17887 0.0
H1224 H 0.80104 0.95487 0.16838 0.0
H1225 H 0.79436 0.93293 0.20483 0.0
H1226 H 0.78669 0.9265 0.16587 0.0
H1227 H 0.84471 0.82596 0.1374 0.0
H1228 H 0.83737 0.80264 0.19179 0.0
H1229 H 0.8196 0.88197 0.23557 0.0
C1230 C 0.84344 0.93197 0.11091 0.0
C1231 C 0.85244 0.92494 0.07808 0.0
C1232 C 0.85752 0.89675 0.07062 0.0
C1233 C 0.853 0.87604 0.095 0.0
C1234 C 0.84364 0.88376 0.12682 0.0
C1235 C 0.83942 0.91079 0.1352 0.0
C1236 C 0.83042 0.9127 0.17188 0.0
C1237 C 0.85103 0.92143 0.18848 0.0
C1238 C 0.8014 0.93296 0.1781 0.0
C1239 C 0.83076 0.88231 0.18272 0.0
C1240 C 0.83767 0.86649 0.15585 0.0
C1241 C 0.83912 0.83813 0.1586 0.0
C1242 C 0.83461 0.82512 0.18975 0.0
C1243 C 0.82725 0.84052 0.21797 0.0
C1244 C 0.8254 0.86962 0.2145 0.0
H1245 H 0.09695 0.85328 0.05961 0.0
H1246 H 0.0358 0.85031 0.14222 0.0
H1247 H 0.07083 0.84215 0.1804 0.0
H1248 H 0.1455 0.79836 0.08564 0.0
H1249 H 0.17457 0.81129 0.07106 0.0
H1250 H 0.14402 0.82455 0.05114 0.0
H1251 H 0.14062 0.87592 0.06104 0.0
H1252 H 0.17173 0.86292 0.08031 0.0
H1253 H 0.14116 0.88459 0.10194 0.0
H1254 H 0.11429 0.82481 0.2079 0.0
H1255 H 0.1616 0.80262 0.22228 0.0
H1256 H 0.19353 0.81677 0.12068 0.0
C1257 C 0.09085 0.85259 0.08584 0.0
C1258 C 0.0639 0.8532 0.09835 0.0
C1259 C 0.05634 0.85085 0.13259 0.0
C1260 C 0.07612 0.84601 0.15428 0.0
C1261 C 0.10307 0.84403 0.14105 0.0
C1262 C 0.11029 0.84785 0.10754 0.0
C1263 C 0.1409 0.84103 0.09893 0.0
C1264 C 0.15185 0.81741 0.07533 0.0
C1265 C 0.14908 0.86771 0.08472 0.0
C1266 C 0.14994 0.83112 0.1325 0.0
C1267 C 0.12797 0.83348 0.15668 0.0
C1268 C 0.13162 0.82348 0.18927 0.0
C1269 C 0.15843 0.81081 0.1972 0.0
C1270 C 0.18094 0.80787 0.17245 0.0
C1271 C 0.17656 0.81857 0.13995 0.0
H1272 H 0.31525 0.98371 0.05959 0.0
H1273 H 0.34884 0.022 0.96911 0.0
H1274 H 0.33407 0.99168 0.93769 0.0
H1275 H 0.33841 0.915 0.03668 0.0
H1276 H 0.30895 0.90556 0.05818 0.0
H1277 H 0.31967 0.93296 0.07188 0.0
H1278 H 0.2704 0.96663 0.06741 0.0
H1279 H 0.26044 0.93938 0.05199 0.0
H1280 H 0.25671 0.97307 0.02856 0.0
H1281 H 0.32006 0.95397 0.9164 0.0
H1282 H 0.31296 0.90865 0.90796 0.0
H1283 H 0.28777 0.89614 1.01222 0.0
C1284 C 0.31954 0.98624 0.03326 0.0
C1285 C 0.33301 1.00597 1.01717 0.0
C1286 C 0.33818 1.00763 0.98238 0.0
C1287 C 0.3297 0.99055 0.96416 0.0
C1288 C 0.31608 0.97183 0.98096 0.0
C1289 C 0.31129 0.96943 1.01477 0.0
C1290 C 0.29901 0.94561 0.02731 0.0
C1291 C 0.31761 0.92347 0.04983 0.0
C1292 C 0.26991 0.95686 0.04484 0.0
C1293 C 0.29869 0.9342 0.99525 0.0
C1294 C 0.30806 0.94995 0.9687 0.0
C1295 C 0.31229 0.94171 0.93689 0.0
C1296 C 0.30811 0.91599 0.93232 0.0
C1297 C 0.30003 0.89884 0.9595 0.0
C1298 C 0.29411 0.90877 0.99103 0.0
H1299 H 0.16623 0.2522 0.98734 0.0
H1300 H 0.13978 0.3372 0.01905 0.0
H1301 H 0.16886 0.35231 0.9724 0.0
H1302 H 0.23359 0.24917 0.96659 0.0
H1303 H 0.24005 0.23041 0.93 0.0
H1304 H 0.2141 0.22566 0.96243 0.0
H1305 H 0.17689 0.24083 0.92387 0.0
H1306 H 0.20246 0.2441 0.89008 0.0
H1307 H 0.1725 0.2735 0.89817 0.0
H1308 H 0.19853 0.35919 0.9194 0.0
H1309 H 0.23141 0.35524 0.86911 0.0
H1310 H 0.24533 0.26482 0.878 0.0
C1311 C 0.16641 0.27401 0.98457 0.0
C1312 C 0.15021 0.29343 1.00706 0.0
C1313 C 0.1513 0.32183 1.00211 0.0
C1314 C 0.16791 0.33072 0.97557 0.0
C1315 C 0.18358 0.31105 0.95404 0.0
C1316 C 0.18302 0.28329 0.95824 0.0
C1317 C 0.203 0.26606 0.93256 0.0
C1318 C 0.22402 0.24133 0.94884 0.0
C1319 C 0.18779 0.25551 0.90983 0.0
C1320 C 0.2158 0.28821 0.9143 0.0
C1321 C 0.20346 0.31428 0.92624 0.0
C1322 C 0.20929 0.33867 0.91075 0.0
C1323 C 0.22851 0.33626 0.8826 0.0
C1324 C 0.24298 0.30957 0.87145 0.0
C1325 C 0.23603 0.28533 0.88726 0.0
H1326 H 0.84075 0.11322 0.89258 0.0
H1327 H 0.77998 0.12207 0.97836 0.0
H1328 H 0.7636 0.17312 0.96353 0.0
H1329 H 0.85706 0.1784 0.89741 0.0
H1330 H 0.86142 0.18586 0.85354 0.0
H1331 H 0.86833 0.14985 0.87108 0.0
H1332 H 0.83426 0.14182 0.8359 0.0
H1333 H 0.82623 0.17814 0.81879 0.0
H1334 H 0.79948 0.16365 0.83959 0.0
H1335 H 0.75453 0.22407 0.94028 0.0
H1336 H 0.75409 0.27042 0.91009 0.0
H1337 H 0.82014 0.22795 0.83991 0.0
C1338 C 0.82415 0.12582 0.90845 0.0
C1339 C 0.81156 0.11322 0.93647 0.0
C1340 C 0.7897 0.13077 0.95632 0.0
C1341 C 0.7803 0.15999 0.94826 0.0
C1342 C 0.79299 0.1716 0.92035 0.0
C1343 C 0.81458 0.1551 0.9009 0.0
C1344 C 0.82468 0.17284 0.87225 0.0
C1345 C 0.85465 0.17165 0.87367 0.0
C1346 C 0.82098 0.1636 0.83961 0.0
C1347 C 0.80541 0.20185 0.87865 0.0
C1348 C 0.78733 0.20075 0.90657 0.0
C1349 C 0.76842 0.22513 0.91814 0.0
C1350 C 0.76826 0.25132 0.90088 0.0
C1351 C 0.78652 0.25288 0.87208 0.0
C1352 C 0.80524 0.22769 0.86098 0.0
H1353 H 0.95214 0.82843 0.90794 0.0
H1354 H 0.95347 0.76043 0.98509 0.0
H1355 H 0.91854 0.74773 0.96077 0.0
H1356 H 0.87994 0.84986 0.90653 0.0
H1357 H 0.88176 0.85858 0.86278 0.0
H1358 H 0.90837 0.86111 0.88488 0.0
H1359 H 0.9447 0.82755 0.84647 0.0
H1360 H 0.91814 0.82488 0.82433 0.0
H1361 H 0.94114 0.79336 0.84194 0.0
H1362 H 0.88155 0.74393 0.92991 0.0
H1363 H 0.84514 0.7497 0.89491 0.0
H1364 H 0.86703 0.82073 0.83874 0.0
C1365 C 0.94522 0.81086 0.9199 0.0
C1366 C 0.95589 0.79546 0.94857 0.0
C1367 C 0.94615 0.77242 0.96295 0.0
C1368 C 0.92613 0.76507 0.94936 0.0
C1369 C 0.91597 0.78091 0.92137 0.0
C1370 C 0.92515 0.80334 0.90681 0.0
C1371 C 0.91 0.81775 0.87769 0.0
C1372 C 0.89408 0.84865 0.88332 0.0
C1373 C 0.92968 0.81575 0.84571 0.0
C1374 C 0.8908 0.79992 0.87822 0.0
C1375 C 0.89459 0.77877 0.9036 0.0
C1376 C 0.87849 0.76034 0.90989 0.0
C1377 C 0.85773 0.76388 0.89001 0.0
C1378 C 0.85323 0.78564 0.86418 0.0
C1379 C 0.8703 0.80359 0.85796 0.0
H1380 H 0.14017 0.2728 0.19629 0.0
H1381 H 0.11639 0.35886 0.15173 0.0
H1382 H 0.1491 0.37049 0.18221 0.0
H1383 H 0.14821 0.28999 0.27641 0.0
H1384 H 0.17705 0.2593 0.28207 0.0
H1385 H 0.15131 0.25825 0.25758 0.0
H1386 H 0.18837 0.24396 0.20765 0.0
H1387 H 0.21352 0.24379 0.23349 0.0
H1388 H 0.21172 0.26488 0.19466 0.0
H1389 H 0.18668 0.37162 0.21599 0.0
H1390 H 0.22353 0.36304 0.2515 0.0
H1391 H 0.22221 0.27626 0.27431 0.0
C1392 C 0.1416 0.29422 0.19301 0.0
C1393 C 0.12558 0.31495 0.17146 0.0
C1394 C 0.12821 0.34266 0.16814 0.0
C1395 C 0.14685 0.34939 0.1853 0.0
C1396 C 0.16259 0.32825 0.20594 0.0
C1397 C 0.15989 0.30128 0.21004 0.0
C1398 C 0.17913 0.28223 0.23345 0.0
C1399 C 0.16295 0.27184 0.2642 0.0
C1400 C 0.1994 0.25726 0.21622 0.0
C1401 C 0.19353 0.3025 0.2417 0.0
C1402 C 0.18371 0.32896 0.22555 0.0
C1403 C 0.19434 0.35101 0.22875 0.0
C1404 C 0.21542 0.3459 0.2488 0.0
C1405 C 0.22574 0.31903 0.26553 0.0
C1406 C 0.21449 0.29711 0.26205 0.0
H1407 H 0.12018 0.74436 0.94631 0.0
H1408 H 0.10195 0.82478 0.98724 0.0
H1409 H 0.14564 0.83114 0.95886 0.0
H1410 H 0.19556 0.72311 0.95199 0.0
H1411 H 0.20393 0.70646 0.91399 0.0
H1412 H 0.17188 0.70763 0.93885 0.0
H1413 H 0.14576 0.73199 0.88899 0.0
H1414 H 0.17801 0.7305 0.86472 0.0
H1415 H 0.15197 0.76386 0.86811 0.0
H1416 H 0.18838 0.83199 0.91939 0.0
H1417 H 0.23177 0.82257 0.88245 0.0
H1418 H 0.22712 0.73866 0.87276 0.0
C1419 C 0.12591 0.76278 0.95025 0.0
C1420 C 0.10772 0.78382 0.96978 0.0
C1421 C 0.11566 0.80809 0.97315 0.0
C1422 C 0.14039 0.81204 0.95675 0.0
C1423 C 0.15747 0.79139 0.937 0.0
C1424 C 0.15105 0.76677 0.9345 0.0
C1425 C 0.17333 0.7479 0.91178 0.0
C1426 C 0.18699 0.71959 0.93027 0.0
C1427 C 0.16152 0.74332 0.88161 0.0
C1428 C 0.19323 0.76565 0.902 0.0
C1429 C 0.18318 0.79103 0.91614 0.0
C1430 C 0.19668 0.81187 0.9089 0.0
C1431 C 0.22141 0.80634 0.88771 0.0
C1432 C 0.23324 0.77986 0.87442 0.0
C1433 C 0.21871 0.75928 0.8818 0.0
H1434 H 0.28181 0.11626 1.0155 0.0
H1435 H 0.26247 0.17984 0.08543 0.0
H1436 H 0.2701 0.21483 0.04097 0.0
H1437 H 0.33405 0.13903 0.96289 0.0
H1438 H 0.32392 0.1341 0.92467 0.0
H1439 H 0.31657 0.11293 0.96153 0.0
H1440 H 0.26507 0.12925 0.95373 0.0
H1441 H 0.2724 0.15016 0.91662 0.0
H1442 H 0.24751 0.16652 0.9491 0.0
H1443 H 0.28321 0.24211 0.992 0.0
H1444 H 0.29184 0.2646 0.93762 0.0
H1445 H 0.30164 0.18651 0.89428 0.0
C1446 C 0.27867 0.13769 0.02131 0.0
C1447 C 0.27165 0.14501 0.05442 0.0
C1448 C 0.26788 0.17336 0.06068 0.0
C1449 C 0.27234 0.19351 0.03549 0.0
C1450 C 0.28011 0.18547 1.00365 0.0
C1451 C 0.28248 0.15861 0.996 0.0
C1452 C 0.29013 0.15659 0.95895 0.0
C1453 C 0.31781 0.13433 0.95158 0.0
C1454 C 0.26742 0.15025 0.9437 0.0
C1455 C 0.29202 0.1864 0.94741 0.0
C1456 C 0.28662 0.20221 0.97409 0.0
C1457 C 0.28749 0.22996 0.97089 0.0
C1458 C 0.29281 0.24252 0.93955 0.0
C1459 C 0.29813 0.22743 0.91119 0.0
C1460 C 0.29771 0.19875 0.91527 0.0
H1461 H 1.00468 0.28142 0.05156 0.0
H1462 H 1.01803 0.36387 0.02879 0.0
H1463 H 0.9832 0.37625 0.98937 0.0
H1464 H 0.99574 0.26941 0.9714 0.0
H1465 H 0.96926 0.25258 0.98575 0.0
H1466 H 0.9951 0.25063 1.01157 0.0
H1467 H 0.95765 0.27204 0.058 0.0
H1468 H 0.93172 0.27348 0.0326 0.0
H1469 H 0.9322 0.30505 0.04925 0.0
H1470 H 0.94562 0.37899 0.9527 0.0
H1471 H 0.90692 0.37365 0.92727 0.0
H1472 H 0.92024 0.28886 0.97426 0.0
C1473 C 1.00043 0.30214 0.03827 0.0
C1474 C 1.01424 0.32165 0.04308 0.0
C1475 C 1.00763 0.34865 0.02559 0.0
C1476 C 0.98806 0.35571 1.00298 0.0
C1477 C 0.97528 0.33556 0.99839 0.0
C1478 C 0.98108 0.30945 1.016 0.0
C1479 C 0.96398 0.29174 1.00812 0.0
C1480 C 0.98212 0.26448 0.99332 0.0
C1481 C 0.94528 0.28521 0.0388 0.0
C1482 C 0.94764 0.31174 0.98291 0.0
C1483 C 0.95437 0.33694 0.97746 0.0
C1484 C 0.94056 0.3592 0.95654 0.0
C1485 C 0.91884 0.35591 0.94189 0.0
C1486 C 0.91136 0.33049 0.94794 0.0
C1487 C 0.92633 0.30804 0.96819 0.0
H1488 H 0.77062 0.9927 0.89834 0.0
H1489 H 0.78846 0.94388 0.99096 0.0
H1490 H 0.78455 0.90165 0.9685 0.0
H1491 H 0.71992 0.95937 0.88096 0.0
H1492 H 0.73099 0.96058 0.8375 0.0
H1493 H 0.73414 0.98705 0.86141 0.0
H1494 H 0.78598 0.97492 0.84083 0.0
H1495 H 0.783 0.94824 0.81715 0.0
H1496 H 0.80724 0.93902 0.84683 0.0
H1497 H 0.78778 0.86301 0.93168 0.0
H1498 H 0.78738 0.83353 0.88829 0.0
H1499 H 0.75817 0.90862 0.82358 0.0
C1500 C 0.77296 0.97331 0.91419 0.0
C1501 C 0.77957 0.97168 0.94656 0.0
C1502 C 0.7829 0.94579 0.96633 0.0
C1503 C 0.781 0.92161 0.95365 0.0
C1504 C 0.77511 0.92378 0.92137 0.0
C1505 C 0.77037 0.94918 0.90221 0.0
C1506 C 0.76445 0.94583 0.86828 0.0
C1507 C 0.73565 0.9643 0.86166 0.0
C1508 C 0.78647 0.9524 0.84172 0.0
C1509 C 0.76639 0.91465 0.87138 0.0
C1510 C 0.77348 0.90211 0.9018 0.0
C1511 C 0.78066 0.87285 0.90851 0.0
C1512 C 0.7799 0.85618 0.88383 0.0
C1513 C 0.77031 0.86866 0.8535 0.0
C1514 C 0.7639 0.89839 0.84721 0.0
H1515 H 0.959 0.81501 0.13176 0.0
H1516 H 0.98717 0.73033 0.10006 0.0
H1517 H 0.95681 0.71499 0.14658 0.0
H1518 H 0.95254 0.79131 0.22258 0.0
H1519 H 0.9237 0.82184 0.2305 0.0
H1520 H 0.95025 0.82405 0.19753 0.0
H1521 H 0.91378 0.84249 0.15878 0.0
H1522 H 0.88664 0.83817 0.18966 0.0
H1523 H 0.8934 0.82073 0.15192 0.0
H1524 H 0.92327 0.70931 0.19926 0.0
H1525 H 0.88977 0.7141 0.24892 0.0
H1526 H 0.87908 0.80371 0.24158 0.0
C1527 C 0.95921 0.79304 0.13487 0.0
C1528 C 0.97564 0.77387 0.11204 0.0
C1529 C 0.97515 0.74538 0.11723 0.0
C1530 C 0.9578 0.73655 0.14361 0.0
C1531 C 0.94132 0.7563 0.16511 0.0
C1532 C 0.94246 0.78385 0.16131 0.0
C1533 C 0.92253 0.80126 0.18715 0.0
C1534 C 0.93819 0.81013 0.21084 0.0
C1535 C 0.9028 0.82721 0.17096 0.0
C1536 C 0.90816 0.77992 0.20466 0.0
C1537 C 0.92014 0.75378 0.19251 0.0
C1538 C 0.91289 0.72999 0.20768 0.0
C1539 C 0.89298 0.73297 0.23546 0.0
C1540 C 0.87874 0.75972 0.24697 0.0
C1541 C 0.88735 0.78335 0.23169 0.0
H1542 H 0.30371 0.96538 0.12379 0.0
H1543 H 0.26608 0.0217 0.20032 0.0
H1544 H 0.26653 0.98024 0.24067 0.0
H1545 H 0.27085 0.9093 0.15473 0.0
H1546 H 0.30138 0.88174 0.14267 0.0
H1547 H 0.29438 0.9161 0.12032 0.0
H1548 H 0.3424 0.91831 0.13082 0.0
H1549 H 0.3484 0.88445 0.15415 0.0
H1550 H 0.35032 0.91465 0.1725 0.0
H1551 H 0.26679 0.93139 0.27115 0.0
H1552 H 0.27647 0.88115 0.2918 0.0
H1553 H 0.32309 0.85683 0.1988 0.0
C1554 C 0.29533 0.96899 0.14901 0.0
C1555 C 0.28439 0.99692 0.15878 0.0
C1556 C 0.2743 1.00063 0.19219 0.0
C1557 C 0.27439 0.97715 0.21523 0.0
C1558 C 0.28533 0.94992 0.20478 0.0
C1559 C 0.29616 0.94577 0.17255 0.0
C1560 C 0.30858 0.9144 0.16812 0.0
C1561 C 0.2929 0.90481 0.14508 0.0
C1562 C 0.33925 0.90756 0.15566 0.0
C1563 C 0.30384 0.90152 0.20301 0.0
C1564 C 0.28926 0.92227 0.22346 0.0
C1565 C 0.27936 0.91521 0.25565 0.0
C1566 C 0.28533 0.88647 0.26743 0.0
C1567 C 0.30266 0.86493 0.24812 0.0
C1568 C 0.31126 0.87277 0.21503 0.0
H1569 H 0.77235 0.07773 0.08561 0.0
H1570 H 0.86126 0.05188 0.07559 0.0
H1571 H 0.8604 0.08443 0.11566 0.0
H1572 H 0.76278 0.14887 0.08982 0.0
H1573 H 0.7335 0.15475 0.12064 0.0
H1574 H 0.74056 0.12646 0.09458 0.0
H1575 H 0.74114 0.09064 0.14579 0.0
H1576 H 0.73407 0.1189 0.17209 0.0
H1577 H 0.76361 0.08864 0.17607 0.0
H1578 H 0.8509 0.12393 0.15034 0.0
H1579 H 0.8328 0.16805 0.17761 0.0
H1580 H 0.74995 0.16753 0.16944 0.0
C1581 C 0.79155 0.07843 0.09255 0.0
C1582 C 0.81682 0.06219 0.0773 0.0
C1583 C 0.84155 0.06408 0.0867 0.0
C1584 C 0.84137 0.08245 0.10969 0.0
C1585 C 0.81628 0.09868 0.12367 0.0
C1586 C 0.79177 0.09671 0.11584 0.0
C1587 C 0.7678 0.11814 0.13297 0.0
C1588 C 0.75013 0.13824 0.10801 0.0
C1589 C 0.75064 0.10318 0.15823 0.0
C1590 C 0.7828 0.13339 0.14986 0.0
C1591 C 0.81074 0.12142 0.14465 0.0
C1592 C 0.829 0.13313 0.15536 0.0
C1593 C 0.81848 0.15818 0.17111 0.0
C1594 C 0.78989 0.17142 0.17597 0.0
C1595 C 0.77191 0.15815 0.16607 0.0
H1596 H 0.62135 0.59233 0.86918 0.0
H1597 H 0.56079 0.64081 0.94047 0.0
H1598 H 0.58787 0.67484 0.93688 0.0
H1599 H 0.67906 0.59899 0.89867 0.0
H1600 H 0.69802 0.60142 0.85868 0.0
H1601 H 0.67273 0.58255 0.86536 0.0
H1602 H 0.64793 0.61402 0.81777 0.0
H1603 H 0.67317 0.63306 0.811 0.0
H1604 H 0.63735 0.6519 0.81857 0.0
H1605 H 0.62308 0.70267 0.92609 0.0
H1606 H 0.66447 0.71934 0.91242 0.0
H1607 H 0.70095 0.65164 0.84868 0.0
C1608 C 0.61352 0.61034 0.88367 0.0
C1609 C 0.58894 0.61407 0.90496 0.0
C1610 C 0.57972 0.63751 0.92418 0.0
C1611 C 0.59482 0.65703 0.92204 0.0
C1612 C 0.61903 0.65268 0.90063 0.0
C1613 C 0.62831 0.62979 0.88192 0.0
C1614 C 0.65564 0.62867 0.86226 0.0
C1615 C 0.67765 0.60129 0.87184 0.0
C1616 C 0.65337 0.63213 0.82521 0.0
C1617 C 0.66071 0.65418 0.8733 0.0
C1618 C 0.63926 0.66812 0.89503 0.0
C1619 C 0.63993 0.69195 0.90903 0.0
C1620 C 0.6634 0.7013 0.9011 0.0
C1621 C 0.68586 0.68654 0.87979 0.0
C1622 C 0.68415 0.66309 0.86534 0.0
H1623 H 0.46946 0.63207 0.88229 0.0
H1624 H 0.48715 0.59605 0.78842 0.0
H1625 H 0.44831 0.6343 0.76796 0.0
H1626 H 0.39921 0.64969 0.88844 0.0
H1627 H 0.39271 0.68243 0.90674 0.0
H1628 H 0.42367 0.65448 0.91249 0.0
H1629 H 0.45263 0.68845 0.8889 0.0
H1630 H 0.42163 0.71659 0.88341 0.0
H1631 H 0.44755 0.70724 0.84909 0.0
H1632 H 0.40456 0.67282 0.76065 0.0
H1633 H 0.36089 0.71069 0.76516 0.0
H1634 H 0.37274 0.72157 0.86391 0.0
C1635 C 0.46545 0.63248 0.85722 0.0
C1636 C 0.48108 0.61118 0.83686 0.0
C1637 C 0.4754 0.61237 0.80422 0.0
C1638 C 0.45343 0.63394 0.79249 0.0
C1639 C 0.43792 0.65422 0.81361 0.0
C1640 C 0.44397 0.65393 0.84511 0.0
C1641 C 0.42346 0.67725 0.86352 0.0
C1642 C 0.40891 0.66523 0.89462 0.0
C1643 C 0.43714 0.69865 0.8717 0.0
C1644 C 0.40418 0.69005 0.83793 0.0
C1645 C 0.41298 0.67665 0.80924 0.0
C1646 C 0.39768 0.68371 0.78281 0.0
C1647 C 0.37278 0.70505 0.78579 0.0
C1648 C 0.36343 0.71904 0.815 0.0
C1649 C 0.37951 0.71156 0.8412 0.0
H1650 H 0.46745 0.46625 0.92936 0.0
H1651 H 0.4897 0.48467 0.82542 0.0
H1652 H 0.45978 0.45829 0.81227 0.0
H1653 H 0.46983 0.39673 0.92463 0.0
H1654 H 0.44133 0.39662 0.9556 0.0
H1655 H 0.4612 0.42047 0.95666 0.0
H1656 H 0.41712 0.46279 0.9562 0.0
H1657 H 0.39708 0.43898 0.95493 0.0
H1658 H 0.3957 0.46802 0.92388 0.0
H1659 H 0.43257 0.42469 0.81035 0.0
H1660 H 0.41176 0.38548 0.82001 0.0
H1661 H 0.40561 0.39019 0.92512 0.0
C1662 C 0.46578 0.46504 0.90385 0.0
C1663 C 0.48082 0.47773 0.87849 0.0
C1664 C 0.47803 0.47563 0.84536 0.0
C1665 C 0.46107 0.46063 0.8376 0.0
C1666 C 0.4468 0.44808 0.86322 0.0
C1667 C 0.44889 0.45024 0.89568 0.0
C1668 C 0.43333 0.4328 0.91858 0.0
C1669 C 0.45257 0.41033 0.94011 0.0
C1670 C 0.40938 0.45179 0.93964 0.0
C1671 C 0.42317 0.41952 0.8939 0.0
C1672 C 0.43077 0.42892 0.86209 0.0
C1673 C 0.42595 0.41761 0.83515 0.0
C1674 C 0.41392 0.39544 0.84089 0.0
C1675 C 0.40698 0.38472 0.87334 0.0
C1676 C 0.41073 0.39782 0.90002 0.0
H1677 H 0.61405 0.45728 0.78517 0.0
H1678 H 0.62051 0.49795 0.86946 0.0
H1679 H 0.66426 0.46238 0.87764 0.0
H1680 H 0.64243 0.38652 0.81423 0.0
H1681 H 0.66265 0.3749 0.77637 0.0
H1682 H 0.63197 0.40417 0.77546 0.0
H1683 H 0.65964 0.43574 0.74148 0.0
H1684 H 0.69046 0.40654 0.74212 0.0
H1685 H 0.68918 0.43953 0.7568 0.0
H1686 H 0.70351 0.42063 0.88128 0.0
H1687 H 0.74168 0.37776 0.87497 0.0
H1688 H 0.71485 0.36501 0.78507 0.0
C1689 C 0.62499 0.45882 0.80496 0.0
C1690 C 0.61394 0.4804 0.82662 0.0
C1691 C 0.62873 0.48185 0.8523 0.0
C1692 C 0.65353 0.46163 0.85733 0.0
C1693 C 0.66368 0.44042 0.83602 0.0
C1694 C 0.65044 0.43914 0.8098 0.0
C1695 C 0.66676 0.41425 0.7903 0.0
C1696 C 0.64994 0.39375 0.78904 0.0
C1697 C 0.67713 0.42463 0.75562 0.0
C1698 C 0.69031 0.40112 0.8108 0.0
C1699 C 0.68791 0.41676 0.83697 0.0
C1700 C 0.70615 0.40863 0.86034 0.0
C1701 C 0.72803 0.38427 0.8564 0.0
C1702 C 0.73195 0.36845 0.82909 0.0
C1703 C 0.71249 0.37674 0.8062 0.0
H1704 H 0.61994 0.47264 0.31519 0.0
H1705 H 0.63114 0.48304 0.20843 0.0
H1706 H 0.67403 0.44539 0.20751 0.0
H1707 H 0.69229 0.45674 0.32604 0.0
H1708 H 0.69168 0.42983 0.35936 0.0
H1709 H 0.66112 0.45835 0.35305 0.0
H1710 H 0.63475 0.42219 0.34995 0.0
H1711 H 0.66524 0.39359 0.3563 0.0
H1712 H 0.64791 0.39581 0.32085 0.0
H1713 H 0.71457 0.40618 0.21584 0.0
H1714 H 0.75235 0.36628 0.23455 0.0
H1715 H 0.71853 0.37931 0.33578 0.0
C1716 C 0.6315 0.46698 0.29173 0.0
C1717 C 0.62175 0.48106 0.26191 0.0
C1718 C 0.63765 0.4728 0.23175 0.0
C1719 C 0.66232 0.45133 0.2308 0.0
C1720 C 0.67129 0.43787 0.26021 0.0
C1721 C 0.6566 0.44512 0.29021 0.0
C1722 C 0.67141 0.42627 0.31785 0.0
C1723 C 0.67961 0.44386 0.34041 0.0
C1724 C 0.65377 0.40841 0.33739 0.0
C1725 C 0.69652 0.40779 0.2984 0.0
C1726 C 0.69571 0.41492 0.26517 0.0
C1727 C 0.71565 0.40046 0.24182 0.0
C1728 C 0.73699 0.37781 0.25263 0.0
C1729 C 0.73848 0.36995 0.28647 0.0
C1730 C 0.71812 0.38532 0.30973 0.0
H1731 H 0.64795 0.60597 0.19209 0.0
H1732 H 0.60805 0.61179 0.29205 0.0
H1733 H 0.64042 0.63504 0.30521 0.0
H1734 H 0.71886 0.59629 0.21253 0.0
H1735 H 0.72679 0.6178 0.17626 0.0
H1736 H 0.70346 0.59724 0.17585 0.0
H1737 H 0.66628 0.64247 0.15744 0.0
H1738 H 0.68951 0.66301 0.15752 0.0
H1739 H 0.65644 0.67248 0.18155 0.0
H1740 H 0.67234 0.66261 0.30604 0.0
H1741 H 0.69958 0.69617 0.29324 0.0
H1742 H 0.71982 0.67278 0.19292 0.0
C1743 C 0.64636 0.61181 0.21681 0.0
C1744 C 0.62585 0.60666 0.24115 0.0
C1745 C 0.62412 0.61481 0.27323 0.0
C1746 C 0.64242 0.62802 0.28099 0.0
C1747 C 0.66247 0.63275 0.25647 0.0
C1748 C 0.66457 0.62498 0.22501 0.0
C1749 C 0.68614 0.6352 0.20244 0.0
C1750 C 0.71025 0.61013 0.1911 0.0
C1751 C 0.67384 0.65444 0.17303 0.0
C1752 C 0.69447 0.65147 0.22564 0.0
C1753 C 0.68114 0.64905 0.25692 0.0
C1754 C 0.68349 0.66417 0.28189 0.0
C1755 C 0.69916 0.68307 0.27442 0.0
C1756 C 0.71201 0.68683 0.24215 0.0
C1757 C 0.71037 0.6701 0.21783 0.0
H1758 H 0.50483 0.65914 0.30574 0.0
H1759 H 0.47291 0.59045 0.29268 0.0
H1760 H 0.4272 0.62437 0.28865 0.0
H1761 H 0.44307 0.69913 0.35612 0.0
H1762 H 0.44632 0.73296 0.33803 0.0
H1763 H 0.47643 0.70322 0.34117 0.0
H1764 H 0.49006 0.71039 0.27855 0.0
H1765 H 0.45976 0.73986 0.27514 0.0
H1766 H 0.46625 0.71052 0.25067 0.0
H1767 H 0.38749 0.66604 0.27703 0.0
H1768 H 0.35221 0.71115 0.27259 0.0
H1769 H 0.40632 0.75368 0.30118 0.0
C1770 C 0.48805 0.65115 0.30288 0.0
C1771 C 0.49251 0.62201 0.2997 0.0
C1772 C 0.47004 0.61249 0.29564 0.0
C1773 C 0.44403 0.63168 0.29295 0.0
C1774 C 0.4406 0.6603 0.29502 0.0
C1775 C 0.4617 0.66998 0.30093 0.0
C1776 C 0.45215 0.70192 0.30254 0.0
C1777 C 0.45463 0.70977 0.3365 0.0
C1778 C 0.46801 0.71652 0.2751 0.0
C1779 C 0.42239 0.7086 0.29663 0.0
C1780 C 0.41659 0.68428 0.29135 0.0
C1781 C 0.39155 0.68507 0.28216 0.0
C1782 C 0.37152 0.71115 0.27953 0.0
C1783 C 0.37586 0.73627 0.28746 0.0
C1784 C 0.40199 0.7349 0.29566 0.0
H1785 H 0.46043 0.51432 0.20791 0.0
H1786 H 0.51718 0.46308 0.27489 0.0
H1787 H 0.48954 0.42979 0.28702 0.0
H1788 H 0.39856 0.50331 0.25332 0.0
H1789 H 0.38408 0.50134 0.2169 0.0
H1790 H 0.40721 0.52239 0.21531 0.0
H1791 H 0.43856 0.49478 0.16796 0.0
H1792 H 0.41541 0.47386 0.16921 0.0
H1793 H 0.45103 0.45679 0.17356 0.0
H1794 H 0.45656 0.401 0.29032 0.0
H1795 H 0.42273 0.37737 0.28104 0.0
H1796 H 0.38881 0.447 0.21097 0.0
C1797 C 0.46724 0.49611 0.22501 0.0
C1798 C 0.49093 0.49163 0.2406 0.0
C1799 C 0.49884 0.46744 0.26304 0.0
C1800 C 0.4833 0.4483 0.27009 0.0
C1801 C 0.45999 0.45354 0.25441 0.0
C1802 C 0.45213 0.47674 0.23215 0.0
C1803 C 0.42713 0.47677 0.21721 0.0
C1804 C 0.40281 0.50248 0.22624 0.0
C1805 C 0.43342 0.47546 0.17977 0.0
C1806 C 0.42249 0.44966 0.23404 0.0
C1807 C 0.44138 0.43673 0.25578 0.0
C1808 C 0.44158 0.41096 0.27346 0.0
C1809 C 0.42229 0.39778 0.26814 0.0
C1810 C 0.40342 0.41033 0.24511 0.0
C1811 C 0.40325 0.43682 0.22843 0.0
H1812 H 0.77288 0.68075 0.66537 0.0
H1813 H 0.84204 0.60891 0.68739 0.0
H1814 H 0.85619 0.6377 0.72255 0.0
H1815 H 0.80609 0.73589 0.66346 0.0
H1816 H 0.77653 0.76027 0.68351 0.0
H1817 H 0.77224 0.73537 0.65808 0.0
H1818 H 0.74316 0.71556 0.70546 0.0
H1819 H 0.74636 0.73989 0.73239 0.0
H1820 H 0.75667 0.70256 0.74402 0.0
H1821 H 0.85845 0.67302 0.76163 0.0
H1822 H 0.84996 0.71149 0.79805 0.0
H1823 H 0.78106 0.76065 0.74722 0.0
C1824 C 0.79133 0.67109 0.67706 0.0
C1825 C 0.80638 0.64248 0.67353 0.0
C1826 C 0.83027 0.63078 0.68951 0.0
C1827 C 0.83843 0.64702 0.70954 0.0
C1828 C 0.82273 0.67505 0.71293 0.0
C1829 C 0.79983 0.687 0.69677 0.0
C1830 C 0.78525 0.71679 0.70602 0.0
C1831 C 0.785 0.73837 0.67598 0.0
C1832 C 0.75614 0.71883 0.72293 0.0
C1833 C 0.80334 0.71993 0.73006 0.0
C1834 C 0.82479 0.69559 0.73402 0.0
C1835 C 0.8422 0.6924 0.75795 0.0
C1836 C 0.83727 0.71434 0.77851 0.0
C1837 C 0.81549 0.73944 0.77465 0.0
C1838 C 0.79861 0.7423 0.74977 0.0
H1839 H 0.46279 0.78423 0.64102 0.0
H1840 H 0.50788 0.77955 0.72279 0.0
H1841 H 0.46526 0.78365 0.76125 0.0
H1842 H 0.40055 0.837 0.67245 0.0
H1843 H 0.37771 0.82172 0.65716 0.0
H1844 H 0.41174 0.81773 0.63634 0.0
H1845 H 0.42118 0.76349 0.64212 0.0
H1846 H 0.3872 0.76729 0.66297 0.0
H1847 H 0.41651 0.74551 0.68221 0.0
H1848 H 0.41749 0.78133 0.7916 0.0
H1849 H 0.36998 0.78079 0.80881 0.0
H1850 H 0.353 0.79727 0.70816 0.0
C1851 C 0.46356 0.78438 0.66702 0.0
C1852 C 0.4889 0.78162 0.67885 0.0
C1853 C 0.48889 0.78182 0.71309 0.0
C1854 C 0.46469 0.784 0.73515 0.0
C1855 C 0.44008 0.78658 0.72283 0.0
C1856 C 0.43928 0.78737 0.68939 0.0
C1857 C 0.41006 0.79106 0.68244 0.0
C1858 C 0.39939 0.81852 0.66081 0.0
C1859 C 0.40867 0.76531 0.66648 0.0
C1860 C 0.3945 0.79253 0.71697 0.0
C1861 C 0.4123 0.78907 0.74003 0.0
C1862 C 0.40321 0.78585 0.77354 0.0
C1863 C 0.37549 0.78663 0.78355 0.0
C1864 C 0.35607 0.79255 0.76078 0.0
C1865 C 0.36641 0.79489 0.72682 0.0
H1866 H 0.34166 0.44438 0.64592 0.0
H1867 H 0.32334 0.40475 0.56813 0.0
H1868 H 0.31343 0.36706 0.60849 0.0
H1869 H 0.3725 0.38004 0.69607 0.0
H1870 H 0.35709 0.39424 0.73468 0.0
H1871 H 0.36427 0.41746 0.69973 0.0
H1872 H 0.31346 0.44757 0.70575 0.0
H1873 H 0.30617 0.42433 0.74062 0.0
H1874 H 0.28698 0.43078 0.70596 0.0
H1875 H 0.30898 0.33238 0.65542 0.0
H1876 H 0.30404 0.30478 0.70747 0.0
H1877 H 0.31825 0.3688 0.75904 0.0
C1878 C 0.33576 0.42756 0.63759 0.0
C1879 C 0.33356 0.42712 0.60383 0.0
C1880 C 0.32523 0.40525 0.59377 0.0
C1881 C 0.31965 0.3838 0.61651 0.0
C1882 C 0.32191 0.38478 0.64952 0.0
C1883 C 0.32935 0.40622 0.66031 0.0
C1884 C 0.32874 0.40261 0.69764 0.0
C1885 C 0.35736 0.39834 0.70761 0.0
C1886 C 0.30757 0.42783 0.71342 0.0
C1887 C 0.31994 0.37572 0.70595 0.0
C1888 C 0.31663 0.36579 0.67754 0.0
C1889 C 0.3105 0.3405 0.67794 0.0
C1890 C 0.30714 0.32511 0.70809 0.0
C1891 C 0.30879 0.33518 0.73815 0.0
C1892 C 0.31578 0.36083 0.73685 0.0
H1893 H 0.59415 0.25542 0.60228 0.0
H1894 H 0.5574 0.34483 0.57792 0.0
H1895 H 0.5903 0.35558 0.60931 0.0
H1896 H 0.60873 0.25875 0.68392 0.0
H1897 H 0.64069 0.23118 0.67896 0.0
H1898 H 0.61293 0.2316 0.65693 0.0
H1899 H 0.64453 0.2311 0.60189 0.0
H1900 H 0.67238 0.23051 0.62372 0.0
H1901 H 0.66202 0.25786 0.5914 0.0
H1902 H 0.63117 0.35498 0.64184 0.0
H1903 H 0.67448 0.34323 0.66733 0.0
H1904 H 0.68181 0.25422 0.66916 0.0
C1905 C 0.59253 0.27743 0.60366 0.0
C1906 C 0.5729 0.29929 0.5876 0.0
C1907 C 0.57207 0.32767 0.59009 0.0
C1908 C 0.59071 0.33392 0.60793 0.0
C1909 C 0.61 0.31156 0.62318 0.0
C1910 C 0.61081 0.28389 0.62098 0.0
C1911 C 0.63416 0.2632 0.63727 0.0
C1912 C 0.62348 0.24513 0.66598 0.0
C1913 C 0.65446 0.24459 0.61208 0.0
C1914 C 0.64667 0.28331 0.64931 0.0
C1915 C 0.63265 0.3112 0.6412 0.0
C1916 C 0.64195 0.33317 0.64847 0.0
C1917 C 0.66647 0.32635 0.66326 0.0
C1918 C 0.68151 0.2978 0.67044 0.0
C1919 C 0.67077 0.27626 0.66419 0.0
H1920 H 0.78987 0.53819 0.51679 0.0
H1921 H 0.8291 0.49094 0.60061 0.0
H1922 H 0.82543 0.44669 0.58233 0.0
H1923 H 0.7419 0.49665 0.51727 0.0
H1924 H 0.74404 0.50004 0.47312 0.0
H1925 H 0.74827 0.52767 0.49429 0.0
H1926 H 0.79555 0.52386 0.46018 0.0
H1927 H 0.79099 0.49688 0.43848 0.0
H1928 H 0.82108 0.48994 0.4591 0.0
H1929 H 0.82279 0.40685 0.54927 0.0
H1930 H 0.82246 0.37715 0.50542 0.0
H1931 H 0.78058 0.4518 0.44768 0.0
C1932 C 0.79781 0.51861 0.53146 0.0
C1933 C 0.81032 0.51806 0.55984 0.0
C1934 C 0.81985 0.49189 0.57847 0.0
C1935 C 0.81758 0.4667 0.56842 0.0
C1936 C 0.80511 0.46813 0.54015 0.0
C1937 C 0.79518 0.49361 0.52223 0.0
C1938 C 0.78361 0.48988 0.49211 0.0
C1939 C 0.75261 0.50442 0.49435 0.0
C1940 C 0.79872 0.50076 0.46063 0.0
C1941 C 0.78971 0.4581 0.49476 0.0
C1942 C 0.80189 0.44573 0.52275 0.0
C1943 C 0.81254 0.41638 0.52786 0.0
C1944 C 0.812 0.39957 0.50304 0.0
C1945 C 0.80065 0.41218 0.47376 0.0
C1946 C 0.78827 0.44161 0.47049 0.0
H1947 H 0.66818 0.82606 0.49878 0.0
H1948 H 0.65418 0.74666 0.48733 0.0
H1949 H 0.68545 0.74242 0.43525 0.0
H1950 H 0.67136 0.85068 0.40925 0.0
H1951 H 0.69734 0.86761 0.41123 0.0
H1952 H 0.67302 0.8649 0.44667 0.0
H1953 H 0.71299 0.83946 0.48153 0.0
H1954 H 0.73653 0.8432 0.44585 0.0
H1955 H 0.73896 0.80876 0.46681 0.0
H1956 H 0.72249 0.74434 0.38739 0.0
H1957 H 0.75586 0.75566 0.34286 0.0
H1958 H 0.74298 0.83659 0.38034 0.0
C1959 C 0.67125 0.80815 0.48481 0.0
C1960 C 0.65841 0.78672 0.49704 0.0
C1961 C 0.66338 0.76342 0.47828 0.0
C1962 C 0.68129 0.76081 0.44875 0.0
C1963 C 0.69401 0.78195 0.43764 0.0
C1964 C 0.68866 0.80557 0.45464 0.0
C1965 C 0.70488 0.82532 0.43696 0.0
C1966 C 0.68549 0.85382 0.42534 0.0
C1967 C 0.72452 0.82937 0.45917 0.0
C1968 C 0.72062 0.80891 0.4078 0.0
C1969 C 0.71421 0.78377 0.40902 0.0
C1970 C 0.72709 0.76428 0.38596 0.0
C1971 C 0.74628 0.77088 0.36066 0.0
C1972 C 0.75256 0.79698 0.35771 0.0
C1973 C 0.73933 0.81625 0.38187 0.0
H1974 H 0.31227 0.62665 0.47157 0.0
H1975 H 0.34848 0.58254 0.38447 0.0
H1976 H 0.34017 0.62804 0.35066 0.0
H1977 H 0.25962 0.68387 0.43339 0.0
H1978 H 0.26339 0.71097 0.45586 0.0
H1979 H 0.27074 0.67497 0.47374 0.0
H1980 H 0.31931 0.67551 0.48191 0.0
H1981 H 0.31203 0.71154 0.46428 0.0
H1982 H 0.34141 0.68497 0.44727 0.0
H1983 H 0.32988 0.67735 0.32621 0.0
H1984 H 0.31936 0.7282 0.31263 0.0
H1985 H 0.2895 0.74366 0.41345 0.0
C1986 C 0.31814 0.6267 0.44532 0.0
C1987 C 0.33102 0.60088 0.4306 0.0
C1988 C 0.33882 0.60189 0.39629 0.0
C1989 C 0.33403 0.62767 0.37685 0.0
C1990 C 0.32157 0.65264 0.39196 0.0
C1991 C 0.31385 0.65258 0.4254 0.0
C1992 C 0.30213 0.68292 0.43513 0.0
C1993 C 0.27218 0.6885 0.45044 0.0
C1994 C 0.31977 0.6891 0.45854 0.0
C1995 C 0.3043 0.69985 0.4019 0.0
C1996 C 0.31555 0.68168 0.37756 0.0
C1997 C 0.32076 0.69169 0.34513 0.0
C1998 C 0.3146 0.7209 0.33735 0.0
C1999 C 0.30285 0.74045 0.36106 0.0
C2000 C 0.29774 0.72954 0.39416 0.0
H2001 H 0.47562 0.28338 0.41711 0.0
H2002 H 0.43534 0.32512 0.50469 0.0
H2003 H 0.39026 0.33195 0.48558 0.0
H2004 H 0.42848 0.32887 0.36088 0.0
H2005 H 0.43017 0.30025 0.33719 0.0
H2006 H 0.45903 0.29937 0.35751 0.0
H2007 H 0.45817 0.25065 0.38723 0.0
H2008 H 0.42908 0.25157 0.36733 0.0
H2009 H 0.42718 0.247 0.41146 0.0
H2010 H 0.34943 0.32831 0.45999 0.0
H2011 H 0.31618 0.32466 0.42491 0.0
H2012 H 0.38272 0.28946 0.35088 0.0
C2013 C 0.45733 0.29444 0.43202 0.0
C2014 C 0.45913 0.30378 0.46249 0.0
C2015 C 0.43463 0.31803 0.48121 0.0
C2016 C 0.40889 0.32175 0.47064 0.0
C2017 C 0.40789 0.31155 0.44097 0.0
C2018 C 0.43152 0.29886 0.42149 0.0
C2019 C 0.42483 0.29018 0.39038 0.0
C2020 C 0.43631 0.3056 0.35967 0.0
C2021 C 0.43546 0.25794 0.38903 0.0
C2022 C 0.39372 0.30007 0.39524 0.0
C2023 C 0.38441 0.31159 0.42504 0.0
C2024 C 0.35657 0.31994 0.43631 0.0
C2025 C 0.33778 0.31757 0.41617 0.0
C2026 C 0.34664 0.30727 0.38469 0.0
C2027 C 0.37514 0.29814 0.37435 0.0
H2028 H 0.65468 0.79868 0.6461 0.0
H2029 H 0.5819 0.84476 0.70472 0.0
H2030 H 0.61107 0.85503 0.74151 0.0
H2031 H 0.69392 0.76573 0.71003 0.0
H2032 H 0.72547 0.769 0.68687 0.0
H2033 H 0.698 0.76767 0.66577 0.0
H2034 H 0.70145 0.81496 0.63285 0.0
H2035 H 0.72806 0.81587 0.6561 0.0
H2036 H 0.6975 0.8453 0.6548 0.0
H2037 H 0.6483 0.85474 0.7755 0.0
H2038 H 0.6902 0.84739 0.80174 0.0
H2039 H 0.73905 0.80319 0.71925 0.0
C2040 C 0.64492 0.81165 0.66611 0.0
C2041 C 0.61608 0.82144 0.67234 0.0
C2042 C 0.60397 0.83768 0.69922 0.0
C2043 C 0.6204 0.84343 0.72027 0.0
C2044 C 0.64886 0.83298 0.7138 0.0
C2045 C 0.66102 0.81786 0.68699 0.0
C2046 C 0.69195 0.80805 0.68607 0.0
C2047 C 0.70291 0.77567 0.68732 0.0
C2048 C 0.70553 0.82189 0.65565 0.0
C2049 C 0.69539 0.81904 0.71728 0.0
C2050 C 0.67028 0.83346 0.73286 0.0
C2051 C 0.66806 0.84393 0.7632 0.0
C2052 C 0.69199 0.83953 0.77801 0.0
C2053 C 0.71793 0.82498 0.76245 0.0
C2054 C 0.71958 0.81488 0.73148 0.0
H2055 H 0.64617 0.23666 0.46745 0.0
H2056 H 0.59078 0.31032 0.42155 0.0
H2057 H 0.63025 0.32239 0.38799 0.0
H2058 H 0.69865 0.27052 0.47233 0.0
H2059 H 0.72645 0.23902 0.46471 0.0
H2060 H 0.69372 0.23621 0.48442 0.0
H2061 H 0.69236 0.20479 0.44029 0.0
H2062 H 0.7246 0.20801 0.41941 0.0
H2063 H 0.69467 0.21783 0.39777 0.0
H2064 H 0.67551 0.32527 0.35785 0.0
H2065 H 0.72359 0.32248 0.33817 0.0
H2066 H 0.75053 0.24897 0.40619 0.0
C2067 C 0.6424 0.25521 0.45016 0.0
C2068 C 0.61538 0.27235 0.44668 0.0
C2069 C 0.61129 0.29686 0.42443 0.0
C2070 C 0.63357 0.30379 0.4052 0.0
C2071 C 0.65991 0.28623 0.40888 0.0
C2072 C 0.66448 0.2628 0.43131 0.0
C2073 C 0.69491 0.24823 0.43154 0.0
C2074 C 0.70395 0.24854 0.46526 0.0
C2075 C 0.7021 0.21792 0.42161 0.0
C2076 C 0.70679 0.26703 0.40555 0.0
C2077 C 0.68614 0.28859 0.39251 0.0
C2078 C 0.69181 0.30853 0.36797 0.0
C2079 C 0.71926 0.30673 0.35683 0.0
C2080 C 0.74082 0.28538 0.37039 0.0
C2081 C 0.73443 0.26536 0.39522 0.0
H2082 H 0.76587 0.68908 0.52599 0.0
H2083 H 0.78677 0.60472 0.49483 0.0
H2084 H 0.80478 0.62149 0.43951 0.0
H2085 H 0.74345 0.72537 0.44866 0.0
H2086 H 0.75665 0.75453 0.45152 0.0
H2087 H 0.74563 0.73556 0.48826 0.0
H2088 H 0.79369 0.72526 0.50807 0.0
H2089 H 0.80356 0.74506 0.47144 0.0
H2090 H 0.82385 0.7093 0.48113 0.0
H2091 H 0.81934 0.64796 0.38723 0.0
H2092 H 0.8293 0.68228 0.34189 0.0
H2093 H 0.79878 0.74924 0.40748 0.0
C2094 C 0.77418 0.67436 0.50732 0.0
C2095 C 0.77497 0.64575 0.51417 0.0
C2096 C 0.78596 0.62677 0.48955 0.0
C2097 C 0.79625 0.63609 0.45826 0.0
C2098 C 0.79522 0.66451 0.45208 0.0
C2099 C 0.78433 0.68341 0.47586 0.0
C2100 C 0.78509 0.71292 0.46266 0.0
C2101 C 0.75596 0.73328 0.46278 0.0
C2102 C 0.80263 0.72373 0.48198 0.0
C2103 C 0.79851 0.70757 0.428 0.0
C2104 C 0.80405 0.67956 0.42225 0.0
C2105 C 0.81536 0.6699 0.39152 0.0
C2106 C 0.82099 0.68945 0.36595 0.0
C2107 C 0.81569 0.71812 0.37154 0.0
C2108 C 0.80426 0.72718 0.40294 0.0
H2109 H 0.49294 0.82702 0.56315 0.0
H2110 H 0.56046 0.80316 0.48654 0.0
H2111 H 0.52855 0.79996 0.44911 0.0
H2112 H 0.45835 0.78014 0.54672 0.0
H2113 H 0.42428 0.80354 0.55495 0.0
H2114 H 0.4517 0.80668 0.57522 0.0
H2115 H 0.44263 0.85933 0.55317 0.0
H2116 H 0.41439 0.85664 0.53418 0.0
H2117 H 0.4412 0.86895 0.50981 0.0
H2118 H 0.49035 0.79582 0.42175 0.0
H2119 H 0.44607 0.8016 0.40147 0.0
H2120 H 0.40342 0.82727 0.49605 0.0
C2121 C 0.50065 0.8225 0.53798 0.0
C2122 C 0.52882 0.81621 0.52708 0.0
C2123 C 0.53869 0.80886 0.49468 0.0
C2124 C 0.52085 0.8065 0.47356 0.0
C2125 C 0.49333 0.81128 0.48553 0.0
C2126 C 0.4831 0.8198 0.51665 0.0
C2127 C 0.45269 0.82329 0.52349 0.0
C2128 C 0.44641 0.80215 0.55177 0.0
C2129 C 0.43679 0.85388 0.53055 0.0
C2130 C 0.4474 0.81611 0.49102 0.0
C2131 C 0.47125 0.80853 0.46981 0.0
C2132 C 0.47148 0.80173 0.43805 0.0
C2133 C 0.44636 0.80467 0.42688 0.0
C2134 C 0.42164 0.81465 0.44738 0.0
C2135 C 0.42223 0.8192 0.48022 0.0
H2136 H 0.33061 0.44484 0.42382 0.0
H2137 H 0.24954 0.48513 0.47101 0.0
H2138 H 0.23001 0.45769 0.44011 0.0
H2139 H 0.30859 0.44109 0.34381 0.0
H2140 H 0.33405 0.40769 0.33765 0.0
H2141 H 0.34063 0.43284 0.36071 0.0
H2142 H 0.35039 0.39506 0.40971 0.0
H2143 H 0.34381 0.37006 0.38669 0.0
H2144 H 0.32483 0.37767 0.42664 0.0
H2145 H 0.2197 0.42722 0.39986 0.0
H2146 H 0.22053 0.3929 0.36088 0.0
H2147 H 0.30894 0.36722 0.34971 0.0
C2148 C 0.30868 0.44818 0.42758 0.0
C2149 C 0.2916 0.46719 0.44987 0.0
C2150 C 0.26303 0.47078 0.45396 0.0
C2151 C 0.25177 0.45533 0.43645 0.0
C2152 C 0.26937 0.43644 0.41497 0.0
C2153 C 0.29723 0.43293 0.41056 0.0
C2154 C 0.31209 0.4106 0.38729 0.0
C2155 C 0.32457 0.42385 0.35549 0.0
C2156 C 0.33407 0.38689 0.4036 0.0
C2157 C 0.28853 0.40063 0.3809 0.0
C2158 C 0.26384 0.41664 0.3957 0.0
C2159 C 0.239 0.41368 0.38949 0.0
C2160 C 0.23958 0.39362 0.36801 0.0
C2161 C 0.26471 0.37543 0.35502 0.0
C2162 C 0.28942 0.37947 0.36117 0.0
H2163 H 0.4554 0.21694 0.63904 0.0
H2164 H 0.45279 0.30567 0.62765 0.0
H2165 H 0.4183 0.31444 0.67536 0.0
H2166 H 0.38242 0.22699 0.66825 0.0
H2167 H 0.39009 0.19595 0.69679 0.0
H2168 H 0.41266 0.19796 0.65959 0.0
H2169 H 0.4525 0.18736 0.69589 0.0
H2170 H 0.42891 0.18702 0.73261 0.0
H2171 H 0.44998 0.21062 0.72704 0.0
H2172 H 0.38733 0.31374 0.72609 0.0
H2173 H 0.35995 0.30394 0.77681 0.0
H2174 H 0.37977 0.21615 0.75756 0.0
C2175 C 0.44762 0.23823 0.64643 0.0
C2176 C 0.45694 0.26058 0.62881 0.0
C2177 C 0.44595 0.28811 0.63975 0.0
C2178 C 0.4263 0.29339 0.66717 0.0
C2179 C 0.41771 0.27098 0.68379 0.0
C2180 C 0.42792 0.24394 0.67403 0.0
C2181 C 0.41566 0.22363 0.69739 0.0
C2182 C 0.3992 0.21038 0.6794 0.0
C2183 C 0.43811 0.2008 0.71423 0.0
C2184 C 0.39705 0.24356 0.7218 0.0
C2185 C 0.39877 0.27073 0.7132 0.0
C2186 C 0.38522 0.29272 0.73255 0.0
C2187 C 0.36928 0.28695 0.76133 0.0
C2188 C 0.36599 0.25968 0.77043 0.0
C2189 C 0.3806 0.23749 0.75058 0.0
H2190 H 0.76373 0.49603 0.74129 0.0
H2191 H 0.76134 0.48848 0.63825 0.0
H2192 H 0.77666 0.43683 0.64809 0.0
H2193 H 0.82212 0.43902 0.75367 0.0
H2194 H 0.80842 0.42796 0.79404 0.0
H2195 H 0.79696 0.46429 0.77842 0.0
H2196 H 0.74694 0.46056 0.79021 0.0
H2197 H 0.75976 0.424 0.805 0.0
H2198 H 0.73827 0.43366 0.77231 0.0
H2199 H 0.7993 0.38665 0.667 0.0
H2200 H 0.81743 0.34005 0.69612 0.0
H2201 H 0.79811 0.37878 0.78846 0.0
C2202 C 0.76563 0.48368 0.72089 0.0
C2203 C 0.76201 0.49671 0.6887 0.0
C2204 C 0.76484 0.47932 0.66291 0.0
C2205 C 0.77343 0.44983 0.66826 0.0
C2206 C 0.77831 0.43779 0.6998 0.0
C2207 C 0.77353 0.45406 0.72595 0.0
C2208 C 0.78035 0.43555 0.75741 0.0
C2209 C 0.80337 0.44216 0.77164 0.0
C2210 C 0.7548 0.43863 0.78271 0.0
C2211 C 0.79015 0.40645 0.74465 0.0
C2212 C 0.78933 0.40839 0.71122 0.0
C2213 C 0.79948 0.38479 0.69333 0.0
C2214 C 0.81001 0.35837 0.71017 0.0
C2215 C 0.80961 0.35542 0.74482 0.0
C2216 C 0.79949 0.38001 0.76211 0.0
H2217 H 0.33194 0.59102 0.55448 0.0
H2218 H 0.26315 0.56343 0.60416 0.0
H2219 H 0.24945 0.60481 0.63752 0.0
H2220 H 0.34799 0.61906 0.62342 0.0
H2221 H 0.35618 0.64829 0.59824 0.0
H2222 H 0.36155 0.61534 0.58094 0.0
H2223 H 0.33126 0.64145 0.53542 0.0
H2224 H 0.32575 0.6745 0.55242 0.0
H2225 H 0.29689 0.66306 0.5467 0.0
H2226 H 0.24364 0.64963 0.66452 0.0
H2227 H 0.24296 0.69666 0.67898 0.0
H2228 H 0.31428 0.69497 0.60826 0.0
C2229 C 0.31414 0.5935 0.57266 0.0
C2230 C 0.2986 0.57419 0.57719 0.0
C2231 C 0.27513 0.57827 0.60052 0.0
C2232 C 0.26743 0.60146 0.61962 0.0
C2233 C 0.28333 0.6202 0.61451 0.0
C2234 C 0.30603 0.61654 0.59131 0.0
C2235 C 0.31857 0.64056 0.58847 0.0
C2236 C 0.3478 0.63019 0.59838 0.0
C2237 C 0.31806 0.65579 0.55371 0.0
C2238 C 0.29905 0.65878 0.61333 0.0
C2239 C 0.27922 0.64646 0.62866 0.0
C2240 C 0.25896 0.65952 0.65259 0.0
C2241 C 0.25872 0.68611 0.6606 0.0
C2242 C 0.27832 0.69934 0.64425 0.0
C2243 C 0.29884 0.68537 0.62064 0.0
loop_
_geom_bond_atom_site_label_1
_geom_bond_atom_site_label_2
_geom_bond_distance
_geom_bond_site_symmetry_2
_ccdc_geom_bond_type
Cu0 N1 1.999 . S
Cu0 O6 1.974 . S
Cu0 N11 1.985 . S
Cu0 O20 1.959 1_455 S
N1 Cu0 1.999 . S
N1 C3 1.263 . S
N1 C5 1.389 . S
N2 C3 1.358 . S
N2 C4 1.400 . S
C3 N1 1.263 . S
C3 N2 1.358 . S
C3 H9 0.930 . S
C4 N2 1.400 . S
C4 C5 1.351 . S
C4 H21 0.930 . S
C5 N1 1.389 . S
C5 C4 1.351 . S
C5 H10 0.930 . S
O6 Cu0 1.974 . S
O6 C16 1.282 1_545 S
C7 O8 1.261 . S
C7 O20 1.251 . S
O8 C7 1.261 . S
H9 C3 0.930 . S
H10 C5 0.930 . S
N11 Cu0 1.985 . S
N11 C13 1.335 1_455 S
N11 C14 1.390 1_545 S
N12 C13 1.345 1_565 S
N12 C15 1.336 . S
C13 N11 1.335 1_655 S
C13 N12 1.345 1_545 S
C13 H18 0.930 . S
C14 N11 1.390 1_565 S
C14 C15 1.346 1_455 S
C14 H19 0.930 . S
C15 N12 1.336 . S
C15 C14 1.346 1_655 S
C15 H22 0.924 . S
C16 O6 1.282 1_565 S
C16 O17 1.216 1_565 S
O17 C16 1.216 1_545 S
H18 C13 0.930 . S
H19 C14 0.930 . S
O20 Cu0 1.959 1_655 S
O20 C7 1.251 . S
H21 C4 0.930 . S
H22 C15 0.924 . S
Cu23 N24 1.999 . S
Cu23 O29 1.974 1_455 S
Cu23 N34 1.985 . S
Cu23 O43 1.959 . S
N24 Cu23 1.999 . S
N24 C26 1.263 1_455 S
N24 C28 1.389 1_545 S
N25 C26 1.358 1_565 S
N25 C27 1.400 . S
C26 N24 1.263 1_655 S
C26 N25 1.358 1_545 S
C26 H32 0.930 . S
C27 N25 1.400 . S
C27 C28 1.351 1_655 S
C27 H44 0.930 . S
C28 N24 1.389 1_565 S
C28 C27 1.351 1_455 S
C28 H33 0.930 . S
O29 Cu23 1.974 1_655 S
O29 C39 1.282 . S
C30 O31 1.261 . S
C30 O43 1.251 . S
O31 C30 1.261 . S
H32 C26 0.930 . S
H33 C28 0.930 . S
N34 Cu23 1.985 . S
N34 C36 1.335 . S
N34 C37 1.390 . S
N35 C36 1.345 . S
N35 C38 1.336 . S
C36 N34 1.335 . S
C36 N35 1.345 . S
C36 H41 0.930 . S
C37 N34 1.390 . S
C37 C38 1.346 . S
C37 H42 0.930 . S
C38 N35 1.336 . S
C38 C37 1.346 . S
C38 H45 0.929 . S
C39 O29 1.282 . S
C39 O40 1.216 . S
O40 C39 1.216 . S
H41 C36 0.930 . S
H42 C37 0.930 . S
O43 Cu23 1.959 . S
O43 C30 1.251 . S
H44 C27 0.930 . S
H45 C38 0.929 . S
Cu46 N47 1.999 . S
Cu46 O52 1.974 . S
Cu46 N57 1.985 . S
Cu46 O66 1.959 . S
N47 Cu46 1.999 . S
N47 C49 1.263 . S
N47 C51 1.389 . S
N48 C49 1.358 . S
N48 C50 1.400 . S
C49 N47 1.263 . S
C49 N48 1.358 . S
C49 H55 0.930 . S
C50 N48 1.400 . S
C50 C51 1.351 . S
C50 H67 0.930 1_554 S
C51 N47 1.389 . S
C51 C50 1.351 . S
C51 H56 0.930 . S
O52 Cu46 1.974 . S
O52 C62 1.282 . S
C53 O54 1.261 . S
C53 O66 1.251 . S
O54 C53 1.261 . S
H55 C49 0.930 . S
H56 C51 0.930 . S
N57 Cu46 1.985 . S
N57 C59 1.335 . S
N57 C60 1.390 . S
N58 C59 1.345 . S
N58 C61 1.336 . S
C59 N57 1.335 . S
C59 N58 1.345 . S
C59 H64 0.930 . S
C60 N57 1.390 . S
C60 C61 1.346 . S
C60 H65 0.930 . S
C61 N58 1.336 . S
C61 C60 1.346 . S
C61 H68 0.929 . S
C62 O52 1.282 . S
C62 O63 1.216 . S
O63 C62 1.216 . S
H64 C59 0.930 . S
H65 C60 0.930 . S
O66 Cu46 1.959 . S
O66 C53 1.251 . S
H67 C50 0.930 1_556 S
H68 C61 0.929 . S
Cu69 N70 1.999 . S
Cu69 O75 1.974 . S
Cu69 N80 1.985 . S
Cu69 O89 1.959 . S
N70 Cu69 1.999 . S
N70 C72 1.263 . S
N70 C74 1.389 . S
N71 C72 1.358 . S
N71 C73 1.400 1_554 S
C72 N70 1.263 . S
C72 N71 1.358 . S
C72 H78 0.930 . S
C73 N71 1.400 1_556 S
C73 C74 1.351 1_556 S
C73 H90 0.930 . S
C74 N70 1.389 . S
C74 C73 1.351 1_554 S
C74 H79 0.930 . S
O75 Cu69 1.974 . S
O75 C85 1.282 . S
C76 O77 1.261 . S
C76 O89 1.251 . S
O77 C76 1.261 . S
H78 C72 0.930 . S
H79 C74 0.930 . S
N80 Cu69 1.985 . S
N80 C82 1.335 1_455 S
N80 C83 1.390 . S
N81 C82 1.345 . S
N81 C84 1.336 1_655 S
C82 N80 1.335 1_655 S
C82 N81 1.345 . S
C82 H87 0.930 . S
C83 N80 1.390 . S
C83 C84 1.346 . S
C83 H88 0.930 . S
C84 N81 1.336 1_455 S
C84 C83 1.346 . S
C84 H91 0.929 . S
C85 O75 1.282 . S
C85 O86 1.216 . S
O86 C85 1.216 . S
H87 C82 0.930 . S
H88 C83 0.930 . S
O89 Cu69 1.959 . S
O89 C76 1.251 . S
H90 C73 0.930 . S
H91 C84 0.929 . S
Cu92 N93 1.999 1_554 S
Cu92 O98 1.974 . S
Cu92 N103 1.985 1_545 S
Cu92 O112 1.959 1_544 S
N93 Cu92 1.999 1_556 S
N93 C95 1.263 . S
N93 C97 1.389 . S
N94 C95 1.358 . S
N94 C96 1.400 . S
C95 N93 1.263 . S
C95 N94 1.358 . S
C95 H101 0.930 . S
C96 N94 1.400 . S
C96 C97 1.351 . S
C96 H113 0.930 . S
C97 N93 1.389 . S
C97 C96 1.351 . S
C97 H102 0.930 . S
O98 Cu92 1.974 . S
O98 C108 1.282 . S
C99 O100 1.261 . S
C99 O112 1.251 . S
O100 C99 1.261 . S
H101 C95 0.930 . S
H102 C97 0.930 . S
N103 Cu92 1.985 1_565 S
N103 C105 1.335 . S
N103 C106 1.390 . S
N104 C105 1.345 . S
N104 C107 1.336 . S
C105 N103 1.335 . S
C105 N104 1.345 . S
C105 H110 0.930 . S
C106 N103 1.390 . S
C106 C107 1.346 . S
C106 H111 0.930 . S
C107 N104 1.336 . S
C107 C106 1.346 . S
C107 H114 0.929 . S
C108 O98 1.282 . S
C108 O109 1.216 . S
O109 C108 1.216 . S
H110 C105 0.930 . S
H111 C106 0.930 . S
O112 Cu92 1.959 1_566 S
O112 C99 1.251 . S
H113 C96 0.930 . S
H114 C107 0.929 . S
Cu115 N116 1.999 1_454 S
Cu115 O121 1.974 1_455 S
Cu115 N126 1.985 . S
Cu115 O135 1.959 1_554 S
N116 Cu115 1.999 1_656 S
N116 C118 1.263 . S
N116 C120 1.389 . S
N117 C118 1.358 . S
N117 C119 1.400 . S
C118 N116 1.263 . S
C118 N117 1.358 . S
C118 H124 0.930 . S
C119 N117 1.400 . S
C119 C120 1.351 . S
C119 H136 0.930 . S
C120 N116 1.389 . S
C120 C119 1.351 . S
C120 H125 0.930 1_655 S
O121 Cu115 1.974 1_655 S
O121 C131 1.282 . S
C122 O123 1.261 . S
C122 O135 1.251 . S
O123 C122 1.261 . S
H124 C118 0.930 . S
H125 C120 0.930 1_455 S
N126 Cu115 1.985 . S
N126 C128 1.335 . S
N126 C129 1.390 . S
N127 C128 1.345 . S
N127 C130 1.336 . S
C128 N126 1.335 . S
C128 N127 1.345 . S
C128 H133 0.930 . S
C129 N126 1.390 . S
C129 C130 1.346 . S
C129 H134 0.930 1_455 S
C130 N127 1.336 . S
C130 C129 1.346 . S
C130 H137 0.929 . S
C131 O121 1.282 . S
C131 O132 1.216 . S
O132 C131 1.216 . S
H133 C128 0.930 . S
H134 C129 0.930 1_655 S
O135 Cu115 1.959 1_556 S
O135 C122 1.251 . S
H136 C119 0.930 . S
H137 C130 0.929 . S
Cu138 N139 1.999 . S
Cu138 O144 1.974 . S
Cu138 N149 1.985 . S
Cu138 O158 1.959 . S
N139 Cu138 1.999 . S
N139 C141 1.263 . S
N139 C143 1.389 . S
N140 C141 1.358 . S
N140 C142 1.400 . S
C141 N139 1.263 . S
C141 N140 1.358 . S
C141 H147 0.930 . S
C142 N140 1.400 . S
C142 C143 1.351 . S
C142 H159 0.930 . S
C143 N139 1.389 . S
C143 C142 1.351 . S
C143 H148 0.930 . S
O144 Cu138 1.974 . S
O144 C154 1.282 . S
C145 O146 1.261 . S
C145 O158 1.251 . S
O146 C145 1.261 . S
H147 C141 0.930 . S
H148 C143 0.930 . S
N149 Cu138 1.985 . S
N149 C151 1.335 . S
N149 C152 1.390 . S
N150 C151 1.345 . S
N150 C153 1.336 . S
C151 N149 1.335 . S
C151 N150 1.345 . S
C151 H156 0.930 . S
C152 N149 1.390 . S
C152 C153 1.346 . S
C152 H157 0.930 . S
C153 N150 1.336 . S
C153 C152 1.346 . S
C153 H160 0.929 . S
C154 O144 1.282 . S
C154 O155 1.216 . S
O155 C154 1.216 . S
H156 C151 0.930 . S
H157 C152 0.930 . S
O158 Cu138 1.959 . S
O158 C145 1.251 . S
H159 C142 0.930 . S
H160 C153 0.929 . S
Cu161 N162 1.999 . S
Cu161 O167 1.974 . S
Cu161 N172 1.985 . S
Cu161 O181 1.959 . S
N162 Cu161 1.999 . S
N162 C164 1.263 . S
N162 C166 1.389 . S
N163 C164 1.358 . S
N163 C165 1.400 . S
C164 N162 1.263 . S
C164 N163 1.358 . S
C164 H170 0.930 . S
C165 N163 1.400 . S
C165 C166 1.351 . S
C165 H182 0.930 . S
C166 N162 1.389 . S
C166 C165 1.351 . S
C166 H171 0.930 . S
O167 Cu161 1.974 . S
O167 C177 1.282 . S
C168 O169 1.261 . S
C168 O181 1.251 . S
O169 C168 1.261 . S
H170 C164 0.930 . S
H171 C166 0.930 . S
N172 Cu161 1.985 . S
N172 C174 1.335 . S
N172 C175 1.390 . S
N173 C174 1.345 . S
N173 C176 1.336 . S
C174 N172 1.335 . S
C174 N173 1.345 . S
C174 H179 0.930 . S
C175 N172 1.390 . S
C175 C176 1.346 . S
C175 H180 0.930 . S
C176 N173 1.336 . S
C176 C175 1.346 . S
C176 H183 0.929 . S
C177 O167 1.282 . S
C177 O178 1.216 . S
O178 C177 1.216 . S
H179 C174 0.930 . S
H180 C175 0.930 . S
O181 Cu161 1.959 . S
O181 C168 1.251 . S
H182 C165 0.930 . S
H183 C176 0.929 . S
Cu184 N185 1.999 . S
Cu184 O190 1.974 . S
Cu184 N195 1.985 . S
Cu184 O204 1.959 . S
N185 Cu184 1.999 . S
N185 C187 1.263 . S
N185 C189 1.389 . S
N186 C187 1.358 . S
N186 C188 1.400 . S
C187 N185 1.263 . S
C187 N186 1.358 . S
C187 H193 0.930 . S
C188 N186 1.400 . S
C188 C189 1.351 . S
C188 H205 0.930 . S
C189 N185 1.389 . S
C189 C188 1.351 . S
C189 H194 0.930 . S
O190 Cu184 1.974 . S
O190 C200 1.282 . S
C191 O192 1.261 . S
C191 O204 1.251 . S
O192 C191 1.261 . S
H193 C187 0.930 . S
H194 C189 0.930 . S
N195 Cu184 1.985 . S
N195 C197 1.335 . S
N195 C198 1.390 . S
N196 C197 1.345 . S
N196 C199 1.336 . S
C197 N195 1.335 . S
C197 N196 1.345 . S
C197 H202 0.930 . S
C198 N195 1.390 . S
C198 C199 1.346 . S
C198 H203 0.930 . S
C199 N196 1.336 . S
C199 C198 1.346 . S
C199 H206 0.929 . S
C200 O190 1.282 . S
C200 O201 1.216 . S
O201 C200 1.216 . S
H202 C197 0.930 . S
H203 C198 0.930 . S
O204 Cu184 1.959 . S
O204 C191 1.251 . S
H205 C188 0.930 . S
H206 C199 0.929 . S
Cu207 N208 1.999 . S
Cu207 O213 1.974 . S
Cu207 N218 1.985 . S
Cu207 O227 1.959 . S
N208 Cu207 1.999 . S
N208 C210 1.263 . S
N208 C212 1.389 . S
N209 C210 1.358 . S
N209 C211 1.400 . S
C210 N208 1.263 . S
C210 N209 1.358 . S
C210 H216 0.930 . S
C211 N209 1.400 . S
C211 C212 1.351 . S
C211 H228 0.930 . S
C212 N208 1.389 . S
C212 C211 1.351 . S
C212 H217 0.930 . S
O213 Cu207 1.974 . S
O213 C223 1.282 . S
C214 O215 1.261 . S
C214 O227 1.251 . S
O215 C214 1.261 . S
H216 C210 0.930 . S
H217 C212 0.930 . S
N218 Cu207 1.985 . S
N218 C220 1.335 . S
N218 C221 1.390 . S
N219 C220 1.345 . S
N219 C222 1.336 . S
C220 N218 1.335 . S
C220 N219 1.345 . S
C220 H225 0.930 . S
C221 N218 1.390 . S
C221 C222 1.346 . S
C221 H226 0.930 . S
C222 N219 1.336 . S
C222 C221 1.346 . S
C222 H229 0.929 . S
C223 O213 1.282 . S
C223 O224 1.216 . S
O224 C223 1.216 . S
H225 C220 0.930 . S
H226 C221 0.930 . S
O227 Cu207 1.959 . S
O227 C214 1.251 . S
H228 C211 0.930 . S
H229 C222 0.929 . S
Cu230 N231 1.999 . S
Cu230 O236 1.974 . S
Cu230 N241 1.985 . S
Cu230 O250 1.959 . S
N231 Cu230 1.999 . S
N231 C233 1.263 . S
N231 C235 1.389 . S
N232 C233 1.358 . S
N232 C234 1.400 . S
C233 N231 1.263 . S
C233 N232 1.358 . S
C233 H239 0.930 . S
C234 N232 1.400 . S
C234 C235 1.351 . S
C234 H251 0.930 . S
C235 N231 1.389 . S
C235 C234 1.351 . S
C235 H240 0.930 . S
O236 Cu230 1.974 . S
O236 C246 1.282 . S
C237 O238 1.261 . S
C237 O250 1.251 . S
O238 C237 1.261 . S
H239 C233 0.930 . S
H240 C235 0.930 . S
N241 Cu230 1.985 . S
N241 C243 1.335 . S
N241 C244 1.390 . S
N242 C243 1.345 . S
N242 C245 1.336 . S
C243 N241 1.335 . S
C243 N242 1.345 . S
C243 H248 0.930 . S
C244 N241 1.390 . S
C244 C245 1.346 . S
C244 H249 0.930 . S
C245 N242 1.336 . S
C245 C244 1.346 . S
C245 H252 0.929 . S
C246 O236 1.282 . S
C246 O247 1.216 . S
O247 C246 1.216 . S
H248 C243 0.930 . S
H249 C244 0.930 . S
O250 Cu230 1.959 . S
O250 C237 1.251 . S
H251 C234 0.930 . S
H252 C245 0.929 . S
Cu253 N254 1.999 . S
Cu253 O259 1.974 . S
Cu253 N264 1.985 . S
Cu253 O273 1.959 . S
N254 Cu253 1.999 . S
N254 C256 1.263 . S
N254 C258 1.389 . S
N255 C256 1.358 . S
N255 C257 1.400 . S
C256 N254 1.263 . S
C256 N255 1.358 . S
C256 H262 0.930 . S
C257 N255 1.400 . S
C257 C258 1.351 . S
C257 H274 0.930 . S
C258 N254 1.389 . S
C258 C257 1.351 . S
C258 H263 0.930 . S
O259 Cu253 1.974 . S
O259 C269 1.282 . S
C260 O261 1.261 . S
C260 O273 1.251 . S
O261 C260 1.261 . S
H262 C256 0.930 . S
H263 C258 0.930 . S
N264 Cu253 1.985 . S
N264 C266 1.335 . S
N264 C267 1.390 . S
N265 C266 1.345 . S
N265 C268 1.336 . S
C266 N264 1.335 . S
C266 N265 1.345 . S
C266 H271 0.930 . S
C267 N264 1.390 . S
C267 C268 1.346 . S
C267 H272 0.930 . S
C268 N265 1.336 . S
C268 C267 1.346 . S
C268 H275 0.929 . S
C269 O259 1.282 . S
C269 O270 1.216 . S
O270 C269 1.216 . S
H271 C266 0.930 . S
H272 C267 0.930 . S
O273 Cu253 1.959 . S
O273 C260 1.251 . S
H274 C257 0.930 . S
H275 C268 0.929 . S
Tb276 N307 2.660 . S
Tb276 N314 2.600 . S
Tb276 O320 2.546 . S
Tb276 O321 2.610 . S
Tb276 O323 2.320 . S
Tb276 O324 2.552 . S
Tb276 O325 2.413 . S
Tb276 O327 2.362 . S
Tb276 O328 2.421 . S
Tb276 C340 2.833 . S
C277 C280 1.432 . S
C277 C281 1.414 . S
C277 N284 1.359 . S
C278 C280 1.417 . S
C278 C282 1.432 . S
C278 C290 1.410 . S
C279 C281 1.444 . S
C279 C282 1.317 . S
C279 H302 0.929 . S
C280 C277 1.432 . S
C280 C278 1.417 . S
C280 N288 1.360 . S
C281 C277 1.414 . S
C281 C279 1.444 . S
C281 C286 1.385 . S
C282 C278 1.432 . S
C282 C279 1.317 . S
C282 H294 0.930 . S
C283 C285 1.392 . S
C283 C286 1.370 . S
C283 H295 0.931 . S
N284 C277 1.359 . S
N284 C285 1.327 . S
N284 Tb287 2.600 . S
C285 C283 1.392 . S
C285 N284 1.327 . S
C285 H292 0.930 . S
C286 C281 1.385 . S
C286 C283 1.370 . S
C286 H305 0.930 . S
Tb287 N284 2.600 . S
Tb287 N288 2.660 . S
Tb287 O321 2.362 . S
Tb287 O322 2.421 . S
Tb287 O326 2.546 . S
Tb287 O327 2.610 . S
Tb287 O329 2.320 . S
Tb287 O330 2.552 . S
Tb287 O331 2.413 . S
Tb287 C351 2.833 . S
N288 C280 1.360 . S
N288 Tb287 2.660 . S
N288 C289 1.305 . S
C289 N288 1.305 . S
C289 C291 1.407 . S
C289 H296 0.930 . S
C290 C278 1.410 . S
C290 C291 1.345 . S
C290 H298 0.930 . S
C291 C289 1.407 . S
C291 C290 1.345 . S
C291 H293 0.930 . S
H292 C285 0.930 . S
H293 C291 0.930 . S
H294 C282 0.930 . S
H295 C283 0.931 . S
H296 C289 0.930 . S
H297 C311 0.930 . S
H298 C290 0.930 . S
H299 C317 0.930 . S
H300 C308 0.930 . S
H301 C315 0.931 . S
H302 C279 0.929 . S
H303 C309 0.930 . S
H304 C342 0.930 . S
H305 C286 0.930 . S
H306 C341 0.929 . S
N307 Tb276 2.660 . S
N307 C308 1.305 . S
N307 C312 1.360 . S
C308 H300 0.930 . S
C308 N307 1.305 . S
C308 C311 1.407 . S
C309 H303 0.930 . S
C309 C310 1.410 . S
C309 C311 1.345 . S
C310 C309 1.410 . S
C310 C312 1.417 . S
C310 C342 1.432 . S
C311 H297 0.930 . S
C311 C308 1.407 . S
C311 C309 1.345 . S
C312 N307 1.360 . S
C312 C310 1.417 . S
C312 C316 1.432 . S
H313 C318 0.930 . S
N314 Tb276 2.600 . S
N314 C316 1.359 . S
N314 C317 1.327 . S
C315 H301 0.931 . S
C315 C317 1.392 . S
C315 C318 1.370 . S
C316 C312 1.432 . S
C316 N314 1.359 . S
C316 C319 1.414 . S
C317 H299 0.930 . S
C317 N314 1.327 . S
C317 C315 1.392 . S
C318 H313 0.930 . S
C318 C315 1.370 . S
C318 C319 1.385 . S
C319 C316 1.414 . S
C319 C318 1.385 . S
C319 C341 1.444 . S
O320 Tb276 2.546 . S
O320 C340 1.251 . S
O321 Tb276 2.610 . S
O321 Tb287 2.362 . S
O321 C332 1.283 . S
O322 Tb287 2.421 . S
O322 C339 1.262 . S
O323 Tb276 2.320 . S
O323 C339 1.260 . S
O324 Tb276 2.552 . S
O324 C332 1.243 . S
O325 Tb276 2.413 . S
O325 C340 1.256 . S
O326 Tb287 2.546 . S
O326 C351 1.251 . S
O327 Tb276 2.362 . S
O327 Tb287 2.610 . S
O327 C343 1.283 . S
O328 Tb276 2.421 . S
O328 C350 1.262 . S
O329 Tb287 2.320 . S
O329 C350 1.260 . S
O330 Tb287 2.552 . S
O330 C343 1.243 . S
O331 Tb287 2.413 . S
O331 C351 1.256 . S
C332 O321 1.283 . S
C332 O324 1.243 . S
C333 C335 1.382 . S
C333 C337 1.393 . S
C333 C340 1.500 . S
C334 C335 1.400 . S
C334 C336 1.384 . S
C335 C333 1.382 . S
C335 C334 1.400 . S
C335 H352 0.930 . S
C336 C334 1.384 . S
C336 C338 1.392 . S
C336 H353 0.931 . S
C337 C333 1.393 . S
C337 C338 1.401 . S
C337 H354 0.930 . S
C338 C336 1.392 . S
C338 C337 1.401 . S
C338 H355 0.930 . S
C339 O322 1.262 . S
C339 O323 1.260 . S
C340 Tb276 2.833 . S
C340 O320 1.251 . S
C340 O325 1.256 . S
C340 C333 1.500 . S
C341 H306 0.929 . S
C341 C319 1.444 . S
C341 C342 1.317 . S
C342 H304 0.930 . S
C342 C310 1.432 . S
C342 C341 1.317 . S
C343 O327 1.283 . S
C343 O330 1.243 . S
C344 C345 1.382 . S
C344 C348 1.393 . S
C344 C351 1.500 . S
C345 C344 1.382 . S
C345 C346 1.400 . S
C345 H356 0.930 . S
C346 C345 1.400 . S
C346 C347 1.384 . S
C347 C346 1.384 . S
C347 C349 1.392 . S
C347 H357 0.931 . S
C348 C344 1.393 . S
C348 C349 1.401 . S
C348 H358 0.930 . S
C349 C347 1.392 . S
C349 C348 1.401 . S
C349 H359 0.930 . S
C350 O328 1.262 . S
C350 O329 1.260 . S
C351 Tb287 2.833 . S
C351 O326 1.251 . S
C351 O331 1.256 . S
C351 C344 1.500 . S
H352 C335 0.930 . S
H353 C336 0.931 . S
H354 C337 0.930 . S
H355 C338 0.930 . S
H356 C345 0.930 . S
H357 C347 0.931 . S
H358 C348 0.930 . S
H359 C349 0.930 . S
Tb360 N391 2.660 . S
Tb360 N398 2.600 . S
Tb360 O404 2.546 . S
Tb360 O405 2.610 . S
Tb360 O407 2.320 . S
Tb360 O408 2.552 . S
Tb360 O409 2.413 . S
Tb360 O411 2.362 . S
Tb360 O412 2.421 . S
Tb360 C424 2.833 . S
C361 C364 1.432 . S
C361 C365 1.414 . S
C361 N368 1.359 . S
C362 C364 1.417 . S
C362 C366 1.432 . S
C362 C374 1.410 . S
C363 C365 1.444 . S
C363 C366 1.317 . S
C363 H386 0.929 . S
C364 C361 1.432 . S
C364 C362 1.417 . S
C364 N372 1.360 . S
C365 C361 1.414 . S
C365 C363 1.444 . S
C365 C370 1.385 . S
C366 C362 1.432 . S
C366 C363 1.317 . S
C366 H378 0.930 . S
C367 C369 1.392 . S
C367 C370 1.370 . S
C367 H379 0.931 . S
N368 C361 1.359 . S
N368 C369 1.327 . S
N368 Tb371 2.600 . S
C369 C367 1.392 . S
C369 N368 1.327 . S
C369 H376 0.930 . S
C370 C365 1.385 . S
C370 C367 1.370 . S
C370 H389 0.930 . S
Tb371 N368 2.600 . S
Tb371 N372 2.660 . S
Tb371 O405 2.362 . S
Tb371 O406 2.421 . S
Tb371 O410 2.546 . S
Tb371 O411 2.610 . S
Tb371 O413 2.320 . S
Tb371 O414 2.552 . S
Tb371 O415 2.413 . S
Tb371 C435 2.833 . S
N372 C364 1.360 . S
N372 Tb371 2.660 . S
N372 C373 1.305 . S
C373 N372 1.305 . S
C373 C375 1.407 . S
C373 H380 0.930 . S
C374 C362 1.410 . S
C374 C375 1.345 . S
C374 H382 0.930 . S
C375 C373 1.407 . S
C375 C374 1.345 . S
C375 H377 0.930 . S
H376 C369 0.930 . S
H377 C375 0.930 . S
H378 C366 0.930 . S
H379 C367 0.931 . S
H380 C373 0.930 . S
H381 C395 0.930 . S
H382 C374 0.930 . S
H383 C401 0.930 . S
H384 C392 0.930 . S
H385 C399 0.931 . S
H386 C363 0.929 . S
H387 C393 0.930 . S
H388 C426 0.930 . S
H389 C370 0.930 . S
H390 C425 0.929 . S
N391 Tb360 2.660 . S
N391 C392 1.305 . S
N391 C396 1.360 . S
C392 H384 0.930 . S
C392 N391 1.305 . S
C392 C395 1.407 . S
C393 H387 0.930 . S
C393 C394 1.410 . S
C393 C395 1.345 . S
C394 C393 1.410 . S
C394 C396 1.417 . S
C394 C426 1.432 . S
C395 H381 0.930 . S
C395 C392 1.407 . S
C395 C393 1.345 . S
C396 N391 1.360 . S
C396 C394 1.417 . S
C396 C400 1.432 . S
H397 C402 0.930 . S
N398 Tb360 2.600 . S
N398 C400 1.359 . S
N398 C401 1.327 . S
C399 H385 0.931 . S
C399 C401 1.392 . S
C399 C402 1.370 . S
C400 C396 1.432 . S
C400 N398 1.359 . S
C400 C403 1.414 . S
C401 H383 0.930 . S
C401 N398 1.327 . S
C401 C399 1.392 . S
C402 H397 0.930 . S
C402 C399 1.370 . S
C402 C403 1.385 . S
C403 C400 1.414 . S
C403 C402 1.385 . S
C403 C425 1.444 . S
O404 Tb360 2.546 . S
O404 C424 1.251 . S
O405 Tb360 2.610 . S
O405 Tb371 2.362 . S
O405 C416 1.283 . S
O406 Tb371 2.421 . S
O406 C423 1.262 . S
O407 Tb360 2.320 . S
O407 C423 1.260 . S
O408 Tb360 2.552 . S
O408 C416 1.243 . S
O409 Tb360 2.413 . S
O409 C424 1.256 . S
O410 Tb371 2.546 . S
O410 C435 1.251 . S
O411 Tb360 2.362 . S
O411 Tb371 2.610 . S
O411 C427 1.283 . S
O412 Tb360 2.421 . S
O412 C434 1.262 . S
O413 Tb371 2.320 . S
O413 C434 1.260 . S
O414 Tb371 2.552 . S
O414 C427 1.243 . S
O415 Tb371 2.413 . S
O415 C435 1.256 . S
C416 O405 1.283 . S
C416 O408 1.243 . S
C417 C419 1.382 . S
C417 C421 1.393 . S
C417 C424 1.500 . S
C418 C419 1.400 . S
C418 C420 1.384 . S
C419 C417 1.382 . S
C419 C418 1.400 . S
C419 H436 0.930 . S
C420 C418 1.384 . S
C420 C422 1.392 . S
C420 H437 0.931 . S
C421 C417 1.393 . S
C421 C422 1.401 . S
C421 H438 0.930 . S
C422 C420 1.392 . S
C422 C421 1.401 . S
C422 H439 0.930 . S
C423 O406 1.262 . S
C423 O407 1.260 . S
C424 Tb360 2.833 . S
C424 O404 1.251 . S
C424 O409 1.256 . S
C424 C417 1.500 . S
C425 H390 0.929 . S
C425 C403 1.444 . S
C425 C426 1.317 . S
C426 H388 0.930 . S
C426 C394 1.432 . S
C426 C425 1.317 . S
C427 O411 1.283 . S
C427 O414 1.243 . S
C428 C429 1.382 . S
C428 C432 1.393 . S
C428 C435 1.500 . S
C429 C428 1.382 . S
C429 C430 1.400 . S
C429 H440 0.930 . S
C430 C429 1.400 . S
C430 C431 1.384 . S
C431 C430 1.384 . S
C431 C433 1.392 . S
C431 H441 0.931 . S
C432 C428 1.393 . S
C432 C433 1.401 . S
C432 H442 0.930 . S
C433 C431 1.392 . S
C433 C432 1.401 . S
C433 H443 0.930 . S
C434 O412 1.262 . S
C434 O413 1.260 . S
C435 Tb371 2.833 . S
C435 O410 1.251 . S
C435 O415 1.256 . S
C435 C428 1.500 . S
H436 C419 0.930 . S
H437 C420 0.931 . S
H438 C421 0.930 . S
H439 C422 0.930 . S
H440 C429 0.930 . S
H441 C431 0.931 . S
H442 C432 0.930 . S
H443 C433 0.930 . S
Tb444 N475 2.660 . S
Tb444 N482 2.600 . S
Tb444 O488 2.546 . S
Tb444 O489 2.610 . S
Tb444 O491 2.320 . S
Tb444 O492 2.552 . S
Tb444 O493 2.413 . S
Tb444 O495 2.362 . S
Tb444 O496 2.421 . S
Tb444 C508 2.833 . S
C445 C448 1.432 . S
C445 C449 1.414 . S
C445 N452 1.359 . S
C446 C448 1.417 . S
C446 C450 1.432 . S
C446 C458 1.410 . S
C447 C449 1.444 . S
C447 C450 1.317 . S
C447 H470 0.929 . S
C448 C445 1.432 . S
C448 C446 1.417 . S
C448 N456 1.360 . S
C449 C445 1.414 . S
C449 C447 1.444 . S
C449 C454 1.385 . S
C450 C446 1.432 . S
C450 C447 1.317 . S
C450 H462 0.930 . S
C451 C453 1.392 . S
C451 C454 1.370 . S
C451 H463 0.931 . S
N452 C445 1.359 . S
N452 C453 1.327 . S
N452 Tb455 2.600 . S
C453 C451 1.392 . S
C453 N452 1.327 . S
C453 H460 0.930 . S
C454 C449 1.385 . S
C454 C451 1.370 . S
C454 H473 0.930 . S
Tb455 N452 2.600 . S
Tb455 N456 2.660 . S
Tb455 O489 2.362 . S
Tb455 O490 2.421 . S
Tb455 O494 2.546 . S
Tb455 O495 2.610 . S
Tb455 O497 2.320 . S
Tb455 O498 2.552 . S
Tb455 O499 2.413 . S
Tb455 C519 2.833 . S
N456 C448 1.360 . S
N456 Tb455 2.660 . S
N456 C457 1.305 . S
C457 N456 1.305 . S
C457 C459 1.407 . S
C457 H464 0.930 . S
C458 C446 1.410 . S
C458 C459 1.345 . S
C458 H466 0.930 . S
C459 C457 1.407 . S
C459 C458 1.345 . S
C459 H461 0.930 . S
H460 C453 0.930 . S
H461 C459 0.930 . S
H462 C450 0.930 . S
H463 C451 0.931 . S
H464 C457 0.930 . S
H465 C479 0.930 . S
H466 C458 0.930 . S
H467 C485 0.930 . S
H468 C476 0.930 . S
H469 C483 0.931 . S
H470 C447 0.929 . S
H471 C477 0.930 . S
H472 C510 0.930 . S
H473 C454 0.930 . S
H474 C509 0.929 . S
N475 Tb444 2.660 . S
N475 C476 1.305 . S
N475 C480 1.360 . S
C476 H468 0.930 . S
C476 N475 1.305 . S
C476 C479 1.407 . S
C477 H471 0.930 . S
C477 C478 1.410 . S
C477 C479 1.345 . S
C478 C477 1.410 . S
C478 C480 1.417 . S
C478 C510 1.432 . S
C479 H465 0.930 . S
C479 C476 1.407 . S
C479 C477 1.345 . S
C480 N475 1.360 . S
C480 C478 1.417 . S
C480 C484 1.432 . S
H481 C486 0.930 . S
N482 Tb444 2.600 . S
N482 C484 1.359 . S
N482 C485 1.327 . S
C483 H469 0.931 . S
C483 C485 1.392 . S
C483 C486 1.370 . S
C484 C480 1.432 . S
C484 N482 1.359 . S
C484 C487 1.414 . S
C485 H467 0.930 . S
C485 N482 1.327 . S
C485 C483 1.392 . S
C486 H481 0.930 . S
C486 C483 1.370 . S
C486 C487 1.385 . S
C487 C484 1.414 . S
C487 C486 1.385 . S
C487 C509 1.444 . S
O488 Tb444 2.546 . S
O488 C508 1.251 . S
O489 Tb444 2.610 . S
O489 Tb455 2.362 . S
O489 C500 1.283 . S
O490 Tb455 2.421 . S
O490 C507 1.262 . S
O491 Tb444 2.320 . S
O491 C507 1.260 . S
O492 Tb444 2.552 . S
O492 C500 1.243 . S
O493 Tb444 2.413 . S
O493 C508 1.256 . S
O494 Tb455 2.546 . S
O494 C519 1.251 . S
O495 Tb444 2.362 . S
O495 Tb455 2.610 . S
O495 C511 1.283 . S
O496 Tb444 2.421 . S
O496 C518 1.262 . S
O497 Tb455 2.320 . S
O497 C518 1.260 . S
O498 Tb455 2.552 . S
O498 C511 1.243 . S
O499 Tb455 2.413 . S
O499 C519 1.256 . S
C500 O489 1.283 . S
C500 O492 1.243 . S
C501 C503 1.382 . S
C501 C505 1.393 . S
C501 C508 1.500 . S
C502 C503 1.400 . S
C502 C504 1.384 . S
C503 C501 1.382 . S
C503 C502 1.400 . S
C503 H520 0.930 . S
C504 C502 1.384 . S
C504 C506 1.392 . S
C504 H521 0.931 . S
C505 C501 1.393 . S
C505 C506 1.401 . S
C505 H522 0.930 . S
C506 C504 1.392 . S
C506 C505 1.401 . S
C506 H523 0.930 . S
C507 O490 1.262 . S
C507 O491 1.260 . S
C508 Tb444 2.833 . S
C508 O488 1.251 . S
C508 O493 1.256 . S
C508 C501 1.500 . S
C509 H474 0.929 . S
C509 C487 1.444 . S
C509 C510 1.317 . S
C510 H472 0.930 . S
C510 C478 1.432 . S
C510 C509 1.317 . S
C511 O495 1.283 . S
C511 O498 1.243 . S
C512 C513 1.382 . S
C512 C516 1.393 . S
C512 C519 1.500 . S
C513 C512 1.382 . S
C513 C514 1.400 . S
C513 H524 0.930 . S
C514 C513 1.400 . S
C514 C515 1.384 . S
C515 C514 1.384 . S
C515 C517 1.392 . S
C515 H525 0.931 . S
C516 C512 1.393 . S
C516 C517 1.401 . S
C516 H526 0.930 . S
C517 C515 1.392 . S
C517 C516 1.401 . S
C517 H527 0.930 . S
C518 O496 1.262 . S
C518 O497 1.260 . S
C519 Tb455 2.833 . S
C519 O494 1.251 . S
C519 O499 1.256 . S
C519 C512 1.500 . S
H520 C503 0.930 . S
H521 C504 0.931 . S
H522 C505 0.930 . S
H523 C506 0.930 . S
H524 C513 0.930 . S
H525 C515 0.931 . S
H526 C516 0.930 . S
H527 C517 0.930 . S
Tb528 N559 2.660 . S
Tb528 N566 2.600 . S
Tb528 O572 2.546 . S
Tb528 O573 2.610 . S
Tb528 O575 2.320 . S
Tb528 O576 2.552 . S
Tb528 O577 2.413 . S
Tb528 O579 2.362 . S
Tb528 O580 2.421 . S
Tb528 C592 2.833 . S
C529 C532 1.432 . S
C529 C533 1.414 . S
C529 N536 1.359 . S
C530 C532 1.417 . S
C530 C534 1.432 . S
C530 C542 1.410 . S
C531 C533 1.444 . S
C531 C534 1.317 . S
C531 H554 0.929 . S
C532 C529 1.432 . S
C532 C530 1.417 . S
C532 N540 1.360 . S
C533 C529 1.414 . S
C533 C531 1.444 . S
C533 C538 1.385 . S
C534 C530 1.432 . S
C534 C531 1.317 . S
C534 H546 0.930 . S
C535 C537 1.392 . S
C535 C538 1.370 . S
C535 H547 0.931 . S
N536 C529 1.359 . S
N536 C537 1.327 . S
N536 Tb539 2.600 . S
C537 C535 1.392 . S
C537 N536 1.327 . S
C537 H544 0.930 . S
C538 C533 1.385 . S
C538 C535 1.370 . S
C538 H557 0.930 . S
Tb539 N536 2.600 . S
Tb539 N540 2.660 . S
Tb539 O573 2.362 . S
Tb539 O574 2.421 . S
Tb539 O578 2.546 . S
Tb539 O579 2.610 . S
Tb539 O581 2.320 . S
Tb539 O582 2.552 . S
Tb539 O583 2.413 . S
Tb539 C603 2.833 . S
N540 C532 1.360 . S
N540 Tb539 2.660 . S
N540 C541 1.305 . S
C541 N540 1.305 . S
C541 C543 1.407 . S
C541 H548 0.930 . S
C542 C530 1.410 . S
C542 C543 1.345 . S
C542 H550 0.930 . S
C543 C541 1.407 . S
C543 C542 1.345 . S
C543 H545 0.930 . S
H544 C537 0.930 . S
H545 C543 0.930 . S
H546 C534 0.930 . S
H547 C535 0.931 . S
H548 C541 0.930 . S
H549 C563 0.930 . S
H550 C542 0.930 . S
H551 C569 0.930 . S
H552 C560 0.930 . S
H553 C567 0.931 . S
H554 C531 0.929 . S
H555 C561 0.930 . S
H556 C594 0.930 . S
H557 C538 0.930 . S
H558 C593 0.929 . S
N559 Tb528 2.660 . S
N559 C560 1.305 . S
N559 C564 1.360 . S
C560 H552 0.930 . S
C560 N559 1.305 . S
C560 C563 1.407 . S
C561 H555 0.930 . S
C561 C562 1.410 . S
C561 C563 1.345 . S
C562 C561 1.410 . S
C562 C564 1.417 . S
C562 C594 1.432 . S
C563 H549 0.930 . S
C563 C560 1.407 . S
C563 C561 1.345 . S
C564 N559 1.360 . S
C564 C562 1.417 . S
C564 C568 1.432 . S
H565 C570 0.930 . S
N566 Tb528 2.600 . S
N566 C568 1.359 . S
N566 C569 1.327 . S
C567 H553 0.931 . S
C567 C569 1.392 . S
C567 C570 1.370 . S
C568 C564 1.432 . S
C568 N566 1.359 . S
C568 C571 1.414 . S
C569 H551 0.930 . S
C569 N566 1.327 . S
C569 C567 1.392 . S
C570 H565 0.930 . S
C570 C567 1.370 . S
C570 C571 1.385 . S
C571 C568 1.414 . S
C571 C570 1.385 . S
C571 C593 1.444 . S
O572 Tb528 2.546 . S
O572 C592 1.251 . S
O573 Tb528 2.610 . S
O573 Tb539 2.362 . S
O573 C584 1.283 . S
O574 Tb539 2.421 . S
O574 C591 1.262 . S
O575 Tb528 2.320 . S
O575 C591 1.260 . S
O576 Tb528 2.552 . S
O576 C584 1.243 . S
O577 Tb528 2.413 . S
O577 C592 1.256 . S
O578 Tb539 2.546 . S
O578 C603 1.251 . S
O579 Tb528 2.362 . S
O579 Tb539 2.610 . S
O579 C595 1.283 . S
O580 Tb528 2.421 . S
O580 C602 1.262 . S
O581 Tb539 2.320 . S
O581 C602 1.260 . S
O582 Tb539 2.552 . S
O582 C595 1.243 . S
O583 Tb539 2.413 . S
O583 C603 1.256 . S
C584 O573 1.283 . S
C584 O576 1.243 . S
C585 C587 1.382 . S
C585 C589 1.393 . S
C585 C592 1.500 . S
C586 C587 1.400 . S
C586 C588 1.384 . S
C587 C585 1.382 . S
C587 C586 1.400 . S
C587 H604 0.930 . S
C588 C586 1.384 . S
C588 C590 1.392 . S
C588 H605 0.931 . S
C589 C585 1.393 . S
C589 C590 1.401 . S
C589 H606 0.930 . S
C590 C588 1.392 . S
C590 C589 1.401 . S
C590 H607 0.930 . S
C591 O574 1.262 . S
C591 O575 1.260 . S
C592 Tb528 2.833 . S
C592 O572 1.251 . S
C592 O577 1.256 . S
C592 C585 1.500 . S
C593 H558 0.929 . S
C593 C571 1.444 . S
C593 C594 1.317 . S
C594 H556 0.930 . S
C594 C562 1.432 . S
C594 C593 1.317 . S
C595 O579 1.283 . S
C595 O582 1.243 . S
C596 C597 1.382 . S
C596 C600 1.393 . S
C596 C603 1.500 . S
C597 C596 1.382 . S
C597 C598 1.400 . S
C597 H608 0.930 . S
C598 C597 1.400 . S
C598 C599 1.384 . S
C599 C598 1.384 . S
C599 C601 1.392 . S
C599 H609 0.931 . S
C600 C596 1.393 . S
C600 C601 1.401 . S
C600 H610 0.930 . S
C601 C599 1.392 . S
C601 C600 1.401 . S
C601 H611 0.930 . S
C602 O580 1.262 . S
C602 O581 1.260 . S
C603 Tb539 2.833 . S
C603 O578 1.251 . S
C603 O583 1.256 . S
C603 C596 1.500 . S
H604 C587 0.930 . S
H605 C588 0.931 . S
H606 C589 0.930 . S
H607 C590 0.930 . S
H608 C597 0.930 . S
H609 C599 0.931 . S
H610 C600 0.930 . S
H611 C601 0.930 . S
Tb612 N643 2.660 . S
Tb612 N650 2.600 . S
Tb612 O656 2.546 . S
Tb612 O657 2.610 . S
Tb612 O659 2.320 . S
Tb612 O660 2.552 . S
Tb612 O661 2.413 . S
Tb612 O663 2.362 . S
Tb612 O664 2.421 . S
Tb612 C676 2.833 . S
C613 C616 1.432 . S
C613 C617 1.414 . S
C613 N620 1.359 . S
C614 C616 1.417 . S
C614 C618 1.432 . S
C614 C626 1.410 . S
C615 C617 1.444 . S
C615 C618 1.317 . S
C615 H638 0.929 . S
C616 C613 1.432 . S
C616 C614 1.417 . S
C616 N624 1.360 . S
C617 C613 1.414 . S
C617 C615 1.444 . S
C617 C622 1.385 . S
C618 C614 1.432 . S
C618 C615 1.317 . S
C618 H630 0.930 . S
C619 C621 1.392 . S
C619 C622 1.370 . S
C619 H631 0.931 . S
N620 C613 1.359 . S
N620 C621 1.327 . S
N620 Tb623 2.600 . S
C621 C619 1.392 . S
C621 N620 1.327 . S
C621 H628 0.930 . S
C622 C617 1.385 . S
C622 C619 1.370 . S
C622 H641 0.930 . S
Tb623 N620 2.600 . S
Tb623 N624 2.660 . S
Tb623 O657 2.362 . S
Tb623 O658 2.421 . S
Tb623 O662 2.546 . S
Tb623 O663 2.610 . S
Tb623 O665 2.320 . S
Tb623 O666 2.552 . S
Tb623 O667 2.413 . S
Tb623 C687 2.833 . S
N624 C616 1.360 . S
N624 Tb623 2.660 . S
N624 C625 1.305 . S
C625 N624 1.305 . S
C625 C627 1.407 . S
C625 H632 0.930 . S
C626 C614 1.410 . S
C626 C627 1.345 . S
C626 H634 0.930 . S
C627 C625 1.407 . S
C627 C626 1.345 . S
C627 H629 0.930 . S
H628 C621 0.930 . S
H629 C627 0.930 . S
H630 C618 0.930 . S
H631 C619 0.931 . S
H632 C625 0.930 . S
H633 C647 0.930 . S
H634 C626 0.930 . S
H635 C653 0.930 . S
H636 C644 0.930 . S
H637 C651 0.931 . S
H638 C615 0.929 . S
H639 C645 0.930 . S
H640 C678 0.930 . S
H641 C622 0.930 . S
H642 C677 0.929 . S
N643 Tb612 2.660 . S
N643 C644 1.305 . S
N643 C648 1.360 . S
C644 H636 0.930 . S
C644 N643 1.305 . S
C644 C647 1.407 . S
C645 H639 0.930 . S
C645 C646 1.410 . S
C645 C647 1.345 . S
C646 C645 1.410 . S
C646 C648 1.417 . S
C646 C678 1.432 . S
C647 H633 0.930 . S
C647 C644 1.407 . S
C647 C645 1.345 . S
C648 N643 1.360 . S
C648 C646 1.417 . S
C648 C652 1.432 . S
H649 C654 0.930 . S
N650 Tb612 2.600 . S
N650 C652 1.359 . S
N650 C653 1.327 . S
C651 H637 0.931 . S
C651 C653 1.392 . S
C651 C654 1.370 . S
C652 C648 1.432 . S
C652 N650 1.359 . S
C652 C655 1.414 . S
C653 H635 0.930 . S
C653 N650 1.327 . S
C653 C651 1.392 . S
C654 H649 0.930 . S
C654 C651 1.370 . S
C654 C655 1.385 . S
C655 C652 1.414 . S
C655 C654 1.385 . S
C655 C677 1.444 . S
O656 Tb612 2.546 . S
O656 C676 1.251 . S
O657 Tb612 2.610 . S
O657 Tb623 2.362 . S
O657 C668 1.283 . S
O658 Tb623 2.421 . S
O658 C675 1.262 . S
O659 Tb612 2.320 . S
O659 C675 1.260 . S
O660 Tb612 2.552 . S
O660 C668 1.243 . S
O661 Tb612 2.413 . S
O661 C676 1.256 . S
O662 Tb623 2.546 . S
O662 C687 1.251 . S
O663 Tb612 2.362 . S
O663 Tb623 2.610 . S
O663 C679 1.283 . S
O664 Tb612 2.421 . S
O664 C686 1.262 . S
O665 Tb623 2.320 . S
O665 C686 1.260 . S
O666 Tb623 2.552 . S
O666 C679 1.243 . S
O667 Tb623 2.413 . S
O667 C687 1.256 . S
C668 O657 1.283 . S
C668 O660 1.243 . S
C669 C671 1.382 . S
C669 C673 1.393 . S
C669 C676 1.500 . S
C670 C671 1.400 . S
C670 C672 1.384 . S
C671 C669 1.382 . S
C671 C670 1.400 . S
C671 H688 0.930 . S
C672 C670 1.384 . S
C672 C674 1.392 . S
C672 H689 0.931 . S
C673 C669 1.393 . S
C673 C674 1.401 . S
C673 H690 0.930 . S
C674 C672 1.392 . S
C674 C673 1.401 . S
C674 H691 0.930 . S
C675 O658 1.262 . S
C675 O659 1.260 . S
C676 Tb612 2.833 . S
C676 O656 1.251 . S
C676 O661 1.256 . S
C676 C669 1.500 . S
C677 H642 0.929 . S
C677 C655 1.444 . S
C677 C678 1.317 . S
C678 H640 0.930 . S
C678 C646 1.432 . S
C678 C677 1.317 . S
C679 O663 1.283 . S
C679 O666 1.243 . S
C680 C681 1.382 . S
C680 C684 1.393 . S
C680 C687 1.500 . S
C681 C680 1.382 . S
C681 C682 1.400 . S
C681 H692 0.930 . S
C682 C681 1.400 . S
C682 C683 1.384 . S
C683 C682 1.384 . S
C683 C685 1.392 . S
C683 H693 0.931 . S
C684 C680 1.393 . S
C684 C685 1.401 . S
C684 H694 0.930 . S
C685 C683 1.392 . S
C685 C684 1.401 . S
C685 H695 0.930 . S
C686 O664 1.262 . S
C686 O665 1.260 . S
C687 Tb623 2.833 . S
C687 O662 1.251 . S
C687 O667 1.256 . S
C687 C680 1.500 . S
H688 C671 0.930 . S
H689 C672 0.931 . S
H690 C673 0.930 . S
H691 C674 0.930 . S
H692 C681 0.930 . S
H693 C683 0.931 . S
H694 C684 0.930 . S
H695 C685 0.930 . S
Tb696 N727 2.660 . S
Tb696 N734 2.600 . S
Tb696 O740 2.546 . S
Tb696 O741 2.610 . S
Tb696 O743 2.320 . S
Tb696 O744 2.552 . S
Tb696 O745 2.413 . S
Tb696 O747 2.362 . S
Tb696 O748 2.421 . S
Tb696 C760 2.833 . S
C697 C700 1.432 . S
C697 C701 1.414 . S
C697 N704 1.359 . S
C698 C700 1.417 . S
C698 C702 1.432 . S
C698 C710 1.410 . S
C699 C701 1.444 . S
C699 C702 1.317 . S
C699 H722 0.929 . S
C700 C697 1.432 . S
C700 C698 1.417 . S
C700 N708 1.360 . S
C701 C697 1.414 . S
C701 C699 1.444 . S
C701 C706 1.385 . S
C702 C698 1.432 . S
C702 C699 1.317 . S
C702 H714 0.930 . S
C703 C705 1.392 . S
C703 C706 1.370 . S
C703 H715 0.931 . S
N704 C697 1.359 . S
N704 C705 1.327 . S
N704 Tb707 2.600 . S
C705 C703 1.392 . S
C705 N704 1.327 . S
C705 H712 0.930 . S
C706 C701 1.385 . S
C706 C703 1.370 . S
C706 H725 0.930 . S
Tb707 N704 2.600 . S
Tb707 N708 2.660 . S
Tb707 O741 2.362 . S
Tb707 O742 2.421 . S
Tb707 O746 2.546 . S
Tb707 O747 2.610 . S
Tb707 O749 2.320 . S
Tb707 O750 2.552 . S
Tb707 O751 2.413 . S
Tb707 C771 2.833 . S
N708 C700 1.360 . S
N708 Tb707 2.660 . S
N708 C709 1.305 . S
C709 N708 1.305 . S
C709 C711 1.407 . S
C709 H716 0.930 . S
C710 C698 1.410 . S
C710 C711 1.345 . S
C710 H718 0.930 . S
C711 C709 1.407 . S
C711 C710 1.345 . S
C711 H713 0.930 . S
H712 C705 0.930 . S
H713 C711 0.930 . S
H714 C702 0.930 . S
H715 C703 0.931 . S
H716 C709 0.930 . S
H717 C731 0.930 . S
H718 C710 0.930 . S
H719 C737 0.930 . S
H720 C728 0.930 . S
H721 C735 0.931 . S
H722 C699 0.929 . S
H723 C729 0.930 . S
H724 C762 0.930 . S
H725 C706 0.930 . S
H726 C761 0.929 . S
N727 Tb696 2.660 . S
N727 C728 1.305 . S
N727 C732 1.360 . S
C728 H720 0.930 . S
C728 N727 1.305 . S
C728 C731 1.407 . S
C729 H723 0.930 . S
C729 C730 1.410 . S
C729 C731 1.345 . S
C730 C729 1.410 . S
C730 C732 1.417 . S
C730 C762 1.432 . S
C731 H717 0.930 . S
C731 C728 1.407 . S
C731 C729 1.345 . S
C732 N727 1.360 . S
C732 C730 1.417 . S
C732 C736 1.432 . S
H733 C738 0.930 . S
N734 Tb696 2.600 . S
N734 C736 1.359 . S
N734 C737 1.327 . S
C735 H721 0.931 . S
C735 C737 1.392 . S
C735 C738 1.370 . S
C736 C732 1.432 . S
C736 N734 1.359 . S
C736 C739 1.414 . S
C737 H719 0.930 . S
C737 N734 1.327 . S
C737 C735 1.392 . S
C738 H733 0.930 . S
C738 C735 1.370 . S
C738 C739 1.385 . S
C739 C736 1.414 . S
C739 C738 1.385 . S
C739 C761 1.444 . S
O740 Tb696 2.546 . S
O740 C760 1.251 . S
O741 Tb696 2.610 . S
O741 Tb707 2.362 . S
O741 C752 1.283 . S
O742 Tb707 2.421 . S
O742 C759 1.262 . S
O743 Tb696 2.320 . S
O743 C759 1.260 . S
O744 Tb696 2.552 . S
O744 C752 1.243 . S
O745 Tb696 2.413 . S
O745 C760 1.256 . S
O746 Tb707 2.546 . S
O746 C771 1.251 . S
O747 Tb696 2.362 . S
O747 Tb707 2.610 . S
O747 C763 1.283 . S
O748 Tb696 2.421 . S
O748 C770 1.262 . S
O749 Tb707 2.320 . S
O749 C770 1.260 . S
O750 Tb707 2.552 . S
O750 C763 1.243 . S
O751 Tb707 2.413 . S
O751 C771 1.256 . S
C752 O741 1.283 . S
C752 O744 1.243 . S
C753 C755 1.382 . S
C753 C757 1.393 . S
C753 C760 1.500 . S
C754 C755 1.400 . S
C754 C756 1.384 . S
C755 C753 1.382 . S
C755 C754 1.400 . S
C755 H772 0.930 . S
C756 C754 1.384 . S
C756 C758 1.392 . S
C756 H773 0.931 . S
C757 C753 1.393 . S
C757 C758 1.401 . S
C757 H774 0.930 . S
C758 C756 1.392 . S
C758 C757 1.401 . S
C758 H775 0.930 . S
C759 O742 1.262 . S
C759 O743 1.260 . S
C760 Tb696 2.833 . S
C760 O740 1.251 . S
C760 O745 1.256 . S
C760 C753 1.500 . S
C761 H726 0.929 . S
C761 C739 1.444 . S
C761 C762 1.317 . S
C762 H724 0.930 . S
C762 C730 1.432 . S
C762 C761 1.317 . S
C763 O747 1.283 . S
C763 O750 1.243 . S
C764 C765 1.382 . S
C764 C768 1.393 . S
C764 C771 1.500 . S
C765 C764 1.382 . S
C765 C766 1.400 . S
C765 H776 0.930 . S
C766 C765 1.400 . S
C766 C767 1.384 . S
C767 C766 1.384 . S
C767 C769 1.392 . S
C767 H777 0.931 . S
C768 C764 1.393 . S
C768 C769 1.401 . S
C768 H778 0.930 . S
C769 C767 1.392 . S
C769 C768 1.401 . S
C769 H779 0.930 . S
C770 O748 1.262 . S
C770 O749 1.260 . S
C771 Tb707 2.833 . S
C771 O746 1.251 . S
C771 O751 1.256 . S
C771 C764 1.500 . S
H772 C755 0.930 . S
H773 C756 0.931 . S
H774 C757 0.930 . S
H775 C758 0.930 . S
H776 C765 0.930 . S
H777 C767 0.931 . S
H778 C768 0.930 . S
H779 C769 0.930 . S
Tb780 N811 2.660 . S
Tb780 N818 2.600 . S
Tb780 O824 2.546 . S
Tb780 O825 2.610 . S
Tb780 O827 2.320 . S
Tb780 O828 2.552 . S
Tb780 O829 2.413 . S
Tb780 O831 2.362 . S
Tb780 O832 2.421 . S
Tb780 C844 2.833 . S
C781 C784 1.432 . S
C781 C785 1.414 . S
C781 N788 1.359 . S
C782 C784 1.417 . S
C782 C786 1.432 . S
C782 C794 1.410 . S
C783 C785 1.444 . S
C783 C786 1.317 . S
C783 H806 0.929 . S
C784 C781 1.432 . S
C784 C782 1.417 . S
C784 N792 1.360 . S
C785 C781 1.414 . S
C785 C783 1.444 . S
C785 C790 1.385 . S
C786 C782 1.432 . S
C786 C783 1.317 . S
C786 H798 0.930 . S
C787 C789 1.392 . S
C787 C790 1.370 . S
C787 H799 0.931 . S
N788 C781 1.359 . S
N788 C789 1.327 . S
N788 Tb791 2.600 . S
C789 C787 1.392 . S
C789 N788 1.327 . S
C789 H796 0.930 . S
C790 C785 1.385 . S
C790 C787 1.370 . S
C790 H809 0.930 . S
Tb791 N788 2.600 . S
Tb791 N792 2.660 . S
Tb791 O825 2.362 . S
Tb791 O826 2.421 . S
Tb791 O830 2.546 . S
Tb791 O831 2.610 . S
Tb791 O833 2.320 . S
Tb791 O834 2.552 . S
Tb791 O835 2.413 . S
Tb791 C855 2.833 . S
N792 C784 1.360 . S
N792 Tb791 2.660 . S
N792 C793 1.305 . S
C793 N792 1.305 . S
C793 C795 1.407 . S
C793 H800 0.930 . S
C794 C782 1.410 . S
C794 C795 1.345 . S
C794 H802 0.930 . S
C795 C793 1.407 . S
C795 C794 1.345 . S
C795 H797 0.930 . S
H796 C789 0.930 . S
H797 C795 0.930 . S
H798 C786 0.930 . S
H799 C787 0.931 . S
H800 C793 0.930 . S
H801 C815 0.930 . S
H802 C794 0.930 . S
H803 C821 0.930 . S
H804 C812 0.930 . S
H805 C819 0.931 . S
H806 C783 0.929 . S
H807 C813 0.930 . S
H808 C846 0.930 . S
H809 C790 0.930 . S
H810 C845 0.929 . S
N811 Tb780 2.660 . S
N811 C812 1.305 . S
N811 C816 1.360 . S
C812 H804 0.930 . S
C812 N811 1.305 . S
C812 C815 1.407 . S
C813 H807 0.930 . S
C813 C814 1.410 . S
C813 C815 1.345 . S
C814 C813 1.410 . S
C814 C816 1.417 . S
C814 C846 1.432 . S
C815 H801 0.930 . S
C815 C812 1.407 . S
C815 C813 1.345 . S
C816 N811 1.360 . S
C816 C814 1.417 . S
C816 C820 1.432 . S
H817 C822 0.930 . S
N818 Tb780 2.600 . S
N818 C820 1.359 . S
N818 C821 1.327 . S
C819 H805 0.931 . S
C819 C821 1.392 . S
C819 C822 1.370 . S
C820 C816 1.432 . S
C820 N818 1.359 . S
C820 C823 1.414 . S
C821 H803 0.930 . S
C821 N818 1.327 . S
C821 C819 1.392 . S
C822 H817 0.930 . S
C822 C819 1.370 . S
C822 C823 1.385 . S
C823 C820 1.414 . S
C823 C822 1.385 . S
C823 C845 1.444 . S
O824 Tb780 2.546 . S
O824 C844 1.251 . S
O825 Tb780 2.610 . S
O825 Tb791 2.362 . S
O825 C836 1.283 . S
O826 Tb791 2.421 . S
O826 C843 1.262 . S
O827 Tb780 2.320 . S
O827 C843 1.260 . S
O828 Tb780 2.552 . S
O828 C836 1.243 . S
O829 Tb780 2.413 . S
O829 C844 1.256 . S
O830 Tb791 2.546 . S
O830 C855 1.251 . S
O831 Tb780 2.362 . S
O831 Tb791 2.610 . S
O831 C847 1.283 . S
O832 Tb780 2.421 . S
O832 C854 1.262 . S
O833 Tb791 2.320 . S
O833 C854 1.260 . S
O834 Tb791 2.552 . S
O834 C847 1.243 . S
O835 Tb791 2.413 . S
O835 C855 1.256 . S
C836 O825 1.283 . S
C836 O828 1.243 . S
C837 C839 1.382 . S
C837 C841 1.393 . S
C837 C844 1.500 . S
C838 C839 1.400 . S
C838 C840 1.384 . S
C839 C837 1.382 . S
C839 C838 1.400 . S
C839 H856 0.930 . S
C840 C838 1.384 . S
C840 C842 1.392 . S
C840 H857 0.931 . S
C841 C837 1.393 . S
C841 C842 1.401 . S
C841 H858 0.930 . S
C842 C840 1.392 . S
C842 C841 1.401 . S
C842 H859 0.930 . S
C843 O826 1.262 . S
C843 O827 1.260 . S
C844 Tb780 2.833 . S
C844 O824 1.251 . S
C844 O829 1.256 . S
C844 C837 1.500 . S
C845 H810 0.929 . S
C845 C823 1.444 . S
C845 C846 1.317 . S
C846 H808 0.930 . S
C846 C814 1.432 . S
C846 C845 1.317 . S
C847 O831 1.283 . S
C847 O834 1.243 . S
C848 C849 1.382 . S
C848 C852 1.393 . S
C848 C855 1.500 . S
C849 C848 1.382 . S
C849 C850 1.400 . S
C849 H860 0.930 . S
C850 C849 1.400 . S
C850 C851 1.384 . S
C851 C850 1.384 . S
C851 C853 1.392 . S
C851 H861 0.931 . S
C852 C848 1.393 . S
C852 C853 1.401 . S
C852 H862 0.930 . S
C853 C851 1.392 . S
C853 C852 1.401 . S
C853 H863 0.930 . S
C854 O832 1.262 . S
C854 O833 1.260 . S
C855 Tb791 2.833 . S
C855 O830 1.251 . S
C855 O835 1.256 . S
C855 C848 1.500 . S
H856 C839 0.930 . S
H857 C840 0.931 . S
H858 C841 0.930 . S
H859 C842 0.930 . S
H860 C849 0.930 . S
H861 C851 0.931 . S
H862 C852 0.930 . S
H863 C853 0.930 . S
Tb864 N895 2.660 . S
Tb864 N902 2.600 . S
Tb864 O908 2.546 . S
Tb864 O909 2.610 . S
Tb864 O911 2.320 . S
Tb864 O912 2.552 . S
Tb864 O913 2.413 . S
Tb864 O915 2.362 . S
Tb864 O916 2.421 . S
Tb864 C928 2.833 . S
C865 C868 1.432 . S
C865 C869 1.414 . S
C865 N872 1.359 . S
C866 C868 1.417 . S
C866 C870 1.432 . S
C866 C878 1.410 . S
C867 C869 1.444 . S
C867 C870 1.317 . S
C867 H890 0.929 . S
C868 C865 1.432 . S
C868 C866 1.417 . S
C868 N876 1.360 . S
C869 C865 1.414 . S
C869 C867 1.444 . S
C869 C874 1.385 . S
C870 C866 1.432 . S
C870 C867 1.317 . S
C870 H882 0.930 . S
C871 C873 1.392 . S
C871 C874 1.370 . S
C871 H883 0.931 . S
N872 C865 1.359 . S
N872 C873 1.327 . S
N872 Tb875 2.600 . S
C873 C871 1.392 . S
C873 N872 1.327 . S
C873 H880 0.930 . S
C874 C869 1.385 . S
C874 C871 1.370 . S
C874 H893 0.930 . S
Tb875 N872 2.600 . S
Tb875 N876 2.660 . S
Tb875 O909 2.362 . S
Tb875 O910 2.421 . S
Tb875 O914 2.546 . S
Tb875 O915 2.610 . S
Tb875 O917 2.320 . S
Tb875 O918 2.552 . S
Tb875 O919 2.413 . S
Tb875 C939 2.833 . S
N876 C868 1.360 . S
N876 Tb875 2.660 . S
N876 C877 1.305 . S
C877 N876 1.305 . S
C877 C879 1.407 . S
C877 H884 0.930 . S
C878 C866 1.410 . S
C878 C879 1.345 . S
C878 H886 0.930 . S
C879 C877 1.407 . S
C879 C878 1.345 . S
C879 H881 0.930 . S
H880 C873 0.930 . S
H881 C879 0.930 . S
H882 C870 0.930 . S
H883 C871 0.931 . S
H884 C877 0.930 . S
H885 C899 0.930 . S
H886 C878 0.930 . S
H887 C905 0.930 . S
H888 C896 0.930 . S
H889 C903 0.931 . S
H890 C867 0.929 . S
H891 C897 0.930 . S
H892 C930 0.930 . S
H893 C874 0.930 . S
H894 C929 0.929 . S
N895 Tb864 2.660 . S
N895 C896 1.305 . S
N895 C900 1.360 . S
C896 H888 0.930 . S
C896 N895 1.305 . S
C896 C899 1.407 . S
C897 H891 0.930 . S
C897 C898 1.410 . S
C897 C899 1.345 . S
C898 C897 1.410 . S
C898 C900 1.417 . S
C898 C930 1.432 . S
C899 H885 0.930 . S
C899 C896 1.407 . S
C899 C897 1.345 . S
C900 N895 1.360 . S
C900 C898 1.417 . S
C900 C904 1.432 . S
H901 C906 0.930 . S
N902 Tb864 2.600 . S
N902 C904 1.359 . S
N902 C905 1.327 . S
C903 H889 0.931 . S
C903 C905 1.392 . S
C903 C906 1.370 . S
C904 C900 1.432 . S
C904 N902 1.359 . S
C904 C907 1.414 . S
C905 H887 0.930 . S
C905 N902 1.327 . S
C905 C903 1.392 . S
C906 H901 0.930 . S
C906 C903 1.370 . S
C906 C907 1.385 . S
C907 C904 1.414 . S
C907 C906 1.385 . S
C907 C929 1.444 . S
O908 Tb864 2.546 . S
O908 C928 1.251 . S
O909 Tb864 2.610 . S
O909 Tb875 2.362 . S
O909 C920 1.283 . S
O910 Tb875 2.421 . S
O910 C927 1.262 . S
O911 Tb864 2.320 . S
O911 C927 1.260 . S
O912 Tb864 2.552 . S
O912 C920 1.243 . S
O913 Tb864 2.413 . S
O913 C928 1.256 . S
O914 Tb875 2.546 . S
O914 C939 1.251 . S
O915 Tb864 2.362 . S
O915 Tb875 2.610 . S
O915 C931 1.283 . S
O916 Tb864 2.421 . S
O916 C938 1.262 . S
O917 Tb875 2.320 . S
O917 C938 1.260 . S
O918 Tb875 2.552 . S
O918 C931 1.243 . S
O919 Tb875 2.413 . S
O919 C939 1.256 . S
C920 O909 1.283 . S
C920 O912 1.243 . S
C921 C923 1.382 . S
C921 C925 1.393 . S
C921 C928 1.500 . S
C922 C923 1.400 . S
C922 C924 1.384 . S
C923 C921 1.382 . S
C923 C922 1.400 . S
C923 H940 0.930 . S
C924 C922 1.384 . S
C924 C926 1.392 . S
C924 H941 0.931 . S
C925 C921 1.393 . S
C925 C926 1.401 . S
C925 H942 0.930 . S
C926 C924 1.392 . S
C926 C925 1.401 . S
C926 H943 0.930 . S
C927 O910 1.262 . S
C927 O911 1.260 . S
C928 Tb864 2.833 . S
C928 O908 1.251 . S
C928 O913 1.256 . S
C928 C921 1.500 . S
C929 H894 0.929 . S
C929 C907 1.444 . S
C929 C930 1.317 . S
C930 H892 0.930 . S
C930 C898 1.432 . S
C930 C929 1.317 . S
C931 O915 1.283 . S
C931 O918 1.243 . S
C932 C933 1.382 . S
C932 C936 1.393 . S
C932 C939 1.500 . S
C933 C932 1.382 . S
C933 C934 1.400 . S
C933 H944 0.930 . S
C934 C933 1.400 . S
C934 C935 1.384 . S
C935 C934 1.384 . S
C935 C937 1.392 . S
C935 H945 0.931 . S
C936 C932 1.393 . S
C936 C937 1.401 . S
C936 H946 0.930 . S
C937 C935 1.392 . S
C937 C936 1.401 . S
C937 H947 0.930 . S
C938 O916 1.262 . S
C938 O917 1.260 . S
C939 Tb875 2.833 . S
C939 O914 1.251 . S
C939 O919 1.256 . S
C939 C932 1.500 . S
H940 C923 0.930 . S
H941 C924 0.931 . S
H942 C925 0.930 . S
H943 C926 0.930 . S
H944 C933 0.930 . S
H945 C935 0.931 . S
H946 C936 0.930 . S
H947 C937 0.930 . S
H948 C960 0.930 . S
H949 C962 0.930 . S
H950 C963 0.930 . S
H951 C967 0.959 . S
H952 C967 0.959 . S
H953 C967 0.961 . S
H954 C968 0.960 . S
H955 C968 0.961 . S
H956 C968 0.959 . S
H957 C971 0.929 . S
H958 C972 0.931 . S
H959 C974 0.930 . S
C960 H948 0.930 . S
C960 C961 1.399 . S
C960 C965 1.399 . S
C961 C960 1.399 . S
C961 C962 1.376 . S
C962 H949 0.930 . S
C962 C961 1.376 . S
C962 C963 1.388 . S
C963 H950 0.930 . S
C963 C962 1.388 . S
C963 C964 1.390 . S
C964 C963 1.390 . S
C964 C965 1.394 . S
C964 C970 1.465 . S
C965 C960 1.399 . S
C965 C964 1.394 . S
C965 C966 1.516 . S
C966 C965 1.516 . S
C966 C967 1.502 . S
C966 C968 1.561 . S
C966 C969 1.526 . S
C967 H951 0.959 . S
C967 H952 0.959 . S
C967 H953 0.961 . S
C967 C966 1.502 . S
C968 H954 0.960 . S
C968 H955 0.961 . S
C968 H956 0.959 . S
C968 C966 1.561 . S
C969 C966 1.526 . S
C969 C970 1.396 . S
C969 C974 1.390 . S
C970 C964 1.465 . S
C970 C969 1.396 . S
C970 C971 1.399 . S
C971 H957 0.929 . S
C971 C970 1.399 . S
C971 C972 1.385 . S
C972 H958 0.931 . S
C972 C971 1.385 . S
C972 C973 1.389 . S
C973 C972 1.389 . S
C973 C974 1.387 . S
C974 H959 0.930 . S
C974 C969 1.390 . S
C974 C973 1.387 . S
H975 C987 0.930 . S
H976 C989 0.930 . S
H977 C990 0.930 . S
H978 C994 0.959 . S
H979 C994 0.959 . S
H980 C994 0.961 . S
H981 C995 0.960 . S
H982 C995 0.961 . S
H983 C995 0.959 . S
H984 C998 0.929 . S
H985 C999 0.931 . S
H986 C1001 0.930 . S
C987 H975 0.930 . S
C987 C988 1.399 . S
C987 C992 1.399 . S
C988 C987 1.399 . S
C988 C989 1.376 . S
C989 H976 0.930 . S
C989 C988 1.376 . S
C989 C990 1.388 . S
C990 H977 0.930 . S
C990 C989 1.388 . S
C990 C991 1.390 . S
C991 C990 1.390 . S
C991 C992 1.394 . S
C991 C997 1.465 . S
C992 C987 1.399 . S
C992 C991 1.394 . S
C992 C993 1.516 . S
C993 C992 1.516 . S
C993 C994 1.502 . S
C993 C995 1.561 . S
C993 C996 1.526 . S
C994 H978 0.959 . S
C994 H979 0.959 . S
C994 H980 0.961 . S
C994 C993 1.502 . S
C995 H981 0.960 . S
C995 H982 0.961 . S
C995 H983 0.959 . S
C995 C993 1.561 . S
C996 C993 1.526 . S
C996 C997 1.396 . S
C996 C1001 1.390 . S
C997 C991 1.465 . S
C997 C996 1.396 . S
C997 C998 1.399 . S
C998 H984 0.929 . S
C998 C997 1.399 . S
C998 C999 1.385 . S
C999 H985 0.931 . S
C999 C998 1.385 . S
C999 C1000 1.389 . S
C1000 C999 1.389 . S
C1000 C1001 1.387 . S
C1001 H986 0.930 . S
C1001 C996 1.390 . S
C1001 C1000 1.387 . S
H1002 C1014 0.930 . S
H1003 C1016 0.930 . S
H1004 C1017 0.930 . S
H1005 C1021 0.959 . S
H1006 C1021 0.959 . S
H1007 C1021 0.961 . S
H1008 C1022 0.960 . S
H1009 C1022 0.961 . S
H1010 C1022 0.959 . S
H1011 C1025 0.929 . S
H1012 C1026 0.931 . S
H1013 C1028 0.930 . S
C1014 H1002 0.930 . S
C1014 C1015 1.399 . S
C1014 C1019 1.399 . S
C1015 C1014 1.399 . S
C1015 C1016 1.376 . S
C1016 H1003 0.930 . S
C1016 C1015 1.376 . S
C1016 C1017 1.388 . S
C1017 H1004 0.930 . S
C1017 C1016 1.388 . S
C1017 C1018 1.390 . S
C1018 C1017 1.390 . S
C1018 C1019 1.394 . S
C1018 C1024 1.465 . S
C1019 C1014 1.399 . S
C1019 C1018 1.394 . S
C1019 C1020 1.516 . S
C1020 C1019 1.516 . S
C1020 C1021 1.502 . S
C1020 C1022 1.561 . S
C1020 C1023 1.526 . S
C1021 H1005 0.959 . S
C1021 H1006 0.959 . S
C1021 H1007 0.961 . S
C1021 C1020 1.502 . S
C1022 H1008 0.960 . S
C1022 H1009 0.961 . S
C1022 H1010 0.959 . S
C1022 C1020 1.561 . S
C1023 C1020 1.526 . S
C1023 C1024 1.396 . S
C1023 C1028 1.390 . S
C1024 C1018 1.465 . S
C1024 C1023 1.396 . S
C1024 C1025 1.399 . S
C1025 H1011 0.929 . S
C1025 C1024 1.399 . S
C1025 C1026 1.385 . S
C1026 H1012 0.931 . S
C1026 C1025 1.385 . S
C1026 C1027 1.389 . S
C1027 C1026 1.389 . S
C1027 C1028 1.387 . S
C1028 H1013 0.930 . S
C1028 C1023 1.390 . S
C1028 C1027 1.387 . S
H1029 C1041 0.930 . S
H1030 C1043 0.930 . S
H1031 C1044 0.930 . S
H1032 C1048 0.959 . S
H1033 C1048 0.959 . S
H1034 C1048 0.961 . S
H1035 C1049 0.960 . S
H1036 C1049 0.961 . S
H1037 C1049 0.959 . S
H1038 C1052 0.929 . S
H1039 C1053 0.931 . S
H1040 C1055 0.930 . S
C1041 H1029 0.930 . S
C1041 C1042 1.399 . S
C1041 C1046 1.399 . S
C1042 C1041 1.399 . S
C1042 C1043 1.376 . S
C1043 H1030 0.930 . S
C1043 C1042 1.376 . S
C1043 C1044 1.388 . S
C1044 H1031 0.930 . S
C1044 C1043 1.388 . S
C1044 C1045 1.390 . S
C1045 C1044 1.390 . S
C1045 C1046 1.394 . S
C1045 C1051 1.465 . S
C1046 C1041 1.399 . S
C1046 C1045 1.394 . S
C1046 C1047 1.516 . S
C1047 C1046 1.516 . S
C1047 C1048 1.502 . S
C1047 C1049 1.561 . S
C1047 C1050 1.526 . S
C1048 H1032 0.959 . S
C1048 H1033 0.959 . S
C1048 H1034 0.961 . S
C1048 C1047 1.502 . S
C1049 H1035 0.960 . S
C1049 H1036 0.961 . S
C1049 H1037 0.959 . S
C1049 C1047 1.561 . S
C1050 C1047 1.526 . S
C1050 C1051 1.396 . S
C1050 C1055 1.390 . S
C1051 C1045 1.465 . S
C1051 C1050 1.396 . S
C1051 C1052 1.399 . S
C1052 H1038 0.929 . S
C1052 C1051 1.399 . S
C1052 C1053 1.385 . S
C1053 H1039 0.931 . S
C1053 C1052 1.385 . S
C1053 C1054 1.389 . S
C1054 C1053 1.389 . S
C1054 C1055 1.387 . S
C1055 H1040 0.930 . S
C1055 C1050 1.390 . S
C1055 C1054 1.387 . S
H1056 C1068 0.930 . S
H1057 C1070 0.930 . S
H1058 C1071 0.930 . S
H1059 C1075 0.959 . S
H1060 C1075 0.959 . S
H1061 C1075 0.961 . S
H1062 C1076 0.960 . S
H1063 C1076 0.961 . S
H1064 C1076 0.959 . S
H1065 C1079 0.929 . S
H1066 C1080 0.931 . S
H1067 C1082 0.930 . S
C1068 H1056 0.930 . S
C1068 C1069 1.399 . S
C1068 C1073 1.399 . S
C1069 C1068 1.399 . S
C1069 C1070 1.376 . S
C1070 H1057 0.930 . S
C1070 C1069 1.376 . S
C1070 C1071 1.388 . S
C1071 H1058 0.930 . S
C1071 C1070 1.388 . S
C1071 C1072 1.390 . S
C1072 C1071 1.390 . S
C1072 C1073 1.394 . S
C1072 C1078 1.465 . S
C1073 C1068 1.399 . S
C1073 C1072 1.394 . S
C1073 C1074 1.516 . S
C1074 C1073 1.516 . S
C1074 C1075 1.502 . S
C1074 C1076 1.561 . S
C1074 C1077 1.526 . S
C1075 H1059 0.959 . S
C1075 H1060 0.959 . S
C1075 H1061 0.961 . S
C1075 C1074 1.502 . S
C1076 H1062 0.960 . S
C1076 H1063 0.961 . S
C1076 H1064 0.959 . S
C1076 C1074 1.561 . S
C1077 C1074 1.526 . S
C1077 C1078 1.396 . S
C1077 C1082 1.390 . S
C1078 C1072 1.465 . S
C1078 C1077 1.396 . S
C1078 C1079 1.399 . S
C1079 H1065 0.929 . S
C1079 C1078 1.399 . S
C1079 C1080 1.385 . S
C1080 H1066 0.931 . S
C1080 C1079 1.385 . S
C1080 C1081 1.389 . S
C1081 C1080 1.389 . S
C1081 C1082 1.387 . S
C1082 H1067 0.930 . S
C1082 C1077 1.390 . S
C1082 C1081 1.387 . S
H1083 C1095 0.930 . S
H1084 C1097 0.930 . S
H1085 C1098 0.930 . S
H1086 C1102 0.959 . S
H1087 C1102 0.959 . S
H1088 C1102 0.961 . S
H1089 C1103 0.960 . S
H1090 C1103 0.961 . S
H1091 C1103 0.959 . S
H1092 C1106 0.929 . S
H1093 C1107 0.931 . S
H1094 C1109 0.930 . S
C1095 H1083 0.930 . S
C1095 C1096 1.399 . S
C1095 C1100 1.399 . S
C1096 C1095 1.399 . S
C1096 C1097 1.376 . S
C1097 H1084 0.930 . S
C1097 C1096 1.376 . S
C1097 C1098 1.388 . S
C1098 H1085 0.930 . S
C1098 C1097 1.388 . S
C1098 C1099 1.390 . S
C1099 C1098 1.390 . S
C1099 C1100 1.394 . S
C1099 C1105 1.465 . S
C1100 C1095 1.399 . S
C1100 C1099 1.394 . S
C1100 C1101 1.516 . S
C1101 C1100 1.516 . S
C1101 C1102 1.502 . S
C1101 C1103 1.561 . S
C1101 C1104 1.526 . S
C1102 H1086 0.959 . S
C1102 H1087 0.959 . S
C1102 H1088 0.961 . S
C1102 C1101 1.502 . S
C1103 H1089 0.960 . S
C1103 H1090 0.961 . S
C1103 H1091 0.959 . S
C1103 C1101 1.561 . S
C1104 C1101 1.526 . S
C1104 C1105 1.396 . S
C1104 C1109 1.390 . S
C1105 C1099 1.465 . S
C1105 C1104 1.396 . S
C1105 C1106 1.399 . S
C1106 H1092 0.929 . S
C1106 C1105 1.399 . S
C1106 C1107 1.385 . S
C1107 H1093 0.931 . S
C1107 C1106 1.385 . S
C1107 C1108 1.389 . S
C1108 C1107 1.389 . S
C1108 C1109 1.387 . S
C1109 H1094 0.930 . S
C1109 C1104 1.390 . S
C1109 C1108 1.387 . S
H1110 C1122 0.930 . S
H1111 C1124 0.930 . S
H1112 C1125 0.930 . S
H1113 C1129 0.959 . S
H1114 C1129 0.959 . S
H1115 C1129 0.961 . S
H1116 C1130 0.960 . S
H1117 C1130 0.961 . S
H1118 C1130 0.959 . S
H1119 C1133 0.929 . S
H1120 C1134 0.931 . S
H1121 C1136 0.930 . S
C1122 H1110 0.930 . S
C1122 C1123 1.399 . S
C1122 C1127 1.399 . S
C1123 C1122 1.399 . S
C1123 C1124 1.376 . S
C1124 H1111 0.930 . S
C1124 C1123 1.376 . S
C1124 C1125 1.388 . S
C1125 H1112 0.930 . S
C1125 C1124 1.388 . S
C1125 C1126 1.390 . S
C1126 C1125 1.390 . S
C1126 C1127 1.394 . S
C1126 C1132 1.465 . S
C1127 C1122 1.399 . S
C1127 C1126 1.394 . S
C1127 C1128 1.516 . S
C1128 C1127 1.516 . S
C1128 C1129 1.502 . S
C1128 C1130 1.561 . S
C1128 C1131 1.526 . S
C1129 H1113 0.959 . S
C1129 H1114 0.959 . S
C1129 H1115 0.961 . S
C1129 C1128 1.502 . S
C1130 H1116 0.960 . S
C1130 H1117 0.961 . S
C1130 H1118 0.959 . S
C1130 C1128 1.561 . S
C1131 C1128 1.526 . S
C1131 C1132 1.396 . S
C1131 C1136 1.390 . S
C1132 C1126 1.465 . S
C1132 C1131 1.396 . S
C1132 C1133 1.399 . S
C1133 H1119 0.929 . S
C1133 C1132 1.399 . S
C1133 C1134 1.385 . S
C1134 H1120 0.931 . S
C1134 C1133 1.385 . S
C1134 C1135 1.389 . S
C1135 C1134 1.389 . S
C1135 C1136 1.387 . S
C1136 H1121 0.930 . S
C1136 C1131 1.390 . S
C1136 C1135 1.387 . S
H1137 C1149 0.930 . S
H1138 C1151 0.930 1_545 S
H1139 C1152 0.930 . S
H1140 C1156 0.959 . S
H1141 C1156 0.959 . S
H1142 C1156 0.961 . S
H1143 C1157 0.960 . S
H1144 C1157 0.961 . S
H1145 C1157 0.959 . S
H1146 C1160 0.929 . S
H1147 C1161 0.931 . S
H1148 C1163 0.930 . S
C1149 H1137 0.930 . S
C1149 C1150 1.399 . S
C1149 C1154 1.399 . S
C1150 C1149 1.399 . S
C1150 C1151 1.376 . S
C1151 H1138 0.930 1_565 S
C1151 C1150 1.376 . S
C1151 C1152 1.388 . S
C1152 H1139 0.930 . S
C1152 C1151 1.388 . S
C1152 C1153 1.390 . S
C1153 C1152 1.390 . S
C1153 C1154 1.394 . S
C1153 C1159 1.465 . S
C1154 C1149 1.399 . S
C1154 C1153 1.394 . S
C1154 C1155 1.516 . S
C1155 C1154 1.516 . S
C1155 C1156 1.502 . S
C1155 C1157 1.561 . S
C1155 C1158 1.526 . S
C1156 H1140 0.959 . S
C1156 H1141 0.959 . S
C1156 H1142 0.961 . S
C1156 C1155 1.502 . S
C1157 H1143 0.960 . S
C1157 H1144 0.961 . S
C1157 H1145 0.959 . S
C1157 C1155 1.561 . S
C1158 C1155 1.526 . S
C1158 C1159 1.396 . S
C1158 C1163 1.390 . S
C1159 C1153 1.465 . S
C1159 C1158 1.396 . S
C1159 C1160 1.399 . S
C1160 H1146 0.929 . S
C1160 C1159 1.399 . S
C1160 C1161 1.385 . S
C1161 H1147 0.931 . S
C1161 C1160 1.385 . S
C1161 C1162 1.389 . S
C1162 C1161 1.389 . S
C1162 C1163 1.387 . S
C1163 H1148 0.930 . S
C1163 C1158 1.390 . S
C1163 C1162 1.387 . S
H1164 C1176 0.930 . S
H1165 C1178 0.930 . S
H1166 C1179 0.930 . S
H1167 C1183 0.959 . S
H1168 C1183 0.959 . S
H1169 C1183 0.961 . S
H1170 C1184 0.960 . S
H1171 C1184 0.961 . S
H1172 C1184 0.959 . S
H1173 C1187 0.929 . S
H1174 C1188 0.931 . S
H1175 C1190 0.930 . S
C1176 H1164 0.930 . S
C1176 C1177 1.399 . S
C1176 C1181 1.399 . S
C1177 C1176 1.399 . S
C1177 C1178 1.376 . S
C1178 H1165 0.930 . S
C1178 C1177 1.376 . S
C1178 C1179 1.388 . S
C1179 H1166 0.930 . S
C1179 C1178 1.388 . S
C1179 C1180 1.390 . S
C1180 C1179 1.390 . S
C1180 C1181 1.394 . S
C1180 C1186 1.465 . S
C1181 C1176 1.399 . S
C1181 C1180 1.394 . S
C1181 C1182 1.516 . S
C1182 C1181 1.516 . S
C1182 C1183 1.502 . S
C1182 C1184 1.561 . S
C1182 C1185 1.526 . S
C1183 H1167 0.959 . S
C1183 H1168 0.959 . S
C1183 H1169 0.961 . S
C1183 C1182 1.502 . S
C1184 H1170 0.960 . S
C1184 H1171 0.961 . S
C1184 H1172 0.959 . S
C1184 C1182 1.561 . S
C1185 C1182 1.526 . S
C1185 C1186 1.396 . S
C1185 C1190 1.390 . S
C1186 C1180 1.465 . S
C1186 C1185 1.396 . S
C1186 C1187 1.399 . S
C1187 H1173 0.929 . S
C1187 C1186 1.399 . S
C1187 C1188 1.385 . S
C1188 H1174 0.931 . S
C1188 C1187 1.385 . S
C1188 C1189 1.389 . S
C1189 C1188 1.389 . S
C1189 C1190 1.387 . S
C1190 H1175 0.930 . S
C1190 C1185 1.390 . S
C1190 C1189 1.387 . S
H1191 C1203 0.930 . S
H1192 C1205 0.930 . S
H1193 C1206 0.930 . S
H1194 C1210 0.959 . S
H1195 C1210 0.959 . S
H1196 C1210 0.961 . S
H1197 C1211 0.960 . S
H1198 C1211 0.961 . S
H1199 C1211 0.959 . S
H1200 C1214 0.929 . S
H1201 C1215 0.931 . S
H1202 C1217 0.930 . S
C1203 H1191 0.930 . S
C1203 C1204 1.399 . S
C1203 C1208 1.399 . S
C1204 C1203 1.399 . S
C1204 C1205 1.376 . S
C1205 H1192 0.930 . S
C1205 C1204 1.376 . S
C1205 C1206 1.388 . S
C1206 H1193 0.930 . S
C1206 C1205 1.388 . S
C1206 C1207 1.390 . S
C1207 C1206 1.390 . S
C1207 C1208 1.394 . S
C1207 C1213 1.465 . S
C1208 C1203 1.399 . S
C1208 C1207 1.394 . S
C1208 C1209 1.516 . S
C1209 C1208 1.516 . S
C1209 C1210 1.502 . S
C1209 C1211 1.561 . S
C1209 C1212 1.526 . S
C1210 H1194 0.959 . S
C1210 H1195 0.959 . S
C1210 H1196 0.961 . S
C1210 C1209 1.502 . S
C1211 H1197 0.960 . S
C1211 H1198 0.961 . S
C1211 H1199 0.959 . S
C1211 C1209 1.561 . S
C1212 C1209 1.526 . S
C1212 C1213 1.396 . S
C1212 C1217 1.390 . S
C1213 C1207 1.465 . S
C1213 C1212 1.396 . S
C1213 C1214 1.399 . S
C1214 H1200 0.929 . S
C1214 C1213 1.399 . S
C1214 C1215 1.385 . S
C1215 H1201 0.931 . S
C1215 C1214 1.385 . S
C1215 C1216 1.389 . S
C1216 C1215 1.389 . S
C1216 C1217 1.387 . S
C1217 H1202 0.930 . S
C1217 C1212 1.390 . S
C1217 C1216 1.387 . S
H1218 C1230 0.930 . S
H1219 C1232 0.930 . S
H1220 C1233 0.930 . S
H1221 C1237 0.959 . S
H1222 C1237 0.959 . S
H1223 C1237 0.961 . S
H1224 C1238 0.960 . S
H1225 C1238 0.961 . S
H1226 C1238 0.959 . S
H1227 C1241 0.929 . S
H1228 C1242 0.931 . S
H1229 C1244 0.930 . S
C1230 H1218 0.930 . S
C1230 C1231 1.399 . S
C1230 C1235 1.399 . S
C1231 C1230 1.399 . S
C1231 C1232 1.376 . S
C1232 H1219 0.930 . S
C1232 C1231 1.376 . S
C1232 C1233 1.388 . S
C1233 H1220 0.930 . S
C1233 C1232 1.388 . S
C1233 C1234 1.390 . S
C1234 C1233 1.390 . S
C1234 C1235 1.394 . S
C1234 C1240 1.465 . S
C1235 C1230 1.399 . S
C1235 C1234 1.394 . S
C1235 C1236 1.516 . S
C1236 C1235 1.516 . S
C1236 C1237 1.502 . S
C1236 C1238 1.561 . S
C1236 C1239 1.526 . S
C1237 H1221 0.959 . S
C1237 H1222 0.959 . S
C1237 H1223 0.961 . S
C1237 C1236 1.502 . S
C1238 H1224 0.960 . S
C1238 H1225 0.961 . S
C1238 H1226 0.959 . S
C1238 C1236 1.561 . S
C1239 C1236 1.526 . S
C1239 C1240 1.396 . S
C1239 C1244 1.390 . S
C1240 C1234 1.465 . S
C1240 C1239 1.396 . S
C1240 C1241 1.399 . S
C1241 H1227 0.929 . S
C1241 C1240 1.399 . S
C1241 C1242 1.385 . S
C1242 H1228 0.931 . S
C1242 C1241 1.385 . S
C1242 C1243 1.389 . S
C1243 C1242 1.389 . S
C1243 C1244 1.387 . S
C1244 H1229 0.930 . S
C1244 C1239 1.390 . S
C1244 C1243 1.387 . S
H1245 C1257 0.930 . S
H1246 C1259 0.930 . S
H1247 C1260 0.930 . S
H1248 C1264 0.959 . S
H1249 C1264 0.959 . S
H1250 C1264 0.961 . S
H1251 C1265 0.960 . S
H1252 C1265 0.961 . S
H1253 C1265 0.959 . S
H1254 C1268 0.929 . S
H1255 C1269 0.931 . S
H1256 C1271 0.930 . S
C1257 H1245 0.930 . S
C1257 C1258 1.399 . S
C1257 C1262 1.399 . S
C1258 C1257 1.399 . S
C1258 C1259 1.376 . S
C1259 H1246 0.930 . S
C1259 C1258 1.376 . S
C1259 C1260 1.388 . S
C1260 H1247 0.930 . S
C1260 C1259 1.388 . S
C1260 C1261 1.390 . S
C1261 C1260 1.390 . S
C1261 C1262 1.394 . S
C1261 C1267 1.465 . S
C1262 C1257 1.399 . S
C1262 C1261 1.394 . S
C1262 C1263 1.516 . S
C1263 C1262 1.516 . S
C1263 C1264 1.502 . S
C1263 C1265 1.561 . S
C1263 C1266 1.526 . S
C1264 H1248 0.959 . S
C1264 H1249 0.959 . S
C1264 H1250 0.961 . S
C1264 C1263 1.502 . S
C1265 H1251 0.960 . S
C1265 H1252 0.961 . S
C1265 H1253 0.959 . S
C1265 C1263 1.561 . S
C1266 C1263 1.526 . S
C1266 C1267 1.396 . S
C1266 C1271 1.390 . S
C1267 C1261 1.465 . S
C1267 C1266 1.396 . S
C1267 C1268 1.399 . S
C1268 H1254 0.929 . S
C1268 C1267 1.399 . S
C1268 C1269 1.385 . S
C1269 H1255 0.931 . S
C1269 C1268 1.385 . S
C1269 C1270 1.389 . S
C1270 C1269 1.389 . S
C1270 C1271 1.387 . S
C1271 H1256 0.930 . S
C1271 C1266 1.390 . S
C1271 C1270 1.387 . S
H1272 C1284 0.930 . S
H1273 C1286 0.930 . S
H1274 C1287 0.930 . S
H1275 C1291 0.959 1_556 S
H1276 C1291 0.959 . S
H1277 C1291 0.961 . S
H1278 C1292 0.960 . S
H1279 C1292 0.961 . S
H1280 C1292 0.959 . S
H1281 C1295 0.929 . S
H1282 C1296 0.931 . S
H1283 C1298 0.930 . S
C1284 H1272 0.930 . S
C1284 C1285 1.399 1_565 S
C1284 C1289 1.399 . S
C1285 C1284 1.399 1_545 S
C1285 C1286 1.376 1_554 S
C1286 H1273 0.930 . S
C1286 C1285 1.376 1_556 S
C1286 C1287 1.388 . S
C1287 H1274 0.930 . S
C1287 C1286 1.388 . S
C1287 C1288 1.390 1_545 S
C1288 C1287 1.390 1_565 S
C1288 C1289 1.394 1_556 S
C1288 C1294 1.465 . S
C1289 C1284 1.399 . S
C1289 C1288 1.394 1_554 S
C1289 C1290 1.516 . S
C1290 C1289 1.516 . S
C1290 C1291 1.502 . S
C1290 C1292 1.561 . S
C1290 C1293 1.526 1_554 S
C1291 H1275 0.959 1_554 S
C1291 H1276 0.959 . S
C1291 H1277 0.961 . S
C1291 C1290 1.502 . S
C1292 H1278 0.960 . S
C1292 H1279 0.961 . S
C1292 H1280 0.959 . S
C1292 C1290 1.561 . S
C1293 C1290 1.526 1_556 S
C1293 C1294 1.396 . S
C1293 C1298 1.390 . S
C1294 C1288 1.465 . S
C1294 C1293 1.396 . S
C1294 C1295 1.399 . S
C1295 H1281 0.929 . S
C1295 C1294 1.399 . S
C1295 C1296 1.385 . S
C1296 H1282 0.931 . S
C1296 C1295 1.385 . S
C1296 C1297 1.389 . S
C1297 C1296 1.389 . S
C1297 C1298 1.387 . S
C1298 H1283 0.930 . S
C1298 C1293 1.390 . S
C1298 C1297 1.387 . S
H1299 C1311 0.930 . S
H1300 C1313 0.930 . S
H1301 C1314 0.930 . S
H1302 C1318 0.959 . S
H1303 C1318 0.959 . S
H1304 C1318 0.961 . S
H1305 C1319 0.960 . S
H1306 C1319 0.961 . S
H1307 C1319 0.959 . S
H1308 C1322 0.929 . S
H1309 C1323 0.931 . S
H1310 C1325 0.930 . S
C1311 H1299 0.930 . S
C1311 C1312 1.399 . S
C1311 C1316 1.399 . S
C1312 C1311 1.399 . S
C1312 C1313 1.376 . S
C1313 H1300 0.930 . S
C1313 C1312 1.376 . S
C1313 C1314 1.388 . S
C1314 H1301 0.930 . S
C1314 C1313 1.388 . S
C1314 C1315 1.390 . S
C1315 C1314 1.390 . S
C1315 C1316 1.394 . S
C1315 C1321 1.465 . S
C1316 C1311 1.399 . S
C1316 C1315 1.394 . S
C1316 C1317 1.516 . S
C1317 C1316 1.516 . S
C1317 C1318 1.502 . S
C1317 C1319 1.561 . S
C1317 C1320 1.526 . S
C1318 H1302 0.959 . S
C1318 H1303 0.959 . S
C1318 H1304 0.961 . S
C1318 C1317 1.502 . S
C1319 H1305 0.960 . S
C1319 H1306 0.961 . S
C1319 H1307 0.959 . S
C1319 C1317 1.561 . S
C1320 C1317 1.526 . S
C1320 C1321 1.396 . S
C1320 C1325 1.390 . S
C1321 C1315 1.465 . S
C1321 C1320 1.396 . S
C1321 C1322 1.399 . S
C1322 H1308 0.929 . S
C1322 C1321 1.399 . S
C1322 C1323 1.385 . S
C1323 H1309 0.931 . S
C1323 C1322 1.385 . S
C1323 C1324 1.389 . S
C1324 C1323 1.389 . S
C1324 C1325 1.387 . S
C1325 H1310 0.930 . S
C1325 C1320 1.390 . S
C1325 C1324 1.387 . S
H1326 C1338 0.930 . S
H1327 C1340 0.930 . S
H1328 C1341 0.930 . S
H1329 C1345 0.959 . S
H1330 C1345 0.959 . S
H1331 C1345 0.961 . S
H1332 C1346 0.960 . S
H1333 C1346 0.961 . S
H1334 C1346 0.959 . S
H1335 C1349 0.929 . S
H1336 C1350 0.931 . S
H1337 C1352 0.930 . S
C1338 H1326 0.930 . S
C1338 C1339 1.399 . S
C1338 C1343 1.399 . S
C1339 C1338 1.399 . S
C1339 C1340 1.376 . S
C1340 H1327 0.930 . S
C1340 C1339 1.376 . S
C1340 C1341 1.388 . S
C1341 H1328 0.930 . S
C1341 C1340 1.388 . S
C1341 C1342 1.390 . S
C1342 C1341 1.390 . S
C1342 C1343 1.394 . S
C1342 C1348 1.465 . S
C1343 C1338 1.399 . S
C1343 C1342 1.394 . S
C1343 C1344 1.516 . S
C1344 C1343 1.516 . S
C1344 C1345 1.502 . S
C1344 C1346 1.561 . S
C1344 C1347 1.526 . S
C1345 H1329 0.959 . S
C1345 H1330 0.959 . S
C1345 H1331 0.961 . S
C1345 C1344 1.502 . S
C1346 H1332 0.960 . S
C1346 H1333 0.961 . S
C1346 H1334 0.959 . S
C1346 C1344 1.561 . S
C1347 C1344 1.526 . S
C1347 C1348 1.396 . S
C1347 C1352 1.390 . S
C1348 C1342 1.465 . S
C1348 C1347 1.396 . S
C1348 C1349 1.399 . S
C1349 H1335 0.929 . S
C1349 C1348 1.399 . S
C1349 C1350 1.385 . S
C1350 H1336 0.931 . S
C1350 C1349 1.385 . S
C1350 C1351 1.389 . S
C1351 C1350 1.389 . S
C1351 C1352 1.387 . S
C1352 H1337 0.930 . S
C1352 C1347 1.390 . S
C1352 C1351 1.387 . S
H1353 C1365 0.930 . S
H1354 C1367 0.930 . S
H1355 C1368 0.930 . S
H1356 C1372 0.959 . S
H1357 C1372 0.959 . S
H1358 C1372 0.961 . S
H1359 C1373 0.960 . S
H1360 C1373 0.961 . S
H1361 C1373 0.959 . S
H1362 C1376 0.929 . S
H1363 C1377 0.931 . S
H1364 C1379 0.930 . S
C1365 H1353 0.930 . S
C1365 C1366 1.399 . S
C1365 C1370 1.399 . S
C1366 C1365 1.399 . S
C1366 C1367 1.376 . S
C1367 H1354 0.930 . S
C1367 C1366 1.376 . S
C1367 C1368 1.388 . S
C1368 H1355 0.930 . S
C1368 C1367 1.388 . S
C1368 C1369 1.390 . S
C1369 C1368 1.390 . S
C1369 C1370 1.394 . S
C1369 C1375 1.465 . S
C1370 C1365 1.399 . S
C1370 C1369 1.394 . S
C1370 C1371 1.516 . S
C1371 C1370 1.516 . S
C1371 C1372 1.502 . S
C1371 C1373 1.561 . S
C1371 C1374 1.526 . S
C1372 H1356 0.959 . S
C1372 H1357 0.959 . S
C1372 H1358 0.961 . S
C1372 C1371 1.502 . S
C1373 H1359 0.960 . S
C1373 H1360 0.961 . S
C1373 H1361 0.959 . S
C1373 C1371 1.561 . S
C1374 C1371 1.526 . S
C1374 C1375 1.396 . S
C1374 C1379 1.390 . S
C1375 C1369 1.465 . S
C1375 C1374 1.396 . S
C1375 C1376 1.399 . S
C1376 H1362 0.929 . S
C1376 C1375 1.399 . S
C1376 C1377 1.385 . S
C1377 H1363 0.931 . S
C1377 C1376 1.385 . S
C1377 C1378 1.389 . S
C1378 C1377 1.389 . S
C1378 C1379 1.387 . S
C1379 H1364 0.930 . S
C1379 C1374 1.390 . S
C1379 C1378 1.387 . S
H1380 C1392 0.930 . S
H1381 C1394 0.930 . S
H1382 C1395 0.930 . S
H1383 C1399 0.959 . S
H1384 C1399 0.959 . S
H1385 C1399 0.961 . S
H1386 C1400 0.960 . S
H1387 C1400 0.961 . S
H1388 C1400 0.959 . S
H1389 C1403 0.929 . S
H1390 C1404 0.931 . S
H1391 C1406 0.930 . S
C1392 H1380 0.930 . S
C1392 C1393 1.399 . S
C1392 C1397 1.399 . S
C1393 C1392 1.399 . S
C1393 C1394 1.376 . S
C1394 H1381 0.930 . S
C1394 C1393 1.376 . S
C1394 C1395 1.388 . S
C1395 H1382 0.930 . S
C1395 C1394 1.388 . S
C1395 C1396 1.390 . S
C1396 C1395 1.390 . S
C1396 C1397 1.394 . S
C1396 C1402 1.465 . S
C1397 C1392 1.399 . S
C1397 C1396 1.394 . S
C1397 C1398 1.516 . S
C1398 C1397 1.516 . S
C1398 C1399 1.502 . S
C1398 C1400 1.561 . S
C1398 C1401 1.526 . S
C1399 H1383 0.959 . S
C1399 H1384 0.959 . S
C1399 H1385 0.961 . S
C1399 C1398 1.502 . S
C1400 H1386 0.960 . S
C1400 H1387 0.961 . S
C1400 H1388 0.959 . S
C1400 C1398 1.561 . S
C1401 C1398 1.526 . S
C1401 C1402 1.396 . S
C1401 C1406 1.390 . S
C1402 C1396 1.465 . S
C1402 C1401 1.396 . S
C1402 C1403 1.399 . S
C1403 H1389 0.929 . S
C1403 C1402 1.399 . S
C1403 C1404 1.385 . S
C1404 H1390 0.931 . S
C1404 C1403 1.385 . S
C1404 C1405 1.389 . S
C1405 C1404 1.389 . S
C1405 C1406 1.387 . S
C1406 H1391 0.930 . S
C1406 C1401 1.390 . S
C1406 C1405 1.387 . S
H1407 C1419 0.930 . S
H1408 C1421 0.930 . S
H1409 C1422 0.930 . S
H1410 C1426 0.959 . S
H1411 C1426 0.959 . S
H1412 C1426 0.961 . S
H1413 C1427 0.960 . S
H1414 C1427 0.961 . S
H1415 C1427 0.959 . S
H1416 C1430 0.929 . S
H1417 C1431 0.931 . S
H1418 C1433 0.930 . S
C1419 H1407 0.930 . S
C1419 C1420 1.399 . S
C1419 C1424 1.399 . S
C1420 C1419 1.399 . S
C1420 C1421 1.376 . S
C1421 H1408 0.930 . S
C1421 C1420 1.376 . S
C1421 C1422 1.388 . S
C1422 H1409 0.930 . S
C1422 C1421 1.388 . S
C1422 C1423 1.390 . S
C1423 C1422 1.390 . S
C1423 C1424 1.394 . S
C1423 C1429 1.465 . S
C1424 C1419 1.399 . S
C1424 C1423 1.394 . S
C1424 C1425 1.516 . S
C1425 C1424 1.516 . S
C1425 C1426 1.502 . S
C1425 C1427 1.561 . S
C1425 C1428 1.526 . S
C1426 H1410 0.959 . S
C1426 H1411 0.959 . S
C1426 H1412 0.961 . S
C1426 C1425 1.502 . S
C1427 H1413 0.960 . S
C1427 H1414 0.961 . S
C1427 H1415 0.959 . S
C1427 C1425 1.561 . S
C1428 C1425 1.526 . S
C1428 C1429 1.396 . S
C1428 C1433 1.390 . S
C1429 C1423 1.465 . S
C1429 C1428 1.396 . S
C1429 C1430 1.399 . S
C1430 H1416 0.929 . S
C1430 C1429 1.399 . S
C1430 C1431 1.385 . S
C1431 H1417 0.931 . S
C1431 C1430 1.385 . S
C1431 C1432 1.389 . S
C1432 C1431 1.389 . S
C1432 C1433 1.387 . S
C1433 H1418 0.930 . S
C1433 C1428 1.390 . S
C1433 C1432 1.387 . S
H1434 C1446 0.930 . S
H1435 C1448 0.930 . S
H1436 C1449 0.930 . S
H1437 C1453 0.959 . S
H1438 C1453 0.959 . S
H1439 C1453 0.961 . S
H1440 C1454 0.960 . S
H1441 C1454 0.961 . S
H1442 C1454 0.959 . S
H1443 C1457 0.929 . S
H1444 C1458 0.931 . S
H1445 C1460 0.930 . S
C1446 H1434 0.930 . S
C1446 C1447 1.399 1_556 S
C1446 C1451 1.399 . S
C1447 C1446 1.399 1_554 S
C1447 C1448 1.376 . S
C1448 H1435 0.930 . S
C1448 C1447 1.376 . S
C1448 C1449 1.388 1_554 S
C1449 H1436 0.930 . S
C1449 C1448 1.388 1_556 S
C1449 C1450 1.390 . S
C1450 C1449 1.390 . S
C1450 C1451 1.394 . S
C1450 C1456 1.465 . S
C1451 C1446 1.399 . S
C1451 C1450 1.394 . S
C1451 C1452 1.516 . S
C1452 C1451 1.516 . S
C1452 C1453 1.502 . S
C1452 C1454 1.561 . S
C1452 C1455 1.526 . S
C1453 H1437 0.959 . S
C1453 H1438 0.959 . S
C1453 H1439 0.961 . S
C1453 C1452 1.502 . S
C1454 H1440 0.960 . S
C1454 H1441 0.961 . S
C1454 H1442 0.959 . S
C1454 C1452 1.561 . S
C1455 C1452 1.526 . S
C1455 C1456 1.396 . S
C1455 C1460 1.390 . S
C1456 C1450 1.465 . S
C1456 C1455 1.396 . S
C1456 C1457 1.399 . S
C1457 H1443 0.929 . S
C1457 C1456 1.399 . S
C1457 C1458 1.385 . S
C1458 H1444 0.931 . S
C1458 C1457 1.385 . S
C1458 C1459 1.389 . S
C1459 C1458 1.389 . S
C1459 C1460 1.387 . S
C1460 H1445 0.930 . S
C1460 C1455 1.390 . S
C1460 C1459 1.387 . S
H1461 C1473 0.930 . S
H1462 C1475 0.930 . S
H1463 C1476 0.930 . S
H1464 C1480 0.959 . S
H1465 C1480 0.959 . S
H1466 C1480 0.961 . S
H1467 C1481 0.960 . S
H1468 C1481 0.961 . S
H1469 C1481 0.959 . S
H1470 C1484 0.929 . S
H1471 C1485 0.931 . S
H1472 C1487 0.930 . S
C1473 H1461 0.930 . S
C1473 C1474 1.399 . S
C1473 C1478 1.399 1_554 S
C1474 C1473 1.399 . S
C1474 C1475 1.376 . S
C1475 H1462 0.930 . S
C1475 C1474 1.376 . S
C1475 C1476 1.388 1_554 S
C1476 H1463 0.930 . S
C1476 C1475 1.388 1_556 S
C1476 C1477 1.390 . S
C1477 C1476 1.390 . S
C1477 C1478 1.394 . S
C1477 C1483 1.465 . S
C1478 C1473 1.399 1_556 S
C1478 C1477 1.394 . S
C1478 C1479 1.516 . S
C1479 C1478 1.516 . S
C1479 C1480 1.502 . S
C1479 C1481 1.561 1_556 S
C1479 C1482 1.526 . S
C1480 H1464 0.959 . S
C1480 H1465 0.959 . S
C1480 H1466 0.961 . S
C1480 C1479 1.502 . S
C1481 H1467 0.960 . S
C1481 H1468 0.961 . S
C1481 H1469 0.959 . S
C1481 C1479 1.561 1_554 S
C1482 C1479 1.526 . S
C1482 C1483 1.396 . S
C1482 C1487 1.390 . S
C1483 C1477 1.465 . S
C1483 C1482 1.396 . S
C1483 C1484 1.399 . S
C1484 H1470 0.929 . S
C1484 C1483 1.399 . S
C1484 C1485 1.385 . S
C1485 H1471 0.931 . S
C1485 C1484 1.385 . S
C1485 C1486 1.389 . S
C1486 C1485 1.389 . S
C1486 C1487 1.387 . S
C1487 H1472 0.930 . S
C1487 C1482 1.390 . S
C1487 C1486 1.387 . S
H1488 C1500 0.930 . S
H1489 C1502 0.930 . S
H1490 C1503 0.930 . S
H1491 C1507 0.959 . S
H1492 C1507 0.959 . S
H1493 C1507 0.961 . S
H1494 C1508 0.960 . S
H1495 C1508 0.961 . S
H1496 C1508 0.959 . S
H1497 C1511 0.929 . S
H1498 C1512 0.931 . S
H1499 C1514 0.930 . S
C1500 H1488 0.930 . S
C1500 C1501 1.399 . S
C1500 C1505 1.399 . S
C1501 C1500 1.399 . S
C1501 C1502 1.376 . S
C1502 H1489 0.930 . S
C1502 C1501 1.376 . S
C1502 C1503 1.388 . S
C1503 H1490 0.930 . S
C1503 C1502 1.388 . S
C1503 C1504 1.390 . S
C1504 C1503 1.390 . S
C1504 C1505 1.394 . S
C1504 C1510 1.465 . S
C1505 C1500 1.399 . S
C1505 C1504 1.394 . S
C1505 C1506 1.516 . S
C1506 C1505 1.516 . S
C1506 C1507 1.502 . S
C1506 C1508 1.561 . S
C1506 C1509 1.526 . S
C1507 H1491 0.959 . S
C1507 H1492 0.959 . S
C1507 H1493 0.961 . S
C1507 C1506 1.502 . S
C1508 H1494 0.960 . S
C1508 H1495 0.961 . S
C1508 H1496 0.959 . S
C1508 C1506 1.561 . S
C1509 C1506 1.526 . S
C1509 C1510 1.396 . S
C1509 C1514 1.390 . S
C1510 C1504 1.465 . S
C1510 C1509 1.396 . S
C1510 C1511 1.399 . S
C1511 H1497 0.929 . S
C1511 C1510 1.399 . S
C1511 C1512 1.385 . S
C1512 H1498 0.931 . S
C1512 C1511 1.385 . S
C1512 C1513 1.389 . S
C1513 C1512 1.389 . S
C1513 C1514 1.387 . S
C1514 H1499 0.930 . S
C1514 C1509 1.390 . S
C1514 C1513 1.387 . S
H1515 C1527 0.930 . S
H1516 C1529 0.930 . S
H1517 C1530 0.930 . S
H1518 C1534 0.959 . S
H1519 C1534 0.959 . S
H1520 C1534 0.961 . S
H1521 C1535 0.960 . S
H1522 C1535 0.961 . S
H1523 C1535 0.959 . S
H1524 C1538 0.929 . S
H1525 C1539 0.931 . S
H1526 C1541 0.930 . S
C1527 H1515 0.930 . S
C1527 C1528 1.399 . S
C1527 C1532 1.399 . S
C1528 C1527 1.399 . S
C1528 C1529 1.376 . S
C1529 H1516 0.930 . S
C1529 C1528 1.376 . S
C1529 C1530 1.388 . S
C1530 H1517 0.930 . S
C1530 C1529 1.388 . S
C1530 C1531 1.390 . S
C1531 C1530 1.390 . S
C1531 C1532 1.394 . S
C1531 C1537 1.465 . S
C1532 C1527 1.399 . S
C1532 C1531 1.394 . S
C1532 C1533 1.516 . S
C1533 C1532 1.516 . S
C1533 C1534 1.502 . S
C1533 C1535 1.561 . S
C1533 C1536 1.526 . S
C1534 H1518 0.959 . S
C1534 H1519 0.959 . S
C1534 H1520 0.961 . S
C1534 C1533 1.502 . S
C1535 H1521 0.960 . S
C1535 H1522 0.961 . S
C1535 H1523 0.959 . S
C1535 C1533 1.561 . S
C1536 C1533 1.526 . S
C1536 C1537 1.396 . S
C1536 C1541 1.390 . S
C1537 C1531 1.465 . S
C1537 C1536 1.396 . S
C1537 C1538 1.399 . S
C1538 H1524 0.929 . S
C1538 C1537 1.399 . S
C1538 C1539 1.385 . S
C1539 H1525 0.931 . S
C1539 C1538 1.385 . S
C1539 C1540 1.389 . S
C1540 C1539 1.389 . S
C1540 C1541 1.387 . S
C1541 H1526 0.930 . S
C1541 C1536 1.390 . S
C1541 C1540 1.387 . S
H1542 C1554 0.930 . S
H1543 C1556 0.930 . S
H1544 C1557 0.930 . S
H1545 C1561 0.959 . S
H1546 C1561 0.959 . S
H1547 C1561 0.961 . S
H1548 C1562 0.960 . S
H1549 C1562 0.961 . S
H1550 C1562 0.959 . S
H1551 C1565 0.929 . S
H1552 C1566 0.931 . S
H1553 C1568 0.930 . S
C1554 H1542 0.930 . S
C1554 C1555 1.399 1_565 S
C1554 C1559 1.399 . S
C1555 C1554 1.399 1_545 S
C1555 C1556 1.376 . S
C1556 H1543 0.930 . S
C1556 C1555 1.376 . S
C1556 C1557 1.388 1_545 S
C1557 H1544 0.930 . S
C1557 C1556 1.388 1_565 S
C1557 C1558 1.390 . S
C1558 C1557 1.390 . S
C1558 C1559 1.394 . S
C1558 C1564 1.465 . S
C1559 C1554 1.399 . S
C1559 C1558 1.394 . S
C1559 C1560 1.516 . S
C1560 C1559 1.516 . S
C1560 C1561 1.502 . S
C1560 C1562 1.561 . S
C1560 C1563 1.526 . S
C1561 H1545 0.959 . S
C1561 H1546 0.959 . S
C1561 H1547 0.961 . S
C1561 C1560 1.502 . S
C1562 H1548 0.960 . S
C1562 H1549 0.961 . S
C1562 H1550 0.959 . S
C1562 C1560 1.561 . S
C1563 C1560 1.526 . S
C1563 C1564 1.396 . S
C1563 C1568 1.390 . S
C1564 C1558 1.465 . S
C1564 C1563 1.396 . S
C1564 C1565 1.399 . S
C1565 H1551 0.929 . S
C1565 C1564 1.399 . S
C1565 C1566 1.385 . S
C1566 H1552 0.931 . S
C1566 C1565 1.385 . S
C1566 C1567 1.389 . S
C1567 C1566 1.389 . S
C1567 C1568 1.387 . S
C1568 H1553 0.930 . S
C1568 C1563 1.390 . S
C1568 C1567 1.387 . S
H1569 C1581 0.930 . S
H1570 C1583 0.930 . S
H1571 C1584 0.930 . S
H1572 C1588 0.959 . S
H1573 C1588 0.959 . S
H1574 C1588 0.961 . S
H1575 C1589 0.960 . S
H1576 C1589 0.961 . S
H1577 C1589 0.959 . S
H1578 C1592 0.929 . S
H1579 C1593 0.931 . S
H1580 C1595 0.930 . S
C1581 H1569 0.930 . S
C1581 C1582 1.399 . S
C1581 C1586 1.399 . S
C1582 C1581 1.399 . S
C1582 C1583 1.376 . S
C1583 H1570 0.930 . S
C1583 C1582 1.376 . S
C1583 C1584 1.388 . S
C1584 H1571 0.930 . S
C1584 C1583 1.388 . S
C1584 C1585 1.390 . S
C1585 C1584 1.390 . S
C1585 C1586 1.394 . S
C1585 C1591 1.465 . S
C1586 C1581 1.399 . S
C1586 C1585 1.394 . S
C1586 C1587 1.516 . S
C1587 C1586 1.516 . S
C1587 C1588 1.502 . S
C1587 C1589 1.561 . S
C1587 C1590 1.526 . S
C1588 H1572 0.959 . S
C1588 H1573 0.959 . S
C1588 H1574 0.961 . S
C1588 C1587 1.502 . S
C1589 H1575 0.960 . S
C1589 H1576 0.961 . S
C1589 H1577 0.959 . S
C1589 C1587 1.561 . S
C1590 C1587 1.526 . S
C1590 C1591 1.396 . S
C1590 C1595 1.390 . S
C1591 C1585 1.465 . S
C1591 C1590 1.396 . S
C1591 C1592 1.399 . S
C1592 H1578 0.929 . S
C1592 C1591 1.399 . S
C1592 C1593 1.385 . S
C1593 H1579 0.931 . S
C1593 C1592 1.385 . S
C1593 C1594 1.389 . S
C1594 C1593 1.389 . S
C1594 C1595 1.387 . S
C1595 H1580 0.930 . S
C1595 C1590 1.390 . S
C1595 C1594 1.387 . S
H1596 C1608 0.930 . S
H1597 C1610 0.930 . S
H1598 C1611 0.930 . S
H1599 C1615 0.959 . S
H1600 C1615 0.959 . S
H1601 C1615 0.961 . S
H1602 C1616 0.960 . S
H1603 C1616 0.961 . S
H1604 C1616 0.959 . S
H1605 C1619 0.929 . S
H1606 C1620 0.931 . S
H1607 C1622 0.930 . S
C1608 H1596 0.930 . S
C1608 C1609 1.399 . S
C1608 C1613 1.399 . S
C1609 C1608 1.399 . S
C1609 C1610 1.376 . S
C1610 H1597 0.930 . S
C1610 C1609 1.376 . S
C1610 C1611 1.388 . S
C1611 H1598 0.930 . S
C1611 C1610 1.388 . S
C1611 C1612 1.390 . S
C1612 C1611 1.390 . S
C1612 C1613 1.394 . S
C1612 C1618 1.465 . S
C1613 C1608 1.399 . S
C1613 C1612 1.394 . S
C1613 C1614 1.516 . S
C1614 C1613 1.516 . S
C1614 C1615 1.502 . S
C1614 C1616 1.561 . S
C1614 C1617 1.526 . S
C1615 H1599 0.959 . S
C1615 H1600 0.959 . S
C1615 H1601 0.961 . S
C1615 C1614 1.502 . S
C1616 H1602 0.960 . S
C1616 H1603 0.961 . S
C1616 H1604 0.959 . S
C1616 C1614 1.561 . S
C1617 C1614 1.526 . S
C1617 C1618 1.396 . S
C1617 C1622 1.390 . S
C1618 C1612 1.465 . S
C1618 C1617 1.396 . S
C1618 C1619 1.399 . S
C1619 H1605 0.929 . S
C1619 C1618 1.399 . S
C1619 C1620 1.385 . S
C1620 H1606 0.931 . S
C1620 C1619 1.385 . S
C1620 C1621 1.389 . S
C1621 C1620 1.389 . S
C1621 C1622 1.387 . S
C1622 H1607 0.930 . S
C1622 C1617 1.390 . S
C1622 C1621 1.387 . S
H1623 C1635 0.930 . S
H1624 C1637 0.930 . S
H1625 C1638 0.930 . S
H1626 C1642 0.959 . S
H1627 C1642 0.959 . S
H1628 C1642 0.961 . S
H1629 C1643 0.960 . S
H1630 C1643 0.961 . S
H1631 C1643 0.959 . S
H1632 C1646 0.929 . S
H1633 C1647 0.931 . S
H1634 C1649 0.930 . S
C1635 H1623 0.930 . S
C1635 C1636 1.399 . S
C1635 C1640 1.399 . S
C1636 C1635 1.399 . S
C1636 C1637 1.376 . S
C1637 H1624 0.930 . S
C1637 C1636 1.376 . S
C1637 C1638 1.388 . S
C1638 H1625 0.930 . S
C1638 C1637 1.388 . S
C1638 C1639 1.390 . S
C1639 C1638 1.390 . S
C1639 C1640 1.394 . S
C1639 C1645 1.465 . S
C1640 C1635 1.399 . S
C1640 C1639 1.394 . S
C1640 C1641 1.516 . S
C1641 C1640 1.516 . S
C1641 C1642 1.502 . S
C1641 C1643 1.561 . S
C1641 C1644 1.526 . S
C1642 H1626 0.959 . S
C1642 H1627 0.959 . S
C1642 H1628 0.961 . S
C1642 C1641 1.502 . S
C1643 H1629 0.960 . S
C1643 H1630 0.961 . S
C1643 H1631 0.959 . S
C1643 C1641 1.561 . S
C1644 C1641 1.526 . S
C1644 C1645 1.396 . S
C1644 C1649 1.390 . S
C1645 C1639 1.465 . S
C1645 C1644 1.396 . S
C1645 C1646 1.399 . S
C1646 H1632 0.929 . S
C1646 C1645 1.399 . S
C1646 C1647 1.385 . S
C1647 H1633 0.931 . S
C1647 C1646 1.385 . S
C1647 C1648 1.389 . S
C1648 C1647 1.389 . S
C1648 C1649 1.387 . S
C1649 H1634 0.930 . S
C1649 C1644 1.390 . S
C1649 C1648 1.387 . S
H1650 C1662 0.930 . S
H1651 C1664 0.930 . S
H1652 C1665 0.930 . S
H1653 C1669 0.959 . S
H1654 C1669 0.959 . S
H1655 C1669 0.961 . S
H1656 C1670 0.960 . S
H1657 C1670 0.961 . S
H1658 C1670 0.959 . S
H1659 C1673 0.929 . S
H1660 C1674 0.931 . S
H1661 C1676 0.930 . S
C1662 H1650 0.930 . S
C1662 C1663 1.399 . S
C1662 C1667 1.399 . S
C1663 C1662 1.399 . S
C1663 C1664 1.376 . S
C1664 H1651 0.930 . S
C1664 C1663 1.376 . S
C1664 C1665 1.388 . S
C1665 H1652 0.930 . S
C1665 C1664 1.388 . S
C1665 C1666 1.390 . S
C1666 C1665 1.390 . S
C1666 C1667 1.394 . S
C1666 C1672 1.465 . S
C1667 C1662 1.399 . S
C1667 C1666 1.394 . S
C1667 C1668 1.516 . S
C1668 C1667 1.516 . S
C1668 C1669 1.502 . S
C1668 C1670 1.561 . S
C1668 C1671 1.526 . S
C1669 H1653 0.959 . S
C1669 H1654 0.959 . S
C1669 H1655 0.961 . S
C1669 C1668 1.502 . S
C1670 H1656 0.960 . S
C1670 H1657 0.961 . S
C1670 H1658 0.959 . S
C1670 C1668 1.561 . S
C1671 C1668 1.526 . S
C1671 C1672 1.396 . S
C1671 C1676 1.390 . S
C1672 C1666 1.465 . S
C1672 C1671 1.396 . S
C1672 C1673 1.399 . S
C1673 H1659 0.929 . S
C1673 C1672 1.399 . S
C1673 C1674 1.385 . S
C1674 H1660 0.931 . S
C1674 C1673 1.385 . S
C1674 C1675 1.389 . S
C1675 C1674 1.389 . S
C1675 C1676 1.387 . S
C1676 H1661 0.930 . S
C1676 C1671 1.390 . S
C1676 C1675 1.387 . S
H1677 C1689 0.930 . S
H1678 C1691 0.930 . S
H1679 C1692 0.930 . S
H1680 C1696 0.959 . S
H1681 C1696 0.959 . S
H1682 C1696 0.961 . S
H1683 C1697 0.960 . S
H1684 C1697 0.961 . S
H1685 C1697 0.959 . S
H1686 C1700 0.929 . S
H1687 C1701 0.931 . S
H1688 C1703 0.930 . S
C1689 H1677 0.930 . S
C1689 C1690 1.399 . S
C1689 C1694 1.399 . S
C1690 C1689 1.399 . S
C1690 C1691 1.376 . S
C1691 H1678 0.930 . S
C1691 C1690 1.376 . S
C1691 C1692 1.388 . S
C1692 H1679 0.930 . S
C1692 C1691 1.388 . S
C1692 C1693 1.390 . S
C1693 C1692 1.390 . S
C1693 C1694 1.394 . S
C1693 C1699 1.465 . S
C1694 C1689 1.399 . S
C1694 C1693 1.394 . S
C1694 C1695 1.516 . S
C1695 C1694 1.516 . S
C1695 C1696 1.502 . S
C1695 C1697 1.561 . S
C1695 C1698 1.526 . S
C1696 H1680 0.959 . S
C1696 H1681 0.959 . S
C1696 H1682 0.961 . S
C1696 C1695 1.502 . S
C1697 H1683 0.960 . S
C1697 H1684 0.961 . S
C1697 H1685 0.959 . S
C1697 C1695 1.561 . S
C1698 C1695 1.526 . S
C1698 C1699 1.396 . S
C1698 C1703 1.390 . S
C1699 C1693 1.465 . S
C1699 C1698 1.396 . S
C1699 C1700 1.399 . S
C1700 H1686 0.929 . S
C1700 C1699 1.399 . S
C1700 C1701 1.385 . S
C1701 H1687 0.931 . S
C1701 C1700 1.385 . S
C1701 C1702 1.389 . S
C1702 C1701 1.389 . S
C1702 C1703 1.387 . S
C1703 H1688 0.930 . S
C1703 C1698 1.390 . S
C1703 C1702 1.387 . S
H1704 C1716 0.930 . S
H1705 C1718 0.930 . S
H1706 C1719 0.930 . S
H1707 C1723 0.959 . S
H1708 C1723 0.959 . S
H1709 C1723 0.961 . S
H1710 C1724 0.960 . S
H1711 C1724 0.961 . S
H1712 C1724 0.959 . S
H1713 C1727 0.929 . S
H1714 C1728 0.931 . S
H1715 C1730 0.930 . S
C1716 H1704 0.930 . S
C1716 C1717 1.399 . S
C1716 C1721 1.399 . S
C1717 C1716 1.399 . S
C1717 C1718 1.376 . S
C1718 H1705 0.930 . S
C1718 C1717 1.376 . S
C1718 C1719 1.388 . S
C1719 H1706 0.930 . S
C1719 C1718 1.388 . S
C1719 C1720 1.390 . S
C1720 C1719 1.390 . S
C1720 C1721 1.394 . S
C1720 C1726 1.465 . S
C1721 C1716 1.399 . S
C1721 C1720 1.394 . S
C1721 C1722 1.516 . S
C1722 C1721 1.516 . S
C1722 C1723 1.502 . S
C1722 C1724 1.561 . S
C1722 C1725 1.526 . S
C1723 H1707 0.959 . S
C1723 H1708 0.959 . S
C1723 H1709 0.961 . S
C1723 C1722 1.502 . S
C1724 H1710 0.960 . S
C1724 H1711 0.961 . S
C1724 H1712 0.959 . S
C1724 C1722 1.561 . S
C1725 C1722 1.526 . S
C1725 C1726 1.396 . S
C1725 C1730 1.390 . S
C1726 C1720 1.465 . S
C1726 C1725 1.396 . S
C1726 C1727 1.399 . S
C1727 H1713 0.929 . S
C1727 C1726 1.399 . S
C1727 C1728 1.385 . S
C1728 H1714 0.931 . S
C1728 C1727 1.385 . S
C1728 C1729 1.389 . S
C1729 C1728 1.389 . S
C1729 C1730 1.387 . S
C1730 H1715 0.930 . S
C1730 C1725 1.390 . S
C1730 C1729 1.387 . S
H1731 C1743 0.930 . S
H1732 C1745 0.930 . S
H1733 C1746 0.930 . S
H1734 C1750 0.959 . S
H1735 C1750 0.959 . S
H1736 C1750 0.961 . S
H1737 C1751 0.960 . S
H1738 C1751 0.961 . S
H1739 C1751 0.959 . S
H1740 C1754 0.929 . S
H1741 C1755 0.931 . S
H1742 C1757 0.930 . S
C1743 H1731 0.930 . S
C1743 C1744 1.399 . S
C1743 C1748 1.399 . S
C1744 C1743 1.399 . S
C1744 C1745 1.376 . S
C1745 H1732 0.930 . S
C1745 C1744 1.376 . S
C1745 C1746 1.388 . S
C1746 H1733 0.930 . S
C1746 C1745 1.388 . S
C1746 C1747 1.390 . S
C1747 C1746 1.390 . S
C1747 C1748 1.394 . S
C1747 C1753 1.465 . S
C1748 C1743 1.399 . S
C1748 C1747 1.394 . S
C1748 C1749 1.516 . S
C1749 C1748 1.516 . S
C1749 C1750 1.502 . S
C1749 C1751 1.561 . S
C1749 C1752 1.526 . S
C1750 H1734 0.959 . S
C1750 H1735 0.959 . S
C1750 H1736 0.961 . S
C1750 C1749 1.502 . S
C1751 H1737 0.960 . S
C1751 H1738 0.961 . S
C1751 H1739 0.959 . S
C1751 C1749 1.561 . S
C1752 C1749 1.526 . S
C1752 C1753 1.396 . S
C1752 C1757 1.390 . S
C1753 C1747 1.465 . S
C1753 C1752 1.396 . S
C1753 C1754 1.399 . S
C1754 H1740 0.929 . S
C1754 C1753 1.399 . S
C1754 C1755 1.385 . S
C1755 H1741 0.931 . S
C1755 C1754 1.385 . S
C1755 C1756 1.389 . S
C1756 C1755 1.389 . S
C1756 C1757 1.387 . S
C1757 H1742 0.930 . S
C1757 C1752 1.390 . S
C1757 C1756 1.387 . S
H1758 C1770 0.930 . S
H1759 C1772 0.930 . S
H1760 C1773 0.930 . S
H1761 C1777 0.959 . S
H1762 C1777 0.959 . S
H1763 C1777 0.961 . S
H1764 C1778 0.960 . S
H1765 C1778 0.961 . S
H1766 C1778 0.959 . S
H1767 C1781 0.929 . S
H1768 C1782 0.931 . S
H1769 C1784 0.930 . S
C1770 H1758 0.930 . S
C1770 C1771 1.399 . S
C1770 C1775 1.399 . S
C1771 C1770 1.399 . S
C1771 C1772 1.376 . S
C1772 H1759 0.930 . S
C1772 C1771 1.376 . S
C1772 C1773 1.388 . S
C1773 H1760 0.930 . S
C1773 C1772 1.388 . S
C1773 C1774 1.390 . S
C1774 C1773 1.390 . S
C1774 C1775 1.394 . S
C1774 C1780 1.465 . S
C1775 C1770 1.399 . S
C1775 C1774 1.394 . S
C1775 C1776 1.516 . S
C1776 C1775 1.516 . S
C1776 C1777 1.502 . S
C1776 C1778 1.561 . S
C1776 C1779 1.526 . S
C1777 H1761 0.959 . S
C1777 H1762 0.959 . S
C1777 H1763 0.961 . S
C1777 C1776 1.502 . S
C1778 H1764 0.960 . S
C1778 H1765 0.961 . S
C1778 H1766 0.959 . S
C1778 C1776 1.561 . S
C1779 C1776 1.526 . S
C1779 C1780 1.396 . S
C1779 C1784 1.390 . S
C1780 C1774 1.465 . S
C1780 C1779 1.396 . S
C1780 C1781 1.399 . S
C1781 H1767 0.929 . S
C1781 C1780 1.399 . S
C1781 C1782 1.385 . S
C1782 H1768 0.931 . S
C1782 C1781 1.385 . S
C1782 C1783 1.389 . S
C1783 C1782 1.389 . S
C1783 C1784 1.387 . S
C1784 H1769 0.930 . S
C1784 C1779 1.390 . S
C1784 C1783 1.387 . S
H1785 C1797 0.930 . S
H1786 C1799 0.930 . S
H1787 C1800 0.930 . S
H1788 C1804 0.959 . S
H1789 C1804 0.959 . S
H1790 C1804 0.961 . S
H1791 C1805 0.960 . S
H1792 C1805 0.961 . S
H1793 C1805 0.959 . S
H1794 C1808 0.929 . S
H1795 C1809 0.931 . S
H1796 C1811 0.930 . S
C1797 H1785 0.930 . S
C1797 C1798 1.399 . S
C1797 C1802 1.399 . S
C1798 C1797 1.399 . S
C1798 C1799 1.376 . S
C1799 H1786 0.930 . S
C1799 C1798 1.376 . S
C1799 C1800 1.388 . S
C1800 H1787 0.930 . S
C1800 C1799 1.388 . S
C1800 C1801 1.390 . S
C1801 C1800 1.390 . S
C1801 C1802 1.394 . S
C1801 C1807 1.465 . S
C1802 C1797 1.399 . S
C1802 C1801 1.394 . S
C1802 C1803 1.516 . S
C1803 C1802 1.516 . S
C1803 C1804 1.502 . S
C1803 C1805 1.561 . S
C1803 C1806 1.526 . S
C1804 H1788 0.959 . S
C1804 H1789 0.959 . S
C1804 H1790 0.961 . S
C1804 C1803 1.502 . S
C1805 H1791 0.960 . S
C1805 H1792 0.961 . S
C1805 H1793 0.959 . S
C1805 C1803 1.561 . S
C1806 C1803 1.526 . S
C1806 C1807 1.396 . S
C1806 C1811 1.390 . S
C1807 C1801 1.465 . S
C1807 C1806 1.396 . S
C1807 C1808 1.399 . S
C1808 H1794 0.929 . S
C1808 C1807 1.399 . S
C1808 C1809 1.385 . S
C1809 H1795 0.931 . S
C1809 C1808 1.385 . S
C1809 C1810 1.389 . S
C1810 C1809 1.389 . S
C1810 C1811 1.387 . S
C1811 H1796 0.930 . S
C1811 C1806 1.390 . S
C1811 C1810 1.387 . S
H1812 C1824 0.930 . S
H1813 C1826 0.930 . S
H1814 C1827 0.930 . S
H1815 C1831 0.959 . S
H1816 C1831 0.959 . S
H1817 C1831 0.961 . S
H1818 C1832 0.960 . S
H1819 C1832 0.961 . S
H1820 C1832 0.959 . S
H1821 C1835 0.929 . S
H1822 C1836 0.931 . S
H1823 C1838 0.930 . S
C1824 H1812 0.930 . S
C1824 C1825 1.399 . S
C1824 C1829 1.399 . S
C1825 C1824 1.399 . S
C1825 C1826 1.376 . S
C1826 H1813 0.930 . S
C1826 C1825 1.376 . S
C1826 C1827 1.388 . S
C1827 H1814 0.930 . S
C1827 C1826 1.388 . S
C1827 C1828 1.390 . S
C1828 C1827 1.390 . S
C1828 C1829 1.394 . S
C1828 C1834 1.465 . S
C1829 C1824 1.399 . S
C1829 C1828 1.394 . S
C1829 C1830 1.516 . S
C1830 C1829 1.516 . S
C1830 C1831 1.502 . S
C1830 C1832 1.561 . S
C1830 C1833 1.526 . S
C1831 H1815 0.959 . S
C1831 H1816 0.959 . S
C1831 H1817 0.961 . S
C1831 C1830 1.502 . S
C1832 H1818 0.960 . S
C1832 H1819 0.961 . S
C1832 H1820 0.959 . S
C1832 C1830 1.561 . S
C1833 C1830 1.526 . S
C1833 C1834 1.396 . S
C1833 C1838 1.390 . S
C1834 C1828 1.465 . S
C1834 C1833 1.396 . S
C1834 C1835 1.399 . S
C1835 H1821 0.929 . S
C1835 C1834 1.399 . S
C1835 C1836 1.385 . S
C1836 H1822 0.931 . S
C1836 C1835 1.385 . S
C1836 C1837 1.389 . S
C1837 C1836 1.389 . S
C1837 C1838 1.387 . S
C1838 H1823 0.930 . S
C1838 C1833 1.390 . S
C1838 C1837 1.387 . S
H1839 C1851 0.930 . S
H1840 C1853 0.930 . S
H1841 C1854 0.930 . S
H1842 C1858 0.959 . S
H1843 C1858 0.959 . S
H1844 C1858 0.961 . S
H1845 C1859 0.960 . S
H1846 C1859 0.961 . S
H1847 C1859 0.959 . S
H1848 C1862 0.929 . S
H1849 C1863 0.931 . S
H1850 C1865 0.930 . S
C1851 H1839 0.930 . S
C1851 C1852 1.399 . S
C1851 C1856 1.399 . S
C1852 C1851 1.399 . S
C1852 C1853 1.376 . S
C1853 H1840 0.930 . S
C1853 C1852 1.376 . S
C1853 C1854 1.388 . S
C1854 H1841 0.930 . S
C1854 C1853 1.388 . S
C1854 C1855 1.390 . S
C1855 C1854 1.390 . S
C1855 C1856 1.394 . S
C1855 C1861 1.465 . S
C1856 C1851 1.399 . S
C1856 C1855 1.394 . S
C1856 C1857 1.516 . S
C1857 C1856 1.516 . S
C1857 C1858 1.502 . S
C1857 C1859 1.561 . S
C1857 C1860 1.526 . S
C1858 H1842 0.959 . S
C1858 H1843 0.959 . S
C1858 H1844 0.961 . S
C1858 C1857 1.502 . S
C1859 H1845 0.960 . S
C1859 H1846 0.961 . S
C1859 H1847 0.959 . S
C1859 C1857 1.561 . S
C1860 C1857 1.526 . S
C1860 C1861 1.396 . S
C1860 C1865 1.390 . S
C1861 C1855 1.465 . S
C1861 C1860 1.396 . S
C1861 C1862 1.399 . S
C1862 H1848 0.929 . S
C1862 C1861 1.399 . S
C1862 C1863 1.385 . S
C1863 H1849 0.931 . S
C1863 C1862 1.385 . S
C1863 C1864 1.389 . S
C1864 C1863 1.389 . S
C1864 C1865 1.387 . S
C1865 H1850 0.930 . S
C1865 C1860 1.390 . S
C1865 C1864 1.387 . S
H1866 C1878 0.930 . S
H1867 C1880 0.930 . S
H1868 C1881 0.930 . S
H1869 C1885 0.959 . S
H1870 C1885 0.959 . S
H1871 C1885 0.961 . S
H1872 C1886 0.960 . S
H1873 C1886 0.961 . S
H1874 C1886 0.959 . S
H1875 C1889 0.929 . S
H1876 C1890 0.931 . S
H1877 C1892 0.930 . S
C1878 H1866 0.930 . S
C1878 C1879 1.399 . S
C1878 C1883 1.399 . S
C1879 C1878 1.399 . S
C1879 C1880 1.376 . S
C1880 H1867 0.930 . S
C1880 C1879 1.376 . S
C1880 C1881 1.388 . S
C1881 H1868 0.930 . S
C1881 C1880 1.388 . S
C1881 C1882 1.390 . S
C1882 C1881 1.390 . S
C1882 C1883 1.394 . S
C1882 C1888 1.465 . S
C1883 C1878 1.399 . S
C1883 C1882 1.394 . S
C1883 C1884 1.516 . S
C1884 C1883 1.516 . S
C1884 C1885 1.502 . S
C1884 C1886 1.561 . S
C1884 C1887 1.526 . S
C1885 H1869 0.959 . S
C1885 H1870 0.959 . S
C1885 H1871 0.961 . S
C1885 C1884 1.502 . S
C1886 H1872 0.960 . S
C1886 H1873 0.961 . S
C1886 H1874 0.959 . S
C1886 C1884 1.561 . S
C1887 C1884 1.526 . S
C1887 C1888 1.396 . S
C1887 C1892 1.390 . S
C1888 C1882 1.465 . S
C1888 C1887 1.396 . S
C1888 C1889 1.399 . S
C1889 H1875 0.929 . S
C1889 C1888 1.399 . S
C1889 C1890 1.385 . S
C1890 H1876 0.931 . S
C1890 C1889 1.385 . S
C1890 C1891 1.389 . S
C1891 C1890 1.389 . S
C1891 C1892 1.387 . S
C1892 H1877 0.930 . S
C1892 C1887 1.390 . S
C1892 C1891 1.387 . S
H1893 C1905 0.930 . S
H1894 C1907 0.930 . S
H1895 C1908 0.930 . S
H1896 C1912 0.959 . S
H1897 C1912 0.959 . S
H1898 C1912 0.961 . S
H1899 C1913 0.960 . S
H1900 C1913 0.961 . S
H1901 C1913 0.959 . S
H1902 C1916 0.929 . S
H1903 C1917 0.931 . S
H1904 C1919 0.930 . S
C1905 H1893 0.930 . S
C1905 C1906 1.399 . S
C1905 C1910 1.399 . S
C1906 C1905 1.399 . S
C1906 C1907 1.376 . S
C1907 H1894 0.930 . S
C1907 C1906 1.376 . S
C1907 C1908 1.388 . S
C1908 H1895 0.930 . S
C1908 C1907 1.388 . S
C1908 C1909 1.390 . S
C1909 C1908 1.390 . S
C1909 C1910 1.394 . S
C1909 C1915 1.465 . S
C1910 C1905 1.399 . S
C1910 C1909 1.394 . S
C1910 C1911 1.516 . S
C1911 C1910 1.516 . S
C1911 C1912 1.502 . S
C1911 C1913 1.561 . S
C1911 C1914 1.526 . S
C1912 H1896 0.959 . S
C1912 H1897 0.959 . S
C1912 H1898 0.961 . S
C1912 C1911 1.502 . S
C1913 H1899 0.960 . S
C1913 H1900 0.961 . S
C1913 H1901 0.959 . S
C1913 C1911 1.561 . S
C1914 C1911 1.526 . S
C1914 C1915 1.396 . S
C1914 C1919 1.390 . S
C1915 C1909 1.465 . S
C1915 C1914 1.396 . S
C1915 C1916 1.399 . S
C1916 H1902 0.929 . S
C1916 C1915 1.399 . S
C1916 C1917 1.385 . S
C1917 H1903 0.931 . S
C1917 C1916 1.385 . S
C1917 C1918 1.389 . S
C1918 C1917 1.389 . S
C1918 C1919 1.387 . S
C1919 H1904 0.930 . S
C1919 C1914 1.390 . S
C1919 C1918 1.387 . S
H1920 C1932 0.930 . S
H1921 C1934 0.930 . S
H1922 C1935 0.930 . S
H1923 C1939 0.959 . S
H1924 C1939 0.959 . S
H1925 C1939 0.961 . S
H1926 C1940 0.960 . S
H1927 C1940 0.961 . S
H1928 C1940 0.959 . S
H1929 C1943 0.929 . S
H1930 C1944 0.931 . S
H1931 C1946 0.930 . S
C1932 H1920 0.930 . S
C1932 C1933 1.399 . S
C1932 C1937 1.399 . S
C1933 C1932 1.399 . S
C1933 C1934 1.376 . S
C1934 H1921 0.930 . S
C1934 C1933 1.376 . S
C1934 C1935 1.388 . S
C1935 H1922 0.930 . S
C1935 C1934 1.388 . S
C1935 C1936 1.390 . S
C1936 C1935 1.390 . S
C1936 C1937 1.394 . S
C1936 C1942 1.465 . S
C1937 C1932 1.399 . S
C1937 C1936 1.394 . S
C1937 C1938 1.516 . S
C1938 C1937 1.516 . S
C1938 C1939 1.502 . S
C1938 C1940 1.561 . S
C1938 C1941 1.526 . S
C1939 H1923 0.959 . S
C1939 H1924 0.959 . S
C1939 H1925 0.961 . S
C1939 C1938 1.502 . S
C1940 H1926 0.960 . S
C1940 H1927 0.961 . S
C1940 H1928 0.959 . S
C1940 C1938 1.561 . S
C1941 C1938 1.526 . S
C1941 C1942 1.396 . S
C1941 C1946 1.390 . S
C1942 C1936 1.465 . S
C1942 C1941 1.396 . S
C1942 C1943 1.399 . S
C1943 H1929 0.929 . S
C1943 C1942 1.399 . S
C1943 C1944 1.385 . S
C1944 H1930 0.931 . S
C1944 C1943 1.385 . S
C1944 C1945 1.389 . S
C1945 C1944 1.389 . S
C1945 C1946 1.387 . S
C1946 H1931 0.930 . S
C1946 C1941 1.390 . S
C1946 C1945 1.387 . S
H1947 C1959 0.930 . S
H1948 C1961 0.930 . S
H1949 C1962 0.930 . S
H1950 C1966 0.959 . S
H1951 C1966 0.959 . S
H1952 C1966 0.961 . S
H1953 C1967 0.960 . S
H1954 C1967 0.961 . S
H1955 C1967 0.959 . S
H1956 C1970 0.929 . S
H1957 C1971 0.931 . S
H1958 C1973 0.930 . S
C1959 H1947 0.930 . S
C1959 C1960 1.399 . S
C1959 C1964 1.399 . S
C1960 C1959 1.399 . S
C1960 C1961 1.376 . S
C1961 H1948 0.930 . S
C1961 C1960 1.376 . S
C1961 C1962 1.388 . S
C1962 H1949 0.930 . S
C1962 C1961 1.388 . S
C1962 C1963 1.390 . S
C1963 C1962 1.390 . S
C1963 C1964 1.394 . S
C1963 C1969 1.465 . S
C1964 C1959 1.399 . S
C1964 C1963 1.394 . S
C1964 C1965 1.516 . S
C1965 C1964 1.516 . S
C1965 C1966 1.502 . S
C1965 C1967 1.561 . S
C1965 C1968 1.526 . S
C1966 H1950 0.959 . S
C1966 H1951 0.959 . S
C1966 H1952 0.961 . S
C1966 C1965 1.502 . S
C1967 H1953 0.960 . S
C1967 H1954 0.961 . S
C1967 H1955 0.959 . S
C1967 C1965 1.561 . S
C1968 C1965 1.526 . S
C1968 C1969 1.396 . S
C1968 C1973 1.390 . S
C1969 C1963 1.465 . S
C1969 C1968 1.396 . S
C1969 C1970 1.399 . S
C1970 H1956 0.929 . S
C1970 C1969 1.399 . S
C1970 C1971 1.385 . S
C1971 H1957 0.931 . S
C1971 C1970 1.385 . S
C1971 C1972 1.389 . S
C1972 C1971 1.389 . S
C1972 C1973 1.387 . S
C1973 H1958 0.930 . S
C1973 C1968 1.390 . S
C1973 C1972 1.387 . S
H1974 C1986 0.930 . S
H1975 C1988 0.930 . S
H1976 C1989 0.930 . S
H1977 C1993 0.959 . S
H1978 C1993 0.959 . S
H1979 C1993 0.961 . S
H1980 C1994 0.960 . S
H1981 C1994 0.961 . S
H1982 C1994 0.959 . S
H1983 C1997 0.929 . S
H1984 C1998 0.931 . S
H1985 C2000 0.930 . S
C1986 H1974 0.930 . S
C1986 C1987 1.399 . S
C1986 C1991 1.399 . S
C1987 C1986 1.399 . S
C1987 C1988 1.376 . S
C1988 H1975 0.930 . S
C1988 C1987 1.376 . S
C1988 C1989 1.388 . S
C1989 H1976 0.930 . S
C1989 C1988 1.388 . S
C1989 C1990 1.390 . S
C1990 C1989 1.390 . S
C1990 C1991 1.394 . S
C1990 C1996 1.465 . S
C1991 C1986 1.399 . S
C1991 C1990 1.394 . S
C1991 C1992 1.516 . S
C1992 C1991 1.516 . S
C1992 C1993 1.502 . S
C1992 C1994 1.561 . S
C1992 C1995 1.526 . S
C1993 H1977 0.959 . S
C1993 H1978 0.959 . S
C1993 H1979 0.961 . S
C1993 C1992 1.502 . S
C1994 H1980 0.960 . S
C1994 H1981 0.961 . S
C1994 H1982 0.959 . S
C1994 C1992 1.561 . S
C1995 C1992 1.526 . S
C1995 C1996 1.396 . S
C1995 C2000 1.390 . S
C1996 C1990 1.465 . S
C1996 C1995 1.396 . S
C1996 C1997 1.399 . S
C1997 H1983 0.929 . S
C1997 C1996 1.399 . S
C1997 C1998 1.385 . S
C1998 H1984 0.931 . S
C1998 C1997 1.385 . S
C1998 C1999 1.389 . S
C1999 C1998 1.389 . S
C1999 C2000 1.387 . S
C2000 H1985 0.930 . S
C2000 C1995 1.390 . S
C2000 C1999 1.387 . S
H2001 C2013 0.930 . S
H2002 C2015 0.930 . S
H2003 C2016 0.930 . S
H2004 C2020 0.959 . S
H2005 C2020 0.959 . S
H2006 C2020 0.961 . S
H2007 C2021 0.960 . S
H2008 C2021 0.961 . S
H2009 C2021 0.959 . S
H2010 C2024 0.929 . S
H2011 C2025 0.931 . S
H2012 C2027 0.930 . S
C2013 H2001 0.930 . S
C2013 C2014 1.399 . S
C2013 C2018 1.399 . S
C2014 C2013 1.399 . S
C2014 C2015 1.376 . S
C2015 H2002 0.930 . S
C2015 C2014 1.376 . S
C2015 C2016 1.388 . S
C2016 H2003 0.930 . S
C2016 C2015 1.388 . S
C2016 C2017 1.390 . S
C2017 C2016 1.390 . S
C2017 C2018 1.394 . S
C2017 C2023 1.465 . S
C2018 C2013 1.399 . S
C2018 C2017 1.394 . S
C2018 C2019 1.516 . S
C2019 C2018 1.516 . S
C2019 C2020 1.502 . S
C2019 C2021 1.561 . S
C2019 C2022 1.526 . S
C2020 H2004 0.959 . S
C2020 H2005 0.959 . S
C2020 H2006 0.961 . S
C2020 C2019 1.502 . S
C2021 H2007 0.960 . S
C2021 H2008 0.961 . S
C2021 H2009 0.959 . S
C2021 C2019 1.561 . S
C2022 C2019 1.526 . S
C2022 C2023 1.396 . S
C2022 C2027 1.390 . S
C2023 C2017 1.465 . S
C2023 C2022 1.396 . S
C2023 C2024 1.399 . S
C2024 H2010 0.929 . S
C2024 C2023 1.399 . S
C2024 C2025 1.385 . S
C2025 H2011 0.931 . S
C2025 C2024 1.385 . S
C2025 C2026 1.389 . S
C2026 C2025 1.389 . S
C2026 C2027 1.387 . S
C2027 H2012 0.930 . S
C2027 C2022 1.390 . S
C2027 C2026 1.387 . S
H2028 C2040 0.930 . S
H2029 C2042 0.930 . S
H2030 C2043 0.930 . S
H2031 C2047 0.959 . S
H2032 C2047 0.959 . S
H2033 C2047 0.961 . S
H2034 C2048 0.960 . S
H2035 C2048 0.961 . S
H2036 C2048 0.959 . S
H2037 C2051 0.929 . S
H2038 C2052 0.931 . S
H2039 C2054 0.930 . S
C2040 H2028 0.930 . S
C2040 C2041 1.399 . S
C2040 C2045 1.399 . S
C2041 C2040 1.399 . S
C2041 C2042 1.376 . S
C2042 H2029 0.930 . S
C2042 C2041 1.376 . S
C2042 C2043 1.388 . S
C2043 H2030 0.930 . S
C2043 C2042 1.388 . S
C2043 C2044 1.390 . S
C2044 C2043 1.390 . S
C2044 C2045 1.394 . S
C2044 C2050 1.465 . S
C2045 C2040 1.399 . S
C2045 C2044 1.394 . S
C2045 C2046 1.516 . S
C2046 C2045 1.516 . S
C2046 C2047 1.502 . S
C2046 C2048 1.561 . S
C2046 C2049 1.526 . S
C2047 H2031 0.959 . S
C2047 H2032 0.959 . S
C2047 H2033 0.961 . S
C2047 C2046 1.502 . S
C2048 H2034 0.960 . S
C2048 H2035 0.961 . S
C2048 H2036 0.959 . S
C2048 C2046 1.561 . S
C2049 C2046 1.526 . S
C2049 C2050 1.396 . S
C2049 C2054 1.390 . S
C2050 C2044 1.465 . S
C2050 C2049 1.396 . S
C2050 C2051 1.399 . S
C2051 H2037 0.929 . S
C2051 C2050 1.399 . S
C2051 C2052 1.385 . S
C2052 H2038 0.931 . S
C2052 C2051 1.385 . S
C2052 C2053 1.389 . S
C2053 C2052 1.389 . S
C2053 C2054 1.387 . S
C2054 H2039 0.930 . S
C2054 C2049 1.390 . S
C2054 C2053 1.387 . S
H2055 C2067 0.930 . S
H2056 C2069 0.930 . S
H2057 C2070 0.930 . S
H2058 C2074 0.959 . S
H2059 C2074 0.959 . S
H2060 C2074 0.961 . S
H2061 C2075 0.960 . S
H2062 C2075 0.961 . S
H2063 C2075 0.959 . S
H2064 C2078 0.929 . S
H2065 C2079 0.931 . S
H2066 C2081 0.930 . S
C2067 H2055 0.930 . S
C2067 C2068 1.399 . S
C2067 C2072 1.399 . S
C2068 C2067 1.399 . S
C2068 C2069 1.376 . S
C2069 H2056 0.930 . S
C2069 C2068 1.376 . S
C2069 C2070 1.388 . S
C2070 H2057 0.930 . S
C2070 C2069 1.388 . S
C2070 C2071 1.390 . S
C2071 C2070 1.390 . S
C2071 C2072 1.394 . S
C2071 C2077 1.465 . S
C2072 C2067 1.399 . S
C2072 C2071 1.394 . S
C2072 C2073 1.516 . S
C2073 C2072 1.516 . S
C2073 C2074 1.502 . S
C2073 C2075 1.561 . S
C2073 C2076 1.526 . S
C2074 H2058 0.959 . S
C2074 H2059 0.959 . S
C2074 H2060 0.961 . S
C2074 C2073 1.502 . S
C2075 H2061 0.960 . S
C2075 H2062 0.961 . S
C2075 H2063 0.959 . S
C2075 C2073 1.561 . S
C2076 C2073 1.526 . S
C2076 C2077 1.396 . S
C2076 C2081 1.390 . S
C2077 C2071 1.465 . S
C2077 C2076 1.396 . S
C2077 C2078 1.399 . S
C2078 H2064 0.929 . S
C2078 C2077 1.399 . S
C2078 C2079 1.385 . S
C2079 H2065 0.931 . S
C2079 C2078 1.385 . S
C2079 C2080 1.389 . S
C2080 C2079 1.389 . S
C2080 C2081 1.387 . S
C2081 H2066 0.930 . S
C2081 C2076 1.390 . S
C2081 C2080 1.387 . S
H2082 C2094 0.930 . S
H2083 C2096 0.930 . S
H2084 C2097 0.930 . S
H2085 C2101 0.959 . S
H2086 C2101 0.959 . S
H2087 C2101 0.961 . S
H2088 C2102 0.960 . S
H2089 C2102 0.961 . S
H2090 C2102 0.959 . S
H2091 C2105 0.929 . S
H2092 C2106 0.931 . S
H2093 C2108 0.930 . S
C2094 H2082 0.930 . S
C2094 C2095 1.399 . S
C2094 C2099 1.399 . S
C2095 C2094 1.399 . S
C2095 C2096 1.376 . S
C2096 H2083 0.930 . S
C2096 C2095 1.376 . S
C2096 C2097 1.388 . S
C2097 H2084 0.930 . S
C2097 C2096 1.388 . S
C2097 C2098 1.390 . S
C2098 C2097 1.390 . S
C2098 C2099 1.394 . S
C2098 C2104 1.465 . S
C2099 C2094 1.399 . S
C2099 C2098 1.394 . S
C2099 C2100 1.516 . S
C2100 C2099 1.516 . S
C2100 C2101 1.502 . S
C2100 C2102 1.561 . S
C2100 C2103 1.526 . S
C2101 H2085 0.959 . S
C2101 H2086 0.959 . S
C2101 H2087 0.961 . S
C2101 C2100 1.502 . S
C2102 H2088 0.960 . S
C2102 H2089 0.961 . S
C2102 H2090 0.959 . S
C2102 C2100 1.561 . S
C2103 C2100 1.526 . S
C2103 C2104 1.396 . S
C2103 C2108 1.390 . S
C2104 C2098 1.465 . S
C2104 C2103 1.396 . S
C2104 C2105 1.399 . S
C2105 H2091 0.929 . S
C2105 C2104 1.399 . S
C2105 C2106 1.385 . S
C2106 H2092 0.931 . S
C2106 C2105 1.385 . S
C2106 C2107 1.389 . S
C2107 C2106 1.389 . S
C2107 C2108 1.387 . S
C2108 H2093 0.930 . S
C2108 C2103 1.390 . S
C2108 C2107 1.387 . S
H2109 C2121 0.930 . S
H2110 C2123 0.930 . S
H2111 C2124 0.930 . S
H2112 C2128 0.959 . S
H2113 C2128 0.959 . S
H2114 C2128 0.961 . S
H2115 C2129 0.960 . S
H2116 C2129 0.961 . S
H2117 C2129 0.959 . S
H2118 C2132 0.929 . S
H2119 C2133 0.931 . S
H2120 C2135 0.930 . S
C2121 H2109 0.930 . S
C2121 C2122 1.399 . S
C2121 C2126 1.399 . S
C2122 C2121 1.399 . S
C2122 C2123 1.376 . S
C2123 H2110 0.930 . S
C2123 C2122 1.376 . S
C2123 C2124 1.388 . S
C2124 H2111 0.930 . S
C2124 C2123 1.388 . S
C2124 C2125 1.390 . S
C2125 C2124 1.390 . S
C2125 C2126 1.394 . S
C2125 C2131 1.465 . S
C2126 C2121 1.399 . S
C2126 C2125 1.394 . S
C2126 C2127 1.516 . S
C2127 C2126 1.516 . S
C2127 C2128 1.502 . S
C2127 C2129 1.561 . S
C2127 C2130 1.526 . S
C2128 H2112 0.959 . S
C2128 H2113 0.959 . S
C2128 H2114 0.961 . S
C2128 C2127 1.502 . S
C2129 H2115 0.960 . S
C2129 H2116 0.961 . S
C2129 H2117 0.959 . S
C2129 C2127 1.561 . S
C2130 C2127 1.526 . S
C2130 C2131 1.396 . S
C2130 C2135 1.390 . S
C2131 C2125 1.465 . S
C2131 C2130 1.396 . S
C2131 C2132 1.399 . S
C2132 H2118 0.929 . S
C2132 C2131 1.399 . S
C2132 C2133 1.385 . S
C2133 H2119 0.931 . S
C2133 C2132 1.385 . S
C2133 C2134 1.389 . S
C2134 C2133 1.389 . S
C2134 C2135 1.387 . S
C2135 H2120 0.930 . S
C2135 C2130 1.390 . S
C2135 C2134 1.387 . S
H2136 C2148 0.930 . S
H2137 C2150 0.930 . S
H2138 C2151 0.930 . S
H2139 C2155 0.959 . S
H2140 C2155 0.959 . S
H2141 C2155 0.961 . S
H2142 C2156 0.960 . S
H2143 C2156 0.961 . S
H2144 C2156 0.959 . S
H2145 C2159 0.929 . S
H2146 C2160 0.931 . S
H2147 C2162 0.930 . S
C2148 H2136 0.930 . S
C2148 C2149 1.399 . S
C2148 C2153 1.399 . S
C2149 C2148 1.399 . S
C2149 C2150 1.376 . S
C2150 H2137 0.930 . S
C2150 C2149 1.376 . S
C2150 C2151 1.388 . S
C2151 H2138 0.930 . S
C2151 C2150 1.388 . S
C2151 C2152 1.390 . S
C2152 C2151 1.390 . S
C2152 C2153 1.394 . S
C2152 C2158 1.465 . S
C2153 C2148 1.399 . S
C2153 C2152 1.394 . S
C2153 C2154 1.516 . S
C2154 C2153 1.516 . S
C2154 C2155 1.502 . S
C2154 C2156 1.561 . S
C2154 C2157 1.526 . S
C2155 H2139 0.959 . S
C2155 H2140 0.959 . S
C2155 H2141 0.961 . S
C2155 C2154 1.502 . S
C2156 H2142 0.960 . S
C2156 H2143 0.961 . S
C2156 H2144 0.959 . S
C2156 C2154 1.561 . S
C2157 C2154 1.526 . S
C2157 C2158 1.396 . S
C2157 C2162 1.390 . S
C2158 C2152 1.465 . S
C2158 C2157 1.396 . S
C2158 C2159 1.399 . S
C2159 H2145 0.929 . S
C2159 C2158 1.399 . S
C2159 C2160 1.385 . S
C2160 H2146 0.931 . S
C2160 C2159 1.385 . S
C2160 C2161 1.389 . S
C2161 C2160 1.389 . S
C2161 C2162 1.387 . S
C2162 H2147 0.930 . S
C2162 C2157 1.390 . S
C2162 C2161 1.387 . S
H2163 C2175 0.930 . S
H2164 C2177 0.930 . S
H2165 C2178 0.930 . S
H2166 C2182 0.959 . S
H2167 C2182 0.959 . S
H2168 C2182 0.961 . S
H2169 C2183 0.960 . S
H2170 C2183 0.961 . S
H2171 C2183 0.959 . S
H2172 C2186 0.929 . S
H2173 C2187 0.931 . S
H2174 C2189 0.930 . S
C2175 H2163 0.930 . S
C2175 C2176 1.399 . S
C2175 C2180 1.399 . S
C2176 C2175 1.399 . S
C2176 C2177 1.376 . S
C2177 H2164 0.930 . S
C2177 C2176 1.376 . S
C2177 C2178 1.388 . S
C2178 H2165 0.930 . S
C2178 C2177 1.388 . S
C2178 C2179 1.390 . S
C2179 C2178 1.390 . S
C2179 C2180 1.394 . S
C2179 C2185 1.465 . S
C2180 C2175 1.399 . S
C2180 C2179 1.394 . S
C2180 C2181 1.516 . S
C2181 C2180 1.516 . S
C2181 C2182 1.502 . S
C2181 C2183 1.561 . S
C2181 C2184 1.526 . S
C2182 H2166 0.959 . S
C2182 H2167 0.959 . S
C2182 H2168 0.961 . S
C2182 C2181 1.502 . S
C2183 H2169 0.960 . S
C2183 H2170 0.961 . S
C2183 H2171 0.959 . S
C2183 C2181 1.561 . S
C2184 C2181 1.526 . S
C2184 C2185 1.396 . S
C2184 C2189 1.390 . S
C2185 C2179 1.465 . S
C2185 C2184 1.396 . S
C2185 C2186 1.399 . S
C2186 H2172 0.929 . S
C2186 C2185 1.399 . S
C2186 C2187 1.385 . S
C2187 H2173 0.931 . S
C2187 C2186 1.385 . S
C2187 C2188 1.389 . S
C2188 C2187 1.389 . S
C2188 C2189 1.387 . S
C2189 H2174 0.930 . S
C2189 C2184 1.390 . S
C2189 C2188 1.387 . S
H2190 C2202 0.930 . S
H2191 C2204 0.930 . S
H2192 C2205 0.930 . S
H2193 C2209 0.959 . S
H2194 C2209 0.959 . S
H2195 C2209 0.961 . S
H2196 C2210 0.960 . S
H2197 C2210 0.961 . S
H2198 C2210 0.959 . S
H2199 C2213 0.929 . S
H2200 C2214 0.931 . S
H2201 C2216 0.930 . S
C2202 H2190 0.930 . S
C2202 C2203 1.399 . S
C2202 C2207 1.399 . S
C2203 C2202 1.399 . S
C2203 C2204 1.376 . S
C2204 H2191 0.930 . S
C2204 C2203 1.376 . S
C2204 C2205 1.388 . S
C2205 H2192 0.930 . S
C2205 C2204 1.388 . S
C2205 C2206 1.390 . S
C2206 C2205 1.390 . S
C2206 C2207 1.394 . S
C2206 C2212 1.465 . S
C2207 C2202 1.399 . S
C2207 C2206 1.394 . S
C2207 C2208 1.516 . S
C2208 C2207 1.516 . S
C2208 C2209 1.502 . S
C2208 C2210 1.561 . S
C2208 C2211 1.526 . S
C2209 H2193 0.959 . S
C2209 H2194 0.959 . S
C2209 H2195 0.961 . S
C2209 C2208 1.502 . S
C2210 H2196 0.960 . S
C2210 H2197 0.961 . S
C2210 H2198 0.959 . S
C2210 C2208 1.561 . S
C2211 C2208 1.526 . S
C2211 C2212 1.396 . S
C2211 C2216 1.390 . S
C2212 C2206 1.465 . S
C2212 C2211 1.396 . S
C2212 C2213 1.399 . S
C2213 H2199 0.929 . S
C2213 C2212 1.399 . S
C2213 C2214 1.385 . S
C2214 H2200 0.931 . S
C2214 C2213 1.385 . S
C2214 C2215 1.389 . S
C2215 C2214 1.389 . S
C2215 C2216 1.387 . S
C2216 H2201 0.930 . S
C2216 C2211 1.390 . S
C2216 C2215 1.387 . S
H2217 C2229 0.930 . S
H2218 C2231 0.930 . S
H2219 C2232 0.930 . S
H2220 C2236 0.959 . S
H2221 C2236 0.959 . S
H2222 C2236 0.961 . S
H2223 C2237 0.960 . S
H2224 C2237 0.961 . S
H2225 C2237 0.959 . S
H2226 C2240 0.929 . S
H2227 C2241 0.931 . S
H2228 C2243 0.930 . S
C2229 H2217 0.930 . S
C2229 C2230 1.399 . S
C2229 C2234 1.399 . S
C2230 C2229 1.399 . S
C2230 C2231 1.376 . S
C2231 H2218 0.930 . S
C2231 C2230 1.376 . S
C2231 C2232 1.388 . S
C2232 H2219 0.930 . S
C2232 C2231 1.388 . S
C2232 C2233 1.390 . S
C2233 C2232 1.390 . S
C2233 C2234 1.394 . S
C2233 C2239 1.465 . S
C2234 C2229 1.399 . S
C2234 C2233 1.394 . S
C2234 C2235 1.516 . S
C2235 C2234 1.516 . S
C2235 C2236 1.502 . S
C2235 C2237 1.561 . S
C2235 C2238 1.526 . S
C2236 H2220 0.959 . S
C2236 H2221 0.959 . S
C2236 H2222 0.961 . S
C2236 C2235 1.502 . S
C2237 H2223 0.960 . S
C2237 H2224 0.961 . S
C2237 H2225 0.959 . S
C2237 C2235 1.561 . S
C2238 C2235 1.526 . S
C2238 C2239 1.396 . S
C2238 C2243 1.390 . S
C2239 C2233 1.465 . S
C2239 C2238 1.396 . S
C2239 C2240 1.399 . S
C2240 H2226 0.929 . S
C2240 C2239 1.399 . S
C2240 C2241 1.385 . S
C2241 H2227 0.931 . S
C2241 C2240 1.385 . S
C2241 C2242 1.389 . S
C2242 C2241 1.389 . S
C2242 C2243 1.387 . S
C2243 H2228 0.930 . S
C2243 C2238 1.390 . S
C2243 C2242 1.387 . S
C973 C334 1.243 . S
C961 N2 1.359 . S
C1000 C434 2.144 . S
C988 C7 2.137 . S
C1027 C514 1.233 . S
C1015 N12 1.325 . S
C1042 C16 1.942 . S
C1054 C591 1.937 . S
C1081 C675 2.163 . S
C1069 C30 2.183 1_565 S
C1108 C754 1.065 . S
C1096 N35 1.303 . S
C1123 C39 2.017 . S
C1135 C854 2.016 . S
C1162 C934 1.063 . S
C1150 N25 1.249 . S
C1189 C332 1.040 . S
C1177 N58 1.097 . S
C1204 N81 1.849 . S
C1216 C427 1.880 . S
C1243 C518 1.181 . S
C1231 N104 1.165 . S
C1258 N127 1.129 . S
C1270 C586 0.941 . S
C1297 C670 0.878 . S
C1285 N48 0.848 . S
C1324 C752 1.453 . S
C1312 N71 1.361 1_556 S
C1339 N94 1.398 . S
C1351 C847 1.426 . S
C1378 C938 1.522 . S
C1366 N117 1.480 . S
C1393 C85 2.116 . S
C1405 C339 2.117 . S
C1420 C122 2.374 . S
C1432 C668 2.322 . S
C1447 C53 1.783 . S
C1459 C759 1.800 . S
C1486 C850 1.149 . S
C1474 C76 1.490 1_655 S
C1513 C931 1.759 . S
C1501 C99 1.842 . S
C1540 C511 1.935 . S
C1528 C131 1.954 . S
C1567 C584 1.930 . S
C1555 C62 1.950 . S
C1582 C108 1.154 . S
C1594 C430 1.077 . S
C1621 C922 1.185 . S
C1609 N140 1.333 . S
C1636 C145 2.124 . S
C1648 C686 2.144 . S
C1675 C766 1.215 . S
C1663 N150 1.264 . S
C1690 C154 1.946 . S
C1702 C843 1.935 . S
C1729 C423 2.152 . S
C1717 C168 2.197 . S
C1744 N173 1.105 . S
C1756 C502 1.074 . S
C1783 C602 2.025 . S
C1771 C177 2.050 . S
C1810 C346 1.207 . S
C1798 N163 1.173 . S
C1837 C920 1.525 . S
C1825 C200 1.542 . S
C1864 C679 2.172 . S
C1852 N219 2.149 . S
C1879 N242 1.417 . S
C1891 C770 1.448 . S
C1918 C838 1.251 . S
C1906 C269 1.455 . S
C1945 C418 0.832 . S
C1933 C191 1.151 . S
C1960 N209 1.675 . S
C1972 C500 1.686 . S
C1987 N232 1.733 . S
C1999 C595 1.756 . S
C2014 C260 2.019 . S
C2026 C350 2.020 . S
C2041 C223 1.786 . S
C2053 C927 1.794 . S
C2068 N255 1.938 . S
C2080 C416 1.930 . S
C2095 N186 1.335 . S
C2107 C507 1.431 . S
C2134 C598 1.043 . S
C2122 C214 1.160 . S
C2161 C343 1.474 . S
C2149 C237 1.505 . S
C2188 C763 1.466 . S
C2176 N265 1.437 . S
C2215 C836 1.499 . S
C2203 N196 1.556 . S
C2242 C682 0.784 . S
C2230 C246 0.855 . S
