# Generated by pormake.
# Topology scu, (8,4)-cn, num edge types: 1
# Building blocks:
#     Node 0, Type 0, BuildingBlock: TAGTUT_clean_sbu_3, # of connection points: 8
#     Node 1, Type 1, BuildingBlock: KOZSID_clean_sbu_0, # of connection points: 4
#     Node 2, Type 1, BuildingBlock: KOZSID_clean_sbu_0, # of connection points: 4
#     Edge 3, Type (0, 1), BuildingBlock: CIFDUS_clean_linker_0, # of connection points: 2
#     Edge 4, Type (0, 1), BuildingBlock: CIFDUS_clean_linker_0, # of connection points: 2
#     Edge 5, Type (0, 1), BuildingBlock: CIFDUS_clean_linker_0, # of connection points: 2
#     Edge 6, Type (0, 1), BuildingBlock: CIFDUS_clean_linker_0, # of connection points: 2
#     Edge 7, Type (0, 1), BuildingBlock: CIFDUS_clean_linker_0, # of connection points: 2
#     Edge 8, Type (0, 1), BuildingBlock: CIFDUS_clean_linker_0, # of connection points: 2
#     Edge 9, Type (0, 1), BuildingBlock: CIFDUS_clean_linker_0, # of connection points: 2
#     Edge 10, Type (0, 1), BuildingBlock: CIFDUS_clean_linker_0, # of connection points: 2
# Relax obj value: 0.022
# Max RMSD: 0.099
# Mean RMSD: 0.064
data_MOF--net-scu--node1-TAGTUT_clean_sbu_3--node2-KOZSID_clean_sbu_0--edge1-CIFDUS_clean_linker_0
_symmetry_space_group_name_H-M    P1
_symmetry_Int_Tables_number       1
_symmetry_cell_setting            triclinic
loop_
_symmetry_equiv_pos_as_xyz
'x, y, z'
_cell_length_a     27.598142
_cell_length_b     23.107121
_cell_length_c     19.080563
_cell_angle_alpha  84.6317
_cell_angle_beta   86.76905
_cell_angle_gamma 89.964621
loop_
_atom_site_label
_atom_site_type_symbol
_atom_site_fract_x
_atom_site_fract_y
_atom_site_fract_z
_atom_type_partial_charge
C0 C 0.0067 0.88967 0.10842 0.0
C1 C 0.82667 0.97514 0.09945 0.0
C2 C 0.86942 0.02484 0.88533 0.0
Mg3 Mg 0.10436 0.93371 0.01377 0.0
Mg4 Mg 0.11617 0.07295 0.96251 0.0
O5 O 0.07917 0.00472 0.95876 0.0
Mg6 Mg 0.0105 0.00395 -0.00127 0.0
O7 O 0.94219 -0.00146 0.04 0.0
Mg8 Mg 0.92062 0.92538 0.00184 0.0
Mg9 Mg 0.90206 0.06347 0.0229 0.0
C10 C 0.01913 0.12504 0.89797 0.0
O11 O 0.02189 0.07836 0.06786 0.0
O12 O 0.17384 0.94654 0.93762 0.0
O13 O 0.9507 0.12656 0.06145 0.0
O14 O 0.14347 0.98428 0.09038 0.0
O15 O 0.17618 0.04211 0.89885 0.0
O16 O 0.14326 0.08009 0.06686 0.0
O17 O 0.99312 0.92882 0.93319 0.0
O18 O 0.06389 0.88189 0.94024 0.0
C19 C 0.02038 0.8856 0.92036 0.0
C20 C 0.19323 0.99037 0.89933 0.0
O21 O 0.99508 0.07757 0.91416 0.0
O22 O 0.85052 0.93252 0.07563 0.0
O23 O 0.06243 0.13314 0.91712 0.0
O24 O 0.87995 0.97354 0.91098 0.0
O25 O 0.83994 0.02837 0.08607 0.0
O26 O 0.88048 0.06944 0.91591 0.0
O27 O 0.03168 0.9334 0.08101 0.0
O28 O 0.96353 0.87996 0.09072 0.0
C29 C 0.155 0.03478 0.10558 0.0
C30 C 0.99476 0.12197 0.08014 0.0
C31 C 0.06804 0.6075 0.42996 0.0
C32 C 0.11552 0.62673 0.41516 0.0
C33 C 0.145 0.58216 0.43903 0.0
C34 C 0.11404 0.53864 0.46762 0.0
N35 N 0.06705 0.55337 0.46352 0.0
Co36 Co 0.01042 0.50535 0.50108 0.0
N37 N 0.051 0.45677 0.56502 0.0
C38 C 0.09949 0.45066 0.55731 0.0
C39 C 0.11745 0.41157 0.60779 0.0
C40 C 0.07773 0.39167 0.64942 0.0
C41 C 0.03751 0.42021 0.62215 0.0
N42 N 0.95377 0.4573 0.53875 0.0
C43 C 0.94804 0.4222 0.59949 0.0
C44 C 0.90177 0.39797 0.6069 0.0
C45 C 0.87851 0.4175 0.54756 0.0
C46 C 0.91148 0.45297 0.5077 0.0
N47 N 0.97013 0.55338 0.43629 0.0
C48 C 0.92695 0.53821 0.41397 0.0
C49 C 0.90834 0.58029 0.3675 0.0
C50 C 0.9421 0.62436 0.36025 0.0
C51 C 0.97944 0.60671 0.40324 0.0
N52 N 0.02332 0.45268 0.42806 0.0
C53 C 0.02965 0.37888 0.32027 0.0
C54 C 0.02284 0.35619 0.39079 0.0
C55 C 0.01964 0.39386 0.44392 0.0
C56 C 0.03604 0.43885 0.30512 0.0
C57 C 0.03317 0.47491 0.35976 0.0
N58 N 0.99716 0.55862 0.57321 0.0
C59 C 0.94264 0.62487 0.62742 0.0
C60 C 0.98038 0.64483 0.6648 0.0
C61 C 0.02629 0.61948 0.65725 0.0
C62 C 0.034 0.57673 0.61089 0.0
C63 C 0.95162 0.5811 0.58269 0.0
H64 H 0.07008 0.55949 0.60397 0.0
H65 H 0.92197 0.56655 0.55428 0.0
H66 H 0.01234 0.37551 0.49752 0.0
H67 H 0.03705 0.52109 0.34631 0.0
C68 C 0.12723 0.48895 0.50985 0.0
C69 C 0.02468 0.63932 0.40767 0.0
C70 C 0.98695 0.40768 0.64757 0.0
C71 C 0.90148 0.49008 0.44787 0.0
H72 H 0.12771 0.66844 0.38988 0.0
H73 H 0.18424 0.58262 0.43861 0.0
H74 H 0.15502 0.40014 0.61485 0.0
H75 H 0.07844 0.35918 0.69401 0.0
H76 H 0.88643 0.36896 0.65026 0.0
H77 H 0.84137 0.40869 0.5363 0.0
H78 H 0.87356 0.58011 0.34401 0.0
H79 H 0.93953 0.66466 0.3269 0.0
H80 H 0.01745 0.31 0.40456 0.0
H81 H 0.0419 0.4579 0.25123 0.0
H82 H 0.90658 0.6431 0.63254 0.0
H83 H 0.05646 0.63406 0.68514 0.0
C84 C 0.44564 0.93639 0.61437 0.0
C85 C 0.43172 0.88329 0.6501 0.0
C86 C 0.46328 0.84262 0.62672 0.0
C87 C 0.49409 0.8726 0.57731 0.0
N88 N 0.48388 0.9297 0.56822 0.0
Co89 Co 0.51605 0.98791 0.49733 0.0
N90 N 0.54294 0.92621 0.44061 0.0
C91 C 0.54468 0.86899 0.4618 0.0
C92 C 0.56312 0.83626 0.4103 0.0
C93 C 0.57469 0.87537 0.35352 0.0
C94 C 0.56336 0.93016 0.37406 0.0
N95 N 0.5491 0.04645 0.42776 0.0
C96 C 0.57194 0.04026 0.36406 0.0
C97 C 0.59351 0.09243 0.33603 0.0
C98 C 0.58434 0.132 0.38405 0.0
C99 C 0.55795 0.1022 0.43877 0.0
N100 N 0.48834 0.04903 0.55366 0.0
C101 C 0.50395 0.10426 0.55157 0.0
C102 C 0.47733 0.13631 0.59699 0.0
C103 C 0.44278 0.09871 0.62957 0.0
C104 C 0.45026 0.04583 0.60175 0.0
N105 N 0.57425 0.98467 0.55201 0.0
C106 C 0.65797 0.98558 0.62804 0.0
C107 C 0.61208 0.99098 0.66182 0.0
C108 C 0.5706 0.9896 0.62304 0.0
C109 C 0.66125 0.9789 0.55602 0.0
C110 C 0.61912 0.97916 0.5189 0.0
N111 N 0.45801 0.99154 0.44253 0.0
C112 C 0.40112 0.04634 0.37141 0.0
C113 C 0.37593 0.9953 0.36125 0.0
C114 C 0.39207 0.94278 0.39517 0.0
C115 C 0.43334 0.94172 0.43412 0.0
C116 C 0.44165 0.04357 0.41273 0.0
H117 H 0.44535 0.90027 0.45715 0.0
H118 H 0.4601 0.08353 0.41976 0.0
H119 H 0.53559 0.99294 0.65045 0.0
H120 H 0.62318 0.97541 0.46319 0.0
C121 C 0.52336 0.84695 0.52692 0.0
C122 C 0.42277 0.99257 0.62521 0.0
C123 C 0.57993 0.98453 0.33353 0.0
C124 C 0.53739 0.12635 0.49807 0.0
H125 H 0.40123 0.87386 0.68738 0.0
H126 H 0.46138 0.79607 0.64005 0.0
H127 H 0.56698 0.7895 0.41324 0.0
H128 H 0.5914 0.86496 0.30359 0.0
H129 H 0.61523 0.10093 0.28723 0.0
H130 H 0.59558 0.17713 0.3795 0.0
H131 H 0.48119 0.18207 0.60353 0.0
H132 H 0.41534 0.10893 0.66926 0.0
H133 H 0.60831 0.99552 0.71787 0.0
H134 H 0.69624 0.97449 0.52833 0.0
H135 H 0.39058 0.08805 0.34634 0.0
H136 H 0.3733 0.90217 0.39142 0.0
H137 H 0.96562 0.23379 0.07886 0.0
H138 H 0.0663 0.11122 0.17377 0.0
H139 H 0.08909 0.18192 0.25385 0.0
H140 H 0.07413 0.27529 0.30451 0.0
H141 H 0.97392 0.39747 0.20792 0.0
H142 H 0.95745 0.33043 0.12058 0.0
C143 C 0.99284 0.22275 0.11671 0.0
C144 C 0.01361 0.16714 0.12128 0.0
C145 C 0.00563 0.26343 0.16254 0.0
C146 C 0.04962 0.15376 0.16944 0.0
C147 C 0.06247 0.19403 0.21552 0.0
C148 C 0.0491 0.28725 0.26381 0.0
C149 C 0.025 0.3409 0.26278 0.0
C150 C 0.03972 0.24842 0.21378 0.0
C151 C 0.99309 0.35648 0.20942 0.0
C152 C 0.98342 0.31806 0.15978 0.0
H153 H 0.73668 0.01628 0.0783 0.0
H154 H 0.81932 0.90872 0.22436 0.0
H155 H 0.74936 0.90108 0.30992 0.0
H156 H 0.66724 0.93214 0.34614 0.0
H157 H 0.58138 0.03139 0.1964 0.0
H158 H 0.65023 0.03579 0.10873 0.0
C159 C 0.73886 0.99042 0.12849 0.0
C160 C 0.78274 0.96324 0.14568 0.0
C161 C 0.69828 0.98537 0.17654 0.0
C162 C 0.7856 0.92961 0.21034 0.0
C163 C 0.7458 0.9256 0.25922 0.0
C164 C 0.66326 0.95349 0.29369 0.0
C165 C 0.61948 0.98154 0.27745 0.0
C166 C 0.70232 0.95421 0.24333 0.0
C167 C 0.61487 0.00967 0.20976 0.0
C168 C 0.65416 0.01219 0.15989 0.0
H169 H 0.98185 0.87913 0.24621 0.0
H170 H 0.07503 0.80834 0.0872 0.0
H171 H 0.09477 0.72591 0.17125 0.0
H172 H 0.07444 0.66757 0.28344 0.0
H173 H 0.98155 0.73854 0.4428 0.0
H174 H 0.97261 0.82826 0.36538 0.0
C175 C 0.00756 0.84633 0.23105 0.0
C176 C 0.02711 0.84888 0.16153 0.0
C177 C 0.0182 0.79933 0.27929 0.0
C178 C 0.06006 0.8067 0.1411 0.0
C179 C 0.07097 0.75964 0.18884 0.0
C180 C 0.05396 0.70375 0.30208 0.0
C181 C 0.02911 0.69742 0.36856 0.0
C182 C 0.04883 0.75456 0.25722 0.0
C183 C 1.00131 0.74339 0.39186 0.0
C184 C 0.99599 0.79424 0.34756 0.0
H185 H 0.2175 0.95165 0.1467 0.0
H186 H 0.17406 0.12548 0.18622 0.0
H187 H 0.23778 0.12839 0.27136 0.0
H188 H 0.30701 0.08074 0.33257 0.0
H189 H 0.35302 0.91082 0.27769 0.0
H190 H 0.28639 0.90715 0.20153 0.0
C191 C 0.22124 0.99015 0.17447 0.0
C192 C 0.19045 0.03797 0.16087 0.0
C193 C 0.25855 0.99212 0.22079 0.0
C194 C 0.19702 0.0879 0.19612 0.0
C195 C 0.23353 0.08953 0.24458 0.0
C196 C 0.30279 0.04308 0.30361 0.0
C197 C 0.33491 0.99549 0.31298 0.0
C198 C 0.26488 0.0419 0.25691 0.0
C199 C 0.32832 0.94724 0.2745 0.0
C200 C 0.29035 0.94524 0.22991 0.0
H201 H 0.96957 0.88256 0.80168 0.0
H202 H 0.03058 0.77433 0.97076 0.0
H203 H 0.01842 0.68818 0.90935 0.0
H204 H 1.00172 0.64573 0.80071 0.0
H205 H 0.94274 0.75214 0.62878 0.0
H206 H 0.94226 0.83658 0.6978 0.0
C207 C 0.9788 0.83983 0.8256 0.0
C208 C 1.00138 0.83457 0.89002 0.0
C209 C 0.97289 0.79033 0.78891 0.0
C210 C 0.01357 0.77921 0.92071 0.0
C211 C 0.00685 0.72999 0.88557 0.0
C212 C 0.98817 0.6873 0.77891 0.0
C213 C 0.97295 0.69319 0.70979 0.0
C214 C 0.98847 0.73538 0.81846 0.0
C215 C 0.95472 0.74684 0.6821 0.0
C216 C 0.95467 0.7951 0.72138 0.0
H217 H 0.21438 0.03561 0.76531 0.0
H218 H 0.27223 0.92697 0.93659 0.0
H219 H 0.34966 0.92048 0.86834 0.0
H220 H 0.40168 0.94938 0.76171 0.0
H221 H 0.34073 0.04748 0.58483 0.0
H222 H 0.26402 0.05652 0.65421 0.0
C223 C 0.24392 0.01016 0.78725 0.0
C224 C 0.23796 0.98191 0.8557 0.0
C225 C 0.28771 0.00543 0.74705 0.0
C226 C 0.2761 0.94867 0.88371 0.0
C227 C 0.32036 0.94531 0.84495 0.0
C228 C 0.37108 0.97114 0.7377 0.0
C229 C 0.37618 0.99631 0.66769 0.0
C230 C 0.32663 0.97379 0.77675 0.0
C231 C 0.3372 0.02712 0.63839 0.0
C232 C 0.29345 0.03213 0.67792 0.0
H233 H 0.0202 0.2395 0.9146 0.0
H234 H 0.96958 0.11462 0.78082 0.0
H235 H 0.94785 0.19343 0.69342 0.0
H236 H 0.95654 0.29631 0.64789 0.0
H237 H 1.00334 0.4217 0.78365 0.0
H238 H 0.01312 0.34415 0.87844 0.0
C239 C 1.00358 0.22985 0.86678 0.0
C240 C 0.99744 0.17183 0.85285 0.0
C241 C 0.99083 0.27525 0.81743 0.0
C242 C 0.97494 0.15925 0.7919 0.0
C243 C 0.96274 0.20418 0.74197 0.0
C244 C 0.96667 0.30687 0.69933 0.0
C245 C 0.97889 0.36437 0.70946 0.0
C246 C 0.97223 0.26218 0.75312 0.0
C247 C 0.99335 0.3776 0.77546 0.0
C248 C 0.99936 0.3333 0.82918 0.0
H249 H 0.84432 0.94228 0.80096 0.0
H250 H 0.81864 0.12141 0.83863 0.0
H251 H 0.75114 0.12541 0.76102 0.0
H252 H 0.69414 0.07497 0.69157 0.0
H253 H 0.72116 0.89708 0.65169 0.0
H254 H 0.79304 0.8953 0.72167 0.0
C255 C 0.82453 0.98255 0.79135 0.0
C256 C 0.83627 0.03121 0.82647 0.0
C257 C 0.78534 0.98438 0.74731 0.0
C258 C 0.81048 0.08319 0.81256 0.0
C259 C 0.7715 0.0854 0.76863 0.0
C260 C 0.71604 0.03605 0.69822 0.0
C261 C 0.70234 0.98592 0.66781 0.0
C262 C 0.75768 0.03576 0.73749 0.0
C263 C 0.73112 0.9359 0.67534 0.0
C264 C 0.77213 0.93497 0.71514 0.0
loop_
_geom_bond_atom_site_label_1
_geom_bond_atom_site_label_2
_geom_bond_distance
_geom_bond_site_symmetry_2
_ccdc_geom_bond_type
C0 O27 1.312 1_655 S
C0 O28 1.208 . S
C1 O22 1.331 . S
C1 O25 1.244 1_565 S
C2 O24 1.264 1_545 S
C2 O26 1.273 . S
Mg3 O5 1.936 1_565 S
Mg3 O12 2.081 . S
Mg3 O14 2.023 1_556 S
Mg3 O18 2.031 . S
Mg3 O27 2.291 1_556 S
Mg4 O5 1.963 . S
Mg4 O15 1.942 . S
Mg4 O16 1.955 1_556 S
Mg4 O23 1.986 . S
O5 Mg3 1.936 1_545 S
O5 Mg4 1.963 . S
O5 Mg6 1.912 1_556 S
Mg6 O5 1.912 1_554 S
Mg6 O7 1.918 1_455 S
Mg6 O11 2.022 . S
Mg6 O17 2.106 1_444 S
Mg6 O21 2.004 1_454 S
Mg6 O27 2.121 1_545 S
O7 Mg6 1.918 1_655 S
O7 Mg8 1.936 1_545 S
O7 Mg9 1.963 . S
Mg8 O7 1.936 1_565 S
Mg8 O17 2.291 1_554 S
Mg8 O22 2.081 . S
Mg8 O24 2.023 1_554 S
Mg8 O28 2.031 . S
Mg9 O7 1.963 . S
Mg9 O13 1.986 . S
Mg9 O25 1.942 . S
Mg9 O26 1.955 1_554 S
C10 O21 1.191 1_455 S
C10 O23 1.307 . S
O11 Mg6 2.022 . S
O11 C30 1.191 1_455 S
O12 Mg3 2.081 . S
O12 C20 1.331 . S
O13 Mg9 1.986 . S
O13 C30 1.307 . S
O14 Mg3 2.023 1_554 S
O14 C29 1.264 1_565 S
O15 Mg4 1.942 . S
O15 C20 1.244 1_545 S
O16 Mg4 1.955 1_554 S
O16 C29 1.273 . S
O17 Mg6 2.106 1_666 S
O17 Mg8 2.291 1_556 S
O17 C19 1.312 1_655 S
O18 Mg3 2.031 . S
O18 C19 1.208 . S
C19 O17 1.312 1_455 S
C19 O18 1.208 . S
C20 O12 1.331 . S
C20 O15 1.244 1_565 S
O21 Mg6 2.004 1_656 S
O21 C10 1.191 1_655 S
O22 C1 1.331 . S
O22 Mg8 2.081 . S
O23 Mg4 1.986 . S
O23 C10 1.307 . S
O24 C2 1.264 1_565 S
O24 Mg8 2.023 1_556 S
O25 C1 1.244 1_545 S
O25 Mg9 1.942 . S
O26 C2 1.273 . S
O26 Mg9 1.955 1_556 S
O27 C0 1.312 1_455 S
O27 Mg3 2.291 1_554 S
O27 Mg6 2.121 1_565 S
O28 C0 1.208 . S
O28 Mg8 2.031 . S
C29 O14 1.264 1_545 S
C29 O16 1.273 . S
C30 O11 1.191 1_655 S
C30 O13 1.307 . S
C31 C32 1.443 . S
C31 N35 1.376 . S
C31 C69 1.389 . S
C32 C31 1.443 . S
C32 C33 1.340 . S
C32 H72 0.951 . S
C33 C32 1.340 . S
C33 C34 1.439 . S
C33 H73 0.950 . S
C34 C33 1.439 . S
C34 N35 1.374 . S
C34 C68 1.395 . S
N35 C31 1.376 . S
N35 C34 1.374 . S
N35 Co36 2.008 . S
Co36 N35 2.008 . S
Co36 N37 1.995 . S
Co36 N42 2.008 1_455 S
Co36 N47 1.995 1_455 S
Co36 N52 2.282 . S
Co36 N58 2.282 . S
N37 Co36 1.995 . S
N37 C38 1.376 . S
N37 C41 1.383 . S
C38 N37 1.376 . S
C38 C39 1.446 . S
C38 C68 1.391 . S
C39 C38 1.446 . S
C39 C40 1.339 . S
C39 H74 0.949 . S
C40 C39 1.339 . S
C40 C41 1.439 . S
C40 H75 0.950 . S
C41 N37 1.383 . S
C41 C40 1.439 . S
C41 C70 1.392 . S
N42 Co36 2.008 1_655 S
N42 C43 1.376 . S
N42 C46 1.374 . S
C43 N42 1.376 . S
C43 C44 1.443 . S
C43 C70 1.389 1_655 S
C44 C43 1.443 . S
C44 C45 1.340 . S
C44 H76 0.951 . S
C45 C44 1.340 . S
C45 C46 1.439 . S
C45 H77 0.950 . S
C46 N42 1.374 . S
C46 C45 1.439 . S
C46 C71 1.395 . S
N47 Co36 1.995 1_655 S
N47 C48 1.376 . S
N47 C51 1.383 . S
C48 N47 1.376 . S
C48 C49 1.446 . S
C48 C71 1.391 . S
C49 C48 1.446 . S
C49 C50 1.339 . S
C49 H78 0.949 . S
C50 C49 1.339 . S
C50 C51 1.439 . S
C50 H79 0.950 . S
C51 N47 1.383 . S
C51 C50 1.439 . S
C51 C69 1.392 1_655 S
N52 Co36 2.282 . S
N52 C55 1.332 1_455 S
N52 C57 1.332 . S
C53 C54 1.386 1_455 S
C53 C56 1.388 . S
C54 C53 1.386 1_655 S
C54 C55 1.382 . S
C54 H80 0.950 . S
C55 N52 1.332 1_655 S
C55 C54 1.382 . S
C55 H66 0.952 . S
C56 C53 1.388 . S
C56 C57 1.382 . S
C56 H81 0.950 . S
C57 N52 1.332 . S
C57 C56 1.382 . S
C57 H67 0.948 . S
N58 Co36 2.282 . S
N58 C62 1.332 . S
N58 C63 1.332 1_455 S
C59 C60 1.388 1_655 S
C59 C63 1.382 . S
C59 H82 0.950 . S
C60 C59 1.388 1_455 S
C60 C61 1.386 . S
C61 C60 1.386 . S
C61 C62 1.382 . S
C61 H83 0.950 . S
C62 N58 1.332 . S
C62 C61 1.382 . S
C62 H64 0.952 . S
C63 N58 1.332 1_655 S
C63 C59 1.382 . S
C63 H65 0.948 . S
H64 C62 0.952 . S
H65 C63 0.948 . S
H66 C55 0.952 . S
H67 C57 0.948 . S
C68 C34 1.395 . S
C68 C38 1.391 . S
C69 C31 1.389 . S
C69 C51 1.392 1_455 S
C70 C41 1.392 . S
C70 C43 1.389 1_455 S
C71 C46 1.395 . S
C71 C48 1.391 . S
H72 C32 0.951 . S
H73 C33 0.950 . S
H74 C39 0.949 . S
H75 C40 0.950 . S
H76 C44 0.951 . S
H77 C45 0.950 . S
H78 C49 0.949 . S
H79 C50 0.950 . S
H80 C54 0.950 . S
H81 C56 0.950 . S
H82 C59 0.950 . S
H83 C61 0.950 . S
C84 C85 1.443 . S
C84 N88 1.376 . S
C84 C122 1.371 1_565 S
C85 C84 1.443 . S
C85 C86 1.340 . S
C85 H125 0.951 . S
C86 C85 1.340 . S
C86 C87 1.439 . S
C86 H126 0.950 . S
C87 C86 1.439 . S
C87 N88 1.374 . S
C87 C121 1.395 . S
N88 C84 1.376 . S
N88 C87 1.374 . S
N88 Co89 2.008 1_565 S
Co89 N88 2.008 1_545 S
Co89 N90 1.995 1_545 S
Co89 N95 2.008 . S
Co89 N100 1.995 . S
Co89 N105 2.282 1_545 S
Co89 N111 2.282 . S
N90 Co89 1.995 1_565 S
N90 C91 1.376 . S
N90 C94 1.383 . S
C91 N90 1.376 . S
C91 C92 1.446 . S
C91 C121 1.391 . S
C92 C91 1.446 . S
C92 C93 1.339 . S
C92 H127 0.949 . S
C93 C92 1.339 . S
C93 C94 1.439 . S
C93 H128 0.950 . S
C94 N90 1.383 . S
C94 C93 1.439 . S
C94 C123 1.392 1_565 S
N95 Co89 2.008 . S
N95 C96 1.376 . S
N95 C99 1.374 . S
C96 N95 1.376 . S
C96 C97 1.443 . S
C96 C123 1.389 . S
C97 C96 1.443 . S
C97 C98 1.340 . S
C97 H129 0.951 . S
C98 C97 1.340 . S
C98 C99 1.439 . S
C98 H130 0.950 . S
C99 N95 1.374 . S
C99 C98 1.439 . S
C99 C124 1.395 . S
N100 Co89 1.995 . S
N100 C101 1.376 . S
N100 C104 1.383 . S
C101 N100 1.376 . S
C101 C102 1.446 . S
C101 C124 1.391 . S
C102 C101 1.446 . S
C102 C103 1.339 . S
C102 H131 0.949 . S
C103 C102 1.339 . S
C103 C104 1.439 . S
C103 H132 0.950 . S
C104 N100 1.383 . S
C104 C103 1.439 . S
C104 C122 1.409 . S
N105 Co89 2.282 1_565 S
N105 C108 1.332 1_565 S
N105 C110 1.332 . S
C106 C107 1.386 . S
C106 C109 1.388 1_545 S
C107 C106 1.386 . S
C107 C108 1.382 . S
C107 H133 0.950 . S
C108 N105 1.332 1_545 S
C108 C107 1.382 . S
C108 H119 0.952 . S
C109 C106 1.388 1_565 S
C109 C110 1.382 . S
C109 H134 0.950 . S
C110 N105 1.332 . S
C110 C109 1.382 . S
C110 H120 0.948 . S
N111 Co89 2.282 . S
N111 C115 1.332 1_545 S
N111 C116 1.332 . S
C112 C113 1.388 . S
C112 C116 1.382 . S
C112 H135 0.950 . S
C113 C112 1.388 . S
C113 C114 1.386 1_545 S
C114 C113 1.386 1_565 S
C114 C115 1.382 . S
C114 H136 0.950 . S
C115 N111 1.332 1_565 S
C115 C114 1.382 . S
C115 H117 0.952 . S
C116 N111 1.332 . S
C116 C112 1.382 . S
C116 H118 0.948 . S
H117 C115 0.952 . S
H118 C116 0.948 . S
H119 C108 0.952 . S
H120 C110 0.948 . S
C121 C87 1.395 . S
C121 C91 1.391 . S
C122 C84 1.371 1_545 S
C122 C104 1.409 . S
C123 C94 1.392 1_545 S
C123 C96 1.389 . S
C124 C99 1.395 . S
C124 C101 1.391 . S
H125 C85 0.951 . S
H126 C86 0.950 . S
H127 C92 0.949 . S
H128 C93 0.950 . S
H129 C97 0.951 . S
H130 C98 0.950 . S
H131 C102 0.949 . S
H132 C103 0.950 . S
H133 C107 0.950 . S
H134 C109 0.950 . S
H135 C112 0.950 . S
H136 C114 0.950 . S
H137 C143 0.930 . S
H138 C146 0.930 . S
H139 C147 0.930 . S
H140 C148 0.930 . S
H141 C151 0.930 . S
H142 C152 0.930 . S
C143 H137 0.930 . S
C143 C144 1.355 1_455 S
C143 C145 1.415 . S
C144 C143 1.355 1_655 S
C144 C146 1.419 . S
C145 C143 1.415 . S
C145 C150 1.425 1_455 S
C145 C152 1.409 . S
C146 H138 0.930 . S
C146 C144 1.419 . S
C146 C147 1.362 . S
C147 H139 0.930 . S
C147 C146 1.362 . S
C147 C150 1.409 . S
C148 H140 0.930 . S
C148 C149 1.355 1_655 S
C148 C150 1.415 . S
C149 C148 1.355 1_455 S
C149 C151 1.419 . S
C150 C145 1.425 1_655 S
C150 C147 1.409 . S
C150 C148 1.415 . S
C151 H141 0.930 . S
C151 C149 1.419 . S
C151 C152 1.362 . S
C152 H142 0.930 . S
C152 C145 1.409 . S
C152 C151 1.362 . S
H153 C159 0.930 . S
H154 C162 0.930 . S
H155 C163 0.930 . S
H156 C164 0.930 . S
H157 C167 0.930 . S
H158 C168 0.930 . S
C159 H153 0.930 . S
C159 C160 1.355 . S
C159 C161 1.415 . S
C160 C159 1.355 . S
C160 C162 1.419 1_565 S
C161 C159 1.415 . S
C161 C166 1.425 1_565 S
C161 C168 1.409 . S
C162 H154 0.930 . S
C162 C160 1.419 1_545 S
C162 C163 1.362 . S
C163 H155 0.930 . S
C163 C162 1.362 . S
C163 C166 1.409 . S
C164 H156 0.930 . S
C164 C165 1.355 1_545 S
C164 C166 1.415 . S
C165 C164 1.355 1_565 S
C165 C167 1.419 . S
C166 C161 1.425 1_545 S
C166 C163 1.409 . S
C166 C164 1.415 . S
C167 H157 0.930 . S
C167 C165 1.419 . S
C167 C168 1.362 . S
C168 H158 0.930 . S
C168 C161 1.409 . S
C168 C167 1.362 . S
H169 C175 0.930 . S
H170 C178 0.930 . S
H171 C179 0.930 . S
H172 C180 0.930 . S
H173 C183 0.930 . S
H174 C184 0.930 . S
C175 H169 0.930 . S
C175 C176 1.355 1_655 S
C175 C177 1.415 . S
C176 C175 1.355 1_455 S
C176 C178 1.419 . S
C177 C175 1.415 . S
C177 C182 1.425 1_655 S
C177 C184 1.409 . S
C178 H170 0.930 . S
C178 C176 1.419 . S
C178 C179 1.362 . S
C179 H171 0.930 . S
C179 C178 1.362 . S
C179 C182 1.409 . S
C180 H172 0.930 . S
C180 C181 1.355 1_455 S
C180 C182 1.415 . S
C181 C180 1.355 1_655 S
C181 C183 1.419 . S
C182 C177 1.425 1_455 S
C182 C179 1.409 . S
C182 C180 1.415 . S
C183 H173 0.930 . S
C183 C181 1.419 . S
C183 C184 1.362 . S
C184 H174 0.930 . S
C184 C177 1.409 . S
C184 C183 1.362 . S
H185 C191 0.930 . S
H186 C194 0.930 . S
H187 C195 0.930 . S
H188 C196 0.930 . S
H189 C199 0.930 . S
H190 C200 0.930 . S
C191 H185 0.930 . S
C191 C192 1.355 . S
C191 C193 1.415 . S
C192 C191 1.355 . S
C192 C194 1.419 . S
C193 C191 1.415 . S
C193 C198 1.425 . S
C193 C200 1.409 . S
C194 H186 0.930 . S
C194 C192 1.419 . S
C194 C195 1.362 . S
C195 H187 0.930 . S
C195 C194 1.362 . S
C195 C198 1.409 . S
C196 H188 0.930 . S
C196 C197 1.355 . S
C196 C198 1.415 . S
C197 C196 1.355 . S
C197 C199 1.419 . S
C198 C193 1.425 . S
C198 C195 1.409 . S
C198 C196 1.415 . S
C199 H189 0.930 . S
C199 C197 1.419 . S
C199 C200 1.362 . S
C200 H190 0.930 . S
C200 C193 1.409 . S
C200 C199 1.362 . S
H201 C207 0.930 . S
H202 C210 0.930 . S
H203 C211 0.930 . S
H204 C212 0.929 1_655 S
H205 C215 0.930 . S
H206 C216 0.930 . S
C207 H201 0.930 . S
C207 C208 1.355 . S
C207 C209 1.415 . S
C208 C207 1.355 . S
C208 C210 1.419 1_455 S
C209 C207 1.415 . S
C209 C214 1.425 . S
C209 C216 1.409 . S
C210 H202 0.930 . S
C210 C208 1.419 1_655 S
C210 C211 1.362 . S
C211 H203 0.930 . S
C211 C210 1.362 . S
C211 C214 1.409 1_655 S
C212 H204 0.929 1_455 S
C212 C213 1.355 . S
C212 C214 1.415 . S
C213 C212 1.355 . S
C213 C215 1.419 . S
C214 C209 1.425 . S
C214 C211 1.409 1_455 S
C214 C212 1.415 . S
C215 H205 0.930 . S
C215 C213 1.419 . S
C215 C216 1.362 . S
C216 H206 0.930 . S
C216 C209 1.409 . S
C216 C215 1.362 . S
H217 C223 0.930 . S
H218 C226 0.930 . S
H219 C227 0.930 . S
H220 C228 0.930 . S
H221 C231 0.930 . S
H222 C232 0.930 . S
C223 H217 0.930 . S
C223 C224 1.355 . S
C223 C225 1.415 . S
C224 C223 1.355 . S
C224 C226 1.419 1_565 S
C225 C223 1.415 . S
C225 C230 1.425 1_565 S
C225 C232 1.409 . S
C226 H218 0.930 . S
C226 C224 1.419 1_545 S
C226 C227 1.362 . S
C227 H219 0.930 . S
C227 C226 1.362 . S
C227 C230 1.409 . S
C228 H220 0.930 . S
C228 C229 1.352 1_545 S
C228 C230 1.415 . S
C229 C228 1.352 1_565 S
C229 C231 1.422 . S
C230 C225 1.425 1_545 S
C230 C227 1.409 . S
C230 C228 1.415 . S
C231 H221 0.930 . S
C231 C229 1.422 . S
C231 C232 1.362 . S
C232 H222 0.930 . S
C232 C225 1.409 . S
C232 C231 1.362 . S
H233 C239 0.930 . S
H234 C242 0.930 . S
H235 C243 0.930 . S
H236 C244 0.930 . S
H237 C247 0.930 . S
H238 C248 0.930 . S
C239 H233 0.930 . S
C239 C240 1.355 . S
C239 C241 1.415 . S
C240 C239 1.355 . S
C240 C242 1.419 1_455 S
C241 C239 1.415 . S
C241 C246 1.425 1_455 S
C241 C248 1.409 . S
C242 H234 0.930 . S
C242 C240 1.419 1_655 S
C242 C243 1.362 . S
C243 H235 0.930 . S
C243 C242 1.362 . S
C243 C246 1.409 . S
C244 H236 0.930 . S
C244 C245 1.355 1_655 S
C244 C246 1.415 . S
C245 C244 1.355 1_455 S
C245 C247 1.419 . S
C246 C241 1.425 1_655 S
C246 C243 1.409 . S
C246 C244 1.415 . S
C247 H237 0.930 . S
C247 C245 1.419 . S
C247 C248 1.362 . S
C248 H238 0.930 . S
C248 C241 1.409 . S
C248 C247 1.362 . S
H249 C255 0.930 . S
H250 C258 0.930 . S
H251 C259 0.930 . S
H252 C260 0.930 . S
H253 C263 0.930 . S
H254 C264 0.930 . S
C255 H249 0.930 . S
C255 C256 1.355 1_565 S
C255 C257 1.415 . S
C256 C255 1.355 1_545 S
C256 C258 1.419 . S
C257 C255 1.415 . S
C257 C262 1.425 1_565 S
C257 C264 1.409 . S
C258 H250 0.930 . S
C258 C256 1.419 . S
C258 C259 1.362 . S
C259 H251 0.930 . S
C259 C258 1.362 . S
C259 C262 1.409 . S
C260 H252 0.930 . S
C260 C261 1.355 1_545 S
C260 C262 1.415 . S
C261 C260 1.355 1_565 S
C261 C263 1.419 . S
C262 C257 1.425 1_545 S
C262 C259 1.409 . S
C262 C260 1.415 . S
C263 H253 0.930 . S
C263 C261 1.419 . S
C263 C264 1.362 . S
C264 H254 0.930 . S
C264 C257 1.409 . S
C264 C263 1.362 . S
C144 C30 1.311 . S
C149 C53 1.345 . S
C160 C1 1.579 . S
C165 C123 1.632 1_565 S
C176 C0 1.447 1_455 S
C181 C69 1.481 1_655 S
C192 C29 1.521 . S
C197 C113 1.523 . S
C208 C19 1.293 . S
C213 C60 1.368 . S
C224 C20 1.558 . S
C229 C122 1.623 1_565 S
C245 C70 1.470 . S
C240 C10 1.461 . S
C256 C2 1.521 . S
C261 C106 1.541 1_565 S
