# Generated by pormake.
# Topology pth, (4,4)-cn, num edge types: 1
# Building blocks:
#     Node 0, Type 0, BuildingBlock: NAHDIM_clean_sbu_0, # of connection points: 4
#     Node 1, Type 0, BuildingBlock: NAHDIM_clean_sbu_0, # of connection points: 4
#     Node 2, Type 0, BuildingBlock: NAHDIM_clean_sbu_0, # of connection points: 4
#     Node 3, Type 1, BuildingBlock: MUDLON_clean_sbu_0, # of connection points: 4
#     Node 4, Type 1, BuildingBlock: MUDLON_clean_sbu_0, # of connection points: 4
#     Node 5, Type 1, BuildingBlock: MUDLON_clean_sbu_0, # of connection points: 4
#     Edge 6, Type (0, 1), BuildingBlock: FUNLAD_clean_linker_1, # of connection points: 2
#     Edge 7, Type (0, 1), BuildingBlock: FUNLAD_clean_linker_1, # of connection points: 2
#     Edge 8, Type (0, 1), BuildingBlock: FUNLAD_clean_linker_1, # of connection points: 2
#     Edge 9, Type (0, 1), BuildingBlock: FUNLAD_clean_linker_1, # of connection points: 2
#     Edge 10, Type (0, 1), BuildingBlock: FUNLAD_clean_linker_1, # of connection points: 2
#     Edge 11, Type (0, 1), BuildingBlock: FUNLAD_clean_linker_1, # of connection points: 2
#     Edge 12, Type (0, 1), BuildingBlock: FUNLAD_clean_linker_1, # of connection points: 2
#     Edge 13, Type (0, 1), BuildingBlock: FUNLAD_clean_linker_1, # of connection points: 2
#     Edge 14, Type (0, 1), BuildingBlock: FUNLAD_clean_linker_1, # of connection points: 2
#     Edge 15, Type (0, 1), BuildingBlock: FUNLAD_clean_linker_1, # of connection points: 2
#     Edge 16, Type (0, 1), BuildingBlock: FUNLAD_clean_linker_1, # of connection points: 2
#     Edge 17, Type (0, 1), BuildingBlock: FUNLAD_clean_linker_1, # of connection points: 2
# Relax obj value: 0.076
# Max RMSD: 0.190
# Mean RMSD: 0.122
data_MOF--net-pth--node1-NAHDIM_clean_sbu_0--node2-MUDLON_clean_sbu_0--edge1-FUNLAD_clean_linker_1
_symmetry_space_group_name_H-M    P1
_symmetry_Int_Tables_number       1
_symmetry_cell_setting            triclinic
loop_
_symmetry_equiv_pos_as_xyz
'x, y, z'
_cell_length_a     23.570461
_cell_length_b     23.788014
_cell_length_c     61.902429
_cell_angle_alpha  92.013732
_cell_angle_beta   90.175387
_cell_angle_gamma 120.68227
loop_
_atom_site_label
_atom_site_type_symbol
_atom_site_fract_x
_atom_site_fract_y
_atom_site_fract_z
_atom_type_partial_charge
C0 C 0.06626 0.00606 0.12124 0.0
O1 O 0.00878 1.00222 0.12003 0.0
O2 O 0.07983 0.16329 0.10733 0.0
Zn3 Zn 0.09138 0.09762 0.08909 0.0
O4 O 0.00845 0.03422 0.07187 0.0
C5 C 0.17827 0.20164 0.06218 0.0
O6 O 0.14077 0.22465 0.06865 0.0
O7 O 0.11236 0.04492 0.10921 0.0
C8 C 0.97831 0.04914 0.05826 0.0
O9 O 1.00009 0.1109 0.05466 0.0
C10 C 0.02623 0.15573 0.11471 0.0
O11 O 0.97039 0.10093 0.11038 0.0
O12 O 0.16694 0.14679 0.0687 0.0
C13 C 0.02435 0.18385 0.39656 0.0
O14 O 0.96376 0.14402 0.40254 0.0
O15 O 0.02526 0.01955 0.39722 0.0
Zn16 Zn 0.04738 0.09358 0.41908 0.0
O17 O 0.9694 0.07028 0.43813 0.0
C18 C 0.13957 0.06713 0.44066 0.0
O19 O 0.10545 0.01076 0.42991 0.0
O20 O 0.07007 0.1736 0.40225 0.0
C21 C 0.94338 0.01823 0.44866 0.0
O22 O 0.96677 0.97871 0.44681 0.0
C23 C 0.96984 0.98928 0.38713 0.0
O24 O 0.9249 0.00478 0.39141 0.0
O25 O 0.12487 0.11115 0.43835 0.0
C26 C 0.10105 1.00101 0.72283 0.0
O27 O 0.039 0.96153 0.71689 0.0
O28 O 0.97841 0.0465 0.73485 0.0
Zn29 Zn 0.04569 0.04844 0.75576 0.0
O30 O 0.09055 0.13428 0.7732 0.0
C31 C 0.9438 0.92488 0.77194 0.0
O32 O 0.9152 0.91979 0.75317 0.0
O33 O 0.11506 0.04078 0.73897 0.0
C34 C 0.1253 0.13991 0.78976 0.0
O35 O 0.13067 0.08983 0.79513 0.0
C36 C 0.9828 0.09759 0.72734 0.0
O37 O 0.03314 0.1554 0.73316 0.0
O38 O 1.00019 0.97473 0.77647 0.0
Mg39 Mg 0.07246 0.6037 0.25696 0.0
C40 C 0.08865 0.52605 0.28826 0.0
O41 O 0.02491 0.50335 0.28642 0.0
C42 C 0.10071 0.68712 0.21965 0.0
O43 O 0.04115 0.63756 0.21504 0.0
C44 C 0.04431 0.5011 0.22438 0.0
O45 O 0.10904 0.53614 0.22599 0.0
O46 O 0.01075 0.51807 0.23601 0.0
O47 O 0.12754 0.57397 0.27703 0.0
O48 O 0.02066 0.63243 0.27966 0.0
C49 C 1.00334 0.67338 0.27527 0.0
O50 O 0.0104 0.69461 0.25559 0.0
O51 O 0.13035 0.68638 0.23674 0.0
Mg52 Mg 0.55199 0.07167 0.58265 0.0
C53 C 0.46141 0.09759 0.55821 0.0
O54 O 0.4249 0.0359 0.56304 0.0
C55 C 0.65058 0.08968 0.61476 0.0
O56 O 0.61741 0.02652 0.60987 0.0
C57 C 0.45516 0.03897 0.61612 0.0
O58 O 0.49407 0.10284 0.61806 0.0
O59 O 0.46792 0.00737 0.6019 0.0
O60 O 0.52129 0.12956 0.56485 0.0
O61 O 0.58616 0.0247 0.55955 0.0
C62 C 0.57829 0.02654 0.5393 0.0
O63 O 0.54227 0.05002 0.53228 0.0
O64 O 0.63423 0.12627 0.60543 0.0
Mg65 Mg 0.56445 0.57367 0.9264 0.0
C66 C 0.48989 0.48961 0.88915 0.0
O67 O 0.54217 0.48377 0.8907 0.0
C68 C 0.63024 0.68269 0.95711 0.0
O69 O 0.65403 0.64432 0.96058 0.0
C70 C 0.53649 0.44947 0.95023 0.0
O71 O 0.5626 0.43623 0.93356 0.0
O72 O 0.53567 0.5025 0.95129 0.0
O73 O 0.48433 0.52872 0.90232 0.0
O74 O 0.65499 0.60237 0.90916 0.0
C75 C 0.66335 0.64369 0.89518 0.0
O76 O 0.6183 0.66022 0.89307 0.0
O77 O 0.58495 0.66473 0.94273 0.0
H78 H 0.07618 0.25339 0.13101 0.0
C79 C 0.02856 0.20873 0.12849 0.0
H80 H 0.92801 0.15855 0.13685 0.0
H81 H 1.00424 0.33264 0.2249 0.0
H82 H 0.96697 0.22482 0.23819 0.0
H83 H 0.93587 0.1306 0.21288 0.0
H84 H 0.94203 0.14369 0.17409 0.0
C85 C 0.97558 0.20358 0.13843 0.0
C86 C 0.98283 0.25749 0.15338 0.0
C87 C 0.97681 0.24851 0.17596 0.0
C88 C 0.99434 0.3028 0.19057 0.0
C89 C 0.99081 0.29306 0.21308 0.0
C90 C 0.96963 0.23141 0.22093 0.0
C91 C 0.95213 0.17836 0.20668 0.0
C92 C 0.95585 0.18655 0.18445 0.0
H93 H 0.95808 0.41275 0.20913 0.0
C94 C 0.01162 0.4423 0.2097 0.0
H95 H 0.10081 0.4549 0.19748 0.0
H96 H 0.98705 0.28843 0.11104 0.0
H97 H 0.02104 0.39566 0.09767 0.0
H98 H 0.05337 0.49021 0.12299 0.0
H99 H 0.05141 0.47798 0.16182 0.0
C100 C 0.04734 0.4246 0.1974 0.0
C101 C 0.01703 0.36568 0.1825 0.0
C102 C 0.01847 0.3736 0.15989 0.0
C103 C 1.00079 0.31935 0.14531 0.0
C104 C 1.00167 0.32844 0.12281 0.0
C105 C 0.02063 0.3896 0.11493 0.0
C106 C 0.03878 0.44282 0.12918 0.0
C107 C 0.0377 0.4352 0.15142 0.0
H108 H 0.8701 0.95886 0.47274 0.0
C109 C 0.88897 1.00278 0.46355 0.0
H110 H 0.88371 0.08706 0.458 0.0
H111 H 0.59806 0.89785 0.50539 0.0
H112 H 0.5686 0.8256 0.47339 0.0
H113 H 0.65005 0.84671 0.44518 0.0
H114 H 0.76166 0.93945 0.44893 0.0
C115 C 0.86366 0.04181 0.4665 0.0
C116 C 0.81333 0.02884 0.48315 0.0
C117 C 0.74771 0.9754 0.48036 0.0
C118 C 0.69991 0.96472 0.49621 0.0
C119 C 0.63555 0.90952 0.49347 0.0
C120 C 0.61812 0.86745 0.47525 0.0
C121 C 0.66405 0.87921 0.4594 0.0
C122 C 0.7281 0.9325 0.46182 0.0
H123 H 0.61289 0.0212 0.50673 0.0
C124 C 0.6182 0.01397 0.5237 0.0
H125 H 0.67384 0.99834 0.54692 0.0
H126 H 0.93542 0.13364 0.494 0.0
H127 H 0.96432 0.20676 0.52567 0.0
H128 H 0.8806 0.19081 0.55244 0.0
H129 H 0.76769 0.10159 0.54777 0.0
C130 C 0.6661 1.00271 0.52989 0.0
C131 C 0.71712 0.00885 0.51439 0.0
C132 C 0.78306 0.06158 0.51735 0.0
C133 C 0.83115 0.07146 0.50175 0.0
C134 C 0.89667 0.12431 0.50519 0.0
C135 C 0.91402 0.16664 0.52333 0.0
C136 C 0.86691 0.15761 0.5384 0.0
C137 C 0.80216 0.10596 0.53553 0.0
H138 H 0.85522 0.84062 0.78459 0.0
C139 C 0.90681 0.87625 0.78828 0.0
H140 H 0.98401 0.91307 0.81171 0.0
H141 H 0.78748 0.82643 0.88968 0.0
H142 H 0.85447 0.94414 0.89608 0.0
H143 H 0.93861 0.01285 0.87012 0.0
H144 H 0.95632 0.9646 0.83765 0.0
C145 C 0.93286 0.87683 0.80771 0.0
C146 C 0.89007 0.83426 0.82502 0.0
C147 C 0.88117 0.86345 0.84409 0.0
C148 C 0.83202 0.824 0.85892 0.0
C149 C 0.82346 0.85435 0.87772 0.0
C150 C 0.86176 0.92176 0.88165 0.0
C151 C 0.90915 0.96044 0.86704 0.0
C152 C 0.91884 0.93198 0.84843 0.0
H153 H 0.76122 0.66245 0.88436 0.0
C154 C 0.72307 0.67456 0.88193 0.0
H155 H 0.69355 0.73191 0.8654 0.0
H156 H 0.90622 0.76142 0.79316 0.0
H157 H 0.84005 0.64347 0.78701 0.0
H158 H 0.75 0.57582 0.81145 0.0
H159 H 0.7264 0.62536 0.84238 0.0
C160 C 0.73084 0.71838 0.8673 0.0
C161 C 0.79161 0.75565 0.85463 0.0
C162 C 0.80399 0.7258 0.83648 0.0
C163 C 0.8542 0.7651 0.82188 0.0
C164 C 0.86698 0.73403 0.80424 0.0
C165 C 0.82972 0.66641 0.80063 0.0
C166 C 0.77913 0.62829 0.81442 0.0
C167 C 0.76612 0.65737 0.83215 0.0
H168 H 0.03238 0.93063 0.14538 0.0
C169 C 0.07492 0.96386 0.13615 0.0
H170 H 0.17401 0.99483 0.12896 0.0
H171 H 0.0904 0.82766 0.22066 0.0
H172 H 0.08977 0.92159 0.23672 0.0
H173 H 0.11252 0.01528 0.21484 0.0
H174 H 0.13478 0.01477 0.17656 0.0
C175 C 0.13149 0.96358 0.1385 0.0
C176 C 0.13436 0.91565 0.15271 0.0
C177 C 0.12499 0.91815 0.17529 0.0
C178 C 0.11462 0.86529 0.18808 0.0
C179 C 0.10075 0.86718 0.21026 0.0
C180 C 0.09999 0.92081 0.21971 0.0
C181 C 0.11259 0.97347 0.20738 0.0
C182 C 0.12488 0.97239 0.18541 0.0
H183 H 0.17672 0.78794 0.21148 0.0
C184 C 0.12883 0.74615 0.20673 0.0
H185 H 0.04638 0.7085 0.18532 0.0
H186 H 0.16027 0.89986 0.11055 0.0
H187 H 0.16845 0.80939 0.0949 0.0
H188 H 0.15404 0.71943 0.1173 0.0
H189 H 0.13108 0.71931 0.15554 0.0
C190 C 0.09373 0.75054 0.19039 0.0
C191 C 0.11635 0.81123 0.17837 0.0
C192 C 0.13144 0.81157 0.15622 0.0
C193 C 0.14047 0.86381 0.14336 0.0
C194 C 0.15343 0.86171 0.12111 0.0
C195 C 0.15827 0.81006 0.11191 0.0
C196 C 0.15009 0.75937 0.12452 0.0
C197 C 0.13673 0.75979 0.14641 0.0
H198 H 0.20014 0.03603 0.45779 0.0
C199 C 0.19156 0.0765 0.4562 0.0
H200 H 0.21634 0.17077 0.46823 0.0
H201 H 0.30176 0.11826 0.55948 0.0
H202 H 0.20941 0.13211 0.56883 0.0
H203 H 0.14464 0.14659 0.54054 0.0
H204 H 0.17187 0.14784 0.50274 0.0
C205 C 0.22588 0.13076 0.46902 0.0
C206 C 0.27172 0.13347 0.48624 0.0
C207 C 0.25566 0.13391 0.50827 0.0
C208 C 0.29247 0.12469 0.52458 0.0
C209 C 0.27483 0.12427 0.54645 0.0
C210 C 0.22212 0.13232 0.55204 0.0
C211 C 0.1857 0.14059 0.5361 0.0
C212 C 0.20191 0.14124 0.51445 0.0
H213 H 0.46706 0.17633 0.53844 0.0
C214 C 0.43491 0.12665 0.54346 0.0
H215 H 0.34026 0.04177 0.54062 0.0
H216 H 0.32468 0.1459 0.44626 0.0
H217 H 0.41785 0.13358 0.43683 0.0
H218 H 0.47764 0.11083 0.46471 0.0
H219 H 0.44563 0.10149 0.50214 0.0
C220 C 0.37303 0.09087 0.53521 0.0
C221 C 0.34514 0.11502 0.51883 0.0
C222 C 0.36422 0.11934 0.49695 0.0
C223 C 0.32815 0.12985 0.4807 0.0
C224 C 0.34905 0.13569 0.45906 0.0
C225 C 0.40263 0.12912 0.45347 0.0
C226 C 0.4364 0.1165 0.46918 0.0
C227 C 0.41757 0.11145 0.49067 0.0
H228 H 0.15621 0.24355 0.79709 0.0
C229 C 0.1613 0.20304 0.80219 0.0
H230 H 0.20553 0.17123 0.82458 0.0
H231 H 0.4197 0.48794 0.83368 0.0
H232 H 0.44124 0.48086 0.79561 0.0
H233 H 0.37266 0.37901 0.77366 0.0
H234 H 0.28159 0.28446 0.78941 0.0
C235 C 0.2017 0.21199 0.81899 0.0
C236 C 0.24032 0.27582 0.83132 0.0
C237 C 0.29445 0.33009 0.82183 0.0
C238 C 0.33612 0.38775 0.83471 0.0
C239 C 0.38832 0.44216 0.82476 0.0
C240 C 0.4009 0.43888 0.80293 0.0
C241 C 0.36214 0.38162 0.79056 0.0
C242 C 0.30962 0.32769 0.79981 0.0
H243 H 0.44701 0.41429 0.86302 0.0
C244 C 0.43763 0.4467 0.87324 0.0
H245 H 0.36694 0.47201 0.88234 0.0
H246 H 0.13606 0.18442 0.85375 0.0
H247 H 0.11538 0.19192 0.89184 0.0
H248 H 0.19086 0.28982 0.91453 0.0
H249 H 0.287 0.38109 0.89924 0.0
C250 C 0.37858 0.44219 0.87169 0.0
C251 C 0.32593 0.38979 0.85723 0.0
C252 C 0.26948 0.33732 0.86639 0.0
C253 C 0.22655 0.28038 0.85339 0.0
C254 C 0.1708 0.22839 0.86297 0.0
C255 C 0.15825 0.23212 0.88479 0.0
C256 C 0.20071 0.28728 0.89756 0.0
C257 C 0.2558 0.33935 0.88857 0.0
H258 H 0.89153 0.0417 0.70748 0.0
C259 C 0.93102 0.09086 0.7122 0.0
H260 H 0.97063 0.19202 0.70832 0.0
H261 H 0.82554 0.14298 0.61689 0.0
H262 H 0.94052 0.1997 0.60703 0.0
H263 H 0.0284 0.22717 0.6343 0.0
H264 H 1.00176 0.19779 0.67158 0.0
C265 C 0.93071 0.14259 0.70423 0.0
C266 C 0.87825 0.13334 0.68851 0.0
C267 C 0.89483 0.1525 0.6669 0.0
C268 C 0.84414 0.13713 0.6512 0.0
C269 C 0.86196 0.15432 0.62955 0.0
C270 C 0.92783 0.18672 0.62365 0.0
C271 C 0.9773 0.20216 0.639 0.0
C272 C 0.9613 0.1851 0.66036 0.0
H273 H 0.73271 0.16952 0.63456 0.0
C274 C 0.70588 0.11717 0.63075 0.0
H275 H 0.69533 0.02575 0.63724 0.0
H276 H 0.83046 0.10124 0.72932 0.0
H277 H 0.71556 0.04663 0.73934 0.0
H278 H 0.62754 0.01732 0.71194 0.0
H279 H 0.65402 0.04307 0.67438 0.0
C280 C 0.72324 0.07835 0.64052 0.0
C281 C 0.77709 0.10334 0.65723 0.0
C282 C 0.76084 0.0874 0.67906 0.0
C283 C 0.81147 0.10312 0.69477 0.0
C284 C 0.79384 0.08845 0.71659 0.0
C285 C 0.72809 0.0576 0.7226 0.0
C286 C 0.67855 0.04117 0.70718 0.0
C287 C 0.69443 0.05598 0.68566 0.0
H288 H 0.9069 0.94602 0.04936 0.0
C289 C 0.92103 0.99605 0.04603 0.0
H290 H 0.90238 0.0563 0.02652 0.0
H291 H 0.7811 0.83285 0.95158 0.0
H292 H 0.8766 0.91977 0.93447 0.0
H293 H 0.95346 0.02223 0.9549 0.0
H294 H 0.93562 0.03818 0.99264 0.0
C295 C 0.88768 0.00671 0.03061 0.0
C296 C 0.8348 0.95072 0.01731 0.0
C297 C 0.84484 0.94321 0.99506 0.0
C298 C 0.80038 0.88419 0.98323 0.0
C299 C 0.81308 0.87675 0.96129 0.0
C300 C 0.8677 0.9263 0.95125 0.0
C301 C 0.911 0.98397 0.96277 0.0
C302 C 0.90013 0.9925 0.98444 0.0
H303 H 0.64373 0.78112 0.96417 0.0
C304 C 0.65999 0.74759 0.96849 0.0
H305 H 0.72514 0.73286 0.98773 0.0
H306 H 0.79303 0.9557 0.05814 0.0
H307 H 0.69554 0.86985 0.07493 0.0
H308 H 0.62015 0.76641 0.05467 0.0
H309 H 0.64144 0.74847 0.0174 0.0
C310 C 0.70924 0.76649 0.98319 0.0
C311 C 0.74582 0.83318 0.99365 0.0
C312 C 0.73279 0.84294 0.01533 0.0
C313 C 0.77691 0.90205 0.02712 0.0
C314 C 0.76209 0.91092 0.04867 0.0
C315 C 0.7061 0.86226 0.05843 0.0
C316 C 0.6636 0.80403 0.04702 0.0
C317 C 0.6765 0.79424 0.0257 0.0
H318 H 0.91008 0.918 0.36078 0.0
C319 C 0.9568 0.9398 0.36973 0.0
H320 H 0.04929 0.94641 0.37246 0.0
H321 H 0.87123 0.67186 0.31181 0.0
H322 H 0.80293 0.62797 0.34314 0.0
H323 H 0.82162 0.69784 0.37592 0.0
H324 H 0.90765 0.81226 0.37741 0.0
C325 C 1.00147 0.92312 0.36414 0.0
C326 C 0.99096 0.87935 0.34484 0.0
C327 C 0.94203 0.8119 0.34459 0.0
C328 C 0.93346 0.77074 0.3261 0.0
C329 C 0.88183 0.70451 0.3258 0.0
C330 C 0.84193 0.67883 0.34361 0.0
C331 C 0.85229 0.71823 0.36203 0.0
C332 C 0.90167 0.78399 0.36262 0.0
H333 H 0.99468 0.69462 0.3096 0.0
C334 C 0.98791 0.7055 0.29321 0.0
H335 H 0.96827 0.76468 0.27368 0.0
H336 H 0.08608 0.00715 0.33942 0.0
H337 H 0.15595 0.05042 0.30847 0.0
H338 H 0.14544 0.97805 0.27727 0.0
H339 H 0.06477 0.86232 0.27673 0.0
C340 C 0.97342 0.75246 0.29003 0.0
C341 C 0.97607 0.79629 0.30836 0.0
C342 C 0.02424 0.864 0.30847 0.0
C343 C 0.03135 0.90555 0.32666 0.0
C344 C 0.07924 0.9731 0.32621 0.0
C345 C 0.11964 0.9987 0.30851 0.0
C346 C 0.11365 0.95798 0.29094 0.0
C347 C 0.06682 0.89146 0.29084 0.0
H348 H 0.20548 0.03865 0.71535 0.0
C349 C 0.15506 1.00315 0.71017 0.0
H350 H 0.0942 0.93175 0.68623 0.0
H351 H 0.31188 0.06191 0.61494 0.0
H352 H 0.22602 0.08006 0.60147 0.0
H353 H 0.12735 0.05101 0.62289 0.0
H354 H 0.11382 1.00338 0.65787 0.0
C355 C 0.14427 0.96577 0.69207 0.0
C356 C 0.20012 0.97617 0.67817 0.0
C357 C 0.20667 1.00314 0.65761 0.0
C358 C 0.26383 0.02057 0.64534 0.0
C359 C 0.26971 0.04836 0.62501 0.0
C360 C 0.22073 0.05891 0.61706 0.0
C361 C 0.16516 0.04246 0.62911 0.0
C362 C 0.158 0.01505 0.64918 0.0
H363 H 0.36163 0.95341 0.62644 0.0
C364 C 0.39471 0.00585 0.62893 0.0
H365 H 0.41045 0.09312 0.64466 0.0
H366 H 0.1972 0.91435 0.71496 0.0
H367 H 0.28233 0.89431 0.72802 0.0
H368 H 0.38318 0.92799 0.70727 0.0
H369 H 0.39921 0.98125 0.67319 0.0
C370 C 0.37855 0.04038 0.64261 0.0
C371 C 0.31423 0.01093 0.6536 0.0
C372 C 0.30588 0.98028 0.6735 0.0
C373 C 0.24842 0.96228 0.68571 0.0
C374 C 0.24072 0.93064 0.70535 0.0
C375 C 0.28901 0.91852 0.71296 0.0
C376 C 0.34576 0.93739 0.70125 0.0
C377 C 0.35439 0.96796 0.68174 0.0
H378 H 0.2415 0.2885 0.04371 0.0
C379 C 0.23322 0.24081 0.04777 0.0
H380 H 0.26417 0.17216 0.04257 0.0
H381 H 0.38048 0.31171 0.95283 0.0
H382 H 0.28583 0.20965 0.93977 0.0
H383 H 0.20915 0.12972 0.96522 0.0
H384 H 0.22644 0.15212 1.00399 0.0
C385 C 0.27257 0.22044 0.03942 0.0
C386 C 0.32577 0.26252 0.02448 0.0
C387 C 0.31698 0.2474 1.00193 0.0
C388 C 0.36233 0.29285 0.98728 0.0
C389 C 0.34932 0.27835 0.96478 0.0
C390 C 0.29473 0.21996 0.95702 0.0
C391 C 0.25148 0.17501 0.97134 0.0
C392 C 0.262 0.18846 0.99355 0.0
H393 H 0.50329 0.35494 0.96547 0.0
C394 C 0.50061 0.39923 0.96628 0.0
H395 H 0.45785 0.44921 0.98143 0.0
H396 H 0.36194 0.30168 0.06683 0.0
H397 H 0.45857 0.40244 0.08023 0.0
H398 H 0.53788 0.48094 0.05496 0.0
H399 H 0.52118 0.45914 0.01616 0.0
C400 C 0.46021 0.40475 0.9804 0.0
C401 C 0.41773 0.35245 0.99534 0.0
C402 C 0.42846 0.36557 0.01797 0.0
C403 C 0.38259 0.32053 0.03254 0.0
C404 C 0.39468 0.33484 0.05506 0.0
C405 C 0.45011 0.39228 0.06296 0.0
C406 C 0.49478 0.43646 0.04874 0.0
C407 C 0.48445 0.42347 0.0265 0.0
H408 H 0.99499 0.24114 0.37728 0.0
C409 C 0.03693 0.23673 0.38208 0.0
H410 H 0.1392 0.27373 0.37817 0.0
H411 H 0.05555 0.35179 0.28732 0.0
H412 H 0.03167 0.2431 0.2756 0.0
H413 H 0.04119 0.17098 0.30123 0.0
H414 H 0.07459 0.20708 0.33875 0.0
C415 C 0.09626 0.27687 0.37382 0.0
C416 C 0.10291 0.32446 0.35762 0.0
C417 C 0.08482 0.30319 0.3357 0.0
C418 C 0.07945 0.34477 0.32095 0.0
C419 C 0.0599 0.32186 0.29923 0.0
C420 C 0.04629 0.25974 0.29228 0.0
C421 C 0.05167 0.21914 0.30671 0.0
C422 C 0.07066 0.24033 0.3282 0.0
H423 H 0.16637 0.51382 0.30402 0.0
C424 C 0.11365 0.49511 0.3028 0.0
H425 H 0.01866 0.42371 0.31255 0.0
H426 H 0.14885 0.38316 0.39759 0.0
H427 H 0.17677 0.49341 0.40907 0.0
H428 H 0.16631 0.56535 0.38361 0.0
H429 H 0.12825 0.5278 0.34651 0.0
C430 C 0.07152 0.44359 0.3142 0.0
C431 C 0.09261 0.40761 0.32812 0.0
C432 C 0.1159 0.43085 0.3496 0.0
C433 C 0.12136 0.3892 0.36435 0.0
C434 C 0.14351 0.41288 0.38583 0.0
C435 C 0.15974 0.47595 0.39259 0.0
C436 C 0.15388 0.51648 0.37824 0.0
C437 C 0.13199 0.49437 0.357 0.0
loop_
_geom_bond_atom_site_label_1
_geom_bond_atom_site_label_2
_geom_bond_distance
_geom_bond_site_symmetry_2
_ccdc_geom_bond_type
C0 O1 1.160 . S
C0 O7 1.185 1_565 S
O1 C0 1.160 . S
O2 Zn3 1.899 . S
O2 C10 1.284 . S
Zn3 O2 1.899 . S
Zn3 O4 2.032 1_455 S
Zn3 O7 2.086 . S
Zn3 O12 1.977 . S
O4 Zn3 2.032 1_655 S
O4 C8 1.278 . S
C5 O6 1.203 . S
C5 O12 1.267 . S
O6 C5 1.203 . S
O7 C0 1.185 1_545 S
O7 Zn3 2.086 . S
C8 O4 1.278 . S
C8 O9 1.211 . S
O9 C8 1.211 . S
C10 O2 1.284 . S
C10 O11 1.273 1_455 S
O11 C10 1.273 1_655 S
O12 Zn3 1.977 . S
O12 C5 1.267 . S
C13 O14 1.160 . S
C13 O20 1.185 . S
O14 C13 1.160 . S
O15 Zn16 1.899 . S
O15 C23 1.284 1_545 S
Zn16 O15 1.899 . S
Zn16 O17 2.032 . S
Zn16 O20 2.086 . S
Zn16 O25 1.977 . S
O17 Zn16 2.032 . S
O17 C21 1.278 1_455 S
C18 O19 1.203 . S
C18 O25 1.267 . S
O19 C18 1.203 . S
O20 C13 1.185 . S
O20 Zn16 2.086 . S
C21 O17 1.278 1_655 S
C21 O22 1.211 1_655 S
O22 C21 1.211 1_455 S
C23 O15 1.284 1_565 S
C23 O24 1.273 . S
O24 C23 1.273 . S
O25 Zn16 1.977 . S
O25 C18 1.267 . S
C26 O27 1.160 . S
C26 O33 1.181 1_545 S
O27 C26 1.160 . S
O28 Zn29 1.899 1_655 S
O28 C36 1.284 . S
Zn29 O28 1.899 1_455 S
Zn29 O30 2.032 . S
Zn29 O33 2.075 1_545 S
Zn29 O38 1.977 1_445 S
O30 Zn29 2.032 . S
O30 C34 1.278 . S
C31 O32 1.203 . S
C31 O38 1.267 . S
O32 C31 1.203 . S
O33 C26 1.181 1_565 S
O33 Zn29 2.075 1_565 S
C34 O30 1.278 . S
C34 O35 1.211 . S
O35 C34 1.211 . S
C36 O28 1.284 . S
C36 O37 1.273 . S
O37 C36 1.273 . S
O38 Zn29 1.977 1_665 S
O38 C31 1.267 . S
Mg39 O46 2.141 . S
Mg39 O47 2.048 . S
Mg39 O48 2.048 . S
Mg39 O51 2.141 . S
C40 O41 1.313 1_455 S
C40 O47 1.195 . S
O41 C40 1.313 1_655 S
C42 O43 1.245 1_455 S
C42 O51 1.289 . S
O43 C42 1.245 1_655 S
C44 O45 1.245 1_455 S
C44 O46 1.289 . S
O45 C44 1.245 1_655 S
O46 Mg39 2.141 . S
O46 C44 1.289 . S
O47 Mg39 2.048 . S
O47 C40 1.195 . S
O48 Mg39 2.048 . S
O48 C49 1.195 . S
C49 O48 1.195 . S
C49 O50 1.313 1_455 S
O50 C49 1.313 1_655 S
O51 Mg39 2.141 . S
O51 C42 1.289 . S
Mg52 O59 2.141 . S
Mg52 O60 2.048 . S
Mg52 O61 2.048 . S
Mg52 O64 2.141 . S
C53 O54 1.313 . S
C53 O60 1.195 . S
O54 C53 1.313 . S
C55 O56 1.245 1_545 S
C55 O64 1.289 . S
O56 C55 1.245 1_565 S
C57 O58 1.245 1_545 S
C57 O59 1.289 . S
O58 C57 1.245 1_565 S
O59 Mg52 2.141 . S
O59 C57 1.289 . S
O60 Mg52 2.048 . S
O60 C53 1.195 . S
O61 Mg52 2.048 . S
O61 C62 1.195 . S
C62 O61 1.195 . S
C62 O63 1.313 . S
O63 C62 1.313 . S
O64 Mg52 2.141 . S
O64 C55 1.289 . S
Mg65 O72 2.141 . S
Mg65 O73 2.048 . S
Mg65 O74 2.048 . S
Mg65 O77 2.141 . S
C66 O67 1.313 . S
C66 O73 1.195 . S
O67 C66 1.313 . S
C68 O69 1.245 . S
C68 O77 1.289 . S
O69 C68 1.245 . S
C70 O71 1.245 . S
C70 O72 1.289 . S
O71 C70 1.245 . S
O72 Mg65 2.141 . S
O72 C70 1.289 . S
O73 Mg65 2.048 . S
O73 C66 1.195 . S
O74 Mg65 2.048 . S
O74 C75 1.195 . S
C75 O74 1.195 . S
C75 O76 1.313 . S
O76 C75 1.313 . S
O77 Mg65 2.141 . S
O77 C68 1.289 . S
H78 C79 0.951 . S
C79 H78 0.951 . S
C79 C85 1.265 . S
H80 C85 0.950 1_655 S
H81 C89 0.949 . S
H82 C90 0.950 . S
H83 C91 0.951 . S
H84 C92 0.951 . S
C85 C79 1.265 . S
C85 H80 0.950 1_455 S
C85 C86 1.478 . S
C86 C85 1.478 . S
C86 C87 1.397 1_455 S
C86 C103 1.394 . S
C87 C86 1.397 1_655 S
C87 C88 1.438 . S
C87 C92 1.429 . S
C88 C87 1.438 . S
C88 C89 1.428 . S
C88 C101 1.394 1_655 S
C89 H81 0.949 . S
C89 C88 1.428 . S
C89 C90 1.345 . S
C90 H82 0.950 . S
C90 C89 1.345 . S
C90 C91 1.424 . S
C91 H83 0.951 . S
C91 C90 1.424 . S
C91 C92 1.347 . S
C92 H84 0.951 . S
C92 C87 1.429 . S
C92 C91 1.347 . S
H93 C94 0.951 . S
C94 H93 0.951 . S
C94 C100 1.265 . S
H95 C100 0.950 . S
H96 C104 0.949 . S
H97 C105 0.950 . S
H98 C106 0.951 . S
H99 C107 0.951 . S
C100 C94 1.265 . S
C100 H95 0.950 . S
C100 C101 1.478 . S
C101 C88 1.394 1_455 S
C101 C100 1.478 . S
C101 C102 1.397 . S
C102 C101 1.397 . S
C102 C103 1.438 . S
C102 C107 1.429 . S
C103 C86 1.394 . S
C103 C102 1.438 . S
C103 C104 1.428 . S
C104 H96 0.949 . S
C104 C103 1.428 . S
C104 C105 1.345 . S
C105 H97 0.950 . S
C105 C104 1.345 . S
C105 C106 1.424 . S
C106 H98 0.951 . S
C106 C105 1.424 . S
C106 C107 1.347 . S
C107 H99 0.951 . S
C107 C102 1.429 . S
C107 C106 1.347 . S
H108 C109 0.951 . S
C109 H108 0.951 . S
C109 C115 1.265 . S
H110 C115 0.950 . S
H111 C119 0.949 . S
H112 C120 0.950 . S
H113 C121 0.951 . S
H114 C122 0.951 . S
C115 C109 1.265 . S
C115 H110 0.950 . S
C115 C116 1.478 . S
C116 C115 1.478 . S
C116 C117 1.397 . S
C116 C133 1.394 . S
C117 C116 1.397 . S
C117 C118 1.438 . S
C117 C122 1.429 1_545 S
C118 C117 1.438 . S
C118 C119 1.428 1_545 S
C118 C131 1.394 . S
C119 H111 0.949 . S
C119 C118 1.428 1_565 S
C119 C120 1.345 . S
C120 H112 0.950 . S
C120 C119 1.345 . S
C120 C121 1.424 . S
C121 H113 0.951 . S
C121 C120 1.424 . S
C121 C122 1.347 . S
C122 H114 0.951 . S
C122 C117 1.429 1_565 S
C122 C121 1.347 . S
H123 C124 0.951 . S
C124 H123 0.951 . S
C124 C130 1.265 . S
H125 C130 0.950 . S
H126 C134 0.949 . S
H127 C135 0.950 . S
H128 C136 0.951 . S
H129 C137 0.951 . S
C130 C124 1.265 . S
C130 H125 0.950 . S
C130 C131 1.478 . S
C131 C118 1.394 . S
C131 C130 1.478 . S
C131 C132 1.397 . S
C132 C131 1.397 . S
C132 C133 1.438 . S
C132 C137 1.429 . S
C133 C116 1.394 . S
C133 C132 1.438 . S
C133 C134 1.428 . S
C134 H126 0.949 . S
C134 C133 1.428 . S
C134 C135 1.345 . S
C135 H127 0.950 . S
C135 C134 1.345 . S
C135 C136 1.424 . S
C136 H128 0.951 . S
C136 C135 1.424 . S
C136 C137 1.347 . S
C137 H129 0.951 . S
C137 C132 1.429 . S
C137 C136 1.347 . S
H138 C139 0.951 . S
C139 H138 0.951 . S
C139 C145 1.265 . S
H140 C145 0.950 . S
H141 C149 0.949 . S
H142 C150 0.950 . S
H143 C151 0.951 1_545 S
H144 C152 0.951 . S
C145 C139 1.265 . S
C145 H140 0.950 . S
C145 C146 1.478 . S
C146 C145 1.478 . S
C146 C147 1.397 . S
C146 C163 1.394 . S
C147 C146 1.397 . S
C147 C148 1.438 . S
C147 C152 1.429 . S
C148 C147 1.438 . S
C148 C149 1.428 . S
C148 C161 1.394 . S
C149 H141 0.949 . S
C149 C148 1.428 . S
C149 C150 1.345 . S
C150 H142 0.950 . S
C150 C149 1.345 . S
C150 C151 1.424 . S
C151 H143 0.951 1_565 S
C151 C150 1.424 . S
C151 C152 1.347 . S
C152 H144 0.951 . S
C152 C147 1.429 . S
C152 C151 1.347 . S
H153 C154 0.951 . S
C154 H153 0.951 . S
C154 C160 1.265 . S
H155 C160 0.950 . S
H156 C164 0.949 . S
H157 C165 0.950 . S
H158 C166 0.951 . S
H159 C167 0.951 . S
C160 C154 1.265 . S
C160 H155 0.950 . S
C160 C161 1.478 . S
C161 C148 1.394 . S
C161 C160 1.478 . S
C161 C162 1.397 . S
C162 C161 1.397 . S
C162 C163 1.438 . S
C162 C167 1.429 . S
C163 C146 1.394 . S
C163 C162 1.438 . S
C163 C164 1.428 . S
C164 H156 0.949 . S
C164 C163 1.428 . S
C164 C165 1.345 . S
C165 H157 0.950 . S
C165 C164 1.345 . S
C165 C166 1.424 . S
C166 H158 0.951 . S
C166 C165 1.424 . S
C166 C167 1.347 . S
C167 H159 0.951 . S
C167 C162 1.429 . S
C167 C166 1.347 . S
H168 C169 0.951 . S
C169 H168 0.951 . S
C169 C175 1.265 . S
H170 C175 0.950 . S
H171 C179 0.949 . S
H172 C180 0.950 . S
H173 C181 0.951 1_545 S
H174 C182 0.951 . S
C175 C169 1.265 . S
C175 H170 0.950 . S
C175 C176 1.478 . S
C176 C175 1.478 . S
C176 C177 1.397 . S
C176 C193 1.394 . S
C177 C176 1.397 . S
C177 C178 1.438 . S
C177 C182 1.429 . S
C178 C177 1.438 . S
C178 C179 1.428 . S
C178 C191 1.394 . S
C179 H171 0.949 . S
C179 C178 1.428 . S
C179 C180 1.345 . S
C180 H172 0.950 . S
C180 C179 1.345 . S
C180 C181 1.424 . S
C181 H173 0.951 1_565 S
C181 C180 1.424 . S
C181 C182 1.347 . S
C182 H174 0.951 . S
C182 C177 1.429 . S
C182 C181 1.347 . S
H183 C184 0.951 . S
C184 H183 0.951 . S
C184 C190 1.265 . S
H185 C190 0.950 1_655 S
H186 C194 0.948 . S
H187 C195 0.950 . S
H188 C196 0.951 . S
H189 C197 0.951 . S
C190 C184 1.265 . S
C190 H185 0.950 1_455 S
C190 C191 1.478 . S
C191 C178 1.394 . S
C191 C190 1.478 . S
C191 C192 1.396 1_455 S
C192 C191 1.396 1_655 S
C192 C193 1.438 1_655 S
C192 C197 1.430 . S
C193 C176 1.394 . S
C193 C192 1.438 1_455 S
C193 C194 1.428 1_455 S
C194 H186 0.948 . S
C194 C193 1.428 1_655 S
C194 C195 1.345 . S
C195 H187 0.950 . S
C195 C194 1.345 . S
C195 C196 1.424 . S
C196 H188 0.951 . S
C196 C195 1.424 . S
C196 C197 1.347 . S
C197 H189 0.951 . S
C197 C192 1.430 . S
C197 C196 1.347 . S
H198 C199 0.951 . S
C199 H198 0.951 . S
C199 C205 1.265 . S
H200 C205 0.950 . S
H201 C209 0.949 . S
H202 C210 0.950 . S
H203 C211 0.951 . S
H204 C212 0.951 . S
C205 C199 1.265 . S
C205 H200 0.950 . S
C205 C206 1.478 . S
C206 C205 1.478 . S
C206 C207 1.397 . S
C206 C223 1.394 . S
C207 C206 1.397 . S
C207 C208 1.438 . S
C207 C212 1.429 . S
C208 C207 1.438 . S
C208 C209 1.428 . S
C208 C221 1.394 . S
C209 H201 0.949 . S
C209 C208 1.428 . S
C209 C210 1.345 . S
C210 H202 0.950 . S
C210 C209 1.345 . S
C210 C211 1.424 . S
C211 H203 0.951 . S
C211 C210 1.424 . S
C211 C212 1.347 . S
C212 H204 0.951 . S
C212 C207 1.429 . S
C212 C211 1.347 . S
H213 C214 0.951 . S
C214 H213 0.951 . S
C214 C220 1.265 . S
H215 C220 0.950 . S
H216 C224 0.949 . S
H217 C225 0.950 . S
H218 C226 0.951 1_565 S
H219 C227 0.951 . S
C220 C214 1.265 . S
C220 H215 0.950 . S
C220 C221 1.478 . S
C221 C208 1.394 . S
C221 C220 1.478 . S
C221 C222 1.397 . S
C222 C221 1.397 . S
C222 C223 1.438 . S
C222 C227 1.429 . S
C223 C206 1.394 . S
C223 C222 1.438 . S
C223 C224 1.428 . S
C224 H216 0.949 . S
C224 C223 1.428 . S
C224 C225 1.345 . S
C225 H217 0.950 . S
C225 C224 1.345 . S
C225 C226 1.424 . S
C226 H218 0.951 1_545 S
C226 C225 1.424 . S
C226 C227 1.347 . S
C227 H219 0.951 . S
C227 C222 1.429 . S
C227 C226 1.347 . S
H228 C229 0.951 . S
C229 H228 0.951 . S
C229 C235 1.265 . S
H230 C235 0.950 . S
H231 C239 0.949 . S
H232 C240 0.950 . S
H233 C241 0.951 . S
H234 C242 0.951 . S
C235 C229 1.265 . S
C235 H230 0.950 . S
C235 C236 1.478 . S
C236 C235 1.478 . S
C236 C237 1.397 . S
C236 C253 1.394 . S
C237 C236 1.397 . S
C237 C238 1.438 . S
C237 C242 1.429 . S
C238 C237 1.438 . S
C238 C239 1.428 . S
C238 C251 1.394 . S
C239 H231 0.949 . S
C239 C238 1.428 . S
C239 C240 1.345 . S
C240 H232 0.950 . S
C240 C239 1.345 . S
C240 C241 1.424 . S
C241 H233 0.951 . S
C241 C240 1.424 . S
C241 C242 1.347 . S
C242 H234 0.951 . S
C242 C237 1.429 . S
C242 C241 1.347 . S
H243 C244 0.951 . S
C244 H243 0.951 . S
C244 C250 1.265 . S
H245 C250 0.950 . S
H246 C254 0.949 . S
H247 C255 0.950 . S
H248 C256 0.951 . S
H249 C257 0.951 . S
C250 C244 1.265 . S
C250 H245 0.950 . S
C250 C251 1.478 . S
C251 C238 1.394 . S
C251 C250 1.478 . S
C251 C252 1.397 . S
C252 C251 1.397 . S
C252 C253 1.438 . S
C252 C257 1.429 . S
C253 C236 1.394 . S
C253 C252 1.438 . S
C253 C254 1.428 . S
C254 H246 0.949 . S
C254 C253 1.428 . S
C254 C255 1.345 . S
C255 H247 0.950 . S
C255 C254 1.345 . S
C255 C256 1.424 . S
C256 H248 0.951 . S
C256 C255 1.424 . S
C256 C257 1.347 . S
C257 H249 0.951 . S
C257 C252 1.429 . S
C257 C256 1.347 . S
H258 C259 0.951 . S
C259 H258 0.951 . S
C259 C265 1.265 . S
H260 C265 0.950 . S
H261 C269 0.949 . S
H262 C270 0.950 . S
H263 C271 0.951 . S
H264 C272 0.951 . S
C265 C259 1.265 . S
C265 H260 0.950 . S
C265 C266 1.478 . S
C266 C265 1.478 . S
C266 C267 1.397 . S
C266 C283 1.394 . S
C267 C266 1.397 . S
C267 C268 1.438 . S
C267 C272 1.429 . S
C268 C267 1.438 . S
C268 C269 1.428 . S
C268 C281 1.394 . S
C269 H261 0.949 . S
C269 C268 1.428 . S
C269 C270 1.345 . S
C270 H262 0.950 . S
C270 C269 1.345 . S
C270 C271 1.424 . S
C271 H263 0.951 . S
C271 C270 1.424 . S
C271 C272 1.347 . S
C272 H264 0.951 . S
C272 C267 1.429 . S
C272 C271 1.347 . S
H273 C274 0.951 . S
C274 H273 0.951 . S
C274 C280 1.265 . S
H275 C280 0.950 . S
H276 C284 0.949 . S
H277 C285 0.950 . S
H278 C286 0.951 . S
H279 C287 0.951 . S
C280 C274 1.265 . S
C280 H275 0.950 . S
C280 C281 1.478 . S
C281 C268 1.394 . S
C281 C280 1.478 . S
C281 C282 1.397 . S
C282 C281 1.397 . S
C282 C283 1.438 . S
C282 C287 1.429 1_545 S
C283 C266 1.394 . S
C283 C282 1.438 . S
C283 C284 1.428 1_545 S
C284 H276 0.949 . S
C284 C283 1.428 1_565 S
C284 C285 1.345 . S
C285 H277 0.950 . S
C285 C284 1.345 . S
C285 C286 1.424 . S
C286 H278 0.951 . S
C286 C285 1.424 . S
C286 C287 1.347 . S
C287 H279 0.951 . S
C287 C282 1.429 1_565 S
C287 C286 1.347 . S
H288 C289 0.951 . S
C289 H288 0.951 . S
C289 C295 1.265 . S
H290 C295 0.950 . S
H291 C299 0.949 . S
H292 C300 0.950 . S
H293 C301 0.951 1_545 S
H294 C302 0.953 . S
C295 C289 1.265 . S
C295 H290 0.950 . S
C295 C296 1.478 . S
C296 C295 1.478 . S
C296 C297 1.397 1_554 S
C296 C313 1.394 . S
C297 C296 1.397 1_556 S
C297 C298 1.438 . S
C297 C302 1.429 . S
C298 C297 1.438 . S
C298 C299 1.428 . S
C298 C311 1.394 . S
C299 H291 0.949 . S
C299 C298 1.428 . S
C299 C300 1.345 . S
C300 H292 0.950 . S
C300 C299 1.345 . S
C300 C301 1.424 . S
C301 H293 0.951 1_565 S
C301 C300 1.424 . S
C301 C302 1.347 . S
C302 H294 0.953 . S
C302 C297 1.429 . S
C302 C301 1.347 . S
H303 C304 0.951 . S
C304 H303 0.951 . S
C304 C310 1.265 . S
H305 C310 0.950 . S
H306 C314 0.949 . S
H307 C315 0.950 . S
H308 C316 0.951 . S
H309 C317 0.951 . S
C310 C304 1.265 . S
C310 H305 0.950 . S
C310 C311 1.478 . S
C311 C298 1.394 . S
C311 C310 1.478 . S
C311 C312 1.397 1_556 S
C312 C311 1.397 1_554 S
C312 C313 1.438 . S
C312 C317 1.429 . S
C313 C296 1.394 . S
C313 C312 1.438 . S
C313 C314 1.428 . S
C314 H306 0.949 . S
C314 C313 1.428 . S
C314 C315 1.345 . S
C315 H307 0.950 . S
C315 C314 1.345 . S
C315 C316 1.424 . S
C316 H308 0.951 . S
C316 C315 1.424 . S
C316 C317 1.347 . S
C317 H309 0.951 . S
C317 C312 1.429 . S
C317 C316 1.347 . S
H318 C319 0.940 1_655 S
C319 H318 0.940 1_455 S
C319 C325 1.265 . S
H320 C325 0.950 . S
H321 C329 0.949 1_655 S
H322 C330 0.955 1_655 S
H323 C331 0.951 . S
H324 C332 0.951 . S
C325 C319 1.265 . S
C325 H320 0.950 . S
C325 C326 1.478 . S
C326 C325 1.478 . S
C326 C327 1.397 . S
C326 C343 1.394 . S
C327 C326 1.397 . S
C327 C328 1.438 . S
C327 C332 1.429 . S
C328 C327 1.438 . S
C328 C329 1.428 . S
C328 C341 1.394 . S
C329 H321 0.949 1_455 S
C329 C328 1.428 . S
C329 C330 1.343 . S
C330 H322 0.955 1_455 S
C330 C329 1.343 . S
C330 C331 1.420 . S
C331 H323 0.951 . S
C331 C330 1.420 . S
C331 C332 1.347 . S
C332 H324 0.951 . S
C332 C327 1.429 . S
C332 C331 1.347 . S
H333 C334 0.951 . S
C334 H333 0.951 . S
C334 C340 1.265 . S
H335 C340 0.950 1_655 S
H336 C344 0.949 . S
H337 C345 0.950 1_545 S
H338 C346 0.951 . S
H339 C347 0.951 . S
C340 C334 1.265 . S
C340 H335 0.950 1_455 S
C340 C341 1.478 . S
C341 C328 1.394 . S
C341 C340 1.478 . S
C341 C342 1.397 . S
C342 C341 1.397 . S
C342 C343 1.438 . S
C342 C347 1.429 . S
C343 C326 1.394 . S
C343 C342 1.438 . S
C343 C344 1.428 . S
C344 H336 0.949 . S
C344 C343 1.428 . S
C344 C345 1.345 . S
C345 H337 0.950 1_565 S
C345 C344 1.345 . S
C345 C346 1.424 . S
C346 H338 0.951 . S
C346 C345 1.424 . S
C346 C347 1.347 . S
C347 H339 0.951 . S
C347 C342 1.429 . S
C347 C346 1.347 . S
H348 C349 0.951 . S
C349 H348 0.951 . S
C349 C355 1.265 . S
H350 C355 0.950 . S
H351 C359 0.949 . S
H352 C360 0.950 . S
H353 C361 0.951 . S
H354 C362 0.951 . S
C355 C349 1.265 . S
C355 H350 0.950 . S
C355 C356 1.478 . S
C356 C355 1.478 . S
C356 C357 1.397 . S
C356 C373 1.394 1_545 S
C357 C356 1.397 . S
C357 C358 1.438 . S
C357 C362 1.429 . S
C358 C357 1.438 . S
C358 C359 1.428 . S
C358 C371 1.394 . S
C359 H351 0.949 . S
C359 C358 1.428 . S
C359 C360 1.345 . S
C360 H352 0.950 . S
C360 C359 1.345 . S
C360 C361 1.424 . S
C361 H353 0.951 . S
C361 C360 1.424 . S
C361 C362 1.347 . S
C362 H354 0.951 . S
C362 C357 1.429 . S
C362 C361 1.347 . S
H363 C364 0.951 . S
C364 H363 0.951 . S
C364 C370 1.265 . S
H365 C370 0.950 . S
H366 C374 0.949 . S
H367 C375 0.950 . S
H368 C376 0.951 . S
H369 C377 0.951 . S
C370 C364 1.265 . S
C370 H365 0.950 . S
C370 C371 1.478 . S
C371 C358 1.394 . S
C371 C370 1.478 . S
C371 C372 1.397 1_545 S
C372 C371 1.397 1_565 S
C372 C373 1.438 . S
C372 C377 1.429 . S
C373 C356 1.394 1_565 S
C373 C372 1.438 . S
C373 C374 1.428 . S
C374 H366 0.949 . S
C374 C373 1.428 . S
C374 C375 1.345 . S
C375 H367 0.950 . S
C375 C374 1.345 . S
C375 C376 1.424 . S
C376 H368 0.951 . S
C376 C375 1.424 . S
C376 C377 1.347 . S
C377 H369 0.951 . S
C377 C372 1.429 . S
C377 C376 1.347 . S
H378 C379 0.951 . S
C379 H378 0.951 . S
C379 C385 1.265 . S
H380 C385 0.950 . S
H381 C389 0.949 . S
H382 C390 0.950 . S
H383 C391 0.951 . S
H384 C392 0.941 1_554 S
C385 C379 1.265 . S
C385 H380 0.950 . S
C385 C386 1.478 . S
C386 C385 1.478 . S
C386 C387 1.397 1_554 S
C386 C403 1.394 . S
C387 C386 1.397 1_556 S
C387 C388 1.438 . S
C387 C392 1.429 . S
C388 C387 1.438 . S
C388 C389 1.428 . S
C388 C401 1.394 . S
C389 H381 0.949 . S
C389 C388 1.428 . S
C389 C390 1.345 . S
C390 H382 0.950 . S
C390 C389 1.345 . S
C390 C391 1.424 . S
C391 H383 0.951 . S
C391 C390 1.424 . S
C391 C392 1.347 . S
C392 H384 0.941 1_556 S
C392 C387 1.429 . S
C392 C391 1.347 . S
H393 C394 0.951 . S
C394 H393 0.951 . S
C394 C400 1.265 . S
H395 C400 0.950 . S
H396 C404 0.949 . S
H397 C405 0.950 . S
H398 C406 0.951 . S
H399 C407 0.951 . S
C400 C394 1.265 . S
C400 H395 0.950 . S
C400 C401 1.478 . S
C401 C388 1.394 . S
C401 C400 1.478 . S
C401 C402 1.397 1_556 S
C402 C401 1.397 1_554 S
C402 C403 1.438 . S
C402 C407 1.429 . S
C403 C386 1.394 . S
C403 C402 1.438 . S
C403 C404 1.428 . S
C404 H396 0.949 . S
C404 C403 1.428 . S
C404 C405 1.345 . S
C405 H397 0.950 . S
C405 C404 1.345 . S
C405 C406 1.424 . S
C406 H398 0.951 . S
C406 C405 1.424 . S
C406 C407 1.347 . S
C407 H399 0.951 . S
C407 C402 1.429 . S
C407 C406 1.347 . S
H408 C409 0.951 . S
C409 H408 0.951 . S
C409 C415 1.265 . S
H410 C415 0.950 . S
H411 C419 0.949 . S
H412 C420 0.950 . S
H413 C421 0.951 . S
H414 C422 0.951 . S
C415 C409 1.265 . S
C415 H410 0.950 . S
C415 C416 1.478 . S
C416 C415 1.478 . S
C416 C417 1.397 . S
C416 C433 1.394 . S
C417 C416 1.397 . S
C417 C418 1.438 . S
C417 C422 1.429 . S
C418 C417 1.438 . S
C418 C419 1.428 . S
C418 C431 1.394 . S
C419 H411 0.949 . S
C419 C418 1.428 . S
C419 C420 1.345 . S
C420 H412 0.950 . S
C420 C419 1.345 . S
C420 C421 1.424 . S
C421 H413 0.951 . S
C421 C420 1.424 . S
C421 C422 1.347 . S
C422 H414 0.951 . S
C422 C417 1.429 . S
C422 C421 1.347 . S
H423 C424 0.951 . S
C424 H423 0.951 . S
C424 C430 1.265 . S
H425 C430 0.950 1_655 S
H426 C434 0.949 . S
H427 C435 0.950 . S
H428 C436 0.951 . S
H429 C437 0.951 . S
C430 C424 1.265 . S
C430 H425 0.950 1_455 S
C430 C431 1.478 . S
C431 C418 1.394 . S
C431 C430 1.478 . S
C431 C432 1.397 . S
C432 C431 1.397 . S
C432 C433 1.438 . S
C432 C437 1.429 . S
C433 C416 1.394 . S
C433 C432 1.438 . S
C433 C434 1.428 . S
C434 H426 0.949 . S
C434 C433 1.428 . S
C434 C435 1.345 . S
C435 H427 0.950 . S
C435 C434 1.345 . S
C435 C436 1.424 . S
C436 H428 0.951 . S
C436 C435 1.424 . S
C436 C437 1.347 . S
C437 H429 0.951 . S
C437 C432 1.429 . S
C437 C436 1.347 . S
C94 C44 1.331 . S
C79 C10 1.347 . S
C109 C21 1.389 . S
C124 C62 1.462 . S
C139 C31 1.373 . S
C154 C75 1.424 . S
C169 C0 1.256 . S
C184 C42 1.366 . S
C214 C53 1.438 . S
C199 C18 1.304 . S
C229 C34 1.429 . S
C244 C66 1.410 . S
C274 C55 1.346 . S
C259 C36 1.348 . S
C289 C8 1.308 1_565 S
C304 C68 1.367 . S
C334 C49 1.431 . S
C319 C23 1.420 . S
C364 C57 1.286 . S
C349 C26 1.296 . S
C394 C70 1.316 . S
C379 C5 1.255 . S
C409 C13 1.368 . S
C424 C40 1.435 . S
