# Generated by pormake.
# Topology pth, (4,4)-cn, num edge types: 1
# Building blocks:
#     Node 0, Type 0, BuildingBlock: AZAVOO_clean_sbu_0, # of connection points: 4
#     Node 1, Type 0, BuildingBlock: AZAVOO_clean_sbu_0, # of connection points: 4
#     Node 2, Type 0, BuildingBlock: AZAVOO_clean_sbu_0, # of connection points: 4
#     Node 3, Type 1, BuildingBlock: NAWXER_clean_sbu_0, # of connection points: 4
#     Node 4, Type 1, BuildingBlock: NAWXER_clean_sbu_0, # of connection points: 4
#     Node 5, Type 1, BuildingBlock: NAWXER_clean_sbu_0, # of connection points: 4
#     Edge 6, Type (0, 1), BuildingBlock: ZUJKAS_clean_linker_0, # of connection points: 2
#     Edge 7, Type (0, 1), BuildingBlock: ZUJKAS_clean_linker_0, # of connection points: 2
#     Edge 8, Type (0, 1), BuildingBlock: ZUJKAS_clean_linker_0, # of connection points: 2
#     Edge 9, Type (0, 1), BuildingBlock: ZUJKAS_clean_linker_0, # of connection points: 2
#     Edge 10, Type (0, 1), BuildingBlock: ZUJKAS_clean_linker_0, # of connection points: 2
#     Edge 11, Type (0, 1), BuildingBlock: ZUJKAS_clean_linker_0, # of connection points: 2
#     Edge 12, Type (0, 1), BuildingBlock: ZUJKAS_clean_linker_0, # of connection points: 2
#     Edge 13, Type (0, 1), BuildingBlock: ZUJKAS_clean_linker_0, # of connection points: 2
#     Edge 14, Type (0, 1), BuildingBlock: ZUJKAS_clean_linker_0, # of connection points: 2
#     Edge 15, Type (0, 1), BuildingBlock: ZUJKAS_clean_linker_0, # of connection points: 2
#     Edge 16, Type (0, 1), BuildingBlock: ZUJKAS_clean_linker_0, # of connection points: 2
#     Edge 17, Type (0, 1), BuildingBlock: ZUJKAS_clean_linker_0, # of connection points: 2
# Relax obj value: 0.079
# Max RMSD: 0.219
# Mean RMSD: 0.117
data_MOF--net-pth--node1-AZAVOO_clean_sbu_0--node2-NAWXER_clean_sbu_0--edge1-ZUJKAS_clean_linker_0
_symmetry_space_group_name_H-M    P1
_symmetry_Int_Tables_number       1
_symmetry_cell_setting            triclinic
loop_
_symmetry_equiv_pos_as_xyz
'x, y, z'
_cell_length_a     29.599848
_cell_length_b     30.221188
_cell_length_c     73.757625
_cell_angle_alpha  90.843859
_cell_angle_beta   92.791471
_cell_angle_gamma 121.94564
loop_
_atom_site_label
_atom_site_type_symbol
_atom_site_fract_x
_atom_site_fract_y
_atom_site_fract_z
_atom_type_partial_charge
Mg0 Mg 0.12378 0.10826 0.06144 0.0
O1 O 0.04259 0.05282 0.04649 0.0
O2 O 0.0175 0.09859 0.03009 0.0
Mg3 Mg 0.08179 0.18498 0.03572 0.0
C4 C 0.00978 0.05518 0.03532 0.0
C5 C 0.09123 0.99519 0.07196 0.0
O6 O 0.08037 0.98676 0.05431 0.0
O7 O 0.08812 0.13498 0.08244 0.0
O8 O 0.06733 0.18411 0.06604 0.0
O9 O 0.16505 0.10608 0.03696 0.0
O10 O 0.14098 0.16289 0.04173 0.0
C11 C 0.07081 0.16564 0.08115 0.0
C12 C 0.16121 0.14438 0.03127 0.0
O13 O 0.11122 0.04117 0.07885 0.0
Mg14 Mg 0.97236 0.03869 0.39166 0.0
O15 O 0.05031 0.0749 0.40947 0.0
O16 O 0.05852 0.13954 0.42717 0.0
Mg17 Mg 0.98412 0.14344 0.42108 0.0
C18 C 0.07602 0.11142 0.42171 0.0
C19 C 0.97172 0.95314 0.36706 0.0
O20 O 0.92099 0.92843 0.37036 0.0
O21 O 0.00595 0.10886 0.37372 0.0
O22 O 0.00653 0.16872 0.39205 0.0
O23 O 0.92748 0.98278 0.41322 0.0
O24 O 0.93848 0.06063 0.41122 0.0
C25 C 0.01335 0.15409 0.37663 0.0
C26 C 0.91998 0.01824 0.41978 0.0
O27 O 0.00297 0.99916 0.37383 0.0
Mg28 Mg 0.01789 0.07204 0.7203 0.0
O29 O 0.08753 0.13306 0.73927 0.0
O30 O 0.05626 0.16553 0.75891 0.0
Mg31 Mg 0.96584 0.12399 0.75279 0.0
C32 C 0.09475 0.16366 0.7527 0.0
C33 C 0.07786 0.03371 0.69745 0.0
O34 O 0.04184 0.98933 0.70402 0.0
O35 O 0.01282 0.13431 0.70497 0.0
O36 O 0.97564 0.16007 0.72486 0.0
O37 O 0.00177 0.01007 0.73976 0.0
O38 O 0.96408 0.0565 0.74009 0.0
C39 C 0.99295 0.16138 0.7092 0.0
C40 C 0.96999 0.02116 0.74722 0.0
O41 O 0.07806 0.07484 0.7015 0.0
C42 C 0.09121 0.65425 0.24999 0.0
C43 C 0.10976 0.54683 0.2042 0.0
O44 O 0.13489 0.66048 0.24521 0.0
Zn45 Zn 0.10378 0.60247 0.22714 0.0
O46 O 0.04689 0.61713 0.24244 0.0
Zn47 Zn 0.01798 0.5555 0.22223 0.0
O48 O 0.97727 0.49305 0.23595 0.0
O49 O 0.06391 0.53619 0.24319 0.0
O50 O 0.0616 0.53386 0.2062 0.0
O51 O 0.14797 0.5848 0.21379 0.0
O52 O 0.07104 0.62828 0.20647 0.0
O53 O 0.9834 0.57534 0.20386 0.0
C54 C 0.0168 0.49746 0.24535 0.0
C55 C 0.02558 0.61545 0.19886 0.0
C56 C 0.62556 0.14316 0.57852 0.0
C57 C 0.494 0.11788 0.53054 0.0
O58 O 0.58863 0.09486 0.57568 0.0
Zn59 Zn 0.51705 0.0492 0.558 0.0
O60 O 0.62368 0.17747 0.56936 0.0
Zn61 Zn 0.55968 0.13006 0.5546 0.0
O62 O 0.49823 0.10255 0.57381 0.0
O63 O 0.46196 0.01744 0.5747 0.0
O64 O 0.53621 0.15983 0.53642 0.0
O65 O 0.48258 0.07451 0.53732 0.0
O66 O 0.5322 0.00364 0.54489 0.0
O67 O 0.58487 0.08657 0.539 0.0
C68 C 0.464 0.05856 0.58012 0.0
C69 C 0.57115 0.03871 0.5367 0.0
C70 C 0.49594 0.52091 0.90991 0.0
C71 C 0.62143 0.65954 0.87235 0.0
O72 O 0.4921 0.55818 0.90394 0.0
Zn73 Zn 0.55744 0.59155 0.89132 0.0
O74 O 0.53599 0.51769 0.9062 0.0
Zn75 Zn 0.60572 0.55763 0.89129 0.0
O76 O 0.6637 0.58093 0.90986 0.0
O77 O 0.6174 0.61846 0.91311 0.0
O78 O 0.63395 0.62603 0.87627 0.0
O79 O 0.57953 0.65474 0.87834 0.0
O80 O 0.53787 0.53532 0.86977 0.0
O81 O 0.59068 0.50441 0.87259 0.0
C82 C 0.65522 0.61212 0.91863 0.0
C83 C 0.55248 0.50484 0.86407 0.0
H84 H 0.11656 0.17497 0.11524 0.0
H85 H 0.12492 0.23328 0.14039 0.0
H86 H 0.02132 0.26909 0.10977 0.0
H87 H 0.01307 0.21141 0.08457 0.0
H88 H 0.16797 0.34373 0.13364 0.0
H89 H 0.96967 0.2474 0.16247 0.0
H90 H 0.99243 0.21163 0.15 0.0
H91 H 0.96741 0.24655 0.13806 0.0
C92 C 0.09406 0.19383 0.11411 0.0
C93 C 0.06427 0.18875 0.09788 0.0
C94 C 0.09924 0.22742 0.12844 0.0
C95 C 0.07377 0.25541 0.1269 0.0
C96 C 0.04089 0.24742 0.11128 0.0
H97 H 0.0547 0.50172 0.17223 0.0
H98 H 0.05352 0.43256 0.15436 0.0
C99 C 0.03623 0.21446 0.09688 0.0
C100 C 0.0861 0.2975 0.14046 0.0
H101 H 0.02705 0.33933 0.1687 0.0
C102 C 0.13757 0.34262 0.1416 0.0
C103 C 0.04625 0.29574 0.15073 0.0
C104 C 0.99091 0.24757 0.15043 0.0
C105 C 0.14935 0.38737 0.15193 0.0
C106 C 0.10875 0.38635 0.1616 0.0
C107 C 0.05806 0.3402 0.16116 0.0
C108 C 0.1161 0.43349 0.17113 0.0
C109 C 0.2041 0.43612 0.15161 0.0
C110 C 0.15327 0.45852 0.18611 0.0
C111 C 0.15468 0.49902 0.19619 0.0
C112 C 0.11831 0.51413 0.19157 0.0
C113 C 0.08315 0.49075 0.17607 0.0
C114 C 0.08223 0.45104 0.16593 0.0
H115 H 0.22712 0.43364 0.14061 0.0
H116 H 0.20119 0.47095 0.14976 0.0
H117 H 0.22675 0.44186 0.16478 0.0
H118 H 0.17927 0.44512 0.19052 0.0
H119 H 0.18154 0.51591 0.20826 0.0
H120 H 0.91426 0.09143 0.4398 0.0
H121 H 0.85498 0.07742 0.46355 0.0
H122 H 0.79358 0.91233 0.45994 0.0
H123 H 0.85404 0.92624 0.43592 0.0
H124 H 0.71494 0.94052 0.45651 0.0
H125 H 0.85337 0.0401 0.51705 0.0
H126 H 0.87485 0.07883 0.49743 0.0
H127 H 0.87159 0.01764 0.49748 0.0
C128 C 0.8893 0.05225 0.44423 0.0
C129 C 0.88916 0.01003 0.43594 0.0
C130 C 0.85543 0.04432 0.45794 0.0
C131 C 0.82039 0.99397 0.46367 0.0
C132 C 0.82081 0.9516 0.45581 0.0
H133 H 0.55677 0.94227 0.53011 0.0
H134 H 0.61385 0.92205 0.51344 0.0
C135 C 0.85542 0.95965 0.44215 0.0
C136 C 0.78007 0.98625 0.47645 0.0
H137 H 0.76909 0.03548 0.51675 0.0
C138 C 0.72633 0.95994 0.46992 0.0
C139 C 0.79521 0.01169 0.49389 0.0
C140 C 0.85186 0.03821 0.50196 0.0
C141 C 0.68805 0.96207 0.47978 0.0
C142 C 0.70409 0.99075 0.49664 0.0
C143 C 0.75707 0.01396 0.50372 0.0
C144 C 0.66813 0.00168 0.5063 0.0
C145 C 0.63162 0.93674 0.47159 0.0
C146 C 0.67988 0.05309 0.50779 0.0
C147 C 0.64754 0.06479 0.51726 0.0
C148 C 0.60285 0.02528 0.52553 0.0
C149 C 0.59074 0.97357 0.52382 0.0
C150 C 0.62322 0.96189 0.5143 0.0
H151 H 0.62737 0.92173 0.45737 0.0
H152 H 0.60449 0.90353 0.47981 0.0
H153 H 0.61849 0.96501 0.47179 0.0
H154 H 0.71439 0.08431 0.50168 0.0
H155 H 0.65813 0.105 0.51833 0.0
H156 H 0.97316 0.94439 0.76533 0.0
H157 H 0.91329 0.88935 0.78814 0.0
H158 H 0.83593 0.97664 0.78651 0.0
H159 H 0.89575 0.03209 0.76386 0.0
H160 H 0.85308 0.95054 0.82212 0.0
H161 H 0.75555 0.77949 0.77302 0.0
H162 H 0.82667 0.81012 0.77613 0.0
H163 H 0.79901 0.84539 0.76617 0.0
C164 C 0.94392 0.95235 0.77 0.0
C165 C 0.93897 0.99236 0.76268 0.0
C166 C 0.90959 0.92073 0.78296 0.0
C167 C 0.8696 0.9284 0.78872 0.0
C168 C 0.86637 0.96997 0.78216 0.0
H169 H 0.60904 0.73846 0.85994 0.0
H170 H 0.66706 0.80764 0.83984 0.0
C171 C 0.90068 0.00164 0.76922 0.0
C172 C 0.82947 0.89139 0.80084 0.0
H173 H 0.73287 0.76287 0.8037 0.0
C174 C 0.82642 0.90958 0.81809 0.0
C175 C 0.79426 0.8382 0.79537 0.0
C176 C 0.79351 0.8171 0.7766 0.0
C177 C 0.79068 0.87524 0.83037 0.0
C178 C 0.75703 0.82174 0.82511 0.0
C179 C 0.75891 0.80398 0.80766 0.0
C180 C 0.72291 0.78245 0.83795 0.0
C181 C 0.79045 0.89578 0.8491 0.0
C182 C 0.73513 0.74559 0.84338 0.0
C183 C 0.70233 0.70632 0.85469 0.0
C184 C 0.65626 0.70279 0.86079 0.0
C185 C 0.64423 0.74016 0.85548 0.0
C186 C 0.67739 0.77977 0.8441 0.0
H187 H 0.82353 0.93703 0.8518 0.0
H188 H 0.75208 0.89343 0.85048 0.0
H189 H 0.79378 0.8715 0.85959 0.0
H190 H 0.77004 0.74701 0.83874 0.0
H191 H 0.71304 0.67839 0.85851 0.0
H192 H 0.1135 -0.00034 0.10862 0.0
H193 H 0.09141 0.92692 0.12805 0.0
H194 H 0.01569 0.81854 0.08169 0.0
H195 H 0.03841 0.89112 0.06207 0.0
H196 H 0.99241 0.83948 0.13482 0.0
H197 H 0.12198 0.78269 0.10287 0.0
H198 H 0.12701 0.84382 0.0988 0.0
H199 H 0.07381 0.78435 0.08759 0.0
C200 C 0.09234 0.96039 0.10252 0.0
C201 C 0.07821 0.95126 0.08376 0.0
C202 C 0.07954 0.91884 0.11366 0.0
C203 C 0.05244 0.86741 0.10628 0.0
C204 C 0.03747 0.85802 0.08761 0.0
H205 H 0.9378 0.60207 0.1787 0.0
H206 H 0.9372 0.65808 0.15496 0.0
C207 C 0.05044 0.89958 0.07643 0.0
C208 C 0.04072 0.82395 0.11819 0.0
H209 H 0.07179 0.732 0.12657 0.0
C210 C 0.00934 0.81561 0.13296 0.0
C211 C 0.06308 0.79309 0.11572 0.0
C212 C 0.09872 0.80152 0.10049 0.0
C213 C 0.00087 0.77811 0.14563 0.0
C214 C 0.02384 0.74778 0.14329 0.0
C215 C 0.0539 0.75509 0.12823 0.0
C216 C 0.02268 0.71274 0.15736 0.0
C217 C 0.96955 0.77291 0.16186 0.0
C218 C 0.07085 0.72445 0.16631 0.0
C219 C 0.07136 0.69267 0.17969 0.0
C220 C 0.02362 0.64819 0.18445 0.0
C221 C 0.9752 0.63615 0.17539 0.0
C222 C 0.97477 0.66819 0.1619 0.0
H223 H 0.96208 0.80514 0.16322 0.0
H224 H 0.93042 0.73546 0.1604 0.0
H225 H 0.99103 0.77246 0.17456 0.0
H226 H 0.10826 0.75864 0.16303 0.0
H227 H 0.10945 0.70326 0.18633 0.0
H228 H 0.12663 0.06012 0.41367 0.0
H229 H 0.20307 0.06617 0.43051 0.0
H230 H 0.21469 0.18529 0.46685 0.0
H231 H 0.13806 0.17945 0.45022 0.0
H232 H 0.31063 0.15358 0.43967 0.0
H233 H 0.19374 0.06653 0.50003 0.0
H234 H 0.16267 0.0634 0.47798 0.0
H235 H 0.19443 0.1227 0.49195 0.0
C236 C 0.14564 0.08799 0.42514 0.0
C237 C 0.12572 0.1189 0.4307 0.0
C238 C 0.18942 0.09144 0.43472 0.0
C239 C 0.21394 0.12561 0.45005 0.0
C240 C 0.19574 0.15812 0.45519 0.0
H241 H 0.504 0.20296 0.51395 0.0
H242 H 0.43812 0.20538 0.49331 0.0
C243 C 0.15203 0.15481 0.44562 0.0
C244 C 0.25678 0.12532 0.46118 0.0
H245 H 0.28509 0.09504 0.5029 0.0
C246 C 0.30521 0.14089 0.4535 0.0
C247 C 0.24916 0.10802 0.47913 0.0
C248 C 0.19709 0.08876 0.48778 0.0
C249 C 0.34658 0.14017 0.46342 0.0
C250 C 0.33926 0.12378 0.48148 0.0
C251 C 0.29065 0.10781 0.48907 0.0
C252 C 0.38107 0.12209 0.49277 0.0
C253 C 0.39735 0.15596 0.45441 0.0
C254 C 0.37075 0.0745 0.49936 0.0
C255 C 0.40815 0.07297 0.51119 0.0
C256 C 0.45654 0.11913 0.51679 0.0
C257 C 0.46723 0.16667 0.50987 0.0
C258 C 0.42975 0.16812 0.498 0.0
H259 H 0.39202 0.15584 0.43939 0.0
H260 H 0.42888 0.19606 0.4594 0.0
H261 H 0.41147 0.1294 0.45784 0.0
H262 H 0.3333 0.03857 0.49554 0.0
H263 H 0.39856 0.0357 0.51626 0.0
H264 H 0.18734 0.17154 0.74336 0.0
H265 H 0.27559 0.22193 0.75951 0.0
H266 H 0.21347 0.27979 0.79874 0.0
H267 H 0.12521 0.22947 0.78287 0.0
H268 H 0.3409 0.3301 0.76751 0.0
H269 H 0.28534 0.22006 0.83032 0.0
H270 H 0.24434 0.19552 0.80928 0.0
H271 H 0.24156 0.2422 0.82384 0.0
C272 C 0.19238 0.19499 0.75543 0.0
C273 C 0.14896 0.19615 0.76187 0.0
C274 C 0.24287 0.22371 0.76463 0.0
C275 C 0.25076 0.25371 0.78051 0.0
C276 C 0.20791 0.2559 0.78674 0.0
H277 H 0.49537 0.51812 0.83736 0.0
H278 H 0.43103 0.45326 0.81468 0.0
C279 C 0.15752 0.22737 0.77755 0.0
C280 C 0.30395 0.28394 0.79045 0.0
H281 H 0.36561 0.30535 0.83279 0.0
C282 C 0.34666 0.32416 0.7817 0.0
C283 C 0.3118 0.27536 0.80882 0.0
C284 C 0.26847 0.23057 0.81858 0.0
C285 C 0.39588 0.35845 0.79124 0.0
C286 C 0.40215 0.35264 0.81002 0.0
C287 C 0.36072 0.31007 0.81841 0.0
C288 C 0.44779 0.39387 0.82175 0.0
C289 C 0.4402 0.40148 0.78123 0.0
C290 C 0.47909 0.38228 0.83326 0.0
C291 C 0.51625 0.41963 0.84637 0.0
C292 C 0.5217 0.4686 0.84831 0.0
C293 C 0.49199 0.48068 0.83622 0.0
C294 C 0.45546 0.44374 0.82311 0.0
H295 H 0.43682 0.38993 0.76662 0.0
H296 H 0.43737 0.43662 0.78206 0.0
H297 H 0.48002 0.41202 0.78721 0.0
H298 H 0.47338 0.3438 0.83254 0.0
H299 H 0.53832 0.40916 0.8556 0.0
H300 H 0.96753 0.23582 0.713 0.0
H301 H 0.92009 0.25681 0.69006 0.0
H302 H 0.93718 0.16254 0.64985 0.0
H303 H 0.9861 0.14279 0.67247 0.0
H304 H 0.9363 0.24589 0.63488 0.0
H305 H 0.76744 0.13547 0.67903 0.0
H306 H 0.82415 0.19361 0.68957 0.0
H307 H 0.83009 0.13949 0.68293 0.0
C308 C 0.96273 0.22095 0.69913 0.0
C309 C 0.97951 0.18665 0.69466 0.0
C310 C 0.93536 0.23276 0.68606 0.0
C311 C 0.92353 0.20973 0.66843 0.0
C312 C 0.9454 0.18029 0.66344 0.0
H313 H 0.64421 0.07823 0.59824 0.0
H314 H 0.71944 0.10173 0.61977 0.0
C315 C 0.97346 0.16906 0.67642 0.0
C316 C 0.88238 0.20953 0.65605 0.0
H317 H 0.74875 0.16189 0.65153 0.0
C318 C 0.89539 0.22816 0.63855 0.0
C319 C 0.82882 0.18552 0.66082 0.0
C320 C 0.81146 0.16194 0.67903 0.0
C321 C 0.85601 0.22233 0.62555 0.0
C322 C 0.8025 0.19792 0.63032 0.0
C323 C 0.78989 0.18082 0.64797 0.0
C324 C 0.7579 0.185 0.61686 0.0
C325 C 0.87144 0.23997 0.60659 0.0
C326 C 0.7543 0.22411 0.60815 0.0
C327 C 0.71117 0.21075 0.59572 0.0
C328 C 0.67079 0.15806 0.59193 0.0
C329 C 0.67445 0.11917 0.60084 0.0
C330 C 0.71751 0.13252 0.61315 0.0
H331 H 0.91212 0.24881 0.60418 0.0
H332 H 0.8426 0.20965 0.5963 0.0
H333 H 0.87078 0.27592 0.60452 0.0
H334 H 0.78452 0.2649 0.61107 0.0
H335 H 0.70944 0.24165 0.58912 0.0
H336 H 0.96217 0.95673 0.0481 0.0
H337 H 0.89704 0.87452 0.03155 0.0
H338 H 0.89563 0.96005 0.9854 0.0
H339 H 0.95824 0.04212 0.00219 0.0
H340 H 0.80044 0.88347 0.9891 0.0
H341 H 0.93291 0.80549 0.99372 0.0
H342 H 0.91682 0.818 0.01556 0.0
H343 H 0.95518 0.87138 0.00118 0.0
C344 C 0.94731 0.95793 0.03451 0.0
C345 C 0.96544 0.00591 0.02643 0.0
C346 C 0.91061 0.91088 0.02498 0.0
C347 C 0.89262 0.91087 0.00699 0.0
C348 C 0.90912 0.95888 -0.00079 0.0
H349 H 0.76396 0.66674 0.92211 0.0
H350 H 0.82106 0.73628 0.94518 0.0
C351 C 0.94483 0.00588 0.00886 0.0
C352 C 0.85703 0.86128 0.99608 0.0
H353 H 0.8455 0.74848 0.98038 0.0
C354 C 0.81036 0.85399 0.98721 0.0
C355 C 0.87033 0.82307 0.99334 0.0
C356 C 0.92179 0.83003 0.00129 0.0
C357 C 0.77709 0.81022 0.97553 0.0
C358 C 0.7893 0.77106 0.97331 0.0
C359 C 0.83571 0.77805 0.98229 0.0
C360 C 0.75581 0.72409 0.96096 0.0
C361 C 0.7306 0.80787 0.9651 0.0
C362 C 0.7006 0.69233 0.96265 0.0
C363 C 0.66805 0.65363 0.94929 0.0
C364 C 0.69035 0.64456 0.9344 0.0
C365 C 0.74598 0.67285 0.93356 0.0
C366 C 0.7785 0.71267 0.9467 0.0
H367 H 0.73646 0.84722 0.96413 0.0
H368 H 0.72457 0.79076 0.95111 0.0
H369 H 0.69374 0.78335 0.97226 0.0
H370 H 0.68235 0.69899 0.97388 0.0
H371 H 0.62519 0.63194 0.95026 0.0
H372 H 0.07531 0.99077 0.35932 0.0
H373 H 0.10826 0.94916 0.33968 0.0
H374 H 0.94777 0.81706 0.3292 0.0
H375 H 0.91442 0.85817 0.3487 0.0
H376 H 0.09518 0.84669 0.34231 0.0
H377 H 0.00341 0.86691 0.27811 0.0
H378 H 0.01329 0.90485 0.29873 0.0
H379 H 0.95788 0.83847 0.29576 0.0
C380 C 0.047 0.95287 0.35281 0.0
C381 C 0.99213 0.92791 0.35547 0.0
C382 C 0.06595 0.92917 0.34165 0.0
C383 C 0.03035 0.88043 0.33284 0.0
C384 C 0.97577 0.85509 0.33568 0.0
H385 H 0.00415 0.64111 0.26568 0.0
H386 H 0.99866 0.70155 0.28617 0.0
C387 C 0.95681 0.87859 0.34688 0.0
C388 C 0.04969 0.85558 0.3206 0.0
H389 H 0.03261 0.80689 0.2771 0.0
C390 C 0.08234 0.83866 0.32798 0.0
C391 C 0.03321 0.8457 0.3019 0.0
C392 C 0.00043 0.86534 0.29308 0.0
C393 C 0.09616 0.80912 0.31732 0.0
C394 C 0.07723 0.79693 0.29885 0.0
C395 C 0.04687 0.81616 0.29131 0.0
C396 C 0.08317 0.75966 0.28754 0.0
C397 C 0.12841 0.7888 0.32603 0.0
C398 C 0.13287 0.77206 0.28169 0.0
C399 C 0.13629 0.73726 0.26986 0.0
C400 C 0.08995 0.68987 0.26369 0.0
C401 C 0.04064 0.67736 0.27002 0.0
C402 C 0.03734 0.71186 0.28177 0.0
H403 H 0.13496 0.79688 0.34098 0.0
H404 H 0.10803 0.74603 0.32317 0.0
H405 H 0.16789 0.80758 0.32013 0.0
H406 H 0.16865 0.80908 0.28587 0.0
H407 H 0.17479 0.74806 0.26518 0.0
H408 H 0.08724 0.95285 0.68567 0.0
H409 H 0.15459 0.95694 0.66659 0.0
H410 H 0.22656 0.1232 0.66348 0.0
H411 H 0.15977 0.11968 0.68267 0.0
H412 H 0.17656 0.99316 0.63112 0.0
H413 H 0.35298 0.10885 0.67974 0.0
H414 H 0.28536 0.07654 0.68661 0.0
H415 H 0.31369 0.1374 0.67555 0.0
C416 C 0.11749 0.99034 0.68098 0.0
C417 C 0.11824 0.03597 0.68575 0.0
C418 C 0.15591 0.99257 0.67008 0.0
C419 C 0.19598 0.04046 0.66386 0.0
C420 C 0.19658 0.086 0.66844 0.0
H421 H 0.45606 0.1386 0.59386 0.0
H422 H 0.39073 0.13296 0.61429 0.0
C423 C 0.15816 0.08383 0.67932 0.0
C424 C 0.23627 0.04256 0.65216 0.0
H425 H 0.37013 0.09557 0.64966 0.0
C426 C 0.21886 0.01526 0.6352 0.0
C427 C 0.29139 0.07154 0.65754 0.0
C428 C 0.31211 0.09991 0.67591 0.0
C429 C 0.25526 0.01705 0.62327 0.0
C430 C 0.31041 0.04618 0.62861 0.0
C431 C 0.32781 0.07331 0.64561 0.0
C432 C 0.35072 0.04939 0.61665 0.0
C433 C 0.23449 0.98887 0.60486 0.0
C434 C 0.35045 0.00438 0.6115 0.0
C435 C 0.38768 0.00741 0.59981 0.0
C436 C 0.42607 0.05562 0.59315 0.0
C437 C 0.42696 0.10083 0.5987 0.0
C438 C 0.3897 0.09773 0.61038 0.0
H439 H 0.19336 0.97937 0.60115 0.0
H440 H 0.26085 0.01266 0.59414 0.0
H441 H 0.23357 0.95169 0.60507 0.0
H442 H 0.32134 0.96685 0.61649 0.0
H443 H 0.38606 0.97189 0.59591 0.0
H444 H 0.1249 0.19207 0.0091 0.0
H445 H 0.17023 0.24782 0.98429 0.0
H446 H 0.29072 0.2087 0.9895 0.0
H447 H 0.245 0.1523 0.01441 0.0
H448 H 0.27101 0.33345 0.99023 0.0
H449 H 0.2654 0.20532 0.9345 0.0
H450 H 0.22111 0.18041 0.95279 0.0
H451 H 0.28858 0.19569 0.95614 0.0
C452 C 0.16056 0.19466 0.00484 0.0
C453 C 0.18196 0.1686 0.01393 0.0
C454 C 0.18626 0.22632 0.99055 0.0
C455 C 0.23382 0.23245 0.98504 0.0
C456 C 0.25355 0.20387 0.99332 0.0
H457 H 0.50092 0.44556 0.92782 0.0
H458 H 0.43258 0.37604 0.94487 0.0
C459 C 0.2275 0.17176 0.00758 0.0
C460 C 0.26609 0.27368 0.97243 0.0
H461 H 0.32971 0.29689 0.93313 0.0
C462 C 0.28323 0.32544 0.97759 0.0
C463 C 0.28196 0.26304 0.95601 0.0
C464 C 0.26292 0.20804 0.94942 0.0
C465 C 0.31778 0.36716 0.96718 0.0
C466 C 0.33486 0.35667 0.95101 0.0
C467 C 0.31646 0.30477 0.94555 0.0
C468 C 0.37531 0.39916 0.94039 0.0
C469 C 0.33764 0.4222 0.97404 0.0
C470 C 0.36578 0.43542 0.9322 0.0
C471 C 0.40519 0.47582 0.9225 0.0
C472 C 0.45442 0.4801 0.92072 0.0
C473 C 0.46348 0.44347 0.9289 0.0
C474 C 0.42437 0.4035 0.93861 0.0
H475 H 0.32941 0.42393 0.98849 0.0
H476 H 0.38125 0.44799 0.97271 0.0
H477 H 0.31728 0.43785 0.9658 0.0
H478 H 0.3278 0.43225 0.9332 0.0
H479 H 0.39686 0.50314 0.91622 0.0
H480 H 0.04488 0.25687 0.37818 0.0
H481 H 0.04143 0.30742 0.35328 0.0
H482 H 0.9963 0.17881 0.31523 0.0
H483 H 0.0001 0.12775 0.34011 0.0
H484 H 0.06962 0.27792 0.30225 0.0
H485 H 0.89627 0.27271 0.32992 0.0
H486 H 0.95232 0.29754 0.34622 0.0
H487 H 0.9192 0.23092 0.33753 0.0
C488 C 0.03502 0.23948 0.36449 0.0
C489 C 0.02207 0.18795 0.36118 0.0
C490 C 0.03267 0.26833 0.3503 0.0
C491 C 0.017 0.2462 0.33254 0.0
C492 C 0.00777 0.19625 0.32892 0.0
H493 H 0.92786 0.40003 0.2498 0.0
H494 H 0.92267 0.33233 0.26933 0.0
C495 C 0.01028 0.16728 0.34314 0.0
C496 C 0.00876 0.27493 0.31798 0.0
H497 H 0.94089 0.33477 0.30725 0.0
C498 C 0.04105 0.28982 0.3032 0.0
C499 C 0.97049 0.28929 0.31902 0.0
C500 C 0.93218 0.27134 0.33393 0.0
C501 C 0.0383 0.32145 0.29 0.0
C502 C 0.00292 0.33915 0.29184 0.0
C503 C 0.96839 0.32164 0.306 0.0
C504 C 0.00472 0.37947 0.28019 0.0
C505 C 0.07392 0.33633 0.27437 0.0
C506 C 0.05184 0.42868 0.28036 0.0
C507 C 0.05483 0.46711 0.26939 0.0
C508 C 0.01058 0.45742 0.25806 0.0
C509 C 0.96261 0.40865 0.25837 0.0
C510 C 0.95968 0.36994 0.26942 0.0
H511 H 0.08515 0.30722 0.27168 0.0
H512 H 0.05423 0.33993 0.26176 0.0
H513 H 0.11119 0.37456 0.27781 0.0
H514 H 0.08655 0.43737 0.28897 0.0
H515 H 0.09228 0.50438 0.26968 0.0
loop_
_geom_bond_atom_site_label_1
_geom_bond_atom_site_label_2
_geom_bond_distance
_geom_bond_site_symmetry_2
_ccdc_geom_bond_type
Mg0 O1 2.028 . S
Mg0 O7 1.986 . S
Mg0 O9 2.114 . S
Mg0 O10 2.251 . S
Mg0 O13 2.010 . S
O1 Mg0 2.028 . S
O1 C4 1.250 . S
O2 Mg3 2.028 . S
O2 C4 1.248 . S
Mg3 O2 2.028 . S
Mg3 O8 2.032 . S
Mg3 O10 2.079 . S
C4 O1 1.250 . S
C4 O2 1.248 . S
C5 O6 1.264 . S
C5 O13 1.249 . S
O6 C5 1.264 . S
O7 Mg0 1.986 . S
O7 C11 1.246 . S
O8 Mg3 2.032 . S
O8 C11 1.259 . S
O9 Mg0 2.114 . S
O9 C12 1.252 . S
O10 Mg0 2.251 . S
O10 Mg3 2.079 . S
O10 C12 1.273 . S
C11 O7 1.246 . S
C11 O8 1.259 . S
C12 O9 1.252 . S
C12 O10 1.273 . S
O13 Mg0 2.010 . S
O13 C5 1.249 . S
Mg14 O15 2.028 1_655 S
Mg14 O21 1.986 1_655 S
Mg14 O23 2.114 . S
Mg14 O24 2.251 . S
Mg14 O27 2.010 1_545 S
O15 Mg14 2.028 1_455 S
O15 C18 1.250 . S
O16 Mg17 2.028 . S
O16 C18 1.248 . S
Mg17 O16 2.028 . S
Mg17 O22 2.032 . S
Mg17 O24 2.079 1_455 S
C18 O15 1.250 . S
C18 O16 1.248 . S
C19 O20 1.264 . S
C19 O27 1.249 . S
O20 C19 1.264 . S
O21 Mg14 1.986 1_455 S
O21 C25 1.246 . S
O22 Mg17 2.032 . S
O22 C25 1.259 . S
O23 Mg14 2.114 . S
O23 C26 1.252 . S
O24 Mg14 2.251 . S
O24 Mg17 2.079 1_655 S
O24 C26 1.273 . S
C25 O21 1.246 . S
C25 O22 1.259 . S
C26 O23 1.252 . S
C26 O24 1.273 . S
O27 Mg14 2.010 1_565 S
O27 C19 1.249 . S
Mg28 O29 2.028 . S
Mg28 O35 1.986 . S
Mg28 O37 2.114 1_545 S
Mg28 O38 2.251 1_455 S
Mg28 O41 2.010 . S
O29 Mg28 2.028 . S
O29 C32 1.250 . S
O30 Mg31 2.028 1_455 S
O30 C32 1.248 . S
Mg31 O30 2.028 1_655 S
Mg31 O36 2.032 . S
Mg31 O38 2.079 . S
C32 O29 1.250 . S
C32 O30 1.248 . S
C33 O34 1.264 1_545 S
C33 O41 1.249 . S
O34 C33 1.264 1_565 S
O35 Mg28 1.986 . S
O35 C39 1.246 1_455 S
O36 Mg31 2.032 . S
O36 C39 1.259 . S
O37 Mg28 2.114 1_565 S
O37 C40 1.252 1_455 S
O38 Mg28 2.251 1_655 S
O38 Mg31 2.079 . S
O38 C40 1.273 1_545 S
C39 O35 1.246 1_655 S
C39 O36 1.259 . S
C40 O37 1.252 1_655 S
C40 O38 1.273 1_565 S
O41 Mg28 2.010 . S
O41 C33 1.249 . S
C42 O44 1.247 . S
C42 O46 1.258 . S
C43 O50 1.247 . S
C43 O51 1.258 . S
O44 C42 1.247 . S
O44 Zn45 2.028 . S
Zn45 O44 2.028 . S
Zn45 O49 2.035 . S
Zn45 O51 2.035 . S
Zn45 O52 2.028 . S
O46 C42 1.258 . S
O46 Zn47 2.035 1_455 S
Zn47 O46 2.035 1_655 S
Zn47 O48 2.028 1_655 S
Zn47 O50 2.028 1_655 S
Zn47 O53 2.035 1_655 S
O48 Zn47 2.028 1_455 S
O48 C54 1.247 . S
O49 Zn45 2.035 . S
O49 C54 1.258 . S
O50 C43 1.247 . S
O50 Zn47 2.028 1_455 S
O51 C43 1.258 . S
O51 Zn45 2.035 . S
O52 Zn45 2.028 . S
O52 C55 1.247 . S
O53 Zn47 2.035 1_455 S
O53 C55 1.258 . S
C54 O48 1.247 . S
C54 O49 1.258 . S
C55 O52 1.247 . S
C55 O53 1.258 . S
C56 O58 1.247 . S
C56 O60 1.258 . S
C57 O64 1.247 . S
C57 O65 1.258 . S
O58 C56 1.247 . S
O58 Zn59 2.028 . S
Zn59 O58 2.028 . S
Zn59 O63 2.035 . S
Zn59 O65 2.035 . S
Zn59 O66 2.028 . S
O60 C56 1.258 . S
O60 Zn61 2.035 . S
Zn61 O60 2.035 . S
Zn61 O62 2.028 . S
Zn61 O64 2.028 . S
Zn61 O67 2.035 . S
O62 Zn61 2.028 . S
O62 C68 1.247 . S
O63 Zn59 2.035 . S
O63 C68 1.258 . S
O64 C57 1.247 . S
O64 Zn61 2.028 . S
O65 C57 1.258 . S
O65 Zn59 2.035 . S
O66 Zn59 2.028 . S
O66 C69 1.247 . S
O67 Zn61 2.035 . S
O67 C69 1.258 . S
C68 O62 1.247 . S
C68 O63 1.258 . S
C69 O66 1.247 . S
C69 O67 1.258 . S
C70 O72 1.247 . S
C70 O74 1.258 . S
C71 O78 1.247 . S
C71 O79 1.258 . S
O72 C70 1.247 . S
O72 Zn73 2.028 . S
Zn73 O72 2.028 . S
Zn73 O77 2.035 . S
Zn73 O79 2.035 . S
Zn73 O80 2.028 . S
O74 C70 1.258 . S
O74 Zn75 2.035 . S
Zn75 O74 2.035 . S
Zn75 O76 2.028 . S
Zn75 O78 2.028 . S
Zn75 O81 2.035 . S
O76 Zn75 2.028 . S
O76 C82 1.247 . S
O77 Zn73 2.035 . S
O77 C82 1.258 . S
O78 C71 1.247 . S
O78 Zn75 2.028 . S
O79 C71 1.258 . S
O79 Zn73 2.035 . S
O80 Zn73 2.028 . S
O80 C83 1.247 . S
O81 Zn75 2.035 . S
O81 C83 1.258 . S
C82 O76 1.247 . S
C82 O77 1.258 . S
C83 O80 1.247 . S
C83 O81 1.258 . S
H84 C92 0.929 . S
H85 C94 0.930 . S
H86 C96 0.930 . S
H87 C99 0.929 . S
H88 C102 0.930 . S
H89 C104 0.960 . S
H90 C104 0.960 . S
H91 C104 0.960 . S
C92 H84 0.929 . S
C92 C93 1.377 . S
C92 C94 1.384 . S
C93 C92 1.377 . S
C93 C99 1.390 . S
C94 H85 0.930 . S
C94 C92 1.384 . S
C94 C95 1.372 . S
C95 C94 1.372 . S
C95 C96 1.400 . S
C95 C100 1.490 . S
C96 H86 0.930 . S
C96 C95 1.400 . S
C96 C99 1.386 . S
H97 C113 0.930 . S
H98 C114 0.931 . S
C99 H87 0.929 . S
C99 C93 1.390 . S
C99 C96 1.386 . S
C100 C95 1.490 . S
C100 C102 1.395 . S
C100 C103 1.403 . S
H101 C107 0.930 . S
C102 H88 0.930 . S
C102 C100 1.395 . S
C102 C105 1.403 . S
C103 C100 1.403 . S
C103 C104 1.524 1_455 S
C103 C107 1.400 . S
C104 H89 0.960 . S
C104 H90 0.960 . S
C104 H91 0.960 . S
C104 C103 1.524 1_655 S
C105 C102 1.403 . S
C105 C106 1.392 . S
C105 C109 1.495 . S
C106 C105 1.392 . S
C106 C107 1.385 . S
C106 C108 1.478 . S
C107 H101 0.930 . S
C107 C103 1.400 . S
C107 C106 1.385 . S
C108 C106 1.478 . S
C108 C110 1.381 . S
C108 C114 1.383 . S
C109 C105 1.495 . S
C109 H115 0.959 . S
C109 H116 0.961 . S
C109 H117 0.960 . S
C110 C108 1.381 . S
C110 C111 1.394 . S
C110 H118 0.930 . S
C111 C110 1.394 . S
C111 C112 1.383 . S
C111 H119 0.929 . S
C112 C111 1.383 . S
C112 C113 1.377 . S
C113 H97 0.930 . S
C113 C112 1.377 . S
C113 C114 1.379 . S
C114 H98 0.931 . S
C114 C108 1.383 . S
C114 C113 1.379 . S
H115 C109 0.959 . S
H116 C109 0.961 . S
H117 C109 0.960 . S
H118 C110 0.930 . S
H119 C111 0.929 . S
H120 C128 0.929 . S
H121 C130 0.930 . S
H122 C132 0.930 . S
H123 C135 0.917 1_565 S
H124 C138 0.930 . S
H125 C140 0.960 . S
H126 C140 0.960 . S
H127 C140 0.960 . S
C128 H120 0.929 . S
C128 C129 1.377 . S
C128 C130 1.384 . S
C129 C128 1.377 . S
C129 C135 1.390 . S
C130 H121 0.930 . S
C130 C128 1.384 . S
C130 C131 1.372 . S
C131 C130 1.372 . S
C131 C132 1.400 . S
C131 C136 1.490 . S
C132 H122 0.930 . S
C132 C131 1.400 . S
C132 C135 1.386 . S
H133 C149 0.930 . S
H134 C150 0.931 . S
C135 H123 0.917 1_545 S
C135 C129 1.390 . S
C135 C132 1.386 . S
C136 C131 1.490 . S
C136 C138 1.395 . S
C136 C139 1.403 . S
H137 C143 0.930 . S
C138 H124 0.930 . S
C138 C136 1.395 . S
C138 C141 1.403 . S
C139 C136 1.403 . S
C139 C140 1.524 . S
C139 C143 1.400 . S
C140 H125 0.960 . S
C140 H126 0.960 . S
C140 H127 0.960 . S
C140 C139 1.524 . S
C141 C138 1.403 . S
C141 C142 1.392 . S
C141 C145 1.495 . S
C142 C141 1.392 . S
C142 C143 1.385 . S
C142 C144 1.478 . S
C143 H137 0.930 . S
C143 C139 1.400 . S
C143 C142 1.385 . S
C144 C142 1.478 . S
C144 C146 1.381 . S
C144 C150 1.383 . S
C145 C141 1.495 . S
C145 H151 0.959 . S
C145 H152 0.961 . S
C145 H153 0.960 . S
C146 C144 1.381 . S
C146 C147 1.394 . S
C146 H154 0.930 . S
C147 C146 1.394 . S
C147 C148 1.383 . S
C147 H155 0.929 . S
C148 C147 1.383 . S
C148 C149 1.377 . S
C149 H133 0.930 . S
C149 C148 1.377 . S
C149 C150 1.379 . S
C150 H134 0.931 . S
C150 C144 1.383 . S
C150 C149 1.379 . S
H151 C145 0.959 . S
H152 C145 0.961 . S
H153 C145 0.960 . S
H154 C146 0.930 . S
H155 C147 0.929 . S
H156 C164 0.929 1_455 S
H157 C166 0.930 . S
H158 C168 0.930 . S
H159 C171 0.929 . S
H160 C174 0.930 . S
H161 C176 0.960 . S
H162 C176 0.960 . S
H163 C176 0.960 . S
C164 H156 0.929 1_655 S
C164 C165 1.377 . S
C164 C166 1.384 . S
C165 C164 1.377 . S
C165 C171 1.390 . S
C166 H157 0.930 . S
C166 C164 1.384 . S
C166 C167 1.372 . S
C167 C166 1.372 . S
C167 C168 1.400 . S
C167 C172 1.490 . S
C168 H158 0.930 . S
C168 C167 1.400 . S
C168 C171 1.386 . S
H169 C185 0.930 . S
H170 C186 0.931 . S
C171 H159 0.929 . S
C171 C165 1.390 . S
C171 C168 1.386 . S
C172 C167 1.490 . S
C172 C174 1.395 . S
C172 C175 1.403 . S
H173 C179 0.930 . S
C174 H160 0.930 . S
C174 C172 1.395 . S
C174 C177 1.403 . S
C175 C172 1.403 . S
C175 C176 1.524 . S
C175 C179 1.400 . S
C176 H161 0.960 . S
C176 H162 0.960 . S
C176 H163 0.960 . S
C176 C175 1.524 . S
C177 C174 1.403 . S
C177 C178 1.392 . S
C177 C181 1.495 . S
C178 C177 1.392 . S
C178 C179 1.385 . S
C178 C180 1.478 . S
C179 H173 0.930 . S
C179 C175 1.400 . S
C179 C178 1.385 . S
C180 C178 1.478 . S
C180 C182 1.381 . S
C180 C186 1.383 . S
C181 C177 1.495 . S
C181 H187 0.959 . S
C181 H188 0.961 . S
C181 H189 0.960 . S
C182 C180 1.381 . S
C182 C183 1.394 . S
C182 H190 0.930 . S
C183 C182 1.394 . S
C183 C184 1.383 . S
C183 H191 0.929 . S
C184 C183 1.383 . S
C184 C185 1.377 . S
C185 H169 0.930 . S
C185 C184 1.377 . S
C185 C186 1.379 . S
C186 H170 0.931 . S
C186 C180 1.383 . S
C186 C185 1.379 . S
H187 C181 0.959 . S
H188 C181 0.961 . S
H189 C181 0.960 . S
H190 C182 0.930 . S
H191 C183 0.929 . S
H192 C200 0.929 1_545 S
H193 C202 0.930 . S
H194 C204 0.930 . S
H195 C207 0.929 . S
H196 C210 0.930 . S
H197 C212 0.960 . S
H198 C212 0.960 . S
H199 C212 0.960 . S
C200 H192 0.929 1_565 S
C200 C201 1.377 . S
C200 C202 1.384 . S
C201 C200 1.377 . S
C201 C207 1.390 . S
C202 H193 0.930 . S
C202 C200 1.384 . S
C202 C203 1.372 . S
C203 C202 1.372 . S
C203 C204 1.400 . S
C203 C208 1.490 . S
C204 H194 0.930 . S
C204 C203 1.400 . S
C204 C207 1.386 . S
H205 C221 0.930 . S
H206 C222 0.931 . S
C207 H195 0.929 . S
C207 C201 1.390 . S
C207 C204 1.386 . S
C208 C203 1.490 . S
C208 C210 1.395 . S
C208 C211 1.403 . S
H209 C215 0.930 . S
C210 H196 0.930 . S
C210 C208 1.395 . S
C210 C213 1.403 . S
C211 C208 1.403 . S
C211 C212 1.524 . S
C211 C215 1.400 . S
C212 H197 0.960 . S
C212 H198 0.960 . S
C212 H199 0.960 . S
C212 C211 1.524 . S
C213 C210 1.403 . S
C213 C214 1.392 . S
C213 C217 1.495 1_455 S
C214 C213 1.392 . S
C214 C215 1.385 . S
C214 C216 1.478 . S
C215 H209 0.930 . S
C215 C211 1.400 . S
C215 C214 1.385 . S
C216 C214 1.478 . S
C216 C218 1.381 . S
C216 C222 1.383 . S
C217 C213 1.495 1_655 S
C217 H223 0.959 . S
C217 H224 0.961 . S
C217 H225 0.960 . S
C218 C216 1.381 . S
C218 C219 1.394 . S
C218 H226 0.930 . S
C219 C218 1.394 . S
C219 C220 1.383 . S
C219 H227 0.929 . S
C220 C219 1.383 . S
C220 C221 1.377 . S
C221 H205 0.930 . S
C221 C220 1.377 . S
C221 C222 1.379 . S
C222 H206 0.931 . S
C222 C216 1.383 . S
C222 C221 1.379 . S
H223 C217 0.959 . S
H224 C217 0.961 . S
H225 C217 0.960 . S
H226 C218 0.930 . S
H227 C219 0.929 . S
H228 C236 0.929 . S
H229 C238 0.930 . S
H230 C240 0.930 . S
H231 C243 0.929 . S
H232 C246 0.930 . S
H233 C248 0.960 . S
H234 C248 0.960 . S
H235 C248 0.960 . S
C236 H228 0.929 . S
C236 C237 1.377 . S
C236 C238 1.384 . S
C237 C236 1.377 . S
C237 C243 1.390 . S
C238 H229 0.930 . S
C238 C236 1.384 . S
C238 C239 1.372 . S
C239 C238 1.372 . S
C239 C240 1.400 . S
C239 C244 1.490 . S
C240 H230 0.930 . S
C240 C239 1.400 . S
C240 C243 1.386 . S
H241 C257 0.930 . S
H242 C258 0.931 . S
C243 H231 0.929 . S
C243 C237 1.390 . S
C243 C240 1.386 . S
C244 C239 1.490 . S
C244 C246 1.395 . S
C244 C247 1.403 . S
H245 C251 0.930 . S
C246 H232 0.930 . S
C246 C244 1.395 . S
C246 C249 1.403 . S
C247 C244 1.403 . S
C247 C248 1.524 . S
C247 C251 1.400 . S
C248 H233 0.960 . S
C248 H234 0.960 . S
C248 H235 0.960 . S
C248 C247 1.524 . S
C249 C246 1.403 . S
C249 C250 1.392 . S
C249 C253 1.495 . S
C250 C249 1.392 . S
C250 C251 1.385 . S
C250 C252 1.478 . S
C251 H245 0.930 . S
C251 C247 1.400 . S
C251 C250 1.385 . S
C252 C250 1.478 . S
C252 C254 1.381 . S
C252 C258 1.383 . S
C253 C249 1.495 . S
C253 H259 0.959 . S
C253 H260 0.961 . S
C253 H261 0.960 . S
C254 C252 1.381 . S
C254 C255 1.394 . S
C254 H262 0.930 . S
C255 C254 1.394 . S
C255 C256 1.383 . S
C255 H263 0.929 . S
C256 C255 1.383 . S
C256 C257 1.377 . S
C257 H241 0.930 . S
C257 C256 1.377 . S
C257 C258 1.379 . S
C258 H242 0.931 . S
C258 C252 1.383 . S
C258 C257 1.379 . S
H259 C253 0.959 . S
H260 C253 0.961 . S
H261 C253 0.960 . S
H262 C254 0.930 . S
H263 C255 0.929 . S
H264 C272 0.929 . S
H265 C274 0.930 . S
H266 C276 0.930 . S
H267 C279 0.929 . S
H268 C282 0.930 . S
H269 C284 0.960 . S
H270 C284 0.960 . S
H271 C284 0.960 . S
C272 H264 0.929 . S
C272 C273 1.377 . S
C272 C274 1.384 . S
C273 C272 1.377 . S
C273 C279 1.390 . S
C274 H265 0.930 . S
C274 C272 1.384 . S
C274 C275 1.372 . S
C275 C274 1.372 . S
C275 C276 1.400 . S
C275 C280 1.490 . S
C276 H266 0.930 . S
C276 C275 1.400 . S
C276 C279 1.386 . S
H277 C293 0.930 . S
H278 C294 0.931 . S
C279 H267 0.929 . S
C279 C273 1.390 . S
C279 C276 1.386 . S
C280 C275 1.490 . S
C280 C282 1.395 . S
C280 C283 1.403 . S
H281 C287 0.930 . S
C282 H268 0.930 . S
C282 C280 1.395 . S
C282 C285 1.403 . S
C283 C280 1.403 . S
C283 C284 1.524 . S
C283 C287 1.400 . S
C284 H269 0.960 . S
C284 H270 0.960 . S
C284 H271 0.960 . S
C284 C283 1.524 . S
C285 C282 1.403 . S
C285 C286 1.392 . S
C285 C289 1.495 . S
C286 C285 1.392 . S
C286 C287 1.385 . S
C286 C288 1.478 . S
C287 H281 0.930 . S
C287 C283 1.400 . S
C287 C286 1.385 . S
C288 C286 1.478 . S
C288 C290 1.381 . S
C288 C294 1.383 . S
C289 C285 1.495 . S
C289 H295 0.959 . S
C289 H296 0.961 . S
C289 H297 0.960 . S
C290 C288 1.381 . S
C290 C291 1.394 . S
C290 H298 0.930 . S
C291 C290 1.394 . S
C291 C292 1.383 . S
C291 H299 0.929 . S
C292 C291 1.383 . S
C292 C293 1.377 . S
C293 H277 0.930 . S
C293 C292 1.377 . S
C293 C294 1.379 . S
C294 H278 0.931 . S
C294 C288 1.383 . S
C294 C293 1.379 . S
H295 C289 0.959 . S
H296 C289 0.961 . S
H297 C289 0.960 . S
H298 C290 0.930 . S
H299 C291 0.929 . S
H300 C308 0.929 . S
H301 C310 0.930 . S
H302 C312 0.930 . S
H303 C315 0.929 . S
H304 C318 0.930 . S
H305 C320 0.960 . S
H306 C320 0.960 . S
H307 C320 0.960 . S
C308 H300 0.929 . S
C308 C309 1.377 . S
C308 C310 1.384 . S
C309 C308 1.377 . S
C309 C315 1.390 . S
C310 H301 0.930 . S
C310 C308 1.384 . S
C310 C311 1.372 . S
C311 C310 1.372 . S
C311 C312 1.400 . S
C311 C316 1.490 . S
C312 H302 0.930 . S
C312 C311 1.400 . S
C312 C315 1.386 . S
H313 C329 0.930 . S
H314 C330 0.931 . S
C315 H303 0.929 . S
C315 C309 1.390 . S
C315 C312 1.386 . S
C316 C311 1.490 . S
C316 C318 1.395 . S
C316 C319 1.403 . S
H317 C323 0.930 . S
C318 H304 0.930 . S
C318 C316 1.395 . S
C318 C321 1.403 . S
C319 C316 1.403 . S
C319 C320 1.524 . S
C319 C323 1.400 . S
C320 H305 0.960 . S
C320 H306 0.960 . S
C320 H307 0.960 . S
C320 C319 1.524 . S
C321 C318 1.403 . S
C321 C322 1.392 . S
C321 C325 1.495 . S
C322 C321 1.392 . S
C322 C323 1.385 . S
C322 C324 1.478 . S
C323 H317 0.930 . S
C323 C319 1.400 . S
C323 C322 1.385 . S
C324 C322 1.478 . S
C324 C326 1.381 . S
C324 C330 1.383 . S
C325 C321 1.495 . S
C325 H331 0.959 . S
C325 H332 0.961 . S
C325 H333 0.960 . S
C326 C324 1.381 . S
C326 C327 1.394 . S
C326 H334 0.930 . S
C327 C326 1.394 . S
C327 C328 1.383 . S
C327 H335 0.929 . S
C328 C327 1.383 . S
C328 C329 1.377 . S
C329 H313 0.930 . S
C329 C328 1.377 . S
C329 C330 1.379 . S
C330 H314 0.931 . S
C330 C324 1.383 . S
C330 C329 1.379 . S
H331 C325 0.959 . S
H332 C325 0.961 . S
H333 C325 0.960 . S
H334 C326 0.930 . S
H335 C327 0.929 . S
H336 C344 0.929 . S
H337 C346 0.930 . S
H338 C348 0.930 1_556 S
H339 C351 0.929 1_445 S
H340 C354 0.930 . S
H341 C356 0.960 . S
H342 C356 0.960 1_554 S
H343 C356 0.960 . S
C344 H336 0.929 . S
C344 C345 1.377 1_565 S
C344 C346 1.384 . S
C345 C344 1.377 1_545 S
C345 C351 1.390 1_545 S
C346 H337 0.930 . S
C346 C344 1.384 . S
C346 C347 1.372 . S
C347 C346 1.372 . S
C347 C348 1.400 . S
C347 C352 1.490 1_554 S
C348 H338 0.930 1_554 S
C348 C347 1.400 . S
C348 C351 1.386 . S
H349 C365 0.930 . S
H350 C366 0.931 . S
C351 H339 0.929 1_665 S
C351 C345 1.390 1_565 S
C351 C348 1.386 . S
C352 C347 1.490 1_556 S
C352 C354 1.395 . S
C352 C355 1.403 . S
H353 C359 0.930 . S
C354 H340 0.930 . S
C354 C352 1.395 . S
C354 C357 1.403 . S
C355 C352 1.403 . S
C355 C356 1.524 . S
C355 C359 1.400 . S
C356 H341 0.960 . S
C356 H342 0.960 1_556 S
C356 H343 0.960 . S
C356 C355 1.524 . S
C357 C354 1.403 . S
C357 C358 1.392 . S
C357 C361 1.495 . S
C358 C357 1.392 . S
C358 C359 1.385 . S
C358 C360 1.478 . S
C359 H353 0.930 . S
C359 C355 1.400 . S
C359 C358 1.385 . S
C360 C358 1.478 . S
C360 C362 1.381 . S
C360 C366 1.383 . S
C361 C357 1.495 . S
C361 H367 0.959 . S
C361 H368 0.961 . S
C361 H369 0.960 . S
C362 C360 1.381 . S
C362 C363 1.394 . S
C362 H370 0.930 . S
C363 C362 1.394 . S
C363 C364 1.383 . S
C363 H371 0.929 . S
C364 C363 1.383 . S
C364 C365 1.377 . S
C365 H349 0.930 . S
C365 C364 1.377 . S
C365 C366 1.379 . S
C366 H350 0.931 . S
C366 C360 1.383 . S
C366 C365 1.379 . S
H367 C361 0.959 . S
H368 C361 0.961 . S
H369 C361 0.960 . S
H370 C362 0.930 . S
H371 C363 0.929 . S
H372 C380 0.929 . S
H373 C382 0.930 . S
H374 C384 0.930 . S
H375 C387 0.929 . S
H376 C390 0.930 . S
H377 C392 0.960 . S
H378 C392 0.960 . S
H379 C392 0.960 . S
C380 H372 0.929 . S
C380 C381 1.377 1_455 S
C380 C382 1.384 . S
C381 C380 1.377 1_655 S
C381 C387 1.390 . S
C382 H373 0.930 . S
C382 C380 1.384 . S
C382 C383 1.372 . S
C383 C382 1.372 . S
C383 C384 1.400 1_455 S
C383 C388 1.490 . S
C384 H374 0.930 . S
C384 C383 1.400 1_655 S
C384 C387 1.386 . S
H385 C401 0.930 . S
H386 C402 0.931 . S
C387 H375 0.929 . S
C387 C381 1.390 . S
C387 C384 1.386 . S
C388 C383 1.490 . S
C388 C390 1.395 . S
C388 C391 1.403 1_455 S
H389 C395 0.930 1_655 S
C390 H376 0.930 . S
C390 C388 1.395 . S
C390 C393 1.403 . S
C391 C388 1.403 1_655 S
C391 C392 1.524 . S
C391 C395 1.400 1_655 S
C392 H377 0.960 . S
C392 H378 0.960 . S
C392 H379 0.960 . S
C392 C391 1.524 . S
C393 C390 1.403 . S
C393 C394 1.392 . S
C393 C397 1.495 . S
C394 C393 1.392 . S
C394 C395 1.385 . S
C394 C396 1.478 . S
C395 H389 0.930 1_455 S
C395 C391 1.400 1_455 S
C395 C394 1.385 . S
C396 C394 1.478 . S
C396 C398 1.381 . S
C396 C402 1.383 1_455 S
C397 C393 1.495 . S
C397 H403 0.959 . S
C397 H404 0.961 . S
C397 H405 0.960 . S
C398 C396 1.381 . S
C398 C399 1.394 . S
C398 H406 0.930 . S
C399 C398 1.394 . S
C399 C400 1.383 . S
C399 H407 0.929 . S
C400 C399 1.383 . S
C400 C401 1.377 1_455 S
C401 H385 0.930 . S
C401 C400 1.377 1_655 S
C401 C402 1.379 . S
C402 H386 0.931 . S
C402 C396 1.383 1_655 S
C402 C401 1.379 . S
H403 C397 0.959 . S
H404 C397 0.961 . S
H405 C397 0.960 . S
H406 C398 0.930 . S
H407 C399 0.929 . S
H408 C416 0.929 1_565 S
H409 C418 0.930 1_565 S
H410 C420 0.930 . S
H411 C423 0.929 . S
H412 C426 0.930 . S
H413 C428 0.960 . S
H414 C428 0.960 . S
H415 C428 0.960 . S
C416 H408 0.929 1_545 S
C416 C417 1.377 . S
C416 C418 1.384 . S
C417 C416 1.377 . S
C417 C423 1.390 . S
C418 H409 0.930 1_545 S
C418 C416 1.384 . S
C418 C419 1.372 . S
C419 C418 1.372 . S
C419 C420 1.400 . S
C419 C424 1.490 . S
C420 H410 0.930 . S
C420 C419 1.400 . S
C420 C423 1.386 . S
H421 C437 0.930 . S
H422 C438 0.931 . S
C423 H411 0.929 . S
C423 C417 1.390 . S
C423 C420 1.386 . S
C424 C419 1.490 . S
C424 C426 1.395 . S
C424 C427 1.403 . S
H425 C431 0.930 . S
C426 H412 0.930 . S
C426 C424 1.395 . S
C426 C429 1.403 . S
C427 C424 1.403 . S
C427 C428 1.524 . S
C427 C431 1.400 . S
C428 H413 0.960 . S
C428 H414 0.960 . S
C428 H415 0.960 . S
C428 C427 1.524 . S
C429 C426 1.403 . S
C429 C430 1.392 . S
C429 C433 1.495 . S
C430 C429 1.392 . S
C430 C431 1.385 . S
C430 C432 1.478 . S
C431 H425 0.930 . S
C431 C427 1.400 . S
C431 C430 1.385 . S
C432 C430 1.478 . S
C432 C434 1.381 . S
C432 C438 1.383 . S
C433 C429 1.495 . S
C433 H439 0.959 . S
C433 H440 0.961 . S
C433 H441 0.960 . S
C434 C432 1.381 . S
C434 C435 1.394 . S
C434 H442 0.930 . S
C435 C434 1.394 . S
C435 C436 1.383 . S
C435 H443 0.929 . S
C436 C435 1.383 . S
C436 C437 1.377 . S
C437 H421 0.930 . S
C437 C436 1.377 . S
C437 C438 1.379 . S
C438 H422 0.931 . S
C438 C432 1.383 . S
C438 C437 1.379 . S
H439 C433 0.959 . S
H440 C433 0.961 . S
H441 C433 0.960 . S
H442 C434 0.930 . S
H443 C435 0.929 . S
H444 C452 0.929 . S
H445 C454 0.930 . S
H446 C456 0.930 . S
H447 C459 0.929 . S
H448 C462 0.930 . S
H449 C464 0.960 . S
H450 C464 0.960 . S
H451 C464 0.960 1_554 S
C452 H444 0.929 . S
C452 C453 1.377 . S
C452 C454 1.384 1_554 S
C453 C452 1.377 . S
C453 C459 1.390 . S
C454 H445 0.930 . S
C454 C452 1.384 1_556 S
C454 C455 1.372 1_556 S
C455 C454 1.372 1_554 S
C455 C456 1.400 . S
C455 C460 1.490 1_554 S
C456 H446 0.930 . S
C456 C455 1.400 . S
C456 C459 1.386 . S
H457 C473 0.930 . S
H458 C474 0.931 . S
C459 H447 0.929 . S
C459 C453 1.390 . S
C459 C456 1.386 . S
C460 C455 1.490 1_556 S
C460 C462 1.395 . S
C460 C463 1.403 . S
H461 C467 0.930 . S
C462 H448 0.930 . S
C462 C460 1.395 . S
C462 C465 1.403 . S
C463 C460 1.403 . S
C463 C464 1.524 . S
C463 C467 1.400 . S
C464 H449 0.960 . S
C464 H450 0.960 . S
C464 H451 0.960 1_556 S
C464 C463 1.524 . S
C465 C462 1.403 . S
C465 C466 1.392 . S
C465 C469 1.495 . S
C466 C465 1.392 . S
C466 C467 1.385 . S
C466 C468 1.478 . S
C467 H461 0.930 . S
C467 C463 1.400 . S
C467 C466 1.385 . S
C468 C466 1.478 . S
C468 C470 1.381 . S
C468 C474 1.383 . S
C469 C465 1.495 . S
C469 H475 0.959 . S
C469 H476 0.961 . S
C469 H477 0.960 . S
C470 C468 1.381 . S
C470 C471 1.394 . S
C470 H478 0.930 . S
C471 C470 1.394 . S
C471 C472 1.383 . S
C471 H479 0.929 . S
C472 C471 1.383 . S
C472 C473 1.377 . S
C473 H457 0.930 . S
C473 C472 1.377 . S
C473 C474 1.379 . S
C474 H458 0.931 . S
C474 C468 1.383 . S
C474 C473 1.379 . S
H475 C469 0.959 . S
H476 C469 0.961 . S
H477 C469 0.960 . S
H478 C470 0.930 . S
H479 C471 0.929 . S
H480 C488 0.929 . S
H481 C490 0.930 . S
H482 C492 0.930 1_655 S
H483 C495 0.929 1_655 S
H484 C498 0.930 . S
H485 C500 0.960 . S
H486 C500 0.960 . S
H487 C500 0.960 . S
C488 H480 0.929 . S
C488 C489 1.377 . S
C488 C490 1.384 . S
C489 C488 1.377 . S
C489 C495 1.390 . S
C490 H481 0.930 . S
C490 C488 1.384 . S
C490 C491 1.372 . S
C491 C490 1.372 . S
C491 C492 1.400 . S
C491 C496 1.490 . S
C492 H482 0.930 1_455 S
C492 C491 1.400 . S
C492 C495 1.386 . S
H493 C509 0.930 1_655 S
H494 C510 0.931 1_655 S
C495 H483 0.929 1_455 S
C495 C489 1.390 . S
C495 C492 1.386 . S
C496 C491 1.490 . S
C496 C498 1.395 . S
C496 C499 1.403 . S
H497 C503 0.930 1_655 S
C498 H484 0.930 . S
C498 C496 1.395 . S
C498 C501 1.403 . S
C499 C496 1.403 . S
C499 C500 1.524 1_455 S
C499 C503 1.400 . S
C500 H485 0.960 . S
C500 H486 0.960 . S
C500 H487 0.960 . S
C500 C499 1.524 1_655 S
C501 C498 1.403 . S
C501 C502 1.392 . S
C501 C505 1.495 . S
C502 C501 1.392 . S
C502 C503 1.385 . S
C502 C504 1.478 . S
C503 H497 0.930 1_455 S
C503 C499 1.400 . S
C503 C502 1.385 . S
C504 C502 1.478 . S
C504 C506 1.381 . S
C504 C510 1.383 . S
C505 C501 1.495 . S
C505 H511 0.959 . S
C505 H512 0.961 . S
C505 H513 0.960 . S
C506 C504 1.381 . S
C506 C507 1.394 . S
C506 H514 0.930 . S
C507 C506 1.394 . S
C507 C508 1.383 . S
C507 H515 0.929 . S
C508 C507 1.383 . S
C508 C509 1.377 . S
C509 H493 0.930 1_455 S
C509 C508 1.377 . S
C509 C510 1.379 . S
C510 H494 0.931 1_455 S
C510 C504 1.383 . S
C510 C509 1.379 . S
H511 C505 0.959 . S
H512 C505 0.961 . S
H513 C505 0.960 . S
H514 C506 0.930 . S
H515 C507 0.929 . S
C112 C43 1.358 . S
C93 C11 1.345 . S
C129 C26 1.470 . S
C148 C69 1.474 . S
C165 C40 1.361 . S
C184 C71 1.369 . S
C201 C5 1.164 1_565 S
C220 C55 1.342 . S
C256 C57 1.488 . S
C237 C18 1.476 . S
C273 C32 1.347 . S
C292 C83 1.362 . S
C328 C56 1.235 . S
C309 C39 1.222 . S
C345 C4 1.364 1_655 S
C364 C82 1.376 . S
C400 C42 1.343 . S
C381 C19 1.186 . S
C436 C68 1.264 . S
C417 C33 1.099 . S
C472 C70 1.379 . S
C453 C12 1.370 . S
C489 C25 1.346 . S
C508 C54 1.360 . S
