# Generated by pormake.
# Topology llk, (3,12)-cn, num edge types: 1
# Building blocks:
#     Node 0, Type 0, BuildingBlock: WUSLED_clean_sbu_0, # of connection points: 3
#     Node 1, Type 0, BuildingBlock: WUSLED_clean_sbu_0, # of connection points: 3
#     Node 2, Type 0, BuildingBlock: WUSLED_clean_sbu_0, # of connection points: 3
#     Node 3, Type 0, BuildingBlock: WUSLED_clean_sbu_0, # of connection points: 3
#     Node 4, Type 0, BuildingBlock: WUSLED_clean_sbu_0, # of connection points: 3
#     Node 5, Type 0, BuildingBlock: WUSLED_clean_sbu_0, # of connection points: 3
#     Node 6, Type 0, BuildingBlock: WUSLED_clean_sbu_0, # of connection points: 3
#     Node 7, Type 0, BuildingBlock: WUSLED_clean_sbu_0, # of connection points: 3
#     Node 8, Type 0, BuildingBlock: WUSLED_clean_sbu_0, # of connection points: 3
#     Node 9, Type 0, BuildingBlock: WUSLED_clean_sbu_0, # of connection points: 3
#     Node 10, Type 0, BuildingBlock: WUSLED_clean_sbu_0, # of connection points: 3
#     Node 11, Type 0, BuildingBlock: WUSLED_clean_sbu_0, # of connection points: 3
#     Node 12, Type 0, BuildingBlock: WUSLED_clean_sbu_0, # of connection points: 3
#     Node 13, Type 0, BuildingBlock: WUSLED_clean_sbu_0, # of connection points: 3
#     Node 14, Type 0, BuildingBlock: WUSLED_clean_sbu_0, # of connection points: 3
#     Node 15, Type 0, BuildingBlock: WUSLED_clean_sbu_0, # of connection points: 3
#     Node 16, Type 0, BuildingBlock: WUSLED_clean_sbu_0, # of connection points: 3
#     Node 17, Type 0, BuildingBlock: WUSLED_clean_sbu_0, # of connection points: 3
#     Node 18, Type 0, BuildingBlock: WUSLED_clean_sbu_0, # of connection points: 3
#     Node 19, Type 0, BuildingBlock: WUSLED_clean_sbu_0, # of connection points: 3
#     Node 20, Type 0, BuildingBlock: WUSLED_clean_sbu_0, # of connection points: 3
#     Node 21, Type 0, BuildingBlock: WUSLED_clean_sbu_0, # of connection points: 3
#     Node 22, Type 0, BuildingBlock: WUSLED_clean_sbu_0, # of connection points: 3
#     Node 23, Type 0, BuildingBlock: WUSLED_clean_sbu_0, # of connection points: 3
#     Node 24, Type 1, BuildingBlock: EZIPEK_clean_sbu_0, # of connection points: 12
#     Node 25, Type 1, BuildingBlock: EZIPEK_clean_sbu_0, # of connection points: 12
#     Node 26, Type 1, BuildingBlock: EZIPEK_clean_sbu_0, # of connection points: 12
#     Node 27, Type 1, BuildingBlock: EZIPEK_clean_sbu_0, # of connection points: 12
#     Node 28, Type 1, BuildingBlock: EZIPEK_clean_sbu_0, # of connection points: 12
#     Node 29, Type 1, BuildingBlock: EZIPEK_clean_sbu_0, # of connection points: 12
#     Edge 30, Type (0, 1), BuildingBlock: AJUNOK_clean_linker_0, # of connection points: 2
#     Edge 31, Type (0, 1), BuildingBlock: AJUNOK_clean_linker_0, # of connection points: 2
#     Edge 32, Type (0, 1), BuildingBlock: AJUNOK_clean_linker_0, # of connection points: 2
#     Edge 33, Type (0, 1), BuildingBlock: AJUNOK_clean_linker_0, # of connection points: 2
#     Edge 34, Type (0, 1), BuildingBlock: AJUNOK_clean_linker_0, # of connection points: 2
#     Edge 35, Type (0, 1), BuildingBlock: AJUNOK_clean_linker_0, # of connection points: 2
#     Edge 36, Type (0, 1), BuildingBlock: AJUNOK_clean_linker_0, # of connection points: 2
#     Edge 37, Type (0, 1), BuildingBlock: AJUNOK_clean_linker_0, # of connection points: 2
#     Edge 38, Type (0, 1), BuildingBlock: AJUNOK_clean_linker_0, # of connection points: 2
#     Edge 39, Type (0, 1), BuildingBlock: AJUNOK_clean_linker_0, # of connection points: 2
#     Edge 40, Type (0, 1), BuildingBlock: AJUNOK_clean_linker_0, # of connection points: 2
#     Edge 41, Type (0, 1), BuildingBlock: AJUNOK_clean_linker_0, # of connection points: 2
#     Edge 42, Type (0, 1), BuildingBlock: AJUNOK_clean_linker_0, # of connection points: 2
#     Edge 43, Type (0, 1), BuildingBlock: AJUNOK_clean_linker_0, # of connection points: 2
#     Edge 44, Type (0, 1), BuildingBlock: AJUNOK_clean_linker_0, # of connection points: 2
#     Edge 45, Type (0, 1), BuildingBlock: AJUNOK_clean_linker_0, # of connection points: 2
#     Edge 46, Type (0, 1), BuildingBlock: AJUNOK_clean_linker_0, # of connection points: 2
#     Edge 47, Type (0, 1), BuildingBlock: AJUNOK_clean_linker_0, # of connection points: 2
#     Edge 48, Type (0, 1), BuildingBlock: AJUNOK_clean_linker_0, # of connection points: 2
#     Edge 49, Type (0, 1), BuildingBlock: AJUNOK_clean_linker_0, # of connection points: 2
#     Edge 50, Type (0, 1), BuildingBlock: AJUNOK_clean_linker_0, # of connection points: 2
#     Edge 51, Type (0, 1), BuildingBlock: AJUNOK_clean_linker_0, # of connection points: 2
#     Edge 52, Type (0, 1), BuildingBlock: AJUNOK_clean_linker_0, # of connection points: 2
#     Edge 53, Type (0, 1), BuildingBlock: AJUNOK_clean_linker_0, # of connection points: 2
#     Edge 54, Type (0, 1), BuildingBlock: AJUNOK_clean_linker_0, # of connection points: 2
#     Edge 55, Type (0, 1), BuildingBlock: AJUNOK_clean_linker_0, # of connection points: 2
#     Edge 56, Type (0, 1), BuildingBlock: AJUNOK_clean_linker_0, # of connection points: 2
#     Edge 57, Type (0, 1), BuildingBlock: AJUNOK_clean_linker_0, # of connection points: 2
#     Edge 58, Type (0, 1), BuildingBlock: AJUNOK_clean_linker_0, # of connection points: 2
#     Edge 59, Type (0, 1), BuildingBlock: AJUNOK_clean_linker_0, # of connection points: 2
#     Edge 60, Type (0, 1), BuildingBlock: AJUNOK_clean_linker_0, # of connection points: 2
#     Edge 61, Type (0, 1), BuildingBlock: AJUNOK_clean_linker_0, # of connection points: 2
#     Edge 62, Type (0, 1), BuildingBlock: AJUNOK_clean_linker_0, # of connection points: 2
#     Edge 63, Type (0, 1), BuildingBlock: AJUNOK_clean_linker_0, # of connection points: 2
#     Edge 64, Type (0, 1), BuildingBlock: AJUNOK_clean_linker_0, # of connection points: 2
#     Edge 65, Type (0, 1), BuildingBlock: AJUNOK_clean_linker_0, # of connection points: 2
#     Edge 66, Type (0, 1), BuildingBlock: AJUNOK_clean_linker_0, # of connection points: 2
#     Edge 67, Type (0, 1), BuildingBlock: AJUNOK_clean_linker_0, # of connection points: 2
#     Edge 68, Type (0, 1), BuildingBlock: AJUNOK_clean_linker_0, # of connection points: 2
#     Edge 69, Type (0, 1), BuildingBlock: AJUNOK_clean_linker_0, # of connection points: 2
#     Edge 70, Type (0, 1), BuildingBlock: AJUNOK_clean_linker_0, # of connection points: 2
#     Edge 71, Type (0, 1), BuildingBlock: AJUNOK_clean_linker_0, # of connection points: 2
#     Edge 72, Type (0, 1), BuildingBlock: AJUNOK_clean_linker_0, # of connection points: 2
#     Edge 73, Type (0, 1), BuildingBlock: AJUNOK_clean_linker_0, # of connection points: 2
#     Edge 74, Type (0, 1), BuildingBlock: AJUNOK_clean_linker_0, # of connection points: 2
#     Edge 75, Type (0, 1), BuildingBlock: AJUNOK_clean_linker_0, # of connection points: 2
#     Edge 76, Type (0, 1), BuildingBlock: AJUNOK_clean_linker_0, # of connection points: 2
#     Edge 77, Type (0, 1), BuildingBlock: AJUNOK_clean_linker_0, # of connection points: 2
#     Edge 78, Type (0, 1), BuildingBlock: AJUNOK_clean_linker_0, # of connection points: 2
#     Edge 79, Type (0, 1), BuildingBlock: AJUNOK_clean_linker_0, # of connection points: 2
#     Edge 80, Type (0, 1), BuildingBlock: AJUNOK_clean_linker_0, # of connection points: 2
#     Edge 81, Type (0, 1), BuildingBlock: AJUNOK_clean_linker_0, # of connection points: 2
#     Edge 82, Type (0, 1), BuildingBlock: AJUNOK_clean_linker_0, # of connection points: 2
#     Edge 83, Type (0, 1), BuildingBlock: AJUNOK_clean_linker_0, # of connection points: 2
#     Edge 84, Type (0, 1), BuildingBlock: AJUNOK_clean_linker_0, # of connection points: 2
#     Edge 85, Type (0, 1), BuildingBlock: AJUNOK_clean_linker_0, # of connection points: 2
#     Edge 86, Type (0, 1), BuildingBlock: AJUNOK_clean_linker_0, # of connection points: 2
#     Edge 87, Type (0, 1), BuildingBlock: AJUNOK_clean_linker_0, # of connection points: 2
#     Edge 88, Type (0, 1), BuildingBlock: AJUNOK_clean_linker_0, # of connection points: 2
#     Edge 89, Type (0, 1), BuildingBlock: AJUNOK_clean_linker_0, # of connection points: 2
#     Edge 90, Type (0, 1), BuildingBlock: AJUNOK_clean_linker_0, # of connection points: 2
#     Edge 91, Type (0, 1), BuildingBlock: AJUNOK_clean_linker_0, # of connection points: 2
#     Edge 92, Type (0, 1), BuildingBlock: AJUNOK_clean_linker_0, # of connection points: 2
#     Edge 93, Type (0, 1), BuildingBlock: AJUNOK_clean_linker_0, # of connection points: 2
#     Edge 94, Type (0, 1), BuildingBlock: AJUNOK_clean_linker_0, # of connection points: 2
#     Edge 95, Type (0, 1), BuildingBlock: AJUNOK_clean_linker_0, # of connection points: 2
#     Edge 96, Type (0, 1), BuildingBlock: AJUNOK_clean_linker_0, # of connection points: 2
#     Edge 97, Type (0, 1), BuildingBlock: AJUNOK_clean_linker_0, # of connection points: 2
#     Edge 98, Type (0, 1), BuildingBlock: AJUNOK_clean_linker_0, # of connection points: 2
#     Edge 99, Type (0, 1), BuildingBlock: AJUNOK_clean_linker_0, # of connection points: 2
#     Edge 100, Type (0, 1), BuildingBlock: AJUNOK_clean_linker_0, # of connection points: 2
#     Edge 101, Type (0, 1), BuildingBlock: AJUNOK_clean_linker_0, # of connection points: 2
# Relax obj value: 0.100
# Max RMSD: 0.151
# Mean RMSD: 0.127
data_MOF--net-llk--node1-WUSLED_clean_sbu_0--node2-EZIPEK_clean_sbu_0--edge1-AJUNOK_clean_linker_0
_symmetry_space_group_name_H-M    P1
_symmetry_Int_Tables_number       1
_symmetry_cell_setting            triclinic
loop_
_symmetry_equiv_pos_as_xyz
'x, y, z'
_cell_length_a     48.191924
_cell_length_b     48.319958
_cell_length_c     48.212949
_cell_angle_alpha  90.001182
_cell_angle_beta   89.997428
_cell_angle_gamma 89.983734
loop_
_atom_site_label
_atom_site_type_symbol
_atom_site_fract_x
_atom_site_fract_y
_atom_site_fract_z
_atom_type_partial_charge
C0 C 1.01231 0.3041 0.19382 0.0
C1 C 1.00827 0.33039 0.20578 0.0
C2 C 1.01297 0.35259 0.16032 0.0
C3 C 1.00847 0.35438 0.18919 0.0
C4 C 0.01718 0.32615 0.14869 0.0
C5 C 0.01679 0.3023 0.1652 0.0
U6 U 1.01015 0.26863 0.2643 0.0
O7 O 0.03303 0.23294 0.28136 0.0
O8 O 0.98751 0.2316 0.27882 0.0
C9 C 1.0103 0.21875 0.28654 0.0
C10 C 1.01199 0.27839 0.21069 0.0
C11 C 1.00919 0.20197 0.31239 0.0
C12 C 0.99702 0.15782 0.33366 0.0
C13 C 0.99621 0.17602 0.3111 0.0
C14 C 0.02316 0.19144 0.36004 0.0
C15 C 1.01109 0.1649 0.35822 0.0
C16 C 0.02236 0.20978 0.33726 0.0
C17 C 1.00728 0.32963 0.31905 0.0
C18 C 1.00758 0.33438 0.36895 0.0
C19 C 1.00832 0.37512 0.33938 0.0
C20 C 1.00772 0.35837 0.31615 0.0
C21 C 1.00858 0.36329 0.36588 0.0
C22 C 1.00698 0.31745 0.34542 0.0
C23 C 1.00813 0.31376 0.29361 0.0
O24 O 0.03424 0.27382 0.22577 0.0
O25 O 0.98884 0.27323 0.22413 0.0
O26 O 0.98568 0.30036 0.28595 0.0
O27 O 0.03161 0.30154 0.28709 0.0
H28 H 1.00474 0.33233 0.22789 0.0
H29 H 1.00456 0.37419 0.19891 0.0
H30 H 0.02098 0.32384 0.12668 0.0
H31 H 0.02002 0.28232 0.15552 0.0
H32 H 0.98686 0.13792 0.3317 0.0
H33 H 0.98592 0.16946 0.29223 0.0
H34 H 0.034 0.19763 0.3787 0.0
H35 H 0.03254 0.2297 0.33888 0.0
H36 H 1.00794 0.32502 0.38936 0.0
H37 H 1.00881 0.39739 0.33665 0.0
H38 H 1.00797 0.36791 0.29579 0.0
H39 H 1.00671 0.29515 0.34773 0.0
C40 C 0.8363 0.01797 0.30526 0.0
C41 C 0.82479 1.01094 0.33118 0.0
C42 C 0.86966 0.01804 0.35391 0.0
C43 C 0.84133 1.01084 0.35524 0.0
C44 C 0.88074 0.02567 0.32796 0.0
C45 C 0.8643 0.02557 0.30401 0.0
U46 U 0.76612 0.01851 0.26921 0.0
O47 O 0.7497 0.99479 0.23369 0.0
O48 O 0.75133 0.0402 0.23174 0.0
C49 C 0.74448 0.01713 0.21899 0.0
C50 C 0.81966 0.01739 0.27936 0.0
C51 C 0.71913 0.01736 0.20152 0.0
C52 C 0.69994 0.01794 0.15478 0.0
C53 C 0.72274 0.01768 0.17269 0.0
C54 C 0.66893 0.01757 0.19421 0.0
C55 C 0.67264 0.01843 0.16514 0.0
C56 C 0.692 0.01707 0.21228 0.0
C57 C 0.71121 0.0224 0.33015 0.0
C58 C 0.66165 0.01741 0.33567 0.0
C59 C 0.69121 0.02506 0.37581 0.0
C60 C 0.7142 0.02606 0.35872 0.0
C61 C 0.66491 0.02034 0.36448 0.0
C62 C 0.68494 0.01836 0.31841 0.0
C63 C 0.7366 0.02127 0.31422 0.0
O64 O 0.80479 0.99497 0.27519 0.0
O65 O 0.80613 0.04025 0.27344 0.0
O66 O 0.74427 0.04346 0.30046 0.0
O67 O 0.74317 0.99765 0.3024 0.0
H68 H 0.80312 1.00514 0.33274 0.0
H69 H 0.83211 1.00441 0.37467 0.0
H70 H 0.9023 0.03168 0.3261 0.0
H71 H 0.87358 0.03128 0.28436 0.0
H72 H 0.70381 0.01749 0.13267 0.0
H73 H 0.74343 0.01761 0.16388 0.0
H74 H 0.64824 0.01769 0.20297 0.0
H75 H 0.68867 0.01661 0.2345 0.0
H76 H 0.64137 0.01363 0.32674 0.0
H77 H 0.694 0.0276 0.39798 0.0
H78 H 0.73451 0.02909 0.36793 0.0
H79 H 0.68258 0.0154 0.29626 0.0
C80 C 1.01038 0.83317 0.30667 0.0
C81 C 0.99398 0.82722 0.33017 0.0
C82 C 1.01302 0.86728 0.3547 0.0
C83 C 0.99529 0.84413 0.35394 0.0
C84 C 0.03042 0.87213 0.33174 0.0
C85 C 0.02897 0.85544 0.30804 0.0
U86 U 1.00934 0.76364 0.26917 0.0
O87 O 0.03098 0.74976 0.23133 0.0
O88 O 0.9855 0.74753 0.23351 0.0
C89 C 1.00789 0.74266 0.21866 0.0
C90 C 1.00858 0.81678 0.28053 0.0
C91 C 1.0085 0.71728 0.20129 0.0
C92 C 1.01051 0.69786 0.1547 0.0
C93 C 1.00938 0.72071 0.17244 0.0
C94 C 1.00967 0.66715 0.19428 0.0
C95 C 1.01125 0.67072 0.16524 0.0
C96 C 1.00839 0.69027 0.2122 0.0
C97 C 0.01511 0.70765 0.32886 0.0
C98 C 1.00535 0.65909 0.33574 0.0
C99 C 0.02437 0.68682 0.37326 0.0
C100 C 0.02478 0.70972 0.35609 0.0
C101 C 0.0143 0.66154 0.36335 0.0
C102 C 1.00564 0.68228 0.31842 0.0
C103 C 1.01319 0.73332 0.3135 0.0
O104 O 0.03126 0.80348 0.27336 0.0
O105 O 0.98591 0.80213 0.27657 0.0
O106 O 0.98924 0.73974 0.30215 0.0
O107 O 0.03512 0.74177 0.29972 0.0
H108 H 0.97981 0.80983 0.33004 0.0
H109 H 0.98177 0.83966 0.37133 0.0
H110 H 0.04491 0.88926 0.3319 0.0
H111 H 0.04221 0.86022 0.29052 0.0
H112 H 1.01074 0.70155 0.13254 0.0
H113 H 1.00925 0.7413 0.16351 0.0
H114 H 1.01 0.64656 0.20314 0.0
H115 H 1.00756 0.68706 0.23442 0.0
H116 H 0.99742 0.6396 0.32796 0.0
H117 H 0.03151 0.68895 0.39448 0.0
H118 H 0.03193 0.72933 0.36435 0.0
H119 H 0.99795 0.68064 0.29737 0.0
C120 C 0.19369 1.00877 0.30515 0.0
C121 C 0.20598 1.00956 0.33165 0.0
C122 C 0.16015 1.00903 0.35384 0.0
C123 C 0.18938 1.00977 0.35575 0.0
C124 C 0.1482 1.0079 0.32717 0.0
C125 C 0.16471 1.00784 0.30325 0.0
U126 U 0.26382 1.009 0.26781 0.0
O127 O 0.2789 0.03218 0.23138 0.0
O128 O 0.27808 0.98677 0.23037 0.0
C129 C 0.28458 1.00966 0.21712 0.0
C130 C 0.21041 1.00909 0.27922 0.0
C131 C 0.31034 1.00948 0.20011 0.0
C132 C 0.33148 1.00165 0.15475 0.0
C133 C 0.30833 1.00098 0.17232 0.0
C134 C 0.35946 0.01951 0.19235 0.0
C135 C 0.35723 1.01111 0.16444 0.0
C136 C 0.33622 0.01858 0.21013 0.0
C137 C 0.31916 1.00798 0.32919 0.0
C138 C 0.36758 0.0176 0.33775 0.0
C139 C 0.3369 1.00523 0.3758 0.0
C140 C 0.31507 1.00266 0.35736 0.0
C141 C 0.36308 0.01332 0.36623 0.0
C142 C 0.34547 0.01513 0.31915 0.0
C143 C 0.29459 1.008 0.31195 0.0
O144 O 0.22471 0.03175 0.27443 0.0
O145 O 0.22449 0.98645 0.27374 0.0
O146 O 0.28724 0.98524 0.29898 0.0
O147 O 0.2873 0.0312 0.29971 0.0
H148 H 0.22836 1.01031 0.3337 0.0
H149 H 0.19944 1.01118 0.37577 0.0
H150 H 0.12589 1.007 0.32471 0.0
H151 H 0.15475 1.00716 0.28312 0.0
H152 H 0.32913 0.99521 0.13335 0.0
H153 H 0.28861 0.9941 0.16403 0.0
H154 H 0.37917 0.02671 0.20037 0.0
H155 H 0.33837 0.02521 0.23148 0.0
H156 H 0.38788 0.02351 0.33012 0.0
H157 H 0.33328 1.00113 0.39761 0.0
H158 H 0.29473 0.99716 0.36525 0.0
H159 H 0.34871 0.0193 0.29731 0.0
C160 C 1.0094 0.72392 0.83736 0.0
C161 C 1.00493 0.69745 0.82593 0.0
C162 C 1.01247 0.67575 0.8713 0.0
C163 C 1.00637 0.67362 0.84275 0.0
C164 C 0.01644 0.7024 0.88251 0.0
C165 C 0.01515 0.72605 0.86574 0.0
U166 U 1.00938 0.7594 0.76661 0.0
O167 O 0.03076 0.79666 0.75095 0.0
O168 O 0.98521 0.79483 0.75052 0.0
C169 C 1.00749 0.80921 0.74415 0.0
C170 C 1.00825 0.74951 0.82025 0.0
C171 C 1.00686 0.82583 0.7181 0.0
C172 C 0.99165 0.86833 0.69533 0.0
C173 C 0.99084 0.85008 0.71788 0.0
C174 C 0.02408 0.83817 0.67193 0.0
C175 C 1.00887 0.86314 0.67232 0.0
C176 C 0.02321 0.81974 0.69465 0.0
C177 C 0.01484 0.6998 0.71086 0.0
C178 C 1.00244 0.69245 0.66284 0.0
C179 C 0.0263 0.65653 0.68885 0.0
C180 C 0.02691 0.67353 0.71191 0.0
C181 C 1.01364 0.66568 0.66441 0.0
C182 C 1.00292 0.70957 0.6862 0.0
C183 C 1.01289 0.71455 0.73697 0.0
O184 O 0.03108 0.75581 0.80674 0.0
O185 O 0.98576 0.75298 0.80522 0.0
O186 O 0.98903 0.72612 0.74338 0.0
O187 O 0.03488 0.72817 0.74547 0.0
H188 H 1.00044 0.69519 0.80403 0.0
H189 H 1.0031 0.65353 0.83334 0.0
H190 H 0.02023 0.70512 0.90447 0.0
H191 H 0.01854 0.74617 0.87507 0.0
H192 H 0.97896 0.88681 0.69614 0.0
H193 H 0.97806 0.85534 0.73561 0.0
H194 H 0.0374 0.83336 0.65448 0.0
H195 H 0.03577 0.80116 0.69416 0.0
H196 H 0.99254 0.69963 0.64398 0.0
H197 H 0.0352 0.63596 0.69025 0.0
H198 H 0.036 0.66575 0.73096 0.0
H199 H 0.99338 0.72985 0.6853 0.0
C200 C 0.19432 0.0179 0.7241 0.0
C201 C 0.20608 0.02144 0.69757 0.0
C202 C 0.16051 0.01568 0.67573 0.0
C203 C 0.18931 0.02044 0.67361 0.0
C204 C 0.14897 1.01275 0.70242 0.0
C205 C 0.16566 0.01367 0.72619 0.0
U206 U 0.26489 0.0181 0.76031 0.0
O207 O 0.28031 0.99555 0.79702 0.0
O208 O 0.28021 0.04101 0.79692 0.0
C209 C 0.28628 0.01832 0.81073 0.0
C210 C 0.21132 0.01833 0.74984 0.0
C211 C 0.31159 0.01841 0.82839 0.0
C212 C 0.33083 0.02358 0.8749 0.0
C213 C 0.30833 0.02469 0.8566 0.0
C214 C 0.36097 1.01033 0.83707 0.0
C215 C 0.35741 0.0158 0.86564 0.0
C216 C 0.33823 1.0115 0.8186 0.0
C217 C 0.32048 0.01703 0.69991 0.0
C218 C 0.37044 0.01619 0.69584 0.0
C219 C 0.34141 0.01599 0.65457 0.0
C220 C 0.31794 0.01659 0.67104 0.0
C221 C 0.36762 0.01577 0.66689 0.0
C222 C 0.3467 0.01686 0.7125 0.0
C223 C 0.29483 0.01748 0.71547 0.0
O224 O 0.22539 0.99565 0.7552 0.0
O225 O 0.22574 0.04095 0.7544 0.0
O226 O 0.28785 0.04057 0.72807 0.0
O227 O 0.28732 0.99473 0.72837 0.0
H228 H 0.2282 0.02479 0.69537 0.0
H229 H 0.19892 0.0229 0.65346 0.0
H230 H 0.12684 1.00991 0.70504 0.0
H231 H 0.15608 1.01105 0.74635 0.0
H232 H 0.32733 0.02883 0.89645 0.0
H233 H 0.28808 0.03022 0.86467 0.0
H234 H 0.38116 1.00449 0.82915 0.0
H235 H 0.34136 1.00666 0.79689 0.0
H236 H 0.39081 0.01606 0.70535 0.0
H237 H 0.33917 0.01563 0.6322 0.0
H238 H 0.2977 0.01668 0.66121 0.0
H239 H 0.34872 0.0172 0.73487 0.0
C240 C 1.01046 0.19331 0.72505 0.0
C241 C 0.99551 0.20094 0.7011 0.0
C242 C 1.01242 0.16 0.67636 0.0
C243 C 0.99635 0.18438 0.6771 0.0
C244 C 0.02792 0.15302 0.70013 0.0
C245 C 0.0269 0.16939 0.72409 0.0
U246 U 1.01108 0.26294 0.7623 0.0
O247 O 0.03323 0.27649 0.80001 0.0
O248 O 0.98778 0.27951 0.79805 0.0
C249 C 1.01033 0.28409 0.81274 0.0
C250 C 1.00936 0.20976 0.75116 0.0
C251 C 1.01144 0.30959 0.82993 0.0
C252 C 0.0176 0.32945 0.87599 0.0
C253 C 0.0177 0.30662 0.85817 0.0
C254 C 1.0055 0.35928 0.83758 0.0
C255 C 1.01092 0.35606 0.86618 0.0
C256 C 1.00564 0.33621 0.81959 0.0
C257 C 0.01694 0.31903 0.70272 0.0
C258 C 1.00561 0.36725 0.69555 0.0
C259 C 0.02563 0.33995 0.65823 0.0
C260 C 0.02686 0.31719 0.67557 0.0
C261 C 0.01428 0.36481 0.66785 0.0
C262 C 1.00675 0.3442 0.71303 0.0
C263 C 0.01496 0.29325 0.71791 0.0
O264 O 0.03234 0.22275 0.75788 0.0
O265 O 0.98699 0.2248 0.75533 0.0
O266 O 0.99103 0.28698 0.7294 0.0
O267 O 0.0369 0.28451 0.73151 0.0
H268 H 0.98286 0.21948 0.70104 0.0
H269 H 0.98379 0.19028 0.65944 0.0
H270 H 0.04083 0.13467 0.70029 0.0
H271 H 0.03888 0.1632 0.74206 0.0
H272 H 0.02272 0.3262 0.89762 0.0
H273 H 0.02241 0.28637 0.86662 0.0
H274 H 1.00049 0.37949 0.82927 0.0
H275 H 1.00087 0.3391 0.79783 0.0
H276 H 0.99701 0.38652 0.70319 0.0
H277 H 0.03285 0.33793 0.63703 0.0
H278 H 0.03462 0.29776 0.6674 0.0
H279 H 0.99896 0.34572 0.73405 0.0
C280 C 0.72464 0.01617 0.83662 0.0
C281 C 0.70004 0.02885 0.82721 0.0
C282 C 0.676 0.01597 0.87006 0.0
C283 C 0.67603 0.0289 0.84383 0.0
C284 C 0.70058 1.00286 0.87894 0.0
C285 C 0.72453 1.00303 0.86249 0.0
U286 U 0.76025 0.01934 0.7664 0.0
O287 O 0.79535 0.99618 0.74838 0.0
O288 O 0.79785 0.04141 0.75237 0.0
C289 C 0.80998 0.01867 0.74354 0.0
C290 C 0.75052 0.01626 0.81988 0.0
C291 C 0.82611 0.02035 0.71723 0.0
C292 C 0.86794 0.037 0.69411 0.0
C293 C 0.84967 0.03742 0.71667 0.0
C294 C 0.83902 1.00309 0.67126 0.0
C295 C 0.86337 0.01926 0.67143 0.0
C296 C 0.82062 1.0035 0.69401 0.0
C297 C 0.70138 0.02579 0.71027 0.0
C298 C 0.69412 1.01041 0.66311 0.0
C299 C 0.6585 0.03681 0.68707 0.0
C300 C 0.67543 0.0387 0.71018 0.0
C301 C 0.66747 0.02208 0.66376 0.0
C302 C 0.71112 1.01215 0.68649 0.0
C303 C 0.71521 0.02367 0.7369 0.0
O304 O 0.75459 0.99433 0.80426 0.0
O305 O 0.75653 0.03956 0.80715 0.0
O306 O 0.72893 0.04539 0.74588 0.0
O307 O 0.72658 0.99974 0.74321 0.0
H308 H 0.69949 0.03898 0.80717 0.0
H309 H 0.65777 0.03965 0.8364 0.0
H310 H 0.70135 0.99238 0.89878 0.0
H311 H 0.7431 0.99292 0.87009 0.0
H312 H 0.88607 0.05024 0.69469 0.0
H313 H 0.8545 0.05055 0.73425 0.0
H314 H 0.83479 0.98931 0.65406 0.0
H315 H 0.80264 0.99007 0.69377 0.0
H316 H 0.70114 0.99893 0.64512 0.0
H317 H 0.638 0.04604 0.68771 0.0
H318 H 0.66764 0.04906 0.72855 0.0
H319 H 0.73112 1.00192 0.68647 0.0
C320 C 0.1952 0.30581 0.01848 0.0
C321 C 0.20488 0.33113 0.02919 0.0
C322 C 0.16066 0.35362 0.0178 0.0
C323 C 0.18778 0.35481 0.02883 0.0
C324 C 0.1514 0.32825 1.00686 0.0
C325 C 0.16842 0.30476 1.00719 0.0
U326 U 0.26437 0.26441 0.02058 0.0
O327 O 0.27536 0.22672 0.99724 0.0
O328 O 0.27549 0.22601 0.04272 0.0
C329 C 0.28112 0.21247 0.01972 0.0
C330 C 0.21196 0.27998 0.01909 0.0
C331 C 0.30699 0.19574 0.0191 0.0
C332 C 0.32836 0.15073 1.01124 0.0
C333 C 0.30497 0.16787 1.01135 0.0
C334 C 0.35686 0.18914 0.02613 0.0
C335 C 0.35455 0.16084 0.01925 0.0
C336 C 0.33325 0.20645 0.02613 0.0
C337 C 0.32325 0.32361 0.0217 0.0
C338 C 0.36792 0.33958 1.00582 0.0
C339 C 0.33963 0.36866 0.03573 0.0
C340 C 0.31941 0.34816 0.03662 0.0
C341 C 0.36384 0.36444 0.0202 0.0
C342 C 0.34754 0.31927 1.00639 0.0
C343 C 0.30172 0.30271 0.02168 0.0
O344 O 0.2266 0.2745 0.99676 0.0
O345 O 0.2253 0.27433 0.0422 0.0
O346 O 0.29087 0.29289 0.04467 0.0
O347 O 0.29265 0.29209 0.99828 0.0
H348 H 0.22558 0.3326 0.03785 0.0
H349 H 0.19591 0.37409 0.0369 0.0
H350 H 0.13068 0.32637 0.99836 0.0
H351 H 0.16048 0.28553 0.99878 0.0
H352 H 0.32585 0.12938 1.00492 0.0
H353 H 0.28507 0.1592 1.00551 0.0
H354 H 0.37674 0.19769 0.03215 0.0
H355 H 0.33543 0.22801 0.03189 0.0
H356 H 0.38661 0.33616 0.99379 0.0
H357 H 0.33644 0.38775 0.04709 0.0
H358 H 0.30063 0.35164 0.04847 0.0
H359 H 0.35069 0.30024 0.99493 0.0
C360 C 0.30667 0.83323 0.01611 0.0
C361 C 0.33272 0.82228 0.02355 0.0
C362 C 0.35441 0.8678 0.0176 0.0
C363 C 0.35642 0.83943 0.02422 0.0
C364 C 0.32843 0.87819 1.00925 0.0
C365 C 0.30494 0.8612 1.00869 0.0
U366 U 0.26524 0.7643 0.01791 0.0
O367 O 0.22823 0.75269 0.99372 0.0
O368 O 0.22616 0.75342 0.03914 0.0
C369 C 0.21332 0.74728 0.01587 0.0
C370 C 0.28078 0.81655 0.01606 0.0
C371 C 0.19687 0.72129 0.01529 0.0
C372 C 0.15163 0.6996 1.00963 0.0
C373 C 0.16829 0.72327 1.01054 0.0
C374 C 0.19183 0.67098 0.01844 0.0
C375 C 0.16295 0.67302 1.01375 0.0
C376 C 0.20867 0.69489 0.01906 0.0
C377 C 0.3243 0.70557 0.02135 0.0
C378 C 0.33969 0.66051 1.00639 0.0
C379 C 0.36946 0.68924 0.0352 0.0
C380 C 0.34911 0.70957 0.03585 0.0
C381 C 0.36485 0.6648 0.02027 0.0
C382 C 0.31949 0.681 1.00677 0.0
C383 C 0.30384 0.72742 0.02075 0.0
O384 O 0.27605 0.80157 0.99381 0.0
O385 O 0.2744 0.80363 0.03921 0.0
O386 O 0.29319 0.73833 0.04335 0.0
O387 O 0.29377 0.73606 0.99695 0.0
H388 H 0.33467 0.80065 0.02913 0.0
H389 H 0.37613 0.83068 0.03053 0.0
H390 H 0.32618 0.89965 1.00317 0.0
H391 H 0.2852 0.87006 1.0026 0.0
H392 H 0.12969 0.70223 1.00557 0.0
H393 H 0.15872 0.74334 1.00746 0.0
H394 H 0.20137 0.65105 0.02223 0.0
H395 H 0.23075 0.69279 0.0227 0.0
H396 H 0.336 0.64163 0.99483 0.0
H397 H 0.3888 0.69257 0.04618 0.0
H398 H 0.35292 0.7286 0.04712 0.0
H399 H 0.30023 0.67778 0.99561 0.0
C400 C 0.72457 0.19363 0.01974 0.0
C401 C 0.70063 0.20138 0.03465 0.0
C402 C 0.67573 0.1604 0.01794 0.0
C403 C 0.67654 0.18487 0.03388 0.0
C404 C 0.69953 0.15331 1.0025 0.0
C405 C 0.72354 0.16962 1.00345 0.0
U406 U 0.76263 0.26302 0.02014 0.0
O407 O 0.8 0.27737 0.99799 0.0
O408 O 0.79916 0.27792 0.04351 0.0
C409 C 0.81329 0.28383 0.02093 0.0
C410 C 0.75084 0.20991 0.02085 0.0
C411 C 0.83011 0.30967 0.02103 0.0
C412 C 0.87421 0.33183 0.03232 0.0
C413 C 0.85658 0.3088 0.03315 0.0
C414 C 0.83919 0.35755 1.00732 0.0
C415 C 0.86595 0.35649 0.01921 0.0
C416 C 0.82143 0.33436 1.0082 0.0
C417 C 0.70225 0.31903 0.01612 0.0
C418 C 0.69238 0.36641 0.02884 0.0
C419 C 0.65782 0.33888 1.00463 0.0
C420 C 0.676 0.31673 1.00401 0.0
C421 C 0.66576 0.36367 0.0173 0.0
C422 C 0.71067 0.34395 0.02838 0.0
C423 C 0.71851 0.29382 0.01762 0.0
O424 O 0.75746 0.22332 0.99808 0.0
O425 O 0.75538 0.22445 0.04346 0.0
O426 O 0.73047 0.28728 0.04124 0.0
O427 O 0.7316 0.28534 0.99528 0.0
H428 H 0.70062 0.21996 0.04722 0.0
H429 H 0.6589 0.19088 0.04641 0.0
H430 H 0.69967 0.1349 0.98968 0.0
H431 H 0.74153 0.1633 0.99154 0.0
H432 H 0.89465 0.33012 0.0415 0.0
H433 H 0.86388 0.28998 0.04296 0.0
H434 H 0.83194 0.37635 0.99747 0.0
H435 H 0.80111 0.33565 0.99869 0.0
H436 H 0.69864 0.38553 0.03877 0.0
H437 H 0.63741 0.33657 0.99547 0.0
H438 H 0.66924 0.29744 0.99471 0.0
H439 H 0.73089 0.3458 0.03801 0.0
C440 C 0.83484 0.72256 0.01844 0.0
C441 C 0.82323 0.69602 0.01509 0.0
C442 C 0.86951 0.67493 0.01677 0.0
C443 C 0.84044 0.6724 1.01433 0.0
C444 C 0.88068 0.7015 0.02109 0.0
C445 C 0.86361 0.72492 0.02172 0.0
U446 U 0.76558 0.76386 0.01987 0.0
O447 O 0.75387 0.8016 0.99704 0.0
O448 O 0.75529 0.80226 0.04249 0.0
C449 C 0.74876 0.81578 0.01975 0.0
C450 C 0.81797 0.74829 0.01837 0.0
C451 C 0.72267 0.83221 0.0204 0.0
C452 C 0.70039 0.87663 0.02924 0.0
C453 C 0.72396 0.85969 0.02959 0.0
C454 C 0.67326 0.8388 1.01076 0.0
C455 C 0.6747 0.86663 0.0196 0.0
C456 C 0.697 0.82173 1.01121 0.0
C457 C 0.70663 0.70477 0.02152 0.0
C458 C 0.66205 0.68881 1.0054 0.0
C459 C 0.69025 0.65968 0.03535 0.0
C460 C 0.71043 0.68019 0.03638 0.0
C461 C 0.66612 0.66391 0.0197 0.0
C462 C 0.6824 0.70914 1.00612 0.0
C463 C 0.72827 0.72554 0.02139 0.0
O464 O 0.80315 0.75327 0.99602 0.0
O465 O 0.80477 0.75429 0.04145 0.0
O466 O 0.73929 0.73541 0.04429 0.0
O467 O 0.73711 0.73618 0.99791 0.0
H468 H 0.801 0.69362 1.01278 0.0
H469 H 0.83108 0.65226 1.01122 0.0
H470 H 0.90278 0.70428 0.02402 0.0
H471 H 0.87302 0.74508 0.02464 0.0
H472 H 0.70235 0.89775 0.0365 0.0
H473 H 0.74344 0.86826 0.03679 0.0
H474 H 0.65402 0.83042 1.00278 0.0
H475 H 0.69542 0.80056 1.00397 0.0
H476 H 0.6434 0.69225 0.99331 0.0
H477 H 0.69341 0.64056 0.04667 0.0
H478 H 0.72919 0.67669 0.04828 0.0
H479 H 0.67929 0.72819 0.99468 0.0
C480 C 0.50983 0.80353 0.69366 0.0
C481 C 0.50999 0.83028 0.7053 0.0
C482 C 0.51251 0.85119 0.65902 0.0
C483 C 0.51125 0.85387 0.68814 0.0
C484 C 0.5115 0.82433 0.64767 0.0
C485 C 0.51041 0.8009 0.66475 0.0
U486 U 0.51036 0.76791 0.76462 0.0
O487 O 0.53308 0.73103 0.77928 0.0
O488 O 0.48753 0.73164 0.78069 0.0
C489 C 0.51031 0.71758 0.78594 0.0
C490 C 0.50944 0.7781 0.711 0.0
C491 C 0.51097 0.69995 0.81119 0.0
C492 C 0.51231 0.65317 0.83011 0.0
C493 C 0.51117 0.67118 0.80743 0.0
C494 C 0.51289 0.69233 0.86131 0.0
C495 C 0.51374 0.66335 0.85743 0.0
C496 C 0.51158 0.7105 0.83838 0.0
C497 C 0.51268 0.82884 0.81978 0.0
C498 C 0.50472 0.83568 0.8688 0.0
C499 C 0.51719 0.87451 0.83927 0.0
C500 C 0.51858 0.85696 0.81666 0.0
C501 C 0.50968 0.86413 0.8653 0.0
C502 C 0.50604 0.81796 0.8459 0.0
C503 C 0.51193 0.81259 0.79456 0.0
O504 O 0.53231 0.77276 0.72482 0.0
O505 O 0.48692 0.7739 0.72579 0.0
O506 O 0.48857 0.80022 0.78794 0.0
O507 O 0.53455 0.79957 0.78672 0.0
H508 H 0.50942 0.83289 0.72762 0.0
H509 H 0.51181 0.87417 0.69766 0.0
H510 H 0.51142 0.82132 0.62542 0.0
H511 H 0.51009 0.78057 0.65527 0.0
H512 H 0.51186 0.63112 0.82615 0.0
H513 H 0.51046 0.6625 0.78671 0.0
H514 H 0.51372 0.70096 0.88202 0.0
H515 H 0.51126 0.73265 0.84186 0.0
H516 H 0.49922 0.82743 0.88895 0.0
H517 H 0.52175 0.89628 0.83637 0.0
H518 H 0.52371 0.8655 0.7965 0.0
H519 H 0.50145 0.79616 0.84841 0.0
C520 C 0.33676 0.51916 0.80535 0.0
C521 C 0.32505 0.52261 0.8319 0.0
C522 C 0.37058 0.51624 0.85362 0.0
C523 C 0.34182 0.52124 0.8558 0.0
C524 C 0.38207 0.51341 0.82689 0.0
C525 C 0.36536 0.51461 0.80317 0.0
U526 U 0.26621 0.51955 0.76923 0.0
O527 O 0.25121 0.49711 0.7323 0.0
O528 O 0.2508 0.54256 0.73278 0.0
C529 C 0.245 0.51992 0.71878 0.0
C530 C 0.31976 0.51994 0.77967 0.0
C531 C 0.21951 0.5199 0.70149 0.0
C532 C 0.19961 0.52356 0.65516 0.0
C533 C 0.22259 0.524 0.67288 0.0
C534 C 0.16957 0.51476 0.69435 0.0
C535 C 0.17271 0.51884 0.66548 0.0
C536 C 0.19276 0.51536 0.71222 0.0
C537 C 0.21095 0.51692 0.83018 0.0
C538 C 0.16118 0.51828 0.83597 0.0
C539 C 0.19134 0.51094 0.8757 0.0
C540 C 0.21429 0.51256 0.8586 0.0
C541 C 0.16465 0.51324 0.86448 0.0
C542 C 0.18443 0.52005 0.8187 0.0
C543 C 0.23616 0.51807 0.81394 0.0
O544 O 0.30583 0.49727 0.77401 0.0
O545 O 0.30518 0.54256 0.77551 0.0
O546 O 0.24266 0.5414 0.80152 0.0
O547 O 0.24409 0.49553 0.8009 0.0
H548 H 0.30296 0.52618 0.83414 0.0
H549 H 0.33223 0.52365 0.87598 0.0
H550 H 0.40417 0.51049 0.82418 0.0
H551 H 0.37488 0.51203 0.78298 0.0
H552 H 0.203 0.52707 0.63324 0.0
H553 H 0.24299 0.52748 0.66409 0.0
H554 H 0.14932 0.51052 0.70309 0.0
H555 H 0.18985 0.51201 0.73425 0.0
H556 H 0.14062 0.52049 0.82715 0.0
H557 H 0.19448 0.508 0.89777 0.0
H558 H 0.23479 0.51042 0.86764 0.0
H559 H 0.18179 0.52367 0.79669 0.0
C560 C 0.5107 0.3342 0.80575 0.0
C561 C 0.49736 0.32562 0.83031 0.0
C562 C 0.51231 0.36777 0.85434 0.0
C563 C 0.49801 0.3423 0.85428 0.0
C564 C 0.52615 0.37577 0.82987 0.0
C565 C 0.5253 0.35928 0.80598 0.0
U566 U 0.50992 0.26423 0.76896 0.0
O567 O 0.53241 0.24937 0.73197 0.0
O568 O 0.48686 0.24836 0.73268 0.0
C569 C 0.50957 0.24277 0.7186 0.0
C570 C 0.50983 0.31756 0.77974 0.0
C571 C 0.51003 0.21728 0.70133 0.0
C572 C 0.5123 0.19761 0.65482 0.0
C573 C 0.51126 0.22055 0.67248 0.0
C574 C 0.51068 0.16709 0.69451 0.0
C575 C 0.51263 0.17048 0.66546 0.0
C576 C 0.50947 0.1903 0.71233 0.0
C577 C 0.51181 0.20942 0.83021 0.0
C578 C 0.51168 0.15979 0.83617 0.0
C579 C 0.51291 0.19028 0.87626 0.0
C580 C 0.51258 0.21303 0.85891 0.0
C581 C 0.51228 0.16355 0.86509 0.0
C582 C 0.51146 0.18284 0.81863 0.0
C583 C 0.51119 0.23442 0.81374 0.0
O584 O 0.53251 0.30366 0.77383 0.0
O585 O 0.48708 0.30328 0.77507 0.0
O586 O 0.48784 0.24127 0.80145 0.0
O587 O 0.53385 0.2418 0.80052 0.0
H588 H 0.48613 0.3062 0.83089 0.0
H589 H 0.48671 0.33554 0.87247 0.0
H590 H 0.5377 0.39498 0.82911 0.0
H591 H 0.536 0.36625 0.78749 0.0
H592 H 0.51275 0.20122 0.63266 0.0
H593 H 0.51147 0.2411 0.66345 0.0
H594 H 0.51066 0.14654 0.70348 0.0
H595 H 0.50834 0.18719 0.73455 0.0
H596 H 0.51096 0.13921 0.82729 0.0
H597 H 0.51369 0.1936 0.89849 0.0
H598 H 0.51287 0.23358 0.86797 0.0
H599 H 0.51084 0.18 0.79636 0.0
C600 C 0.69361 0.50854 0.80689 0.0
C601 C 0.70354 0.49715 0.83191 0.0
C602 C 0.66044 0.50962 0.85564 0.0
C603 C 0.68702 0.49751 0.856 0.0
C604 C 0.65089 0.52147 0.83076 0.0
C605 C 0.66722 0.52081 0.80669 0.0
U606 U 0.76391 0.50825 0.7705 0.0
O607 O 0.77919 0.53123 0.73397 0.0
O608 O 0.77971 0.48577 0.73386 0.0
C609 C 0.78544 0.50861 0.72015 0.0
C610 C 0.71034 0.50814 0.78094 0.0
C611 C 0.81066 0.50899 0.70239 0.0
C612 C 0.82937 0.51031 0.65542 0.0
C613 C 0.80676 0.51011 0.6736 0.0
C614 C 0.8608 0.50835 0.69445 0.0
C615 C 0.85678 0.50892 0.6654 0.0
C616 C 0.83793 0.50833 0.71281 0.0
C617 C 0.81899 0.50911 0.83149 0.0
C618 C 0.86887 0.51009 0.83649 0.0
C619 C 0.83907 0.51047 0.8772 0.0
C620 C 0.81592 0.50967 0.8603 0.0
C621 C 0.8655 0.51075 0.86537 0.0
C622 C 0.84545 0.50926 0.81939 0.0
C623 C 0.79363 0.50868 0.81547 0.0
O624 O 0.7244 0.53081 0.77556 0.0
O625 O 0.72467 0.4855 0.77602 0.0
O626 O 0.78679 0.48563 0.80271 0.0
O627 O 0.78618 0.53149 0.80263 0.0
H628 H 0.72401 0.48792 0.83283 0.0
H629 H 0.69508 0.48856 0.87496 0.0
H630 H 0.63052 0.53091 0.82983 0.0
H631 H 0.65915 0.52986 0.78778 0.0
H632 H 0.82528 0.51183 0.63339 0.0
H633 H 0.78598 0.51091 0.66504 0.0
H634 H 0.88158 0.50749 0.70295 0.0
H635 H 0.84152 0.50766 0.73497 0.0
H636 H 0.88942 0.51026 0.82737 0.0
H637 H 0.8364 0.51098 0.89953 0.0
H638 H 0.7955 0.50958 0.86976 0.0
H639 H 0.84788 0.50882 0.79706 0.0
C640 C 0.514 0.22327 0.33571 0.0
C641 C 0.49782 0.19992 0.32886 0.0
C642 C 0.51455 0.17535 0.37 0.0
C643 C 0.49811 0.17618 0.34586 0.0
C644 C 0.53168 0.19823 0.37585 0.0
C645 C 0.53128 0.22186 0.35905 0.0
U646 U 0.5104 0.2606 0.26596 0.0
O647 O 0.53368 0.29632 0.24946 0.0
O648 O 0.48824 0.29829 0.25241 0.0
C649 C 0.51117 0.31106 0.24498 0.0
C650 C 0.5133 0.24931 0.31918 0.0
C651 C 0.51027 0.32862 0.21967 0.0
C652 C 0.50688 0.37523 0.20057 0.0
C653 C 0.50707 0.35723 0.22329 0.0
C654 C 0.51286 0.33636 0.1696 0.0
C655 C 0.50931 0.36518 0.17327 0.0
C656 C 0.51335 0.31823 0.19259 0.0
C657 C 0.50565 0.20063 0.21005 0.0
C658 C 0.51834 0.19272 0.16222 0.0
C659 C 0.49898 0.15546 0.19002 0.0
C660 C 0.49654 0.17328 0.21234 0.0
C661 C 0.51058 0.16487 0.16516 0.0
C662 C 0.5161 0.21065 0.18484 0.0
C663 C 0.50712 0.2163 0.2356 0.0
O664 O 0.53529 0.25424 0.30385 0.0
O665 O 0.4899 0.25521 0.30645 0.0
O666 O 0.48495 0.22965 0.24414 0.0
O667 O 0.53087 0.22809 0.24192 0.0
H668 H 0.48464 0.20016 0.31066 0.0
H669 H 0.48483 0.15887 0.34062 0.0
H670 H 0.54522 0.19803 0.39378 0.0
H671 H 0.54429 0.2393 0.36454 0.0
H672 H 0.50527 0.39721 0.20457 0.0
H673 H 0.50505 0.36582 0.24396 0.0
H674 H 0.515 0.32779 0.14895 0.0
H675 H 0.51612 0.29623 0.18922 0.0
H676 H 0.52708 0.20018 0.14292 0.0
H677 H 0.49245 0.13411 0.19235 0.0
H678 H 0.48862 0.16535 0.23183 0.0
H679 H 0.52331 0.2318 0.18301 0.0
C680 C 0.69284 0.51805 0.22571 0.0
C681 C 0.70495 0.51567 0.19923 0.0
C682 C 0.65907 0.51656 0.17731 0.0
C683 C 0.68824 0.51499 0.17526 0.0
C684 C 0.64726 0.51895 0.20395 0.0
C685 C 0.66391 0.51972 0.22775 0.0
U686 U 0.76356 0.51841 0.261 0.0
O687 O 0.77961 0.49674 0.29795 0.0
O688 O 0.77942 0.5422 0.29681 0.0
C689 C 0.78605 0.51984 0.31089 0.0
C690 C 0.70986 0.51886 0.25137 0.0
C691 C 0.81203 0.52053 0.32758 0.0
C692 C 0.83405 0.53387 0.37112 0.0
C693 C 0.81148 0.53485 0.35288 0.0
C694 C 0.859 0.50483 0.3388 0.0
C695 C 0.85786 0.51823 0.36479 0.0
C696 C 0.83623 0.50584 0.3204 0.0
C697 C 0.8189 0.51472 0.20067 0.0
C698 C 0.86751 0.5252 0.19413 0.0
C699 C 0.8404 0.50527 0.1566 0.0
C700 C 0.81728 0.50469 0.17356 0.0
C701 C 0.86547 0.5159 0.16661 0.0
C702 C 0.84409 0.52472 0.21124 0.0
C703 C 0.79301 0.51612 0.21586 0.0
O704 O 0.72381 0.49621 0.25714 0.0
O705 O 0.72451 0.54147 0.25524 0.0
O706 O 0.78642 0.53962 0.22792 0.0
O707 O 0.78495 0.49384 0.22922 0.0
H708 H 0.7273 0.51449 0.19708 0.0
H709 H 0.69819 0.51373 0.15517 0.0
H710 H 0.62496 0.52001 0.20647 0.0
H711 H 0.65411 0.52159 0.24789 0.0
H712 H 0.83265 0.54515 0.39048 0.0
H713 H 0.79315 0.54635 0.35895 0.0
H714 H 0.87709 0.49278 0.33314 0.0
H715 H 0.83729 0.49465 0.30096 0.0
H716 H 0.88685 0.53351 0.202 0.0
H717 H 0.83861 0.4978 0.13547 0.0
H718 H 0.79784 0.49706 0.16521 0.0
H719 H 0.84542 0.53262 0.23222 0.0
C720 C 0.51194 0.69442 0.22389 0.0
C721 C 0.51195 0.70649 0.19732 0.0
C722 C 0.51287 0.66056 0.17558 0.0
C723 C 0.51231 0.68971 0.17338 0.0
C724 C 0.51301 0.64885 0.20234 0.0
C725 C 0.51247 0.66553 0.22606 0.0
U726 U 0.51156 0.76332 0.26523 0.0
O727 O 0.53448 0.77467 0.30314 0.0
O728 O 0.489 0.77434 0.30349 0.0
C729 C 0.5118 0.78025 0.31722 0.0
C730 C 0.51158 0.71101 0.2498 0.0
C731 C 0.51167 0.80625 0.33367 0.0
C732 C 0.50915 0.828 0.37919 0.0
C733 C 0.50892 0.80429 0.36252 0.0
C734 C 0.51493 0.85655 0.33841 0.0
C735 C 0.51231 0.85455 0.36754 0.0
C736 C 0.51451 0.83263 0.32162 0.0
C737 C 0.51113 0.8216 0.20558 0.0
C738 C 0.49907 0.86792 0.19151 0.0
C739 C 0.52405 0.83751 0.16 0.0
C740 C 0.52381 0.81677 0.17994 0.0
C741 C 0.51198 0.86323 0.1659 0.0
C742 C 0.49853 0.84705 0.21131 0.0
C743 C 0.5116 0.80025 0.22657 0.0
O744 O 0.53428 0.72493 0.25556 0.0
O745 O 0.4888 0.72504 0.25507 0.0
O746 O 0.48844 0.79101 0.23758 0.0
O747 O 0.53489 0.78996 0.2363 0.0
H748 H 0.51151 0.7288 0.19509 0.0
H749 H 0.51163 0.69956 0.15323 0.0
H750 H 0.51375 0.62662 0.20505 0.0
H751 H 0.51254 0.65574 0.24628 0.0
H752 H 0.50673 0.82546 0.40137 0.0
H753 H 0.50667 0.78422 0.3723 0.0
H754 H 0.51793 0.87648 0.32861 0.0
H755 H 0.5167 0.8347 0.29935 0.0
H756 H 0.48943 0.88767 0.1961 0.0
H757 H 0.53402 0.83371 0.14021 0.0
H758 H 0.53349 0.79703 0.17541 0.0
H759 H 0.48874 0.85087 0.23118 0.0
C760 C 0.22511 0.51811 0.33727 0.0
C761 C 0.1988 0.52303 0.32553 0.0
C762 C 0.17645 0.51653 0.37076 0.0
C763 C 0.17474 0.52241 0.34213 0.0
C764 C 0.2029 0.5113 0.38212 0.0
C765 C 0.22683 0.51215 0.36563 0.0
U766 U 0.26092 0.51807 0.26682 0.0
O767 O 0.29752 0.49516 0.25165 0.0
O768 O 0.2973 0.5406 0.25047 0.0
C769 C 0.31111 0.51777 0.24491 0.0
C770 C 0.25092 0.51871 0.32042 0.0
C771 C 0.32834 0.5171 0.21935 0.0
C772 C 0.37488 0.51613 0.19954 0.0
C773 C 0.35724 0.51687 0.22257 0.0
C774 C 0.33505 0.51608 0.16907 0.0
C775 C 0.36422 0.5158 0.17235 0.0
C776 C 0.31726 0.51661 0.19236 0.0
C777 C 0.20066 0.51537 0.21132 0.0
C778 C 0.19366 0.52735 0.16316 0.0
C779 C 0.15665 0.50579 0.18973 0.0
C780 C 0.17373 0.50481 0.21274 0.0
C781 C 0.16632 0.51742 0.16496 0.0
C782 C 0.2109 0.52638 0.18645 0.0
C783 C 0.21586 0.51652 0.2372 0.0
O784 O 0.25649 0.49597 0.30657 0.0
O785 O 0.25526 0.54126 0.30579 0.0
O786 O 0.22836 0.53981 0.24374 0.0
O787 O 0.22876 0.494 0.2454 0.0
H788 H 0.19688 0.52757 0.30361 0.0
H789 H 0.15494 0.52709 0.33262 0.0
H790 H 0.20518 0.50637 0.4039 0.0
H791 H 0.2468 0.5081 0.37511 0.0
H792 H 0.39706 0.51561 0.20314 0.0
H793 H 0.36632 0.5172 0.24313 0.0
H794 H 0.32593 0.51641 0.14856 0.0
H795 H 0.29499 0.51684 0.18931 0.0
H796 H 0.2013 0.5365 0.14412 0.0
H797 H 0.1357 0.49778 0.19138 0.0
H798 H 0.1656 0.49645 0.23197 0.0
H799 H 0.23172 0.53474 0.18528 0.0
C800 C 0.80523 0.69216 0.51072 0.0
C801 C 0.83189 0.70411 0.51025 0.0
C802 C 0.85349 0.65825 0.51295 0.0
C803 C 0.85579 0.6873 0.51129 0.0
C804 C 0.8267 0.64657 0.51255 0.0
C805 C 0.80297 0.66329 0.51167 0.0
U806 U 0.76912 0.76264 0.51047 0.0
O807 O 0.73287 0.77801 0.53385 0.0
O808 O 0.732 0.77786 0.48831 0.0
C809 C 0.71866 0.78392 0.51133 0.0
C810 C 0.77953 0.70918 0.5106 0.0
C811 C 0.70113 0.80923 0.51161 0.0
C812 C 0.65436 0.82853 0.51111 0.0
C813 C 0.67227 0.80575 0.51047 0.0
C814 C 0.69383 0.85928 0.51365 0.0
C815 C 0.6647 0.85573 0.51268 0.0
C816 C 0.71188 0.83624 0.51326 0.0
C817 C 0.83034 0.81758 0.51003 0.0
C818 C 0.83636 0.86697 0.51509 0.0
C819 C 0.87643 0.83676 0.51046 0.0
C820 C 0.85905 0.81411 0.5084 0.0
C821 C 0.86528 0.86321 0.51443 0.0
C822 C 0.81879 0.84402 0.51305 0.0
C823 C 0.81392 0.79252 0.50989 0.0
O824 O 0.77469 0.7235 0.53326 0.0
O825 O 0.77457 0.72333 0.48786 0.0
O826 O 0.80083 0.78553 0.48703 0.0
O827 O 0.8015 0.78519 0.53301 0.0
H828 H 0.83421 0.7264 0.50937 0.0
H829 H 0.87603 0.69706 0.51137 0.0
H830 H 0.82397 0.62434 0.51282 0.0
H831 H 0.7827 0.65359 0.51182 0.0
H832 H 0.63223 0.8247 0.51065 0.0
H833 H 0.66345 0.78515 0.50924 0.0
H834 H 0.70275 0.87982 0.51424 0.0
H835 H 0.7341 0.83951 0.51411 0.0
H836 H 0.82753 0.88741 0.51778 0.0
H837 H 0.89866 0.8336 0.50912 0.0
H838 H 0.86811 0.7937 0.50597 0.0
H839 H 0.79651 0.84678 0.51425 0.0
C840 C 0.80429 0.33625 0.51752 0.0
C841 C 0.83021 0.32539 0.52554 0.0
C842 C 0.85276 0.36982 0.51604 0.0
C843 C 0.85418 0.34207 0.52495 0.0
C844 C 0.82668 0.38052 0.50835 0.0
C845 C 0.80285 0.36392 0.50897 0.0
U846 U 0.76908 0.26561 0.51942 0.0
O847 O 0.73385 0.24913 0.49521 0.0
O848 O 0.73162 0.25 0.5407 0.0
C849 C 0.71914 0.24321 0.5174 0.0
C850 C 0.77866 0.31915 0.51743 0.0
C851 C 0.70219 0.21748 0.51685 0.0
C852 C 0.65726 0.19647 0.50688 0.0
C853 C 0.67489 0.21947 0.50699 0.0
C854 C 0.69389 0.16846 0.52652 0.0
C855 C 0.66629 0.17057 0.51676 0.0
C856 C 0.7117 0.19169 0.52652 0.0
C857 C 0.82878 0.21001 0.52494 0.0
C858 C 0.83728 0.16306 0.50986 0.0
C859 C 0.87197 0.18779 0.53676 0.0
C860 C 0.85456 0.21052 0.53822 0.0
C861 C 0.86369 0.16424 0.52207 0.0
C862 C 0.81978 0.18607 0.51118 0.0
C863 C 0.81418 0.2362 0.52306 0.0
O864 O 0.77481 0.30389 0.49521 0.0
O865 O 0.7729 0.30589 0.54054 0.0
O866 O 0.80047 0.24471 0.54502 0.0
O867 O 0.80264 0.24265 0.49921 0.0
H868 H 0.83193 0.30402 0.53214 0.0
H869 H 0.87388 0.33315 0.53106 0.0
H870 H 0.82459 0.40194 0.50208 0.0
H871 H 0.78316 0.37278 0.50274 0.0
H872 H 0.63641 0.19904 0.49893 0.0
H873 H 0.667 0.23911 0.4995 0.0
H874 H 0.70155 0.14909 0.53478 0.0
H875 H 0.73266 0.18959 0.53436 0.0
H876 H 0.83076 0.14488 0.49842 0.0
H877 H 0.89224 0.18885 0.54645 0.0
H878 H 0.86177 0.22902 0.54871 0.0
H879 H 0.79991 0.18557 0.50069 0.0
C880 C 0.22429 0.6931 0.52016 0.0
C881 C 0.19844 0.7032 0.52941 0.0
C882 C 0.17636 0.65867 0.51921 0.0
C883 C 0.1747 0.68614 0.52892 0.0
C884 C 0.20204 0.64924 0.50892 0.0
C885 C 0.22564 0.66615 0.50953 0.0
U886 U 0.26047 0.76351 0.52094 0.0
O887 O 0.29705 0.77968 0.54327 0.0
O888 O 0.29711 0.77827 0.49773 0.0
C889 C 0.3108 0.78508 0.52031 0.0
C890 C 0.25004 0.71009 0.52105 0.0
C891 C 0.32825 0.81047 0.51939 0.0
C892 C 0.37445 0.82996 0.51265 0.0
C893 C 0.35638 0.8073 0.51264 0.0
C894 C 0.33655 0.86004 0.52571 0.0
C895 C 0.36506 0.85661 0.51974 0.0
C896 C 0.3183 0.83714 0.52565 0.0
C897 C 0.19943 0.81846 0.51865 0.0
C898 C 0.19339 0.86794 0.52271 0.0
C899 C 0.15432 0.83839 0.51094 0.0
C900 C 0.17135 0.81543 0.51224 0.0
C901 C 0.16526 0.86478 0.51571 0.0
C902 C 0.21061 0.84467 0.52409 0.0
C903 C 0.21555 0.79322 0.51976 0.0
O904 O 0.25571 0.72408 0.4984 0.0
O905 O 0.25447 0.72444 0.5438 0.0
O906 O 0.22822 0.78684 0.54305 0.0
O907 O 0.2284 0.78526 0.4971 0.0
H908 H 0.19668 0.72413 0.53729 0.0
H909 H 0.15524 0.69418 0.53679 0.0
H910 H 0.20397 0.62857 0.50046 0.0
H911 H 0.24512 0.65803 0.50182 0.0
H912 H 0.39594 0.82652 0.50706 0.0
H913 H 0.36455 0.78703 0.50755 0.0
H914 H 0.32852 0.88029 0.53104 0.0
H915 H 0.29664 0.84021 0.53079 0.0
H916 H 0.20195 0.88827 0.5268 0.0
H917 H 0.13249 0.83549 0.50637 0.0
H918 H 0.16251 0.79516 0.50837 0.0
H919 H 0.23234 0.84706 0.52931 0.0
C920 C 0.33439 0.22223 0.51828 0.0
C921 C 0.32413 0.19648 0.52738 0.0
C922 C 0.36938 0.17476 0.51896 0.0
C923 C 0.34148 0.17293 0.52765 0.0
C924 C 0.37897 0.20037 0.50887 0.0
C925 C 0.3618 0.22372 0.50871 0.0
U926 U 0.26539 0.26417 0.51877 0.0
O927 O 0.25491 0.30249 0.54138 0.0
O928 O 0.25419 0.3021 0.49593 0.0
C929 C 0.24876 0.31617 0.51863 0.0
C930 C 0.31768 0.24812 0.51891 0.0
C931 C 0.22268 0.33266 0.51908 0.0
C932 C 0.20048 0.37719 0.52758 0.0
C933 C 0.22416 0.3604 0.52738 0.0
C934 C 0.17284 0.33873 0.51135 0.0
C935 C 0.17434 0.36664 0.51993 0.0
C936 C 0.19677 0.32187 0.51099 0.0
C937 C 0.20663 0.20484 0.51855 0.0
C938 C 0.16307 0.18714 0.53565 0.0
C939 C 0.1893 0.16135 0.50119 0.0
C940 C 0.20949 0.18185 0.50112 0.0
C941 C 0.16607 0.164 0.51844 0.0
C942 C 0.18347 0.20745 0.53587 0.0
C943 C 0.22776 0.22615 0.51861 0.0
O944 O 0.30398 0.25433 0.49618 0.0
O945 O 0.3035 0.25329 0.54164 0.0
O946 O 0.23713 0.23687 0.54185 0.0
O947 O 0.23848 0.23572 0.49545 0.0
H948 H 0.30293 0.19466 0.53463 0.0
H949 H 0.33331 0.15351 0.53534 0.0
H950 H 0.39998 0.20246 0.50116 0.0
H951 H 0.37012 0.2432 0.50132 0.0
H952 H 0.20284 0.3987 0.53338 0.0
H953 H 0.24388 0.36929 0.53349 0.0
H954 H 0.15314 0.32986 0.5052 0.0
H955 H 0.19504 0.3005 0.50439 0.0
H956 H 0.14513 0.18931 0.54904 0.0
H957 H 0.19165 0.14357 0.48768 0.0
H958 H 0.22741 0.17967 0.48772 0.0
H959 H 0.18105 0.22527 0.54931 0.0
C960 C 0.01432 0.94645 0.58284 0.0
C961 C 1.01393 0.94743 0.44682 0.0
C962 C 1.01386 0.08111 0.58327 0.0
C963 C 0.01509 0.082 0.44765 0.0
C964 C 0.94728 0.08003 0.51558 0.0
C965 C 0.94773 0.94808 0.51552 0.0
C966 C 0.08136 0.08068 0.51601 0.0
C967 C 0.08202 0.94853 0.51613 0.0
C968 C 0.08217 0.0131 0.44752 0.0
C969 C 0.94779 0.01467 0.44731 0.0
C970 C 0.08234 0.01422 0.58261 0.0
C971 C 0.94744 0.01415 0.58285 0.0
Eu972 Eu 0.01487 0.96137 0.51488 0.0
O973 O 0.99038 0.98954 0.49034 0.0
O974 O 0.03937 0.98934 0.53965 0.0
Eu975 Eu 0.96252 0.01401 0.51505 0.0
Eu976 Eu 0.06701 0.01434 0.5152 0.0
O977 O 0.99033 0.98929 0.53962 0.0
O978 O 0.0394 0.98964 0.49045 0.0
Eu979 Eu 0.01486 0.01386 0.56758 0.0
Eu980 Eu 0.01494 0.01459 0.46281 0.0
O981 O 0.99022 0.03861 0.53983 0.0
O982 O 0.99009 0.03905 0.49055 0.0
O983 O 0.03938 0.0393 0.49064 0.0
O984 O 0.03917 0.0389 0.5399 0.0
Eu985 Eu 0.01448 0.06692 0.51537 0.0
O986 O 0.01494 0.93778 0.55637 0.0
O987 O 1.01377 0.93827 0.47312 0.0
O988 O 1.01357 0.08985 0.55689 0.0
O989 O 0.01483 0.0906 0.4741 0.0
O990 O 0.93922 0.0538 0.51518 0.0
O991 O 0.93921 0.97415 0.5143 0.0
O992 O 0.08963 0.05454 0.51423 0.0
O993 O 0.09038 0.97461 0.51773 0.0
O994 O 0.05575 0.01473 0.43932 0.0
O995 O 0.97429 0.0144 0.43925 0.0
O996 O 0.05591 1.01265 0.59086 0.0
O997 O 0.97399 0.01423 0.59072 0.0
O998 O 0.0552 0.08955 0.51681 0.0
O999 O 0.97338 0.08918 0.51544 0.0
O1000 O 0.05605 0.93933 0.514 0.0
O1001 O 0.97386 0.93911 0.51618 0.0
O1002 O 0.01482 0.97404 0.43952 0.0
O1003 O 0.01487 0.05551 0.43972 0.0
O1004 O 1.01394 0.97298 0.5906 0.0
O1005 O 0.01468 0.05457 0.59109 0.0
O1006 O 0.93885 0.01402 0.55639 0.0
O1007 O 0.93915 0.01475 0.47371 0.0
O1008 O 0.09084 0.01601 0.55625 0.0
O1009 O 0.09066 1.01218 0.47397 0.0
C1010 C 0.51471 0.94837 0.08331 0.0
C1011 C 0.51581 0.08183 0.08095 0.0
C1012 C 0.51289 0.94613 0.95066 0.0
C1013 C 0.51464 0.07883 0.94778 0.0
C1014 C 0.5827 0.01468 0.94878 0.0
C1015 C 0.58215 0.01595 0.08369 0.0
C1016 C 0.44725 0.01303 0.94825 0.0
C1017 C 0.44716 0.01406 0.08331 0.0
C1018 C 0.44674 0.0812 0.01728 0.0
C1019 C 0.58247 0.08136 0.01609 0.0
C1020 C 0.44703 0.94676 0.01791 0.0
C1021 C 0.58266 0.94672 0.01672 0.0
Eu1022 Eu 0.51472 0.01478 0.06828 0.0
O1023 O 0.53911 0.03892 0.0399 0.0
O1024 O 0.49015 0.98979 0.04077 0.0
Eu1025 Eu 0.56735 0.01403 0.01612 0.0
Eu1026 Eu 0.46214 0.01397 0.01592 0.0
O1027 O 0.53959 0.98963 0.04106 0.0
O1028 O 0.48998 0.03901 0.0401 0.0
Eu1029 Eu 0.51486 0.96158 0.01668 0.0
Eu1030 Eu 0.5145 0.06646 0.01487 0.0
O1031 O 0.53975 0.98885 0.99157 0.0
O1032 O 0.53938 0.03816 0.99102 0.0
O1033 O 0.4899 0.03819 0.99068 0.0
O1034 O 0.49017 0.98906 0.99175 0.0
Eu1035 Eu 0.5149 0.01304 0.96349 0.0
O1036 O 0.51449 0.97462 0.0916 0.0
O1037 O 0.51559 0.05583 0.0901 0.0
O1038 O 0.51334 0.97213 0.94156 0.0
O1039 O 0.51571 0.05262 0.93965 0.0
O1040 O 0.59068 0.01512 0.97532 0.0
O1041 O 0.59048 0.01589 0.05723 0.0
O1042 O 0.43905 0.01311 0.97476 0.0
O1043 O 0.43868 0.01349 0.05694 0.0
O1044 O 0.47311 0.08997 0.01606 0.0
O1045 O 0.55599 0.08986 0.01511 0.0
O1046 O 0.47345 0.93804 0.01752 0.0
O1047 O 0.55619 0.93825 0.01697 0.0
O1048 O 0.47372 0.01357 0.93974 0.0
O1049 O 0.5563 0.01334 0.94017 0.0
O1050 O 0.47357 0.01493 0.09184 0.0
O1051 O 0.55573 0.01487 0.09218 0.0
O1052 O 0.51507 0.09008 0.05469 0.0
O1053 O 0.51349 0.0882 0.97371 0.0
O1054 O 0.51485 0.93938 0.05728 0.0
O1055 O 0.51402 0.93781 0.97689 0.0
O1056 O 0.59082 0.97317 0.01629 0.0
O1057 O 0.59049 0.05489 0.01648 0.0
O1058 O 0.43902 0.9732 0.01703 0.0
O1059 O 0.43883 0.05471 0.01695 0.0
C1060 C 0.01484 0.44593 0.08222 0.0
C1061 C 1.012 0.44674 0.9474 0.0
C1062 C 0.01565 0.58068 0.08351 0.0
C1063 C 0.01434 0.58196 0.94844 0.0
C1064 C 0.94811 0.58211 0.01535 0.0
C1065 C 0.94684 0.44697 0.01654 0.0
C1066 C 0.08315 0.58074 1.01332 0.0
C1067 C 0.08164 0.44573 0.0152 0.0
C1068 C 0.07947 0.51327 0.9466 0.0
C1069 C 0.94749 0.51389 0.94966 0.0
C1070 C 0.08388 0.51556 0.07939 0.0
C1071 C 0.95048 0.5146 0.08375 0.0
Eu1072 Eu 0.01435 0.46129 0.01488 0.0
O1073 O 0.98954 0.48973 0.99105 0.0
O1074 O 0.04009 0.48865 0.03903 0.0
Eu1075 Eu 0.96235 0.51444 0.01635 0.0
Eu1076 Eu 0.06737 0.51331 1.01365 0.0
O1077 O 0.99068 0.48943 0.04015 0.0
O1078 O 0.03878 0.48893 0.98963 0.0
Eu1079 Eu 0.01645 0.51348 0.06753 0.0
Eu1080 Eu 1.01376 0.51429 0.96278 0.0
O1081 O 0.99127 0.53852 0.04045 0.0
O1082 O 0.99003 0.53903 0.99139 0.0
O1083 O 0.03921 0.53859 0.99012 0.0
O1084 O 0.04048 0.53811 0.03925 0.0
Eu1085 Eu 0.01553 0.56649 0.01566 0.0
O1086 O 1.01372 0.43791 0.05572 0.0
O1087 O 1.01217 0.43847 0.97384 0.0
O1088 O 0.01622 0.58925 0.05712 0.0
O1089 O 0.01639 0.58995 0.97489 0.0
O1090 O 0.93915 0.55587 0.01643 0.0
O1091 O 0.9385 0.47342 0.01656 0.0
O1092 O 0.09137 0.55427 1.01174 0.0
O1093 O 0.09043 0.47199 0.01585 0.0
O1094 O 0.05326 0.51567 0.93861 0.0
O1095 O 0.97339 0.51399 0.94053 0.0
O1096 O 0.05793 0.51483 0.0889 0.0
O1097 O 0.97687 0.51356 0.09156 0.0
O1098 O 0.0568 0.58911 0.01548 0.0
O1099 O 0.97471 0.58994 0.01503 0.0
O1100 O 0.05518 0.43756 1.01397 0.0
O1101 O 0.97315 0.4383 0.01615 0.0
O1102 O 1.01327 0.47314 0.93894 0.0
O1103 O 1.01221 0.55575 0.93967 0.0
O1104 O 0.01655 0.47222 0.09087 0.0
O1105 O 0.01518 0.55422 0.09172 0.0
O1106 O 0.94096 0.51527 0.05781 0.0
O1107 O 0.93886 0.5141 0.97589 0.0
O1108 O 0.09165 0.51527 0.05299 0.0
O1109 O 0.0889 0.51119 0.97244 0.0
C1110 C 0.51293 0.44666 0.08285 0.0
C1111 C 0.51433 0.58161 0.08299 0.0
C1112 C 0.51427 0.44691 0.94741 0.0
C1113 C 0.51577 0.58177 0.94781 0.0
C1114 C 0.58298 0.51278 0.94863 0.0
C1115 C 0.58122 0.51456 0.08391 0.0
C1116 C 0.4481 0.51451 0.94717 0.0
C1117 C 0.44633 0.51462 0.08213 0.0
C1118 C 0.44895 0.58121 0.01559 0.0
C1119 C 0.58208 0.58008 0.01521 0.0
C1120 C 0.44798 0.44824 0.01481 0.0
C1121 C 0.58183 0.44781 0.01619 0.0
Eu1122 Eu 0.514 0.51424 0.06821 0.0
O1123 O 0.53922 0.5386 0.04055 0.0
O1124 O 0.49002 0.48976 0.03967 0.0
Eu1125 Eu 0.56707 0.51386 0.0161 0.0
Eu1126 Eu 0.46264 0.51464 0.01477 0.0
O1127 O 0.53896 0.48943 0.04062 0.0
O1128 O 0.49014 0.53905 0.03985 0.0
Eu1129 Eu 0.51486 0.46173 0.01531 0.0
Eu1130 Eu 0.51533 0.56653 0.01539 0.0
O1131 O 0.53969 0.48944 0.99076 0.0
O1132 O 0.53994 0.53862 0.99085 0.0
O1133 O 0.4908 0.53904 0.99023 0.0
O1134 O 0.49068 0.48986 0.99043 0.0
Eu1135 Eu 0.51552 0.51426 0.96256 0.0
O1136 O 0.51222 0.47306 0.09119 0.0
O1137 O 0.51282 0.55526 0.0913 0.0
O1138 O 0.51484 0.47338 0.93938 0.0
O1139 O 0.51655 0.55537 0.93948 0.0
O1140 O 0.59117 0.51275 0.97516 0.0
O1141 O 0.59008 0.51342 0.05761 0.0
O1142 O 0.43929 0.51555 0.97347 0.0
O1143 O 0.43833 0.51385 0.05555 0.0
O1144 O 0.4752 0.58954 0.01608 0.0
O1145 O 0.55598 0.589 0.01477 0.0
O1146 O 0.4741 0.43932 0.01532 0.0
O1147 O 0.55566 0.43894 0.01561 0.0
O1148 O 0.47461 0.51369 0.93907 0.0
O1149 O 0.55675 0.51344 0.93975 0.0
O1150 O 0.47263 0.51536 0.09091 0.0
O1151 O 0.5547 0.51539 0.09196 0.0
O1152 O 0.51606 0.59006 0.05659 0.0
O1153 O 0.51456 0.59022 0.97425 0.0
O1154 O 0.51465 0.43814 0.05647 0.0
O1155 O 0.51431 0.43838 0.97388 0.0
O1156 O 0.59016 0.47395 0.01681 0.0
O1157 O 0.59033 0.55387 0.01615 0.0
O1158 O 0.4397 0.47446 1.01449 0.0
O1159 O 0.44006 0.55517 0.01517 0.0
C1160 C 1.01321 0.44954 0.585 0.0
C1161 C 1.01348 0.44435 0.45199 0.0
C1162 C 1.01348 0.58273 0.57961 0.0
C1163 C 0.0149 0.57705 0.44645 0.0
C1164 C 0.94739 0.58095 0.51507 0.0
C1165 C 0.94654 0.4467 0.51649 0.0
C1166 C 0.08317 0.57993 0.51703 0.0
C1167 C 0.08169 0.44529 0.51757 0.0
C1168 C 0.08284 0.51318 0.44894 0.0
C1169 C 0.94711 0.51277 0.44824 0.0
C1170 C 0.08211 0.51556 0.58372 0.0
C1171 C 0.94692 0.513 0.58331 0.0
Eu1172 Eu 0.01427 0.4611 0.51775 0.0
O1173 O 0.98994 0.48816 0.49202 0.0
O1174 O 0.03909 0.4894 0.54173 0.0
Eu1175 Eu 0.96215 0.51369 0.51575 0.0
Eu1176 Eu 0.06729 0.51275 0.51629 0.0
O1177 O 0.98984 0.48999 0.5413 0.0
O1178 O 0.03948 0.48755 0.49212 0.0
Eu1179 Eu 0.01446 0.51542 0.5684 0.0
Eu1180 Eu 0.01498 0.51139 0.46339 0.0
O1181 O 0.99013 0.53913 0.53946 0.0
O1182 O 0.99038 0.53714 0.49031 0.0
O1183 O 0.03975 0.53678 0.49052 0.0
O1184 O 0.03936 0.53859 0.5396 0.0
Eu1185 Eu 0.01515 0.56582 0.5138 0.0
O1186 O 1.01377 0.44009 0.5591 0.0
O1187 O 1.01214 0.43667 0.47839 0.0
O1188 O 1.01403 0.59026 0.55313 0.0
O1189 O 0.01519 0.5868 0.47227 0.0
O1190 O 0.9392 0.5546 0.5168 0.0
O1191 O 0.93851 0.47305 0.51417 0.0
O1192 O 0.09072 0.55334 0.51727 0.0
O1193 O 0.09028 0.47159 0.51774 0.0
O1194 O 0.05647 0.51187 0.44021 0.0
O1195 O 0.97357 0.51128 0.4397 0.0
O1196 O 0.05561 0.5169 0.59199 0.0
O1197 O 0.97322 0.51537 0.59193 0.0
O1198 O 0.05689 0.58896 0.5151 0.0
O1199 O 0.97378 0.58946 0.5128 0.0
O1200 O 0.0552 0.43699 0.51711 0.0
O1201 O 0.97279 0.43798 0.51907 0.0
O1202 O 0.01548 0.47002 0.44223 0.0
O1203 O 0.01476 0.55063 0.43885 0.0
O1204 O 1.01397 0.47591 0.5929 0.0
O1205 O 1.01344 0.55693 0.58935 0.0
O1206 O 0.93885 0.51185 0.55679 0.0
O1207 O 0.93918 0.51438 0.47473 0.0
O1208 O 0.09048 0.51337 0.55737 0.0
O1209 O 0.09083 0.51365 0.47549 0.0
C1210 C 0.51612 0.94474 0.58146 0.0
C1211 C 0.51401 0.94717 0.44674 0.0
C1212 C 0.51646 0.07973 0.58441 0.0
C1213 C 0.51362 0.0829 0.4497 0.0
C1214 C 0.44872 0.08213 0.51899 0.0
C1215 C 0.44712 0.94676 0.51734 0.0
C1216 C 0.58376 0.08039 0.5155 0.0
C1217 C 0.5824 0.94569 0.51352 0.0
C1218 C 0.57966 0.01477 0.44664 0.0
C1219 C 0.44743 0.01613 0.4497 0.0
C1220 C 0.58415 1.01272 0.5796 0.0
C1221 C 0.45071 0.01345 0.58361 0.0
Eu1222 Eu 0.51488 0.9611 0.51428 0.0
O1223 O 0.48963 0.98961 0.49073 0.0
O1224 O 0.54034 0.98819 0.53888 0.0
Eu1225 Eu 0.46261 0.01428 0.51644 0.0
Eu1226 Eu 0.5676 0.01308 0.51379 0.0
O1227 O 0.49112 0.98896 0.53981 0.0
O1228 O 0.539 0.98919 0.4894 0.0
Eu1229 Eu 0.51666 1.01248 0.56786 0.0
Eu1230 Eu 0.51386 0.01475 0.46287 0.0
O1231 O 0.49161 0.03782 0.541 0.0
O1232 O 0.49038 0.03914 0.49195 0.0
O1233 O 0.5395 0.03864 0.49053 0.0
O1234 O 0.54091 0.03745 0.54 0.0
Eu1235 Eu 0.51603 0.06605 0.5167 0.0
O1236 O 0.51632 0.93711 0.55481 0.0
O1237 O 0.51456 0.93852 0.47305 0.0
O1238 O 0.51717 0.08847 0.55812 0.0
O1239 O 0.51521 0.08996 0.47641 0.0
O1240 O 0.4396 0.05593 0.51792 0.0
O1241 O 0.43867 0.97321 0.517 0.0
O1242 O 0.59175 0.05388 0.51403 0.0
O1243 O 0.59097 0.972 0.51427 0.0
O1244 O 0.55332 0.01598 0.43875 0.0
O1245 O 0.47339 0.01521 0.44063 0.0
O1246 O 0.55822 1.01237 0.58922 0.0
O1247 O 0.47697 1.012 0.59169 0.0
O1248 O 0.55736 0.08888 0.51673 0.0
O1249 O 0.4754 0.08965 0.51852 0.0
O1250 O 0.55589 0.93749 0.51273 0.0
O1251 O 0.47357 0.93844 0.51619 0.0
O1252 O 0.5134 0.97374 0.43866 0.0
O1253 O 0.51292 0.05675 0.44032 0.0
O1254 O 0.51575 0.97089 0.59065 0.0
O1255 O 0.51568 0.05318 0.59243 0.0
O1256 O 0.44105 0.01474 0.5578 0.0
O1257 O 0.43909 0.01607 0.47606 0.0
O1258 O 0.59179 1.01271 0.55316 0.0
O1259 O 0.58917 1.01288 0.47249 0.0
C1260 C 0.1175 0.1495 0.51137 0.0
C1261 C 0.14483 0.14259 0.51842 0.0
C1262 C 0.09696 0.12926 0.51072 0.0
C1263 C 0.10325 0.10161 0.51724 0.0
H1264 H 0.1121 0.17059 0.50595 0.0
H1265 H 0.07616 0.13532 0.50473 0.0
S1266 S 0.17181 0.07397 0.53929 0.0
N1267 N 0.17727 0.10716 0.53334 0.0
N1268 N 0.13865 0.06877 0.53258 0.0
C1269 C 0.13059 0.09465 0.52492 0.0
C1270 C 0.15144 0.11528 0.52539 0.0
C1271 C 0.90972 0.1476 0.50708 0.0
C1272 C 0.8836 0.14175 0.51858 0.0
C1273 C 0.93024 0.12736 0.50599 0.0
C1274 C 0.92517 0.10071 0.51636 0.0
H1275 H 0.91439 0.1681 0.49924 0.0
H1276 H 0.95016 0.13268 0.49702 0.0
S1277 S 0.8601 0.07558 0.54913 0.0
N1278 N 0.85355 0.10804 0.54064 0.0
N1279 N 0.89221 0.0696 0.53884 0.0
C1280 C 0.89892 0.09454 0.52762 0.0
C1281 C 0.87803 0.1152 0.52862 0.0
C1282 C 0.88258 0.90899 0.49906 0.0
C1283 C 0.88437 0.88654 0.51742 0.0
C1284 C 0.90316 0.92929 0.49882 0.0
C1285 C 0.92605 0.92732 0.51672 0.0
H1286 H 0.86584 0.91025 0.4841 0.0
H1287 H 0.90165 0.94608 0.48399 0.0
S1288 S 0.93825 0.87467 0.57107 0.0
N1289 N 0.90911 0.86503 0.55583 0.0
N1290 N 0.94822 0.90309 0.55488 0.0
C1291 C 0.92749 0.90569 0.53592 0.0
C1292 C 0.90643 0.88529 0.53643 0.0
C1293 C 0.14318 0.90579 0.53731 0.0
C1294 C 0.14651 0.88851 0.51413 0.0
C1295 C 0.12212 0.92561 0.53781 0.0
C1296 C 0.10384 0.92812 0.51534 0.0
H1297 H 0.15616 0.90323 0.55547 0.0
H1298 H 0.11959 0.93848 0.55606 0.0
S1299 S 0.10601 0.89038 0.44874 0.0
N1300 N 0.13167 0.87715 0.4672 0.0
N1301 N 0.09144 0.91407 0.46868 0.0
C1302 C 0.10755 0.91185 0.49173 0.0
C1303 C 0.12916 0.89207 0.49097 0.0
C1304 C 0.50137 0.14898 0.11732 0.0
C1305 C 0.51487 0.14506 0.14274 0.0
C1306 C 0.50223 0.12845 0.09702 0.0
C1307 C 0.51657 0.10357 0.10179 0.0
H1308 H 0.48922 0.16748 0.11357 0.0
H1309 H 0.49085 0.1317 0.07791 0.0
S1310 S 0.55805 0.08512 0.16379 0.0
N1311 N 0.5449 0.1159 0.17088 0.0
N1312 N 0.54657 0.07713 0.13254 0.0
C1313 C 0.53113 0.09995 0.12669 0.0
C1314 C 0.53029 0.12084 0.14726 0.0
C1315 C 0.88493 0.53142 0.12198 0.0
C1316 C 0.88884 0.51785 0.14744 0.0
C1317 C 0.90517 0.53035 0.10146 0.0
C1318 C 0.92995 0.51579 0.10589 0.0
H1319 H 0.86578 0.5424 0.11771 0.0
H1320 H 0.90132 0.54092 0.082 0.0
S1321 S 0.94999 0.47685 0.16912 0.0
N1322 N 0.919 0.48964 0.17623 0.0
N1323 N 0.95754 0.48768 0.13753 0.0
C1324 C 0.93444 0.5027 0.13155 0.0
C1325 C 0.91372 0.50376 0.15244 0.0
C1326 C 0.50186 0.88053 0.11885 0.0
C1327 C 0.51298 0.88522 0.14528 0.0
C1328 C 0.50252 0.90124 0.09884 0.0
C1329 C 0.51436 0.92715 0.10476 0.0
H1330 H 0.49236 0.86084 0.11377 0.0
H1331 H 0.4934 0.89699 0.07873 0.0
S1332 S 0.54802 0.94859 0.1705 0.0
N1333 N 0.53727 0.91665 0.17622 0.0
N1334 N 0.53855 0.95595 0.13843 0.0
C1335 C 0.52584 0.93194 0.13108 0.0
C1336 C 0.52515 0.91081 0.15144 0.0
C1337 C 0.12072 0.53105 0.14609 0.0
C1338 C 0.14709 0.5195 0.14161 0.0
C1339 C 0.10043 0.52989 0.12564 0.0
C1340 C 0.106 0.51736 0.09999 0.0
H1341 H 0.11557 0.54048 0.16583 0.0
H1342 H 0.08024 0.53876 0.13004 0.0
S1343 S 0.1723 0.48513 0.07778 0.0
N1344 N 0.17811 0.49581 0.10979 0.0
N1345 N 0.14 0.49407 0.07071 0.0
C1346 C 0.13264 0.50664 0.09484 0.0
C1347 C 0.15326 0.50765 0.11584 0.0
C1348 C 0.52379 0.87942 0.91227 0.0
C1349 C 0.50746 0.88346 0.88853 0.0
C1350 C 0.5251 0.89976 0.93277 0.0
C1351 C 0.51028 0.9246 0.9298 0.0
H1352 H 0.53646 0.86102 0.91443 0.0
H1353 H 0.53848 0.89645 0.95053 0.0
S1354 S 0.46176 0.94332 0.87325 0.0
N1355 N 0.47409 0.91266 0.86443 0.0
N1356 N 0.47683 0.95114 0.90297 0.0
C1357 C 0.49295 0.92833 0.90678 0.0
C1358 C 0.49143 0.90761 0.8861 0.0
C1359 C 0.12123 0.53262 0.88411 0.0
C1360 C 0.14084 0.51114 0.8832 0.0
C1361 C 0.10079 0.53296 0.9046 0.0
C1362 C 0.09989 0.51204 0.92472 0.0
H1363 H 0.12238 0.54975 0.86965 0.0
H1364 H 0.08625 0.55007 0.90532 0.0
S1365 S 0.14429 0.44983 0.92943 0.0
N1366 N 0.15634 0.46713 0.90244 0.0
N1367 N 0.11828 0.46844 0.94162 0.0
C1368 C 0.11862 0.49003 0.92352 0.0
C1369 C 0.13905 0.48938 0.90247 0.0
C1370 C 0.493 0.14053 0.90655 0.0
C1371 C 0.51181 0.14006 0.88425 0.0
C1372 C 0.49421 0.12057 0.92728 0.0
C1373 C 0.5139 0.09934 0.92593 0.0
H1374 H 0.47759 0.15678 0.90825 0.0
H1375 H 0.47961 0.12167 0.94435 0.0
S1376 S 0.56786 0.08887 0.87232 0.0
N1377 N 0.55095 0.11691 0.86232 0.0
N1378 N 0.55251 0.07851 0.90114 0.0
C1379 C 0.53239 0.0981 0.90356 0.0
C1380 C 0.53147 0.1187 0.88262 0.0
C1381 C 0.8981 0.48717 0.89659 0.0
C1382 C 0.88911 0.51175 0.884 0.0
C1383 C 0.917 0.48804 0.91844 0.0
C1384 C 0.9267 0.51349 0.9283 0.0
H1385 H 0.88993 0.46735 0.88997 0.0
H1386 H 0.92402 0.46886 0.92769 0.0
S1387 S 0.90985 0.58329 0.90195 0.0
N1388 N 0.89145 0.56198 0.88241 0.0
N1389 N 0.92725 0.5635 0.92383 0.0
C1390 C 0.91834 0.5381 0.91563 0.0
C1391 C 0.89929 0.53725 0.89331 0.0
C1392 C 0.61794 0.64813 0.02658 0.0
C1393 C 0.64512 0.64229 0.01813 0.0
C1394 C 0.59751 0.62785 0.02522 0.0
C1395 C 0.60376 0.60118 0.01539 0.0
H1396 H 0.61255 0.6684 0.03456 0.0
H1397 H 0.57682 0.63305 0.03228 0.0
S1398 S 0.67164 0.57676 0.98843 0.0
N1399 N 0.67723 0.60904 0.99817 0.0
N1400 N 0.63868 0.57057 0.99537 0.0
C1401 C 0.63085 0.59532 1.0063 0.0
C1402 C 0.65163 0.61601 1.00777 0.0
C1403 C 0.38092 0.61696 0.0279 0.0
C1404 C 0.38651 0.64389 0.01873 0.0
C1405 C 0.40133 0.59665 0.02664 0.0
C1406 C 0.42781 0.60278 0.01609 0.0
H1407 H 0.36076 0.61171 0.03637 0.0
H1408 H 0.39641 0.57616 0.03435 0.0
S1409 S 0.45161 0.67009 0.98759 0.0
N1410 N 0.41935 0.67568 0.99763 0.0
N1411 N 0.45807 0.63739 0.99509 0.0
C1412 C 0.43344 0.62966 1.00646 0.0
C1413 C 0.41264 0.6503 1.00782 0.0
C1414 C 0.41199 0.38035 0.02717 0.0
C1415 C 0.38481 0.38609 0.01865 0.0
C1416 C 0.43243 0.40063 0.02565 0.0
C1417 C 0.42623 0.42716 0.01541 0.0
H1418 H 0.41737 0.36014 0.03532 0.0
H1419 H 0.45308 0.39552 0.03291 0.0
S1420 S 0.35816 0.45143 0.98868 0.0
N1421 N 0.35263 0.41922 0.99866 0.0
N1422 N 0.39116 0.45763 0.99537 0.0
C1423 C 0.39907 0.43296 1.00642 0.0
C1424 C 0.37828 0.4123 1.00815 0.0
C1425 C 0.61928 0.3811 0.03005 0.0
C1426 C 0.6456 0.38621 0.01863 0.0
C1427 C 0.59859 0.40119 0.02907 0.0
C1428 C 0.60371 0.42695 0.01667 0.0
H1429 H 0.61461 0.36131 0.03954 0.0
H1430 H 0.57857 0.39656 0.03819 0.0
S1431 S 0.66895 0.44972 0.98268 0.0
N1432 N 0.67564 0.41816 0.994 0.0
N1433 N 0.63668 0.4563 0.99204 0.0
C1434 C 0.63003 0.43233 1.00525 0.0
C1435 C 0.65107 0.41184 1.00631 0.0
C1436 C 0.99889 0.62046 0.64598 0.0
C1437 C 1.01133 0.6463 0.64131 0.0
C1438 C 0.99945 0.60004 0.62567 0.0
C1439 C 1.01242 0.60493 0.60008 0.0
H1440 H 0.98917 0.61584 0.66572 0.0
H1441 H 0.98978 0.58028 0.63014 0.0
S1442 S 0.04823 0.66926 0.57808 0.0
N1443 N 0.03689 0.67595 0.60971 0.0
N1444 N 0.03804 0.6374 0.57108 0.0
C1445 C 0.02446 0.63094 0.59494 0.0
C1446 C 0.02385 0.65174 0.61571 0.0
C1447 C 0.39977 0.03973 0.6355 0.0
C1448 C 0.39163 0.01518 0.64875 0.0
C1449 C 0.41917 0.03903 0.61408 0.0
C1450 C 0.43053 0.01377 0.60557 0.0
H1451 H 0.39042 0.05933 0.64116 0.0
H1452 H 0.42509 0.05817 0.60394 0.0
S1453 S 0.41541 0.94404 0.6331 0.0
N1454 N 0.39582 0.96514 0.6517 0.0
N1455 N 0.43278 0.96394 0.6113 0.0
C1456 C 0.42289 0.98921 0.61877 0.0
C1457 C 0.40317 0.98989 0.64052 0.0
C1458 C 0.0241 0.41295 0.653 0.0
C1459 C 1.01083 0.38758 0.64823 0.0
C1460 C 0.02428 0.43339 0.63254 0.0
C1461 C 1.01133 0.42877 0.60684 0.0
H1462 H 0.03532 0.41652 0.67214 0.0
H1463 H 0.03545 0.45245 0.63647 0.0
S1464 S 0.97104 0.36681 0.58582 0.0
N1465 N 0.98232 0.35974 0.61736 0.0
N1466 N 0.98298 0.398 0.5786 0.0
C1467 C 0.997 0.40388 0.60236 0.0
C1468 C 0.99662 0.38329 0.62321 0.0
C1469 C 0.6223 1.00503 0.64699 0.0
C1470 C 0.64789 0.01759 0.64114 0.0
C1471 C 0.60186 1.0031 0.62672 0.0
C1472 C 0.60649 0.0137 0.60003 0.0
H1473 H 0.61791 0.99709 0.66756 0.0
H1474 H 0.58228 0.99346 0.63208 0.0
S1475 S 0.67022 0.04887 0.57479 0.0
N1476 N 0.6771 0.04067 0.60732 0.0
N1477 N 0.63854 0.03734 0.56879 0.0
C1478 C 0.6323 0.02587 0.59379 0.0
C1479 C 0.65311 0.02772 0.6145 0.0
C1480 C 0.03179 0.40203 0.38987 0.0
C1481 C 1.0109 0.38171 0.38986 0.0
C1482 C 0.03259 0.42226 0.41035 0.0
C1483 C 1.01282 0.42239 0.43159 0.0
H1484 H 0.04723 0.40263 0.37353 0.0
H1485 H 0.04866 0.43794 0.40953 0.0
S1486 S 0.95371 0.37438 0.4407 0.0
N1487 N 0.96974 0.36328 0.4125 0.0
N1488 N 0.97181 0.40121 0.45178 0.0
C1489 C 0.99223 0.40195 0.43234 0.0
C1490 C 0.99116 0.38151 0.41124 0.0
C1491 C 0.64362 0.99899 0.40579 0.0
C1492 C 0.64142 0.01752 0.38342 0.0
C1493 C 0.62333 0.99815 0.42626 0.0
C1494 C 0.60017 0.01555 0.42467 0.0
H1495 H 0.66147 0.98548 0.40772 0.0
H1496 H 0.62579 0.98385 0.44342 0.0
S1497 S 0.58505 0.06804 0.37074 0.0
N1498 N 0.61472 0.05389 0.36102 0.0
N1499 N 0.57594 0.05191 0.39953 0.0
C1500 C 0.59735 0.03377 0.40219 0.0
C1501 C 0.61818 0.03481 0.38145 0.0
C1502 C 0.99842 0.64228 0.40795 0.0
C1503 C 1.01242 0.63837 0.3827 0.0
C1504 C 0.99924 0.62213 0.4285 0.0
C1505 C 1.01393 0.59744 0.42428 0.0
H1506 H 0.98725 0.66133 0.41201 0.0
H1507 H 0.98836 0.62594 0.44781 0.0
S1508 S 0.05421 0.57754 0.36188 0.0
N1509 N 0.04139 0.60839 0.35447 0.0
N1510 N 0.04279 0.56999 0.39327 0.0
C1511 C 0.02752 0.59297 0.39891 0.0
C1512 C 0.02676 0.61361 0.37799 0.0
C1513 C 0.41 1.00139 0.38314 0.0
C1514 C 0.3855 0.01666 0.38635 0.0
C1515 C 0.43014 1.00163 0.40383 0.0
C1516 C 0.42618 0.01688 0.4283 0.0
H1517 H 0.41317 0.9885 0.36502 0.0
H1518 H 0.44861 0.98927 0.40098 0.0
S1519 S 0.36713 0.06295 0.4449 0.0
N1520 N 0.35937 0.04948 0.41438 0.0
N1521 N 0.39737 0.04946 0.45366 0.0
C1522 C 0.40226 0.03299 0.43133 0.0
C1523 C 0.38186 0.03302 0.41017 0.0
C1524 C 1.0074 0.15111 0.40891 0.0
C1525 C 1.0137 0.1441 0.38122 0.0
C1526 C 1.00824 0.13116 0.43032 0.0
C1527 C 0.01544 0.10334 0.42498 0.0
H1528 H 1.00111 0.17203 0.41397 0.0
H1529 H 1.00264 0.13755 0.45111 0.0
S1530 S 0.03692 0.0751 0.3564 0.0
N1531 N 0.02971 0.10789 0.35015 0.0
N1532 N 0.031 0.0706 0.38979 0.0
C1533 C 0.02264 0.09637 0.39743 0.0
C1534 C 0.02185 0.11664 0.37578 0.0
C1535 C 0.91503 1.00499 0.37609 0.0
C1536 C 0.88829 0.01649 0.37885 0.0
C1537 C 0.93373 1.00426 0.39836 0.0
C1538 C 0.92661 0.01473 0.42468 0.0
H1539 H 0.92169 0.9964 0.35643 0.0
H1540 H 0.95402 0.99529 0.39481 0.0
S1541 S 0.85942 0.04744 0.44328 0.0
N1542 N 0.8558 0.03899 0.41027 0.0
N1543 N 0.89081 0.03708 0.45228 0.0
C1544 C 0.89979 0.02587 0.42804 0.0
C1545 C 0.88071 0.02684 0.40516 0.0
C1546 C 1.01415 0.8788 0.40619 0.0
C1547 C 1.01234 0.88749 0.37832 0.0
C1548 C 0.01457 0.89808 0.42825 0.0
C1549 C 1.01298 0.92687 0.42337 0.0
H1550 H 0.01579 0.85696 0.41097 0.0
H1551 H 0.01639 0.89031 0.44924 0.0
S1552 S 1.00514 0.95999 0.35392 0.0
N1553 N 1.00689 0.92658 0.34723 0.0
N1554 N 1.00786 0.96261 0.38789 0.0
C1555 C 1.01041 0.9356 0.39545 0.0
C1556 C 1.01002 0.91603 0.3732 0.0
C1557 C 0.11762 0.02709 0.37834 0.0
C1558 C 0.14172 1.01051 0.37905 0.0
C1559 C 0.09889 0.02795 0.40063 0.0
C1560 C 0.10346 1.01264 0.42503 0.0
H1561 H 0.11304 0.0396 0.36026 0.0
H1562 H 0.08063 0.04085 0.39872 0.0
S1563 S 0.16258 0.96516 0.43781 0.0
N1564 N 0.16854 0.97765 0.40646 0.0
N1565 N 0.13364 0.97999 0.44859 0.0
C1566 C 0.1276 0.99629 0.42644 0.0
C1567 C 0.14662 0.99509 0.40348 0.0
C1568 C 1.00979 0.87673 0.62134 0.0
C1569 C 1.01143 0.88431 0.64954 0.0
C1570 C 1.01094 0.89672 0.59995 0.0
C1571 C 1.01381 0.92523 0.60577 0.0
H1572 H 1.00701 0.85521 0.61573 0.0
H1573 H 1.00919 0.8897 0.57869 0.0
S1574 S 0.02086 0.95576 0.67644 0.0
N1575 N 0.01781 0.92223 0.68199 0.0
N1576 N 0.01919 0.95958 0.6425 0.0
C1577 C 0.01594 0.93293 0.63402 0.0
C1578 C 0.01496 0.9126 0.65564 0.0
C1579 C 0.14401 0.03329 0.62881 0.0
C1580 C 0.14223 0.0137 0.65051 0.0
C1581 C 0.1252 0.03293 0.60632 0.0
C1582 C 0.10377 0.01316 0.60483 0.0
H1583 H 0.15946 0.04954 0.62965 0.0
H1584 H 0.12682 0.04882 0.59055 0.0
S1585 S 0.09304 0.95459 0.65326 0.0
N1586 N 0.11945 0.97178 0.66662 0.0
N1587 N 0.08384 0.97182 0.62516 0.0
C1588 C 0.10259 0.99282 0.62559 0.0
C1589 C 0.12186 0.9929 0.64816 0.0
C1590 C 1.01019 0.11213 0.65606 0.0
C1591 C 1.01218 0.14088 0.65177 0.0
C1592 C 1.01065 0.09332 0.63391 0.0
C1593 C 1.01306 0.10221 0.60613 0.0
H1594 H 1.00806 0.10394 0.67687 0.0
H1595 H 1.00903 0.07152 0.63883 0.0
S1596 S 0.01901 0.17548 0.58328 0.0
N1597 N 0.01684 0.17744 0.61741 0.0
N1598 N 0.01731 0.1422 0.57567 0.0
C1599 C 0.01477 0.131 0.6014 0.0
C1600 C 0.01437 0.15025 0.62414 0.0
C1601 C 0.87732 0.01862 0.62067 0.0
C1602 C 0.88473 0.0169 0.64889 0.0
C1603 C 0.89752 0.01752 0.59948 0.0
C1604 C 0.92604 0.01448 0.60557 0.0
H1605 H 0.85577 0.0214 0.61491 0.0
H1606 H 0.89067 0.01934 0.57817 0.0
S1607 S 0.95595 1.00641 0.67639 0.0
N1608 N 0.92234 1.01011 0.6817 0.0
N1609 N 0.96011 1.00819 0.64249 0.0
C1610 C 0.93353 1.01202 0.63384 0.0
C1611 C 0.91299 0.01318 0.65527 0.0
C1612 C 0.39219 0.98775 0.13348 0.0
C1613 C 0.38139 1.01228 0.14506 0.0
C1614 C 0.41383 0.98843 0.11383 0.0
C1615 C 0.42528 0.01368 0.1049 0.0
H1616 H 0.38371 0.96789 0.13955 0.0
H1617 H 0.42146 0.96911 0.10534 0.0
S1618 S 0.40326 0.08366 0.12715 0.0
N1619 N 0.38318 0.06251 0.14515 0.0
N1620 N 0.42365 0.06371 0.10818 0.0
C1621 C 0.41458 0.03829 0.11606 0.0
C1622 C 0.39269 0.03762 0.13617 0.0
C1623 C 0.99922 0.3763 0.11587 0.0
C1624 C 1.01256 0.3777 0.14185 0.0
C1625 C 0.99986 0.3985 0.0971 0.0
C1626 C 1.01361 0.42343 0.10344 0.0
H1627 H 0.98815 0.35775 0.10982 0.0
H1628 H 0.98938 0.39604 0.07737 0.0
S1629 S 0.05186 0.43832 0.16856 0.0
N1630 N 0.04018 0.40645 0.17281 0.0
N1631 N 0.04071 0.44839 0.13778 0.0
C1632 C 0.02647 0.42554 0.12959 0.0
C1633 C 0.02609 0.40271 0.14869 0.0
C1634 C 0.62508 1.00241 0.14909 0.0
C1635 C 0.6485 0.01956 0.14538 0.0
C1636 C 0.60334 1.00176 0.12948 0.0
C1637 C 0.60428 0.01794 0.1052 0.0
H1638 H 0.62388 0.98877 0.16688 0.0
H1639 H 0.58611 0.98784 0.13291 0.0
S1640 S 0.6587 0.06918 0.0873 0.0
N1641 N 0.66937 0.05552 0.11681 0.0
N1642 N 0.62929 0.05337 0.07979 0.0
C1643 C 0.62701 0.03582 0.1017 0.0
C1644 C 0.64886 0.03686 0.12178 0.0
C1645 C 0.99686 0.62301 0.1481 0.0
C1646 C 1.01395 0.64662 0.14565 0.0
C1647 C 0.99791 0.60135 0.12841 0.0
C1648 C 0.01587 0.60259 0.10536 0.0
H1649 H 0.98201 0.62161 0.1649 0.0
H1650 H 0.98395 0.58393 0.13077 0.0
S1651 S 0.06767 0.6576 0.0915 0.0
N1652 N 0.05164 0.66802 0.11988 0.0
N1653 N 0.05284 0.62806 0.08281 0.0
C1654 C 0.03368 0.62551 0.10328 0.0
C1655 C 0.03293 0.64727 0.12341 0.0
C1656 C 0.40717 0.02499 0.88051 0.0
C1657 C 0.38092 0.01329 0.88605 0.0
C1658 C 0.42872 0.02439 0.90038 0.0
C1659 C 0.42489 1.01221 0.92669 0.0
H1660 H 0.41088 0.03537 0.86095 0.0
H1661 H 0.44828 0.03422 0.89532 0.0
S1662 S 0.36151 0.97531 0.95026 0.0
N1663 N 0.35356 0.98657 0.91893 0.0
N1664 N 0.3935 0.98597 0.95611 0.0
C1665 C 0.3991 0.99958 0.93207 0.0
C1666 C 0.37733 0.99999 0.91185 0.0
C1667 C 0.02256 0.40537 0.8803 0.0
C1668 C 1.00937 0.37994 0.88611 0.0
C1669 C 0.02286 0.42718 0.89983 0.0
C1670 C 1.01008 0.4244 0.92599 0.0
H1671 H 0.03342 0.40816 0.86084 0.0
H1672 H 0.03387 0.44603 0.89468 0.0
S1673 S 0.96938 0.36364 0.94997 0.0
N1674 N 0.98073 0.3546 0.91896 0.0
N1675 N 0.98165 0.39503 0.95548 0.0
C1676 C 0.99594 0.39949 0.93157 0.0
C1677 C 0.99548 0.37747 0.91173 0.0
C1678 C 0.65508 0.02189 0.91743 0.0
C1679 C 0.6512 0.01683 0.88893 0.0
C1680 C 0.63288 0.02139 0.93622 0.0
C1681 C 0.60546 0.01593 0.92757 0.0
H1682 H 0.6756 0.02632 0.92544 0.0
H1683 H 0.63751 0.02532 0.95785 0.0
S1684 S 0.58356 1.00213 0.85496 0.0
N1685 N 0.61747 1.00657 0.85281 0.0
N1686 N 0.57563 1.00615 0.88802 0.0
C1687 C 0.60104 1.01153 0.89897 0.0
C1688 C 0.62384 1.0119 0.87973 0.0
C1689 C 0.99468 0.62902 0.88779 0.0
C1690 C 0.01446 0.65056 0.88957 0.0
C1691 C 0.99519 0.6063 0.90621 0.0
C1692 C 0.01525 0.60441 0.92734 0.0
H1693 H 0.97819 0.63011 0.87258 0.0
H1694 H 0.97922 0.59062 0.90451 0.0
S1695 S 0.07388 0.65273 0.93875 0.0
N1696 N 0.05665 0.6663 0.91245 0.0
N1697 N 0.05668 0.62452 0.94753 0.0
C1698 C 0.03562 0.62514 0.92876 0.0
C1699 C 0.03546 0.64792 0.90981 0.0
C1700 C 0.12572 0.38416 0.9935 0.0
C1701 C 0.14183 0.37845 0.01731 0.0
C1702 C 0.10655 0.40612 0.99289 0.0
C1703 C 0.10294 0.42359 0.01589 0.0
H1704 H 0.12782 0.37143 0.97513 0.0
H1705 H 0.09442 0.40945 0.97426 0.0
S1706 S 0.13804 0.417 0.08391 0.0
N1707 N 0.15146 0.39176 0.06506 0.0
N1708 N 0.11593 0.43332 0.06346 0.0
C1709 C 0.11882 0.4184 0.03975 0.0
C1710 C 0.13817 0.39584 0.04055 0.0
C1711 C 0.11761 0.65048 0.02652 0.0
C1712 C 0.144 0.64821 1.0141 0.0
C1713 C 0.09838 0.62875 0.02577 0.0
C1714 C 0.10468 0.60309 1.0135 0.0
H1715 H 0.11152 0.66941 0.0369 0.0
H1716 H 0.07823 0.63222 0.03491 0.0
S1717 S 0.17014 0.58617 0.97665 0.0
N1718 N 0.1748 0.61823 0.98762 0.0
N1719 N 0.13906 0.57686 0.98766 0.0
C1720 C 0.13104 0.60018 1.00119 0.0
C1721 C 0.15057 0.62273 1.00128 0.0
C1722 C 0.40471 0.1482 1.00875 0.0
C1723 C 0.37888 0.14143 0.02078 0.0
C1724 C 0.42686 0.12902 1.00819 0.0
C1725 C 0.42402 0.10224 0.01951 0.0
H1726 H 0.40757 0.16817 0.99896 0.0
H1727 H 0.44604 0.13493 0.99808 0.0
S1728 S 0.36213 0.07567 0.05706 0.0
N1729 N 0.35307 0.10705 0.04701 0.0
N1730 N 0.39404 0.07115 0.04554 0.0
C1731 C 0.39869 0.09573 0.03262 0.0
C1732 C 0.37636 0.11523 0.03337 0.0
C1733 C 0.90008 0.3889 0.04223 0.0
C1734 C 0.88548 0.38072 0.01818 0.0
C1735 C 0.91958 0.41061 0.04164 0.0
C1736 C 0.92516 0.42516 0.01703 0.0
H1737 H 0.89646 0.37836 0.06172 0.0
H1738 H 0.93048 0.41595 0.06055 0.0
S1739 S 0.89474 0.41096 0.94796 0.0
N1740 N 0.8795 0.38833 0.96865 0.0
N1741 N 0.9158 0.42922 0.96785 0.0
C1742 C 0.91101 0.41725 0.99287 0.0
C1743 C 0.89122 0.39508 0.99337 0.0
C1744 C 0.6539 0.9131 1.00815 0.0
C1745 C 0.6502 0.88587 0.01799 0.0
C1746 C 0.63201 0.93229 1.00765 0.0
C1747 C 0.60513 0.92525 0.01677 0.0
H1748 H 0.67402 0.91976 1.00069 0.0
H1749 H 0.6363 0.9529 0.99991 0.0
S1750 S 0.58414 0.85685 0.04505 0.0
N1751 N 0.61736 0.85301 0.03754 0.0
N1752 N 0.57613 0.88887 0.03617 0.0
C1753 C 0.60092 0.89796 0.02632 0.0
C1754 C 0.62338 0.87838 0.02699 0.0
C1755 C 0.88303 0.6256 0.02918 0.0
C1756 C 0.8885 0.65033 1.01456 0.0
C1757 C 0.90192 0.60322 0.02883 0.0
C1758 C 0.92709 0.60479 1.01401 0.0
H1759 H 0.86443 0.62381 0.04164 0.0
H1760 H 0.89719 0.58495 0.04096 0.0
S1761 S 0.94942 0.66302 0.96901 0.0
N1762 N 0.91962 0.67343 0.98228 0.0
N1763 N 0.95507 0.63202 0.98221 0.0
C1764 C 0.93221 0.62889 0.99845 0.0
C1765 C 0.91297 0.65144 0.99857 0.0
C1766 C 0.4048 0.88015 1.00801 0.0
C1767 C 0.37885 0.88698 0.01975 0.0
C1768 C 0.42711 0.89915 1.00805 0.0
C1769 C 0.42429 0.92577 0.01973 0.0
H1770 H 0.40765 0.8603 0.99797 0.0
H1771 H 0.44638 0.89326 0.9981 0.0
S1772 S 0.36212 0.95231 0.05682 0.0
N1773 N 0.35293 0.92119 0.04613 0.0
N1774 N 0.39423 0.95672 0.04583 0.0
C1775 C 0.39884 0.9323 0.03258 0.0
C1776 C 0.37634 0.913 0.03269 0.0
C1777 C 0.65531 0.11253 0.0199 0.0
C1778 C 0.65105 0.1413 0.01818 0.0
C1779 C 0.63315 0.09372 0.01919 0.0
C1780 C 0.60531 0.10257 0.01695 0.0
H1781 H 0.67611 0.10429 0.02197 0.0
H1782 H 0.63814 0.07191 0.02046 0.0
S1783 S 0.58244 0.17589 1.01182 0.0
N1784 N 0.61659 0.17786 1.01392 0.0
N1785 N 0.57484 0.1426 1.01323 0.0
C1786 C 0.60059 0.13139 0.01556 0.0
C1787 C 0.62337 0.15066 0.01612 0.0
C1788 C 0.49953 0.64687 0.90544 0.0
C1789 C 0.51595 0.6435 0.88142 0.0
C1790 C 0.49998 0.62725 0.92715 0.0
C1791 C 0.51662 0.60331 0.92563 0.0
H1792 H 0.48563 0.66439 0.90717 0.0
H1793 H 0.48655 0.63041 0.94486 0.0
S1794 S 0.56622 0.58633 0.8693 0.0
N1795 N 0.55165 0.61557 0.85919 0.0
N1796 N 0.5516 0.57856 0.89925 0.0
C1797 C 0.53374 0.60014 0.90223 0.0
C1798 C 0.53364 0.62022 0.88038 0.0
C1799 C 0.38655 0.5333 0.90086 0.0
C1800 C 0.38884 0.51414 0.87883 0.0
C1801 C 0.40515 0.53286 0.92349 0.0
C1802 C 0.42692 0.51347 0.92476 0.0
H1803 H 0.37083 0.54931 0.9002 0.0
H1804 H 0.40309 0.5484 0.93956 0.0
S1805 S 0.43956 0.45629 0.87511 0.0
N1806 N 0.41273 0.47305 0.86202 0.0
N1807 N 0.44807 0.4731 0.90368 0.0
C1808 C 0.42876 0.4936 0.9036 0.0
C1809 C 0.40965 0.49371 0.8809 0.0
C1810 C 0.50843 0.4155 0.87489 0.0
C1811 C 0.51202 0.38687 0.87902 0.0
C1812 C 0.50919 0.43435 0.897 0.0
C1813 C 0.51328 0.42568 0.92464 0.0
H1814 H 0.50487 0.42357 0.85423 0.0
H1815 H 0.50643 0.45606 0.89215 0.0
S1816 S 0.52398 0.35286 0.94713 0.0
N1817 N 0.5202 0.35069 0.91315 0.0
N1818 N 0.52095 0.38602 0.95483 0.0
C1819 C 0.51654 0.397 0.92927 0.0
C1820 C 0.51599 0.3777 0.90654 0.0
C1821 C 0.63155 0.5353 0.89079 0.0
C1822 C 0.64243 0.51006 0.88092 0.0
C1823 C 0.61307 0.53613 0.9134 0.0
C1824 C 0.60464 0.51175 0.92687 0.0
H1825 H 0.63719 0.55456 0.88077 0.0
H1826 H 0.60492 0.55594 0.92009 0.0
S1827 S 0.6258 0.44034 0.90864 0.0
N1828 N 0.64279 0.46003 0.88632 0.0
N1829 N 0.60783 0.4617 0.92849 0.0
C1830 C 0.61534 0.48644 0.91739 0.0
C1831 C 0.63432 0.48556 0.89453 0.0
C1832 C 0.52757 0.38233 0.12685 0.0
C1833 C 0.50867 0.38499 0.1491 0.0
C1834 C 0.52851 0.4019 0.1051 0.0
C1835 C 0.51088 0.42515 0.10493 0.0
H1836 H 0.54231 0.36541 0.12658 0.0
H1837 H 0.54371 0.39926 0.08876 0.0
S1838 S 0.45512 0.44012 0.15576 0.0
N1839 N 0.46971 0.41146 0.16741 0.0
N1840 N 0.47247 0.44851 0.12747 0.0
C1841 C 0.49138 0.42765 0.12645 0.0
C1842 C 0.49002 0.40755 0.14824 0.0
C1843 C 0.61792 0.53478 0.15071 0.0
C1844 C 0.64066 0.51643 0.15213 0.0
C1845 C 0.59909 0.53415 0.12848 0.0
C1846 C 0.60238 0.51551 0.10633 0.0
H1847 H 0.61449 0.54977 0.16705 0.0
H1848 H 0.58179 0.54848 0.12861 0.0
S1849 S 0.65751 0.46241 0.09982 0.0
N1850 N 0.66465 0.47832 0.12932 0.0
N1851 N 0.62973 0.47795 0.08715 0.0
C1852 C 0.62517 0.49736 0.10703 0.0
C1853 C 0.64419 0.49765 0.12995 0.0
C1854 C 0.49622 0.61774 0.15079 0.0
C1855 C 0.51263 0.64192 0.15057 0.0
C1856 C 0.49683 0.59866 0.12883 0.0
C1857 C 0.51345 0.60303 0.10526 0.0
H1858 H 0.48278 0.61334 0.16824 0.0
H1859 H 0.48403 0.58031 0.13033 0.0
S1860 S 0.56091 0.66239 0.09402 0.0
N1861 N 0.5467 0.66863 0.12459 0.0
N1862 N 0.54696 0.6332 0.08295 0.0
C1863 C 0.52957 0.62729 0.10431 0.0
C1864 C 0.52933 0.64661 0.12696 0.0
C1865 C 0.40826 0.53212 0.14914 0.0
C1866 C 0.38393 0.51587 0.14806 0.0
C1867 C 0.42811 0.53155 0.1278 0.0
C1868 C 0.42441 0.51518 0.10397 0.0
H1869 H 0.41214 0.54549 0.16674 0.0
H1870 H 0.44649 0.54427 0.12992 0.0
S1871 S 0.36535 0.4678 0.09075 0.0
N1872 N 0.35811 0.48187 0.12114 0.0
N1873 N 0.39493 0.48179 0.08063 0.0
C1874 C 0.40015 0.49907 0.10224 0.0
C1875 C 0.38006 0.49922 0.12428 0.0
C1876 C 0.90442 0.52496 0.64944 0.0
C1877 C 0.8807 0.50831 0.64528 0.0
C1878 C 0.92603 0.52606 0.62967 0.0
C1879 C 0.92468 0.51081 0.60478 0.0
H1880 H 0.90599 0.53781 0.66777 0.0
H1881 H 0.94356 0.53955 0.63356 0.0
S1882 S 0.86929 0.46109 0.58541 0.0
N1883 N 0.85903 0.47385 0.61548 0.0
N1884 N 0.8989 0.47669 0.57829 0.0
C1885 C 0.90161 0.49343 0.60079 0.0
C1886 C 0.87987 0.49199 0.621 0.0
C1887 C 0.49853 0.89983 0.64446 0.0
C1888 C 0.51501 0.87599 0.6403 0.0
C1889 C 0.4995 0.92244 0.62591 0.0
C1890 C 0.51671 0.92196 0.60229 0.0
H1891 H 0.48423 0.90074 0.66176 0.0
H1892 H 0.48605 0.94002 0.62961 0.0
S1893 S 0.56676 0.86663 0.58386 0.0
N1894 N 0.55145 0.85516 0.61226 0.0
N1895 N 0.55231 0.89686 0.57714 0.0
C1896 C 0.53391 0.89879 0.59842 0.0
C1897 C 0.5333 0.87607 0.61745 0.0
C1898 C 0.15165 0.50418 0.61985 0.0
C1899 C 0.14858 0.51758 0.64568 0.0
C1900 C 0.13021 0.50383 0.60011 0.0
C1901 C 0.10431 0.51626 0.60539 0.0
H1902 H 0.17089 0.4938 0.6147 0.0
H1903 H 0.13401 0.49357 0.58052 0.0
S1904 S 0.08575 0.55577 0.66878 0.0
N1905 N 0.11779 0.54512 0.67462 0.0
N1906 N 0.07719 0.54346 0.638 0.0
C1907 C 0.10079 0.52969 0.6311 0.0
C1908 C 0.12289 0.53051 0.6511 0.0
C1909 C 0.49806 0.12267 0.64872 0.0
C1910 C 0.5152 0.14622 0.646 0.0
C1911 C 0.49902 0.10076 0.62928 0.0
C1912 C 0.51697 0.10167 0.60622 0.0
H1913 H 0.48321 0.12149 0.66554 0.0
H1914 H 0.48497 0.08345 0.63182 0.0
S1915 S 0.56866 0.15656 0.59138 0.0
N1916 N 0.55281 0.16728 0.61977 0.0
N1917 N 0.5538 0.12692 0.58311 0.0
C1918 C 0.53477 0.12458 0.60378 0.0
C1919 C 0.53412 0.14658 0.62366 0.0
C1920 C 0.90877 0.51927 0.37854 0.0
C1921 C 0.88071 0.51536 0.38583 0.0
C1922 C 0.93014 0.51808 0.39859 0.0
C1923 C 0.92438 0.5129 0.42684 0.0
H1924 H 0.91423 0.52394 0.35726 0.0
H1925 H 0.95127 0.52177 0.39191 0.0
S1926 S 0.85438 0.4986 0.45629 0.0
N1927 N 0.84864 0.50397 0.423 0.0
N1928 N 0.88813 0.50227 0.46049 0.0
C1929 C 0.89636 0.50826 0.43418 0.0
C1930 C 0.87477 0.50933 0.4138 0.0
C1931 C 0.52827 0.87792 0.41155 0.0
C1932 C 0.51361 0.8795 0.38626 0.0
C1933 C 0.5285 0.89996 0.43056 0.0
C1934 C 0.51452 0.92497 0.4251 0.0
H1935 H 0.53966 0.85935 0.41688 0.0
H1936 H 0.53983 0.89731 0.44978 0.0
S1937 S 0.4727 0.9402 0.36233 0.0
N1938 N 0.48414 0.90838 0.35721 0.0
N1939 N 0.48569 0.95011 0.39243 0.0
C1940 C 0.50035 0.92724 0.39967 0.0
C1941 C 0.49965 0.90453 0.38041 0.0
C1942 C 0.1531 0.52843 0.41597 0.0
C1943 C 0.15131 0.51657 0.38931 0.0
C1944 C 0.13086 0.52741 0.43474 0.0
C1945 C 0.10546 0.51478 0.42776 0.0
H1946 H 0.17199 0.53863 0.42255 0.0
H1947 H 0.13367 0.53674 0.45498 0.0
S1948 S 0.08936 0.48064 0.3607 0.0
N1949 N 0.12165 0.49155 0.35701 0.0
N1950 N 0.07963 0.4904 0.39204 0.0
C1951 C 0.10296 0.50343 0.40096 0.0
C1952 C 0.12584 0.50417 0.38183 0.0
C1953 C 0.51545 0.12389 0.38123 0.0
C1954 C 0.51299 0.15162 0.39005 0.0
C1955 C 0.51536 0.10175 0.40041 0.0
C1956 C 0.51268 0.10639 0.42922 0.0
H1957 H 0.51808 0.11929 0.3594 0.0
H1958 H 0.5178 0.08089 0.39257 0.0
S1959 S 0.50238 0.17528 0.46253 0.0
N1960 N 0.50548 0.18225 0.4292 0.0
N1961 N 0.50544 0.14139 0.46504 0.0
C1962 C 0.50928 0.13413 0.43805 0.0
C1963 C 0.5094 0.15647 0.41858 0.0
C1964 C 0.62083 0.87903 0.49575 0.0
C1965 C 0.64474 0.8798 0.51272 0.0
C1966 C 0.60086 0.90025 0.49626 0.0
C1967 C 0.60406 0.92363 0.5133 0.0
H1968 H 0.61744 0.8618 0.48179 0.0
H1969 H 0.58288 0.89846 0.4829 0.0
S1970 S 0.66164 0.93582 0.56286 0.0
N1971 N 0.66939 0.90586 0.54825 0.0
N1972 N 0.63246 0.94616 0.5482 0.0
C1973 C 0.62782 0.925 0.53022 0.0
C1974 C 0.64799 0.90309 0.53014 0.0
C1975 C 0.6185 0.15091 0.52528 0.0
C1976 C 0.64633 0.14654 0.51733 0.0
C1977 C 0.59872 0.12956 0.52447 0.0
C1978 C 0.60572 0.10247 0.51618 0.0
H1979 H 0.61178 0.17116 0.5322 0.0
H1980 H 0.57766 0.13451 0.53046 0.0
S1981 S 0.67549 0.07984 0.49237 0.0
N1982 N 0.6796 0.11292 0.49992 0.0
N1983 N 0.64274 0.07263 0.49931 0.0
C1984 C 0.63355 0.09761 0.50842 0.0
C1985 C 0.65372 0.11957 0.50887 0.0
C1986 C 0.90212 0.64392 0.49818 0.0
C1987 C 0.87864 0.63991 0.51528 0.0
C1988 C 0.92486 0.62544 0.49878 0.0
C1989 C 0.92488 0.60212 0.51631 0.0
H1990 H 0.90258 0.66096 0.4836 0.0
H1991 H 0.94205 0.62887 0.48471 0.0
S1992 S 0.87074 0.58442 0.5681 0.0
N1993 N 0.85878 0.61248 0.55265 0.0
N1994 N 0.90072 0.57761 0.55304 0.0
C1995 C 0.90215 0.59857 0.53427 0.0
C1996 C 0.87929 0.61745 0.53395 0.0
C1997 C 0.37931 0.90601 0.50834 0.0
C1998 C 0.38528 0.88034 0.52099 0.0
C1999 C 0.39904 0.92765 0.50768 0.0
C2000 C 0.42563 0.92447 0.51949 0.0
H2001 H 0.35951 0.90915 0.49818 0.0
H2002 H 0.39368 0.94672 0.49715 0.0
S2003 S 0.45034 0.86297 0.55862 0.0
N2004 N 0.41886 0.85437 0.54823 0.0
N2005 N 0.45575 0.89445 0.54653 0.0
C2006 C 0.43142 0.89931 0.5331 0.0
C2007 C 0.41136 0.87747 0.53397 0.0
C2008 C 0.12998 0.38544 0.49841 0.0
C2009 C 0.14913 0.38507 0.52061 0.0
C2010 C 0.10759 0.40434 0.4978 0.0
C2011 C 0.10368 0.42375 0.51923 0.0
H2012 H 0.13277 0.37162 0.48095 0.0
H2013 H 0.09382 0.40438 0.48004 0.0
S2014 S 0.14512 0.42916 0.58369 0.0
N2015 N 0.16028 0.40408 0.56603 0.0
N2016 N 0.11914 0.43996 0.56417 0.0
C2017 C 0.12194 0.42298 0.54187 0.0
C2018 C 0.14437 0.40358 0.54276 0.0
C2019 C 0.38139 0.12407 0.5111 0.0
C2020 C 0.38893 0.15056 0.52087 0.0
C2021 C 0.40045 0.10182 0.51115 0.0
C2022 C 0.4279 0.10516 0.52079 0.0
H2023 H 0.36084 0.12067 0.50266 0.0
H2024 H 0.3938 0.08206 0.50295 0.0
S2025 S 0.45674 0.16922 0.55241 0.0
N2026 N 0.42486 0.17778 0.54335 0.0
N2027 N 0.46052 0.13662 0.54298 0.0
C2028 C 0.43523 0.13127 0.53168 0.0
C2029 C 0.41585 0.15373 0.53182 0.0
C2030 C 0.89655 0.38925 0.53769 0.0
C2031 C 0.8781 0.38787 0.51499 0.0
C2032 C 0.91916 0.4078 0.53785 0.0
C2033 C 0.92421 0.42558 0.51532 0.0
H2034 H 0.89297 0.37657 0.55587 0.0
H2035 H 0.93211 0.40898 0.55612 0.0
S2036 S 0.88458 0.42796 0.44954 0.0
N2037 N 0.86835 0.40439 0.46832 0.0
N2038 N 0.91034 0.43935 0.46902 0.0
C2039 C 0.90659 0.42383 0.49223 0.0
C2040 C 0.88373 0.40494 0.49193 0.0
C2041 C 0.1255 0.64715 0.51065 0.0
C2042 C 0.15196 0.63932 0.52048 0.0
C2043 C 0.10311 0.62821 0.51008 0.0
C2044 C 0.10629 0.60066 0.5193 0.0
H2045 H 0.12225 0.66783 0.50263 0.0
H2046 H 0.08341 0.63504 0.50171 0.0
S2047 S 0.1702 0.57118 0.5511 0.0
N2048 N 0.17896 0.60305 0.54254 0.0
N2049 N 0.13758 0.56771 0.54138 0.0
C2050 C 0.13236 0.59311 0.53038 0.0
C2051 C 0.15495 0.61231 0.53099 0.0
loop_
_geom_bond_atom_site_label_1
_geom_bond_atom_site_label_2
_geom_bond_distance
_geom_bond_site_symmetry_2
_ccdc_geom_bond_type
C0 C1 1.264 . S
C0 C5 1.479 . S
C0 C10 1.465 . S
C1 C0 1.264 . S
C1 C3 1.339 . S
C1 H28 0.931 . S
C2 C3 1.395 . S
C2 C4 1.320 . S
C3 C1 1.339 . S
C3 C2 1.395 . S
C3 H29 0.929 . S
C4 C2 1.320 . S
C4 C5 1.405 . S
C4 H30 0.930 1_655 S
C5 C0 1.479 . S
C5 C4 1.405 . S
C5 H31 0.931 . S
U6 O7 2.454 . S
U6 O8 2.458 . S
U6 C9 2.984 . S
U6 C10 2.847 . S
U6 C23 2.882 . S
U6 O24 2.441 . S
U6 O25 2.420 . S
U6 O26 2.455 . S
U6 O27 2.449 . S
O7 U6 2.454 . S
O7 C9 1.353 . S
O8 U6 2.458 . S
O8 C9 1.286 . S
C9 U6 2.984 . S
C9 O7 1.353 . S
C9 O8 1.286 . S
C9 C11 1.363 . S
C10 C0 1.465 . S
C10 U6 2.847 . S
C10 O24 1.249 . S
C10 O25 1.202 . S
C11 C9 1.363 . S
C11 C13 1.408 . S
C11 C16 1.345 . S
C12 C13 1.315 . S
C12 C15 1.458 1_655 S
C12 H32 0.931 . S
C13 C11 1.408 . S
C13 C12 1.315 . S
C13 H33 0.930 . S
C14 C15 1.475 . S
C14 C16 1.284 1_455 S
C14 H34 0.929 . S
C15 C12 1.458 1_455 S
C15 C14 1.475 . S
C16 C11 1.345 . S
C16 C14 1.284 1_655 S
C16 H35 0.929 1_655 S
C17 C20 1.424 . S
C17 C22 1.245 . S
C17 C23 1.428 . S
C18 C21 1.260 . S
C18 C22 1.477 . S
C18 H36 0.932 . S
C19 C20 1.384 . S
C19 C21 1.479 . S
C19 H37 0.929 . S
C20 C17 1.424 . S
C20 C19 1.384 . S
C20 H38 0.928 . S
C21 C18 1.260 . S
C21 C19 1.479 . S
C22 C17 1.245 . S
C22 C18 1.477 . S
C22 H39 0.932 . S
C23 U6 2.882 . S
C23 C17 1.428 . S
C23 O26 1.301 . S
C23 O27 1.282 . S
O24 U6 2.441 . S
O24 C10 1.249 . S
O25 U6 2.420 . S
O25 C10 1.202 . S
O26 U6 2.455 . S
O26 C23 1.301 . S
O27 U6 2.449 . S
O27 C23 1.282 . S
H28 C1 0.931 . S
H29 C3 0.929 . S
H30 C4 0.930 1_455 S
H31 C5 0.931 . S
H32 C12 0.931 . S
H33 C13 0.930 . S
H34 C14 0.929 . S
H35 C16 0.929 1_455 S
H36 C18 0.932 . S
H37 C19 0.929 . S
H38 C20 0.928 . S
H39 C22 0.932 . S
C40 C41 1.264 . S
C40 C45 1.479 . S
C40 C50 1.465 . S
C41 C40 1.264 . S
C41 C43 1.339 . S
C41 H68 0.931 . S
C42 C43 1.395 . S
C42 C44 1.320 . S
C43 C41 1.339 . S
C43 C42 1.395 . S
C43 H69 0.929 . S
C44 C42 1.320 . S
C44 C45 1.405 . S
C44 H70 0.927 1_545 S
C45 C40 1.479 . S
C45 C44 1.405 . S
C45 H71 0.931 . S
U46 O47 2.454 . S
U46 O48 2.458 . S
U46 C49 2.984 . S
U46 C50 2.847 . S
U46 C63 2.882 . S
U46 O64 2.441 . S
U46 O65 2.420 . S
U46 O66 2.455 . S
U46 O67 2.449 . S
O47 U46 2.454 . S
O47 C49 1.353 . S
O48 U46 2.458 . S
O48 C49 1.286 . S
C49 U46 2.984 . S
C49 O47 1.353 . S
C49 O48 1.286 . S
C49 C51 1.363 . S
C50 C40 1.465 . S
C50 U46 2.847 . S
C50 O64 1.249 . S
C50 O65 1.202 . S
C51 C49 1.363 . S
C51 C53 1.408 . S
C51 C56 1.342 . S
C52 C53 1.310 . S
C52 C55 1.461 . S
C52 H72 0.932 . S
C53 C51 1.408 . S
C53 C52 1.310 . S
C53 H73 0.930 . S
C54 C55 1.475 . S
C54 C56 1.287 . S
C54 H74 0.928 1_545 S
C55 C52 1.461 . S
C55 C54 1.475 . S
C56 C51 1.342 . S
C56 C54 1.287 . S
C56 H75 0.930 . S
C57 C60 1.424 . S
C57 C62 1.245 . S
C57 C63 1.428 . S
C58 C61 1.260 . S
C58 C62 1.477 . S
C58 H76 0.932 . S
C59 C60 1.384 . S
C59 C61 1.479 . S
C59 H77 0.929 . S
C60 C57 1.424 . S
C60 C59 1.384 . S
C60 H78 0.928 . S
C61 C58 1.260 . S
C61 C59 1.479 . S
C62 C57 1.245 . S
C62 C58 1.477 . S
C62 H79 0.932 . S
C63 U46 2.882 . S
C63 C57 1.428 . S
C63 O66 1.301 . S
C63 O67 1.282 . S
O64 U46 2.441 . S
O64 C50 1.249 . S
O65 U46 2.420 . S
O65 C50 1.202 . S
O66 U46 2.455 . S
O66 C63 1.301 . S
O67 U46 2.449 . S
O67 C63 1.282 . S
H68 C41 0.931 . S
H69 C43 0.929 . S
H70 C44 0.927 1_565 S
H71 C45 0.931 . S
H72 C52 0.932 . S
H73 C53 0.930 . S
H74 C54 0.928 1_565 S
H75 C56 0.930 . S
H76 C58 0.932 . S
H77 C59 0.929 . S
H78 C60 0.928 . S
H79 C62 0.932 . S
C80 C81 1.264 . S
C80 C85 1.479 . S
C80 C90 1.465 . S
C81 C80 1.264 . S
C81 C83 1.339 . S
C81 H108 0.931 . S
C82 C83 1.395 . S
C82 C84 1.320 . S
C83 C81 1.339 . S
C83 C82 1.395 . S
C83 H109 0.929 . S
C84 C82 1.320 . S
C84 C85 1.405 . S
C84 H110 0.930 1_655 S
C85 C80 1.479 . S
C85 C84 1.405 . S
C85 H111 0.931 . S
U86 O87 2.454 . S
U86 O88 2.458 . S
U86 C89 2.984 . S
U86 C90 2.847 . S
U86 C103 2.882 . S
U86 O104 2.441 . S
U86 O105 2.420 . S
U86 O106 2.455 . S
U86 O107 2.449 . S
O87 U86 2.454 . S
O87 C89 1.353 . S
O88 U86 2.458 . S
O88 C89 1.286 . S
C89 U86 2.984 . S
C89 O87 1.353 . S
C89 O88 1.286 . S
C89 C91 1.363 . S
C90 C80 1.465 . S
C90 U86 2.847 . S
C90 O104 1.249 . S
C90 O105 1.202 . S
C91 C89 1.363 . S
C91 C93 1.408 . S
C91 C96 1.348 . S
C92 C93 1.310 . S
C92 C95 1.460 1_655 S
C92 H112 0.933 . S
C93 C91 1.408 . S
C93 C92 1.310 . S
C93 H113 0.930 . S
C94 C95 1.475 . S
C94 C96 1.283 1_455 S
C94 H114 0.929 . S
C95 C92 1.460 1_455 S
C95 C94 1.475 . S
C96 C91 1.348 . S
C96 C94 1.283 1_655 S
C96 H115 0.929 . S
C97 C100 1.424 . S
C97 C102 1.245 . S
C97 C103 1.428 . S
C98 C101 1.260 . S
C98 C102 1.477 . S
C98 H116 0.932 . S
C99 C100 1.384 . S
C99 C101 1.479 . S
C99 H117 0.929 . S
C100 C97 1.424 . S
C100 C99 1.384 . S
C100 H118 0.928 . S
C101 C98 1.260 . S
C101 C99 1.479 . S
C102 C97 1.245 . S
C102 C98 1.477 . S
C102 H119 0.932 . S
C103 U86 2.882 . S
C103 C97 1.428 . S
C103 O106 1.301 . S
C103 O107 1.282 . S
O104 U86 2.441 . S
O104 C90 1.249 . S
O105 U86 2.420 . S
O105 C90 1.202 . S
O106 U86 2.455 . S
O106 C103 1.301 . S
O107 U86 2.449 . S
O107 C103 1.282 . S
H108 C81 0.931 . S
H109 C83 0.929 . S
H110 C84 0.930 1_455 S
H111 C85 0.931 . S
H112 C92 0.933 . S
H113 C93 0.930 . S
H114 C94 0.929 . S
H115 C96 0.929 . S
H116 C98 0.932 . S
H117 C99 0.929 . S
H118 C100 0.928 . S
H119 C102 0.932 . S
C120 C121 1.264 . S
C120 C125 1.479 . S
C120 C130 1.465 . S
C121 C120 1.264 . S
C121 C123 1.339 . S
C121 H148 0.931 . S
C122 C123 1.395 . S
C122 C124 1.320 . S
C123 C121 1.339 . S
C123 C122 1.395 . S
C123 H149 0.929 . S
C124 C122 1.320 . S
C124 C125 1.405 . S
C124 H150 0.930 1_565 S
C125 C120 1.479 . S
C125 C124 1.405 . S
C125 H151 0.931 . S
U126 O127 2.454 . S
U126 O128 2.458 . S
U126 C129 2.984 . S
U126 C130 2.847 . S
U126 C143 2.882 . S
U126 O144 2.441 . S
U126 O145 2.420 . S
U126 O146 2.455 . S
U126 O147 2.449 . S
O127 U126 2.454 . S
O127 C129 1.353 . S
O128 U126 2.458 . S
O128 C129 1.286 . S
C129 U126 2.984 . S
C129 O127 1.353 . S
C129 O128 1.286 . S
C129 C131 1.363 . S
C130 C120 1.465 . S
C130 U126 2.847 . S
C130 O144 1.249 . S
C130 O145 1.202 . S
C131 C129 1.363 . S
C131 C133 1.408 . S
C131 C136 1.342 . S
C132 C133 1.310 . S
C132 C135 1.460 1_565 S
C132 H152 0.932 . S
C133 C131 1.408 . S
C133 C132 1.310 . S
C133 H153 0.930 . S
C134 C135 1.474 . S
C134 C136 1.283 1_545 S
C134 H154 0.934 . S
C135 C132 1.460 1_545 S
C135 C134 1.474 . S
C136 C131 1.342 . S
C136 C134 1.283 1_565 S
C136 H155 0.931 . S
C137 C140 1.424 . S
C137 C142 1.245 . S
C137 C143 1.428 . S
C138 C141 1.260 . S
C138 C142 1.477 . S
C138 H156 0.932 . S
C139 C140 1.384 . S
C139 C141 1.479 . S
C139 H157 0.929 . S
C140 C137 1.424 . S
C140 C139 1.384 . S
C140 H158 0.928 . S
C141 C138 1.260 . S
C141 C139 1.479 . S
C142 C137 1.245 . S
C142 C138 1.477 . S
C142 H159 0.932 . S
C143 U126 2.882 . S
C143 C137 1.428 . S
C143 O146 1.301 . S
C143 O147 1.282 . S
O144 U126 2.441 . S
O144 C130 1.249 . S
O145 U126 2.420 . S
O145 C130 1.202 . S
O146 U126 2.455 . S
O146 C143 1.301 . S
O147 U126 2.449 . S
O147 C143 1.282 . S
H148 C121 0.931 . S
H149 C123 0.929 . S
H150 C124 0.930 1_545 S
H151 C125 0.931 . S
H152 C132 0.932 . S
H153 C133 0.930 . S
H154 C134 0.934 . S
H155 C136 0.931 . S
H156 C138 0.932 . S
H157 C139 0.929 . S
H158 C140 0.928 . S
H159 C142 0.932 . S
C160 C161 1.264 . S
C160 C165 1.479 . S
C160 C170 1.465 . S
C161 C160 1.264 . S
C161 C163 1.339 . S
C161 H188 0.931 . S
C162 C163 1.395 . S
C162 C164 1.320 . S
C163 C161 1.339 . S
C163 C162 1.395 . S
C163 H189 0.929 . S
C164 C162 1.320 . S
C164 C165 1.405 . S
C164 H190 0.930 1_655 S
C165 C160 1.479 . S
C165 C164 1.405 . S
C165 H191 0.931 . S
U166 O167 2.454 . S
U166 O168 2.458 . S
U166 C169 2.984 . S
U166 C170 2.847 . S
U166 C183 2.882 . S
U166 O184 2.441 . S
U166 O185 2.420 . S
U166 O186 2.455 . S
U166 O187 2.449 . S
O167 U166 2.454 . S
O167 C169 1.353 . S
O168 U166 2.458 . S
O168 C169 1.286 . S
C169 U166 2.984 . S
C169 O167 1.353 . S
C169 O168 1.286 . S
C169 C171 1.363 . S
C170 C160 1.465 . S
C170 U166 2.847 . S
C170 O184 1.249 . S
C170 O185 1.202 . S
C171 C169 1.363 . S
C171 C173 1.408 . S
C171 C176 1.345 . S
C172 C173 1.315 . S
C172 C175 1.458 1_655 S
C172 H192 0.931 . S
C173 C171 1.408 . S
C173 C172 1.315 . S
C173 H193 0.930 . S
C174 C175 1.475 . S
C174 C176 1.284 1_455 S
C174 H194 0.929 . S
C175 C172 1.458 1_455 S
C175 C174 1.475 . S
C176 C171 1.345 . S
C176 C174 1.284 1_655 S
C176 H195 0.929 1_655 S
C177 C180 1.424 . S
C177 C182 1.245 . S
C177 C183 1.428 . S
C178 C181 1.260 . S
C178 C182 1.477 . S
C178 H196 0.932 . S
C179 C180 1.384 . S
C179 C181 1.479 . S
C179 H197 0.929 . S
C180 C177 1.424 . S
C180 C179 1.384 . S
C180 H198 0.928 . S
C181 C178 1.260 . S
C181 C179 1.479 . S
C182 C177 1.245 . S
C182 C178 1.477 . S
C182 H199 0.932 . S
C183 U166 2.882 . S
C183 C177 1.428 . S
C183 O186 1.301 . S
C183 O187 1.282 . S
O184 U166 2.441 . S
O184 C170 1.249 . S
O185 U166 2.420 . S
O185 C170 1.202 . S
O186 U166 2.455 . S
O186 C183 1.301 . S
O187 U166 2.449 . S
O187 C183 1.282 . S
H188 C161 0.931 . S
H189 C163 0.929 . S
H190 C164 0.930 1_455 S
H191 C165 0.931 . S
H192 C172 0.931 . S
H193 C173 0.930 . S
H194 C174 0.929 . S
H195 C176 0.929 1_455 S
H196 C178 0.932 . S
H197 C179 0.929 . S
H198 C180 0.928 . S
H199 C182 0.932 . S
C200 C201 1.264 . S
C200 C205 1.479 . S
C200 C210 1.465 . S
C201 C200 1.264 . S
C201 C203 1.339 . S
C201 H228 0.931 . S
C202 C203 1.395 . S
C202 C204 1.320 . S
C203 C201 1.339 . S
C203 C202 1.395 . S
C203 H229 0.929 . S
C204 C202 1.320 . S
C204 C205 1.405 . S
C204 H230 0.929 1_545 S
C205 C200 1.479 . S
C205 C204 1.405 . S
C205 H231 0.931 . S
U206 O207 2.454 . S
U206 O208 2.458 . S
U206 C209 2.984 . S
U206 C210 2.847 . S
U206 C223 2.882 . S
U206 O224 2.441 . S
U206 O225 2.420 . S
U206 O226 2.455 . S
U206 O227 2.449 . S
O207 U206 2.454 . S
O207 C209 1.353 . S
O208 U206 2.458 . S
O208 C209 1.286 . S
C209 U206 2.984 . S
C209 O207 1.353 . S
C209 O208 1.286 . S
C209 C211 1.363 . S
C210 C200 1.465 . S
C210 U206 2.847 . S
C210 O224 1.249 . S
C210 O225 1.202 . S
C211 C209 1.363 . S
C211 C213 1.408 . S
C211 C216 1.342 . S
C212 C213 1.310 . S
C212 C215 1.461 . S
C212 H232 0.932 . S
C213 C211 1.408 . S
C213 C212 1.310 . S
C213 H233 0.930 . S
C214 C215 1.475 . S
C214 C216 1.288 . S
C214 H234 0.927 1_545 S
C215 C212 1.461 . S
C215 C214 1.475 . S
C216 C211 1.342 . S
C216 C214 1.288 . S
C216 H235 0.930 . S
C217 C220 1.424 . S
C217 C222 1.245 . S
C217 C223 1.428 . S
C218 C221 1.260 . S
C218 C222 1.477 . S
C218 H236 0.932 . S
C219 C220 1.384 . S
C219 C221 1.479 . S
C219 H237 0.929 . S
C220 C217 1.424 . S
C220 C219 1.384 . S
C220 H238 0.928 . S
C221 C218 1.260 . S
C221 C219 1.479 . S
C222 C217 1.245 . S
C222 C218 1.477 . S
C222 H239 0.932 . S
C223 U206 2.882 . S
C223 C217 1.428 . S
C223 O226 1.301 . S
C223 O227 1.282 . S
O224 U206 2.441 . S
O224 C210 1.249 . S
O225 U206 2.420 . S
O225 C210 1.202 . S
O226 U206 2.455 . S
O226 C223 1.301 . S
O227 U206 2.449 . S
O227 C223 1.282 . S
H228 C201 0.931 . S
H229 C203 0.929 . S
H230 C204 0.929 1_565 S
H231 C205 0.931 . S
H232 C212 0.932 . S
H233 C213 0.930 . S
H234 C214 0.927 1_565 S
H235 C216 0.930 . S
H236 C218 0.932 . S
H237 C219 0.929 . S
H238 C220 0.928 . S
H239 C222 0.932 . S
C240 C241 1.264 . S
C240 C245 1.479 . S
C240 C250 1.465 . S
C241 C240 1.264 . S
C241 C243 1.339 . S
C241 H268 0.931 . S
C242 C243 1.395 . S
C242 C244 1.320 . S
C243 C241 1.339 . S
C243 C242 1.395 . S
C243 H269 0.929 . S
C244 C242 1.320 . S
C244 C245 1.405 . S
C244 H270 0.930 1_655 S
C245 C240 1.479 . S
C245 C244 1.405 . S
C245 H271 0.931 . S
U246 O247 2.454 . S
U246 O248 2.458 . S
U246 C249 2.984 . S
U246 C250 2.847 . S
U246 C263 2.882 . S
U246 O264 2.441 . S
U246 O265 2.420 . S
U246 O266 2.455 . S
U246 O267 2.449 . S
O247 U246 2.454 . S
O247 C249 1.353 . S
O248 U246 2.458 . S
O248 C249 1.286 . S
C249 U246 2.984 . S
C249 O247 1.353 . S
C249 O248 1.286 . S
C249 C251 1.363 . S
C250 C240 1.465 . S
C250 U246 2.847 . S
C250 O264 1.249 . S
C250 O265 1.202 . S
C251 C249 1.363 . S
C251 C253 1.408 . S
C251 C256 1.346 . S
C252 C253 1.310 . S
C252 C255 1.459 1_655 S
C252 H272 0.933 . S
C253 C251 1.408 . S
C253 C252 1.310 . S
C253 H273 0.930 . S
C254 C255 1.475 . S
C254 C256 1.284 1_455 S
C254 H274 0.929 . S
C255 C252 1.459 1_455 S
C255 C254 1.475 . S
C256 C251 1.346 . S
C256 C254 1.284 1_655 S
C256 H275 0.929 1_655 S
C257 C260 1.424 . S
C257 C262 1.245 . S
C257 C263 1.428 . S
C258 C261 1.260 . S
C258 C262 1.477 . S
C258 H276 0.932 . S
C259 C260 1.384 . S
C259 C261 1.479 . S
C259 H277 0.929 . S
C260 C257 1.424 . S
C260 C259 1.384 . S
C260 H278 0.928 . S
C261 C258 1.260 . S
C261 C259 1.479 . S
C262 C257 1.245 . S
C262 C258 1.477 . S
C262 H279 0.932 . S
C263 U246 2.882 . S
C263 C257 1.428 . S
C263 O266 1.301 . S
C263 O267 1.282 . S
O264 U246 2.441 . S
O264 C250 1.249 . S
O265 U246 2.420 . S
O265 C250 1.202 . S
O266 U246 2.455 . S
O266 C263 1.301 . S
O267 U246 2.449 . S
O267 C263 1.282 . S
H268 C241 0.931 . S
H269 C243 0.929 . S
H270 C244 0.930 1_455 S
H271 C245 0.931 . S
H272 C252 0.933 . S
H273 C253 0.930 . S
H274 C254 0.929 . S
H275 C256 0.929 1_455 S
H276 C258 0.932 . S
H277 C259 0.929 . S
H278 C260 0.928 . S
H279 C262 0.932 . S
C280 C281 1.264 . S
C280 C285 1.479 . S
C280 C290 1.465 . S
C281 C280 1.264 . S
C281 C283 1.339 . S
C281 H308 0.931 . S
C282 C283 1.395 . S
C282 C284 1.320 . S
C283 C281 1.339 . S
C283 C282 1.395 . S
C283 H309 0.929 . S
C284 C282 1.320 . S
C284 C285 1.405 . S
C284 H310 0.929 . S
C285 C280 1.479 . S
C285 C284 1.405 . S
C285 H311 0.931 . S
U286 O287 2.454 . S
U286 O288 2.458 . S
U286 C289 2.984 . S
U286 C290 2.847 . S
U286 C303 2.882 . S
U286 O304 2.441 . S
U286 O305 2.420 . S
U286 O306 2.455 . S
U286 O307 2.449 . S
O287 U286 2.454 . S
O287 C289 1.353 . S
O288 U286 2.458 . S
O288 C289 1.286 . S
C289 U286 2.984 . S
C289 O287 1.353 . S
C289 O288 1.286 . S
C289 C291 1.363 . S
C290 C280 1.465 . S
C290 U286 2.847 . S
C290 O304 1.249 . S
C290 O305 1.202 . S
C291 C289 1.363 . S
C291 C293 1.408 . S
C291 C296 1.342 . S
C292 C293 1.310 . S
C292 C295 1.461 . S
C292 H312 0.932 . S
C293 C291 1.408 . S
C293 C292 1.310 . S
C293 H313 0.930 . S
C294 C295 1.475 . S
C294 C296 1.288 . S
C294 H314 0.927 1_545 S
C295 C292 1.461 . S
C295 C294 1.475 . S
C296 C291 1.342 . S
C296 C294 1.288 . S
C296 H315 0.930 . S
C297 C300 1.424 . S
C297 C302 1.245 . S
C297 C303 1.428 . S
C298 C301 1.260 . S
C298 C302 1.477 . S
C298 H316 0.932 . S
C299 C300 1.384 . S
C299 C301 1.479 . S
C299 H317 0.929 . S
C300 C297 1.424 . S
C300 C299 1.384 . S
C300 H318 0.928 . S
C301 C298 1.260 . S
C301 C299 1.479 . S
C302 C297 1.245 . S
C302 C298 1.477 . S
C302 H319 0.932 . S
C303 U286 2.882 . S
C303 C297 1.428 . S
C303 O306 1.301 . S
C303 O307 1.282 . S
O304 U286 2.441 . S
O304 C290 1.249 . S
O305 U286 2.420 . S
O305 C290 1.202 . S
O306 U286 2.455 . S
O306 C303 1.301 . S
O307 U286 2.449 . S
O307 C303 1.282 . S
H308 C281 0.931 . S
H309 C283 0.929 . S
H310 C284 0.929 . S
H311 C285 0.931 . S
H312 C292 0.932 . S
H313 C293 0.930 . S
H314 C294 0.927 1_565 S
H315 C296 0.930 . S
H316 C298 0.932 . S
H317 C299 0.929 . S
H318 C300 0.928 . S
H319 C302 0.932 . S
C320 C321 1.264 . S
C320 C325 1.479 . S
C320 C330 1.465 . S
C321 C320 1.264 . S
C321 C323 1.339 . S
C321 H348 0.931 . S
C322 C323 1.395 . S
C322 C324 1.320 . S
C323 C321 1.339 . S
C323 C322 1.395 . S
C323 H349 0.929 . S
C324 C322 1.320 . S
C324 C325 1.405 . S
C324 H350 0.930 1_554 S
C325 C320 1.479 . S
C325 C324 1.405 . S
C325 H351 0.931 . S
U326 O327 2.454 . S
U326 O328 2.458 . S
U326 C329 2.984 . S
U326 C330 2.847 . S
U326 C343 2.882 . S
U326 O344 2.441 . S
U326 O345 2.420 . S
U326 O346 2.455 . S
U326 O347 2.449 . S
O327 U326 2.454 . S
O327 C329 1.353 . S
O328 U326 2.458 . S
O328 C329 1.286 . S
C329 U326 2.984 . S
C329 O327 1.353 . S
C329 O328 1.286 . S
C329 C331 1.363 . S
C330 C320 1.465 . S
C330 U326 2.847 . S
C330 O344 1.249 . S
C330 O345 1.202 . S
C331 C329 1.363 . S
C331 C333 1.408 . S
C331 C336 1.342 . S
C332 C333 1.310 . S
C332 C335 1.464 . S
C332 H352 0.932 . S
C333 C331 1.408 . S
C333 C332 1.310 . S
C333 H353 0.930 . S
C334 C335 1.474 . S
C334 C336 1.287 . S
C334 H354 0.928 1_554 S
C335 C332 1.464 . S
C335 C334 1.474 . S
C336 C331 1.342 . S
C336 C334 1.287 . S
C336 H355 0.930 . S
C337 C340 1.424 . S
C337 C342 1.245 . S
C337 C343 1.428 . S
C338 C341 1.260 . S
C338 C342 1.477 . S
C338 H356 0.932 . S
C339 C340 1.384 . S
C339 C341 1.479 . S
C339 H357 0.929 . S
C340 C337 1.424 . S
C340 C339 1.384 . S
C340 H358 0.928 . S
C341 C338 1.260 . S
C341 C339 1.479 . S
C342 C337 1.245 . S
C342 C338 1.477 . S
C342 H359 0.932 . S
C343 U326 2.882 . S
C343 C337 1.428 . S
C343 O346 1.301 . S
C343 O347 1.282 . S
O344 U326 2.441 . S
O344 C330 1.249 . S
O345 U326 2.420 . S
O345 C330 1.202 . S
O346 U326 2.455 . S
O346 C343 1.301 . S
O347 U326 2.449 . S
O347 C343 1.282 . S
H348 C321 0.931 . S
H349 C323 0.929 . S
H350 C324 0.930 1_556 S
H351 C325 0.931 . S
H352 C332 0.932 . S
H353 C333 0.930 . S
H354 C334 0.928 1_556 S
H355 C336 0.930 . S
H356 C338 0.932 . S
H357 C339 0.929 . S
H358 C340 0.928 . S
H359 C342 0.932 . S
C360 C361 1.264 . S
C360 C365 1.479 . S
C360 C370 1.465 . S
C361 C360 1.264 . S
C361 C363 1.339 . S
C361 H388 0.931 . S
C362 C363 1.395 . S
C362 C364 1.320 . S
C363 C361 1.339 . S
C363 C362 1.395 . S
C363 H389 0.929 . S
C364 C362 1.320 . S
C364 C365 1.405 . S
C364 H390 0.925 1_554 S
C365 C360 1.479 . S
C365 C364 1.405 . S
C365 H391 0.931 . S
U366 O367 2.454 . S
U366 O368 2.458 . S
U366 C369 2.984 . S
U366 C370 2.847 . S
U366 C383 2.882 . S
U366 O384 2.441 . S
U366 O385 2.420 . S
U366 O386 2.455 . S
U366 O387 2.449 . S
O367 U366 2.454 . S
O367 C369 1.353 . S
O368 U366 2.458 . S
O368 C369 1.286 . S
C369 U366 2.984 . S
C369 O367 1.353 . S
C369 O368 1.286 . S
C369 C371 1.363 . S
C370 C360 1.465 . S
C370 U366 2.847 . S
C370 O384 1.249 . S
C370 O385 1.202 . S
C371 C369 1.363 . S
C371 C373 1.408 . S
C371 C376 1.342 . S
C372 C373 1.310 . S
C372 C375 1.464 . S
C372 H392 0.932 . S
C373 C371 1.408 . S
C373 C372 1.310 . S
C373 H393 0.930 . S
C374 C375 1.474 . S
C374 C376 1.286 . S
C374 H394 0.928 1_554 S
C375 C372 1.464 . S
C375 C374 1.474 . S
C376 C371 1.342 . S
C376 C374 1.286 . S
C376 H395 0.930 . S
C377 C380 1.424 . S
C377 C382 1.245 . S
C377 C383 1.428 . S
C378 C381 1.260 . S
C378 C382 1.477 . S
C378 H396 0.932 . S
C379 C380 1.384 . S
C379 C381 1.479 . S
C379 H397 0.929 . S
C380 C377 1.424 . S
C380 C379 1.384 . S
C380 H398 0.928 . S
C381 C378 1.260 . S
C381 C379 1.479 . S
C382 C377 1.245 . S
C382 C378 1.477 . S
C382 H399 0.932 . S
C383 U366 2.882 . S
C383 C377 1.428 . S
C383 O386 1.301 . S
C383 O387 1.282 . S
O384 U366 2.441 . S
O384 C370 1.249 . S
O385 U366 2.420 . S
O385 C370 1.202 . S
O386 U366 2.455 . S
O386 C383 1.301 . S
O387 U366 2.449 . S
O387 C383 1.282 . S
H388 C361 0.931 . S
H389 C363 0.929 . S
H390 C364 0.925 1_556 S
H391 C365 0.931 . S
H392 C372 0.932 . S
H393 C373 0.930 . S
H394 C374 0.928 1_556 S
H395 C376 0.930 . S
H396 C378 0.932 . S
H397 C379 0.929 . S
H398 C380 0.928 . S
H399 C382 0.932 . S
C400 C401 1.264 . S
C400 C405 1.479 . S
C400 C410 1.465 . S
C401 C400 1.264 . S
C401 C403 1.339 . S
C401 H428 0.931 . S
C402 C403 1.395 . S
C402 C404 1.320 . S
C403 C401 1.339 . S
C403 C402 1.395 . S
C403 H429 0.929 . S
C404 C402 1.320 . S
C404 C405 1.405 . S
C404 H430 0.927 1_554 S
C405 C400 1.479 . S
C405 C404 1.405 . S
C405 H431 0.931 . S
U406 O407 2.454 . S
U406 O408 2.458 . S
U406 C409 2.984 . S
U406 C410 2.847 . S
U406 C423 2.882 . S
U406 O424 2.441 . S
U406 O425 2.420 . S
U406 O426 2.455 . S
U406 O427 2.449 . S
O407 U406 2.454 . S
O407 C409 1.353 . S
O408 U406 2.458 . S
O408 C409 1.286 . S
C409 U406 2.984 . S
C409 O407 1.353 . S
C409 O408 1.286 . S
C409 C411 1.363 . S
C410 C400 1.465 . S
C410 U406 2.847 . S
C410 O424 1.249 . S
C410 O425 1.202 . S
C411 C409 1.363 . S
C411 C413 1.408 . S
C411 C416 1.342 . S
C412 C413 1.310 . S
C412 C415 1.461 . S
C412 H432 0.932 . S
C413 C411 1.408 . S
C413 C412 1.310 . S
C413 H433 0.930 . S
C414 C415 1.475 . S
C414 C416 1.287 . S
C414 H434 0.928 1_554 S
C415 C412 1.461 . S
C415 C414 1.475 . S
C416 C411 1.342 . S
C416 C414 1.287 . S
C416 H435 0.930 . S
C417 C420 1.424 . S
C417 C422 1.245 . S
C417 C423 1.428 . S
C418 C421 1.260 . S
C418 C422 1.477 . S
C418 H436 0.932 . S
C419 C420 1.384 . S
C419 C421 1.479 . S
C419 H437 0.929 . S
C420 C417 1.424 . S
C420 C419 1.384 . S
C420 H438 0.928 . S
C421 C418 1.260 . S
C421 C419 1.479 . S
C422 C417 1.245 . S
C422 C418 1.477 . S
C422 H439 0.932 . S
C423 U406 2.882 . S
C423 C417 1.428 . S
C423 O426 1.301 . S
C423 O427 1.282 . S
O424 U406 2.441 . S
O424 C410 1.249 . S
O425 U406 2.420 . S
O425 C410 1.202 . S
O426 U406 2.455 . S
O426 C423 1.301 . S
O427 U406 2.449 . S
O427 C423 1.282 . S
H428 C401 0.931 . S
H429 C403 0.929 . S
H430 C404 0.927 1_556 S
H431 C405 0.931 . S
H432 C412 0.932 . S
H433 C413 0.930 . S
H434 C414 0.928 1_556 S
H435 C416 0.930 . S
H436 C418 0.932 . S
H437 C419 0.929 . S
H438 C420 0.928 . S
H439 C422 0.932 . S
C440 C441 1.264 . S
C440 C445 1.479 . S
C440 C450 1.465 . S
C441 C440 1.264 . S
C441 C443 1.339 . S
C441 H468 0.931 . S
C442 C443 1.395 . S
C442 C444 1.320 . S
C443 C441 1.339 . S
C443 C442 1.395 . S
C443 H469 0.929 . S
C444 C442 1.320 . S
C444 C445 1.405 . S
C444 H470 0.925 1_554 S
C445 C440 1.479 . S
C445 C444 1.405 . S
C445 H471 0.931 . S
U446 O447 2.454 . S
U446 O448 2.458 . S
U446 C449 2.984 . S
U446 C450 2.847 . S
U446 C463 2.882 . S
U446 O464 2.441 . S
U446 O465 2.420 . S
U446 O466 2.455 . S
U446 O467 2.449 . S
O447 U446 2.454 . S
O447 C449 1.353 . S
O448 U446 2.458 . S
O448 C449 1.286 . S
C449 U446 2.984 . S
C449 O447 1.353 . S
C449 O448 1.286 . S
C449 C451 1.363 . S
C450 C440 1.465 . S
C450 U446 2.847 . S
C450 O464 1.249 . S
C450 O465 1.202 . S
C451 C449 1.363 . S
C451 C453 1.408 . S
C451 C456 1.342 . S
C452 C453 1.310 . S
C452 C455 1.462 . S
C452 H472 0.932 . S
C453 C451 1.408 . S
C453 C452 1.310 . S
C453 H473 0.930 . S
C454 C455 1.474 . S
C454 C456 1.285 . S
C454 H474 0.930 1_554 S
C455 C452 1.462 . S
C455 C454 1.474 . S
C456 C451 1.342 . S
C456 C454 1.285 . S
C456 H475 0.930 . S
C457 C460 1.424 . S
C457 C462 1.245 . S
C457 C463 1.428 . S
C458 C461 1.260 . S
C458 C462 1.477 . S
C458 H476 0.932 . S
C459 C460 1.384 . S
C459 C461 1.479 . S
C459 H477 0.929 . S
C460 C457 1.424 . S
C460 C459 1.384 . S
C460 H478 0.928 . S
C461 C458 1.260 . S
C461 C459 1.479 . S
C462 C457 1.245 . S
C462 C458 1.477 . S
C462 H479 0.932 . S
C463 U446 2.882 . S
C463 C457 1.428 . S
C463 O466 1.301 . S
C463 O467 1.282 . S
O464 U446 2.441 . S
O464 C450 1.249 . S
O465 U446 2.420 . S
O465 C450 1.202 . S
O466 U446 2.455 . S
O466 C463 1.301 . S
O467 U446 2.449 . S
O467 C463 1.282 . S
H468 C441 0.931 . S
H469 C443 0.929 . S
H470 C444 0.925 1_556 S
H471 C445 0.931 . S
H472 C452 0.932 . S
H473 C453 0.930 . S
H474 C454 0.930 1_556 S
H475 C456 0.930 . S
H476 C458 0.932 . S
H477 C459 0.929 . S
H478 C460 0.928 . S
H479 C462 0.932 . S
C480 C481 1.264 . S
C480 C485 1.479 . S
C480 C490 1.465 . S
C481 C480 1.264 . S
C481 C483 1.339 . S
C481 H508 0.931 . S
C482 C483 1.395 . S
C482 C484 1.320 . S
C483 C481 1.339 . S
C483 C482 1.395 . S
C483 H509 0.929 . S
C484 C482 1.320 . S
C484 C485 1.405 . S
C484 H510 0.930 . S
C485 C480 1.479 . S
C485 C484 1.405 . S
C485 H511 0.931 . S
U486 O487 2.454 . S
U486 O488 2.458 . S
U486 C489 2.984 . S
U486 C490 2.847 . S
U486 C503 2.882 . S
U486 O504 2.441 . S
U486 O505 2.420 . S
U486 O506 2.455 . S
U486 O507 2.449 . S
O487 U486 2.454 . S
O487 C489 1.353 . S
O488 U486 2.458 . S
O488 C489 1.286 . S
C489 U486 2.984 . S
C489 O487 1.353 . S
C489 O488 1.286 . S
C489 C491 1.363 . S
C490 C480 1.465 . S
C490 U486 2.847 . S
C490 O504 1.249 . S
C490 O505 1.202 . S
C491 C489 1.363 . S
C491 C493 1.408 . S
C491 C496 1.342 . S
C492 C493 1.310 . S
C492 C495 1.461 . S
C492 H512 0.932 . S
C493 C491 1.408 . S
C493 C492 1.310 . S
C493 H513 0.930 . S
C494 C495 1.474 . S
C494 C496 1.285 . S
C494 H514 0.929 . S
C495 C492 1.461 . S
C495 C494 1.474 . S
C496 C491 1.342 . S
C496 C494 1.285 . S
C496 H515 0.930 . S
C497 C500 1.424 . S
C497 C502 1.245 . S
C497 C503 1.428 . S
C498 C501 1.260 . S
C498 C502 1.477 . S
C498 H516 0.932 . S
C499 C500 1.384 . S
C499 C501 1.479 . S
C499 H517 0.929 . S
C500 C497 1.424 . S
C500 C499 1.384 . S
C500 H518 0.928 . S
C501 C498 1.260 . S
C501 C499 1.479 . S
C502 C497 1.245 . S
C502 C498 1.477 . S
C502 H519 0.932 . S
C503 U486 2.882 . S
C503 C497 1.428 . S
C503 O506 1.301 . S
C503 O507 1.282 . S
O504 U486 2.441 . S
O504 C490 1.249 . S
O505 U486 2.420 . S
O505 C490 1.202 . S
O506 U486 2.455 . S
O506 C503 1.301 . S
O507 U486 2.449 . S
O507 C503 1.282 . S
H508 C481 0.931 . S
H509 C483 0.929 . S
H510 C484 0.930 . S
H511 C485 0.931 . S
H512 C492 0.932 . S
H513 C493 0.930 . S
H514 C494 0.929 . S
H515 C496 0.930 . S
H516 C498 0.932 . S
H517 C499 0.929 . S
H518 C500 0.928 . S
H519 C502 0.932 . S
C520 C521 1.264 . S
C520 C525 1.479 . S
C520 C530 1.465 . S
C521 C520 1.264 . S
C521 C523 1.339 . S
C521 H548 0.931 . S
C522 C523 1.395 . S
C522 C524 1.320 . S
C523 C521 1.339 . S
C523 C522 1.395 . S
C523 H549 0.929 . S
C524 C522 1.320 . S
C524 C525 1.405 . S
C524 H550 0.930 . S
C525 C520 1.479 . S
C525 C524 1.405 . S
C525 H551 0.931 . S
U526 O527 2.454 . S
U526 O528 2.458 . S
U526 C529 2.984 . S
U526 C530 2.847 . S
U526 C543 2.882 . S
U526 O544 2.441 . S
U526 O545 2.420 . S
U526 O546 2.455 . S
U526 O547 2.449 . S
O527 U526 2.454 . S
O527 C529 1.353 . S
O528 U526 2.458 . S
O528 C529 1.286 . S
C529 U526 2.984 . S
C529 O527 1.353 . S
C529 O528 1.286 . S
C529 C531 1.363 . S
C530 C520 1.465 . S
C530 U526 2.847 . S
C530 O544 1.249 . S
C530 O545 1.202 . S
C531 C529 1.363 . S
C531 C533 1.408 . S
C531 C536 1.342 . S
C532 C533 1.310 . S
C532 C535 1.461 . S
C532 H552 0.932 . S
C533 C531 1.408 . S
C533 C532 1.310 . S
C533 H553 0.930 . S
C534 C535 1.474 . S
C534 C536 1.285 . S
C534 H554 0.929 . S
C535 C532 1.461 . S
C535 C534 1.474 . S
C536 C531 1.342 . S
C536 C534 1.285 . S
C536 H555 0.930 . S
C537 C540 1.424 . S
C537 C542 1.245 . S
C537 C543 1.428 . S
C538 C541 1.260 . S
C538 C542 1.477 . S
C538 H556 0.932 . S
C539 C540 1.384 . S
C539 C541 1.479 . S
C539 H557 0.929 . S
C540 C537 1.424 . S
C540 C539 1.384 . S
C540 H558 0.928 . S
C541 C538 1.260 . S
C541 C539 1.479 . S
C542 C537 1.245 . S
C542 C538 1.477 . S
C542 H559 0.932 . S
C543 U526 2.882 . S
C543 C537 1.428 . S
C543 O546 1.301 . S
C543 O547 1.282 . S
O544 U526 2.441 . S
O544 C530 1.249 . S
O545 U526 2.420 . S
O545 C530 1.202 . S
O546 U526 2.455 . S
O546 C543 1.301 . S
O547 U526 2.449 . S
O547 C543 1.282 . S
H548 C521 0.931 . S
H549 C523 0.929 . S
H550 C524 0.930 . S
H551 C525 0.931 . S
H552 C532 0.932 . S
H553 C533 0.930 . S
H554 C534 0.929 . S
H555 C536 0.930 . S
H556 C538 0.932 . S
H557 C539 0.929 . S
H558 C540 0.928 . S
H559 C542 0.932 . S
C560 C561 1.264 . S
C560 C565 1.479 . S
C560 C570 1.465 . S
C561 C560 1.264 . S
C561 C563 1.339 . S
C561 H588 0.931 . S
C562 C563 1.395 . S
C562 C564 1.320 . S
C563 C561 1.339 . S
C563 C562 1.395 . S
C563 H589 0.929 . S
C564 C562 1.320 . S
C564 C565 1.405 . S
C564 H590 0.930 . S
C565 C560 1.479 . S
C565 C564 1.405 . S
C565 H591 0.931 . S
U566 O567 2.454 . S
U566 O568 2.458 . S
U566 C569 2.984 . S
U566 C570 2.847 . S
U566 C583 2.882 . S
U566 O584 2.441 . S
U566 O585 2.420 . S
U566 O586 2.455 . S
U566 O587 2.449 . S
O567 U566 2.454 . S
O567 C569 1.353 . S
O568 U566 2.458 . S
O568 C569 1.286 . S
C569 U566 2.984 . S
C569 O567 1.353 . S
C569 O568 1.286 . S
C569 C571 1.363 . S
C570 C560 1.465 . S
C570 U566 2.847 . S
C570 O584 1.249 . S
C570 O585 1.202 . S
C571 C569 1.363 . S
C571 C573 1.408 . S
C571 C576 1.342 . S
C572 C573 1.310 . S
C572 C575 1.461 . S
C572 H592 0.932 . S
C573 C571 1.408 . S
C573 C572 1.310 . S
C573 H593 0.930 . S
C574 C575 1.474 . S
C574 C576 1.285 . S
C574 H594 0.929 . S
C575 C572 1.461 . S
C575 C574 1.474 . S
C576 C571 1.342 . S
C576 C574 1.285 . S
C576 H595 0.930 . S
C577 C580 1.424 . S
C577 C582 1.245 . S
C577 C583 1.428 . S
C578 C581 1.260 . S
C578 C582 1.477 . S
C578 H596 0.932 . S
C579 C580 1.384 . S
C579 C581 1.479 . S
C579 H597 0.929 . S
C580 C577 1.424 . S
C580 C579 1.384 . S
C580 H598 0.928 . S
C581 C578 1.260 . S
C581 C579 1.479 . S
C582 C577 1.245 . S
C582 C578 1.477 . S
C582 H599 0.932 . S
C583 U566 2.882 . S
C583 C577 1.428 . S
C583 O586 1.301 . S
C583 O587 1.282 . S
O584 U566 2.441 . S
O584 C570 1.249 . S
O585 U566 2.420 . S
O585 C570 1.202 . S
O586 U566 2.455 . S
O586 C583 1.301 . S
O587 U566 2.449 . S
O587 C583 1.282 . S
H588 C561 0.931 . S
H589 C563 0.929 . S
H590 C564 0.930 . S
H591 C565 0.931 . S
H592 C572 0.932 . S
H593 C573 0.930 . S
H594 C574 0.929 . S
H595 C576 0.930 . S
H596 C578 0.932 . S
H597 C579 0.929 . S
H598 C580 0.928 . S
H599 C582 0.932 . S
C600 C601 1.264 . S
C600 C605 1.479 . S
C600 C610 1.465 . S
C601 C600 1.264 . S
C601 C603 1.339 . S
C601 H628 0.931 . S
C602 C603 1.395 . S
C602 C604 1.320 . S
C603 C601 1.339 . S
C603 C602 1.395 . S
C603 H629 0.929 . S
C604 C602 1.320 . S
C604 C605 1.405 . S
C604 H630 0.930 . S
C605 C600 1.479 . S
C605 C604 1.405 . S
C605 H631 0.931 . S
U606 O607 2.454 . S
U606 O608 2.458 . S
U606 C609 2.984 . S
U606 C610 2.847 . S
U606 C623 2.882 . S
U606 O624 2.441 . S
U606 O625 2.420 . S
U606 O626 2.455 . S
U606 O627 2.449 . S
O607 U606 2.454 . S
O607 C609 1.353 . S
O608 U606 2.458 . S
O608 C609 1.286 . S
C609 U606 2.984 . S
C609 O607 1.353 . S
C609 O608 1.286 . S
C609 C611 1.363 . S
C610 C600 1.465 . S
C610 U606 2.847 . S
C610 O624 1.249 . S
C610 O625 1.202 . S
C611 C609 1.363 . S
C611 C613 1.408 . S
C611 C616 1.342 . S
C612 C613 1.310 . S
C612 C615 1.461 . S
C612 H632 0.932 . S
C613 C611 1.408 . S
C613 C612 1.310 . S
C613 H633 0.930 . S
C614 C615 1.474 . S
C614 C616 1.285 . S
C614 H634 0.929 . S
C615 C612 1.461 . S
C615 C614 1.474 . S
C616 C611 1.342 . S
C616 C614 1.285 . S
C616 H635 0.930 . S
C617 C620 1.424 . S
C617 C622 1.245 . S
C617 C623 1.428 . S
C618 C621 1.260 . S
C618 C622 1.477 . S
C618 H636 0.932 . S
C619 C620 1.384 . S
C619 C621 1.479 . S
C619 H637 0.929 . S
C620 C617 1.424 . S
C620 C619 1.384 . S
C620 H638 0.928 . S
C621 C618 1.260 . S
C621 C619 1.479 . S
C622 C617 1.245 . S
C622 C618 1.477 . S
C622 H639 0.932 . S
C623 U606 2.882 . S
C623 C617 1.428 . S
C623 O626 1.301 . S
C623 O627 1.282 . S
O624 U606 2.441 . S
O624 C610 1.249 . S
O625 U606 2.420 . S
O625 C610 1.202 . S
O626 U606 2.455 . S
O626 C623 1.301 . S
O627 U606 2.449 . S
O627 C623 1.282 . S
H628 C601 0.931 . S
H629 C603 0.929 . S
H630 C604 0.930 . S
H631 C605 0.931 . S
H632 C612 0.932 . S
H633 C613 0.930 . S
H634 C614 0.929 . S
H635 C616 0.930 . S
H636 C618 0.932 . S
H637 C619 0.929 . S
H638 C620 0.928 . S
H639 C622 0.932 . S
C640 C641 1.264 . S
C640 C645 1.479 . S
C640 C650 1.465 . S
C641 C640 1.264 . S
C641 C643 1.339 . S
C641 H668 0.931 . S
C642 C643 1.395 . S
C642 C644 1.320 . S
C643 C641 1.339 . S
C643 C642 1.395 . S
C643 H669 0.929 . S
C644 C642 1.320 . S
C644 C645 1.405 . S
C644 H670 0.930 . S
C645 C640 1.479 . S
C645 C644 1.405 . S
C645 H671 0.931 . S
U646 O647 2.454 . S
U646 O648 2.458 . S
U646 C649 2.984 . S
U646 C650 2.847 . S
U646 C663 2.882 . S
U646 O664 2.441 . S
U646 O665 2.420 . S
U646 O666 2.455 . S
U646 O667 2.449 . S
O647 U646 2.454 . S
O647 C649 1.353 . S
O648 U646 2.458 . S
O648 C649 1.286 . S
C649 U646 2.984 . S
C649 O647 1.353 . S
C649 O648 1.286 . S
C649 C651 1.363 . S
C650 C640 1.465 . S
C650 U646 2.847 . S
C650 O664 1.249 . S
C650 O665 1.202 . S
C651 C649 1.363 . S
C651 C653 1.408 . S
C651 C656 1.342 . S
C652 C653 1.310 . S
C652 C655 1.461 . S
C652 H672 0.932 . S
C653 C651 1.408 . S
C653 C652 1.310 . S
C653 H673 0.930 . S
C654 C655 1.474 . S
C654 C656 1.285 . S
C654 H674 0.929 . S
C655 C652 1.461 . S
C655 C654 1.474 . S
C656 C651 1.342 . S
C656 C654 1.285 . S
C656 H675 0.930 . S
C657 C660 1.424 . S
C657 C662 1.245 . S
C657 C663 1.428 . S
C658 C661 1.260 . S
C658 C662 1.477 . S
C658 H676 0.932 . S
C659 C660 1.384 . S
C659 C661 1.479 . S
C659 H677 0.929 . S
C660 C657 1.424 . S
C660 C659 1.384 . S
C660 H678 0.928 . S
C661 C658 1.260 . S
C661 C659 1.479 . S
C662 C657 1.245 . S
C662 C658 1.477 . S
C662 H679 0.932 . S
C663 U646 2.882 . S
C663 C657 1.428 . S
C663 O666 1.301 . S
C663 O667 1.282 . S
O664 U646 2.441 . S
O664 C650 1.249 . S
O665 U646 2.420 . S
O665 C650 1.202 . S
O666 U646 2.455 . S
O666 C663 1.301 . S
O667 U646 2.449 . S
O667 C663 1.282 . S
H668 C641 0.931 . S
H669 C643 0.929 . S
H670 C644 0.930 . S
H671 C645 0.931 . S
H672 C652 0.932 . S
H673 C653 0.930 . S
H674 C654 0.929 . S
H675 C656 0.930 . S
H676 C658 0.932 . S
H677 C659 0.929 . S
H678 C660 0.928 . S
H679 C662 0.932 . S
C680 C681 1.264 . S
C680 C685 1.479 . S
C680 C690 1.465 . S
C681 C680 1.264 . S
C681 C683 1.339 . S
C681 H708 0.931 . S
C682 C683 1.395 . S
C682 C684 1.320 . S
C683 C681 1.339 . S
C683 C682 1.395 . S
C683 H709 0.929 . S
C684 C682 1.320 . S
C684 C685 1.405 . S
C684 H710 0.930 . S
C685 C680 1.479 . S
C685 C684 1.405 . S
C685 H711 0.931 . S
U686 O687 2.454 . S
U686 O688 2.458 . S
U686 C689 2.984 . S
U686 C690 2.847 . S
U686 C703 2.882 . S
U686 O704 2.441 . S
U686 O705 2.420 . S
U686 O706 2.455 . S
U686 O707 2.449 . S
O687 U686 2.454 . S
O687 C689 1.353 . S
O688 U686 2.458 . S
O688 C689 1.286 . S
C689 U686 2.984 . S
C689 O687 1.353 . S
C689 O688 1.286 . S
C689 C691 1.363 . S
C690 C680 1.465 . S
C690 U686 2.847 . S
C690 O704 1.249 . S
C690 O705 1.202 . S
C691 C689 1.363 . S
C691 C693 1.408 . S
C691 C696 1.342 . S
C692 C693 1.310 . S
C692 C695 1.461 . S
C692 H712 0.932 . S
C693 C691 1.408 . S
C693 C692 1.310 . S
C693 H713 0.930 . S
C694 C695 1.474 . S
C694 C696 1.285 . S
C694 H714 0.929 . S
C695 C692 1.461 . S
C695 C694 1.474 . S
C696 C691 1.342 . S
C696 C694 1.285 . S
C696 H715 0.930 . S
C697 C700 1.424 . S
C697 C702 1.245 . S
C697 C703 1.428 . S
C698 C701 1.260 . S
C698 C702 1.477 . S
C698 H716 0.932 . S
C699 C700 1.384 . S
C699 C701 1.479 . S
C699 H717 0.929 . S
C700 C697 1.424 . S
C700 C699 1.384 . S
C700 H718 0.928 . S
C701 C698 1.260 . S
C701 C699 1.479 . S
C702 C697 1.245 . S
C702 C698 1.477 . S
C702 H719 0.932 . S
C703 U686 2.882 . S
C703 C697 1.428 . S
C703 O706 1.301 . S
C703 O707 1.282 . S
O704 U686 2.441 . S
O704 C690 1.249 . S
O705 U686 2.420 . S
O705 C690 1.202 . S
O706 U686 2.455 . S
O706 C703 1.301 . S
O707 U686 2.449 . S
O707 C703 1.282 . S
H708 C681 0.931 . S
H709 C683 0.929 . S
H710 C684 0.930 . S
H711 C685 0.931 . S
H712 C692 0.932 . S
H713 C693 0.930 . S
H714 C694 0.929 . S
H715 C696 0.930 . S
H716 C698 0.932 . S
H717 C699 0.929 . S
H718 C700 0.928 . S
H719 C702 0.932 . S
C720 C721 1.264 . S
C720 C725 1.479 . S
C720 C730 1.465 . S
C721 C720 1.264 . S
C721 C723 1.339 . S
C721 H748 0.931 . S
C722 C723 1.395 . S
C722 C724 1.320 . S
C723 C721 1.339 . S
C723 C722 1.395 . S
C723 H749 0.929 . S
C724 C722 1.320 . S
C724 C725 1.405 . S
C724 H750 0.930 . S
C725 C720 1.479 . S
C725 C724 1.405 . S
C725 H751 0.931 . S
U726 O727 2.454 . S
U726 O728 2.458 . S
U726 C729 2.984 . S
U726 C730 2.847 . S
U726 C743 2.882 . S
U726 O744 2.441 . S
U726 O745 2.420 . S
U726 O746 2.455 . S
U726 O747 2.449 . S
O727 U726 2.454 . S
O727 C729 1.353 . S
O728 U726 2.458 . S
O728 C729 1.286 . S
C729 U726 2.984 . S
C729 O727 1.353 . S
C729 O728 1.286 . S
C729 C731 1.363 . S
C730 C720 1.465 . S
C730 U726 2.847 . S
C730 O744 1.249 . S
C730 O745 1.202 . S
C731 C729 1.363 . S
C731 C733 1.408 . S
C731 C736 1.342 . S
C732 C733 1.310 . S
C732 C735 1.461 . S
C732 H752 0.932 . S
C733 C731 1.408 . S
C733 C732 1.310 . S
C733 H753 0.930 . S
C734 C735 1.474 . S
C734 C736 1.285 . S
C734 H754 0.929 . S
C735 C732 1.461 . S
C735 C734 1.474 . S
C736 C731 1.342 . S
C736 C734 1.285 . S
C736 H755 0.930 . S
C737 C740 1.424 . S
C737 C742 1.245 . S
C737 C743 1.428 . S
C738 C741 1.260 . S
C738 C742 1.477 . S
C738 H756 0.932 . S
C739 C740 1.384 . S
C739 C741 1.479 . S
C739 H757 0.929 . S
C740 C737 1.424 . S
C740 C739 1.384 . S
C740 H758 0.928 . S
C741 C738 1.260 . S
C741 C739 1.479 . S
C742 C737 1.245 . S
C742 C738 1.477 . S
C742 H759 0.932 . S
C743 U726 2.882 . S
C743 C737 1.428 . S
C743 O746 1.301 . S
C743 O747 1.282 . S
O744 U726 2.441 . S
O744 C730 1.249 . S
O745 U726 2.420 . S
O745 C730 1.202 . S
O746 U726 2.455 . S
O746 C743 1.301 . S
O747 U726 2.449 . S
O747 C743 1.282 . S
H748 C721 0.931 . S
H749 C723 0.929 . S
H750 C724 0.930 . S
H751 C725 0.931 . S
H752 C732 0.932 . S
H753 C733 0.930 . S
H754 C734 0.929 . S
H755 C736 0.930 . S
H756 C738 0.932 . S
H757 C739 0.929 . S
H758 C740 0.928 . S
H759 C742 0.932 . S
C760 C761 1.264 . S
C760 C765 1.479 . S
C760 C770 1.465 . S
C761 C760 1.264 . S
C761 C763 1.339 . S
C761 H788 0.931 . S
C762 C763 1.395 . S
C762 C764 1.320 . S
C763 C761 1.339 . S
C763 C762 1.395 . S
C763 H789 0.929 . S
C764 C762 1.320 . S
C764 C765 1.405 . S
C764 H790 0.930 . S
C765 C760 1.479 . S
C765 C764 1.405 . S
C765 H791 0.931 . S
U766 O767 2.454 . S
U766 O768 2.458 . S
U766 C769 2.984 . S
U766 C770 2.847 . S
U766 C783 2.882 . S
U766 O784 2.441 . S
U766 O785 2.420 . S
U766 O786 2.455 . S
U766 O787 2.449 . S
O767 U766 2.454 . S
O767 C769 1.353 . S
O768 U766 2.458 . S
O768 C769 1.286 . S
C769 U766 2.984 . S
C769 O767 1.353 . S
C769 O768 1.286 . S
C769 C771 1.363 . S
C770 C760 1.465 . S
C770 U766 2.847 . S
C770 O784 1.249 . S
C770 O785 1.202 . S
C771 C769 1.363 . S
C771 C773 1.408 . S
C771 C776 1.342 . S
C772 C773 1.310 . S
C772 C775 1.461 . S
C772 H792 0.932 . S
C773 C771 1.408 . S
C773 C772 1.310 . S
C773 H793 0.930 . S
C774 C775 1.474 . S
C774 C776 1.285 . S
C774 H794 0.929 . S
C775 C772 1.461 . S
C775 C774 1.474 . S
C776 C771 1.342 . S
C776 C774 1.285 . S
C776 H795 0.930 . S
C777 C780 1.424 . S
C777 C782 1.245 . S
C777 C783 1.428 . S
C778 C781 1.260 . S
C778 C782 1.477 . S
C778 H796 0.932 . S
C779 C780 1.384 . S
C779 C781 1.479 . S
C779 H797 0.929 . S
C780 C777 1.424 . S
C780 C779 1.384 . S
C780 H798 0.928 . S
C781 C778 1.260 . S
C781 C779 1.479 . S
C782 C777 1.245 . S
C782 C778 1.477 . S
C782 H799 0.932 . S
C783 U766 2.882 . S
C783 C777 1.428 . S
C783 O786 1.301 . S
C783 O787 1.282 . S
O784 U766 2.441 . S
O784 C770 1.249 . S
O785 U766 2.420 . S
O785 C770 1.202 . S
O786 U766 2.455 . S
O786 C783 1.301 . S
O787 U766 2.449 . S
O787 C783 1.282 . S
H788 C761 0.931 . S
H789 C763 0.929 . S
H790 C764 0.930 . S
H791 C765 0.931 . S
H792 C772 0.932 . S
H793 C773 0.930 . S
H794 C774 0.929 . S
H795 C776 0.930 . S
H796 C778 0.932 . S
H797 C779 0.929 . S
H798 C780 0.928 . S
H799 C782 0.932 . S
C800 C801 1.264 . S
C800 C805 1.479 . S
C800 C810 1.465 . S
C801 C800 1.264 . S
C801 C803 1.339 . S
C801 H828 0.931 . S
C802 C803 1.395 . S
C802 C804 1.320 . S
C803 C801 1.339 . S
C803 C802 1.395 . S
C803 H829 0.929 . S
C804 C802 1.320 . S
C804 C805 1.405 . S
C804 H830 0.930 . S
C805 C800 1.479 . S
C805 C804 1.405 . S
C805 H831 0.931 . S
U806 O807 2.454 . S
U806 O808 2.458 . S
U806 C809 2.984 . S
U806 C810 2.847 . S
U806 C823 2.882 . S
U806 O824 2.441 . S
U806 O825 2.420 . S
U806 O826 2.455 . S
U806 O827 2.449 . S
O807 U806 2.454 . S
O807 C809 1.353 . S
O808 U806 2.458 . S
O808 C809 1.286 . S
C809 U806 2.984 . S
C809 O807 1.353 . S
C809 O808 1.286 . S
C809 C811 1.363 . S
C810 C800 1.465 . S
C810 U806 2.847 . S
C810 O824 1.249 . S
C810 O825 1.202 . S
C811 C809 1.363 . S
C811 C813 1.408 . S
C811 C816 1.342 . S
C812 C813 1.310 . S
C812 C815 1.461 . S
C812 H832 0.932 . S
C813 C811 1.408 . S
C813 C812 1.310 . S
C813 H833 0.930 . S
C814 C815 1.474 . S
C814 C816 1.285 . S
C814 H834 0.929 . S
C815 C812 1.461 . S
C815 C814 1.474 . S
C816 C811 1.342 . S
C816 C814 1.285 . S
C816 H835 0.930 . S
C817 C820 1.424 . S
C817 C822 1.245 . S
C817 C823 1.428 . S
C818 C821 1.260 . S
C818 C822 1.477 . S
C818 H836 0.932 . S
C819 C820 1.384 . S
C819 C821 1.479 . S
C819 H837 0.929 . S
C820 C817 1.424 . S
C820 C819 1.384 . S
C820 H838 0.928 . S
C821 C818 1.260 . S
C821 C819 1.479 . S
C822 C817 1.245 . S
C822 C818 1.477 . S
C822 H839 0.932 . S
C823 U806 2.882 . S
C823 C817 1.428 . S
C823 O826 1.301 . S
C823 O827 1.282 . S
O824 U806 2.441 . S
O824 C810 1.249 . S
O825 U806 2.420 . S
O825 C810 1.202 . S
O826 U806 2.455 . S
O826 C823 1.301 . S
O827 U806 2.449 . S
O827 C823 1.282 . S
H828 C801 0.931 . S
H829 C803 0.929 . S
H830 C804 0.930 . S
H831 C805 0.931 . S
H832 C812 0.932 . S
H833 C813 0.930 . S
H834 C814 0.929 . S
H835 C816 0.930 . S
H836 C818 0.932 . S
H837 C819 0.929 . S
H838 C820 0.928 . S
H839 C822 0.932 . S
C840 C841 1.264 . S
C840 C845 1.479 . S
C840 C850 1.465 . S
C841 C840 1.264 . S
C841 C843 1.339 . S
C841 H868 0.931 . S
C842 C843 1.395 . S
C842 C844 1.320 . S
C843 C841 1.339 . S
C843 C842 1.395 . S
C843 H869 0.929 . S
C844 C842 1.320 . S
C844 C845 1.405 . S
C844 H870 0.930 . S
C845 C840 1.479 . S
C845 C844 1.405 . S
C845 H871 0.931 . S
U846 O847 2.454 . S
U846 O848 2.458 . S
U846 C849 2.984 . S
U846 C850 2.847 . S
U846 C863 2.882 . S
U846 O864 2.441 . S
U846 O865 2.420 . S
U846 O866 2.455 . S
U846 O867 2.449 . S
O847 U846 2.454 . S
O847 C849 1.353 . S
O848 U846 2.458 . S
O848 C849 1.286 . S
C849 U846 2.984 . S
C849 O847 1.353 . S
C849 O848 1.286 . S
C849 C851 1.363 . S
C850 C840 1.465 . S
C850 U846 2.847 . S
C850 O864 1.249 . S
C850 O865 1.202 . S
C851 C849 1.363 . S
C851 C853 1.408 . S
C851 C856 1.342 . S
C852 C853 1.310 . S
C852 C855 1.461 . S
C852 H872 0.932 . S
C853 C851 1.408 . S
C853 C852 1.310 . S
C853 H873 0.930 . S
C854 C855 1.474 . S
C854 C856 1.285 . S
C854 H874 0.929 . S
C855 C852 1.461 . S
C855 C854 1.474 . S
C856 C851 1.342 . S
C856 C854 1.285 . S
C856 H875 0.930 . S
C857 C860 1.424 . S
C857 C862 1.245 . S
C857 C863 1.428 . S
C858 C861 1.260 . S
C858 C862 1.477 . S
C858 H876 0.932 . S
C859 C860 1.384 . S
C859 C861 1.479 . S
C859 H877 0.929 . S
C860 C857 1.424 . S
C860 C859 1.384 . S
C860 H878 0.928 . S
C861 C858 1.260 . S
C861 C859 1.479 . S
C862 C857 1.245 . S
C862 C858 1.477 . S
C862 H879 0.932 . S
C863 U846 2.882 . S
C863 C857 1.428 . S
C863 O866 1.301 . S
C863 O867 1.282 . S
O864 U846 2.441 . S
O864 C850 1.249 . S
O865 U846 2.420 . S
O865 C850 1.202 . S
O866 U846 2.455 . S
O866 C863 1.301 . S
O867 U846 2.449 . S
O867 C863 1.282 . S
H868 C841 0.931 . S
H869 C843 0.929 . S
H870 C844 0.930 . S
H871 C845 0.931 . S
H872 C852 0.932 . S
H873 C853 0.930 . S
H874 C854 0.929 . S
H875 C856 0.930 . S
H876 C858 0.932 . S
H877 C859 0.929 . S
H878 C860 0.928 . S
H879 C862 0.932 . S
C880 C881 1.264 . S
C880 C885 1.479 . S
C880 C890 1.465 . S
C881 C880 1.264 . S
C881 C883 1.339 . S
C881 H908 0.931 . S
C882 C883 1.395 . S
C882 C884 1.320 . S
C883 C881 1.339 . S
C883 C882 1.395 . S
C883 H909 0.929 . S
C884 C882 1.320 . S
C884 C885 1.405 . S
C884 H910 0.930 . S
C885 C880 1.479 . S
C885 C884 1.405 . S
C885 H911 0.931 . S
U886 O887 2.454 . S
U886 O888 2.458 . S
U886 C889 2.984 . S
U886 C890 2.847 . S
U886 C903 2.882 . S
U886 O904 2.441 . S
U886 O905 2.420 . S
U886 O906 2.455 . S
U886 O907 2.449 . S
O887 U886 2.454 . S
O887 C889 1.353 . S
O888 U886 2.458 . S
O888 C889 1.286 . S
C889 U886 2.984 . S
C889 O887 1.353 . S
C889 O888 1.286 . S
C889 C891 1.363 . S
C890 C880 1.465 . S
C890 U886 2.847 . S
C890 O904 1.249 . S
C890 O905 1.202 . S
C891 C889 1.363 . S
C891 C893 1.408 . S
C891 C896 1.342 . S
C892 C893 1.310 . S
C892 C895 1.461 . S
C892 H912 0.932 . S
C893 C891 1.408 . S
C893 C892 1.310 . S
C893 H913 0.930 . S
C894 C895 1.474 . S
C894 C896 1.285 . S
C894 H914 0.929 . S
C895 C892 1.461 . S
C895 C894 1.474 . S
C896 C891 1.342 . S
C896 C894 1.285 . S
C896 H915 0.930 . S
C897 C900 1.424 . S
C897 C902 1.245 . S
C897 C903 1.428 . S
C898 C901 1.260 . S
C898 C902 1.477 . S
C898 H916 0.932 . S
C899 C900 1.384 . S
C899 C901 1.479 . S
C899 H917 0.929 . S
C900 C897 1.424 . S
C900 C899 1.384 . S
C900 H918 0.928 . S
C901 C898 1.260 . S
C901 C899 1.479 . S
C902 C897 1.245 . S
C902 C898 1.477 . S
C902 H919 0.932 . S
C903 U886 2.882 . S
C903 C897 1.428 . S
C903 O906 1.301 . S
C903 O907 1.282 . S
O904 U886 2.441 . S
O904 C890 1.249 . S
O905 U886 2.420 . S
O905 C890 1.202 . S
O906 U886 2.455 . S
O906 C903 1.301 . S
O907 U886 2.449 . S
O907 C903 1.282 . S
H908 C881 0.931 . S
H909 C883 0.929 . S
H910 C884 0.930 . S
H911 C885 0.931 . S
H912 C892 0.932 . S
H913 C893 0.930 . S
H914 C894 0.929 . S
H915 C896 0.930 . S
H916 C898 0.932 . S
H917 C899 0.929 . S
H918 C900 0.928 . S
H919 C902 0.932 . S
C920 C921 1.264 . S
C920 C925 1.479 . S
C920 C930 1.465 . S
C921 C920 1.264 . S
C921 C923 1.339 . S
C921 H948 0.931 . S
C922 C923 1.395 . S
C922 C924 1.320 . S
C923 C921 1.339 . S
C923 C922 1.395 . S
C923 H949 0.929 . S
C924 C922 1.320 . S
C924 C925 1.405 . S
C924 H950 0.930 . S
C925 C920 1.479 . S
C925 C924 1.405 . S
C925 H951 0.931 . S
U926 O927 2.454 . S
U926 O928 2.458 . S
U926 C929 2.984 . S
U926 C930 2.847 . S
U926 C943 2.882 . S
U926 O944 2.441 . S
U926 O945 2.420 . S
U926 O946 2.455 . S
U926 O947 2.449 . S
O927 U926 2.454 . S
O927 C929 1.353 . S
O928 U926 2.458 . S
O928 C929 1.286 . S
C929 U926 2.984 . S
C929 O927 1.353 . S
C929 O928 1.286 . S
C929 C931 1.363 . S
C930 C920 1.465 . S
C930 U926 2.847 . S
C930 O944 1.249 . S
C930 O945 1.202 . S
C931 C929 1.363 . S
C931 C933 1.408 . S
C931 C936 1.342 . S
C932 C933 1.310 . S
C932 C935 1.461 . S
C932 H952 0.932 . S
C933 C931 1.408 . S
C933 C932 1.310 . S
C933 H953 0.930 . S
C934 C935 1.474 . S
C934 C936 1.285 . S
C934 H954 0.929 . S
C935 C932 1.461 . S
C935 C934 1.474 . S
C936 C931 1.342 . S
C936 C934 1.285 . S
C936 H955 0.930 . S
C937 C940 1.424 . S
C937 C942 1.245 . S
C937 C943 1.428 . S
C938 C941 1.260 . S
C938 C942 1.477 . S
C938 H956 0.932 . S
C939 C940 1.384 . S
C939 C941 1.479 . S
C939 H957 0.929 . S
C940 C937 1.424 . S
C940 C939 1.384 . S
C940 H958 0.928 . S
C941 C938 1.260 . S
C941 C939 1.479 . S
C942 C937 1.245 . S
C942 C938 1.477 . S
C942 H959 0.932 . S
C943 U926 2.882 . S
C943 C937 1.428 . S
C943 O946 1.301 . S
C943 O947 1.282 . S
O944 U926 2.441 . S
O944 C930 1.249 . S
O945 U926 2.420 . S
O945 C930 1.202 . S
O946 U926 2.455 . S
O946 C943 1.301 . S
O947 U926 2.449 . S
O947 C943 1.282 . S
H948 C921 0.931 . S
H949 C923 0.929 . S
H950 C924 0.930 . S
H951 C925 0.931 . S
H952 C932 0.932 . S
H953 C933 0.930 . S
H954 C934 0.929 . S
H955 C936 0.930 . S
H956 C938 0.932 . S
H957 C939 0.929 . S
H958 C940 0.928 . S
H959 C942 0.932 . S
C960 O986 1.283 . S
C960 O1004 1.283 . S
C961 O987 1.283 . S
C961 O1002 1.283 . S
C962 O988 1.283 . S
C962 O1005 1.283 . S
C963 O989 1.283 . S
C963 O1003 1.283 . S
C964 O990 1.283 . S
C964 O999 1.283 . S
C965 O991 1.283 . S
C965 O1001 1.283 . S
C966 O992 1.283 . S
C966 O998 1.283 . S
C967 O993 1.283 . S
C967 O1000 1.283 . S
C968 O994 1.283 . S
C968 O1009 1.283 . S
C969 O995 1.283 . S
C969 O1007 1.283 . S
C970 O996 1.283 . S
C970 O1008 1.283 . S
C971 O997 1.283 . S
C971 O1006 1.283 . S
Eu972 O973 2.370 1_455 S
Eu972 O974 2.370 . S
Eu972 O977 2.370 1_455 S
Eu972 O978 2.370 . S
Eu972 O986 2.363 . S
Eu972 O987 2.363 . S
Eu972 O1000 2.363 . S
Eu972 O1001 2.363 1_455 S
O973 Eu972 2.370 1_655 S
O973 Eu975 2.356 1_565 S
O973 Eu980 2.358 1_665 S
O974 Eu972 2.370 . S
O974 Eu976 2.358 1_565 S
O974 Eu979 2.357 1_565 S
Eu975 O973 2.356 1_545 S
Eu975 O977 2.356 1_545 S
Eu975 O981 2.384 . S
Eu975 O982 2.384 . S
Eu975 O990 2.386 . S
Eu975 O991 2.340 1_545 S
Eu975 O1006 2.363 . S
Eu975 O1007 2.363 . S
Eu976 O974 2.358 1_545 S
Eu976 O978 2.358 1_545 S
Eu976 O983 2.382 . S
Eu976 O984 2.382 . S
Eu976 O992 2.383 . S
Eu976 O993 2.343 1_545 S
Eu976 O1008 2.363 . S
Eu976 O1009 2.363 . S
O977 Eu972 2.370 1_655 S
O977 Eu975 2.356 1_565 S
O977 Eu979 2.357 1_665 S
O978 Eu972 2.370 . S
O978 Eu976 2.358 1_565 S
O978 Eu980 2.358 1_565 S
Eu979 O974 2.357 1_545 S
Eu979 O977 2.357 1_445 S
Eu979 O981 2.383 1_455 S
Eu979 O984 2.383 . S
Eu979 O996 2.363 . S
Eu979 O997 2.363 1_455 S
Eu979 O1004 2.341 1_545 S
Eu979 O1005 2.385 . S
Eu980 O973 2.358 1_445 S
Eu980 O978 2.358 1_545 S
Eu980 O982 2.382 1_455 S
Eu980 O983 2.382 . S
Eu980 O994 2.363 . S
Eu980 O995 2.363 1_455 S
Eu980 O1002 2.342 1_545 S
Eu980 O1003 2.384 . S
O981 Eu975 2.384 . S
O981 Eu979 2.383 1_655 S
O981 Eu985 2.370 1_655 S
O982 Eu975 2.384 . S
O982 Eu980 2.382 1_655 S
O982 Eu985 2.370 1_655 S
O983 Eu976 2.382 . S
O983 Eu980 2.382 . S
O983 Eu985 2.370 . S
O984 Eu976 2.382 . S
O984 Eu979 2.383 . S
O984 Eu985 2.370 . S
Eu985 O981 2.370 1_455 S
Eu985 O982 2.370 1_455 S
Eu985 O983 2.370 . S
Eu985 O984 2.370 . S
Eu985 O988 2.363 . S
Eu985 O989 2.363 . S
Eu985 O998 2.363 . S
Eu985 O999 2.363 1_455 S
O986 C960 1.283 . S
O986 Eu972 2.363 . S
O987 C961 1.283 . S
O987 Eu972 2.363 . S
O988 C962 1.283 . S
O988 Eu985 2.363 . S
O989 C963 1.283 . S
O989 Eu985 2.363 . S
O990 C964 1.283 . S
O990 Eu975 2.386 . S
O991 C965 1.283 . S
O991 Eu975 2.340 1_565 S
O992 C966 1.283 . S
O992 Eu976 2.383 . S
O993 C967 1.283 . S
O993 Eu976 2.343 1_565 S
O994 C968 1.283 . S
O994 Eu980 2.363 . S
O995 C969 1.283 . S
O995 Eu980 2.363 1_655 S
O996 C970 1.283 . S
O996 Eu979 2.363 . S
O997 C971 1.283 . S
O997 Eu979 2.363 1_655 S
O998 C966 1.283 . S
O998 Eu985 2.363 . S
O999 C964 1.283 . S
O999 Eu985 2.363 1_655 S
O1000 C967 1.283 . S
O1000 Eu972 2.363 . S
O1001 C965 1.283 . S
O1001 Eu972 2.363 1_655 S
O1002 C961 1.283 . S
O1002 Eu980 2.342 1_565 S
O1003 C963 1.283 . S
O1003 Eu980 2.384 . S
O1004 C960 1.283 . S
O1004 Eu979 2.341 1_565 S
O1005 C962 1.283 . S
O1005 Eu979 2.385 . S
O1006 C971 1.283 . S
O1006 Eu975 2.363 . S
O1007 C969 1.283 . S
O1007 Eu975 2.363 . S
O1008 C970 1.283 . S
O1008 Eu976 2.363 . S
O1009 C968 1.283 . S
O1009 Eu976 2.363 . S
C1010 O1036 1.283 . S
C1010 O1054 1.283 . S
C1011 O1037 1.283 . S
C1011 O1052 1.283 . S
C1012 O1038 1.283 . S
C1012 O1055 1.283 . S
C1013 O1039 1.283 . S
C1013 O1053 1.283 . S
C1014 O1040 1.283 . S
C1014 O1049 1.283 . S
C1015 O1041 1.283 . S
C1015 O1051 1.283 . S
C1016 O1042 1.283 . S
C1016 O1048 1.283 . S
C1017 O1043 1.283 . S
C1017 O1050 1.283 . S
C1018 O1044 1.283 . S
C1018 O1059 1.283 . S
C1019 O1045 1.283 . S
C1019 O1057 1.283 . S
C1020 O1046 1.283 . S
C1020 O1058 1.283 . S
C1021 O1047 1.283 . S
C1021 O1056 1.283 . S
Eu1022 O1023 2.388 . S
Eu1022 O1024 2.352 1_545 S
Eu1022 O1027 2.352 1_545 S
Eu1022 O1028 2.388 . S
Eu1022 O1036 2.332 1_545 S
Eu1022 O1037 2.394 . S
Eu1022 O1050 2.363 . S
Eu1022 O1051 2.363 . S
O1023 Eu1022 2.388 . S
O1023 Eu1025 2.396 . S
O1023 Eu1030 2.378 . S
O1024 Eu1022 2.352 1_565 S
O1024 Eu1026 2.356 1_565 S
O1024 Eu1029 2.373 . S
Eu1025 O1023 2.396 . S
Eu1025 O1027 2.355 1_545 S
Eu1025 O1031 2.344 1_544 S
Eu1025 O1032 2.386 1_554 S
Eu1025 O1040 2.354 1_554 S
Eu1025 O1041 2.372 . S
Eu1025 O1056 2.328 1_545 S
Eu1025 O1057 2.398 . S
Eu1026 O1024 2.356 1_545 S
Eu1026 O1028 2.396 . S
Eu1026 O1033 2.385 1_554 S
Eu1026 O1034 2.345 1_544 S
Eu1026 O1042 2.353 1_554 S
Eu1026 O1043 2.372 . S
Eu1026 O1058 2.329 1_545 S
Eu1026 O1059 2.396 . S
O1027 Eu1022 2.352 1_565 S
O1027 Eu1025 2.355 1_565 S
O1027 Eu1029 2.373 . S
O1028 Eu1022 2.388 . S
O1028 Eu1026 2.396 . S
O1028 Eu1030 2.378 . S
Eu1029 O1024 2.373 . S
Eu1029 O1027 2.373 . S
Eu1029 O1031 2.367 1_554 S
Eu1029 O1034 2.367 1_554 S
Eu1029 O1046 2.363 . S
Eu1029 O1047 2.363 . S
Eu1029 O1054 2.369 . S
Eu1029 O1055 2.357 1_554 S
Eu1030 O1023 2.378 . S
Eu1030 O1028 2.378 . S
Eu1030 O1032 2.363 1_554 S
Eu1030 O1033 2.363 1_554 S
Eu1030 O1044 2.363 . S
Eu1030 O1045 2.363 . S
Eu1030 O1052 2.375 . S
Eu1030 O1053 2.350 1_554 S
O1031 Eu1025 2.344 1_566 S
O1031 Eu1029 2.367 1_556 S
O1031 Eu1035 2.348 1_565 S
O1032 Eu1025 2.386 1_556 S
O1032 Eu1030 2.363 1_556 S
O1032 Eu1035 2.393 . S
O1033 Eu1026 2.385 1_556 S
O1033 Eu1030 2.363 1_556 S
O1033 Eu1035 2.393 . S
O1034 Eu1026 2.345 1_566 S
O1034 Eu1029 2.367 1_556 S
O1034 Eu1035 2.348 1_565 S
Eu1035 O1031 2.348 1_545 S
Eu1035 O1032 2.393 . S
Eu1035 O1033 2.393 . S
Eu1035 O1034 2.348 1_545 S
Eu1035 O1038 2.325 1_545 S
Eu1035 O1039 2.401 . S
Eu1035 O1048 2.363 . S
Eu1035 O1049 2.363 . S
O1036 C1010 1.283 . S
O1036 Eu1022 2.332 1_565 S
O1037 C1011 1.283 . S
O1037 Eu1022 2.394 . S
O1038 C1012 1.283 . S
O1038 Eu1035 2.325 1_565 S
O1039 C1013 1.283 . S
O1039 Eu1035 2.401 . S
O1040 C1014 1.283 . S
O1040 Eu1025 2.354 1_556 S
O1041 C1015 1.283 . S
O1041 Eu1025 2.372 . S
O1042 C1016 1.283 . S
O1042 Eu1026 2.353 1_556 S
O1043 C1017 1.283 . S
O1043 Eu1026 2.372 . S
O1044 C1018 1.283 . S
O1044 Eu1030 2.363 . S
O1045 C1019 1.283 . S
O1045 Eu1030 2.363 . S
O1046 C1020 1.283 . S
O1046 Eu1029 2.363 . S
O1047 C1021 1.283 . S
O1047 Eu1029 2.363 . S
O1048 C1016 1.283 . S
O1048 Eu1035 2.363 . S
O1049 C1014 1.283 . S
O1049 Eu1035 2.363 . S
O1050 C1017 1.283 . S
O1050 Eu1022 2.363 . S
O1051 C1015 1.283 . S
O1051 Eu1022 2.363 . S
O1052 C1011 1.283 . S
O1052 Eu1030 2.375 . S
O1053 C1013 1.283 . S
O1053 Eu1030 2.350 1_556 S
O1054 C1010 1.283 . S
O1054 Eu1029 2.369 . S
O1055 C1012 1.283 . S
O1055 Eu1029 2.357 1_556 S
O1056 C1021 1.283 . S
O1056 Eu1025 2.328 1_565 S
O1057 C1019 1.283 . S
O1057 Eu1025 2.398 . S
O1058 C1020 1.283 . S
O1058 Eu1026 2.329 1_565 S
O1059 C1018 1.283 . S
O1059 Eu1026 2.396 . S
C1060 O1086 1.283 . S
C1060 O1104 1.283 . S
C1061 O1087 1.283 . S
C1061 O1102 1.283 . S
C1062 O1088 1.283 . S
C1062 O1105 1.283 . S
C1063 O1089 1.283 . S
C1063 O1103 1.283 . S
C1064 O1090 1.283 . S
C1064 O1099 1.283 . S
C1065 O1091 1.283 . S
C1065 O1101 1.283 . S
C1066 O1092 1.283 . S
C1066 O1098 1.283 . S
C1067 O1093 1.283 . S
C1067 O1100 1.283 . S
C1068 O1094 1.283 . S
C1068 O1109 1.283 . S
C1069 O1095 1.283 . S
C1069 O1107 1.283 . S
C1070 O1096 1.283 . S
C1070 O1108 1.283 . S
C1071 O1097 1.283 . S
C1071 O1106 1.283 . S
Eu1072 O1073 2.333 1_454 S
Eu1072 O1074 2.408 . S
Eu1072 O1077 2.372 1_455 S
Eu1072 O1078 2.369 1_554 S
Eu1072 O1086 2.396 . S
Eu1072 O1087 2.330 1_554 S
Eu1072 O1100 2.394 . S
Eu1072 O1101 2.332 1_455 S
O1073 Eu1072 2.333 1_656 S
O1073 Eu1075 2.352 1_556 S
O1073 Eu1080 2.351 1_655 S
O1074 Eu1072 2.408 . S
O1074 Eu1076 2.390 . S
O1074 Eu1079 2.387 . S
Eu1075 O1073 2.352 1_554 S
Eu1075 O1077 2.388 . S
Eu1075 O1081 2.388 . S
Eu1075 O1082 2.352 1_554 S
Eu1075 O1090 2.363 . S
Eu1075 O1091 2.363 . S
Eu1075 O1106 2.393 . S
Eu1075 O1107 2.333 1_554 S
Eu1076 O1074 2.390 . S
Eu1076 O1078 2.350 1_554 S
Eu1076 O1083 2.350 1_554 S
Eu1076 O1084 2.390 . S
Eu1076 O1092 2.363 . S
Eu1076 O1093 2.363 . S
Eu1076 O1108 2.397 . S
Eu1076 O1109 2.329 1_554 S
O1077 Eu1072 2.372 1_655 S
O1077 Eu1075 2.388 . S
O1077 Eu1079 2.353 1_655 S
O1078 Eu1072 2.369 1_556 S
O1078 Eu1076 2.350 1_556 S
O1078 Eu1080 2.389 . S
Eu1079 O1074 2.387 . S
Eu1079 O1077 2.353 1_455 S
Eu1079 O1081 2.353 1_455 S
Eu1079 O1084 2.387 . S
Eu1079 O1096 2.391 . S
Eu1079 O1097 2.335 1_455 S
Eu1079 O1104 2.363 . S
Eu1079 O1105 2.363 . S
Eu1080 O1073 2.351 1_455 S
Eu1080 O1078 2.389 . S
Eu1080 O1082 2.351 1_455 S
Eu1080 O1083 2.389 . S
Eu1080 O1094 2.395 . S
Eu1080 O1095 2.331 1_455 S
Eu1080 O1102 2.363 . S
Eu1080 O1103 2.363 . S
O1081 Eu1075 2.388 . S
O1081 Eu1079 2.353 1_655 S
O1081 Eu1085 2.371 1_655 S
O1082 Eu1075 2.352 1_556 S
O1082 Eu1080 2.351 1_655 S
O1082 Eu1085 2.335 1_656 S
O1083 Eu1076 2.350 1_556 S
O1083 Eu1080 2.389 . S
O1083 Eu1085 2.370 1_556 S
O1084 Eu1076 2.390 . S
O1084 Eu1079 2.387 . S
O1084 Eu1085 2.406 . S
Eu1085 O1081 2.371 1_455 S
Eu1085 O1082 2.335 1_454 S
Eu1085 O1083 2.370 1_554 S
Eu1085 O1084 2.406 . S
Eu1085 O1088 2.394 . S
Eu1085 O1089 2.332 1_554 S
Eu1085 O1098 2.392 . S
Eu1085 O1099 2.334 1_455 S
O1086 C1060 1.283 . S
O1086 Eu1072 2.396 . S
O1087 C1061 1.283 . S
O1087 Eu1072 2.330 1_556 S
O1088 C1062 1.283 . S
O1088 Eu1085 2.394 . S
O1089 C1063 1.283 . S
O1089 Eu1085 2.332 1_556 S
O1090 C1064 1.283 . S
O1090 Eu1075 2.363 . S
O1091 C1065 1.283 . S
O1091 Eu1075 2.363 . S
O1092 C1066 1.283 . S
O1092 Eu1076 2.363 . S
O1093 C1067 1.283 . S
O1093 Eu1076 2.363 . S
O1094 C1068 1.283 . S
O1094 Eu1080 2.395 . S
O1095 C1069 1.283 . S
O1095 Eu1080 2.331 1_655 S
O1096 C1070 1.283 . S
O1096 Eu1079 2.391 . S
O1097 C1071 1.283 . S
O1097 Eu1079 2.335 1_655 S
O1098 C1066 1.283 . S
O1098 Eu1085 2.392 . S
O1099 C1064 1.283 . S
O1099 Eu1085 2.334 1_655 S
O1100 C1067 1.283 . S
O1100 Eu1072 2.394 . S
O1101 C1065 1.283 . S
O1101 Eu1072 2.332 1_655 S
O1102 C1061 1.283 . S
O1102 Eu1080 2.363 . S
O1103 C1063 1.283 . S
O1103 Eu1080 2.363 . S
O1104 C1060 1.283 . S
O1104 Eu1079 2.363 . S
O1105 C1062 1.283 . S
O1105 Eu1079 2.363 . S
O1106 C1071 1.283 . S
O1106 Eu1075 2.393 . S
O1107 C1069 1.283 . S
O1107 Eu1075 2.333 1_556 S
O1108 C1070 1.283 . S
O1108 Eu1076 2.397 . S
O1109 C1068 1.283 . S
O1109 Eu1076 2.329 1_556 S
C1110 O1136 1.283 . S
C1110 O1154 1.283 . S
C1111 O1137 1.283 . S
C1111 O1152 1.283 . S
C1112 O1138 1.283 . S
C1112 O1155 1.283 . S
C1113 O1139 1.283 . S
C1113 O1153 1.283 . S
C1114 O1140 1.283 . S
C1114 O1149 1.283 . S
C1115 O1141 1.283 . S
C1115 O1151 1.283 . S
C1116 O1142 1.283 . S
C1116 O1148 1.283 . S
C1117 O1143 1.283 . S
C1117 O1150 1.283 . S
C1118 O1144 1.283 . S
C1118 O1159 1.283 . S
C1119 O1145 1.283 . S
C1119 O1157 1.283 . S
C1120 O1146 1.283 . S
C1120 O1158 1.283 . S
C1121 O1147 1.283 . S
C1121 O1156 1.283 . S
Eu1122 O1123 2.370 . S
Eu1122 O1124 2.370 . S
Eu1122 O1127 2.370 . S
Eu1122 O1128 2.370 . S
Eu1122 O1136 2.363 . S
Eu1122 O1137 2.363 . S
Eu1122 O1150 2.363 . S
Eu1122 O1151 2.363 . S
O1123 Eu1122 2.370 . S
O1123 Eu1125 2.381 . S
O1123 Eu1130 2.381 . S
O1124 Eu1122 2.370 . S
O1124 Eu1126 2.381 . S
O1124 Eu1129 2.382 . S
Eu1125 O1123 2.381 . S
Eu1125 O1127 2.381 . S
Eu1125 O1131 2.359 1_554 S
Eu1125 O1132 2.359 1_554 S
Eu1125 O1140 2.345 1_554 S
Eu1125 O1141 2.381 . S
Eu1125 O1156 2.363 . S
Eu1125 O1157 2.363 . S
Eu1126 O1124 2.381 . S
Eu1126 O1128 2.381 . S
Eu1126 O1133 2.359 1_554 S
Eu1126 O1134 2.359 1_554 S
Eu1126 O1142 2.344 1_554 S
Eu1126 O1143 2.382 . S
Eu1126 O1158 2.363 . S
Eu1126 O1159 2.363 . S
O1127 Eu1122 2.370 . S
O1127 Eu1125 2.381 . S
O1127 Eu1129 2.382 . S
O1128 Eu1122 2.370 . S
O1128 Eu1126 2.381 . S
O1128 Eu1130 2.381 . S
Eu1129 O1124 2.382 . S
Eu1129 O1127 2.382 . S
Eu1129 O1131 2.359 1_554 S
Eu1129 O1134 2.359 1_554 S
Eu1129 O1146 2.363 . S
Eu1129 O1147 2.363 . S
Eu1129 O1154 2.382 . S
Eu1129 O1155 2.343 1_554 S
Eu1130 O1123 2.381 . S
Eu1130 O1128 2.381 . S
Eu1130 O1132 2.360 1_554 S
Eu1130 O1133 2.360 1_554 S
Eu1130 O1144 2.363 . S
Eu1130 O1145 2.363 . S
Eu1130 O1152 2.381 . S
Eu1130 O1153 2.345 1_554 S
O1131 Eu1125 2.359 1_556 S
O1131 Eu1129 2.359 1_556 S
O1131 Eu1135 2.370 . S
O1132 Eu1125 2.359 1_556 S
O1132 Eu1130 2.360 1_556 S
O1132 Eu1135 2.370 . S
O1133 Eu1126 2.359 1_556 S
O1133 Eu1130 2.360 1_556 S
O1133 Eu1135 2.370 . S
O1134 Eu1126 2.359 1_556 S
O1134 Eu1129 2.359 1_556 S
O1134 Eu1135 2.370 . S
Eu1135 O1131 2.370 . S
Eu1135 O1132 2.370 . S
Eu1135 O1133 2.370 . S
Eu1135 O1134 2.370 . S
Eu1135 O1138 2.363 . S
Eu1135 O1139 2.363 . S
Eu1135 O1148 2.363 . S
Eu1135 O1149 2.363 . S
O1136 C1110 1.283 . S
O1136 Eu1122 2.363 . S
O1137 C1111 1.283 . S
O1137 Eu1122 2.363 . S
O1138 C1112 1.283 . S
O1138 Eu1135 2.363 . S
O1139 C1113 1.283 . S
O1139 Eu1135 2.363 . S
O1140 C1114 1.283 . S
O1140 Eu1125 2.345 1_556 S
O1141 C1115 1.283 . S
O1141 Eu1125 2.381 . S
O1142 C1116 1.283 . S
O1142 Eu1126 2.344 1_556 S
O1143 C1117 1.283 . S
O1143 Eu1126 2.382 . S
O1144 C1118 1.283 . S
O1144 Eu1130 2.363 . S
O1145 C1119 1.283 . S
O1145 Eu1130 2.363 . S
O1146 C1120 1.283 . S
O1146 Eu1129 2.363 . S
O1147 C1121 1.283 . S
O1147 Eu1129 2.363 . S
O1148 C1116 1.283 . S
O1148 Eu1135 2.363 . S
O1149 C1114 1.283 . S
O1149 Eu1135 2.363 . S
O1150 C1117 1.283 . S
O1150 Eu1122 2.363 . S
O1151 C1115 1.283 . S
O1151 Eu1122 2.363 . S
O1152 C1111 1.283 . S
O1152 Eu1130 2.381 . S
O1153 C1113 1.283 . S
O1153 Eu1130 2.345 1_556 S
O1154 C1110 1.283 . S
O1154 Eu1129 2.382 . S
O1155 C1112 1.283 . S
O1155 Eu1129 2.343 1_556 S
O1156 C1121 1.283 . S
O1156 Eu1125 2.363 . S
O1157 C1119 1.283 . S
O1157 Eu1125 2.363 . S
O1158 C1120 1.283 . S
O1158 Eu1126 2.363 . S
O1159 C1118 1.283 . S
O1159 Eu1126 2.363 . S
C1160 O1186 1.283 . S
C1160 O1204 1.284 . S
C1161 O1187 1.283 . S
C1161 O1202 1.283 . S
C1162 O1188 1.283 . S
C1162 O1205 1.283 . S
C1163 O1189 1.283 . S
C1163 O1203 1.283 . S
C1164 O1190 1.283 . S
C1164 O1199 1.283 . S
C1165 O1191 1.283 . S
C1165 O1201 1.283 . S
C1166 O1192 1.283 . S
C1166 O1198 1.283 . S
C1167 O1193 1.283 . S
C1167 O1200 1.283 . S
C1168 O1194 1.283 . S
C1168 O1209 1.283 . S
C1169 O1195 1.283 . S
C1169 O1207 1.283 . S
C1170 O1196 1.283 . S
C1170 O1208 1.283 . S
C1171 O1197 1.283 . S
C1171 O1206 1.283 . S
Eu1172 O1173 2.347 1_455 S
Eu1172 O1174 2.394 . S
Eu1172 O1177 2.347 1_455 S
Eu1172 O1178 2.394 . S
Eu1172 O1186 2.363 . S
Eu1172 O1187 2.363 . S
Eu1172 O1200 2.403 . S
Eu1172 O1201 2.323 1_455 S
O1173 Eu1172 2.347 1_655 S
O1173 Eu1175 2.370 . S
O1173 Eu1180 2.347 1_655 S
O1174 Eu1172 2.394 . S
O1174 Eu1176 2.370 . S
O1174 Eu1179 2.394 . S
Eu1175 O1173 2.370 . S
Eu1175 O1177 2.370 . S
Eu1175 O1181 2.370 . S
Eu1175 O1182 2.370 . S
Eu1175 O1190 2.363 . S
Eu1175 O1191 2.363 . S
Eu1175 O1206 2.363 . S
Eu1175 O1207 2.363 . S
Eu1176 O1174 2.370 . S
Eu1176 O1178 2.370 . S
Eu1176 O1183 2.370 . S
Eu1176 O1184 2.370 . S
Eu1176 O1192 2.363 . S
Eu1176 O1193 2.363 . S
Eu1176 O1208 2.363 . S
Eu1176 O1209 2.363 . S
O1177 Eu1172 2.347 1_655 S
O1177 Eu1175 2.370 . S
O1177 Eu1179 2.347 1_655 S
O1178 Eu1172 2.394 . S
O1178 Eu1176 2.370 . S
O1178 Eu1180 2.394 . S
Eu1179 O1174 2.394 . S
Eu1179 O1177 2.347 1_455 S
Eu1179 O1181 2.347 1_455 S
Eu1179 O1184 2.394 . S
Eu1179 O1196 2.403 . S
Eu1179 O1197 2.323 1_455 S
Eu1179 O1204 2.363 . S
Eu1179 O1205 2.363 . S
Eu1180 O1173 2.347 1_455 S
Eu1180 O1178 2.394 . S
Eu1180 O1182 2.347 1_455 S
Eu1180 O1183 2.394 . S
Eu1180 O1194 2.402 . S
Eu1180 O1195 2.324 1_455 S
Eu1180 O1202 2.363 . S
Eu1180 O1203 2.363 . S
O1181 Eu1175 2.370 . S
O1181 Eu1179 2.347 1_655 S
O1181 Eu1185 2.347 1_655 S
O1182 Eu1175 2.370 . S
O1182 Eu1180 2.347 1_655 S
O1182 Eu1185 2.347 1_655 S
O1183 Eu1176 2.370 . S
O1183 Eu1180 2.394 . S
O1183 Eu1185 2.393 . S
O1184 Eu1176 2.370 . S
O1184 Eu1179 2.394 . S
O1184 Eu1185 2.393 . S
Eu1185 O1181 2.347 1_455 S
Eu1185 O1182 2.347 1_455 S
Eu1185 O1183 2.393 . S
Eu1185 O1184 2.393 . S
Eu1185 O1188 2.363 . S
Eu1185 O1189 2.363 . S
Eu1185 O1198 2.402 . S
Eu1185 O1199 2.324 1_455 S
O1186 C1160 1.283 . S
O1186 Eu1172 2.363 . S
O1187 C1161 1.283 . S
O1187 Eu1172 2.363 . S
O1188 C1162 1.283 . S
O1188 Eu1185 2.363 . S
O1189 C1163 1.283 . S
O1189 Eu1185 2.363 . S
O1190 C1164 1.283 . S
O1190 Eu1175 2.363 . S
O1191 C1165 1.283 . S
O1191 Eu1175 2.363 . S
O1192 C1166 1.283 . S
O1192 Eu1176 2.363 . S
O1193 C1167 1.283 . S
O1193 Eu1176 2.363 . S
O1194 C1168 1.283 . S
O1194 Eu1180 2.402 . S
O1195 C1169 1.283 . S
O1195 Eu1180 2.324 1_655 S
O1196 C1170 1.283 . S
O1196 Eu1179 2.403 . S
O1197 C1171 1.283 . S
O1197 Eu1179 2.323 1_655 S
O1198 C1166 1.283 . S
O1198 Eu1185 2.402 . S
O1199 C1164 1.283 . S
O1199 Eu1185 2.324 1_655 S
O1200 C1167 1.283 . S
O1200 Eu1172 2.403 . S
O1201 C1165 1.283 . S
O1201 Eu1172 2.323 1_655 S
O1202 C1161 1.283 . S
O1202 Eu1180 2.363 . S
O1203 C1163 1.283 . S
O1203 Eu1180 2.363 . S
O1204 C1160 1.284 . S
O1204 Eu1179 2.363 . S
O1205 C1162 1.283 . S
O1205 Eu1179 2.363 . S
O1206 C1171 1.283 . S
O1206 Eu1175 2.363 . S
O1207 C1169 1.283 . S
O1207 Eu1175 2.363 . S
O1208 C1170 1.283 . S
O1208 Eu1176 2.363 . S
O1209 C1168 1.283 . S
O1209 Eu1176 2.363 . S
C1210 O1236 1.283 . S
C1210 O1254 1.283 . S
C1211 O1237 1.283 . S
C1211 O1252 1.283 . S
C1212 O1238 1.283 . S
C1212 O1255 1.283 . S
C1213 O1239 1.283 . S
C1213 O1253 1.283 . S
C1214 O1240 1.283 . S
C1214 O1249 1.283 . S
C1215 O1241 1.283 . S
C1215 O1251 1.283 . S
C1216 O1242 1.283 . S
C1216 O1248 1.283 . S
C1217 O1243 1.283 . S
C1217 O1250 1.283 . S
C1218 O1244 1.283 . S
C1218 O1259 1.283 . S
C1219 O1245 1.283 . S
C1219 O1257 1.283 . S
C1220 O1246 1.283 . S
C1220 O1258 1.283 . S
C1221 O1247 1.283 . S
C1221 O1256 1.283 . S
Eu1222 O1223 2.370 . S
Eu1222 O1224 2.370 . S
Eu1222 O1227 2.370 . S
Eu1222 O1228 2.370 . S
Eu1222 O1236 2.363 . S
Eu1222 O1237 2.363 . S
Eu1222 O1250 2.363 . S
Eu1222 O1251 2.363 . S
O1223 Eu1222 2.370 . S
O1223 Eu1225 2.348 1_565 S
O1223 Eu1230 2.348 1_565 S
O1224 Eu1222 2.370 . S
O1224 Eu1226 2.348 1_565 S
O1224 Eu1229 2.347 1_565 S
Eu1225 O1223 2.348 1_545 S
Eu1225 O1227 2.348 1_545 S
Eu1225 O1231 2.392 . S
Eu1225 O1232 2.392 . S
Eu1225 O1240 2.400 . S
Eu1225 O1241 2.326 1_545 S
Eu1225 O1256 2.363 . S
Eu1225 O1257 2.363 . S
Eu1226 O1224 2.348 1_545 S
Eu1226 O1228 2.348 1_545 S
Eu1226 O1233 2.393 . S
Eu1226 O1234 2.393 . S
Eu1226 O1242 2.402 . S
Eu1226 O1243 2.324 1_545 S
Eu1226 O1258 2.363 . S
Eu1226 O1259 2.363 . S
O1227 Eu1222 2.370 . S
O1227 Eu1225 2.348 1_565 S
O1227 Eu1229 2.347 1_565 S
O1228 Eu1222 2.370 . S
O1228 Eu1226 2.348 1_565 S
O1228 Eu1230 2.348 1_565 S
Eu1229 O1224 2.347 1_545 S
Eu1229 O1227 2.347 1_545 S
Eu1229 O1231 2.393 . S
Eu1229 O1234 2.393 . S
Eu1229 O1246 2.363 . S
Eu1229 O1247 2.363 . S
Eu1229 O1254 2.324 1_545 S
Eu1229 O1255 2.402 . S
Eu1230 O1223 2.348 1_545 S
Eu1230 O1228 2.348 1_545 S
Eu1230 O1232 2.392 . S
Eu1230 O1233 2.392 . S
Eu1230 O1244 2.363 . S
Eu1230 O1245 2.363 . S
Eu1230 O1252 2.326 1_545 S
Eu1230 O1253 2.400 . S
O1231 Eu1225 2.392 . S
O1231 Eu1229 2.393 . S
O1231 Eu1235 2.370 . S
O1232 Eu1225 2.392 . S
O1232 Eu1230 2.392 . S
O1232 Eu1235 2.370 . S
O1233 Eu1226 2.393 . S
O1233 Eu1230 2.392 . S
O1233 Eu1235 2.370 . S
O1234 Eu1226 2.393 . S
O1234 Eu1229 2.393 . S
O1234 Eu1235 2.370 . S
Eu1235 O1231 2.370 . S
Eu1235 O1232 2.370 . S
Eu1235 O1233 2.370 . S
Eu1235 O1234 2.370 . S
Eu1235 O1238 2.363 . S
Eu1235 O1239 2.363 . S
Eu1235 O1248 2.363 . S
Eu1235 O1249 2.363 . S
O1236 C1210 1.283 . S
O1236 Eu1222 2.363 . S
O1237 C1211 1.283 . S
O1237 Eu1222 2.363 . S
O1238 C1212 1.283 . S
O1238 Eu1235 2.363 . S
O1239 C1213 1.283 . S
O1239 Eu1235 2.363 . S
O1240 C1214 1.283 . S
O1240 Eu1225 2.400 . S
O1241 C1215 1.283 . S
O1241 Eu1225 2.326 1_565 S
O1242 C1216 1.283 . S
O1242 Eu1226 2.402 . S
O1243 C1217 1.283 . S
O1243 Eu1226 2.324 1_565 S
O1244 C1218 1.283 . S
O1244 Eu1230 2.363 . S
O1245 C1219 1.283 . S
O1245 Eu1230 2.363 . S
O1246 C1220 1.283 . S
O1246 Eu1229 2.363 . S
O1247 C1221 1.283 . S
O1247 Eu1229 2.363 . S
O1248 C1216 1.283 . S
O1248 Eu1235 2.363 . S
O1249 C1214 1.283 . S
O1249 Eu1235 2.363 . S
O1250 C1217 1.283 . S
O1250 Eu1222 2.363 . S
O1251 C1215 1.283 . S
O1251 Eu1222 2.363 . S
O1252 C1211 1.283 . S
O1252 Eu1230 2.326 1_565 S
O1253 C1213 1.283 . S
O1253 Eu1230 2.400 . S
O1254 C1210 1.283 . S
O1254 Eu1229 2.324 1_565 S
O1255 C1212 1.283 . S
O1255 Eu1229 2.402 . S
O1256 C1221 1.283 . S
O1256 Eu1225 2.363 . S
O1257 C1219 1.283 . S
O1257 Eu1225 2.363 . S
O1258 C1220 1.283 . S
O1258 Eu1226 2.363 . S
O1259 C1218 1.283 . S
O1259 Eu1226 2.363 . S
C1260 C1261 1.369 . S
C1260 C1262 1.419 . S
C1260 H1264 0.930 . S
C1261 C1260 1.369 . S
C1261 C1270 1.429 . S
C1262 C1260 1.419 . S
C1262 C1263 1.363 . S
C1262 H1265 0.929 . S
C1263 C1262 1.363 . S
C1263 C1269 1.428 . S
H1264 C1260 0.930 . S
H1265 C1262 0.929 . S
S1266 N1267 1.613 . S
S1266 N1268 1.610 . S
N1267 S1266 1.613 . S
N1267 C1270 1.350 . S
N1268 S1266 1.610 . S
N1268 C1269 1.351 . S
C1269 C1263 1.428 . S
C1269 N1268 1.351 . S
C1269 C1270 1.434 . S
C1270 C1261 1.429 . S
C1270 N1267 1.350 . S
C1270 C1269 1.434 . S
C1271 C1272 1.369 . S
C1271 C1273 1.419 . S
C1271 H1275 0.930 . S
C1272 C1271 1.369 . S
C1272 C1281 1.429 . S
C1273 C1271 1.419 . S
C1273 C1274 1.363 . S
C1273 H1276 0.929 . S
C1274 C1273 1.363 . S
C1274 C1280 1.428 . S
H1275 C1271 0.930 . S
H1276 C1273 0.929 . S
S1277 N1278 1.613 . S
S1277 N1279 1.610 . S
N1278 S1277 1.613 . S
N1278 C1281 1.350 . S
N1279 S1277 1.610 . S
N1279 C1280 1.351 . S
C1280 C1274 1.428 . S
C1280 N1279 1.351 . S
C1280 C1281 1.434 . S
C1281 C1272 1.429 . S
C1281 N1278 1.350 . S
C1281 C1280 1.434 . S
C1282 C1283 1.369 . S
C1282 C1284 1.419 . S
C1282 H1286 0.930 . S
C1283 C1282 1.369 . S
C1283 C1292 1.429 . S
C1284 C1282 1.419 . S
C1284 C1285 1.363 . S
C1284 H1287 0.929 . S
C1285 C1284 1.363 . S
C1285 C1291 1.428 . S
H1286 C1282 0.930 . S
H1287 C1284 0.929 . S
S1288 N1289 1.613 . S
S1288 N1290 1.610 . S
N1289 S1288 1.613 . S
N1289 C1292 1.350 . S
N1290 S1288 1.610 . S
N1290 C1291 1.351 . S
C1291 C1285 1.428 . S
C1291 N1290 1.351 . S
C1291 C1292 1.434 . S
C1292 C1283 1.429 . S
C1292 N1289 1.350 . S
C1292 C1291 1.434 . S
C1293 C1294 1.369 . S
C1293 C1295 1.419 . S
C1293 H1297 0.930 . S
C1294 C1293 1.369 . S
C1294 C1303 1.429 . S
C1295 C1293 1.419 . S
C1295 C1296 1.363 . S
C1295 H1298 0.929 . S
C1296 C1295 1.363 . S
C1296 C1302 1.428 . S
H1297 C1293 0.930 . S
H1298 C1295 0.929 . S
S1299 N1300 1.613 . S
S1299 N1301 1.610 . S
N1300 S1299 1.613 . S
N1300 C1303 1.350 . S
N1301 S1299 1.610 . S
N1301 C1302 1.351 . S
C1302 C1296 1.428 . S
C1302 N1301 1.351 . S
C1302 C1303 1.434 . S
C1303 C1294 1.429 . S
C1303 N1300 1.350 . S
C1303 C1302 1.434 . S
C1304 C1305 1.369 . S
C1304 C1306 1.419 . S
C1304 H1308 0.930 . S
C1305 C1304 1.369 . S
C1305 C1314 1.429 . S
C1306 C1304 1.419 . S
C1306 C1307 1.363 . S
C1306 H1309 0.929 . S
C1307 C1306 1.363 . S
C1307 C1313 1.428 . S
H1308 C1304 0.930 . S
H1309 C1306 0.929 . S
S1310 N1311 1.613 . S
S1310 N1312 1.610 . S
N1311 S1310 1.613 . S
N1311 C1314 1.350 . S
N1312 S1310 1.610 . S
N1312 C1313 1.351 . S
C1313 C1307 1.428 . S
C1313 N1312 1.351 . S
C1313 C1314 1.434 . S
C1314 C1305 1.429 . S
C1314 N1311 1.350 . S
C1314 C1313 1.434 . S
C1315 C1316 1.369 . S
C1315 C1317 1.419 . S
C1315 H1319 0.930 . S
C1316 C1315 1.369 . S
C1316 C1325 1.429 . S
C1317 C1315 1.419 . S
C1317 C1318 1.363 . S
C1317 H1320 0.929 . S
C1318 C1317 1.363 . S
C1318 C1324 1.428 . S
H1319 C1315 0.930 . S
H1320 C1317 0.929 . S
S1321 N1322 1.613 . S
S1321 N1323 1.610 . S
N1322 S1321 1.613 . S
N1322 C1325 1.350 . S
N1323 S1321 1.610 . S
N1323 C1324 1.351 . S
C1324 C1318 1.428 . S
C1324 N1323 1.351 . S
C1324 C1325 1.434 . S
C1325 C1316 1.429 . S
C1325 N1322 1.350 . S
C1325 C1324 1.434 . S
C1326 C1327 1.369 . S
C1326 C1328 1.419 . S
C1326 H1330 0.930 . S
C1327 C1326 1.369 . S
C1327 C1336 1.429 . S
C1328 C1326 1.419 . S
C1328 C1329 1.363 . S
C1328 H1331 0.929 . S
C1329 C1328 1.363 . S
C1329 C1335 1.428 . S
H1330 C1326 0.930 . S
H1331 C1328 0.929 . S
S1332 N1333 1.613 . S
S1332 N1334 1.610 . S
N1333 S1332 1.613 . S
N1333 C1336 1.350 . S
N1334 S1332 1.610 . S
N1334 C1335 1.351 . S
C1335 C1329 1.428 . S
C1335 N1334 1.351 . S
C1335 C1336 1.434 . S
C1336 C1327 1.429 . S
C1336 N1333 1.350 . S
C1336 C1335 1.434 . S
C1337 C1338 1.369 . S
C1337 C1339 1.419 . S
C1337 H1341 0.930 . S
C1338 C1337 1.369 . S
C1338 C1347 1.429 . S
C1339 C1337 1.419 . S
C1339 C1340 1.363 . S
C1339 H1342 0.929 . S
C1340 C1339 1.363 . S
C1340 C1346 1.428 . S
H1341 C1337 0.930 . S
H1342 C1339 0.929 . S
S1343 N1344 1.613 . S
S1343 N1345 1.610 . S
N1344 S1343 1.613 . S
N1344 C1347 1.350 . S
N1345 S1343 1.610 . S
N1345 C1346 1.351 . S
C1346 C1340 1.428 . S
C1346 N1345 1.351 . S
C1346 C1347 1.434 . S
C1347 C1338 1.429 . S
C1347 N1344 1.350 . S
C1347 C1346 1.434 . S
C1348 C1349 1.369 . S
C1348 C1350 1.419 . S
C1348 H1352 0.930 . S
C1349 C1348 1.369 . S
C1349 C1358 1.429 . S
C1350 C1348 1.419 . S
C1350 C1351 1.363 . S
C1350 H1353 0.929 . S
C1351 C1350 1.363 . S
C1351 C1357 1.428 . S
H1352 C1348 0.930 . S
H1353 C1350 0.929 . S
S1354 N1355 1.613 . S
S1354 N1356 1.610 . S
N1355 S1354 1.613 . S
N1355 C1358 1.350 . S
N1356 S1354 1.610 . S
N1356 C1357 1.351 . S
C1357 C1351 1.428 . S
C1357 N1356 1.351 . S
C1357 C1358 1.434 . S
C1358 C1349 1.429 . S
C1358 N1355 1.350 . S
C1358 C1357 1.434 . S
C1359 C1360 1.369 . S
C1359 C1361 1.419 . S
C1359 H1363 0.930 . S
C1360 C1359 1.369 . S
C1360 C1369 1.429 . S
C1361 C1359 1.419 . S
C1361 C1362 1.363 . S
C1361 H1364 0.929 . S
C1362 C1361 1.363 . S
C1362 C1368 1.428 . S
H1363 C1359 0.930 . S
H1364 C1361 0.929 . S
S1365 N1366 1.613 . S
S1365 N1367 1.610 . S
N1366 S1365 1.613 . S
N1366 C1369 1.350 . S
N1367 S1365 1.610 . S
N1367 C1368 1.351 . S
C1368 C1362 1.428 . S
C1368 N1367 1.351 . S
C1368 C1369 1.434 . S
C1369 C1360 1.429 . S
C1369 N1366 1.350 . S
C1369 C1368 1.434 . S
C1370 C1371 1.369 . S
C1370 C1372 1.419 . S
C1370 H1374 0.930 . S
C1371 C1370 1.369 . S
C1371 C1380 1.429 . S
C1372 C1370 1.419 . S
C1372 C1373 1.363 . S
C1372 H1375 0.929 . S
C1373 C1372 1.363 . S
C1373 C1379 1.428 . S
H1374 C1370 0.930 . S
H1375 C1372 0.929 . S
S1376 N1377 1.613 . S
S1376 N1378 1.610 . S
N1377 S1376 1.613 . S
N1377 C1380 1.350 . S
N1378 S1376 1.610 . S
N1378 C1379 1.351 . S
C1379 C1373 1.428 . S
C1379 N1378 1.351 . S
C1379 C1380 1.434 . S
C1380 C1371 1.429 . S
C1380 N1377 1.350 . S
C1380 C1379 1.434 . S
C1381 C1382 1.369 . S
C1381 C1383 1.419 . S
C1381 H1385 0.930 . S
C1382 C1381 1.369 . S
C1382 C1391 1.429 . S
C1383 C1381 1.419 . S
C1383 C1384 1.363 . S
C1383 H1386 0.929 . S
C1384 C1383 1.363 . S
C1384 C1390 1.428 . S
H1385 C1381 0.930 . S
H1386 C1383 0.929 . S
S1387 N1388 1.613 . S
S1387 N1389 1.610 . S
N1388 S1387 1.613 . S
N1388 C1391 1.350 . S
N1389 S1387 1.610 . S
N1389 C1390 1.351 . S
C1390 C1384 1.428 . S
C1390 N1389 1.351 . S
C1390 C1391 1.434 . S
C1391 C1382 1.429 . S
C1391 N1388 1.350 . S
C1391 C1390 1.434 . S
C1392 C1393 1.369 . S
C1392 C1394 1.419 . S
C1392 H1396 0.930 . S
C1393 C1392 1.369 . S
C1393 C1402 1.428 1_554 S
C1394 C1392 1.419 . S
C1394 C1395 1.364 . S
C1394 H1397 0.929 . S
C1395 C1394 1.364 . S
C1395 C1401 1.427 1_554 S
H1396 C1392 0.930 . S
H1397 C1394 0.929 . S
S1398 N1399 1.613 . S
S1398 N1400 1.610 . S
N1399 S1398 1.613 . S
N1399 C1402 1.350 . S
N1400 S1398 1.610 . S
N1400 C1401 1.351 . S
C1401 C1395 1.427 1_556 S
C1401 N1400 1.351 . S
C1401 C1402 1.434 . S
C1402 C1393 1.428 1_556 S
C1402 N1399 1.350 . S
C1402 C1401 1.434 . S
C1403 C1404 1.370 . S
C1403 C1405 1.419 . S
C1403 H1407 0.930 . S
C1404 C1403 1.370 . S
C1404 C1413 1.428 1_554 S
C1405 C1403 1.419 . S
C1405 C1406 1.365 . S
C1405 H1408 0.929 . S
C1406 C1405 1.365 . S
C1406 C1412 1.427 1_554 S
H1407 C1403 0.930 . S
H1408 C1405 0.929 . S
S1409 N1410 1.613 . S
S1409 N1411 1.610 . S
N1410 S1409 1.613 . S
N1410 C1413 1.350 . S
N1411 S1409 1.610 . S
N1411 C1412 1.351 . S
C1412 C1406 1.427 1_556 S
C1412 N1411 1.351 . S
C1412 C1413 1.434 . S
C1413 C1404 1.428 1_556 S
C1413 N1410 1.350 . S
C1413 C1412 1.434 . S
C1414 C1415 1.372 . S
C1414 C1416 1.419 . S
C1414 H1418 0.930 . S
C1415 C1414 1.372 . S
C1415 C1424 1.426 1_554 S
C1416 C1414 1.419 . S
C1416 C1417 1.365 . S
C1416 H1419 0.929 . S
C1417 C1416 1.365 . S
C1417 C1423 1.426 1_554 S
H1418 C1414 0.930 . S
H1419 C1416 0.929 . S
S1420 N1421 1.613 . S
S1420 N1422 1.610 . S
N1421 S1420 1.613 . S
N1421 C1424 1.350 . S
N1422 S1420 1.610 . S
N1422 C1423 1.351 . S
C1423 C1417 1.426 1_556 S
C1423 N1422 1.351 . S
C1423 C1424 1.434 . S
C1424 C1415 1.426 1_556 S
C1424 N1421 1.350 . S
C1424 C1423 1.434 . S
C1425 C1426 1.375 . S
C1425 C1427 1.419 . S
C1425 H1429 0.930 . S
C1426 C1425 1.375 . S
C1426 C1435 1.423 1_554 S
C1427 C1425 1.419 . S
C1427 C1428 1.368 . S
C1427 H1430 0.929 . S
C1428 C1427 1.368 . S
C1428 C1434 1.424 1_554 S
H1429 C1425 0.930 . S
H1430 C1427 0.929 . S
S1431 N1432 1.613 . S
S1431 N1433 1.610 . S
N1432 S1431 1.613 . S
N1432 C1435 1.350 . S
N1433 S1431 1.610 . S
N1433 C1434 1.351 . S
C1434 C1428 1.424 1_556 S
C1434 N1433 1.351 . S
C1434 C1435 1.434 . S
C1435 C1426 1.423 1_556 S
C1435 N1432 1.350 . S
C1435 C1434 1.434 . S
C1436 C1437 1.369 1_655 S
C1436 C1438 1.419 . S
C1436 H1440 0.930 . S
C1437 C1436 1.369 1_455 S
C1437 C1446 1.429 . S
C1438 C1436 1.419 . S
C1438 C1439 1.350 1_655 S
C1438 H1441 0.929 . S
C1439 C1438 1.350 1_455 S
C1439 C1445 1.442 . S
H1440 C1436 0.930 . S
H1441 C1438 0.929 . S
S1442 N1443 1.613 . S
S1442 N1444 1.610 . S
N1443 S1442 1.613 . S
N1443 C1446 1.350 . S
N1444 S1442 1.610 . S
N1444 C1445 1.351 . S
C1445 C1439 1.442 . S
C1445 N1444 1.351 . S
C1445 C1446 1.434 . S
C1446 C1437 1.429 . S
C1446 N1443 1.350 . S
C1446 C1445 1.434 . S
C1447 C1448 1.392 . S
C1447 C1449 1.419 . S
C1447 H1451 0.930 . S
C1448 C1447 1.392 . S
C1448 C1457 1.405 1_545 S
C1449 C1447 1.419 . S
C1449 C1450 1.388 . S
C1449 H1452 0.929 . S
C1450 C1449 1.388 . S
C1450 C1456 1.403 1_545 S
H1451 C1447 0.930 . S
H1452 C1449 0.929 . S
S1453 N1454 1.613 . S
S1453 N1455 1.610 . S
N1454 S1453 1.613 . S
N1454 C1457 1.350 . S
N1455 S1453 1.610 . S
N1455 C1456 1.351 . S
C1456 C1450 1.403 1_565 S
C1456 N1455 1.351 . S
C1456 C1457 1.434 . S
C1457 C1448 1.405 1_565 S
C1457 N1454 1.350 . S
C1457 C1456 1.434 . S
C1458 C1459 1.396 . S
C1458 C1460 1.419 . S
C1458 H1462 0.930 . S
C1459 C1458 1.396 . S
C1459 C1468 1.402 1_455 S
C1460 C1458 1.419 . S
C1460 C1461 1.388 . S
C1460 H1463 0.929 . S
C1461 C1460 1.388 . S
C1461 C1467 1.404 1_455 S
H1462 C1458 0.930 . S
H1463 C1460 0.929 . S
S1464 N1465 1.613 . S
S1464 N1466 1.610 . S
N1465 S1464 1.613 . S
N1465 C1468 1.350 . S
N1466 S1464 1.610 . S
N1466 C1467 1.351 . S
C1467 C1461 1.404 1_655 S
C1467 N1466 1.351 . S
C1467 C1468 1.434 . S
C1468 C1459 1.402 1_655 S
C1468 N1465 1.350 . S
C1468 C1467 1.434 . S
C1469 C1470 1.369 1_565 S
C1469 C1471 1.419 . S
C1469 H1473 0.930 . S
C1470 C1469 1.369 1_545 S
C1470 C1479 1.429 . S
C1471 C1469 1.419 . S
C1471 C1472 1.363 1_565 S
C1471 H1474 0.929 . S
C1472 C1471 1.363 1_545 S
C1472 C1478 1.428 . S
H1473 C1469 0.930 . S
H1474 C1471 0.929 . S
S1475 N1476 1.613 . S
S1475 N1477 1.610 . S
N1476 S1475 1.613 . S
N1476 C1479 1.350 . S
N1477 S1475 1.610 . S
N1477 C1478 1.351 . S
C1478 C1472 1.428 . S
C1478 N1477 1.351 . S
C1478 C1479 1.434 . S
C1479 C1470 1.429 . S
C1479 N1476 1.350 . S
C1479 C1478 1.434 . S
C1480 C1481 1.389 . S
C1480 C1482 1.419 . S
C1480 H1484 0.930 . S
C1481 C1480 1.389 . S
C1481 C1490 1.408 1_455 S
C1482 C1480 1.419 . S
C1482 C1483 1.386 . S
C1482 H1485 0.929 . S
C1483 C1482 1.386 . S
C1483 C1489 1.405 1_455 S
H1484 C1480 0.930 . S
H1485 C1482 0.929 . S
S1486 N1487 1.613 . S
S1486 N1488 1.610 . S
N1487 S1486 1.613 . S
N1487 C1490 1.350 . S
N1488 S1486 1.610 . S
N1488 C1489 1.351 . S
C1489 C1483 1.405 1_655 S
C1489 N1488 1.351 . S
C1489 C1490 1.434 . S
C1490 C1481 1.408 1_655 S
C1490 N1487 1.350 . S
C1490 C1489 1.434 . S
C1491 C1492 1.369 1_565 S
C1491 C1493 1.419 . S
C1491 H1495 0.930 . S
C1492 C1491 1.369 1_545 S
C1492 C1501 1.429 . S
C1493 C1491 1.419 . S
C1493 C1494 1.363 1_565 S
C1493 H1496 0.929 . S
C1494 C1493 1.363 1_545 S
C1494 C1500 1.428 . S
H1495 C1491 0.930 . S
H1496 C1493 0.929 . S
S1497 N1498 1.613 . S
S1497 N1499 1.610 . S
N1498 S1497 1.613 . S
N1498 C1501 1.350 . S
N1499 S1497 1.610 . S
N1499 C1500 1.351 . S
C1500 C1494 1.428 . S
C1500 N1499 1.351 . S
C1500 C1501 1.434 . S
C1501 C1492 1.429 . S
C1501 N1498 1.350 . S
C1501 C1500 1.434 . S
C1502 C1503 1.351 1_655 S
C1502 C1504 1.419 . S
C1502 H1506 0.930 . S
C1503 C1502 1.351 1_455 S
C1503 C1512 1.448 . S
C1504 C1502 1.419 . S
C1504 C1505 1.344 1_655 S
C1504 H1507 0.929 . S
C1505 C1504 1.344 1_455 S
C1505 C1511 1.449 . S
H1506 C1502 0.930 . S
H1507 C1504 0.929 . S
S1508 N1509 1.613 . S
S1508 N1510 1.610 . S
N1509 S1508 1.613 . S
N1509 C1512 1.350 . S
N1510 S1508 1.610 . S
N1510 C1511 1.351 . S
C1511 C1505 1.449 . S
C1511 N1510 1.351 . S
C1511 C1512 1.434 . S
C1512 C1503 1.448 . S
C1512 N1509 1.350 . S
C1512 C1511 1.434 . S
C1513 C1514 1.369 1_565 S
C1513 C1515 1.419 . S
C1513 H1517 0.930 . S
C1514 C1513 1.369 1_545 S
C1514 C1523 1.429 . S
C1515 C1513 1.419 . S
C1515 C1516 1.363 1_565 S
C1515 H1518 0.929 . S
C1516 C1515 1.363 1_545 S
C1516 C1522 1.428 . S
H1517 C1513 0.930 . S
H1518 C1515 0.929 . S
S1519 N1520 1.613 . S
S1519 N1521 1.610 . S
N1520 S1519 1.613 . S
N1520 C1523 1.350 . S
N1521 S1519 1.610 . S
N1521 C1522 1.351 . S
C1522 C1516 1.428 . S
C1522 N1521 1.351 . S
C1522 C1523 1.434 . S
C1523 C1514 1.429 . S
C1523 N1520 1.350 . S
C1523 C1522 1.434 . S
C1524 C1525 1.369 1_655 S
C1524 C1526 1.419 . S
C1524 H1528 0.930 . S
C1525 C1524 1.369 1_455 S
C1525 C1534 1.429 . S
C1526 C1524 1.419 . S
C1526 C1527 1.363 1_655 S
C1526 H1529 0.929 . S
C1527 C1526 1.363 1_455 S
C1527 C1533 1.428 . S
H1528 C1524 0.930 . S
H1529 C1526 0.929 . S
S1530 N1531 1.613 . S
S1530 N1532 1.610 . S
N1531 S1530 1.613 . S
N1531 C1534 1.350 . S
N1532 S1530 1.610 . S
N1532 C1533 1.351 . S
C1533 C1527 1.428 . S
C1533 N1532 1.351 . S
C1533 C1534 1.434 . S
C1534 C1525 1.429 . S
C1534 N1531 1.350 . S
C1534 C1533 1.434 . S
C1535 C1536 1.359 1_565 S
C1535 C1537 1.419 . S
C1535 H1539 0.930 . S
C1536 C1535 1.359 1_545 S
C1536 C1545 1.440 . S
C1537 C1535 1.419 . S
C1537 C1538 1.354 1_565 S
C1537 H1540 0.929 . S
C1538 C1537 1.354 1_545 S
C1538 C1544 1.439 . S
H1539 C1535 0.930 . S
H1540 C1537 0.929 . S
S1541 N1542 1.613 . S
S1541 N1543 1.610 . S
N1542 S1541 1.613 . S
N1542 C1545 1.350 . S
N1543 S1541 1.610 . S
N1543 C1544 1.351 . S
C1544 C1538 1.439 . S
C1544 N1543 1.351 . S
C1544 C1545 1.434 . S
C1545 C1536 1.440 . S
C1545 N1542 1.350 . S
C1545 C1544 1.434 . S
C1546 C1547 1.369 1_655 S
C1546 C1548 1.419 . S
C1546 H1550 0.930 . S
C1547 C1546 1.369 1_455 S
C1547 C1556 1.429 . S
C1548 C1546 1.419 . S
C1548 C1549 1.363 1_655 S
C1548 H1551 0.929 . S
C1549 C1548 1.363 1_455 S
C1549 C1555 1.428 . S
H1550 C1546 0.930 . S
H1551 C1548 0.929 . S
S1552 N1553 1.613 . S
S1552 N1554 1.610 . S
N1553 S1552 1.613 . S
N1553 C1556 1.350 . S
N1554 S1552 1.610 . S
N1554 C1555 1.351 . S
C1555 C1549 1.428 . S
C1555 N1554 1.351 . S
C1555 C1556 1.434 . S
C1556 C1547 1.429 . S
C1556 N1553 1.350 . S
C1556 C1555 1.434 . S
C1557 C1558 1.371 . S
C1557 C1559 1.419 . S
C1557 H1561 0.930 . S
C1558 C1557 1.371 . S
C1558 C1567 1.426 1_545 S
C1559 C1557 1.419 . S
C1559 C1560 1.368 . S
C1559 H1562 0.929 . S
C1560 C1559 1.368 . S
C1560 C1566 1.424 1_545 S
H1561 C1557 0.930 . S
H1562 C1559 0.929 . S
S1563 N1564 1.613 . S
S1563 N1565 1.610 . S
N1564 S1563 1.613 . S
N1564 C1567 1.350 . S
N1565 S1563 1.610 . S
N1565 C1566 1.351 . S
C1566 C1560 1.424 1_565 S
C1566 N1565 1.351 . S
C1566 C1567 1.434 . S
C1567 C1558 1.426 1_565 S
C1567 N1564 1.350 . S
C1567 C1566 1.434 . S
C1568 C1569 1.369 1_655 S
C1568 C1570 1.419 . S
C1568 H1572 0.930 . S
C1569 C1568 1.369 1_455 S
C1569 C1578 1.429 . S
C1570 C1568 1.419 . S
C1570 C1571 1.363 1_655 S
C1570 H1573 0.929 . S
C1571 C1570 1.363 1_455 S
C1571 C1577 1.428 . S
H1572 C1568 0.930 . S
H1573 C1570 0.929 . S
S1574 N1575 1.613 . S
S1574 N1576 1.610 . S
N1575 S1574 1.613 . S
N1575 C1578 1.350 . S
N1576 S1574 1.610 . S
N1576 C1577 1.351 . S
C1577 C1571 1.428 . S
C1577 N1576 1.351 . S
C1577 C1578 1.434 . S
C1578 C1569 1.429 . S
C1578 N1575 1.350 . S
C1578 C1577 1.434 . S
C1579 C1580 1.377 . S
C1579 C1581 1.419 . S
C1579 H1583 0.930 . S
C1580 C1579 1.377 . S
C1580 C1589 1.421 1_545 S
C1581 C1579 1.419 . S
C1581 C1582 1.370 . S
C1581 H1584 0.929 . S
C1582 C1581 1.370 . S
C1582 C1588 1.421 1_545 S
H1583 C1579 0.930 . S
H1584 C1581 0.929 . S
S1585 N1586 1.613 . S
S1585 N1587 1.610 . S
N1586 S1585 1.613 . S
N1586 C1589 1.350 . S
N1587 S1585 1.610 . S
N1587 C1588 1.351 . S
C1588 C1582 1.421 1_565 S
C1588 N1587 1.351 . S
C1588 C1589 1.434 . S
C1589 C1580 1.421 1_565 S
C1589 N1586 1.350 . S
C1589 C1588 1.434 . S
C1590 C1591 1.369 . S
C1590 C1592 1.419 . S
C1590 H1594 0.930 . S
C1591 C1590 1.369 . S
C1591 C1600 1.429 1_455 S
C1592 C1590 1.419 . S
C1592 C1593 1.363 . S
C1592 H1595 0.929 . S
C1593 C1592 1.363 . S
C1593 C1599 1.428 1_455 S
H1594 C1590 0.930 . S
H1595 C1592 0.929 . S
S1596 N1597 1.613 . S
S1596 N1598 1.610 . S
N1597 S1596 1.613 . S
N1597 C1600 1.350 . S
N1598 S1596 1.610 . S
N1598 C1599 1.351 . S
C1599 C1593 1.428 1_655 S
C1599 N1598 1.351 . S
C1599 C1600 1.434 . S
C1600 C1591 1.429 1_655 S
C1600 N1597 1.350 . S
C1600 C1599 1.434 . S
C1601 C1602 1.367 1_565 S
C1601 C1603 1.419 . S
C1601 H1605 0.933 . S
C1602 C1601 1.367 1_545 S
C1602 C1611 1.432 . S
C1603 C1601 1.419 . S
C1603 C1604 1.362 1_565 S
C1603 H1606 0.930 . S
C1604 C1603 1.362 1_545 S
C1604 C1610 1.431 . S
H1605 C1601 0.933 . S
H1606 C1603 0.930 . S
S1607 N1608 1.613 . S
S1607 N1609 1.610 . S
N1608 S1607 1.613 . S
N1608 C1611 1.350 . S
N1609 S1607 1.610 . S
N1609 C1610 1.351 . S
C1610 C1604 1.431 . S
C1610 N1609 1.351 . S
C1610 C1611 1.434 . S
C1611 C1602 1.432 . S
C1611 N1608 1.350 . S
C1611 C1610 1.434 . S
C1612 C1613 1.334 1_565 S
C1612 C1614 1.419 . S
C1612 H1616 0.930 . S
C1613 C1612 1.334 1_545 S
C1613 C1622 1.465 . S
C1614 C1612 1.419 . S
C1614 C1615 1.328 1_565 S
C1614 H1617 0.929 . S
C1615 C1614 1.328 1_545 S
C1615 C1621 1.465 . S
H1616 C1612 0.930 . S
H1617 C1614 0.929 . S
S1618 N1619 1.613 . S
S1618 N1620 1.610 . S
N1619 S1618 1.613 . S
N1619 C1622 1.350 . S
N1620 S1618 1.610 . S
N1620 C1621 1.351 . S
C1621 C1615 1.465 . S
C1621 N1620 1.351 . S
C1621 C1622 1.434 . S
C1622 C1613 1.465 . S
C1622 N1619 1.350 . S
C1622 C1621 1.434 . S
C1623 C1624 1.369 1_655 S
C1623 C1625 1.419 . S
C1623 H1627 0.930 . S
C1624 C1623 1.369 1_455 S
C1624 C1633 1.429 . S
C1625 C1623 1.419 . S
C1625 C1626 1.341 1_655 S
C1625 H1628 0.929 . S
C1626 C1625 1.341 1_455 S
C1626 C1632 1.451 . S
H1627 C1623 0.930 . S
H1628 C1625 0.929 . S
S1629 N1630 1.613 . S
S1629 N1631 1.610 . S
N1630 S1629 1.613 . S
N1630 C1633 1.350 . S
N1631 S1629 1.610 . S
N1631 C1632 1.351 . S
C1632 C1626 1.451 . S
C1632 N1631 1.351 . S
C1632 C1633 1.434 . S
C1633 C1624 1.429 . S
C1633 N1630 1.350 . S
C1633 C1632 1.434 . S
C1634 C1635 1.369 1_565 S
C1634 C1636 1.419 . S
C1634 H1638 0.930 . S
C1635 C1634 1.369 1_545 S
C1635 C1644 1.429 . S
C1636 C1634 1.419 . S
C1636 C1637 1.363 1_565 S
C1636 H1639 0.929 . S
C1637 C1636 1.363 1_545 S
C1637 C1643 1.428 . S
H1638 C1634 0.930 . S
H1639 C1636 0.929 . S
S1640 N1641 1.613 . S
S1640 N1642 1.610 . S
N1641 S1640 1.613 . S
N1641 C1644 1.350 . S
N1642 S1640 1.610 . S
N1642 C1643 1.351 . S
C1643 C1637 1.428 . S
C1643 N1642 1.351 . S
C1643 C1644 1.434 . S
C1644 C1635 1.429 . S
C1644 N1641 1.350 . S
C1644 C1643 1.434 . S
C1645 C1646 1.340 1_655 S
C1645 C1647 1.419 . S
C1645 H1649 0.930 . S
C1646 C1645 1.340 1_455 S
C1646 C1655 1.459 . S
C1647 C1645 1.419 . S
C1647 C1648 1.337 1_655 S
C1647 H1650 0.929 . S
C1648 C1647 1.337 1_455 S
C1648 C1654 1.455 . S
H1649 C1645 0.930 . S
H1650 C1647 0.929 . S
S1651 N1652 1.613 . S
S1651 N1653 1.610 . S
N1652 S1651 1.613 . S
N1652 C1655 1.350 . S
N1653 S1651 1.610 . S
N1653 C1654 1.351 . S
C1654 C1648 1.455 . S
C1654 N1653 1.351 . S
C1654 C1655 1.434 . S
C1655 C1646 1.459 . S
C1655 N1652 1.350 . S
C1655 C1654 1.434 . S
C1656 C1657 1.389 . S
C1656 C1658 1.419 . S
C1656 H1660 0.930 . S
C1657 C1656 1.389 . S
C1657 C1666 1.409 1_545 S
C1658 C1656 1.419 . S
C1658 C1659 1.384 . S
C1658 H1661 0.929 . S
C1659 C1658 1.384 . S
C1659 C1665 1.408 1_545 S
H1660 C1656 0.930 . S
H1661 C1658 0.929 . S
S1662 N1663 1.613 . S
S1662 N1664 1.610 . S
N1663 S1662 1.613 . S
N1663 C1666 1.350 . S
N1664 S1662 1.610 . S
N1664 C1665 1.351 . S
C1665 C1659 1.408 1_565 S
C1665 N1664 1.351 . S
C1665 C1666 1.434 . S
C1666 C1657 1.409 1_565 S
C1666 N1663 1.350 . S
C1666 C1665 1.434 . S
C1667 C1668 1.388 . S
C1667 C1669 1.419 . S
C1667 H1671 0.930 . S
C1668 C1667 1.388 . S
C1668 C1677 1.410 1_455 S
C1669 C1667 1.419 . S
C1669 C1670 1.381 . S
C1669 H1672 0.929 . S
C1670 C1669 1.381 . S
C1670 C1676 1.411 1_455 S
H1671 C1667 0.930 . S
H1672 C1669 0.929 . S
S1673 N1674 1.613 . S
S1673 N1675 1.610 . S
N1674 S1673 1.613 . S
N1674 C1677 1.350 . S
N1675 S1673 1.610 . S
N1675 C1676 1.351 . S
C1676 C1670 1.411 1_655 S
C1676 N1675 1.351 . S
C1676 C1677 1.434 . S
C1677 C1668 1.410 1_655 S
C1677 N1674 1.350 . S
C1677 C1676 1.434 . S
C1678 C1679 1.369 . S
C1678 C1680 1.419 . S
C1678 H1682 0.930 . S
C1679 C1678 1.369 . S
C1679 C1688 1.429 1_545 S
C1680 C1678 1.419 . S
C1680 C1681 1.363 . S
C1680 H1683 0.929 . S
C1681 C1680 1.363 . S
C1681 C1687 1.428 1_545 S
H1682 C1678 0.930 . S
H1683 C1680 0.929 . S
S1684 N1685 1.613 . S
S1684 N1686 1.610 . S
N1685 S1684 1.613 . S
N1685 C1688 1.350 . S
N1686 S1684 1.610 . S
N1686 C1687 1.351 . S
C1687 C1681 1.428 1_565 S
C1687 N1686 1.351 . S
C1687 C1688 1.434 . S
C1688 C1679 1.429 1_565 S
C1688 N1685 1.350 . S
C1688 C1687 1.434 . S
C1689 C1690 1.369 1_655 S
C1689 C1691 1.419 . S
C1689 H1693 0.930 . S
C1690 C1689 1.369 1_455 S
C1690 C1699 1.429 . S
C1691 C1689 1.419 . S
C1691 C1692 1.363 1_655 S
C1691 H1694 0.929 . S
C1692 C1691 1.363 1_455 S
C1692 C1698 1.428 . S
H1693 C1689 0.930 . S
H1694 C1691 0.929 . S
S1695 N1696 1.613 . S
S1695 N1697 1.610 . S
N1696 S1695 1.613 . S
N1696 C1699 1.350 . S
N1697 S1695 1.610 . S
N1697 C1698 1.351 . S
C1698 C1692 1.428 . S
C1698 N1697 1.351 . S
C1698 C1699 1.434 . S
C1699 C1690 1.429 . S
C1699 N1696 1.350 . S
C1699 C1698 1.434 . S
C1700 C1701 1.369 1_556 S
C1700 C1702 1.419 . S
C1700 H1704 0.930 . S
C1701 C1700 1.369 1_554 S
C1701 C1710 1.429 . S
C1702 C1700 1.419 . S
C1702 C1703 1.363 1_556 S
C1702 H1705 0.929 . S
C1703 C1702 1.363 1_554 S
C1703 C1709 1.428 . S
H1704 C1700 0.930 . S
H1705 C1702 0.929 . S
S1706 N1707 1.613 . S
S1706 N1708 1.610 . S
N1707 S1706 1.613 . S
N1707 C1710 1.350 . S
N1708 S1706 1.610 . S
N1708 C1709 1.351 . S
C1709 C1703 1.428 . S
C1709 N1708 1.351 . S
C1709 C1710 1.434 . S
C1710 C1701 1.429 . S
C1710 N1707 1.350 . S
C1710 C1709 1.434 . S
C1711 C1712 1.375 . S
C1711 C1713 1.419 . S
C1711 H1715 0.930 . S
C1712 C1711 1.375 . S
C1712 C1721 1.422 1_554 S
C1713 C1711 1.419 . S
C1713 C1714 1.376 . S
C1713 H1716 0.929 . S
C1714 C1713 1.376 . S
C1714 C1720 1.415 1_554 S
H1715 C1711 0.930 . S
H1716 C1713 0.929 . S
S1717 N1718 1.613 . S
S1717 N1719 1.610 . S
N1718 S1717 1.613 . S
N1718 C1721 1.350 . S
N1719 S1717 1.610 . S
N1719 C1720 1.351 . S
C1720 C1714 1.415 1_556 S
C1720 N1719 1.351 . S
C1720 C1721 1.434 . S
C1721 C1712 1.422 1_556 S
C1721 N1718 1.350 . S
C1721 C1720 1.434 . S
C1722 C1723 1.348 1_556 S
C1722 C1724 1.419 . S
C1722 H1726 0.930 . S
C1723 C1722 1.348 1_554 S
C1723 C1732 1.451 . S
C1724 C1722 1.419 . S
C1724 C1725 1.347 1_556 S
C1724 H1727 0.929 . S
C1725 C1724 1.347 1_554 S
C1725 C1731 1.445 . S
H1726 C1722 0.930 . S
H1727 C1724 0.929 . S
S1728 N1729 1.613 . S
S1728 N1730 1.610 . S
N1729 S1728 1.613 . S
N1729 C1732 1.350 . S
N1730 S1728 1.610 . S
N1730 C1731 1.351 . S
C1731 C1725 1.445 . S
C1731 N1730 1.351 . S
C1731 C1732 1.434 . S
C1732 C1723 1.451 . S
C1732 N1729 1.350 . S
C1732 C1731 1.434 . S
C1733 C1734 1.383 . S
C1733 C1735 1.419 . S
C1733 H1737 0.930 . S
C1734 C1733 1.383 . S
C1734 C1743 1.415 1_554 S
C1735 C1733 1.419 . S
C1735 C1736 1.380 . S
C1735 H1738 0.929 . S
C1736 C1735 1.380 . S
C1736 C1742 1.411 1_554 S
H1737 C1733 0.930 . S
H1738 C1735 0.929 . S
S1739 N1740 1.613 . S
S1739 N1741 1.610 . S
N1740 S1739 1.613 . S
N1740 C1743 1.350 . S
N1741 S1739 1.610 . S
N1741 C1742 1.351 . S
C1742 C1736 1.411 1_556 S
C1742 N1741 1.351 . S
C1742 C1743 1.434 . S
C1743 C1734 1.415 1_556 S
C1743 N1740 1.350 . S
C1743 C1742 1.434 . S
C1744 C1745 1.367 1_556 S
C1744 C1746 1.419 . S
C1744 H1748 0.930 . S
C1745 C1744 1.367 1_554 S
C1745 C1754 1.431 . S
C1746 C1744 1.419 . S
C1746 C1747 1.361 1_556 S
C1746 H1749 0.929 . S
C1747 C1746 1.361 1_554 S
C1747 C1753 1.430 . S
H1748 C1744 0.930 . S
H1749 C1746 0.929 . S
S1750 N1751 1.613 . S
S1750 N1752 1.610 . S
N1751 S1750 1.613 . S
N1751 C1754 1.350 . S
N1752 S1750 1.610 . S
N1752 C1753 1.351 . S
C1753 C1747 1.430 . S
C1753 N1752 1.351 . S
C1753 C1754 1.434 . S
C1754 C1745 1.431 . S
C1754 N1751 1.350 . S
C1754 C1753 1.434 . S
C1755 C1756 1.371 . S
C1755 C1757 1.419 . S
C1755 H1759 0.930 . S
C1756 C1755 1.371 . S
C1756 C1765 1.427 1_554 S
C1757 C1755 1.419 . S
C1757 C1758 1.372 . S
C1757 H1760 0.929 . S
C1758 C1757 1.372 . S
C1758 C1764 1.419 1_554 S
H1759 C1755 0.930 . S
H1760 C1757 0.929 . S
S1761 N1762 1.613 . S
S1761 N1763 1.610 . S
N1762 S1761 1.613 . S
N1762 C1765 1.350 . S
N1763 S1761 1.610 . S
N1763 C1764 1.351 . S
C1764 C1758 1.419 1_556 S
C1764 N1763 1.351 . S
C1764 C1765 1.434 . S
C1765 C1756 1.427 1_556 S
C1765 N1762 1.350 . S
C1765 C1764 1.434 . S
C1766 C1767 1.359 1_556 S
C1766 C1768 1.419 . S
C1766 H1770 0.930 . S
C1767 C1766 1.359 1_554 S
C1767 C1776 1.439 . S
C1768 C1766 1.419 . S
C1768 C1769 1.355 1_556 S
C1768 H1771 0.929 . S
C1769 C1768 1.355 1_554 S
C1769 C1775 1.436 . S
H1770 C1766 0.930 . S
H1771 C1768 0.929 . S
S1772 N1773 1.613 . S
S1772 N1774 1.610 . S
N1773 S1772 1.613 . S
N1773 C1776 1.350 . S
N1774 S1772 1.610 . S
N1774 C1775 1.351 . S
C1775 C1769 1.436 . S
C1775 N1774 1.351 . S
C1775 C1776 1.434 . S
C1776 C1767 1.439 . S
C1776 N1773 1.350 . S
C1776 C1775 1.434 . S
C1777 C1778 1.368 1_556 S
C1777 C1779 1.419 . S
C1777 H1781 0.931 . S
C1778 C1777 1.368 1_554 S
C1778 C1787 1.430 . S
C1779 C1777 1.419 . S
C1779 C1780 1.363 1_556 S
C1779 H1782 0.929 . S
C1780 C1779 1.363 1_554 S
C1780 C1786 1.430 . S
H1781 C1777 0.931 . S
H1782 C1779 0.929 . S
S1783 N1784 1.613 . S
S1783 N1785 1.610 . S
N1784 S1783 1.613 . S
N1784 C1787 1.350 . S
N1785 S1783 1.610 . S
N1785 C1786 1.351 . S
C1786 C1780 1.430 . S
C1786 N1785 1.351 . S
C1786 C1787 1.434 . S
C1787 C1778 1.430 . S
C1787 N1784 1.350 . S
C1787 C1786 1.434 . S
C1788 C1789 1.369 . S
C1788 C1790 1.419 . S
C1788 H1792 0.930 . S
C1789 C1788 1.369 . S
C1789 C1798 1.429 . S
C1790 C1788 1.419 . S
C1790 C1791 1.363 . S
C1790 H1793 0.929 . S
C1791 C1790 1.363 . S
C1791 C1797 1.428 . S
H1792 C1788 0.930 . S
H1793 C1790 0.929 . S
S1794 N1795 1.613 . S
S1794 N1796 1.610 . S
N1795 S1794 1.613 . S
N1795 C1798 1.350 . S
N1796 S1794 1.610 . S
N1796 C1797 1.351 . S
C1797 C1791 1.428 . S
C1797 N1796 1.351 . S
C1797 C1798 1.434 . S
C1798 C1789 1.429 . S
C1798 N1795 1.350 . S
C1798 C1797 1.434 . S
C1799 C1800 1.369 . S
C1799 C1801 1.419 . S
C1799 H1803 0.930 . S
C1800 C1799 1.369 . S
C1800 C1809 1.429 . S
C1801 C1799 1.419 . S
C1801 C1802 1.363 . S
C1801 H1804 0.929 . S
C1802 C1801 1.363 . S
C1802 C1808 1.428 . S
H1803 C1799 0.930 . S
H1804 C1801 0.929 . S
S1805 N1806 1.613 . S
S1805 N1807 1.610 . S
N1806 S1805 1.613 . S
N1806 C1809 1.350 . S
N1807 S1805 1.610 . S
N1807 C1808 1.351 . S
C1808 C1802 1.428 . S
C1808 N1807 1.351 . S
C1808 C1809 1.434 . S
C1809 C1800 1.429 . S
C1809 N1806 1.350 . S
C1809 C1808 1.434 . S
C1810 C1811 1.369 . S
C1810 C1812 1.419 . S
C1810 H1814 0.930 . S
C1811 C1810 1.369 . S
C1811 C1820 1.429 . S
C1812 C1810 1.419 . S
C1812 C1813 1.363 . S
C1812 H1815 0.929 . S
C1813 C1812 1.363 . S
C1813 C1819 1.428 . S
H1814 C1810 0.930 . S
H1815 C1812 0.929 . S
S1816 N1817 1.613 . S
S1816 N1818 1.610 . S
N1817 S1816 1.613 . S
N1817 C1820 1.350 . S
N1818 S1816 1.610 . S
N1818 C1819 1.351 . S
C1819 C1813 1.428 . S
C1819 N1818 1.351 . S
C1819 C1820 1.434 . S
C1820 C1811 1.429 . S
C1820 N1817 1.350 . S
C1820 C1819 1.434 . S
C1821 C1822 1.369 . S
C1821 C1823 1.419 . S
C1821 H1825 0.930 . S
C1822 C1821 1.369 . S
C1822 C1831 1.429 . S
C1823 C1821 1.419 . S
C1823 C1824 1.363 . S
C1823 H1826 0.929 . S
C1824 C1823 1.363 . S
C1824 C1830 1.428 . S
H1825 C1821 0.930 . S
H1826 C1823 0.929 . S
S1827 N1828 1.613 . S
S1827 N1829 1.610 . S
N1828 S1827 1.613 . S
N1828 C1831 1.350 . S
N1829 S1827 1.610 . S
N1829 C1830 1.351 . S
C1830 C1824 1.428 . S
C1830 N1829 1.351 . S
C1830 C1831 1.434 . S
C1831 C1822 1.429 . S
C1831 N1828 1.350 . S
C1831 C1830 1.434 . S
C1832 C1833 1.369 . S
C1832 C1834 1.419 . S
C1832 H1836 0.930 . S
C1833 C1832 1.369 . S
C1833 C1842 1.429 . S
C1834 C1832 1.419 . S
C1834 C1835 1.363 . S
C1834 H1837 0.929 . S
C1835 C1834 1.363 . S
C1835 C1841 1.428 . S
H1836 C1832 0.930 . S
H1837 C1834 0.929 . S
S1838 N1839 1.613 . S
S1838 N1840 1.610 . S
N1839 S1838 1.613 . S
N1839 C1842 1.350 . S
N1840 S1838 1.610 . S
N1840 C1841 1.351 . S
C1841 C1835 1.428 . S
C1841 N1840 1.351 . S
C1841 C1842 1.434 . S
C1842 C1833 1.429 . S
C1842 N1839 1.350 . S
C1842 C1841 1.434 . S
C1843 C1844 1.369 . S
C1843 C1845 1.419 . S
C1843 H1847 0.930 . S
C1844 C1843 1.369 . S
C1844 C1853 1.429 . S
C1845 C1843 1.419 . S
C1845 C1846 1.363 . S
C1845 H1848 0.929 . S
C1846 C1845 1.363 . S
C1846 C1852 1.428 . S
H1847 C1843 0.930 . S
H1848 C1845 0.929 . S
S1849 N1850 1.613 . S
S1849 N1851 1.610 . S
N1850 S1849 1.613 . S
N1850 C1853 1.350 . S
N1851 S1849 1.610 . S
N1851 C1852 1.351 . S
C1852 C1846 1.428 . S
C1852 N1851 1.351 . S
C1852 C1853 1.434 . S
C1853 C1844 1.429 . S
C1853 N1850 1.350 . S
C1853 C1852 1.434 . S
C1854 C1855 1.369 . S
C1854 C1856 1.419 . S
C1854 H1858 0.930 . S
C1855 C1854 1.369 . S
C1855 C1864 1.429 . S
C1856 C1854 1.419 . S
C1856 C1857 1.363 . S
C1856 H1859 0.929 . S
C1857 C1856 1.363 . S
C1857 C1863 1.428 . S
H1858 C1854 0.930 . S
H1859 C1856 0.929 . S
S1860 N1861 1.613 . S
S1860 N1862 1.610 . S
N1861 S1860 1.613 . S
N1861 C1864 1.350 . S
N1862 S1860 1.610 . S
N1862 C1863 1.351 . S
C1863 C1857 1.428 . S
C1863 N1862 1.351 . S
C1863 C1864 1.434 . S
C1864 C1855 1.429 . S
C1864 N1861 1.350 . S
C1864 C1863 1.434 . S
C1865 C1866 1.369 . S
C1865 C1867 1.419 . S
C1865 H1869 0.930 . S
C1866 C1865 1.369 . S
C1866 C1875 1.429 . S
C1867 C1865 1.419 . S
C1867 C1868 1.363 . S
C1867 H1870 0.929 . S
C1868 C1867 1.363 . S
C1868 C1874 1.428 . S
H1869 C1865 0.930 . S
H1870 C1867 0.929 . S
S1871 N1872 1.613 . S
S1871 N1873 1.610 . S
N1872 S1871 1.613 . S
N1872 C1875 1.350 . S
N1873 S1871 1.610 . S
N1873 C1874 1.351 . S
C1874 C1868 1.428 . S
C1874 N1873 1.351 . S
C1874 C1875 1.434 . S
C1875 C1866 1.429 . S
C1875 N1872 1.350 . S
C1875 C1874 1.434 . S
C1876 C1877 1.369 . S
C1876 C1878 1.419 . S
C1876 H1880 0.930 . S
C1877 C1876 1.369 . S
C1877 C1886 1.429 . S
C1878 C1876 1.419 . S
C1878 C1879 1.363 . S
C1878 H1881 0.929 . S
C1879 C1878 1.363 . S
C1879 C1885 1.428 . S
H1880 C1876 0.930 . S
H1881 C1878 0.929 . S
S1882 N1883 1.613 . S
S1882 N1884 1.610 . S
N1883 S1882 1.613 . S
N1883 C1886 1.350 . S
N1884 S1882 1.610 . S
N1884 C1885 1.351 . S
C1885 C1879 1.428 . S
C1885 N1884 1.351 . S
C1885 C1886 1.434 . S
C1886 C1877 1.429 . S
C1886 N1883 1.350 . S
C1886 C1885 1.434 . S
C1887 C1888 1.369 . S
C1887 C1889 1.419 . S
C1887 H1891 0.930 . S
C1888 C1887 1.369 . S
C1888 C1897 1.429 . S
C1889 C1887 1.419 . S
C1889 C1890 1.363 . S
C1889 H1892 0.929 . S
C1890 C1889 1.363 . S
C1890 C1896 1.428 . S
H1891 C1887 0.930 . S
H1892 C1889 0.929 . S
S1893 N1894 1.613 . S
S1893 N1895 1.610 . S
N1894 S1893 1.613 . S
N1894 C1897 1.350 . S
N1895 S1893 1.610 . S
N1895 C1896 1.351 . S
C1896 C1890 1.428 . S
C1896 N1895 1.351 . S
C1896 C1897 1.434 . S
C1897 C1888 1.429 . S
C1897 N1894 1.350 . S
C1897 C1896 1.434 . S
C1898 C1899 1.369 . S
C1898 C1900 1.419 . S
C1898 H1902 0.930 . S
C1899 C1898 1.369 . S
C1899 C1908 1.429 . S
C1900 C1898 1.419 . S
C1900 C1901 1.363 . S
C1900 H1903 0.929 . S
C1901 C1900 1.363 . S
C1901 C1907 1.428 . S
H1902 C1898 0.930 . S
H1903 C1900 0.929 . S
S1904 N1905 1.613 . S
S1904 N1906 1.610 . S
N1905 S1904 1.613 . S
N1905 C1908 1.350 . S
N1906 S1904 1.610 . S
N1906 C1907 1.351 . S
C1907 C1901 1.428 . S
C1907 N1906 1.351 . S
C1907 C1908 1.434 . S
C1908 C1899 1.429 . S
C1908 N1905 1.350 . S
C1908 C1907 1.434 . S
C1909 C1910 1.369 . S
C1909 C1911 1.419 . S
C1909 H1913 0.930 . S
C1910 C1909 1.369 . S
C1910 C1919 1.429 . S
C1911 C1909 1.419 . S
C1911 C1912 1.363 . S
C1911 H1914 0.929 . S
C1912 C1911 1.363 . S
C1912 C1918 1.428 . S
H1913 C1909 0.930 . S
H1914 C1911 0.929 . S
S1915 N1916 1.613 . S
S1915 N1917 1.610 . S
N1916 S1915 1.613 . S
N1916 C1919 1.350 . S
N1917 S1915 1.610 . S
N1917 C1918 1.351 . S
C1918 C1912 1.428 . S
C1918 N1917 1.351 . S
C1918 C1919 1.434 . S
C1919 C1910 1.429 . S
C1919 N1916 1.350 . S
C1919 C1918 1.434 . S
C1920 C1921 1.369 . S
C1920 C1922 1.419 . S
C1920 H1924 0.930 . S
C1921 C1920 1.369 . S
C1921 C1930 1.429 . S
C1922 C1920 1.419 . S
C1922 C1923 1.363 . S
C1922 H1925 0.929 . S
C1923 C1922 1.363 . S
C1923 C1929 1.428 . S
H1924 C1920 0.930 . S
H1925 C1922 0.929 . S
S1926 N1927 1.613 . S
S1926 N1928 1.610 . S
N1927 S1926 1.613 . S
N1927 C1930 1.350 . S
N1928 S1926 1.610 . S
N1928 C1929 1.351 . S
C1929 C1923 1.428 . S
C1929 N1928 1.351 . S
C1929 C1930 1.434 . S
C1930 C1921 1.429 . S
C1930 N1927 1.350 . S
C1930 C1929 1.434 . S
C1931 C1932 1.369 . S
C1931 C1933 1.419 . S
C1931 H1935 0.930 . S
C1932 C1931 1.369 . S
C1932 C1941 1.429 . S
C1933 C1931 1.419 . S
C1933 C1934 1.363 . S
C1933 H1936 0.929 . S
C1934 C1933 1.363 . S
C1934 C1940 1.428 . S
H1935 C1931 0.930 . S
H1936 C1933 0.929 . S
S1937 N1938 1.613 . S
S1937 N1939 1.610 . S
N1938 S1937 1.613 . S
N1938 C1941 1.350 . S
N1939 S1937 1.610 . S
N1939 C1940 1.351 . S
C1940 C1934 1.428 . S
C1940 N1939 1.351 . S
C1940 C1941 1.434 . S
C1941 C1932 1.429 . S
C1941 N1938 1.350 . S
C1941 C1940 1.434 . S
C1942 C1943 1.369 . S
C1942 C1944 1.419 . S
C1942 H1946 0.930 . S
C1943 C1942 1.369 . S
C1943 C1952 1.429 . S
C1944 C1942 1.419 . S
C1944 C1945 1.363 . S
C1944 H1947 0.929 . S
C1945 C1944 1.363 . S
C1945 C1951 1.428 . S
H1946 C1942 0.930 . S
H1947 C1944 0.929 . S
S1948 N1949 1.613 . S
S1948 N1950 1.610 . S
N1949 S1948 1.613 . S
N1949 C1952 1.350 . S
N1950 S1948 1.610 . S
N1950 C1951 1.351 . S
C1951 C1945 1.428 . S
C1951 N1950 1.351 . S
C1951 C1952 1.434 . S
C1952 C1943 1.429 . S
C1952 N1949 1.350 . S
C1952 C1951 1.434 . S
C1953 C1954 1.369 . S
C1953 C1955 1.419 . S
C1953 H1957 0.930 . S
C1954 C1953 1.369 . S
C1954 C1963 1.429 . S
C1955 C1953 1.419 . S
C1955 C1956 1.363 . S
C1955 H1958 0.929 . S
C1956 C1955 1.363 . S
C1956 C1962 1.428 . S
H1957 C1953 0.930 . S
H1958 C1955 0.929 . S
S1959 N1960 1.613 . S
S1959 N1961 1.610 . S
N1960 S1959 1.613 . S
N1960 C1963 1.350 . S
N1961 S1959 1.610 . S
N1961 C1962 1.351 . S
C1962 C1956 1.428 . S
C1962 N1961 1.351 . S
C1962 C1963 1.434 . S
C1963 C1954 1.429 . S
C1963 N1960 1.350 . S
C1963 C1962 1.434 . S
C1964 C1965 1.369 . S
C1964 C1966 1.419 . S
C1964 H1968 0.930 . S
C1965 C1964 1.369 . S
C1965 C1974 1.429 . S
C1966 C1964 1.419 . S
C1966 C1967 1.363 . S
C1966 H1969 0.929 . S
C1967 C1966 1.363 . S
C1967 C1973 1.428 . S
H1968 C1964 0.930 . S
H1969 C1966 0.929 . S
S1970 N1971 1.613 . S
S1970 N1972 1.610 . S
N1971 S1970 1.613 . S
N1971 C1974 1.350 . S
N1972 S1970 1.610 . S
N1972 C1973 1.351 . S
C1973 C1967 1.428 . S
C1973 N1972 1.351 . S
C1973 C1974 1.434 . S
C1974 C1965 1.429 . S
C1974 N1971 1.350 . S
C1974 C1973 1.434 . S
C1975 C1976 1.369 . S
C1975 C1977 1.419 . S
C1975 H1979 0.930 . S
C1976 C1975 1.369 . S
C1976 C1985 1.429 . S
C1977 C1975 1.419 . S
C1977 C1978 1.363 . S
C1977 H1980 0.929 . S
C1978 C1977 1.363 . S
C1978 C1984 1.428 . S
H1979 C1975 0.930 . S
H1980 C1977 0.929 . S
S1981 N1982 1.613 . S
S1981 N1983 1.610 . S
N1982 S1981 1.613 . S
N1982 C1985 1.350 . S
N1983 S1981 1.610 . S
N1983 C1984 1.351 . S
C1984 C1978 1.428 . S
C1984 N1983 1.351 . S
C1984 C1985 1.434 . S
C1985 C1976 1.429 . S
C1985 N1982 1.350 . S
C1985 C1984 1.434 . S
C1986 C1987 1.369 . S
C1986 C1988 1.419 . S
C1986 H1990 0.930 . S
C1987 C1986 1.369 . S
C1987 C1996 1.429 . S
C1988 C1986 1.419 . S
C1988 C1989 1.363 . S
C1988 H1991 0.929 . S
C1989 C1988 1.363 . S
C1989 C1995 1.428 . S
H1990 C1986 0.930 . S
H1991 C1988 0.929 . S
S1992 N1993 1.613 . S
S1992 N1994 1.610 . S
N1993 S1992 1.613 . S
N1993 C1996 1.350 . S
N1994 S1992 1.610 . S
N1994 C1995 1.351 . S
C1995 C1989 1.428 . S
C1995 N1994 1.351 . S
C1995 C1996 1.434 . S
C1996 C1987 1.429 . S
C1996 N1993 1.350 . S
C1996 C1995 1.434 . S
C1997 C1998 1.369 . S
C1997 C1999 1.419 . S
C1997 H2001 0.930 . S
C1998 C1997 1.369 . S
C1998 C2007 1.429 . S
C1999 C1997 1.419 . S
C1999 C2000 1.363 . S
C1999 H2002 0.929 . S
C2000 C1999 1.363 . S
C2000 C2006 1.428 . S
H2001 C1997 0.930 . S
H2002 C1999 0.929 . S
S2003 N2004 1.613 . S
S2003 N2005 1.610 . S
N2004 S2003 1.613 . S
N2004 C2007 1.350 . S
N2005 S2003 1.610 . S
N2005 C2006 1.351 . S
C2006 C2000 1.428 . S
C2006 N2005 1.351 . S
C2006 C2007 1.434 . S
C2007 C1998 1.429 . S
C2007 N2004 1.350 . S
C2007 C2006 1.434 . S
C2008 C2009 1.369 . S
C2008 C2010 1.419 . S
C2008 H2012 0.930 . S
C2009 C2008 1.369 . S
C2009 C2018 1.429 . S
C2010 C2008 1.419 . S
C2010 C2011 1.363 . S
C2010 H2013 0.929 . S
C2011 C2010 1.363 . S
C2011 C2017 1.428 . S
H2012 C2008 0.930 . S
H2013 C2010 0.929 . S
S2014 N2015 1.613 . S
S2014 N2016 1.610 . S
N2015 S2014 1.613 . S
N2015 C2018 1.350 . S
N2016 S2014 1.610 . S
N2016 C2017 1.351 . S
C2017 C2011 1.428 . S
C2017 N2016 1.351 . S
C2017 C2018 1.434 . S
C2018 C2009 1.429 . S
C2018 N2015 1.350 . S
C2018 C2017 1.434 . S
C2019 C2020 1.369 . S
C2019 C2021 1.419 . S
C2019 H2023 0.930 . S
C2020 C2019 1.369 . S
C2020 C2029 1.429 . S
C2021 C2019 1.419 . S
C2021 C2022 1.363 . S
C2021 H2024 0.929 . S
C2022 C2021 1.363 . S
C2022 C2028 1.428 . S
H2023 C2019 0.930 . S
H2024 C2021 0.929 . S
S2025 N2026 1.613 . S
S2025 N2027 1.610 . S
N2026 S2025 1.613 . S
N2026 C2029 1.350 . S
N2027 S2025 1.610 . S
N2027 C2028 1.351 . S
C2028 C2022 1.428 . S
C2028 N2027 1.351 . S
C2028 C2029 1.434 . S
C2029 C2020 1.429 . S
C2029 N2026 1.350 . S
C2029 C2028 1.434 . S
C2030 C2031 1.369 . S
C2030 C2032 1.419 . S
C2030 H2034 0.930 . S
C2031 C2030 1.369 . S
C2031 C2040 1.429 . S
C2032 C2030 1.419 . S
C2032 C2033 1.363 . S
C2032 H2035 0.929 . S
C2033 C2032 1.363 . S
C2033 C2039 1.428 . S
H2034 C2030 0.930 . S
H2035 C2032 0.929 . S
S2036 N2037 1.613 . S
S2036 N2038 1.610 . S
N2037 S2036 1.613 . S
N2037 C2040 1.350 . S
N2038 S2036 1.610 . S
N2038 C2039 1.351 . S
C2039 C2033 1.428 . S
C2039 N2038 1.351 . S
C2039 C2040 1.434 . S
C2040 C2031 1.429 . S
C2040 N2037 1.350 . S
C2040 C2039 1.434 . S
C2041 C2042 1.369 . S
C2041 C2043 1.419 . S
C2041 H2045 0.930 . S
C2042 C2041 1.369 . S
C2042 C2051 1.429 . S
C2043 C2041 1.419 . S
C2043 C2044 1.363 . S
C2043 H2046 0.929 . S
C2044 C2043 1.363 . S
C2044 C2050 1.428 . S
H2045 C2041 0.930 . S
H2046 C2043 0.929 . S
S2047 N2048 1.613 . S
S2047 N2049 1.610 . S
N2048 S2047 1.613 . S
N2048 C2051 1.350 . S
N2049 S2047 1.610 . S
N2049 C2050 1.351 . S
C2050 C2044 1.428 . S
C2050 N2049 1.351 . S
C2050 C2051 1.434 . S
C2051 C2042 1.429 . S
C2051 N2048 1.350 . S
C2051 C2050 1.434 . S
C1263 C966 1.153 . S
C1261 C941 1.146 . S
C1272 C861 1.158 . S
C1274 C964 1.168 . S
C1285 C965 1.159 . S
C1283 C821 1.154 . S
C1294 C901 1.141 . S
C1296 C967 1.146 . S
C1307 C1011 1.162 . S
C1305 C661 1.157 . S
C1318 C1071 1.152 . S
C1316 C701 1.144 . S
C1327 C741 1.153 . S
C1329 C1010 1.161 . S
C1340 C1070 1.158 . S
C1338 C781 1.150 . S
C1349 C501 1.146 . S
C1351 C1012 1.155 . S
C1362 C1068 1.164 . S
C1360 C541 1.159 . S
C1371 C581 1.150 . S
C1373 C1013 1.156 . S
C1382 C621 1.153 . S
C1384 C1069 1.159 . S
C1395 C1119 1.153 . S
C1393 C461 1.147 . S
C1404 C381 1.153 . S
C1406 C1118 1.158 . S
C1415 C341 1.157 . S
C1417 C1120 1.159 . S
C1428 C1121 1.155 . S
C1426 C421 1.151 . S
C1437 C181 1.150 1_455 S
C1439 C1162 1.158 . S
C1448 C221 1.148 . S
C1450 C1221 1.148 . S
C1459 C261 1.150 1_455 S
C1461 C1160 1.165 . S
C1470 C301 1.153 . S
C1472 C1220 1.163 . S
C1483 C1161 1.159 . S
C1481 C21 1.145 1_455 S
C1494 C1218 1.170 . S
C1492 C61 1.158 . S
C1503 C101 1.138 1_455 S
C1505 C1163 1.152 . S
C1516 C1219 1.156 . S
C1514 C141 1.149 1_545 S
C1527 C963 2.247 . S
C1525 C15 2.057 . S
C1536 C42 2.086 . S
C1538 C969 2.226 . S
C1547 C82 2.088 1_455 S
C1549 C961 2.219 . S
C1558 C122 2.083 1_545 S
C1560 C968 2.226 . S
C1569 C175 2.056 . S
C1571 C960 2.248 . S
C1582 C970 2.221 . S
C1580 C202 2.089 . S
C1591 C242 2.082 1_455 S
C1593 C962 2.226 . S
C1604 C971 2.247 . S
C1602 C295 2.056 . S
C1615 C1017 2.245 . S
C1613 C135 2.049 . S
C1624 C2 2.079 1_455 S
C1626 C1060 2.223 . S
C1637 C1015 2.249 . S
C1635 C55 2.051 . S
C1648 C1062 2.247 . S
C1646 C95 2.054 . S
C1657 C215 2.055 . S
C1659 C1016 2.246 . S
C1670 C1061 2.250 . S
C1668 C255 2.055 . S
C1681 C1014 2.227 . S
C1679 C282 2.081 . S
C1692 C1063 2.224 . S
C1690 C162 2.086 1_455 S
C1703 C1067 2.221 . S
C1701 C322 2.081 . S
C1712 C375 2.047 . S
C1714 C1066 2.249 . S
C1725 C1018 2.247 . S
C1723 C335 2.051 . S
C1736 C1065 2.244 . S
C1734 C415 2.048 . S
C1745 C455 2.041 . S
C1747 C1021 2.249 . S
C1756 C442 2.084 . S
C1758 C1064 2.217 . S
C1769 C1020 2.219 . S
C1767 C362 2.089 . S
C1780 C1019 2.220 . S
C1778 C402 2.078 . S
C1791 C1113 2.247 . S
C1789 C495 2.053 . S
C1802 C1116 2.224 . S
C1800 C522 2.087 . S
C1811 C562 2.079 . S
C1813 C1112 2.223 . S
C1824 C1114 2.225 . S
C1822 C602 2.087 . S
C1835 C1110 2.250 . S
C1833 C655 2.050 . S
C1844 C682 2.082 . S
C1846 C1115 2.224 . S
C1855 C722 2.082 . S
C1857 C1111 2.225 . S
C1868 C1117 2.249 . S
C1866 C775 2.048 . S
C1879 C1171 2.244 . S
C1877 C615 2.047 . S
C1888 C482 2.086 . S
C1890 C1210 2.221 . S
C1901 C1170 2.251 . S
C1899 C535 2.046 . S
C1912 C1212 2.248 . S
C1910 C575 2.053 . S
C1923 C1169 2.246 . S
C1921 C695 2.054 . S
C1932 C735 2.049 . S
C1934 C1211 2.254 . S
C1945 C1168 2.226 . S
C1943 C762 2.082 . S
C1956 C1213 2.221 . S
C1954 C642 2.091 . S
C1967 C1217 2.245 . S
C1965 C815 2.044 . S
C1976 C855 2.044 . S
C1978 C1216 2.248 . S
C1989 C1164 2.224 . S
C1987 C802 2.087 . S
C1998 C895 2.048 . S
C2000 C1215 2.244 . S
C2011 C1167 2.246 . S
C2009 C935 2.044 . S
C2022 C1214 2.217 . S
C2020 C922 2.085 . S
C2033 C1165 2.220 . S
C2031 C842 2.086 . S
C2042 C882 2.086 . S
C2044 C1166 2.217 . S
