# Generated by pormake.
# Topology tbo, (3,4)-cn, num edge types: 1
# Building blocks:
#     Node 0, Type 0, BuildingBlock: WUSLED_clean_sbu_0, # of connection points: 3
#     Node 1, Type 0, BuildingBlock: WUSLED_clean_sbu_0, # of connection points: 3
#     Node 2, Type 0, BuildingBlock: WUSLED_clean_sbu_0, # of connection points: 3
#     Node 3, Type 0, BuildingBlock: WUSLED_clean_sbu_0, # of connection points: 3
#     Node 4, Type 0, BuildingBlock: WUSLED_clean_sbu_0, # of connection points: 3
#     Node 5, Type 0, BuildingBlock: WUSLED_clean_sbu_0, # of connection points: 3
#     Node 6, Type 0, BuildingBlock: WUSLED_clean_sbu_0, # of connection points: 3
#     Node 7, Type 0, BuildingBlock: WUSLED_clean_sbu_0, # of connection points: 3
#     Node 8, Type 0, BuildingBlock: WUSLED_clean_sbu_0, # of connection points: 3
#     Node 9, Type 0, BuildingBlock: WUSLED_clean_sbu_0, # of connection points: 3
#     Node 10, Type 0, BuildingBlock: WUSLED_clean_sbu_0, # of connection points: 3
#     Node 11, Type 0, BuildingBlock: WUSLED_clean_sbu_0, # of connection points: 3
#     Node 12, Type 0, BuildingBlock: WUSLED_clean_sbu_0, # of connection points: 3
#     Node 13, Type 0, BuildingBlock: WUSLED_clean_sbu_0, # of connection points: 3
#     Node 14, Type 0, BuildingBlock: WUSLED_clean_sbu_0, # of connection points: 3
#     Node 15, Type 0, BuildingBlock: WUSLED_clean_sbu_0, # of connection points: 3
#     Node 16, Type 0, BuildingBlock: WUSLED_clean_sbu_0, # of connection points: 3
#     Node 17, Type 0, BuildingBlock: WUSLED_clean_sbu_0, # of connection points: 3
#     Node 18, Type 0, BuildingBlock: WUSLED_clean_sbu_0, # of connection points: 3
#     Node 19, Type 0, BuildingBlock: WUSLED_clean_sbu_0, # of connection points: 3
#     Node 20, Type 0, BuildingBlock: WUSLED_clean_sbu_0, # of connection points: 3
#     Node 21, Type 0, BuildingBlock: WUSLED_clean_sbu_0, # of connection points: 3
#     Node 22, Type 0, BuildingBlock: WUSLED_clean_sbu_0, # of connection points: 3
#     Node 23, Type 0, BuildingBlock: WUSLED_clean_sbu_0, # of connection points: 3
#     Node 24, Type 0, BuildingBlock: WUSLED_clean_sbu_0, # of connection points: 3
#     Node 25, Type 0, BuildingBlock: WUSLED_clean_sbu_0, # of connection points: 3
#     Node 26, Type 0, BuildingBlock: WUSLED_clean_sbu_0, # of connection points: 3
#     Node 27, Type 0, BuildingBlock: WUSLED_clean_sbu_0, # of connection points: 3
#     Node 28, Type 0, BuildingBlock: WUSLED_clean_sbu_0, # of connection points: 3
#     Node 29, Type 0, BuildingBlock: WUSLED_clean_sbu_0, # of connection points: 3
#     Node 30, Type 0, BuildingBlock: WUSLED_clean_sbu_0, # of connection points: 3
#     Node 31, Type 0, BuildingBlock: WUSLED_clean_sbu_0, # of connection points: 3
#     Node 32, Type 1, BuildingBlock: ESEHIV_clean_sbu_0, # of connection points: 4
#     Node 33, Type 1, BuildingBlock: ESEHIV_clean_sbu_0, # of connection points: 4
#     Node 34, Type 1, BuildingBlock: ESEHIV_clean_sbu_0, # of connection points: 4
#     Node 35, Type 1, BuildingBlock: ESEHIV_clean_sbu_0, # of connection points: 4
#     Node 36, Type 1, BuildingBlock: ESEHIV_clean_sbu_0, # of connection points: 4
#     Node 37, Type 1, BuildingBlock: ESEHIV_clean_sbu_0, # of connection points: 4
#     Node 38, Type 1, BuildingBlock: ESEHIV_clean_sbu_0, # of connection points: 4
#     Node 39, Type 1, BuildingBlock: ESEHIV_clean_sbu_0, # of connection points: 4
#     Node 40, Type 1, BuildingBlock: ESEHIV_clean_sbu_0, # of connection points: 4
#     Node 41, Type 1, BuildingBlock: ESEHIV_clean_sbu_0, # of connection points: 4
#     Node 42, Type 1, BuildingBlock: ESEHIV_clean_sbu_0, # of connection points: 4
#     Node 43, Type 1, BuildingBlock: ESEHIV_clean_sbu_0, # of connection points: 4
#     Node 44, Type 1, BuildingBlock: ESEHIV_clean_sbu_0, # of connection points: 4
#     Node 45, Type 1, BuildingBlock: ESEHIV_clean_sbu_0, # of connection points: 4
#     Node 46, Type 1, BuildingBlock: ESEHIV_clean_sbu_0, # of connection points: 4
#     Node 47, Type 1, BuildingBlock: ESEHIV_clean_sbu_0, # of connection points: 4
#     Node 48, Type 1, BuildingBlock: ESEHIV_clean_sbu_0, # of connection points: 4
#     Node 49, Type 1, BuildingBlock: ESEHIV_clean_sbu_0, # of connection points: 4
#     Node 50, Type 1, BuildingBlock: ESEHIV_clean_sbu_0, # of connection points: 4
#     Node 51, Type 1, BuildingBlock: ESEHIV_clean_sbu_0, # of connection points: 4
#     Node 52, Type 1, BuildingBlock: ESEHIV_clean_sbu_0, # of connection points: 4
#     Node 53, Type 1, BuildingBlock: ESEHIV_clean_sbu_0, # of connection points: 4
#     Node 54, Type 1, BuildingBlock: ESEHIV_clean_sbu_0, # of connection points: 4
#     Node 55, Type 1, BuildingBlock: ESEHIV_clean_sbu_0, # of connection points: 4
#     Edge 56, Type (0, 1), BuildingBlock: TEMPAE_clean_linker_10, # of connection points: 2
#     Edge 57, Type (0, 1), BuildingBlock: TEMPAE_clean_linker_10, # of connection points: 2
#     Edge 58, Type (0, 1), BuildingBlock: TEMPAE_clean_linker_10, # of connection points: 2
#     Edge 59, Type (0, 1), BuildingBlock: TEMPAE_clean_linker_10, # of connection points: 2
#     Edge 60, Type (0, 1), BuildingBlock: TEMPAE_clean_linker_10, # of connection points: 2
#     Edge 61, Type (0, 1), BuildingBlock: TEMPAE_clean_linker_10, # of connection points: 2
#     Edge 62, Type (0, 1), BuildingBlock: TEMPAE_clean_linker_10, # of connection points: 2
#     Edge 63, Type (0, 1), BuildingBlock: TEMPAE_clean_linker_10, # of connection points: 2
#     Edge 64, Type (0, 1), BuildingBlock: TEMPAE_clean_linker_10, # of connection points: 2
#     Edge 65, Type (0, 1), BuildingBlock: TEMPAE_clean_linker_10, # of connection points: 2
#     Edge 66, Type (0, 1), BuildingBlock: TEMPAE_clean_linker_10, # of connection points: 2
#     Edge 67, Type (0, 1), BuildingBlock: TEMPAE_clean_linker_10, # of connection points: 2
#     Edge 68, Type (0, 1), BuildingBlock: TEMPAE_clean_linker_10, # of connection points: 2
#     Edge 69, Type (0, 1), BuildingBlock: TEMPAE_clean_linker_10, # of connection points: 2
#     Edge 70, Type (0, 1), BuildingBlock: TEMPAE_clean_linker_10, # of connection points: 2
#     Edge 71, Type (0, 1), BuildingBlock: TEMPAE_clean_linker_10, # of connection points: 2
#     Edge 72, Type (0, 1), BuildingBlock: TEMPAE_clean_linker_10, # of connection points: 2
#     Edge 73, Type (0, 1), BuildingBlock: TEMPAE_clean_linker_10, # of connection points: 2
#     Edge 74, Type (0, 1), BuildingBlock: TEMPAE_clean_linker_10, # of connection points: 2
#     Edge 75, Type (0, 1), BuildingBlock: TEMPAE_clean_linker_10, # of connection points: 2
#     Edge 76, Type (0, 1), BuildingBlock: TEMPAE_clean_linker_10, # of connection points: 2
#     Edge 77, Type (0, 1), BuildingBlock: TEMPAE_clean_linker_10, # of connection points: 2
#     Edge 78, Type (0, 1), BuildingBlock: TEMPAE_clean_linker_10, # of connection points: 2
#     Edge 79, Type (0, 1), BuildingBlock: TEMPAE_clean_linker_10, # of connection points: 2
#     Edge 80, Type (0, 1), BuildingBlock: TEMPAE_clean_linker_10, # of connection points: 2
#     Edge 81, Type (0, 1), BuildingBlock: TEMPAE_clean_linker_10, # of connection points: 2
#     Edge 82, Type (0, 1), BuildingBlock: TEMPAE_clean_linker_10, # of connection points: 2
#     Edge 83, Type (0, 1), BuildingBlock: TEMPAE_clean_linker_10, # of connection points: 2
#     Edge 84, Type (0, 1), BuildingBlock: TEMPAE_clean_linker_10, # of connection points: 2
#     Edge 85, Type (0, 1), BuildingBlock: TEMPAE_clean_linker_10, # of connection points: 2
#     Edge 86, Type (0, 1), BuildingBlock: TEMPAE_clean_linker_10, # of connection points: 2
#     Edge 87, Type (0, 1), BuildingBlock: TEMPAE_clean_linker_10, # of connection points: 2
#     Edge 88, Type (0, 1), BuildingBlock: TEMPAE_clean_linker_10, # of connection points: 2
#     Edge 89, Type (0, 1), BuildingBlock: TEMPAE_clean_linker_10, # of connection points: 2
#     Edge 90, Type (0, 1), BuildingBlock: TEMPAE_clean_linker_10, # of connection points: 2
#     Edge 91, Type (0, 1), BuildingBlock: TEMPAE_clean_linker_10, # of connection points: 2
#     Edge 92, Type (0, 1), BuildingBlock: TEMPAE_clean_linker_10, # of connection points: 2
#     Edge 93, Type (0, 1), BuildingBlock: TEMPAE_clean_linker_10, # of connection points: 2
#     Edge 94, Type (0, 1), BuildingBlock: TEMPAE_clean_linker_10, # of connection points: 2
#     Edge 95, Type (0, 1), BuildingBlock: TEMPAE_clean_linker_10, # of connection points: 2
#     Edge 96, Type (0, 1), BuildingBlock: TEMPAE_clean_linker_10, # of connection points: 2
#     Edge 97, Type (0, 1), BuildingBlock: TEMPAE_clean_linker_10, # of connection points: 2
#     Edge 98, Type (0, 1), BuildingBlock: TEMPAE_clean_linker_10, # of connection points: 2
#     Edge 99, Type (0, 1), BuildingBlock: TEMPAE_clean_linker_10, # of connection points: 2
#     Edge 100, Type (0, 1), BuildingBlock: TEMPAE_clean_linker_10, # of connection points: 2
#     Edge 101, Type (0, 1), BuildingBlock: TEMPAE_clean_linker_10, # of connection points: 2
#     Edge 102, Type (0, 1), BuildingBlock: TEMPAE_clean_linker_10, # of connection points: 2
#     Edge 103, Type (0, 1), BuildingBlock: TEMPAE_clean_linker_10, # of connection points: 2
#     Edge 104, Type (0, 1), BuildingBlock: TEMPAE_clean_linker_10, # of connection points: 2
#     Edge 105, Type (0, 1), BuildingBlock: TEMPAE_clean_linker_10, # of connection points: 2
#     Edge 106, Type (0, 1), BuildingBlock: TEMPAE_clean_linker_10, # of connection points: 2
#     Edge 107, Type (0, 1), BuildingBlock: TEMPAE_clean_linker_10, # of connection points: 2
#     Edge 108, Type (0, 1), BuildingBlock: TEMPAE_clean_linker_10, # of connection points: 2
#     Edge 109, Type (0, 1), BuildingBlock: TEMPAE_clean_linker_10, # of connection points: 2
#     Edge 110, Type (0, 1), BuildingBlock: TEMPAE_clean_linker_10, # of connection points: 2
#     Edge 111, Type (0, 1), BuildingBlock: TEMPAE_clean_linker_10, # of connection points: 2
#     Edge 112, Type (0, 1), BuildingBlock: TEMPAE_clean_linker_10, # of connection points: 2
#     Edge 113, Type (0, 1), BuildingBlock: TEMPAE_clean_linker_10, # of connection points: 2
#     Edge 114, Type (0, 1), BuildingBlock: TEMPAE_clean_linker_10, # of connection points: 2
#     Edge 115, Type (0, 1), BuildingBlock: TEMPAE_clean_linker_10, # of connection points: 2
#     Edge 116, Type (0, 1), BuildingBlock: TEMPAE_clean_linker_10, # of connection points: 2
#     Edge 117, Type (0, 1), BuildingBlock: TEMPAE_clean_linker_10, # of connection points: 2
#     Edge 118, Type (0, 1), BuildingBlock: TEMPAE_clean_linker_10, # of connection points: 2
#     Edge 119, Type (0, 1), BuildingBlock: TEMPAE_clean_linker_10, # of connection points: 2
#     Edge 120, Type (0, 1), BuildingBlock: TEMPAE_clean_linker_10, # of connection points: 2
#     Edge 121, Type (0, 1), BuildingBlock: TEMPAE_clean_linker_10, # of connection points: 2
#     Edge 122, Type (0, 1), BuildingBlock: TEMPAE_clean_linker_10, # of connection points: 2
#     Edge 123, Type (0, 1), BuildingBlock: TEMPAE_clean_linker_10, # of connection points: 2
#     Edge 124, Type (0, 1), BuildingBlock: TEMPAE_clean_linker_10, # of connection points: 2
#     Edge 125, Type (0, 1), BuildingBlock: TEMPAE_clean_linker_10, # of connection points: 2
#     Edge 126, Type (0, 1), BuildingBlock: TEMPAE_clean_linker_10, # of connection points: 2
#     Edge 127, Type (0, 1), BuildingBlock: TEMPAE_clean_linker_10, # of connection points: 2
#     Edge 128, Type (0, 1), BuildingBlock: TEMPAE_clean_linker_10, # of connection points: 2
#     Edge 129, Type (0, 1), BuildingBlock: TEMPAE_clean_linker_10, # of connection points: 2
#     Edge 130, Type (0, 1), BuildingBlock: TEMPAE_clean_linker_10, # of connection points: 2
#     Edge 131, Type (0, 1), BuildingBlock: TEMPAE_clean_linker_10, # of connection points: 2
#     Edge 132, Type (0, 1), BuildingBlock: TEMPAE_clean_linker_10, # of connection points: 2
#     Edge 133, Type (0, 1), BuildingBlock: TEMPAE_clean_linker_10, # of connection points: 2
#     Edge 134, Type (0, 1), BuildingBlock: TEMPAE_clean_linker_10, # of connection points: 2
#     Edge 135, Type (0, 1), BuildingBlock: TEMPAE_clean_linker_10, # of connection points: 2
#     Edge 136, Type (0, 1), BuildingBlock: TEMPAE_clean_linker_10, # of connection points: 2
#     Edge 137, Type (0, 1), BuildingBlock: TEMPAE_clean_linker_10, # of connection points: 2
#     Edge 138, Type (0, 1), BuildingBlock: TEMPAE_clean_linker_10, # of connection points: 2
#     Edge 139, Type (0, 1), BuildingBlock: TEMPAE_clean_linker_10, # of connection points: 2
#     Edge 140, Type (0, 1), BuildingBlock: TEMPAE_clean_linker_10, # of connection points: 2
#     Edge 141, Type (0, 1), BuildingBlock: TEMPAE_clean_linker_10, # of connection points: 2
#     Edge 142, Type (0, 1), BuildingBlock: TEMPAE_clean_linker_10, # of connection points: 2
#     Edge 143, Type (0, 1), BuildingBlock: TEMPAE_clean_linker_10, # of connection points: 2
#     Edge 144, Type (0, 1), BuildingBlock: TEMPAE_clean_linker_10, # of connection points: 2
#     Edge 145, Type (0, 1), BuildingBlock: TEMPAE_clean_linker_10, # of connection points: 2
#     Edge 146, Type (0, 1), BuildingBlock: TEMPAE_clean_linker_10, # of connection points: 2
#     Edge 147, Type (0, 1), BuildingBlock: TEMPAE_clean_linker_10, # of connection points: 2
#     Edge 148, Type (0, 1), BuildingBlock: TEMPAE_clean_linker_10, # of connection points: 2
#     Edge 149, Type (0, 1), BuildingBlock: TEMPAE_clean_linker_10, # of connection points: 2
#     Edge 150, Type (0, 1), BuildingBlock: TEMPAE_clean_linker_10, # of connection points: 2
#     Edge 151, Type (0, 1), BuildingBlock: TEMPAE_clean_linker_10, # of connection points: 2
# Relax obj value: 0.001
# Max RMSD: 0.116
# Mean RMSD: 0.047
data_MOF--net-tbo--node1-WUSLED_clean_sbu_0--node2-ESEHIV_clean_sbu_0--edge1-TEMPAE_clean_linker_10
_symmetry_space_group_name_H-M    P1
_symmetry_Int_Tables_number       1
_symmetry_cell_setting            triclinic
loop_
_symmetry_equiv_pos_as_xyz
'x, y, z'
_cell_length_a     98.426054
_cell_length_b     98.612077
_cell_length_c     98.540966
_cell_angle_alpha  89.578607
_cell_angle_beta   92.021652
_cell_angle_gamma 91.461604
loop_
_atom_site_label
_atom_site_type_symbol
_atom_site_fract_x
_atom_site_fract_y
_atom_site_fract_z
_atom_type_partial_charge
C0 C 0.18427 0.13456 0.21433 0.0
C1 C 0.19751 0.13159 0.21054 0.0
C2 C 0.19713 0.11059 0.22425 0.0
C3 C 0.20385 0.11973 0.21543 0.0
C4 C 0.18386 0.11373 0.22792 0.0
C5 C 0.17756 0.12547 0.22301 0.0
U6 U 0.17498 0.16841 0.19371 0.0
O7 O 0.15407 0.17517 0.18929 0.0
O8 O 0.16755 0.187 0.20308 0.0
C9 C 0.15518 0.18544 0.19773 0.0
C10 C 0.17719 0.1472 0.21018 0.0
C11 C 0.14345 0.18796 0.20663 0.0
C12 C 0.13343 0.20124 0.22451 0.0
C13 C 0.14478 0.1974 0.21729 0.0
C14 C 0.11905 0.18619 0.21076 0.0
C15 C 0.12033 0.19585 0.22124 0.0
C16 C 0.13041 0.18235 0.20355 0.0
C17 C 0.19505 0.18233 0.16218 0.0
C18 C 0.19107 0.19062 0.13888 0.0
C19 C 0.21169 0.19739 0.15127 0.0
C20 C 0.20748 0.18974 0.16255 0.0
C21 C 0.20365 0.19784 0.13915 0.0
C22 C 0.18686 0.18297 0.15018 0.0
C23 C 0.19178 0.1728 0.17364 0.0
O24 O 0.1835 0.15892 0.21242 0.0
O25 O 0.16969 0.14707 0.19887 0.0
O26 O 0.18062 0.16521 0.1725 0.0
O27 O 0.19424 0.17711 0.18611 0.0
H28 H 0.20295 0.13845 0.20389 0.0
H29 H 0.214 0.1177 0.21221 0.0
H30 H 0.17837 0.10728 0.23489 0.0
H31 H 0.16741 0.12757 0.22622 0.0
H32 H 0.13489 0.20882 0.23235 0.0
H33 H 0.15457 0.20219 0.2198 0.0
H34 H 0.10922 0.18164 0.20802 0.0
H35 H 0.12887 0.1752 0.19532 0.0
H36 H 0.18445 0.1908 0.12987 0.0
H37 H 0.22151 0.20258 0.15193 0.0
H38 H 0.2142 0.1893 0.17148 0.0
H39 H 0.17728 0.17732 0.14938 0.0
C40 C 0.82939 0.1924 0.14287 0.0
C41 C 0.83928 0.19939 0.13536 0.0
C42 C 0.82171 0.20789 0.11934 0.0
C43 C 0.83549 0.20704 0.12374 0.0
C44 C 0.81189 0.20094 0.12703 0.0
C45 C 0.81569 0.19334 0.13859 0.0
U46 U 0.85089 0.18087 0.17508 0.0
O47 O 0.8435 0.17179 0.19409 0.0
O48 O 0.85649 0.16003 0.18121 0.0
C49 C 0.84927 0.1601 0.19218 0.0
C50 C 0.83295 0.18343 0.15466 0.0
C51 C 0.84163 0.14734 0.19583 0.0
C52 C 0.82139 0.13525 0.20398 0.0
C53 C 0.82774 0.14711 0.19884 0.0
C54 C 0.84258 0.12355 0.20304 0.0
C55 C 0.82875 0.12329 0.20634 0.0
C56 C 0.84888 0.13535 0.19789 0.0
C57 C 0.88314 0.20347 0.18621 0.0
C58 C 0.89594 0.20652 0.20773 0.0
C59 C 0.90518 0.21547 0.187 0.0
C60 C 0.89369 0.21044 0.17967 0.0
C61 C 0.90651 0.21366 0.20118 0.0
C62 C 0.88439 0.20149 0.20034 0.0
C63 C 0.87075 0.1993 0.17802 0.0
O64 O 0.84407 0.17639 0.15399 0.0
O65 O 0.83119 0.18825 0.16686 0.0
O66 O 0.85889 0.20022 0.18364 0.0
O67 O 0.87153 0.18851 0.17036 0.0
H68 H 0.84994 0.19886 0.13839 0.0
H69 H 0.84337 0.21234 0.11826 0.0
H70 H 0.80123 0.20109 0.12395 0.0
H71 H 0.80786 0.18797 0.1441 0.0
H72 H 0.8107 0.13551 0.20617 0.0
H73 H 0.82182 0.15616 0.1975 0.0
H74 H 0.84875 0.11475 0.20488 0.0
H75 H 0.85964 0.13523 0.19592 0.0
H76 H 0.89662 0.20473 0.21858 0.0
H77 H 0.91288 0.22106 0.18155 0.0
H78 H 0.89293 0.21224 0.16881 0.0
H79 H 0.8764 0.19618 0.20569 0.0
C80 C 0.81334 0.83711 0.13217 0.0
C81 C 0.82359 0.83083 0.12505 0.0
C82 C 0.80666 0.82114 0.10861 0.0
C83 C 0.82029 0.82295 0.11342 0.0
C84 C 0.7965 0.82742 0.11591 0.0
C85 C 0.7998 0.83522 0.12748 0.0
U86 U 0.8329 0.84995 0.16547 0.0
O87 O 0.83659 0.87116 0.17213 0.0
O88 O 0.82396 0.85745 0.18424 0.0
C89 C 0.82889 0.86986 0.18275 0.0
C90 C 0.81626 0.8462 0.14405 0.0
C91 C 0.82007 0.88144 0.1864 0.0
C92 C 0.81072 0.90403 0.18224 0.0
C93 C 0.81765 0.89261 0.17771 0.0
C94 C 0.80837 0.89339 0.20418 0.0
C95 C 0.80607 0.90473 0.19564 0.0
C96 C 0.81521 0.88201 0.19964 0.0
C97 C 0.86486 0.82763 0.17756 0.0
C98 C 0.8873 0.8304 0.18895 0.0
C99 C 0.87785 0.80789 0.18494 0.0
C100 C 0.86615 0.81352 0.17889 0.0
C101 C 0.88873 0.81618 0.19004 0.0
C102 C 0.87556 0.83605 0.18273 0.0
C103 C 0.85296 0.8328 0.16938 0.0
O104 O 0.81392 0.84116 0.15615 0.0
O105 O 0.82727 0.85403 0.14394 0.0
O106 O 0.85424 0.84432 0.16267 0.0
O107 O 0.8407 0.83068 0.17397 0.0
H108 H 0.83414 0.83208 0.1284 0.0
H109 H 0.82844 0.81823 0.10824 0.0
H110 H 0.78593 0.82661 0.11251 0.0
H111 H 0.79169 0.84003 0.13266 0.0
H112 H 0.80909 0.91236 0.17521 0.0
H113 H 0.82132 0.89264 0.16748 0.0
H114 H 0.80532 0.89344 0.21462 0.0
H115 H 0.81709 0.87375 0.20671 0.0
H116 H 0.89526 0.83722 0.19285 0.0
H117 H 0.87849 0.79696 0.18519 0.0
H118 H 0.85822 0.80674 0.17479 0.0
H119 H 0.87496 0.84697 0.18178 0.0
C120 C 0.13775 0.82051 0.18782 0.0
C121 C 0.12567 0.82781 0.1861 0.0
C122 C 0.11389 0.81291 0.20223 0.0
C123 C 0.11396 0.8241 0.19322 0.0
C124 C 0.12609 0.80584 0.20417 0.0
C125 C 0.13778 0.80954 0.19706 0.0
U126 U 0.17117 0.8394 0.17599 0.0
O127 O 0.18993 0.83056 0.16856 0.0
O128 O 0.17776 0.84371 0.15515 0.0
C129 C 0.18854 0.83613 0.15644 0.0
C130 C 0.14968 0.82307 0.17895 0.0
C131 C 0.19294 0.82834 0.14443 0.0
C132 C 0.19209 0.82407 0.11994 0.0
C133 C 0.18631 0.82941 0.13157 0.0
C134 C 0.21111 0.81623 0.13372 0.0
C135 C 0.20474 0.81762 0.12076 0.0
C136 C 0.20532 0.82151 0.14532 0.0
C137 C 0.18573 0.87075 0.1966 0.0
C138 C 0.19822 0.89159 0.19069 0.0
C139 C 0.1987 0.88365 0.21396 0.0
C140 C 0.19035 0.87249 0.21014 0.0
C141 C 0.20268 0.89347 0.20433 0.0
C142 C 0.18986 0.88038 0.18686 0.0
C143 C 0.17585 0.85944 0.1933 0.0
O144 O 0.14964 0.83392 0.1711 0.0
O145 O 0.16186 0.82054 0.18414 0.0
O146 O 0.18006 0.84704 0.19546 0.0
O147 O 0.16819 0.86054 0.18216 0.0
H148 H 0.1251 0.83617 0.17894 0.0
H149 H 0.1048 0.82974 0.19125 0.0
H150 H 0.12661 0.79729 0.21111 0.0
H151 H 0.14678 0.80355 0.19856 0.0
H152 H 0.18671 0.82521 0.11024 0.0
H153 H 0.17686 0.83475 0.1304 0.0
H154 H 0.22093 0.81157 0.13489 0.0
H155 H 0.21088 0.82076 0.15497 0.0
H156 H 0.20119 0.89881 0.18294 0.0
H157 H 0.2017 0.88477 0.22458 0.0
H158 H 0.18722 0.86533 0.21789 0.0
H159 H 0.18648 0.87936 0.17634 0.0
C160 C 0.1406 0.82538 0.834 0.0
C161 C 0.14046 0.82876 0.8201 0.0
C162 C 0.11687 0.82023 0.81716 0.0
C163 C 0.12873 0.82621 0.81178 0.0
C164 C 0.11712 0.81703 0.83113 0.0
C165 C 0.12878 0.81958 0.83939 0.0
U166 U 0.17459 0.84296 0.84771 0.0
O167 O 0.18152 0.84564 0.86912 0.0
O168 O 0.19326 0.83322 0.85571 0.0
C169 C 0.19184 0.83753 0.86817 0.0
C170 C 0.15297 0.827 0.84307 0.0
C171 C 0.19477 0.82787 0.87973 0.0
C172 C 0.19406 0.82227 0.90402 0.0
C173 C 0.18963 0.82999 0.8927 0.0
C174 C 0.20875 0.80987 0.88976 0.0
C175 C 0.2039 0.81223 0.90282 0.0
C176 C 0.20431 0.81758 0.87845 0.0
C177 C 0.1866 0.87679 0.82851 0.0
C178 C 0.20569 0.88772 0.817 0.0
C179 C 0.18737 0.90133 0.82449 0.0
C180 C 0.18091 0.88965 0.8297 0.0
C181 C 0.19977 0.90057 0.81783 0.0
C182 C 0.19919 0.87601 0.8222 0.0
C183 C 0.17821 0.86441 0.83183 0.0
O184 O 0.16484 0.82505 0.83778 0.0
O185 O 0.15324 0.83715 0.85165 0.0
O186 O 0.17105 0.86454 0.84284 0.0
O187 O 0.18304 0.8524 0.82933 0.0
H188 H 0.14943 0.83325 0.81564 0.0
H189 H 0.12896 0.82894 0.80112 0.0
H190 H 0.10838 0.81218 0.83569 0.0
H191 H 0.12863 0.81676 0.85003 0.0
H192 H 0.19017 0.8246 0.91385 0.0
H193 H 0.18249 0.83797 0.89425 0.0
H194 H 0.21617 0.80215 0.88827 0.0
H195 H 0.20869 0.81574 0.86873 0.0
H196 H 0.21531 0.88666 0.81216 0.0
H197 H 0.18229 0.9109 0.82519 0.0
H198 H 0.17109 0.89063 0.83419 0.0
H199 H 0.20384 0.86629 0.82091 0.0
C200 C 0.16726 0.1899 0.8376 0.0
C201 C 0.15729 0.19326 0.84683 0.0
C202 C 0.14482 0.20643 0.82931 0.0
C203 C 0.14626 0.20142 0.84275 0.0
C204 C 0.15497 0.20315 0.8202 0.0
C205 C 0.16596 0.19505 0.82428 0.0
U206 U 0.19776 0.17393 0.85912 0.0
O207 O 0.20217 0.15216 0.86173 0.0
O208 O 0.2167 0.16556 0.85146 0.0
C209 C 0.21383 0.15316 0.85564 0.0
C210 C 0.17834 0.18012 0.84097 0.0
C211 C 0.21814 0.14153 0.84726 0.0
C212 C 0.21391 0.12297 0.8311 0.0
C213 C 0.20939 0.13446 0.838 0.0
C214 C 0.23591 0.12545 0.84256 0.0
C215 C 0.22722 0.11817 0.83341 0.0
C216 C 0.23144 0.13691 0.84933 0.0
C217 C 0.20979 0.19101 0.89414 0.0
C218 C 0.22995 0.20038 0.9065 0.0
C219 C 0.21025 0.19333 0.91891 0.0
C220 C 0.20353 0.18937 0.90669 0.0
C221 C 0.22349 0.19915 0.91903 0.0
C222 C 0.22319 0.19644 0.89425 0.0
C223 C 0.20152 0.18895 0.88119 0.0
O224 O 0.19099 0.18462 0.8403 0.0
O225 O 0.17659 0.17156 0.8511 0.0
O226 O 0.19306 0.17842 0.88041 0.0
O227 O 0.20729 0.19166 0.86961 0.0
H228 H 0.1579 0.18945 0.85716 0.0
H229 H 0.13886 0.2038 0.85019 0.0
H230 H 0.15425 0.20651 0.80972 0.0
H231 H 0.17332 0.19251 0.81685 0.0
H232 H 0.20687 0.11766 0.82418 0.0
H233 H 0.19904 0.13771 0.83624 0.0
H234 H 0.24627 0.12233 0.8445 0.0
H235 H 0.23843 0.1421 0.8564 0.0
H236 H 0.24006 0.20492 0.90606 0.0
H237 H 0.20495 0.19199 0.92829 0.0
H238 H 0.19317 0.18542 0.90703 0.0
H239 H 0.22833 0.19808 0.88482 0.0
C240 C 0.84758 0.15735 0.82589 0.0
C241 C 0.83529 0.15737 0.81816 0.0
C242 C 0.8386 0.13414 0.81055 0.0
C243 C 0.83089 0.14598 0.81058 0.0
C244 C 0.85104 0.1342 0.81812 0.0
C245 C 0.85545 0.14562 0.8257 0.0
U246 U 0.86883 0.18929 0.8389 0.0
O247 O 0.86099 0.20816 0.84725 0.0
O248 O 0.87386 0.19522 0.86015 0.0
C249 C 0.8662 0.20595 0.85953 0.0
C250 C 0.8511 0.16897 0.83514 0.0
C251 C 0.85748 0.20848 0.87138 0.0
C252 C 0.83614 0.21545 0.88106 0.0
C253 C 0.84364 0.21169 0.86981 0.0
C254 C 0.85604 0.21269 0.89576 0.0
C255 C 0.84225 0.21614 0.89423 0.0
C256 C 0.86351 0.20895 0.88453 0.0
C257 C 0.90098 0.19959 0.81687 0.0
C258 C 0.92156 0.21372 0.82056 0.0
C259 C 0.91687 0.20346 0.79864 0.0
C260 C 0.9048 0.19764 0.80344 0.0
C261 C 0.92555 0.21149 0.80713 0.0
C262 C 0.90944 0.20776 0.82541 0.0
C263 C 0.88864 0.19212 0.82156 0.0
O264 O 0.86212 0.16818 0.84302 0.0
O265 O 0.84925 0.18126 0.83026 0.0
O266 O 0.87678 0.19785 0.81982 0.0
O267 O 0.88965 0.18494 0.83283 0.0
H268 H 0.82884 0.16611 0.81826 0.0
H269 H 0.82118 0.14633 0.80509 0.0
H270 H 0.85737 0.12538 0.81824 0.0
H271 H 0.86492 0.14514 0.8316 0.0
H272 H 0.82554 0.21785 0.87941 0.0
H273 H 0.83862 0.21153 0.85985 0.0
H274 H 0.86126 0.21328 0.9056 0.0
H275 H 0.87418 0.20676 0.88611 0.0
H276 H 0.92798 0.21977 0.82744 0.0
H277 H 0.91942 0.20165 0.78822 0.0
H278 H 0.89849 0.19137 0.79663 0.0
H279 H 0.90681 0.20937 0.83585 0.0
C280 C 0.83211 0.89148 0.81434 0.0
C281 C 0.83248 0.90303 0.82271 0.0
C282 C 0.81771 0.91536 0.80651 0.0
C283 C 0.82537 0.91475 0.81888 0.0
C284 C 0.8171 0.90366 0.79834 0.0
C285 C 0.82421 0.89196 0.80217 0.0
U286 U 0.84383 0.85935 0.835 0.0
O287 O 0.85051 0.83955 0.82753 0.0
O288 O 0.86469 0.85246 0.83964 0.0
C289 C 0.86288 0.84105 0.8329 0.0
C290 C 0.84083 0.87947 0.81732 0.0
C291 C 0.87447 0.83569 0.82527 0.0
C292 C 0.89711 0.83792 0.81575 0.0
C293 C 0.88566 0.84381 0.82136 0.0
C294 C 0.88641 0.81574 0.81776 0.0
C295 C 0.89777 0.82373 0.81399 0.0
C296 C 0.87499 0.82162 0.82325 0.0
C297 C 0.82286 0.85 0.86761 0.0
C298 C 0.81506 0.82929 0.87909 0.0
C299 C 0.81413 0.85084 0.8905 0.0
C300 C 0.8197 0.85734 0.8792 0.0
C301 C 0.81156 0.83671 0.89062 0.0
C302 C 0.82061 0.83585 0.86772 0.0
C303 C 0.82693 0.85768 0.85525 0.0
O304 O 0.84921 0.88006 0.82801 0.0
O305 O 0.83518 0.86735 0.8156 0.0
O306 O 0.82448 0.852 0.84336 0.0
O307 O 0.83844 0.86474 0.85588 0.0
H308 H 0.83854 0.90316 0.8321 0.0
H309 H 0.82628 0.92352 0.82542 0.0
H310 H 0.81119 0.90354 0.78886 0.0
H311 H 0.82376 0.88334 0.79541 0.0
H312 H 0.90548 0.84454 0.81285 0.0
H313 H 0.88567 0.85468 0.82286 0.0
H314 H 0.88645 0.8048 0.81692 0.0
H315 H 0.86668 0.81503 0.82638 0.0
H316 H 0.81345 0.8184 0.8788 0.0
H317 H 0.8114 0.85702 0.89897 0.0
H318 H 0.82111 0.86828 0.87934 0.0
H319 H 0.82286 0.82989 0.85893 0.0
C320 C 0.18946 0.64987 0.69475 0.0
C321 C 0.20299 0.65099 0.69985 0.0
C322 C 0.2026 0.62707 0.70703 0.0
C323 C 0.20947 0.63975 0.70585 0.0
C324 C 0.18918 0.62594 0.70158 0.0
C325 C 0.18274 0.63714 0.69558 0.0
U326 U 0.17825 0.68179 0.67244 0.0
O327 O 0.15708 0.68778 0.66803 0.0
O328 O 0.17067 0.70107 0.6803 0.0
C329 C 0.15821 0.6988 0.67546 0.0
C330 C 0.18148 0.66199 0.69045 0.0
C331 C 0.14678 0.70184 0.68453 0.0
C332 C 0.12579 0.69545 0.69591 0.0
C333 C 0.1371 0.69191 0.68841 0.0
C334 C 0.13364 0.71885 0.69598 0.0
C335 C 0.12378 0.70902 0.69973 0.0
C336 C 0.14491 0.71531 0.6885 0.0
C337 C 0.1986 0.69195 0.63922 0.0
C338 C 0.21239 0.70958 0.62805 0.0
C339 C 0.20127 0.69197 0.61454 0.0
C340 C 0.19577 0.68623 0.62634 0.0
C341 C 0.20989 0.70361 0.61519 0.0
C342 C 0.20691 0.70381 0.63986 0.0
C343 C 0.1948 0.68425 0.65184 0.0
O344 O 0.18726 0.6741 0.69175 0.0
O345 O 0.17346 0.66093 0.67953 0.0
O346 O 0.18358 0.6767 0.65146 0.0
O347 O 0.1972 0.68998 0.66373 0.0
H348 H 0.20848 0.66063 0.69954 0.0
H349 H 0.21985 0.64106 0.70971 0.0
H350 H 0.18339 0.6165 0.70243 0.0
H351 H 0.17224 0.63595 0.69203 0.0
H352 H 0.1186 0.68752 0.69872 0.0
H353 H 0.13817 0.68143 0.68552 0.0
H354 H 0.13247 0.72942 0.69847 0.0
H355 H 0.15207 0.72323 0.68554 0.0
H356 H 0.21907 0.71843 0.6291 0.0
H357 H 0.19887 0.68713 0.6049 0.0
H358 H 0.18964 0.67698 0.62539 0.0
H359 H 0.20961 0.7084 0.64957 0.0
C360 C 0.82618 0.69295 0.63735 0.0
C361 C 0.83271 0.69306 0.62485 0.0
C362 C 0.81369 0.70484 0.61364 0.0
C363 C 0.82657 0.69893 0.61319 0.0
C364 C 0.8073 0.70491 0.62621 0.0
C365 C 0.81342 0.69901 0.63784 0.0
U366 U 0.85139 0.68549 0.66833 0.0
O367 O 0.84641 0.67721 0.68847 0.0
O368 O 0.85922 0.66566 0.6752 0.0
C369 C 0.85291 0.66589 0.68673 0.0
C370 C 0.83163 0.68526 0.64943 0.0
C371 C 0.84643 0.65294 0.69146 0.0
C372 C 0.82698 0.63953 0.69942 0.0
C373 C 0.8324 0.65149 0.69359 0.0
C374 C 0.84944 0.63018 0.70092 0.0
C375 C 0.83544 0.6287 0.70331 0.0
C376 C 0.85481 0.64209 0.6951 0.0
C377 C 0.88247 0.71068 0.67563 0.0
C378 C 0.89826 0.71218 0.6953 0.0
C379 C 0.90236 0.72601 0.67543 0.0
C380 C 0.89058 0.72042 0.66903 0.0
C381 C 0.90642 0.72201 0.68868 0.0
C382 C 0.88642 0.70658 0.68884 0.0
C383 C 0.86988 0.70543 0.66848 0.0
O384 O 0.84314 0.67895 0.64826 0.0
O385 O 0.83054 0.69077 0.66145 0.0
O386 O 0.85847 0.70587 0.67499 0.0
O387 O 0.87086 0.69427 0.66141 0.0
H388 H 0.84248 0.68839 0.62397 0.0
H389 H 0.83195 0.69883 0.60379 0.0
H390 H 0.79733 0.70917 0.627 0.0
H391 H 0.80797 0.69889 0.6472 0.0
H392 H 0.81614 0.63878 0.7009 0.0
H393 H 0.82564 0.65968 0.69096 0.0
H394 H 0.85639 0.62228 0.70393 0.0
H395 H 0.86568 0.64296 0.69376 0.0
H396 H 0.90109 0.70868 0.70542 0.0
H397 H 0.90816 0.73367 0.67003 0.0
H398 H 0.88772 0.72384 0.65887 0.0
H399 H 0.88035 0.69907 0.69417 0.0
C400 C 0.83894 0.33646 0.64961 0.0
C401 C 0.8295 0.32557 0.65084 0.0
C402 C 0.83037 0.32039 0.62654 0.0
C403 C 0.82534 0.31764 0.63954 0.0
C404 C 0.84006 0.3311 0.62539 0.0
C405 C 0.84423 0.33902 0.6367 0.0
U406 U 0.85799 0.35338 0.68183 0.0
O407 O 0.85971 0.37531 0.68629 0.0
O408 O 0.84849 0.36178 0.6999 0.0
C409 C 0.85228 0.37435 0.69712 0.0
C410 C 0.84148 0.34626 0.66111 0.0
C411 C 0.84248 0.38535 0.6997 0.0
C412 C 0.83008 0.40573 0.6929 0.0
C413 C 0.83799 0.39454 0.68959 0.0
C414 C 0.83086 0.39871 0.71643 0.0
C415 C 0.82649 0.40812 0.70644 0.0
C416 C 0.83867 0.38756 0.7131 0.0
C417 C 0.89264 0.33781 0.69644 0.0
C418 C 0.90376 0.32946 0.71746 0.0
C419 C 0.91745 0.33601 0.69855 0.0
C420 C 0.90562 0.33943 0.69098 0.0
C421 C 0.91676 0.33077 0.71187 0.0
C422 C 0.89191 0.33287 0.70986 0.0
C423 C 0.88019 0.33937 0.68732 0.0
O424 O 0.84003 0.34179 0.6736 0.0
O425 O 0.85152 0.35525 0.6602 0.0
O426 O 0.87982 0.34974 0.67886 0.0
O427 O 0.86823 0.33631 0.69221 0.0
H428 H 0.82493 0.32344 0.66048 0.0
H429 H 0.81775 0.30966 0.64092 0.0
H430 H 0.84437 0.33349 0.61568 0.0
H431 H 0.85133 0.34742 0.63521 0.0
H432 H 0.82684 0.41254 0.68483 0.0
H433 H 0.84078 0.39324 0.67915 0.0
H434 H 0.82869 0.40018 0.727 0.0
H435 H 0.84214 0.38084 0.72118 0.0
H436 H 0.9027 0.32567 0.72771 0.0
H437 H 0.92713 0.33702 0.6937 0.0
H438 H 0.90661 0.34291 0.6806 0.0
H439 H 0.88214 0.3313 0.71442 0.0
C440 C 0.15888 0.33609 0.69088 0.0
C441 C 0.15925 0.33325 0.70492 0.0
C442 C 0.13555 0.32463 0.70376 0.0
C443 C 0.14775 0.32765 0.71126 0.0
C444 C 0.13521 0.32773 0.68976 0.0
C445 C 0.14666 0.33334 0.68346 0.0
U446 U 0.19151 0.35829 0.68106 0.0
O447 O 0.21108 0.35063 0.67427 0.0
O448 O 0.19821 0.36251 0.66028 0.0
C449 C 0.20949 0.35576 0.66198 0.0
C450 C 0.1713 0.34025 0.68336 0.0
C451 C 0.21405 0.34762 0.65039 0.0
C452 C 0.20985 0.33368 0.63017 0.0
C453 C 0.20503 0.34025 0.64166 0.0
C454 C 0.2327 0.3417 0.63603 0.0
C455 C 0.22379 0.33438 0.62711 0.0
C456 C 0.2279 0.34816 0.64748 0.0
C457 C 0.20329 0.39157 0.70043 0.0
C458 C 0.22422 0.40221 0.71008 0.0
C459 C 0.20543 0.41623 0.7031 0.0
C460 C 0.19787 0.40459 0.69899 0.0
C461 C 0.21868 0.41525 0.7089 0.0
C462 C 0.21664 0.39056 0.70593 0.0
C463 C 0.19435 0.37929 0.69757 0.0
O464 O 0.17061 0.35101 0.67543 0.0
O465 O 0.18329 0.33911 0.68955 0.0
O466 O 0.19935 0.3673 0.70032 0.0
O467 O 0.1867 0.37936 0.68635 0.0
H468 H 0.16849 0.33512 0.71097 0.0
H469 H 0.14845 0.32567 0.72208 0.0
H470 H 0.1262 0.32542 0.6835 0.0
H471 H 0.14609 0.33515 0.6726 0.0
H472 H 0.20264 0.32805 0.6237 0.0
H473 H 0.19427 0.33971 0.64362 0.0
H474 H 0.24341 0.3428 0.63401 0.0
H475 H 0.23506 0.35391 0.65393 0.0
H476 H 0.23441 0.40097 0.71431 0.0
H477 H 0.20066 0.42598 0.70219 0.0
H478 H 0.18756 0.40577 0.69503 0.0
H479 H 0.22118 0.38074 0.70731 0.0
C480 C 0.14182 0.32351 0.33861 0.0
C481 C 0.1424 0.31563 0.32678 0.0
C482 C 0.11761 0.316 0.32326 0.0
C483 C 0.1305 0.31198 0.31921 0.0
C484 C 0.1171 0.32418 0.33489 0.0
C485 C 0.12899 0.32783 0.34246 0.0
U486 U 0.17537 0.34217 0.35242 0.0
O487 O 0.18234 0.34498 0.37376 0.0
O488 O 0.1945 0.33312 0.36014 0.0
C489 C 0.19314 0.33756 0.37255 0.0
C490 C 0.15413 0.32565 0.34783 0.0
C491 C 0.19699 0.32829 0.38399 0.0
C492 C 0.19199 0.31541 0.40463 0.0
C493 C 0.18757 0.32293 0.39315 0.0
C494 C 0.21526 0.31833 0.39789 0.0
C495 C 0.20596 0.31311 0.40728 0.0
C496 C 0.21083 0.32576 0.38646 0.0
C497 C 0.18779 0.37551 0.33382 0.0
C498 C 0.20926 0.38838 0.33645 0.0
C499 C 0.19129 0.39685 0.3216 0.0
C500 C 0.18307 0.38556 0.32481 0.0
C501 C 0.20453 0.3985 0.32735 0.0
C502 C 0.20098 0.37701 0.33966 0.0
C503 C 0.17877 0.36352 0.33641 0.0
O504 O 0.16615 0.32382 0.34278 0.0
O505 O 0.15416 0.33587 0.35633 0.0
O506 O 0.17161 0.36367 0.34742 0.0
O507 O 0.18358 0.35151 0.33392 0.0
H508 H 0.15202 0.31194 0.32354 0.0
H509 H 0.13141 0.30581 0.31025 0.0
H510 H 0.10742 0.32734 0.33851 0.0
H511 H 0.12805 0.33366 0.35164 0.0
H512 H 0.18446 0.31147 0.41147 0.0
H513 H 0.17682 0.32475 0.39157 0.0
H514 H 0.22608 0.31712 0.39958 0.0
H515 H 0.21835 0.3299 0.37969 0.0
H516 H 0.21933 0.3893 0.34121 0.0
H517 H 0.18731 0.40418 0.31436 0.0
H518 H 0.17298 0.38459 0.32008 0.0
H519 H 0.20487 0.36939 0.34664 0.0
C520 C 0.14104 0.67519 0.31375 0.0
C521 C 0.14171 0.68913 0.31053 0.0
C522 C 0.11767 0.68872 0.30277 0.0
C523 C 0.13018 0.6958 0.30516 0.0
C524 C 0.11705 0.67482 0.30624 0.0
C525 C 0.12853 0.66821 0.31162 0.0
U526 U 0.17369 0.66487 0.33587 0.0
O527 O 0.17994 0.64399 0.34105 0.0
O528 O 0.19273 0.65684 0.32823 0.0
C529 C 0.19085 0.64477 0.33373 0.0
C530 C 0.15335 0.66729 0.31777 0.0
C531 C 0.19422 0.63253 0.32568 0.0
C532 C 0.19863 0.62098 0.30436 0.0
C533 C 0.19418 0.63241 0.31139 0.0
C534 C 0.20314 0.60956 0.32573 0.0
C535 C 0.2033 0.60935 0.31142 0.0
C536 C 0.19867 0.6209 0.33269 0.0
C537 C 0.18361 0.68675 0.36912 0.0
C538 C 0.20201 0.69977 0.38091 0.0
C539 C 0.18251 0.69218 0.39332 0.0
C540 C 0.17689 0.68603 0.38149 0.0
C541 C 0.19509 0.69936 0.39324 0.0
C542 C 0.19634 0.69363 0.36904 0.0
C543 C 0.17616 0.68228 0.35627 0.0
O544 O 0.16543 0.67307 0.31644 0.0
O545 O 0.1527 0.65956 0.32867 0.0
O546 O 0.16863 0.67108 0.3566 0.0
O547 O 0.182 0.68413 0.34456 0.0
H548 H 0.15118 0.69485 0.31193 0.0
H549 H 0.13112 0.70652 0.30283 0.0
H550 H 0.10779 0.66887 0.30439 0.0
H551 H 0.1277 0.65742 0.31374 0.0
H552 H 0.19841 0.62128 0.29337 0.0
H553 H 0.19087 0.6412 0.30563 0.0
H554 H 0.20688 0.60107 0.33168 0.0
H555 H 0.19902 0.62071 0.3437 0.0
H556 H 0.21179 0.70497 0.38034 0.0
H557 H 0.17665 0.69174 0.40241 0.0
H558 H 0.16693 0.68113 0.38193 0.0
H559 H 0.20178 0.69462 0.35971 0.0
C560 C 0.82721 0.64888 0.33453 0.0
C561 C 0.82613 0.64769 0.32031 0.0
C562 C 0.81582 0.62476 0.32222 0.0
C563 C 0.82056 0.63577 0.31425 0.0
C564 C 0.81709 0.62604 0.33645 0.0
C565 C 0.8227 0.63787 0.34247 0.0
U566 U 0.84894 0.68276 0.34246 0.0
O567 O 0.84087 0.70184 0.35008 0.0
O568 O 0.85518 0.69031 0.36288 0.0
C569 C 0.84729 0.70086 0.36197 0.0
C570 C 0.83169 0.66171 0.34155 0.0
C571 C 0.83996 0.70463 0.37435 0.0
C572 C 0.81957 0.71153 0.38576 0.0
C573 C 0.8258 0.70639 0.37428 0.0
C574 C 0.84143 0.71307 0.39765 0.0
C575 C 0.82731 0.71511 0.3976 0.0
C576 C 0.84762 0.70792 0.38622 0.0
C577 C 0.8797 0.69525 0.32062 0.0
C578 C 0.90249 0.70528 0.32486 0.0
C579 C 0.89141 0.70781 0.30276 0.0
C580 C 0.88001 0.70046 0.30731 0.0
C581 C 0.90296 0.71017 0.31137 0.0
C582 C 0.89105 0.69789 0.3294 0.0
C583 C 0.86811 0.68601 0.32447 0.0
O584 O 0.84329 0.66177 0.3486 0.0
O585 O 0.82942 0.67332 0.33533 0.0
O586 O 0.85573 0.69053 0.32261 0.0
O587 O 0.86957 0.67875 0.33565 0.0
H588 H 0.82944 0.656 0.31389 0.0
H589 H 0.82 0.63521 0.30327 0.0
H590 H 0.81341 0.61803 0.34304 0.0
H591 H 0.8232 0.63855 0.35345 0.0
H592 H 0.80866 0.71276 0.38531 0.0
H593 H 0.81958 0.70404 0.36528 0.0
H594 H 0.84785 0.71587 0.40637 0.0
H595 H 0.85857 0.7069 0.38654 0.0
H596 H 0.91117 0.70674 0.3318 0.0
H597 H 0.8912 0.71156 0.2924 0.0
H598 H 0.8715 0.69855 0.30024 0.0
H599 H 0.89127 0.69397 0.3397 0.0
C600 C 0.83596 0.381 0.33324 0.0
C601 C 0.82226 0.38135 0.32864 0.0
C602 C 0.82524 0.40488 0.32054 0.0
C603 C 0.81697 0.39313 0.32243 0.0
C604 C 0.83887 0.40449 0.3254 0.0
C605 C 0.84411 0.39278 0.33162 0.0
U606 U 0.84267 0.34828 0.35629 0.0
O607 O 0.84978 0.32853 0.34928 0.0
O608 O 0.86281 0.34083 0.36313 0.0
C609 C 0.86167 0.32979 0.35574 0.0
C610 C 0.84256 0.36824 0.33814 0.0
C611 C 0.87405 0.32543 0.3487 0.0
C612 C 0.88551 0.3173 0.32874 0.0
C613 C 0.87407 0.32285 0.33466 0.0
C614 C 0.89718 0.31691 0.35071 0.0
C615 C 0.89724 0.3141 0.3367 0.0
C616 C 0.8858 0.32247 0.35657 0.0
C617 C 0.81947 0.33964 0.38745 0.0
C618 C 0.81789 0.31944 0.40198 0.0
C619 C 0.80556 0.3394 0.40756 0.0
C620 C 0.8107 0.34611 0.39614 0.0
C621 C 0.80905 0.32594 0.41074 0.0
C622 C 0.82304 0.3262 0.39048 0.0
C623 C 0.82424 0.34721 0.37526 0.0
O624 O 0.84968 0.36871 0.34968 0.0
O625 O 0.83598 0.35658 0.33632 0.0
O626 O 0.82258 0.34132 0.36336 0.0
O627 O 0.83581 0.3541 0.37653 0.0
H628 H 0.81567 0.37246 0.32959 0.0
H629 H 0.80638 0.39297 0.31905 0.0
H630 H 0.84573 0.41311 0.32399 0.0
H631 H 0.85476 0.3928 0.3348 0.0
H632 H 0.88513 0.31549 0.31792 0.0
H633 H 0.86517 0.32492 0.32827 0.0
H634 H 0.9058 0.31442 0.3573 0.0
H635 H 0.88605 0.32411 0.36744 0.0
H636 H 0.82099 0.30916 0.40408 0.0
H637 H 0.79864 0.34476 0.41378 0.0
H638 H 0.80768 0.35642 0.39401 0.0
H639 H 0.82978 0.32094 0.38397 0.0
C640 C 0.6912 0.14883 0.69594 0.0
C641 C 0.68523 0.13575 0.69468 0.0
C642 C 0.70463 0.12549 0.70681 0.0
C643 C 0.69183 0.12429 0.69999 0.0
C644 C 0.71082 0.13854 0.70768 0.0
C645 C 0.70418 0.15004 0.7024 0.0
U646 U 0.67865 0.18186 0.6759 0.0
O647 O 0.65721 0.18744 0.67207 0.0
O648 O 0.67053 0.20013 0.68525 0.0
C649 C 0.65817 0.19806 0.68004 0.0
C650 C 0.68286 0.161 0.69248 0.0
C651 C 0.6465 0.20056 0.68888 0.0
C652 C 0.63506 0.19941 0.71054 0.0
C653 C 0.64611 0.19619 0.70248 0.0
C654 C 0.62467 0.21136 0.69153 0.0
C655 C 0.62414 0.20709 0.70519 0.0
C656 C 0.63564 0.20813 0.68354 0.0
C657 C 0.69698 0.1955 0.64289 0.0
C658 C 0.70928 0.21464 0.63243 0.0
C659 C 0.69719 0.19831 0.61812 0.0
C660 C 0.69301 0.19114 0.62972 0.0
C661 C 0.7056 0.21008 0.61922 0.0
C662 C 0.70509 0.20745 0.64405 0.0
C663 C 0.69443 0.18649 0.655 0.0
O664 O 0.68831 0.17317 0.69448 0.0
O665 O 0.67466 0.16044 0.68166 0.0
O666 O 0.68364 0.17834 0.65451 0.0
O667 O 0.69704 0.19139 0.66723 0.0
H668 H 0.67518 0.13441 0.68998 0.0
H669 H 0.68677 0.11446 0.69888 0.0
H670 H 0.72058 0.13998 0.71295 0.0
H671 H 0.70904 0.15992 0.70382 0.0
H672 H 0.63504 0.19578 0.72093 0.0
H673 H 0.65434 0.19036 0.7069 0.0
H674 H 0.61672 0.21749 0.68702 0.0
H675 H 0.63572 0.21175 0.67313 0.0
H676 H 0.71557 0.22372 0.63384 0.0
H677 H 0.69425 0.19425 0.60823 0.0
H678 H 0.68705 0.18184 0.62833 0.0
H679 H 0.70857 0.21109 0.65395 0.0
C680 C 0.3295 0.19577 0.64349 0.0
C681 C 0.33571 0.19426 0.63094 0.0
C682 C 0.31834 0.20795 0.61929 0.0
C683 C 0.33024 0.2003 0.61905 0.0
C684 C 0.31233 0.20969 0.63191 0.0
C685 C 0.31779 0.20365 0.64379 0.0
U686 U 0.35161 0.18522 0.67623 0.0
O687 O 0.34363 0.17703 0.69541 0.0
O688 O 0.35605 0.16432 0.68288 0.0
C689 C 0.34846 0.1649 0.69358 0.0
C690 C 0.33372 0.18761 0.65573 0.0
C691 C 0.33925 0.15299 0.69648 0.0
C692 C 0.32517 0.14061 0.71267 0.0
C693 C 0.33282 0.1522 0.709 0.0
C694 C 0.33003 0.13022 0.69132 0.0
C695 C 0.32374 0.12936 0.70396 0.0
C696 C 0.33768 0.14186 0.68763 0.0
C697 C 0.38431 0.20716 0.68806 0.0
C698 C 0.40883 0.20639 0.69329 0.0
C699 C 0.3957 0.22388 0.70318 0.0
C700 C 0.38387 0.21859 0.69651 0.0
C701 C 0.40844 0.21799 0.70155 0.0
C702 C 0.39699 0.20109 0.68662 0.0
C703 C 0.37206 0.20305 0.67939 0.0
O704 O 0.34476 0.18041 0.65519 0.0
O705 O 0.33219 0.19294 0.66775 0.0
O706 O 0.35998 0.20467 0.68435 0.0
O707 O 0.37263 0.19203 0.67201 0.0
H708 H 0.34461 0.18812 0.63021 0.0
H709 H 0.33532 0.19887 0.60961 0.0
H710 H 0.30308 0.21533 0.63257 0.0
H711 H 0.31253 0.20479 0.65317 0.0
H712 H 0.32071 0.14035 0.72256 0.0
H713 H 0.33399 0.16048 0.71615 0.0
H714 H 0.32905 0.12189 0.68423 0.0
H715 H 0.34252 0.14202 0.67793 0.0
H716 H 0.41834 0.20139 0.69189 0.0
H717 H 0.3949 0.23291 0.70926 0.0
H718 H 0.37441 0.22376 0.69764 0.0
H719 H 0.39785 0.19241 0.68007 0.0
C720 C 0.31716 0.84526 0.64728 0.0
C721 C 0.32366 0.84596 0.63476 0.0
C722 C 0.30549 0.83203 0.62363 0.0
C723 C 0.31795 0.8394 0.62315 0.0
C724 C 0.29921 0.83108 0.63626 0.0
C725 C 0.30492 0.8376 0.64784 0.0
U726 U 0.34095 0.85679 0.67869 0.0
O727 O 0.3465 0.87778 0.68496 0.0
O728 O 0.33458 0.86473 0.69837 0.0
C729 C 0.33997 0.8769 0.69636 0.0
C730 C 0.32185 0.85378 0.65922 0.0
C731 C 0.33237 0.88905 0.70086 0.0
C732 C 0.31622 0.89927 0.716 0.0
C733 C 0.3218 0.88776 0.71012 0.0
C734 C 0.33147 0.91376 0.70346 0.0
C735 C 0.3211 0.91249 0.71296 0.0
C736 C 0.33702 0.90227 0.69757 0.0
C737 C 0.37412 0.8354 0.68738 0.0
C738 C 0.3862 0.82281 0.70546 0.0
C739 C 0.39837 0.83066 0.68595 0.0
C740 C 0.38642 0.83644 0.68053 0.0
C741 C 0.39846 0.82354 0.69843 0.0
C742 C 0.37422 0.82859 0.70001 0.0
C743 C 0.36115 0.83951 0.68019 0.0
O744 O 0.32091 0.84843 0.67144 0.0
O745 O 0.33281 0.86155 0.65807 0.0
O746 O 0.36136 0.85064 0.67275 0.0
O747 O 0.3496 0.83761 0.68635 0.0
H748 H 0.33298 0.85191 0.63379 0.0
H749 H 0.3231 0.84056 0.61367 0.0
H750 H 0.28975 0.82536 0.63721 0.0
H751 H 0.2995 0.83696 0.65722 0.0
H752 H 0.30839 0.89773 0.72335 0.0
H753 H 0.3181 0.87781 0.7132 0.0
H754 H 0.33542 0.92368 0.70061 0.0
H755 H 0.34529 0.90375 0.6907 0.0
H756 H 0.38578 0.81762 0.71516 0.0
H757 H 0.40742 0.83132 0.68003 0.0
H758 H 0.38671 0.8413 0.67065 0.0
H759 H 0.36495 0.82737 0.70554 0.0
C760 C 0.64466 0.83048 0.69027 0.0
C761 C 0.64432 0.81804 0.69735 0.0
C762 C 0.62151 0.82221 0.70537 0.0
C763 C 0.63298 0.81399 0.70479 0.0
C764 C 0.62197 0.83484 0.69854 0.0
C765 C 0.63335 0.83889 0.69105 0.0
U766 U 0.67629 0.85142 0.67717 0.0
O767 O 0.6957 0.8438 0.66998 0.0
O768 O 0.68223 0.8551 0.65603 0.0
C769 C 0.69372 0.84867 0.65764 0.0
C770 C 0.65622 0.83364 0.68115 0.0
C771 C 0.6986 0.84069 0.64607 0.0
C772 C 0.69507 0.82767 0.62515 0.0
C773 C 0.68983 0.83394 0.63662 0.0
C774 C 0.71782 0.83477 0.63247 0.0
C775 C 0.70918 0.82808 0.62282 0.0
C776 C 0.71262 0.84091 0.64389 0.0
C777 C 0.68863 0.88455 0.69588 0.0
C778 C 0.70761 0.89965 0.68999 0.0
C779 C 0.69478 0.90422 0.70987 0.0
C780 C 0.68651 0.89271 0.70718 0.0
C781 C 0.70544 0.90794 0.7013 0.0
C782 C 0.69928 0.88808 0.6873 0.0
C783 C 0.67955 0.87249 0.69347 0.0
O784 O 0.65519 0.84412 0.67287 0.0
O785 O 0.66862 0.83229 0.68632 0.0
O786 O 0.68481 0.8606 0.69607 0.0
O787 O 0.67178 0.87254 0.68234 0.0
H788 H 0.65278 0.81125 0.69689 0.0
H789 H 0.63321 0.80432 0.71006 0.0
H790 H 0.61336 0.84144 0.6986 0.0
H791 H 0.63314 0.84849 0.68565 0.0
H792 H 0.68804 0.82251 0.61811 0.0
H793 H 0.67896 0.83367 0.63798 0.0
H794 H 0.72866 0.83567 0.63103 0.0
H795 H 0.7196 0.84621 0.65089 0.0
H796 H 0.71561 0.90221 0.68309 0.0
H797 H 0.6929 0.91012 0.7188 0.0
H798 H 0.67842 0.89015 0.71399 0.0
H799 H 0.70112 0.88193 0.67852 0.0
C800 C 0.63676 0.82013 0.33667 0.0
C801 C 0.63693 0.81112 0.32564 0.0
C802 C 0.61199 0.80999 0.32389 0.0
C803 C 0.62476 0.80619 0.31932 0.0
C804 C 0.61185 0.81924 0.33472 0.0
C805 C 0.62402 0.82418 0.34103 0.0
U806 U 0.67098 0.84015 0.34763 0.0
O807 O 0.67846 0.8444 0.36861 0.0
O808 O 0.68995 0.83114 0.35572 0.0
C809 C 0.68908 0.83668 0.36774 0.0
C810 C 0.64949 0.82354 0.34492 0.0
C811 C 0.69295 0.82831 0.3798 0.0
C812 C 0.68938 0.8096 0.39584 0.0
C813 C 0.68509 0.81715 0.3843 0.0
C814 C 0.70933 0.82429 0.39846 0.0
C815 C 0.70164 0.81302 0.40305 0.0
C816 C 0.70505 0.83177 0.38704 0.0
C817 C 0.68439 0.87188 0.32695 0.0
C818 C 0.69706 0.89287 0.33278 0.0
C819 C 0.69593 0.88523 0.30954 0.0
C820 C 0.688 0.87389 0.3134 0.0
C821 C 0.70053 0.89501 0.31912 0.0
C822 C 0.6891 0.88148 0.33664 0.0
C823 C 0.67482 0.86038 0.33027 0.0
O824 O 0.66128 0.82127 0.33958 0.0
O825 O 0.64975 0.83456 0.35237 0.0
O826 O 0.66769 0.86136 0.34125 0.0
O827 O 0.67899 0.84801 0.32831 0.0
H828 H 0.64649 0.80748 0.32215 0.0
H829 H 0.62539 0.79898 0.31114 0.0
H830 H 0.6023 0.82262 0.33845 0.0
H831 H 0.6234 0.83089 0.34962 0.0
H832 H 0.68319 0.80099 0.39899 0.0
H833 H 0.6757 0.81427 0.37889 0.0
H834 H 0.71864 0.82749 0.40383 0.0
H835 H 0.71126 0.84037 0.38384 0.0
H836 H 0.70051 0.9 0.34054 0.0
H837 H 0.69811 0.88651 0.29891 0.0
H838 H 0.6844 0.86679 0.30565 0.0
H839 H 0.68649 0.88031 0.34718 0.0
C840 C 0.64693 0.18567 0.32088 0.0
C841 C 0.64891 0.19906 0.3161 0.0
C842 C 0.62423 0.20225 0.31345 0.0
C843 C 0.63776 0.20722 0.3125 0.0
C844 C 0.62231 0.18895 0.31854 0.0
C845 C 0.63344 0.18082 0.32213 0.0
U846 U 0.67953 0.16941 0.33879 0.0
O847 O 0.68413 0.14759 0.34022 0.0
O848 O 0.6976 0.16135 0.32905 0.0
C849 C 0.695 0.14877 0.33286 0.0
C850 C 0.65851 0.17607 0.32274 0.0
C851 C 0.69805 0.13753 0.3233 0.0
C852 C 0.69184 0.11681 0.31059 0.0
C853 C 0.68812 0.12816 0.31822 0.0
C854 C 0.71542 0.12398 0.31292 0.0
C855 C 0.70561 0.1144 0.30791 0.0
C856 C 0.71169 0.1353 0.32041 0.0
C857 C 0.69394 0.18596 0.37357 0.0
C858 C 0.71502 0.19465 0.38479 0.0
C859 C 0.69553 0.18937 0.39822 0.0
C860 C 0.68812 0.18529 0.38642 0.0
C861 C 0.70908 0.19432 0.39765 0.0
C862 C 0.70757 0.19059 0.37295 0.0
C863 C 0.68498 0.18377 0.36107 0.0
O864 O 0.67098 0.18078 0.32118 0.0
O865 O 0.65779 0.16696 0.33253 0.0
O866 O 0.67666 0.17312 0.36066 0.0
O867 O 0.6899 0.1868 0.34915 0.0
H868 H 0.65909 0.20318 0.31481 0.0
H869 H 0.63978 0.21742 0.30882 0.0
H870 H 0.61217 0.18455 0.31925 0.0
H871 H 0.63146 0.17049 0.32548 0.0
H872 H 0.68387 0.1099 0.30686 0.0
H873 H 0.67751 0.12946 0.32032 0.0
H874 H 0.72613 0.12254 0.31149 0.0
H875 H 0.71964 0.14214 0.32436 0.0
H876 H 0.72545 0.19817 0.38382 0.0
H877 H 0.6904 0.18911 0.40776 0.0
H878 H 0.67758 0.18207 0.38729 0.0
H879 H 0.7124 0.19143 0.36327 0.0
C880 C 0.33115 0.1464 0.33795 0.0
C881 C 0.32166 0.14675 0.32692 0.0
C882 C 0.32323 0.12226 0.32356 0.0
C883 C 0.3178 0.13489 0.31981 0.0
C884 C 0.33279 0.12193 0.33454 0.0
C885 C 0.33665 0.1338 0.34165 0.0
U886 U 0.35214 0.17937 0.34667 0.0
O887 O 0.34517 0.19948 0.35281 0.0
O888 O 0.35853 0.18791 0.3666 0.0
C889 C 0.3515 0.19898 0.36477 0.0
C890 C 0.33439 0.15883 0.34621 0.0
C891 C 0.34428 0.20428 0.37657 0.0
C892 C 0.33044 0.20151 0.39658 0.0
C893 C 0.33647 0.19599 0.38514 0.0
C894 C 0.33992 0.22362 0.39098 0.0
C895 C 0.33211 0.21544 0.39971 0.0
C896 C 0.34587 0.21812 0.37961 0.0
C897 C 0.3823 0.18758 0.32212 0.0
C898 C 0.40347 0.20099 0.32422 0.0
C899 C 0.39565 0.1926 0.30223 0.0
C900 C 0.38423 0.1866 0.30813 0.0
C901 C 0.40552 0.19984 0.31016 0.0
C902 C 0.39199 0.1949 0.33015 0.0
C903 C 0.37061 0.17997 0.32788 0.0
O904 O 0.34572 0.15896 0.35372 0.0
O905 O 0.33207 0.17062 0.34036 0.0
O906 O 0.35853 0.1852 0.32612 0.0
O907 O 0.37242 0.1741 0.33981 0.0
H908 H 0.31699 0.15618 0.3239 0.0
H909 H 0.31026 0.13559 0.31158 0.0
H910 H 0.33733 0.11248 0.33767 0.0
H911 H 0.34384 0.13304 0.35018 0.0
H912 H 0.32441 0.19487 0.40292 0.0
H913 H 0.33509 0.18527 0.38305 0.0
H914 H 0.34175 0.23428 0.39308 0.0
H915 H 0.35194 0.22472 0.37325 0.0
H916 H 0.41073 0.2066 0.33066 0.0
H917 H 0.39691 0.1912 0.29147 0.0
H918 H 0.377 0.18088 0.30174 0.0
H919 H 0.39078 0.19579 0.34098 0.0
C920 C 0.32366 0.87746 0.33405 0.0
C921 C 0.32401 0.88934 0.34194 0.0
C922 C 0.30871 0.90078 0.32555 0.0
C923 C 0.3166 0.90079 0.33779 0.0
C924 C 0.30803 0.88873 0.31793 0.0
C925 C 0.31539 0.8773 0.32209 0.0
U926 U 0.339 0.84481 0.35238 0.0
O927 O 0.34814 0.82752 0.34226 0.0
O928 O 0.36082 0.84042 0.35586 0.0
C929 C 0.36044 0.83019 0.34735 0.0
C930 C 0.33325 0.86609 0.33684 0.0
C931 C 0.37225 0.82872 0.33831 0.0
C932 C 0.38177 0.82352 0.31633 0.0
C933 C 0.37058 0.82664 0.32421 0.0
C934 C 0.39657 0.82469 0.33637 0.0
C935 C 0.39495 0.82232 0.3223 0.0
C936 C 0.38542 0.82781 0.34421 0.0
C937 C 0.32078 0.82825 0.3842 0.0
C938 C 0.30548 0.81156 0.39473 0.0
C939 C 0.32447 0.82108 0.40793 0.0
C940 C 0.32836 0.8289 0.39661 0.0
C941 C 0.3128 0.81246 0.40727 0.0
C942 C 0.30938 0.81933 0.38343 0.0
C943 C 0.32325 0.83809 0.37277 0.0
O944 O 0.34133 0.8667 0.34776 0.0
O945 O 0.32892 0.85366 0.33408 0.0
O946 O 0.32102 0.83381 0.36026 0.0
O947 O 0.3337 0.84665 0.3739 0.0
H948 H 0.3304 0.89 0.35109 0.0
H949 H 0.31754 0.90986 0.34392 0.0
H950 H 0.30195 0.88816 0.30857 0.0
H951 H 0.31499 0.86845 0.31562 0.0
H952 H 0.38004 0.822 0.30553 0.0
H953 H 0.3606 0.82715 0.31928 0.0
H954 H 0.40641 0.82369 0.34149 0.0
H955 H 0.38705 0.82911 0.35506 0.0
H956 H 0.29658 0.80492 0.39366 0.0
H957 H 0.33034 0.8222 0.41738 0.0
H958 H 0.33706 0.8358 0.39774 0.0
H959 H 0.30316 0.81867 0.37416 0.0
C960 C 0.68574 0.65092 0.19063 0.0
C961 C 0.69966 0.65117 0.18779 0.0
C962 C 0.70242 0.62845 0.1979 0.0
C963 C 0.70788 0.64008 0.19137 0.0
C964 C 0.68843 0.62829 0.20057 0.0
C965 C 0.68026 0.63932 0.19698 0.0
U966 U 0.67236 0.68343 0.17128 0.0
O967 O 0.65104 0.68929 0.16749 0.0
O968 O 0.66466 0.70215 0.1802 0.0
C969 C 0.65223 0.70017 0.17512 0.0
C970 C 0.67679 0.66273 0.18797 0.0
C971 C 0.6405 0.70382 0.1836 0.0
C972 C 0.61605 0.70283 0.18764 0.0
C973 C 0.62752 0.69767 0.18149 0.0
C974 C 0.63021 0.72024 0.19846 0.0
C975 C 0.61714 0.71438 0.19603 0.0
C976 C 0.64167 0.71508 0.19231 0.0
C977 C 0.69065 0.69682 0.13865 0.0
C978 C 0.68357 0.70726 0.11701 0.0
C979 C 0.70705 0.70929 0.1249 0.0
C980 C 0.70393 0.7018 0.1366 0.0
C981 C 0.69696 0.71204 0.11481 0.0
C982 C 0.68045 0.69974 0.12875 0.0
C983 C 0.68819 0.68762 0.15046 0.0
O984 O 0.68213 0.67495 0.18987 0.0
O985 O 0.66836 0.66207 0.17733 0.0
O986 O 0.67723 0.6797 0.14997 0.0
O987 O 0.69097 0.6925 0.16265 0.0
H988 H 0.70422 0.65997 0.18292 0.0
H989 H 0.71853 0.64062 0.18895 0.0
H990 H 0.68378 0.61976 0.20578 0.0
H991 H 0.66961 0.63887 0.19943 0.0
H992 H 0.60626 0.69786 0.18564 0.0
H993 H 0.6261 0.68912 0.17471 0.0
H994 H 0.63156 0.72922 0.20466 0.0
H995 H 0.65139 0.72031 0.19395 0.0
H996 H 0.67546 0.70929 0.10962 0.0
H997 H 0.71751 0.71255 0.12358 0.0
H998 H 0.71205 0.69957 0.14392 0.0
H999 H 0.67011 0.69603 0.12996 0.0
C1000 C 0.32648 0.68604 0.13751 0.0
C1001 C 0.32528 0.70023 0.13675 0.0
C1002 C 0.31515 0.69872 0.11357 0.0
C1003 C 0.31973 0.70647 0.12494 0.0
C1004 C 0.31654 0.68454 0.11441 0.0
C1005 C 0.32211 0.67835 0.12615 0.0
U1006 U 0.34877 0.67793 0.17098 0.0
O1007 O 0.34125 0.66951 0.19022 0.0
O1008 O 0.35496 0.65764 0.17819 0.0
C1009 C 0.3476 0.65802 0.18905 0.0
C1010 C 0.33096 0.67874 0.15021 0.0
C1011 C 0.34062 0.64516 0.19338 0.0
C1012 C 0.32109 0.6326 0.20233 0.0
C1013 C 0.32676 0.64442 0.19646 0.0
C1014 C 0.34293 0.62198 0.20198 0.0
C1015 C 0.32914 0.62123 0.20537 0.0
C1016 C 0.34855 0.63374 0.19609 0.0
C1017 C 0.38034 0.70016 0.18307 0.0
C1018 C 0.39346 0.69844 0.20455 0.0
C1019 C 0.40114 0.71383 0.18705 0.0
C1020 C 0.38996 0.70982 0.17865 0.0
C1021 C 0.40305 0.70831 0.2002 0.0
C1022 C 0.38223 0.69443 0.1961 0.0
C1023 C 0.36844 0.69656 0.17392 0.0
O1024 O 0.34233 0.67205 0.15003 0.0
O1025 O 0.32914 0.68455 0.16197 0.0
O1026 O 0.3563 0.69773 0.17887 0.0
O1027 O 0.36942 0.68565 0.16648 0.0
H1028 H 0.32847 0.70648 0.14533 0.0
H1029 H 0.31908 0.71741 0.12473 0.0
H1030 H 0.31298 0.67809 0.10611 0.0
H1031 H 0.3227 0.66739 0.12647 0.0
H1032 H 0.3104 0.63242 0.20458 0.0
H1033 H 0.32037 0.65306 0.19462 0.0
H1034 H 0.34959 0.61366 0.20433 0.0
H1035 H 0.3593 0.63406 0.19408 0.0
H1036 H 0.39447 0.69401 0.21461 0.0
H1037 H 0.40835 0.72123 0.18316 0.0
H1038 H 0.3888 0.71435 0.16864 0.0
H1039 H 0.37496 0.68696 0.19977 0.0
C1040 C 0.33351 0.33128 0.15666 0.0
C1041 C 0.34302 0.32768 0.14705 0.0
C1042 C 0.3254 0.31496 0.13369 0.0
C1043 C 0.33903 0.3196 0.13575 0.0
C1044 C 0.31603 0.31846 0.14351 0.0
C1045 C 0.32003 0.32643 0.15477 0.0
U1046 U 0.35336 0.34788 0.18858 0.0
O1047 O 0.35569 0.36983 0.1929 0.0
O1048 O 0.34391 0.35676 0.20641 0.0
C1049 C 0.3479 0.36924 0.20348 0.0
C1050 C 0.33671 0.34115 0.16787 0.0
C1051 C 0.33801 0.38041 0.20543 0.0
C1052 C 0.32968 0.4032 0.20016 0.0
C1053 C 0.3376 0.392 0.19697 0.0
C1054 C 0.32217 0.39152 0.22025 0.0
C1055 C 0.32196 0.40327 0.21198 0.0
C1056 C 0.33006 0.38034 0.21704 0.0
C1057 C 0.3871 0.33026 0.20351 0.0
C1058 C 0.41157 0.33327 0.20885 0.0
C1059 C 0.39913 0.31461 0.21894 0.0
C1060 C 0.38711 0.31886 0.21222 0.0
C1061 C 0.41166 0.32155 0.21717 0.0
C1062 C 0.39952 0.3375 0.20206 0.0
C1063 C 0.37483 0.33289 0.19442 0.0
O1064 O 0.33494 0.33699 0.1804 0.0
O1065 O 0.3473 0.34945 0.16682 0.0
O1066 O 0.37505 0.34337 0.18609 0.0
O1067 O 0.36269 0.33038 0.19919 0.0
H1068 H 0.35348 0.33129 0.14812 0.0
H1069 H 0.34664 0.31706 0.12859 0.0
H1070 H 0.30541 0.31544 0.1423 0.0
H1071 H 0.3124 0.3292 0.16184 0.0
H1072 H 0.32974 0.41189 0.19338 0.0
H1073 H 0.34367 0.39258 0.18802 0.0
H1074 H 0.31665 0.3911 0.22955 0.0
H1075 H 0.3303 0.37178 0.22398 0.0
H1076 H 0.42095 0.33887 0.20706 0.0
H1077 H 0.39863 0.30567 0.22537 0.0
H1078 H 0.37786 0.31286 0.21345 0.0
H1079 H 0.40007 0.34617 0.19528 0.0
C1080 C 0.65679 0.33168 0.18343 0.0
C1081 C 0.64375 0.33667 0.18032 0.0
C1082 C 0.63321 0.31975 0.19524 0.0
C1083 C 0.63215 0.33083 0.18618 0.0
C1084 C 0.6463 0.31504 0.19863 0.0
C1085 C 0.65789 0.32087 0.19278 0.0
U1086 U 0.68798 0.35548 0.17394 0.0
O1087 O 0.70802 0.34912 0.16712 0.0
O1088 O 0.69465 0.36067 0.15336 0.0
C1089 C 0.70597 0.35391 0.15474 0.0
C1090 C 0.66888 0.33626 0.17565 0.0
C1091 C 0.70968 0.34504 0.14326 0.0
C1092 C 0.70434 0.3335 0.12173 0.0
C1093 C 0.70021 0.34092 0.13296 0.0
C1094 C 0.72742 0.33395 0.1309 0.0
C1095 C 0.71805 0.32997 0.12045 0.0
C1096 C 0.7233 0.34138 0.14209 0.0
C1097 C 0.69486 0.3886 0.19648 0.0
C1098 C 0.71451 0.40376 0.20116 0.0
C1099 C 0.69253 0.40954 0.20925 0.0
C1100 C 0.68684 0.39766 0.20343 0.0
C1101 C 0.70648 0.41283 0.20828 0.0
C1102 C 0.70879 0.39177 0.19536 0.0
C1103 C 0.68836 0.37565 0.19153 0.0
O1104 O 0.66771 0.34708 0.16785 0.0
O1105 O 0.68095 0.33554 0.18175 0.0
O1106 O 0.69498 0.36436 0.19356 0.0
O1107 O 0.68141 0.37584 0.17989 0.0
H1108 H 0.64242 0.3448 0.17299 0.0
H1109 H 0.62228 0.33468 0.18315 0.0
H1110 H 0.64761 0.30667 0.2057 0.0
H1111 H 0.6677 0.31661 0.19529 0.0
H1112 H 0.69674 0.3305 0.11404 0.0
H1113 H 0.68963 0.34355 0.1335 0.0
H1114 H 0.73808 0.33165 0.13029 0.0
H1115 H 0.73088 0.34451 0.14976 0.0
H1116 H 0.72524 0.40593 0.19998 0.0
H1117 H 0.68596 0.41597 0.21482 0.0
H1118 H 0.67611 0.3954 0.2046 0.0
H1119 H 0.71525 0.38496 0.19013 0.0
C1120 C 0.64897 0.32645 0.83354 0.0
C1121 C 0.6421 0.33616 0.82554 0.0
C1122 C 0.62485 0.31904 0.81801 0.0
C1123 C 0.63019 0.3325 0.81786 0.0
C1124 C 0.6319 0.30943 0.82602 0.0
C1125 C 0.64375 0.31308 0.83361 0.0
U1126 U 0.6825 0.3464 0.84602 0.0
O1127 O 0.68919 0.351 0.86721 0.0
O1128 O 0.70118 0.33757 0.85497 0.0
C1129 C 0.6998 0.34317 0.8669 0.0
C1130 C 0.66111 0.32981 0.84252 0.0
C1131 C 0.7035 0.33513 0.87938 0.0
C1132 C 0.71384 0.31534 0.89035 0.0
C1133 C 0.70826 0.3218 0.87872 0.0
C1134 C 0.70978 0.3352 0.90365 0.0
C1135 C 0.71493 0.32202 0.90298 0.0
C1136 C 0.7042 0.34163 0.89205 0.0
C1137 C 0.69687 0.37771 0.82577 0.0
C1138 C 0.71062 0.39763 0.83275 0.0
C1139 C 0.7085 0.39172 0.809 0.0
C1140 C 0.70017 0.38049 0.81227 0.0
C1141 C 0.71379 0.40056 0.81915 0.0
C1142 C 0.70227 0.38635 0.83602 0.0
C1143 C 0.68707 0.36634 0.82858 0.0
O1144 O 0.67315 0.32738 0.83784 0.0
O1145 O 0.661 0.34104 0.84963 0.0
O1146 O 0.67943 0.36747 0.83917 0.0
O1147 O 0.69136 0.35395 0.82699 0.0
H1148 H 0.64586 0.34657 0.8253 0.0
H1149 H 0.6252 0.34022 0.81177 0.0
H1150 H 0.6281 0.29906 0.82676 0.0
H1151 H 0.64873 0.3054 0.83978 0.0
H1152 H 0.71747 0.30513 0.88938 0.0
H1153 H 0.70804 0.31648 0.86914 0.0
H1154 H 0.71057 0.34084 0.91304 0.0
H1155 H 0.70091 0.35198 0.8929 0.0
H1156 H 0.71461 0.40406 0.84089 0.0
H1157 H 0.71047 0.39366 0.79841 0.0
H1158 H 0.69605 0.3741 0.80415 0.0
H1159 H 0.69992 0.3845 0.84654 0.0
C1160 C 0.65415 0.68275 0.81381 0.0
C1161 C 0.64334 0.68508 0.82242 0.0
C1162 C 0.63029 0.69619 0.80389 0.0
C1163 C 0.6316 0.69175 0.81754 0.0
C1164 C 0.64127 0.69399 0.79544 0.0
C1165 C 0.65296 0.68741 0.80032 0.0
U1166 U 0.68649 0.67052 0.83556 0.0
O1167 O 0.69248 0.64927 0.83895 0.0
O1168 O 0.70551 0.66303 0.8273 0.0
C1169 C 0.70347 0.65058 0.83177 0.0
C1170 C 0.66599 0.67421 0.81789 0.0
C1171 C 0.70693 0.63922 0.82262 0.0
C1172 C 0.70124 0.61844 0.80989 0.0
C1173 C 0.69721 0.6297 0.81742 0.0
C1174 C 0.72469 0.62606 0.8125 0.0
C1175 C 0.71509 0.61635 0.80738 0.0
C1176 C 0.72066 0.63727 0.81994 0.0
C1177 C 0.69928 0.69086 0.86865 0.0
C1178 C 0.70655 0.68765 0.89253 0.0
C1179 C 0.71257 0.70849 0.88099 0.0
C1180 C 0.7059 0.70368 0.86906 0.0
C1181 C 0.71288 0.70067 0.89304 0.0
C1182 C 0.69981 0.68284 0.88056 0.0
C1183 C 0.69042 0.68711 0.85646 0.0
O1184 O 0.67826 0.67947 0.81642 0.0
O1185 O 0.66514 0.66645 0.82876 0.0
O1186 O 0.68287 0.67592 0.85686 0.0
O1187 O 0.69525 0.68951 0.84438 0.0
H1188 H 0.64382 0.68155 0.83285 0.0
H1189 H 0.62352 0.69336 0.82449 0.0
H1190 H 0.6407 0.69695 0.78483 0.0
H1191 H 0.66097 0.68557 0.79334 0.0
H1192 H 0.69347 0.61137 0.80605 0.0
H1193 H 0.68654 0.63084 0.81933 0.0
H1194 H 0.73545 0.62482 0.81116 0.0
H1195 H 0.72842 0.64429 0.82395 0.0
H1196 H 0.70665 0.68117 0.90145 0.0
H1197 H 0.71702 0.71864 0.88086 0.0
H1198 H 0.70547 0.71027 0.86022 0.0
H1199 H 0.69473 0.67298 0.88076 0.0
C1200 C 0.34016 0.64943 0.83152 0.0
C1201 C 0.34327 0.64806 0.81777 0.0
C1202 C 0.33131 0.62585 0.81663 0.0
C1203 C 0.33895 0.63637 0.81043 0.0
C1204 C 0.3285 0.62724 0.83046 0.0
C1205 C 0.33286 0.63882 0.83776 0.0
U1206 U 0.35986 0.68352 0.84257 0.0
O1207 O 0.35064 0.70187 0.85063 0.0
O1208 O 0.36467 0.69021 0.86361 0.0
C1209 C 0.35651 0.70056 0.86275 0.0
C1210 C 0.34351 0.66192 0.83958 0.0
C1211 C 0.34857 0.70379 0.87496 0.0
C1212 C 0.32789 0.71121 0.88555 0.0
C1213 C 0.33456 0.70637 0.87418 0.0
C1214 C 0.34902 0.71083 0.89874 0.0
C1215 C 0.33505 0.71371 0.898 0.0
C1216 C 0.35563 0.70597 0.88743 0.0
C1217 C 0.39154 0.69795 0.82301 0.0
C1218 C 0.4159 0.70381 0.82473 0.0
C1219 C 0.40141 0.71585 0.80874 0.0
C1220 C 0.39012 0.70808 0.81294 0.0
C1221 C 0.41456 0.7137 0.81439 0.0
C1222 C 0.4046 0.69604 0.82893 0.0
C1223 C 0.37994 0.68828 0.82586 0.0
O1224 O 0.35469 0.66205 0.84729 0.0
O1225 O 0.34111 0.67374 0.83385 0.0
O1226 O 0.36749 0.69251 0.82358 0.0
O1227 O 0.38102 0.6805 0.83673 0.0
H1228 H 0.34883 0.6561 0.81265 0.0
H1229 H 0.34127 0.63575 0.7998 0.0
H1230 H 0.32287 0.61935 0.83571 0.0
H1231 H 0.33031 0.63957 0.84833 0.0
H1232 H 0.31711 0.71309 0.88452 0.0
H1233 H 0.32878 0.70493 0.86472 0.0
H1234 H 0.35504 0.7128 0.90796 0.0
H1235 H 0.36647 0.70434 0.88833 0.0
H1236 H 0.42581 0.70166 0.82924 0.0
H1237 H 0.39984 0.72345 0.8009 0.0
H1238 H 0.38031 0.70975 0.80798 0.0
H1239 H 0.40622 0.68819 0.83651 0.0
C1240 C 0.34025 0.38092 0.83784 0.0
C1241 C 0.33043 0.38627 0.8462 0.0
C1242 C 0.326 0.4047 0.8298 0.0
C1243 C 0.32336 0.398 0.8422 0.0
C1244 C 0.33575 0.39913 0.82147 0.0
C1245 C 0.34274 0.38745 0.82543 0.0
U1246 U 0.35001 0.3482 0.85896 0.0
O1247 O 0.35765 0.32909 0.85092 0.0
O1248 O 0.37068 0.34136 0.8648 0.0
C1249 C 0.3697 0.33057 0.85701 0.0
C1250 C 0.34833 0.36882 0.84168 0.0
C1251 C 0.38197 0.32687 0.84939 0.0
C1252 C 0.39284 0.31929 0.82884 0.0
C1253 C 0.38149 0.32442 0.83531 0.0
C1254 C 0.40544 0.31911 0.8503 0.0
C1255 C 0.40498 0.31638 0.83626 0.0
C1256 C 0.39415 0.32425 0.85672 0.0
C1257 C 0.32706 0.33709 0.88975 0.0
C1258 C 0.3306 0.32622 0.91199 0.0
C1259 C 0.30778 0.32848 0.90255 0.0
C1260 C 0.31301 0.3348 0.89098 0.0
C1261 C 0.31644 0.32417 0.91336 0.0
C1262 C 0.33584 0.33263 0.90036 0.0
C1263 C 0.33185 0.34537 0.87802 0.0
O1264 O 0.35548 0.36928 0.8532 0.0
O1265 O 0.34262 0.35683 0.83937 0.0
O1266 O 0.33013 0.34023 0.86579 0.0
O1267 O 0.34329 0.35247 0.87959 0.0
H1268 H 0.32832 0.38144 0.85583 0.0
H1269 H 0.31602 0.40198 0.84897 0.0
H1270 H 0.33794 0.40375 0.81176 0.0
H1271 H 0.35021 0.38353 0.81877 0.0
H1272 H 0.39204 0.31755 0.81801 0.0
H1273 H 0.37227 0.32621 0.82931 0.0
H1274 H 0.4144 0.31685 0.85651 0.0
H1275 H 0.39481 0.32579 0.8676 0.0
H1276 H 0.33768 0.32293 0.91992 0.0
H1277 H 0.29685 0.3274 0.90319 0.0
H1278 H 0.30597 0.3383 0.88309 0.0
H1279 H 0.34672 0.3343 0.8998 0.0
Cu1280 Cu 0.26639 0.25914 0.02826 0.0
N1281 N 0.26589 0.27432 0.01627 0.0
N1282 N 0.27169 0.28747 0.99841 0.0
C1283 C 0.27525 0.27709 0.00681 0.0
C1284 C 0.25963 0.29147 1.00297 0.0
C1285 C 0.25609 0.28338 0.0139 0.0
O1286 O 0.26726 0.24302 0.01516 0.0
C1287 C 0.27883 0.27389 0.04903 0.0
O1288 O 0.26787 0.28067 0.04569 0.0
H1289 H 0.28434 0.27127 0.00595 0.0
H1290 H 0.24681 0.28382 0.01941 0.0
N1291 N 0.25055 0.25594 0.03843 0.0
N1292 N 0.23725 0.24776 0.05501 0.0
C1293 C 0.25012 0.24959 0.05067 0.0
C1294 C 0.23749 0.25813 0.03483 0.0
C1295 C 0.22932 0.2532 0.04498 0.0
C1296 C 0.26509 0.24658 1.00268 0.0
O1297 O 0.26738 0.24176 0.01492 0.0
H1298 H 0.25913 0.24626 0.0562 0.0
H1299 H 0.23408 0.26262 0.0253 0.0
O1300 O 0.28104 0.26317 0.04221 0.0
H1301 H 0.25345 0.29933 0.99845 0.0
H1302 H 0.21832 0.25322 0.04471 0.0
Cu1303 Cu 0.77358 0.26448 0.00854 0.0
N1304 N 0.75871 0.26957 0.02041 0.0
N1305 N 0.74701 0.27831 0.03743 0.0
C1306 C 0.75918 0.27789 0.03134 0.0
C1307 C 0.73865 0.27002 0.02987 0.0
C1308 C 0.74585 0.26469 0.01949 0.0
O1309 O 0.78284 0.25456 0.02489 0.0
C1310 C 0.76643 0.28449 0.98654 0.0
O1311 O 0.77674 0.2917 0.99171 0.0
H1312 H 0.76829 0.28329 0.03493 0.0
H1313 H 0.742 0.25763 0.01184 0.0
N1314 N 0.78868 0.25966 0.99676 0.0
N1315 N 0.80123 0.25319 0.9793 0.0
C1316 C 0.7885 0.25403 0.98419 0.0
C1317 C 0.80187 0.26238 0.99985 0.0
C1318 C 0.80956 0.25839 0.98926 0.0
C1319 C 0.79035 0.2602 0.0342 0.0
O1320 O 0.79318 0.27326 0.03326 0.0
H1321 H 0.77927 0.25096 0.97863 0.0
H1322 H 0.80566 0.26709 0.00915 0.0
O1323 O 0.76339 0.27308 0.992 0.0
H1324 H 0.728 0.26797 0.03163 0.0
H1325 H 0.82053 0.25923 0.989 0.0
Cu1326 Cu 0.75336 0.76836 0.99959 0.0
N1327 N 0.7541 0.78383 0.98806 0.0
N1328 N 0.76109 0.79733 0.97094 0.0
C1329 C 0.7626 0.78535 0.97763 0.0
C1330 C 0.75117 0.80354 0.97754 0.0
C1331 C 0.74688 0.79523 0.988 0.0
O1332 O 0.75257 0.75298 0.98646 0.0
C1333 C 0.76656 0.78194 0.0206 0.0
O1334 O 0.75603 0.78935 0.01727 0.0
H1335 H 0.76963 0.77765 0.97495 0.0
H1336 H 0.73912 0.79743 0.9951 0.0
N1337 N 0.73773 0.76649 0.0102 0.0
N1338 N 0.72495 0.75953 0.02763 0.0
C1339 C 0.73718 0.759 0.02175 0.0
C1340 C 0.72539 0.77199 0.00868 0.0
C1341 C 0.71753 0.76773 0.01935 0.0
C1342 C 0.74244 0.75385 0.97792 0.0
O1343 O 0.73405 0.76381 0.97954 0.0
H1344 H 0.74576 0.75348 0.02586 0.0
H1345 H 0.7223 0.77861 1.00041 0.0
O1346 O 0.76824 0.77116 0.01366 0.0
H1347 H 0.74733 0.81349 0.97518 0.0
H1348 H 0.70708 0.77039 0.02076 0.0
Cu1349 Cu 0.26671 0.76367 0.0086 0.0
N1350 N 0.26475 0.77851 0.02052 0.0
N1351 N 0.25683 0.79018 0.03808 0.0
C1352 C 0.25576 0.77867 0.03062 0.0
C1353 C 0.26691 0.79755 0.03236 0.0
C1354 C 0.27174 0.79038 0.02159 0.0
O1355 O 0.26936 0.74817 0.02151 0.0
C1356 C 0.25114 0.77605 0.98861 0.0
O1357 O 0.26045 0.78526 0.99212 0.0
H1358 H 0.24878 0.7703 0.03264 0.0
H1359 H 0.27981 0.79361 0.01505 0.0
N1360 N 0.28214 0.76422 0.99751 0.0
N1361 N 0.29553 0.75862 0.98033 0.0
C1362 C 0.28335 0.75666 0.9862 0.0
C1363 C 0.29398 0.77127 0.99887 0.0
C1364 C 0.3022 0.76786 0.98839 0.0
C1365 C 0.27992 0.75003 0.02939 0.0
O1366 O 0.28734 0.7611 0.02751 0.0
H1367 H 0.27533 0.74986 0.98238 0.0
H1368 H 0.2966 0.77822 0.00703 0.0
O1369 O 0.25128 0.76464 0.995 0.0
H1370 H 0.27051 0.8075 0.03562 0.0
H1371 H 0.31245 0.77173 0.98707 0.0
Cu1372 Cu 0.00871 0.25714 0.27548 0.0
N1373 N 0.01995 0.24178 0.27524 0.0
N1374 N 0.03717 0.22875 0.26903 0.0
C1375 C 0.03087 0.24075 0.26737 0.0
C1376 C 0.02984 0.22199 0.2784 0.0
C1377 C 0.0193 0.23001 0.2822 0.0
O1378 O 0.02215 0.2724 0.2773 0.0
C1379 C 0.98869 0.24466 0.25973 0.0
O1380 O 0.9906 0.23633 0.27005 0.0
H1381 H 0.034 0.24867 0.2604 0.0
H1382 H 0.01168 0.22737 0.28947 0.0
N1383 N 0.99686 0.25822 0.29027 0.0
N1384 N 0.97934 0.2651 0.30252 0.0
C1385 C 0.98593 0.26628 0.29066 0.0
C1386 C 0.99722 0.25168 0.30229 0.0
C1387 C 0.98653 0.25588 0.30982 0.0
C1388 C 0.0291 0.27193 0.28854 0.0
O1389 O 0.02605 0.26225 0.29722 0.0
H1390 H 0.98284 0.2728 0.2823 0.0
H1391 H 1.00481 0.24449 0.30549 0.0
O1392 O 0.99613 0.25552 0.25939 0.0
H1393 H 0.03198 0.21199 0.28239 0.0
H1394 H 0.98444 0.25253 0.32003 0.0
Cu1395 Cu 0.76198 0.00869 0.25948 0.0
N1396 N 0.77778 0.02017 0.25885 0.0
N1397 N 0.79118 0.03792 0.25252 0.0
C1398 C 0.7788 0.03158 0.25115 0.0
C1399 C 0.79819 0.03006 0.26149 0.0
C1400 C 0.78996 0.01922 0.26536 0.0
O1401 O 0.74717 0.02213 0.26123 0.0
C1402 C 0.77363 0.98781 0.24582 0.0
O1403 O 0.78158 0.98994 0.25661 0.0
H1404 H 0.77046 0.03519 0.24478 0.0
H1405 H 0.79275 0.01118 0.27236 0.0
N1406 N 0.76072 0.99699 0.27487 0.0
N1407 N 0.75336 0.97937 0.28772 0.0
C1408 C 0.75205 0.98613 0.2757 0.0
C1409 C 0.76779 0.99714 0.2868 0.0
C1410 C 0.7633 0.98638 0.2947 0.0
C1411 C 0.74885 0.02927 0.27207 0.0
O1412 O 0.75928 0.02648 0.2802 0.0
H1413 H 0.74507 0.98314 0.26748 0.0
H1414 H 0.77563 1.00457 0.28962 0.0
O1415 O 0.76335 0.99554 0.24414 0.0
H1416 H 0.80864 0.03181 0.26494 0.0
H1417 H 0.76702 0.98406 0.30489 0.0
Cu1418 Cu 0.00542 0.75823 0.2497 0.0
N1419 N 0.99258 0.75979 0.23492 0.0
N1420 N 0.97436 0.76736 0.22268 0.0
C1421 C 0.98243 0.76885 0.23409 0.0
C1422 C 0.97977 0.75685 0.21615 0.0
C1423 C 0.99089 0.75226 0.22364 0.0
O1424 O 0.99338 0.75734 0.26559 0.0
C1425 C 0.02477 0.77368 0.2363 0.0
O1426 O 0.02007 0.76534 0.22682 0.0
H1427 H 0.98106 0.77638 0.24181 0.0
H1428 H 0.99723 0.74394 0.22105 0.0
N1429 N 0.01633 0.74259 0.24979 0.0
N1430 N 0.03365 0.72896 0.2559 0.0
C1431 C 0.02827 0.74144 0.25694 0.0
C1432 C 0.01406 0.73042 0.24396 0.0
C1433 C 0.02465 0.72205 0.24767 0.0
C1434 C 0.99112 0.74615 0.27196 0.0
O1435 O 0.99899 0.7359 0.26984 0.0
H1436 H 0.03283 0.74965 0.26288 0.0
H1437 H 1.00512 0.72764 0.23781 0.0
O1438 O 0.01924 0.77316 0.2479 0.0
H1439 H 0.97592 0.7525 0.20669 0.0
H1440 H 0.02537 0.71153 0.24484 0.0
Cu1441 Cu 0.26257 0.00674 0.26565 0.0
N1442 N 0.27784 0.01885 0.267 0.0
N1443 N 0.29109 0.03656 0.27409 0.0
C1444 C 0.27943 0.02927 0.27582 0.0
C1445 C 0.29718 0.03035 0.26385 0.0
C1446 C 0.28901 0.0195 0.25949 0.0
O1447 O 0.24687 0.01858 0.26181 0.0
C1448 C 0.27505 0.98832 0.2832 0.0
O1449 O 0.28515 0.99256 0.27576 0.0
H1450 H 0.27225 0.03139 0.28351 0.0
H1451 H 0.29109 0.01262 0.25138 0.0
N1452 N 0.2624 0.99511 0.25054 0.0
N1453 N 0.25554 0.97751 0.23733 0.0
C1454 C 0.25525 0.98323 0.24977 0.0
C1455 C 0.26736 0.99705 0.23811 0.0
C1456 C 0.26325 0.9862 0.22999 0.0
C1457 C 0.24268 0.02847 0.26872 0.0
O1458 O 0.24694 0.02983 0.28142 0.0
H1459 H 0.24971 0.97903 0.25818 0.0
H1460 H 0.27307 0.00597 0.23496 0.0
O1461 O 0.26345 0.9938 0.28123 0.0
H1462 H 0.30672 0.03359 0.25958 0.0
H1463 H 0.26528 0.98514 0.21934 0.0
Cu1464 Cu 0.0114 0.76592 0.75759 0.0
N1465 N 0.02251 0.75044 0.75632 0.0
N1466 N 0.03986 0.73793 0.74931 0.0
C1467 C 0.03335 0.74988 0.74823 0.0
C1468 C 0.03272 0.73069 0.75849 0.0
C1469 C 0.02212 0.73838 0.76277 0.0
O1470 O 0.0252 0.78067 0.76079 0.0
C1471 C 0.99169 0.7542 0.74117 0.0
O1472 O 0.99392 0.74527 0.75089 0.0
H1473 H 0.03652 0.75828 0.74186 0.0
H1474 H 0.01465 0.73531 0.77004 0.0
N1475 N 0.99919 0.76666 0.77212 0.0
N1476 N 0.98144 0.77387 0.78395 0.0
C1477 C 0.98914 0.77575 0.77286 0.0
C1478 C 0.99787 0.75869 0.78313 0.0
C1479 C 0.98704 0.76307 0.79038 0.0
C1480 C 0.03246 0.77821 0.77155 0.0
O1481 O 0.02896 0.76762 0.77894 0.0
H1482 H 0.98755 0.78357 0.76526 0.0
H1483 H 1.00425 0.75023 0.78571 0.0
O1484 O 0.99887 0.76525 0.74142 0.0
H1485 H 0.03486 0.72046 0.76183 0.0
H1486 H 0.98354 0.75838 0.79962 0.0
Cu1487 Cu 0.26388 0.01601 0.7645 0.0
N1488 N 0.26398 0.02829 0.74951 0.0
N1489 N 0.2711 0.04561 0.7362 0.0
C1490 C 0.27461 0.03639 0.7459 0.0
C1491 C 0.25778 0.04293 0.73336 0.0
C1492 C 0.25344 0.03234 0.74154 0.0
O1493 O 0.26263 0.02771 0.78091 0.0
C1494 C 0.27801 0.99709 0.7503 0.0
O1495 O 0.26858 1.00102 0.74148 0.0
H1496 H 0.28466 0.03578 0.75063 0.0
H1497 H 0.24316 0.02831 0.74201 0.0
N1498 N 0.24817 1.00456 0.76526 0.0
N1499 N 0.23504 0.98678 0.77191 0.0
C1500 C 0.24789 0.99182 0.77053 0.0
C1501 C 0.23504 0.00774 0.76332 0.0
C1502 C 0.22698 0.99684 0.76729 0.0
C1503 C 0.26805 0.03959 0.7824 0.0
O1504 O 0.27784 0.04339 0.7744 0.0
H1505 H 0.25699 0.98658 0.77371 0.0
H1506 H 0.23152 0.01756 0.76003 0.0
O1507 O 0.27867 1.00287 0.76197 0.0
H1508 H 0.25139 0.04867 0.72637 0.0
H1509 H 0.21599 0.9967 0.76743 0.0
Cu1510 Cu 0.03392 0.27254 0.76797 0.0
N1511 N 0.02186 0.28733 0.76806 0.0
N1512 N 1.0035 0.29959 0.76185 0.0
C1513 C 0.01056 0.28817 0.75982 0.0
C1514 C 0.01074 0.30617 0.77182 0.0
C1515 C 0.02198 0.29865 0.77559 0.0
O1516 O 0.0208 0.25692 0.76756 0.0
C1517 C 0.0542 0.28684 0.75519 0.0
O1518 O 0.05216 0.2938 0.76622 0.0
H1519 H 0.00751 0.28038 0.75258 0.0
H1520 H 0.02971 0.30133 0.78323 0.0
N1521 N 0.04585 0.2701 0.78347 0.0
N1522 N 0.06319 0.26173 0.79646 0.0
C1523 C 0.05627 0.26133 0.78427 0.0
C1524 C 0.04619 0.27631 0.79559 0.0
C1525 C 0.05675 0.27119 0.80356 0.0
C1526 C 0.01485 0.2549 0.77882 0.0
O1527 O 0.01882 0.26226 0.78934 0.0
H1528 H 0.05879 0.2549 0.77593 0.0
H1529 H 0.03917 0.28392 0.79852 0.0
O1530 O 0.04663 0.27623 0.75301 0.0
H1531 H 0.00827 0.31588 0.77601 0.0
H1532 H 0.05928 0.27415 0.81391 0.0
Cu1533 Cu 0.7703 0.02314 0.75162 0.0
N1534 N 0.78583 0.03499 0.75211 0.0
N1535 N 0.80022 0.05183 0.75926 0.0
C1536 C 0.7897 0.04338 0.76244 0.0
C1537 C 0.80325 0.04837 0.74649 0.0
C1538 C 0.7944 0.03806 0.74214 0.0
O1539 O 0.75438 0.03502 0.7488 0.0
C1540 C 0.78356 1.00458 0.76839 0.0
O1541 O 0.79334 0.00895 0.76063 0.0
H1542 H 0.78475 0.04342 0.77206 0.0
H1543 H 0.79403 0.03346 0.73222 0.0
N1544 N 0.76905 0.01133 0.73662 0.0
N1545 N 0.76139 0.99328 0.72443 0.0
C1546 C 0.7628 0.99896 0.73689 0.0
C1547 C 0.77167 0.01363 0.72348 0.0
C1548 C 0.76706 1.00252 0.71599 0.0
C1549 C 0.75282 0.04658 0.75429 0.0
O1550 O 0.76055 0.04997 0.76491 0.0
H1551 H 0.75866 0.99459 0.74601 0.0
H1552 H 0.77598 0.02295 0.71949 0.0
O1553 O 0.77193 0.01014 0.76706 0.0
H1554 H 0.81093 0.05333 0.74047 0.0
H1555 H 0.76757 1.00154 0.70509 0.0
Cu1556 Cu 0.25372 0.7629 0.50887 0.0
N1557 N 0.2538 0.77881 0.51982 0.0
N1558 N 0.26029 0.79317 0.53684 0.0
C1559 C 0.25939 0.7801 0.53257 0.0
C1560 C 0.25493 0.80037 0.52631 0.0
C1561 C 0.2511 0.79159 0.5159 0.0
O1562 O 0.25012 0.7477 0.52178 0.0
C1563 C 0.27295 0.75994 0.48701 0.0
O1564 O 0.26612 0.74886 0.48345 0.0
H1565 H 0.26349 0.77173 0.53833 0.0
H1566 H 0.24734 0.79448 0.50589 0.0
N1567 N 0.23939 0.76157 0.49528 0.0
N1568 N 0.22717 0.75347 0.47704 0.0
C1569 C 0.23674 0.75084 0.48692 0.0
C1570 C 0.23093 0.77121 0.49065 0.0
C1571 C 0.22344 0.76628 0.47952 0.0
C1572 C 0.25708 0.74382 0.53224 0.0
O1573 O 0.26982 0.74801 0.53378 0.0
H1574 H 0.2419 0.74132 0.48795 0.0
H1575 H 0.23048 0.7813 0.49476 0.0
O1576 O 0.27055 0.76545 0.49838 0.0
H1577 H 0.25415 0.81129 0.52591 0.0
H1578 H 0.21621 0.77197 0.47338 0.0
Cu1579 Cu 0.76316 0.76764 0.50926 0.0
N1580 N 0.77808 0.76795 0.49757 0.0
N1581 N 0.79075 0.76197 0.48002 0.0
C1582 C 0.77879 0.76022 0.48633 0.0
C1583 C 0.7978 0.77124 0.4877 0.0
C1584 C 0.79002 0.77488 0.49843 0.0
O1585 O 0.74723 0.7679 0.49638 0.0
C1586 C 0.77697 0.75402 0.52951 0.0
O1587 O 0.78456 0.7649 0.52727 0.0
H1588 H 0.7706 0.75343 0.48288 0.0
H1589 H 0.79305 0.78187 0.50644 0.0
N1590 N 0.76182 0.78282 0.52084 0.0
N1591 N 0.75469 0.79531 0.53823 0.0
C1592 C 0.7532 0.78353 0.53121 0.0
C1593 C 0.76906 0.79456 0.52127 0.0
C1594 C 0.76473 0.80222 0.5319 0.0
C1595 C 0.74622 0.77922 0.48999 0.0
O1596 O 0.75503 0.78901 0.49315 0.0
H1597 H 0.74597 0.77547 0.53349 0.0
H1598 H 0.77699 0.79737 0.5144 0.0
O1599 O 0.76605 0.75235 0.52216 0.0
H1600 H 0.80804 0.77494 0.48595 0.0
H1601 H 0.76894 0.81206 0.53481 0.0
Cu1602 Cu 0.76597 0.25763 0.51394 0.0
N1603 N 0.76503 0.24237 0.50211 0.0
N1604 N 0.75847 0.22946 0.48402 0.0
C1605 C 0.75697 0.24132 0.49068 0.0
C1606 C 0.76788 0.22281 0.49167 0.0
C1607 C 0.77187 0.23073 0.50272 0.0
O1608 O 0.76726 0.27318 0.50097 0.0
C1609 C 0.75164 0.24443 0.53397 0.0
O1610 O 0.76156 0.23622 0.53154 0.0
H1611 H 0.75027 0.24926 0.48723 0.0
H1612 H 0.77919 0.22809 0.51067 0.0
N1613 N 0.78155 0.25925 0.52593 0.0
N1614 N 0.79494 0.26707 0.54344 0.0
C1615 C 0.78278 0.26792 0.53655 0.0
C1616 C 0.79333 0.25263 0.52612 0.0
C1617 C 0.80155 0.2574 0.53682 0.0
C1618 C 0.77824 0.2732 0.49429 0.0
O1619 O 0.78701 0.26368 0.49716 0.0
H1620 H 0.77491 0.27485 0.53905 0.0
H1621 H 0.79585 0.24491 0.51896 0.0
O1622 O 0.75083 0.25533 0.52679 0.0
H1623 H 0.77153 0.21281 0.48961 0.0
H1624 H 0.8116 0.25385 0.53955 0.0
Cu1625 Cu 0.27172 0.26995 0.5129 0.0
N1626 N 0.27138 0.28544 0.52421 0.0
N1627 N 0.26533 0.29852 0.54162 0.0
C1628 C 0.26345 0.2865 0.53509 0.0
C1629 C 0.2749 0.30523 0.53444 0.0
C1630 C 0.27855 0.29721 0.52379 0.0
O1631 O 0.27361 0.25481 0.52613 0.0
C1632 C 0.25656 0.28181 0.49258 0.0
O1633 O 0.26695 0.29022 0.49482 0.0
H1634 H 0.25637 0.27854 0.53805 0.0
H1635 H 0.28592 0.29985 0.51628 0.0
N1636 N 0.28666 0.26901 0.50128 0.0
N1637 N 0.29907 0.26196 0.48394 0.0
C1638 C 0.28731 0.26044 0.49066 0.0
C1639 C 0.29844 0.27624 0.50132 0.0
C1640 C 0.30604 0.27196 0.49071 0.0
C1641 C 0.28479 0.25581 0.53317 0.0
O1642 O 0.2932 0.26592 0.53038 0.0
H1643 H 0.27927 0.25314 0.48803 0.0
H1644 H 0.30137 0.28405 0.50855 0.0
O1645 O 0.25582 0.27113 0.50005 0.0
H1646 H 0.27918 0.31519 0.53673 0.0
H1647 H 0.31591 0.2761 0.48813 0.0
Cu1648 Cu 0.7762 0.51323 0.76139 0.0
N1649 N 0.79136 0.52544 0.76056 0.0
N1650 N 0.80368 0.54364 0.75356 0.0
C1651 C 0.79179 0.53642 0.75224 0.0
C1652 C 0.811 0.53682 0.76315 0.0
C1653 C 0.80341 0.52569 0.76744 0.0
O1654 O 0.76069 0.52578 0.76253 0.0
C1655 C 0.78922 0.4929 0.74861 0.0
O1656 O 0.79704 0.49607 0.75925 0.0
H1657 H 0.78338 0.53912 0.74549 0.0
H1658 H 0.80654 0.51827 0.77497 0.0
N1659 N 0.77523 0.50197 0.77702 0.0
N1660 N 0.76785 0.48456 0.79002 0.0
C1661 C 0.76652 0.49121 0.77798 0.0
C1662 C 0.7824 0.50219 0.7889 0.0
C1663 C 0.77788 0.49151 0.79691 0.0
C1664 C 0.76193 0.5331 0.77327 0.0
O1665 O 0.77243 0.53092 0.78153 0.0
H1666 H 0.75948 0.4882 0.7698 0.0
H1667 H 0.7903 0.50959 0.79161 0.0
O1668 O 0.77838 0.49975 0.74661 0.0
H1669 H 0.82122 0.5395 0.76674 0.0
H1670 H 0.78163 0.4892 0.8071 0.0
Cu1671 Cu 0.27083 0.52019 0.77019 0.0
N1672 N 0.27226 0.50887 0.78582 0.0
N1673 N 0.27925 0.4914 0.79907 0.0
C1674 C 0.27773 0.49637 0.78623 0.0
C1675 C 0.27447 0.50121 0.807 0.0
C1676 C 0.27029 0.51192 0.79887 0.0
O1677 O 0.26799 0.507 0.75513 0.0
C1678 C 0.28802 0.54445 0.76642 0.0
O1679 O 0.27965 0.5474 0.75624 0.0
H1680 H 0.28117 0.49134 0.7773 0.0
H1681 H 0.26666 0.52149 0.80235 0.0
N1682 N 0.25563 0.53177 0.76951 0.0
N1683 N 0.24179 0.5482 0.76163 0.0
C1684 C 0.25137 0.53916 0.75858 0.0
C1685 C 0.24821 0.53608 0.77977 0.0
C1686 C 0.2397 0.54612 0.77497 0.0
C1687 C 0.25677 0.50019 0.75612 0.0
O1688 O 0.24888 0.5033 0.76607 0.0
H1689 H 0.2556 0.53824 0.74865 0.0
H1690 H 0.2493 0.53266 0.79018 0.0
O1691 O 0.28705 0.53268 0.77195 0.0
H1692 H 0.27423 0.50086 0.81797 0.0
H1693 H 0.23303 0.55194 0.78106 0.0
Cu1694 Cu 0.26894 0.50793 0.26637 0.0
N1695 N 0.26771 0.49743 0.28248 0.0
N1696 N 0.26032 0.48048 0.29605 0.0
C1697 C 0.25905 0.48666 0.28376 0.0
C1698 C 0.27022 0.48777 0.30278 0.0
C1699 C 0.27476 0.49815 0.29441 0.0
O1700 O 0.2712 0.49372 0.25222 0.0
C1701 C 0.25523 0.52908 0.27693 0.0
O1702 O 0.26581 0.52729 0.28519 0.0
H1703 H 0.25191 0.4835 0.27574 0.0
H1704 H 0.2827 0.5056 0.29684 0.0
N1705 N 0.2843 0.51981 0.26514 0.0
N1706 N 0.29688 0.53758 0.25758 0.0
C1707 C 0.28481 0.53064 0.25665 0.0
C1708 C 0.29649 0.51986 0.27176 0.0
C1709 C 0.30423 0.53073 0.26712 0.0
C1710 C 0.28157 0.48639 0.25504 0.0
O1711 O 0.28909 0.48965 0.26586 0.0
H1712 H 0.27631 0.53341 0.25003 0.0
H1713 H 0.29959 0.51248 0.27934 0.0
O1714 O 0.25359 0.52085 0.26689 0.0
H1715 H 0.27414 0.48564 0.31294 0.0
H1716 H 0.31458 0.5332 0.27046 0.0
Cu1717 Cu 0.76794 0.51896 0.2584 0.0
N1718 N 0.78295 0.5072 0.26017 0.0
N1719 N 0.79496 0.48933 0.26803 0.0
C1720 C 0.78314 0.49612 0.26839 0.0
C1721 C 0.80247 0.49656 0.25913 0.0
C1722 C 0.79509 0.50747 0.25432 0.0
O1723 O 0.75246 0.50575 0.25596 0.0
C1724 C 0.78101 0.53941 0.2726 0.0
O1725 O 0.78891 0.53672 0.26255 0.0
H1726 H 0.77461 0.49308 0.27443 0.0
H1727 H 0.79843 0.51509 0.24715 0.0
N1728 N 0.76679 0.53078 0.24307 0.0
N1729 N 0.75909 0.54822 0.23016 0.0
C1730 C 0.75753 0.54067 0.2416 0.0
C1731 C 0.77456 0.53209 0.23215 0.0
C1732 C 0.76984 0.54275 0.22421 0.0
C1733 C 0.75339 0.49911 0.24488 0.0
O1734 O 0.7635 0.5024 0.23703 0.0
H1735 H 0.74978 0.54224 0.2489 0.0
H1736 H 0.78313 0.52586 0.23014 0.0
O1737 O 0.7701 0.53209 0.27366 0.0
H1738 H 0.81271 0.49433 0.25635 0.0
H1739 H 0.77426 0.54633 0.2149 0.0
Cu1740 Cu 0.51487 0.26304 0.76902 0.0
N1741 N 0.50363 0.26345 0.78437 0.0
N1742 N 0.48654 0.26975 0.79756 0.0
C1743 C 0.49264 0.27135 0.78547 0.0
C1744 C 0.49411 0.26041 0.80428 0.0
C1745 C 0.50452 0.25657 0.79619 0.0
O1746 O 0.50144 0.26151 0.75349 0.0
C1747 C 0.53559 0.2776 0.78199 0.0
O1748 O 0.53298 0.26745 0.79028 0.0
H1749 H 0.48917 0.27808 0.77743 0.0
H1750 H 0.51231 0.24939 0.79887 0.0
N1751 N 0.52645 0.24799 0.76767 0.0
N1752 N 0.54371 0.23568 0.76017 0.0
C1753 C 0.5368 0.2474 0.75899 0.0
C1754 C 0.5268 0.23621 0.77463 0.0
C1755 C 0.53735 0.22865 0.77005 0.0
C1756 C 0.49434 0.25042 0.75394 0.0
O1757 O 0.49715 0.24186 0.76386 0.0
H1758 H 0.5391 0.25546 0.75187 0.0
H1759 H 0.51991 0.23329 0.7825 0.0
O1760 O 0.52822 0.27849 0.77102 0.0
H1761 H 0.49248 0.25673 0.81447 0.0
H1762 H 0.54019 0.21879 0.77393 0.0
Cu1763 Cu 0.51665 0.76506 0.75311 0.0
N1764 N 0.52823 0.74988 0.75234 0.0
N1765 N 0.54547 0.73606 0.75833 0.0
C1766 C 0.53664 0.74539 0.76254 0.0
C1767 C 0.54223 0.73446 0.74498 0.0
C1768 C 0.53172 0.74294 0.74135 0.0
O1769 O 0.5291 0.78106 0.75103 0.0
C1770 C 0.49893 0.75091 0.76939 0.0
O1771 O 0.50176 0.74199 0.76013 0.0
H1772 H 0.53656 0.7493 0.77276 0.0
H1773 H 0.52743 0.74438 0.73123 0.0
N1774 N 0.50371 0.76679 0.73846 0.0
N1775 N 0.48513 0.77442 0.72688 0.0
C1776 C 0.49138 0.77254 0.73925 0.0
C1777 C 0.50537 0.76507 0.72511 0.0
C1778 C 0.49399 0.76963 0.71801 0.0
C1779 C 0.54118 0.78214 0.75624 0.0
O1780 O 0.54468 0.77405 0.76633 0.0
H1781 H 0.4873 0.77567 0.74876 0.0
H1782 H 0.51451 0.76147 0.72073 0.0
O1783 O 0.50505 0.76254 0.76904 0.0
H1784 H 0.54754 0.72817 0.73806 0.0
H1785 H 0.49274 0.77001 0.70706 0.0
Cu1786 Cu 0.50463 0.7661 0.2587 0.0
N1787 N 0.49203 0.78043 0.25935 0.0
N1788 N 0.47457 0.79248 0.26685 0.0
C1789 C 0.48495 0.78413 0.27025 0.0
C1790 C 0.47537 0.79421 0.25327 0.0
C1791 C 0.48598 0.78676 0.24872 0.0
O1792 O 0.49319 0.74957 0.25509 0.0
C1793 C 0.52336 0.77926 0.2757 0.0
O1794 O 0.51939 0.78886 0.26725 0.0
H1795 H 0.48693 0.78013 0.28036 0.0
H1796 H 0.48845 0.7853 0.23823 0.0
N1797 N 0.51664 0.76697 0.24407 0.0
N1798 N 0.53446 0.76143 0.23155 0.0
C1799 C 0.52646 0.75789 0.24202 0.0
C1800 C 0.51848 0.77665 0.23458 0.0
C1801 C 0.52936 0.77326 0.22686 0.0
C1802 C 0.48117 0.74779 0.25943 0.0
O1803 O 0.47736 0.75531 0.26948 0.0
H1804 H 0.52797 0.74908 0.24845 0.0
H1805 H 0.5126 0.78573 0.23354 0.0
O1806 O 0.51744 0.76755 0.27464 0.0
H1807 H 0.46823 0.79972 0.24686 0.0
H1808 H 0.53321 0.77916 0.21847 0.0
Cu1809 Cu 0.52051 0.26072 0.25628 0.0
N1810 N 0.50811 0.24581 0.256 0.0
N1811 N 0.48994 0.23325 0.26233 0.0
C1812 C 0.49776 0.24457 0.2646 0.0
C1813 C 0.49572 0.22713 0.25181 0.0
C1814 C 0.50687 0.23487 0.24793 0.0
O1815 O 0.50793 0.27629 0.25677 0.0
C1816 C 0.54092 0.24587 0.26859 0.0
O1817 O 0.53736 0.23907 0.25756 0.0
H1818 H 0.49611 0.25188 0.27246 0.0
H1819 H 0.51354 0.23265 0.23981 0.0
N1820 N 0.53101 0.26308 0.24064 0.0
N1821 N 0.54796 0.27095 0.22772 0.0
C1822 C 0.54232 0.27112 0.24007 0.0
C1823 C 0.52945 0.25755 0.22822 0.0
C1824 C 0.53982 0.26239 0.22026 0.0
C1825 C 0.50049 0.2775 0.24586 0.0
O1826 O 0.50259 0.26927 0.23578 0.0
H1827 H 0.54623 0.2771 0.24857 0.0
H1828 H 0.52133 0.25054 0.22511 0.0
O1829 O 0.53443 0.25671 0.27093 0.0
H1830 H 0.49207 0.21782 0.24703 0.0
H1831 H 0.54132 0.25963 0.20982 0.0
C1832 C 0.21595 0.21783 0.12809 0.0
C1833 C 0.20856 0.20546 0.12679 0.0
C1834 C 0.22084 0.2249 0.11664 0.0
C1835 C 0.21835 0.21958 0.10341 0.0
C1836 C 0.21089 0.20714 0.10202 0.0
C1837 C 0.20612 0.20028 0.11363 0.0
C1838 C 0.22868 0.23812 0.11871 0.0
C1839 C 0.20797 0.20101 0.0882 0.0
C1840 C 0.21989 0.24349 0.07251 0.0
C1841 C 0.23273 0.24095 0.06733 0.0
C1842 C 0.21517 0.23672 0.08418 0.0
C1843 C 0.22342 0.22708 0.09105 0.0
C1844 C 0.23644 0.22455 0.086 0.0
C1845 C 0.24092 0.23148 0.07429 0.0
C1846 C 0.20127 0.23986 0.08914 0.0
C1847 C 0.24562 0.21439 0.09291 0.0
H1848 H 0.2178 0.22212 0.13809 0.0
H1849 H 0.20065 0.19067 0.11239 0.0
H1850 H 0.23891 0.23744 0.11443 0.0
H1851 H 0.22337 0.24642 0.11321 0.0
H1852 H 0.2299 0.24087 0.12961 0.0
H1853 H 0.20203 0.1913 0.08875 0.0
H1854 H 0.2022 0.20821 0.08165 0.0
H1855 H 0.21765 0.19912 0.08319 0.0
H1856 H 0.21349 0.25089 0.06748 0.0
H1857 H 0.25077 0.22924 0.07044 0.0
H1858 H 0.20213 0.24349 0.09977 0.0
H1859 H 0.19476 0.2305 0.0891 0.0
H1860 H 0.19611 0.24768 0.08279 0.0
H1861 H 0.24757 0.21721 0.1037 0.0
H1862 H 0.25553 0.21371 0.08794 0.0
H1863 H 0.24056 0.20421 0.09282 0.0
C1864 C 0.82544 0.21581 0.09511 0.0
C1865 C 0.81753 0.21576 0.10673 0.0
C1866 C 0.82139 0.22282 0.08314 0.0
C1867 C 0.80909 0.23003 0.08262 0.0
C1868 C 0.8011 0.2301 0.09432 0.0
C1869 C 0.8054 0.22303 0.10615 0.0
C1870 C 0.83027 0.22245 0.07098 0.0
C1871 C 0.78795 0.23765 0.09434 0.0
C1872 C 0.80393 0.25854 0.05637 0.0
C1873 C 0.79549 0.25226 0.04632 0.0
C1874 C 0.80852 0.25142 0.06806 0.0
C1875 C 0.80461 0.23761 0.06993 0.0
C1876 C 0.79619 0.23117 0.05977 0.0
C1877 C 0.79176 0.23853 0.04814 0.0
C1878 C 0.81749 0.25876 0.07852 0.0
C1879 C 0.79171 0.2165 0.06128 0.0
H1880 H 0.83472 0.21013 0.09526 0.0
H1881 H 0.79926 0.22334 0.11505 0.0
H1882 H 0.82448 0.21789 0.06222 0.0
H1883 H 0.83334 0.23292 0.06797 0.0
H1884 H 0.83959 0.21652 0.07299 0.0
H1885 H 0.78281 0.23663 0.10416 0.0
H1886 H 0.78995 0.24858 0.09227 0.0
H1887 H 0.78091 0.2338 0.08613 0.0
H1888 H 0.80692 0.26912 0.05516 0.0
H1889 H 0.78524 0.23352 0.04052 0.0
H1890 H 0.82715 0.25333 0.08019 0.0
H1891 H 0.81239 0.25888 0.08838 0.0
H1892 H 0.81992 0.26939 0.07547 0.0
H1893 H 0.80072 0.21002 0.06254 0.0
H1894 H 0.78542 0.21284 0.0524 0.0
H1895 H 0.78571 0.2152 0.07054 0.0
C1896 C 0.81115 0.81361 0.08452 0.0
C1897 C 0.80292 0.81313 0.09592 0.0
C1898 C 0.80706 0.80717 0.07219 0.0
C1899 C 0.79434 0.80008 0.07105 0.0
C1900 C 0.78628 0.79903 0.08269 0.0
C1901 C 0.79066 0.80545 0.09489 0.0
C1902 C 0.81609 0.80853 0.06018 0.0
C1903 C 0.77265 0.79165 0.08208 0.0
C1904 C 0.77437 0.79986 0.03711 0.0
C1905 C 0.77534 0.78641 0.03262 0.0
C1906 C 0.78078 0.80441 0.04928 0.0
C1907 C 0.78859 0.79538 0.05739 0.0
C1908 C 0.79015 0.78191 0.05269 0.0
C1909 C 0.78351 0.77757 0.04038 0.0
C1910 C 0.77873 0.81884 0.05369 0.0
C1911 C 0.79849 0.77196 0.06089 0.0
H1912 H 0.8206 0.8195 0.08501 0.0
H1913 H 0.7843 0.80462 0.10362 0.0
H1914 H 0.81709 0.79856 0.05521 0.0
H1915 H 0.81143 0.81549 0.05255 0.0
H1916 H 0.82639 0.81259 0.06312 0.0
H1917 H 0.76814 0.79065 0.09223 0.0
H1918 H 0.7655 0.79723 0.07526 0.0
H1919 H 0.77364 0.78137 0.07779 0.0
H1920 H 0.76824 0.80691 0.03122 0.0
H1921 H 0.78432 0.76716 0.0371 0.0
H1922 H 0.7887 0.8241 0.0556 0.0
H1923 H 0.77326 0.81883 0.06335 0.0
H1924 H 0.7728 0.82476 0.046 0.0
H1925 H 0.80858 0.77655 0.06378 0.0
H1926 H 0.8 0.76243 0.05525 0.0
H1927 H 0.7933 0.7694 0.07042 0.0
C1928 C 0.21072 0.8204 0.09599 0.0
C1929 C 0.2116 0.81292 0.1082 0.0
C1930 C 0.21765 0.81651 0.08438 0.0
C1931 C 0.22584 0.80487 0.08486 0.0
C1932 C 0.22664 0.79716 0.09706 0.0
C1933 C 0.21952 0.80122 0.10848 0.0
C1934 C 0.21641 0.82505 0.07164 0.0
C1935 C 0.2352 0.78469 0.09811 0.0
C1936 C 0.23585 0.78841 0.05153 0.0
C1937 C 0.24907 0.79376 0.0498 0.0
C1938 C 0.22819 0.79194 0.0628 0.0
C1939 C 0.23384 0.80098 0.07274 0.0
C1940 C 0.2472 0.80634 0.0711 0.0
C1941 C 0.25459 0.80271 0.0597 0.0
C1942 C 0.21398 0.78605 0.064 0.0
C1943 C 0.25376 0.81589 0.08144 0.0
H1944 H 0.20487 0.82955 0.09557 0.0
H1945 H 0.22018 0.79516 0.11769 0.0
H1946 H 0.22651 0.82951 0.06922 0.0
H1947 H 0.21296 0.81863 0.06292 0.0
H1948 H 0.20916 0.83341 0.07265 0.0
H1949 H 0.23462 0.77964 0.1082 0.0
H1950 H 0.23185 0.7773 0.09016 0.0
H1951 H 0.24598 0.78749 0.09633 0.0
H1952 H 0.23136 0.78162 0.04394 0.0
H1953 H 0.26482 0.80678 0.05867 0.0
H1954 H 0.20659 0.79435 0.06421 0.0
H1955 H 0.21319 0.78032 0.07368 0.0
H1956 H 0.21102 0.77915 0.05547 0.0
H1957 H 0.24753 0.82504 0.08233 0.0
H1958 H 0.26422 0.81914 0.07878 0.0
H1959 H 0.25421 0.8109 0.09158 0.0
C1960 C 0.22346 0.80181 0.91643 0.0
C1961 C 0.20955 0.80479 0.91518 0.0
C1962 C 0.22912 0.79568 0.92827 0.0
C1963 C 0.22077 0.79234 0.93932 0.0
C1964 C 0.20666 0.79489 0.93798 0.0
C1965 C 0.20126 0.80107 0.92603 0.0
C1966 C 0.24421 0.79328 0.92914 0.0
C1967 C 0.19729 0.7915 0.94939 0.0
C1968 C 0.23622 0.76969 0.96777 0.0
C1969 C 0.24149 0.77942 0.97701 0.0
C1970 C 0.22908 0.77363 0.95565 0.0
C1971 C 0.22709 0.78762 0.9527 0.0
C1972 C 0.23187 0.79735 0.96235 0.0
C1973 C 0.23896 0.79317 0.97424 0.0
C1974 C 0.22416 0.76287 0.94574 0.0
C1975 C 0.22999 0.81234 0.95988 0.0
H1976 H 0.2301 0.80474 0.90832 0.0
H1977 H 0.19048 0.80305 0.92522 0.0
H1978 H 0.24911 0.79999 0.93697 0.0
H1979 H 0.24615 0.78266 0.93229 0.0
H1980 H 0.24913 0.7953 0.91933 0.0
H1981 H 0.18643 0.79285 0.94636 0.0
H1982 H 0.19866 0.78086 0.95283 0.0
H1983 H 0.19987 0.79814 0.9582 0.0
H1984 H 0.2382 0.75908 0.96969 0.0
H1985 H 0.24289 0.80081 0.9813 0.0
H1986 H 0.23011 0.76369 0.9364 0.0
H1987 H 0.21334 0.76439 0.94269 0.0
H1988 H 0.22521 0.75248 0.95002 0.0
H1989 H 0.23567 0.81565 0.95086 0.0
H1990 H 0.23361 0.81858 0.96869 0.0
H1991 H 0.2191 0.81441 0.9577 0.0
C1992 C 0.24424 0.20323 0.93479 0.0
C1993 C 0.2302 0.2045 0.93202 0.0
C1994 C 0.25065 0.20871 0.94669 0.0
C1995 C 0.24294 0.21577 0.95614 0.0
C1996 C 0.22874 0.21688 0.95352 0.0
C1997 C 0.22259 0.21126 0.9416 0.0
C1998 C 0.26577 0.20717 0.949 0.0
C1999 C 0.22005 0.2244 0.96314 0.0
C2000 C 0.25658 0.22392 0.99245 0.0
C2001 C 0.26084 0.23756 0.99109 0.0
C2002 C 0.25111 0.21655 0.98112 0.0
C2003 C 0.24978 0.22294 0.96816 0.0
C2004 C 0.25444 0.23658 0.96679 0.0
C2005 C 0.25985 0.24365 0.9782 0.0
C2006 C 0.24636 0.20203 0.9831 0.0
C2007 C 0.25331 0.24394 0.95331 0.0
H2008 H 0.25027 0.19791 0.92765 0.0
H2009 H 0.21181 0.21256 0.9396 0.0
H2010 H 0.27095 0.21729 0.94867 0.0
H2011 H 0.26796 0.20278 0.95922 0.0
H2012 H 0.27019 0.20061 0.94127 0.0
H2013 H 0.20907 0.22369 0.96015 0.0
H2014 H 0.22145 0.22032 0.9736 0.0
H2015 H 0.22326 0.23527 0.96338 0.0
H2016 H 0.25716 0.21913 1.00237 0.0
H2017 H 0.26303 0.25421 0.97709 0.0
H2018 H 0.25094 0.19542 0.97553 0.0
H2019 H 0.23516 0.20123 0.98143 0.0
H2020 H 0.249 0.19816 0.99345 0.0
H2021 H 0.25832 0.23814 0.94538 0.0
H2022 H 0.25798 0.25431 0.95376 0.0
H2023 H 0.24244 0.24476 0.9501 0.0
C2024 C 0.82518 0.23137 0.90495 0.0
C2025 C 0.83452 0.22082 0.90626 0.0
C2026 C 0.81854 0.23641 0.9163 0.0
C2027 C 0.82124 0.23086 0.92942 0.0
C2028 C 0.83035 0.21996 0.93075 0.0
C2029 C 0.83681 0.2151 0.91924 0.0
C2030 C 0.80896 0.24802 0.9143 0.0
C2031 C 0.83357 0.21365 0.94445 0.0
C2032 C 0.81772 0.25303 0.96078 0.0
C2033 C 0.80553 0.24813 0.9663 0.0
C2034 C 0.82274 0.24767 0.94878 0.0
C2035 C 0.81544 0.23708 0.94187 0.0
C2036 C 0.80291 0.23232 0.94712 0.0
C2037 C 0.7981 0.2379 0.95922 0.0
C2038 C 0.83606 0.25322 0.94364 0.0
C2039 C 0.79472 0.22112 0.94011 0.0
H2040 H 0.82335 0.23605 0.8951 0.0
H2041 H 0.84375 0.2068 0.92046 0.0
H2042 H 0.79911 0.24556 0.91901 0.0
H2043 H 0.81334 0.2572 0.91943 0.0
H2044 H 0.807 0.25046 0.9034 0.0
H2045 H 0.8402 0.20475 0.94373 0.0
H2046 H 0.83878 0.22128 0.95117 0.0
H2047 H 0.82405 0.21039 0.94936 0.0
H2048 H 0.82344 0.26114 0.96588 0.0
H2049 H 0.78872 0.23397 0.96334 0.0
H2050 H 0.83464 0.2569 0.93303 0.0
H2051 H 0.84359 0.24504 0.94357 0.0
H2052 H 0.84035 0.26169 0.94995 0.0
H2053 H 0.79267 0.22383 0.9293 0.0
H2054 H 0.78488 0.21901 0.94499 0.0
H2055 H 0.80064 0.21168 0.94029 0.0
C2056 C 0.80762 0.83452 0.91585 0.0
C2057 C 0.80483 0.82997 0.90251 0.0
C2058 C 0.80076 0.82892 0.927 0.0
C2059 C 0.79089 0.81835 0.92492 0.0
C2060 C 0.78825 0.81346 0.91156 0.0
C2061 C 0.79517 0.81932 0.90057 0.0
C2062 C 0.80395 0.8345 0.94101 0.0
C2063 C 0.77789 0.80217 0.90883 0.0
C2064 C 0.7808 0.79672 0.95567 0.0
C2065 C 0.76848 0.80243 0.95929 0.0
C2066 C 0.78808 0.80165 0.94449 0.0
C2067 C 0.78309 0.8127 0.93667 0.0
C2068 C 0.77068 0.81851 0.94022 0.0
C2069 C 0.76355 0.8133 0.95137 0.0
C2070 C 0.80121 0.79508 0.94108 0.0
C2071 C 0.76494 0.83032 0.93226 0.0
H2072 H 0.8152 0.84252 0.91763 0.0
H2073 H 0.79272 0.81577 0.89038 0.0
H2074 H 0.79466 0.83878 0.94517 0.0
H2075 H 0.80725 0.82623 0.94797 0.0
H2076 H 0.81205 0.84256 0.941 0.0
H2077 H 0.77747 0.79902 0.89802 0.0
H2078 H 0.78031 0.79321 0.91527 0.0
H2079 H 0.76766 0.8055 0.91154 0.0
H2080 H 0.78493 0.78846 0.96166 0.0
H2081 H 0.75401 0.81776 0.95377 0.0
H2082 H 0.80975 0.80262 0.94194 0.0
H2083 H 0.80064 0.7915 0.93042 0.0
H2084 H 0.80356 0.78633 0.94786 0.0
H2085 H 0.77236 0.83899 0.93253 0.0
H2086 H 0.7552 0.83373 0.93627 0.0
H2087 H 0.7632 0.82746 0.92146 0.0
C2088 C 0.10866 0.20332 0.24243 0.0
C2089 C 0.10803 0.20058 0.22842 0.0
C2090 C 0.09726 0.20795 0.2492 0.0
C2091 C 0.0848 0.20997 0.24187 0.0
C2092 C 0.08408 0.20722 0.22775 0.0
C2093 C 0.09563 0.20259 0.22124 0.0
C2094 C 0.09855 0.21065 0.26425 0.0
C2095 C 0.07109 0.20926 0.21946 0.0
C2096 C 0.05161 0.21015 0.26117 0.0
C2097 C 0.0491 0.22408 0.26224 0.0
C2098 C 0.06313 0.20546 0.25465 0.0
C2099 C 0.07251 0.21486 0.24896 0.0
C2100 C 0.07007 0.22893 0.25 0.0
C2101 C 0.05847 0.23334 0.25659 0.0
C2102 C 0.06522 0.19038 0.25378 0.0
C2103 C 0.07976 0.23936 0.24416 0.0
H2104 H 0.11807 0.20168 0.24818 0.0
H2105 H 0.09498 0.20077 0.2104 0.0
H2106 H 0.0961 0.22135 0.26629 0.0
H2107 H 0.09115 0.20414 0.26969 0.0
H2108 H 0.10893 0.20871 0.2685 0.0
H2109 H 0.07211 0.20663 0.20861 0.0
H2110 H 0.06274 0.20291 0.22365 0.0
H2111 H 0.06805 0.21998 0.22008 0.0
H2112 H 0.04446 0.20282 0.26527 0.0
H2113 H 0.05685 0.24411 0.25745 0.0
H2114 H 0.0752 0.18781 0.25859 0.0
H2115 H 0.06538 0.18729 0.24299 0.0
H2116 H 0.05712 0.18436 0.25884 0.0
H2117 H 0.09006 0.23824 0.24891 0.0
H2118 H 0.07646 0.2499 0.24577 0.0
H2119 H 0.0806 0.2377 0.2331 0.0
C2120 C 0.81262 0.11174 0.22271 0.0
C2121 C 0.82228 0.11075 0.21257 0.0
C2122 C 0.80701 0.10009 0.22907 0.0
C2123 C 0.81112 0.08697 0.22536 0.0
C2124 C 0.8207 0.08587 0.21502 0.0
C2125 C 0.82607 0.09768 0.20876 0.0
C2126 C 0.79681 0.10183 0.23997 0.0
C2127 C 0.82543 0.07218 0.21067 0.0
C2128 C 0.80763 0.05754 0.25083 0.0
C2129 C 0.79598 0.05034 0.24582 0.0
C2130 C 0.81257 0.0694 0.24434 0.0
C2131 C 0.80574 0.07444 0.23251 0.0
C2132 C 0.7939 0.06737 0.22747 0.0
C2133 C 0.78922 0.05546 0.23411 0.0
C2134 C 0.82522 0.07651 0.25014 0.0
C2135 C 0.78621 0.07233 0.21496 0.0
H2136 H 0.80966 0.12167 0.22596 0.0
H2137 H 0.83329 0.09662 0.20081 0.0
H2138 H 0.78737 0.09585 0.23745 0.0
H2139 H 0.80099 0.09791 0.24979 0.0
H2140 H 0.79415 0.11261 0.24128 0.0
H2141 H 0.83274 0.07297 0.20234 0.0
H2142 H 0.83041 0.06693 0.21943 0.0
H2143 H 0.8166 0.06574 0.20721 0.0
H2144 H 0.81292 0.05399 0.25993 0.0
H2145 H 0.78032 0.05009 0.22995 0.0
H2146 H 0.82296 0.08713 0.25271 0.0
H2147 H 0.83319 0.07691 0.24244 0.0
H2148 H 0.82938 0.07138 0.2594 0.0
H2149 H 0.78311 0.08294 0.21641 0.0
H2150 H 0.77699 0.06597 0.2125 0.0
H2151 H 0.7929 0.07231 0.20613 0.0
C2152 C 0.91445 0.81602 0.19434 0.0
C2153 C 0.90153 0.80989 0.196 0.0
C2154 C 0.9265 0.80979 0.19917 0.0
C2155 C 0.9258 0.79694 0.20574 0.0
C2156 C 0.91283 0.7908 0.20768 0.0
C2157 C 0.90095 0.79735 0.20295 0.0
C2158 C 0.94003 0.81686 0.197 0.0
C2159 C 0.91147 0.77711 0.21452 0.0
C2160 C 0.95663 0.77387 0.20516 0.0
C2161 C 0.96239 0.77506 0.21842 0.0
C2162 C 0.94489 0.78092 0.20095 0.0
C2163 C 0.9386 0.78965 0.21008 0.0
C2164 C 0.94441 0.79111 0.22339 0.0
C2165 C 0.9561 0.78381 0.2274 0.0
C2166 C 0.9391 0.7789 0.1867 0.0
C2167 C 0.93821 0.80036 0.23348 0.0
H2168 H 0.91524 0.82558 0.18891 0.0
H2169 H 0.89115 0.79253 0.20469 0.0
H2170 H 0.94596 0.81766 0.20676 0.0
H2171 H 0.94605 0.81082 0.19002 0.0
H2172 H 0.93888 0.8272 0.19263 0.0
H2173 H 0.90069 0.77376 0.21551 0.0
H2174 H 0.91672 0.76941 0.20861 0.0
H2175 H 0.91645 0.77742 0.22479 0.0
H2176 H 0.96129 0.76742 0.19792 0.0
H2177 H 0.96018 0.7849 0.23768 0.0
H2178 H 0.93878 0.78876 0.18123 0.0
H2179 H 0.92849 0.77486 0.18705 0.0
H2180 H 0.94512 0.77179 0.18078 0.0
H2181 H 0.93747 0.81076 0.22917 0.0
H2182 H 0.9442 0.80089 0.24324 0.0
H2183 H 0.92772 0.79674 0.23558 0.0
C2184 C 0.20839 0.91862 0.20315 0.0
C2185 C 0.21111 0.90573 0.20865 0.0
C2186 C 0.21581 0.9303 0.20757 0.0
C2187 C 0.22627 0.92918 0.21776 0.0
C2188 C 0.2292 0.91619 0.22321 0.0
C2189 C 0.22163 0.90468 0.21861 0.0
C2190 C 0.21228 0.94391 0.20148 0.0
C2191 C 0.24029 0.91445 0.23402 0.0
C2192 C 0.25299 0.95798 0.22152 0.0
C2193 C 0.24836 0.96528 0.23258 0.0
C2194 C 0.24598 0.94624 0.21664 0.0
C2195 C 0.23395 0.9416 0.2229 0.0
C2196 C 0.22925 0.94888 0.2341 0.0
C2197 C 0.23648 0.96055 0.23879 0.0
C2198 C 0.25145 0.9388 0.20476 0.0
C2199 C 0.21647 0.94438 0.24108 0.0
H2200 H 0.2002 0.91966 0.1956 0.0
H2201 H 0.224 0.8948 0.22281 0.0
H2202 H 0.20884 0.95071 0.20952 0.0
H2203 H 0.22142 0.94879 0.19709 0.0
H2204 H 0.20414 0.94307 0.19341 0.0
H2205 H 0.24153 0.90366 0.23703 0.0
H2206 H 0.25011 0.9185 0.23032 0.0
H2207 H 0.23794 0.92033 0.24316 0.0
H2208 H 0.26221 0.96137 0.21672 0.0
H2209 H 0.23263 0.96613 0.24719 0.0
H2210 H 0.24373 0.93846 0.19627 0.0
H2211 H 0.25355 0.92815 0.2077 0.0
H2212 H 0.26094 0.94363 0.20103 0.0
H2213 H 0.20769 0.94434 0.2337 0.0
H2214 H 0.21418 0.95105 0.24969 0.0
H2215 H 0.2175 0.93385 0.24496 0.0
C2216 C 0.09132 0.81806 0.8134 0.0
C2217 C 0.10442 0.81684 0.80835 0.0
C2218 C 0.07961 0.81346 0.80596 0.0
C2219 C 0.08087 0.80753 0.79302 0.0
C2220 C 0.09397 0.80701 0.78749 0.0
C2221 C 0.10554 0.81162 0.7952 0.0
C2222 C 0.06593 0.81428 0.81234 0.0
C2223 C 0.09588 0.80086 0.77374 0.0
C2224 C 0.05467 0.77951 0.78451 0.0
C2225 C 0.04521 0.78594 0.77575 0.0
C2226 C 0.06637 0.78631 0.78978 0.0
C2227 C 0.06888 0.80009 0.78635 0.0
C2228 C 0.05962 0.80662 0.77716 0.0
C2229 C 0.04792 0.79946 0.77192 0.0
C2230 C 0.07588 0.77878 0.79937 0.0
C2231 C 0.06191 0.82127 0.77319 0.0
H2232 H 0.09019 0.82236 0.82337 0.0
H2233 H 0.11553 0.81054 0.79112 0.0
H2234 H 0.05838 0.81867 0.80505 0.0
H2235 H 0.0622 0.80391 0.81498 0.0
H2236 H 0.0664 0.82049 0.82171 0.0
H2237 H 0.10621 0.80306 0.76997 0.0
H2238 H 0.09434 0.78969 0.77441 0.0
H2239 H 0.08824 0.80471 0.76621 0.0
H2240 H 0.05288 0.76901 0.78742 0.0
H2241 H 0.04072 0.80454 0.76517 0.0
H2242 H 0.07616 0.78363 0.80951 0.0
H2243 H 0.08638 0.77929 0.79561 0.0
H2244 H 0.07279 0.76794 0.8006 0.0
H2245 H 0.0609 0.8278 0.7822 0.0
H2246 H 0.05453 0.82457 0.76511 0.0
H2247 H 0.07237 0.82291 0.76957 0.0
C2248 C 0.22909 0.10311 0.81268 0.0
C2249 C 0.23218 0.10566 0.82649 0.0
C2250 C 0.23443 0.09186 0.80598 0.0
C2251 C 0.24303 0.08273 0.8132 0.0
C2252 C 0.24586 0.08503 0.82722 0.0
C2253 C 0.24047 0.09639 0.83363 0.0
C2254 C 0.23115 0.08995 0.79104 0.0
C2255 C 0.25482 0.07562 0.83544 0.0
C2256 C 0.24955 0.04777 0.79761 0.0
C2257 C 0.26212 0.04998 0.79149 0.0
C2258 C 0.24329 0.05821 0.80479 0.0
C2259 C 0.24968 0.07126 0.80595 0.0
C2260 C 0.26251 0.07342 0.80007 0.0
C2261 C 0.26851 0.06285 0.79298 0.0
C2262 C 0.22966 0.05534 0.81088 0.0
C2263 C 0.26983 0.08703 0.80103 0.0
H2264 H 0.22282 0.11016 0.80696 0.0
H2265 H 0.24278 0.09801 0.84434 0.0
H2266 H 0.24061 0.09097 0.78527 0.0
H2267 H 0.22685 0.0796 0.78917 0.0
H2268 H 0.22379 0.09746 0.78698 0.0
H2269 H 0.25548 0.07832 0.84637 0.0
H2270 H 0.25089 0.06501 0.83448 0.0
H2271 H 0.26523 0.07595 0.83147 0.0
H2272 H 0.24439 0.03798 0.79649 0.0
H2273 H 0.27819 0.06481 0.78833 0.0
H2274 H 0.22192 0.06195 0.80602 0.0
H2275 H 0.23016 0.05774 0.82187 0.0
H2276 H 0.22623 0.04459 0.8096 0.0
H2277 H 0.2635 0.09493 0.79607 0.0
H2278 H 0.27984 0.08706 0.79616 0.0
H2279 H 0.27148 0.08994 0.81183 0.0
C2280 C 0.94699 0.2093 0.79392 0.0
C2281 C 0.93874 0.21722 0.80195 0.0
C2282 C 0.95938 0.21446 0.78893 0.0
C2283 C 0.96373 0.22797 0.79188 0.0
C2284 C 0.95537 0.23607 0.79984 0.0
C2285 C 0.94309 0.2306 0.80483 0.0
C2286 C 0.96796 0.20533 0.78072 0.0
C2287 C 0.95947 0.25055 0.80319 0.0
C2288 C 1.0014 0.23854 0.79266 0.0
C2289 C 1.00271 0.24573 0.78041 0.0
C2290 C 0.98899 0.23225 0.79619 0.0
C2291 C 0.97736 0.23337 0.78741 0.0
C2292 C 0.97874 0.24019 0.77473 0.0
C2293 C 0.99141 0.24621 0.77135 0.0
C2294 C 0.98822 0.22492 0.80966 0.0
C2295 C 0.96664 0.24177 0.76508 0.0
H2296 H 0.94388 0.1989 0.79174 0.0
H2297 H 0.93679 0.23689 0.81087 0.0
H2298 H 0.97017 0.21017 0.77081 0.0
H2299 H 0.97787 0.20376 0.78616 0.0
H2300 H 0.96295 0.19527 0.77882 0.0
H2301 H 0.95157 0.25577 0.80884 0.0
H2302 H 0.96907 0.25077 0.80943 0.0
H2303 H 0.9614 0.25634 0.79372 0.0
H2304 H 0.01004 0.23824 0.79979 0.0
H2305 H 0.99222 0.25203 0.76202 0.0
H2306 H 0.98359 0.21463 0.80822 0.0
H2307 H 0.98162 0.23052 0.81646 0.0
H2308 H 0.99838 0.22393 0.81479 0.0
H2309 H 0.96151 0.23179 0.76315 0.0
H2310 H 0.96953 0.24634 0.75523 0.0
H2311 H 0.95914 0.24836 0.76975 0.0
C2312 C 0.80479 0.93681 0.81117 0.0
C2313 C 0.81086 0.92824 0.80189 0.0
C2314 C 0.79889 0.94915 0.80697 0.0
C2315 C 0.799 0.95319 0.79312 0.0
C2316 C 0.80484 0.94445 0.78367 0.0
C2317 C 0.81066 0.93219 0.78814 0.0
C2318 C 0.79277 0.95803 0.81743 0.0
C2319 C 0.80531 0.94826 0.76882 0.0
C2320 C 0.77675 0.98156 0.77801 0.0
C2321 C 0.78624 0.99238 0.77708 0.0
C2322 C 0.78056 0.96888 0.78366 0.0
C2323 C 0.79413 0.96698 0.78861 0.0
C2324 C 0.80347 0.97815 0.78836 0.0
C2325 C 0.79946 0.99058 0.78255 0.0
C2326 C 0.77024 0.95731 0.78361 0.0
C2327 C 0.81798 0.97681 0.7936 0.0
H2328 H 0.80464 0.93387 0.82178 0.0
H2329 H 0.81545 0.92589 0.78083 0.0
H2330 H 0.79873 0.96771 0.81831 0.0
H2331 H 0.78223 0.9606 0.8142 0.0
H2332 H 0.7926 0.95311 0.8276 0.0
H2333 H 0.80933 0.94001 0.76259 0.0
H2334 H 0.795 0.95073 0.76479 0.0
H2335 H 0.8119 0.95746 0.7676 0.0
H2336 H 0.76661 0.98274 0.77359 0.0
H2337 H 0.80689 0.99884 0.78184 0.0
H2338 H 0.77016 0.95228 0.79372 0.0
H2339 H 0.77307 0.9496 0.77614 0.0
H2340 H 0.75982 0.96073 0.78089 0.0
H2341 H 0.81823 0.97252 0.80404 0.0
H2342 H 0.82367 0.98668 0.79371 0.0
H2343 H 0.82334 0.96969 0.78708 0.0
C2344 C 0.19607 0.08605 0.23227 0.0
C2345 C 0.20381 0.09799 0.22987 0.0
C2346 C 0.20191 0.07444 0.23831 0.0
C2347 C 0.21597 0.07452 0.24196 0.0
C2348 C 0.22394 0.08637 0.23926 0.0
C2349 C 0.2178 0.09791 0.23333 0.0
C2350 C 0.19294 0.06213 0.24098 0.0
C2351 C 0.23899 0.08694 0.24282 0.0
C2352 C 0.22931 0.04999 0.2695 0.0
C2353 C 0.23477 0.03958 0.26186 0.0
C2354 C 0.22302 0.06123 0.26318 0.0
C2355 C 0.22226 0.06232 0.24881 0.0
C2356 C 0.22759 0.05176 0.24104 0.0
C2357 C 0.23367 0.04054 0.24762 0.0
C2358 C 0.21732 0.07206 0.27194 0.0
C2359 C 0.22718 0.05246 0.22572 0.0
H2360 H 0.18533 0.08572 0.22942 0.0
H2361 H 0.22396 0.107 0.23173 0.0
H2362 H 0.19683 0.05318 0.23574 0.0
H2363 H 0.19317 0.05977 0.25201 0.0
H2364 H 0.18222 0.0636 0.23751 0.0
H2365 H 0.24392 0.09662 0.23954 0.0
H2366 H 0.24065 0.08582 0.25396 0.0
H2367 H 0.24407 0.0784 0.23799 0.0
H2368 H 0.23008 0.04945 0.28049 0.0
H2369 H 0.23795 0.03269 0.24155 0.0
H2370 H 0.20643 0.07352 0.26914 0.0
H2371 H 0.22276 0.08187 0.27017 0.0
H2372 H 0.21824 0.06953 0.28293 0.0
H2373 H 0.21654 0.05347 0.22181 0.0
H2374 H 0.23152 0.04337 0.2211 0.0
H2375 H 0.23298 0.06159 0.22232 0.0
C2376 C 0.21251 0.9122 0.79883 0.0
C2377 C 0.2061 0.91301 0.81134 0.0
C2378 C 0.21783 0.92388 0.79229 0.0
C2379 C 0.21671 0.93682 0.79828 0.0
C2380 C 0.21045 0.9377 0.81098 0.0
C2381 C 0.2053 0.92587 0.81733 0.0
C2382 C 0.22443 0.92237 0.77881 0.0
C2383 C 0.20901 0.95122 0.81779 0.0
C2384 C 0.23946 0.96676 0.78699 0.0
C2385 C 0.23071 0.97397 0.77811 0.0
C2386 C 0.23513 0.95464 0.79345 0.0
C2387 C 0.22168 0.94948 0.7911 0.0
C2388 C 0.21286 0.95658 0.78203 0.0
C2389 C 0.21746 0.96862 0.77566 0.0
C2390 C 0.24494 0.94744 0.80298 0.0
C2391 C 0.19845 0.95151 0.77913 0.0
H2392 H 0.21308 0.90246 0.79392 0.0
H2393 H 0.20062 0.92671 0.82707 0.0
H2394 H 0.2185 0.92783 0.77079 0.0
H2395 H 0.23481 0.92703 0.77926 0.0
H2396 H 0.22513 0.91159 0.77579 0.0
H2397 H 0.20417 0.95022 0.82778 0.0
H2398 H 0.21913 0.95628 0.81934 0.0
H2399 H 0.20276 0.95796 0.81117 0.0
H2400 H 0.24965 0.97071 0.78916 0.0
H2401 H 0.21061 0.97384 0.76869 0.0
H2402 H 0.24595 0.93676 0.79975 0.0
H2403 H 0.24096 0.94718 0.81337 0.0
H2404 H 0.2552 0.95242 0.80338 0.0
H2405 H 0.19847 0.94105 0.77507 0.0
H2406 H 0.19288 0.95806 0.77171 0.0
H2407 H 0.19281 0.9511 0.78869 0.0
C2408 C 0.11969 0.21211 0.82961 0.0
C2409 C 0.13276 0.21477 0.82466 0.0
C2410 C 0.1083 0.2196 0.82507 0.0
C2411 C 0.10981 0.23009 0.81524 0.0
C2412 C 0.12294 0.23286 0.81023 0.0
C2413 C 0.13416 0.22526 0.81499 0.0
C2414 C 0.09459 0.21624 0.83078 0.0
C2415 C 0.12516 0.2439 0.7998 0.0
C2416 C 0.0783 0.24182 0.79443 0.0
C2417 C 0.07491 0.25383 0.80104 0.0
C2418 C 0.08954 0.23406 0.79889 0.0
C2419 C 0.09773 0.23825 0.81033 0.0
C2420 C 0.09439 0.25034 0.81704 0.0
C2421 C 0.08316 0.25793 0.81234 0.0
C2422 C 0.09264 0.22131 0.79135 0.0
C2423 C 0.10274 0.2553 0.82925 0.0
H2424 H 0.11827 0.20396 0.83689 0.0
H2425 H 0.14413 0.22769 0.81118 0.0
H2426 H 0.09053 0.22534 0.83562 0.0
H2427 H 0.08728 0.2132 0.82246 0.0
H2428 H 0.09504 0.20791 0.83842 0.0
H2429 H 0.13591 0.24472 0.79674 0.0
H2430 H 0.11858 0.24191 0.79062 0.0
H2431 H 0.12224 0.25382 0.80392 0.0
H2432 H 0.07209 0.23833 0.78582 0.0
H2433 H 0.08096 0.26721 0.81751 0.0
H2434 H 0.0922 0.21245 0.79833 0.0
H2435 H 0.10312 0.22203 0.78755 0.0
H2436 H 0.08543 0.21942 0.7826 0.0
H2437 H 0.10281 0.2474 0.83732 0.0
H2438 H 0.09879 0.26478 0.83347 0.0
H2439 H 0.11344 0.2572 0.82643 0.0
C2440 C 0.83509 0.10867 0.80856 0.0
C2441 C 0.83348 0.12172 0.80297 0.0
C2442 C 0.82994 0.09698 0.80176 0.0
C2443 C 0.82296 0.09825 0.78899 0.0
C2444 C 0.82138 0.11137 0.78324 0.0
C2445 C 0.82664 0.12288 0.79025 0.0
C2446 C 0.83187 0.08325 0.80832 0.0
C2447 C 0.81408 0.11326 0.76966 0.0
C2448 C 0.81949 0.06773 0.76516 0.0
C2449 C 0.80611 0.06304 0.76717 0.0
C2450 C 0.82514 0.07901 0.77229 0.0
C2451 C 0.81724 0.08591 0.78168 0.0
C2452 C 0.80377 0.08113 0.78388 0.0
C2453 C 0.7984 0.06979 0.77666 0.0
C2454 C 0.83956 0.08362 0.76966 0.0
C2455 C 0.79492 0.08817 0.79371 0.0
H2456 H 0.84015 0.10759 0.81844 0.0
H2457 H 0.82547 0.13283 0.78569 0.0
H2458 H 0.82181 0.07837 0.81016 0.0
H2459 H 0.83724 0.07655 0.80141 0.0
H2460 H 0.83776 0.08391 0.81813 0.0
H2461 H 0.8137 0.12409 0.76653 0.0
H2462 H 0.81924 0.10756 0.76174 0.0
H2463 H 0.80352 0.10909 0.77007 0.0
H2464 H 0.82562 0.06255 0.75801 0.0
H2465 H 0.78801 0.06644 0.7782 0.0
H2466 H 0.84573 0.08367 0.77931 0.0
H2467 H 0.83966 0.09416 0.76565 0.0
H2468 H 0.84448 0.07702 0.76229 0.0
H2469 H 0.80001 0.08851 0.80393 0.0
H2470 H 0.7848 0.08304 0.79455 0.0
H2471 H 0.7934 0.09881 0.79037 0.0
C2472 C 0.90914 0.80525 0.80085 0.0
C2473 C 0.91028 0.81715 0.80868 0.0
C2474 C 0.92071 0.79848 0.79654 0.0
C2475 C 0.93394 0.80373 0.79989 0.0
C2476 C 0.93521 0.81592 0.80746 0.0
C2477 C 0.92346 0.8224 0.8118 0.0
C2478 C 0.91874 0.78554 0.78854 0.0
C2479 C 0.94904 0.82202 0.81121 0.0
C2480 C 0.96373 0.77924 0.80063 0.0
C2481 C 0.96967 0.78154 0.78797 0.0
C2482 C 0.95224 0.78635 0.80459 0.0
C2483 C 0.9464 0.79625 0.79583 0.0
C2484 C 0.95236 0.79878 0.78312 0.0
C2485 C 0.96378 0.79142 0.77935 0.0
C2486 C 0.94628 0.78318 0.8182 0.0
C2487 C 0.94661 0.80927 0.77344 0.0
H2488 H 0.89914 0.80113 0.79803 0.0
H2489 H 0.92467 0.83143 0.81795 0.0
H2490 H 0.92375 0.78656 0.77867 0.0
H2491 H 0.9236 0.77706 0.79416 0.0
H2492 H 0.90782 0.78282 0.78658 0.0
H2493 H 0.94837 0.8319 0.81646 0.0
H2494 H 0.95472 0.81495 0.81799 0.0
H2495 H 0.95503 0.82355 0.80197 0.0
H2496 H 0.96801 0.77185 0.8076 0.0
H2497 H 0.96799 0.79343 0.76953 0.0
H2498 H 0.93552 0.77969 0.81675 0.0
H2499 H 0.94635 0.79247 0.82447 0.0
H2500 H 0.95194 0.77523 0.82389 0.0
H2501 H 0.93596 0.80642 0.77041 0.0
H2502 H 0.95259 0.8104 0.76413 0.0
H2503 H 0.94641 0.81926 0.77854 0.0
C2504 C 0.8033 0.93042 0.19667 0.0
C2505 C 0.79935 0.91727 0.20095 0.0
C2506 C 0.7979 0.94219 0.20239 0.0
C2507 C 0.78832 0.94101 0.21282 0.0
C2508 C 0.78391 0.9278 0.21681 0.0
C2509 C 0.78936 0.91622 0.21084 0.0
C2510 C 0.80294 0.95594 0.19767 0.0
C2511 C 0.77381 0.92587 0.22788 0.0
C2512 C 0.78873 0.96872 0.23988 0.0
C2513 C 0.77702 0.97622 0.23665 0.0
C2514 C 0.79242 0.95749 0.23222 0.0
C2515 C 0.78434 0.95337 0.22074 0.0
C2516 C 0.77256 0.96092 0.21721 0.0
C2517 C 0.76902 0.97221 0.22519 0.0
C2518 C 0.80501 0.9499 0.23657 0.0
C2519 C 0.76366 0.95702 0.20503 0.0
H2520 H 0.81104 0.93159 0.18918 0.0
H2521 H 0.78586 0.90626 0.21411 0.0
H2522 H 0.79427 0.96272 0.19559 0.0
H2523 H 0.80948 0.96071 0.2058 0.0
H2524 H 0.80893 0.9553 0.18836 0.0
H2525 H 0.77041 0.91511 0.22901 0.0
H2526 H 0.77851 0.92932 0.2377 0.0
H2527 H 0.76476 0.93213 0.22576 0.0
H2528 H 0.79513 0.97156 0.24862 0.0
H2529 H 0.75997 0.97781 0.22251 0.0
H2530 H 0.81226 0.94988 0.2282 0.0
H2531 H 0.80225 0.93917 0.23888 0.0
H2532 H 0.81028 0.95439 0.24569 0.0
H2533 H 0.76982 0.95685 0.19582 0.0
H2534 H 0.75518 0.96411 0.20326 0.0
H2535 H 0.75933 0.94663 0.20647 0.0
C2536 C 0.09169 0.8176 0.21367 0.0
C2537 C 0.10104 0.80825 0.20906 0.0
C2538 C 0.07935 0.81328 0.21948 0.0
C2539 C 0.07611 0.79923 0.22073 0.0
C2540 C 0.08564 0.78975 0.2164 0.0
C2541 C 0.09788 0.79434 0.21066 0.0
C2542 C 0.0696 0.82378 0.22396 0.0
C2543 C 0.0827 0.77469 0.21742 0.0
C2544 C 0.04741 0.78523 0.243 0.0
C2545 C 0.03703 0.78235 0.23323 0.0
C2546 C 0.06004 0.79114 0.23922 0.0
C2547 C 0.06232 0.79437 0.22537 0.0
C2548 C 0.05156 0.79211 0.21566 0.0
C2549 C 0.03919 0.78611 0.21967 0.0
C2550 C 0.07116 0.79332 0.24996 0.0
C2551 C 0.05331 0.79545 0.20083 0.0
H2552 H 0.09399 0.82836 0.21273 0.0
H2553 H 0.10481 0.78695 0.207 0.0
H2554 H 0.06015 0.8232 0.21749 0.0
H2555 H 0.06669 0.82174 0.23457 0.0
H2556 H 0.07399 0.83425 0.22332 0.0
H2557 H 0.0915 0.76861 0.21456 0.0
H2558 H 0.07997 0.77189 0.22792 0.0
H2559 H 0.07386 0.77189 0.21062 0.0
H2560 H 0.04596 0.78221 0.25346 0.0
H2561 H 0.03125 0.78398 0.21202 0.0
H2562 H 0.07557 0.80376 0.24922 0.0
H2563 H 0.07947 0.78619 0.24831 0.0
H2564 H 0.06744 0.79167 0.26037 0.0
H2565 H 0.05697 0.80611 0.19963 0.0
H2566 H 0.04369 0.79401 0.1947 0.0
H2567 H 0.06109 0.78886 0.19665 0.0
C2568 C 0.93179 0.2192 0.20344 0.0
C2569 C 0.91881 0.2193 0.20899 0.0
C2570 C 0.94342 0.22439 0.21062 0.0
C2571 C 0.94221 0.2298 0.2238 0.0
C2572 C 0.92913 0.23015 0.22939 0.0
C2573 C 0.91765 0.22493 0.22195 0.0
C2574 C 0.95711 0.2237 0.20424 0.0
C2575 C 0.92729 0.23576 0.24339 0.0
C2576 C 0.97238 0.22773 0.24905 0.0
C2577 C 0.97763 0.24114 0.24943 0.0
C2578 C 0.96111 0.22396 0.24064 0.0
C2579 C 0.9547 0.2338 0.23226 0.0
C2580 C 0.96013 0.24731 0.23227 0.0
C2581 C 0.97155 0.25082 0.24083 0.0
C2582 C 0.95587 0.20943 0.24098 0.0
C2583 C 0.95366 0.25812 0.22348 0.0
H2584 H 0.93296 0.21476 0.19354 0.0
H2585 H 0.90772 0.22534 0.22632 0.0
H2586 H 0.96239 0.23377 0.20463 0.0
H2587 H 0.96359 0.2165 0.21006 0.0
H2588 H 0.95624 0.22034 0.1935 0.0
H2589 H 0.91641 0.23617 0.24596 0.0
H2590 H 0.93263 0.22934 0.25107 0.0
H2591 H 0.93188 0.24613 0.24416 0.0
H2592 H 0.97701 0.22008 0.25554 0.0
H2593 H 0.97543 0.2612 0.24107 0.0
H2594 H 0.95559 0.20511 0.23061 0.0
H2595 H 0.94531 0.20904 0.24457 0.0
H2596 H 0.96222 0.20291 0.24774 0.0
H2597 H 0.95298 0.2548 0.21274 0.0
H2598 H 0.95943 0.26794 0.22408 0.0
H2599 H 0.94313 0.25972 0.22668 0.0
C2600 C 0.21848 0.72323 0.60056 0.0
C2601 C 0.21658 0.70918 0.60263 0.0
C2602 C 0.22492 0.72851 0.58897 0.0
C2603 C 0.22972 0.7196 0.57905 0.0
C2604 C 0.22782 0.70542 0.58104 0.0
C2605 C 0.22132 0.70042 0.59271 0.0
C2606 C 0.22659 0.74368 0.58734 0.0
C2607 C 0.2328 0.69547 0.57089 0.0
C2608 C 0.23611 0.73377 0.54324 0.0
C2609 C 0.25024 0.73646 0.54371 0.0
C2610 C 0.22937 0.72818 0.55452 0.0
C2611 C 0.23684 0.7251 0.5667 0.0
C2612 C 0.25113 0.7275 0.56713 0.0
C2613 C 0.2576 0.73312 0.55572 0.0
C2614 C 0.21416 0.72584 0.5535 0.0
C2615 C 0.2596 0.72436 0.57978 0.0
H2616 H 0.21478 0.73018 0.60797 0.0
H2617 H 0.2202 0.68956 0.59417 0.0
H2618 H 0.23754 0.74653 0.58682 0.0
H2619 H 0.22157 0.747 0.57766 0.0
H2620 H 0.22223 0.74929 0.59582 0.0
H2621 H 0.2304 0.68478 0.57374 0.0
H2622 H 0.22813 0.69753 0.5607 0.0
H2623 H 0.24398 0.69672 0.57005 0.0
H2624 H 0.23022 0.73634 0.53413 0.0
H2625 H 0.26848 0.73515 0.55634 0.0
H2626 H 0.20923 0.73215 0.56109 0.0
H2627 H 0.21156 0.71509 0.55584 0.0
H2628 H 0.20983 0.72836 0.54325 0.0
H2629 H 0.25635 0.73066 0.5883 0.0
H2630 H 0.27063 0.72629 0.57838 0.0
H2631 H 0.258 0.71359 0.58277 0.0
C2632 C 0.80779 0.70444 0.58837 0.0
C2633 C 0.80692 0.71075 0.60106 0.0
C2634 C 0.80182 0.71009 0.57645 0.0
C2635 C 0.79479 0.72244 0.57708 0.0
C2636 C 0.79355 0.72866 0.5899 0.0
C2637 C 0.79959 0.72278 0.60166 0.0
C2638 C 0.8034 0.70303 0.56308 0.0
C2639 C 0.78628 0.74187 0.59113 0.0
C2640 C 0.7947 0.74619 0.54636 0.0
C2641 C 0.78136 0.74473 0.54086 0.0
C2642 C 0.79916 0.73885 0.55788 0.0
C2643 C 0.79013 0.72963 0.56426 0.0
C2644 C 0.77673 0.72773 0.55856 0.0
C2645 C 0.7725 0.73528 0.54693 0.0
C2646 C 0.81352 0.74126 0.56343 0.0
C2647 C 0.76678 0.71796 0.56497 0.0
H2648 H 0.81316 0.69503 0.58773 0.0
H2649 H 0.79889 0.72787 0.61131 0.0
H2650 H 0.79337 0.70173 0.55769 0.0
H2651 H 0.80995 0.70935 0.55648 0.0
H2652 H 0.80801 0.69292 0.5644 0.0
H2653 H 0.78515 0.74483 0.60188 0.0
H2654 H 0.79205 0.75007 0.58591 0.0
H2655 H 0.77604 0.7411 0.58607 0.0
H2656 H 0.80174 0.75333 0.54177 0.0
H2657 H 0.76217 0.73408 0.54285 0.0
H2658 H 0.81896 0.73155 0.56405 0.0
H2659 H 0.81332 0.74536 0.57387 0.0
H2660 H 0.81942 0.7485 0.55708 0.0
H2661 H 0.77131 0.70781 0.56618 0.0
H2662 H 0.7571 0.71691 0.55889 0.0
H2663 H 0.76448 0.72153 0.57527 0.0
C2664 C 0.82214 0.29846 0.6151 0.0
C2665 C 0.8252 0.31246 0.61423 0.0
C2666 C 0.8171 0.29101 0.60371 0.0
C2667 C 0.81498 0.2976 0.59098 0.0
C2668 C 0.81804 0.3117 0.59002 0.0
C2669 C 0.82307 0.31891 0.60156 0.0
C2670 C 0.81408 0.27601 0.60529 0.0
C2671 C 0.81594 0.31924 0.57675 0.0
C2672 C 0.81392 0.27629 0.55843 0.0
C2673 C 0.7999 0.27481 0.55529 0.0
C2674 C 0.81891 0.28361 0.56991 0.0
C2675 C 0.80974 0.28972 0.57866 0.0
C2676 C 0.79558 0.28832 0.57556 0.0
C2677 C 0.79085 0.28094 0.56399 0.0
C2678 C 0.83408 0.28482 0.57266 0.0
C2679 C 0.78536 0.29459 0.58454 0.0
H2680 H 0.82386 0.29324 0.62469 0.0
H2681 H 0.82512 0.32972 0.60069 0.0
H2682 H 0.80328 0.2737 0.60238 0.0
H2683 H 0.82041 0.27022 0.59838 0.0
H2684 H 0.81608 0.27238 0.61586 0.0
H2685 H 0.8188 0.33018 0.5776 0.0
H2686 H 0.82209 0.31468 0.56882 0.0
H2687 H 0.80513 0.3183 0.57325 0.0
H2688 H 0.82111 0.27185 0.55179 0.0
H2689 H 0.78002 0.27981 0.5619 0.0
H2690 H 0.83672 0.2806 0.58286 0.0
H2691 H 0.83737 0.29566 0.5727 0.0
H2692 H 0.83991 0.27943 0.565 0.0
H2693 H 0.7865 0.29043 0.595 0.0
H2694 H 0.77472 0.29268 0.58077 0.0
H2695 H 0.78728 0.3057 0.58516 0.0
C2696 C 0.24214 0.32234 0.61476 0.0
C2697 C 0.22909 0.32789 0.61458 0.0
C2698 C 0.2477 0.31714 0.60293 0.0
C2699 C 0.24004 0.31724 0.59048 0.0
C2700 C 0.22671 0.32241 0.59027 0.0
C2701 C 0.22144 0.32771 0.60224 0.0
C2702 C 0.26194 0.31179 0.60372 0.0
C2703 C 0.21809 0.32262 0.5773 0.0
C2704 C 0.25954 0.31695 0.55751 0.0
C2705 C 0.25871 0.3032 0.55371 0.0
C2706 C 0.25349 0.32161 0.56932 0.0
C2707 C 0.24619 0.3124 0.57764 0.0
C2708 C 0.2451 0.29857 0.57381 0.0
C2709 C 0.25139 0.29414 0.56202 0.0
C2710 C 0.25503 0.33642 0.57297 0.0
C2711 C 0.23735 0.28839 0.58227 0.0
H2712 H 0.2481 0.32208 0.62421 0.0
H2713 H 0.21144 0.33205 0.6018 0.0
H2714 H 0.2619 0.30115 0.60013 0.0
H2715 H 0.26855 0.31786 0.59695 0.0
H2716 H 0.26649 0.31214 0.61419 0.0
H2717 H 0.20764 0.32615 0.57895 0.0
H2718 H 0.22292 0.32945 0.56978 0.0
H2719 H 0.21736 0.31234 0.57281 0.0
H2720 H 0.2649 0.32421 0.55124 0.0
H2721 H 0.25066 0.2835 0.55945 0.0
H2722 H 0.26022 0.33748 0.5831 0.0
H2723 H 0.24487 0.34095 0.57362 0.0
H2724 H 0.26096 0.34233 0.56546 0.0
H2725 H 0.24223 0.28766 0.59257 0.0
H2726 H 0.23692 0.27812 0.57768 0.0
H2727 H 0.22681 0.29178 0.58353 0.0
C2728 C 0.20491 0.30773 0.4325 0.0
C2729 C 0.21102 0.30588 0.41996 0.0
C2730 C 0.21054 0.30226 0.44468 0.0
C2731 C 0.22269 0.29484 0.44447 0.0
C2732 C 0.22849 0.29234 0.43179 0.0
C2733 C 0.22257 0.29777 0.41977 0.0
C2734 C 0.20387 0.30508 0.45788 0.0
C2735 C 0.24144 0.28455 0.43097 0.0
C2736 C 0.24786 0.29776 0.47466 0.0
C2737 C 0.24677 0.28499 0.48105 0.0
C2738 C 0.23993 0.30107 0.46303 0.0
C2739 C 0.23041 0.29145 0.45749 0.0
C2740 C 0.22885 0.27866 0.4641 0.0
C2741 C 0.23707 0.27555 0.47578 0.0
C2742 C 0.24207 0.31482 0.45646 0.0
C2743 C 0.21873 0.26815 0.45865 0.0
H2744 H 0.19606 0.31399 0.43294 0.0
H2745 H 0.22723 0.29589 0.41019 0.0
H2746 H 0.20323 0.29574 0.46418 0.0
H2747 H 0.21011 0.31269 0.46373 0.0
H2748 H 0.19348 0.30907 0.45622 0.0
H2749 H 0.24393 0.28228 0.42033 0.0
H2750 H 0.25002 0.29059 0.43568 0.0
H2751 H 0.24063 0.27488 0.43673 0.0
H2752 H 0.25519 0.30525 0.4786 0.0
H2753 H 0.2361 0.26567 0.48057 0.0
H2754 H 0.23233 0.32023 0.45568 0.0
H2755 H 0.24562 0.31355 0.44599 0.0
H2756 H 0.24966 0.32129 0.46219 0.0
H2757 H 0.20858 0.27267 0.45706 0.0
H2758 H 0.21779 0.25925 0.46556 0.0
H2759 H 0.22192 0.26458 0.44863 0.0
C2760 C 0.20771 0.71929 0.40475 0.0
C2761 C 0.20061 0.70676 0.40579 0.0
C2762 C 0.21239 0.72659 0.41639 0.0
C2763 C 0.20992 0.7214 0.42958 0.0
C2764 C 0.20293 0.70871 0.43073 0.0
C2765 C 0.19844 0.70157 0.41892 0.0
C2766 C 0.21981 0.74003 0.41455 0.0
C2767 C 0.20003 0.70269 0.44448 0.0
C2768 C 0.23127 0.73535 0.46017 0.0
C2769 C 0.2227 0.74501 0.46554 0.0
C2770 C 0.22728 0.72762 0.44858 0.0
C2771 C 0.21431 0.72942 0.44212 0.0
C2772 C 0.20555 0.73901 0.44762 0.0
C2773 C 0.20983 0.74666 0.45914 0.0
C2774 C 0.23706 0.71765 0.4431 0.0
C2775 C 0.1916 0.74126 0.44128 0.0
H2776 H 0.20934 0.72364 0.3948 0.0
H2777 H 0.19323 0.69184 0.42004 0.0
H2778 H 0.21388 0.74827 0.4189 0.0
H2779 H 0.22981 0.73996 0.42011 0.0
H2780 H 0.2215 0.74243 0.4037 0.0
H2781 H 0.19467 0.69266 0.44374 0.0
H2782 H 0.20967 0.70149 0.4505 0.0
H2783 H 0.19367 0.70966 0.45017 0.0
H2784 H 0.24129 0.73405 0.46481 0.0
H2785 H 0.20302 0.75393 0.46321 0.0
H2786 H 0.23955 0.72051 0.43255 0.0
H2787 H 0.23227 0.70735 0.44274 0.0
H2788 H 0.24667 0.71724 0.44934 0.0
H2789 H 0.19251 0.74474 0.43061 0.0
H2790 H 0.18588 0.74889 0.44685 0.0
H2791 H 0.18561 0.73157 0.44106 0.0
C2792 C 0.81037 0.73064 0.408 0.0
C2793 C 0.8209 0.72132 0.40969 0.0
C2794 C 0.80482 0.73708 0.41923 0.0
C2795 C 0.8099 0.73427 0.43258 0.0
C2796 C 0.82034 0.72471 0.43438 0.0
C2797 C 0.82564 0.71836 0.42299 0.0
C2798 C 0.79366 0.74713 0.41677 0.0
C2799 C 0.82611 0.72134 0.44836 0.0
C2800 C 0.80609 0.76063 0.46049 0.0
C2801 C 0.79526 0.75518 0.46793 0.0
C2802 C 0.81085 0.75401 0.449 0.0
C2803 C 0.80463 0.7416 0.44461 0.0
C2804 C 0.79358 0.73612 0.45191 0.0
C2805 C 0.78907 0.74291 0.46343 0.0
C2806 C 0.82265 0.76028 0.4416 0.0
C2807 C 0.78658 0.72296 0.44762 0.0
H2808 H 0.80667 0.73321 0.39785 0.0
H2809 H 0.83357 0.71103 0.42456 0.0
H2810 H 0.78475 0.74429 0.42286 0.0
H2811 H 0.79727 0.75736 0.42011 0.0
H2812 H 0.79032 0.74772 0.4059 0.0
H2813 H 0.83399 0.71349 0.44812 0.0
H2814 H 0.8307 0.73061 0.45313 0.0
H2815 H 0.81786 0.71765 0.45495 0.0
H2816 H 0.81088 0.77016 0.46359 0.0
H2817 H 0.78081 0.73843 0.46903 0.0
H2818 H 0.81962 0.76215 0.43081 0.0
H2819 H 0.83121 0.75316 0.44173 0.0
H2820 H 0.82632 0.77002 0.44618 0.0
H2821 H 0.78285 0.7237 0.43689 0.0
H2822 H 0.77784 0.72024 0.45403 0.0
H2823 H 0.79393 0.71462 0.44824 0.0
C2824 C 0.7998 0.30497 0.42291 0.0
C2825 C 0.80346 0.31886 0.42311 0.0
C2826 C 0.79461 0.29829 0.43445 0.0
C2827 C 0.79298 0.30555 0.44666 0.0
C2828 C 0.79647 0.31959 0.44688 0.0
C2829 C 0.80165 0.32602 0.43521 0.0
C2830 C 0.79108 0.28332 0.43365 0.0
C2831 C 0.79506 0.3278 0.4596 0.0
C2832 C 0.77149 0.28908 0.47474 0.0
C2833 C 0.78152 0.28296 0.48304 0.0
C2834 C 0.77501 0.29663 0.46299 0.0
C2835 C 0.78887 0.29822 0.45947 0.0
C2836 C 0.79899 0.29247 0.46815 0.0
C2837 C 0.79521 0.28496 0.47968 0.0
C2838 C 0.76386 0.30257 0.45409 0.0
C2839 C 0.81388 0.29392 0.46506 0.0
H2840 H 0.80088 0.29929 0.41366 0.0
H2841 H 0.80458 0.33667 0.4357 0.0
H2842 H 0.79787 0.27763 0.44074 0.0
H2843 H 0.7805 0.28138 0.43682 0.0
H2844 H 0.7921 0.27926 0.42326 0.0
H2845 H 0.79716 0.33879 0.45788 0.0
H2846 H 0.78465 0.32646 0.46345 0.0
H2847 H 0.80225 0.32414 0.46765 0.0
H2848 H 0.7609 0.28752 0.4771 0.0
H2849 H 0.8031 0.28038 0.48601 0.0
H2850 H 0.76363 0.29765 0.44399 0.0
H2851 H 0.76591 0.31356 0.45243 0.0
H2852 H 0.7537 0.30118 0.45854 0.0
H2853 H 0.81578 0.28895 0.45526 0.0
H2854 H 0.82055 0.28932 0.47308 0.0
H2855 H 0.81684 0.30479 0.46399 0.0
C2856 C 0.09857 0.70687 0.70448 0.0
C2857 C 0.11141 0.71301 0.70733 0.0
C2858 C 0.08686 0.71079 0.71124 0.0
C2859 C 0.08785 0.72115 0.72118 0.0
C2860 C 0.10078 0.72733 0.72417 0.0
C2861 C 0.11232 0.72321 0.71727 0.0
C2862 C 0.07337 0.70388 0.70766 0.0
C2863 C 0.10244 0.73837 0.73468 0.0
C2864 C 0.0557 0.74012 0.73009 0.0
C2865 C 0.05189 0.73378 0.74228 0.0
C2866 C 0.06729 0.73614 0.72317 0.0
C2867 C 0.07542 0.7255 0.72845 0.0
C2868 C 0.07165 0.71908 0.74073 0.0
C2869 C 0.06003 0.72327 0.74745 0.0
C2870 C 0.07082 0.74331 0.71013 0.0
C2871 C 0.07995 0.70775 0.74683 0.0
H2872 H 0.09757 0.69914 0.69673 0.0
H2873 H 0.12212 0.72794 0.7198 0.0
H2874 H 0.06905 0.69916 0.71687 0.0
H2875 H 0.06604 0.71147 0.70379 0.0
H2876 H 0.07425 0.69591 0.69985 0.0
H2877 H 0.11312 0.74221 0.73585 0.0
H2878 H 0.09587 0.74698 0.73181 0.0
H2879 H 0.09911 0.73449 0.74465 0.0
H2880 H 0.04953 0.74811 0.7258 0.0
H2881 H 0.05745 0.71835 0.7569 0.0
H2882 H 0.07086 0.73591 0.70171 0.0
H2883 H 0.0812 0.74794 0.71113 0.0
H2884 H 0.06356 0.7514 0.70734 0.0
H2885 H 0.08043 0.69933 0.73947 0.0
H2886 H 0.07568 0.70368 0.75637 0.0
H2887 H 0.09053 0.71143 0.74904 0.0
C2888 C 0.83521 0.6033 0.70753 0.0
C2889 C 0.8299 0.6161 0.71014 0.0
C2890 C 0.83069 0.5915 0.71438 0.0
C2891 C 0.82047 0.59235 0.72411 0.0
C2892 C 0.81485 0.60516 0.72662 0.0
C2893 C 0.81962 0.61682 0.71967 0.0
C2894 C 0.83699 0.57812 0.71132 0.0
C2895 C 0.80392 0.6066 0.73684 0.0
C2896 C 0.80114 0.55964 0.73393 0.0
C2897 C 0.80773 0.55594 0.74626 0.0
C2898 C 0.80505 0.57146 0.72672 0.0
C2899 C 0.81591 0.57989 0.73185 0.0
C2900 C 0.82258 0.57627 0.74429 0.0
C2901 C 0.81841 0.56445 0.75132 0.0
C2902 C 0.79761 0.57488 0.71353 0.0
C2903 C 0.8342 0.58489 0.75018 0.0
H2904 H 0.84295 0.60245 0.70006 0.0
H2905 H 0.81551 0.62659 0.72197 0.0
H2906 H 0.84197 0.57396 0.72067 0.0
H2907 H 0.82899 0.57065 0.70791 0.0
H2908 H 0.84467 0.57907 0.70335 0.0
H2909 H 0.80018 0.61712 0.73726 0.0
H2910 H 0.79519 0.59963 0.73429 0.0
H2911 H 0.80793 0.60369 0.74709 0.0
H2912 H 0.793 0.5532 0.72972 0.0
H2913 H 0.82351 0.56195 0.76088 0.0
H2914 H 0.80478 0.57497 0.7051 0.0
H2915 H 0.7934 0.58519 0.71407 0.0
H2916 H 0.78915 0.56754 0.71107 0.0
H2917 H 0.84255 0.58557 0.74291 0.0
H2918 H 0.83831 0.58078 0.75998 0.0
H2919 H 0.83079 0.59536 0.75186 0.0
C2920 C 0.942 0.33333 0.71832 0.0
C2921 C 0.92946 0.32632 0.71966 0.0
C2922 C 0.95402 0.32903 0.72518 0.0
C2923 C 0.9537 0.31739 0.73374 0.0
C2924 C 0.94109 0.31033 0.73524 0.0
C2925 C 0.92922 0.31482 0.72823 0.0
C2926 C 0.96713 0.33697 0.72322 0.0
C2927 C 0.94014 0.29789 0.74421 0.0
C2928 C 0.98707 0.29896 0.7419 0.0
C2929 C 0.99096 0.30389 0.75487 0.0
C2930 C 0.97505 0.30321 0.73498 0.0
C2931 C 0.96652 0.31264 0.74108 0.0
C2932 C 0.97032 0.31758 0.7542 0.0
C2933 C 0.9824 0.3132 0.76087 0.0
C2934 C 0.97154 0.29766 0.72102 0.0
C2935 C 0.96159 0.32755 0.76122 0.0
H2936 H 0.94243 0.34233 0.71196 0.0
H2937 H 0.91977 0.3091 0.72927 0.0
H2938 H 0.97123 0.34078 0.73315 0.0
H2939 H 0.97485 0.33026 0.71911 0.0
H2940 H 0.96578 0.34573 0.71621 0.0
H2941 H 0.9296 0.29363 0.74456 0.0
H2942 H 0.94683 0.28995 0.74047 0.0
H2943 H 0.94376 0.30041 0.7547 0.0
H2944 H 0.99354 0.29192 0.73699 0.0
H2945 H 0.98505 0.31699 0.77092 0.0
H2946 H 0.97102 0.3061 0.71353 0.0
H2947 H 0.96137 0.29255 0.72094 0.0
H2948 H 0.97909 0.2903 0.71769 0.0
H2949 H 0.96056 0.33688 0.75495 0.0
H2950 H 0.96586 0.33042 0.77142 0.0
H2951 H 0.95122 0.32312 0.76237 0.0
C2952 C 0.23415 0.4272 0.72644 0.0
C2953 C 0.22635 0.42769 0.71421 0.0
C2954 C 0.24046 0.43898 0.73213 0.0
C2955 C 0.23903 0.45171 0.7255 0.0
C2956 C 0.23165 0.4522 0.71288 0.0
C2957 C 0.22543 0.44026 0.70743 0.0
C2958 C 0.24812 0.43787 0.74562 0.0
C2959 C 0.22986 0.46545 0.70536 0.0
C2960 C 0.23922 0.48285 0.74833 0.0
C2961 C 0.25245 0.48843 0.74721 0.0
C2962 C 0.2348 0.47114 0.74123 0.0
C2963 C 0.24373 0.46463 0.73257 0.0
C2964 C 0.25702 0.47035 0.73105 0.0
C2965 C 0.26124 0.48216 0.73838 0.0
C2966 C 0.22056 0.46558 0.74326 0.0
C2967 C 0.26687 0.46382 0.72187 0.0
H2968 H 0.2349 0.41766 0.73192 0.0
H2969 H 0.21968 0.44084 0.69787 0.0
H2970 H 0.25824 0.44303 0.74512 0.0
H2971 H 0.24245 0.44304 0.75354 0.0
H2972 H 0.24955 0.42716 0.7488 0.0
H2973 H 0.22519 0.46398 0.69503 0.0
H2974 H 0.22325 0.47209 0.71115 0.0
H2975 H 0.23981 0.47086 0.70445 0.0
H2976 H 0.23223 0.48755 0.75501 0.0
H2977 H 0.27147 0.48628 0.73743 0.0
H2978 H 0.22101 0.45517 0.74759 0.0
H2979 H 0.21488 0.46488 0.73336 0.0
H2980 H 0.21477 0.47194 0.75016 0.0
H2981 H 0.26929 0.45356 0.72579 0.0
H2982 H 0.2765 0.46986 0.72112 0.0
H2983 H 0.26218 0.46255 0.71154 0.0
C2984 C 0.09346 0.31948 0.31419 0.0
C2985 C 0.10475 0.31107 0.3159 0.0
C2986 C 0.08102 0.3146 0.30826 0.0
C2987 C 0.07967 0.30092 0.30394 0.0
C2988 C 0.09116 0.29255 0.30517 0.0
C2989 C 0.10348 0.29769 0.3111 0.0
C2990 C 0.06914 0.32396 0.30711 0.0
C2991 C 0.09027 0.2779 0.30081 0.0
C2992 C 0.04539 0.28221 0.30576 0.0
C2993 C 0.04104 0.28111 0.29205 0.0
C2994 C 0.05763 0.28896 0.30969 0.0
C2995 C 0.06595 0.29489 0.29971 0.0
C2996 C 0.06139 0.29435 0.28586 0.0
C2997 C 0.04898 0.28748 0.28218 0.0
C2998 C 0.06189 0.28927 0.32457 0.0
C2999 C 0.06988 0.30058 0.27487 0.0
H3000 H 0.0943 0.32989 0.31761 0.0
H3001 H 0.11198 0.29099 0.31246 0.0
H3002 H 0.06444 0.32358 0.29671 0.0
H3003 H 0.06124 0.32057 0.31424 0.0
H3004 H 0.07216 0.33463 0.30949 0.0
H3005 H 0.10036 0.27308 0.30121 0.0
H3006 H 0.08341 0.2721 0.30756 0.0
H3007 H 0.08587 0.27709 0.29032 0.0
H3008 H 0.03933 0.27744 0.31352 0.0
H3009 H 0.04581 0.28662 0.27157 0.0
H3010 H 0.06408 0.29986 0.32785 0.0
H3011 H 0.07139 0.28357 0.32624 0.0
H3012 H 0.05399 0.28476 0.33113 0.0
H3013 H 0.07294 0.31117 0.27751 0.0
H3014 H 0.06438 0.30057 0.26483 0.0
H3015 H 0.07933 0.2948 0.27402 0.0
C3016 C 0.2163 0.59885 0.2923 0.0
C3017 C 0.20875 0.59724 0.30411 0.0
C3018 C 0.22248 0.58773 0.28617 0.0
C3019 C 0.22125 0.57453 0.29193 0.0
C3020 C 0.21316 0.57273 0.30347 0.0
C3021 C 0.20701 0.58398 0.30933 0.0
C3022 C 0.2309 0.59026 0.27386 0.0
C3023 C 0.21151 0.55896 0.31009 0.0
C3024 C 0.23335 0.54262 0.27353 0.0
C3025 C 0.24629 0.54088 0.2797 0.0
C3026 C 0.22511 0.55359 0.27717 0.0
C3027 C 0.22989 0.56309 0.28718 0.0
C3028 C 0.24305 0.56148 0.29314 0.0
C3029 C 0.25096 0.55055 0.28937 0.0
C3030 C 0.2112 0.55489 0.27048 0.0
C3031 C 0.24876 0.57123 0.30378 0.0
H3032 H 0.2179 0.60892 0.28811 0.0
H3033 H 0.20096 0.58237 0.31819 0.0
H3034 H 0.24183 0.58933 0.27675 0.0
H3035 H 0.22838 0.58256 0.26594 0.0
H3036 H 0.22934 0.60052 0.26943 0.0
H3037 H 0.20386 0.55889 0.31812 0.0
H3038 H 0.20841 0.55123 0.30239 0.0
H3039 H 0.2214 0.55589 0.31475 0.0
H3040 H 0.22956 0.53531 0.26607 0.0
H3041 H 0.26096 0.54956 0.29418 0.0
H3042 H 0.2101 0.5652 0.26604 0.0
H3043 H 0.20331 0.55357 0.27819 0.0
H3044 H 0.20921 0.54727 0.26236 0.0
H3045 H 0.24884 0.58174 0.29969 0.0
H3046 H 0.25928 0.56878 0.30725 0.0
H3047 H 0.24222 0.57101 0.31272 0.0
C3048 C 0.92352 0.72624 0.31426 0.0
C3049 C 0.91558 0.71718 0.30613 0.0
C3050 C 0.93557 0.73248 0.30951 0.0
C3051 C 0.93997 0.72961 0.29629 0.0
C3052 C 0.93189 0.72066 0.28797 0.0
C3053 C 0.91989 0.71461 0.29295 0.0
C3054 C 0.94374 0.74199 0.31875 0.0
C3055 C 0.93614 0.71713 0.27388 0.0
C3056 C 0.96693 0.75139 0.27812 0.0
C3057 C 0.97857 0.74352 0.27991 0.0
C3058 C 0.95442 0.74732 0.2838 0.0
C3059 C 0.95346 0.73508 0.29148 0.0
C3060 C 0.96536 0.7275 0.29383 0.0
C3061 C 0.97766 0.73178 0.28807 0.0
C3062 C 0.94208 0.75581 0.28108 0.0
C3063 C 0.96499 0.71444 0.30193 0.0
H3064 H 0.92029 0.72851 0.32438 0.0
H3065 H 0.91406 0.70751 0.28658 0.0
H3066 H 0.9538 0.73763 0.32127 0.0
H3067 H 0.94561 0.75183 0.31351 0.0
H3068 H 0.93856 0.74391 0.32836 0.0
H3069 H 0.92843 0.71061 0.26838 0.0
H3070 H 0.93787 0.72651 0.26784 0.0
H3071 H 0.94589 0.71172 0.27453 0.0
H3072 H 0.96741 0.7604 0.27177 0.0
H3073 H 0.98654 0.7256 0.28961 0.0
H3074 H 0.93694 0.75778 0.29068 0.0
H3075 H 0.93469 0.75019 0.27432 0.0
H3076 H 0.9447 0.76566 0.27617 0.0
H3077 H 0.96055 0.71612 0.31195 0.0
H3078 H 0.97526 0.71016 0.3036 0.0
H3079 H 0.95839 0.7068 0.2965 0.0
C3080 C 0.82455 0.43045 0.31698 0.0
C3081 C 0.81991 0.41733 0.31321 0.0
C3082 C 0.82025 0.44213 0.3098 0.0
C3083 C 0.81092 0.44087 0.29855 0.0
C3084 C 0.80597 0.42771 0.29484 0.0
C3085 C 0.81053 0.41618 0.30213 0.0
C3086 C 0.82585 0.45586 0.31419 0.0
C3087 C 0.79598 0.42579 0.283 0.0
C3088 C 0.79145 0.47245 0.28679 0.0
C3089 C 0.7988 0.47708 0.27557 0.0
C3090 C 0.79515 0.46069 0.29421 0.0
C3091 C 0.8066 0.45326 0.29052 0.0
C3092 C 0.81404 0.45781 0.27922 0.0
C3093 C 0.81006 0.46953 0.27191 0.0
C3094 C 0.78683 0.45626 0.3061 0.0
C3095 C 0.82632 0.45032 0.27486 0.0
H3096 H 0.83157 0.43165 0.32562 0.0
H3097 H 0.80694 0.4062 0.2989 0.0
H3098 H 0.83137 0.46075 0.30575 0.0
H3099 H 0.8174 0.46256 0.31664 0.0
H3100 H 0.8329 0.45521 0.32321 0.0
H3101 H 0.79263 0.41502 0.28172 0.0
H3102 H 0.7869 0.43199 0.28441 0.0
H3103 H 0.80069 0.42934 0.2735 0.0
H3104 H 0.78284 0.47807 0.28996 0.0
H3105 H 0.81581 0.47269 0.26324 0.0
H3106 H 0.79329 0.45643 0.31556 0.0
H3107 H 0.78302 0.44567 0.30465 0.0
H3108 H 0.778 0.46285 0.3075 0.0
H3109 H 0.83405 0.45002 0.28332 0.0
H3110 H 0.83106 0.45509 0.26587 0.0
H3111 H 0.8234 0.43967 0.27235 0.0
C3112 C 0.21747 0.61728 0.72608 0.0
C3113 C 0.20908 0.61525 0.71437 0.0
C3114 C 0.22306 0.60628 0.73343 0.0
C3115 C 0.22023 0.59278 0.72911 0.0
C3116 C 0.21194 0.59065 0.71721 0.0
C3117 C 0.20653 0.60184 0.71001 0.0
C3118 C 0.23184 0.60912 0.74601 0.0
C3119 C 0.20863 0.57649 0.71215 0.0
C3120 C 0.24349 0.56452 0.74229 0.0
C3121 C 0.23615 0.5589 0.75305 0.0
C3122 C 0.23843 0.57543 0.7344 0.0
C3123 C 0.22565 0.58092 0.7372 0.0
C3124 C 0.2181 0.57515 0.74791 0.0
C3125 C 0.22343 0.5643 0.75567 0.0
C3126 C 0.24691 0.58125 0.72318 0.0
C3127 C 0.2044 0.58052 0.75125 0.0
H3128 H 0.21941 0.6275 0.72976 0.0
H3129 H 0.20028 0.60003 0.7009 0.0
H3130 H 0.22696 0.60461 0.75502 0.0
H3131 H 0.24184 0.60431 0.74518 0.0
H3132 H 0.23357 0.62015 0.74776 0.0
H3133 H 0.20224 0.5765 0.70263 0.0
H3134 H 0.21815 0.57112 0.71028 0.0
H3135 H 0.20316 0.57062 0.72 0.0
H3136 H 0.25339 0.56064 0.74024 0.0
H3137 H 0.21757 0.56 0.76382 0.0
H3138 H 0.24954 0.59205 0.72531 0.0
H3139 H 0.241 0.58094 0.71339 0.0
H3140 H 0.25647 0.57569 0.72204 0.0
H3141 H 0.20547 0.59136 0.75415 0.0
H3142 H 0.19966 0.5748 0.75969 0.0
H3143 H 0.19742 0.57996 0.74217 0.0
C3144 C 0.22729 0.40947 0.3217 0.0
C3145 C 0.21328 0.41064 0.32364 0.0
C3146 C 0.23539 0.42068 0.31756 0.0
C3147 C 0.22941 0.43348 0.31523 0.0
C3148 C 0.21534 0.43478 0.31738 0.0
C3149 C 0.20751 0.42344 0.32158 0.0
C3150 C 0.25033 0.41878 0.31545 0.0
C3151 C 0.20849 0.44817 0.31509 0.0
C3152 C 0.25167 0.46597 0.31485 0.0
C3153 C 0.25279 0.46859 0.30087 0.0
C3154 C 0.24428 0.45455 0.31965 0.0
C3155 C 0.23775 0.44543 0.3103 0.0
C3156 C 0.23892 0.44794 0.2962 0.0
C3157 C 0.2464 0.4594 0.29168 0.0
C3158 C 0.24334 0.45233 0.33476 0.0
C3159 C 0.23218 0.43853 0.28583 0.0
H3160 H 0.2319 0.39968 0.32309 0.0
H3161 H 0.19679 0.42464 0.32328 0.0
H3162 H 0.25262 0.4208 0.30467 0.0
H3163 H 0.25649 0.42616 0.32168 0.0
H3164 H 0.25357 0.40837 0.31817 0.0
H3165 H 0.19752 0.44761 0.31739 0.0
H3166 H 0.21355 0.45611 0.32154 0.0
H3167 H 0.20947 0.45145 0.30436 0.0
H3168 H 0.25638 0.47297 0.32211 0.0
H3169 H 0.24732 0.46107 0.28088 0.0
H3170 H 0.24707 0.44214 0.3376 0.0
H3171 H 0.23257 0.45267 0.33766 0.0
H3172 H 0.24932 0.46007 0.34072 0.0
H3173 H 0.23585 0.42808 0.2874 0.0
H3174 H 0.23418 0.44175 0.27524 0.0
H3175 H 0.22102 0.43817 0.28713 0.0
C3176 C 0.1069 0.7054 0.28603 0.0
C3177 C 0.10544 0.69556 0.29634 0.0
C3178 C 0.09549 0.71139 0.27951 0.0
C3179 C 0.08215 0.70748 0.28325 0.0
C3180 C 0.0806 0.69772 0.29376 0.0
C3181 C 0.09217 0.69195 0.30016 0.0
C3182 C 0.09772 0.72176 0.26842 0.0
C3183 C 0.06665 0.6932 0.29816 0.0
C3184 C 0.05199 0.73025 0.2741 0.0
C3185 C 0.04601 0.72385 0.26256 0.0
C3186 C 0.06376 0.72517 0.28081 0.0
C3187 C 0.06983 0.71331 0.27598 0.0
C3188 C 0.06394 0.70687 0.26429 0.0
C3189 C 0.05222 0.7122 0.25775 0.0
C3190 C 0.06964 0.73243 0.29319 0.0
C3191 C 0.06999 0.69424 0.2587 0.0
H3192 H 0.11699 0.70822 0.28278 0.0
H3193 H 0.09078 0.68459 0.30824 0.0
H3194 H 0.09322 0.71792 0.25867 0.0
H3195 H 0.09251 0.73127 0.27077 0.0
H3196 H 0.10868 0.72417 0.26707 0.0
H3197 H 0.06711 0.68571 0.30663 0.0
H3198 H 0.06094 0.70209 0.30146 0.0
H3199 H 0.06081 0.68858 0.28947 0.0
H3200 H 0.04736 0.73914 0.27811 0.0
H3201 H 0.04798 0.7072 0.24877 0.0
H3202 H 0.08046 0.73528 0.29169 0.0
H3203 H 0.06933 0.72557 0.30215 0.0
H3204 H 0.06404 0.74175 0.29545 0.0
H3205 H 0.08073 0.6963 0.25615 0.0
H3206 H 0.06433 0.69047 0.24947 0.0
H3207 H 0.06996 0.68608 0.26652 0.0
C3208 C 0.81142 0.59922 0.32187 0.0
C3209 C 0.8095 0.61207 0.31585 0.0
C3210 C 0.80565 0.58727 0.31603 0.0
C3211 C 0.7978 0.58795 0.30371 0.0
C3212 C 0.7956 0.60087 0.29769 0.0
C3213 C 0.8014 0.61269 0.3038 0.0
C3214 C 0.80836 0.5738 0.32285 0.0
C3215 C 0.78741 0.60219 0.28453 0.0
C3216 C 0.79794 0.5575 0.27999 0.0
C3217 C 0.78504 0.55126 0.28154 0.0
C3218 C 0.80211 0.56925 0.28714 0.0
C3219 C 0.79328 0.57514 0.29633 0.0
C3220 C 0.78032 0.56879 0.29826 0.0
C3221 C 0.77634 0.55695 0.29083 0.0
C3222 C 0.81598 0.5755 0.28465 0.0
C3223 C 0.77061 0.57461 0.30803 0.0
H3224 H 0.81775 0.59841 0.33104 0.0
H3225 H 0.79954 0.62247 0.29911 0.0
H3226 H 0.79871 0.5679 0.32394 0.0
H3227 H 0.81499 0.56776 0.31648 0.0
H3228 H 0.8134 0.57502 0.33305 0.0
H3229 H 0.78576 0.61295 0.28163 0.0
H3230 H 0.79276 0.59723 0.27625 0.0
H3231 H 0.77737 0.59693 0.28536 0.0
H3232 H 0.80488 0.55328 0.27295 0.0
H3233 H 0.76636 0.55232 0.29213 0.0
H3234 H 0.82209 0.57609 0.29431 0.0
H3235 H 0.81492 0.58602 0.28074 0.0
H3236 H 0.8217 0.56966 0.27723 0.0
H3237 H 0.77561 0.57556 0.31826 0.0
H3238 H 0.76118 0.56828 0.30884 0.0
H3239 H 0.7678 0.58496 0.30466 0.0
C3240 C 0.92266 0.31062 0.33547 0.0
C3241 C 0.90932 0.30752 0.33063 0.0
C3242 C 0.93401 0.30401 0.33048 0.0
C3243 C 0.93215 0.29402 0.32026 0.0
C3244 C 0.91878 0.29104 0.31508 0.0
C3245 C 0.90759 0.29776 0.32032 0.0
C3246 C 0.94801 0.30758 0.33635 0.0
C3247 C 0.91624 0.28053 0.30417 0.0
C3248 C 0.9632 0.28425 0.30014 0.0
C3249 C 0.96733 0.27221 0.30667 0.0
C3250 C 0.95175 0.29132 0.30431 0.0
C3251 C 0.94415 0.28638 0.31536 0.0
C3252 C 0.94817 0.27421 0.32192 0.0
C3253 C 0.95959 0.2673 0.3175 0.0
C3254 C 0.94786 0.3042 0.29693 0.0
C3255 C 0.94046 0.2685 0.33373 0.0
H3256 H 0.92429 0.31829 0.34322 0.0
H3257 H 0.89742 0.29506 0.31655 0.0
H3258 H 0.95252 0.29849 0.34122 0.0
H3259 H 0.95479 0.31088 0.32813 0.0
H3260 H 0.94783 0.31578 0.34401 0.0
H3261 H 0.90539 0.27985 0.30069 0.0
H3262 H 0.92253 0.28296 0.2953 0.0
H3263 H 0.9193 0.27044 0.30806 0.0
H3264 H 0.96902 0.28832 0.29187 0.0
H3265 H 0.96237 0.25796 0.32256 0.0
H3266 H 0.94856 0.31286 0.30407 0.0
H3267 H 0.93716 0.30335 0.29306 0.0
H3268 H 0.95449 0.30651 0.28827 0.0
H3269 H 0.94061 0.27599 0.34208 0.0
H3270 H 0.94478 0.2589 0.33772 0.0
H3271 H 0.92966 0.26654 0.33059 0.0
C3272 C 0.80977 0.42004 0.72117 0.0
C3273 C 0.81876 0.42054 0.71035 0.0
C3274 C 0.8036 0.4318 0.72592 0.0
C3275 C 0.80622 0.44457 0.71967 0.0
C3276 C 0.81465 0.44505 0.70827 0.0
C3277 C 0.82084 0.43314 0.70382 0.0
C3278 C 0.79478 0.43065 0.73812 0.0
C3279 C 0.81771 0.45832 0.70114 0.0
C3280 C 0.78484 0.47503 0.73001 0.0
C3281 C 0.79333 0.48115 0.74009 0.0
C3282 C 0.78892 0.46331 0.72302 0.0
C3283 C 0.80175 0.45749 0.72621 0.0
C3284 C 0.81039 0.46384 0.73618 0.0
C3285 C 0.80615 0.47547 0.74285 0.0
C3286 C 0.77941 0.45702 0.71238 0.0
C3287 C 0.82412 0.45816 0.74008 0.0
H3288 H 0.80769 0.41043 0.72616 0.0
H3289 H 0.82777 0.43388 0.69554 0.0
H3290 H 0.79994 0.43589 0.74687 0.0
H3291 H 0.78498 0.43571 0.73605 0.0
H3292 H 0.79264 0.41993 0.74106 0.0
H3293 H 0.82273 0.45681 0.69136 0.0
H3294 H 0.80823 0.46397 0.69916 0.0
H3295 H 0.82454 0.46474 0.70776 0.0
H3296 H 0.77494 0.47922 0.72774 0.0
H3297 H 0.81296 0.48002 0.7505 0.0
H3298 H 0.77601 0.44678 0.71579 0.0
H3299 H 0.78478 0.45572 0.70278 0.0
H3300 H 0.7703 0.46322 0.71029 0.0
H3301 H 0.8228 0.44769 0.74412 0.0
H3302 H 0.82975 0.46438 0.74788 0.0
H3303 H 0.83043 0.45758 0.73101 0.0
C3304 C 0.12492 0.30838 0.7208 0.0
C3305 C 0.12334 0.31811 0.71038 0.0
C3306 C 0.1136 0.30233 0.72716 0.0
C3307 C 0.1002 0.30597 0.72306 0.0
C3308 C 0.09851 0.31555 0.71236 0.0
C3309 C 0.11 0.32149 0.70622 0.0
C3310 C 0.11601 0.29225 0.73853 0.0
C3311 C 0.08451 0.31985 0.70763 0.0
C3312 C 0.06959 0.28421 0.73498 0.0
C3313 C 0.06557 0.29151 0.7463 0.0
C3314 C 0.08075 0.28876 0.72724 0.0
C3315 C 0.08812 0.30088 0.73088 0.0
C3316 C 0.08399 0.30828 0.7422 0.0
C3317 C 0.07287 0.30356 0.74966 0.0
C3318 C 0.08473 0.28057 0.71522 0.0
C3319 C 0.0914 0.32121 0.74658 0.0
H3320 H 0.13506 0.3054 0.724 0.0
H3321 H 0.10849 0.32907 0.69834 0.0
H3322 H 0.11246 0.29643 0.74817 0.0
H3323 H 0.11005 0.28273 0.73649 0.0
H3324 H 0.12692 0.28977 0.73995 0.0
H3325 H 0.08477 0.32642 0.69843 0.0
H3326 H 0.07789 0.31082 0.70537 0.0
H3327 H 0.07975 0.32552 0.71583 0.0
H3328 H 0.06412 0.2749 0.73224 0.0
H3329 H 0.06997 0.30941 0.75832 0.0
H3330 H 0.09529 0.27708 0.71682 0.0
H3331 H 0.08452 0.28699 0.70593 0.0
H3332 H 0.07788 0.27157 0.71348 0.0
H3333 H 0.10223 0.31913 0.7491 0.0
H3334 H 0.0869 0.32585 0.75558 0.0
H3335 H 0.09119 0.32872 0.73815 0.0
C3336 C 0.91961 0.73114 0.70938 0.0
C3337 C 0.91911 0.72808 0.69546 0.0
C3338 C 0.9315 0.73666 0.71586 0.0
C3339 C 0.94332 0.73925 0.70831 0.0
C3340 C 0.94281 0.73646 0.69421 0.0
C3341 C 0.9308 0.73092 0.68799 0.0
C3342 C 0.93151 0.73944 0.7309 0.0
C3343 C 0.95511 0.73893 0.68573 0.0
C3344 C 0.97223 0.76102 0.72507 0.0
C3345 C 0.9805 0.75102 0.73095 0.0
C3346 C 0.96026 0.75742 0.71737 0.0
C3347 C 0.95652 0.74351 0.71544 0.0
C3348 C 0.96524 0.73347 0.72084 0.0
C3349 C 0.977 0.73733 0.72848 0.0
C3350 C 0.95132 0.76847 0.71176 0.0
C3351 C 0.96187 0.71854 0.719 0.0
H3352 H 0.91065 0.72926 0.71527 0.0
H3353 H 0.9307 0.72849 0.67729 0.0
H3354 H 0.93876 0.73269 0.73633 0.0
H3355 H 0.93498 0.75005 0.73295 0.0
H3356 H 0.9213 0.73779 0.73517 0.0
H3357 H 0.95276 0.73743 0.67472 0.0
H3358 H 0.95924 0.74941 0.68728 0.0
H3359 H 0.96323 0.73188 0.68897 0.0
H3360 H 0.97474 0.77161 0.72703 0.0
H3361 H 0.98334 0.7295 0.7329 0.0
H3362 H 0.94153 0.76818 0.717 0.0
H3363 H 0.94895 0.76681 0.7008 0.0
H3364 H 0.95614 0.77871 0.71309 0.0
H3365 H 0.95231 0.71587 0.72414 0.0
H3366 H 0.97004 0.712 0.72322 0.0
H3367 H 0.96019 0.7162 0.70807 0.0
C3368 C 0.72436 0.22257 0.60666 0.0
C3369 C 0.711 0.21711 0.60671 0.0
C3370 C 0.72989 0.2283 0.5948 0.0
C3371 C 0.72197 0.22867 0.58248 0.0
C3372 C 0.70834 0.22361 0.58255 0.0
C3373 C 0.70306 0.21793 0.59456 0.0
C3374 C 0.74446 0.23348 0.59534 0.0
C3375 C 0.69944 0.22377 0.56977 0.0
C3376 C 0.73558 0.25038 0.55279 0.0
C3377 C 0.74249 0.24074 0.54541 0.0
C3378 C 0.72859 0.24664 0.56469 0.0
C3379 C 0.72843 0.23293 0.56933 0.0
C3380 C 0.73497 0.22315 0.56158 0.0
C3381 C 0.74185 0.22714 0.54986 0.0
C3382 C 0.72176 0.25744 0.57255 0.0
C3383 C 0.73509 0.20841 0.5659 0.0
H3384 H 0.73075 0.22192 0.6158 0.0
H3385 H 0.69267 0.21403 0.59438 0.0
H3386 H 0.75071 0.22688 0.58912 0.0
H3387 H 0.74516 0.24387 0.59099 0.0
H3388 H 0.74889 0.23367 0.60587 0.0
H3389 H 0.68875 0.22068 0.5717 0.0
H3390 H 0.69957 0.23405 0.56513 0.0
H3391 H 0.70347 0.21673 0.56224 0.0
H3392 H 0.73605 0.26091 0.54958 0.0
H3393 H 0.74704 0.21952 0.54427 0.0
H3394 H 0.72707 0.25877 0.58258 0.0
H3395 H 0.71108 0.2543 0.57446 0.0
H3396 H 0.7218 0.26737 0.56714 0.0
H3397 H 0.74051 0.20744 0.57591 0.0
H3398 H 0.74014 0.20195 0.5585 0.0
H3399 H 0.72454 0.20447 0.56708 0.0
C3400 C 0.31184 0.20662 0.59419 0.0
C3401 C 0.31208 0.21386 0.60646 0.0
C3402 C 0.30625 0.21215 0.58203 0.0
C3403 C 0.30073 0.22529 0.582 0.0
C3404 C 0.30063 0.23251 0.5944 0.0
C3405 C 0.30627 0.22674 0.6064 0.0
C3406 C 0.3066 0.20404 0.56913 0.0
C3407 C 0.29497 0.24657 0.5949 0.0
C3408 C 0.30215 0.24692 0.54982 0.0
C3409 C 0.28858 0.24664 0.54482 0.0
C3410 C 0.30619 0.23983 0.56164 0.0
C3411 C 0.29647 0.2321 0.56884 0.0
C3412 C 0.2828 0.23135 0.56364 0.0
C3413 C 0.27901 0.23862 0.55169 0.0
C3414 C 0.32086 0.24095 0.56663 0.0
C3415 C 0.27211 0.22319 0.57094 0.0
H3416 H 0.31601 0.19657 0.59407 0.0
H3417 H 0.30645 0.23253 0.61571 0.0
H3418 H 0.29634 0.20348 0.56409 0.0
H3419 H 0.31352 0.20916 0.56195 0.0
H3420 H 0.31014 0.19356 0.571 0.0
H3421 H 0.29457 0.25041 0.60545 0.0
H3422 H 0.3014 0.25369 0.58898 0.0
H3423 H 0.28457 0.24664 0.59018 0.0
H3424 H 0.30972 0.25296 0.54459 0.0
H3425 H 0.2685 0.23836 0.54799 0.0
H3426 H 0.32518 0.23071 0.56781 0.0
H3427 H 0.3215 0.24581 0.57676 0.0
H3428 H 0.32727 0.247 0.55964 0.0
H3429 H 0.27555 0.21268 0.57275 0.0
H3430 H 0.26222 0.22279 0.56516 0.0
H3431 H 0.27055 0.22773 0.58101 0.0
C3432 C 0.30663 0.81973 0.60107 0.0
C3433 C 0.29886 0.82575 0.611 0.0
C3434 C 0.30052 0.81406 0.58912 0.0
C3435 C 0.2862 0.81438 0.58687 0.0
C3436 C 0.27829 0.82036 0.59687 0.0
C3437 C 0.28466 0.82593 0.60872 0.0
C3438 C 0.30942 0.80776 0.57886 0.0
C3439 C 0.26304 0.82107 0.59498 0.0
C3440 C 0.27139 0.81203 0.55032 0.0
C3441 C 0.2667 0.79844 0.54941 0.0
C3442 C 0.27771 0.81727 0.56234 0.0
C3443 C 0.27953 0.8088 0.57392 0.0
C3444 C 0.27486 0.79508 0.57311 0.0
C3445 C 0.26854 0.7901 0.56095 0.0
C3446 C 0.28249 0.83194 0.56261 0.0
C3447 C 0.2765 0.78563 0.58514 0.0
H3448 H 0.31756 0.81931 0.60267 0.0
H3449 H 0.27847 0.83071 0.6161 0.0
H3450 H 0.30615 0.79705 0.57709 0.0
H3451 H 0.30831 0.81319 0.56899 0.0
H3452 H 0.32033 0.80804 0.58216 0.0
H3453 H 0.25825 0.82569 0.60382 0.0
H3454 H 0.26045 0.82715 0.58577 0.0
H3455 H 0.25854 0.81075 0.59339 0.0
H3456 H 0.27032 0.81863 0.54155 0.0
H3457 H 0.2649 0.77965 0.56058 0.0
H3458 H 0.29361 0.83259 0.5649 0.0
H3459 H 0.27747 0.83737 0.5708 0.0
H3460 H 0.28031 0.83725 0.55282 0.0
H3461 H 0.2874 0.78508 0.58831 0.0
H3462 H 0.27253 0.77521 0.58289 0.0
H3463 H 0.27106 0.78961 0.59387 0.0
C3464 C 0.72791 0.81621 0.61088 0.0
C3465 C 0.71496 0.82198 0.61032 0.0
C3466 C 0.73399 0.81145 0.59913 0.0
C3467 C 0.72694 0.8122 0.58636 0.0
C3468 C 0.71368 0.81756 0.58575 0.0
C3469 C 0.70791 0.82243 0.59765 0.0
C3470 C 0.74813 0.80589 0.60035 0.0
C3471 C 0.70568 0.81842 0.57243 0.0
C3472 C 0.74812 0.81312 0.55446 0.0
C3473 C 0.7474 0.79955 0.55008 0.0
C3474 C 0.74148 0.81734 0.56611 0.0
C3475 C 0.73367 0.80786 0.57364 0.0
C3476 C 0.73266 0.79421 0.5692 0.0
C3477 C 0.73954 0.79023 0.55759 0.0
C3478 C 0.74297 0.83197 0.57045 0.0
C3479 C 0.72437 0.78376 0.5768 0.0
H3480 H 0.73342 0.81545 0.62055 0.0
H3481 H 0.698 0.82695 0.59692 0.0
H3482 H 0.74814 0.79543 0.59631 0.0
H3483 H 0.75514 0.81217 0.59417 0.0
H3484 H 0.75218 0.80574 0.61101 0.0
H3485 H 0.69518 0.82194 0.57375 0.0
H3486 H 0.71093 0.82554 0.56547 0.0
H3487 H 0.70511 0.80835 0.56745 0.0
H3488 H 0.75388 0.82058 0.5488 0.0
H3489 H 0.73887 0.77971 0.55456 0.0
H3490 H 0.74767 0.83254 0.58083 0.0
H3491 H 0.73281 0.83655 0.57081 0.0
H3492 H 0.74931 0.83814 0.56349 0.0
H3493 H 0.72875 0.78249 0.58724 0.0
H3494 H 0.72402 0.77373 0.57172 0.0
H3495 H 0.71381 0.78723 0.57773 0.0
C3496 C 0.72047 0.80287 0.41765 0.0
C3497 C 0.70653 0.80515 0.41538 0.0
C3498 C 0.72552 0.79686 0.42976 0.0
C3499 C 0.71645 0.79284 0.43999 0.0
C3500 C 0.70228 0.79442 0.43749 0.0
C3501 C 0.6975 0.80055 0.42527 0.0
C3502 C 0.74068 0.79539 0.43184 0.0
C3503 C 0.6922 0.79021 0.448 0.0
C3504 C 0.73221 0.77157 0.46914 0.0
C3505 C 0.73631 0.78171 0.47845 0.0
C3506 C 0.72512 0.77487 0.45682 0.0
C3507 C 0.72203 0.7886 0.45378 0.0
C3508 C 0.72544 0.79866 0.46359 0.0
C3509 C 0.7325 0.79511 0.47568 0.0
C3510 C 0.72162 0.76377 0.44676 0.0
C3511 C 0.72233 0.8134 0.46098 0.0
H3512 H 0.72756 0.80603 0.41 0.0
H3513 H 0.68672 0.80224 0.42373 0.0
H3514 H 0.74449 0.80222 0.44012 0.0
H3515 H 0.74305 0.78487 0.43499 0.0
H3516 H 0.74629 0.79794 0.42254 0.0
H3517 H 0.68156 0.79031 0.44388 0.0
H3518 H 0.69437 0.77989 0.45194 0.0
H3519 H 0.69315 0.79726 0.45673 0.0
H3520 H 0.7352 0.76121 0.47109 0.0
H3521 H 0.73554 0.80302 0.48284 0.0
H3522 H 0.7284 0.76476 0.43802 0.0
H3523 H 0.71101 0.76469 0.44273 0.0
H3524 H 0.72283 0.75352 0.45133 0.0
H3525 H 0.72843 0.81732 0.45248 0.0
H3526 H 0.72466 0.81981 0.47003 0.0
H3527 H 0.71145 0.81448 0.45794 0.0
C3528 C 0.71473 0.19337 0.42307 0.0
C3529 C 0.71672 0.19946 0.41029 0.0
C3530 C 0.72144 0.19833 0.43503 0.0
C3531 C 0.73054 0.2097 0.43439 0.0
C3532 C 0.7327 0.21584 0.42155 0.0
C3533 C 0.7258 0.21071 0.40975 0.0
C3534 C 0.71877 0.19137 0.4484 0.0
C3535 C 0.74229 0.22794 0.42026 0.0
C3536 C 0.73896 0.22994 0.46705 0.0
C3537 C 0.75157 0.22476 0.47146 0.0
C3538 C 0.73208 0.22521 0.45507 0.0
C3539 C 0.73787 0.21504 0.44711 0.0
C3540 C 0.75064 0.20988 0.45143 0.0
C3541 C 0.75728 0.21476 0.46345 0.0
C3542 C 0.71849 0.23103 0.45098 0.0
C3543 C 0.75733 0.19913 0.44333 0.0
H3544 H 0.70797 0.18457 0.42376 0.0
H3545 H 0.72736 0.21573 0.4001 0.0
H3546 H 0.7284 0.18746 0.45291 0.0
H3547 H 0.71487 0.19875 0.45566 0.0
H3548 H 0.7113 0.18278 0.44729 0.0
H3549 H 0.74304 0.23149 0.40958 0.0
H3550 H 0.73879 0.23642 0.42648 0.0
H3551 H 0.75259 0.22533 0.42422 0.0
H3552 H 0.73429 0.23754 0.4731 0.0
H3553 H 0.76707 0.21076 0.46648 0.0
H3554 H 0.71055 0.22284 0.4507 0.0
H3555 H 0.71887 0.23544 0.44061 0.0
H3556 H 0.71541 0.23902 0.45807 0.0
H3557 H 0.75062 0.18994 0.44259 0.0
H3558 H 0.76731 0.19621 0.44792 0.0
H3559 H 0.75889 0.20284 0.43283 0.0
C3560 C 0.32556 0.21434 0.42444 0.0
C3561 C 0.32603 0.22152 0.41206 0.0
C3562 C 0.32065 0.2203 0.43625 0.0
C3563 C 0.31611 0.23384 0.43582 0.0
C3564 C 0.31627 0.24104 0.42332 0.0
C3565 C 0.32113 0.23481 0.41166 0.0
C3566 C 0.32058 0.21217 0.44928 0.0
C3567 C 0.31156 0.25547 0.4223 0.0
C3568 C 0.29383 0.24733 0.46371 0.0
C3569 C 0.30331 0.2546 0.47207 0.0
C3570 C 0.29784 0.24038 0.45208 0.0
C3571 C 0.31169 0.2407 0.44851 0.0
C3572 C 0.32131 0.24792 0.45692 0.0
C3573 C 0.31705 0.25468 0.46854 0.0
C3574 C 0.28721 0.23279 0.4435 0.0
C3575 C 0.33616 0.24863 0.45356 0.0
H3576 H 0.3294 0.20414 0.42502 0.0
H3577 H 0.3211 0.24044 0.40218 0.0
H3578 H 0.32768 0.21698 0.45692 0.0
H3579 H 0.3103 0.21207 0.45354 0.0
H3580 H 0.32364 0.20153 0.4478 0.0
H3581 H 0.31199 0.25959 0.4118 0.0
H3582 H 0.30097 0.25606 0.4257 0.0
H3583 H 0.31802 0.26205 0.42911 0.0
H3584 H 0.28319 0.24721 0.4661 0.0
H3585 H 0.3246 0.25998 0.47489 0.0
H3586 H 0.29011 0.22206 0.4424 0.0
H3587 H 0.28659 0.23729 0.43315 0.0
H3588 H 0.27698 0.233 0.44789 0.0
H3589 H 0.3402 0.23825 0.45306 0.0
H3590 H 0.34243 0.25454 0.46115 0.0
H3591 H 0.33735 0.2534 0.44343 0.0
C3592 C 0.29399 0.80351 0.42215 0.0
C3593 C 0.30796 0.80481 0.41963 0.0
C3594 C 0.28921 0.79637 0.43358 0.0
C3595 C 0.29854 0.79024 0.44291 0.0
C3596 C 0.31265 0.79159 0.44053 0.0
C3597 C 0.31717 0.79885 0.42901 0.0
C3598 C 0.27409 0.79534 0.43564 0.0
C3599 C 0.32301 0.78521 0.45007 0.0
C3600 C 0.28525 0.78099 0.47817 0.0
C3601 C 0.2813 0.76727 0.47661 0.0
C3602 C 0.29123 0.78847 0.4675 0.0
C3603 C 0.29342 0.78214 0.45488 0.0
C3604 C 0.28998 0.76816 0.45347 0.0
C3605 C 0.28397 0.76096 0.46425 0.0
C3606 C 0.29469 0.80332 0.46955 0.0
C3607 C 0.29217 0.76086 0.44034 0.0
H3608 H 0.28672 0.80824 0.41522 0.0
H3609 H 0.32796 0.79963 0.42722 0.0
H3610 H 0.27065 0.78454 0.43555 0.0
H3611 H 0.27175 0.7995 0.44571 0.0
H3612 H 0.26815 0.80089 0.42768 0.0
H3613 H 0.33361 0.78746 0.44707 0.0
H3614 H 0.3218 0.78891 0.46055 0.0
H3615 H 0.32131 0.77404 0.45028 0.0
H3616 H 0.28318 0.78608 0.48756 0.0
H3617 H 0.281 0.75039 0.46283 0.0
H3618 H 0.28807 0.8095 0.46272 0.0
H3619 H 0.30536 0.80557 0.46684 0.0
H3620 H 0.29333 0.80655 0.48018 0.0
H3621 H 0.28551 0.76514 0.43215 0.0
H3622 H 0.28991 0.7498 0.44114 0.0
H3623 H 0.30283 0.7624 0.43726 0.0
C3624 C 0.61421 0.21415 0.72752 0.0
C3625 C 0.61231 0.21081 0.7137 0.0
C3626 C 0.60326 0.21814 0.73539 0.0
C3627 C 0.58997 0.21889 0.72939 0.0
C3628 C 0.58795 0.21542 0.71552 0.0
C3629 C 0.59905 0.21141 0.70792 0.0
C3630 C 0.60595 0.22167 0.75013 0.0
C3631 C 0.57403 0.21601 0.70863 0.0
C3632 C 0.55884 0.21778 0.75187 0.0
C3633 C 0.55536 0.23152 0.75255 0.0
C3634 C 0.57008 0.21359 0.74456 0.0
C3635 C 0.57816 0.22329 0.73758 0.0
C3636 C 0.57476 0.23716 0.73823 0.0
C3637 C 0.5635 0.24109 0.74567 0.0
C3638 C 0.57324 0.1987 0.74423 0.0
C3639 C 0.58301 0.24791 0.73098 0.0
H3640 H 0.62434 0.21394 0.73216 0.0
H3641 H 0.59727 0.20864 0.69738 0.0
H3642 H 0.60328 0.23236 0.75189 0.0
H3643 H 0.59944 0.21521 0.75664 0.0
H3644 H 0.61676 0.22033 0.75339 0.0
H3645 H 0.57411 0.21306 0.69777 0.0
H3646 H 0.56681 0.20916 0.71391 0.0
H3647 H 0.57013 0.22644 0.70925 0.0
H3648 H 0.55267 0.21018 0.75692 0.0
H3649 H 0.56118 0.25174 0.74617 0.0
H3650 H 0.58383 0.19713 0.74803 0.0
H3651 H 0.57247 0.195 0.73361 0.0
H3652 H 0.56624 0.19243 0.75045 0.0
H3653 H 0.59379 0.24768 0.73464 0.0
H3654 H 0.57918 0.25826 0.73252 0.0
H3655 H 0.5828 0.2458 0.71993 0.0
C3656 C 0.32059 0.10374 0.70515 0.0
C3657 C 0.31598 0.11673 0.70821 0.0
C3658 C 0.31362 0.09184 0.70941 0.0
C3659 C 0.30168 0.09281 0.71697 0.0
C3660 C 0.29692 0.10586 0.72002 0.0
C3661 C 0.30407 0.11758 0.71562 0.0
C3662 C 0.31912 0.0782 0.70592 0.0
C3663 C 0.28424 0.10745 0.72798 0.0
C3664 C 0.27622 0.06275 0.7183 0.0
C3665 C 0.27925 0.05695 0.7311 0.0
C3666 C 0.28353 0.07422 0.71352 0.0
C3667 C 0.29417 0.08021 0.72171 0.0
C3668 C 0.29741 0.07431 0.73456 0.0
C3669 C 0.28997 0.06279 0.73906 0.0
C3670 C 0.27974 0.08003 0.69973 0.0
C3671 C 0.30858 0.08033 0.74369 0.0
H3672 H 0.32984 0.10285 0.69962 0.0
H3673 H 0.30023 0.12747 0.71791 0.0
H3674 H 0.32167 0.07249 0.71537 0.0
H3675 H 0.31126 0.07213 0.70015 0.0
H3676 H 0.32837 0.07912 0.6998 0.0
H3677 H 0.28185 0.11826 0.72956 0.0
H3678 H 0.27544 0.10241 0.72257 0.0
H3679 H 0.28547 0.10242 0.73804 0.0
H3680 H 0.2681 0.05829 0.71197 0.0
H3681 H 0.29233 0.0586 0.74903 0.0
H3682 H 0.28875 0.08038 0.69327 0.0
H3683 H 0.27636 0.0906 0.70081 0.0
H3684 H 0.27148 0.07403 0.69443 0.0
H3685 H 0.31828 0.08087 0.73829 0.0
H3686 H 0.31015 0.07436 0.7532 0.0
H3687 H 0.30607 0.09085 0.74641 0.0
C3688 C 0.41025 0.80389 0.71041 0.0
C3689 C 0.41111 0.81654 0.70372 0.0
C3690 C 0.42202 0.79694 0.71483 0.0
C3691 C 0.43513 0.80263 0.71251 0.0
C3692 C 0.43608 0.81546 0.70595 0.0
C3693 C 0.42416 0.82222 0.7017 0.0
C3694 C 0.4204 0.78333 0.72178 0.0
C3695 C 0.44976 0.82201 0.70323 0.0
C3696 C 0.46649 0.78991 0.7328 0.0
C3697 C 0.47232 0.7811 0.72359 0.0
C3698 C 0.45439 0.79682 0.72943 0.0
C3699 C 0.44782 0.795 0.71649 0.0
C3700 C 0.45353 0.786 0.70723 0.0
C3701 C 0.46559 0.77918 0.71087 0.0
C3702 C 0.44871 0.80624 0.73969 0.0
C3703 C 0.44696 0.78364 0.69334 0.0
H3704 H 0.40035 0.79919 0.71192 0.0
H3705 H 0.4251 0.83205 0.69679 0.0
H3706 H 0.42482 0.77535 0.71553 0.0
H3707 H 0.42604 0.7834 0.73173 0.0
H3708 H 0.40958 0.78055 0.72346 0.0
H3709 H 0.44884 0.83214 0.69833 0.0
H3710 H 0.45582 0.82315 0.71288 0.0
H3711 H 0.45551 0.8154 0.69653 0.0
H3712 H 0.4715 0.79167 0.7426 0.0
H3713 H 0.4697 0.77228 0.70368 0.0
H3714 H 0.43802 0.80324 0.74169 0.0
H3715 H 0.44865 0.81674 0.73557 0.0
H3716 H 0.45468 0.80624 0.74947 0.0
H3717 H 0.43634 0.77983 0.69433 0.0
H3718 H 0.45253 0.77623 0.68733 0.0
H3719 H 0.44655 0.79336 0.68761 0.0
C3720 C 0.70831 0.93224 0.70914 0.0
C3721 C 0.71412 0.92043 0.70424 0.0
C3722 C 0.71629 0.94392 0.71235 0.0
C3723 C 0.73052 0.94396 0.71061 0.0
C3724 C 0.73647 0.93214 0.70555 0.0
C3725 C 0.72823 0.92057 0.70244 0.0
C3726 C 0.70945 0.95626 0.71764 0.0
C3727 C 0.75157 0.93169 0.70352 0.0
C3728 C 0.74869 0.97859 0.70759 0.0
C3729 C 0.75419 0.98067 0.72081 0.0
C3730 C 0.74124 0.96665 0.70409 0.0
C3731 C 0.7391 0.95641 0.71402 0.0
C3732 C 0.74479 0.95831 0.72731 0.0
C3733 C 0.75224 0.97034 0.73053 0.0
C3734 C 0.73541 0.96511 0.68979 0.0
C3735 C 0.74284 0.94769 0.73823 0.0
H3736 H 0.69742 0.93242 0.71037 0.0
H3737 H 0.73291 0.91151 0.69882 0.0
H3738 H 0.71389 0.95898 0.72779 0.0
H3739 H 0.71127 0.96506 0.71079 0.0
H3740 H 0.6983 0.95462 0.71848 0.0
H3741 H 0.75465 0.92182 0.69938 0.0
H3742 H 0.75472 0.9399 0.69645 0.0
H3743 H 0.7572 0.93347 0.71332 0.0
H3744 H 0.74992 0.98645 0.69999 0.0
H3745 H 0.75656 0.97164 0.74071 0.0
H3746 H 0.72414 0.96451 0.68994 0.0
H3747 H 0.73881 0.95553 0.68533 0.0
H3748 H 0.73844 0.97369 0.68309 0.0
H3749 H 0.73185 0.94628 0.74014 0.0
H3750 H 0.74826 0.95046 0.74794 0.0
H3751 H 0.74655 0.93779 0.73483 0.0
C3752 C 0.59749 0.80187 0.30355 0.0
C3753 C 0.59892 0.80414 0.31761 0.0
C3754 C 0.58521 0.79668 0.29754 0.0
C3755 C 0.57393 0.7936 0.3057 0.0
C3756 C 0.57538 0.79558 0.31992 0.0
C3757 C 0.58777 0.80079 0.32567 0.0
C3758 C 0.5842 0.79484 0.28234 0.0
C3759 C 0.56372 0.79245 0.32908 0.0
C3760 C 0.53889 0.79589 0.28796 0.0
C3761 C 0.53538 0.78228 0.28505 0.0
C3762 C 0.55112 0.7996 0.29495 0.0
C3763 C 0.56033 0.78948 0.29921 0.0
C3764 C 0.55667 0.77564 0.29677 0.0
C3765 C 0.54424 0.7722 0.28976 0.0
C3766 C 0.55439 0.81446 0.29736 0.0
C3767 C 0.56612 0.7645 0.30113 0.0
H3768 H 0.60589 0.80449 0.29713 0.0
H3769 H 0.58873 0.8022 0.33656 0.0
H3770 H 0.58057 0.78438 0.27985 0.0
H3771 H 0.57666 0.8019 0.27784 0.0
H3772 H 0.5941 0.79678 0.2775 0.0
H3773 H 0.56669 0.79366 0.33999 0.0
H3774 H 0.55522 0.79932 0.32657 0.0
H3775 H 0.55983 0.78192 0.32741 0.0
H3776 H 0.53214 0.80381 0.28446 0.0
H3777 H 0.54175 0.76167 0.28747 0.0
H3778 H 0.56357 0.81756 0.29177 0.0
H3779 H 0.55671 0.81626 0.3083 0.0
H3780 H 0.5459 0.82104 0.294 0.0
H3781 H 0.57554 0.76533 0.29529 0.0
H3782 H 0.56142 0.75425 0.29949 0.0
H3783 H 0.56914 0.76557 0.31203 0.0
C3784 C 0.72152 0.10219 0.29244 0.0
C3785 C 0.70991 0.10185 0.30044 0.0
C3786 C 0.72648 0.09035 0.28652 0.0
C3787 C 0.71966 0.07765 0.28832 0.0
C3788 C 0.70755 0.07731 0.29575 0.0
C3789 C 0.7029 0.08929 0.30175 0.0
C3790 C 0.73945 0.09137 0.2788 0.0
C3791 C 0.69978 0.06413 0.29791 0.0
C3792 C 0.73083 0.04725 0.26694 0.0
C3793 C 0.74013 0.04093 0.27594 0.0
C3794 C 0.72382 0.05899 0.27084 0.0
C3795 C 0.72616 0.06464 0.28401 0.0
C3796 C 0.73527 0.05804 0.29316 0.0
C3797 C 0.742 0.0464 0.28908 0.0
C3798 C 0.71411 0.06553 0.26075 0.0
C3799 C 0.73825 0.06349 0.30728 0.0
H3800 H 0.72693 0.11175 0.29091 0.0
H3801 H 0.69401 0.08864 0.3079 0.0
H3802 H 0.74759 0.08588 0.28447 0.0
H3803 H 0.738 0.08649 0.26874 0.0
H3804 H 0.74297 0.10205 0.27729 0.0
H3805 H 0.68965 0.06575 0.30217 0.0
H3806 H 0.69835 0.05857 0.28819 0.0
H3807 H 0.70567 0.05757 0.30503 0.0
H3808 H 0.72925 0.04324 0.25679 0.0
H3809 H 0.74901 0.04168 0.29628 0.0
H3810 H 0.71816 0.07571 0.25788 0.0
H3811 H 0.70415 0.06699 0.26541 0.0
H3812 H 0.71247 0.0594 0.2514 0.0
H3813 H 0.74276 0.07389 0.30663 0.0
H3814 H 0.74538 0.05707 0.31331 0.0
H3815 H 0.72868 0.06417 0.31283 0.0
C3816 C 0.41718 0.2113 0.29051 0.0
C3817 C 0.41799 0.20578 0.30371 0.0
C3818 C 0.42887 0.21605 0.28392 0.0
C3819 C 0.44179 0.21547 0.29068 0.0
C3820 C 0.44267 0.21026 0.30413 0.0
C3821 C 0.43081 0.20546 0.31044 0.0
C3822 C 0.4274 0.2215 0.26959 0.0
C3823 C 0.45619 0.20955 0.31178 0.0
C3824 C 0.4733 0.21518 0.26902 0.0
C3825 C 0.47794 0.22878 0.26952 0.0
C3826 C 0.46164 0.21074 0.27586 0.0
C3827 C 0.45438 0.22004 0.28355 0.0
C3828 C 0.45902 0.23375 0.2842 0.0
C3829 C 0.47065 0.23795 0.27717 0.0
C3830 C 0.45705 0.19604 0.2748 0.0
C3831 C 0.45165 0.24404 0.29227 0.0
H3832 H 0.40736 0.2119 0.28525 0.0
H3833 H 0.43167 0.20111 0.32056 0.0
H3834 H 0.43158 0.23204 0.2691 0.0
H3835 H 0.43333 0.2153 0.26268 0.0
H3836 H 0.41664 0.22145 0.26579 0.0
H3837 H 0.45512 0.20582 0.32236 0.0
H3838 H 0.46295 0.20267 0.30646 0.0
H3839 H 0.46128 0.21971 0.31206 0.0
H3840 H 0.47884 0.20791 0.26335 0.0
H3841 H 0.47388 0.24851 0.27755 0.0
H3842 H 0.44655 0.19534 0.27035 0.0
H3843 H 0.45685 0.19136 0.28506 0.0
H3844 H 0.46378 0.19006 0.26844 0.0
H3845 H 0.44107 0.24496 0.28816 0.0
H3846 H 0.45673 0.25422 0.29208 0.0
H3847 H 0.45102 0.24061 0.30299 0.0
C3848 C 0.29564 0.92236 0.32922 0.0
C3849 C 0.30184 0.91344 0.32037 0.0
C3850 C 0.28972 0.93451 0.32445 0.0
C3851 C 0.29001 0.93801 0.31046 0.0
C3852 C 0.29601 0.92893 0.30145 0.0
C3853 C 0.30179 0.91685 0.30648 0.0
C3854 C 0.2834 0.94376 0.33445 0.0
C3855 C 0.29673 0.93217 0.28649 0.0
C3856 C 0.26801 0.96572 0.29368 0.0
C3857 C 0.27753 0.97647 0.29246 0.0
C3858 C 0.27171 0.9533 0.3 0.0
C3859 C 0.28519 0.95162 0.30533 0.0
C3860 C 0.29452 0.96277 0.3048 0.0
C3861 C 0.29062 0.97493 0.29834 0.0
C3862 C 0.26139 0.94175 0.30029 0.0
C3863 C 0.30893 0.96167 0.31041 0.0
H3864 H 0.29541 0.91985 0.33993 0.0
H3865 H 0.30669 0.91026 0.2995 0.0
H3866 H 0.28937 0.95344 0.33513 0.0
H3867 H 0.27293 0.94625 0.33091 0.0
H3868 H 0.283 0.93917 0.34476 0.0
H3869 H 0.3009 0.92372 0.28067 0.0
H3870 H 0.28646 0.93445 0.28219 0.0
H3871 H 0.30328 0.94136 0.28504 0.0
H3872 H 0.25795 0.96669 0.289 0.0
H3873 H 0.29807 0.98315 0.29746 0.0
H3874 H 0.26115 0.93715 0.3106 0.0
H3875 H 0.26434 0.93372 0.29322 0.0
H3876 H 0.25101 0.94505 0.29726 0.0
H3877 H 0.30896 0.9578 0.32101 0.0
H3878 H 0.31459 0.97156 0.31026 0.0
H3879 H 0.31445 0.95432 0.30431 0.0
C3880 C 0.70334 0.10342 0.72019 0.0
C3881 C 0.7112 0.1133 0.7134 0.0
C3882 C 0.70933 0.09212 0.72671 0.0
C3883 C 0.7236 0.09048 0.72649 0.0
C3884 C 0.73158 0.10032 0.71955 0.0
C3885 C 0.72533 0.11156 0.71316 0.0
C3886 C 0.70038 0.08204 0.73405 0.0
C3887 C 0.74679 0.09902 0.71892 0.0
C3888 C 0.74182 0.06942 0.75418 0.0
C3889 C 0.74401 0.05711 0.74758 0.0
C3890 C 0.73498 0.08016 0.74756 0.0
C3891 C 0.73023 0.07875 0.73388 0.0
C3892 C 0.73211 0.06623 0.72725 0.0
C3893 C 0.7389 0.05559 0.73415 0.0
C3894 C 0.73314 0.09318 0.75517 0.0
C3895 C 0.72729 0.0642 0.71268 0.0
H3896 H 0.69247 0.10466 0.72069 0.0
H3897 H 0.73155 0.11896 0.70786 0.0
H3898 H 0.70177 0.07168 0.7301 0.0
H3899 H 0.70336 0.08187 0.74501 0.0
H3900 H 0.68944 0.08448 0.73296 0.0
H3901 H 0.75154 0.10725 0.71281 0.0
H3902 H 0.75145 0.09928 0.72934 0.0
H3903 H 0.74921 0.08911 0.71445 0.0
H3904 H 0.74568 0.07081 0.76452 0.0
H3905 H 0.74059 0.04622 0.72886 0.0
H3906 H 0.72224 0.09582 0.75491 0.0
H3907 H 0.73877 0.10161 0.75017 0.0
H3908 H 0.73681 0.0925 0.76594 0.0
H3909 H 0.71628 0.06626 0.71152 0.0
H3910 H 0.72902 0.05375 0.70909 0.0
H3911 H 0.73272 0.0715 0.70604 0.0
C3912 C 0.71814 0.90671 0.30449 0.0
C3913 C 0.70861 0.90745 0.31478 0.0
C3914 C 0.72545 0.91832 0.3 0.0
C3915 C 0.72334 0.93114 0.3059 0.0
C3916 C 0.71385 0.93196 0.31636 0.0
C3917 C 0.70664 0.92019 0.32064 0.0
C3918 C 0.73545 0.91684 0.28887 0.0
C3919 C 0.71122 0.94534 0.323 0.0
C3920 C 0.75102 0.95907 0.30284 0.0
C3921 C 0.74585 0.96727 0.29219 0.0
C3922 C 0.74384 0.9474 0.30738 0.0
C3923 C 0.73109 0.94363 0.30118 0.0
C3924 C 0.72582 0.9518 0.29041 0.0
C3925 C 0.7332 0.96345 0.28608 0.0
C3926 C 0.74994 0.93907 0.31886 0.0
C3927 C 0.71231 0.94825 0.28344 0.0
H3928 H 0.72 0.89698 0.29997 0.0
H3929 H 0.69923 0.92106 0.32843 0.0
H3930 H 0.7326 0.92346 0.28013 0.0
H3931 H 0.74577 0.92019 0.29257 0.0
H3932 H 0.73592 0.90623 0.28525 0.0
H3933 H 0.70367 0.94433 0.33108 0.0
H3934 H 0.72085 0.94969 0.32751 0.0
H3935 H 0.70743 0.95268 0.31526 0.0
H3936 H 0.76081 0.96164 0.30759 0.0
H3937 H 0.72892 0.96965 0.27799 0.0
H3938 H 0.75146 0.92855 0.3154 0.0
H3939 H 0.74286 0.93845 0.32737 0.0
H3940 H 0.75986 0.94337 0.32274 0.0
H3941 H 0.71258 0.93794 0.27905 0.0
H3942 H 0.70959 0.95554 0.2752 0.0
H3943 H 0.70416 0.9481 0.29095 0.0
C3944 C 0.59973 0.2097 0.31518 0.0
C3945 C 0.61222 0.21056 0.30862 0.0
C3946 C 0.58814 0.21657 0.31013 0.0
C3947 C 0.58885 0.2246 0.29816 0.0
C3948 C 0.60154 0.22594 0.29178 0.0
C3949 C 0.61297 0.21895 0.29703 0.0
C3950 C 0.57495 0.21479 0.31736 0.0
C3951 C 0.6029 0.2343 0.27899 0.0
C3952 C 0.55699 0.22739 0.27501 0.0
C3953 C 0.55256 0.24062 0.2773 0.0
C3954 C 0.56852 0.22213 0.28184 0.0
C3955 C 0.57609 0.23018 0.29139 0.0
C3956 C 0.57154 0.24347 0.29408 0.0
C3957 C 0.55985 0.24853 0.28703 0.0
C3958 C 0.57276 0.20793 0.27856 0.0
C3959 C 0.57922 0.25244 0.30419 0.0
H3960 H 0.59895 0.20351 0.32427 0.0
H3961 H 0.62239 0.21968 0.29169 0.0
H3962 H 0.57046 0.22479 0.31917 0.0
H3963 H 0.56753 0.20886 0.31089 0.0
H3964 H 0.57631 0.20942 0.32725 0.0
H3965 H 0.61365 0.23553 0.27602 0.0
H3966 H 0.59699 0.22932 0.27053 0.0
H3967 H 0.59866 0.2445 0.28034 0.0
H3968 H 0.55148 0.22104 0.26764 0.0
H3969 H 0.55664 0.25876 0.2889 0.0
H3970 H 0.5733 0.20166 0.28796 0.0
H3971 H 0.58306 0.20826 0.27433 0.0
H3972 H 0.56563 0.20282 0.27112 0.0
H3973 H 0.5804 0.2471 0.3141 0.0
H3974 H 0.57405 0.26215 0.30577 0.0
H3975 H 0.58958 0.25472 0.30058 0.0
C3976 C 0.3167 0.09725 0.32338 0.0
C3977 C 0.31873 0.1095 0.31623 0.0
C3978 C 0.31229 0.08525 0.31668 0.0
C3979 C 0.30978 0.08537 0.30243 0.0
C3980 C 0.31183 0.09766 0.29513 0.0
C3981 C 0.31627 0.10951 0.30209 0.0
C3982 C 0.31024 0.07243 0.3249 0.0
C3983 C 0.30931 0.09831 0.27995 0.0
C3984 C 0.30973 0.05188 0.28296 0.0
C3985 C 0.29578 0.04868 0.28132 0.0
C3986 C 0.31441 0.06369 0.28985 0.0
C3987 C 0.30494 0.07268 0.29516 0.0
C3988 C 0.29085 0.06953 0.29351 0.0
C3989 C 0.28645 0.05759 0.28669 0.0
C3990 C 0.32952 0.06652 0.29147 0.0
C3991 C 0.28036 0.07884 0.29885 0.0
H3992 H 0.31833 0.09708 0.33431 0.0
H3993 H 0.31796 0.1188 0.29637 0.0
H3994 H 0.29949 0.06884 0.32384 0.0
H3995 H 0.3166 0.06429 0.321 0.0
H3996 H 0.31287 0.07391 0.33586 0.0
H3997 H 0.31129 0.10863 0.27574 0.0
H3998 H 0.31591 0.09108 0.27489 0.0
H3999 H 0.29861 0.09524 0.27735 0.0
H4000 H 0.31703 0.04503 0.27901 0.0
H4001 H 0.27566 0.05537 0.28532 0.0
H4002 H 0.33251 0.06727 0.3024 0.0
H4003 H 0.33218 0.07641 0.28668 0.0
H4004 H 0.33557 0.05852 0.28683 0.0
H4005 H 0.28196 0.08008 0.30997 0.0
H4006 H 0.2698 0.07498 0.29675 0.0
H4007 H 0.28151 0.08904 0.29415 0.0
C4008 C 0.40523 0.80872 0.30354 0.0
C4009 C 0.40688 0.81827 0.31407 0.0
C4010 C 0.41635 0.80457 0.29602 0.0
C4011 C 0.42961 0.81 0.299 0.0
C4012 C 0.43135 0.81965 0.30957 0.0
C4013 C 0.42005 0.82366 0.3169 0.0
C4014 C 0.4139 0.79429 0.28487 0.0
C4015 C 0.44522 0.82577 0.31315 0.0
C4016 C 0.46033 0.7903 0.28732 0.0
C4017 C 0.4638 0.79721 0.27533 0.0
C4018 C 0.44938 0.7944 0.29514 0.0
C4019 C 0.44157 0.8057 0.29097 0.0
C4020 C 0.44514 0.81283 0.27901 0.0
C4021 C 0.45614 0.80855 0.27141 0.0
C4022 C 0.44604 0.78647 0.3078 0.0
C4023 C 0.43723 0.82495 0.27413 0.0
H4024 H 0.39524 0.80425 0.30131 0.0
H4025 H 0.42156 0.83117 0.32481 0.0
H4026 H 0.41723 0.7986 0.27507 0.0
H4027 H 0.42004 0.78519 0.28705 0.0
H4028 H 0.40303 0.79106 0.28371 0.0
H4029 H 0.44498 0.83301 0.32172 0.0
H4030 H 0.4524 0.81764 0.31594 0.0
H4031 H 0.44929 0.83119 0.3042 0.0
H4032 H 0.46595 0.78146 0.29046 0.0
H4033 H 0.45874 0.81415 0.26234 0.0
H4034 H 0.43561 0.78199 0.30672 0.0
H4035 H 0.44623 0.79333 0.31668 0.0
H4036 H 0.45326 0.77817 0.30992 0.0
H4037 H 0.42643 0.82189 0.27206 0.0
H4038 H 0.44134 0.82953 0.26474 0.0
H4039 H 0.43741 0.8328 0.28213 0.0
C4040 C 0.30177 0.92566 0.72269 0.0
C4041 C 0.31563 0.92485 0.71979 0.0
C4042 C 0.29651 0.93728 0.72879 0.0
C4043 C 0.30523 0.94854 0.73217 0.0
C4044 C 0.31927 0.94768 0.72956 0.0
C4045 C 0.32426 0.93595 0.72345 0.0
C4046 C 0.28148 0.93764 0.73126 0.0
C4047 C 0.32902 0.95932 0.73297 0.0
C4048 C 0.28853 0.98321 0.73246 0.0
C4049 C 0.28673 0.98555 0.74635 0.0
C4050 C 0.29482 0.9715 0.72785 0.0
C4051 C 0.29945 0.96159 0.73728 0.0
C4052 C 0.29809 0.96405 0.75138 0.0
C4053 C 0.29181 0.97601 0.75575 0.0
C4054 C 0.2961 0.96957 0.71276 0.0
C4055 C 0.30284 0.95382 0.76184 0.0
H4056 H 0.29489 0.91732 0.71987 0.0
H4057 H 0.33502 0.93547 0.7216 0.0
H4058 H 0.27981 0.94031 0.74198 0.0
H4059 H 0.27675 0.9456 0.72478 0.0
H4060 H 0.27619 0.92778 0.729 0.0
H4061 H 0.33974 0.95681 0.73117 0.0
H4062 H 0.32634 0.96831 0.72668 0.0
H4063 H 0.32818 0.96223 0.74375 0.0
H4064 H 0.28472 0.99049 0.72505 0.0
H4065 H 0.29035 0.97757 0.76647 0.0
H4066 H 0.28999 0.96051 0.70941 0.0
H4067 H 0.30683 0.96774 0.7104 0.0
H4068 H 0.29259 0.97848 0.70676 0.0
H4069 H 0.29662 0.94433 0.76072 0.0
H4070 H 0.30201 0.95758 0.77237 0.0
H4071 H 0.31356 0.95123 0.76021 0.0
C4072 C 0.60153 0.8264 0.72039 0.0
C4073 C 0.60908 0.81742 0.71278 0.0
C4074 C 0.59003 0.82188 0.72754 0.0
C4075 C 0.58582 0.80801 0.72711 0.0
C4076 C 0.59327 0.79895 0.71931 0.0
C4077 C 0.60471 0.80372 0.71229 0.0
C4078 C 0.5825 0.83194 0.73573 0.0
C4079 C 0.5892 0.7841 0.71844 0.0
C4080 C 0.56518 0.79162 0.75544 0.0
C4081 C 0.55201 0.79051 0.74947 0.0
C4082 C 0.57609 0.79769 0.7485 0.0
C4083 C 0.57393 0.80281 0.73513 0.0
C4084 C 0.56056 0.8022 0.72922 0.0
C4085 C 0.5498 0.79611 0.73644 0.0
C4086 C 0.59007 0.79815 0.75532 0.0
C4087 C 0.55771 0.8075 0.71503 0.0
H4088 H 0.60478 0.83697 0.721 0.0
H4089 H 0.6102 0.79667 0.70627 0.0
H4090 H 0.57159 0.83181 0.73251 0.0
H4091 H 0.58307 0.82901 0.74663 0.0
H4092 H 0.5867 0.84244 0.73467 0.0
H4093 H 0.59581 0.7784 0.7117 0.0
H4094 H 0.58975 0.77942 0.72871 0.0
H4095 H 0.57852 0.78297 0.71455 0.0
H4096 H 0.56711 0.78737 0.76548 0.0
H4097 H 0.53974 0.79527 0.73162 0.0
H4098 H 0.59444 0.80862 0.75503 0.0
H4099 H 0.59694 0.79159 0.74975 0.0
H4100 H 0.58993 0.79466 0.76606 0.0
H4101 H 0.56168 0.81808 0.71405 0.0
H4102 H 0.54667 0.80725 0.71224 0.0
H4103 H 0.56304 0.80128 0.70765 0.0
C4104 C 0.42113 0.2296 0.72135 0.0
C4105 C 0.42124 0.22405 0.70824 0.0
C4106 C 0.43307 0.23505 0.72783 0.0
C4107 C 0.4456 0.23504 0.72112 0.0
C4108 C 0.44574 0.22975 0.70777 0.0
C4109 C 0.43365 0.22436 0.70154 0.0
C4110 C 0.43235 0.24045 0.74207 0.0
C4111 C 0.45878 0.2295 0.70017 0.0
C4112 C 0.47575 0.25648 0.7363 0.0
C4113 C 0.48267 0.24682 0.74428 0.0
C4114 C 0.46383 0.25282 0.72849 0.0
C4115 C 0.4587 0.23919 0.72861 0.0
C4116 C 0.46594 0.2294 0.73632 0.0
C4117 C 0.47771 0.23331 0.74397 0.0
C4118 C 0.45651 0.26361 0.72039 0.0
C4119 C 0.46106 0.21476 0.7368 0.0
H4120 H 0.41174 0.22936 0.72677 0.0
H4121 H 0.43393 0.2204 0.69133 0.0
H4122 H 0.43826 0.23391 0.7492 0.0
H4123 H 0.43698 0.25081 0.74268 0.0
H4124 H 0.42173 0.24078 0.7455 0.0
H4125 H 0.45706 0.22608 0.68951 0.0
H4126 H 0.46373 0.23973 0.70011 0.0
H4127 H 0.46597 0.22253 0.70539 0.0
H4128 H 0.47939 0.26695 0.73647 0.0
H4129 H 0.48295 0.22566 0.74996 0.0
H4130 H 0.44633 0.26505 0.72456 0.0
H4131 H 0.45491 0.26037 0.70968 0.0
H4132 H 0.46219 0.27349 0.72059 0.0
H4133 H 0.45086 0.21407 0.74124 0.0
H4134 H 0.46805 0.20828 0.74292 0.0
H4135 H 0.46003 0.2106 0.72637 0.0
C4136 C 0.71024 0.73025 0.10223 0.0
C4137 C 0.70056 0.7195 0.10197 0.0
C4138 C 0.71415 0.73694 0.09022 0.0
C4139 C 0.70824 0.73291 0.0775 0.0
C4140 C 0.69834 0.7222 0.07716 0.0
C4141 C 0.69464 0.71565 0.08933 0.0
C4142 C 0.7247 0.74831 0.09114 0.0
C4143 C 0.69175 0.71752 0.06389 0.0
C4144 C 0.70987 0.75771 0.0474 0.0
C4145 C 0.72076 0.75286 0.04011 0.0
C4146 C 0.70569 0.75134 0.05949 0.0
C4147 C 0.71253 0.73978 0.06457 0.0
C4148 C 0.72354 0.73483 0.05729 0.0
C4149 C 0.72749 0.74138 0.04522 0.0
C4150 C 0.69394 0.75703 0.06686 0.0
C4151 C 0.73115 0.72255 0.06227 0.0
H4152 H 0.71476 0.73352 0.11188 0.0
H4153 H 0.68731 0.70727 0.08887 0.0
H4154 H 0.7336 0.74575 0.08515 0.0
H4155 H 0.72046 0.75775 0.08672 0.0
H4156 H 0.72825 0.75036 0.10178 0.0
H4157 H 0.684 0.70929 0.06532 0.0
H4158 H 0.68681 0.72615 0.05859 0.0
H4159 H 0.69961 0.71377 0.05714 0.0
H4160 H 0.70466 0.76664 0.04378 0.0
H4161 H 0.73577 0.73735 0.03969 0.0
H4162 H 0.69734 0.76005 0.07729 0.0
H4163 H 0.6858 0.74913 0.06786 0.0
H4164 H 0.68957 0.76598 0.06157 0.0
H4165 H 0.73555 0.72441 0.07263 0.0
H4166 H 0.7395 0.71996 0.05552 0.0
H4167 H 0.72405 0.71367 0.06293 0.0
C4168 C 0.31092 0.70004 0.08795 0.0
C4169 C 0.30885 0.70527 0.10097 0.0
C4170 C 0.30519 0.70606 0.07608 0.0
C4171 C 0.29719 0.71777 0.07704 0.0
C4172 C 0.29486 0.72297 0.09012 0.0
C4173 C 0.30065 0.7167 0.10184 0.0
C4174 C 0.30806 0.70011 0.06244 0.0
C4175 C 0.2865 0.73544 0.09175 0.0
C4176 C 0.29698 0.743 0.04739 0.0
C4177 C 0.28413 0.74076 0.04092 0.0
C4178 C 0.30127 0.73557 0.05893 0.0
C4179 C 0.2926 0.7254 0.06438 0.0
C4180 C 0.2797 0.72279 0.05777 0.0
C4181 C 0.27561 0.73048 0.04614 0.0
C4182 C 0.31509 0.73881 0.06544 0.0
C4183 C 0.27014 0.712 0.06314 0.0
H4184 H 0.31734 0.69137 0.08694 0.0
H4185 H 0.29867 0.72077 0.11174 0.0
H4186 H 0.29845 0.69855 0.05636 0.0
H4187 H 0.31459 0.70729 0.05671 0.0
H4188 H 0.31327 0.69028 0.0634 0.0
H4189 H 0.28479 0.73771 0.10257 0.0
H4190 H 0.29176 0.74433 0.08712 0.0
H4191 H 0.27649 0.73412 0.08632 0.0
H4192 H 0.30379 0.7508 0.04352 0.0
H4193 H 0.26567 0.72864 0.04134 0.0
H4194 H 0.32132 0.72959 0.06584 0.0
H4195 H 0.31395 0.74216 0.07606 0.0
H4196 H 0.32072 0.7469 0.05989 0.0
H4197 H 0.2753 0.70213 0.06384 0.0
H4198 H 0.26075 0.71076 0.05663 0.0
H4199 H 0.26723 0.71466 0.07354 0.0
C4200 C 0.32618 0.30979 0.10842 0.0
C4201 C 0.32072 0.30703 0.1212 0.0
C4202 C 0.32098 0.30332 0.09649 0.0
C4203 C 0.30991 0.29386 0.09717 0.0
C4204 C 0.30473 0.2906 0.11007 0.0
C4205 C 0.31021 0.2971 0.12184 0.0
C4206 C 0.32696 0.3071 0.08305 0.0
C4207 C 0.29292 0.28066 0.11141 0.0
C4208 C 0.28463 0.2913 0.06688 0.0
C4209 C 0.28765 0.27887 0.06086 0.0
C4210 C 0.29188 0.29625 0.07844 0.0
C4211 C 0.30264 0.28871 0.08436 0.0
C4212 C 0.30601 0.27627 0.07823 0.0
C4213 C 0.29848 0.27148 0.06658 0.0
C4214 C 0.28781 0.30952 0.08448 0.0
C4215 C 0.31744 0.26792 0.08409 0.0
H4216 H 0.3342 0.31745 0.1076 0.0
H4217 H 0.30605 0.29452 0.13158 0.0
H4218 H 0.32894 0.29786 0.07715 0.0
H4219 H 0.31958 0.31317 0.07697 0.0
H4220 H 0.3366 0.31314 0.08434 0.0
H4221 H 0.29082 0.27827 0.12218 0.0
H4222 H 0.28365 0.28496 0.10652 0.0
H4223 H 0.29495 0.27108 0.1061 0.0
H4224 H 0.27638 0.29723 0.06263 0.0
H4225 H 0.30094 0.26189 0.0621 0.0
H4226 H 0.29663 0.31675 0.08495 0.0
H4227 H 0.28454 0.30782 0.09504 0.0
H4228 H 0.27937 0.31431 0.07856 0.0
H4229 H 0.32692 0.27422 0.08503 0.0
H4230 H 0.31935 0.25892 0.07778 0.0
H4231 H 0.31497 0.2644 0.09446 0.0
C4232 C 0.71721 0.32522 0.09513 0.0
C4233 C 0.72262 0.3224 0.10823 0.0
C4234 C 0.72152 0.31831 0.0836 0.0
C4235 C 0.73151 0.30823 0.08503 0.0
C4236 C 0.73704 0.30535 0.0982 0.0
C4237 C 0.73257 0.31242 0.10956 0.0
C4238 C 0.71532 0.3218 0.06982 0.0
C4239 C 0.74762 0.29465 0.10031 0.0
C4240 C 0.73258 0.28115 0.05741 0.0
C4241 C 0.74349 0.28568 0.04954 0.0
C4242 C 0.72868 0.2883 0.06893 0.0
C4243 C 0.7358 0.3004 0.07286 0.0
C4244 C 0.74693 0.30497 0.06509 0.0
C4245 C 0.75064 0.29758 0.05359 0.0
C4246 C 0.71685 0.28291 0.07688 0.0
C4247 C 0.75483 0.31779 0.06884 0.0
H4248 H 0.7097 0.33301 0.09385 0.0
H4249 H 0.73674 0.30995 0.11957 0.0
H4250 H 0.72342 0.32498 0.06284 0.0
H4251 H 0.71007 0.3127 0.06536 0.0
H4252 H 0.70788 0.33005 0.07031 0.0
H4253 H 0.75122 0.29383 0.1111 0.0
H4254 H 0.74336 0.28464 0.09702 0.0
H4255 H 0.7565 0.29701 0.09399 0.0
H4256 H 0.7271 0.27187 0.05466 0.0
H4257 H 0.759 0.30129 0.04762 0.0
H4258 H 0.70876 0.29054 0.07694 0.0
H4259 H 0.72017 0.28106 0.0876 0.0
H4260 H 0.71242 0.27331 0.07262 0.0
H4261 H 0.74795 0.32654 0.06847 0.0
H4262 H 0.76333 0.31992 0.06195 0.0
H4263 H 0.75905 0.317 0.0794 0.0
C4264 C 0.73346 0.30771 0.9139 0.0
C4265 C 0.72187 0.31559 0.91524 0.0
C4266 C 0.74047 0.3022 0.92534 0.0
C4267 C 0.73591 0.30462 0.93858 0.0
C4268 C 0.72411 0.31238 0.94001 0.0
C4269 C 0.71727 0.31772 0.9284 0.0
C4270 C 0.75296 0.294 0.92325 0.0
C4271 C 0.71881 0.31523 0.95386 0.0
C4272 C 0.74792 0.28174 0.96814 0.0
C4273 C 0.75851 0.2896 0.97431 0.0
C4274 C 0.74053 0.28645 0.95656 0.0
C4275 C 0.74369 0.29939 0.95093 0.0
C4276 C 0.75434 0.30737 0.95714 0.0
C4277 C 0.76159 0.3024 0.96866 0.0
C4278 C 0.72932 0.27754 0.95032 0.0
C4279 C 0.75809 0.32122 0.95159 0.0
H4280 H 0.73733 0.3061 0.9039 0.0
H4281 H 0.70824 0.32357 0.92967 0.0
H4282 H 0.762 0.29919 0.92808 0.0
H4283 H 0.75185 0.28391 0.92821 0.0
H4284 H 0.75488 0.2925 0.91233 0.0
H4285 H 0.70936 0.32116 0.9533 0.0
H4286 H 0.71671 0.30556 0.95932 0.0
H4287 H 0.72663 0.32098 0.96001 0.0
H4288 H 0.74542 0.27183 0.97233 0.0
H4289 H 0.76971 0.30862 0.97327 0.0
H4290 H 0.73152 0.27538 0.9396 0.0
H4291 H 0.71954 0.28289 0.95028 0.0
H4292 H 0.72808 0.26775 0.95585 0.0
H4293 H 0.76113 0.32037 0.9409 0.0
H4294 H 0.76657 0.32622 0.95756 0.0
H4295 H 0.74915 0.32784 0.95161 0.0
C4296 C 0.73062 0.7153 0.90598 0.0
C4297 C 0.71918 0.70641 0.9061 0.0
C4298 C 0.73579 0.72178 0.9179 0.0
C4299 C 0.72954 0.71934 0.93048 0.0
C4300 C 0.71842 0.70989 0.93082 0.0
C4301 C 0.71339 0.70362 0.91872 0.0
C4302 C 0.74761 0.73175 0.9169 0.0
C4303 C 0.71138 0.70688 0.9439 0.0
C4304 C 0.74672 0.73257 0.96395 0.0
C4305 C 0.73984 0.74469 0.96587 0.0
C4306 C 0.74355 0.72417 0.95254 0.0
C4307 C 0.73335 0.72798 0.94273 0.0
C4308 C 0.72656 0.74027 0.94461 0.0
C4309 C 0.72983 0.74835 0.95602 0.0
C4310 C 0.75102 0.71114 0.95103 0.0
C4311 C 0.71573 0.74497 0.93451 0.0
H4312 H 0.73547 0.71739 0.89647 0.0
H4313 H 0.70451 0.69694 0.91912 0.0
H4314 H 0.74407 0.74217 0.91863 0.0
H4315 H 0.75553 0.7296 0.92486 0.0
H4316 H 0.75229 0.73149 0.90681 0.0
H4317 H 0.7041 0.69811 0.94293 0.0
H4318 H 0.71894 0.70473 0.9522 0.0
H4319 H 0.7057 0.7159 0.94691 0.0
H4320 H 0.75444 0.72958 0.97141 0.0
H4321 H 0.72444 0.75769 0.95718 0.0
H4322 H 0.75615 0.71113 0.94119 0.0
H4323 H 0.74367 0.70241 0.95095 0.0
H4324 H 0.75875 0.70961 0.95936 0.0
H4325 H 0.71999 0.74598 0.92427 0.0
H4326 H 0.7115 0.75486 0.93731 0.0
H4327 H 0.70727 0.73733 0.9338 0.0
C4328 C 0.31818 0.72952 0.90824 0.0
C4329 C 0.32823 0.71969 0.91002 0.0
C4330 C 0.31226 0.73568 0.91943 0.0
C4331 C 0.31647 0.73209 0.93288 0.0
C4332 C 0.32643 0.72204 0.93477 0.0
C4333 C 0.3321 0.71596 0.92341 0.0
C4334 C 0.30164 0.74626 0.91685 0.0
C4335 C 0.33128 0.71783 0.94884 0.0
C4336 C 0.31198 0.75743 0.96166 0.0
C4337 C 0.30054 0.7521 0.96827 0.0
C4338 C 0.31718 0.75109 0.9502 0.0
C4339 C 0.31079 0.7391 0.94495 0.0
C4340 C 0.29914 0.73374 0.95139 0.0
C4341 C 0.29421 0.74023 0.96292 0.0
C4342 C 0.32962 0.75722 0.94376 0.0
C4343 C 0.29191 0.72104 0.94616 0.0
H4344 H 0.31515 0.7327 0.89806 0.0
H4345 H 0.33961 0.70823 0.92506 0.0
H4346 H 0.29229 0.74351 0.92232 0.0
H4347 H 0.30545 0.7562 0.92083 0.0
H4348 H 0.29893 0.74745 0.90588 0.0
H4349 H 0.33889 0.70972 0.94866 0.0
H4350 H 0.33592 0.72672 0.95427 0.0
H4351 H 0.32255 0.71415 0.95478 0.0
H4352 H 0.31694 0.76666 0.96537 0.0
H4353 H 0.28548 0.73581 0.96783 0.0
H4354 H 0.32727 0.75971 0.93295 0.0
H4355 H 0.33788 0.74976 0.94399 0.0
H4356 H 0.33342 0.76659 0.94898 0.0
H4357 H 0.2888 0.72239 0.93532 0.0
H4358 H 0.28274 0.71837 0.95198 0.0
H4359 H 0.29892 0.71241 0.94678 0.0
C4360 C 0.29873 0.30972 0.92535 0.0
C4361 C 0.31061 0.31798 0.92605 0.0
C4362 C 0.29267 0.30453 0.93714 0.0
C4363 C 0.29863 0.30747 0.95014 0.0
C4364 C 0.31079 0.31552 0.95094 0.0
C4365 C 0.31657 0.32069 0.93897 0.0
C4366 C 0.27973 0.29603 0.93569 0.0
C4367 C 0.3176 0.31886 0.96451 0.0
C4368 C 0.27583 0.30541 0.98093 0.0
C4369 C 0.27873 0.29259 0.98654 0.0
C4370 C 0.28224 0.31035 0.96922 0.0
C4371 C 0.29195 0.3024 0.96284 0.0
C4372 C 0.29506 0.28953 0.9685 0.0
C4373 C 0.28842 0.28479 0.98016 0.0
C4374 C 0.2785 0.32409 0.96359 0.0
C4375 C 0.30536 0.28069 0.96214 0.0
H4376 H 0.2941 0.30726 0.91551 0.0
H4377 H 0.32562 0.32716 0.93981 0.0
H4378 H 0.28116 0.28597 0.94057 0.0
H4379 H 0.27145 0.30101 0.94098 0.0
H4380 H 0.27644 0.29448 0.92491 0.0
H4381 H 0.32733 0.32467 0.96345 0.0
H4382 H 0.31072 0.32492 0.9706 0.0
H4383 H 0.31967 0.30939 0.9703 0.0
H4384 H 0.26856 0.3117 0.98573 0.0
H4385 H 0.29071 0.27481 0.98413 0.0
H4386 H 0.2744 0.32304 0.95301 0.0
H4387 H 0.2877 0.33082 0.96328 0.0
H4388 H 0.27081 0.32908 0.9697 0.0
H4389 H 0.30188 0.27802 0.95164 0.0
H4390 H 0.30703 0.27116 0.96798 0.0
H4391 H 0.31522 0.2863 0.96144 0.0
C4392 C 0.60512 0.72645 0.21474 0.0
C4393 C 0.6047 0.72063 0.20172 0.0
C4394 C 0.59371 0.73281 0.21993 0.0
C4395 C 0.58143 0.73346 0.21199 0.0
C4396 C 0.58087 0.72748 0.19892 0.0
C4397 C 0.59243 0.72118 0.19398 0.0
C4398 C 0.59484 0.73897 0.23391 0.0
C4399 C 0.56808 0.72791 0.19003 0.0
C4400 C 0.54796 0.74049 0.22934 0.0
C4401 C 0.54623 0.75441 0.22674 0.0
C4402 C 0.5593 0.73359 0.22468 0.0
C4403 C 0.56931 0.74068 0.21718 0.0
C4404 C 0.56766 0.75472 0.21455 0.0
C4405 C 0.55624 0.76136 0.21933 0.0
C4406 C 0.56054 0.71865 0.22773 0.0
C4407 C 0.57802 0.76277 0.20666 0.0
H4408 H 0.6144 0.72598 0.22096 0.0
H4409 H 0.59192 0.71698 0.18385 0.0
H4410 H 0.59307 0.75002 0.23322 0.0
H4411 H 0.58691 0.73446 0.24041 0.0
H4412 H 0.60497 0.73742 0.23895 0.0
H4413 H 0.56908 0.72241 0.18033 0.0
H4414 H 0.55939 0.72337 0.19548 0.0
H4415 H 0.5656 0.7386 0.18767 0.0
H4416 H 0.54033 0.73488 0.23489 0.0
H4417 H 0.55527 0.77211 0.21738 0.0
H4418 H 0.57028 0.71679 0.23336 0.0
H4419 H 0.56068 0.71289 0.2181 0.0
H4420 H 0.55205 0.71459 0.23383 0.0
H4421 H 0.58815 0.76229 0.21191 0.0
H4422 H 0.57531 0.77359 0.20542 0.0
H4423 H 0.57894 0.75831 0.19644 0.0
C4424 C 0.32792 0.5958 0.20943 0.0
C4425 C 0.32344 0.60884 0.21246 0.0
C4426 C 0.32335 0.58419 0.21656 0.0
C4427 C 0.31391 0.58548 0.22699 0.0
C4428 C 0.30909 0.59854 0.22991 0.0
C4429 C 0.31392 0.61 0.22269 0.0
C4430 C 0.32881 0.57053 0.21306 0.0
C4431 C 0.29896 0.60044 0.24084 0.0
C4432 C 0.2939 0.55363 0.23802 0.0
C4433 C 0.30103 0.54967 0.24998 0.0
C4434 C 0.29786 0.56526 0.23056 0.0
C4435 C 0.30934 0.57322 0.235 0.0
C4436 C 0.31659 0.56933 0.24704 0.0
C4437 C 0.31234 0.55772 0.25437 0.0
C4438 C 0.28976 0.56901 0.21785 0.0
C4439 C 0.32891 0.57743 0.25217 0.0
H4440 H 0.33505 0.59462 0.20142 0.0
H4441 H 0.31046 0.61995 0.22533 0.0
H4442 H 0.33419 0.56614 0.22208 0.0
H4443 H 0.32031 0.56342 0.21016 0.0
H4444 H 0.33597 0.57117 0.20459 0.0
H4445 H 0.29571 0.61111 0.2415 0.0
H4446 H 0.28983 0.59382 0.23888 0.0
H4447 H 0.3035 0.59739 0.25083 0.0
H4448 H 0.28527 0.54756 0.23431 0.0
H4449 H 0.3179 0.55505 0.26362 0.0
H4450 H 0.29635 0.56878 0.20895 0.0
H4451 H 0.28608 0.5795 0.21865 0.0
H4452 H 0.28087 0.56204 0.21592 0.0
H4453 H 0.33674 0.57777 0.24434 0.0
H4454 H 0.33348 0.57311 0.26167 0.0
H4455 H 0.3261 0.58805 0.25412 0.0
C4456 C 0.42709 0.30214 0.22379 0.0
C4457 C 0.42478 0.31617 0.22337 0.0
C4458 C 0.4395 0.2969 0.22891 0.0
C4459 C 0.45007 0.3058 0.23385 0.0
C4460 C 0.44771 0.31995 0.23379 0.0
C4461 C 0.4352 0.32494 0.22853 0.0
C4462 C 0.44145 0.28177 0.22857 0.0
C4463 C 0.45854 0.32988 0.23901 0.0
C4464 C 0.47961 0.28922 0.25423 0.0
C4465 C 0.48893 0.28706 0.24405 0.0
C4466 C 0.46715 0.29577 0.25126 0.0
C4467 C 0.46392 0.30034 0.23781 0.0
C4468 C 0.47369 0.2988 0.22775 0.0
C4469 C 0.48592 0.29218 0.23096 0.0
C4470 C 0.45713 0.29715 0.26236 0.0
C4471 C 0.47095 0.30352 0.21332 0.0
H4472 H 0.41931 0.29519 0.2197 0.0
H4473 H 0.43359 0.33577 0.22848 0.0
H4474 H 0.44956 0.27945 0.22146 0.0
H4475 H 0.44481 0.27803 0.23876 0.0
H4476 H 0.43201 0.27611 0.2253 0.0
H4477 H 0.45481 0.34041 0.23936 0.0
H4478 H 0.4622 0.32686 0.24935 0.0
H4479 H 0.46739 0.32976 0.23235 0.0
H4480 H 0.48167 0.28511 0.26431 0.0
H4481 H 0.49301 0.29055 0.22298 0.0
H4482 H 0.44823 0.29023 0.26031 0.0
H4483 H 0.4533 0.30763 0.26255 0.0
H4484 H 0.46166 0.29463 0.27252 0.0
H4485 H 0.46236 0.29744 0.20869 0.0
H4486 H 0.47994 0.30251 0.20693 0.0
H4487 H 0.46793 0.31428 0.21315 0.0
C4488 C 0.70496 0.43753 0.21516 0.0
C4489 C 0.71249 0.42559 0.21476 0.0
C4490 C 0.71038 0.44954 0.22118 0.0
C4491 C 0.72381 0.44985 0.2269 0.0
C4492 C 0.73142 0.43782 0.22672 0.0
C4493 C 0.7257 0.4259 0.22072 0.0
C4494 C 0.70185 0.46204 0.22106 0.0
C4495 C 0.74578 0.43761 0.23259 0.0
C4496 C 0.74412 0.48336 0.22691 0.0
C4497 C 0.74427 0.48737 0.24059 0.0
C4498 C 0.73736 0.47141 0.2224 0.0
C4499 C 0.73038 0.46304 0.23173 0.0
C4500 C 0.73003 0.46723 0.2455 0.0
C4501 C 0.73697 0.47934 0.24978 0.0
C4502 C 0.73804 0.46755 0.20763 0.0
C4503 C 0.72263 0.4587 0.25579 0.0
H4504 H 0.69484 0.43764 0.21047 0.0
H4505 H 0.73161 0.41679 0.22078 0.0
H4506 H 0.70174 0.46644 0.23139 0.0
H4507 H 0.70635 0.46985 0.21429 0.0
H4508 H 0.69119 0.45986 0.21747 0.0
H4509 H 0.75008 0.4273 0.23247 0.0
H4510 H 0.75239 0.44456 0.22667 0.0
H4511 H 0.7461 0.4413 0.24321 0.0
H4512 H 0.74961 0.48948 0.21962 0.0
H4513 H 0.73707 0.48223 0.26037 0.0
H4514 H 0.72764 0.46611 0.20308 0.0
H4515 H 0.74327 0.45777 0.20678 0.0
H4516 H 0.74356 0.47533 0.20157 0.0
H4517 H 0.71201 0.45657 0.25215 0.0
H4518 H 0.72249 0.46371 0.26585 0.0
H4519 H 0.72764 0.4488 0.25708 0.0
C4520 C 0.61025 0.30193 0.80454 0.0
C4521 C 0.61187 0.31495 0.81023 0.0
C4522 C 0.59777 0.29735 0.79849 0.0
C4523 C 0.58645 0.30598 0.79788 0.0
C4524 C 0.58819 0.31939 0.80291 0.0
C4525 C 0.60078 0.32368 0.80904 0.0
C4526 C 0.59653 0.28298 0.79333 0.0
C4527 C 0.57653 0.32904 0.80238 0.0
C4528 C 0.55533 0.2936 0.77596 0.0
C4529 C 0.54748 0.28684 0.78567 0.0
C4530 C 0.56779 0.30036 0.77977 0.0
C4531 C 0.57254 0.30036 0.79358 0.0
C4532 C 0.56427 0.29409 0.80342 0.0
C4533 C 0.55197 0.2875 0.79937 0.0
C4534 C 0.57614 0.307 0.76892 0.0
C4535 C 0.56871 0.29377 0.81826 0.0
H4536 H 0.61874 0.29514 0.80498 0.0
H4537 H 0.60172 0.33373 0.81339 0.0
H4538 H 0.58947 0.27699 0.79972 0.0
H4539 H 0.59219 0.28285 0.78279 0.0
H4540 H 0.60648 0.27788 0.79351 0.0
H4541 H 0.57992 0.33959 0.80488 0.0
H4542 H 0.57145 0.329 0.79215 0.0
H4543 H 0.56884 0.3257 0.80975 0.0
H4544 H 0.55206 0.29311 0.76535 0.0
H4545 H 0.54599 0.28244 0.80703 0.0
H4546 H 0.58538 0.30105 0.76745 0.0
H4547 H 0.57957 0.31735 0.77208 0.0
H4548 H 0.57039 0.30769 0.75905 0.0
H4549 H 0.57812 0.28787 0.81957 0.0
H4550 H 0.56083 0.28912 0.82475 0.0
H4551 H 0.5711 0.3042 0.82192 0.0
C4552 C 0.73114 0.60473 0.79174 0.0
C4553 C 0.71972 0.60398 0.79996 0.0
C4554 C 0.73652 0.59306 0.78594 0.0
C4555 C 0.73032 0.58012 0.78816 0.0
C4556 C 0.71834 0.57935 0.79577 0.0
C4557 C 0.71325 0.59119 0.8016 0.0
C4558 C 0.74931 0.59451 0.77799 0.0
C4559 C 0.71125 0.56589 0.79836 0.0
C4560 C 0.74294 0.54984 0.76769 0.0
C4561 C 0.75264 0.54434 0.77683 0.0
C4562 C 0.7353 0.56125 0.77126 0.0
C4563 C 0.73745 0.5674 0.78423 0.0
C4564 C 0.74699 0.56163 0.79352 0.0
C4565 C 0.75431 0.55028 0.78977 0.0
C4566 C 0.72514 0.56693 0.76107 0.0
C4567 C 0.74977 0.56768 0.80743 0.0
H4568 H 0.7361 0.61449 0.79001 0.0
H4569 H 0.70449 0.59028 0.80793 0.0
H4570 H 0.75784 0.58971 0.78374 0.0
H4571 H 0.74802 0.58919 0.76813 0.0
H4572 H 0.75218 0.6053 0.77601 0.0
H4573 H 0.70106 0.56712 0.80263 0.0
H4574 H 0.71006 0.55999 0.78882 0.0
H4575 H 0.71751 0.55985 0.80564 0.0
H4576 H 0.74151 0.54543 0.75769 0.0
H4577 H 0.76164 0.54618 0.79706 0.0
H4578 H 0.72862 0.57719 0.75779 0.0
H4579 H 0.71516 0.56803 0.76578 0.0
H4580 H 0.72375 0.56041 0.75195 0.0
H4581 H 0.7537 0.57827 0.80639 0.0
H4582 H 0.75731 0.56185 0.8136 0.0
H4583 H 0.74022 0.56801 0.81305 0.0
C4584 C 0.42789 0.72385 0.79507 0.0
C4585 C 0.42686 0.72118 0.80904 0.0
C4586 C 0.43967 0.73004 0.78975 0.0
C4587 C 0.45087 0.73372 0.79853 0.0
C4588 C 0.44977 0.73144 0.81269 0.0
C4589 C 0.43785 0.72521 0.81774 0.0
C4590 C 0.4403 0.73217 0.77459 0.0
C4591 C 0.46135 0.73521 0.82248 0.0
C4592 C 0.48536 0.73351 0.78197 0.0
C4593 C 0.48788 0.74727 0.77892 0.0
C4594 C 0.47373 0.72911 0.78882 0.0
C4595 C 0.4641 0.73866 0.79271 0.0
C4596 C 0.46686 0.75267 0.79021 0.0
C4597 C 0.47873 0.75682 0.78339 0.0
C4598 C 0.47144 0.71411 0.79132 0.0
C4599 C 0.45693 0.76323 0.79415 0.0
H4600 H 0.41965 0.72066 0.78814 0.0
H4601 H 0.4372 0.72345 0.82857 0.0
H4602 H 0.44335 0.74283 0.77228 0.0
H4603 H 0.44812 0.72558 0.77048 0.0
H4604 H 0.43042 0.72981 0.76923 0.0
H4605 H 0.45853 0.73392 0.83324 0.0
H4606 H 0.47017 0.72875 0.82065 0.0
H4607 H 0.46472 0.7459 0.82082 0.0
H4608 H 0.49237 0.72602 0.77861 0.0
H4609 H 0.48046 0.76745 0.78095 0.0
H4610 H 0.46238 0.71043 0.78527 0.0
H4611 H 0.46939 0.71218 0.80217 0.0
H4612 H 0.4803 0.70808 0.78854 0.0
H4613 H 0.44749 0.76213 0.78773 0.0
H4614 H 0.46113 0.77371 0.79289 0.0
H4615 H 0.45407 0.76175 0.80486 0.0
C4616 C 0.30489 0.41904 0.82771 0.0
C4617 C 0.31881 0.41746 0.82551 0.0
C4618 C 0.29805 0.43084 0.82338 0.0
C4619 C 0.30524 0.44148 0.81671 0.0
C4620 C 0.31929 0.43998 0.81455 0.0
C4621 C 0.32585 0.42809 0.81894 0.0
C4622 C 0.28309 0.43191 0.8259 0.0
C4623 C 0.32745 0.45102 0.80762 0.0
C4624 C 0.28598 0.46761 0.79477 0.0
C4625 C 0.28554 0.47881 0.8035 0.0
C4626 C 0.29216 0.45541 0.79895 0.0
C4627 C 0.29818 0.45426 0.81221 0.0
C4628 C 0.29773 0.46549 0.82107 0.0
C4629 C 0.29146 0.47753 0.81665 0.0
C4630 C 0.29231 0.44375 0.78914 0.0
C4631 C 0.30405 0.46485 0.83524 0.0
H4632 H 0.29925 0.41092 0.83261 0.0
H4633 H 0.33663 0.42719 0.81735 0.0
H4634 H 0.28135 0.44093 0.8322 0.0
H4635 H 0.27734 0.4333 0.81612 0.0
H4636 H 0.2789 0.42278 0.83112 0.0
H4637 H 0.33825 0.44831 0.80657 0.0
H4638 H 0.32293 0.45309 0.79737 0.0
H4639 H 0.32714 0.46056 0.81348 0.0
H4640 H 0.28136 0.46833 0.78466 0.0
H4641 H 0.29144 0.48607 0.82348 0.0
H4642 H 0.28742 0.4346 0.79366 0.0
H4643 H 0.30296 0.44119 0.78712 0.0
H4644 H 0.28695 0.44608 0.77932 0.0
H4645 H 0.29954 0.4562 0.84093 0.0
H4646 H 0.30262 0.47431 0.84102 0.0
H4647 H 0.31511 0.4631 0.83473 0.0
C4648 C 0.70592 0.60322 0.2016 0.0
C4649 C 0.71116 0.61664 0.20214 0.0
C4650 C 0.71372 0.5921 0.20605 0.0
C4651 C 0.72726 0.59426 0.21115 0.0
C4652 C 0.73271 0.60773 0.21155 0.0
C4653 C 0.72464 0.61868 0.2071 0.0
C4654 C 0.70742 0.578 0.20536 0.0
C4655 C 0.74706 0.61059 0.21684 0.0
C4656 C 0.74315 0.56697 0.23435 0.0
C4657 C 0.75116 0.55978 0.22543 0.0
C4658 C 0.73543 0.57815 0.22988 0.0
C4659 C 0.73564 0.58245 0.21611 0.0
C4660 C 0.74373 0.57531 0.20706 0.0
C4661 C 0.75131 0.56413 0.21178 0.0
C4662 C 0.72698 0.58537 0.23994 0.0
C4663 C 0.74434 0.57945 0.19232 0.0
H4664 H 0.69566 0.60134 0.1976 0.0
H4665 H 0.72885 0.62892 0.20779 0.0
H4666 H 0.71354 0.57146 0.19896 0.0
H4667 H 0.70742 0.57338 0.21567 0.0
H4668 H 0.6968 0.57795 0.20115 0.0
H4669 H 0.74996 0.62154 0.21621 0.0
H4670 H 0.74815 0.60725 0.22759 0.0
H4671 H 0.75431 0.60475 0.21097 0.0
H4672 H 0.74299 0.56399 0.24493 0.0
H4673 H 0.75723 0.55869 0.20466 0.0
H4674 H 0.71612 0.58498 0.2365 0.0
H4675 H 0.73019 0.59622 0.2405 0.0
H4676 H 0.72788 0.58085 0.25028 0.0
H4677 H 0.73403 0.57864 0.18741 0.0
H4678 H 0.7513 0.57309 0.18661 0.0
H4679 H 0.7478 0.59021 0.1915 0.0
C4680 C 0.72082 0.42532 0.82206 0.0
C4681 C 0.72229 0.41288 0.81546 0.0
C4682 C 0.72832 0.43707 0.81829 0.0
C4683 C 0.73758 0.43648 0.80761 0.0
C4684 C 0.73926 0.42393 0.80103 0.0
C4685 C 0.73165 0.41234 0.80502 0.0
C4686 C 0.72617 0.45019 0.82561 0.0
C4687 C 0.74903 0.42274 0.78966 0.0
C4688 C 0.74736 0.46919 0.78867 0.0
C4689 C 0.76024 0.47258 0.79451 0.0
C4690 C 0.73991 0.45757 0.79285 0.0
C4691 C 0.74537 0.44901 0.80319 0.0
C4692 C 0.75832 0.45238 0.80918 0.0
C4693 C 0.76556 0.46405 0.80479 0.0
C4694 C 0.72616 0.45446 0.78617 0.0
C4695 C 0.76458 0.44358 0.82019 0.0
H4696 H 0.71354 0.426 0.83001 0.0
H4697 H 0.7331 0.4028 0.79996 0.0
H4698 H 0.73599 0.45422 0.82996 0.0
H4699 H 0.72223 0.4579 0.81833 0.0
H4700 H 0.71889 0.44893 0.83393 0.0
H4701 H 0.74933 0.41225 0.78567 0.0
H4702 H 0.74605 0.42965 0.78118 0.0
H4703 H 0.75943 0.42591 0.79325 0.0
H4704 H 0.74298 0.47571 0.78089 0.0
H4705 H 0.77552 0.46636 0.80931 0.0
H4706 H 0.71826 0.45407 0.79393 0.0
H4707 H 0.72616 0.44433 0.78133 0.0
H4708 H 0.72329 0.46211 0.77832 0.0
H4709 H 0.7577 0.4427 0.82886 0.0
H4710 H 0.77463 0.44765 0.82399 0.0
H4711 H 0.76591 0.43319 0.81629 0.0
C4712 C 0.61807 0.71289 0.78824 0.0
C4713 C 0.61747 0.70269 0.7983 0.0
C4714 C 0.60619 0.71846 0.78228 0.0
C4715 C 0.5932 0.71392 0.78648 0.0
C4716 C 0.59248 0.7039 0.79686 0.0
C4717 C 0.60454 0.69841 0.80258 0.0
C4718 C 0.60755 0.72909 0.77128 0.0
C4719 C 0.57893 0.69878 0.80177 0.0
C4720 C 0.5627 0.73639 0.77762 0.0
C4721 C 0.55693 0.73015 0.76589 0.0
C4722 C 0.57428 0.73113 0.78453 0.0
C4723 C 0.58042 0.71932 0.77966 0.0
C4724 C 0.57452 0.71286 0.76799 0.0
C4725 C 0.56292 0.71828 0.76133 0.0
C4726 C 0.5801 0.73837 0.79695 0.0
C4727 C 0.58062 0.70028 0.76236 0.0
H4728 H 0.62789 0.71656 0.78496 0.0
H4729 H 0.60378 0.69046 0.81018 0.0
H4730 H 0.60257 0.72535 0.7617 0.0
H4731 H 0.60231 0.73842 0.77413 0.0
H4732 H 0.61834 0.73178 0.76932 0.0
H4733 H 0.58004 0.69155 0.81042 0.0
H4734 H 0.5728 0.7074 0.80498 0.0
H4735 H 0.57314 0.6936 0.79336 0.0
H4736 H 0.55839 0.74561 0.78127 0.0
H4737 H 0.55855 0.71316 0.75247 0.0
H4738 H 0.59052 0.74228 0.795 0.0
H4739 H 0.58091 0.73119 0.80565 0.0
H4740 H 0.57382 0.74701 0.79988 0.0
H4741 H 0.59121 0.70256 0.75939 0.0
H4742 H 0.57474 0.69627 0.75337 0.0
H4743 H 0.58108 0.69222 0.77027 0.0
C4744 C 0.33395 0.60701 0.79945 0.0
C4745 C 0.32595 0.61362 0.80881 0.0
C4746 C 0.329 0.59537 0.79234 0.0
C4747 C 0.31564 0.59018 0.79444 0.0
C4748 C 0.30751 0.59685 0.8038 0.0
C4749 C 0.31274 0.60837 0.81084 0.0
C4750 C 0.3381 0.5886 0.78257 0.0
C4751 C 0.29317 0.59191 0.80629 0.0
C4752 C 0.29636 0.56885 0.76728 0.0
C4753 C 0.29668 0.55565 0.77281 0.0
C4754 C 0.30279 0.58 0.77397 0.0
C4755 C 0.30991 0.57809 0.78657 0.0
C4756 C 0.31077 0.56472 0.79196 0.0
C4757 C 0.30414 0.55371 0.78508 0.0
C4758 C 0.30146 0.59398 0.76778 0.0
C4759 C 0.31833 0.56209 0.80526 0.0
H4760 H 0.34419 0.61082 0.79784 0.0
H4761 H 0.30634 0.61343 0.81784 0.0
H4762 H 0.33933 0.5778 0.7855 0.0
H4763 H 0.33337 0.58876 0.77219 0.0
H4764 H 0.34832 0.59361 0.78228 0.0
H4765 H 0.28819 0.59808 0.814 0.0
H4766 H 0.28696 0.59227 0.79668 0.0
H4767 H 0.29318 0.5812 0.80979 0.0
H4768 H 0.29066 0.5706 0.75785 0.0
H4769 H 0.30448 0.54364 0.78954 0.0
H4770 H 0.31164 0.59892 0.76686 0.0
H4771 H 0.29556 0.60041 0.77451 0.0
H4772 H 0.29629 0.59373 0.75758 0.0
H4773 H 0.32873 0.56669 0.8051 0.0
H4774 H 0.31911 0.55108 0.80755 0.0
H4775 H 0.31302 0.56694 0.81363 0.0
C4776 C 0.43042 0.31353 0.83392 0.0
C4777 C 0.41696 0.31018 0.82959 0.0
C4778 C 0.44169 0.30727 0.82834 0.0
C4779 C 0.43966 0.29739 0.81802 0.0
C4780 C 0.42616 0.29417 0.81337 0.0
C4781 C 0.41505 0.30053 0.81919 0.0
C4782 C 0.45583 0.3111 0.83366 0.0
C4783 C 0.4234 0.28378 0.80238 0.0
C4784 C 0.46997 0.28862 0.79631 0.0
C4785 C 0.47463 0.27657 0.80243 0.0
C4786 C 0.4586 0.2954 0.80114 0.0
C4787 C 0.45161 0.29013 0.81246 0.0
C4788 C 0.45618 0.27795 0.81862 0.0
C4789 C 0.46749 0.27135 0.81355 0.0
C4790 C 0.45413 0.30829 0.79416 0.0
C4791 C 0.44914 0.27189 0.8307 0.0
H4792 H 0.4322 0.32111 0.84172 0.0
H4793 H 0.4048 0.29763 0.8158 0.0
H4794 H 0.46076 0.30205 0.83819 0.0
H4795 H 0.46217 0.3147 0.82521 0.0
H4796 H 0.45579 0.31916 0.84148 0.0
H4797 H 0.41244 0.28288 0.79935 0.0
H4798 H 0.42924 0.2865 0.79328 0.0
H4799 H 0.42687 0.27371 0.80597 0.0
H4800 H 0.4753 0.29294 0.78783 0.0
H4801 H 0.47067 0.26199 0.81832 0.0
H4802 H 0.45492 0.31684 0.80143 0.0
H4803 H 0.4433 0.30725 0.79071 0.0
H4804 H 0.46033 0.3109 0.78526 0.0
H4805 H 0.44948 0.27927 0.83915 0.0
H4806 H 0.45385 0.26236 0.83436 0.0
H4807 H 0.43827 0.2697 0.828 0.0
C4808 C 0.30189 0.41434 0.22283 0.0
C4809 C 0.31423 0.41564 0.21606 0.0
C4810 C 0.29519 0.42576 0.22773 0.0
C4811 C 0.30083 0.439 0.22587 0.0
C4812 C 0.31295 0.44046 0.21853 0.0
C4813 C 0.31947 0.42886 0.21378 0.0
C4814 C 0.28234 0.42356 0.23545 0.0
C4815 C 0.31945 0.45427 0.21626 0.0
C4816 C 0.28038 0.47085 0.23412 0.0
C4817 C 0.28554 0.47407 0.24722 0.0
C4818 C 0.28511 0.45946 0.22702 0.0
C4819 C 0.29519 0.45103 0.23314 0.0
C4820 C 0.30016 0.45415 0.24643 0.0
C4821 C 0.29534 0.46549 0.25319 0.0
C4822 C 0.27949 0.45656 0.21289 0.0
C4823 C 0.31078 0.44557 0.25355 0.0
H4824 H 0.29748 0.40431 0.22448 0.0
H4825 H 0.32901 0.43019 0.20873 0.0
H4826 H 0.28437 0.42605 0.24631 0.0
H4827 H 0.27433 0.43042 0.23153 0.0
H4828 H 0.2784 0.41292 0.23479 0.0
H4829 H 0.32786 0.45395 0.20905 0.0
H4830 H 0.31178 0.46147 0.21229 0.0
H4831 H 0.3236 0.45832 0.22608 0.0
H4832 H 0.27285 0.47732 0.22934 0.0
H4833 H 0.29941 0.46763 0.26333 0.0
H4834 H 0.27522 0.44605 0.21236 0.0
H4835 H 0.2878 0.45731 0.20558 0.0
H4836 H 0.27143 0.4637 0.20966 0.0
H4837 H 0.30703 0.43489 0.25423 0.0
H4838 H 0.31347 0.4492 0.26397 0.0
H4839 H 0.32016 0.44564 0.24762 0.0
C4840 C 0.61991 0.29858 0.20189 0.0
C4841 C 0.62072 0.3128 0.20067 0.0
C4842 C 0.60816 0.29184 0.20658 0.0
C4843 C 0.59679 0.29942 0.21017 0.0
C4844 C 0.59755 0.31376 0.20907 0.0
C4845 C 0.60944 0.32025 0.20435 0.0
C4846 C 0.60784 0.27655 0.20752 0.0
C4847 C 0.58574 0.32228 0.21282 0.0
C4848 C 0.5619 0.2813 0.2096 0.0
C4849 C 0.56009 0.27827 0.22339 0.0
C4850 C 0.57367 0.28823 0.2052 0.0
C4851 C 0.58404 0.2923 0.21479 0.0
C4852 C 0.58226 0.28936 0.22874 0.0
C4853 C 0.57037 0.28243 0.23286 0.0
C4854 C 0.57504 0.29116 0.19025 0.0
C4855 C 0.59303 0.29343 0.23932 0.0
H4856 H 0.6284 0.29264 0.19889 0.0
H4857 H 0.60994 0.33122 0.20363 0.0
H4858 H 0.60555 0.27324 0.21799 0.0
H4859 H 0.59961 0.27233 0.20067 0.0
H4860 H 0.61762 0.27213 0.20472 0.0
H4861 H 0.58796 0.33332 0.21161 0.0
H4862 H 0.57664 0.31952 0.20636 0.0
H4863 H 0.58312 0.32023 0.22351 0.0
H4864 H 0.55402 0.27837 0.20218 0.0
H4865 H 0.56924 0.28005 0.2435 0.0
H4866 H 0.58423 0.28628 0.18654 0.0
H4867 H 0.57637 0.30224 0.18855 0.0
H4868 H 0.56606 0.28746 0.18408 0.0
H4869 H 0.60269 0.28841 0.23725 0.0
H4870 H 0.59003 0.29069 0.24978 0.0
H4871 H 0.59506 0.30454 0.23884 0.0
C4872 C 0.42208 0.70392 0.21771 0.0
C4873 C 0.41489 0.71303 0.20927 0.0
C4874 C 0.43329 0.7083 0.22608 0.0
C4875 C 0.4375 0.72218 0.22614 0.0
C4876 C 0.43027 0.73142 0.21767 0.0
C4877 C 0.41914 0.72676 0.20941 0.0
C4878 C 0.44065 0.69807 0.23489 0.0
C4879 C 0.43423 0.74631 0.21741 0.0
C4880 C 0.45737 0.73797 0.25645 0.0
C4881 C 0.47063 0.73941 0.25165 0.0
C4882 C 0.44668 0.73197 0.24849 0.0
C4883 C 0.44916 0.72721 0.23529 0.0
C4884 C 0.46263 0.72809 0.23059 0.0
C4885 C 0.47317 0.73415 0.23879 0.0
C4886 C 0.43257 0.73125 0.25403 0.0
C4887 C 0.46582 0.72313 0.21664 0.0
H4888 H 0.41908 0.69327 0.21764 0.0
H4889 H 0.4136 0.734 0.20317 0.0
H4890 H 0.45155 0.69804 0.2324 0.0
H4891 H 0.44015 0.70092 0.24573 0.0
H4892 H 0.43629 0.68764 0.2336 0.0
H4893 H 0.4278 0.75216 0.21009 0.0
H4894 H 0.43331 0.75068 0.22767 0.0
H4895 H 0.44501 0.74763 0.21464 0.0
H4896 H 0.45519 0.74195 0.26635 0.0
H4897 H 0.48329 0.73522 0.23488 0.0
H4898 H 0.42827 0.72077 0.25324 0.0
H4899 H 0.42577 0.73791 0.2479 0.0
H4900 H 0.43246 0.73447 0.2648 0.0
H4901 H 0.46189 0.71257 0.21519 0.0
H4902 H 0.47691 0.72345 0.21488 0.0
H4903 H 0.46066 0.72953 0.20882 0.0
loop_
_geom_bond_atom_site_label_1
_geom_bond_atom_site_label_2
_geom_bond_distance
_geom_bond_site_symmetry_2
_ccdc_geom_bond_type
C0 C1 1.264 . S
C0 C5 1.479 . S
C0 C10 1.465 . S
C1 C0 1.264 . S
C1 C3 1.339 . S
C1 H28 0.931 . S
C2 C3 1.395 . S
C2 C4 1.320 . S
C3 C1 1.339 . S
C3 C2 1.395 . S
C3 H29 0.929 . S
C4 C2 1.320 . S
C4 C5 1.405 . S
C4 H30 0.930 . S
C5 C0 1.479 . S
C5 C4 1.405 . S
C5 H31 0.931 . S
U6 O7 2.454 . S
U6 O8 2.458 . S
U6 C9 2.984 . S
U6 C10 2.847 . S
U6 C23 2.882 . S
U6 O24 2.441 . S
U6 O25 2.420 . S
U6 O26 2.455 . S
U6 O27 2.449 . S
O7 U6 2.454 . S
O7 C9 1.353 . S
O8 U6 2.458 . S
O8 C9 1.286 . S
C9 U6 2.984 . S
C9 O7 1.353 . S
C9 O8 1.286 . S
C9 C11 1.363 . S
C10 C0 1.465 . S
C10 U6 2.847 . S
C10 O24 1.249 . S
C10 O25 1.202 . S
C11 C9 1.363 . S
C11 C13 1.408 . S
C11 C16 1.342 . S
C12 C13 1.310 . S
C12 C15 1.461 . S
C12 H32 0.932 . S
C13 C11 1.408 . S
C13 C12 1.310 . S
C13 H33 0.930 . S
C14 C15 1.474 . S
C14 C16 1.285 . S
C14 H34 0.929 . S
C15 C12 1.461 . S
C15 C14 1.474 . S
C16 C11 1.342 . S
C16 C14 1.285 . S
C16 H35 0.930 . S
C17 C20 1.424 . S
C17 C22 1.245 . S
C17 C23 1.428 . S
C18 C21 1.260 . S
C18 C22 1.477 . S
C18 H36 0.932 . S
C19 C20 1.384 . S
C19 C21 1.479 . S
C19 H37 0.929 . S
C20 C17 1.424 . S
C20 C19 1.384 . S
C20 H38 0.928 . S
C21 C18 1.260 . S
C21 C19 1.479 . S
C22 C17 1.245 . S
C22 C18 1.477 . S
C22 H39 0.932 . S
C23 U6 2.882 . S
C23 C17 1.428 . S
C23 O26 1.301 . S
C23 O27 1.282 . S
O24 U6 2.441 . S
O24 C10 1.249 . S
O25 U6 2.420 . S
O25 C10 1.202 . S
O26 U6 2.455 . S
O26 C23 1.301 . S
O27 U6 2.449 . S
O27 C23 1.282 . S
H28 C1 0.931 . S
H29 C3 0.929 . S
H30 C4 0.930 . S
H31 C5 0.931 . S
H32 C12 0.932 . S
H33 C13 0.930 . S
H34 C14 0.929 . S
H35 C16 0.930 . S
H36 C18 0.932 . S
H37 C19 0.929 . S
H38 C20 0.928 . S
H39 C22 0.932 . S
C40 C41 1.264 . S
C40 C45 1.479 . S
C40 C50 1.465 . S
C41 C40 1.264 . S
C41 C43 1.339 . S
C41 H68 0.931 . S
C42 C43 1.395 . S
C42 C44 1.320 . S
C43 C41 1.339 . S
C43 C42 1.395 . S
C43 H69 0.929 . S
C44 C42 1.320 . S
C44 C45 1.405 . S
C44 H70 0.930 . S
C45 C40 1.479 . S
C45 C44 1.405 . S
C45 H71 0.931 . S
U46 O47 2.454 . S
U46 O48 2.458 . S
U46 C49 2.984 . S
U46 C50 2.847 . S
U46 C63 2.882 . S
U46 O64 2.441 . S
U46 O65 2.420 . S
U46 O66 2.455 . S
U46 O67 2.449 . S
O47 U46 2.454 . S
O47 C49 1.353 . S
O48 U46 2.458 . S
O48 C49 1.286 . S
C49 U46 2.984 . S
C49 O47 1.353 . S
C49 O48 1.286 . S
C49 C51 1.363 . S
C50 C40 1.465 . S
C50 U46 2.847 . S
C50 O64 1.249 . S
C50 O65 1.202 . S
C51 C49 1.363 . S
C51 C53 1.408 . S
C51 C56 1.342 . S
C52 C53 1.310 . S
C52 C55 1.461 . S
C52 H72 0.932 . S
C53 C51 1.408 . S
C53 C52 1.310 . S
C53 H73 0.930 . S
C54 C55 1.474 . S
C54 C56 1.285 . S
C54 H74 0.929 . S
C55 C52 1.461 . S
C55 C54 1.474 . S
C56 C51 1.342 . S
C56 C54 1.285 . S
C56 H75 0.930 . S
C57 C60 1.424 . S
C57 C62 1.245 . S
C57 C63 1.428 . S
C58 C61 1.260 . S
C58 C62 1.477 . S
C58 H76 0.932 . S
C59 C60 1.384 . S
C59 C61 1.479 . S
C59 H77 0.929 . S
C60 C57 1.424 . S
C60 C59 1.384 . S
C60 H78 0.928 . S
C61 C58 1.260 . S
C61 C59 1.479 . S
C62 C57 1.245 . S
C62 C58 1.477 . S
C62 H79 0.932 . S
C63 U46 2.882 . S
C63 C57 1.428 . S
C63 O66 1.301 . S
C63 O67 1.282 . S
O64 U46 2.441 . S
O64 C50 1.249 . S
O65 U46 2.420 . S
O65 C50 1.202 . S
O66 U46 2.455 . S
O66 C63 1.301 . S
O67 U46 2.449 . S
O67 C63 1.282 . S
H68 C41 0.931 . S
H69 C43 0.929 . S
H70 C44 0.930 . S
H71 C45 0.931 . S
H72 C52 0.932 . S
H73 C53 0.930 . S
H74 C54 0.929 . S
H75 C56 0.930 . S
H76 C58 0.932 . S
H77 C59 0.929 . S
H78 C60 0.928 . S
H79 C62 0.932 . S
C80 C81 1.264 . S
C80 C85 1.479 . S
C80 C90 1.465 . S
C81 C80 1.264 . S
C81 C83 1.339 . S
C81 H108 0.931 . S
C82 C83 1.395 . S
C82 C84 1.320 . S
C83 C81 1.339 . S
C83 C82 1.395 . S
C83 H109 0.929 . S
C84 C82 1.320 . S
C84 C85 1.405 . S
C84 H110 0.930 . S
C85 C80 1.479 . S
C85 C84 1.405 . S
C85 H111 0.931 . S
U86 O87 2.454 . S
U86 O88 2.458 . S
U86 C89 2.984 . S
U86 C90 2.847 . S
U86 C103 2.882 . S
U86 O104 2.441 . S
U86 O105 2.420 . S
U86 O106 2.455 . S
U86 O107 2.449 . S
O87 U86 2.454 . S
O87 C89 1.353 . S
O88 U86 2.458 . S
O88 C89 1.286 . S
C89 U86 2.984 . S
C89 O87 1.353 . S
C89 O88 1.286 . S
C89 C91 1.363 . S
C90 C80 1.465 . S
C90 U86 2.847 . S
C90 O104 1.249 . S
C90 O105 1.202 . S
C91 C89 1.363 . S
C91 C93 1.408 . S
C91 C96 1.342 . S
C92 C93 1.310 . S
C92 C95 1.461 . S
C92 H112 0.932 . S
C93 C91 1.408 . S
C93 C92 1.310 . S
C93 H113 0.930 . S
C94 C95 1.474 . S
C94 C96 1.285 . S
C94 H114 0.929 . S
C95 C92 1.461 . S
C95 C94 1.474 . S
C96 C91 1.342 . S
C96 C94 1.285 . S
C96 H115 0.930 . S
C97 C100 1.424 . S
C97 C102 1.245 . S
C97 C103 1.428 . S
C98 C101 1.260 . S
C98 C102 1.477 . S
C98 H116 0.932 . S
C99 C100 1.384 . S
C99 C101 1.479 . S
C99 H117 0.929 . S
C100 C97 1.424 . S
C100 C99 1.384 . S
C100 H118 0.928 . S
C101 C98 1.260 . S
C101 C99 1.479 . S
C102 C97 1.245 . S
C102 C98 1.477 . S
C102 H119 0.932 . S
C103 U86 2.882 . S
C103 C97 1.428 . S
C103 O106 1.301 . S
C103 O107 1.282 . S
O104 U86 2.441 . S
O104 C90 1.249 . S
O105 U86 2.420 . S
O105 C90 1.202 . S
O106 U86 2.455 . S
O106 C103 1.301 . S
O107 U86 2.449 . S
O107 C103 1.282 . S
H108 C81 0.931 . S
H109 C83 0.929 . S
H110 C84 0.930 . S
H111 C85 0.931 . S
H112 C92 0.932 . S
H113 C93 0.930 . S
H114 C94 0.929 . S
H115 C96 0.930 . S
H116 C98 0.932 . S
H117 C99 0.929 . S
H118 C100 0.928 . S
H119 C102 0.932 . S
C120 C121 1.264 . S
C120 C125 1.479 . S
C120 C130 1.465 . S
C121 C120 1.264 . S
C121 C123 1.339 . S
C121 H148 0.931 . S
C122 C123 1.395 . S
C122 C124 1.320 . S
C123 C121 1.339 . S
C123 C122 1.395 . S
C123 H149 0.929 . S
C124 C122 1.320 . S
C124 C125 1.405 . S
C124 H150 0.930 . S
C125 C120 1.479 . S
C125 C124 1.405 . S
C125 H151 0.931 . S
U126 O127 2.454 . S
U126 O128 2.458 . S
U126 C129 2.984 . S
U126 C130 2.847 . S
U126 C143 2.882 . S
U126 O144 2.441 . S
U126 O145 2.420 . S
U126 O146 2.455 . S
U126 O147 2.449 . S
O127 U126 2.454 . S
O127 C129 1.353 . S
O128 U126 2.458 . S
O128 C129 1.286 . S
C129 U126 2.984 . S
C129 O127 1.353 . S
C129 O128 1.286 . S
C129 C131 1.363 . S
C130 C120 1.465 . S
C130 U126 2.847 . S
C130 O144 1.249 . S
C130 O145 1.202 . S
C131 C129 1.363 . S
C131 C133 1.408 . S
C131 C136 1.342 . S
C132 C133 1.310 . S
C132 C135 1.461 . S
C132 H152 0.932 . S
C133 C131 1.408 . S
C133 C132 1.310 . S
C133 H153 0.930 . S
C134 C135 1.474 . S
C134 C136 1.285 . S
C134 H154 0.929 . S
C135 C132 1.461 . S
C135 C134 1.474 . S
C136 C131 1.342 . S
C136 C134 1.285 . S
C136 H155 0.930 . S
C137 C140 1.424 . S
C137 C142 1.245 . S
C137 C143 1.428 . S
C138 C141 1.260 . S
C138 C142 1.477 . S
C138 H156 0.932 . S
C139 C140 1.384 . S
C139 C141 1.479 . S
C139 H157 0.929 . S
C140 C137 1.424 . S
C140 C139 1.384 . S
C140 H158 0.928 . S
C141 C138 1.260 . S
C141 C139 1.479 . S
C142 C137 1.245 . S
C142 C138 1.477 . S
C142 H159 0.932 . S
C143 U126 2.882 . S
C143 C137 1.428 . S
C143 O146 1.301 . S
C143 O147 1.282 . S
O144 U126 2.441 . S
O144 C130 1.249 . S
O145 U126 2.420 . S
O145 C130 1.202 . S
O146 U126 2.455 . S
O146 C143 1.301 . S
O147 U126 2.449 . S
O147 C143 1.282 . S
H148 C121 0.931 . S
H149 C123 0.929 . S
H150 C124 0.930 . S
H151 C125 0.931 . S
H152 C132 0.932 . S
H153 C133 0.930 . S
H154 C134 0.929 . S
H155 C136 0.930 . S
H156 C138 0.932 . S
H157 C139 0.929 . S
H158 C140 0.928 . S
H159 C142 0.932 . S
C160 C161 1.264 . S
C160 C165 1.479 . S
C160 C170 1.465 . S
C161 C160 1.264 . S
C161 C163 1.339 . S
C161 H188 0.931 . S
C162 C163 1.395 . S
C162 C164 1.320 . S
C163 C161 1.339 . S
C163 C162 1.395 . S
C163 H189 0.929 . S
C164 C162 1.320 . S
C164 C165 1.405 . S
C164 H190 0.930 . S
C165 C160 1.479 . S
C165 C164 1.405 . S
C165 H191 0.931 . S
U166 O167 2.454 . S
U166 O168 2.458 . S
U166 C169 2.984 . S
U166 C170 2.847 . S
U166 C183 2.882 . S
U166 O184 2.441 . S
U166 O185 2.420 . S
U166 O186 2.455 . S
U166 O187 2.449 . S
O167 U166 2.454 . S
O167 C169 1.353 . S
O168 U166 2.458 . S
O168 C169 1.286 . S
C169 U166 2.984 . S
C169 O167 1.353 . S
C169 O168 1.286 . S
C169 C171 1.363 . S
C170 C160 1.465 . S
C170 U166 2.847 . S
C170 O184 1.249 . S
C170 O185 1.202 . S
C171 C169 1.363 . S
C171 C173 1.408 . S
C171 C176 1.342 . S
C172 C173 1.310 . S
C172 C175 1.461 . S
C172 H192 0.932 . S
C173 C171 1.408 . S
C173 C172 1.310 . S
C173 H193 0.930 . S
C174 C175 1.474 . S
C174 C176 1.285 . S
C174 H194 0.929 . S
C175 C172 1.461 . S
C175 C174 1.474 . S
C176 C171 1.342 . S
C176 C174 1.285 . S
C176 H195 0.930 . S
C177 C180 1.424 . S
C177 C182 1.245 . S
C177 C183 1.428 . S
C178 C181 1.260 . S
C178 C182 1.477 . S
C178 H196 0.932 . S
C179 C180 1.384 . S
C179 C181 1.479 . S
C179 H197 0.929 . S
C180 C177 1.424 . S
C180 C179 1.384 . S
C180 H198 0.928 . S
C181 C178 1.260 . S
C181 C179 1.479 . S
C182 C177 1.245 . S
C182 C178 1.477 . S
C182 H199 0.932 . S
C183 U166 2.882 . S
C183 C177 1.428 . S
C183 O186 1.301 . S
C183 O187 1.282 . S
O184 U166 2.441 . S
O184 C170 1.249 . S
O185 U166 2.420 . S
O185 C170 1.202 . S
O186 U166 2.455 . S
O186 C183 1.301 . S
O187 U166 2.449 . S
O187 C183 1.282 . S
H188 C161 0.931 . S
H189 C163 0.929 . S
H190 C164 0.930 . S
H191 C165 0.931 . S
H192 C172 0.932 . S
H193 C173 0.930 . S
H194 C174 0.929 . S
H195 C176 0.930 . S
H196 C178 0.932 . S
H197 C179 0.929 . S
H198 C180 0.928 . S
H199 C182 0.932 . S
C200 C201 1.264 . S
C200 C205 1.479 . S
C200 C210 1.465 . S
C201 C200 1.264 . S
C201 C203 1.339 . S
C201 H228 0.931 . S
C202 C203 1.395 . S
C202 C204 1.320 . S
C203 C201 1.339 . S
C203 C202 1.395 . S
C203 H229 0.929 . S
C204 C202 1.320 . S
C204 C205 1.405 . S
C204 H230 0.930 . S
C205 C200 1.479 . S
C205 C204 1.405 . S
C205 H231 0.931 . S
U206 O207 2.454 . S
U206 O208 2.458 . S
U206 C209 2.984 . S
U206 C210 2.847 . S
U206 C223 2.882 . S
U206 O224 2.441 . S
U206 O225 2.420 . S
U206 O226 2.455 . S
U206 O227 2.449 . S
O207 U206 2.454 . S
O207 C209 1.353 . S
O208 U206 2.458 . S
O208 C209 1.286 . S
C209 U206 2.984 . S
C209 O207 1.353 . S
C209 O208 1.286 . S
C209 C211 1.363 . S
C210 C200 1.465 . S
C210 U206 2.847 . S
C210 O224 1.249 . S
C210 O225 1.202 . S
C211 C209 1.363 . S
C211 C213 1.408 . S
C211 C216 1.342 . S
C212 C213 1.310 . S
C212 C215 1.461 . S
C212 H232 0.932 . S
C213 C211 1.408 . S
C213 C212 1.310 . S
C213 H233 0.930 . S
C214 C215 1.474 . S
C214 C216 1.285 . S
C214 H234 0.929 . S
C215 C212 1.461 . S
C215 C214 1.474 . S
C216 C211 1.342 . S
C216 C214 1.285 . S
C216 H235 0.930 . S
C217 C220 1.424 . S
C217 C222 1.245 . S
C217 C223 1.428 . S
C218 C221 1.260 . S
C218 C222 1.477 . S
C218 H236 0.932 . S
C219 C220 1.384 . S
C219 C221 1.479 . S
C219 H237 0.929 . S
C220 C217 1.424 . S
C220 C219 1.384 . S
C220 H238 0.928 . S
C221 C218 1.260 . S
C221 C219 1.479 . S
C222 C217 1.245 . S
C222 C218 1.477 . S
C222 H239 0.932 . S
C223 U206 2.882 . S
C223 C217 1.428 . S
C223 O226 1.301 . S
C223 O227 1.282 . S
O224 U206 2.441 . S
O224 C210 1.249 . S
O225 U206 2.420 . S
O225 C210 1.202 . S
O226 U206 2.455 . S
O226 C223 1.301 . S
O227 U206 2.449 . S
O227 C223 1.282 . S
H228 C201 0.931 . S
H229 C203 0.929 . S
H230 C204 0.930 . S
H231 C205 0.931 . S
H232 C212 0.932 . S
H233 C213 0.930 . S
H234 C214 0.929 . S
H235 C216 0.930 . S
H236 C218 0.932 . S
H237 C219 0.929 . S
H238 C220 0.928 . S
H239 C222 0.932 . S
C240 C241 1.264 . S
C240 C245 1.479 . S
C240 C250 1.465 . S
C241 C240 1.264 . S
C241 C243 1.339 . S
C241 H268 0.931 . S
C242 C243 1.395 . S
C242 C244 1.320 . S
C243 C241 1.339 . S
C243 C242 1.395 . S
C243 H269 0.929 . S
C244 C242 1.320 . S
C244 C245 1.405 . S
C244 H270 0.930 . S
C245 C240 1.479 . S
C245 C244 1.405 . S
C245 H271 0.931 . S
U246 O247 2.454 . S
U246 O248 2.458 . S
U246 C249 2.984 . S
U246 C250 2.847 . S
U246 C263 2.882 . S
U246 O264 2.441 . S
U246 O265 2.420 . S
U246 O266 2.455 . S
U246 O267 2.449 . S
O247 U246 2.454 . S
O247 C249 1.353 . S
O248 U246 2.458 . S
O248 C249 1.286 . S
C249 U246 2.984 . S
C249 O247 1.353 . S
C249 O248 1.286 . S
C249 C251 1.363 . S
C250 C240 1.465 . S
C250 U246 2.847 . S
C250 O264 1.249 . S
C250 O265 1.202 . S
C251 C249 1.363 . S
C251 C253 1.408 . S
C251 C256 1.342 . S
C252 C253 1.310 . S
C252 C255 1.461 . S
C252 H272 0.932 . S
C253 C251 1.408 . S
C253 C252 1.310 . S
C253 H273 0.930 . S
C254 C255 1.474 . S
C254 C256 1.285 . S
C254 H274 0.929 . S
C255 C252 1.461 . S
C255 C254 1.474 . S
C256 C251 1.342 . S
C256 C254 1.285 . S
C256 H275 0.930 . S
C257 C260 1.424 . S
C257 C262 1.245 . S
C257 C263 1.428 . S
C258 C261 1.260 . S
C258 C262 1.477 . S
C258 H276 0.932 . S
C259 C260 1.384 . S
C259 C261 1.479 . S
C259 H277 0.929 . S
C260 C257 1.424 . S
C260 C259 1.384 . S
C260 H278 0.928 . S
C261 C258 1.260 . S
C261 C259 1.479 . S
C262 C257 1.245 . S
C262 C258 1.477 . S
C262 H279 0.932 . S
C263 U246 2.882 . S
C263 C257 1.428 . S
C263 O266 1.301 . S
C263 O267 1.282 . S
O264 U246 2.441 . S
O264 C250 1.249 . S
O265 U246 2.420 . S
O265 C250 1.202 . S
O266 U246 2.455 . S
O266 C263 1.301 . S
O267 U246 2.449 . S
O267 C263 1.282 . S
H268 C241 0.931 . S
H269 C243 0.929 . S
H270 C244 0.930 . S
H271 C245 0.931 . S
H272 C252 0.932 . S
H273 C253 0.930 . S
H274 C254 0.929 . S
H275 C256 0.930 . S
H276 C258 0.932 . S
H277 C259 0.929 . S
H278 C260 0.928 . S
H279 C262 0.932 . S
C280 C281 1.264 . S
C280 C285 1.479 . S
C280 C290 1.465 . S
C281 C280 1.264 . S
C281 C283 1.339 . S
C281 H308 0.931 . S
C282 C283 1.395 . S
C282 C284 1.320 . S
C283 C281 1.339 . S
C283 C282 1.395 . S
C283 H309 0.929 . S
C284 C282 1.320 . S
C284 C285 1.405 . S
C284 H310 0.930 . S
C285 C280 1.479 . S
C285 C284 1.405 . S
C285 H311 0.931 . S
U286 O287 2.454 . S
U286 O288 2.458 . S
U286 C289 2.984 . S
U286 C290 2.847 . S
U286 C303 2.882 . S
U286 O304 2.441 . S
U286 O305 2.420 . S
U286 O306 2.455 . S
U286 O307 2.449 . S
O287 U286 2.454 . S
O287 C289 1.353 . S
O288 U286 2.458 . S
O288 C289 1.286 . S
C289 U286 2.984 . S
C289 O287 1.353 . S
C289 O288 1.286 . S
C289 C291 1.363 . S
C290 C280 1.465 . S
C290 U286 2.847 . S
C290 O304 1.249 . S
C290 O305 1.202 . S
C291 C289 1.363 . S
C291 C293 1.408 . S
C291 C296 1.342 . S
C292 C293 1.310 . S
C292 C295 1.461 . S
C292 H312 0.932 . S
C293 C291 1.408 . S
C293 C292 1.310 . S
C293 H313 0.930 . S
C294 C295 1.474 . S
C294 C296 1.285 . S
C294 H314 0.929 . S
C295 C292 1.461 . S
C295 C294 1.474 . S
C296 C291 1.342 . S
C296 C294 1.285 . S
C296 H315 0.930 . S
C297 C300 1.424 . S
C297 C302 1.245 . S
C297 C303 1.428 . S
C298 C301 1.260 . S
C298 C302 1.477 . S
C298 H316 0.932 . S
C299 C300 1.384 . S
C299 C301 1.479 . S
C299 H317 0.929 . S
C300 C297 1.424 . S
C300 C299 1.384 . S
C300 H318 0.928 . S
C301 C298 1.260 . S
C301 C299 1.479 . S
C302 C297 1.245 . S
C302 C298 1.477 . S
C302 H319 0.932 . S
C303 U286 2.882 . S
C303 C297 1.428 . S
C303 O306 1.301 . S
C303 O307 1.282 . S
O304 U286 2.441 . S
O304 C290 1.249 . S
O305 U286 2.420 . S
O305 C290 1.202 . S
O306 U286 2.455 . S
O306 C303 1.301 . S
O307 U286 2.449 . S
O307 C303 1.282 . S
H308 C281 0.931 . S
H309 C283 0.929 . S
H310 C284 0.930 . S
H311 C285 0.931 . S
H312 C292 0.932 . S
H313 C293 0.930 . S
H314 C294 0.929 . S
H315 C296 0.930 . S
H316 C298 0.932 . S
H317 C299 0.929 . S
H318 C300 0.928 . S
H319 C302 0.932 . S
C320 C321 1.264 . S
C320 C325 1.479 . S
C320 C330 1.465 . S
C321 C320 1.264 . S
C321 C323 1.339 . S
C321 H348 0.931 . S
C322 C323 1.395 . S
C322 C324 1.320 . S
C323 C321 1.339 . S
C323 C322 1.395 . S
C323 H349 0.929 . S
C324 C322 1.320 . S
C324 C325 1.405 . S
C324 H350 0.930 . S
C325 C320 1.479 . S
C325 C324 1.405 . S
C325 H351 0.931 . S
U326 O327 2.454 . S
U326 O328 2.458 . S
U326 C329 2.984 . S
U326 C330 2.847 . S
U326 C343 2.882 . S
U326 O344 2.441 . S
U326 O345 2.420 . S
U326 O346 2.455 . S
U326 O347 2.449 . S
O327 U326 2.454 . S
O327 C329 1.353 . S
O328 U326 2.458 . S
O328 C329 1.286 . S
C329 U326 2.984 . S
C329 O327 1.353 . S
C329 O328 1.286 . S
C329 C331 1.363 . S
C330 C320 1.465 . S
C330 U326 2.847 . S
C330 O344 1.249 . S
C330 O345 1.202 . S
C331 C329 1.363 . S
C331 C333 1.408 . S
C331 C336 1.342 . S
C332 C333 1.310 . S
C332 C335 1.461 . S
C332 H352 0.932 . S
C333 C331 1.408 . S
C333 C332 1.310 . S
C333 H353 0.930 . S
C334 C335 1.474 . S
C334 C336 1.285 . S
C334 H354 0.929 . S
C335 C332 1.461 . S
C335 C334 1.474 . S
C336 C331 1.342 . S
C336 C334 1.285 . S
C336 H355 0.930 . S
C337 C340 1.424 . S
C337 C342 1.245 . S
C337 C343 1.428 . S
C338 C341 1.260 . S
C338 C342 1.477 . S
C338 H356 0.932 . S
C339 C340 1.384 . S
C339 C341 1.479 . S
C339 H357 0.929 . S
C340 C337 1.424 . S
C340 C339 1.384 . S
C340 H358 0.928 . S
C341 C338 1.260 . S
C341 C339 1.479 . S
C342 C337 1.245 . S
C342 C338 1.477 . S
C342 H359 0.932 . S
C343 U326 2.882 . S
C343 C337 1.428 . S
C343 O346 1.301 . S
C343 O347 1.282 . S
O344 U326 2.441 . S
O344 C330 1.249 . S
O345 U326 2.420 . S
O345 C330 1.202 . S
O346 U326 2.455 . S
O346 C343 1.301 . S
O347 U326 2.449 . S
O347 C343 1.282 . S
H348 C321 0.931 . S
H349 C323 0.929 . S
H350 C324 0.930 . S
H351 C325 0.931 . S
H352 C332 0.932 . S
H353 C333 0.930 . S
H354 C334 0.929 . S
H355 C336 0.930 . S
H356 C338 0.932 . S
H357 C339 0.929 . S
H358 C340 0.928 . S
H359 C342 0.932 . S
C360 C361 1.264 . S
C360 C365 1.479 . S
C360 C370 1.465 . S
C361 C360 1.264 . S
C361 C363 1.339 . S
C361 H388 0.931 . S
C362 C363 1.395 . S
C362 C364 1.320 . S
C363 C361 1.339 . S
C363 C362 1.395 . S
C363 H389 0.929 . S
C364 C362 1.320 . S
C364 C365 1.405 . S
C364 H390 0.930 . S
C365 C360 1.479 . S
C365 C364 1.405 . S
C365 H391 0.931 . S
U366 O367 2.454 . S
U366 O368 2.458 . S
U366 C369 2.984 . S
U366 C370 2.847 . S
U366 C383 2.882 . S
U366 O384 2.441 . S
U366 O385 2.420 . S
U366 O386 2.455 . S
U366 O387 2.449 . S
O367 U366 2.454 . S
O367 C369 1.353 . S
O368 U366 2.458 . S
O368 C369 1.286 . S
C369 U366 2.984 . S
C369 O367 1.353 . S
C369 O368 1.286 . S
C369 C371 1.363 . S
C370 C360 1.465 . S
C370 U366 2.847 . S
C370 O384 1.249 . S
C370 O385 1.202 . S
C371 C369 1.363 . S
C371 C373 1.408 . S
C371 C376 1.342 . S
C372 C373 1.310 . S
C372 C375 1.461 . S
C372 H392 0.932 . S
C373 C371 1.408 . S
C373 C372 1.310 . S
C373 H393 0.930 . S
C374 C375 1.474 . S
C374 C376 1.285 . S
C374 H394 0.929 . S
C375 C372 1.461 . S
C375 C374 1.474 . S
C376 C371 1.342 . S
C376 C374 1.285 . S
C376 H395 0.930 . S
C377 C380 1.424 . S
C377 C382 1.245 . S
C377 C383 1.428 . S
C378 C381 1.260 . S
C378 C382 1.477 . S
C378 H396 0.932 . S
C379 C380 1.384 . S
C379 C381 1.479 . S
C379 H397 0.929 . S
C380 C377 1.424 . S
C380 C379 1.384 . S
C380 H398 0.928 . S
C381 C378 1.260 . S
C381 C379 1.479 . S
C382 C377 1.245 . S
C382 C378 1.477 . S
C382 H399 0.932 . S
C383 U366 2.882 . S
C383 C377 1.428 . S
C383 O386 1.301 . S
C383 O387 1.282 . S
O384 U366 2.441 . S
O384 C370 1.249 . S
O385 U366 2.420 . S
O385 C370 1.202 . S
O386 U366 2.455 . S
O386 C383 1.301 . S
O387 U366 2.449 . S
O387 C383 1.282 . S
H388 C361 0.931 . S
H389 C363 0.929 . S
H390 C364 0.930 . S
H391 C365 0.931 . S
H392 C372 0.932 . S
H393 C373 0.930 . S
H394 C374 0.929 . S
H395 C376 0.930 . S
H396 C378 0.932 . S
H397 C379 0.929 . S
H398 C380 0.928 . S
H399 C382 0.932 . S
C400 C401 1.264 . S
C400 C405 1.479 . S
C400 C410 1.465 . S
C401 C400 1.264 . S
C401 C403 1.339 . S
C401 H428 0.931 . S
C402 C403 1.395 . S
C402 C404 1.320 . S
C403 C401 1.339 . S
C403 C402 1.395 . S
C403 H429 0.929 . S
C404 C402 1.320 . S
C404 C405 1.405 . S
C404 H430 0.930 . S
C405 C400 1.479 . S
C405 C404 1.405 . S
C405 H431 0.931 . S
U406 O407 2.454 . S
U406 O408 2.458 . S
U406 C409 2.984 . S
U406 C410 2.847 . S
U406 C423 2.882 . S
U406 O424 2.441 . S
U406 O425 2.420 . S
U406 O426 2.455 . S
U406 O427 2.449 . S
O407 U406 2.454 . S
O407 C409 1.353 . S
O408 U406 2.458 . S
O408 C409 1.286 . S
C409 U406 2.984 . S
C409 O407 1.353 . S
C409 O408 1.286 . S
C409 C411 1.363 . S
C410 C400 1.465 . S
C410 U406 2.847 . S
C410 O424 1.249 . S
C410 O425 1.202 . S
C411 C409 1.363 . S
C411 C413 1.408 . S
C411 C416 1.342 . S
C412 C413 1.310 . S
C412 C415 1.461 . S
C412 H432 0.932 . S
C413 C411 1.408 . S
C413 C412 1.310 . S
C413 H433 0.930 . S
C414 C415 1.474 . S
C414 C416 1.285 . S
C414 H434 0.929 . S
C415 C412 1.461 . S
C415 C414 1.474 . S
C416 C411 1.342 . S
C416 C414 1.285 . S
C416 H435 0.930 . S
C417 C420 1.424 . S
C417 C422 1.245 . S
C417 C423 1.428 . S
C418 C421 1.260 . S
C418 C422 1.477 . S
C418 H436 0.932 . S
C419 C420 1.384 . S
C419 C421 1.479 . S
C419 H437 0.929 . S
C420 C417 1.424 . S
C420 C419 1.384 . S
C420 H438 0.928 . S
C421 C418 1.260 . S
C421 C419 1.479 . S
C422 C417 1.245 . S
C422 C418 1.477 . S
C422 H439 0.932 . S
C423 U406 2.882 . S
C423 C417 1.428 . S
C423 O426 1.301 . S
C423 O427 1.282 . S
O424 U406 2.441 . S
O424 C410 1.249 . S
O425 U406 2.420 . S
O425 C410 1.202 . S
O426 U406 2.455 . S
O426 C423 1.301 . S
O427 U406 2.449 . S
O427 C423 1.282 . S
H428 C401 0.931 . S
H429 C403 0.929 . S
H430 C404 0.930 . S
H431 C405 0.931 . S
H432 C412 0.932 . S
H433 C413 0.930 . S
H434 C414 0.929 . S
H435 C416 0.930 . S
H436 C418 0.932 . S
H437 C419 0.929 . S
H438 C420 0.928 . S
H439 C422 0.932 . S
C440 C441 1.264 . S
C440 C445 1.479 . S
C440 C450 1.465 . S
C441 C440 1.264 . S
C441 C443 1.339 . S
C441 H468 0.931 . S
C442 C443 1.395 . S
C442 C444 1.320 . S
C443 C441 1.339 . S
C443 C442 1.395 . S
C443 H469 0.929 . S
C444 C442 1.320 . S
C444 C445 1.405 . S
C444 H470 0.930 . S
C445 C440 1.479 . S
C445 C444 1.405 . S
C445 H471 0.931 . S
U446 O447 2.454 . S
U446 O448 2.458 . S
U446 C449 2.984 . S
U446 C450 2.847 . S
U446 C463 2.882 . S
U446 O464 2.441 . S
U446 O465 2.420 . S
U446 O466 2.455 . S
U446 O467 2.449 . S
O447 U446 2.454 . S
O447 C449 1.353 . S
O448 U446 2.458 . S
O448 C449 1.286 . S
C449 U446 2.984 . S
C449 O447 1.353 . S
C449 O448 1.286 . S
C449 C451 1.363 . S
C450 C440 1.465 . S
C450 U446 2.847 . S
C450 O464 1.249 . S
C450 O465 1.202 . S
C451 C449 1.363 . S
C451 C453 1.408 . S
C451 C456 1.342 . S
C452 C453 1.310 . S
C452 C455 1.461 . S
C452 H472 0.932 . S
C453 C451 1.408 . S
C453 C452 1.310 . S
C453 H473 0.930 . S
C454 C455 1.474 . S
C454 C456 1.285 . S
C454 H474 0.929 . S
C455 C452 1.461 . S
C455 C454 1.474 . S
C456 C451 1.342 . S
C456 C454 1.285 . S
C456 H475 0.930 . S
C457 C460 1.424 . S
C457 C462 1.245 . S
C457 C463 1.428 . S
C458 C461 1.260 . S
C458 C462 1.477 . S
C458 H476 0.932 . S
C459 C460 1.384 . S
C459 C461 1.479 . S
C459 H477 0.929 . S
C460 C457 1.424 . S
C460 C459 1.384 . S
C460 H478 0.928 . S
C461 C458 1.260 . S
C461 C459 1.479 . S
C462 C457 1.245 . S
C462 C458 1.477 . S
C462 H479 0.932 . S
C463 U446 2.882 . S
C463 C457 1.428 . S
C463 O466 1.301 . S
C463 O467 1.282 . S
O464 U446 2.441 . S
O464 C450 1.249 . S
O465 U446 2.420 . S
O465 C450 1.202 . S
O466 U446 2.455 . S
O466 C463 1.301 . S
O467 U446 2.449 . S
O467 C463 1.282 . S
H468 C441 0.931 . S
H469 C443 0.929 . S
H470 C444 0.930 . S
H471 C445 0.931 . S
H472 C452 0.932 . S
H473 C453 0.930 . S
H474 C454 0.929 . S
H475 C456 0.930 . S
H476 C458 0.932 . S
H477 C459 0.929 . S
H478 C460 0.928 . S
H479 C462 0.932 . S
C480 C481 1.264 . S
C480 C485 1.479 . S
C480 C490 1.465 . S
C481 C480 1.264 . S
C481 C483 1.339 . S
C481 H508 0.931 . S
C482 C483 1.395 . S
C482 C484 1.320 . S
C483 C481 1.339 . S
C483 C482 1.395 . S
C483 H509 0.929 . S
C484 C482 1.320 . S
C484 C485 1.405 . S
C484 H510 0.930 . S
C485 C480 1.479 . S
C485 C484 1.405 . S
C485 H511 0.931 . S
U486 O487 2.454 . S
U486 O488 2.458 . S
U486 C489 2.984 . S
U486 C490 2.847 . S
U486 C503 2.882 . S
U486 O504 2.441 . S
U486 O505 2.420 . S
U486 O506 2.455 . S
U486 O507 2.449 . S
O487 U486 2.454 . S
O487 C489 1.353 . S
O488 U486 2.458 . S
O488 C489 1.286 . S
C489 U486 2.984 . S
C489 O487 1.353 . S
C489 O488 1.286 . S
C489 C491 1.363 . S
C490 C480 1.465 . S
C490 U486 2.847 . S
C490 O504 1.249 . S
C490 O505 1.202 . S
C491 C489 1.363 . S
C491 C493 1.408 . S
C491 C496 1.342 . S
C492 C493 1.310 . S
C492 C495 1.461 . S
C492 H512 0.932 . S
C493 C491 1.408 . S
C493 C492 1.310 . S
C493 H513 0.930 . S
C494 C495 1.474 . S
C494 C496 1.285 . S
C494 H514 0.929 . S
C495 C492 1.461 . S
C495 C494 1.474 . S
C496 C491 1.342 . S
C496 C494 1.285 . S
C496 H515 0.930 . S
C497 C500 1.424 . S
C497 C502 1.245 . S
C497 C503 1.428 . S
C498 C501 1.260 . S
C498 C502 1.477 . S
C498 H516 0.932 . S
C499 C500 1.384 . S
C499 C501 1.479 . S
C499 H517 0.929 . S
C500 C497 1.424 . S
C500 C499 1.384 . S
C500 H518 0.928 . S
C501 C498 1.260 . S
C501 C499 1.479 . S
C502 C497 1.245 . S
C502 C498 1.477 . S
C502 H519 0.932 . S
C503 U486 2.882 . S
C503 C497 1.428 . S
C503 O506 1.301 . S
C503 O507 1.282 . S
O504 U486 2.441 . S
O504 C490 1.249 . S
O505 U486 2.420 . S
O505 C490 1.202 . S
O506 U486 2.455 . S
O506 C503 1.301 . S
O507 U486 2.449 . S
O507 C503 1.282 . S
H508 C481 0.931 . S
H509 C483 0.929 . S
H510 C484 0.930 . S
H511 C485 0.931 . S
H512 C492 0.932 . S
H513 C493 0.930 . S
H514 C494 0.929 . S
H515 C496 0.930 . S
H516 C498 0.932 . S
H517 C499 0.929 . S
H518 C500 0.928 . S
H519 C502 0.932 . S
C520 C521 1.264 . S
C520 C525 1.479 . S
C520 C530 1.465 . S
C521 C520 1.264 . S
C521 C523 1.339 . S
C521 H548 0.931 . S
C522 C523 1.395 . S
C522 C524 1.320 . S
C523 C521 1.339 . S
C523 C522 1.395 . S
C523 H549 0.929 . S
C524 C522 1.320 . S
C524 C525 1.405 . S
C524 H550 0.930 . S
C525 C520 1.479 . S
C525 C524 1.405 . S
C525 H551 0.931 . S
U526 O527 2.454 . S
U526 O528 2.458 . S
U526 C529 2.984 . S
U526 C530 2.847 . S
U526 C543 2.882 . S
U526 O544 2.441 . S
U526 O545 2.420 . S
U526 O546 2.455 . S
U526 O547 2.449 . S
O527 U526 2.454 . S
O527 C529 1.353 . S
O528 U526 2.458 . S
O528 C529 1.286 . S
C529 U526 2.984 . S
C529 O527 1.353 . S
C529 O528 1.286 . S
C529 C531 1.363 . S
C530 C520 1.465 . S
C530 U526 2.847 . S
C530 O544 1.249 . S
C530 O545 1.202 . S
C531 C529 1.363 . S
C531 C533 1.408 . S
C531 C536 1.342 . S
C532 C533 1.310 . S
C532 C535 1.461 . S
C532 H552 0.932 . S
C533 C531 1.408 . S
C533 C532 1.310 . S
C533 H553 0.930 . S
C534 C535 1.474 . S
C534 C536 1.285 . S
C534 H554 0.929 . S
C535 C532 1.461 . S
C535 C534 1.474 . S
C536 C531 1.342 . S
C536 C534 1.285 . S
C536 H555 0.930 . S
C537 C540 1.424 . S
C537 C542 1.245 . S
C537 C543 1.428 . S
C538 C541 1.260 . S
C538 C542 1.477 . S
C538 H556 0.932 . S
C539 C540 1.384 . S
C539 C541 1.479 . S
C539 H557 0.929 . S
C540 C537 1.424 . S
C540 C539 1.384 . S
C540 H558 0.928 . S
C541 C538 1.260 . S
C541 C539 1.479 . S
C542 C537 1.245 . S
C542 C538 1.477 . S
C542 H559 0.932 . S
C543 U526 2.882 . S
C543 C537 1.428 . S
C543 O546 1.301 . S
C543 O547 1.282 . S
O544 U526 2.441 . S
O544 C530 1.249 . S
O545 U526 2.420 . S
O545 C530 1.202 . S
O546 U526 2.455 . S
O546 C543 1.301 . S
O547 U526 2.449 . S
O547 C543 1.282 . S
H548 C521 0.931 . S
H549 C523 0.929 . S
H550 C524 0.930 . S
H551 C525 0.931 . S
H552 C532 0.932 . S
H553 C533 0.930 . S
H554 C534 0.929 . S
H555 C536 0.930 . S
H556 C538 0.932 . S
H557 C539 0.929 . S
H558 C540 0.928 . S
H559 C542 0.932 . S
C560 C561 1.264 . S
C560 C565 1.479 . S
C560 C570 1.465 . S
C561 C560 1.264 . S
C561 C563 1.339 . S
C561 H588 0.931 . S
C562 C563 1.395 . S
C562 C564 1.320 . S
C563 C561 1.339 . S
C563 C562 1.395 . S
C563 H589 0.929 . S
C564 C562 1.320 . S
C564 C565 1.405 . S
C564 H590 0.930 . S
C565 C560 1.479 . S
C565 C564 1.405 . S
C565 H591 0.931 . S
U566 O567 2.454 . S
U566 O568 2.458 . S
U566 C569 2.984 . S
U566 C570 2.847 . S
U566 C583 2.882 . S
U566 O584 2.441 . S
U566 O585 2.420 . S
U566 O586 2.455 . S
U566 O587 2.449 . S
O567 U566 2.454 . S
O567 C569 1.353 . S
O568 U566 2.458 . S
O568 C569 1.286 . S
C569 U566 2.984 . S
C569 O567 1.353 . S
C569 O568 1.286 . S
C569 C571 1.363 . S
C570 C560 1.465 . S
C570 U566 2.847 . S
C570 O584 1.249 . S
C570 O585 1.202 . S
C571 C569 1.363 . S
C571 C573 1.408 . S
C571 C576 1.342 . S
C572 C573 1.310 . S
C572 C575 1.461 . S
C572 H592 0.932 . S
C573 C571 1.408 . S
C573 C572 1.310 . S
C573 H593 0.930 . S
C574 C575 1.474 . S
C574 C576 1.285 . S
C574 H594 0.929 . S
C575 C572 1.461 . S
C575 C574 1.474 . S
C576 C571 1.342 . S
C576 C574 1.285 . S
C576 H595 0.930 . S
C577 C580 1.424 . S
C577 C582 1.245 . S
C577 C583 1.428 . S
C578 C581 1.260 . S
C578 C582 1.477 . S
C578 H596 0.932 . S
C579 C580 1.384 . S
C579 C581 1.479 . S
C579 H597 0.929 . S
C580 C577 1.424 . S
C580 C579 1.384 . S
C580 H598 0.928 . S
C581 C578 1.260 . S
C581 C579 1.479 . S
C582 C577 1.245 . S
C582 C578 1.477 . S
C582 H599 0.932 . S
C583 U566 2.882 . S
C583 C577 1.428 . S
C583 O586 1.301 . S
C583 O587 1.282 . S
O584 U566 2.441 . S
O584 C570 1.249 . S
O585 U566 2.420 . S
O585 C570 1.202 . S
O586 U566 2.455 . S
O586 C583 1.301 . S
O587 U566 2.449 . S
O587 C583 1.282 . S
H588 C561 0.931 . S
H589 C563 0.929 . S
H590 C564 0.930 . S
H591 C565 0.931 . S
H592 C572 0.932 . S
H593 C573 0.930 . S
H594 C574 0.929 . S
H595 C576 0.930 . S
H596 C578 0.932 . S
H597 C579 0.929 . S
H598 C580 0.928 . S
H599 C582 0.932 . S
C600 C601 1.264 . S
C600 C605 1.479 . S
C600 C610 1.465 . S
C601 C600 1.264 . S
C601 C603 1.339 . S
C601 H628 0.931 . S
C602 C603 1.395 . S
C602 C604 1.320 . S
C603 C601 1.339 . S
C603 C602 1.395 . S
C603 H629 0.929 . S
C604 C602 1.320 . S
C604 C605 1.405 . S
C604 H630 0.930 . S
C605 C600 1.479 . S
C605 C604 1.405 . S
C605 H631 0.931 . S
U606 O607 2.454 . S
U606 O608 2.458 . S
U606 C609 2.984 . S
U606 C610 2.847 . S
U606 C623 2.882 . S
U606 O624 2.441 . S
U606 O625 2.420 . S
U606 O626 2.455 . S
U606 O627 2.449 . S
O607 U606 2.454 . S
O607 C609 1.353 . S
O608 U606 2.458 . S
O608 C609 1.286 . S
C609 U606 2.984 . S
C609 O607 1.353 . S
C609 O608 1.286 . S
C609 C611 1.363 . S
C610 C600 1.465 . S
C610 U606 2.847 . S
C610 O624 1.249 . S
C610 O625 1.202 . S
C611 C609 1.363 . S
C611 C613 1.408 . S
C611 C616 1.342 . S
C612 C613 1.310 . S
C612 C615 1.461 . S
C612 H632 0.932 . S
C613 C611 1.408 . S
C613 C612 1.310 . S
C613 H633 0.930 . S
C614 C615 1.474 . S
C614 C616 1.285 . S
C614 H634 0.929 . S
C615 C612 1.461 . S
C615 C614 1.474 . S
C616 C611 1.342 . S
C616 C614 1.285 . S
C616 H635 0.930 . S
C617 C620 1.424 . S
C617 C622 1.245 . S
C617 C623 1.428 . S
C618 C621 1.260 . S
C618 C622 1.477 . S
C618 H636 0.932 . S
C619 C620 1.384 . S
C619 C621 1.479 . S
C619 H637 0.929 . S
C620 C617 1.424 . S
C620 C619 1.384 . S
C620 H638 0.928 . S
C621 C618 1.260 . S
C621 C619 1.479 . S
C622 C617 1.245 . S
C622 C618 1.477 . S
C622 H639 0.932 . S
C623 U606 2.882 . S
C623 C617 1.428 . S
C623 O626 1.301 . S
C623 O627 1.282 . S
O624 U606 2.441 . S
O624 C610 1.249 . S
O625 U606 2.420 . S
O625 C610 1.202 . S
O626 U606 2.455 . S
O626 C623 1.301 . S
O627 U606 2.449 . S
O627 C623 1.282 . S
H628 C601 0.931 . S
H629 C603 0.929 . S
H630 C604 0.930 . S
H631 C605 0.931 . S
H632 C612 0.932 . S
H633 C613 0.930 . S
H634 C614 0.929 . S
H635 C616 0.930 . S
H636 C618 0.932 . S
H637 C619 0.929 . S
H638 C620 0.928 . S
H639 C622 0.932 . S
C640 C641 1.264 . S
C640 C645 1.479 . S
C640 C650 1.465 . S
C641 C640 1.264 . S
C641 C643 1.339 . S
C641 H668 0.931 . S
C642 C643 1.395 . S
C642 C644 1.320 . S
C643 C641 1.339 . S
C643 C642 1.395 . S
C643 H669 0.929 . S
C644 C642 1.320 . S
C644 C645 1.405 . S
C644 H670 0.930 . S
C645 C640 1.479 . S
C645 C644 1.405 . S
C645 H671 0.931 . S
U646 O647 2.454 . S
U646 O648 2.458 . S
U646 C649 2.984 . S
U646 C650 2.847 . S
U646 C663 2.882 . S
U646 O664 2.441 . S
U646 O665 2.420 . S
U646 O666 2.455 . S
U646 O667 2.449 . S
O647 U646 2.454 . S
O647 C649 1.353 . S
O648 U646 2.458 . S
O648 C649 1.286 . S
C649 U646 2.984 . S
C649 O647 1.353 . S
C649 O648 1.286 . S
C649 C651 1.363 . S
C650 C640 1.465 . S
C650 U646 2.847 . S
C650 O664 1.249 . S
C650 O665 1.202 . S
C651 C649 1.363 . S
C651 C653 1.408 . S
C651 C656 1.342 . S
C652 C653 1.310 . S
C652 C655 1.461 . S
C652 H672 0.932 . S
C653 C651 1.408 . S
C653 C652 1.310 . S
C653 H673 0.930 . S
C654 C655 1.474 . S
C654 C656 1.285 . S
C654 H674 0.929 . S
C655 C652 1.461 . S
C655 C654 1.474 . S
C656 C651 1.342 . S
C656 C654 1.285 . S
C656 H675 0.930 . S
C657 C660 1.424 . S
C657 C662 1.245 . S
C657 C663 1.428 . S
C658 C661 1.260 . S
C658 C662 1.477 . S
C658 H676 0.932 . S
C659 C660 1.384 . S
C659 C661 1.479 . S
C659 H677 0.929 . S
C660 C657 1.424 . S
C660 C659 1.384 . S
C660 H678 0.928 . S
C661 C658 1.260 . S
C661 C659 1.479 . S
C662 C657 1.245 . S
C662 C658 1.477 . S
C662 H679 0.932 . S
C663 U646 2.882 . S
C663 C657 1.428 . S
C663 O666 1.301 . S
C663 O667 1.282 . S
O664 U646 2.441 . S
O664 C650 1.249 . S
O665 U646 2.420 . S
O665 C650 1.202 . S
O666 U646 2.455 . S
O666 C663 1.301 . S
O667 U646 2.449 . S
O667 C663 1.282 . S
H668 C641 0.931 . S
H669 C643 0.929 . S
H670 C644 0.930 . S
H671 C645 0.931 . S
H672 C652 0.932 . S
H673 C653 0.930 . S
H674 C654 0.929 . S
H675 C656 0.930 . S
H676 C658 0.932 . S
H677 C659 0.929 . S
H678 C660 0.928 . S
H679 C662 0.932 . S
C680 C681 1.264 . S
C680 C685 1.479 . S
C680 C690 1.465 . S
C681 C680 1.264 . S
C681 C683 1.339 . S
C681 H708 0.931 . S
C682 C683 1.395 . S
C682 C684 1.320 . S
C683 C681 1.339 . S
C683 C682 1.395 . S
C683 H709 0.929 . S
C684 C682 1.320 . S
C684 C685 1.405 . S
C684 H710 0.930 . S
C685 C680 1.479 . S
C685 C684 1.405 . S
C685 H711 0.931 . S
U686 O687 2.454 . S
U686 O688 2.458 . S
U686 C689 2.984 . S
U686 C690 2.847 . S
U686 C703 2.882 . S
U686 O704 2.441 . S
U686 O705 2.420 . S
U686 O706 2.455 . S
U686 O707 2.449 . S
O687 U686 2.454 . S
O687 C689 1.353 . S
O688 U686 2.458 . S
O688 C689 1.286 . S
C689 U686 2.984 . S
C689 O687 1.353 . S
C689 O688 1.286 . S
C689 C691 1.363 . S
C690 C680 1.465 . S
C690 U686 2.847 . S
C690 O704 1.249 . S
C690 O705 1.202 . S
C691 C689 1.363 . S
C691 C693 1.408 . S
C691 C696 1.342 . S
C692 C693 1.310 . S
C692 C695 1.461 . S
C692 H712 0.932 . S
C693 C691 1.408 . S
C693 C692 1.310 . S
C693 H713 0.930 . S
C694 C695 1.474 . S
C694 C696 1.285 . S
C694 H714 0.929 . S
C695 C692 1.461 . S
C695 C694 1.474 . S
C696 C691 1.342 . S
C696 C694 1.285 . S
C696 H715 0.930 . S
C697 C700 1.424 . S
C697 C702 1.245 . S
C697 C703 1.428 . S
C698 C701 1.260 . S
C698 C702 1.477 . S
C698 H716 0.932 . S
C699 C700 1.384 . S
C699 C701 1.479 . S
C699 H717 0.929 . S
C700 C697 1.424 . S
C700 C699 1.384 . S
C700 H718 0.928 . S
C701 C698 1.260 . S
C701 C699 1.479 . S
C702 C697 1.245 . S
C702 C698 1.477 . S
C702 H719 0.932 . S
C703 U686 2.882 . S
C703 C697 1.428 . S
C703 O706 1.301 . S
C703 O707 1.282 . S
O704 U686 2.441 . S
O704 C690 1.249 . S
O705 U686 2.420 . S
O705 C690 1.202 . S
O706 U686 2.455 . S
O706 C703 1.301 . S
O707 U686 2.449 . S
O707 C703 1.282 . S
H708 C681 0.931 . S
H709 C683 0.929 . S
H710 C684 0.930 . S
H711 C685 0.931 . S
H712 C692 0.932 . S
H713 C693 0.930 . S
H714 C694 0.929 . S
H715 C696 0.930 . S
H716 C698 0.932 . S
H717 C699 0.929 . S
H718 C700 0.928 . S
H719 C702 0.932 . S
C720 C721 1.264 . S
C720 C725 1.479 . S
C720 C730 1.465 . S
C721 C720 1.264 . S
C721 C723 1.339 . S
C721 H748 0.931 . S
C722 C723 1.395 . S
C722 C724 1.320 . S
C723 C721 1.339 . S
C723 C722 1.395 . S
C723 H749 0.929 . S
C724 C722 1.320 . S
C724 C725 1.405 . S
C724 H750 0.930 . S
C725 C720 1.479 . S
C725 C724 1.405 . S
C725 H751 0.931 . S
U726 O727 2.454 . S
U726 O728 2.458 . S
U726 C729 2.984 . S
U726 C730 2.847 . S
U726 C743 2.882 . S
U726 O744 2.441 . S
U726 O745 2.420 . S
U726 O746 2.455 . S
U726 O747 2.449 . S
O727 U726 2.454 . S
O727 C729 1.353 . S
O728 U726 2.458 . S
O728 C729 1.286 . S
C729 U726 2.984 . S
C729 O727 1.353 . S
C729 O728 1.286 . S
C729 C731 1.363 . S
C730 C720 1.465 . S
C730 U726 2.847 . S
C730 O744 1.249 . S
C730 O745 1.202 . S
C731 C729 1.363 . S
C731 C733 1.408 . S
C731 C736 1.342 . S
C732 C733 1.310 . S
C732 C735 1.461 . S
C732 H752 0.932 . S
C733 C731 1.408 . S
C733 C732 1.310 . S
C733 H753 0.930 . S
C734 C735 1.474 . S
C734 C736 1.285 . S
C734 H754 0.929 . S
C735 C732 1.461 . S
C735 C734 1.474 . S
C736 C731 1.342 . S
C736 C734 1.285 . S
C736 H755 0.930 . S
C737 C740 1.424 . S
C737 C742 1.245 . S
C737 C743 1.428 . S
C738 C741 1.260 . S
C738 C742 1.477 . S
C738 H756 0.932 . S
C739 C740 1.384 . S
C739 C741 1.479 . S
C739 H757 0.929 . S
C740 C737 1.424 . S
C740 C739 1.384 . S
C740 H758 0.928 . S
C741 C738 1.260 . S
C741 C739 1.479 . S
C742 C737 1.245 . S
C742 C738 1.477 . S
C742 H759 0.932 . S
C743 U726 2.882 . S
C743 C737 1.428 . S
C743 O746 1.301 . S
C743 O747 1.282 . S
O744 U726 2.441 . S
O744 C730 1.249 . S
O745 U726 2.420 . S
O745 C730 1.202 . S
O746 U726 2.455 . S
O746 C743 1.301 . S
O747 U726 2.449 . S
O747 C743 1.282 . S
H748 C721 0.931 . S
H749 C723 0.929 . S
H750 C724 0.930 . S
H751 C725 0.931 . S
H752 C732 0.932 . S
H753 C733 0.930 . S
H754 C734 0.929 . S
H755 C736 0.930 . S
H756 C738 0.932 . S
H757 C739 0.929 . S
H758 C740 0.928 . S
H759 C742 0.932 . S
C760 C761 1.264 . S
C760 C765 1.479 . S
C760 C770 1.465 . S
C761 C760 1.264 . S
C761 C763 1.339 . S
C761 H788 0.931 . S
C762 C763 1.395 . S
C762 C764 1.320 . S
C763 C761 1.339 . S
C763 C762 1.395 . S
C763 H789 0.929 . S
C764 C762 1.320 . S
C764 C765 1.405 . S
C764 H790 0.930 . S
C765 C760 1.479 . S
C765 C764 1.405 . S
C765 H791 0.931 . S
U766 O767 2.454 . S
U766 O768 2.458 . S
U766 C769 2.984 . S
U766 C770 2.847 . S
U766 C783 2.882 . S
U766 O784 2.441 . S
U766 O785 2.420 . S
U766 O786 2.455 . S
U766 O787 2.449 . S
O767 U766 2.454 . S
O767 C769 1.353 . S
O768 U766 2.458 . S
O768 C769 1.286 . S
C769 U766 2.984 . S
C769 O767 1.353 . S
C769 O768 1.286 . S
C769 C771 1.363 . S
C770 C760 1.465 . S
C770 U766 2.847 . S
C770 O784 1.249 . S
C770 O785 1.202 . S
C771 C769 1.363 . S
C771 C773 1.408 . S
C771 C776 1.342 . S
C772 C773 1.310 . S
C772 C775 1.461 . S
C772 H792 0.932 . S
C773 C771 1.408 . S
C773 C772 1.310 . S
C773 H793 0.930 . S
C774 C775 1.474 . S
C774 C776 1.285 . S
C774 H794 0.929 . S
C775 C772 1.461 . S
C775 C774 1.474 . S
C776 C771 1.342 . S
C776 C774 1.285 . S
C776 H795 0.930 . S
C777 C780 1.424 . S
C777 C782 1.245 . S
C777 C783 1.428 . S
C778 C781 1.260 . S
C778 C782 1.477 . S
C778 H796 0.932 . S
C779 C780 1.384 . S
C779 C781 1.479 . S
C779 H797 0.929 . S
C780 C777 1.424 . S
C780 C779 1.384 . S
C780 H798 0.928 . S
C781 C778 1.260 . S
C781 C779 1.479 . S
C782 C777 1.245 . S
C782 C778 1.477 . S
C782 H799 0.932 . S
C783 U766 2.882 . S
C783 C777 1.428 . S
C783 O786 1.301 . S
C783 O787 1.282 . S
O784 U766 2.441 . S
O784 C770 1.249 . S
O785 U766 2.420 . S
O785 C770 1.202 . S
O786 U766 2.455 . S
O786 C783 1.301 . S
O787 U766 2.449 . S
O787 C783 1.282 . S
H788 C761 0.931 . S
H789 C763 0.929 . S
H790 C764 0.930 . S
H791 C765 0.931 . S
H792 C772 0.932 . S
H793 C773 0.930 . S
H794 C774 0.929 . S
H795 C776 0.930 . S
H796 C778 0.932 . S
H797 C779 0.929 . S
H798 C780 0.928 . S
H799 C782 0.932 . S
C800 C801 1.264 . S
C800 C805 1.479 . S
C800 C810 1.465 . S
C801 C800 1.264 . S
C801 C803 1.339 . S
C801 H828 0.931 . S
C802 C803 1.395 . S
C802 C804 1.320 . S
C803 C801 1.339 . S
C803 C802 1.395 . S
C803 H829 0.929 . S
C804 C802 1.320 . S
C804 C805 1.405 . S
C804 H830 0.930 . S
C805 C800 1.479 . S
C805 C804 1.405 . S
C805 H831 0.931 . S
U806 O807 2.454 . S
U806 O808 2.458 . S
U806 C809 2.984 . S
U806 C810 2.847 . S
U806 C823 2.882 . S
U806 O824 2.441 . S
U806 O825 2.420 . S
U806 O826 2.455 . S
U806 O827 2.449 . S
O807 U806 2.454 . S
O807 C809 1.353 . S
O808 U806 2.458 . S
O808 C809 1.286 . S
C809 U806 2.984 . S
C809 O807 1.353 . S
C809 O808 1.286 . S
C809 C811 1.363 . S
C810 C800 1.465 . S
C810 U806 2.847 . S
C810 O824 1.249 . S
C810 O825 1.202 . S
C811 C809 1.363 . S
C811 C813 1.408 . S
C811 C816 1.342 . S
C812 C813 1.310 . S
C812 C815 1.461 . S
C812 H832 0.932 . S
C813 C811 1.408 . S
C813 C812 1.310 . S
C813 H833 0.930 . S
C814 C815 1.474 . S
C814 C816 1.285 . S
C814 H834 0.929 . S
C815 C812 1.461 . S
C815 C814 1.474 . S
C816 C811 1.342 . S
C816 C814 1.285 . S
C816 H835 0.930 . S
C817 C820 1.424 . S
C817 C822 1.245 . S
C817 C823 1.428 . S
C818 C821 1.260 . S
C818 C822 1.477 . S
C818 H836 0.932 . S
C819 C820 1.384 . S
C819 C821 1.479 . S
C819 H837 0.929 . S
C820 C817 1.424 . S
C820 C819 1.384 . S
C820 H838 0.928 . S
C821 C818 1.260 . S
C821 C819 1.479 . S
C822 C817 1.245 . S
C822 C818 1.477 . S
C822 H839 0.932 . S
C823 U806 2.882 . S
C823 C817 1.428 . S
C823 O826 1.301 . S
C823 O827 1.282 . S
O824 U806 2.441 . S
O824 C810 1.249 . S
O825 U806 2.420 . S
O825 C810 1.202 . S
O826 U806 2.455 . S
O826 C823 1.301 . S
O827 U806 2.449 . S
O827 C823 1.282 . S
H828 C801 0.931 . S
H829 C803 0.929 . S
H830 C804 0.930 . S
H831 C805 0.931 . S
H832 C812 0.932 . S
H833 C813 0.930 . S
H834 C814 0.929 . S
H835 C816 0.930 . S
H836 C818 0.932 . S
H837 C819 0.929 . S
H838 C820 0.928 . S
H839 C822 0.932 . S
C840 C841 1.264 . S
C840 C845 1.479 . S
C840 C850 1.465 . S
C841 C840 1.264 . S
C841 C843 1.339 . S
C841 H868 0.931 . S
C842 C843 1.395 . S
C842 C844 1.320 . S
C843 C841 1.339 . S
C843 C842 1.395 . S
C843 H869 0.929 . S
C844 C842 1.320 . S
C844 C845 1.405 . S
C844 H870 0.930 . S
C845 C840 1.479 . S
C845 C844 1.405 . S
C845 H871 0.931 . S
U846 O847 2.454 . S
U846 O848 2.458 . S
U846 C849 2.984 . S
U846 C850 2.847 . S
U846 C863 2.882 . S
U846 O864 2.441 . S
U846 O865 2.420 . S
U846 O866 2.455 . S
U846 O867 2.449 . S
O847 U846 2.454 . S
O847 C849 1.353 . S
O848 U846 2.458 . S
O848 C849 1.286 . S
C849 U846 2.984 . S
C849 O847 1.353 . S
C849 O848 1.286 . S
C849 C851 1.363 . S
C850 C840 1.465 . S
C850 U846 2.847 . S
C850 O864 1.249 . S
C850 O865 1.202 . S
C851 C849 1.363 . S
C851 C853 1.408 . S
C851 C856 1.342 . S
C852 C853 1.310 . S
C852 C855 1.461 . S
C852 H872 0.932 . S
C853 C851 1.408 . S
C853 C852 1.310 . S
C853 H873 0.930 . S
C854 C855 1.474 . S
C854 C856 1.285 . S
C854 H874 0.929 . S
C855 C852 1.461 . S
C855 C854 1.474 . S
C856 C851 1.342 . S
C856 C854 1.285 . S
C856 H875 0.930 . S
C857 C860 1.424 . S
C857 C862 1.245 . S
C857 C863 1.428 . S
C858 C861 1.260 . S
C858 C862 1.477 . S
C858 H876 0.932 . S
C859 C860 1.384 . S
C859 C861 1.479 . S
C859 H877 0.929 . S
C860 C857 1.424 . S
C860 C859 1.384 . S
C860 H878 0.928 . S
C861 C858 1.260 . S
C861 C859 1.479 . S
C862 C857 1.245 . S
C862 C858 1.477 . S
C862 H879 0.932 . S
C863 U846 2.882 . S
C863 C857 1.428 . S
C863 O866 1.301 . S
C863 O867 1.282 . S
O864 U846 2.441 . S
O864 C850 1.249 . S
O865 U846 2.420 . S
O865 C850 1.202 . S
O866 U846 2.455 . S
O866 C863 1.301 . S
O867 U846 2.449 . S
O867 C863 1.282 . S
H868 C841 0.931 . S
H869 C843 0.929 . S
H870 C844 0.930 . S
H871 C845 0.931 . S
H872 C852 0.932 . S
H873 C853 0.930 . S
H874 C854 0.929 . S
H875 C856 0.930 . S
H876 C858 0.932 . S
H877 C859 0.929 . S
H878 C860 0.928 . S
H879 C862 0.932 . S
C880 C881 1.264 . S
C880 C885 1.479 . S
C880 C890 1.465 . S
C881 C880 1.264 . S
C881 C883 1.339 . S
C881 H908 0.931 . S
C882 C883 1.395 . S
C882 C884 1.320 . S
C883 C881 1.339 . S
C883 C882 1.395 . S
C883 H909 0.929 . S
C884 C882 1.320 . S
C884 C885 1.405 . S
C884 H910 0.930 . S
C885 C880 1.479 . S
C885 C884 1.405 . S
C885 H911 0.931 . S
U886 O887 2.454 . S
U886 O888 2.458 . S
U886 C889 2.984 . S
U886 C890 2.847 . S
U886 C903 2.882 . S
U886 O904 2.441 . S
U886 O905 2.420 . S
U886 O906 2.455 . S
U886 O907 2.449 . S
O887 U886 2.454 . S
O887 C889 1.353 . S
O888 U886 2.458 . S
O888 C889 1.286 . S
C889 U886 2.984 . S
C889 O887 1.353 . S
C889 O888 1.286 . S
C889 C891 1.363 . S
C890 C880 1.465 . S
C890 U886 2.847 . S
C890 O904 1.249 . S
C890 O905 1.202 . S
C891 C889 1.363 . S
C891 C893 1.408 . S
C891 C896 1.342 . S
C892 C893 1.310 . S
C892 C895 1.461 . S
C892 H912 0.932 . S
C893 C891 1.408 . S
C893 C892 1.310 . S
C893 H913 0.930 . S
C894 C895 1.474 . S
C894 C896 1.285 . S
C894 H914 0.929 . S
C895 C892 1.461 . S
C895 C894 1.474 . S
C896 C891 1.342 . S
C896 C894 1.285 . S
C896 H915 0.930 . S
C897 C900 1.424 . S
C897 C902 1.245 . S
C897 C903 1.428 . S
C898 C901 1.260 . S
C898 C902 1.477 . S
C898 H916 0.932 . S
C899 C900 1.384 . S
C899 C901 1.479 . S
C899 H917 0.929 . S
C900 C897 1.424 . S
C900 C899 1.384 . S
C900 H918 0.928 . S
C901 C898 1.260 . S
C901 C899 1.479 . S
C902 C897 1.245 . S
C902 C898 1.477 . S
C902 H919 0.932 . S
C903 U886 2.882 . S
C903 C897 1.428 . S
C903 O906 1.301 . S
C903 O907 1.282 . S
O904 U886 2.441 . S
O904 C890 1.249 . S
O905 U886 2.420 . S
O905 C890 1.202 . S
O906 U886 2.455 . S
O906 C903 1.301 . S
O907 U886 2.449 . S
O907 C903 1.282 . S
H908 C881 0.931 . S
H909 C883 0.929 . S
H910 C884 0.930 . S
H911 C885 0.931 . S
H912 C892 0.932 . S
H913 C893 0.930 . S
H914 C894 0.929 . S
H915 C896 0.930 . S
H916 C898 0.932 . S
H917 C899 0.929 . S
H918 C900 0.928 . S
H919 C902 0.932 . S
C920 C921 1.264 . S
C920 C925 1.479 . S
C920 C930 1.465 . S
C921 C920 1.264 . S
C921 C923 1.339 . S
C921 H948 0.931 . S
C922 C923 1.395 . S
C922 C924 1.320 . S
C923 C921 1.339 . S
C923 C922 1.395 . S
C923 H949 0.929 . S
C924 C922 1.320 . S
C924 C925 1.405 . S
C924 H950 0.930 . S
C925 C920 1.479 . S
C925 C924 1.405 . S
C925 H951 0.931 . S
U926 O927 2.454 . S
U926 O928 2.458 . S
U926 C929 2.984 . S
U926 C930 2.847 . S
U926 C943 2.882 . S
U926 O944 2.441 . S
U926 O945 2.420 . S
U926 O946 2.455 . S
U926 O947 2.449 . S
O927 U926 2.454 . S
O927 C929 1.353 . S
O928 U926 2.458 . S
O928 C929 1.286 . S
C929 U926 2.984 . S
C929 O927 1.353 . S
C929 O928 1.286 . S
C929 C931 1.363 . S
C930 C920 1.465 . S
C930 U926 2.847 . S
C930 O944 1.249 . S
C930 O945 1.202 . S
C931 C929 1.363 . S
C931 C933 1.408 . S
C931 C936 1.342 . S
C932 C933 1.310 . S
C932 C935 1.461 . S
C932 H952 0.932 . S
C933 C931 1.408 . S
C933 C932 1.310 . S
C933 H953 0.930 . S
C934 C935 1.474 . S
C934 C936 1.285 . S
C934 H954 0.929 . S
C935 C932 1.461 . S
C935 C934 1.474 . S
C936 C931 1.342 . S
C936 C934 1.285 . S
C936 H955 0.930 . S
C937 C940 1.424 . S
C937 C942 1.245 . S
C937 C943 1.428 . S
C938 C941 1.260 . S
C938 C942 1.477 . S
C938 H956 0.932 . S
C939 C940 1.384 . S
C939 C941 1.479 . S
C939 H957 0.929 . S
C940 C937 1.424 . S
C940 C939 1.384 . S
C940 H958 0.928 . S
C941 C938 1.260 . S
C941 C939 1.479 . S
C942 C937 1.245 . S
C942 C938 1.477 . S
C942 H959 0.932 . S
C943 U926 2.882 . S
C943 C937 1.428 . S
C943 O946 1.301 . S
C943 O947 1.282 . S
O944 U926 2.441 . S
O944 C930 1.249 . S
O945 U926 2.420 . S
O945 C930 1.202 . S
O946 U926 2.455 . S
O946 C943 1.301 . S
O947 U926 2.449 . S
O947 C943 1.282 . S
H948 C921 0.931 . S
H949 C923 0.929 . S
H950 C924 0.930 . S
H951 C925 0.931 . S
H952 C932 0.932 . S
H953 C933 0.930 . S
H954 C934 0.929 . S
H955 C936 0.930 . S
H956 C938 0.932 . S
H957 C939 0.929 . S
H958 C940 0.928 . S
H959 C942 0.932 . S
C960 C961 1.264 . S
C960 C965 1.479 . S
C960 C970 1.465 . S
C961 C960 1.264 . S
C961 C963 1.339 . S
C961 H988 0.931 . S
C962 C963 1.395 . S
C962 C964 1.320 . S
C963 C961 1.339 . S
C963 C962 1.395 . S
C963 H989 0.929 . S
C964 C962 1.320 . S
C964 C965 1.405 . S
C964 H990 0.930 . S
C965 C960 1.479 . S
C965 C964 1.405 . S
C965 H991 0.931 . S
U966 O967 2.454 . S
U966 O968 2.458 . S
U966 C969 2.984 . S
U966 C970 2.847 . S
U966 C983 2.882 . S
U966 O984 2.441 . S
U966 O985 2.420 . S
U966 O986 2.455 . S
U966 O987 2.449 . S
O967 U966 2.454 . S
O967 C969 1.353 . S
O968 U966 2.458 . S
O968 C969 1.286 . S
C969 U966 2.984 . S
C969 O967 1.353 . S
C969 O968 1.286 . S
C969 C971 1.363 . S
C970 C960 1.465 . S
C970 U966 2.847 . S
C970 O984 1.249 . S
C970 O985 1.202 . S
C971 C969 1.363 . S
C971 C973 1.408 . S
C971 C976 1.342 . S
C972 C973 1.310 . S
C972 C975 1.461 . S
C972 H992 0.932 . S
C973 C971 1.408 . S
C973 C972 1.310 . S
C973 H993 0.930 . S
C974 C975 1.474 . S
C974 C976 1.285 . S
C974 H994 0.929 . S
C975 C972 1.461 . S
C975 C974 1.474 . S
C976 C971 1.342 . S
C976 C974 1.285 . S
C976 H995 0.930 . S
C977 C980 1.424 . S
C977 C982 1.245 . S
C977 C983 1.428 . S
C978 C981 1.260 . S
C978 C982 1.477 . S
C978 H996 0.932 . S
C979 C980 1.384 . S
C979 C981 1.479 . S
C979 H997 0.929 . S
C980 C977 1.424 . S
C980 C979 1.384 . S
C980 H998 0.928 . S
C981 C978 1.260 . S
C981 C979 1.479 . S
C982 C977 1.245 . S
C982 C978 1.477 . S
C982 H999 0.932 . S
C983 U966 2.882 . S
C983 C977 1.428 . S
C983 O986 1.301 . S
C983 O987 1.282 . S
O984 U966 2.441 . S
O984 C970 1.249 . S
O985 U966 2.420 . S
O985 C970 1.202 . S
O986 U966 2.455 . S
O986 C983 1.301 . S
O987 U966 2.449 . S
O987 C983 1.282 . S
H988 C961 0.931 . S
H989 C963 0.929 . S
H990 C964 0.930 . S
H991 C965 0.931 . S
H992 C972 0.932 . S
H993 C973 0.930 . S
H994 C974 0.929 . S
H995 C976 0.930 . S
H996 C978 0.932 . S
H997 C979 0.929 . S
H998 C980 0.928 . S
H999 C982 0.932 . S
C1000 C1001 1.264 . S
C1000 C1005 1.479 . S
C1000 C1010 1.465 . S
C1001 C1000 1.264 . S
C1001 C1003 1.339 . S
C1001 H1028 0.931 . S
C1002 C1003 1.395 . S
C1002 C1004 1.320 . S
C1003 C1001 1.339 . S
C1003 C1002 1.395 . S
C1003 H1029 0.929 . S
C1004 C1002 1.320 . S
C1004 C1005 1.405 . S
C1004 H1030 0.930 . S
C1005 C1000 1.479 . S
C1005 C1004 1.405 . S
C1005 H1031 0.931 . S
U1006 O1007 2.454 . S
U1006 O1008 2.458 . S
U1006 C1009 2.984 . S
U1006 C1010 2.847 . S
U1006 C1023 2.882 . S
U1006 O1024 2.441 . S
U1006 O1025 2.420 . S
U1006 O1026 2.455 . S
U1006 O1027 2.449 . S
O1007 U1006 2.454 . S
O1007 C1009 1.353 . S
O1008 U1006 2.458 . S
O1008 C1009 1.286 . S
C1009 U1006 2.984 . S
C1009 O1007 1.353 . S
C1009 O1008 1.286 . S
C1009 C1011 1.363 . S
C1010 C1000 1.465 . S
C1010 U1006 2.847 . S
C1010 O1024 1.249 . S
C1010 O1025 1.202 . S
C1011 C1009 1.363 . S
C1011 C1013 1.408 . S
C1011 C1016 1.342 . S
C1012 C1013 1.310 . S
C1012 C1015 1.461 . S
C1012 H1032 0.932 . S
C1013 C1011 1.408 . S
C1013 C1012 1.310 . S
C1013 H1033 0.930 . S
C1014 C1015 1.474 . S
C1014 C1016 1.285 . S
C1014 H1034 0.929 . S
C1015 C1012 1.461 . S
C1015 C1014 1.474 . S
C1016 C1011 1.342 . S
C1016 C1014 1.285 . S
C1016 H1035 0.930 . S
C1017 C1020 1.424 . S
C1017 C1022 1.245 . S
C1017 C1023 1.428 . S
C1018 C1021 1.260 . S
C1018 C1022 1.477 . S
C1018 H1036 0.932 . S
C1019 C1020 1.384 . S
C1019 C1021 1.479 . S
C1019 H1037 0.929 . S
C1020 C1017 1.424 . S
C1020 C1019 1.384 . S
C1020 H1038 0.928 . S
C1021 C1018 1.260 . S
C1021 C1019 1.479 . S
C1022 C1017 1.245 . S
C1022 C1018 1.477 . S
C1022 H1039 0.932 . S
C1023 U1006 2.882 . S
C1023 C1017 1.428 . S
C1023 O1026 1.301 . S
C1023 O1027 1.282 . S
O1024 U1006 2.441 . S
O1024 C1010 1.249 . S
O1025 U1006 2.420 . S
O1025 C1010 1.202 . S
O1026 U1006 2.455 . S
O1026 C1023 1.301 . S
O1027 U1006 2.449 . S
O1027 C1023 1.282 . S
H1028 C1001 0.931 . S
H1029 C1003 0.929 . S
H1030 C1004 0.930 . S
H1031 C1005 0.931 . S
H1032 C1012 0.932 . S
H1033 C1013 0.930 . S
H1034 C1014 0.929 . S
H1035 C1016 0.930 . S
H1036 C1018 0.932 . S
H1037 C1019 0.929 . S
H1038 C1020 0.928 . S
H1039 C1022 0.932 . S
C1040 C1041 1.264 . S
C1040 C1045 1.479 . S
C1040 C1050 1.465 . S
C1041 C1040 1.264 . S
C1041 C1043 1.339 . S
C1041 H1068 0.931 . S
C1042 C1043 1.395 . S
C1042 C1044 1.320 . S
C1043 C1041 1.339 . S
C1043 C1042 1.395 . S
C1043 H1069 0.929 . S
C1044 C1042 1.320 . S
C1044 C1045 1.405 . S
C1044 H1070 0.930 . S
C1045 C1040 1.479 . S
C1045 C1044 1.405 . S
C1045 H1071 0.931 . S
U1046 O1047 2.454 . S
U1046 O1048 2.458 . S
U1046 C1049 2.984 . S
U1046 C1050 2.847 . S
U1046 C1063 2.882 . S
U1046 O1064 2.441 . S
U1046 O1065 2.420 . S
U1046 O1066 2.455 . S
U1046 O1067 2.449 . S
O1047 U1046 2.454 . S
O1047 C1049 1.353 . S
O1048 U1046 2.458 . S
O1048 C1049 1.286 . S
C1049 U1046 2.984 . S
C1049 O1047 1.353 . S
C1049 O1048 1.286 . S
C1049 C1051 1.363 . S
C1050 C1040 1.465 . S
C1050 U1046 2.847 . S
C1050 O1064 1.249 . S
C1050 O1065 1.202 . S
C1051 C1049 1.363 . S
C1051 C1053 1.408 . S
C1051 C1056 1.342 . S
C1052 C1053 1.310 . S
C1052 C1055 1.461 . S
C1052 H1072 0.932 . S
C1053 C1051 1.408 . S
C1053 C1052 1.310 . S
C1053 H1073 0.930 . S
C1054 C1055 1.474 . S
C1054 C1056 1.285 . S
C1054 H1074 0.929 . S
C1055 C1052 1.461 . S
C1055 C1054 1.474 . S
C1056 C1051 1.342 . S
C1056 C1054 1.285 . S
C1056 H1075 0.930 . S
C1057 C1060 1.424 . S
C1057 C1062 1.245 . S
C1057 C1063 1.428 . S
C1058 C1061 1.260 . S
C1058 C1062 1.477 . S
C1058 H1076 0.932 . S
C1059 C1060 1.384 . S
C1059 C1061 1.479 . S
C1059 H1077 0.929 . S
C1060 C1057 1.424 . S
C1060 C1059 1.384 . S
C1060 H1078 0.928 . S
C1061 C1058 1.260 . S
C1061 C1059 1.479 . S
C1062 C1057 1.245 . S
C1062 C1058 1.477 . S
C1062 H1079 0.932 . S
C1063 U1046 2.882 . S
C1063 C1057 1.428 . S
C1063 O1066 1.301 . S
C1063 O1067 1.282 . S
O1064 U1046 2.441 . S
O1064 C1050 1.249 . S
O1065 U1046 2.420 . S
O1065 C1050 1.202 . S
O1066 U1046 2.455 . S
O1066 C1063 1.301 . S
O1067 U1046 2.449 . S
O1067 C1063 1.282 . S
H1068 C1041 0.931 . S
H1069 C1043 0.929 . S
H1070 C1044 0.930 . S
H1071 C1045 0.931 . S
H1072 C1052 0.932 . S
H1073 C1053 0.930 . S
H1074 C1054 0.929 . S
H1075 C1056 0.930 . S
H1076 C1058 0.932 . S
H1077 C1059 0.929 . S
H1078 C1060 0.928 . S
H1079 C1062 0.932 . S
C1080 C1081 1.264 . S
C1080 C1085 1.479 . S
C1080 C1090 1.465 . S
C1081 C1080 1.264 . S
C1081 C1083 1.339 . S
C1081 H1108 0.931 . S
C1082 C1083 1.395 . S
C1082 C1084 1.320 . S
C1083 C1081 1.339 . S
C1083 C1082 1.395 . S
C1083 H1109 0.929 . S
C1084 C1082 1.320 . S
C1084 C1085 1.405 . S
C1084 H1110 0.930 . S
C1085 C1080 1.479 . S
C1085 C1084 1.405 . S
C1085 H1111 0.931 . S
U1086 O1087 2.454 . S
U1086 O1088 2.458 . S
U1086 C1089 2.984 . S
U1086 C1090 2.847 . S
U1086 C1103 2.882 . S
U1086 O1104 2.441 . S
U1086 O1105 2.420 . S
U1086 O1106 2.455 . S
U1086 O1107 2.449 . S
O1087 U1086 2.454 . S
O1087 C1089 1.353 . S
O1088 U1086 2.458 . S
O1088 C1089 1.286 . S
C1089 U1086 2.984 . S
C1089 O1087 1.353 . S
C1089 O1088 1.286 . S
C1089 C1091 1.363 . S
C1090 C1080 1.465 . S
C1090 U1086 2.847 . S
C1090 O1104 1.249 . S
C1090 O1105 1.202 . S
C1091 C1089 1.363 . S
C1091 C1093 1.408 . S
C1091 C1096 1.342 . S
C1092 C1093 1.310 . S
C1092 C1095 1.461 . S
C1092 H1112 0.932 . S
C1093 C1091 1.408 . S
C1093 C1092 1.310 . S
C1093 H1113 0.930 . S
C1094 C1095 1.474 . S
C1094 C1096 1.285 . S
C1094 H1114 0.929 . S
C1095 C1092 1.461 . S
C1095 C1094 1.474 . S
C1096 C1091 1.342 . S
C1096 C1094 1.285 . S
C1096 H1115 0.930 . S
C1097 C1100 1.424 . S
C1097 C1102 1.245 . S
C1097 C1103 1.428 . S
C1098 C1101 1.260 . S
C1098 C1102 1.477 . S
C1098 H1116 0.932 . S
C1099 C1100 1.384 . S
C1099 C1101 1.479 . S
C1099 H1117 0.929 . S
C1100 C1097 1.424 . S
C1100 C1099 1.384 . S
C1100 H1118 0.928 . S
C1101 C1098 1.260 . S
C1101 C1099 1.479 . S
C1102 C1097 1.245 . S
C1102 C1098 1.477 . S
C1102 H1119 0.932 . S
C1103 U1086 2.882 . S
C1103 C1097 1.428 . S
C1103 O1106 1.301 . S
C1103 O1107 1.282 . S
O1104 U1086 2.441 . S
O1104 C1090 1.249 . S
O1105 U1086 2.420 . S
O1105 C1090 1.202 . S
O1106 U1086 2.455 . S
O1106 C1103 1.301 . S
O1107 U1086 2.449 . S
O1107 C1103 1.282 . S
H1108 C1081 0.931 . S
H1109 C1083 0.929 . S
H1110 C1084 0.930 . S
H1111 C1085 0.931 . S
H1112 C1092 0.932 . S
H1113 C1093 0.930 . S
H1114 C1094 0.929 . S
H1115 C1096 0.930 . S
H1116 C1098 0.932 . S
H1117 C1099 0.929 . S
H1118 C1100 0.928 . S
H1119 C1102 0.932 . S
C1120 C1121 1.264 . S
C1120 C1125 1.479 . S
C1120 C1130 1.465 . S
C1121 C1120 1.264 . S
C1121 C1123 1.339 . S
C1121 H1148 0.931 . S
C1122 C1123 1.395 . S
C1122 C1124 1.320 . S
C1123 C1121 1.339 . S
C1123 C1122 1.395 . S
C1123 H1149 0.929 . S
C1124 C1122 1.320 . S
C1124 C1125 1.405 . S
C1124 H1150 0.930 . S
C1125 C1120 1.479 . S
C1125 C1124 1.405 . S
C1125 H1151 0.931 . S
U1126 O1127 2.454 . S
U1126 O1128 2.458 . S
U1126 C1129 2.984 . S
U1126 C1130 2.847 . S
U1126 C1143 2.882 . S
U1126 O1144 2.441 . S
U1126 O1145 2.420 . S
U1126 O1146 2.455 . S
U1126 O1147 2.449 . S
O1127 U1126 2.454 . S
O1127 C1129 1.353 . S
O1128 U1126 2.458 . S
O1128 C1129 1.286 . S
C1129 U1126 2.984 . S
C1129 O1127 1.353 . S
C1129 O1128 1.286 . S
C1129 C1131 1.363 . S
C1130 C1120 1.465 . S
C1130 U1126 2.847 . S
C1130 O1144 1.249 . S
C1130 O1145 1.202 . S
C1131 C1129 1.363 . S
C1131 C1133 1.408 . S
C1131 C1136 1.342 . S
C1132 C1133 1.310 . S
C1132 C1135 1.461 . S
C1132 H1152 0.932 . S
C1133 C1131 1.408 . S
C1133 C1132 1.310 . S
C1133 H1153 0.930 . S
C1134 C1135 1.474 . S
C1134 C1136 1.285 . S
C1134 H1154 0.929 . S
C1135 C1132 1.461 . S
C1135 C1134 1.474 . S
C1136 C1131 1.342 . S
C1136 C1134 1.285 . S
C1136 H1155 0.930 . S
C1137 C1140 1.424 . S
C1137 C1142 1.245 . S
C1137 C1143 1.428 . S
C1138 C1141 1.260 . S
C1138 C1142 1.477 . S
C1138 H1156 0.932 . S
C1139 C1140 1.384 . S
C1139 C1141 1.479 . S
C1139 H1157 0.929 . S
C1140 C1137 1.424 . S
C1140 C1139 1.384 . S
C1140 H1158 0.928 . S
C1141 C1138 1.260 . S
C1141 C1139 1.479 . S
C1142 C1137 1.245 . S
C1142 C1138 1.477 . S
C1142 H1159 0.932 . S
C1143 U1126 2.882 . S
C1143 C1137 1.428 . S
C1143 O1146 1.301 . S
C1143 O1147 1.282 . S
O1144 U1126 2.441 . S
O1144 C1130 1.249 . S
O1145 U1126 2.420 . S
O1145 C1130 1.202 . S
O1146 U1126 2.455 . S
O1146 C1143 1.301 . S
O1147 U1126 2.449 . S
O1147 C1143 1.282 . S
H1148 C1121 0.931 . S
H1149 C1123 0.929 . S
H1150 C1124 0.930 . S
H1151 C1125 0.931 . S
H1152 C1132 0.932 . S
H1153 C1133 0.930 . S
H1154 C1134 0.929 . S
H1155 C1136 0.930 . S
H1156 C1138 0.932 . S
H1157 C1139 0.929 . S
H1158 C1140 0.928 . S
H1159 C1142 0.932 . S
C1160 C1161 1.264 . S
C1160 C1165 1.479 . S
C1160 C1170 1.465 . S
C1161 C1160 1.264 . S
C1161 C1163 1.339 . S
C1161 H1188 0.931 . S
C1162 C1163 1.395 . S
C1162 C1164 1.320 . S
C1163 C1161 1.339 . S
C1163 C1162 1.395 . S
C1163 H1189 0.929 . S
C1164 C1162 1.320 . S
C1164 C1165 1.405 . S
C1164 H1190 0.930 . S
C1165 C1160 1.479 . S
C1165 C1164 1.405 . S
C1165 H1191 0.931 . S
U1166 O1167 2.454 . S
U1166 O1168 2.458 . S
U1166 C1169 2.984 . S
U1166 C1170 2.847 . S
U1166 C1183 2.882 . S
U1166 O1184 2.441 . S
U1166 O1185 2.420 . S
U1166 O1186 2.455 . S
U1166 O1187 2.449 . S
O1167 U1166 2.454 . S
O1167 C1169 1.353 . S
O1168 U1166 2.458 . S
O1168 C1169 1.286 . S
C1169 U1166 2.984 . S
C1169 O1167 1.353 . S
C1169 O1168 1.286 . S
C1169 C1171 1.363 . S
C1170 C1160 1.465 . S
C1170 U1166 2.847 . S
C1170 O1184 1.249 . S
C1170 O1185 1.202 . S
C1171 C1169 1.363 . S
C1171 C1173 1.408 . S
C1171 C1176 1.342 . S
C1172 C1173 1.310 . S
C1172 C1175 1.461 . S
C1172 H1192 0.932 . S
C1173 C1171 1.408 . S
C1173 C1172 1.310 . S
C1173 H1193 0.930 . S
C1174 C1175 1.474 . S
C1174 C1176 1.285 . S
C1174 H1194 0.929 . S
C1175 C1172 1.461 . S
C1175 C1174 1.474 . S
C1176 C1171 1.342 . S
C1176 C1174 1.285 . S
C1176 H1195 0.930 . S
C1177 C1180 1.424 . S
C1177 C1182 1.245 . S
C1177 C1183 1.428 . S
C1178 C1181 1.260 . S
C1178 C1182 1.477 . S
C1178 H1196 0.932 . S
C1179 C1180 1.384 . S
C1179 C1181 1.479 . S
C1179 H1197 0.929 . S
C1180 C1177 1.424 . S
C1180 C1179 1.384 . S
C1180 H1198 0.928 . S
C1181 C1178 1.260 . S
C1181 C1179 1.479 . S
C1182 C1177 1.245 . S
C1182 C1178 1.477 . S
C1182 H1199 0.932 . S
C1183 U1166 2.882 . S
C1183 C1177 1.428 . S
C1183 O1186 1.301 . S
C1183 O1187 1.282 . S
O1184 U1166 2.441 . S
O1184 C1170 1.249 . S
O1185 U1166 2.420 . S
O1185 C1170 1.202 . S
O1186 U1166 2.455 . S
O1186 C1183 1.301 . S
O1187 U1166 2.449 . S
O1187 C1183 1.282 . S
H1188 C1161 0.931 . S
H1189 C1163 0.929 . S
H1190 C1164 0.930 . S
H1191 C1165 0.931 . S
H1192 C1172 0.932 . S
H1193 C1173 0.930 . S
H1194 C1174 0.929 . S
H1195 C1176 0.930 . S
H1196 C1178 0.932 . S
H1197 C1179 0.929 . S
H1198 C1180 0.928 . S
H1199 C1182 0.932 . S
C1200 C1201 1.264 . S
C1200 C1205 1.479 . S
C1200 C1210 1.465 . S
C1201 C1200 1.264 . S
C1201 C1203 1.339 . S
C1201 H1228 0.931 . S
C1202 C1203 1.395 . S
C1202 C1204 1.320 . S
C1203 C1201 1.339 . S
C1203 C1202 1.395 . S
C1203 H1229 0.929 . S
C1204 C1202 1.320 . S
C1204 C1205 1.405 . S
C1204 H1230 0.930 . S
C1205 C1200 1.479 . S
C1205 C1204 1.405 . S
C1205 H1231 0.931 . S
U1206 O1207 2.454 . S
U1206 O1208 2.458 . S
U1206 C1209 2.984 . S
U1206 C1210 2.847 . S
U1206 C1223 2.882 . S
U1206 O1224 2.441 . S
U1206 O1225 2.420 . S
U1206 O1226 2.455 . S
U1206 O1227 2.449 . S
O1207 U1206 2.454 . S
O1207 C1209 1.353 . S
O1208 U1206 2.458 . S
O1208 C1209 1.286 . S
C1209 U1206 2.984 . S
C1209 O1207 1.353 . S
C1209 O1208 1.286 . S
C1209 C1211 1.363 . S
C1210 C1200 1.465 . S
C1210 U1206 2.847 . S
C1210 O1224 1.249 . S
C1210 O1225 1.202 . S
C1211 C1209 1.363 . S
C1211 C1213 1.408 . S
C1211 C1216 1.342 . S
C1212 C1213 1.310 . S
C1212 C1215 1.461 . S
C1212 H1232 0.932 . S
C1213 C1211 1.408 . S
C1213 C1212 1.310 . S
C1213 H1233 0.930 . S
C1214 C1215 1.474 . S
C1214 C1216 1.285 . S
C1214 H1234 0.929 . S
C1215 C1212 1.461 . S
C1215 C1214 1.474 . S
C1216 C1211 1.342 . S
C1216 C1214 1.285 . S
C1216 H1235 0.930 . S
C1217 C1220 1.424 . S
C1217 C1222 1.245 . S
C1217 C1223 1.428 . S
C1218 C1221 1.260 . S
C1218 C1222 1.477 . S
C1218 H1236 0.932 . S
C1219 C1220 1.384 . S
C1219 C1221 1.479 . S
C1219 H1237 0.929 . S
C1220 C1217 1.424 . S
C1220 C1219 1.384 . S
C1220 H1238 0.928 . S
C1221 C1218 1.260 . S
C1221 C1219 1.479 . S
C1222 C1217 1.245 . S
C1222 C1218 1.477 . S
C1222 H1239 0.932 . S
C1223 U1206 2.882 . S
C1223 C1217 1.428 . S
C1223 O1226 1.301 . S
C1223 O1227 1.282 . S
O1224 U1206 2.441 . S
O1224 C1210 1.249 . S
O1225 U1206 2.420 . S
O1225 C1210 1.202 . S
O1226 U1206 2.455 . S
O1226 C1223 1.301 . S
O1227 U1206 2.449 . S
O1227 C1223 1.282 . S
H1228 C1201 0.931 . S
H1229 C1203 0.929 . S
H1230 C1204 0.930 . S
H1231 C1205 0.931 . S
H1232 C1212 0.932 . S
H1233 C1213 0.930 . S
H1234 C1214 0.929 . S
H1235 C1216 0.930 . S
H1236 C1218 0.932 . S
H1237 C1219 0.929 . S
H1238 C1220 0.928 . S
H1239 C1222 0.932 . S
C1240 C1241 1.264 . S
C1240 C1245 1.479 . S
C1240 C1250 1.465 . S
C1241 C1240 1.264 . S
C1241 C1243 1.339 . S
C1241 H1268 0.931 . S
C1242 C1243 1.395 . S
C1242 C1244 1.320 . S
C1243 C1241 1.339 . S
C1243 C1242 1.395 . S
C1243 H1269 0.929 . S
C1244 C1242 1.320 . S
C1244 C1245 1.405 . S
C1244 H1270 0.930 . S
C1245 C1240 1.479 . S
C1245 C1244 1.405 . S
C1245 H1271 0.931 . S
U1246 O1247 2.454 . S
U1246 O1248 2.458 . S
U1246 C1249 2.984 . S
U1246 C1250 2.847 . S
U1246 C1263 2.882 . S
U1246 O1264 2.441 . S
U1246 O1265 2.420 . S
U1246 O1266 2.455 . S
U1246 O1267 2.449 . S
O1247 U1246 2.454 . S
O1247 C1249 1.353 . S
O1248 U1246 2.458 . S
O1248 C1249 1.286 . S
C1249 U1246 2.984 . S
C1249 O1247 1.353 . S
C1249 O1248 1.286 . S
C1249 C1251 1.363 . S
C1250 C1240 1.465 . S
C1250 U1246 2.847 . S
C1250 O1264 1.249 . S
C1250 O1265 1.202 . S
C1251 C1249 1.363 . S
C1251 C1253 1.408 . S
C1251 C1256 1.342 . S
C1252 C1253 1.310 . S
C1252 C1255 1.461 . S
C1252 H1272 0.932 . S
C1253 C1251 1.408 . S
C1253 C1252 1.310 . S
C1253 H1273 0.930 . S
C1254 C1255 1.474 . S
C1254 C1256 1.285 . S
C1254 H1274 0.929 . S
C1255 C1252 1.461 . S
C1255 C1254 1.474 . S
C1256 C1251 1.342 . S
C1256 C1254 1.285 . S
C1256 H1275 0.930 . S
C1257 C1260 1.424 . S
C1257 C1262 1.245 . S
C1257 C1263 1.428 . S
C1258 C1261 1.260 . S
C1258 C1262 1.477 . S
C1258 H1276 0.932 . S
C1259 C1260 1.384 . S
C1259 C1261 1.479 . S
C1259 H1277 0.929 . S
C1260 C1257 1.424 . S
C1260 C1259 1.384 . S
C1260 H1278 0.928 . S
C1261 C1258 1.260 . S
C1261 C1259 1.479 . S
C1262 C1257 1.245 . S
C1262 C1258 1.477 . S
C1262 H1279 0.932 . S
C1263 U1246 2.882 . S
C1263 C1257 1.428 . S
C1263 O1266 1.301 . S
C1263 O1267 1.282 . S
O1264 U1246 2.441 . S
O1264 C1250 1.249 . S
O1265 U1246 2.420 . S
O1265 C1250 1.202 . S
O1266 U1246 2.455 . S
O1266 C1263 1.301 . S
O1267 U1246 2.449 . S
O1267 C1263 1.282 . S
H1268 C1241 0.931 . S
H1269 C1243 0.929 . S
H1270 C1244 0.930 . S
H1271 C1245 0.931 . S
H1272 C1252 0.932 . S
H1273 C1253 0.930 . S
H1274 C1254 0.929 . S
H1275 C1256 0.930 . S
H1276 C1258 0.932 . S
H1277 C1259 0.929 . S
H1278 C1260 0.928 . S
H1279 C1262 0.932 . S
Cu1280 N1281 1.999 . S
Cu1280 O1286 1.974 1_554 S
Cu1280 N1291 1.985 . S
Cu1280 O1300 1.959 . S
N1281 Cu1280 1.999 . S
N1281 C1283 1.263 1_554 S
N1281 C1285 1.389 . S
N1282 C1283 1.358 . S
N1282 C1284 1.400 . S
C1283 N1281 1.263 1_556 S
C1283 N1282 1.358 . S
C1283 H1289 0.930 . S
C1284 N1282 1.400 . S
C1284 C1285 1.351 1_556 S
C1284 H1301 0.930 . S
C1285 N1281 1.389 . S
C1285 C1284 1.351 1_554 S
C1285 H1290 0.930 . S
O1286 Cu1280 1.974 1_556 S
O1286 C1296 1.282 . S
C1287 O1288 1.261 . S
C1287 O1300 1.251 . S
O1288 C1287 1.261 . S
H1289 C1283 0.930 . S
H1290 C1285 0.930 . S
N1291 Cu1280 1.985 . S
N1291 C1293 1.335 . S
N1291 C1294 1.390 . S
N1292 C1293 1.345 . S
N1292 C1295 1.336 . S
C1293 N1291 1.335 . S
C1293 N1292 1.345 . S
C1293 H1298 0.930 . S
C1294 N1291 1.390 . S
C1294 C1295 1.346 . S
C1294 H1299 0.930 . S
C1295 N1292 1.336 . S
C1295 C1294 1.346 . S
C1295 H1302 0.929 . S
C1296 O1286 1.282 . S
C1296 O1297 1.216 . S
O1297 C1296 1.216 . S
H1298 C1293 0.930 . S
H1299 C1294 0.930 . S
O1300 Cu1280 1.959 . S
O1300 C1287 1.251 . S
H1301 C1284 0.930 . S
H1302 C1295 0.929 . S
Cu1303 N1304 1.999 . S
Cu1303 O1309 1.974 . S
Cu1303 N1314 1.985 1_554 S
Cu1303 O1323 1.959 1_554 S
N1304 Cu1303 1.999 . S
N1304 C1306 1.263 . S
N1304 C1308 1.389 . S
N1305 C1306 1.358 . S
N1305 C1307 1.400 . S
C1306 N1304 1.263 . S
C1306 N1305 1.358 . S
C1306 H1312 0.930 . S
C1307 N1305 1.400 . S
C1307 C1308 1.351 . S
C1307 H1324 0.930 . S
C1308 N1304 1.389 . S
C1308 C1307 1.351 . S
C1308 H1313 0.930 . S
O1309 Cu1303 1.974 . S
O1309 C1319 1.282 . S
C1310 O1311 1.261 . S
C1310 O1323 1.251 . S
O1311 C1310 1.261 . S
H1312 C1306 0.930 . S
H1313 C1308 0.930 . S
N1314 Cu1303 1.985 1_556 S
N1314 C1316 1.335 . S
N1314 C1317 1.389 1_556 S
N1315 C1316 1.345 . S
N1315 C1318 1.336 . S
C1316 N1314 1.335 . S
C1316 N1315 1.345 . S
C1316 H1321 0.930 . S
C1317 N1314 1.389 1_554 S
C1317 C1318 1.341 1_554 S
C1317 H1322 0.936 . S
C1318 N1315 1.336 . S
C1318 C1317 1.341 1_556 S
C1318 H1325 0.929 . S
C1319 O1309 1.282 . S
C1319 O1320 1.216 . S
O1320 C1319 1.216 . S
H1321 C1316 0.930 . S
H1322 C1317 0.936 . S
O1323 Cu1303 1.959 1_556 S
O1323 C1310 1.251 . S
H1324 C1307 0.930 . S
H1325 C1318 0.929 . S
Cu1326 N1327 1.957 1_554 S
Cu1326 O1332 1.922 1_554 S
Cu1326 N1337 2.027 . S
Cu1326 O1346 2.011 . S
N1327 Cu1326 1.957 1_556 S
N1327 C1329 1.263 . S
N1327 C1331 1.389 . S
N1328 C1329 1.358 . S
N1328 C1330 1.400 . S
C1329 N1327 1.263 . S
C1329 N1328 1.358 . S
C1329 H1335 0.930 . S
C1330 N1328 1.400 . S
C1330 C1331 1.351 . S
C1330 H1347 0.930 . S
C1331 N1327 1.389 . S
C1331 C1330 1.351 . S
C1331 H1336 1.004 . S
O1332 Cu1326 1.922 1_556 S
O1332 C1342 1.282 . S
C1333 O1334 1.261 . S
C1333 O1346 1.251 . S
O1334 C1333 1.261 . S
H1335 C1329 0.930 . S
H1336 C1331 1.004 . S
N1337 Cu1326 2.027 . S
N1337 C1339 1.335 . S
N1337 C1340 1.390 . S
N1338 C1339 1.345 . S
N1338 C1341 1.336 . S
C1339 N1337 1.335 . S
C1339 N1338 1.345 . S
C1339 H1344 0.930 . S
C1340 N1337 1.390 . S
C1340 C1341 1.346 . S
C1340 H1345 0.976 . S
C1341 N1338 1.336 . S
C1341 C1340 1.346 . S
C1341 H1348 0.929 . S
C1342 O1332 1.282 . S
C1342 O1343 1.216 . S
O1343 C1342 1.216 . S
H1344 C1339 0.930 . S
H1345 C1340 0.976 . S
O1346 Cu1326 2.011 . S
O1346 C1333 1.251 . S
H1347 C1330 0.930 . S
H1348 C1341 0.929 . S
Cu1349 N1350 1.999 . S
Cu1349 O1355 1.974 . S
Cu1349 N1360 1.985 1_554 S
Cu1349 O1369 1.959 1_554 S
N1350 Cu1349 1.999 . S
N1350 C1352 1.263 . S
N1350 C1354 1.389 . S
N1351 C1352 1.358 . S
N1351 C1353 1.400 . S
C1352 N1350 1.263 . S
C1352 N1351 1.358 . S
C1352 H1358 0.930 . S
C1353 N1351 1.400 . S
C1353 C1354 1.351 . S
C1353 H1370 0.930 . S
C1354 N1350 1.389 . S
C1354 C1353 1.351 . S
C1354 H1359 0.930 . S
O1355 Cu1349 1.974 . S
O1355 C1365 1.282 . S
C1356 O1357 1.261 . S
C1356 O1369 1.251 . S
O1357 C1356 1.261 . S
H1358 C1352 0.930 . S
H1359 C1354 0.930 . S
N1360 Cu1349 1.985 1_556 S
N1360 C1362 1.335 . S
N1360 C1363 1.390 . S
N1361 C1362 1.345 . S
N1361 C1364 1.336 . S
C1362 N1360 1.335 . S
C1362 N1361 1.345 . S
C1362 H1367 0.930 . S
C1363 N1360 1.390 . S
C1363 C1364 1.346 . S
C1363 H1368 0.930 1_556 S
C1364 N1361 1.336 . S
C1364 C1363 1.346 . S
C1364 H1371 0.929 . S
C1365 O1355 1.282 . S
C1365 O1366 1.216 . S
O1366 C1365 1.216 . S
H1367 C1362 0.930 . S
H1368 C1363 0.930 1_554 S
O1369 Cu1349 1.959 1_556 S
O1369 C1356 1.251 . S
H1370 C1353 0.930 . S
H1371 C1364 0.929 . S
Cu1372 N1373 1.999 . S
Cu1372 O1378 1.974 . S
Cu1372 N1383 1.985 1_455 S
Cu1372 O1392 1.959 1_455 S
N1373 Cu1372 1.999 . S
N1373 C1375 1.263 . S
N1373 C1377 1.389 . S
N1374 C1375 1.358 . S
N1374 C1376 1.400 . S
C1375 N1373 1.263 . S
C1375 N1374 1.358 . S
C1375 H1381 0.930 . S
C1376 N1374 1.400 . S
C1376 C1377 1.351 . S
C1376 H1393 0.930 . S
C1377 N1373 1.389 . S
C1377 C1376 1.351 . S
C1377 H1382 0.930 . S
O1378 Cu1372 1.974 . S
O1378 C1388 1.282 . S
C1379 O1380 1.261 . S
C1379 O1392 1.251 . S
O1380 C1379 1.261 . S
H1381 C1375 0.930 . S
H1382 C1377 0.930 . S
N1383 Cu1372 1.985 1_655 S
N1383 C1385 1.335 . S
N1383 C1386 1.390 1_655 S
N1384 C1385 1.345 . S
N1384 C1387 1.336 . S
C1385 N1383 1.335 . S
C1385 N1384 1.345 . S
C1385 H1390 0.930 . S
C1386 N1383 1.390 1_455 S
C1386 C1387 1.346 1_455 S
C1386 H1391 0.930 . S
C1387 N1384 1.336 . S
C1387 C1386 1.346 1_655 S
C1387 H1394 0.929 . S
C1388 O1378 1.282 . S
C1388 O1389 1.216 . S
O1389 C1388 1.216 . S
H1390 C1385 0.930 . S
H1391 C1386 0.930 . S
O1392 Cu1372 1.959 1_655 S
O1392 C1379 1.251 . S
H1393 C1376 0.930 . S
H1394 C1387 0.929 . S
Cu1395 N1396 1.999 . S
Cu1395 O1401 1.974 . S
Cu1395 N1406 1.985 1_545 S
Cu1395 O1415 1.959 1_545 S
N1396 Cu1395 1.999 . S
N1396 C1398 1.263 . S
N1396 C1400 1.389 . S
N1397 C1398 1.358 . S
N1397 C1399 1.400 . S
C1398 N1396 1.263 . S
C1398 N1397 1.358 . S
C1398 H1404 0.930 . S
C1399 N1397 1.400 . S
C1399 C1400 1.351 . S
C1399 H1416 0.930 . S
C1400 N1396 1.389 . S
C1400 C1399 1.351 . S
C1400 H1405 0.930 . S
O1401 Cu1395 1.974 . S
O1401 C1411 1.282 . S
C1402 O1403 1.261 . S
C1402 O1415 1.251 . S
O1403 C1402 1.261 . S
H1404 C1398 0.930 . S
H1405 C1400 0.930 . S
N1406 Cu1395 1.985 1_565 S
N1406 C1408 1.335 . S
N1406 C1409 1.390 . S
N1407 C1408 1.345 . S
N1407 C1410 1.336 . S
C1408 N1406 1.335 . S
C1408 N1407 1.345 . S
C1408 H1413 0.930 . S
C1409 N1406 1.390 . S
C1409 C1410 1.346 . S
C1409 H1414 0.930 1_565 S
C1410 N1407 1.336 . S
C1410 C1409 1.346 . S
C1410 H1417 0.929 . S
C1411 O1401 1.282 . S
C1411 O1412 1.216 . S
O1412 C1411 1.216 . S
H1413 C1408 0.930 . S
H1414 C1409 0.930 1_545 S
O1415 Cu1395 1.959 1_565 S
O1415 C1402 1.251 . S
H1416 C1399 0.930 . S
H1417 C1410 0.929 . S
Cu1418 N1419 1.996 . S
Cu1418 O1424 1.970 . S
Cu1418 N1429 1.988 1_655 S
Cu1418 O1438 1.963 1_655 S
N1419 Cu1418 1.996 . S
N1419 C1421 1.263 . S
N1419 C1423 1.389 . S
N1420 C1421 1.358 . S
N1420 C1422 1.400 . S
C1421 N1419 1.263 . S
C1421 N1420 1.358 . S
C1421 H1427 0.930 . S
C1422 N1420 1.400 . S
C1422 C1423 1.351 . S
C1422 H1439 0.930 . S
C1423 N1419 1.389 . S
C1423 C1422 1.351 . S
C1423 H1428 0.930 . S
O1424 Cu1418 1.970 . S
O1424 C1434 1.282 . S
C1425 O1426 1.261 . S
C1425 O1438 1.251 . S
O1426 C1425 1.261 . S
H1427 C1421 0.930 . S
H1428 C1423 0.930 . S
N1429 Cu1418 1.988 1_455 S
N1429 C1431 1.335 . S
N1429 C1432 1.390 . S
N1430 C1431 1.345 . S
N1430 C1433 1.336 . S
C1431 N1429 1.335 . S
C1431 N1430 1.345 . S
C1431 H1436 0.930 . S
C1432 N1429 1.390 . S
C1432 C1433 1.346 . S
C1432 H1437 0.930 . S
C1433 N1430 1.336 . S
C1433 C1432 1.346 . S
C1433 H1440 0.929 . S
C1434 O1424 1.282 . S
C1434 O1435 1.216 . S
O1435 C1434 1.216 . S
H1436 C1431 0.930 . S
H1437 C1432 0.930 . S
O1438 Cu1418 1.963 1_455 S
O1438 C1425 1.251 . S
H1439 C1422 0.930 . S
H1440 C1433 0.929 . S
Cu1441 N1442 1.996 1_565 S
Cu1441 O1447 1.970 1_565 S
Cu1441 N1452 1.988 . S
Cu1441 O1461 1.963 . S
N1442 Cu1441 1.996 1_545 S
N1442 C1444 1.263 . S
N1442 C1446 1.389 . S
N1443 C1444 1.358 . S
N1443 C1445 1.400 . S
C1444 N1442 1.263 . S
C1444 N1443 1.358 . S
C1444 H1450 0.930 . S
C1445 N1443 1.400 . S
C1445 C1446 1.351 . S
C1445 H1462 0.930 . S
C1446 N1442 1.389 . S
C1446 C1445 1.351 . S
C1446 H1451 0.930 . S
O1447 Cu1441 1.970 1_545 S
O1447 C1457 1.282 . S
C1448 O1449 1.261 . S
C1448 O1461 1.251 . S
O1449 C1448 1.261 . S
H1450 C1444 0.930 . S
H1451 C1446 0.930 . S
N1452 Cu1441 1.988 . S
N1452 C1454 1.335 . S
N1452 C1455 1.390 . S
N1453 C1454 1.345 . S
N1453 C1456 1.336 . S
C1454 N1452 1.335 . S
C1454 N1453 1.345 . S
C1454 H1459 0.930 . S
C1455 N1452 1.390 . S
C1455 C1456 1.346 . S
C1455 H1460 0.930 . S
C1456 N1453 1.336 . S
C1456 C1455 1.346 . S
C1456 H1463 0.929 . S
C1457 O1447 1.282 . S
C1457 O1458 1.216 . S
O1458 C1457 1.216 . S
H1459 C1454 0.930 . S
H1460 C1455 0.930 . S
O1461 Cu1441 1.963 . S
O1461 C1448 1.251 . S
H1462 C1445 0.930 . S
H1463 C1456 0.929 . S
Cu1464 N1465 1.999 . S
Cu1464 O1470 1.974 . S
Cu1464 N1475 1.985 1_455 S
Cu1464 O1484 1.959 1_455 S
N1465 Cu1464 1.999 . S
N1465 C1467 1.263 . S
N1465 C1469 1.389 . S
N1466 C1467 1.358 . S
N1466 C1468 1.400 . S
C1467 N1465 1.263 . S
C1467 N1466 1.358 . S
C1467 H1473 0.930 . S
C1468 N1466 1.400 . S
C1468 C1469 1.351 . S
C1468 H1485 0.930 . S
C1469 N1465 1.389 . S
C1469 C1468 1.351 . S
C1469 H1474 0.930 . S
O1470 Cu1464 1.974 . S
O1470 C1480 1.282 . S
C1471 O1472 1.261 . S
C1471 O1484 1.251 . S
O1472 C1471 1.261 . S
H1473 C1467 0.930 . S
H1474 C1469 0.930 . S
N1475 Cu1464 1.985 1_655 S
N1475 C1477 1.335 . S
N1475 C1478 1.390 1_655 S
N1476 C1477 1.345 . S
N1476 C1479 1.336 . S
C1477 N1475 1.335 . S
C1477 N1476 1.345 . S
C1477 H1482 0.930 . S
C1478 N1475 1.390 1_455 S
C1478 C1479 1.346 1_455 S
C1478 H1483 0.930 . S
C1479 N1476 1.336 . S
C1479 C1478 1.346 1_655 S
C1479 H1486 0.929 . S
C1480 O1470 1.282 . S
C1480 O1481 1.216 . S
O1481 C1480 1.216 . S
H1482 C1477 0.930 . S
H1483 C1478 0.930 . S
O1484 Cu1464 1.959 1_655 S
O1484 C1471 1.251 . S
H1485 C1468 0.930 . S
H1486 C1479 0.929 . S
Cu1487 N1488 1.999 . S
Cu1487 O1493 1.974 . S
Cu1487 N1498 1.985 1_545 S
Cu1487 O1507 1.959 1_545 S
N1488 Cu1487 1.999 . S
N1488 C1490 1.263 . S
N1488 C1492 1.389 . S
N1489 C1490 1.358 . S
N1489 C1491 1.400 . S
C1490 N1488 1.263 . S
C1490 N1489 1.358 . S
C1490 H1496 0.930 . S
C1491 N1489 1.400 . S
C1491 C1492 1.351 . S
C1491 H1508 0.930 . S
C1492 N1488 1.389 . S
C1492 C1491 1.351 . S
C1492 H1497 0.930 . S
O1493 Cu1487 1.974 . S
O1493 C1503 1.282 . S
C1494 O1495 1.261 . S
C1494 O1507 1.251 . S
O1495 C1494 1.261 . S
H1496 C1490 0.930 . S
H1497 C1492 0.930 . S
N1498 Cu1487 1.985 1_565 S
N1498 C1500 1.335 . S
N1498 C1501 1.395 . S
N1499 C1500 1.345 . S
N1499 C1502 1.336 . S
C1500 N1498 1.335 . S
C1500 N1499 1.345 . S
C1500 H1505 0.930 . S
C1501 N1498 1.395 . S
C1501 C1502 1.370 . S
C1501 H1506 0.906 1_565 S
C1502 N1499 1.336 . S
C1502 C1501 1.370 . S
C1502 H1509 0.929 . S
C1503 O1493 1.282 . S
C1503 O1504 1.216 . S
O1504 C1503 1.216 . S
H1505 C1500 0.930 . S
H1506 C1501 0.906 1_545 S
O1507 Cu1487 1.959 1_565 S
O1507 C1494 1.251 . S
H1508 C1491 0.930 . S
H1509 C1502 0.929 . S
Cu1510 N1511 1.999 . S
Cu1510 O1516 1.974 . S
Cu1510 N1521 1.985 . S
Cu1510 O1530 1.959 . S
N1511 Cu1510 1.999 . S
N1511 C1513 1.263 1_455 S
N1511 C1515 1.389 . S
N1512 C1513 1.358 . S
N1512 C1514 1.400 . S
C1513 N1511 1.263 1_655 S
C1513 N1512 1.358 . S
C1513 H1519 0.930 . S
C1514 N1512 1.400 . S
C1514 C1515 1.351 1_655 S
C1514 H1531 0.930 . S
C1515 N1511 1.389 . S
C1515 C1514 1.351 1_455 S
C1515 H1520 0.930 . S
O1516 Cu1510 1.974 . S
O1516 C1526 1.282 1_455 S
C1517 O1518 1.261 . S
C1517 O1530 1.251 . S
O1518 C1517 1.261 . S
H1519 C1513 0.930 . S
H1520 C1515 0.930 . S
N1521 Cu1510 1.985 . S
N1521 C1523 1.335 . S
N1521 C1524 1.390 . S
N1522 C1523 1.345 . S
N1522 C1525 1.336 . S
C1523 N1521 1.335 . S
C1523 N1522 1.345 . S
C1523 H1528 0.930 . S
C1524 N1521 1.390 . S
C1524 C1525 1.346 . S
C1524 H1529 0.930 . S
C1525 N1522 1.336 . S
C1525 C1524 1.346 . S
C1525 H1532 0.929 . S
C1526 O1516 1.282 1_655 S
C1526 O1527 1.216 1_655 S
O1527 C1526 1.216 1_455 S
H1528 C1523 0.930 . S
H1529 C1524 0.930 . S
O1530 Cu1510 1.959 . S
O1530 C1517 1.251 . S
H1531 C1514 0.930 . S
H1532 C1525 0.929 . S
Cu1533 N1534 1.999 . S
Cu1533 O1539 1.974 . S
Cu1533 N1544 2.027 . S
Cu1533 O1553 1.959 1_545 S
N1534 Cu1533 1.999 . S
N1534 C1536 1.263 . S
N1534 C1538 1.389 . S
N1535 C1536 1.358 . S
N1535 C1537 1.400 . S
C1536 N1534 1.263 . S
C1536 N1535 1.358 . S
C1536 H1542 0.930 . S
C1537 N1535 1.400 . S
C1537 C1538 1.351 . S
C1537 H1554 0.930 . S
C1538 N1534 1.389 . S
C1538 C1537 1.351 . S
C1538 H1543 0.930 . S
O1539 Cu1533 1.974 . S
O1539 C1549 1.282 . S
C1540 O1541 1.264 1_565 S
C1540 O1553 1.251 . S
O1541 C1540 1.264 1_545 S
H1542 C1536 0.930 . S
H1543 C1538 0.930 . S
N1544 Cu1533 2.027 . S
N1544 C1546 1.269 1_545 S
N1544 C1547 1.407 . S
N1545 C1546 1.345 . S
N1545 C1548 1.336 . S
C1546 N1544 1.269 1_565 S
C1546 N1545 1.345 . S
C1546 H1551 0.930 . S
C1547 N1544 1.407 . S
C1547 C1548 1.346 1_545 S
C1547 H1552 0.930 . S
C1548 N1545 1.336 . S
C1548 C1547 1.346 1_565 S
C1548 H1555 0.929 . S
C1549 O1539 1.282 . S
C1549 O1550 1.216 . S
O1550 C1549 1.216 . S
H1551 C1546 0.930 . S
H1552 C1547 0.930 . S
O1553 Cu1533 1.959 1_565 S
O1553 C1540 1.251 . S
H1554 C1537 0.930 . S
H1555 C1548 0.929 . S
Cu1556 N1557 1.999 . S
Cu1556 O1562 1.974 . S
Cu1556 N1567 1.985 . S
Cu1556 O1576 1.959 . S
N1557 Cu1556 1.999 . S
N1557 C1559 1.263 . S
N1557 C1561 1.389 . S
N1558 C1559 1.358 . S
N1558 C1560 1.400 . S
C1559 N1557 1.263 . S
C1559 N1558 1.358 . S
C1559 H1565 0.930 . S
C1560 N1558 1.400 . S
C1560 C1561 1.351 . S
C1560 H1577 0.930 . S
C1561 N1557 1.389 . S
C1561 C1560 1.351 . S
C1561 H1566 0.930 . S
O1562 Cu1556 1.974 . S
O1562 C1572 1.282 . S
C1563 O1564 1.261 . S
C1563 O1576 1.251 . S
O1564 C1563 1.261 . S
H1565 C1559 0.930 . S
H1566 C1561 0.930 . S
N1567 Cu1556 1.985 . S
N1567 C1569 1.335 . S
N1567 C1570 1.390 . S
N1568 C1569 1.345 . S
N1568 C1571 1.336 . S
C1569 N1567 1.335 . S
C1569 N1568 1.345 . S
C1569 H1574 0.930 . S
C1570 N1567 1.390 . S
C1570 C1571 1.346 . S
C1570 H1575 0.930 . S
C1571 N1568 1.336 . S
C1571 C1570 1.346 . S
C1571 H1578 0.929 . S
C1572 O1562 1.282 . S
C1572 O1573 1.216 . S
O1573 C1572 1.216 . S
H1574 C1569 0.930 . S
H1575 C1570 0.930 . S
O1576 Cu1556 1.959 . S
O1576 C1563 1.251 . S
H1577 C1560 0.930 . S
H1578 C1571 0.929 . S
Cu1579 N1580 1.999 . S
Cu1579 O1585 1.974 . S
Cu1579 N1590 1.985 . S
Cu1579 O1599 1.959 . S
N1580 Cu1579 1.999 . S
N1580 C1582 1.263 . S
N1580 C1584 1.389 . S
N1581 C1582 1.358 . S
N1581 C1583 1.400 . S
C1582 N1580 1.263 . S
C1582 N1581 1.358 . S
C1582 H1588 0.930 . S
C1583 N1581 1.400 . S
C1583 C1584 1.351 . S
C1583 H1600 0.930 . S
C1584 N1580 1.389 . S
C1584 C1583 1.351 . S
C1584 H1589 0.930 . S
O1585 Cu1579 1.974 . S
O1585 C1595 1.282 . S
C1586 O1587 1.261 . S
C1586 O1599 1.251 . S
O1587 C1586 1.261 . S
H1588 C1582 0.930 . S
H1589 C1584 0.930 . S
N1590 Cu1579 1.985 . S
N1590 C1592 1.335 . S
N1590 C1593 1.390 . S
N1591 C1592 1.345 . S
N1591 C1594 1.336 . S
C1592 N1590 1.335 . S
C1592 N1591 1.345 . S
C1592 H1597 0.930 . S
C1593 N1590 1.390 . S
C1593 C1594 1.346 . S
C1593 H1598 0.930 . S
C1594 N1591 1.336 . S
C1594 C1593 1.346 . S
C1594 H1601 0.929 . S
C1595 O1585 1.282 . S
C1595 O1596 1.216 . S
O1596 C1595 1.216 . S
H1597 C1592 0.930 . S
H1598 C1593 0.930 . S
O1599 Cu1579 1.959 . S
O1599 C1586 1.251 . S
H1600 C1583 0.930 . S
H1601 C1594 0.929 . S
Cu1602 N1603 1.999 . S
Cu1602 O1608 1.974 . S
Cu1602 N1613 1.985 . S
Cu1602 O1622 1.959 . S
N1603 Cu1602 1.999 . S
N1603 C1605 1.263 . S
N1603 C1607 1.389 . S
N1604 C1605 1.358 . S
N1604 C1606 1.400 . S
C1605 N1603 1.263 . S
C1605 N1604 1.358 . S
C1605 H1611 0.930 . S
C1606 N1604 1.400 . S
C1606 C1607 1.351 . S
C1606 H1623 0.930 . S
C1607 N1603 1.389 . S
C1607 C1606 1.351 . S
C1607 H1612 0.930 . S
O1608 Cu1602 1.974 . S
O1608 C1618 1.282 . S
C1609 O1610 1.261 . S
C1609 O1622 1.251 . S
O1610 C1609 1.261 . S
H1611 C1605 0.930 . S
H1612 C1607 0.930 . S
N1613 Cu1602 1.985 . S
N1613 C1615 1.335 . S
N1613 C1616 1.390 . S
N1614 C1615 1.345 . S
N1614 C1617 1.336 . S
C1615 N1613 1.335 . S
C1615 N1614 1.345 . S
C1615 H1620 0.930 . S
C1616 N1613 1.390 . S
C1616 C1617 1.346 . S
C1616 H1621 0.930 . S
C1617 N1614 1.336 . S
C1617 C1616 1.346 . S
C1617 H1624 0.929 . S
C1618 O1608 1.282 . S
C1618 O1619 1.216 . S
O1619 C1618 1.216 . S
H1620 C1615 0.930 . S
H1621 C1616 0.930 . S
O1622 Cu1602 1.959 . S
O1622 C1609 1.251 . S
H1623 C1606 0.930 . S
H1624 C1617 0.929 . S
Cu1625 N1626 1.999 . S
Cu1625 O1631 1.974 . S
Cu1625 N1636 1.985 . S
Cu1625 O1645 1.959 . S
N1626 Cu1625 1.999 . S
N1626 C1628 1.263 . S
N1626 C1630 1.389 . S
N1627 C1628 1.358 . S
N1627 C1629 1.400 . S
C1628 N1626 1.263 . S
C1628 N1627 1.358 . S
C1628 H1634 0.930 . S
C1629 N1627 1.400 . S
C1629 C1630 1.351 . S
C1629 H1646 0.930 . S
C1630 N1626 1.389 . S
C1630 C1629 1.351 . S
C1630 H1635 0.930 . S
O1631 Cu1625 1.974 . S
O1631 C1641 1.282 . S
C1632 O1633 1.261 . S
C1632 O1645 1.251 . S
O1633 C1632 1.261 . S
H1634 C1628 0.930 . S
H1635 C1630 0.930 . S
N1636 Cu1625 1.985 . S
N1636 C1638 1.335 . S
N1636 C1639 1.390 . S
N1637 C1638 1.345 . S
N1637 C1640 1.336 . S
C1638 N1636 1.335 . S
C1638 N1637 1.345 . S
C1638 H1643 0.930 . S
C1639 N1636 1.390 . S
C1639 C1640 1.346 . S
C1639 H1644 0.930 . S
C1640 N1637 1.336 . S
C1640 C1639 1.346 . S
C1640 H1647 0.929 . S
C1641 O1631 1.282 . S
C1641 O1642 1.216 . S
O1642 C1641 1.216 . S
H1643 C1638 0.930 . S
H1644 C1639 0.930 . S
O1645 Cu1625 1.959 . S
O1645 C1632 1.251 . S
H1646 C1629 0.930 . S
H1647 C1640 0.929 . S
Cu1648 N1649 1.999 . S
Cu1648 O1654 1.974 . S
Cu1648 N1659 1.985 . S
Cu1648 O1668 1.959 . S
N1649 Cu1648 1.999 . S
N1649 C1651 1.263 . S
N1649 C1653 1.389 . S
N1650 C1651 1.358 . S
N1650 C1652 1.400 . S
C1651 N1649 1.263 . S
C1651 N1650 1.358 . S
C1651 H1657 0.930 . S
C1652 N1650 1.400 . S
C1652 C1653 1.351 . S
C1652 H1669 0.930 . S
C1653 N1649 1.389 . S
C1653 C1652 1.351 . S
C1653 H1658 0.930 . S
O1654 Cu1648 1.974 . S
O1654 C1664 1.282 . S
C1655 O1656 1.261 . S
C1655 O1668 1.251 . S
O1656 C1655 1.261 . S
H1657 C1651 0.930 . S
H1658 C1653 0.930 . S
N1659 Cu1648 1.985 . S
N1659 C1661 1.335 . S
N1659 C1662 1.390 . S
N1660 C1661 1.345 . S
N1660 C1663 1.336 . S
C1661 N1659 1.335 . S
C1661 N1660 1.345 . S
C1661 H1666 0.930 . S
C1662 N1659 1.390 . S
C1662 C1663 1.346 . S
C1662 H1667 0.930 . S
C1663 N1660 1.336 . S
C1663 C1662 1.346 . S
C1663 H1670 0.929 . S
C1664 O1654 1.282 . S
C1664 O1665 1.216 . S
O1665 C1664 1.216 . S
H1666 C1661 0.930 . S
H1667 C1662 0.930 . S
O1668 Cu1648 1.959 . S
O1668 C1655 1.251 . S
H1669 C1652 0.930 . S
H1670 C1663 0.929 . S
Cu1671 N1672 1.999 . S
Cu1671 O1677 1.974 . S
Cu1671 N1682 1.985 . S
Cu1671 O1691 1.959 . S
N1672 Cu1671 1.999 . S
N1672 C1674 1.263 . S
N1672 C1676 1.389 . S
N1673 C1674 1.358 . S
N1673 C1675 1.400 . S
C1674 N1672 1.263 . S
C1674 N1673 1.358 . S
C1674 H1680 0.930 . S
C1675 N1673 1.400 . S
C1675 C1676 1.351 . S
C1675 H1692 0.930 . S
C1676 N1672 1.389 . S
C1676 C1675 1.351 . S
C1676 H1681 0.930 . S
O1677 Cu1671 1.974 . S
O1677 C1687 1.282 . S
C1678 O1679 1.261 . S
C1678 O1691 1.251 . S
O1679 C1678 1.261 . S
H1680 C1674 0.930 . S
H1681 C1676 0.930 . S
N1682 Cu1671 1.985 . S
N1682 C1684 1.335 . S
N1682 C1685 1.390 . S
N1683 C1684 1.345 . S
N1683 C1686 1.336 . S
C1684 N1682 1.335 . S
C1684 N1683 1.345 . S
C1684 H1689 0.930 . S
C1685 N1682 1.390 . S
C1685 C1686 1.346 . S
C1685 H1690 0.930 . S
C1686 N1683 1.336 . S
C1686 C1685 1.346 . S
C1686 H1693 0.929 . S
C1687 O1677 1.282 . S
C1687 O1688 1.216 . S
O1688 C1687 1.216 . S
H1689 C1684 0.930 . S
H1690 C1685 0.930 . S
O1691 Cu1671 1.959 . S
O1691 C1678 1.251 . S
H1692 C1675 0.930 . S
H1693 C1686 0.929 . S
Cu1694 N1695 1.999 . S
Cu1694 O1700 1.974 . S
Cu1694 N1705 1.985 . S
Cu1694 O1714 1.959 . S
N1695 Cu1694 1.999 . S
N1695 C1697 1.263 . S
N1695 C1699 1.389 . S
N1696 C1697 1.358 . S
N1696 C1698 1.400 . S
C1697 N1695 1.263 . S
C1697 N1696 1.358 . S
C1697 H1703 0.930 . S
C1698 N1696 1.400 . S
C1698 C1699 1.351 . S
C1698 H1715 0.930 . S
C1699 N1695 1.389 . S
C1699 C1698 1.351 . S
C1699 H1704 0.930 . S
O1700 Cu1694 1.974 . S
O1700 C1710 1.282 . S
C1701 O1702 1.261 . S
C1701 O1714 1.251 . S
O1702 C1701 1.261 . S
H1703 C1697 0.930 . S
H1704 C1699 0.930 . S
N1705 Cu1694 1.985 . S
N1705 C1707 1.335 . S
N1705 C1708 1.390 . S
N1706 C1707 1.345 . S
N1706 C1709 1.336 . S
C1707 N1705 1.335 . S
C1707 N1706 1.345 . S
C1707 H1712 0.930 . S
C1708 N1705 1.390 . S
C1708 C1709 1.346 . S
C1708 H1713 0.930 . S
C1709 N1706 1.336 . S
C1709 C1708 1.346 . S
C1709 H1716 0.929 . S
C1710 O1700 1.282 . S
C1710 O1711 1.216 . S
O1711 C1710 1.216 . S
H1712 C1707 0.930 . S
H1713 C1708 0.930 . S
O1714 Cu1694 1.959 . S
O1714 C1701 1.251 . S
H1715 C1698 0.930 . S
H1716 C1709 0.929 . S
Cu1717 N1718 1.999 . S
Cu1717 O1723 1.974 . S
Cu1717 N1728 1.985 . S
Cu1717 O1737 1.959 . S
N1718 Cu1717 1.999 . S
N1718 C1720 1.263 . S
N1718 C1722 1.389 . S
N1719 C1720 1.358 . S
N1719 C1721 1.400 . S
C1720 N1718 1.263 . S
C1720 N1719 1.358 . S
C1720 H1726 0.930 . S
C1721 N1719 1.400 . S
C1721 C1722 1.351 . S
C1721 H1738 0.930 . S
C1722 N1718 1.389 . S
C1722 C1721 1.351 . S
C1722 H1727 0.930 . S
O1723 Cu1717 1.974 . S
O1723 C1733 1.282 . S
C1724 O1725 1.261 . S
C1724 O1737 1.251 . S
O1725 C1724 1.261 . S
H1726 C1720 0.930 . S
H1727 C1722 0.930 . S
N1728 Cu1717 1.985 . S
N1728 C1730 1.335 . S
N1728 C1731 1.390 . S
N1729 C1730 1.345 . S
N1729 C1732 1.336 . S
C1730 N1728 1.335 . S
C1730 N1729 1.345 . S
C1730 H1735 0.930 . S
C1731 N1728 1.390 . S
C1731 C1732 1.346 . S
C1731 H1736 0.930 . S
C1732 N1729 1.336 . S
C1732 C1731 1.346 . S
C1732 H1739 0.929 . S
C1733 O1723 1.282 . S
C1733 O1734 1.216 . S
O1734 C1733 1.216 . S
H1735 C1730 0.930 . S
H1736 C1731 0.930 . S
O1737 Cu1717 1.959 . S
O1737 C1724 1.251 . S
H1738 C1721 0.930 . S
H1739 C1732 0.929 . S
Cu1740 N1741 1.999 . S
Cu1740 O1746 1.974 . S
Cu1740 N1751 1.985 . S
Cu1740 O1760 1.959 . S
N1741 Cu1740 1.999 . S
N1741 C1743 1.263 . S
N1741 C1745 1.389 . S
N1742 C1743 1.358 . S
N1742 C1744 1.400 . S
C1743 N1741 1.263 . S
C1743 N1742 1.358 . S
C1743 H1749 0.930 . S
C1744 N1742 1.400 . S
C1744 C1745 1.351 . S
C1744 H1761 0.930 . S
C1745 N1741 1.389 . S
C1745 C1744 1.351 . S
C1745 H1750 0.930 . S
O1746 Cu1740 1.974 . S
O1746 C1756 1.282 . S
C1747 O1748 1.261 . S
C1747 O1760 1.251 . S
O1748 C1747 1.261 . S
H1749 C1743 0.930 . S
H1750 C1745 0.930 . S
N1751 Cu1740 1.985 . S
N1751 C1753 1.335 . S
N1751 C1754 1.390 . S
N1752 C1753 1.345 . S
N1752 C1755 1.336 . S
C1753 N1751 1.335 . S
C1753 N1752 1.345 . S
C1753 H1758 0.930 . S
C1754 N1751 1.390 . S
C1754 C1755 1.346 . S
C1754 H1759 0.930 . S
C1755 N1752 1.336 . S
C1755 C1754 1.346 . S
C1755 H1762 0.929 . S
C1756 O1746 1.282 . S
C1756 O1757 1.216 . S
O1757 C1756 1.216 . S
H1758 C1753 0.930 . S
H1759 C1754 0.930 . S
O1760 Cu1740 1.959 . S
O1760 C1747 1.251 . S
H1761 C1744 0.930 . S
H1762 C1755 0.929 . S
Cu1763 N1764 1.999 . S
Cu1763 O1769 1.974 . S
Cu1763 N1774 1.985 . S
Cu1763 O1783 1.959 . S
N1764 Cu1763 1.999 . S
N1764 C1766 1.263 . S
N1764 C1768 1.389 . S
N1765 C1766 1.358 . S
N1765 C1767 1.400 . S
C1766 N1764 1.263 . S
C1766 N1765 1.358 . S
C1766 H1772 0.930 . S
C1767 N1765 1.400 . S
C1767 C1768 1.351 . S
C1767 H1784 0.930 . S
C1768 N1764 1.389 . S
C1768 C1767 1.351 . S
C1768 H1773 0.930 . S
O1769 Cu1763 1.974 . S
O1769 C1779 1.282 . S
C1770 O1771 1.261 . S
C1770 O1783 1.251 . S
O1771 C1770 1.261 . S
H1772 C1766 0.930 . S
H1773 C1768 0.930 . S
N1774 Cu1763 1.985 . S
N1774 C1776 1.335 . S
N1774 C1777 1.390 . S
N1775 C1776 1.345 . S
N1775 C1778 1.336 . S
C1776 N1774 1.335 . S
C1776 N1775 1.345 . S
C1776 H1781 0.930 . S
C1777 N1774 1.390 . S
C1777 C1778 1.346 . S
C1777 H1782 0.930 . S
C1778 N1775 1.336 . S
C1778 C1777 1.346 . S
C1778 H1785 0.929 . S
C1779 O1769 1.282 . S
C1779 O1780 1.216 . S
O1780 C1779 1.216 . S
H1781 C1776 0.930 . S
H1782 C1777 0.930 . S
O1783 Cu1763 1.959 . S
O1783 C1770 1.251 . S
H1784 C1767 0.930 . S
H1785 C1778 0.929 . S
Cu1786 N1787 1.999 . S
Cu1786 O1792 1.974 . S
Cu1786 N1797 1.985 . S
Cu1786 O1806 1.959 . S
N1787 Cu1786 1.999 . S
N1787 C1789 1.263 . S
N1787 C1791 1.389 . S
N1788 C1789 1.358 . S
N1788 C1790 1.400 . S
C1789 N1787 1.263 . S
C1789 N1788 1.358 . S
C1789 H1795 0.930 . S
C1790 N1788 1.400 . S
C1790 C1791 1.351 . S
C1790 H1807 0.930 . S
C1791 N1787 1.389 . S
C1791 C1790 1.351 . S
C1791 H1796 0.930 . S
O1792 Cu1786 1.974 . S
O1792 C1802 1.282 . S
C1793 O1794 1.261 . S
C1793 O1806 1.251 . S
O1794 C1793 1.261 . S
H1795 C1789 0.930 . S
H1796 C1791 0.930 . S
N1797 Cu1786 1.985 . S
N1797 C1799 1.335 . S
N1797 C1800 1.390 . S
N1798 C1799 1.345 . S
N1798 C1801 1.336 . S
C1799 N1797 1.335 . S
C1799 N1798 1.345 . S
C1799 H1804 0.930 . S
C1800 N1797 1.390 . S
C1800 C1801 1.346 . S
C1800 H1805 0.930 . S
C1801 N1798 1.336 . S
C1801 C1800 1.346 . S
C1801 H1808 0.929 . S
C1802 O1792 1.282 . S
C1802 O1803 1.216 . S
O1803 C1802 1.216 . S
H1804 C1799 0.930 . S
H1805 C1800 0.930 . S
O1806 Cu1786 1.959 . S
O1806 C1793 1.251 . S
H1807 C1790 0.930 . S
H1808 C1801 0.929 . S
Cu1809 N1810 1.999 . S
Cu1809 O1815 1.974 . S
Cu1809 N1820 1.985 . S
Cu1809 O1829 1.959 . S
N1810 Cu1809 1.999 . S
N1810 C1812 1.263 . S
N1810 C1814 1.389 . S
N1811 C1812 1.358 . S
N1811 C1813 1.400 . S
C1812 N1810 1.263 . S
C1812 N1811 1.358 . S
C1812 H1818 0.930 . S
C1813 N1811 1.400 . S
C1813 C1814 1.351 . S
C1813 H1830 0.930 . S
C1814 N1810 1.389 . S
C1814 C1813 1.351 . S
C1814 H1819 0.930 . S
O1815 Cu1809 1.974 . S
O1815 C1825 1.282 . S
C1816 O1817 1.261 . S
C1816 O1829 1.251 . S
O1817 C1816 1.261 . S
H1818 C1812 0.930 . S
H1819 C1814 0.930 . S
N1820 Cu1809 1.985 . S
N1820 C1822 1.335 . S
N1820 C1823 1.390 . S
N1821 C1822 1.345 . S
N1821 C1824 1.336 . S
C1822 N1820 1.335 . S
C1822 N1821 1.345 . S
C1822 H1827 0.930 . S
C1823 N1820 1.390 . S
C1823 C1824 1.346 . S
C1823 H1828 0.930 . S
C1824 N1821 1.336 . S
C1824 C1823 1.346 . S
C1824 H1831 0.929 . S
C1825 O1815 1.282 . S
C1825 O1826 1.216 . S
O1826 C1825 1.216 . S
H1827 C1822 0.930 . S
H1828 C1823 0.930 . S
O1829 Cu1809 1.959 . S
O1829 C1816 1.251 . S
H1830 C1813 0.930 . S
H1831 C1824 0.929 . S
C1832 C1833 1.391 . S
C1832 C1834 1.394 . S
C1832 H1848 0.931 . S
C1833 C1832 1.391 . S
C1833 C1837 1.376 . S
C1834 C1832 1.394 . S
C1834 C1835 1.369 . S
C1834 C1838 1.531 . S
C1835 C1834 1.369 . S
C1835 C1836 1.410 . S
C1835 C1843 1.503 . S
C1836 C1835 1.410 . S
C1836 C1837 1.392 . S
C1836 C1839 1.511 . S
C1837 C1833 1.376 . S
C1837 C1836 1.392 . S
C1837 H1849 0.929 . S
C1838 C1834 1.531 . S
C1838 H1850 0.960 . S
C1838 H1851 0.962 . S
C1838 H1852 0.960 . S
C1839 C1836 1.511 . S
C1839 H1853 0.961 . S
C1839 H1854 0.961 . S
C1839 H1855 0.961 . S
C1840 C1841 1.370 . S
C1840 C1842 1.363 . S
C1840 H1856 0.931 . S
C1841 C1840 1.370 . S
C1841 C1845 1.408 . S
C1842 C1840 1.363 . S
C1842 C1843 1.370 . S
C1842 C1846 1.524 . S
C1843 C1835 1.503 . S
C1843 C1842 1.370 . S
C1843 C1844 1.403 . S
C1844 C1843 1.403 . S
C1844 C1845 1.404 . S
C1844 C1847 1.539 . S
C1845 C1841 1.408 . S
C1845 C1844 1.404 . S
C1845 H1857 0.930 . S
C1846 C1842 1.524 . S
C1846 H1858 0.956 . S
C1846 H1859 0.961 . S
C1846 H1860 0.961 . S
C1847 C1844 1.539 . S
C1847 H1861 0.958 . S
C1847 H1862 0.961 . S
C1847 H1863 0.960 . S
H1848 C1832 0.931 . S
H1849 C1837 0.929 . S
H1850 C1838 0.960 . S
H1851 C1838 0.962 . S
H1852 C1838 0.960 . S
H1853 C1839 0.961 . S
H1854 C1839 0.961 . S
H1855 C1839 0.961 . S
H1856 C1840 0.931 . S
H1857 C1845 0.930 . S
H1858 C1846 0.956 . S
H1859 C1846 0.961 . S
H1860 C1846 0.961 . S
H1861 C1847 0.958 . S
H1862 C1847 0.961 . S
H1863 C1847 0.960 . S
C1864 C1865 1.391 . S
C1864 C1866 1.394 . S
C1864 H1880 0.931 . S
C1865 C1864 1.391 . S
C1865 C1869 1.376 . S
C1866 C1864 1.394 . S
C1866 C1867 1.369 . S
C1866 C1870 1.531 . S
C1867 C1866 1.369 . S
C1867 C1868 1.410 . S
C1867 C1875 1.503 . S
C1868 C1867 1.410 . S
C1868 C1869 1.392 . S
C1868 C1871 1.511 . S
C1869 C1865 1.376 . S
C1869 C1868 1.392 . S
C1869 H1881 0.929 . S
C1870 C1866 1.531 . S
C1870 H1882 0.960 . S
C1870 H1883 0.962 . S
C1870 H1884 0.960 . S
C1871 C1868 1.511 . S
C1871 H1885 0.961 . S
C1871 H1886 0.961 . S
C1871 H1887 0.961 . S
C1872 C1873 1.370 . S
C1872 C1874 1.363 . S
C1872 H1888 0.931 . S
C1873 C1872 1.370 . S
C1873 C1877 1.408 . S
C1874 C1872 1.363 . S
C1874 C1875 1.370 . S
C1874 C1878 1.524 . S
C1875 C1867 1.503 . S
C1875 C1874 1.370 . S
C1875 C1876 1.403 . S
C1876 C1875 1.403 . S
C1876 C1877 1.404 . S
C1876 C1879 1.539 . S
C1877 C1873 1.408 . S
C1877 C1876 1.404 . S
C1877 H1889 0.930 . S
C1878 C1874 1.524 . S
C1878 H1890 0.956 . S
C1878 H1891 0.961 . S
C1878 H1892 0.961 . S
C1879 C1876 1.539 . S
C1879 H1893 0.958 . S
C1879 H1894 0.961 . S
C1879 H1895 0.960 . S
H1880 C1864 0.931 . S
H1881 C1869 0.929 . S
H1882 C1870 0.960 . S
H1883 C1870 0.962 . S
H1884 C1870 0.960 . S
H1885 C1871 0.961 . S
H1886 C1871 0.961 . S
H1887 C1871 0.961 . S
H1888 C1872 0.931 . S
H1889 C1877 0.930 . S
H1890 C1878 0.956 . S
H1891 C1878 0.961 . S
H1892 C1878 0.961 . S
H1893 C1879 0.958 . S
H1894 C1879 0.961 . S
H1895 C1879 0.960 . S
C1896 C1897 1.391 . S
C1896 C1898 1.394 . S
C1896 H1912 0.931 . S
C1897 C1896 1.391 . S
C1897 C1901 1.376 . S
C1898 C1896 1.394 . S
C1898 C1899 1.369 . S
C1898 C1902 1.531 . S
C1899 C1898 1.369 . S
C1899 C1900 1.410 . S
C1899 C1907 1.503 . S
C1900 C1899 1.410 . S
C1900 C1901 1.392 . S
C1900 C1903 1.511 . S
C1901 C1897 1.376 . S
C1901 C1900 1.392 . S
C1901 H1913 0.929 . S
C1902 C1898 1.531 . S
C1902 H1914 0.960 . S
C1902 H1915 0.962 . S
C1902 H1916 0.960 . S
C1903 C1900 1.511 . S
C1903 H1917 0.961 . S
C1903 H1918 0.961 . S
C1903 H1919 0.961 . S
C1904 C1905 1.370 . S
C1904 C1906 1.363 . S
C1904 H1920 0.931 . S
C1905 C1904 1.370 . S
C1905 C1909 1.408 . S
C1906 C1904 1.363 . S
C1906 C1907 1.370 . S
C1906 C1910 1.524 . S
C1907 C1899 1.503 . S
C1907 C1906 1.370 . S
C1907 C1908 1.403 . S
C1908 C1907 1.403 . S
C1908 C1909 1.404 . S
C1908 C1911 1.539 . S
C1909 C1905 1.408 . S
C1909 C1908 1.404 . S
C1909 H1921 0.930 . S
C1910 C1906 1.524 . S
C1910 H1922 0.956 . S
C1910 H1923 0.961 . S
C1910 H1924 0.961 . S
C1911 C1908 1.539 . S
C1911 H1925 0.958 . S
C1911 H1926 0.961 . S
C1911 H1927 0.960 . S
H1912 C1896 0.931 . S
H1913 C1901 0.929 . S
H1914 C1902 0.960 . S
H1915 C1902 0.962 . S
H1916 C1902 0.960 . S
H1917 C1903 0.961 . S
H1918 C1903 0.961 . S
H1919 C1903 0.961 . S
H1920 C1904 0.931 . S
H1921 C1909 0.930 . S
H1922 C1910 0.956 . S
H1923 C1910 0.961 . S
H1924 C1910 0.961 . S
H1925 C1911 0.958 . S
H1926 C1911 0.961 . S
H1927 C1911 0.960 . S
C1928 C1929 1.391 . S
C1928 C1930 1.394 . S
C1928 H1944 0.931 . S
C1929 C1928 1.391 . S
C1929 C1933 1.376 . S
C1930 C1928 1.394 . S
C1930 C1931 1.369 . S
C1930 C1934 1.531 . S
C1931 C1930 1.369 . S
C1931 C1932 1.410 . S
C1931 C1939 1.503 . S
C1932 C1931 1.410 . S
C1932 C1933 1.392 . S
C1932 C1935 1.511 . S
C1933 C1929 1.376 . S
C1933 C1932 1.392 . S
C1933 H1945 0.929 . S
C1934 C1930 1.531 . S
C1934 H1946 0.960 . S
C1934 H1947 0.962 . S
C1934 H1948 0.960 . S
C1935 C1932 1.511 . S
C1935 H1949 0.961 . S
C1935 H1950 0.961 . S
C1935 H1951 0.961 . S
C1936 C1937 1.370 . S
C1936 C1938 1.363 . S
C1936 H1952 0.931 . S
C1937 C1936 1.370 . S
C1937 C1941 1.408 . S
C1938 C1936 1.363 . S
C1938 C1939 1.370 . S
C1938 C1942 1.524 . S
C1939 C1931 1.503 . S
C1939 C1938 1.370 . S
C1939 C1940 1.403 . S
C1940 C1939 1.403 . S
C1940 C1941 1.404 . S
C1940 C1943 1.539 . S
C1941 C1937 1.408 . S
C1941 C1940 1.404 . S
C1941 H1953 0.930 . S
C1942 C1938 1.524 . S
C1942 H1954 0.956 . S
C1942 H1955 0.961 . S
C1942 H1956 0.961 . S
C1943 C1940 1.539 . S
C1943 H1957 0.958 . S
C1943 H1958 0.961 . S
C1943 H1959 0.960 . S
H1944 C1928 0.931 . S
H1945 C1933 0.929 . S
H1946 C1934 0.960 . S
H1947 C1934 0.962 . S
H1948 C1934 0.960 . S
H1949 C1935 0.961 . S
H1950 C1935 0.961 . S
H1951 C1935 0.961 . S
H1952 C1936 0.931 . S
H1953 C1941 0.930 . S
H1954 C1942 0.956 . S
H1955 C1942 0.961 . S
H1956 C1942 0.961 . S
H1957 C1943 0.958 . S
H1958 C1943 0.961 . S
H1959 C1943 0.960 . S
C1960 C1961 1.391 . S
C1960 C1962 1.394 . S
C1960 H1976 0.931 . S
C1961 C1960 1.391 . S
C1961 C1965 1.376 . S
C1962 C1960 1.394 . S
C1962 C1963 1.369 . S
C1962 C1966 1.531 . S
C1963 C1962 1.369 . S
C1963 C1964 1.410 . S
C1963 C1971 1.503 . S
C1964 C1963 1.410 . S
C1964 C1965 1.392 . S
C1964 C1967 1.511 . S
C1965 C1961 1.376 . S
C1965 C1964 1.392 . S
C1965 H1977 0.929 . S
C1966 C1962 1.531 . S
C1966 H1978 0.960 . S
C1966 H1979 0.962 . S
C1966 H1980 0.960 . S
C1967 C1964 1.511 . S
C1967 H1981 0.961 . S
C1967 H1982 0.961 . S
C1967 H1983 0.961 . S
C1968 C1969 1.370 . S
C1968 C1970 1.363 . S
C1968 H1984 0.931 . S
C1969 C1968 1.370 . S
C1969 C1973 1.408 . S
C1970 C1968 1.363 . S
C1970 C1971 1.370 . S
C1970 C1974 1.524 . S
C1971 C1963 1.503 . S
C1971 C1970 1.370 . S
C1971 C1972 1.403 . S
C1972 C1971 1.403 . S
C1972 C1973 1.404 . S
C1972 C1975 1.539 . S
C1973 C1969 1.408 . S
C1973 C1972 1.404 . S
C1973 H1985 0.930 . S
C1974 C1970 1.524 . S
C1974 H1986 0.956 . S
C1974 H1987 0.961 . S
C1974 H1988 0.961 . S
C1975 C1972 1.539 . S
C1975 H1989 0.958 . S
C1975 H1990 0.961 . S
C1975 H1991 0.960 . S
H1976 C1960 0.931 . S
H1977 C1965 0.929 . S
H1978 C1966 0.960 . S
H1979 C1966 0.962 . S
H1980 C1966 0.960 . S
H1981 C1967 0.961 . S
H1982 C1967 0.961 . S
H1983 C1967 0.961 . S
H1984 C1968 0.931 . S
H1985 C1973 0.930 . S
H1986 C1974 0.956 . S
H1987 C1974 0.961 . S
H1988 C1974 0.961 . S
H1989 C1975 0.958 . S
H1990 C1975 0.961 . S
H1991 C1975 0.960 . S
C1992 C1993 1.391 . S
C1992 C1994 1.394 . S
C1992 H2008 0.931 . S
C1993 C1992 1.391 . S
C1993 C1997 1.376 . S
C1994 C1992 1.394 . S
C1994 C1995 1.369 . S
C1994 C1998 1.531 . S
C1995 C1994 1.369 . S
C1995 C1996 1.410 . S
C1995 C2003 1.503 . S
C1996 C1995 1.410 . S
C1996 C1997 1.392 . S
C1996 C1999 1.511 . S
C1997 C1993 1.376 . S
C1997 C1996 1.392 . S
C1997 H2009 0.929 . S
C1998 C1994 1.531 . S
C1998 H2010 0.960 . S
C1998 H2011 0.962 . S
C1998 H2012 0.960 . S
C1999 C1996 1.511 . S
C1999 H2013 0.961 . S
C1999 H2014 0.961 . S
C1999 H2015 0.961 . S
C2000 C2001 1.370 . S
C2000 C2002 1.363 . S
C2000 H2016 0.931 . S
C2001 C2000 1.370 . S
C2001 C2005 1.408 . S
C2002 C2000 1.363 . S
C2002 C2003 1.370 . S
C2002 C2006 1.524 . S
C2003 C1995 1.503 . S
C2003 C2002 1.370 . S
C2003 C2004 1.403 . S
C2004 C2003 1.403 . S
C2004 C2005 1.404 . S
C2004 C2007 1.539 . S
C2005 C2001 1.408 . S
C2005 C2004 1.404 . S
C2005 H2017 0.930 . S
C2006 C2002 1.524 . S
C2006 H2018 0.956 . S
C2006 H2019 0.961 . S
C2006 H2020 0.961 . S
C2007 C2004 1.539 . S
C2007 H2021 0.958 . S
C2007 H2022 0.961 . S
C2007 H2023 0.960 . S
H2008 C1992 0.931 . S
H2009 C1997 0.929 . S
H2010 C1998 0.960 . S
H2011 C1998 0.962 . S
H2012 C1998 0.960 . S
H2013 C1999 0.961 . S
H2014 C1999 0.961 . S
H2015 C1999 0.961 . S
H2016 C2000 0.931 . S
H2017 C2005 0.930 . S
H2018 C2006 0.956 . S
H2019 C2006 0.961 . S
H2020 C2006 0.961 . S
H2021 C2007 0.958 . S
H2022 C2007 0.961 . S
H2023 C2007 0.960 . S
C2024 C2025 1.391 . S
C2024 C2026 1.394 . S
C2024 H2040 0.931 . S
C2025 C2024 1.391 . S
C2025 C2029 1.376 . S
C2026 C2024 1.394 . S
C2026 C2027 1.369 . S
C2026 C2030 1.531 . S
C2027 C2026 1.369 . S
C2027 C2028 1.410 . S
C2027 C2035 1.503 . S
C2028 C2027 1.410 . S
C2028 C2029 1.392 . S
C2028 C2031 1.511 . S
C2029 C2025 1.376 . S
C2029 C2028 1.392 . S
C2029 H2041 0.929 . S
C2030 C2026 1.531 . S
C2030 H2042 0.960 . S
C2030 H2043 0.962 . S
C2030 H2044 0.960 . S
C2031 C2028 1.511 . S
C2031 H2045 0.961 . S
C2031 H2046 0.961 . S
C2031 H2047 0.961 . S
C2032 C2033 1.370 . S
C2032 C2034 1.363 . S
C2032 H2048 0.931 . S
C2033 C2032 1.370 . S
C2033 C2037 1.408 . S
C2034 C2032 1.363 . S
C2034 C2035 1.370 . S
C2034 C2038 1.524 . S
C2035 C2027 1.503 . S
C2035 C2034 1.370 . S
C2035 C2036 1.403 . S
C2036 C2035 1.403 . S
C2036 C2037 1.404 . S
C2036 C2039 1.539 . S
C2037 C2033 1.408 . S
C2037 C2036 1.404 . S
C2037 H2049 0.930 . S
C2038 C2034 1.524 . S
C2038 H2050 0.956 . S
C2038 H2051 0.961 . S
C2038 H2052 0.961 . S
C2039 C2036 1.539 . S
C2039 H2053 0.958 . S
C2039 H2054 0.961 . S
C2039 H2055 0.960 . S
H2040 C2024 0.931 . S
H2041 C2029 0.929 . S
H2042 C2030 0.960 . S
H2043 C2030 0.962 . S
H2044 C2030 0.960 . S
H2045 C2031 0.961 . S
H2046 C2031 0.961 . S
H2047 C2031 0.961 . S
H2048 C2032 0.931 . S
H2049 C2037 0.930 . S
H2050 C2038 0.956 . S
H2051 C2038 0.961 . S
H2052 C2038 0.961 . S
H2053 C2039 0.958 . S
H2054 C2039 0.961 . S
H2055 C2039 0.960 . S
C2056 C2057 1.391 . S
C2056 C2058 1.394 . S
C2056 H2072 0.931 . S
C2057 C2056 1.391 . S
C2057 C2061 1.376 . S
C2058 C2056 1.394 . S
C2058 C2059 1.369 . S
C2058 C2062 1.531 . S
C2059 C2058 1.369 . S
C2059 C2060 1.410 . S
C2059 C2067 1.503 . S
C2060 C2059 1.410 . S
C2060 C2061 1.392 . S
C2060 C2063 1.511 . S
C2061 C2057 1.376 . S
C2061 C2060 1.392 . S
C2061 H2073 0.929 . S
C2062 C2058 1.531 . S
C2062 H2074 0.960 . S
C2062 H2075 0.962 . S
C2062 H2076 0.960 . S
C2063 C2060 1.511 . S
C2063 H2077 0.961 . S
C2063 H2078 0.961 . S
C2063 H2079 0.961 . S
C2064 C2065 1.370 . S
C2064 C2066 1.363 . S
C2064 H2080 0.931 . S
C2065 C2064 1.370 . S
C2065 C2069 1.408 . S
C2066 C2064 1.363 . S
C2066 C2067 1.370 . S
C2066 C2070 1.524 . S
C2067 C2059 1.503 . S
C2067 C2066 1.370 . S
C2067 C2068 1.403 . S
C2068 C2067 1.403 . S
C2068 C2069 1.404 . S
C2068 C2071 1.539 . S
C2069 C2065 1.408 . S
C2069 C2068 1.404 . S
C2069 H2081 0.930 . S
C2070 C2066 1.524 . S
C2070 H2082 0.956 . S
C2070 H2083 0.961 . S
C2070 H2084 0.961 . S
C2071 C2068 1.539 . S
C2071 H2085 0.958 . S
C2071 H2086 0.961 . S
C2071 H2087 0.960 . S
H2072 C2056 0.931 . S
H2073 C2061 0.929 . S
H2074 C2062 0.960 . S
H2075 C2062 0.962 . S
H2076 C2062 0.960 . S
H2077 C2063 0.961 . S
H2078 C2063 0.961 . S
H2079 C2063 0.961 . S
H2080 C2064 0.931 . S
H2081 C2069 0.930 . S
H2082 C2070 0.956 . S
H2083 C2070 0.961 . S
H2084 C2070 0.961 . S
H2085 C2071 0.958 . S
H2086 C2071 0.961 . S
H2087 C2071 0.960 . S
C2088 C2089 1.391 . S
C2088 C2090 1.394 . S
C2088 H2104 0.931 . S
C2089 C2088 1.391 . S
C2089 C2093 1.376 . S
C2090 C2088 1.394 . S
C2090 C2091 1.369 . S
C2090 C2094 1.531 . S
C2091 C2090 1.369 . S
C2091 C2092 1.410 . S
C2091 C2099 1.503 . S
C2092 C2091 1.410 . S
C2092 C2093 1.392 . S
C2092 C2095 1.511 . S
C2093 C2089 1.376 . S
C2093 C2092 1.392 . S
C2093 H2105 0.929 . S
C2094 C2090 1.531 . S
C2094 H2106 0.960 . S
C2094 H2107 0.962 . S
C2094 H2108 0.960 . S
C2095 C2092 1.511 . S
C2095 H2109 0.961 . S
C2095 H2110 0.961 . S
C2095 H2111 0.961 . S
C2096 C2097 1.370 . S
C2096 C2098 1.363 . S
C2096 H2112 0.931 . S
C2097 C2096 1.370 . S
C2097 C2101 1.408 . S
C2098 C2096 1.363 . S
C2098 C2099 1.370 . S
C2098 C2102 1.524 . S
C2099 C2091 1.503 . S
C2099 C2098 1.370 . S
C2099 C2100 1.403 . S
C2100 C2099 1.403 . S
C2100 C2101 1.404 . S
C2100 C2103 1.539 . S
C2101 C2097 1.408 . S
C2101 C2100 1.404 . S
C2101 H2113 0.930 . S
C2102 C2098 1.524 . S
C2102 H2114 0.956 . S
C2102 H2115 0.961 . S
C2102 H2116 0.961 . S
C2103 C2100 1.539 . S
C2103 H2117 0.958 . S
C2103 H2118 0.961 . S
C2103 H2119 0.960 . S
H2104 C2088 0.931 . S
H2105 C2093 0.929 . S
H2106 C2094 0.960 . S
H2107 C2094 0.962 . S
H2108 C2094 0.960 . S
H2109 C2095 0.961 . S
H2110 C2095 0.961 . S
H2111 C2095 0.961 . S
H2112 C2096 0.931 . S
H2113 C2101 0.930 . S
H2114 C2102 0.956 . S
H2115 C2102 0.961 . S
H2116 C2102 0.961 . S
H2117 C2103 0.958 . S
H2118 C2103 0.961 . S
H2119 C2103 0.960 . S
C2120 C2121 1.391 . S
C2120 C2122 1.394 . S
C2120 H2136 0.931 . S
C2121 C2120 1.391 . S
C2121 C2125 1.376 . S
C2122 C2120 1.394 . S
C2122 C2123 1.369 . S
C2122 C2126 1.531 . S
C2123 C2122 1.369 . S
C2123 C2124 1.410 . S
C2123 C2131 1.503 . S
C2124 C2123 1.410 . S
C2124 C2125 1.392 . S
C2124 C2127 1.511 . S
C2125 C2121 1.376 . S
C2125 C2124 1.392 . S
C2125 H2137 0.929 . S
C2126 C2122 1.531 . S
C2126 H2138 0.960 . S
C2126 H2139 0.962 . S
C2126 H2140 0.960 . S
C2127 C2124 1.511 . S
C2127 H2141 0.961 . S
C2127 H2142 0.961 . S
C2127 H2143 0.961 . S
C2128 C2129 1.370 . S
C2128 C2130 1.363 . S
C2128 H2144 0.931 . S
C2129 C2128 1.370 . S
C2129 C2133 1.408 . S
C2130 C2128 1.363 . S
C2130 C2131 1.370 . S
C2130 C2134 1.524 . S
C2131 C2123 1.503 . S
C2131 C2130 1.370 . S
C2131 C2132 1.403 . S
C2132 C2131 1.403 . S
C2132 C2133 1.404 . S
C2132 C2135 1.539 . S
C2133 C2129 1.408 . S
C2133 C2132 1.404 . S
C2133 H2145 0.930 . S
C2134 C2130 1.524 . S
C2134 H2146 0.956 . S
C2134 H2147 0.961 . S
C2134 H2148 0.961 . S
C2135 C2132 1.539 . S
C2135 H2149 0.958 . S
C2135 H2150 0.961 . S
C2135 H2151 0.960 . S
H2136 C2120 0.931 . S
H2137 C2125 0.929 . S
H2138 C2126 0.960 . S
H2139 C2126 0.962 . S
H2140 C2126 0.960 . S
H2141 C2127 0.961 . S
H2142 C2127 0.961 . S
H2143 C2127 0.961 . S
H2144 C2128 0.931 . S
H2145 C2133 0.930 . S
H2146 C2134 0.956 . S
H2147 C2134 0.961 . S
H2148 C2134 0.961 . S
H2149 C2135 0.958 . S
H2150 C2135 0.961 . S
H2151 C2135 0.960 . S
C2152 C2153 1.391 . S
C2152 C2154 1.394 . S
C2152 H2168 0.931 . S
C2153 C2152 1.391 . S
C2153 C2157 1.376 . S
C2154 C2152 1.394 . S
C2154 C2155 1.369 . S
C2154 C2158 1.531 . S
C2155 C2154 1.369 . S
C2155 C2156 1.410 . S
C2155 C2163 1.503 . S
C2156 C2155 1.410 . S
C2156 C2157 1.392 . S
C2156 C2159 1.511 . S
C2157 C2153 1.376 . S
C2157 C2156 1.392 . S
C2157 H2169 0.929 . S
C2158 C2154 1.531 . S
C2158 H2170 0.960 . S
C2158 H2171 0.962 . S
C2158 H2172 0.960 . S
C2159 C2156 1.511 . S
C2159 H2173 0.961 . S
C2159 H2174 0.961 . S
C2159 H2175 0.961 . S
C2160 C2161 1.370 . S
C2160 C2162 1.363 . S
C2160 H2176 0.931 . S
C2161 C2160 1.370 . S
C2161 C2165 1.408 . S
C2162 C2160 1.363 . S
C2162 C2163 1.370 . S
C2162 C2166 1.524 . S
C2163 C2155 1.503 . S
C2163 C2162 1.370 . S
C2163 C2164 1.403 . S
C2164 C2163 1.403 . S
C2164 C2165 1.404 . S
C2164 C2167 1.539 . S
C2165 C2161 1.408 . S
C2165 C2164 1.404 . S
C2165 H2177 0.930 . S
C2166 C2162 1.524 . S
C2166 H2178 0.956 . S
C2166 H2179 0.961 . S
C2166 H2180 0.961 . S
C2167 C2164 1.539 . S
C2167 H2181 0.958 . S
C2167 H2182 0.961 . S
C2167 H2183 0.960 . S
H2168 C2152 0.931 . S
H2169 C2157 0.929 . S
H2170 C2158 0.960 . S
H2171 C2158 0.962 . S
H2172 C2158 0.960 . S
H2173 C2159 0.961 . S
H2174 C2159 0.961 . S
H2175 C2159 0.961 . S
H2176 C2160 0.931 . S
H2177 C2165 0.930 . S
H2178 C2166 0.956 . S
H2179 C2166 0.961 . S
H2180 C2166 0.961 . S
H2181 C2167 0.958 . S
H2182 C2167 0.961 . S
H2183 C2167 0.960 . S
C2184 C2185 1.391 . S
C2184 C2186 1.394 . S
C2184 H2200 0.931 . S
C2185 C2184 1.391 . S
C2185 C2189 1.376 . S
C2186 C2184 1.394 . S
C2186 C2187 1.369 . S
C2186 C2190 1.531 . S
C2187 C2186 1.369 . S
C2187 C2188 1.410 . S
C2187 C2195 1.503 . S
C2188 C2187 1.410 . S
C2188 C2189 1.392 . S
C2188 C2191 1.511 . S
C2189 C2185 1.376 . S
C2189 C2188 1.392 . S
C2189 H2201 0.929 . S
C2190 C2186 1.531 . S
C2190 H2202 0.960 . S
C2190 H2203 0.962 . S
C2190 H2204 0.960 . S
C2191 C2188 1.511 . S
C2191 H2205 0.961 . S
C2191 H2206 0.961 . S
C2191 H2207 0.961 . S
C2192 C2193 1.370 . S
C2192 C2194 1.363 . S
C2192 H2208 0.931 . S
C2193 C2192 1.370 . S
C2193 C2197 1.408 . S
C2194 C2192 1.363 . S
C2194 C2195 1.370 . S
C2194 C2198 1.524 . S
C2195 C2187 1.503 . S
C2195 C2194 1.370 . S
C2195 C2196 1.403 . S
C2196 C2195 1.403 . S
C2196 C2197 1.404 . S
C2196 C2199 1.539 . S
C2197 C2193 1.408 . S
C2197 C2196 1.404 . S
C2197 H2209 0.930 . S
C2198 C2194 1.524 . S
C2198 H2210 0.956 . S
C2198 H2211 0.961 . S
C2198 H2212 0.961 . S
C2199 C2196 1.539 . S
C2199 H2213 0.958 . S
C2199 H2214 0.961 . S
C2199 H2215 0.960 . S
H2200 C2184 0.931 . S
H2201 C2189 0.929 . S
H2202 C2190 0.960 . S
H2203 C2190 0.962 . S
H2204 C2190 0.960 . S
H2205 C2191 0.961 . S
H2206 C2191 0.961 . S
H2207 C2191 0.961 . S
H2208 C2192 0.931 . S
H2209 C2197 0.930 . S
H2210 C2198 0.956 . S
H2211 C2198 0.961 . S
H2212 C2198 0.961 . S
H2213 C2199 0.958 . S
H2214 C2199 0.961 . S
H2215 C2199 0.960 . S
C2216 C2217 1.391 . S
C2216 C2218 1.394 . S
C2216 H2232 0.931 . S
C2217 C2216 1.391 . S
C2217 C2221 1.376 . S
C2218 C2216 1.394 . S
C2218 C2219 1.369 . S
C2218 C2222 1.531 . S
C2219 C2218 1.369 . S
C2219 C2220 1.410 . S
C2219 C2227 1.503 . S
C2220 C2219 1.410 . S
C2220 C2221 1.392 . S
C2220 C2223 1.511 . S
C2221 C2217 1.376 . S
C2221 C2220 1.392 . S
C2221 H2233 0.929 . S
C2222 C2218 1.531 . S
C2222 H2234 0.960 . S
C2222 H2235 0.962 . S
C2222 H2236 0.960 . S
C2223 C2220 1.511 . S
C2223 H2237 0.961 . S
C2223 H2238 0.961 . S
C2223 H2239 0.961 . S
C2224 C2225 1.370 . S
C2224 C2226 1.363 . S
C2224 H2240 0.931 . S
C2225 C2224 1.370 . S
C2225 C2229 1.408 . S
C2226 C2224 1.363 . S
C2226 C2227 1.370 . S
C2226 C2230 1.524 . S
C2227 C2219 1.503 . S
C2227 C2226 1.370 . S
C2227 C2228 1.403 . S
C2228 C2227 1.403 . S
C2228 C2229 1.404 . S
C2228 C2231 1.539 . S
C2229 C2225 1.408 . S
C2229 C2228 1.404 . S
C2229 H2241 0.930 . S
C2230 C2226 1.524 . S
C2230 H2242 0.956 . S
C2230 H2243 0.961 . S
C2230 H2244 0.961 . S
C2231 C2228 1.539 . S
C2231 H2245 0.958 . S
C2231 H2246 0.961 . S
C2231 H2247 0.960 . S
H2232 C2216 0.931 . S
H2233 C2221 0.929 . S
H2234 C2222 0.960 . S
H2235 C2222 0.962 . S
H2236 C2222 0.960 . S
H2237 C2223 0.961 . S
H2238 C2223 0.961 . S
H2239 C2223 0.961 . S
H2240 C2224 0.931 . S
H2241 C2229 0.930 . S
H2242 C2230 0.956 . S
H2243 C2230 0.961 . S
H2244 C2230 0.961 . S
H2245 C2231 0.958 . S
H2246 C2231 0.961 . S
H2247 C2231 0.960 . S
C2248 C2249 1.391 . S
C2248 C2250 1.394 . S
C2248 H2264 0.931 . S
C2249 C2248 1.391 . S
C2249 C2253 1.376 . S
C2250 C2248 1.394 . S
C2250 C2251 1.369 . S
C2250 C2254 1.531 . S
C2251 C2250 1.369 . S
C2251 C2252 1.410 . S
C2251 C2259 1.503 . S
C2252 C2251 1.410 . S
C2252 C2253 1.392 . S
C2252 C2255 1.511 . S
C2253 C2249 1.376 . S
C2253 C2252 1.392 . S
C2253 H2265 0.929 . S
C2254 C2250 1.531 . S
C2254 H2266 0.960 . S
C2254 H2267 0.962 . S
C2254 H2268 0.960 . S
C2255 C2252 1.511 . S
C2255 H2269 0.961 . S
C2255 H2270 0.961 . S
C2255 H2271 0.961 . S
C2256 C2257 1.370 . S
C2256 C2258 1.363 . S
C2256 H2272 0.931 . S
C2257 C2256 1.370 . S
C2257 C2261 1.408 . S
C2258 C2256 1.363 . S
C2258 C2259 1.370 . S
C2258 C2262 1.524 . S
C2259 C2251 1.503 . S
C2259 C2258 1.370 . S
C2259 C2260 1.403 . S
C2260 C2259 1.403 . S
C2260 C2261 1.404 . S
C2260 C2263 1.539 . S
C2261 C2257 1.408 . S
C2261 C2260 1.404 . S
C2261 H2273 0.930 . S
C2262 C2258 1.524 . S
C2262 H2274 0.956 . S
C2262 H2275 0.961 . S
C2262 H2276 0.961 . S
C2263 C2260 1.539 . S
C2263 H2277 0.958 . S
C2263 H2278 0.961 . S
C2263 H2279 0.960 . S
H2264 C2248 0.931 . S
H2265 C2253 0.929 . S
H2266 C2254 0.960 . S
H2267 C2254 0.962 . S
H2268 C2254 0.960 . S
H2269 C2255 0.961 . S
H2270 C2255 0.961 . S
H2271 C2255 0.961 . S
H2272 C2256 0.931 . S
H2273 C2261 0.930 . S
H2274 C2262 0.956 . S
H2275 C2262 0.961 . S
H2276 C2262 0.961 . S
H2277 C2263 0.958 . S
H2278 C2263 0.961 . S
H2279 C2263 0.960 . S
C2280 C2281 1.391 . S
C2280 C2282 1.394 . S
C2280 H2296 0.931 . S
C2281 C2280 1.391 . S
C2281 C2285 1.376 . S
C2282 C2280 1.394 . S
C2282 C2283 1.369 . S
C2282 C2286 1.531 . S
C2283 C2282 1.369 . S
C2283 C2284 1.410 . S
C2283 C2291 1.503 . S
C2284 C2283 1.410 . S
C2284 C2285 1.392 . S
C2284 C2287 1.511 . S
C2285 C2281 1.376 . S
C2285 C2284 1.392 . S
C2285 H2297 0.929 . S
C2286 C2282 1.531 . S
C2286 H2298 0.960 . S
C2286 H2299 0.962 . S
C2286 H2300 0.960 . S
C2287 C2284 1.511 . S
C2287 H2301 0.961 . S
C2287 H2302 0.961 . S
C2287 H2303 0.961 . S
C2288 C2289 1.370 . S
C2288 C2290 1.363 . S
C2288 H2304 0.931 . S
C2289 C2288 1.370 . S
C2289 C2293 1.408 . S
C2290 C2288 1.363 . S
C2290 C2291 1.370 . S
C2290 C2294 1.524 . S
C2291 C2283 1.503 . S
C2291 C2290 1.370 . S
C2291 C2292 1.403 . S
C2292 C2291 1.403 . S
C2292 C2293 1.404 . S
C2292 C2295 1.539 . S
C2293 C2289 1.408 . S
C2293 C2292 1.404 . S
C2293 H2305 0.930 . S
C2294 C2290 1.524 . S
C2294 H2306 0.956 . S
C2294 H2307 0.961 . S
C2294 H2308 0.961 . S
C2295 C2292 1.539 . S
C2295 H2309 0.958 . S
C2295 H2310 0.961 . S
C2295 H2311 0.960 . S
H2296 C2280 0.931 . S
H2297 C2285 0.929 . S
H2298 C2286 0.960 . S
H2299 C2286 0.962 . S
H2300 C2286 0.960 . S
H2301 C2287 0.961 . S
H2302 C2287 0.961 . S
H2303 C2287 0.961 . S
H2304 C2288 0.931 . S
H2305 C2293 0.930 . S
H2306 C2294 0.956 . S
H2307 C2294 0.961 . S
H2308 C2294 0.961 . S
H2309 C2295 0.958 . S
H2310 C2295 0.961 . S
H2311 C2295 0.960 . S
C2312 C2313 1.391 . S
C2312 C2314 1.394 . S
C2312 H2328 0.931 . S
C2313 C2312 1.391 . S
C2313 C2317 1.376 . S
C2314 C2312 1.394 . S
C2314 C2315 1.369 . S
C2314 C2318 1.531 . S
C2315 C2314 1.369 . S
C2315 C2316 1.410 . S
C2315 C2323 1.503 . S
C2316 C2315 1.410 . S
C2316 C2317 1.392 . S
C2316 C2319 1.511 . S
C2317 C2313 1.376 . S
C2317 C2316 1.392 . S
C2317 H2329 0.929 . S
C2318 C2314 1.531 . S
C2318 H2330 0.960 . S
C2318 H2331 0.962 . S
C2318 H2332 0.960 . S
C2319 C2316 1.511 . S
C2319 H2333 0.961 . S
C2319 H2334 0.961 . S
C2319 H2335 0.961 . S
C2320 C2321 1.370 . S
C2320 C2322 1.363 . S
C2320 H2336 0.931 . S
C2321 C2320 1.370 . S
C2321 C2325 1.408 . S
C2322 C2320 1.363 . S
C2322 C2323 1.370 . S
C2322 C2326 1.524 . S
C2323 C2315 1.503 . S
C2323 C2322 1.370 . S
C2323 C2324 1.403 . S
C2324 C2323 1.403 . S
C2324 C2325 1.404 . S
C2324 C2327 1.539 . S
C2325 C2321 1.408 . S
C2325 C2324 1.404 . S
C2325 H2337 0.930 . S
C2326 C2322 1.524 . S
C2326 H2338 0.956 . S
C2326 H2339 0.961 . S
C2326 H2340 0.961 . S
C2327 C2324 1.539 . S
C2327 H2341 0.958 . S
C2327 H2342 0.961 . S
C2327 H2343 0.960 . S
H2328 C2312 0.931 . S
H2329 C2317 0.929 . S
H2330 C2318 0.960 . S
H2331 C2318 0.962 . S
H2332 C2318 0.960 . S
H2333 C2319 0.961 . S
H2334 C2319 0.961 . S
H2335 C2319 0.961 . S
H2336 C2320 0.931 . S
H2337 C2325 0.930 . S
H2338 C2326 0.956 . S
H2339 C2326 0.961 . S
H2340 C2326 0.961 . S
H2341 C2327 0.958 . S
H2342 C2327 0.961 . S
H2343 C2327 0.960 . S
C2344 C2345 1.391 . S
C2344 C2346 1.394 . S
C2344 H2360 0.931 . S
C2345 C2344 1.391 . S
C2345 C2349 1.376 . S
C2346 C2344 1.394 . S
C2346 C2347 1.369 . S
C2346 C2350 1.531 . S
C2347 C2346 1.369 . S
C2347 C2348 1.410 . S
C2347 C2355 1.503 . S
C2348 C2347 1.410 . S
C2348 C2349 1.392 . S
C2348 C2351 1.511 . S
C2349 C2345 1.376 . S
C2349 C2348 1.392 . S
C2349 H2361 0.929 . S
C2350 C2346 1.531 . S
C2350 H2362 0.960 . S
C2350 H2363 0.962 . S
C2350 H2364 0.960 . S
C2351 C2348 1.511 . S
C2351 H2365 0.961 . S
C2351 H2366 0.961 . S
C2351 H2367 0.961 . S
C2352 C2353 1.370 . S
C2352 C2354 1.363 . S
C2352 H2368 0.931 . S
C2353 C2352 1.370 . S
C2353 C2357 1.408 . S
C2354 C2352 1.363 . S
C2354 C2355 1.370 . S
C2354 C2358 1.524 . S
C2355 C2347 1.503 . S
C2355 C2354 1.370 . S
C2355 C2356 1.403 . S
C2356 C2355 1.403 . S
C2356 C2357 1.404 . S
C2356 C2359 1.539 . S
C2357 C2353 1.408 . S
C2357 C2356 1.404 . S
C2357 H2369 0.930 . S
C2358 C2354 1.524 . S
C2358 H2370 0.956 . S
C2358 H2371 0.961 . S
C2358 H2372 0.961 . S
C2359 C2356 1.539 . S
C2359 H2373 0.958 . S
C2359 H2374 0.961 . S
C2359 H2375 0.960 . S
H2360 C2344 0.931 . S
H2361 C2349 0.929 . S
H2362 C2350 0.960 . S
H2363 C2350 0.962 . S
H2364 C2350 0.960 . S
H2365 C2351 0.961 . S
H2366 C2351 0.961 . S
H2367 C2351 0.961 . S
H2368 C2352 0.931 . S
H2369 C2357 0.930 . S
H2370 C2358 0.956 . S
H2371 C2358 0.961 . S
H2372 C2358 0.961 . S
H2373 C2359 0.958 . S
H2374 C2359 0.961 . S
H2375 C2359 0.960 . S
C2376 C2377 1.391 . S
C2376 C2378 1.394 . S
C2376 H2392 0.931 . S
C2377 C2376 1.391 . S
C2377 C2381 1.376 . S
C2378 C2376 1.394 . S
C2378 C2379 1.369 . S
C2378 C2382 1.531 . S
C2379 C2378 1.369 . S
C2379 C2380 1.410 . S
C2379 C2387 1.503 . S
C2380 C2379 1.410 . S
C2380 C2381 1.392 . S
C2380 C2383 1.511 . S
C2381 C2377 1.376 . S
C2381 C2380 1.392 . S
C2381 H2393 0.929 . S
C2382 C2378 1.531 . S
C2382 H2394 0.960 . S
C2382 H2395 0.962 . S
C2382 H2396 0.960 . S
C2383 C2380 1.511 . S
C2383 H2397 0.961 . S
C2383 H2398 0.961 . S
C2383 H2399 0.961 . S
C2384 C2385 1.370 . S
C2384 C2386 1.363 . S
C2384 H2400 0.931 . S
C2385 C2384 1.370 . S
C2385 C2389 1.408 . S
C2386 C2384 1.363 . S
C2386 C2387 1.370 . S
C2386 C2390 1.524 . S
C2387 C2379 1.503 . S
C2387 C2386 1.370 . S
C2387 C2388 1.403 . S
C2388 C2387 1.403 . S
C2388 C2389 1.404 . S
C2388 C2391 1.539 . S
C2389 C2385 1.408 . S
C2389 C2388 1.404 . S
C2389 H2401 0.930 . S
C2390 C2386 1.524 . S
C2390 H2402 0.956 . S
C2390 H2403 0.961 . S
C2390 H2404 0.961 . S
C2391 C2388 1.539 . S
C2391 H2405 0.958 . S
C2391 H2406 0.961 . S
C2391 H2407 0.960 . S
H2392 C2376 0.931 . S
H2393 C2381 0.929 . S
H2394 C2382 0.960 . S
H2395 C2382 0.962 . S
H2396 C2382 0.960 . S
H2397 C2383 0.961 . S
H2398 C2383 0.961 . S
H2399 C2383 0.961 . S
H2400 C2384 0.931 . S
H2401 C2389 0.930 . S
H2402 C2390 0.956 . S
H2403 C2390 0.961 . S
H2404 C2390 0.961 . S
H2405 C2391 0.958 . S
H2406 C2391 0.961 . S
H2407 C2391 0.960 . S
C2408 C2409 1.391 . S
C2408 C2410 1.394 . S
C2408 H2424 0.931 . S
C2409 C2408 1.391 . S
C2409 C2413 1.376 . S
C2410 C2408 1.394 . S
C2410 C2411 1.369 . S
C2410 C2414 1.531 . S
C2411 C2410 1.369 . S
C2411 C2412 1.410 . S
C2411 C2419 1.503 . S
C2412 C2411 1.410 . S
C2412 C2413 1.392 . S
C2412 C2415 1.511 . S
C2413 C2409 1.376 . S
C2413 C2412 1.392 . S
C2413 H2425 0.929 . S
C2414 C2410 1.531 . S
C2414 H2426 0.960 . S
C2414 H2427 0.962 . S
C2414 H2428 0.960 . S
C2415 C2412 1.511 . S
C2415 H2429 0.961 . S
C2415 H2430 0.961 . S
C2415 H2431 0.961 . S
C2416 C2417 1.370 . S
C2416 C2418 1.363 . S
C2416 H2432 0.931 . S
C2417 C2416 1.370 . S
C2417 C2421 1.408 . S
C2418 C2416 1.363 . S
C2418 C2419 1.370 . S
C2418 C2422 1.524 . S
C2419 C2411 1.503 . S
C2419 C2418 1.370 . S
C2419 C2420 1.403 . S
C2420 C2419 1.403 . S
C2420 C2421 1.404 . S
C2420 C2423 1.539 . S
C2421 C2417 1.408 . S
C2421 C2420 1.404 . S
C2421 H2433 0.930 . S
C2422 C2418 1.524 . S
C2422 H2434 0.956 . S
C2422 H2435 0.961 . S
C2422 H2436 0.961 . S
C2423 C2420 1.539 . S
C2423 H2437 0.958 . S
C2423 H2438 0.961 . S
C2423 H2439 0.960 . S
H2424 C2408 0.931 . S
H2425 C2413 0.929 . S
H2426 C2414 0.960 . S
H2427 C2414 0.962 . S
H2428 C2414 0.960 . S
H2429 C2415 0.961 . S
H2430 C2415 0.961 . S
H2431 C2415 0.961 . S
H2432 C2416 0.931 . S
H2433 C2421 0.930 . S
H2434 C2422 0.956 . S
H2435 C2422 0.961 . S
H2436 C2422 0.961 . S
H2437 C2423 0.958 . S
H2438 C2423 0.961 . S
H2439 C2423 0.960 . S
C2440 C2441 1.391 . S
C2440 C2442 1.394 . S
C2440 H2456 0.931 . S
C2441 C2440 1.391 . S
C2441 C2445 1.376 . S
C2442 C2440 1.394 . S
C2442 C2443 1.369 . S
C2442 C2446 1.531 . S
C2443 C2442 1.369 . S
C2443 C2444 1.410 . S
C2443 C2451 1.503 . S
C2444 C2443 1.410 . S
C2444 C2445 1.392 . S
C2444 C2447 1.511 . S
C2445 C2441 1.376 . S
C2445 C2444 1.392 . S
C2445 H2457 0.929 . S
C2446 C2442 1.531 . S
C2446 H2458 0.960 . S
C2446 H2459 0.962 . S
C2446 H2460 0.960 . S
C2447 C2444 1.511 . S
C2447 H2461 0.961 . S
C2447 H2462 0.961 . S
C2447 H2463 0.961 . S
C2448 C2449 1.370 . S
C2448 C2450 1.363 . S
C2448 H2464 0.931 . S
C2449 C2448 1.370 . S
C2449 C2453 1.408 . S
C2450 C2448 1.363 . S
C2450 C2451 1.370 . S
C2450 C2454 1.524 . S
C2451 C2443 1.503 . S
C2451 C2450 1.370 . S
C2451 C2452 1.403 . S
C2452 C2451 1.403 . S
C2452 C2453 1.404 . S
C2452 C2455 1.539 . S
C2453 C2449 1.408 . S
C2453 C2452 1.404 . S
C2453 H2465 0.930 . S
C2454 C2450 1.524 . S
C2454 H2466 0.956 . S
C2454 H2467 0.961 . S
C2454 H2468 0.961 . S
C2455 C2452 1.539 . S
C2455 H2469 0.958 . S
C2455 H2470 0.961 . S
C2455 H2471 0.960 . S
H2456 C2440 0.931 . S
H2457 C2445 0.929 . S
H2458 C2446 0.960 . S
H2459 C2446 0.962 . S
H2460 C2446 0.960 . S
H2461 C2447 0.961 . S
H2462 C2447 0.961 . S
H2463 C2447 0.961 . S
H2464 C2448 0.931 . S
H2465 C2453 0.930 . S
H2466 C2454 0.956 . S
H2467 C2454 0.961 . S
H2468 C2454 0.961 . S
H2469 C2455 0.958 . S
H2470 C2455 0.961 . S
H2471 C2455 0.960 . S
C2472 C2473 1.391 . S
C2472 C2474 1.394 . S
C2472 H2488 0.931 . S
C2473 C2472 1.391 . S
C2473 C2477 1.376 . S
C2474 C2472 1.394 . S
C2474 C2475 1.369 . S
C2474 C2478 1.531 . S
C2475 C2474 1.369 . S
C2475 C2476 1.410 . S
C2475 C2483 1.503 . S
C2476 C2475 1.410 . S
C2476 C2477 1.392 . S
C2476 C2479 1.511 . S
C2477 C2473 1.376 . S
C2477 C2476 1.392 . S
C2477 H2489 0.929 . S
C2478 C2474 1.531 . S
C2478 H2490 0.960 . S
C2478 H2491 0.962 . S
C2478 H2492 0.960 . S
C2479 C2476 1.511 . S
C2479 H2493 0.961 . S
C2479 H2494 0.961 . S
C2479 H2495 0.961 . S
C2480 C2481 1.370 . S
C2480 C2482 1.363 . S
C2480 H2496 0.931 . S
C2481 C2480 1.370 . S
C2481 C2485 1.408 . S
C2482 C2480 1.363 . S
C2482 C2483 1.370 . S
C2482 C2486 1.524 . S
C2483 C2475 1.503 . S
C2483 C2482 1.370 . S
C2483 C2484 1.403 . S
C2484 C2483 1.403 . S
C2484 C2485 1.404 . S
C2484 C2487 1.539 . S
C2485 C2481 1.408 . S
C2485 C2484 1.404 . S
C2485 H2497 0.930 . S
C2486 C2482 1.524 . S
C2486 H2498 0.956 . S
C2486 H2499 0.961 . S
C2486 H2500 0.961 . S
C2487 C2484 1.539 . S
C2487 H2501 0.958 . S
C2487 H2502 0.961 . S
C2487 H2503 0.960 . S
H2488 C2472 0.931 . S
H2489 C2477 0.929 . S
H2490 C2478 0.960 . S
H2491 C2478 0.962 . S
H2492 C2478 0.960 . S
H2493 C2479 0.961 . S
H2494 C2479 0.961 . S
H2495 C2479 0.961 . S
H2496 C2480 0.931 . S
H2497 C2485 0.930 . S
H2498 C2486 0.956 . S
H2499 C2486 0.961 . S
H2500 C2486 0.961 . S
H2501 C2487 0.958 . S
H2502 C2487 0.961 . S
H2503 C2487 0.960 . S
C2504 C2505 1.391 . S
C2504 C2506 1.394 . S
C2504 H2520 0.931 . S
C2505 C2504 1.391 . S
C2505 C2509 1.376 . S
C2506 C2504 1.394 . S
C2506 C2507 1.369 . S
C2506 C2510 1.531 . S
C2507 C2506 1.369 . S
C2507 C2508 1.410 . S
C2507 C2515 1.503 . S
C2508 C2507 1.410 . S
C2508 C2509 1.392 . S
C2508 C2511 1.511 . S
C2509 C2505 1.376 . S
C2509 C2508 1.392 . S
C2509 H2521 0.929 . S
C2510 C2506 1.531 . S
C2510 H2522 0.960 . S
C2510 H2523 0.962 . S
C2510 H2524 0.960 . S
C2511 C2508 1.511 . S
C2511 H2525 0.961 . S
C2511 H2526 0.961 . S
C2511 H2527 0.961 . S
C2512 C2513 1.370 . S
C2512 C2514 1.363 . S
C2512 H2528 0.931 . S
C2513 C2512 1.370 . S
C2513 C2517 1.408 . S
C2514 C2512 1.363 . S
C2514 C2515 1.370 . S
C2514 C2518 1.524 . S
C2515 C2507 1.503 . S
C2515 C2514 1.370 . S
C2515 C2516 1.403 . S
C2516 C2515 1.403 . S
C2516 C2517 1.404 . S
C2516 C2519 1.539 . S
C2517 C2513 1.408 . S
C2517 C2516 1.404 . S
C2517 H2529 0.930 . S
C2518 C2514 1.524 . S
C2518 H2530 0.956 . S
C2518 H2531 0.961 . S
C2518 H2532 0.961 . S
C2519 C2516 1.539 . S
C2519 H2533 0.958 . S
C2519 H2534 0.961 . S
C2519 H2535 0.960 . S
H2520 C2504 0.931 . S
H2521 C2509 0.929 . S
H2522 C2510 0.960 . S
H2523 C2510 0.962 . S
H2524 C2510 0.960 . S
H2525 C2511 0.961 . S
H2526 C2511 0.961 . S
H2527 C2511 0.961 . S
H2528 C2512 0.931 . S
H2529 C2517 0.930 . S
H2530 C2518 0.956 . S
H2531 C2518 0.961 . S
H2532 C2518 0.961 . S
H2533 C2519 0.958 . S
H2534 C2519 0.961 . S
H2535 C2519 0.960 . S
C2536 C2537 1.391 . S
C2536 C2538 1.394 . S
C2536 H2552 0.931 . S
C2537 C2536 1.391 . S
C2537 C2541 1.376 . S
C2538 C2536 1.394 . S
C2538 C2539 1.369 . S
C2538 C2542 1.531 . S
C2539 C2538 1.369 . S
C2539 C2540 1.410 . S
C2539 C2547 1.503 . S
C2540 C2539 1.410 . S
C2540 C2541 1.392 . S
C2540 C2543 1.511 . S
C2541 C2537 1.376 . S
C2541 C2540 1.392 . S
C2541 H2553 0.929 . S
C2542 C2538 1.531 . S
C2542 H2554 0.960 . S
C2542 H2555 0.962 . S
C2542 H2556 0.960 . S
C2543 C2540 1.511 . S
C2543 H2557 0.961 . S
C2543 H2558 0.961 . S
C2543 H2559 0.961 . S
C2544 C2545 1.370 . S
C2544 C2546 1.363 . S
C2544 H2560 0.931 . S
C2545 C2544 1.370 . S
C2545 C2549 1.408 . S
C2546 C2544 1.363 . S
C2546 C2547 1.370 . S
C2546 C2550 1.524 . S
C2547 C2539 1.503 . S
C2547 C2546 1.370 . S
C2547 C2548 1.403 . S
C2548 C2547 1.403 . S
C2548 C2549 1.404 . S
C2548 C2551 1.539 . S
C2549 C2545 1.408 . S
C2549 C2548 1.404 . S
C2549 H2561 0.930 . S
C2550 C2546 1.524 . S
C2550 H2562 0.956 . S
C2550 H2563 0.961 . S
C2550 H2564 0.961 . S
C2551 C2548 1.539 . S
C2551 H2565 0.958 . S
C2551 H2566 0.961 . S
C2551 H2567 0.960 . S
H2552 C2536 0.931 . S
H2553 C2541 0.929 . S
H2554 C2542 0.960 . S
H2555 C2542 0.962 . S
H2556 C2542 0.960 . S
H2557 C2543 0.961 . S
H2558 C2543 0.961 . S
H2559 C2543 0.961 . S
H2560 C2544 0.931 . S
H2561 C2549 0.930 . S
H2562 C2550 0.956 . S
H2563 C2550 0.961 . S
H2564 C2550 0.961 . S
H2565 C2551 0.958 . S
H2566 C2551 0.961 . S
H2567 C2551 0.960 . S
C2568 C2569 1.391 . S
C2568 C2570 1.394 . S
C2568 H2584 0.931 . S
C2569 C2568 1.391 . S
C2569 C2573 1.376 . S
C2570 C2568 1.394 . S
C2570 C2571 1.369 . S
C2570 C2574 1.531 . S
C2571 C2570 1.369 . S
C2571 C2572 1.410 . S
C2571 C2579 1.503 . S
C2572 C2571 1.410 . S
C2572 C2573 1.392 . S
C2572 C2575 1.511 . S
C2573 C2569 1.376 . S
C2573 C2572 1.392 . S
C2573 H2585 0.929 . S
C2574 C2570 1.531 . S
C2574 H2586 0.960 . S
C2574 H2587 0.962 . S
C2574 H2588 0.960 . S
C2575 C2572 1.511 . S
C2575 H2589 0.961 . S
C2575 H2590 0.961 . S
C2575 H2591 0.961 . S
C2576 C2577 1.370 . S
C2576 C2578 1.363 . S
C2576 H2592 0.931 . S
C2577 C2576 1.370 . S
C2577 C2581 1.408 . S
C2578 C2576 1.363 . S
C2578 C2579 1.370 . S
C2578 C2582 1.524 . S
C2579 C2571 1.503 . S
C2579 C2578 1.370 . S
C2579 C2580 1.403 . S
C2580 C2579 1.403 . S
C2580 C2581 1.404 . S
C2580 C2583 1.539 . S
C2581 C2577 1.408 . S
C2581 C2580 1.404 . S
C2581 H2593 0.930 . S
C2582 C2578 1.524 . S
C2582 H2594 0.956 . S
C2582 H2595 0.961 . S
C2582 H2596 0.961 . S
C2583 C2580 1.539 . S
C2583 H2597 0.958 . S
C2583 H2598 0.961 . S
C2583 H2599 0.960 . S
H2584 C2568 0.931 . S
H2585 C2573 0.929 . S
H2586 C2574 0.960 . S
H2587 C2574 0.962 . S
H2588 C2574 0.960 . S
H2589 C2575 0.961 . S
H2590 C2575 0.961 . S
H2591 C2575 0.961 . S
H2592 C2576 0.931 . S
H2593 C2581 0.930 . S
H2594 C2582 0.956 . S
H2595 C2582 0.961 . S
H2596 C2582 0.961 . S
H2597 C2583 0.958 . S
H2598 C2583 0.961 . S
H2599 C2583 0.960 . S
C2600 C2601 1.391 . S
C2600 C2602 1.394 . S
C2600 H2616 0.931 . S
C2601 C2600 1.391 . S
C2601 C2605 1.376 . S
C2602 C2600 1.394 . S
C2602 C2603 1.369 . S
C2602 C2606 1.531 . S
C2603 C2602 1.369 . S
C2603 C2604 1.410 . S
C2603 C2611 1.503 . S
C2604 C2603 1.410 . S
C2604 C2605 1.392 . S
C2604 C2607 1.511 . S
C2605 C2601 1.376 . S
C2605 C2604 1.392 . S
C2605 H2617 0.929 . S
C2606 C2602 1.531 . S
C2606 H2618 0.960 . S
C2606 H2619 0.962 . S
C2606 H2620 0.960 . S
C2607 C2604 1.511 . S
C2607 H2621 0.961 . S
C2607 H2622 0.961 . S
C2607 H2623 0.961 . S
C2608 C2609 1.370 . S
C2608 C2610 1.363 . S
C2608 H2624 0.931 . S
C2609 C2608 1.370 . S
C2609 C2613 1.408 . S
C2610 C2608 1.363 . S
C2610 C2611 1.370 . S
C2610 C2614 1.524 . S
C2611 C2603 1.503 . S
C2611 C2610 1.370 . S
C2611 C2612 1.403 . S
C2612 C2611 1.403 . S
C2612 C2613 1.404 . S
C2612 C2615 1.539 . S
C2613 C2609 1.408 . S
C2613 C2612 1.404 . S
C2613 H2625 0.930 . S
C2614 C2610 1.524 . S
C2614 H2626 0.956 . S
C2614 H2627 0.961 . S
C2614 H2628 0.961 . S
C2615 C2612 1.539 . S
C2615 H2629 0.958 . S
C2615 H2630 0.961 . S
C2615 H2631 0.960 . S
H2616 C2600 0.931 . S
H2617 C2605 0.929 . S
H2618 C2606 0.960 . S
H2619 C2606 0.962 . S
H2620 C2606 0.960 . S
H2621 C2607 0.961 . S
H2622 C2607 0.961 . S
H2623 C2607 0.961 . S
H2624 C2608 0.931 . S
H2625 C2613 0.930 . S
H2626 C2614 0.956 . S
H2627 C2614 0.961 . S
H2628 C2614 0.961 . S
H2629 C2615 0.958 . S
H2630 C2615 0.961 . S
H2631 C2615 0.960 . S
C2632 C2633 1.391 . S
C2632 C2634 1.394 . S
C2632 H2648 0.931 . S
C2633 C2632 1.391 . S
C2633 C2637 1.376 . S
C2634 C2632 1.394 . S
C2634 C2635 1.369 . S
C2634 C2638 1.531 . S
C2635 C2634 1.369 . S
C2635 C2636 1.410 . S
C2635 C2643 1.503 . S
C2636 C2635 1.410 . S
C2636 C2637 1.392 . S
C2636 C2639 1.511 . S
C2637 C2633 1.376 . S
C2637 C2636 1.392 . S
C2637 H2649 0.929 . S
C2638 C2634 1.531 . S
C2638 H2650 0.960 . S
C2638 H2651 0.962 . S
C2638 H2652 0.960 . S
C2639 C2636 1.511 . S
C2639 H2653 0.961 . S
C2639 H2654 0.961 . S
C2639 H2655 0.961 . S
C2640 C2641 1.370 . S
C2640 C2642 1.363 . S
C2640 H2656 0.931 . S
C2641 C2640 1.370 . S
C2641 C2645 1.408 . S
C2642 C2640 1.363 . S
C2642 C2643 1.370 . S
C2642 C2646 1.524 . S
C2643 C2635 1.503 . S
C2643 C2642 1.370 . S
C2643 C2644 1.403 . S
C2644 C2643 1.403 . S
C2644 C2645 1.404 . S
C2644 C2647 1.539 . S
C2645 C2641 1.408 . S
C2645 C2644 1.404 . S
C2645 H2657 0.930 . S
C2646 C2642 1.524 . S
C2646 H2658 0.956 . S
C2646 H2659 0.961 . S
C2646 H2660 0.961 . S
C2647 C2644 1.539 . S
C2647 H2661 0.958 . S
C2647 H2662 0.961 . S
C2647 H2663 0.960 . S
H2648 C2632 0.931 . S
H2649 C2637 0.929 . S
H2650 C2638 0.960 . S
H2651 C2638 0.962 . S
H2652 C2638 0.960 . S
H2653 C2639 0.961 . S
H2654 C2639 0.961 . S
H2655 C2639 0.961 . S
H2656 C2640 0.931 . S
H2657 C2645 0.930 . S
H2658 C2646 0.956 . S
H2659 C2646 0.961 . S
H2660 C2646 0.961 . S
H2661 C2647 0.958 . S
H2662 C2647 0.961 . S
H2663 C2647 0.960 . S
C2664 C2665 1.391 . S
C2664 C2666 1.394 . S
C2664 H2680 0.931 . S
C2665 C2664 1.391 . S
C2665 C2669 1.376 . S
C2666 C2664 1.394 . S
C2666 C2667 1.369 . S
C2666 C2670 1.531 . S
C2667 C2666 1.369 . S
C2667 C2668 1.410 . S
C2667 C2675 1.503 . S
C2668 C2667 1.410 . S
C2668 C2669 1.392 . S
C2668 C2671 1.511 . S
C2669 C2665 1.376 . S
C2669 C2668 1.392 . S
C2669 H2681 0.929 . S
C2670 C2666 1.531 . S
C2670 H2682 0.960 . S
C2670 H2683 0.962 . S
C2670 H2684 0.960 . S
C2671 C2668 1.511 . S
C2671 H2685 0.961 . S
C2671 H2686 0.961 . S
C2671 H2687 0.961 . S
C2672 C2673 1.370 . S
C2672 C2674 1.363 . S
C2672 H2688 0.931 . S
C2673 C2672 1.370 . S
C2673 C2677 1.408 . S
C2674 C2672 1.363 . S
C2674 C2675 1.370 . S
C2674 C2678 1.524 . S
C2675 C2667 1.503 . S
C2675 C2674 1.370 . S
C2675 C2676 1.403 . S
C2676 C2675 1.403 . S
C2676 C2677 1.404 . S
C2676 C2679 1.539 . S
C2677 C2673 1.408 . S
C2677 C2676 1.404 . S
C2677 H2689 0.930 . S
C2678 C2674 1.524 . S
C2678 H2690 0.956 . S
C2678 H2691 0.961 . S
C2678 H2692 0.961 . S
C2679 C2676 1.539 . S
C2679 H2693 0.958 . S
C2679 H2694 0.961 . S
C2679 H2695 0.960 . S
H2680 C2664 0.931 . S
H2681 C2669 0.929 . S
H2682 C2670 0.960 . S
H2683 C2670 0.962 . S
H2684 C2670 0.960 . S
H2685 C2671 0.961 . S
H2686 C2671 0.961 . S
H2687 C2671 0.961 . S
H2688 C2672 0.931 . S
H2689 C2677 0.930 . S
H2690 C2678 0.956 . S
H2691 C2678 0.961 . S
H2692 C2678 0.961 . S
H2693 C2679 0.958 . S
H2694 C2679 0.961 . S
H2695 C2679 0.960 . S
C2696 C2697 1.391 . S
C2696 C2698 1.394 . S
C2696 H2712 0.931 . S
C2697 C2696 1.391 . S
C2697 C2701 1.376 . S
C2698 C2696 1.394 . S
C2698 C2699 1.369 . S
C2698 C2702 1.531 . S
C2699 C2698 1.369 . S
C2699 C2700 1.410 . S
C2699 C2707 1.503 . S
C2700 C2699 1.410 . S
C2700 C2701 1.392 . S
C2700 C2703 1.511 . S
C2701 C2697 1.376 . S
C2701 C2700 1.392 . S
C2701 H2713 0.929 . S
C2702 C2698 1.531 . S
C2702 H2714 0.960 . S
C2702 H2715 0.962 . S
C2702 H2716 0.960 . S
C2703 C2700 1.511 . S
C2703 H2717 0.961 . S
C2703 H2718 0.961 . S
C2703 H2719 0.961 . S
C2704 C2705 1.370 . S
C2704 C2706 1.363 . S
C2704 H2720 0.931 . S
C2705 C2704 1.370 . S
C2705 C2709 1.408 . S
C2706 C2704 1.363 . S
C2706 C2707 1.370 . S
C2706 C2710 1.524 . S
C2707 C2699 1.503 . S
C2707 C2706 1.370 . S
C2707 C2708 1.403 . S
C2708 C2707 1.403 . S
C2708 C2709 1.404 . S
C2708 C2711 1.539 . S
C2709 C2705 1.408 . S
C2709 C2708 1.404 . S
C2709 H2721 0.930 . S
C2710 C2706 1.524 . S
C2710 H2722 0.956 . S
C2710 H2723 0.961 . S
C2710 H2724 0.961 . S
C2711 C2708 1.539 . S
C2711 H2725 0.958 . S
C2711 H2726 0.961 . S
C2711 H2727 0.960 . S
H2712 C2696 0.931 . S
H2713 C2701 0.929 . S
H2714 C2702 0.960 . S
H2715 C2702 0.962 . S
H2716 C2702 0.960 . S
H2717 C2703 0.961 . S
H2718 C2703 0.961 . S
H2719 C2703 0.961 . S
H2720 C2704 0.931 . S
H2721 C2709 0.930 . S
H2722 C2710 0.956 . S
H2723 C2710 0.961 . S
H2724 C2710 0.961 . S
H2725 C2711 0.958 . S
H2726 C2711 0.961 . S
H2727 C2711 0.960 . S
C2728 C2729 1.391 . S
C2728 C2730 1.394 . S
C2728 H2744 0.931 . S
C2729 C2728 1.391 . S
C2729 C2733 1.376 . S
C2730 C2728 1.394 . S
C2730 C2731 1.369 . S
C2730 C2734 1.531 . S
C2731 C2730 1.369 . S
C2731 C2732 1.410 . S
C2731 C2739 1.503 . S
C2732 C2731 1.410 . S
C2732 C2733 1.392 . S
C2732 C2735 1.511 . S
C2733 C2729 1.376 . S
C2733 C2732 1.392 . S
C2733 H2745 0.929 . S
C2734 C2730 1.531 . S
C2734 H2746 0.960 . S
C2734 H2747 0.962 . S
C2734 H2748 0.960 . S
C2735 C2732 1.511 . S
C2735 H2749 0.961 . S
C2735 H2750 0.961 . S
C2735 H2751 0.961 . S
C2736 C2737 1.370 . S
C2736 C2738 1.363 . S
C2736 H2752 0.931 . S
C2737 C2736 1.370 . S
C2737 C2741 1.408 . S
C2738 C2736 1.363 . S
C2738 C2739 1.370 . S
C2738 C2742 1.524 . S
C2739 C2731 1.503 . S
C2739 C2738 1.370 . S
C2739 C2740 1.403 . S
C2740 C2739 1.403 . S
C2740 C2741 1.404 . S
C2740 C2743 1.539 . S
C2741 C2737 1.408 . S
C2741 C2740 1.404 . S
C2741 H2753 0.930 . S
C2742 C2738 1.524 . S
C2742 H2754 0.956 . S
C2742 H2755 0.961 . S
C2742 H2756 0.961 . S
C2743 C2740 1.539 . S
C2743 H2757 0.958 . S
C2743 H2758 0.961 . S
C2743 H2759 0.960 . S
H2744 C2728 0.931 . S
H2745 C2733 0.929 . S
H2746 C2734 0.960 . S
H2747 C2734 0.962 . S
H2748 C2734 0.960 . S
H2749 C2735 0.961 . S
H2750 C2735 0.961 . S
H2751 C2735 0.961 . S
H2752 C2736 0.931 . S
H2753 C2741 0.930 . S
H2754 C2742 0.956 . S
H2755 C2742 0.961 . S
H2756 C2742 0.961 . S
H2757 C2743 0.958 . S
H2758 C2743 0.961 . S
H2759 C2743 0.960 . S
C2760 C2761 1.391 . S
C2760 C2762 1.394 . S
C2760 H2776 0.931 . S
C2761 C2760 1.391 . S
C2761 C2765 1.376 . S
C2762 C2760 1.394 . S
C2762 C2763 1.369 . S
C2762 C2766 1.531 . S
C2763 C2762 1.369 . S
C2763 C2764 1.410 . S
C2763 C2771 1.503 . S
C2764 C2763 1.410 . S
C2764 C2765 1.392 . S
C2764 C2767 1.511 . S
C2765 C2761 1.376 . S
C2765 C2764 1.392 . S
C2765 H2777 0.929 . S
C2766 C2762 1.531 . S
C2766 H2778 0.960 . S
C2766 H2779 0.962 . S
C2766 H2780 0.960 . S
C2767 C2764 1.511 . S
C2767 H2781 0.961 . S
C2767 H2782 0.961 . S
C2767 H2783 0.961 . S
C2768 C2769 1.370 . S
C2768 C2770 1.363 . S
C2768 H2784 0.931 . S
C2769 C2768 1.370 . S
C2769 C2773 1.408 . S
C2770 C2768 1.363 . S
C2770 C2771 1.370 . S
C2770 C2774 1.524 . S
C2771 C2763 1.503 . S
C2771 C2770 1.370 . S
C2771 C2772 1.403 . S
C2772 C2771 1.403 . S
C2772 C2773 1.404 . S
C2772 C2775 1.539 . S
C2773 C2769 1.408 . S
C2773 C2772 1.404 . S
C2773 H2785 0.930 . S
C2774 C2770 1.524 . S
C2774 H2786 0.956 . S
C2774 H2787 0.961 . S
C2774 H2788 0.961 . S
C2775 C2772 1.539 . S
C2775 H2789 0.958 . S
C2775 H2790 0.961 . S
C2775 H2791 0.960 . S
H2776 C2760 0.931 . S
H2777 C2765 0.929 . S
H2778 C2766 0.960 . S
H2779 C2766 0.962 . S
H2780 C2766 0.960 . S
H2781 C2767 0.961 . S
H2782 C2767 0.961 . S
H2783 C2767 0.961 . S
H2784 C2768 0.931 . S
H2785 C2773 0.930 . S
H2786 C2774 0.956 . S
H2787 C2774 0.961 . S
H2788 C2774 0.961 . S
H2789 C2775 0.958 . S
H2790 C2775 0.961 . S
H2791 C2775 0.960 . S
C2792 C2793 1.391 . S
C2792 C2794 1.394 . S
C2792 H2808 0.931 . S
C2793 C2792 1.391 . S
C2793 C2797 1.376 . S
C2794 C2792 1.394 . S
C2794 C2795 1.369 . S
C2794 C2798 1.531 . S
C2795 C2794 1.369 . S
C2795 C2796 1.410 . S
C2795 C2803 1.503 . S
C2796 C2795 1.410 . S
C2796 C2797 1.392 . S
C2796 C2799 1.511 . S
C2797 C2793 1.376 . S
C2797 C2796 1.392 . S
C2797 H2809 0.929 . S
C2798 C2794 1.531 . S
C2798 H2810 0.960 . S
C2798 H2811 0.962 . S
C2798 H2812 0.960 . S
C2799 C2796 1.511 . S
C2799 H2813 0.961 . S
C2799 H2814 0.961 . S
C2799 H2815 0.961 . S
C2800 C2801 1.370 . S
C2800 C2802 1.363 . S
C2800 H2816 0.931 . S
C2801 C2800 1.370 . S
C2801 C2805 1.408 . S
C2802 C2800 1.363 . S
C2802 C2803 1.370 . S
C2802 C2806 1.524 . S
C2803 C2795 1.503 . S
C2803 C2802 1.370 . S
C2803 C2804 1.403 . S
C2804 C2803 1.403 . S
C2804 C2805 1.404 . S
C2804 C2807 1.539 . S
C2805 C2801 1.408 . S
C2805 C2804 1.404 . S
C2805 H2817 0.930 . S
C2806 C2802 1.524 . S
C2806 H2818 0.956 . S
C2806 H2819 0.961 . S
C2806 H2820 0.961 . S
C2807 C2804 1.539 . S
C2807 H2821 0.958 . S
C2807 H2822 0.961 . S
C2807 H2823 0.960 . S
H2808 C2792 0.931 . S
H2809 C2797 0.929 . S
H2810 C2798 0.960 . S
H2811 C2798 0.962 . S
H2812 C2798 0.960 . S
H2813 C2799 0.961 . S
H2814 C2799 0.961 . S
H2815 C2799 0.961 . S
H2816 C2800 0.931 . S
H2817 C2805 0.930 . S
H2818 C2806 0.956 . S
H2819 C2806 0.961 . S
H2820 C2806 0.961 . S
H2821 C2807 0.958 . S
H2822 C2807 0.961 . S
H2823 C2807 0.960 . S
C2824 C2825 1.391 . S
C2824 C2826 1.394 . S
C2824 H2840 0.931 . S
C2825 C2824 1.391 . S
C2825 C2829 1.376 . S
C2826 C2824 1.394 . S
C2826 C2827 1.369 . S
C2826 C2830 1.531 . S
C2827 C2826 1.369 . S
C2827 C2828 1.410 . S
C2827 C2835 1.503 . S
C2828 C2827 1.410 . S
C2828 C2829 1.392 . S
C2828 C2831 1.511 . S
C2829 C2825 1.376 . S
C2829 C2828 1.392 . S
C2829 H2841 0.929 . S
C2830 C2826 1.531 . S
C2830 H2842 0.960 . S
C2830 H2843 0.962 . S
C2830 H2844 0.960 . S
C2831 C2828 1.511 . S
C2831 H2845 0.961 . S
C2831 H2846 0.961 . S
C2831 H2847 0.961 . S
C2832 C2833 1.370 . S
C2832 C2834 1.363 . S
C2832 H2848 0.931 . S
C2833 C2832 1.370 . S
C2833 C2837 1.408 . S
C2834 C2832 1.363 . S
C2834 C2835 1.370 . S
C2834 C2838 1.524 . S
C2835 C2827 1.503 . S
C2835 C2834 1.370 . S
C2835 C2836 1.403 . S
C2836 C2835 1.403 . S
C2836 C2837 1.404 . S
C2836 C2839 1.539 . S
C2837 C2833 1.408 . S
C2837 C2836 1.404 . S
C2837 H2849 0.930 . S
C2838 C2834 1.524 . S
C2838 H2850 0.956 . S
C2838 H2851 0.961 . S
C2838 H2852 0.961 . S
C2839 C2836 1.539 . S
C2839 H2853 0.958 . S
C2839 H2854 0.961 . S
C2839 H2855 0.960 . S
H2840 C2824 0.931 . S
H2841 C2829 0.929 . S
H2842 C2830 0.960 . S
H2843 C2830 0.962 . S
H2844 C2830 0.960 . S
H2845 C2831 0.961 . S
H2846 C2831 0.961 . S
H2847 C2831 0.961 . S
H2848 C2832 0.931 . S
H2849 C2837 0.930 . S
H2850 C2838 0.956 . S
H2851 C2838 0.961 . S
H2852 C2838 0.961 . S
H2853 C2839 0.958 . S
H2854 C2839 0.961 . S
H2855 C2839 0.960 . S
C2856 C2857 1.391 . S
C2856 C2858 1.394 . S
C2856 H2872 0.931 . S
C2857 C2856 1.391 . S
C2857 C2861 1.376 . S
C2858 C2856 1.394 . S
C2858 C2859 1.369 . S
C2858 C2862 1.531 . S
C2859 C2858 1.369 . S
C2859 C2860 1.410 . S
C2859 C2867 1.503 . S
C2860 C2859 1.410 . S
C2860 C2861 1.392 . S
C2860 C2863 1.511 . S
C2861 C2857 1.376 . S
C2861 C2860 1.392 . S
C2861 H2873 0.929 . S
C2862 C2858 1.531 . S
C2862 H2874 0.960 . S
C2862 H2875 0.962 . S
C2862 H2876 0.960 . S
C2863 C2860 1.511 . S
C2863 H2877 0.961 . S
C2863 H2878 0.961 . S
C2863 H2879 0.961 . S
C2864 C2865 1.370 . S
C2864 C2866 1.363 . S
C2864 H2880 0.931 . S
C2865 C2864 1.370 . S
C2865 C2869 1.408 . S
C2866 C2864 1.363 . S
C2866 C2867 1.370 . S
C2866 C2870 1.524 . S
C2867 C2859 1.503 . S
C2867 C2866 1.370 . S
C2867 C2868 1.403 . S
C2868 C2867 1.403 . S
C2868 C2869 1.404 . S
C2868 C2871 1.539 . S
C2869 C2865 1.408 . S
C2869 C2868 1.404 . S
C2869 H2881 0.930 . S
C2870 C2866 1.524 . S
C2870 H2882 0.956 . S
C2870 H2883 0.961 . S
C2870 H2884 0.961 . S
C2871 C2868 1.539 . S
C2871 H2885 0.958 . S
C2871 H2886 0.961 . S
C2871 H2887 0.960 . S
H2872 C2856 0.931 . S
H2873 C2861 0.929 . S
H2874 C2862 0.960 . S
H2875 C2862 0.962 . S
H2876 C2862 0.960 . S
H2877 C2863 0.961 . S
H2878 C2863 0.961 . S
H2879 C2863 0.961 . S
H2880 C2864 0.931 . S
H2881 C2869 0.930 . S
H2882 C2870 0.956 . S
H2883 C2870 0.961 . S
H2884 C2870 0.961 . S
H2885 C2871 0.958 . S
H2886 C2871 0.961 . S
H2887 C2871 0.960 . S
C2888 C2889 1.391 . S
C2888 C2890 1.394 . S
C2888 H2904 0.931 . S
C2889 C2888 1.391 . S
C2889 C2893 1.376 . S
C2890 C2888 1.394 . S
C2890 C2891 1.369 . S
C2890 C2894 1.531 . S
C2891 C2890 1.369 . S
C2891 C2892 1.410 . S
C2891 C2899 1.503 . S
C2892 C2891 1.410 . S
C2892 C2893 1.392 . S
C2892 C2895 1.511 . S
C2893 C2889 1.376 . S
C2893 C2892 1.392 . S
C2893 H2905 0.929 . S
C2894 C2890 1.531 . S
C2894 H2906 0.960 . S
C2894 H2907 0.962 . S
C2894 H2908 0.960 . S
C2895 C2892 1.511 . S
C2895 H2909 0.961 . S
C2895 H2910 0.961 . S
C2895 H2911 0.961 . S
C2896 C2897 1.370 . S
C2896 C2898 1.363 . S
C2896 H2912 0.931 . S
C2897 C2896 1.370 . S
C2897 C2901 1.408 . S
C2898 C2896 1.363 . S
C2898 C2899 1.370 . S
C2898 C2902 1.524 . S
C2899 C2891 1.503 . S
C2899 C2898 1.370 . S
C2899 C2900 1.403 . S
C2900 C2899 1.403 . S
C2900 C2901 1.404 . S
C2900 C2903 1.539 . S
C2901 C2897 1.408 . S
C2901 C2900 1.404 . S
C2901 H2913 0.930 . S
C2902 C2898 1.524 . S
C2902 H2914 0.956 . S
C2902 H2915 0.961 . S
C2902 H2916 0.961 . S
C2903 C2900 1.539 . S
C2903 H2917 0.958 . S
C2903 H2918 0.961 . S
C2903 H2919 0.960 . S
H2904 C2888 0.931 . S
H2905 C2893 0.929 . S
H2906 C2894 0.960 . S
H2907 C2894 0.962 . S
H2908 C2894 0.960 . S
H2909 C2895 0.961 . S
H2910 C2895 0.961 . S
H2911 C2895 0.961 . S
H2912 C2896 0.931 . S
H2913 C2901 0.930 . S
H2914 C2902 0.956 . S
H2915 C2902 0.961 . S
H2916 C2902 0.961 . S
H2917 C2903 0.958 . S
H2918 C2903 0.961 . S
H2919 C2903 0.960 . S
C2920 C2921 1.391 . S
C2920 C2922 1.394 . S
C2920 H2936 0.931 . S
C2921 C2920 1.391 . S
C2921 C2925 1.376 . S
C2922 C2920 1.394 . S
C2922 C2923 1.369 . S
C2922 C2926 1.531 . S
C2923 C2922 1.369 . S
C2923 C2924 1.410 . S
C2923 C2931 1.503 . S
C2924 C2923 1.410 . S
C2924 C2925 1.392 . S
C2924 C2927 1.511 . S
C2925 C2921 1.376 . S
C2925 C2924 1.392 . S
C2925 H2937 0.929 . S
C2926 C2922 1.531 . S
C2926 H2938 0.960 . S
C2926 H2939 0.962 . S
C2926 H2940 0.960 . S
C2927 C2924 1.511 . S
C2927 H2941 0.961 . S
C2927 H2942 0.961 . S
C2927 H2943 0.961 . S
C2928 C2929 1.370 . S
C2928 C2930 1.363 . S
C2928 H2944 0.931 . S
C2929 C2928 1.370 . S
C2929 C2933 1.408 . S
C2930 C2928 1.363 . S
C2930 C2931 1.370 . S
C2930 C2934 1.524 . S
C2931 C2923 1.503 . S
C2931 C2930 1.370 . S
C2931 C2932 1.403 . S
C2932 C2931 1.403 . S
C2932 C2933 1.404 . S
C2932 C2935 1.539 . S
C2933 C2929 1.408 . S
C2933 C2932 1.404 . S
C2933 H2945 0.930 . S
C2934 C2930 1.524 . S
C2934 H2946 0.956 . S
C2934 H2947 0.961 . S
C2934 H2948 0.961 . S
C2935 C2932 1.539 . S
C2935 H2949 0.958 . S
C2935 H2950 0.961 . S
C2935 H2951 0.960 . S
H2936 C2920 0.931 . S
H2937 C2925 0.929 . S
H2938 C2926 0.960 . S
H2939 C2926 0.962 . S
H2940 C2926 0.960 . S
H2941 C2927 0.961 . S
H2942 C2927 0.961 . S
H2943 C2927 0.961 . S
H2944 C2928 0.931 . S
H2945 C2933 0.930 . S
H2946 C2934 0.956 . S
H2947 C2934 0.961 . S
H2948 C2934 0.961 . S
H2949 C2935 0.958 . S
H2950 C2935 0.961 . S
H2951 C2935 0.960 . S
C2952 C2953 1.391 . S
C2952 C2954 1.394 . S
C2952 H2968 0.931 . S
C2953 C2952 1.391 . S
C2953 C2957 1.376 . S
C2954 C2952 1.394 . S
C2954 C2955 1.369 . S
C2954 C2958 1.531 . S
C2955 C2954 1.369 . S
C2955 C2956 1.410 . S
C2955 C2963 1.503 . S
C2956 C2955 1.410 . S
C2956 C2957 1.392 . S
C2956 C2959 1.511 . S
C2957 C2953 1.376 . S
C2957 C2956 1.392 . S
C2957 H2969 0.929 . S
C2958 C2954 1.531 . S
C2958 H2970 0.960 . S
C2958 H2971 0.962 . S
C2958 H2972 0.960 . S
C2959 C2956 1.511 . S
C2959 H2973 0.961 . S
C2959 H2974 0.961 . S
C2959 H2975 0.961 . S
C2960 C2961 1.370 . S
C2960 C2962 1.363 . S
C2960 H2976 0.931 . S
C2961 C2960 1.370 . S
C2961 C2965 1.408 . S
C2962 C2960 1.363 . S
C2962 C2963 1.370 . S
C2962 C2966 1.524 . S
C2963 C2955 1.503 . S
C2963 C2962 1.370 . S
C2963 C2964 1.403 . S
C2964 C2963 1.403 . S
C2964 C2965 1.404 . S
C2964 C2967 1.539 . S
C2965 C2961 1.408 . S
C2965 C2964 1.404 . S
C2965 H2977 0.930 . S
C2966 C2962 1.524 . S
C2966 H2978 0.956 . S
C2966 H2979 0.961 . S
C2966 H2980 0.961 . S
C2967 C2964 1.539 . S
C2967 H2981 0.958 . S
C2967 H2982 0.961 . S
C2967 H2983 0.960 . S
H2968 C2952 0.931 . S
H2969 C2957 0.929 . S
H2970 C2958 0.960 . S
H2971 C2958 0.962 . S
H2972 C2958 0.960 . S
H2973 C2959 0.961 . S
H2974 C2959 0.961 . S
H2975 C2959 0.961 . S
H2976 C2960 0.931 . S
H2977 C2965 0.930 . S
H2978 C2966 0.956 . S
H2979 C2966 0.961 . S
H2980 C2966 0.961 . S
H2981 C2967 0.958 . S
H2982 C2967 0.961 . S
H2983 C2967 0.960 . S
C2984 C2985 1.391 . S
C2984 C2986 1.394 . S
C2984 H3000 0.931 . S
C2985 C2984 1.391 . S
C2985 C2989 1.376 . S
C2986 C2984 1.394 . S
C2986 C2987 1.369 . S
C2986 C2990 1.531 . S
C2987 C2986 1.369 . S
C2987 C2988 1.410 . S
C2987 C2995 1.503 . S
C2988 C2987 1.410 . S
C2988 C2989 1.392 . S
C2988 C2991 1.511 . S
C2989 C2985 1.376 . S
C2989 C2988 1.392 . S
C2989 H3001 0.929 . S
C2990 C2986 1.531 . S
C2990 H3002 0.960 . S
C2990 H3003 0.962 . S
C2990 H3004 0.960 . S
C2991 C2988 1.511 . S
C2991 H3005 0.961 . S
C2991 H3006 0.961 . S
C2991 H3007 0.961 . S
C2992 C2993 1.370 . S
C2992 C2994 1.363 . S
C2992 H3008 0.931 . S
C2993 C2992 1.370 . S
C2993 C2997 1.408 . S
C2994 C2992 1.363 . S
C2994 C2995 1.370 . S
C2994 C2998 1.524 . S
C2995 C2987 1.503 . S
C2995 C2994 1.370 . S
C2995 C2996 1.403 . S
C2996 C2995 1.403 . S
C2996 C2997 1.404 . S
C2996 C2999 1.539 . S
C2997 C2993 1.408 . S
C2997 C2996 1.404 . S
C2997 H3009 0.930 . S
C2998 C2994 1.524 . S
C2998 H3010 0.956 . S
C2998 H3011 0.961 . S
C2998 H3012 0.961 . S
C2999 C2996 1.539 . S
C2999 H3013 0.958 . S
C2999 H3014 0.961 . S
C2999 H3015 0.960 . S
H3000 C2984 0.931 . S
H3001 C2989 0.929 . S
H3002 C2990 0.960 . S
H3003 C2990 0.962 . S
H3004 C2990 0.960 . S
H3005 C2991 0.961 . S
H3006 C2991 0.961 . S
H3007 C2991 0.961 . S
H3008 C2992 0.931 . S
H3009 C2997 0.930 . S
H3010 C2998 0.956 . S
H3011 C2998 0.961 . S
H3012 C2998 0.961 . S
H3013 C2999 0.958 . S
H3014 C2999 0.961 . S
H3015 C2999 0.960 . S
C3016 C3017 1.391 . S
C3016 C3018 1.394 . S
C3016 H3032 0.931 . S
C3017 C3016 1.391 . S
C3017 C3021 1.376 . S
C3018 C3016 1.394 . S
C3018 C3019 1.369 . S
C3018 C3022 1.531 . S
C3019 C3018 1.369 . S
C3019 C3020 1.410 . S
C3019 C3027 1.503 . S
C3020 C3019 1.410 . S
C3020 C3021 1.392 . S
C3020 C3023 1.511 . S
C3021 C3017 1.376 . S
C3021 C3020 1.392 . S
C3021 H3033 0.929 . S
C3022 C3018 1.531 . S
C3022 H3034 0.960 . S
C3022 H3035 0.962 . S
C3022 H3036 0.960 . S
C3023 C3020 1.511 . S
C3023 H3037 0.961 . S
C3023 H3038 0.961 . S
C3023 H3039 0.961 . S
C3024 C3025 1.370 . S
C3024 C3026 1.363 . S
C3024 H3040 0.931 . S
C3025 C3024 1.370 . S
C3025 C3029 1.408 . S
C3026 C3024 1.363 . S
C3026 C3027 1.370 . S
C3026 C3030 1.524 . S
C3027 C3019 1.503 . S
C3027 C3026 1.370 . S
C3027 C3028 1.403 . S
C3028 C3027 1.403 . S
C3028 C3029 1.404 . S
C3028 C3031 1.539 . S
C3029 C3025 1.408 . S
C3029 C3028 1.404 . S
C3029 H3041 0.930 . S
C3030 C3026 1.524 . S
C3030 H3042 0.956 . S
C3030 H3043 0.961 . S
C3030 H3044 0.961 . S
C3031 C3028 1.539 . S
C3031 H3045 0.958 . S
C3031 H3046 0.961 . S
C3031 H3047 0.960 . S
H3032 C3016 0.931 . S
H3033 C3021 0.929 . S
H3034 C3022 0.960 . S
H3035 C3022 0.962 . S
H3036 C3022 0.960 . S
H3037 C3023 0.961 . S
H3038 C3023 0.961 . S
H3039 C3023 0.961 . S
H3040 C3024 0.931 . S
H3041 C3029 0.930 . S
H3042 C3030 0.956 . S
H3043 C3030 0.961 . S
H3044 C3030 0.961 . S
H3045 C3031 0.958 . S
H3046 C3031 0.961 . S
H3047 C3031 0.960 . S
C3048 C3049 1.391 . S
C3048 C3050 1.394 . S
C3048 H3064 0.931 . S
C3049 C3048 1.391 . S
C3049 C3053 1.376 . S
C3050 C3048 1.394 . S
C3050 C3051 1.369 . S
C3050 C3054 1.531 . S
C3051 C3050 1.369 . S
C3051 C3052 1.410 . S
C3051 C3059 1.503 . S
C3052 C3051 1.410 . S
C3052 C3053 1.392 . S
C3052 C3055 1.511 . S
C3053 C3049 1.376 . S
C3053 C3052 1.392 . S
C3053 H3065 0.929 . S
C3054 C3050 1.531 . S
C3054 H3066 0.960 . S
C3054 H3067 0.962 . S
C3054 H3068 0.960 . S
C3055 C3052 1.511 . S
C3055 H3069 0.961 . S
C3055 H3070 0.961 . S
C3055 H3071 0.961 . S
C3056 C3057 1.370 . S
C3056 C3058 1.363 . S
C3056 H3072 0.931 . S
C3057 C3056 1.370 . S
C3057 C3061 1.408 . S
C3058 C3056 1.363 . S
C3058 C3059 1.370 . S
C3058 C3062 1.524 . S
C3059 C3051 1.503 . S
C3059 C3058 1.370 . S
C3059 C3060 1.403 . S
C3060 C3059 1.403 . S
C3060 C3061 1.404 . S
C3060 C3063 1.539 . S
C3061 C3057 1.408 . S
C3061 C3060 1.404 . S
C3061 H3073 0.930 . S
C3062 C3058 1.524 . S
C3062 H3074 0.956 . S
C3062 H3075 0.961 . S
C3062 H3076 0.961 . S
C3063 C3060 1.539 . S
C3063 H3077 0.958 . S
C3063 H3078 0.961 . S
C3063 H3079 0.960 . S
H3064 C3048 0.931 . S
H3065 C3053 0.929 . S
H3066 C3054 0.960 . S
H3067 C3054 0.962 . S
H3068 C3054 0.960 . S
H3069 C3055 0.961 . S
H3070 C3055 0.961 . S
H3071 C3055 0.961 . S
H3072 C3056 0.931 . S
H3073 C3061 0.930 . S
H3074 C3062 0.956 . S
H3075 C3062 0.961 . S
H3076 C3062 0.961 . S
H3077 C3063 0.958 . S
H3078 C3063 0.961 . S
H3079 C3063 0.960 . S
C3080 C3081 1.391 . S
C3080 C3082 1.394 . S
C3080 H3096 0.931 . S
C3081 C3080 1.391 . S
C3081 C3085 1.376 . S
C3082 C3080 1.394 . S
C3082 C3083 1.369 . S
C3082 C3086 1.531 . S
C3083 C3082 1.369 . S
C3083 C3084 1.410 . S
C3083 C3091 1.503 . S
C3084 C3083 1.410 . S
C3084 C3085 1.392 . S
C3084 C3087 1.511 . S
C3085 C3081 1.376 . S
C3085 C3084 1.392 . S
C3085 H3097 0.929 . S
C3086 C3082 1.531 . S
C3086 H3098 0.960 . S
C3086 H3099 0.962 . S
C3086 H3100 0.960 . S
C3087 C3084 1.511 . S
C3087 H3101 0.961 . S
C3087 H3102 0.961 . S
C3087 H3103 0.961 . S
C3088 C3089 1.370 . S
C3088 C3090 1.363 . S
C3088 H3104 0.931 . S
C3089 C3088 1.370 . S
C3089 C3093 1.408 . S
C3090 C3088 1.363 . S
C3090 C3091 1.370 . S
C3090 C3094 1.524 . S
C3091 C3083 1.503 . S
C3091 C3090 1.370 . S
C3091 C3092 1.403 . S
C3092 C3091 1.403 . S
C3092 C3093 1.404 . S
C3092 C3095 1.539 . S
C3093 C3089 1.408 . S
C3093 C3092 1.404 . S
C3093 H3105 0.930 . S
C3094 C3090 1.524 . S
C3094 H3106 0.956 . S
C3094 H3107 0.961 . S
C3094 H3108 0.961 . S
C3095 C3092 1.539 . S
C3095 H3109 0.958 . S
C3095 H3110 0.961 . S
C3095 H3111 0.960 . S
H3096 C3080 0.931 . S
H3097 C3085 0.929 . S
H3098 C3086 0.960 . S
H3099 C3086 0.962 . S
H3100 C3086 0.960 . S
H3101 C3087 0.961 . S
H3102 C3087 0.961 . S
H3103 C3087 0.961 . S
H3104 C3088 0.931 . S
H3105 C3093 0.930 . S
H3106 C3094 0.956 . S
H3107 C3094 0.961 . S
H3108 C3094 0.961 . S
H3109 C3095 0.958 . S
H3110 C3095 0.961 . S
H3111 C3095 0.960 . S
C3112 C3113 1.391 . S
C3112 C3114 1.394 . S
C3112 H3128 0.931 . S
C3113 C3112 1.391 . S
C3113 C3117 1.376 . S
C3114 C3112 1.394 . S
C3114 C3115 1.369 . S
C3114 C3118 1.531 . S
C3115 C3114 1.369 . S
C3115 C3116 1.410 . S
C3115 C3123 1.503 . S
C3116 C3115 1.410 . S
C3116 C3117 1.392 . S
C3116 C3119 1.511 . S
C3117 C3113 1.376 . S
C3117 C3116 1.392 . S
C3117 H3129 0.929 . S
C3118 C3114 1.531 . S
C3118 H3130 0.960 . S
C3118 H3131 0.962 . S
C3118 H3132 0.960 . S
C3119 C3116 1.511 . S
C3119 H3133 0.961 . S
C3119 H3134 0.961 . S
C3119 H3135 0.961 . S
C3120 C3121 1.370 . S
C3120 C3122 1.363 . S
C3120 H3136 0.931 . S
C3121 C3120 1.370 . S
C3121 C3125 1.408 . S
C3122 C3120 1.363 . S
C3122 C3123 1.370 . S
C3122 C3126 1.524 . S
C3123 C3115 1.503 . S
C3123 C3122 1.370 . S
C3123 C3124 1.403 . S
C3124 C3123 1.403 . S
C3124 C3125 1.404 . S
C3124 C3127 1.539 . S
C3125 C3121 1.408 . S
C3125 C3124 1.404 . S
C3125 H3137 0.930 . S
C3126 C3122 1.524 . S
C3126 H3138 0.956 . S
C3126 H3139 0.961 . S
C3126 H3140 0.961 . S
C3127 C3124 1.539 . S
C3127 H3141 0.958 . S
C3127 H3142 0.961 . S
C3127 H3143 0.960 . S
H3128 C3112 0.931 . S
H3129 C3117 0.929 . S
H3130 C3118 0.960 . S
H3131 C3118 0.962 . S
H3132 C3118 0.960 . S
H3133 C3119 0.961 . S
H3134 C3119 0.961 . S
H3135 C3119 0.961 . S
H3136 C3120 0.931 . S
H3137 C3125 0.930 . S
H3138 C3126 0.956 . S
H3139 C3126 0.961 . S
H3140 C3126 0.961 . S
H3141 C3127 0.958 . S
H3142 C3127 0.961 . S
H3143 C3127 0.960 . S
C3144 C3145 1.391 . S
C3144 C3146 1.394 . S
C3144 H3160 0.931 . S
C3145 C3144 1.391 . S
C3145 C3149 1.376 . S
C3146 C3144 1.394 . S
C3146 C3147 1.369 . S
C3146 C3150 1.531 . S
C3147 C3146 1.369 . S
C3147 C3148 1.410 . S
C3147 C3155 1.503 . S
C3148 C3147 1.410 . S
C3148 C3149 1.392 . S
C3148 C3151 1.511 . S
C3149 C3145 1.376 . S
C3149 C3148 1.392 . S
C3149 H3161 0.929 . S
C3150 C3146 1.531 . S
C3150 H3162 0.960 . S
C3150 H3163 0.962 . S
C3150 H3164 0.960 . S
C3151 C3148 1.511 . S
C3151 H3165 0.961 . S
C3151 H3166 0.961 . S
C3151 H3167 0.961 . S
C3152 C3153 1.370 . S
C3152 C3154 1.363 . S
C3152 H3168 0.931 . S
C3153 C3152 1.370 . S
C3153 C3157 1.408 . S
C3154 C3152 1.363 . S
C3154 C3155 1.370 . S
C3154 C3158 1.524 . S
C3155 C3147 1.503 . S
C3155 C3154 1.370 . S
C3155 C3156 1.403 . S
C3156 C3155 1.403 . S
C3156 C3157 1.404 . S
C3156 C3159 1.539 . S
C3157 C3153 1.408 . S
C3157 C3156 1.404 . S
C3157 H3169 0.930 . S
C3158 C3154 1.524 . S
C3158 H3170 0.956 . S
C3158 H3171 0.961 . S
C3158 H3172 0.961 . S
C3159 C3156 1.539 . S
C3159 H3173 0.958 . S
C3159 H3174 0.961 . S
C3159 H3175 0.960 . S
H3160 C3144 0.931 . S
H3161 C3149 0.929 . S
H3162 C3150 0.960 . S
H3163 C3150 0.962 . S
H3164 C3150 0.960 . S
H3165 C3151 0.961 . S
H3166 C3151 0.961 . S
H3167 C3151 0.961 . S
H3168 C3152 0.931 . S
H3169 C3157 0.930 . S
H3170 C3158 0.956 . S
H3171 C3158 0.961 . S
H3172 C3158 0.961 . S
H3173 C3159 0.958 . S
H3174 C3159 0.961 . S
H3175 C3159 0.960 . S
C3176 C3177 1.391 . S
C3176 C3178 1.394 . S
C3176 H3192 0.931 . S
C3177 C3176 1.391 . S
C3177 C3181 1.376 . S
C3178 C3176 1.394 . S
C3178 C3179 1.369 . S
C3178 C3182 1.531 . S
C3179 C3178 1.369 . S
C3179 C3180 1.410 . S
C3179 C3187 1.503 . S
C3180 C3179 1.410 . S
C3180 C3181 1.392 . S
C3180 C3183 1.511 . S
C3181 C3177 1.376 . S
C3181 C3180 1.392 . S
C3181 H3193 0.929 . S
C3182 C3178 1.531 . S
C3182 H3194 0.960 . S
C3182 H3195 0.962 . S
C3182 H3196 0.960 . S
C3183 C3180 1.511 . S
C3183 H3197 0.961 . S
C3183 H3198 0.961 . S
C3183 H3199 0.961 . S
C3184 C3185 1.370 . S
C3184 C3186 1.363 . S
C3184 H3200 0.931 . S
C3185 C3184 1.370 . S
C3185 C3189 1.408 . S
C3186 C3184 1.363 . S
C3186 C3187 1.370 . S
C3186 C3190 1.524 . S
C3187 C3179 1.503 . S
C3187 C3186 1.370 . S
C3187 C3188 1.403 . S
C3188 C3187 1.403 . S
C3188 C3189 1.404 . S
C3188 C3191 1.539 . S
C3189 C3185 1.408 . S
C3189 C3188 1.404 . S
C3189 H3201 0.930 . S
C3190 C3186 1.524 . S
C3190 H3202 0.956 . S
C3190 H3203 0.961 . S
C3190 H3204 0.961 . S
C3191 C3188 1.539 . S
C3191 H3205 0.958 . S
C3191 H3206 0.961 . S
C3191 H3207 0.960 . S
H3192 C3176 0.931 . S
H3193 C3181 0.929 . S
H3194 C3182 0.960 . S
H3195 C3182 0.962 . S
H3196 C3182 0.960 . S
H3197 C3183 0.961 . S
H3198 C3183 0.961 . S
H3199 C3183 0.961 . S
H3200 C3184 0.931 . S
H3201 C3189 0.930 . S
H3202 C3190 0.956 . S
H3203 C3190 0.961 . S
H3204 C3190 0.961 . S
H3205 C3191 0.958 . S
H3206 C3191 0.961 . S
H3207 C3191 0.960 . S
C3208 C3209 1.391 . S
C3208 C3210 1.394 . S
C3208 H3224 0.931 . S
C3209 C3208 1.391 . S
C3209 C3213 1.376 . S
C3210 C3208 1.394 . S
C3210 C3211 1.369 . S
C3210 C3214 1.531 . S
C3211 C3210 1.369 . S
C3211 C3212 1.410 . S
C3211 C3219 1.503 . S
C3212 C3211 1.410 . S
C3212 C3213 1.392 . S
C3212 C3215 1.511 . S
C3213 C3209 1.376 . S
C3213 C3212 1.392 . S
C3213 H3225 0.929 . S
C3214 C3210 1.531 . S
C3214 H3226 0.960 . S
C3214 H3227 0.962 . S
C3214 H3228 0.960 . S
C3215 C3212 1.511 . S
C3215 H3229 0.961 . S
C3215 H3230 0.961 . S
C3215 H3231 0.961 . S
C3216 C3217 1.370 . S
C3216 C3218 1.363 . S
C3216 H3232 0.931 . S
C3217 C3216 1.370 . S
C3217 C3221 1.408 . S
C3218 C3216 1.363 . S
C3218 C3219 1.370 . S
C3218 C3222 1.524 . S
C3219 C3211 1.503 . S
C3219 C3218 1.370 . S
C3219 C3220 1.403 . S
C3220 C3219 1.403 . S
C3220 C3221 1.404 . S
C3220 C3223 1.539 . S
C3221 C3217 1.408 . S
C3221 C3220 1.404 . S
C3221 H3233 0.930 . S
C3222 C3218 1.524 . S
C3222 H3234 0.956 . S
C3222 H3235 0.961 . S
C3222 H3236 0.961 . S
C3223 C3220 1.539 . S
C3223 H3237 0.958 . S
C3223 H3238 0.961 . S
C3223 H3239 0.960 . S
H3224 C3208 0.931 . S
H3225 C3213 0.929 . S
H3226 C3214 0.960 . S
H3227 C3214 0.962 . S
H3228 C3214 0.960 . S
H3229 C3215 0.961 . S
H3230 C3215 0.961 . S
H3231 C3215 0.961 . S
H3232 C3216 0.931 . S
H3233 C3221 0.930 . S
H3234 C3222 0.956 . S
H3235 C3222 0.961 . S
H3236 C3222 0.961 . S
H3237 C3223 0.958 . S
H3238 C3223 0.961 . S
H3239 C3223 0.960 . S
C3240 C3241 1.391 . S
C3240 C3242 1.394 . S
C3240 H3256 0.931 . S
C3241 C3240 1.391 . S
C3241 C3245 1.376 . S
C3242 C3240 1.394 . S
C3242 C3243 1.369 . S
C3242 C3246 1.531 . S
C3243 C3242 1.369 . S
C3243 C3244 1.410 . S
C3243 C3251 1.503 . S
C3244 C3243 1.410 . S
C3244 C3245 1.392 . S
C3244 C3247 1.511 . S
C3245 C3241 1.376 . S
C3245 C3244 1.392 . S
C3245 H3257 0.929 . S
C3246 C3242 1.531 . S
C3246 H3258 0.960 . S
C3246 H3259 0.962 . S
C3246 H3260 0.960 . S
C3247 C3244 1.511 . S
C3247 H3261 0.961 . S
C3247 H3262 0.961 . S
C3247 H3263 0.961 . S
C3248 C3249 1.370 . S
C3248 C3250 1.363 . S
C3248 H3264 0.931 . S
C3249 C3248 1.370 . S
C3249 C3253 1.408 . S
C3250 C3248 1.363 . S
C3250 C3251 1.370 . S
C3250 C3254 1.524 . S
C3251 C3243 1.503 . S
C3251 C3250 1.370 . S
C3251 C3252 1.403 . S
C3252 C3251 1.403 . S
C3252 C3253 1.404 . S
C3252 C3255 1.539 . S
C3253 C3249 1.408 . S
C3253 C3252 1.404 . S
C3253 H3265 0.930 . S
C3254 C3250 1.524 . S
C3254 H3266 0.956 . S
C3254 H3267 0.961 . S
C3254 H3268 0.961 . S
C3255 C3252 1.539 . S
C3255 H3269 0.958 . S
C3255 H3270 0.961 . S
C3255 H3271 0.960 . S
H3256 C3240 0.931 . S
H3257 C3245 0.929 . S
H3258 C3246 0.960 . S
H3259 C3246 0.962 . S
H3260 C3246 0.960 . S
H3261 C3247 0.961 . S
H3262 C3247 0.961 . S
H3263 C3247 0.961 . S
H3264 C3248 0.931 . S
H3265 C3253 0.930 . S
H3266 C3254 0.956 . S
H3267 C3254 0.961 . S
H3268 C3254 0.961 . S
H3269 C3255 0.958 . S
H3270 C3255 0.961 . S
H3271 C3255 0.960 . S
C3272 C3273 1.391 . S
C3272 C3274 1.394 . S
C3272 H3288 0.931 . S
C3273 C3272 1.391 . S
C3273 C3277 1.376 . S
C3274 C3272 1.394 . S
C3274 C3275 1.369 . S
C3274 C3278 1.531 . S
C3275 C3274 1.369 . S
C3275 C3276 1.410 . S
C3275 C3283 1.503 . S
C3276 C3275 1.410 . S
C3276 C3277 1.392 . S
C3276 C3279 1.511 . S
C3277 C3273 1.376 . S
C3277 C3276 1.392 . S
C3277 H3289 0.929 . S
C3278 C3274 1.531 . S
C3278 H3290 0.960 . S
C3278 H3291 0.962 . S
C3278 H3292 0.960 . S
C3279 C3276 1.511 . S
C3279 H3293 0.961 . S
C3279 H3294 0.961 . S
C3279 H3295 0.961 . S
C3280 C3281 1.370 . S
C3280 C3282 1.363 . S
C3280 H3296 0.931 . S
C3281 C3280 1.370 . S
C3281 C3285 1.408 . S
C3282 C3280 1.363 . S
C3282 C3283 1.370 . S
C3282 C3286 1.524 . S
C3283 C3275 1.503 . S
C3283 C3282 1.370 . S
C3283 C3284 1.403 . S
C3284 C3283 1.403 . S
C3284 C3285 1.404 . S
C3284 C3287 1.539 . S
C3285 C3281 1.408 . S
C3285 C3284 1.404 . S
C3285 H3297 0.930 . S
C3286 C3282 1.524 . S
C3286 H3298 0.956 . S
C3286 H3299 0.961 . S
C3286 H3300 0.961 . S
C3287 C3284 1.539 . S
C3287 H3301 0.958 . S
C3287 H3302 0.961 . S
C3287 H3303 0.960 . S
H3288 C3272 0.931 . S
H3289 C3277 0.929 . S
H3290 C3278 0.960 . S
H3291 C3278 0.962 . S
H3292 C3278 0.960 . S
H3293 C3279 0.961 . S
H3294 C3279 0.961 . S
H3295 C3279 0.961 . S
H3296 C3280 0.931 . S
H3297 C3285 0.930 . S
H3298 C3286 0.956 . S
H3299 C3286 0.961 . S
H3300 C3286 0.961 . S
H3301 C3287 0.958 . S
H3302 C3287 0.961 . S
H3303 C3287 0.960 . S
C3304 C3305 1.391 . S
C3304 C3306 1.394 . S
C3304 H3320 0.931 . S
C3305 C3304 1.391 . S
C3305 C3309 1.376 . S
C3306 C3304 1.394 . S
C3306 C3307 1.369 . S
C3306 C3310 1.531 . S
C3307 C3306 1.369 . S
C3307 C3308 1.410 . S
C3307 C3315 1.503 . S
C3308 C3307 1.410 . S
C3308 C3309 1.392 . S
C3308 C3311 1.511 . S
C3309 C3305 1.376 . S
C3309 C3308 1.392 . S
C3309 H3321 0.929 . S
C3310 C3306 1.531 . S
C3310 H3322 0.960 . S
C3310 H3323 0.962 . S
C3310 H3324 0.960 . S
C3311 C3308 1.511 . S
C3311 H3325 0.961 . S
C3311 H3326 0.961 . S
C3311 H3327 0.961 . S
C3312 C3313 1.370 . S
C3312 C3314 1.363 . S
C3312 H3328 0.931 . S
C3313 C3312 1.370 . S
C3313 C3317 1.408 . S
C3314 C3312 1.363 . S
C3314 C3315 1.370 . S
C3314 C3318 1.524 . S
C3315 C3307 1.503 . S
C3315 C3314 1.370 . S
C3315 C3316 1.403 . S
C3316 C3315 1.403 . S
C3316 C3317 1.404 . S
C3316 C3319 1.539 . S
C3317 C3313 1.408 . S
C3317 C3316 1.404 . S
C3317 H3329 0.930 . S
C3318 C3314 1.524 . S
C3318 H3330 0.956 . S
C3318 H3331 0.961 . S
C3318 H3332 0.961 . S
C3319 C3316 1.539 . S
C3319 H3333 0.958 . S
C3319 H3334 0.961 . S
C3319 H3335 0.960 . S
H3320 C3304 0.931 . S
H3321 C3309 0.929 . S
H3322 C3310 0.960 . S
H3323 C3310 0.962 . S
H3324 C3310 0.960 . S
H3325 C3311 0.961 . S
H3326 C3311 0.961 . S
H3327 C3311 0.961 . S
H3328 C3312 0.931 . S
H3329 C3317 0.930 . S
H3330 C3318 0.956 . S
H3331 C3318 0.961 . S
H3332 C3318 0.961 . S
H3333 C3319 0.958 . S
H3334 C3319 0.961 . S
H3335 C3319 0.960 . S
C3336 C3337 1.391 . S
C3336 C3338 1.394 . S
C3336 H3352 0.931 . S
C3337 C3336 1.391 . S
C3337 C3341 1.376 . S
C3338 C3336 1.394 . S
C3338 C3339 1.369 . S
C3338 C3342 1.531 . S
C3339 C3338 1.369 . S
C3339 C3340 1.410 . S
C3339 C3347 1.503 . S
C3340 C3339 1.410 . S
C3340 C3341 1.392 . S
C3340 C3343 1.511 . S
C3341 C3337 1.376 . S
C3341 C3340 1.392 . S
C3341 H3353 0.929 . S
C3342 C3338 1.531 . S
C3342 H3354 0.960 . S
C3342 H3355 0.962 . S
C3342 H3356 0.960 . S
C3343 C3340 1.511 . S
C3343 H3357 0.961 . S
C3343 H3358 0.961 . S
C3343 H3359 0.961 . S
C3344 C3345 1.370 . S
C3344 C3346 1.363 . S
C3344 H3360 0.931 . S
C3345 C3344 1.370 . S
C3345 C3349 1.408 . S
C3346 C3344 1.363 . S
C3346 C3347 1.370 . S
C3346 C3350 1.524 . S
C3347 C3339 1.503 . S
C3347 C3346 1.370 . S
C3347 C3348 1.403 . S
C3348 C3347 1.403 . S
C3348 C3349 1.404 . S
C3348 C3351 1.539 . S
C3349 C3345 1.408 . S
C3349 C3348 1.404 . S
C3349 H3361 0.930 . S
C3350 C3346 1.524 . S
C3350 H3362 0.956 . S
C3350 H3363 0.961 . S
C3350 H3364 0.961 . S
C3351 C3348 1.539 . S
C3351 H3365 0.958 . S
C3351 H3366 0.961 . S
C3351 H3367 0.960 . S
H3352 C3336 0.931 . S
H3353 C3341 0.929 . S
H3354 C3342 0.960 . S
H3355 C3342 0.962 . S
H3356 C3342 0.960 . S
H3357 C3343 0.961 . S
H3358 C3343 0.961 . S
H3359 C3343 0.961 . S
H3360 C3344 0.931 . S
H3361 C3349 0.930 . S
H3362 C3350 0.956 . S
H3363 C3350 0.961 . S
H3364 C3350 0.961 . S
H3365 C3351 0.958 . S
H3366 C3351 0.961 . S
H3367 C3351 0.960 . S
C3368 C3369 1.391 . S
C3368 C3370 1.394 . S
C3368 H3384 0.931 . S
C3369 C3368 1.391 . S
C3369 C3373 1.376 . S
C3370 C3368 1.394 . S
C3370 C3371 1.369 . S
C3370 C3374 1.531 . S
C3371 C3370 1.369 . S
C3371 C3372 1.410 . S
C3371 C3379 1.503 . S
C3372 C3371 1.410 . S
C3372 C3373 1.392 . S
C3372 C3375 1.511 . S
C3373 C3369 1.376 . S
C3373 C3372 1.392 . S
C3373 H3385 0.929 . S
C3374 C3370 1.531 . S
C3374 H3386 0.960 . S
C3374 H3387 0.962 . S
C3374 H3388 0.960 . S
C3375 C3372 1.511 . S
C3375 H3389 0.961 . S
C3375 H3390 0.961 . S
C3375 H3391 0.961 . S
C3376 C3377 1.370 . S
C3376 C3378 1.363 . S
C3376 H3392 0.931 . S
C3377 C3376 1.370 . S
C3377 C3381 1.408 . S
C3378 C3376 1.363 . S
C3378 C3379 1.370 . S
C3378 C3382 1.524 . S
C3379 C3371 1.503 . S
C3379 C3378 1.370 . S
C3379 C3380 1.403 . S
C3380 C3379 1.403 . S
C3380 C3381 1.404 . S
C3380 C3383 1.539 . S
C3381 C3377 1.408 . S
C3381 C3380 1.404 . S
C3381 H3393 0.930 . S
C3382 C3378 1.524 . S
C3382 H3394 0.956 . S
C3382 H3395 0.961 . S
C3382 H3396 0.961 . S
C3383 C3380 1.539 . S
C3383 H3397 0.958 . S
C3383 H3398 0.961 . S
C3383 H3399 0.960 . S
H3384 C3368 0.931 . S
H3385 C3373 0.929 . S
H3386 C3374 0.960 . S
H3387 C3374 0.962 . S
H3388 C3374 0.960 . S
H3389 C3375 0.961 . S
H3390 C3375 0.961 . S
H3391 C3375 0.961 . S
H3392 C3376 0.931 . S
H3393 C3381 0.930 . S
H3394 C3382 0.956 . S
H3395 C3382 0.961 . S
H3396 C3382 0.961 . S
H3397 C3383 0.958 . S
H3398 C3383 0.961 . S
H3399 C3383 0.960 . S
C3400 C3401 1.391 . S
C3400 C3402 1.394 . S
C3400 H3416 0.931 . S
C3401 C3400 1.391 . S
C3401 C3405 1.376 . S
C3402 C3400 1.394 . S
C3402 C3403 1.369 . S
C3402 C3406 1.531 . S
C3403 C3402 1.369 . S
C3403 C3404 1.410 . S
C3403 C3411 1.503 . S
C3404 C3403 1.410 . S
C3404 C3405 1.392 . S
C3404 C3407 1.511 . S
C3405 C3401 1.376 . S
C3405 C3404 1.392 . S
C3405 H3417 0.929 . S
C3406 C3402 1.531 . S
C3406 H3418 0.960 . S
C3406 H3419 0.962 . S
C3406 H3420 0.960 . S
C3407 C3404 1.511 . S
C3407 H3421 0.961 . S
C3407 H3422 0.961 . S
C3407 H3423 0.961 . S
C3408 C3409 1.370 . S
C3408 C3410 1.363 . S
C3408 H3424 0.931 . S
C3409 C3408 1.370 . S
C3409 C3413 1.408 . S
C3410 C3408 1.363 . S
C3410 C3411 1.370 . S
C3410 C3414 1.524 . S
C3411 C3403 1.503 . S
C3411 C3410 1.370 . S
C3411 C3412 1.403 . S
C3412 C3411 1.403 . S
C3412 C3413 1.404 . S
C3412 C3415 1.539 . S
C3413 C3409 1.408 . S
C3413 C3412 1.404 . S
C3413 H3425 0.930 . S
C3414 C3410 1.524 . S
C3414 H3426 0.956 . S
C3414 H3427 0.961 . S
C3414 H3428 0.961 . S
C3415 C3412 1.539 . S
C3415 H3429 0.958 . S
C3415 H3430 0.961 . S
C3415 H3431 0.960 . S
H3416 C3400 0.931 . S
H3417 C3405 0.929 . S
H3418 C3406 0.960 . S
H3419 C3406 0.962 . S
H3420 C3406 0.960 . S
H3421 C3407 0.961 . S
H3422 C3407 0.961 . S
H3423 C3407 0.961 . S
H3424 C3408 0.931 . S
H3425 C3413 0.930 . S
H3426 C3414 0.956 . S
H3427 C3414 0.961 . S
H3428 C3414 0.961 . S
H3429 C3415 0.958 . S
H3430 C3415 0.961 . S
H3431 C3415 0.960 . S
C3432 C3433 1.391 . S
C3432 C3434 1.394 . S
C3432 H3448 0.931 . S
C3433 C3432 1.391 . S
C3433 C3437 1.376 . S
C3434 C3432 1.394 . S
C3434 C3435 1.369 . S
C3434 C3438 1.531 . S
C3435 C3434 1.369 . S
C3435 C3436 1.410 . S
C3435 C3443 1.503 . S
C3436 C3435 1.410 . S
C3436 C3437 1.392 . S
C3436 C3439 1.511 . S
C3437 C3433 1.376 . S
C3437 C3436 1.392 . S
C3437 H3449 0.929 . S
C3438 C3434 1.531 . S
C3438 H3450 0.960 . S
C3438 H3451 0.962 . S
C3438 H3452 0.960 . S
C3439 C3436 1.511 . S
C3439 H3453 0.961 . S
C3439 H3454 0.961 . S
C3439 H3455 0.961 . S
C3440 C3441 1.370 . S
C3440 C3442 1.363 . S
C3440 H3456 0.931 . S
C3441 C3440 1.370 . S
C3441 C3445 1.408 . S
C3442 C3440 1.363 . S
C3442 C3443 1.370 . S
C3442 C3446 1.524 . S
C3443 C3435 1.503 . S
C3443 C3442 1.370 . S
C3443 C3444 1.403 . S
C3444 C3443 1.403 . S
C3444 C3445 1.404 . S
C3444 C3447 1.539 . S
C3445 C3441 1.408 . S
C3445 C3444 1.404 . S
C3445 H3457 0.930 . S
C3446 C3442 1.524 . S
C3446 H3458 0.956 . S
C3446 H3459 0.961 . S
C3446 H3460 0.961 . S
C3447 C3444 1.539 . S
C3447 H3461 0.958 . S
C3447 H3462 0.961 . S
C3447 H3463 0.960 . S
H3448 C3432 0.931 . S
H3449 C3437 0.929 . S
H3450 C3438 0.960 . S
H3451 C3438 0.962 . S
H3452 C3438 0.960 . S
H3453 C3439 0.961 . S
H3454 C3439 0.961 . S
H3455 C3439 0.961 . S
H3456 C3440 0.931 . S
H3457 C3445 0.930 . S
H3458 C3446 0.956 . S
H3459 C3446 0.961 . S
H3460 C3446 0.961 . S
H3461 C3447 0.958 . S
H3462 C3447 0.961 . S
H3463 C3447 0.960 . S
C3464 C3465 1.391 . S
C3464 C3466 1.394 . S
C3464 H3480 0.931 . S
C3465 C3464 1.391 . S
C3465 C3469 1.376 . S
C3466 C3464 1.394 . S
C3466 C3467 1.369 . S
C3466 C3470 1.531 . S
C3467 C3466 1.369 . S
C3467 C3468 1.410 . S
C3467 C3475 1.503 . S
C3468 C3467 1.410 . S
C3468 C3469 1.392 . S
C3468 C3471 1.511 . S
C3469 C3465 1.376 . S
C3469 C3468 1.392 . S
C3469 H3481 0.929 . S
C3470 C3466 1.531 . S
C3470 H3482 0.960 . S
C3470 H3483 0.962 . S
C3470 H3484 0.960 . S
C3471 C3468 1.511 . S
C3471 H3485 0.961 . S
C3471 H3486 0.961 . S
C3471 H3487 0.961 . S
C3472 C3473 1.370 . S
C3472 C3474 1.363 . S
C3472 H3488 0.931 . S
C3473 C3472 1.370 . S
C3473 C3477 1.408 . S
C3474 C3472 1.363 . S
C3474 C3475 1.370 . S
C3474 C3478 1.524 . S
C3475 C3467 1.503 . S
C3475 C3474 1.370 . S
C3475 C3476 1.403 . S
C3476 C3475 1.403 . S
C3476 C3477 1.404 . S
C3476 C3479 1.539 . S
C3477 C3473 1.408 . S
C3477 C3476 1.404 . S
C3477 H3489 0.930 . S
C3478 C3474 1.524 . S
C3478 H3490 0.956 . S
C3478 H3491 0.961 . S
C3478 H3492 0.961 . S
C3479 C3476 1.539 . S
C3479 H3493 0.958 . S
C3479 H3494 0.961 . S
C3479 H3495 0.960 . S
H3480 C3464 0.931 . S
H3481 C3469 0.929 . S
H3482 C3470 0.960 . S
H3483 C3470 0.962 . S
H3484 C3470 0.960 . S
H3485 C3471 0.961 . S
H3486 C3471 0.961 . S
H3487 C3471 0.961 . S
H3488 C3472 0.931 . S
H3489 C3477 0.930 . S
H3490 C3478 0.956 . S
H3491 C3478 0.961 . S
H3492 C3478 0.961 . S
H3493 C3479 0.958 . S
H3494 C3479 0.961 . S
H3495 C3479 0.960 . S
C3496 C3497 1.391 . S
C3496 C3498 1.394 . S
C3496 H3512 0.931 . S
C3497 C3496 1.391 . S
C3497 C3501 1.376 . S
C3498 C3496 1.394 . S
C3498 C3499 1.369 . S
C3498 C3502 1.531 . S
C3499 C3498 1.369 . S
C3499 C3500 1.410 . S
C3499 C3507 1.503 . S
C3500 C3499 1.410 . S
C3500 C3501 1.392 . S
C3500 C3503 1.511 . S
C3501 C3497 1.376 . S
C3501 C3500 1.392 . S
C3501 H3513 0.929 . S
C3502 C3498 1.531 . S
C3502 H3514 0.960 . S
C3502 H3515 0.962 . S
C3502 H3516 0.960 . S
C3503 C3500 1.511 . S
C3503 H3517 0.961 . S
C3503 H3518 0.961 . S
C3503 H3519 0.961 . S
C3504 C3505 1.370 . S
C3504 C3506 1.363 . S
C3504 H3520 0.931 . S
C3505 C3504 1.370 . S
C3505 C3509 1.408 . S
C3506 C3504 1.363 . S
C3506 C3507 1.370 . S
C3506 C3510 1.524 . S
C3507 C3499 1.503 . S
C3507 C3506 1.370 . S
C3507 C3508 1.403 . S
C3508 C3507 1.403 . S
C3508 C3509 1.404 . S
C3508 C3511 1.539 . S
C3509 C3505 1.408 . S
C3509 C3508 1.404 . S
C3509 H3521 0.930 . S
C3510 C3506 1.524 . S
C3510 H3522 0.956 . S
C3510 H3523 0.961 . S
C3510 H3524 0.961 . S
C3511 C3508 1.539 . S
C3511 H3525 0.958 . S
C3511 H3526 0.961 . S
C3511 H3527 0.960 . S
H3512 C3496 0.931 . S
H3513 C3501 0.929 . S
H3514 C3502 0.960 . S
H3515 C3502 0.962 . S
H3516 C3502 0.960 . S
H3517 C3503 0.961 . S
H3518 C3503 0.961 . S
H3519 C3503 0.961 . S
H3520 C3504 0.931 . S
H3521 C3509 0.930 . S
H3522 C3510 0.956 . S
H3523 C3510 0.961 . S
H3524 C3510 0.961 . S
H3525 C3511 0.958 . S
H3526 C3511 0.961 . S
H3527 C3511 0.960 . S
C3528 C3529 1.391 . S
C3528 C3530 1.394 . S
C3528 H3544 0.931 . S
C3529 C3528 1.391 . S
C3529 C3533 1.376 . S
C3530 C3528 1.394 . S
C3530 C3531 1.369 . S
C3530 C3534 1.531 . S
C3531 C3530 1.369 . S
C3531 C3532 1.410 . S
C3531 C3539 1.503 . S
C3532 C3531 1.410 . S
C3532 C3533 1.392 . S
C3532 C3535 1.511 . S
C3533 C3529 1.376 . S
C3533 C3532 1.392 . S
C3533 H3545 0.929 . S
C3534 C3530 1.531 . S
C3534 H3546 0.960 . S
C3534 H3547 0.962 . S
C3534 H3548 0.960 . S
C3535 C3532 1.511 . S
C3535 H3549 0.961 . S
C3535 H3550 0.961 . S
C3535 H3551 0.961 . S
C3536 C3537 1.370 . S
C3536 C3538 1.363 . S
C3536 H3552 0.931 . S
C3537 C3536 1.370 . S
C3537 C3541 1.408 . S
C3538 C3536 1.363 . S
C3538 C3539 1.370 . S
C3538 C3542 1.524 . S
C3539 C3531 1.503 . S
C3539 C3538 1.370 . S
C3539 C3540 1.403 . S
C3540 C3539 1.403 . S
C3540 C3541 1.404 . S
C3540 C3543 1.539 . S
C3541 C3537 1.408 . S
C3541 C3540 1.404 . S
C3541 H3553 0.930 . S
C3542 C3538 1.524 . S
C3542 H3554 0.956 . S
C3542 H3555 0.961 . S
C3542 H3556 0.961 . S
C3543 C3540 1.539 . S
C3543 H3557 0.958 . S
C3543 H3558 0.961 . S
C3543 H3559 0.960 . S
H3544 C3528 0.931 . S
H3545 C3533 0.929 . S
H3546 C3534 0.960 . S
H3547 C3534 0.962 . S
H3548 C3534 0.960 . S
H3549 C3535 0.961 . S
H3550 C3535 0.961 . S
H3551 C3535 0.961 . S
H3552 C3536 0.931 . S
H3553 C3541 0.930 . S
H3554 C3542 0.956 . S
H3555 C3542 0.961 . S
H3556 C3542 0.961 . S
H3557 C3543 0.958 . S
H3558 C3543 0.961 . S
H3559 C3543 0.960 . S
C3560 C3561 1.391 . S
C3560 C3562 1.394 . S
C3560 H3576 0.931 . S
C3561 C3560 1.391 . S
C3561 C3565 1.376 . S
C3562 C3560 1.394 . S
C3562 C3563 1.369 . S
C3562 C3566 1.531 . S
C3563 C3562 1.369 . S
C3563 C3564 1.410 . S
C3563 C3571 1.503 . S
C3564 C3563 1.410 . S
C3564 C3565 1.392 . S
C3564 C3567 1.511 . S
C3565 C3561 1.376 . S
C3565 C3564 1.392 . S
C3565 H3577 0.929 . S
C3566 C3562 1.531 . S
C3566 H3578 0.960 . S
C3566 H3579 0.962 . S
C3566 H3580 0.960 . S
C3567 C3564 1.511 . S
C3567 H3581 0.961 . S
C3567 H3582 0.961 . S
C3567 H3583 0.961 . S
C3568 C3569 1.370 . S
C3568 C3570 1.363 . S
C3568 H3584 0.931 . S
C3569 C3568 1.370 . S
C3569 C3573 1.408 . S
C3570 C3568 1.363 . S
C3570 C3571 1.370 . S
C3570 C3574 1.524 . S
C3571 C3563 1.503 . S
C3571 C3570 1.370 . S
C3571 C3572 1.403 . S
C3572 C3571 1.403 . S
C3572 C3573 1.404 . S
C3572 C3575 1.539 . S
C3573 C3569 1.408 . S
C3573 C3572 1.404 . S
C3573 H3585 0.930 . S
C3574 C3570 1.524 . S
C3574 H3586 0.956 . S
C3574 H3587 0.961 . S
C3574 H3588 0.961 . S
C3575 C3572 1.539 . S
C3575 H3589 0.958 . S
C3575 H3590 0.961 . S
C3575 H3591 0.960 . S
H3576 C3560 0.931 . S
H3577 C3565 0.929 . S
H3578 C3566 0.960 . S
H3579 C3566 0.962 . S
H3580 C3566 0.960 . S
H3581 C3567 0.961 . S
H3582 C3567 0.961 . S
H3583 C3567 0.961 . S
H3584 C3568 0.931 . S
H3585 C3573 0.930 . S
H3586 C3574 0.956 . S
H3587 C3574 0.961 . S
H3588 C3574 0.961 . S
H3589 C3575 0.958 . S
H3590 C3575 0.961 . S
H3591 C3575 0.960 . S
C3592 C3593 1.391 . S
C3592 C3594 1.394 . S
C3592 H3608 0.931 . S
C3593 C3592 1.391 . S
C3593 C3597 1.376 . S
C3594 C3592 1.394 . S
C3594 C3595 1.369 . S
C3594 C3598 1.531 . S
C3595 C3594 1.369 . S
C3595 C3596 1.410 . S
C3595 C3603 1.503 . S
C3596 C3595 1.410 . S
C3596 C3597 1.392 . S
C3596 C3599 1.511 . S
C3597 C3593 1.376 . S
C3597 C3596 1.392 . S
C3597 H3609 0.929 . S
C3598 C3594 1.531 . S
C3598 H3610 0.960 . S
C3598 H3611 0.962 . S
C3598 H3612 0.960 . S
C3599 C3596 1.511 . S
C3599 H3613 0.961 . S
C3599 H3614 0.961 . S
C3599 H3615 0.961 . S
C3600 C3601 1.370 . S
C3600 C3602 1.363 . S
C3600 H3616 0.931 . S
C3601 C3600 1.370 . S
C3601 C3605 1.408 . S
C3602 C3600 1.363 . S
C3602 C3603 1.370 . S
C3602 C3606 1.524 . S
C3603 C3595 1.503 . S
C3603 C3602 1.370 . S
C3603 C3604 1.403 . S
C3604 C3603 1.403 . S
C3604 C3605 1.404 . S
C3604 C3607 1.539 . S
C3605 C3601 1.408 . S
C3605 C3604 1.404 . S
C3605 H3617 0.930 . S
C3606 C3602 1.524 . S
C3606 H3618 0.956 . S
C3606 H3619 0.961 . S
C3606 H3620 0.961 . S
C3607 C3604 1.539 . S
C3607 H3621 0.958 . S
C3607 H3622 0.961 . S
C3607 H3623 0.960 . S
H3608 C3592 0.931 . S
H3609 C3597 0.929 . S
H3610 C3598 0.960 . S
H3611 C3598 0.962 . S
H3612 C3598 0.960 . S
H3613 C3599 0.961 . S
H3614 C3599 0.961 . S
H3615 C3599 0.961 . S
H3616 C3600 0.931 . S
H3617 C3605 0.930 . S
H3618 C3606 0.956 . S
H3619 C3606 0.961 . S
H3620 C3606 0.961 . S
H3621 C3607 0.958 . S
H3622 C3607 0.961 . S
H3623 C3607 0.960 . S
C3624 C3625 1.391 . S
C3624 C3626 1.394 . S
C3624 H3640 0.931 . S
C3625 C3624 1.391 . S
C3625 C3629 1.376 . S
C3626 C3624 1.394 . S
C3626 C3627 1.369 . S
C3626 C3630 1.531 . S
C3627 C3626 1.369 . S
C3627 C3628 1.410 . S
C3627 C3635 1.503 . S
C3628 C3627 1.410 . S
C3628 C3629 1.392 . S
C3628 C3631 1.511 . S
C3629 C3625 1.376 . S
C3629 C3628 1.392 . S
C3629 H3641 0.929 . S
C3630 C3626 1.531 . S
C3630 H3642 0.960 . S
C3630 H3643 0.962 . S
C3630 H3644 0.960 . S
C3631 C3628 1.511 . S
C3631 H3645 0.961 . S
C3631 H3646 0.961 . S
C3631 H3647 0.961 . S
C3632 C3633 1.370 . S
C3632 C3634 1.363 . S
C3632 H3648 0.931 . S
C3633 C3632 1.370 . S
C3633 C3637 1.408 . S
C3634 C3632 1.363 . S
C3634 C3635 1.370 . S
C3634 C3638 1.524 . S
C3635 C3627 1.503 . S
C3635 C3634 1.370 . S
C3635 C3636 1.403 . S
C3636 C3635 1.403 . S
C3636 C3637 1.404 . S
C3636 C3639 1.539 . S
C3637 C3633 1.408 . S
C3637 C3636 1.404 . S
C3637 H3649 0.930 . S
C3638 C3634 1.524 . S
C3638 H3650 0.956 . S
C3638 H3651 0.961 . S
C3638 H3652 0.961 . S
C3639 C3636 1.539 . S
C3639 H3653 0.958 . S
C3639 H3654 0.961 . S
C3639 H3655 0.960 . S
H3640 C3624 0.931 . S
H3641 C3629 0.929 . S
H3642 C3630 0.960 . S
H3643 C3630 0.962 . S
H3644 C3630 0.960 . S
H3645 C3631 0.961 . S
H3646 C3631 0.961 . S
H3647 C3631 0.961 . S
H3648 C3632 0.931 . S
H3649 C3637 0.930 . S
H3650 C3638 0.956 . S
H3651 C3638 0.961 . S
H3652 C3638 0.961 . S
H3653 C3639 0.958 . S
H3654 C3639 0.961 . S
H3655 C3639 0.960 . S
C3656 C3657 1.391 . S
C3656 C3658 1.394 . S
C3656 H3672 0.931 . S
C3657 C3656 1.391 . S
C3657 C3661 1.376 . S
C3658 C3656 1.394 . S
C3658 C3659 1.369 . S
C3658 C3662 1.531 . S
C3659 C3658 1.369 . S
C3659 C3660 1.410 . S
C3659 C3667 1.503 . S
C3660 C3659 1.410 . S
C3660 C3661 1.392 . S
C3660 C3663 1.511 . S
C3661 C3657 1.376 . S
C3661 C3660 1.392 . S
C3661 H3673 0.929 . S
C3662 C3658 1.531 . S
C3662 H3674 0.960 . S
C3662 H3675 0.962 . S
C3662 H3676 0.960 . S
C3663 C3660 1.511 . S
C3663 H3677 0.961 . S
C3663 H3678 0.961 . S
C3663 H3679 0.961 . S
C3664 C3665 1.370 . S
C3664 C3666 1.363 . S
C3664 H3680 0.931 . S
C3665 C3664 1.370 . S
C3665 C3669 1.408 . S
C3666 C3664 1.363 . S
C3666 C3667 1.370 . S
C3666 C3670 1.524 . S
C3667 C3659 1.503 . S
C3667 C3666 1.370 . S
C3667 C3668 1.403 . S
C3668 C3667 1.403 . S
C3668 C3669 1.404 . S
C3668 C3671 1.539 . S
C3669 C3665 1.408 . S
C3669 C3668 1.404 . S
C3669 H3681 0.930 . S
C3670 C3666 1.524 . S
C3670 H3682 0.956 . S
C3670 H3683 0.961 . S
C3670 H3684 0.961 . S
C3671 C3668 1.539 . S
C3671 H3685 0.958 . S
C3671 H3686 0.961 . S
C3671 H3687 0.960 . S
H3672 C3656 0.931 . S
H3673 C3661 0.929 . S
H3674 C3662 0.960 . S
H3675 C3662 0.962 . S
H3676 C3662 0.960 . S
H3677 C3663 0.961 . S
H3678 C3663 0.961 . S
H3679 C3663 0.961 . S
H3680 C3664 0.931 . S
H3681 C3669 0.930 . S
H3682 C3670 0.956 . S
H3683 C3670 0.961 . S
H3684 C3670 0.961 . S
H3685 C3671 0.958 . S
H3686 C3671 0.961 . S
H3687 C3671 0.960 . S
C3688 C3689 1.391 . S
C3688 C3690 1.394 . S
C3688 H3704 0.931 . S
C3689 C3688 1.391 . S
C3689 C3693 1.376 . S
C3690 C3688 1.394 . S
C3690 C3691 1.369 . S
C3690 C3694 1.531 . S
C3691 C3690 1.369 . S
C3691 C3692 1.410 . S
C3691 C3699 1.503 . S
C3692 C3691 1.410 . S
C3692 C3693 1.392 . S
C3692 C3695 1.511 . S
C3693 C3689 1.376 . S
C3693 C3692 1.392 . S
C3693 H3705 0.929 . S
C3694 C3690 1.531 . S
C3694 H3706 0.960 . S
C3694 H3707 0.962 . S
C3694 H3708 0.960 . S
C3695 C3692 1.511 . S
C3695 H3709 0.961 . S
C3695 H3710 0.961 . S
C3695 H3711 0.961 . S
C3696 C3697 1.370 . S
C3696 C3698 1.363 . S
C3696 H3712 0.931 . S
C3697 C3696 1.370 . S
C3697 C3701 1.408 . S
C3698 C3696 1.363 . S
C3698 C3699 1.370 . S
C3698 C3702 1.524 . S
C3699 C3691 1.503 . S
C3699 C3698 1.370 . S
C3699 C3700 1.403 . S
C3700 C3699 1.403 . S
C3700 C3701 1.404 . S
C3700 C3703 1.539 . S
C3701 C3697 1.408 . S
C3701 C3700 1.404 . S
C3701 H3713 0.930 . S
C3702 C3698 1.524 . S
C3702 H3714 0.956 . S
C3702 H3715 0.961 . S
C3702 H3716 0.961 . S
C3703 C3700 1.539 . S
C3703 H3717 0.958 . S
C3703 H3718 0.961 . S
C3703 H3719 0.960 . S
H3704 C3688 0.931 . S
H3705 C3693 0.929 . S
H3706 C3694 0.960 . S
H3707 C3694 0.962 . S
H3708 C3694 0.960 . S
H3709 C3695 0.961 . S
H3710 C3695 0.961 . S
H3711 C3695 0.961 . S
H3712 C3696 0.931 . S
H3713 C3701 0.930 . S
H3714 C3702 0.956 . S
H3715 C3702 0.961 . S
H3716 C3702 0.961 . S
H3717 C3703 0.958 . S
H3718 C3703 0.961 . S
H3719 C3703 0.960 . S
C3720 C3721 1.391 . S
C3720 C3722 1.394 . S
C3720 H3736 0.931 . S
C3721 C3720 1.391 . S
C3721 C3725 1.376 . S
C3722 C3720 1.394 . S
C3722 C3723 1.369 . S
C3722 C3726 1.531 . S
C3723 C3722 1.369 . S
C3723 C3724 1.410 . S
C3723 C3731 1.503 . S
C3724 C3723 1.410 . S
C3724 C3725 1.392 . S
C3724 C3727 1.511 . S
C3725 C3721 1.376 . S
C3725 C3724 1.392 . S
C3725 H3737 0.929 . S
C3726 C3722 1.531 . S
C3726 H3738 0.960 . S
C3726 H3739 0.962 . S
C3726 H3740 0.960 . S
C3727 C3724 1.511 . S
C3727 H3741 0.961 . S
C3727 H3742 0.961 . S
C3727 H3743 0.961 . S
C3728 C3729 1.370 . S
C3728 C3730 1.363 . S
C3728 H3744 0.931 . S
C3729 C3728 1.370 . S
C3729 C3733 1.408 . S
C3730 C3728 1.363 . S
C3730 C3731 1.370 . S
C3730 C3734 1.524 . S
C3731 C3723 1.503 . S
C3731 C3730 1.370 . S
C3731 C3732 1.403 . S
C3732 C3731 1.403 . S
C3732 C3733 1.404 . S
C3732 C3735 1.539 . S
C3733 C3729 1.408 . S
C3733 C3732 1.404 . S
C3733 H3745 0.930 . S
C3734 C3730 1.524 . S
C3734 H3746 0.956 . S
C3734 H3747 0.961 . S
C3734 H3748 0.961 . S
C3735 C3732 1.539 . S
C3735 H3749 0.958 . S
C3735 H3750 0.961 . S
C3735 H3751 0.960 . S
H3736 C3720 0.931 . S
H3737 C3725 0.929 . S
H3738 C3726 0.960 . S
H3739 C3726 0.962 . S
H3740 C3726 0.960 . S
H3741 C3727 0.961 . S
H3742 C3727 0.961 . S
H3743 C3727 0.961 . S
H3744 C3728 0.931 . S
H3745 C3733 0.930 . S
H3746 C3734 0.956 . S
H3747 C3734 0.961 . S
H3748 C3734 0.961 . S
H3749 C3735 0.958 . S
H3750 C3735 0.961 . S
H3751 C3735 0.960 . S
C3752 C3753 1.391 . S
C3752 C3754 1.394 . S
C3752 H3768 0.931 . S
C3753 C3752 1.391 . S
C3753 C3757 1.376 . S
C3754 C3752 1.394 . S
C3754 C3755 1.369 . S
C3754 C3758 1.531 . S
C3755 C3754 1.369 . S
C3755 C3756 1.410 . S
C3755 C3763 1.503 . S
C3756 C3755 1.410 . S
C3756 C3757 1.392 . S
C3756 C3759 1.511 . S
C3757 C3753 1.376 . S
C3757 C3756 1.392 . S
C3757 H3769 0.929 . S
C3758 C3754 1.531 . S
C3758 H3770 0.960 . S
C3758 H3771 0.962 . S
C3758 H3772 0.960 . S
C3759 C3756 1.511 . S
C3759 H3773 0.961 . S
C3759 H3774 0.961 . S
C3759 H3775 0.961 . S
C3760 C3761 1.370 . S
C3760 C3762 1.363 . S
C3760 H3776 0.931 . S
C3761 C3760 1.370 . S
C3761 C3765 1.408 . S
C3762 C3760 1.363 . S
C3762 C3763 1.370 . S
C3762 C3766 1.524 . S
C3763 C3755 1.503 . S
C3763 C3762 1.370 . S
C3763 C3764 1.403 . S
C3764 C3763 1.403 . S
C3764 C3765 1.404 . S
C3764 C3767 1.539 . S
C3765 C3761 1.408 . S
C3765 C3764 1.404 . S
C3765 H3777 0.930 . S
C3766 C3762 1.524 . S
C3766 H3778 0.956 . S
C3766 H3779 0.961 . S
C3766 H3780 0.961 . S
C3767 C3764 1.539 . S
C3767 H3781 0.958 . S
C3767 H3782 0.961 . S
C3767 H3783 0.960 . S
H3768 C3752 0.931 . S
H3769 C3757 0.929 . S
H3770 C3758 0.960 . S
H3771 C3758 0.962 . S
H3772 C3758 0.960 . S
H3773 C3759 0.961 . S
H3774 C3759 0.961 . S
H3775 C3759 0.961 . S
H3776 C3760 0.931 . S
H3777 C3765 0.930 . S
H3778 C3766 0.956 . S
H3779 C3766 0.961 . S
H3780 C3766 0.961 . S
H3781 C3767 0.958 . S
H3782 C3767 0.961 . S
H3783 C3767 0.960 . S
C3784 C3785 1.391 . S
C3784 C3786 1.394 . S
C3784 H3800 0.931 . S
C3785 C3784 1.391 . S
C3785 C3789 1.376 . S
C3786 C3784 1.394 . S
C3786 C3787 1.369 . S
C3786 C3790 1.531 . S
C3787 C3786 1.369 . S
C3787 C3788 1.410 . S
C3787 C3795 1.503 . S
C3788 C3787 1.410 . S
C3788 C3789 1.392 . S
C3788 C3791 1.511 . S
C3789 C3785 1.376 . S
C3789 C3788 1.392 . S
C3789 H3801 0.929 . S
C3790 C3786 1.531 . S
C3790 H3802 0.960 . S
C3790 H3803 0.962 . S
C3790 H3804 0.960 . S
C3791 C3788 1.511 . S
C3791 H3805 0.961 . S
C3791 H3806 0.961 . S
C3791 H3807 0.961 . S
C3792 C3793 1.370 . S
C3792 C3794 1.363 . S
C3792 H3808 0.931 . S
C3793 C3792 1.370 . S
C3793 C3797 1.408 . S
C3794 C3792 1.363 . S
C3794 C3795 1.370 . S
C3794 C3798 1.524 . S
C3795 C3787 1.503 . S
C3795 C3794 1.370 . S
C3795 C3796 1.403 . S
C3796 C3795 1.403 . S
C3796 C3797 1.404 . S
C3796 C3799 1.539 . S
C3797 C3793 1.408 . S
C3797 C3796 1.404 . S
C3797 H3809 0.930 . S
C3798 C3794 1.524 . S
C3798 H3810 0.956 . S
C3798 H3811 0.961 . S
C3798 H3812 0.961 . S
C3799 C3796 1.539 . S
C3799 H3813 0.958 . S
C3799 H3814 0.961 . S
C3799 H3815 0.960 . S
H3800 C3784 0.931 . S
H3801 C3789 0.929 . S
H3802 C3790 0.960 . S
H3803 C3790 0.962 . S
H3804 C3790 0.960 . S
H3805 C3791 0.961 . S
H3806 C3791 0.961 . S
H3807 C3791 0.961 . S
H3808 C3792 0.931 . S
H3809 C3797 0.930 . S
H3810 C3798 0.956 . S
H3811 C3798 0.961 . S
H3812 C3798 0.961 . S
H3813 C3799 0.958 . S
H3814 C3799 0.961 . S
H3815 C3799 0.960 . S
C3816 C3817 1.391 . S
C3816 C3818 1.394 . S
C3816 H3832 0.931 . S
C3817 C3816 1.391 . S
C3817 C3821 1.376 . S
C3818 C3816 1.394 . S
C3818 C3819 1.369 . S
C3818 C3822 1.531 . S
C3819 C3818 1.369 . S
C3819 C3820 1.410 . S
C3819 C3827 1.503 . S
C3820 C3819 1.410 . S
C3820 C3821 1.392 . S
C3820 C3823 1.511 . S
C3821 C3817 1.376 . S
C3821 C3820 1.392 . S
C3821 H3833 0.929 . S
C3822 C3818 1.531 . S
C3822 H3834 0.960 . S
C3822 H3835 0.962 . S
C3822 H3836 0.960 . S
C3823 C3820 1.511 . S
C3823 H3837 0.961 . S
C3823 H3838 0.961 . S
C3823 H3839 0.961 . S
C3824 C3825 1.370 . S
C3824 C3826 1.363 . S
C3824 H3840 0.931 . S
C3825 C3824 1.370 . S
C3825 C3829 1.408 . S
C3826 C3824 1.363 . S
C3826 C3827 1.370 . S
C3826 C3830 1.524 . S
C3827 C3819 1.503 . S
C3827 C3826 1.370 . S
C3827 C3828 1.403 . S
C3828 C3827 1.403 . S
C3828 C3829 1.404 . S
C3828 C3831 1.539 . S
C3829 C3825 1.408 . S
C3829 C3828 1.404 . S
C3829 H3841 0.930 . S
C3830 C3826 1.524 . S
C3830 H3842 0.956 . S
C3830 H3843 0.961 . S
C3830 H3844 0.961 . S
C3831 C3828 1.539 . S
C3831 H3845 0.958 . S
C3831 H3846 0.961 . S
C3831 H3847 0.960 . S
H3832 C3816 0.931 . S
H3833 C3821 0.929 . S
H3834 C3822 0.960 . S
H3835 C3822 0.962 . S
H3836 C3822 0.960 . S
H3837 C3823 0.961 . S
H3838 C3823 0.961 . S
H3839 C3823 0.961 . S
H3840 C3824 0.931 . S
H3841 C3829 0.930 . S
H3842 C3830 0.956 . S
H3843 C3830 0.961 . S
H3844 C3830 0.961 . S
H3845 C3831 0.958 . S
H3846 C3831 0.961 . S
H3847 C3831 0.960 . S
C3848 C3849 1.391 . S
C3848 C3850 1.394 . S
C3848 H3864 0.931 . S
C3849 C3848 1.391 . S
C3849 C3853 1.376 . S
C3850 C3848 1.394 . S
C3850 C3851 1.369 . S
C3850 C3854 1.531 . S
C3851 C3850 1.369 . S
C3851 C3852 1.410 . S
C3851 C3859 1.503 . S
C3852 C3851 1.410 . S
C3852 C3853 1.392 . S
C3852 C3855 1.511 . S
C3853 C3849 1.376 . S
C3853 C3852 1.392 . S
C3853 H3865 0.929 . S
C3854 C3850 1.531 . S
C3854 H3866 0.960 . S
C3854 H3867 0.962 . S
C3854 H3868 0.960 . S
C3855 C3852 1.511 . S
C3855 H3869 0.961 . S
C3855 H3870 0.961 . S
C3855 H3871 0.961 . S
C3856 C3857 1.370 . S
C3856 C3858 1.363 . S
C3856 H3872 0.931 . S
C3857 C3856 1.370 . S
C3857 C3861 1.408 . S
C3858 C3856 1.363 . S
C3858 C3859 1.370 . S
C3858 C3862 1.524 . S
C3859 C3851 1.503 . S
C3859 C3858 1.370 . S
C3859 C3860 1.403 . S
C3860 C3859 1.403 . S
C3860 C3861 1.404 . S
C3860 C3863 1.539 . S
C3861 C3857 1.408 . S
C3861 C3860 1.404 . S
C3861 H3873 0.930 . S
C3862 C3858 1.524 . S
C3862 H3874 0.956 . S
C3862 H3875 0.961 . S
C3862 H3876 0.961 . S
C3863 C3860 1.539 . S
C3863 H3877 0.958 . S
C3863 H3878 0.961 . S
C3863 H3879 0.960 . S
H3864 C3848 0.931 . S
H3865 C3853 0.929 . S
H3866 C3854 0.960 . S
H3867 C3854 0.962 . S
H3868 C3854 0.960 . S
H3869 C3855 0.961 . S
H3870 C3855 0.961 . S
H3871 C3855 0.961 . S
H3872 C3856 0.931 . S
H3873 C3861 0.930 . S
H3874 C3862 0.956 . S
H3875 C3862 0.961 . S
H3876 C3862 0.961 . S
H3877 C3863 0.958 . S
H3878 C3863 0.961 . S
H3879 C3863 0.960 . S
C3880 C3881 1.391 . S
C3880 C3882 1.394 . S
C3880 H3896 0.931 . S
C3881 C3880 1.391 . S
C3881 C3885 1.376 . S
C3882 C3880 1.394 . S
C3882 C3883 1.369 . S
C3882 C3886 1.531 . S
C3883 C3882 1.369 . S
C3883 C3884 1.410 . S
C3883 C3891 1.503 . S
C3884 C3883 1.410 . S
C3884 C3885 1.392 . S
C3884 C3887 1.511 . S
C3885 C3881 1.376 . S
C3885 C3884 1.392 . S
C3885 H3897 0.929 . S
C3886 C3882 1.531 . S
C3886 H3898 0.960 . S
C3886 H3899 0.962 . S
C3886 H3900 0.960 . S
C3887 C3884 1.511 . S
C3887 H3901 0.961 . S
C3887 H3902 0.961 . S
C3887 H3903 0.961 . S
C3888 C3889 1.370 . S
C3888 C3890 1.363 . S
C3888 H3904 0.931 . S
C3889 C3888 1.370 . S
C3889 C3893 1.408 . S
C3890 C3888 1.363 . S
C3890 C3891 1.370 . S
C3890 C3894 1.524 . S
C3891 C3883 1.503 . S
C3891 C3890 1.370 . S
C3891 C3892 1.403 . S
C3892 C3891 1.403 . S
C3892 C3893 1.404 . S
C3892 C3895 1.539 . S
C3893 C3889 1.408 . S
C3893 C3892 1.404 . S
C3893 H3905 0.930 . S
C3894 C3890 1.524 . S
C3894 H3906 0.956 . S
C3894 H3907 0.961 . S
C3894 H3908 0.961 . S
C3895 C3892 1.539 . S
C3895 H3909 0.958 . S
C3895 H3910 0.961 . S
C3895 H3911 0.960 . S
H3896 C3880 0.931 . S
H3897 C3885 0.929 . S
H3898 C3886 0.960 . S
H3899 C3886 0.962 . S
H3900 C3886 0.960 . S
H3901 C3887 0.961 . S
H3902 C3887 0.961 . S
H3903 C3887 0.961 . S
H3904 C3888 0.931 . S
H3905 C3893 0.930 . S
H3906 C3894 0.956 . S
H3907 C3894 0.961 . S
H3908 C3894 0.961 . S
H3909 C3895 0.958 . S
H3910 C3895 0.961 . S
H3911 C3895 0.960 . S
C3912 C3913 1.391 . S
C3912 C3914 1.394 . S
C3912 H3928 0.931 . S
C3913 C3912 1.391 . S
C3913 C3917 1.376 . S
C3914 C3912 1.394 . S
C3914 C3915 1.369 . S
C3914 C3918 1.531 . S
C3915 C3914 1.369 . S
C3915 C3916 1.410 . S
C3915 C3923 1.503 . S
C3916 C3915 1.410 . S
C3916 C3917 1.392 . S
C3916 C3919 1.511 . S
C3917 C3913 1.376 . S
C3917 C3916 1.392 . S
C3917 H3929 0.929 . S
C3918 C3914 1.531 . S
C3918 H3930 0.960 . S
C3918 H3931 0.962 . S
C3918 H3932 0.960 . S
C3919 C3916 1.511 . S
C3919 H3933 0.961 . S
C3919 H3934 0.961 . S
C3919 H3935 0.961 . S
C3920 C3921 1.370 . S
C3920 C3922 1.363 . S
C3920 H3936 0.931 . S
C3921 C3920 1.370 . S
C3921 C3925 1.408 . S
C3922 C3920 1.363 . S
C3922 C3923 1.370 . S
C3922 C3926 1.524 . S
C3923 C3915 1.503 . S
C3923 C3922 1.370 . S
C3923 C3924 1.403 . S
C3924 C3923 1.403 . S
C3924 C3925 1.404 . S
C3924 C3927 1.539 . S
C3925 C3921 1.408 . S
C3925 C3924 1.404 . S
C3925 H3937 0.930 . S
C3926 C3922 1.524 . S
C3926 H3938 0.956 . S
C3926 H3939 0.961 . S
C3926 H3940 0.961 . S
C3927 C3924 1.539 . S
C3927 H3941 0.958 . S
C3927 H3942 0.961 . S
C3927 H3943 0.960 . S
H3928 C3912 0.931 . S
H3929 C3917 0.929 . S
H3930 C3918 0.960 . S
H3931 C3918 0.962 . S
H3932 C3918 0.960 . S
H3933 C3919 0.961 . S
H3934 C3919 0.961 . S
H3935 C3919 0.961 . S
H3936 C3920 0.931 . S
H3937 C3925 0.930 . S
H3938 C3926 0.956 . S
H3939 C3926 0.961 . S
H3940 C3926 0.961 . S
H3941 C3927 0.958 . S
H3942 C3927 0.961 . S
H3943 C3927 0.960 . S
C3944 C3945 1.391 . S
C3944 C3946 1.394 . S
C3944 H3960 0.931 . S
C3945 C3944 1.391 . S
C3945 C3949 1.376 . S
C3946 C3944 1.394 . S
C3946 C3947 1.369 . S
C3946 C3950 1.531 . S
C3947 C3946 1.369 . S
C3947 C3948 1.410 . S
C3947 C3955 1.503 . S
C3948 C3947 1.410 . S
C3948 C3949 1.392 . S
C3948 C3951 1.511 . S
C3949 C3945 1.376 . S
C3949 C3948 1.392 . S
C3949 H3961 0.929 . S
C3950 C3946 1.531 . S
C3950 H3962 0.960 . S
C3950 H3963 0.962 . S
C3950 H3964 0.960 . S
C3951 C3948 1.511 . S
C3951 H3965 0.961 . S
C3951 H3966 0.961 . S
C3951 H3967 0.961 . S
C3952 C3953 1.370 . S
C3952 C3954 1.363 . S
C3952 H3968 0.931 . S
C3953 C3952 1.370 . S
C3953 C3957 1.408 . S
C3954 C3952 1.363 . S
C3954 C3955 1.370 . S
C3954 C3958 1.524 . S
C3955 C3947 1.503 . S
C3955 C3954 1.370 . S
C3955 C3956 1.403 . S
C3956 C3955 1.403 . S
C3956 C3957 1.404 . S
C3956 C3959 1.539 . S
C3957 C3953 1.408 . S
C3957 C3956 1.404 . S
C3957 H3969 0.930 . S
C3958 C3954 1.524 . S
C3958 H3970 0.956 . S
C3958 H3971 0.961 . S
C3958 H3972 0.961 . S
C3959 C3956 1.539 . S
C3959 H3973 0.958 . S
C3959 H3974 0.961 . S
C3959 H3975 0.960 . S
H3960 C3944 0.931 . S
H3961 C3949 0.929 . S
H3962 C3950 0.960 . S
H3963 C3950 0.962 . S
H3964 C3950 0.960 . S
H3965 C3951 0.961 . S
H3966 C3951 0.961 . S
H3967 C3951 0.961 . S
H3968 C3952 0.931 . S
H3969 C3957 0.930 . S
H3970 C3958 0.956 . S
H3971 C3958 0.961 . S
H3972 C3958 0.961 . S
H3973 C3959 0.958 . S
H3974 C3959 0.961 . S
H3975 C3959 0.960 . S
C3976 C3977 1.391 . S
C3976 C3978 1.394 . S
C3976 H3992 0.931 . S
C3977 C3976 1.391 . S
C3977 C3981 1.376 . S
C3978 C3976 1.394 . S
C3978 C3979 1.369 . S
C3978 C3982 1.531 . S
C3979 C3978 1.369 . S
C3979 C3980 1.410 . S
C3979 C3987 1.503 . S
C3980 C3979 1.410 . S
C3980 C3981 1.392 . S
C3980 C3983 1.511 . S
C3981 C3977 1.376 . S
C3981 C3980 1.392 . S
C3981 H3993 0.929 . S
C3982 C3978 1.531 . S
C3982 H3994 0.960 . S
C3982 H3995 0.962 . S
C3982 H3996 0.960 . S
C3983 C3980 1.511 . S
C3983 H3997 0.961 . S
C3983 H3998 0.961 . S
C3983 H3999 0.961 . S
C3984 C3985 1.370 . S
C3984 C3986 1.363 . S
C3984 H4000 0.931 . S
C3985 C3984 1.370 . S
C3985 C3989 1.408 . S
C3986 C3984 1.363 . S
C3986 C3987 1.370 . S
C3986 C3990 1.524 . S
C3987 C3979 1.503 . S
C3987 C3986 1.370 . S
C3987 C3988 1.403 . S
C3988 C3987 1.403 . S
C3988 C3989 1.404 . S
C3988 C3991 1.539 . S
C3989 C3985 1.408 . S
C3989 C3988 1.404 . S
C3989 H4001 0.930 . S
C3990 C3986 1.524 . S
C3990 H4002 0.956 . S
C3990 H4003 0.961 . S
C3990 H4004 0.961 . S
C3991 C3988 1.539 . S
C3991 H4005 0.958 . S
C3991 H4006 0.961 . S
C3991 H4007 0.960 . S
H3992 C3976 0.931 . S
H3993 C3981 0.929 . S
H3994 C3982 0.960 . S
H3995 C3982 0.962 . S
H3996 C3982 0.960 . S
H3997 C3983 0.961 . S
H3998 C3983 0.961 . S
H3999 C3983 0.961 . S
H4000 C3984 0.931 . S
H4001 C3989 0.930 . S
H4002 C3990 0.956 . S
H4003 C3990 0.961 . S
H4004 C3990 0.961 . S
H4005 C3991 0.958 . S
H4006 C3991 0.961 . S
H4007 C3991 0.960 . S
C4008 C4009 1.391 . S
C4008 C4010 1.394 . S
C4008 H4024 0.931 . S
C4009 C4008 1.391 . S
C4009 C4013 1.376 . S
C4010 C4008 1.394 . S
C4010 C4011 1.369 . S
C4010 C4014 1.531 . S
C4011 C4010 1.369 . S
C4011 C4012 1.410 . S
C4011 C4019 1.503 . S
C4012 C4011 1.410 . S
C4012 C4013 1.392 . S
C4012 C4015 1.511 . S
C4013 C4009 1.376 . S
C4013 C4012 1.392 . S
C4013 H4025 0.929 . S
C4014 C4010 1.531 . S
C4014 H4026 0.960 . S
C4014 H4027 0.962 . S
C4014 H4028 0.960 . S
C4015 C4012 1.511 . S
C4015 H4029 0.961 . S
C4015 H4030 0.961 . S
C4015 H4031 0.961 . S
C4016 C4017 1.370 . S
C4016 C4018 1.363 . S
C4016 H4032 0.931 . S
C4017 C4016 1.370 . S
C4017 C4021 1.408 . S
C4018 C4016 1.363 . S
C4018 C4019 1.370 . S
C4018 C4022 1.524 . S
C4019 C4011 1.503 . S
C4019 C4018 1.370 . S
C4019 C4020 1.403 . S
C4020 C4019 1.403 . S
C4020 C4021 1.404 . S
C4020 C4023 1.539 . S
C4021 C4017 1.408 . S
C4021 C4020 1.404 . S
C4021 H4033 0.930 . S
C4022 C4018 1.524 . S
C4022 H4034 0.956 . S
C4022 H4035 0.961 . S
C4022 H4036 0.961 . S
C4023 C4020 1.539 . S
C4023 H4037 0.958 . S
C4023 H4038 0.961 . S
C4023 H4039 0.960 . S
H4024 C4008 0.931 . S
H4025 C4013 0.929 . S
H4026 C4014 0.960 . S
H4027 C4014 0.962 . S
H4028 C4014 0.960 . S
H4029 C4015 0.961 . S
H4030 C4015 0.961 . S
H4031 C4015 0.961 . S
H4032 C4016 0.931 . S
H4033 C4021 0.930 . S
H4034 C4022 0.956 . S
H4035 C4022 0.961 . S
H4036 C4022 0.961 . S
H4037 C4023 0.958 . S
H4038 C4023 0.961 . S
H4039 C4023 0.960 . S
C4040 C4041 1.391 . S
C4040 C4042 1.394 . S
C4040 H4056 0.931 . S
C4041 C4040 1.391 . S
C4041 C4045 1.376 . S
C4042 C4040 1.394 . S
C4042 C4043 1.369 . S
C4042 C4046 1.531 . S
C4043 C4042 1.369 . S
C4043 C4044 1.410 . S
C4043 C4051 1.503 . S
C4044 C4043 1.410 . S
C4044 C4045 1.392 . S
C4044 C4047 1.511 . S
C4045 C4041 1.376 . S
C4045 C4044 1.392 . S
C4045 H4057 0.929 . S
C4046 C4042 1.531 . S
C4046 H4058 0.960 . S
C4046 H4059 0.962 . S
C4046 H4060 0.960 . S
C4047 C4044 1.511 . S
C4047 H4061 0.961 . S
C4047 H4062 0.961 . S
C4047 H4063 0.961 . S
C4048 C4049 1.370 . S
C4048 C4050 1.363 . S
C4048 H4064 0.931 . S
C4049 C4048 1.370 . S
C4049 C4053 1.408 . S
C4050 C4048 1.363 . S
C4050 C4051 1.370 . S
C4050 C4054 1.524 . S
C4051 C4043 1.503 . S
C4051 C4050 1.370 . S
C4051 C4052 1.403 . S
C4052 C4051 1.403 . S
C4052 C4053 1.404 . S
C4052 C4055 1.539 . S
C4053 C4049 1.408 . S
C4053 C4052 1.404 . S
C4053 H4065 0.930 . S
C4054 C4050 1.524 . S
C4054 H4066 0.956 . S
C4054 H4067 0.961 . S
C4054 H4068 0.961 . S
C4055 C4052 1.539 . S
C4055 H4069 0.958 . S
C4055 H4070 0.961 . S
C4055 H4071 0.960 . S
H4056 C4040 0.931 . S
H4057 C4045 0.929 . S
H4058 C4046 0.960 . S
H4059 C4046 0.962 . S
H4060 C4046 0.960 . S
H4061 C4047 0.961 . S
H4062 C4047 0.961 . S
H4063 C4047 0.961 . S
H4064 C4048 0.931 . S
H4065 C4053 0.930 . S
H4066 C4054 0.956 . S
H4067 C4054 0.961 . S
H4068 C4054 0.961 . S
H4069 C4055 0.958 . S
H4070 C4055 0.961 . S
H4071 C4055 0.960 . S
C4072 C4073 1.391 . S
C4072 C4074 1.394 . S
C4072 H4088 0.931 . S
C4073 C4072 1.391 . S
C4073 C4077 1.376 . S
C4074 C4072 1.394 . S
C4074 C4075 1.369 . S
C4074 C4078 1.531 . S
C4075 C4074 1.369 . S
C4075 C4076 1.410 . S
C4075 C4083 1.503 . S
C4076 C4075 1.410 . S
C4076 C4077 1.392 . S
C4076 C4079 1.511 . S
C4077 C4073 1.376 . S
C4077 C4076 1.392 . S
C4077 H4089 0.929 . S
C4078 C4074 1.531 . S
C4078 H4090 0.960 . S
C4078 H4091 0.962 . S
C4078 H4092 0.960 . S
C4079 C4076 1.511 . S
C4079 H4093 0.961 . S
C4079 H4094 0.961 . S
C4079 H4095 0.961 . S
C4080 C4081 1.370 . S
C4080 C4082 1.363 . S
C4080 H4096 0.931 . S
C4081 C4080 1.370 . S
C4081 C4085 1.408 . S
C4082 C4080 1.363 . S
C4082 C4083 1.370 . S
C4082 C4086 1.524 . S
C4083 C4075 1.503 . S
C4083 C4082 1.370 . S
C4083 C4084 1.403 . S
C4084 C4083 1.403 . S
C4084 C4085 1.404 . S
C4084 C4087 1.539 . S
C4085 C4081 1.408 . S
C4085 C4084 1.404 . S
C4085 H4097 0.930 . S
C4086 C4082 1.524 . S
C4086 H4098 0.956 . S
C4086 H4099 0.961 . S
C4086 H4100 0.961 . S
C4087 C4084 1.539 . S
C4087 H4101 0.958 . S
C4087 H4102 0.961 . S
C4087 H4103 0.960 . S
H4088 C4072 0.931 . S
H4089 C4077 0.929 . S
H4090 C4078 0.960 . S
H4091 C4078 0.962 . S
H4092 C4078 0.960 . S
H4093 C4079 0.961 . S
H4094 C4079 0.961 . S
H4095 C4079 0.961 . S
H4096 C4080 0.931 . S
H4097 C4085 0.930 . S
H4098 C4086 0.956 . S
H4099 C4086 0.961 . S
H4100 C4086 0.961 . S
H4101 C4087 0.958 . S
H4102 C4087 0.961 . S
H4103 C4087 0.960 . S
C4104 C4105 1.391 . S
C4104 C4106 1.394 . S
C4104 H4120 0.931 . S
C4105 C4104 1.391 . S
C4105 C4109 1.376 . S
C4106 C4104 1.394 . S
C4106 C4107 1.369 . S
C4106 C4110 1.531 . S
C4107 C4106 1.369 . S
C4107 C4108 1.410 . S
C4107 C4115 1.503 . S
C4108 C4107 1.410 . S
C4108 C4109 1.392 . S
C4108 C4111 1.511 . S
C4109 C4105 1.376 . S
C4109 C4108 1.392 . S
C4109 H4121 0.929 . S
C4110 C4106 1.531 . S
C4110 H4122 0.960 . S
C4110 H4123 0.962 . S
C4110 H4124 0.960 . S
C4111 C4108 1.511 . S
C4111 H4125 0.961 . S
C4111 H4126 0.961 . S
C4111 H4127 0.961 . S
C4112 C4113 1.370 . S
C4112 C4114 1.363 . S
C4112 H4128 0.931 . S
C4113 C4112 1.370 . S
C4113 C4117 1.408 . S
C4114 C4112 1.363 . S
C4114 C4115 1.370 . S
C4114 C4118 1.524 . S
C4115 C4107 1.503 . S
C4115 C4114 1.370 . S
C4115 C4116 1.403 . S
C4116 C4115 1.403 . S
C4116 C4117 1.404 . S
C4116 C4119 1.539 . S
C4117 C4113 1.408 . S
C4117 C4116 1.404 . S
C4117 H4129 0.930 . S
C4118 C4114 1.524 . S
C4118 H4130 0.956 . S
C4118 H4131 0.961 . S
C4118 H4132 0.961 . S
C4119 C4116 1.539 . S
C4119 H4133 0.958 . S
C4119 H4134 0.961 . S
C4119 H4135 0.960 . S
H4120 C4104 0.931 . S
H4121 C4109 0.929 . S
H4122 C4110 0.960 . S
H4123 C4110 0.962 . S
H4124 C4110 0.960 . S
H4125 C4111 0.961 . S
H4126 C4111 0.961 . S
H4127 C4111 0.961 . S
H4128 C4112 0.931 . S
H4129 C4117 0.930 . S
H4130 C4118 0.956 . S
H4131 C4118 0.961 . S
H4132 C4118 0.961 . S
H4133 C4119 0.958 . S
H4134 C4119 0.961 . S
H4135 C4119 0.960 . S
C4136 C4137 1.391 . S
C4136 C4138 1.394 . S
C4136 H4152 0.931 . S
C4137 C4136 1.391 . S
C4137 C4141 1.376 . S
C4138 C4136 1.394 . S
C4138 C4139 1.369 . S
C4138 C4142 1.531 . S
C4139 C4138 1.369 . S
C4139 C4140 1.410 . S
C4139 C4147 1.503 . S
C4140 C4139 1.410 . S
C4140 C4141 1.392 . S
C4140 C4143 1.511 . S
C4141 C4137 1.376 . S
C4141 C4140 1.392 . S
C4141 H4153 0.929 . S
C4142 C4138 1.531 . S
C4142 H4154 0.960 . S
C4142 H4155 0.962 . S
C4142 H4156 0.960 . S
C4143 C4140 1.511 . S
C4143 H4157 0.961 . S
C4143 H4158 0.961 . S
C4143 H4159 0.961 . S
C4144 C4145 1.370 . S
C4144 C4146 1.363 . S
C4144 H4160 0.931 . S
C4145 C4144 1.370 . S
C4145 C4149 1.408 . S
C4146 C4144 1.363 . S
C4146 C4147 1.370 . S
C4146 C4150 1.524 . S
C4147 C4139 1.503 . S
C4147 C4146 1.370 . S
C4147 C4148 1.403 . S
C4148 C4147 1.403 . S
C4148 C4149 1.404 . S
C4148 C4151 1.539 . S
C4149 C4145 1.408 . S
C4149 C4148 1.404 . S
C4149 H4161 0.930 . S
C4150 C4146 1.524 . S
C4150 H4162 0.956 . S
C4150 H4163 0.961 . S
C4150 H4164 0.961 . S
C4151 C4148 1.539 . S
C4151 H4165 0.958 . S
C4151 H4166 0.961 . S
C4151 H4167 0.960 . S
H4152 C4136 0.931 . S
H4153 C4141 0.929 . S
H4154 C4142 0.960 . S
H4155 C4142 0.962 . S
H4156 C4142 0.960 . S
H4157 C4143 0.961 . S
H4158 C4143 0.961 . S
H4159 C4143 0.961 . S
H4160 C4144 0.931 . S
H4161 C4149 0.930 . S
H4162 C4150 0.956 . S
H4163 C4150 0.961 . S
H4164 C4150 0.961 . S
H4165 C4151 0.958 . S
H4166 C4151 0.961 . S
H4167 C4151 0.960 . S
C4168 C4169 1.391 . S
C4168 C4170 1.394 . S
C4168 H4184 0.931 . S
C4169 C4168 1.391 . S
C4169 C4173 1.376 . S
C4170 C4168 1.394 . S
C4170 C4171 1.369 . S
C4170 C4174 1.531 . S
C4171 C4170 1.369 . S
C4171 C4172 1.410 . S
C4171 C4179 1.503 . S
C4172 C4171 1.410 . S
C4172 C4173 1.392 . S
C4172 C4175 1.511 . S
C4173 C4169 1.376 . S
C4173 C4172 1.392 . S
C4173 H4185 0.929 . S
C4174 C4170 1.531 . S
C4174 H4186 0.960 . S
C4174 H4187 0.962 . S
C4174 H4188 0.960 . S
C4175 C4172 1.511 . S
C4175 H4189 0.961 . S
C4175 H4190 0.961 . S
C4175 H4191 0.961 . S
C4176 C4177 1.370 . S
C4176 C4178 1.363 . S
C4176 H4192 0.931 . S
C4177 C4176 1.370 . S
C4177 C4181 1.408 . S
C4178 C4176 1.363 . S
C4178 C4179 1.370 . S
C4178 C4182 1.524 . S
C4179 C4171 1.503 . S
C4179 C4178 1.370 . S
C4179 C4180 1.403 . S
C4180 C4179 1.403 . S
C4180 C4181 1.404 . S
C4180 C4183 1.539 . S
C4181 C4177 1.408 . S
C4181 C4180 1.404 . S
C4181 H4193 0.930 . S
C4182 C4178 1.524 . S
C4182 H4194 0.956 . S
C4182 H4195 0.961 . S
C4182 H4196 0.961 . S
C4183 C4180 1.539 . S
C4183 H4197 0.958 . S
C4183 H4198 0.961 . S
C4183 H4199 0.960 . S
H4184 C4168 0.931 . S
H4185 C4173 0.929 . S
H4186 C4174 0.960 . S
H4187 C4174 0.962 . S
H4188 C4174 0.960 . S
H4189 C4175 0.961 . S
H4190 C4175 0.961 . S
H4191 C4175 0.961 . S
H4192 C4176 0.931 . S
H4193 C4181 0.930 . S
H4194 C4182 0.956 . S
H4195 C4182 0.961 . S
H4196 C4182 0.961 . S
H4197 C4183 0.958 . S
H4198 C4183 0.961 . S
H4199 C4183 0.960 . S
C4200 C4201 1.391 . S
C4200 C4202 1.394 . S
C4200 H4216 0.931 . S
C4201 C4200 1.391 . S
C4201 C4205 1.376 . S
C4202 C4200 1.394 . S
C4202 C4203 1.369 . S
C4202 C4206 1.531 . S
C4203 C4202 1.369 . S
C4203 C4204 1.410 . S
C4203 C4211 1.503 . S
C4204 C4203 1.410 . S
C4204 C4205 1.392 . S
C4204 C4207 1.511 . S
C4205 C4201 1.376 . S
C4205 C4204 1.392 . S
C4205 H4217 0.929 . S
C4206 C4202 1.531 . S
C4206 H4218 0.960 . S
C4206 H4219 0.962 . S
C4206 H4220 0.960 . S
C4207 C4204 1.511 . S
C4207 H4221 0.961 . S
C4207 H4222 0.961 . S
C4207 H4223 0.961 . S
C4208 C4209 1.370 . S
C4208 C4210 1.363 . S
C4208 H4224 0.931 . S
C4209 C4208 1.370 . S
C4209 C4213 1.408 . S
C4210 C4208 1.363 . S
C4210 C4211 1.370 . S
C4210 C4214 1.524 . S
C4211 C4203 1.503 . S
C4211 C4210 1.370 . S
C4211 C4212 1.403 . S
C4212 C4211 1.403 . S
C4212 C4213 1.404 . S
C4212 C4215 1.539 . S
C4213 C4209 1.408 . S
C4213 C4212 1.404 . S
C4213 H4225 0.930 . S
C4214 C4210 1.524 . S
C4214 H4226 0.956 . S
C4214 H4227 0.961 . S
C4214 H4228 0.961 . S
C4215 C4212 1.539 . S
C4215 H4229 0.958 . S
C4215 H4230 0.961 . S
C4215 H4231 0.960 . S
H4216 C4200 0.931 . S
H4217 C4205 0.929 . S
H4218 C4206 0.960 . S
H4219 C4206 0.962 . S
H4220 C4206 0.960 . S
H4221 C4207 0.961 . S
H4222 C4207 0.961 . S
H4223 C4207 0.961 . S
H4224 C4208 0.931 . S
H4225 C4213 0.930 . S
H4226 C4214 0.956 . S
H4227 C4214 0.961 . S
H4228 C4214 0.961 . S
H4229 C4215 0.958 . S
H4230 C4215 0.961 . S
H4231 C4215 0.960 . S
C4232 C4233 1.391 . S
C4232 C4234 1.394 . S
C4232 H4248 0.931 . S
C4233 C4232 1.391 . S
C4233 C4237 1.376 . S
C4234 C4232 1.394 . S
C4234 C4235 1.369 . S
C4234 C4238 1.531 . S
C4235 C4234 1.369 . S
C4235 C4236 1.410 . S
C4235 C4243 1.503 . S
C4236 C4235 1.410 . S
C4236 C4237 1.392 . S
C4236 C4239 1.511 . S
C4237 C4233 1.376 . S
C4237 C4236 1.392 . S
C4237 H4249 0.929 . S
C4238 C4234 1.531 . S
C4238 H4250 0.960 . S
C4238 H4251 0.962 . S
C4238 H4252 0.960 . S
C4239 C4236 1.511 . S
C4239 H4253 0.961 . S
C4239 H4254 0.961 . S
C4239 H4255 0.961 . S
C4240 C4241 1.370 . S
C4240 C4242 1.363 . S
C4240 H4256 0.931 . S
C4241 C4240 1.370 . S
C4241 C4245 1.408 . S
C4242 C4240 1.363 . S
C4242 C4243 1.370 . S
C4242 C4246 1.524 . S
C4243 C4235 1.503 . S
C4243 C4242 1.370 . S
C4243 C4244 1.403 . S
C4244 C4243 1.403 . S
C4244 C4245 1.404 . S
C4244 C4247 1.539 . S
C4245 C4241 1.408 . S
C4245 C4244 1.404 . S
C4245 H4257 0.930 . S
C4246 C4242 1.524 . S
C4246 H4258 0.956 . S
C4246 H4259 0.961 . S
C4246 H4260 0.961 . S
C4247 C4244 1.539 . S
C4247 H4261 0.958 . S
C4247 H4262 0.961 . S
C4247 H4263 0.960 . S
H4248 C4232 0.931 . S
H4249 C4237 0.929 . S
H4250 C4238 0.960 . S
H4251 C4238 0.962 . S
H4252 C4238 0.960 . S
H4253 C4239 0.961 . S
H4254 C4239 0.961 . S
H4255 C4239 0.961 . S
H4256 C4240 0.931 . S
H4257 C4245 0.930 . S
H4258 C4246 0.956 . S
H4259 C4246 0.961 . S
H4260 C4246 0.961 . S
H4261 C4247 0.958 . S
H4262 C4247 0.961 . S
H4263 C4247 0.960 . S
C4264 C4265 1.391 . S
C4264 C4266 1.394 . S
C4264 H4280 0.931 . S
C4265 C4264 1.391 . S
C4265 C4269 1.376 . S
C4266 C4264 1.394 . S
C4266 C4267 1.369 . S
C4266 C4270 1.531 . S
C4267 C4266 1.369 . S
C4267 C4268 1.410 . S
C4267 C4275 1.503 . S
C4268 C4267 1.410 . S
C4268 C4269 1.392 . S
C4268 C4271 1.511 . S
C4269 C4265 1.376 . S
C4269 C4268 1.392 . S
C4269 H4281 0.929 . S
C4270 C4266 1.531 . S
C4270 H4282 0.960 . S
C4270 H4283 0.962 . S
C4270 H4284 0.960 . S
C4271 C4268 1.511 . S
C4271 H4285 0.961 . S
C4271 H4286 0.961 . S
C4271 H4287 0.961 . S
C4272 C4273 1.370 . S
C4272 C4274 1.363 . S
C4272 H4288 0.931 . S
C4273 C4272 1.370 . S
C4273 C4277 1.408 . S
C4274 C4272 1.363 . S
C4274 C4275 1.370 . S
C4274 C4278 1.524 . S
C4275 C4267 1.503 . S
C4275 C4274 1.370 . S
C4275 C4276 1.403 . S
C4276 C4275 1.403 . S
C4276 C4277 1.404 . S
C4276 C4279 1.539 . S
C4277 C4273 1.408 . S
C4277 C4276 1.404 . S
C4277 H4289 0.930 . S
C4278 C4274 1.524 . S
C4278 H4290 0.956 . S
C4278 H4291 0.961 . S
C4278 H4292 0.961 . S
C4279 C4276 1.539 . S
C4279 H4293 0.958 . S
C4279 H4294 0.961 . S
C4279 H4295 0.960 . S
H4280 C4264 0.931 . S
H4281 C4269 0.929 . S
H4282 C4270 0.960 . S
H4283 C4270 0.962 . S
H4284 C4270 0.960 . S
H4285 C4271 0.961 . S
H4286 C4271 0.961 . S
H4287 C4271 0.961 . S
H4288 C4272 0.931 . S
H4289 C4277 0.930 . S
H4290 C4278 0.956 . S
H4291 C4278 0.961 . S
H4292 C4278 0.961 . S
H4293 C4279 0.958 . S
H4294 C4279 0.961 . S
H4295 C4279 0.960 . S
C4296 C4297 1.391 . S
C4296 C4298 1.394 . S
C4296 H4312 0.931 . S
C4297 C4296 1.391 . S
C4297 C4301 1.376 . S
C4298 C4296 1.394 . S
C4298 C4299 1.369 . S
C4298 C4302 1.531 . S
C4299 C4298 1.369 . S
C4299 C4300 1.410 . S
C4299 C4307 1.503 . S
C4300 C4299 1.410 . S
C4300 C4301 1.392 . S
C4300 C4303 1.511 . S
C4301 C4297 1.376 . S
C4301 C4300 1.392 . S
C4301 H4313 0.929 . S
C4302 C4298 1.531 . S
C4302 H4314 0.960 . S
C4302 H4315 0.962 . S
C4302 H4316 0.960 . S
C4303 C4300 1.511 . S
C4303 H4317 0.961 . S
C4303 H4318 0.961 . S
C4303 H4319 0.961 . S
C4304 C4305 1.370 . S
C4304 C4306 1.363 . S
C4304 H4320 0.931 . S
C4305 C4304 1.370 . S
C4305 C4309 1.408 . S
C4306 C4304 1.363 . S
C4306 C4307 1.370 . S
C4306 C4310 1.524 . S
C4307 C4299 1.503 . S
C4307 C4306 1.370 . S
C4307 C4308 1.403 . S
C4308 C4307 1.403 . S
C4308 C4309 1.404 . S
C4308 C4311 1.539 . S
C4309 C4305 1.408 . S
C4309 C4308 1.404 . S
C4309 H4321 0.930 . S
C4310 C4306 1.524 . S
C4310 H4322 0.956 . S
C4310 H4323 0.961 . S
C4310 H4324 0.961 . S
C4311 C4308 1.539 . S
C4311 H4325 0.958 . S
C4311 H4326 0.961 . S
C4311 H4327 0.960 . S
H4312 C4296 0.931 . S
H4313 C4301 0.929 . S
H4314 C4302 0.960 . S
H4315 C4302 0.962 . S
H4316 C4302 0.960 . S
H4317 C4303 0.961 . S
H4318 C4303 0.961 . S
H4319 C4303 0.961 . S
H4320 C4304 0.931 . S
H4321 C4309 0.930 . S
H4322 C4310 0.956 . S
H4323 C4310 0.961 . S
H4324 C4310 0.961 . S
H4325 C4311 0.958 . S
H4326 C4311 0.961 . S
H4327 C4311 0.960 . S
C4328 C4329 1.391 . S
C4328 C4330 1.394 . S
C4328 H4344 0.931 . S
C4329 C4328 1.391 . S
C4329 C4333 1.376 . S
C4330 C4328 1.394 . S
C4330 C4331 1.369 . S
C4330 C4334 1.531 . S
C4331 C4330 1.369 . S
C4331 C4332 1.410 . S
C4331 C4339 1.503 . S
C4332 C4331 1.410 . S
C4332 C4333 1.392 . S
C4332 C4335 1.511 . S
C4333 C4329 1.376 . S
C4333 C4332 1.392 . S
C4333 H4345 0.929 . S
C4334 C4330 1.531 . S
C4334 H4346 0.960 . S
C4334 H4347 0.962 . S
C4334 H4348 0.960 . S
C4335 C4332 1.511 . S
C4335 H4349 0.961 . S
C4335 H4350 0.961 . S
C4335 H4351 0.961 . S
C4336 C4337 1.370 . S
C4336 C4338 1.363 . S
C4336 H4352 0.931 . S
C4337 C4336 1.370 . S
C4337 C4341 1.408 . S
C4338 C4336 1.363 . S
C4338 C4339 1.370 . S
C4338 C4342 1.524 . S
C4339 C4331 1.503 . S
C4339 C4338 1.370 . S
C4339 C4340 1.403 . S
C4340 C4339 1.403 . S
C4340 C4341 1.404 . S
C4340 C4343 1.539 . S
C4341 C4337 1.408 . S
C4341 C4340 1.404 . S
C4341 H4353 0.930 . S
C4342 C4338 1.524 . S
C4342 H4354 0.956 . S
C4342 H4355 0.961 . S
C4342 H4356 0.961 . S
C4343 C4340 1.539 . S
C4343 H4357 0.958 . S
C4343 H4358 0.961 . S
C4343 H4359 0.960 . S
H4344 C4328 0.931 . S
H4345 C4333 0.929 . S
H4346 C4334 0.960 . S
H4347 C4334 0.962 . S
H4348 C4334 0.960 . S
H4349 C4335 0.961 . S
H4350 C4335 0.961 . S
H4351 C4335 0.961 . S
H4352 C4336 0.931 . S
H4353 C4341 0.930 . S
H4354 C4342 0.956 . S
H4355 C4342 0.961 . S
H4356 C4342 0.961 . S
H4357 C4343 0.958 . S
H4358 C4343 0.961 . S
H4359 C4343 0.960 . S
C4360 C4361 1.391 . S
C4360 C4362 1.394 . S
C4360 H4376 0.931 . S
C4361 C4360 1.391 . S
C4361 C4365 1.376 . S
C4362 C4360 1.394 . S
C4362 C4363 1.369 . S
C4362 C4366 1.531 . S
C4363 C4362 1.369 . S
C4363 C4364 1.410 . S
C4363 C4371 1.503 . S
C4364 C4363 1.410 . S
C4364 C4365 1.392 . S
C4364 C4367 1.511 . S
C4365 C4361 1.376 . S
C4365 C4364 1.392 . S
C4365 H4377 0.929 . S
C4366 C4362 1.531 . S
C4366 H4378 0.960 . S
C4366 H4379 0.962 . S
C4366 H4380 0.960 . S
C4367 C4364 1.511 . S
C4367 H4381 0.961 . S
C4367 H4382 0.961 . S
C4367 H4383 0.961 . S
C4368 C4369 1.370 . S
C4368 C4370 1.363 . S
C4368 H4384 0.931 . S
C4369 C4368 1.370 . S
C4369 C4373 1.408 . S
C4370 C4368 1.363 . S
C4370 C4371 1.370 . S
C4370 C4374 1.524 . S
C4371 C4363 1.503 . S
C4371 C4370 1.370 . S
C4371 C4372 1.403 . S
C4372 C4371 1.403 . S
C4372 C4373 1.404 . S
C4372 C4375 1.539 . S
C4373 C4369 1.408 . S
C4373 C4372 1.404 . S
C4373 H4385 0.930 . S
C4374 C4370 1.524 . S
C4374 H4386 0.956 . S
C4374 H4387 0.961 . S
C4374 H4388 0.961 . S
C4375 C4372 1.539 . S
C4375 H4389 0.958 . S
C4375 H4390 0.961 . S
C4375 H4391 0.960 . S
H4376 C4360 0.931 . S
H4377 C4365 0.929 . S
H4378 C4366 0.960 . S
H4379 C4366 0.962 . S
H4380 C4366 0.960 . S
H4381 C4367 0.961 . S
H4382 C4367 0.961 . S
H4383 C4367 0.961 . S
H4384 C4368 0.931 . S
H4385 C4373 0.930 . S
H4386 C4374 0.956 . S
H4387 C4374 0.961 . S
H4388 C4374 0.961 . S
H4389 C4375 0.958 . S
H4390 C4375 0.961 . S
H4391 C4375 0.960 . S
C4392 C4393 1.391 . S
C4392 C4394 1.394 . S
C4392 H4408 0.931 . S
C4393 C4392 1.391 . S
C4393 C4397 1.376 . S
C4394 C4392 1.394 . S
C4394 C4395 1.369 . S
C4394 C4398 1.531 . S
C4395 C4394 1.369 . S
C4395 C4396 1.410 . S
C4395 C4403 1.503 . S
C4396 C4395 1.410 . S
C4396 C4397 1.392 . S
C4396 C4399 1.511 . S
C4397 C4393 1.376 . S
C4397 C4396 1.392 . S
C4397 H4409 0.929 . S
C4398 C4394 1.531 . S
C4398 H4410 0.960 . S
C4398 H4411 0.962 . S
C4398 H4412 0.960 . S
C4399 C4396 1.511 . S
C4399 H4413 0.961 . S
C4399 H4414 0.961 . S
C4399 H4415 0.961 . S
C4400 C4401 1.370 . S
C4400 C4402 1.363 . S
C4400 H4416 0.931 . S
C4401 C4400 1.370 . S
C4401 C4405 1.408 . S
C4402 C4400 1.363 . S
C4402 C4403 1.370 . S
C4402 C4406 1.524 . S
C4403 C4395 1.503 . S
C4403 C4402 1.370 . S
C4403 C4404 1.403 . S
C4404 C4403 1.403 . S
C4404 C4405 1.404 . S
C4404 C4407 1.539 . S
C4405 C4401 1.408 . S
C4405 C4404 1.404 . S
C4405 H4417 0.930 . S
C4406 C4402 1.524 . S
C4406 H4418 0.956 . S
C4406 H4419 0.961 . S
C4406 H4420 0.961 . S
C4407 C4404 1.539 . S
C4407 H4421 0.958 . S
C4407 H4422 0.961 . S
C4407 H4423 0.960 . S
H4408 C4392 0.931 . S
H4409 C4397 0.929 . S
H4410 C4398 0.960 . S
H4411 C4398 0.962 . S
H4412 C4398 0.960 . S
H4413 C4399 0.961 . S
H4414 C4399 0.961 . S
H4415 C4399 0.961 . S
H4416 C4400 0.931 . S
H4417 C4405 0.930 . S
H4418 C4406 0.956 . S
H4419 C4406 0.961 . S
H4420 C4406 0.961 . S
H4421 C4407 0.958 . S
H4422 C4407 0.961 . S
H4423 C4407 0.960 . S
C4424 C4425 1.391 . S
C4424 C4426 1.394 . S
C4424 H4440 0.931 . S
C4425 C4424 1.391 . S
C4425 C4429 1.376 . S
C4426 C4424 1.394 . S
C4426 C4427 1.369 . S
C4426 C4430 1.531 . S
C4427 C4426 1.369 . S
C4427 C4428 1.410 . S
C4427 C4435 1.503 . S
C4428 C4427 1.410 . S
C4428 C4429 1.392 . S
C4428 C4431 1.511 . S
C4429 C4425 1.376 . S
C4429 C4428 1.392 . S
C4429 H4441 0.929 . S
C4430 C4426 1.531 . S
C4430 H4442 0.960 . S
C4430 H4443 0.962 . S
C4430 H4444 0.960 . S
C4431 C4428 1.511 . S
C4431 H4445 0.961 . S
C4431 H4446 0.961 . S
C4431 H4447 0.961 . S
C4432 C4433 1.370 . S
C4432 C4434 1.363 . S
C4432 H4448 0.931 . S
C4433 C4432 1.370 . S
C4433 C4437 1.408 . S
C4434 C4432 1.363 . S
C4434 C4435 1.370 . S
C4434 C4438 1.524 . S
C4435 C4427 1.503 . S
C4435 C4434 1.370 . S
C4435 C4436 1.403 . S
C4436 C4435 1.403 . S
C4436 C4437 1.404 . S
C4436 C4439 1.539 . S
C4437 C4433 1.408 . S
C4437 C4436 1.404 . S
C4437 H4449 0.930 . S
C4438 C4434 1.524 . S
C4438 H4450 0.956 . S
C4438 H4451 0.961 . S
C4438 H4452 0.961 . S
C4439 C4436 1.539 . S
C4439 H4453 0.958 . S
C4439 H4454 0.961 . S
C4439 H4455 0.960 . S
H4440 C4424 0.931 . S
H4441 C4429 0.929 . S
H4442 C4430 0.960 . S
H4443 C4430 0.962 . S
H4444 C4430 0.960 . S
H4445 C4431 0.961 . S
H4446 C4431 0.961 . S
H4447 C4431 0.961 . S
H4448 C4432 0.931 . S
H4449 C4437 0.930 . S
H4450 C4438 0.956 . S
H4451 C4438 0.961 . S
H4452 C4438 0.961 . S
H4453 C4439 0.958 . S
H4454 C4439 0.961 . S
H4455 C4439 0.960 . S
C4456 C4457 1.391 . S
C4456 C4458 1.394 . S
C4456 H4472 0.931 . S
C4457 C4456 1.391 . S
C4457 C4461 1.376 . S
C4458 C4456 1.394 . S
C4458 C4459 1.369 . S
C4458 C4462 1.531 . S
C4459 C4458 1.369 . S
C4459 C4460 1.410 . S
C4459 C4467 1.503 . S
C4460 C4459 1.410 . S
C4460 C4461 1.392 . S
C4460 C4463 1.511 . S
C4461 C4457 1.376 . S
C4461 C4460 1.392 . S
C4461 H4473 0.929 . S
C4462 C4458 1.531 . S
C4462 H4474 0.960 . S
C4462 H4475 0.962 . S
C4462 H4476 0.960 . S
C4463 C4460 1.511 . S
C4463 H4477 0.961 . S
C4463 H4478 0.961 . S
C4463 H4479 0.961 . S
C4464 C4465 1.370 . S
C4464 C4466 1.363 . S
C4464 H4480 0.931 . S
C4465 C4464 1.370 . S
C4465 C4469 1.408 . S
C4466 C4464 1.363 . S
C4466 C4467 1.370 . S
C4466 C4470 1.524 . S
C4467 C4459 1.503 . S
C4467 C4466 1.370 . S
C4467 C4468 1.403 . S
C4468 C4467 1.403 . S
C4468 C4469 1.404 . S
C4468 C4471 1.539 . S
C4469 C4465 1.408 . S
C4469 C4468 1.404 . S
C4469 H4481 0.930 . S
C4470 C4466 1.524 . S
C4470 H4482 0.956 . S
C4470 H4483 0.961 . S
C4470 H4484 0.961 . S
C4471 C4468 1.539 . S
C4471 H4485 0.958 . S
C4471 H4486 0.961 . S
C4471 H4487 0.960 . S
H4472 C4456 0.931 . S
H4473 C4461 0.929 . S
H4474 C4462 0.960 . S
H4475 C4462 0.962 . S
H4476 C4462 0.960 . S
H4477 C4463 0.961 . S
H4478 C4463 0.961 . S
H4479 C4463 0.961 . S
H4480 C4464 0.931 . S
H4481 C4469 0.930 . S
H4482 C4470 0.956 . S
H4483 C4470 0.961 . S
H4484 C4470 0.961 . S
H4485 C4471 0.958 . S
H4486 C4471 0.961 . S
H4487 C4471 0.960 . S
C4488 C4489 1.391 . S
C4488 C4490 1.394 . S
C4488 H4504 0.931 . S
C4489 C4488 1.391 . S
C4489 C4493 1.376 . S
C4490 C4488 1.394 . S
C4490 C4491 1.369 . S
C4490 C4494 1.531 . S
C4491 C4490 1.369 . S
C4491 C4492 1.410 . S
C4491 C4499 1.503 . S
C4492 C4491 1.410 . S
C4492 C4493 1.392 . S
C4492 C4495 1.511 . S
C4493 C4489 1.376 . S
C4493 C4492 1.392 . S
C4493 H4505 0.929 . S
C4494 C4490 1.531 . S
C4494 H4506 0.960 . S
C4494 H4507 0.962 . S
C4494 H4508 0.960 . S
C4495 C4492 1.511 . S
C4495 H4509 0.961 . S
C4495 H4510 0.961 . S
C4495 H4511 0.961 . S
C4496 C4497 1.370 . S
C4496 C4498 1.363 . S
C4496 H4512 0.931 . S
C4497 C4496 1.370 . S
C4497 C4501 1.408 . S
C4498 C4496 1.363 . S
C4498 C4499 1.370 . S
C4498 C4502 1.524 . S
C4499 C4491 1.503 . S
C4499 C4498 1.370 . S
C4499 C4500 1.403 . S
C4500 C4499 1.403 . S
C4500 C4501 1.404 . S
C4500 C4503 1.539 . S
C4501 C4497 1.408 . S
C4501 C4500 1.404 . S
C4501 H4513 0.930 . S
C4502 C4498 1.524 . S
C4502 H4514 0.956 . S
C4502 H4515 0.961 . S
C4502 H4516 0.961 . S
C4503 C4500 1.539 . S
C4503 H4517 0.958 . S
C4503 H4518 0.961 . S
C4503 H4519 0.960 . S
H4504 C4488 0.931 . S
H4505 C4493 0.929 . S
H4506 C4494 0.960 . S
H4507 C4494 0.962 . S
H4508 C4494 0.960 . S
H4509 C4495 0.961 . S
H4510 C4495 0.961 . S
H4511 C4495 0.961 . S
H4512 C4496 0.931 . S
H4513 C4501 0.930 . S
H4514 C4502 0.956 . S
H4515 C4502 0.961 . S
H4516 C4502 0.961 . S
H4517 C4503 0.958 . S
H4518 C4503 0.961 . S
H4519 C4503 0.960 . S
C4520 C4521 1.391 . S
C4520 C4522 1.394 . S
C4520 H4536 0.931 . S
C4521 C4520 1.391 . S
C4521 C4525 1.376 . S
C4522 C4520 1.394 . S
C4522 C4523 1.369 . S
C4522 C4526 1.531 . S
C4523 C4522 1.369 . S
C4523 C4524 1.410 . S
C4523 C4531 1.503 . S
C4524 C4523 1.410 . S
C4524 C4525 1.392 . S
C4524 C4527 1.511 . S
C4525 C4521 1.376 . S
C4525 C4524 1.392 . S
C4525 H4537 0.929 . S
C4526 C4522 1.531 . S
C4526 H4538 0.960 . S
C4526 H4539 0.962 . S
C4526 H4540 0.960 . S
C4527 C4524 1.511 . S
C4527 H4541 0.961 . S
C4527 H4542 0.961 . S
C4527 H4543 0.961 . S
C4528 C4529 1.370 . S
C4528 C4530 1.363 . S
C4528 H4544 0.931 . S
C4529 C4528 1.370 . S
C4529 C4533 1.408 . S
C4530 C4528 1.363 . S
C4530 C4531 1.370 . S
C4530 C4534 1.524 . S
C4531 C4523 1.503 . S
C4531 C4530 1.370 . S
C4531 C4532 1.403 . S
C4532 C4531 1.403 . S
C4532 C4533 1.404 . S
C4532 C4535 1.539 . S
C4533 C4529 1.408 . S
C4533 C4532 1.404 . S
C4533 H4545 0.930 . S
C4534 C4530 1.524 . S
C4534 H4546 0.956 . S
C4534 H4547 0.961 . S
C4534 H4548 0.961 . S
C4535 C4532 1.539 . S
C4535 H4549 0.958 . S
C4535 H4550 0.961 . S
C4535 H4551 0.960 . S
H4536 C4520 0.931 . S
H4537 C4525 0.929 . S
H4538 C4526 0.960 . S
H4539 C4526 0.962 . S
H4540 C4526 0.960 . S
H4541 C4527 0.961 . S
H4542 C4527 0.961 . S
H4543 C4527 0.961 . S
H4544 C4528 0.931 . S
H4545 C4533 0.930 . S
H4546 C4534 0.956 . S
H4547 C4534 0.961 . S
H4548 C4534 0.961 . S
H4549 C4535 0.958 . S
H4550 C4535 0.961 . S
H4551 C4535 0.960 . S
C4552 C4553 1.391 . S
C4552 C4554 1.394 . S
C4552 H4568 0.931 . S
C4553 C4552 1.391 . S
C4553 C4557 1.376 . S
C4554 C4552 1.394 . S
C4554 C4555 1.369 . S
C4554 C4558 1.531 . S
C4555 C4554 1.369 . S
C4555 C4556 1.410 . S
C4555 C4563 1.503 . S
C4556 C4555 1.410 . S
C4556 C4557 1.392 . S
C4556 C4559 1.511 . S
C4557 C4553 1.376 . S
C4557 C4556 1.392 . S
C4557 H4569 0.929 . S
C4558 C4554 1.531 . S
C4558 H4570 0.960 . S
C4558 H4571 0.962 . S
C4558 H4572 0.960 . S
C4559 C4556 1.511 . S
C4559 H4573 0.961 . S
C4559 H4574 0.961 . S
C4559 H4575 0.961 . S
C4560 C4561 1.370 . S
C4560 C4562 1.363 . S
C4560 H4576 0.931 . S
C4561 C4560 1.370 . S
C4561 C4565 1.408 . S
C4562 C4560 1.363 . S
C4562 C4563 1.370 . S
C4562 C4566 1.524 . S
C4563 C4555 1.503 . S
C4563 C4562 1.370 . S
C4563 C4564 1.403 . S
C4564 C4563 1.403 . S
C4564 C4565 1.404 . S
C4564 C4567 1.539 . S
C4565 C4561 1.408 . S
C4565 C4564 1.404 . S
C4565 H4577 0.930 . S
C4566 C4562 1.524 . S
C4566 H4578 0.956 . S
C4566 H4579 0.961 . S
C4566 H4580 0.961 . S
C4567 C4564 1.539 . S
C4567 H4581 0.958 . S
C4567 H4582 0.961 . S
C4567 H4583 0.960 . S
H4568 C4552 0.931 . S
H4569 C4557 0.929 . S
H4570 C4558 0.960 . S
H4571 C4558 0.962 . S
H4572 C4558 0.960 . S
H4573 C4559 0.961 . S
H4574 C4559 0.961 . S
H4575 C4559 0.961 . S
H4576 C4560 0.931 . S
H4577 C4565 0.930 . S
H4578 C4566 0.956 . S
H4579 C4566 0.961 . S
H4580 C4566 0.961 . S
H4581 C4567 0.958 . S
H4582 C4567 0.961 . S
H4583 C4567 0.960 . S
C4584 C4585 1.391 . S
C4584 C4586 1.394 . S
C4584 H4600 0.931 . S
C4585 C4584 1.391 . S
C4585 C4589 1.376 . S
C4586 C4584 1.394 . S
C4586 C4587 1.369 . S
C4586 C4590 1.531 . S
C4587 C4586 1.369 . S
C4587 C4588 1.410 . S
C4587 C4595 1.503 . S
C4588 C4587 1.410 . S
C4588 C4589 1.392 . S
C4588 C4591 1.511 . S
C4589 C4585 1.376 . S
C4589 C4588 1.392 . S
C4589 H4601 0.929 . S
C4590 C4586 1.531 . S
C4590 H4602 0.960 . S
C4590 H4603 0.962 . S
C4590 H4604 0.960 . S
C4591 C4588 1.511 . S
C4591 H4605 0.961 . S
C4591 H4606 0.961 . S
C4591 H4607 0.961 . S
C4592 C4593 1.370 . S
C4592 C4594 1.363 . S
C4592 H4608 0.931 . S
C4593 C4592 1.370 . S
C4593 C4597 1.408 . S
C4594 C4592 1.363 . S
C4594 C4595 1.370 . S
C4594 C4598 1.524 . S
C4595 C4587 1.503 . S
C4595 C4594 1.370 . S
C4595 C4596 1.403 . S
C4596 C4595 1.403 . S
C4596 C4597 1.404 . S
C4596 C4599 1.539 . S
C4597 C4593 1.408 . S
C4597 C4596 1.404 . S
C4597 H4609 0.930 . S
C4598 C4594 1.524 . S
C4598 H4610 0.956 . S
C4598 H4611 0.961 . S
C4598 H4612 0.961 . S
C4599 C4596 1.539 . S
C4599 H4613 0.958 . S
C4599 H4614 0.961 . S
C4599 H4615 0.960 . S
H4600 C4584 0.931 . S
H4601 C4589 0.929 . S
H4602 C4590 0.960 . S
H4603 C4590 0.962 . S
H4604 C4590 0.960 . S
H4605 C4591 0.961 . S
H4606 C4591 0.961 . S
H4607 C4591 0.961 . S
H4608 C4592 0.931 . S
H4609 C4597 0.930 . S
H4610 C4598 0.956 . S
H4611 C4598 0.961 . S
H4612 C4598 0.961 . S
H4613 C4599 0.958 . S
H4614 C4599 0.961 . S
H4615 C4599 0.960 . S
C4616 C4617 1.391 . S
C4616 C4618 1.394 . S
C4616 H4632 0.931 . S
C4617 C4616 1.391 . S
C4617 C4621 1.376 . S
C4618 C4616 1.394 . S
C4618 C4619 1.369 . S
C4618 C4622 1.531 . S
C4619 C4618 1.369 . S
C4619 C4620 1.410 . S
C4619 C4627 1.503 . S
C4620 C4619 1.410 . S
C4620 C4621 1.392 . S
C4620 C4623 1.511 . S
C4621 C4617 1.376 . S
C4621 C4620 1.392 . S
C4621 H4633 0.929 . S
C4622 C4618 1.531 . S
C4622 H4634 0.960 . S
C4622 H4635 0.962 . S
C4622 H4636 0.960 . S
C4623 C4620 1.511 . S
C4623 H4637 0.961 . S
C4623 H4638 0.961 . S
C4623 H4639 0.961 . S
C4624 C4625 1.370 . S
C4624 C4626 1.363 . S
C4624 H4640 0.931 . S
C4625 C4624 1.370 . S
C4625 C4629 1.408 . S
C4626 C4624 1.363 . S
C4626 C4627 1.370 . S
C4626 C4630 1.524 . S
C4627 C4619 1.503 . S
C4627 C4626 1.370 . S
C4627 C4628 1.403 . S
C4628 C4627 1.403 . S
C4628 C4629 1.404 . S
C4628 C4631 1.539 . S
C4629 C4625 1.408 . S
C4629 C4628 1.404 . S
C4629 H4641 0.930 . S
C4630 C4626 1.524 . S
C4630 H4642 0.956 . S
C4630 H4643 0.961 . S
C4630 H4644 0.961 . S
C4631 C4628 1.539 . S
C4631 H4645 0.958 . S
C4631 H4646 0.961 . S
C4631 H4647 0.960 . S
H4632 C4616 0.931 . S
H4633 C4621 0.929 . S
H4634 C4622 0.960 . S
H4635 C4622 0.962 . S
H4636 C4622 0.960 . S
H4637 C4623 0.961 . S
H4638 C4623 0.961 . S
H4639 C4623 0.961 . S
H4640 C4624 0.931 . S
H4641 C4629 0.930 . S
H4642 C4630 0.956 . S
H4643 C4630 0.961 . S
H4644 C4630 0.961 . S
H4645 C4631 0.958 . S
H4646 C4631 0.961 . S
H4647 C4631 0.960 . S
C4648 C4649 1.391 . S
C4648 C4650 1.394 . S
C4648 H4664 0.931 . S
C4649 C4648 1.391 . S
C4649 C4653 1.376 . S
C4650 C4648 1.394 . S
C4650 C4651 1.369 . S
C4650 C4654 1.531 . S
C4651 C4650 1.369 . S
C4651 C4652 1.410 . S
C4651 C4659 1.503 . S
C4652 C4651 1.410 . S
C4652 C4653 1.392 . S
C4652 C4655 1.511 . S
C4653 C4649 1.376 . S
C4653 C4652 1.392 . S
C4653 H4665 0.929 . S
C4654 C4650 1.531 . S
C4654 H4666 0.960 . S
C4654 H4667 0.962 . S
C4654 H4668 0.960 . S
C4655 C4652 1.511 . S
C4655 H4669 0.961 . S
C4655 H4670 0.961 . S
C4655 H4671 0.961 . S
C4656 C4657 1.370 . S
C4656 C4658 1.363 . S
C4656 H4672 0.931 . S
C4657 C4656 1.370 . S
C4657 C4661 1.408 . S
C4658 C4656 1.363 . S
C4658 C4659 1.370 . S
C4658 C4662 1.524 . S
C4659 C4651 1.503 . S
C4659 C4658 1.370 . S
C4659 C4660 1.403 . S
C4660 C4659 1.403 . S
C4660 C4661 1.404 . S
C4660 C4663 1.539 . S
C4661 C4657 1.408 . S
C4661 C4660 1.404 . S
C4661 H4673 0.930 . S
C4662 C4658 1.524 . S
C4662 H4674 0.956 . S
C4662 H4675 0.961 . S
C4662 H4676 0.961 . S
C4663 C4660 1.539 . S
C4663 H4677 0.958 . S
C4663 H4678 0.961 . S
C4663 H4679 0.960 . S
H4664 C4648 0.931 . S
H4665 C4653 0.929 . S
H4666 C4654 0.960 . S
H4667 C4654 0.962 . S
H4668 C4654 0.960 . S
H4669 C4655 0.961 . S
H4670 C4655 0.961 . S
H4671 C4655 0.961 . S
H4672 C4656 0.931 . S
H4673 C4661 0.930 . S
H4674 C4662 0.956 . S
H4675 C4662 0.961 . S
H4676 C4662 0.961 . S
H4677 C4663 0.958 . S
H4678 C4663 0.961 . S
H4679 C4663 0.960 . S
C4680 C4681 1.391 . S
C4680 C4682 1.394 . S
C4680 H4696 0.931 . S
C4681 C4680 1.391 . S
C4681 C4685 1.376 . S
C4682 C4680 1.394 . S
C4682 C4683 1.369 . S
C4682 C4686 1.531 . S
C4683 C4682 1.369 . S
C4683 C4684 1.410 . S
C4683 C4691 1.503 . S
C4684 C4683 1.410 . S
C4684 C4685 1.392 . S
C4684 C4687 1.511 . S
C4685 C4681 1.376 . S
C4685 C4684 1.392 . S
C4685 H4697 0.929 . S
C4686 C4682 1.531 . S
C4686 H4698 0.960 . S
C4686 H4699 0.962 . S
C4686 H4700 0.960 . S
C4687 C4684 1.511 . S
C4687 H4701 0.961 . S
C4687 H4702 0.961 . S
C4687 H4703 0.961 . S
C4688 C4689 1.370 . S
C4688 C4690 1.363 . S
C4688 H4704 0.931 . S
C4689 C4688 1.370 . S
C4689 C4693 1.408 . S
C4690 C4688 1.363 . S
C4690 C4691 1.370 . S
C4690 C4694 1.524 . S
C4691 C4683 1.503 . S
C4691 C4690 1.370 . S
C4691 C4692 1.403 . S
C4692 C4691 1.403 . S
C4692 C4693 1.404 . S
C4692 C4695 1.539 . S
C4693 C4689 1.408 . S
C4693 C4692 1.404 . S
C4693 H4705 0.930 . S
C4694 C4690 1.524 . S
C4694 H4706 0.956 . S
C4694 H4707 0.961 . S
C4694 H4708 0.961 . S
C4695 C4692 1.539 . S
C4695 H4709 0.958 . S
C4695 H4710 0.961 . S
C4695 H4711 0.960 . S
H4696 C4680 0.931 . S
H4697 C4685 0.929 . S
H4698 C4686 0.960 . S
H4699 C4686 0.962 . S
H4700 C4686 0.960 . S
H4701 C4687 0.961 . S
H4702 C4687 0.961 . S
H4703 C4687 0.961 . S
H4704 C4688 0.931 . S
H4705 C4693 0.930 . S
H4706 C4694 0.956 . S
H4707 C4694 0.961 . S
H4708 C4694 0.961 . S
H4709 C4695 0.958 . S
H4710 C4695 0.961 . S
H4711 C4695 0.960 . S
C4712 C4713 1.391 . S
C4712 C4714 1.394 . S
C4712 H4728 0.931 . S
C4713 C4712 1.391 . S
C4713 C4717 1.376 . S
C4714 C4712 1.394 . S
C4714 C4715 1.369 . S
C4714 C4718 1.531 . S
C4715 C4714 1.369 . S
C4715 C4716 1.410 . S
C4715 C4723 1.503 . S
C4716 C4715 1.410 . S
C4716 C4717 1.392 . S
C4716 C4719 1.511 . S
C4717 C4713 1.376 . S
C4717 C4716 1.392 . S
C4717 H4729 0.929 . S
C4718 C4714 1.531 . S
C4718 H4730 0.960 . S
C4718 H4731 0.962 . S
C4718 H4732 0.960 . S
C4719 C4716 1.511 . S
C4719 H4733 0.961 . S
C4719 H4734 0.961 . S
C4719 H4735 0.961 . S
C4720 C4721 1.370 . S
C4720 C4722 1.363 . S
C4720 H4736 0.931 . S
C4721 C4720 1.370 . S
C4721 C4725 1.408 . S
C4722 C4720 1.363 . S
C4722 C4723 1.370 . S
C4722 C4726 1.524 . S
C4723 C4715 1.503 . S
C4723 C4722 1.370 . S
C4723 C4724 1.403 . S
C4724 C4723 1.403 . S
C4724 C4725 1.404 . S
C4724 C4727 1.539 . S
C4725 C4721 1.408 . S
C4725 C4724 1.404 . S
C4725 H4737 0.930 . S
C4726 C4722 1.524 . S
C4726 H4738 0.956 . S
C4726 H4739 0.961 . S
C4726 H4740 0.961 . S
C4727 C4724 1.539 . S
C4727 H4741 0.958 . S
C4727 H4742 0.961 . S
C4727 H4743 0.960 . S
H4728 C4712 0.931 . S
H4729 C4717 0.929 . S
H4730 C4718 0.960 . S
H4731 C4718 0.962 . S
H4732 C4718 0.960 . S
H4733 C4719 0.961 . S
H4734 C4719 0.961 . S
H4735 C4719 0.961 . S
H4736 C4720 0.931 . S
H4737 C4725 0.930 . S
H4738 C4726 0.956 . S
H4739 C4726 0.961 . S
H4740 C4726 0.961 . S
H4741 C4727 0.958 . S
H4742 C4727 0.961 . S
H4743 C4727 0.960 . S
C4744 C4745 1.391 . S
C4744 C4746 1.394 . S
C4744 H4760 0.931 . S
C4745 C4744 1.391 . S
C4745 C4749 1.376 . S
C4746 C4744 1.394 . S
C4746 C4747 1.369 . S
C4746 C4750 1.531 . S
C4747 C4746 1.369 . S
C4747 C4748 1.410 . S
C4747 C4755 1.503 . S
C4748 C4747 1.410 . S
C4748 C4749 1.392 . S
C4748 C4751 1.511 . S
C4749 C4745 1.376 . S
C4749 C4748 1.392 . S
C4749 H4761 0.929 . S
C4750 C4746 1.531 . S
C4750 H4762 0.960 . S
C4750 H4763 0.962 . S
C4750 H4764 0.960 . S
C4751 C4748 1.511 . S
C4751 H4765 0.961 . S
C4751 H4766 0.961 . S
C4751 H4767 0.961 . S
C4752 C4753 1.370 . S
C4752 C4754 1.363 . S
C4752 H4768 0.931 . S
C4753 C4752 1.370 . S
C4753 C4757 1.408 . S
C4754 C4752 1.363 . S
C4754 C4755 1.370 . S
C4754 C4758 1.524 . S
C4755 C4747 1.503 . S
C4755 C4754 1.370 . S
C4755 C4756 1.403 . S
C4756 C4755 1.403 . S
C4756 C4757 1.404 . S
C4756 C4759 1.539 . S
C4757 C4753 1.408 . S
C4757 C4756 1.404 . S
C4757 H4769 0.930 . S
C4758 C4754 1.524 . S
C4758 H4770 0.956 . S
C4758 H4771 0.961 . S
C4758 H4772 0.961 . S
C4759 C4756 1.539 . S
C4759 H4773 0.958 . S
C4759 H4774 0.961 . S
C4759 H4775 0.960 . S
H4760 C4744 0.931 . S
H4761 C4749 0.929 . S
H4762 C4750 0.960 . S
H4763 C4750 0.962 . S
H4764 C4750 0.960 . S
H4765 C4751 0.961 . S
H4766 C4751 0.961 . S
H4767 C4751 0.961 . S
H4768 C4752 0.931 . S
H4769 C4757 0.930 . S
H4770 C4758 0.956 . S
H4771 C4758 0.961 . S
H4772 C4758 0.961 . S
H4773 C4759 0.958 . S
H4774 C4759 0.961 . S
H4775 C4759 0.960 . S
C4776 C4777 1.391 . S
C4776 C4778 1.394 . S
C4776 H4792 0.931 . S
C4777 C4776 1.391 . S
C4777 C4781 1.376 . S
C4778 C4776 1.394 . S
C4778 C4779 1.369 . S
C4778 C4782 1.531 . S
C4779 C4778 1.369 . S
C4779 C4780 1.410 . S
C4779 C4787 1.503 . S
C4780 C4779 1.410 . S
C4780 C4781 1.392 . S
C4780 C4783 1.511 . S
C4781 C4777 1.376 . S
C4781 C4780 1.392 . S
C4781 H4793 0.929 . S
C4782 C4778 1.531 . S
C4782 H4794 0.960 . S
C4782 H4795 0.962 . S
C4782 H4796 0.960 . S
C4783 C4780 1.511 . S
C4783 H4797 0.961 . S
C4783 H4798 0.961 . S
C4783 H4799 0.961 . S
C4784 C4785 1.370 . S
C4784 C4786 1.363 . S
C4784 H4800 0.931 . S
C4785 C4784 1.370 . S
C4785 C4789 1.408 . S
C4786 C4784 1.363 . S
C4786 C4787 1.370 . S
C4786 C4790 1.524 . S
C4787 C4779 1.503 . S
C4787 C4786 1.370 . S
C4787 C4788 1.403 . S
C4788 C4787 1.403 . S
C4788 C4789 1.404 . S
C4788 C4791 1.539 . S
C4789 C4785 1.408 . S
C4789 C4788 1.404 . S
C4789 H4801 0.930 . S
C4790 C4786 1.524 . S
C4790 H4802 0.956 . S
C4790 H4803 0.961 . S
C4790 H4804 0.961 . S
C4791 C4788 1.539 . S
C4791 H4805 0.958 . S
C4791 H4806 0.961 . S
C4791 H4807 0.960 . S
H4792 C4776 0.931 . S
H4793 C4781 0.929 . S
H4794 C4782 0.960 . S
H4795 C4782 0.962 . S
H4796 C4782 0.960 . S
H4797 C4783 0.961 . S
H4798 C4783 0.961 . S
H4799 C4783 0.961 . S
H4800 C4784 0.931 . S
H4801 C4789 0.930 . S
H4802 C4790 0.956 . S
H4803 C4790 0.961 . S
H4804 C4790 0.961 . S
H4805 C4791 0.958 . S
H4806 C4791 0.961 . S
H4807 C4791 0.960 . S
C4808 C4809 1.391 . S
C4808 C4810 1.394 . S
C4808 H4824 0.931 . S
C4809 C4808 1.391 . S
C4809 C4813 1.376 . S
C4810 C4808 1.394 . S
C4810 C4811 1.369 . S
C4810 C4814 1.531 . S
C4811 C4810 1.369 . S
C4811 C4812 1.410 . S
C4811 C4819 1.503 . S
C4812 C4811 1.410 . S
C4812 C4813 1.392 . S
C4812 C4815 1.511 . S
C4813 C4809 1.376 . S
C4813 C4812 1.392 . S
C4813 H4825 0.929 . S
C4814 C4810 1.531 . S
C4814 H4826 0.960 . S
C4814 H4827 0.962 . S
C4814 H4828 0.960 . S
C4815 C4812 1.511 . S
C4815 H4829 0.961 . S
C4815 H4830 0.961 . S
C4815 H4831 0.961 . S
C4816 C4817 1.370 . S
C4816 C4818 1.363 . S
C4816 H4832 0.931 . S
C4817 C4816 1.370 . S
C4817 C4821 1.408 . S
C4818 C4816 1.363 . S
C4818 C4819 1.370 . S
C4818 C4822 1.524 . S
C4819 C4811 1.503 . S
C4819 C4818 1.370 . S
C4819 C4820 1.403 . S
C4820 C4819 1.403 . S
C4820 C4821 1.404 . S
C4820 C4823 1.539 . S
C4821 C4817 1.408 . S
C4821 C4820 1.404 . S
C4821 H4833 0.930 . S
C4822 C4818 1.524 . S
C4822 H4834 0.956 . S
C4822 H4835 0.961 . S
C4822 H4836 0.961 . S
C4823 C4820 1.539 . S
C4823 H4837 0.958 . S
C4823 H4838 0.961 . S
C4823 H4839 0.960 . S
H4824 C4808 0.931 . S
H4825 C4813 0.929 . S
H4826 C4814 0.960 . S
H4827 C4814 0.962 . S
H4828 C4814 0.960 . S
H4829 C4815 0.961 . S
H4830 C4815 0.961 . S
H4831 C4815 0.961 . S
H4832 C4816 0.931 . S
H4833 C4821 0.930 . S
H4834 C4822 0.956 . S
H4835 C4822 0.961 . S
H4836 C4822 0.961 . S
H4837 C4823 0.958 . S
H4838 C4823 0.961 . S
H4839 C4823 0.960 . S
C4840 C4841 1.391 . S
C4840 C4842 1.394 . S
C4840 H4856 0.931 . S
C4841 C4840 1.391 . S
C4841 C4845 1.376 . S
C4842 C4840 1.394 . S
C4842 C4843 1.369 . S
C4842 C4846 1.531 . S
C4843 C4842 1.369 . S
C4843 C4844 1.410 . S
C4843 C4851 1.503 . S
C4844 C4843 1.410 . S
C4844 C4845 1.392 . S
C4844 C4847 1.511 . S
C4845 C4841 1.376 . S
C4845 C4844 1.392 . S
C4845 H4857 0.929 . S
C4846 C4842 1.531 . S
C4846 H4858 0.960 . S
C4846 H4859 0.962 . S
C4846 H4860 0.960 . S
C4847 C4844 1.511 . S
C4847 H4861 0.961 . S
C4847 H4862 0.961 . S
C4847 H4863 0.961 . S
C4848 C4849 1.370 . S
C4848 C4850 1.363 . S
C4848 H4864 0.931 . S
C4849 C4848 1.370 . S
C4849 C4853 1.408 . S
C4850 C4848 1.363 . S
C4850 C4851 1.370 . S
C4850 C4854 1.524 . S
C4851 C4843 1.503 . S
C4851 C4850 1.370 . S
C4851 C4852 1.403 . S
C4852 C4851 1.403 . S
C4852 C4853 1.404 . S
C4852 C4855 1.539 . S
C4853 C4849 1.408 . S
C4853 C4852 1.404 . S
C4853 H4865 0.930 . S
C4854 C4850 1.524 . S
C4854 H4866 0.956 . S
C4854 H4867 0.961 . S
C4854 H4868 0.961 . S
C4855 C4852 1.539 . S
C4855 H4869 0.958 . S
C4855 H4870 0.961 . S
C4855 H4871 0.960 . S
H4856 C4840 0.931 . S
H4857 C4845 0.929 . S
H4858 C4846 0.960 . S
H4859 C4846 0.962 . S
H4860 C4846 0.960 . S
H4861 C4847 0.961 . S
H4862 C4847 0.961 . S
H4863 C4847 0.961 . S
H4864 C4848 0.931 . S
H4865 C4853 0.930 . S
H4866 C4854 0.956 . S
H4867 C4854 0.961 . S
H4868 C4854 0.961 . S
H4869 C4855 0.958 . S
H4870 C4855 0.961 . S
H4871 C4855 0.960 . S
C4872 C4873 1.391 . S
C4872 C4874 1.394 . S
C4872 H4888 0.931 . S
C4873 C4872 1.391 . S
C4873 C4877 1.376 . S
C4874 C4872 1.394 . S
C4874 C4875 1.369 . S
C4874 C4878 1.531 . S
C4875 C4874 1.369 . S
C4875 C4876 1.410 . S
C4875 C4883 1.503 . S
C4876 C4875 1.410 . S
C4876 C4877 1.392 . S
C4876 C4879 1.511 . S
C4877 C4873 1.376 . S
C4877 C4876 1.392 . S
C4877 H4889 0.929 . S
C4878 C4874 1.531 . S
C4878 H4890 0.960 . S
C4878 H4891 0.962 . S
C4878 H4892 0.960 . S
C4879 C4876 1.511 . S
C4879 H4893 0.961 . S
C4879 H4894 0.961 . S
C4879 H4895 0.961 . S
C4880 C4881 1.370 . S
C4880 C4882 1.363 . S
C4880 H4896 0.931 . S
C4881 C4880 1.370 . S
C4881 C4885 1.408 . S
C4882 C4880 1.363 . S
C4882 C4883 1.370 . S
C4882 C4886 1.524 . S
C4883 C4875 1.503 . S
C4883 C4882 1.370 . S
C4883 C4884 1.403 . S
C4884 C4883 1.403 . S
C4884 C4885 1.404 . S
C4884 C4887 1.539 . S
C4885 C4881 1.408 . S
C4885 C4884 1.404 . S
C4885 H4897 0.930 . S
C4886 C4882 1.524 . S
C4886 H4898 0.956 . S
C4886 H4899 0.961 . S
C4886 H4900 0.961 . S
C4887 C4884 1.539 . S
C4887 H4901 0.958 . S
C4887 H4902 0.961 . S
C4887 H4903 0.960 . S
H4888 C4872 0.931 . S
H4889 C4877 0.929 . S
H4890 C4878 0.960 . S
H4891 C4878 0.962 . S
H4892 C4878 0.960 . S
H4893 C4879 0.961 . S
H4894 C4879 0.961 . S
H4895 C4879 0.961 . S
H4896 C4880 0.931 . S
H4897 C4885 0.930 . S
H4898 C4886 0.956 . S
H4899 C4886 0.961 . S
H4900 C4886 0.961 . S
H4901 C4887 0.958 . S
H4902 C4887 0.961 . S
H4903 C4887 0.960 . S
C1841 N1292 1.494 . S
C1833 C21 1.528 . S
C1873 C1319 1.534 . S
C1865 C42 1.513 . S
C1897 C82 1.536 . S
C1905 C1333 1.529 . S
C1937 N1351 1.442 . S
C1929 C135 1.475 . S
C1961 C175 1.500 . S
C1969 C1356 1.498 . S
C1993 C221 1.537 . S
C2001 C1296 1.535 . S
C2025 C255 1.399 . S
C2033 N1315 1.364 . S
C2065 N1328 1.515 . S
C2057 C301 1.530 . S
C2097 N1374 1.428 . S
C2089 C15 1.450 . S
C2121 C55 1.473 . S
C2129 N1397 1.440 . S
C2153 C101 1.605 . S
C2161 N1420 1.588 . S
C2193 N1453 1.414 . S
C2185 C141 1.465 . S
C2217 C162 1.483 . S
C2225 C1480 1.490 . S
C2257 C1503 1.573 . S
C2249 C215 1.573 . S
C2281 C261 1.459 . S
C2289 C1526 1.501 . S
C2321 C1540 1.457 . S
C2313 C282 1.456 . S
C2345 C2 1.464 . S
C2353 C1457 1.464 . S
C2377 C181 1.429 . S
C2385 N1499 1.410 . S
C2417 N1522 1.475 . S
C2409 C202 1.513 . S
C2441 C242 1.440 . S
C2449 N1535 1.446 . S
C2481 N1476 1.439 . S
C2473 C295 1.457 . S
C2513 C1402 1.689 . S
C2505 C95 1.682 . S
C2537 C122 1.507 . S
C2545 C1425 1.506 . S
C2577 C1379 1.535 . S
C2569 C61 1.502 . S
C2609 C1572 1.503 . S
C2601 C341 1.507 . S
C2633 C362 1.516 . S
C2641 C1586 1.540 . S
C2665 C402 1.528 . S
C2673 N1614 1.495 . S
C2705 N1627 1.417 . S
C2697 C455 1.456 . S
C2729 C495 1.514 . S
C2737 C1632 1.517 . S
C2761 C541 1.507 . S
C2769 N1568 1.482 . S
C2793 C575 1.493 . S
C2801 N1581 1.449 . S
C2825 C621 1.500 . S
C2833 C1618 1.494 . S
C2865 N1466 1.439 . S
C2857 C335 1.456 . S
C2889 C375 1.459 . S
C2897 N1650 1.438 . S
C2929 N1512 1.496 . S
C2921 C421 1.521 . S
C2953 C461 1.490 . S
C2961 C1687 1.508 . S
C2985 C482 1.521 . S
C2993 C1388 1.523 . S
C3025 C1701 1.614 . S
C3017 C535 1.604 . S
C3049 C581 1.542 . S
C3057 C1434 1.543 . S
C3089 N1719 1.428 . S
C3081 C602 1.411 . S
C3113 C322 1.478 . S
C3121 N1683 1.463 . S
C3153 N1696 1.429 . S
C3145 C501 1.463 . S
C3177 C522 1.502 . S
C3185 N1430 1.471 . S
C3217 C1724 1.449 . S
C3209 C562 1.419 . S
C3241 C615 1.443 . S
C3249 N1384 1.401 . S
C3273 C415 1.589 . S
C3281 C1655 1.587 . S
C3305 C442 1.534 . S
C3313 C1517 1.552 . S
C3337 C381 1.544 . S
C3345 C1471 1.546 . S
C3369 C661 1.562 . S
C3377 C1609 1.568 . S
C3409 C1641 1.482 . S
C3401 C682 1.476 . S
C3433 C722 1.494 . S
C3441 N1558 1.460 . S
C3465 C775 1.435 . S
C3473 N1591 1.419 . S
C3497 C815 1.515 . S
C3505 C1595 1.508 . S
C3529 C861 1.577 . S
C3537 N1604 1.554 . S
C3569 N1637 1.344 . S
C3561 C895 1.392 . S
C3593 C941 1.539 . S
C3601 C1563 1.560 . S
C3633 N1752 1.454 . S
C3625 C655 1.477 . S
C3657 C695 1.411 . S
C3665 N1489 1.390 . S
C3697 N1775 1.430 . S
C3689 C741 1.460 . S
C3721 C781 1.461 . S
C3729 N1545 1.441 . S
C3753 C802 1.501 . S
C3761 C1793 1.502 . S
C3785 C855 1.673 . S
C3793 C1411 1.666 . S
C3825 N1811 1.390 . S
C3817 C901 1.401 . S
C3849 C922 1.496 . S
C3857 C1448 1.512 . S
C3889 C1549 1.523 . S
C3881 C642 1.522 . S
C3921 N1407 1.440 . S
C3913 C821 1.466 . S
C3945 C842 1.604 . S
C3953 C1816 1.611 . S
C3977 C882 1.376 . S
C3985 N1443 1.365 . S
C4017 N1788 1.472 . S
C4009 C935 1.511 . S
C4049 C1494 1.588 . S
C4041 C735 1.591 . S
C4081 C1779 1.548 . S
C4073 C762 1.524 . S
C4113 C1756 1.499 . S
C4105 C701 1.479 . S
C4137 C981 1.438 . S
C4145 N1338 1.397 . S
C4169 C1002 1.462 . S
C4177 C1365 1.495 . S
C4209 C1287 1.569 . S
C4201 C1042 1.567 . S
C4241 N1305 1.374 . S
C4233 C1095 1.413 . S
C4273 C1310 1.525 . S
C4265 C1135 1.514 . S
C4305 C1342 1.526 . S
C4297 C1181 1.517 . S
C4337 N1361 1.460 . S
C4329 C1215 1.499 . S
C4361 C1261 1.526 . S
C4369 N1282 1.536 . S
C4393 C975 1.396 . S
C4401 N1798 1.363 . S
C4433 N1706 1.413 . S
C4425 C1015 1.431 . S
C4465 C1825 1.627 . S
C4457 C1061 1.612 . S
C4497 C1733 1.393 . S
C4489 C1101 1.356 . S
C4521 C1122 1.511 . S
C4529 C1747 1.530 . S
C4561 C1664 1.592 . S
C4553 C1175 1.598 . S
C4593 C1770 1.643 . S
C4585 C1221 1.607 . S
C4617 C1242 1.501 . S
C4625 N1673 1.454 . S
C4657 N1729 1.370 . S
C4649 C962 1.414 . S
C4689 N1660 1.411 . S
C4681 C1141 1.438 . S
C4721 N1765 1.421 . S
C4713 C1162 1.441 . S
C4745 C1202 1.491 . S
C4753 C1678 1.512 . S
C4777 C1255 1.454 . S
C4785 N1742 1.439 . S
C4809 C1055 1.679 . S
C4817 C1710 1.672 . S
C4841 C1082 1.396 . S
C4849 N1821 1.413 . S
C4881 C1802 1.482 . S
C4873 C1021 1.479 . S
