# Generated by pormake.
# Topology gar, (4,6)-cn, num edge types: 1
# Building blocks:
#     Node 0, Type 0, BuildingBlock: CEKHIL_clean_sbu_0, # of connection points: 4
#     Node 1, Type 0, BuildingBlock: CEKHIL_clean_sbu_0, # of connection points: 4
#     Node 2, Type 0, BuildingBlock: CEKHIL_clean_sbu_0, # of connection points: 4
#     Node 3, Type 0, BuildingBlock: CEKHIL_clean_sbu_0, # of connection points: 4
#     Node 4, Type 0, BuildingBlock: CEKHIL_clean_sbu_0, # of connection points: 4
#     Node 5, Type 0, BuildingBlock: CEKHIL_clean_sbu_0, # of connection points: 4
#     Node 6, Type 0, BuildingBlock: CEKHIL_clean_sbu_0, # of connection points: 4
#     Node 7, Type 0, BuildingBlock: CEKHIL_clean_sbu_0, # of connection points: 4
#     Node 8, Type 0, BuildingBlock: CEKHIL_clean_sbu_0, # of connection points: 4
#     Node 9, Type 0, BuildingBlock: CEKHIL_clean_sbu_0, # of connection points: 4
#     Node 10, Type 0, BuildingBlock: CEKHIL_clean_sbu_0, # of connection points: 4
#     Node 11, Type 0, BuildingBlock: CEKHIL_clean_sbu_0, # of connection points: 4
#     Node 12, Type 0, BuildingBlock: CEKHIL_clean_sbu_0, # of connection points: 4
#     Node 13, Type 0, BuildingBlock: CEKHIL_clean_sbu_0, # of connection points: 4
#     Node 14, Type 0, BuildingBlock: CEKHIL_clean_sbu_0, # of connection points: 4
#     Node 15, Type 0, BuildingBlock: CEKHIL_clean_sbu_0, # of connection points: 4
#     Node 16, Type 0, BuildingBlock: CEKHIL_clean_sbu_0, # of connection points: 4
#     Node 17, Type 0, BuildingBlock: CEKHIL_clean_sbu_0, # of connection points: 4
#     Node 18, Type 0, BuildingBlock: CEKHIL_clean_sbu_0, # of connection points: 4
#     Node 19, Type 0, BuildingBlock: CEKHIL_clean_sbu_0, # of connection points: 4
#     Node 20, Type 0, BuildingBlock: CEKHIL_clean_sbu_0, # of connection points: 4
#     Node 21, Type 0, BuildingBlock: CEKHIL_clean_sbu_0, # of connection points: 4
#     Node 22, Type 0, BuildingBlock: CEKHIL_clean_sbu_0, # of connection points: 4
#     Node 23, Type 0, BuildingBlock: CEKHIL_clean_sbu_0, # of connection points: 4
#     Node 24, Type 1, BuildingBlock: PAMTUU_clean_sbu_0, # of connection points: 6
#     Node 25, Type 1, BuildingBlock: PAMTUU_clean_sbu_0, # of connection points: 6
#     Node 26, Type 1, BuildingBlock: PAMTUU_clean_sbu_0, # of connection points: 6
#     Node 27, Type 1, BuildingBlock: PAMTUU_clean_sbu_0, # of connection points: 6
#     Node 28, Type 1, BuildingBlock: PAMTUU_clean_sbu_0, # of connection points: 6
#     Node 29, Type 1, BuildingBlock: PAMTUU_clean_sbu_0, # of connection points: 6
#     Node 30, Type 1, BuildingBlock: PAMTUU_clean_sbu_0, # of connection points: 6
#     Node 31, Type 1, BuildingBlock: PAMTUU_clean_sbu_0, # of connection points: 6
#     Node 32, Type 1, BuildingBlock: PAMTUU_clean_sbu_0, # of connection points: 6
#     Node 33, Type 1, BuildingBlock: PAMTUU_clean_sbu_0, # of connection points: 6
#     Node 34, Type 1, BuildingBlock: PAMTUU_clean_sbu_0, # of connection points: 6
#     Node 35, Type 1, BuildingBlock: PAMTUU_clean_sbu_0, # of connection points: 6
#     Node 36, Type 1, BuildingBlock: PAMTUU_clean_sbu_0, # of connection points: 6
#     Node 37, Type 1, BuildingBlock: PAMTUU_clean_sbu_0, # of connection points: 6
#     Node 38, Type 1, BuildingBlock: PAMTUU_clean_sbu_0, # of connection points: 6
#     Node 39, Type 1, BuildingBlock: PAMTUU_clean_sbu_0, # of connection points: 6
#     Edge 40, Type (0, 1), BuildingBlock: CIFDUS_clean_linker_0, # of connection points: 2
#     Edge 41, Type (0, 1), BuildingBlock: CIFDUS_clean_linker_0, # of connection points: 2
#     Edge 42, Type (0, 1), BuildingBlock: CIFDUS_clean_linker_0, # of connection points: 2
#     Edge 43, Type (0, 1), BuildingBlock: CIFDUS_clean_linker_0, # of connection points: 2
#     Edge 44, Type (0, 1), BuildingBlock: CIFDUS_clean_linker_0, # of connection points: 2
#     Edge 45, Type (0, 1), BuildingBlock: CIFDUS_clean_linker_0, # of connection points: 2
#     Edge 46, Type (0, 1), BuildingBlock: CIFDUS_clean_linker_0, # of connection points: 2
#     Edge 47, Type (0, 1), BuildingBlock: CIFDUS_clean_linker_0, # of connection points: 2
#     Edge 48, Type (0, 1), BuildingBlock: CIFDUS_clean_linker_0, # of connection points: 2
#     Edge 49, Type (0, 1), BuildingBlock: CIFDUS_clean_linker_0, # of connection points: 2
#     Edge 50, Type (0, 1), BuildingBlock: CIFDUS_clean_linker_0, # of connection points: 2
#     Edge 51, Type (0, 1), BuildingBlock: CIFDUS_clean_linker_0, # of connection points: 2
#     Edge 52, Type (0, 1), BuildingBlock: CIFDUS_clean_linker_0, # of connection points: 2
#     Edge 53, Type (0, 1), BuildingBlock: CIFDUS_clean_linker_0, # of connection points: 2
#     Edge 54, Type (0, 1), BuildingBlock: CIFDUS_clean_linker_0, # of connection points: 2
#     Edge 55, Type (0, 1), BuildingBlock: CIFDUS_clean_linker_0, # of connection points: 2
#     Edge 56, Type (0, 1), BuildingBlock: CIFDUS_clean_linker_0, # of connection points: 2
#     Edge 57, Type (0, 1), BuildingBlock: CIFDUS_clean_linker_0, # of connection points: 2
#     Edge 58, Type (0, 1), BuildingBlock: CIFDUS_clean_linker_0, # of connection points: 2
#     Edge 59, Type (0, 1), BuildingBlock: CIFDUS_clean_linker_0, # of connection points: 2
#     Edge 60, Type (0, 1), BuildingBlock: CIFDUS_clean_linker_0, # of connection points: 2
#     Edge 61, Type (0, 1), BuildingBlock: CIFDUS_clean_linker_0, # of connection points: 2
#     Edge 62, Type (0, 1), BuildingBlock: CIFDUS_clean_linker_0, # of connection points: 2
#     Edge 63, Type (0, 1), BuildingBlock: CIFDUS_clean_linker_0, # of connection points: 2
#     Edge 64, Type (0, 1), BuildingBlock: CIFDUS_clean_linker_0, # of connection points: 2
#     Edge 65, Type (0, 1), BuildingBlock: CIFDUS_clean_linker_0, # of connection points: 2
#     Edge 66, Type (0, 1), BuildingBlock: CIFDUS_clean_linker_0, # of connection points: 2
#     Edge 67, Type (0, 1), BuildingBlock: CIFDUS_clean_linker_0, # of connection points: 2
#     Edge 68, Type (0, 1), BuildingBlock: CIFDUS_clean_linker_0, # of connection points: 2
#     Edge 69, Type (0, 1), BuildingBlock: CIFDUS_clean_linker_0, # of connection points: 2
#     Edge 70, Type (0, 1), BuildingBlock: CIFDUS_clean_linker_0, # of connection points: 2
#     Edge 71, Type (0, 1), BuildingBlock: CIFDUS_clean_linker_0, # of connection points: 2
#     Edge 72, Type (0, 1), BuildingBlock: CIFDUS_clean_linker_0, # of connection points: 2
#     Edge 73, Type (0, 1), BuildingBlock: CIFDUS_clean_linker_0, # of connection points: 2
#     Edge 74, Type (0, 1), BuildingBlock: CIFDUS_clean_linker_0, # of connection points: 2
#     Edge 75, Type (0, 1), BuildingBlock: CIFDUS_clean_linker_0, # of connection points: 2
#     Edge 76, Type (0, 1), BuildingBlock: CIFDUS_clean_linker_0, # of connection points: 2
#     Edge 77, Type (0, 1), BuildingBlock: CIFDUS_clean_linker_0, # of connection points: 2
#     Edge 78, Type (0, 1), BuildingBlock: CIFDUS_clean_linker_0, # of connection points: 2
#     Edge 79, Type (0, 1), BuildingBlock: CIFDUS_clean_linker_0, # of connection points: 2
#     Edge 80, Type (0, 1), BuildingBlock: CIFDUS_clean_linker_0, # of connection points: 2
#     Edge 81, Type (0, 1), BuildingBlock: CIFDUS_clean_linker_0, # of connection points: 2
#     Edge 82, Type (0, 1), BuildingBlock: CIFDUS_clean_linker_0, # of connection points: 2
#     Edge 83, Type (0, 1), BuildingBlock: CIFDUS_clean_linker_0, # of connection points: 2
#     Edge 84, Type (0, 1), BuildingBlock: CIFDUS_clean_linker_0, # of connection points: 2
#     Edge 85, Type (0, 1), BuildingBlock: CIFDUS_clean_linker_0, # of connection points: 2
#     Edge 86, Type (0, 1), BuildingBlock: CIFDUS_clean_linker_0, # of connection points: 2
#     Edge 87, Type (0, 1), BuildingBlock: CIFDUS_clean_linker_0, # of connection points: 2
#     Edge 88, Type (0, 1), BuildingBlock: CIFDUS_clean_linker_0, # of connection points: 2
#     Edge 89, Type (0, 1), BuildingBlock: CIFDUS_clean_linker_0, # of connection points: 2
#     Edge 90, Type (0, 1), BuildingBlock: CIFDUS_clean_linker_0, # of connection points: 2
#     Edge 91, Type (0, 1), BuildingBlock: CIFDUS_clean_linker_0, # of connection points: 2
#     Edge 92, Type (0, 1), BuildingBlock: CIFDUS_clean_linker_0, # of connection points: 2
#     Edge 93, Type (0, 1), BuildingBlock: CIFDUS_clean_linker_0, # of connection points: 2
#     Edge 94, Type (0, 1), BuildingBlock: CIFDUS_clean_linker_0, # of connection points: 2
#     Edge 95, Type (0, 1), BuildingBlock: CIFDUS_clean_linker_0, # of connection points: 2
#     Edge 96, Type (0, 1), BuildingBlock: CIFDUS_clean_linker_0, # of connection points: 2
#     Edge 97, Type (0, 1), BuildingBlock: CIFDUS_clean_linker_0, # of connection points: 2
#     Edge 98, Type (0, 1), BuildingBlock: CIFDUS_clean_linker_0, # of connection points: 2
#     Edge 99, Type (0, 1), BuildingBlock: CIFDUS_clean_linker_0, # of connection points: 2
#     Edge 100, Type (0, 1), BuildingBlock: CIFDUS_clean_linker_0, # of connection points: 2
#     Edge 101, Type (0, 1), BuildingBlock: CIFDUS_clean_linker_0, # of connection points: 2
#     Edge 102, Type (0, 1), BuildingBlock: CIFDUS_clean_linker_0, # of connection points: 2
#     Edge 103, Type (0, 1), BuildingBlock: CIFDUS_clean_linker_0, # of connection points: 2
#     Edge 104, Type (0, 1), BuildingBlock: CIFDUS_clean_linker_0, # of connection points: 2
#     Edge 105, Type (0, 1), BuildingBlock: CIFDUS_clean_linker_0, # of connection points: 2
#     Edge 106, Type (0, 1), BuildingBlock: CIFDUS_clean_linker_0, # of connection points: 2
#     Edge 107, Type (0, 1), BuildingBlock: CIFDUS_clean_linker_0, # of connection points: 2
#     Edge 108, Type (0, 1), BuildingBlock: CIFDUS_clean_linker_0, # of connection points: 2
#     Edge 109, Type (0, 1), BuildingBlock: CIFDUS_clean_linker_0, # of connection points: 2
#     Edge 110, Type (0, 1), BuildingBlock: CIFDUS_clean_linker_0, # of connection points: 2
#     Edge 111, Type (0, 1), BuildingBlock: CIFDUS_clean_linker_0, # of connection points: 2
#     Edge 112, Type (0, 1), BuildingBlock: CIFDUS_clean_linker_0, # of connection points: 2
#     Edge 113, Type (0, 1), BuildingBlock: CIFDUS_clean_linker_0, # of connection points: 2
#     Edge 114, Type (0, 1), BuildingBlock: CIFDUS_clean_linker_0, # of connection points: 2
#     Edge 115, Type (0, 1), BuildingBlock: CIFDUS_clean_linker_0, # of connection points: 2
#     Edge 116, Type (0, 1), BuildingBlock: CIFDUS_clean_linker_0, # of connection points: 2
#     Edge 117, Type (0, 1), BuildingBlock: CIFDUS_clean_linker_0, # of connection points: 2
#     Edge 118, Type (0, 1), BuildingBlock: CIFDUS_clean_linker_0, # of connection points: 2
#     Edge 119, Type (0, 1), BuildingBlock: CIFDUS_clean_linker_0, # of connection points: 2
#     Edge 120, Type (0, 1), BuildingBlock: CIFDUS_clean_linker_0, # of connection points: 2
#     Edge 121, Type (0, 1), BuildingBlock: CIFDUS_clean_linker_0, # of connection points: 2
#     Edge 122, Type (0, 1), BuildingBlock: CIFDUS_clean_linker_0, # of connection points: 2
#     Edge 123, Type (0, 1), BuildingBlock: CIFDUS_clean_linker_0, # of connection points: 2
#     Edge 124, Type (0, 1), BuildingBlock: CIFDUS_clean_linker_0, # of connection points: 2
#     Edge 125, Type (0, 1), BuildingBlock: CIFDUS_clean_linker_0, # of connection points: 2
#     Edge 126, Type (0, 1), BuildingBlock: CIFDUS_clean_linker_0, # of connection points: 2
#     Edge 127, Type (0, 1), BuildingBlock: CIFDUS_clean_linker_0, # of connection points: 2
#     Edge 128, Type (0, 1), BuildingBlock: CIFDUS_clean_linker_0, # of connection points: 2
#     Edge 129, Type (0, 1), BuildingBlock: CIFDUS_clean_linker_0, # of connection points: 2
#     Edge 130, Type (0, 1), BuildingBlock: CIFDUS_clean_linker_0, # of connection points: 2
#     Edge 131, Type (0, 1), BuildingBlock: CIFDUS_clean_linker_0, # of connection points: 2
#     Edge 132, Type (0, 1), BuildingBlock: CIFDUS_clean_linker_0, # of connection points: 2
#     Edge 133, Type (0, 1), BuildingBlock: CIFDUS_clean_linker_0, # of connection points: 2
#     Edge 134, Type (0, 1), BuildingBlock: CIFDUS_clean_linker_0, # of connection points: 2
#     Edge 135, Type (0, 1), BuildingBlock: CIFDUS_clean_linker_0, # of connection points: 2
# Relax obj value: 0.196
# Max RMSD: 0.350
# Mean RMSD: 0.165
data_MOF--net-gar--node1-CEKHIL_clean_sbu_0--node2-PAMTUU_clean_sbu_0--edge1-CIFDUS_clean_linker_0
_symmetry_space_group_name_H-M    P1
_symmetry_Int_Tables_number       1
_symmetry_cell_setting            triclinic
loop_
_symmetry_equiv_pos_as_xyz
'x, y, z'
_cell_length_a     52.578327
_cell_length_b     48.349349
_cell_length_c     51.303239
_cell_angle_alpha  93.26039
_cell_angle_beta   94.407108
_cell_angle_gamma 106.57833
loop_
_atom_site_label
_atom_site_type_symbol
_atom_site_fract_x
_atom_site_fract_y
_atom_site_fract_z
_atom_type_partial_charge
Co0 Co 0.09448 0.31246 0.40873 0.0
O1 O 0.1355 0.31892 0.41169 0.0
O2 O 0.1113 0.30198 0.37613 0.0
C3 C 0.0936 0.3582 0.43046 0.0
O4 O 0.05306 0.30651 0.39204 0.0
Co5 Co 0.05629 0.30691 0.44984 0.0
O6 O 1.02671 0.30922 0.42381 0.0
C7 C 0.07852 0.25752 0.44381 0.0
C8 C 0.13561 0.30981 0.38728 0.0
C9 C 1.02966 0.30779 0.39943 0.0
O10 O 0.08828 0.2695 0.42267 0.0
O11 O 0.06611 0.27061 0.45834 0.0
O12 O 0.10001 0.35543 0.40659 0.0
O13 O 0.08998 0.33398 0.44141 0.0
Co14 Co 0.06797 0.82076 0.68664 0.0
O15 O 1.02737 0.81721 0.68278 0.0
O16 O 0.04652 0.81027 0.71848 0.0
C17 C 0.07949 0.868 0.66735 0.0
O18 O 0.10856 0.82279 0.70419 0.0
Co19 Co 0.10767 0.82762 0.64878 0.0
O20 O 0.13879 0.8325 0.67526 0.0
C21 C 0.07313 0.76724 0.64989 0.0
C22 C 1.02419 0.81222 0.70715 0.0
C23 C 0.13367 0.8273 0.69857 0.0
O24 O 0.06249 0.77684 0.66994 0.0
O25 O 0.0904 0.78519 0.63812 0.0
O26 O 0.07508 0.86453 0.69172 0.0
O27 O 0.07782 0.84328 0.655 0.0
Co28 Co 0.59424 0.81169 0.90894 0.0
O29 O 0.63537 0.81908 0.91198 0.0
O30 O 0.61123 0.80016 0.87685 0.0
C31 C 0.59347 0.85822 0.9288 0.0
O32 O 0.55252 0.80467 0.892 0.0
Co33 Co 0.55592 0.80869 0.94961 0.0
O34 O 0.52639 0.81003 0.92324 0.0
C35 C 0.57938 0.75971 0.94728 0.0
C36 C 0.6356 0.80918 0.88786 0.0
C37 C 0.5292 0.80687 0.89895 0.0
O38 O 0.58891 0.76973 0.92531 0.0
O39 O 0.5668 0.77387 0.96051 0.0
O40 O 0.5994 0.85431 0.90492 0.0
O41 O 0.58986 0.83463 0.94068 0.0
Co42 Co 0.56921 0.32045 0.18782 0.0
O43 O 0.52835 0.31584 0.18408 0.0
O44 O 0.54817 0.31093 0.22012 0.0
C45 C 0.58003 0.36609 0.16581 0.0
O46 O 0.61017 0.32385 0.20528 0.0
Co47 Co 0.60967 0.32707 0.14912 0.0
O48 O 0.64046 0.33334 0.17624 0.0
C49 C 0.57515 0.26664 0.15166 0.0
C50 C 0.52549 0.31177 0.2087 0.0
C51 C 0.63534 0.32866 0.19966 0.0
O52 O 0.56459 0.27619 0.17191 0.0
O53 O 0.59203 0.28462 0.13952 0.0
O54 O 0.57547 0.36476 0.19035 0.0
O55 O 0.57885 0.34062 0.1556 0.0
Co56 Co 0.13222 0.84281 0.15946 0.0
O57 O 0.09346 0.83196 0.15552 0.0
O58 O 0.11811 0.82498 0.18996 0.0
C59 C 0.13734 0.88833 0.14553 0.0
O60 O 0.17147 0.85171 0.1738 0.0
Co61 Co 0.16875 0.85683 0.11741 0.0
O62 O 0.19995 0.8677 0.14429 0.0
C63 C 0.14146 0.79526 0.12222 0.0
C64 C 0.09456 0.82269 0.17877 0.0
C65 C 0.19545 0.86158 0.16757 0.0
O66 O 0.1315 0.80322 0.14256 0.0
O67 O 0.15614 0.81362 0.10856 0.0
O68 O 0.13348 0.88274 0.16961 0.0
O69 O 0.13761 0.86626 0.12994 0.0
Co70 Co 0.55099 0.80465 0.45811 0.0
O71 O 0.58953 0.81191 0.46226 0.0
O72 O 0.56337 0.79423 0.42577 0.0
C73 C 0.55069 0.84793 0.47822 0.0
O74 O 0.51199 0.79634 0.44321 0.0
Co75 Co 0.51403 0.79981 0.50111 0.0
O76 O 0.48751 0.80623 0.4741 0.0
C77 C 0.53626 0.75122 0.4899 0.0
C78 C 0.58731 0.80289 0.43755 0.0
C79 C 0.49056 0.80129 0.4501 0.0
O80 O 0.5461 0.76379 0.46983 0.0
O81 O 0.52353 0.76265 0.50554 0.0
O82 O 0.55578 0.84568 0.45394 0.0
O83 O 0.54735 0.82443 0.49025 0.0
Co84 Co 0.63006 0.34091 0.65602 0.0
O85 O 0.59117 0.32878 0.64968 0.0
O86 O 0.6144 0.32508 0.68639 0.0
C87 C 0.63505 0.38451 0.63817 0.0
O88 O 0.66816 0.35099 0.67355 0.0
Co89 Co 0.67179 0.35433 0.61869 0.0
O90 O 0.70092 0.36404 0.64788 0.0
C91 C 0.64306 0.2929 0.62327 0.0
C92 C 0.59129 0.32113 0.67363 0.0
C93 C 0.69314 0.3592 0.67044 0.0
O94 O 0.63124 0.30097 0.64215 0.0
O95 O 0.65904 0.31109 0.61049 0.0
O96 O 0.62965 0.38117 0.66232 0.0
O97 O 0.63786 0.36176 0.62541 0.0
Co98 Co 0.05119 0.30685 0.96152 0.0
O99 O 0.08993 0.31627 0.96361 0.0
O100 O 0.06211 0.29284 0.92975 0.0
C101 C 0.05041 0.35191 0.977 0.0
O102 O 1.01138 0.29506 0.94849 0.0
Co103 Co 1.01676 0.3058 1.0052 0.0
O104 O 0.98867 0.30976 0.97852 0.0
C105 C 1.04006 0.25741 0.99824 0.0
C106 C 0.08654 0.30405 0.93981 0.0
C107 C 0.99042 0.30143 0.95496 0.0
O108 O 0.04923 0.26843 0.97734 0.0
O109 O 1.02689 0.26949 1.01282 0.0
O110 O 0.05351 0.34592 0.95267 0.0
O111 O 0.04882 0.33082 0.99206 0.0
Co112 Co 0.46637 0.09558 0.35783 0.0
O113 O 0.46109 0.12794 0.33962 0.0
O114 O 0.43111 0.08516 0.34121 0.0
C115 C 0.48662 0.11959 0.39604 0.0
O116 O 0.46174 0.05753 0.37352 0.0
Co117 Co 0.51957 0.08565 0.37846 0.0
O118 O 0.49841 0.04877 0.3914 0.0
C119 C 0.50269 0.07857 0.32156 0.0
C120 C 0.43706 0.1108 0.33296 0.0
C121 C 0.47328 0.04136 0.38564 0.0
O122 O 0.47959 0.08087 0.32583 0.0
O123 O 0.52177 0.0821 0.33966 0.0
O124 O 0.46081 0.113 0.3913 0.0
O125 O 0.49927 0.11373 0.37689 0.0
Co126 Co 0.32623 0.22792 0.53928 0.0
O127 O 0.36404 0.23043 0.54093 0.0
O128 O 0.33213 0.19369 0.55244 0.0
C129 C 0.32313 0.24289 0.4972 0.0
O130 O 0.28588 0.21315 0.53956 0.0
Co131 Co 0.30205 0.27539 0.53739 0.0
O132 O 0.26585 0.24741 0.53434 0.0
C133 C 0.32337 0.26587 0.58938 0.0
C134 C 0.35717 0.20494 0.5499 0.0
C135 C 0.26466 0.22119 0.53727 0.0
O136 O 0.33069 0.24562 0.5774 0.0
O137 O 0.31162 0.28149 0.57672 0.0
O138 O 0.32204 0.21651 0.50182 0.0
O139 O 0.32752 0.26089 0.51817 0.0
Co140 Co 0.22039 0.06829 0.86464 0.0
O141 O 0.22433 0.03162 0.85188 0.0
O142 O 0.25235 0.07487 0.84755 0.0
C143 C 0.20882 0.05576 0.90437 0.0
O144 O 0.22443 0.1102 0.87446 0.0
Co145 Co 0.16839 0.07882 0.88156 0.0
O146 O 0.18831 0.12086 0.887 0.0
C147 C 0.17403 0.06548 0.82596 0.0
C148 C 0.24603 0.04697 0.84293 0.0
C149 C 0.21254 0.12856 0.88191 0.0
O150 O 0.19932 0.07028 0.83091 0.0
O151 O 0.15805 0.06414 0.84376 0.0
O152 O 0.23393 0.06358 0.90029 0.0
O153 O 0.19204 0.05441 0.88436 0.0
Co154 Co 0.33491 0.96557 1.00666 0.0
O155 O 0.30368 0.97171 0.02014 0.0
O156 O 0.34415 1.00344 0.0249 0.0
C157 C 0.31693 0.94741 0.96595 0.0
O158 O 0.37137 0.96785 0.99543 0.0
Co159 Co 0.33826 0.90437 0.98875 0.0
O160 O 0.37312 0.92542 0.97667 0.0
C161 C 0.34113 0.92187 0.04517 0.0
C162 C 0.31925 0.99697 0.0294 0.0
C163 C 0.38362 0.95233 0.98334 0.0
O164 O 0.343 0.94807 0.03995 0.0
O165 O 0.3367 0.90087 0.02744 0.0
O166 O 0.32449 0.97526 0.97175 0.0
O167 O 0.31775 0.93177 0.98539 0.0
Co168 Co 0.33757 0.39868 0.04691 0.0
O169 O 0.2994 0.3928 0.04414 0.0
O170 O 0.32966 0.43346 0.05967 0.0
C171 C 0.33901 0.38041 1.00459 0.0
O172 O 0.37819 0.41504 0.05105 0.0
Co173 Co 0.36192 0.35068 0.04631 0.0
O174 O 0.39464 0.37967 0.03735 0.0
C175 C 0.34117 0.36352 0.0954 0.0
C176 C 0.30468 0.41963 0.05333 0.0
C177 C 0.39751 0.40635 0.04331 0.0
O178 O 0.33661 0.38512 0.08423 0.0
O179 O 0.35013 0.3452 0.08287 0.0
O180 O 0.33849 0.40661 1.01041 0.0
O181 O 0.33624 0.36417 0.02431 0.0
Co182 Co 0.83003 0.17463 0.07869 0.0
O183 O 0.86531 0.17412 0.07197 0.0
O184 O 0.83468 0.13781 0.0863 0.0
C185 C 0.82007 0.19342 0.0416 0.0
O186 O 0.79157 0.16638 0.08632 0.0
Co187 Co 0.81501 0.23229 0.08499 0.0
O188 O 0.7782 0.20662 0.08618 0.0
C189 C 0.84854 0.21676 0.12668 0.0
C190 C 0.85834 0.14765 0.07862 0.0
C191 C 0.77352 0.17943 0.08769 0.0
O192 O 0.84263 0.19071 0.11605 0.0
O193 O 0.84253 0.23731 0.11542 0.0
O194 O 0.8182 0.16602 0.04128 0.0
O195 O 0.83058 0.20876 0.06322 0.0
Co196 Co 0.23438 0.5672 0.27577 0.0
O197 O 0.24041 0.53198 0.26232 0.0
O198 O 0.25905 0.57555 0.24937 0.0
C199 C 0.23942 0.55958 0.31834 0.0
O200 O 0.23464 0.60849 0.2855 0.0
Co201 Co 0.18804 0.56868 0.30951 0.0
O202 O 0.20844 0.61008 0.31774 0.0
C203 C 0.17739 0.55588 0.25198 0.0
C204 C 0.25726 0.54813 0.24819 0.0
C205 C 0.22612 0.62254 0.30317 0.0
O206 O 0.20249 0.56105 0.24939 0.0
O207 O 0.16784 0.55597 0.27419 0.0
O208 O 0.26029 0.57027 0.30608 0.0
O209 O 0.21681 0.552 0.30422 0.0
Co210 Co 0.83757 0.89603 0.54398 0.0
O211 O 0.79945 0.89056 0.54203 0.0
O212 O 0.83049 0.93165 0.55498 0.0
C213 C 0.83829 0.87436 0.503 0.0
O214 O 0.87804 0.91212 0.54672 0.0
Co215 Co 0.86236 0.84725 0.54564 0.0
O216 O 0.89472 0.87606 0.53539 0.0
C217 C 0.84167 0.86338 0.59401 0.0
C218 C 0.80535 0.91794 0.54976 0.0
C219 C 0.89733 0.90298 0.53962 0.0
O220 O 0.83784 0.88499 0.5822 0.0
O221 O 0.84976 0.84394 0.58208 0.0
O222 O 0.83714 0.90072 0.50644 0.0
O223 O 0.83626 0.86042 0.52415 0.0
Co224 Co 0.95289 0.07564 0.26213 0.0
O225 O 0.94676 0.1128 0.2599 0.0
O226 O 0.91755 0.07043 0.24591 0.0
C227 C 0.97063 0.08278 0.30392 0.0
O228 O 0.95081 0.03325 0.26204 0.0
Co229 Co 1.00887 0.06708 0.27402 0.0
O230 O 0.98896 0.02628 0.27879 0.0
C231 C 0.99273 0.08477 0.22252 0.0
C232 C 0.92294 0.09838 0.24963 0.0
C233 C 0.96434 1.01671 0.27046 0.0
O234 O 0.96821 0.07857 0.22739 0.0
O235 O 1.01183 0.08451 0.23948 0.0
O236 O 0.94489 0.07502 0.29864 0.0
O237 O 0.98452 0.08823 0.28421 0.0
Co238 Co 0.33784 0.66358 0.58411 0.0
O239 O 0.37494 0.66516 0.58501 0.0
O240 O 0.34125 0.62523 0.58578 0.0
C241 C 0.3374 0.69239 0.55137 0.0
O242 O 0.29757 0.65237 0.58201 0.0
Co243 Co 0.31803 0.71772 0.59455 0.0
O244 O 0.28168 0.69084 0.58525 0.0
C245 C 0.34523 0.69494 0.63702 0.0
C246 C 0.36668 0.63714 0.58535 0.0
C247 C 0.27826 0.66369 0.58161 0.0
O248 O 0.34124 0.67052 0.62358 0.0
O249 O 0.34063 0.71713 0.62752 0.0
O250 O 0.33544 0.6652 0.54598 0.0
O251 O 0.34166 0.70147 0.57582 0.0
Co252 Co 0.46477 0.56354 0.75776 0.0
O253 O 0.46628 0.6009 0.77343 0.0
O254 O 0.4327 0.5727 0.74637 0.0
C255 C 0.47793 0.54664 0.79456 0.0
O256 O 0.45524 0.5233 0.73926 0.0
Co257 Co 0.51489 0.54165 0.75681 0.0
O258 O 0.48694 0.50357 0.75332 0.0
C259 C 0.50838 0.58747 0.72367 0.0
C260 C 0.44241 0.59625 0.76183 0.0
C261 C 0.46308 0.50116 0.74419 0.0
O262 O 0.48354 0.58159 0.72743 0.0
O263 O 0.52459 0.57604 0.73567 0.0
O264 O 0.45319 0.54627 0.78987 0.0
O265 O 0.49399 0.55928 0.77817 0.0
Co266 Co 0.74051 0.05983 0.76822 0.0
O267 O 0.75154 0.0266 0.75741 0.0
O268 O 0.77111 0.0718 0.74881 0.0
C269 C 0.73545 0.04971 0.81007 0.0
O270 O 0.73681 0.09979 0.77652 0.0
Co271 Co 0.68617 0.05745 0.78899 0.0
O272 O 0.7037 0.09871 0.80183 0.0
C273 C 0.68956 0.04581 0.7321 0.0
C274 C 0.77075 0.0448 0.74723 0.0
C275 C 0.72434 0.11249 0.79145 0.0
O276 O 0.71524 0.05354 0.7355 0.0
O277 O 0.67481 0.044 0.75104 0.0
O278 O 0.759 0.06232 0.80321 0.0
O279 O 0.71637 0.04192 0.79139 0.0
Co280 Co 0.82844 0.72942 0.03818 0.0
O281 O 0.8667 0.73479 0.04267 0.0
O282 O 0.83597 0.69688 0.05381 0.0
C283 C 0.82691 0.7414 0.99479 0.0
O284 O 0.78795 0.71311 0.03615 0.0
Co285 Co 0.80258 0.77602 0.02897 0.0
O286 O 0.7676 0.74578 0.02455 0.0
C287 C 0.82223 0.77148 0.08369 0.0
C288 C 0.861 0.70952 0.05205 0.0
C289 C 0.76664 0.72031 0.03036 0.0
O290 O 0.82942 0.74939 0.07517 0.0
O291 O 0.81236 0.78615 0.06789 0.0
O292 O 0.8271 0.7159 1.00117 0.0
O293 O 0.82947 0.76015 0.0148 0.0
Co294 Co 0.961 0.59715 0.86092 0.0
O295 O 0.95415 0.63309 0.85327 0.0
O296 O 0.92638 0.58901 0.84282 0.0
C297 C 0.97729 0.61063 0.90277 0.0
O298 O 0.9585 0.55561 0.86612 0.0
Co299 Co 1.01531 0.58793 0.87902 0.0
O300 O 0.99547 0.54702 0.88367 0.0
C301 C 1.00167 0.59524 0.82307 0.0
C302 C 0.93062 0.61681 0.84366 0.0
C303 C 0.97088 0.53841 0.87517 0.0
O304 O 0.97769 0.59468 0.82722 0.0
O305 O 1.01968 0.59536 0.8414 0.0
O306 O 0.95166 0.60225 0.89649 0.0
O307 O 0.99201 0.61231 0.8836 0.0
Co308 Co 0.81821 0.44649 0.51841 0.0
O309 O 0.7825 0.4413 0.52849 0.0
O310 O 0.81748 0.4794 0.54044 0.0
C311 C 0.80658 0.43185 0.47564 0.0
O312 O 0.85698 0.4618 0.51219 0.0
Co313 Co 0.84045 0.39901 0.49452 0.0
O314 O 0.87203 0.43114 0.48785 0.0
C315 C 0.83358 0.40272 0.55137 0.0
C316 C 0.79231 0.46665 0.54134 0.0
C317 C 0.87519 0.45598 0.4996 0.0
O318 O 0.82747 0.4266 0.54973 0.0
O319 O 0.83754 0.38783 0.53145 0.0
O320 O 0.8081 0.45824 0.48406 0.0
O321 O 0.8106 0.41518 0.49323 0.0
Co322 Co 0.71335 0.56842 0.36303 0.0
O323 O 0.70905 0.52906 0.34968 0.0
O324 O 0.74148 0.56766 0.34183 0.0
C325 C 0.7054 0.55828 0.40418 0.0
O326 O 0.72614 0.61139 0.37304 0.0
Co327 Co 0.67029 0.59113 0.38715 0.0
O328 O 0.69729 0.62976 0.39275 0.0
C329 C 0.66655 0.57672 0.3299 0.0
C330 C 0.73063 0.53987 0.33835 0.0
C331 C 0.71985 0.63257 0.38413 0.0
O332 O 0.69025 0.57392 0.33174 0.0
O333 O 0.65451 0.58098 0.34983 0.0
O334 O 0.72918 0.56136 0.39696 0.0
O335 O 0.68746 0.56041 0.38648 0.0
Tb336 Tb 0.12515 0.09164 0.07624 0.0
Tb337 Tb 0.06808 0.0529 0.04618 0.0
C338 C 0.07228 0.08784 0.10029 0.0
C339 C 0.19219 0.1048 0.10582 0.0
C340 C 0.2332 0.07797 0.1053 0.0
C341 C 0.23916 0.10835 0.10572 0.0
C342 C 0.21873 0.12165 0.10579 0.0
C343 C 0.18649 0.07481 0.10736 0.0
C344 C 0.2067 0.06154 0.10707 0.0
C345 C 0.17013 0.11716 0.09999 0.0
O346 O 0.11575 0.0486 0.09182 0.0
O347 O 0.08918 1.0216 0.05662 0.0
O348 O 0.09654 0.05831 0.0172 0.0
O349 O 0.13501 0.06644 0.0445 0.0
O350 O 1.03368 1.01774 0.04622 0.0
O351 O 1.0394 0.04454 1.01368 0.0
O352 O 0.06758 0.09789 0.04439 0.0
O353 O 0.11271 0.12017 0.04907 0.0
O354 O 0.09536 0.10514 0.09587 0.0
O355 O 0.06158 0.06303 0.08641 0.0
C356 C 0.10489 1.02342 0.07826 0.0
O357 O 0.16417 0.1186 0.07504 0.0
O358 O 0.14886 0.10648 0.11192 0.0
C359 C 0.1217 0.05918 0.02132 0.0
C360 C 0.99696 0.03209 0.02861 0.0
C361 C 0.95726 0.05939 0.03646 0.0
C362 C 0.9642 0.05449 1.01106 0.0
C363 C 0.98384 0.04084 1.00716 0.0
C364 C 0.98844 0.03487 0.05371 0.0
C365 C 0.96874 0.04839 0.05758 0.0
C366 C 1.02229 1.02546 0.02549 0.0
C367 C 0.08807 0.1205 0.04205 0.0
H368 H 0.25941 0.1217 0.10478 0.0
H369 H 0.22348 0.14482 0.10447 0.0
H370 H 0.16616 0.06127 0.10716 0.0
H371 H 0.20108 0.03813 0.10629 0.0
H372 H 0.95529 0.06239 0.9944 0.0
H373 H 0.99003 0.03888 0.98765 0.0
H374 H 0.99812 0.02834 0.07069 0.0
H375 H 0.96384 0.05197 0.07739 0.0
Tb376 Tb 0.31461 0.84338 0.3486 0.0
Tb377 Tb 0.35428 0.84462 0.30184 0.0
C378 C 0.29815 0.85663 0.29089 0.0
C379 C 0.28111 0.8155 0.40402 0.0
C380 C 0.2821 0.77442 0.4405 0.0
C381 C 0.27762 0.8009 0.44839 0.0
C382 C 0.2771 0.82134 0.4302 0.0
C383 C 0.28462 0.78868 0.39612 0.0
C384 C 0.28488 0.76826 0.41404 0.0
C385 C 0.28521 0.83814 0.38552 0.0
O386 O 0.31235 0.79925 0.33604 0.0
O387 O 0.3216 0.80495 0.29358 0.0
O388 O 0.37227 0.82475 0.33292 0.0
O389 O 0.34999 0.83525 0.36756 0.0
O390 O 0.3723 0.82515 0.27378 0.0
O391 O 0.3807 0.8717 0.27915 0.0
O392 O 0.37327 0.8789 0.33232 0.0
O393 O 0.33583 0.88832 0.34491 0.0
O394 O 0.29061 0.8463 0.31309 0.0
O395 O 0.32309 0.86239 0.28541 0.0
C396 C 0.31035 0.78882 0.31162 0.0
O397 O 0.30932 0.85581 0.38733 0.0
O398 O 0.27632 0.82905 0.36119 0.0
C399 C 0.36907 0.82608 0.35822 0.0
C400 C 0.37697 0.85165 0.23619 0.0
C401 C 0.36387 0.86188 0.18412 0.0
C402 C 0.38995 0.87391 0.19618 0.0
C403 C 0.39645 0.86877 0.22202 0.0
C404 C 0.35097 0.83926 0.22409 0.0
C405 C 0.34452 0.84415 0.19816 0.0
C406 C 0.38304 0.84991 0.26436 0.0
C407 C 0.3617 0.89621 0.34391 0.0
H408 H 0.2754 0.80615 0.46873 0.0
H409 H 0.2747 0.84206 0.43676 0.0
H410 H 0.2885 0.78399 0.3763 0.0
H411 H 0.28896 0.74841 0.40743 0.0
H412 H 0.40524 0.8875 0.18568 0.0
H413 H 0.4165 0.87883 0.23119 0.0
H414 H 0.33547 0.82651 0.23492 0.0
H415 H 0.32421 0.8349 0.18939 0.0
Tb416 Tb 0.55478 0.05932 0.56618 0.0
Tb417 Tb 0.61644 0.07426 0.54898 0.0
C418 C 0.60054 0.04591 0.60089 0.0
C419 C 0.49077 0.07264 0.57083 0.0
C420 C 0.45997 0.11098 0.56093 0.0
C421 C 0.44812 0.08304 0.56875 0.0
C422 C 0.46342 0.06408 0.57369 0.0
C423 C 0.50258 0.10029 0.56278 0.0
C424 C 0.48742 0.11926 0.55798 0.0
C425 C 0.50721 0.05301 0.57582 0.0
O426 O 0.5714 0.10619 0.57336 0.0
O427 O 0.61649 0.11186 0.57488 0.0
O428 O 0.598 0.09998 0.52474 0.0
O429 O 0.5549 0.07195 0.52648 0.0
O430 O 0.65753 0.08901 0.56029 0.0
O431 O 0.64272 0.07209 0.52048 0.0
O432 O 0.59189 0.03503 0.52597 0.0
O433 O 0.56032 1.01731 0.55401 0.0
O434 O 0.57917 0.05477 0.60063 0.0
O435 O 0.6133 0.04527 0.58003 0.0
C436 C 0.59629 0.12191 0.57938 0.0
O437 O 0.51375 0.04103 0.55497 0.0
O438 O 0.52769 0.06323 0.59322 0.0
C439 C 0.5725 0.09273 0.51668 0.0
C440 C 0.68125 0.06174 0.53883 0.0
C441 C 0.7168 0.02781 0.54432 0.0
C442 C 0.72439 0.05455 0.53312 0.0
C443 C 0.70679 0.07135 0.53046 0.0
C444 C 0.67329 0.03483 0.54949 0.0
C445 C 0.6909 1.018 0.5522 0.0
C446 C 0.66358 0.08049 0.53765 0.0
C447 C 0.57378 1.01327 0.53422 0.0
H448 H 0.42696 0.07567 0.57079 0.0
H449 H 0.45389 0.04274 0.57965 0.0
H450 H 0.52362 0.10731 0.56023 0.0
H451 H 0.49739 0.14062 0.55235 0.0
H452 H 0.744 0.06256 0.52643 0.0
H453 H 0.71326 0.09205 0.52218 0.0
H454 H 0.65362 0.02709 0.55615 0.0
H455 H 0.68446 0.99769 0.5611 0.0
Tb456 Tb 0.35793 0.29383 0.80185 0.0
Tb457 Tb 0.30906 0.32373 0.7992 0.0
C458 C 0.30205 0.26125 0.81802 0.0
C459 C 0.41797 0.27883 0.78097 0.0
C460 C 0.45716 0.28817 0.74499 0.0
C461 C 0.45095 0.26285 0.75849 0.0
C462 C 0.43157 0.25827 0.77632 0.0
C463 C 0.42375 0.3039 0.7673 0.0
C464 C 0.44322 0.3086 0.74961 0.0
C465 C 0.39693 0.27351 0.79905 0.0
O466 O 0.34903 0.29854 0.75997 0.0
O467 O 0.30619 0.30119 0.76015 0.0
O468 O 0.34142 0.35279 0.78098 0.0
O469 O 0.3747 0.34009 0.8039 0.0
O470 O 0.26846 0.31906 0.78933 0.0
O471 O 0.29503 0.35962 0.80716 0.0
O472 O 0.33065 0.33654 0.83839 0.0
O473 O 0.35109 0.3007 0.8434 0.0
O474 O 0.32218 0.25913 0.8053 0.0
O475 O 0.2957 0.28549 0.82062 0.0
C476 C 0.32589 0.29725 0.74734 0.0
O477 O 0.39715 0.2954 0.81521 0.0
O478 O 0.37297 0.26035 0.78822 0.0
C479 C 0.36679 0.35744 0.78874 0.0
C480 C 0.25164 0.34412 0.821 0.0
C481 C 0.21423 0.33808 0.85857 0.0
C482 C 0.20693 0.34123 0.83216 0.0
C483 C 0.22548 0.34425 0.81357 0.0
C484 C 0.25914 0.34134 0.8474 0.0
C485 C 0.24066 0.33858 0.86605 0.0
C486 C 0.27024 0.34439 0.80083 0.0
C487 C 0.34217 0.32152 0.85358 0.0
H488 H 0.46091 0.2464 0.75513 0.0
H489 H 0.42709 0.23857 0.78636 0.0
H490 H 0.4132 0.31989 0.77034 0.0
H491 H 0.44763 0.3285 0.7399 0.0
H492 H 0.1868 0.34124 0.82583 0.0
H493 H 0.21925 0.34613 0.79329 0.0
H494 H 0.27912 0.34066 0.8535 0.0
H495 H 0.24683 0.33592 0.88616 0.0
Tb496 Tb 0.07824 0.0762 0.57498 0.0
Tb497 Tb 0.08985 0.04433 0.52294 0.0
C498 C 1.03031 0.03381 0.53844 0.0
C499 C 0.09187 0.10734 0.64221 0.0
C500 C 0.12243 0.10566 0.68894 0.0
C501 C 0.09617 0.10727 0.68945 0.0
C502 C 0.08095 0.10808 0.66616 0.0
C503 C 0.11852 0.10719 0.6418 0.0
C504 C 0.13376 0.10654 0.66504 0.0
C505 C 0.07471 0.10279 0.61764 0.0
O506 O 0.08757 0.03677 0.59061 0.0
O507 O 0.08856 1.01115 0.55202 0.0
O508 O 0.12932 0.06311 0.54335 0.0
O509 O 0.1187 0.0986 0.56709 0.0
O510 O 0.08674 1.00584 0.5001 0.0
O511 O 0.10667 0.04709 0.48692 0.0
O512 O 0.08801 0.08815 0.51032 0.0
O513 O 0.06696 0.10219 0.54379 0.0
O514 O 1.03841 0.051 0.55996 0.0
O515 O 0.04645 0.03055 0.52098 0.0
C516 C 0.08812 1.01212 0.57792 0.0
O517 O 0.08587 0.11547 0.59805 0.0
O518 O 0.06136 0.07596 0.61083 0.0
C519 C 0.13628 0.08885 0.55588 0.0
C520 C 0.07817 1.01295 0.45572 0.0
C521 C 0.04334 1.01509 0.41214 0.0
C522 C 0.07106 1.02345 0.41062 0.0
C523 C 0.08837 1.02239 0.43231 0.0
C524 C 0.05041 1.00203 0.4564 0.0
C525 C 1.03312 1.003 0.43471 0.0
C526 C 0.09593 1.01962 0.48022 0.0
C527 C 0.0767 0.10705 0.52074 0.0
H528 H 0.08714 0.1069 0.70776 0.0
H529 H 0.06037 0.10798 0.66673 0.0
H530 H 0.12719 0.1062 0.6234 0.0
H531 H 0.15384 0.10505 0.66414 0.0
H532 H 0.07936 0.03248 0.39322 0.0
H533 H 0.10969 0.03089 0.43141 0.0
H534 H 0.04194 0.99464 0.47425 0.0
H535 H 1.01186 0.99651 0.43641 0.0
Tb536 Tb 0.34735 0.84466 0.7882 0.0
Tb537 Tb 0.31406 0.78612 0.80968 0.0
C538 C 0.34706 0.78567 0.76222 0.0
C539 C 0.35465 0.91446 0.7631 0.0
C540 C 0.32252 0.95148 0.76875 0.0
C541 C 0.31398 0.92687 0.75081 0.0
C542 C 0.32989 0.90843 0.74805 0.0
C543 C 0.36461 0.94095 0.77834 0.0
C544 C 0.34861 0.95926 0.78128 0.0
C545 C 0.36691 0.89114 0.76789 0.0
O546 O 0.30491 0.83504 0.76865 0.0
O547 O 0.27982 0.80101 0.79279 0.0
O548 O 0.30617 0.81713 0.83706 0.0
O549 O 0.33441 0.85909 0.82459 0.0
O550 O 0.28621 0.74508 0.80108 0.0
O551 O 0.30872 0.75663 0.83887 0.0
O552 O 0.35703 0.79333 0.82736 0.0
O553 O 0.38162 0.83432 0.81046 0.0
O554 O 0.36198 0.81176 0.7698 0.0
O555 O 0.32362 0.77603 0.7706 0.0
C556 C 0.2808 0.81968 0.77459 0.0
O557 O 0.37168 0.88765 0.79265 0.0
O558 O 0.35593 0.86639 0.75419 0.0
C559 C 0.31735 0.84515 0.84021 0.0
C560 C 0.30808 0.71312 0.81649 0.0
C561 C 0.33489 0.67291 0.80202 0.0
C562 C 0.31027 0.66358 0.81276 0.0
C563 C 0.29682 0.68373 0.81998 0.0
C564 C 0.3324 0.72202 0.80555 0.0
C565 C 0.34546 0.70225 0.79815 0.0
C566 C 0.29491 0.73539 0.82209 0.0
C567 C 0.38083 0.81233 0.82509 0.0
H568 H 0.29424 0.92073 0.74036 0.0
H569 H 0.32176 0.88836 0.7358 0.0
H570 H 0.38368 0.94612 0.79001 0.0
H571 H 0.35584 0.97806 0.79527 0.0
H572 H 0.30167 0.64096 0.81579 0.0
H573 H 0.27784 0.67646 0.82808 0.0
H574 H 0.34126 0.74441 0.80225 0.0
H575 H 0.3639 0.71005 0.78916 0.0
Tb576 Tb 0.57058 0.04291 0.0662 0.0
Tb577 Tb 0.59025 0.07646 0.01657 0.0
C578 C 0.6292 0.07131 0.06144 0.0
C579 C 0.55528 1.02318 0.1329 0.0
C580 C 0.55044 0.03649 0.18572 0.0
C581 C 0.55218 1.00901 0.17731 0.0
C582 C 0.55447 1.00235 0.15094 0.0
C583 C 0.55475 0.05105 0.14149 0.0
C584 C 0.55217 0.05761 0.16773 0.0
C585 C 0.55572 1.0154 0.10508 0.0
O586 O 0.56459 0.08614 0.07778 0.0
O587 O 0.58806 0.11147 0.04657 0.0
O588 O 0.54753 0.06939 1.01298 0.0
O589 O 0.53938 0.02823 0.03422 0.0
O590 O 0.61907 0.11195 1.0047 0.0
O591 O 0.58884 0.08362 0.97654 0.0
O592 O 0.58537 0.03037 1.00148 0.0
O593 O 0.58247 1.01006 0.0409 0.0
O594 O 0.61058 0.07127 0.07676 0.0
O595 O 0.62274 0.06432 0.03645 0.0
C596 C 0.57575 0.11141 0.06841 0.0
O597 O 0.53995 1.02471 0.08918 0.0
O598 O 0.57931 1.01923 0.09696 0.0
C599 C 0.53154 0.04453 0.01783 0.0
C600 C 0.632 0.10177 0.9636 0.0
C601 C 0.67209 0.09599 0.93221 0.0
C602 C 0.66364 0.07653 0.95133 0.0
C603 C 0.64377 0.07941 0.9669 0.0
C604 C 0.64069 0.12161 0.94502 0.0
C605 C 0.66061 0.11877 0.92942 0.0
C606 C 0.61109 0.10469 0.97992 0.0
C607 C 0.58457 1.00762 0.01518 0.0
H608 H 0.55077 0.99242 0.19092 0.0
H609 H 0.555 0.98079 0.14452 0.0
H610 H 0.55567 0.06749 0.12781 0.0
H611 H 0.55114 0.07903 0.17394 0.0
H612 H 0.67227 0.05893 0.9541 0.0
H613 H 0.63744 0.06407 0.98141 0.0
H614 H 0.63188 0.1391 0.94238 0.0
H615 H 0.66642 0.13385 0.91462 0.0
Tb616 Tb 0.31642 0.27631 0.2903 0.0
Tb617 Tb 0.34328 0.34301 0.30564 0.0
C618 C 0.32414 0.32026 0.24576 0.0
C619 C 0.3059 0.20506 0.25696 0.0
C620 C 0.33727 0.16932 0.24426 0.0
C621 C 0.31026 0.15708 0.2484 0.0
C622 C 0.29492 0.17501 0.2557 0.0
C623 C 0.33013 0.21672 0.24638 0.0
C624 C 0.346 0.19899 0.24037 0.0
C625 C 0.29675 0.22347 0.27549 0.0
O626 O 0.35901 0.28287 0.27893 0.0
O627 O 0.3776 0.33174 0.28746 0.0
O628 O 0.35113 0.32457 0.34278 0.0
O629 O 0.32384 0.27824 0.33317 0.0
O630 O 0.37654 0.38018 0.31325 0.0
O631 O 0.33656 0.38289 0.31462 0.0
O632 O 0.30389 0.3336 0.32403 0.0
O633 O 0.28073 0.28991 0.30293 0.0
O634 O 0.3213 0.29398 0.2525 0.0
O635 O 0.32781 0.34174 0.26395 0.0
C636 C 0.37978 0.30645 0.27768 0.0
O637 O 0.31345 0.23322 0.29641 0.0
O638 O 0.28797 0.24376 0.26578 0.0
C639 C 0.33858 0.29896 0.35033 0.0
C640 C 0.36542 0.42009 0.29587 0.0
C641 C 0.35136 0.45628 0.26009 0.0
C642 C 0.35723 0.46561 0.28693 0.0
C643 C 0.36402 0.44748 0.30475 0.0
C644 C 0.36318 0.41247 0.26877 0.0
C645 C 0.35598 0.4304 0.25096 0.0
C646 C 0.36147 0.39736 0.3142 0.0
C647 C 0.28087 0.31246 0.3193 0.0
H648 H 0.30229 0.13401 0.24987 0.0
H649 H 0.27587 0.16556 0.26311 0.0
H650 H 0.33838 0.23988 0.24613 0.0
H651 H 0.3663 0.20935 0.23638 0.0
H652 H 0.35356 0.48535 0.29452 0.0
H653 H 0.36544 0.45362 0.32557 0.0
H654 H 0.36437 0.39146 0.26152 0.0
H655 H 0.35171 0.42291 0.23035 0.0
Tb656 Tb 0.58223 0.58306 0.07932 0.0
Tb657 Tb 0.59083 0.54404 0.03026 0.0
C658 C 0.53329 0.53563 0.0482 0.0
C659 C 0.57529 0.60557 0.14741 0.0
C660 C 0.58216 0.5938 0.19987 0.0
C661 C 0.58375 0.6221 0.19355 0.0
C662 C 0.58054 0.62799 0.16738 0.0
C663 C 0.5711 0.57691 0.15387 0.0
C664 C 0.57474 0.57107 0.17997 0.0
C665 C 0.57979 0.61267 0.12052 0.0
O666 O 0.59015 0.54422 0.09753 0.0
O667 O 0.58861 0.5132 0.06164 0.0
O668 O 0.63024 0.56552 0.05029 0.0
O669 O 0.61925 0.60527 0.06407 0.0
O670 O 0.58333 0.50393 1.00867 0.0
O671 O 0.61159 0.54187 0.99717 0.0
O672 O 0.58593 0.58425 1.01203 0.0
O673 O 0.57643 0.61065 0.04678 0.0
O674 O 0.54334 0.55177 0.07003 0.0
O675 O 0.54766 0.53406 0.02865 0.0
C676 C 0.58926 0.5178 0.08744 0.0
O677 O 0.60175 0.60868 0.11309 0.0
O678 O 0.55969 0.60248 0.1026 0.0
C679 C 0.63713 0.5934 0.05664 0.0
C680 C 0.58353 0.5102 0.96417 0.0
C681 C 0.55671 0.50366 0.91381 0.0
C682 C 0.57819 0.49208 0.91848 0.0
C683 C 0.59153 0.49531 0.94364 0.0
C684 C 0.56184 0.52123 0.95967 0.0
C685 C 0.54855 0.518 0.93475 0.0
C686 C 0.59778 0.51514 0.99032 0.0
C687 C 0.58065 0.60818 0.02158 0.0
H688 H 0.58964 0.63997 0.20861 0.0
H689 H 0.58405 0.65025 0.16264 0.0
H690 H 0.56697 0.55938 0.13861 0.0
H691 H 0.57329 0.54908 0.18448 0.0
H692 H 0.58488 0.48098 0.90265 0.0
H693 H 0.60828 0.48666 0.94696 0.0
H694 H 0.55555 0.53294 0.97536 0.0
H695 H 0.53257 0.52784 0.9317 0.0
Tb696 Tb 0.84828 0.35065 0.2928 0.0
Tb697 Tb 0.81606 0.28846 0.30896 0.0
C698 C 0.85077 0.29501 0.26169 0.0
C699 C 0.8566 0.42315 0.27231 0.0
C700 C 0.82796 0.46406 0.27382 0.0
C701 C 0.81703 0.43725 0.25922 0.0
C702 C 0.83118 0.41691 0.25855 0.0
C703 C 0.86849 0.45085 0.28492 0.0
C704 C 0.85427 0.47121 0.28568 0.0
C705 C 0.86865 0.39977 0.27728 0.0
O706 O 0.8074 0.34004 0.27004 0.0
O707 O 0.78269 0.30614 0.29421 0.0
O708 O 0.81489 0.31608 0.3429 0.0
O709 O 0.82842 0.36051 0.32633 0.0
O710 O 0.78138 0.25326 0.30249 0.0
O711 O 0.8135 0.25205 0.33043 0.0
O712 O 0.8588 0.29309 0.32492 0.0
O713 O 0.88138 0.33953 0.31671 0.0
O714 O 0.86435 0.32086 0.27162 0.0
O715 O 0.82803 0.28148 0.27012 0.0
C716 C 0.78339 0.32459 0.2759 0.0
O717 O 0.87067 0.39411 0.3018 0.0
O718 O 0.85953 0.37619 0.26157 0.0
C719 C 0.81835 0.34404 0.34467 0.0
C720 C 0.7928 0.20974 0.30325 0.0
C721 C 0.80752 0.16406 0.27874 0.0
C722 C 0.80467 0.16498 0.30575 0.0
C723 C 0.79738 0.18778 0.31796 0.0
C724 C 0.79337 0.20732 0.27586 0.0
C725 C 0.80063 0.18461 0.26372 0.0
C726 C 0.7916 0.23695 0.31669 0.0
C727 C 0.88161 0.31474 0.32672 0.0
H728 H 0.79693 0.43137 0.24961 0.0
H729 H 0.82147 0.39573 0.2486 0.0
H730 H 0.88803 0.45603 0.29572 0.0
H731 H 0.86312 0.49166 0.29722 0.0
H732 H 0.81015 0.14945 0.31773 0.0
H733 H 0.79712 0.18931 0.33909 0.0
H734 H 0.78991 0.22394 0.26396 0.0
H735 H 0.80251 0.18411 0.24285 0.0
Tb736 Tb 0.06694 0.54204 0.56905 0.0
Tb737 Tb 0.08609 0.57378 0.51825 0.0
C738 C 0.12513 0.57342 0.56436 0.0
C739 C 0.05237 0.52983 0.63672 0.0
C740 C 0.04921 0.55145 0.68789 0.0
C741 C 0.05342 0.52421 0.68336 0.0
C742 C 0.05489 0.51341 0.65785 0.0
C743 C 0.04902 0.55743 0.64135 0.0
C744 C 0.0473 0.56808 0.66672 0.0
C745 C 0.05282 0.51808 0.60986 0.0
O746 O 0.06091 0.58563 0.579 0.0
O747 O 0.08276 0.60979 0.5463 0.0
O748 O 0.04322 0.56518 0.51291 0.0
O749 O 1.03435 0.52694 0.53846 0.0
O750 O 0.1153 0.60864 0.50594 0.0
O751 O 0.08561 0.57939 0.47794 0.0
O752 O 0.08165 0.52759 0.50455 0.0
O753 O 0.07903 0.50835 0.5445 0.0
O754 O 0.1061 0.57241 0.57936 0.0
O755 O 0.11873 0.56357 0.5399 0.0
C756 C 0.07123 0.61043 0.56852 0.0
O757 O 1.03644 0.5244 0.59235 0.0
O758 O 0.07641 0.52136 0.60184 0.0
C759 C 1.02695 0.5417 0.5203 0.0
C760 C 0.12973 0.5933 0.4675 0.0
C761 C 0.16917 0.57896 0.44037 0.0
C762 C 0.16063 0.60311 0.43424 0.0
C763 C 0.14095 0.61022 0.44775 0.0
C764 C 0.13896 0.56991 0.47434 0.0
C765 C 0.1585 0.56276 0.46087 0.0
C766 C 0.10843 0.59958 0.48129 0.0
C767 C 0.08119 0.50533 0.51874 0.0
H768 H 0.05479 0.51095 0.69943 0.0
H769 H 0.05761 0.49214 0.65459 0.0
H770 H 0.04726 0.57058 0.62533 0.0
H771 H 0.04434 0.58927 0.66981 0.0
H772 H 0.16829 0.61569 0.41824 0.0
H773 H 0.13412 0.62846 0.44242 0.0
H774 H 0.13068 0.5568 0.48977 0.0
H775 H 0.1648 0.54415 0.46603 0.0
Tb776 Tb 0.85867 0.8004 0.30128 0.0
Tb777 Tb 0.80408 0.82078 0.28945 0.0
C778 C 0.80306 0.76369 0.31409 0.0
C779 C 0.92082 0.78496 0.28621 0.0
C780 C 0.96126 0.79169 0.25165 0.0
C781 C 0.93426 0.7851 0.24183 0.0
C782 C 0.91428 0.78194 0.25892 0.0
C783 C 0.94759 0.79096 0.29611 0.0
C784 C 0.9676 0.79434 0.27905 0.0
C785 C 0.90028 0.78421 0.30446 0.0
O786 O 0.84104 0.78378 0.26091 0.0
O787 O 0.81734 0.81541 0.25042 0.0
O788 O 0.8358 0.85964 0.28582 0.0
O789 O 0.87221 0.84193 0.28486 0.0
O790 O 0.76423 0.80877 0.27282 0.0
O791 O 0.78155 0.84975 0.2953 0.0
O792 O 0.81312 0.82728 0.33218 0.0
O793 O 0.85534 0.82176 0.3395 0.0
O794 O 0.82846 0.77248 0.32234 0.0
O795 O 0.79376 0.7749 0.29425 0.0
C796 C 0.82958 0.79634 0.24317 0.0
O797 O 0.89938 0.80947 0.31394 0.0
O798 O 0.87645 0.76679 0.29725 0.0
C799 C 0.86097 0.86281 0.28263 0.0
C800 C 0.73722 0.82505 0.30101 0.0
C801 C 0.69469 0.81433 0.33313 0.0
C802 C 0.69281 0.82682 0.30916 0.0
C803 C 0.7139 0.83216 0.29329 0.0
C804 C 0.73921 0.81249 0.32484 0.0
C805 C 0.71818 0.80726 0.3408 0.0
C806 C 0.7596 0.83124 0.28453 0.0
C807 C 0.83474 0.82901 0.34784 0.0
H808 H 0.92851 0.78253 0.2209 0.0
H809 H 0.89377 0.77761 0.25077 0.0
H810 H 0.9531 0.79375 0.31709 0.0
H811 H 0.98814 0.79992 0.28742 0.0
H812 H 0.67513 0.83283 0.30282 0.0
H813 H 0.71206 0.84198 0.27504 0.0
H814 H 0.75707 0.80676 0.3311 0.0
H815 H 0.72015 0.79733 0.35895 0.0
Tb816 Tb 0.81648 0.33554 0.83876 0.0
Tb817 Tb 0.85927 0.32962 0.79753 0.0
C818 C 0.80786 0.34784 0.77921 0.0
C819 C 0.77733 0.32293 0.89525 0.0
C820 C 0.77389 0.29071 0.93956 0.0
C821 C 0.78677 0.32066 0.942 0.0
C822 C 0.78831 0.33663 0.92009 0.0
C823 C 0.76262 0.29347 0.89314 0.0
C824 C 0.76089 0.27754 0.91512 0.0
C825 C 0.78399 0.33855 0.87163 0.0
O826 O 0.81167 0.2898 0.8309 0.0
O827 O 0.82357 0.29322 0.78925 0.0
O828 O 0.87301 0.31196 0.83236 0.0
O829 O 0.85003 0.32889 0.86314 0.0
O830 O 0.8755 0.30351 0.77367 0.0
O831 O 0.8894 0.35018 0.7747 0.0
O832 O 0.87814 0.36689 0.82502 0.0
O833 O 0.84006 0.3786 0.83153 0.0
O834 O 0.79681 0.33808 0.80029 0.0
O835 O 0.83333 0.3513 0.77702 0.0
C836 C 0.81089 0.27806 0.80714 0.0
O837 O 0.8081 0.35618 0.87276 0.0
O838 O 0.77723 0.32315 0.84913 0.0
C839 C 0.86896 0.31738 0.85694 0.0
C840 C 0.88282 0.32483 0.73382 0.0
C841 C 0.87094 0.33435 0.6814 0.0
C842 C 0.89742 0.33753 0.69127 0.0
C843 C 0.90334 0.33299 0.71745 0.0
C844 C 0.85625 0.32003 0.72355 0.0
C845 C 0.85036 0.32486 0.69756 0.0
C846 C 0.88899 0.32577 0.76224 0.0
C847 C 0.86613 0.38576 0.83268 0.0
H848 H 0.79717 0.33152 0.96047 0.0
H849 H 0.7995 0.35937 0.92233 0.0
H850 H 0.75353 0.28231 0.87433 0.0
H851 H 0.75029 0.25464 0.91273 0.0
H852 H 0.91363 0.34501 0.67918 0.0
H853 H 0.92396 0.33714 0.72519 0.0
H854 H 0.84014 0.3139 0.736 0.0
H855 H 0.82979 0.32202 0.69032 0.0
Tb856 Tb 0.8146 0.7791 0.78671 0.0
Tb857 Tb 0.84423 0.84432 0.80516 0.0
C858 C 0.82077 0.82481 0.74479 0.0
C859 C 0.78461 0.69998 0.78551 0.0
C860 C 0.79615 0.65582 0.81203 0.0
C861 C 0.78808 0.65124 0.78501 0.0
C862 C 0.78253 0.6735 0.7717 0.0
C863 C 0.78706 0.70216 0.81302 0.0
C864 C 0.79276 0.67997 0.82633 0.0
C865 C 0.79351 0.72622 0.77194 0.0
O866 O 0.85457 0.78827 0.76869 0.0
O867 O 0.87908 0.83059 0.79125 0.0
O868 O 0.84767 0.82462 0.84203 0.0
O869 O 0.82597 0.77695 0.82892 0.0
O870 O 0.87797 0.87927 0.81874 0.0
O871 O 0.8393 0.88556 0.81004 0.0
O872 O 0.80324 0.83705 0.82075 0.0
O873 O 0.78099 0.79035 0.80579 0.0
O874 O 0.80608 0.80035 0.75224 0.0
O875 O 0.83734 0.84398 0.76201 0.0
C876 C 0.87818 0.80852 0.77412 0.0
O877 O 0.78006 0.74492 0.77374 0.0
O878 O 0.8191 0.73863 0.77607 0.0
C879 C 0.83783 0.79762 0.84757 0.0
C880 C 0.87516 0.92104 0.79808 0.0
C881 C 0.86987 0.9594 0.76056 0.0
C882 C 0.87329 0.96854 0.7875 0.0
C883 C 0.87566 0.94931 0.80616 0.0
C884 C 0.87656 0.91364 0.77146 0.0
C885 C 0.87382 0.93273 0.75271 0.0
C886 C 0.86478 0.89809 0.81526 0.0
C887 C 0.78095 0.81466 0.81926 0.0
H888 H 0.79034 0.63268 0.7736 0.0
H889 H 0.78048 0.6715 0.75043 0.0
H890 H 0.78845 0.72246 0.82395 0.0
H891 H 0.79861 0.68371 0.84725 0.0
H892 H 0.87036 0.98895 0.79425 0.0
H893 H 0.87457 0.95538 0.82662 0.0
H894 H 0.87656 0.89197 0.76489 0.0
H895 H 0.87165 0.92533 0.73211 0.0
Tb896 Tb 0.62059 0.59236 0.57412 0.0
Tb897 Tb 0.5661 0.54766 0.54427 0.0
C898 C 0.56545 0.58837 0.59359 0.0
C899 C 0.68687 0.60899 0.60537 0.0
C900 C 0.72429 0.57742 0.60486 0.0
C901 C 0.7003 0.56654 0.61611 0.0
C902 C 0.68174 0.58215 0.61634 0.0
C903 C 0.71185 0.62108 0.59636 0.0
C904 C 0.73046 0.60543 0.59614 0.0
C905 C 0.66463 0.6207 0.59783 0.0
O906 O 0.6114 0.55265 0.5946 0.0
O907 O 0.5899 0.52066 0.56015 0.0
O908 O 0.59512 0.55201 0.51622 0.0
O909 O 0.63287 0.56535 0.54519 0.0
O910 O 0.53669 0.50792 0.5447 0.0
O911 O 0.53462 0.53608 0.51403 0.0
O912 O 0.5635 0.59118 0.53662 0.0
O913 O 0.6079 0.61699 0.54379 0.0
O914 O 0.58875 0.60605 0.59011 0.0
O915 O 0.55713 0.56195 0.58227 0.0
C916 C 0.60364 0.52614 0.58331 0.0
O917 O 0.65911 0.62034 0.57256 0.0
O918 O 0.64309 0.61119 0.60966 0.0
C919 C 0.6206 0.55523 0.52187 0.0
C920 C 0.49493 0.51485 0.5327 0.0
C921 C 0.44979 0.53025 0.5465 0.0
C922 C 0.45345 0.52545 0.51997 0.0
C923 C 0.47598 0.51787 0.51311 0.0
C924 C 0.48991 0.51724 0.55917 0.0
C925 C 0.46757 0.52495 0.56598 0.0
C926 C 0.52151 0.5141 0.52599 0.0
C927 C 0.58326 0.61466 0.53436 0.0
H928 H 0.6952 0.54521 0.62334 0.0
H929 H 0.66262 0.57212 0.62337 0.0
H930 H 0.71612 0.64157 0.58758 0.0
H931 H 0.74876 0.61431 0.58722 0.0
H932 H 0.43995 0.52957 0.50466 0.0
H933 H 0.47947 0.51622 0.49262 0.0
H934 H 0.5041 0.5151 0.57482 0.0
H935 H 0.465 0.52843 0.58655 0.0
Tb936 Tb 0.05237 0.55989 0.08048 0.0
Tb937 Tb 0.1109 0.57092 0.05639 0.0
C938 C 0.10157 0.5487 0.11124 0.0
C939 C 0.98805 0.57206 0.09228 0.0
C940 C 0.95143 0.60465 0.08443 0.0
C941 C 0.94813 0.58414 0.10332 0.0
C942 C 0.96622 0.56801 0.10715 0.0
C943 C 0.99174 0.59274 0.07368 0.0
C944 C 0.97358 0.6088 0.06972 0.0
C945 C 1.00712 0.55508 0.09649 0.0
O946 O 0.06863 0.6067 0.08142 0.0
O947 O 0.11328 0.61117 0.08015 0.0
O948 O 0.08951 0.59302 0.03147 0.0
O949 O 0.0473 0.56682 0.03937 0.0
O950 O 0.15249 0.58625 0.06394 0.0
O951 O 0.13425 0.56563 0.02597 0.0
O952 O 0.08476 0.52917 0.03857 0.0
O953 O 0.05649 0.51672 0.07074 0.0
O954 O 0.08136 0.55936 0.11282 0.0
O955 O 0.11054 0.54441 0.08879 0.0
C956 C 0.09377 0.62231 0.08503 0.0
O957 O 1.01091 0.54033 0.07583 0.0
O958 O 1.0296 0.56874 0.11011 0.0
C959 C 0.06357 0.58502 0.02581 0.0
C960 C 0.17459 0.55729 0.04226 0.0
C961 C 0.21154 0.52498 0.04816 0.0
C962 C 0.21824 0.55146 0.03648 0.0
C963 C 0.19996 0.56745 0.03361 0.0
C964 C 0.16749 0.5306 0.05341 0.0
C965 C 0.18578 0.51455 0.05628 0.0
C966 C 0.15646 0.57559 0.04122 0.0
C967 C 0.06754 0.50946 0.05019 0.0
H968 H 0.93164 0.58066 0.11536 0.0
H969 H 0.96317 0.55238 0.12177 0.0
H970 H 1.00862 0.59638 0.06213 0.0
H971 H 0.97668 0.62407 0.0548 0.0
H972 H 0.23771 0.55992 0.02959 0.0
H973 H 0.20582 0.58801 0.02501 0.0
H974 H 0.148 0.52248 0.06037 0.0
H975 H 0.18 0.4944 0.06554 0.0
H976 H 0.08472 0.23883 0.99426 0.0
H977 H 1.00605 0.21357 0.02055 0.0
H978 H 1.01333 0.16897 0.03527 0.0
H979 H 0.04241 0.13734 0.04192 0.0
H980 H 0.12252 0.16424 0.01922 0.0
H981 H 0.11445 0.20761 1.00218 0.0
C982 C 0.06911 0.22345 1.00303 0.0
C983 C 0.04472 0.22963 1.00604 0.0
C984 C 0.0738 0.19806 1.01237 0.0
C985 C 1.02496 0.20954 0.01792 0.0
C986 C 1.02914 0.18395 0.02639 0.0
C987 C 0.05813 0.15262 0.03318 0.0
C988 C 0.08308 0.14723 0.03185 0.0
C989 C 0.05354 0.17802 0.02393 0.0
C990 C 0.10318 0.16766 0.02067 0.0
C991 C 0.09853 0.19253 1.01082 0.0
H992 H 0.19391 0.85684 0.2203 0.0
H993 H 0.24873 0.87234 0.16065 0.0
H994 H 0.28554 0.8736 0.19336 0.0
H995 H 0.30199 0.86808 0.23891 0.0
H996 H 0.24643 0.85277 0.29802 0.0
H997 H 0.21052 0.85388 0.26568 0.0
C998 C 0.21391 0.86067 0.21438 0.0
C999 C 0.21831 0.86435 0.18786 0.0
C1000 C 0.23506 0.86139 0.23332 0.0
C1001 C 0.24455 0.86945 0.18082 0.0
C1002 C 0.26569 0.87011 0.19957 0.0
C1003 C 0.28211 0.86533 0.24481 0.0
C1004 C 0.27715 0.86025 0.27106 0.0
C1005 C 0.26118 0.86584 0.2259 0.0
C1006 C 0.25107 0.8566 0.27809 0.0
C1007 C 0.23037 0.85719 0.25954 0.0
H1008 H 0.56673 0.9014 0.46 0.0
H1009 H 0.53608 0.85848 0.52728 0.0
H1010 H 0.53894 0.90534 0.5502 0.0
H1011 H 0.5519 0.95925 0.55176 0.0
H1012 H 0.58443 1.00121 0.4846 0.0
H1013 H 0.57901 0.95436 0.46125 0.0
C1014 C 0.56048 0.9022 0.47962 0.0
C1015 C 0.55117 0.8763 0.49182 0.0
C1016 C 0.56262 0.92929 0.49285 0.0
C1017 C 0.54336 0.87798 0.51735 0.0
C1018 C 0.54501 0.90485 0.5305 0.0
C1019 C 0.55756 0.9581 0.53194 0.0
C1020 C 0.56859 0.98396 0.52007 0.0
C1021 C 0.55484 0.93076 0.51856 0.0
C1022 C 0.57604 0.98188 0.49441 0.0
C1023 C 0.57292 0.95499 0.48093 0.0
H1024 H 0.54122 0.3267 0.66166 0.0
H1025 H 0.58679 0.28979 0.71583 0.0
H1026 H 0.54912 0.27526 0.74182 0.0
H1027 H 0.50468 0.27623 0.75131 0.0
H1028 H 0.45823 0.3129 0.69789 0.0
H1029 H 0.49479 0.32467 0.66985 0.0
C1030 C 0.54268 0.31508 0.67892 0.0
C1031 C 0.56683 0.30947 0.68684 0.0
C1032 C 0.52092 0.30713 0.69421 0.0
C1033 C 0.56851 0.29458 0.70937 0.0
C1034 C 0.54697 0.28627 0.72433 0.0
C1035 C 0.50225 0.28628 0.7333 0.0
C1036 C 0.47868 0.29372 0.72689 0.0
C1037 C 0.52328 0.29292 0.71725 0.0
C1038 C 0.47628 0.30731 0.70362 0.0
C1039 C 0.49714 0.3139 0.68745 0.0
H1040 H 0.08455 0.88263 0.61388 0.0
H1041 H 0.0798 0.92164 0.69022 0.0
H1042 H 0.08219 0.96766 0.67138 0.0
H1043 H 0.08511 0.99873 0.63253 0.0
H1044 H 0.09001 0.9591 0.55637 0.0
H1045 H 0.08818 0.91364 0.57544 0.0
C1046 C 0.08412 0.90107 0.62667 0.0
C1047 C 0.08197 0.89734 0.65415 0.0
C1048 C 0.08554 0.92846 0.61541 0.0
C1049 C 0.08145 0.92259 0.66936 0.0
C1050 C 0.08281 0.94946 0.65839 0.0
C1051 C 0.08593 0.98035 0.61988 0.0
C1052 C 0.08786 0.98385 0.59227 0.0
C1053 C 0.08481 0.95302 0.63131 0.0
C1054 C 0.08866 0.95854 0.57729 0.0
C1055 C 0.08755 0.93188 0.58838 0.0
H1056 H 0.4743 0.78951 0.90626 0.0
H1057 H 0.52547 0.82587 0.84763 0.0
H1058 H 0.48661 0.83188 0.82096 0.0
H1059 H 0.43663 0.82838 0.81405 0.0
H1060 H 0.38611 0.78788 0.87184 0.0
H1061 H 0.425 0.78235 0.89791 0.0
C1062 C 0.4773 0.79844 0.88746 0.0
C1063 C 0.5041 0.80687 0.87962 0.0
C1064 C 0.4542 0.80152 0.87165 0.0
C1065 C 0.50605 0.81851 0.85484 0.0
C1066 C 0.48338 0.82224 0.83943 0.0
C1067 C 0.43385 0.81829 0.83234 0.0
C1068 C 0.40708 0.80897 0.84044 0.0
C1069 C 0.4571 0.81413 0.84754 0.0
C1070 C 0.40537 0.79558 0.86436 0.0
C1071 C 0.42807 0.79235 0.87959 0.0
H1072 H 0.5904 0.24616 0.10549 0.0
H1073 H 0.54877 0.21176 0.17106 0.0
H1074 H 0.54495 0.16222 0.15233 0.0
H1075 H 0.55458 0.12725 0.11661 0.0
H1076 H 0.5968 0.16557 0.05243 0.0
H1077 H 0.59906 0.21339 0.07131 0.0
C1078 C 0.58026 0.22816 0.11613 0.0
C1079 C 0.56989 0.23421 0.14032 0.0
C1080 C 0.5783 0.19942 0.10518 0.0
C1081 C 0.55696 0.20918 0.15267 0.0
C1082 C 0.55489 0.18038 0.14178 0.0
C1083 C 0.56425 0.14594 0.10655 0.0
C1084 C 0.57551 0.14132 0.08231 0.0
C1085 C 0.56563 0.1749 0.11793 0.0
C1086 C 0.58782 0.16695 0.07058 0.0
C1087 C 0.58918 0.19493 0.08156 0.0
H1088 H 0.1933 0.33888 0.39699 0.0
H1089 H 0.13722 0.27515 0.34264 0.0
H1090 H 0.17382 0.26924 0.31823 0.0
H1091 H 0.22331 0.28169 0.31063 0.0
H1092 H 0.27889 0.34799 0.36322 0.0
H1093 H 0.24248 0.35277 0.38832 0.0
C1094 C 0.1887 0.32351 0.37987 0.0
C1095 C 0.16096 0.30735 0.37264 0.0
C1096 C 0.21068 0.3205 0.36479 0.0
C1097 C 0.15725 0.28815 0.34967 0.0
C1098 C 0.1787 0.28467 0.33533 0.0
C1099 C 0.22785 0.29734 0.32753 0.0
C1100 C 0.25546 0.31437 0.33416 0.0
C1101 C 0.2058 0.30065 0.34238 0.0
C1102 C 0.259 0.33431 0.3566 0.0
C1103 C 0.23765 0.33711 0.3714 0.0
H1104 H 1.03743 0.12097 0.20838 0.0
H1105 H 0.96368 0.05847 0.17679 0.0
H1106 H 0.98117 0.05631 0.13403 0.0
H1107 H 1.02019 0.06614 0.10855 0.0
H1108 H 0.09418 0.12787 0.14126 0.0
H1109 H 0.07378 0.1365 0.18077 0.0
C1110 C 1.02499 0.1074 0.19192 0.0
C1111 C 0.99962 0.0895 0.19564 0.0
C1112 C 1.03541 0.10571 0.16786 0.0
C1113 C 0.98336 0.07237 0.17424 0.0
C1114 C 0.99346 0.07089 0.14995 0.0
C1115 C 1.03173 0.08167 0.12424 0.0
C1116 C 0.0588 0.09576 0.12235 0.0
C1117 C 1.01992 0.08642 0.14698 0.0
C1118 C 0.07338 0.11645 0.14243 0.0
C1119 C 0.06176 0.1214 0.16503 0.0
H1120 H 0.30469 0.67579 0.50593 0.0
H1121 H 0.3539 0.75063 0.55437 0.0
H1122 H 0.33965 0.78265 0.52527 0.0
H1123 H 0.31359 0.78949 0.48607 0.0
H1124 H 0.26338 0.71522 0.43767 0.0
H1125 H 0.27738 0.68281 0.46684 0.0
C1126 C 0.3125 0.6991 0.50981 0.0
C1127 C 0.33049 0.71093 0.53199 0.0
C1128 C 0.30376 0.71744 0.49327 0.0
C1129 C 0.34012 0.74112 0.53725 0.0
C1130 C 0.33189 0.75943 0.52073 0.0
C1131 C 0.30526 0.76622 0.48222 0.0
C1132 C 0.28737 0.75475 0.45992 0.0
C1133 C 0.31359 0.74783 0.49883 0.0
C1134 C 0.27722 0.72453 0.45479 0.0
C1135 C 0.2853 0.70601 0.47137 0.0
H1136 H 0.63659 0.03358 0.7176 0.0
H1137 H 0.71245 0.04652 0.68568 0.0
H1138 H 0.69057 0.04382 0.64145 0.0
H1139 H 0.65088 0.04316 0.61267 0.0
H1140 H 0.57582 0.03336 0.64538 0.0
H1141 H 0.59652 0.02913 0.68861 0.0
C1142 C 0.64842 0.03552 0.70102 0.0
C1143 C 0.67623 0.04067 0.70506 0.0
C1144 C 0.63588 0.03465 0.67581 0.0
C1145 C 0.69106 0.04285 0.68321 0.0
C1146 C 0.67858 0.04134 0.65791 0.0
C1147 C 0.63892 0.03957 0.62916 0.0
C1148 C 0.61191 0.03883 0.62591 0.0
C1149 C 0.65112 0.03804 0.65408 0.0
C1150 C 0.59671 0.03427 0.64745 0.0
C1151 C 0.60854 0.03191 0.67216 0.0
H1152 H 0.35527 0.33538 0.97997 0.0
H1153 H 0.31748 0.40191 0.96412 0.0
H1154 H 0.31538 0.38996 0.91738 0.0
H1155 H 0.32499 0.36221 0.88033 0.0
H1156 H 0.36288 0.29543 0.89365 0.0
H1157 H 0.36436 0.30598 0.94128 0.0
C1158 C 0.34635 0.34701 0.96627 0.0
C1159 C 0.33659 0.36969 0.97602 0.0
C1160 C 0.34546 0.34024 0.93864 0.0
C1161 C 0.32537 0.38456 0.95764 0.0
C1162 C 0.32412 0.37776 0.93066 0.0
C1163 C 0.33364 0.34982 0.89348 0.0
C1164 C 0.34393 0.32805 0.88296 0.0
C1165 C 0.33433 0.35593 0.92085 0.0
C1166 C 0.35492 0.31243 0.90083 0.0
C1167 C 0.35569 0.31844 0.92823 0.0
H1168 H 0.95624 0.03401 0.32901 0.0
H1169 H 1.01469 0.11757 0.33165 0.0
H1170 H 0.04241 0.10378 0.36606 0.0
H1171 H 0.05152 0.06685 0.39256 0.0
H1172 H 0.99491 0.9819 0.38827 0.0
H1173 H 0.96491 0.99708 0.3569 0.0
C1174 C 0.97466 0.04938 0.33779 0.0
C1175 C 0.98336 0.0769 0.32844 0.0
C1176 C 0.99104 0.04076 0.35657 0.0
C1177 C 1.00759 0.09646 0.33909 0.0
C1178 C 1.02352 0.08847 0.35844 0.0
C1179 C 1.03275 0.05155 0.38451 0.0
C1180 C 1.02558 1.02319 0.39222 0.0
C1181 C 1.01578 0.06043 0.36673 0.0
C1182 C 1.00087 1.0038 0.38234 0.0
C1183 C 0.98373 1.0125 0.36457 0.0
H1184 H 0.38587 0.73516 0.66373 0.0
H1185 H 0.31796 0.66302 0.67337 0.0
H1186 H 0.31484 0.684 0.71718 0.0
H1187 H 0.32429 0.72861 0.74655 0.0
H1188 H 0.39039 0.80231 0.73461 0.0
H1189 H 0.4013 0.77518 0.69781 0.0
C1190 C 0.37127 0.7234 0.67606 0.0
C1191 C 0.35197 0.69793 0.66547 0.0
C1192 C 0.36855 0.73656 0.70025 0.0
C1193 C 0.33308 0.68265 0.68131 0.0
C1194 C 0.33094 0.695 0.70608 0.0
C1195 C 0.34132 0.73858 0.73614 0.0
C1196 C 0.35592 0.76777 0.74267 0.0
C1197 C 0.34733 0.72294 0.71477 0.0
C1198 C 0.37841 0.78012 0.72954 0.0
C1199 C 0.38475 0.76458 0.70855 0.0
H1200 H 0.74971 0.09726 0.84438 0.0
H1201 H 0.70448 1.0071 0.835 0.0
H1202 H 0.68314 1.01291 0.8748 0.0
H1203 H 0.67227 0.04507 0.90768 0.0
H1204 H 0.71428 0.13632 0.91505 0.0
H1205 H 0.74172 0.1289 0.88037 0.0
C1206 C 0.73589 0.07877 0.85169 0.0
C1207 C 0.72881 0.05172 0.8372 0.0
C1208 C 0.7226 0.0827 0.87372 0.0
C1209 C 0.71034 0.028 0.84619 0.0
C1210 C 0.69796 0.0314 0.86873 0.0
C1211 C 0.6879 0.06323 0.90222 0.0
C1212 C 0.69115 0.09121 0.91381 0.0
C1213 C 0.70316 0.05888 0.882 0.0
C1214 C 0.71118 0.11461 0.90614 0.0
C1215 C 0.72693 0.11036 0.88642 0.0
H1216 H 0.33317 0.31454 0.1223 0.0
H1217 H 0.33926 0.40527 0.13361 0.0
H1218 H 0.33421 0.40069 0.18043 0.0
H1219 H 0.32896 0.37067 0.21921 0.0
H1220 H 0.32124 0.2795 0.20593 0.0
H1221 H 0.32561 0.2846 0.15971 0.0
C1222 C 0.33336 0.33339 0.13492 0.0
C1223 C 0.33678 0.36028 0.12405 0.0
C1224 C 0.33004 0.33053 0.16194 0.0
C1225 C 0.33662 0.38422 0.14106 0.0
C1226 C 0.33379 0.38163 0.16803 0.0
C1227 C 0.32815 0.35192 0.20623 0.0
C1228 C 0.3249 0.32474 0.21675 0.0
C1229 C 0.3306 0.35486 0.17888 0.0
C1230 C 0.32372 0.30079 0.19907 0.0
C1231 C 0.32632 0.30363 0.17231 0.0
H1232 H 0.29011 0.98638 0.0705 0.0
H1233 H 0.326 0.05337 0.02145 0.0
H1234 H 0.30482 0.08632 0.04308 0.0
H1235 H 0.27207 0.09352 0.07221 0.0
H1236 H 0.23923 0.02792 0.12411 0.0
H1237 H 0.26363 0.99697 0.10528 0.0
C1238 C 0.29342 1.00832 0.06484 0.0
C1239 C 0.30898 1.0175 0.04424 0.0
C1240 C 0.28177 0.02723 0.07777 0.0
C1241 C 0.31382 0.04601 0.03723 0.0
C1242 C 0.30174 0.06475 0.04955 0.0
C1243 C 0.27087 0.07292 0.08013 0.0
C1244 C 0.25322 0.06282 0.09911 0.0
C1245 C 0.28517 0.05533 0.06943 0.0
C1246 C 0.25201 0.03591 0.10894 0.0
C1247 C 0.26597 1.01817 0.09821 0.0
H1248 H 0.75562 0.66238 0.03785 0.0
H1249 H 0.71796 0.73026 0.02835 0.0
H1250 H 0.67519 0.69705 0.03585 0.0
H1251 H 0.64861 0.64955 0.04649 0.0
H1252 H 0.68473 0.58042 0.05439 0.0
H1253 H 0.72798 0.61335 0.04618 0.0
C1254 C 0.73804 0.66989 0.03725 0.0
C1255 C 0.74022 0.699 0.03264 0.0
C1256 C 0.71326 0.65053 0.04152 0.0
C1257 C 0.71707 0.70813 0.0318 0.0
C1258 C 0.69253 0.68914 0.03621 0.0
C1259 C 0.66595 0.64162 0.04659 0.0
C1260 C 0.66353 0.61264 0.0515 0.0
C1261 C 0.69047 0.66046 0.0414 0.0
C1262 C 0.68609 0.60265 0.05086 0.0
C1263 C 0.7108 0.6215 0.04615 0.0
H1264 H 0.77513 0.55779 0.31334 0.0
H1265 H 0.71454 0.48091 0.32946 0.0
H1266 H 0.73826 0.45065 0.30802 0.0
H1267 H 0.7782 0.44623 0.28878 0.0
H1268 H 0.83957 0.52299 0.27402 0.0
H1269 H 0.8134 0.55334 0.29096 0.0
C1270 C 0.76695 0.53441 0.31195 0.0
C1271 C 0.74327 0.52155 0.32319 0.0
C1272 C 0.78086 0.51723 0.30001 0.0
C1273 C 0.73282 0.49128 0.32108 0.0
C1274 C 0.74638 0.47399 0.30888 0.0
C1275 C 0.78555 0.46958 0.28861 0.0
C1276 C 0.81073 0.48242 0.28013 0.0
C1277 C 0.77068 0.48676 0.29879 0.0
C1278 C 0.82028 0.5127 0.28059 0.0
C1279 C 0.80536 0.52999 0.29027 0.0
H1280 H 0.919 0.45499 0.47428 0.0
H1281 H 0.89025 0.50783 0.52881 0.0
H1282 H 0.93445 0.54202 0.53678 0.0
H1283 H 0.9825 0.55363 0.53295 0.0
H1284 H 1.01197 0.50075 0.47974 0.0
H1285 H 0.96639 0.47033 0.4661 0.0
C1286 C 0.92232 0.47419 0.4876 0.0
C1287 C 0.90135 0.47843 0.50121 0.0
C1288 C 0.94799 0.49391 0.49229 0.0
C1289 C 0.90599 0.5037 0.51819 0.0
C1290 C 0.93133 0.52339 0.52283 0.0
C1291 C 0.97869 0.53608 0.51767 0.0
C1292 C 1.00015 0.52952 0.50696 0.0
C1293 C 0.95261 0.51829 0.5106 0.0
C1294 C 0.99543 0.50633 0.48776 0.0
C1295 C 0.96947 0.48879 0.48023 0.0
H1296 H 0.4411 0.14052 0.28881 0.0
H1297 H 0.38623 0.09887 0.34287 0.0
H1298 H 0.3496 0.10929 0.31748 0.0
H1299 H 0.33394 0.13271 0.28252 0.0
H1300 H 0.38678 0.17369 0.22639 0.0
H1301 H 0.42344 0.16048 0.2498 0.0
C1302 C 0.42112 0.13409 0.29499 0.0
C1303 C 0.41628 0.11952 0.31786 0.0
C1304 C 0.39985 0.13959 0.27986 0.0
C1305 C 0.39033 0.11043 0.32545 0.0
C1306 C 0.36937 0.11619 0.31088 0.0
C1307 C 0.35307 0.13799 0.27452 0.0
C1308 C 0.35739 0.15444 0.25267 0.0
C1309 C 0.37395 0.13085 0.2882 0.0
C1310 C 0.38281 0.16137 0.24336 0.0
C1311 C 0.40386 0.15399 0.25684 0.0
H1312 H 0.40151 0.20321 0.52606 0.0
H1313 H 0.35493 0.16949 0.58891 0.0
H1314 H 0.38301 0.13822 0.59846 0.0
H1315 H 0.41962 0.11901 0.58802 0.0
H1316 H 0.46424 0.14944 0.52288 0.0
H1317 H 0.43845 0.18346 0.51538 0.0
C1318 C 0.39785 0.18929 0.54205 0.0
C1319 C 0.37632 0.18872 0.55686 0.0
C1320 C 0.41361 0.17058 0.54693 0.0
C1321 C 0.37142 0.17026 0.57725 0.0
C1322 C 0.38741 0.15232 0.58269 0.0
C1323 C 0.42357 0.13281 0.57198 0.0
C1324 C 0.44393 0.13152 0.5561 0.0
C1325 C 0.40829 0.15193 0.56739 0.0
C1326 C 0.449 0.15014 0.53573 0.0
C1327 C 0.43413 0.16956 0.5313 0.0
H1328 H 0.70768 0.67516 0.35969 0.0
H1329 H 0.77262 0.65251 0.40047 0.0
H1330 H 0.80483 0.69311 0.38352 0.0
H1331 H 0.8144 0.73063 0.35219 0.0
H1332 H 0.74892 0.74966 0.30813 0.0
H1333 H 0.71712 0.71482 0.33091 0.0
C1334 C 0.72885 0.67992 0.36565 0.0
C1335 C 0.73789 0.66144 0.38163 0.0
C1336 C 0.74717 0.70202 0.35445 0.0
C1337 C 0.76534 0.66697 0.38855 0.0
C1338 C 0.78371 0.68985 0.37853 0.0
C1339 C 0.79319 0.72717 0.34762 0.0
C1340 C 0.78411 0.74231 0.3281 0.0
C1341 C 0.77488 0.70673 0.36057 0.0
C1342 C 0.75652 0.73785 0.32265 0.0
C1343 C 0.73825 0.71809 0.33583 0.0
H1344 H 0.91767 0.51639 0.87299 0.0
H1345 H 0.98991 0.49096 0.87233 0.0
H1346 H 0.96343 0.4406 0.86004 0.0
H1347 H 0.9199 0.40513 0.84524 0.0
H1348 H 0.84825 0.43204 0.84482 0.0
H1349 H 0.87455 0.48082 0.86146 0.0
C1350 C 0.9277 0.49981 0.87044 0.0
C1351 C 0.95572 0.50741 0.87321 0.0
C1352 C 0.91248 0.47135 0.86271 0.0
C1353 C 0.96836 0.48562 0.87033 0.0
C1354 C 0.95323 0.45693 0.86303 0.0
C1355 C 0.91004 0.42167 0.8488 0.0
C1356 C 0.88217 0.41506 0.84341 0.0
C1357 C 0.92531 0.44976 0.85839 0.0
C1358 C 0.86966 0.43659 0.84856 0.0
C1359 C 0.88467 0.46448 0.85815 0.0
H1360 H 0.11998 0.89929 0.09625 0.0
H1361 H 0.15007 0.94092 0.17348 0.0
H1362 H 0.1439 0.98641 0.15967 0.0
H1363 H 0.12808 1.01428 0.12606 0.0
H1364 H 0.09528 0.97139 0.0497 0.0
H1365 H 0.10423 0.92708 0.0627 0.0
C1366 C 0.12552 0.91841 0.10996 0.0
C1367 C 0.13573 0.91657 0.13588 0.0
C1368 C 0.12111 0.94446 0.10209 0.0
C1369 C 0.14228 0.94159 0.15342 0.0
C1370 C 0.13867 0.96768 0.14554 0.0
C1371 C 0.12293 0.99528 0.11222 0.0
C1372 C 0.11085 0.99647 0.08687 0.0
C1373 C 0.12777 0.96937 0.12 0.0
C1374 C 0.10436 0.97137 0.06938 0.0
C1375 C 0.10957 0.94587 0.07678 0.0
H1376 H 0.94316 0.31436 0.95996 0.0
H1377 H 0.98759 0.28476 0.90263 0.0
H1378 H 0.95366 0.2856 0.86777 0.0
H1379 H 0.9125 0.2972 0.85287 0.0
H1380 H 0.86804 0.32697 0.91005 0.0
H1381 H 0.90058 0.32337 0.94527 0.0
C1382 C 0.94536 0.3078 0.93989 0.0
C1383 C 0.96818 0.29958 0.93416 0.0
C1384 C 0.9257 0.30848 0.91968 0.0
C1385 C 0.97043 0.29122 0.90787 0.0
C1386 C 0.95098 0.29175 0.88779 0.0
C1387 C 0.90971 0.30267 0.87303 0.0
C1388 C 0.8877 0.3125 0.87855 0.0
C1389 C 0.9287 0.30071 0.89337 0.0
C1390 C 0.88467 0.31942 0.90496 0.0
C1391 C 0.90338 0.31741 0.92523 0.0
H1392 H 0.59856 0.24707 0.62731 0.0
H1393 H 0.67773 0.26787 0.60204 0.0
H1394 H 0.67096 0.21715 0.58758 0.0
H1395 H 0.64216 0.16682 0.58051 0.0
H1396 H 0.5619 0.14612 0.60298 0.0
H1397 H 0.56947 0.19637 0.61995 0.0
C1398 C 0.61438 0.24044 0.61884 0.0
C1399 C 0.63865 0.26142 0.61585 0.0
C1400 C 0.61013 0.21108 0.60986 0.0
C1401 C 0.6588 0.25235 0.60451 0.0
C1402 C 0.65497 0.22325 0.59622 0.0
C1403 C 0.62637 0.17321 0.58929 0.0
C1404 C 0.60152 0.1525 0.5905 0.0
C1405 C 0.63065 0.20242 0.59855 0.0
C1406 C 0.58123 0.16146 0.6017 0.0
C1407 C 0.58555 0.19028 0.61146 0.0
H1408 H 0.58662 0.78752 0.3859 0.0
H1409 H 0.64055 0.82156 0.45551 0.0
H1410 H 0.67869 0.82703 0.42956 0.0
H1411 H 0.69654 0.82441 0.38646 0.0
H1412 H 0.64182 0.79101 0.31722 0.0
H1413 H 0.60419 0.78325 0.34367 0.0
C1414 C 0.6067 0.79595 0.39552 0.0
C1415 C 0.61069 0.80417 0.42264 0.0
C1416 C 0.62842 0.7994 0.38046 0.0
C1417 C 0.63689 0.81505 0.43468 0.0
C1418 C 0.65871 0.81826 0.41982 0.0
C1419 C 0.67639 0.81514 0.37723 0.0
C1420 C 0.67204 0.80852 0.34981 0.0
C1421 C 0.6547 0.81083 0.39261 0.0
C1422 C 0.64576 0.79676 0.33816 0.0
C1423 C 0.62421 0.79216 0.3533 0.0
H1424 H 0.05778 0.22815 0.48659 0.0
H1425 H 0.10451 0.21747 0.42347 0.0
H1426 H 0.10797 0.17161 0.44012 0.0
H1427 H 0.09811 0.1332 0.47393 0.0
H1428 H 0.05116 0.14654 0.5363 0.0
H1429 H 0.04777 0.19114 0.51882 0.0
C1430 C 0.06881 0.21608 0.47607 0.0
C1431 C 0.08078 0.22762 0.45316 0.0
C1432 C 0.07078 0.18925 0.48597 0.0
C1433 C 0.09482 0.21032 0.44078 0.0
C1434 C 0.09685 0.18364 0.45054 0.0
C1435 C 0.08695 0.14562 0.48378 0.0
C1436 C 0.07481 0.13501 0.50709 0.0
C1437 C 0.08496 0.17257 0.4733 0.0
C1438 C 0.06081 0.15276 0.51876 0.0
C1439 C 0.05882 0.17885 0.5086 0.0
H1440 H 0.69064 0.34896 0.19497 0.0
H1441 H 0.63767 0.30423 0.24896 0.0
H1442 H 0.67636 0.29844 0.27612 0.0
H1443 H 0.72685 0.30485 0.28486 0.0
H1444 H 0.77847 0.35186 0.23071 0.0
H1445 H 0.73983 0.3575 0.20454 0.0
C1446 C 0.68712 0.33806 0.2128 0.0
C1447 C 0.6599 0.32729 0.21917 0.0
C1448 C 0.71003 0.33488 0.2288 0.0
C1449 C 0.65737 0.31329 0.24281 0.0
C1450 C 0.67997 0.30976 0.25854 0.0
C1451 C 0.72993 0.31642 0.26736 0.0
C1452 C 0.75703 0.32767 0.26044 0.0
C1453 C 0.70669 0.32023 0.25184 0.0
C1454 C 0.75902 0.34268 0.23738 0.0
C1455 C 0.73644 0.34599 0.22205 0.0
H1456 H 0.58575 0.87553 0.98107 0.0
H1457 H 0.59818 0.90972 0.90586 0.0
H1458 H 0.59666 0.95702 0.9243 0.0
H1459 H 0.59186 0.99048 0.96228 0.0
H1460 H 0.58014 0.95603 0.03758 0.0
H1461 H 0.58137 0.9089 0.01896 0.0
C1462 C 0.58812 0.89318 0.96851 0.0
C1463 C 0.59207 0.88791 0.94153 0.0
C1464 C 0.58737 0.92123 0.97953 0.0
C1465 C 0.59509 0.91206 0.9264 0.0
C1466 C 0.59422 0.93958 0.9371 0.0
C1467 C 0.58956 0.97281 0.97482 0.0
C1468 C 0.58586 0.97806 1.00193 0.0
C1469 C 0.59039 0.94476 0.96374 0.0
C1470 C 0.58305 0.95386 0.01699 0.0
C1471 C 0.58373 0.92636 1.00618 0.0
H1472 H 0.96632 0.79599 0.69096 0.0
H1473 H 1.02198 0.82884 0.75938 0.0
H1474 H 0.98527 0.83201 0.78487 0.0
H1475 H 0.93589 0.82605 0.7894 0.0
H1476 H 0.87962 0.78808 0.72248 0.0
H1477 H 0.91646 0.78657 0.69642 0.0
C1478 C 0.9708 0.80386 0.71146 0.0
C1479 C 0.99854 0.81236 0.72235 0.0
C1480 C 0.94856 0.80482 0.72705 0.0
C1481 C 1.002 0.82199 0.74946 0.0
C1482 C 0.98048 0.82391 0.76443 0.0
C1483 C 0.93129 0.8173 0.76913 0.0
C1484 C 0.90343 0.80732 0.75873 0.0
C1485 C 0.9534 0.81548 0.75374 0.0
C1486 C 0.89972 0.79599 0.73205 0.0
C1487 C 0.92132 0.79516 0.71674 0.0
H1488 H 0.15949 0.02803 0.91405 0.0
H1489 H 0.23614 0.0771 0.95277 0.0
H1490 H 0.2159 0.0798 0.99413 0.0
H1491 H 0.17513 0.07359 0.01711 0.0
H1492 H 0.09852 0.02765 0.97592 0.0
H1493 H 0.12009 1.01853 0.93739 0.0
C1494 C 0.17189 0.03905 0.93163 0.0
C1495 C 0.1991 0.05276 0.93044 0.0
C1496 C 0.16001 0.04145 0.95466 0.0
C1497 C 0.21508 0.06646 0.95334 0.0
C1498 C 0.20346 0.06821 0.97683 0.0
C1499 C 0.16325 0.0613 0.99978 0.0
C1500 C 0.13526 0.05168 0.99914 0.0
C1501 C 0.17575 0.05668 0.97742 0.0
C1502 C 0.12005 0.0357 0.97668 0.0
C1503 C 0.13235 0.03037 0.9547 0.0
H1504 H 0.86001 0.36412 0.56408 0.0
H1505 H 0.8153 0.41744 0.59729 0.0
H1506 H 0.82187 0.3997 0.64032 0.0
H1507 H 0.84144 0.37004 0.66858 0.0
H1508 H 0.88762 0.31852 0.6354 0.0
H1509 H 0.8793 0.3346 0.59202 0.0
C1510 C 0.85153 0.37179 0.58066 0.0
C1511 C 0.83712 0.39204 0.57746 0.0
C1512 C 0.85571 0.36187 0.60527 0.0
C1513 C 0.82656 0.40195 0.59925 0.0
C1514 C 0.83026 0.39178 0.62382 0.0
C1515 C 0.84941 0.36213 0.65174 0.0
C1516 C 0.86499 0.34304 0.655 0.0
C1517 C 0.84492 0.37186 0.62705 0.0
C1518 C 0.87565 0.3333 0.63325 0.0
C1519 C 0.87087 0.34245 0.60853 0.0
H1520 H 0.53952 0.13513 0.41013 0.0
H1521 H 0.46337 0.11341 0.44216 0.0
H1522 H 0.4849 0.10729 0.48451 0.0
H1523 H 0.52355 0.09939 0.50918 0.0
H1524 H 0.5993 0.11847 0.47657 0.0
H1525 H 0.57969 0.13447 0.43743 0.0
C1526 C 0.52771 0.12966 0.42656 0.0
C1527 C 0.49984 0.12403 0.42294 0.0
C1528 C 0.54005 0.12513 0.45042 0.0
C1529 C 0.48482 0.11757 0.44443 0.0
C1530 C 0.49708 0.1138 0.46854 0.0
C1531 C 0.53587 0.10741 0.49364 0.0
C1532 C 0.56261 0.10708 0.4953 0.0
C1533 C 0.52439 0.11607 0.47124 0.0
C1534 C 0.57858 0.11824 0.47548 0.0
C1535 C 0.56736 0.12727 0.45313 0.0
H1536 H 0.83902 0.7458 0.12691 0.0
H1537 H 0.8085 0.81672 0.10708 0.0
H1538 H 0.80767 0.83012 0.15326 0.0
H1539 H 0.81468 0.82195 0.19999 0.0
H1540 H 0.8462 0.75218 0.22073 0.0
H1541 H 0.84747 0.73855 0.17432 0.0
C1542 C 0.83235 0.76431 0.13262 0.0
C1543 C 0.82382 0.78001 0.11288 0.0
C1544 C 0.8319 0.77224 0.15979 0.0
C1545 C 0.81523 0.80394 0.12126 0.0
C1546 C 0.81466 0.81173 0.14793 0.0
C1547 C 0.82179 0.80369 0.19446 0.0
C1548 C 0.83013 0.78812 0.21431 0.0
C1549 C 0.82275 0.79601 0.16746 0.0
C1550 C 0.83951 0.7647 0.20627 0.0
C1551 C 0.84028 0.75681 0.17953 0.0
H1552 H 0.19728 0.09773 0.78832 0.0
H1553 H 0.12549 0.03322 0.80365 0.0
H1554 H 0.10349 0.03929 0.76158 0.0
H1555 H 0.1035 0.06588 0.72257 0.0
H1556 H 0.17418 0.13244 0.70804 0.0
H1557 H 0.19797 0.12271 0.74781 0.0
C1558 C 0.17704 0.08456 0.78208 0.0
C1559 C 0.16292 0.06507 0.79884 0.0
C1560 C 0.16425 0.08897 0.75839 0.0
C1561 C 0.13661 0.04838 0.79092 0.0
C1562 C 0.12402 0.05197 0.76702 0.0
C1563 C 0.12405 0.0784 0.72826 0.0
C1564 C 0.13699 0.10017 0.71284 0.0
C1565 C 0.13739 0.07282 0.75104 0.0
C1566 C 0.16384 0.1157 0.71985 0.0
C1567 C 0.1774 0.11012 0.74249 0.0
H1568 H 0.78708 0.37737 0.45515 0.0
H1569 H 0.82351 0.4638 0.43412 0.0
H1570 H 0.82881 0.44424 0.3902 0.0
H1571 H 0.82736 0.40173 0.35988 0.0
H1572 H 0.79169 0.31567 0.38311 0.0
H1573 H 0.78191 0.33599 0.42412 0.0
C1574 C 0.79581 0.39199 0.44079 0.0
C1575 C 0.80509 0.42187 0.44777 0.0
C1576 C 0.79929 0.38059 0.41614 0.0
C1577 C 0.81611 0.44067 0.42903 0.0
C1578 C 0.81937 0.42945 0.40408 0.0
C1579 C 0.81724 0.38746 0.37382 0.0
C1580 C 0.81071 0.35717 0.36852 0.0
C1581 C 0.81175 0.39932 0.39771 0.0
C1582 C 0.79737 0.33902 0.38673 0.0
C1583 C 0.79165 0.35059 0.41023 0.0
H1584 H 0.54178 0.05691 0.30629 0.0
H1585 H 0.4746 0.08422 0.27617 0.0
H1586 H 0.4838 0.07373 0.23132 0.0
H1587 H 0.51119 0.05732 0.20084 0.0
H1588 H 0.57751 0.02879 0.23083 0.0
H1589 H 0.56837 0.03927 0.27588 0.0
C1590 C 0.52918 0.06065 0.28993 0.0
C1591 C 0.50766 0.07149 0.2945 0.0
C1592 C 0.53445 0.05441 0.26431 0.0
C1593 C 0.49127 0.07583 0.27313 0.0
C1594 C 0.49655 0.06994 0.24751 0.0
C1595 C 0.5237 0.05362 0.21732 0.0
C1596 C 0.5451 0.04265 0.21281 0.0
C1597 C 0.51814 0.05936 0.24293 0.0
C1598 C 0.56094 0.03728 0.23407 0.0
C1599 C 0.55575 0.0433 0.2597 0.0
H1600 H 0.84458 0.79444 0.97297 0.0
H1601 H 0.80834 0.70332 0.9517 0.0
H1602 H 0.80876 0.71177 0.90524 0.0
H1603 H 0.81958 0.74494 0.86974 0.0
H1604 H 0.85746 0.83589 0.891 0.0
H1605 H 0.85638 0.82752 0.93734 0.0
C1606 C 0.83657 0.77645 0.95821 0.0
C1607 C 0.82624 0.7482 0.96628 0.0
C1608 C 0.83738 0.78137 0.93104 0.0
C1609 C 0.81638 0.7253 0.94647 0.0
C1610 C 0.81666 0.7301 0.91967 0.0
C1611 C 0.82781 0.76297 0.88443 0.0
C1612 C 0.8387 0.79111 0.87625 0.0
C1613 C 0.82723 0.75802 0.91157 0.0
C1614 C 0.84906 0.81394 0.89612 0.0
C1615 C 0.84835 0.80921 0.92292 0.0
H1616 H 0.90031 0.15673 0.04981 0.0
H1617 H 0.85437 0.09585 0.09908 0.0
H1618 H 0.88086 0.06278 0.0902 0.0
H1619 H 0.91632 0.05074 0.06735 0.0
H1620 H 0.96118 0.11145 0.01724 0.0
H1621 H 0.93549 0.14485 0.02715 0.0
C1622 C 0.89628 0.13636 0.05884 0.0
C1623 C 0.87558 0.12876 0.07518 0.0
C1624 C 0.91108 0.11726 0.05314 0.0
C1625 C 0.8703 0.10215 0.08646 0.0
C1626 C 0.88535 0.08322 0.08132 0.0
C1627 C 0.9204 0.07129 0.05862 0.0
C1628 C 0.94037 0.07852 0.0414 0.0
C1629 C 0.90561 0.09044 0.06447 0.0
C1630 C 0.94548 0.10515 0.03013 0.0
C1631 C 0.93102 0.12438 0.03599 0.0
H1632 H 0.41565 0.46275 0.06409 0.0
H1633 H 0.43851 0.39853 0.01705 0.0
H1634 H 0.48128 0.43362 1.01228 0.0
H1635 H 0.51305 0.48212 0.02259 0.0
H1636 H 0.49166 0.54535 0.07213 0.0
H1637 H 0.44751 0.51136 0.07446 0.0
C1638 C 0.42996 0.45642 0.05276 0.0
C1639 C 0.42376 0.4279 0.04104 0.0
C1640 C 0.45481 0.47667 0.05036 0.0
C1641 C 0.4427 0.42017 0.02651 0.0
C1642 C 0.46719 0.4403 0.02364 0.0
C1643 C 0.49854 0.48863 0.0335 0.0
C1644 C 0.50552 0.51638 0.04689 0.0
C1645 C 0.47352 0.46858 0.03555 0.0
C1646 C 0.48672 0.5242 0.0615 0.0
C1647 C 0.46151 0.50471 0.06294 0.0
H1648 H 0.38872 0.58445 0.75197 0.0
H1649 H 0.45898 0.64896 0.78905 0.0
H1650 H 0.43127 0.67668 0.80685 0.0
H1651 H 0.38754 0.68202 0.81277 0.0
H1652 H 0.31685 0.61953 0.77445 0.0
H1653 H 0.34429 0.59061 0.75719 0.0
C1654 C 0.39794 0.6048 0.76361 0.0
C1655 C 0.42583 0.61476 0.76912 0.0
C1656 C 0.38186 0.62045 0.7741 0.0
C1657 C 0.43755 0.64094 0.78448 0.0
C1658 C 0.42175 0.65666 0.79483 0.0
C1659 C 0.37811 0.66209 0.80056 0.0
C1660 C 0.3503 0.65297 0.79467 0.0
C1661 C 0.39395 0.64644 0.79 0.0
C1662 C 0.33824 0.62681 0.77939 0.0
C1663 C 0.35394 0.61055 0.76926 0.0
H1664 H 0.23444 0.66498 0.60573 0.0
H1665 H 0.26174 0.6183 0.54502 0.0
H1666 H 0.21674 0.5853 0.53487 0.0
H1667 H 0.16954 0.57054 0.54257 0.0
H1668 H 0.14246 0.61512 0.60505 0.0
H1669 H 0.18755 0.6478 0.6156 0.0
C1670 C 0.23039 0.64758 0.59028 0.0
C1671 C 0.25108 0.6441 0.57592 0.0
C1672 C 0.20467 0.6282 0.58509 0.0
C1673 C 0.24594 0.62127 0.55625 0.0
C1674 C 0.22029 0.60244 0.55047 0.0
C1675 C 0.1736 0.58722 0.55868 0.0
C1676 C 0.15279 0.59049 0.57298 0.0
C1677 C 0.19951 0.60575 0.56471 0.0
C1678 C 0.15826 0.61206 0.59389 0.0
C1679 C 0.18396 0.6309 0.59979 0.0
H1680 H 0.77035 0.99247 0.72506 0.0
H1681 H 0.82242 0.07754 0.75106 0.0
H1682 H 0.86117 0.05929 0.75079 0.0
H1683 H 0.87801 1.01686 0.75401 0.0
H1684 H 0.82549 0.93187 0.72817 0.0
H1685 H 0.78962 0.95252 0.71624 0.0
C1686 C 0.79029 1.00714 0.72977 0.0
C1687 C 0.7936 0.036 0.73876 0.0
C1688 C 0.81245 0.99648 0.72973 0.0
C1689 C 0.81944 0.05509 0.74434 0.0
C1690 C 0.8416 0.04464 0.74435 0.0
C1691 C 0.85905 1.00309 0.7447 0.0
C1692 C 0.8542 0.97288 0.74276 0.0
C1693 C 0.83812 1.01501 0.73867 0.0
C1694 C 0.82976 0.95522 0.73015 0.0
C1695 C 0.809 0.96696 0.72367 0.0
H1696 H 0.81324 0.97519 0.56254 0.0
H1697 H 0.75134 0.89582 0.53777 0.0
H1698 H 0.71827 0.92259 0.53465 0.0
H1699 H 0.70743 0.96906 0.53659 0.0
H1700 H 0.76978 0.04816 0.56135 0.0
H1701 H 0.80215 1.02099 0.56648 0.0
C1702 C 0.79248 0.96365 0.55669 0.0
C1703 C 0.78482 0.93352 0.55036 0.0
C1704 C 0.77366 0.97921 0.5546 0.0
C1705 C 0.75781 0.91899 0.54279 0.0
C1706 C 0.73889 0.93431 0.5409 0.0
C1707 C 0.72803 0.98032 0.54339 0.0
C1708 C 0.73614 1.01072 0.54829 0.0
C1709 C 0.74665 0.96451 0.54641 0.0
C1710 C 0.76302 1.02491 0.55689 0.0
C1711 C 0.78156 1.00935 0.56003 0.0
H1712 H 0.46925 0.45343 0.76544 0.0
H1713 H 0.41069 0.48569 0.72356 0.0
H1714 H 0.37527 0.44316 0.73277 0.0
H1715 H 0.36059 0.39922 0.75678 0.0
H1716 H 0.42022 0.36978 0.80044 0.0
H1717 H 0.4553 0.40893 0.78666 0.0
C1718 C 0.44884 0.45096 0.75776 0.0
C1719 C 0.44268 0.47282 0.74396 0.0
C1720 C 0.42856 0.4272 0.76399 0.0
C1721 C 0.41603 0.46919 0.73431 0.0
C1722 C 0.39571 0.445 0.73977 0.0
C1723 C 0.38125 0.40142 0.76324 0.0
C1724 C 0.38759 0.38175 0.77993 0.0
C1725 C 0.40166 0.42433 0.75537 0.0
C1726 C 0.41455 0.38472 0.78787 0.0
C1727 C 0.43478 0.40707 0.77989 0.0
H1728 H 0.25941 0.65716 0.27237 0.0
H1729 H 0.21979 0.65942 0.3429 0.0
H1730 H 0.24169 0.71129 0.35087 0.0
H1731 H 0.27287 0.75533 0.33862 0.0
H1732 H 0.31342 0.7536 0.26889 0.0
H1733 H 0.28983 0.70199 0.25944 0.0
C1734 C 0.25544 0.66897 0.28945 0.0
C1735 C 0.23802 0.65432 0.30706 0.0
C1736 C 0.26821 0.69877 0.29402 0.0
C1737 C 0.23302 0.67008 0.32897 0.0
C1738 C 0.24559 0.69974 0.3336 0.0
C1739 C 0.27685 0.74367 0.32154 0.0
C1740 C 0.29531 0.75812 0.30482 0.0
C1741 C 0.26342 0.71417 0.31642 0.0
C1742 C 0.29943 0.7429 0.28217 0.0
C1743 C 0.28601 0.71341 0.27682 0.0
H1744 H 0.58026 0.73191 0.48496 0.0
H1745 H 0.5009 0.7064 0.50957 0.0
H1746 H 0.50751 0.66129 0.52368 0.0
H1747 H 0.53668 0.62991 0.53148 0.0
H1748 H 0.61741 0.65727 0.51048 0.0
H1749 H 0.6095 0.7003 0.49269 0.0
C1750 C 0.5643 0.71626 0.49305 0.0
C1751 C 0.53999 0.72257 0.49594 0.0
C1752 C 0.56859 0.6906 0.50207 0.0
C1753 C 0.51976 0.7022 0.50701 0.0
C1754 C 0.52356 0.67634 0.51517 0.0
C1755 C 0.55247 0.64512 0.52276 0.0
C1756 C 0.57761 0.6401 0.52229 0.0
C1757 C 0.54801 0.67042 0.51317 0.0
C1758 C 0.59789 0.66045 0.51123 0.0
C1759 C 0.59336 0.68515 0.50099 0.0
H1760 H 0.74743 0.36632 0.67212 0.0
H1761 H 0.68282 0.35429 0.7215 0.0
H1762 H 0.71244 0.35076 0.75911 0.0
H1763 H 0.75591 0.34834 0.778 0.0
H1764 H 0.82117 0.36084 0.72956 0.0
H1765 H 0.79226 0.3669 0.69199 0.0
C1766 C 0.73989 0.36329 0.69116 0.0
C1767 C 0.71269 0.36045 0.69367 0.0
C1768 C 0.75716 0.36108 0.71304 0.0
C1769 C 0.70348 0.35645 0.71867 0.0
C1770 C 0.72045 0.35435 0.74034 0.0
C1771 C 0.76395 0.35257 0.7593 0.0
C1772 C 0.79077 0.35383 0.75677 0.0
C1773 C 0.74721 0.35617 0.73772 0.0
C1774 C 0.80066 0.35956 0.73226 0.0
C1775 C 0.78407 0.36304 0.71066 0.0
H1776 H 0.04055 0.37265 0.02558 0.0
H1777 H 0.06677 0.40032 0.9511 0.0
H1778 H 0.0742 0.45065 0.96686 0.0
H1779 H 0.07455 0.48749 1.00193 0.0
H1780 H 0.04642 0.46095 0.07593 0.0
H1781 H 1.03842 0.41006 0.0603 0.0
C1782 C 0.04778 0.38969 1.0128 0.0
C1783 C 0.0532 0.38242 0.98715 0.0
C1784 C 0.05176 0.41904 0.02193 0.0
C1785 C 0.06238 0.40497 0.97088 0.0
C1786 C 0.06673 0.43395 0.97991 0.0
C1787 C 0.06661 0.47062 0.01468 0.0
C1788 C 0.06128 0.47827 0.04019 0.0
C1789 C 0.0617 0.44131 1.00542 0.0
C1790 C 0.0507 0.45588 0.05621 0.0
C1791 C 0.04618 0.42667 0.04728 0.0
H1792 H 0.04539 0.83041 0.16869 0.0
H1793 H 0.0901 0.79044 0.22076 0.0
H1794 H 0.05233 0.77576 0.24687 0.0
H1795 H 1.00751 0.77635 0.25632 0.0
H1796 H 0.9637 0.81913 0.20608 0.0
H1797 H 0.99984 0.83002 0.17771 0.0
C1798 C 0.0467 0.81817 0.18556 0.0
C1799 C 0.07054 0.81157 0.19278 0.0
C1800 C 1.02505 0.81033 0.20092 0.0
C1801 C 0.07203 0.79592 0.21483 0.0
C1802 C 0.05044 0.78753 0.22981 0.0
C1803 C 1.00586 0.78821 0.23927 0.0
C1804 C 0.9828 0.79693 0.23354 0.0
C1805 C 1.02702 0.79506 0.22332 0.0
C1806 C 0.98095 0.81175 0.21093 0.0
C1807 C 1.00175 0.81822 0.19474 0.0
H1808 H 0.58168 0.42611 0.17913 0.0
H1809 H 0.58487 0.36862 0.11291 0.0
H1810 H 0.58789 0.40762 0.08407 0.0
H1811 H 0.58917 0.45895 0.07586 0.0
H1812 H 0.58721 0.51738 0.14174 0.0
H1813 H 0.58432 0.47848 0.17098 0.0
C1814 C 0.58314 0.42186 0.15844 0.0
C1815 C 0.58296 0.39309 0.149 0.0
C1816 C 0.58511 0.44529 0.14116 0.0
C1817 C 0.58491 0.38955 0.12165 0.0
C1818 C 0.58664 0.41228 0.10475 0.0
C1819 C 0.58824 0.46356 0.09662 0.0
C1820 C 0.58848 0.49237 0.10576 0.0
C1821 C 0.5867 0.44043 0.114 0.0
C1822 C 0.58714 0.49637 0.1332 0.0
C1823 C 0.58544 0.47366 0.15029 0.0
H1824 H 0.97454 0.2875 0.40526 0.0
H1825 H 1.02665 0.33193 0.35051 0.0
H1826 H 0.98792 0.33926 0.32466 0.0
H1827 H 0.93776 0.33452 0.31746 0.0
H1828 H 0.88633 0.28568 0.37071 0.0
H1829 H 0.92512 0.2791 0.3962 0.0
C1830 C 0.97777 0.2985 0.38746 0.0
C1831 C 1.00475 0.30878 0.38043 0.0
C1832 C 0.95476 0.30228 0.37204 0.0
C1833 C 1.00705 0.32308 0.35697 0.0
C1834 C 0.98447 0.32756 0.34206 0.0
C1835 C 0.93478 0.32238 0.33463 0.0
C1836 C 0.90782 0.31101 0.3417 0.0
C1837 C 0.95797 0.31756 0.34934 0.0
C1838 C 0.9058 0.29501 0.36412 0.0
C1839 C 0.92842 0.29116 0.379 0.0
H1840 H 0.08655 0.74597 0.60307 0.0
H1841 H 0.04747 0.71323 0.6705 0.0
H1842 H 0.04312 0.66333 0.65249 0.0
H1843 H 0.05169 0.62759 0.61704 0.0
H1844 H 0.09098 0.66389 0.55058 0.0
H1845 H 0.09376 0.71219 0.56871 0.0
C1846 C 0.07685 0.72821 0.6142 0.0
C1847 C 0.06737 0.73478 0.6387 0.0
C1848 C 0.0745 0.69922 0.60362 0.0
C1849 C 0.05494 0.71016 0.65179 0.0
C1850 C 0.05257 0.68116 0.64135 0.0
C1851 C 0.06079 0.64593 0.6063 0.0
C1852 C 0.07111 0.64064 0.58171 0.0
C1853 C 0.06243 0.67511 0.61718 0.0
C1854 C 0.08273 0.66583 0.56906 0.0
C1855 C 0.0844 0.69406 0.5796 0.0
H1856 H 0.69263 0.84184 0.89571 0.0
H1857 H 0.63834 0.77216 0.84542 0.0
H1858 H 0.67532 0.76675 0.82138 0.0
H1859 H 0.72452 0.78114 0.81306 0.0
H1860 H 0.7783 0.85343 0.86084 0.0
H1861 H 0.74161 0.85788 0.88589 0.0
C1862 C 0.68853 0.82526 0.87958 0.0
C1863 C 0.66118 0.80721 0.8734 0.0
C1864 C 0.71069 0.82257 0.86462 0.0
C1865 C 0.65804 0.78656 0.85163 0.0
C1866 C 0.67971 0.78338 0.8375 0.0
C1867 C 0.7286 0.79807 0.82888 0.0
C1868 C 0.75574 0.81687 0.83423 0.0
C1869 C 0.7064 0.80116 0.84353 0.0
C1870 C 0.75874 0.83839 0.85527 0.0
C1871 C 0.73725 0.84098 0.87001 0.0
H1872 H 0.48389 0.58161 0.67486 0.0
H1873 H 0.55583 0.62832 0.72296 0.0
H1874 H 0.57949 0.63917 0.68394 0.0
H1875 H 0.58239 0.62367 0.63821 0.0
H1876 H 0.5116 0.57225 0.59102 0.0
H1877 H 0.48464 0.57511 0.62721 0.0
C1878 C 0.50437 0.59531 0.67662 0.0
C1879 C 0.51833 0.6038 0.70151 0.0
C1880 C 0.51824 0.59974 0.65424 0.0
C1881 C 0.54489 0.62139 0.70381 0.0
C1882 C 0.55847 0.6273 0.68155 0.0
C1883 C 0.56095 0.61391 0.63568 0.0
C1884 C 0.54897 0.59689 0.61253 0.0
C1885 C 0.54585 0.61474 0.65691 0.0
C1886 C 0.5212 0.58455 0.60918 0.0
C1887 C 0.50582 0.5863 0.62979 0.0
H1888 H 0.80277 0.24085 0.04431 0.0
H1889 H 0.81151 0.17358 0.98992 0.0
H1890 H 0.79547 0.19654 0.95327 0.0
H1891 H 0.78289 0.23801 0.9369 0.0
H1892 H 0.7721 0.30383 0.99188 0.0
H1893 H 0.78499 0.27888 0.0284 0.0
C1894 C 0.80105 0.2311 0.02448 0.0
C1895 C 0.8087 0.20588 0.0197 0.0
C1896 C 0.79152 0.24414 1.00374 0.0
C1897 C 0.80588 0.19315 0.99397 0.0
C1898 C 0.79674 0.20627 0.97308 0.0
C1899 C 0.78261 0.24653 0.95685 0.0
C1900 C 0.77687 0.27299 0.96162 0.0
C1901 C 0.78995 0.23205 0.97774 0.0
C1902 C 0.77696 0.28383 0.98765 0.0
C1903 C 0.78428 0.26957 1.00853 0.0
H1904 H 0.18496 0.53987 0.20224 0.0
H1905 H 0.12729 0.56182 0.24869 0.0
H1906 H 0.09749 0.55891 0.20926 0.0
H1907 H 0.08942 0.55418 0.16141 0.0
H1908 H 0.147 0.53202 0.11492 0.0
H1909 H 0.17491 0.53056 0.15458 0.0
C1910 C 0.1658 0.54382 0.20373 0.0
C1911 C 0.15852 0.55136 0.22828 0.0
C1912 C 0.14869 0.54211 0.18099 0.0
C1913 C 0.13344 0.556 0.22998 0.0
C1914 C 0.11637 0.55443 0.20745 0.0
C1915 C 0.1079 0.54868 0.15995 0.0
C1916 C 0.11625 0.54365 0.13527 0.0
C1917 C 0.12403 0.54808 0.18282 0.0
C1918 C 0.14014 0.53623 0.1337 0.0
C1919 C 0.15622 0.53548 0.15637 0.0
H1920 H 0.82484 0.89308 0.45646 0.0
H1921 H 0.85438 0.8263 0.48815 0.0
H1922 H 0.85756 0.80712 0.44339 0.0
H1923 H 0.85163 0.8094 0.3944 0.0
H1924 H 0.81862 0.87462 0.36434 0.0
H1925 H 0.81732 0.89424 0.40889 0.0
C1926 C 0.832 0.87429 0.4537 0.0
C1927 C 0.83946 0.8613 0.4759 0.0
C1928 C 0.83328 0.86311 0.42791 0.0
C1929 C 0.8484 0.83676 0.47162 0.0
C1930 C 0.85031 0.82585 0.44592 0.0
C1931 C 0.84438 0.82804 0.39767 0.0
C1932 C 0.83551 0.84069 0.37578 0.0
C1933 C 0.84285 0.83886 0.42378 0.0
C1934 C 0.82565 0.86447 0.38058 0.0
C1935 C 0.82487 0.87573 0.40616 0.0
H1936 H 0.52666 0.53928 0.80364 0.0
H1937 H 0.44932 0.52017 0.8331 0.0
H1938 H 0.46612 0.4998 0.87101 0.0
H1939 H 0.50415 0.49317 0.89808 0.0
H1940 H 0.58198 0.51549 0.86957 0.0
H1941 H 0.5633 0.52765 0.8283 0.0
C1942 C 0.51338 0.53039 0.81821 0.0
C1943 C 0.48698 0.53172 0.81595 0.0
C1944 C 0.52322 0.51909 0.83995 0.0
C1945 C 0.46986 0.51972 0.83469 0.0
C1946 C 0.47943 0.50805 0.8563 0.0
C1947 C 0.51691 0.50033 0.88265 0.0
C1948 C 0.54444 0.50392 0.88698 0.0
C1949 C 0.50628 0.50848 0.85949 0.0
C1950 C 0.56071 0.51248 0.86668 0.0
C1951 C 0.55012 0.51981 0.84322 0.0
H1952 H 0.88129 0.26643 0.15075 0.0
H1953 H 0.83489 0.18073 0.16554 0.0
H1954 H 0.83459 0.19695 0.21143 0.0
H1955 H 0.8387 0.23815 0.24402 0.0
H1956 H 0.88428 0.32399 0.22816 0.0
H1957 H 0.89365 0.30515 0.18613 0.0
C1958 C 0.87193 0.25111 0.16431 0.0
C1959 C 0.85759 0.22272 0.1548 0.0
C1960 C 0.87092 0.26086 0.19028 0.0
C1961 C 0.84593 0.2028 0.17246 0.0
C1962 C 0.84537 0.2122 0.19862 0.0
C1963 C 0.85098 0.25257 0.23148 0.0
C1964 C 0.86004 0.28248 0.23873 0.0
C1965 C 0.85627 0.24161 0.20722 0.0
C1966 C 0.87667 0.30091 0.22279 0.0
C1967 C 0.88207 0.29019 0.19874 0.0
H1968 H 0.21235 0.52157 0.3491 0.0
H1969 H 0.26511 0.60811 0.35014 0.0
H1970 H 0.25026 0.62128 0.39195 0.0
H1971 H 0.2153 0.61053 0.42261 0.0
H1972 H 0.16138 0.52407 0.41961 0.0
H1973 H 0.18393 0.50825 0.38453 0.0
C1974 C 0.22139 0.54291 0.35916 0.0
C1975 C 0.23953 0.56392 0.34679 0.0
C1976 C 0.2121 0.55045 0.38253 0.0
C1977 C 0.25125 0.59156 0.35964 0.0
C1978 C 0.24242 0.5992 0.38327 0.0
C1979 C 0.20893 0.58812 0.41457 0.0
C1980 C 0.1865 0.56861 0.4233 0.0
C1981 C 0.22173 0.57925 0.39404 0.0
C1982 C 0.17861 0.53949 0.41319 0.0
C1983 C 0.19139 0.53044 0.39302 0.0
H1984 H 0.825 0.81461 0.62071 0.0
H1985 H 0.84896 0.90771 0.63257 0.0
H1986 H 0.84484 0.90477 0.67974 0.0
H1987 H 0.83553 0.87534 0.71853 0.0
H1988 H 0.8078 0.78223 0.70497 0.0
H1989 H 0.81211 0.78567 0.65829 0.0
C1990 C 0.82925 0.83431 0.63355 0.0
C1991 C 0.83753 0.86138 0.62279 0.0
C1992 C 0.8261 0.83246 0.66072 0.0
C1993 C 0.84254 0.88655 0.64 0.0
C1994 C 0.84025 0.88487 0.66714 0.0
C1995 C 0.83019 0.85582 0.70534 0.0
C1996 C 0.82126 0.8285 0.71572 0.0
C1997 C 0.83218 0.8579 0.67788 0.0
C1998 C 0.81443 0.80359 0.69795 0.0
C1999 C 0.81706 0.80549 0.67104 0.0
H2000 H 0.8094 0.51738 0.57132 0.0
H2001 H 0.7381 0.44914 0.54278 0.0
H2002 H 0.71078 0.47656 0.56246 0.0
H2003 H 0.70725 0.52178 0.58404 0.0
H2004 H 0.77864 0.59042 0.61142 0.0
H2005 H 0.80601 0.56084 0.59579 0.0
C2006 C 0.78789 0.50834 0.56957 0.0
C2007 C 0.77574 0.4814 0.55538 0.0
C2008 C 0.77241 0.52435 0.58056 0.0
C2009 C 0.74789 0.46989 0.55351 0.0
C2010 C 0.73229 0.48558 0.56469 0.0
C2011 C 0.72881 0.53001 0.58717 0.0
C2012 C 0.74095 0.55826 0.59887 0.0
C2013 C 0.74434 0.51308 0.57778 0.0
C2014 C 0.76888 0.56883 0.6023 0.0
C2015 C 0.7845 0.55195 0.59338 0.0
H2016 H 0.25323 0.16215 0.53652 0.0
H2017 H 0.2172 0.23163 0.54499 0.0
H2018 H 0.17523 0.19699 0.55301 0.0
H2019 H 0.14872 0.14727 0.55785 0.0
H2020 H 0.18323 0.077 0.54694 0.0
H2021 H 0.22593 0.11171 0.53996 0.0
C2022 C 0.23618 0.16975 0.54001 0.0
C2023 C 0.23854 0.19963 0.54016 0.0
C2024 C 0.21191 0.14959 0.54446 0.0
C2025 C 0.21609 0.20889 0.54461 0.0
C2026 C 0.19206 0.18907 0.54936 0.0
C2027 C 0.16565 0.13948 0.55428 0.0
C2028 C 0.16287 0.10953 0.55338 0.0
C2029 C 0.18979 0.15943 0.5495 0.0
C2030 C 0.18487 0.0999 0.54801 0.0
C2031 C 0.20925 0.11975 0.54391 0.0
H2032 H 0.23435 0.99095 0.82345 0.0
H2033 H 0.29465 0.07358 0.82732 0.0
H2034 H 0.32248 0.05197 0.80192 0.0
H2035 H 0.33068 1.00917 0.78054 0.0
H2036 H 0.27107 0.92619 0.77822 0.0
H2037 H 0.24164 0.9486 0.80014 0.0
C2038 C 0.25358 1.00419 0.81873 0.0
C2039 C 0.26256 0.03368 0.82747 0.0
C2040 C 0.26947 0.99168 0.80405 0.0
C2041 C 0.28736 0.05072 0.82094 0.0
C2042 C 0.30327 0.03843 0.80636 0.0
C2043 C 0.31118 0.99605 0.78468 0.0
C2044 C 0.30317 0.9661 0.77777 0.0
C2045 C 0.29465 1.00888 0.79806 0.0
C2046 C 0.27765 0.94941 0.78291 0.0
C2047 C 0.2609 0.96212 0.7958 0.0
H2048 H 0.40946 1.00962 0.98381 0.0
H2049 H 0.42186 0.92508 0.97684 0.0
H2050 H 0.47 0.94728 0.98353 0.0
H2051 H 0.50758 0.98978 0.99882 0.0
H2052 H 0.49566 0.07433 1.0064 0.0
H2053 H 0.44812 0.05309 0.99177 0.0
C2054 C 0.42272 0.99609 0.98323 0.0
C2055 C 0.41212 0.96572 0.98048 0.0
C2056 C 0.45033 1.00896 0.98757 0.0
C2057 C 0.4295 0.94848 0.97915 0.0
C2058 C 0.45703 0.96114 0.98318 0.0
C2059 C 0.49458 1.00356 0.9968 0.0
C2060 C 0.50468 0.03336 1.00412 0.0
C2061 C 0.4675 0.9912 0.98861 0.0
C2062 C 0.48807 0.05127 1.00097 0.0
C2063 C 0.46096 0.03911 0.99276 0.0
H2064 H 0.87923 0.58662 0.82919 0.0
H2065 H 0.93176 0.67369 0.8457 0.0
H2066 H 0.89354 0.69287 0.84077 0.0
H2067 H 0.8458 0.68488 0.831 0.0
H2068 H 0.79322 0.5983 0.81269 0.0
H2069 H 0.83112 0.57859 0.82001 0.0
C2070 C 0.88239 0.60983 0.83152 0.0
C2071 C 0.90829 0.62879 0.83765 0.0
C2072 C 0.86037 0.6206 0.82901 0.0
C2073 C 0.91203 0.65873 0.84076 0.0
C2074 C 0.8902 0.66966 0.83819 0.0
C2075 C 0.84249 0.66161 0.82944 0.0
C2076 C 0.81675 0.64289 0.82203 0.0
C2077 C 0.86435 0.65075 0.83252 0.0
C2078 C 0.81283 0.61292 0.81897 0.0
C2079 C 0.83449 0.60179 0.82279 0.0
H2080 H 0.85296 0.65454 0.0659 0.0
H2081 H 0.9154 0.73127 0.05329 0.0
H2082 H 0.94891 0.70593 0.06256 0.0
H2083 H 0.96038 0.66155 0.07362 0.0
H2084 H 0.89721 0.58452 0.08429 0.0
H2085 H 0.86427 0.61053 0.07671 0.0
C2086 C 0.87391 0.66585 0.06532 0.0
C2087 C 0.88161 0.69484 0.05895 0.0
C2088 C 0.89301 0.65104 0.07035 0.0
C2089 C 0.90887 0.709 0.05816 0.0
C2090 C 0.92806 0.69447 0.06342 0.0
C2091 C 0.9394 0.65035 0.0741 0.0
C2092 C 0.93147 0.62102 0.07971 0.0
C2093 C 0.92035 0.66539 0.06935 0.0
C2094 C 0.90411 0.60714 0.08055 0.0
C2095 C 0.88516 0.62196 0.07602 0.0
H2096 H 0.2652 0.15136 0.88023 0.0
H2097 H 0.19164 0.17443 0.87595 0.0
H2098 H 0.21378 0.21961 0.85711 0.0
H2099 H 0.25246 0.24861 0.8357 0.0
H2100 H 0.32326 0.22019 0.83544 0.0
H2101 H 0.30345 0.18051 0.86131 0.0
C2102 C 0.254 0.16644 0.8756 0.0
C2103 C 0.2267 0.15928 0.87909 0.0
C2104 C 0.26618 0.19096 0.86304 0.0
C2105 C 0.2127 0.17939 0.87349 0.0
C2106 C 0.22525 0.20498 0.86228 0.0
C2107 C 0.26345 0.23367 0.84134 0.0
C2108 C 0.28906 0.23698 0.83318 0.0
C2109 C 0.25165 0.21028 0.85584 0.0
C2110 C 0.30326 0.21772 0.84085 0.0
C2111 C 0.29209 0.19518 0.85593 0.0
H2112 H 0.42024 1.02388 0.38906 0.0
H2113 H 0.4887 0.9918 0.38648 0.0
H2114 H 0.45925 0.9426 0.3753 0.0
H2115 H 0.41469 0.91074 0.35908 0.0
H2116 H 0.34648 0.94357 0.35969 0.0
H2117 H 0.37532 0.99071 0.37855 0.0
C2118 C 0.42872 1.00599 0.3867 0.0
C2119 C 0.45662 1.01151 0.38814 0.0
C2120 C 0.41176 0.97814 0.37917 0.0
C2121 C 0.46733 0.98814 0.38549 0.0
C2122 C 0.45049 0.96008 0.37869 0.0
C2123 C 0.40609 0.92817 0.36344 0.0
C2124 C 0.37857 0.92394 0.35738 0.0
C2125 C 0.42278 0.95517 0.3742 0.0
C2126 C 0.36763 0.94643 0.36384 0.0
C2127 C 0.3841 0.97334 0.37466 0.0
H2128 H 0.63177 0.43697 0.65935 0.0
H2129 H 0.62977 0.38911 0.58529 0.0
H2130 H 0.61935 0.42773 0.56189 0.0
H2131 H 0.6092 0.47478 0.56216 0.0
H2132 H 0.61415 0.52413 0.63603 0.0
H2133 H 0.62486 0.48563 0.65948 0.0
C2134 C 0.62928 0.43507 0.63808 0.0
C2135 C 0.63148 0.40987 0.62424 0.0
C2136 C 0.62353 0.4577 0.62457 0.0
C2137 C 0.62829 0.40809 0.59662 0.0
C2138 C 0.62217 0.43021 0.58314 0.0
C2139 C 0.61254 0.47708 0.58339 0.0
C2140 C 0.61044 0.50232 0.59723 0.0
C2141 C 0.61941 0.45501 0.59686 0.0
C2142 C 0.61543 0.50501 0.62476 0.0
C2143 C 0.62159 0.48293 0.63825 0.0
H2144 H 0.44091 0.80679 0.45646 0.0
H2145 H 0.49225 0.79834 0.39666 0.0
H2146 H 0.45913 0.8039 0.36286 0.0
H2147 H 0.41623 0.81371 0.35024 0.0
H2148 H 0.36524 0.8217 0.41063 0.0
H2149 H 0.39735 0.8137 0.44376 0.0
C2150 C 0.44485 0.80593 0.43604 0.0
C2151 C 0.46925 0.80222 0.42933 0.0
C2152 C 0.4257 0.80922 0.41658 0.0
C2153 C 0.47374 0.80111 0.4026 0.0
C2154 C 0.45478 0.80439 0.38317 0.0
C2155 C 0.41201 0.81343 0.3706 0.0
C2156 C 0.38825 0.8186 0.3777 0.0
C2157 C 0.43077 0.80882 0.38991 0.0
C2158 C 0.38332 0.81809 0.40433 0.0
C2159 C 0.40174 0.81349 0.42346 0.0
H2160 H 0.09938 0.74902 0.1318 0.0
H2161 H 0.17258 0.77016 0.09462 0.0
H2162 H 0.16528 0.7191 0.08094 0.0
H2163 H 0.13768 0.66793 0.07862 0.0
H2164 H 0.06298 0.64723 0.11316 0.0
H2165 H 0.07127 0.698 0.1286 0.0
C2166 C 0.11379 0.74245 0.12081 0.0
C2167 C 0.13655 0.76366 0.11437 0.0
C2168 C 0.10918 0.71285 0.11239 0.0
C2169 C 0.15481 0.75454 0.09982 0.0
C2170 C 0.15068 0.72521 0.09199 0.0
C2171 C 0.1233 0.6745 0.08966 0.0
C2172 C 0.09978 0.65353 0.09475 0.0
C2173 C 0.12789 0.7041 0.09804 0.0
C2174 C 0.08124 0.66271 0.10883 0.0
C2175 C 0.08598 0.69186 0.11774 0.0
H2176 H 0.13913 0.3357 0.95 0.0
H2177 H 0.08399 0.27398 0.89297 0.0
H2178 H 0.11866 0.27851 0.86333 0.0
H2179 H 0.16387 0.30172 0.85234 0.0
H2180 H 0.2195 0.36378 0.90854 0.0
H2181 H 0.18564 0.35724 0.93973 0.0
C2182 C 0.13485 0.32298 0.93124 0.0
C2183 C 0.10892 0.30464 0.92371 0.0
C2184 C 0.15493 0.32591 0.91399 0.0
C2185 C 0.10369 0.28838 0.89926 0.0
C2186 C 0.12351 0.29098 0.88221 0.0
C2187 C 0.16855 0.31392 0.87138 0.0
C2188 C 0.19406 0.33346 0.87797 0.0
C2189 C 0.14903 0.31007 0.88914 0.0
C2190 C 0.20001 0.34859 0.90297 0.0
C2191 C 0.18062 0.34491 0.92079 0.0
H2192 H 0.57367 0.69817 0.93047 0.0
H2193 H 0.59484 0.75948 0.99867 0.0
H2194 H 0.59595 0.72093 0.0266 0.0
H2195 H 0.58965 0.66872 0.03394 0.0
H2196 H 0.57134 0.60642 0.96684 0.0
H2197 H 0.57051 0.64499 0.93783 0.0
C2198 C 0.57919 0.7035 0.95131 0.0
C2199 C 0.58444 0.73328 0.96159 0.0
C2200 C 0.57993 0.68021 0.96831 0.0
C2201 C 0.59078 0.73784 0.98923 0.0
C2202 C 0.59131 0.71534 1.00568 0.0
C2203 C 0.58535 0.6632 1.01298 0.0
C2204 C 0.58017 0.63341 1.00341 0.0
C2205 C 0.58558 0.6862 0.9958 0.0
C2206 C 0.57527 0.62829 0.97568 0.0
C2207 C 0.57483 0.65079 0.95873 0.0
H2208 H 0.18908 0.84652 0.69393 0.0
H2209 H 0.13546 0.80202 0.74751 0.0
H2210 H 0.17375 0.79516 0.77454 0.0
H2211 H 0.22409 0.80064 0.78336 0.0
H2212 H 0.27639 0.84747 0.72962 0.0
H2213 H 0.23814 0.85408 0.70355 0.0
C2214 C 0.18533 0.83544 0.71163 0.0
C2215 C 0.15804 0.82507 0.71792 0.0
C2216 C 0.20803 0.83164 0.72759 0.0
C2217 C 0.15523 0.81079 0.74141 0.0
C2218 C 0.1776 0.80665 0.75708 0.0
C2219 C 0.22741 0.81236 0.76597 0.0
C2220 C 0.25459 0.82325 0.75915 0.0
C2221 C 0.20438 0.81675 0.75048 0.0
C2222 C 0.25687 0.83851 0.73623 0.0
C2223 C 0.23451 0.84239 0.72094 0.0
H2224 H 0.08469 0.37397 0.48317 0.0
H2225 H 0.09812 0.41029 0.40892 0.0
H2226 H 0.09567 0.45687 0.42807 0.0
H2227 H 0.08969 0.48912 0.46623 0.0
H2228 H 0.07702 0.45319 0.54076 0.0
H2229 H 0.0792 0.4065 0.52157 0.0
C2230 C 0.08708 0.39193 0.47097 0.0
C2231 C 0.09161 0.38741 0.44397 0.0
C2232 C 0.08578 0.41967 0.48245 0.0
C2233 C 0.09462 0.41198 0.4294 0.0
C2234 C 0.0932 0.43911 0.44052 0.0
C2235 C 0.08737 0.47123 0.4785 0.0
C2236 C 0.08309 0.47591 0.50555 0.0
C2237 C 0.08879 0.44354 0.46709 0.0
C2238 C 0.08034 0.45144 0.52024 0.0
C2239 C 0.08157 0.42422 0.50908 0.0
H2240 H 0.46708 0.28775 0.19561 0.0
H2241 H 0.52397 0.33692 0.2583 0.0
H2242 H 0.48744 0.34104 0.28365 0.0
H2243 H 0.4378 0.33153 0.28961 0.0
H2244 H 0.3809 0.27712 0.22958 0.0
H2245 H 0.41735 0.2746 0.2033 0.0
C2246 C 0.47188 0.29945 0.21482 0.0
C2247 C 0.49992 0.31229 0.22404 0.0
C2248 C 0.44983 0.30094 0.23056 0.0
C2249 C 0.50378 0.32668 0.24964 0.0
C2250 C 0.48235 0.32913 0.26453 0.0
C2251 C 0.43298 0.31889 0.27084 0.0
C2252 C 0.40501 0.30462 0.26242 0.0
C2253 C 0.45499 0.31649 0.25549 0.0
C2254 C 0.40109 0.28845 0.23764 0.0
C2255 C 0.42247 0.28703 0.22217 0.0
H2256 H 0.66076 0.52245 0.41686 0.0
H2257 H 0.7335 0.58478 0.45076 0.0
H2258 H 0.71436 0.58624 0.49294 0.0
H2259 H 0.67389 0.57585 0.51704 0.0
H2260 H 0.60063 0.51596 0.48039 0.0
H2261 H 0.62301 0.50726 0.44236 0.0
C2262 C 0.67264 0.53579 0.43374 0.0
C2263 C 0.69823 0.55369 0.43094 0.0
C2264 C 0.66118 0.53729 0.45719 0.0
C2265 C 0.71372 0.57074 0.45273 0.0
C2266 C 0.70264 0.57181 0.47665 0.0
C2267 C 0.66305 0.5605 0.50091 0.0
C2268 C 0.63555 0.54702 0.50117 0.0
C2269 C 0.67593 0.55616 0.47868 0.0
C2270 C 0.62168 0.52706 0.48032 0.0
C2271 C 0.63445 0.52199 0.45862 0.0
H2272 H 0.32823 0.86935 0.06522 0.0
H2273 H 0.36393 0.96059 0.08739 0.0
H2274 H 0.37403 0.95001 0.13235 0.0
H2275 H 0.37399 0.91467 0.16506 0.0
H2276 H 0.33738 0.82371 0.14309 0.0
H2277 H 0.32629 0.83436 0.09828 0.0
C2278 C 0.33817 0.88697 0.07987 0.0
C2279 C 0.34549 0.91571 0.07285 0.0
C2280 C 0.34383 0.88076 0.10568 0.0
C2281 C 0.35804 0.93827 0.09222 0.0
C2282 C 0.36393 0.93224 0.11792 0.0
C2283 C 0.36368 0.89722 0.15038 0.0
C2284 C 0.35672 0.86844 0.15718 0.0
C2285 C 0.35717 0.90355 0.12479 0.0
C2286 C 0.3429 0.84602 0.13822 0.0
C2287 C 0.33663 0.8521 0.11264 0.0
H2288 H 1.02941 0.62827 0.91966 0.0
H2289 H 0.95147 0.59307 0.94594 0.0
H2290 H 0.972 0.58438 0.98791 0.0
H2291 H 1.0116 0.58118 0.01428 0.0
H2292 H 0.08945 0.61442 0.98701 0.0
H2293 H 0.06926 0.62939 0.94786 0.0
C2294 C 1.0169 0.61904 0.9347 0.0
C2295 C 0.98902 0.6108 0.92966 0.0
C2296 C 1.02876 0.61332 0.95826 0.0
C2297 C 0.97301 0.59938 0.9494 0.0
C2298 C 0.98472 0.59422 0.97326 0.0
C2299 C 1.02422 0.59183 0.99987 0.0
C2300 C 0.05192 0.59618 1.00323 0.0
C2301 C 1.01251 0.60012 0.97743 0.0
C2302 C 0.06804 0.61054 0.98468 0.0
C2303 C 0.05653 0.61912 0.96234 0.0
H2304 H 0.29578 0.28972 0.62344 0.0
H2305 H 0.36084 0.25208 0.62254 0.0
H2306 H 0.36786 0.25884 0.67053 0.0
H2307 H 0.35535 0.27521 0.71341 0.0
H2308 H 0.28819 0.30967 0.71393 0.0
H2309 H 0.28229 0.30434 0.66606 0.0
C2310 C 0.31163 0.28312 0.63366 0.0
C2311 C 0.3279 0.27061 0.61898 0.0
C2312 C 0.31515 0.28639 0.66153 0.0
C2313 C 0.34799 0.26182 0.63298 0.0
C2314 C 0.35203 0.26569 0.66058 0.0
C2315 C 0.33939 0.28155 0.70309 0.0
C2316 C 0.32228 0.29293 0.7177 0.0
C2317 C 0.3357 0.27789 0.67518 0.0
C2318 C 0.30165 0.30075 0.70361 0.0
C2319 C 0.29828 0.29778 0.67605 0.0
H2320 H 0.6229 0.59448 0.31819 0.0
H2321 H 0.67859 0.55697 0.28263 0.0
H2322 H 0.6555 0.55654 0.23932 0.0
H2323 H 0.62089 0.56904 0.21154 0.0
H2324 H 0.56706 0.60912 0.24695 0.0
H2325 H 0.58791 0.60602 0.29066 0.0
C2326 C 0.62993 0.58598 0.30102 0.0
C2327 C 0.65247 0.57577 0.30365 0.0
C2328 C 0.61684 0.58619 0.27626 0.0
C2329 C 0.66139 0.5651 0.28114 0.0
C2330 C 0.64816 0.56477 0.2564 0.0
C2331 C 0.61344 0.57655 0.22891 0.0
C2332 C 0.59234 0.58896 0.22627 0.0
C2333 C 0.62602 0.57548 0.25375 0.0
C2334 C 0.5832 0.59934 0.24872 0.0
C2335 C 0.59516 0.59766 0.27359 0.0
H2336 H 0.29253 0.89196 0.9491 0.0
H2337 H 0.33558 0.9736 0.92235 0.0
H2338 H 0.33798 0.94927 0.87975 0.0
H2339 H 0.3319 0.90383 0.85212 0.0
H2340 H 0.28891 0.82251 0.88008 0.0
H2341 H 0.2824 0.84776 0.92012 0.0
C2342 C 0.30207 0.90449 0.93378 0.0
C2343 C 0.31406 0.93438 0.93884 0.0
C2344 C 0.30369 0.89036 0.90968 0.0
C2345 C 0.32614 0.9505 0.91882 0.0
C2346 C 0.32771 0.93656 0.89458 0.0
C2347 C 0.32093 0.89167 0.86688 0.0
C2348 C 0.31132 0.86124 0.86319 0.0
C2349 C 0.31724 0.90634 0.89009 0.0
C2350 C 0.29678 0.84589 0.88238 0.0
C2351 C 0.29301 0.86029 0.90537 0.0
H2352 H 0.04577 0.58377 0.80731 0.0
H2353 H 0.97271 0.60007 0.7775 0.0
H2354 H 0.98217 0.5898 0.73259 0.0
H2355 H 1.00948 0.57248 0.70227 0.0
H2356 H 0.0809 0.55361 0.73285 0.0
H2357 H 0.07365 0.56852 0.77734 0.0
C2358 C 1.03198 0.5855 0.79107 0.0
C2359 C 1.0085 0.59262 0.7958 0.0
C2360 C 1.03713 0.57879 0.76554 0.0
C2361 C 0.99089 0.59456 0.77442 0.0
C2362 C 0.99625 0.58861 0.74876 0.0
C2363 C 1.02359 0.57204 0.7187 0.0
C2364 C 0.04565 0.56198 0.71449 0.0
C2365 C 1.01903 0.58014 0.74417 0.0
C2366 C 0.06368 0.56107 0.73581 0.0
C2367 C 0.05958 0.56966 0.76114 0.0
H2368 H 0.34773 0.29552 0.47621 0.0
H2369 H 0.29782 0.2084 0.45417 0.0
H2370 H 0.29855 0.21747 0.408 0.0
H2371 H 0.3137 0.24928 0.37309 0.0
H2372 H 0.36442 0.3363 0.39359 0.0
H2373 H 0.36321 0.32805 0.44029 0.0
C2374 C 0.33675 0.27865 0.46133 0.0
C2375 C 0.32253 0.25121 0.46913 0.0
C2376 C 0.33766 0.28385 0.43415 0.0
C2377 C 0.3089 0.22967 0.44917 0.0
C2378 C 0.30936 0.23482 0.42254 0.0
C2379 C 0.3247 0.26654 0.38764 0.0
C2380 C 0.33932 0.29344 0.37926 0.0
C2381 C 0.32384 0.26167 0.41467 0.0
C2382 C 0.35313 0.31529 0.39895 0.0
C2383 C 0.35233 0.3106 0.42589 0.0
H2384 H 0.35481 0.58239 0.5634 0.0
H2385 H 0.41971 0.6526 0.60155 0.0
H2386 H 0.45084 0.62425 0.59469 0.0
H2387 H 0.45988 0.58083 0.57541 0.0
H2388 H 0.39593 0.51259 0.53348 0.0
H2389 H 0.36388 0.53881 0.54416 0.0
C2390 C 0.37572 0.59128 0.5705 0.0
C2391 C 0.38504 0.61938 0.58309 0.0
C2392 C 0.39356 0.57531 0.5656 0.0
C2393 C 0.41219 0.63097 0.5918 0.0
C2394 C 0.42994 0.61481 0.58786 0.0
C2395 C 0.43884 0.57161 0.56894 0.0
C2396 C 0.43003 0.54482 0.55396 0.0
C2397 C 0.42089 0.58717 0.57445 0.0
C2398 C 0.40294 0.53319 0.54512 0.0
C2399 C 0.38473 0.54815 0.55122 0.0
H2400 H 0.91268 0.96139 0.55275 0.0
H2401 H 0.94031 0.89316 0.51794 0.0
H2402 H 0.98252 0.92834 0.5114 0.0
H2403 H 1.01264 0.97813 0.51758 0.0
H2404 H 0.98619 0.04568 0.55506 0.0
H2405 H 0.94237 1.01132 0.55798 0.0
C2406 C 0.92788 0.95415 0.54369 0.0
C2407 C 0.92323 0.9245 0.53604 0.0
C2408 C 0.9523 0.9745 0.5402 0.0
C2409 C 0.94329 0.9157 0.5243 0.0
C2410 C 0.96746 0.93587 0.5204 0.0
C2411 C 0.99706 0.98546 0.52581 0.0
C2412 C 1.00254 1.01452 0.53578 0.0
C2413 C 0.97227 0.96529 0.52842 0.0
C2414 C 0.98238 1.0235 0.54704 0.0
C2415 C 0.95739 1.0038 0.54889 0.0
H2416 H 0.87096 0.07531 0.25551 0.0
H2417 H 0.9283 0.15369 0.2376 0.0
H2418 H 0.89501 0.17998 0.2407 0.0
H2419 H 0.85232 0.1821 0.25518 0.0
H2420 H 0.79706 0.10533 0.2787 0.0
H2421 H 0.82677 0.07667 0.26675 0.0
C2422 C 0.87589 0.09796 0.25162 0.0
C2423 C 0.90188 0.11267 0.2463 0.0
C2424 C 0.85716 0.11317 0.25487 0.0
C2425 C 0.90833 0.14208 0.24175 0.0
C2426 C 0.88939 0.15707 0.24364 0.0
C2427 C 0.84648 0.15891 0.25692 0.0
C2428 C 0.82257 0.14561 0.26751 0.0
C2429 C 0.86411 0.14307 0.25115 0.0
C2430 C 0.8154 0.1158 0.27046 0.0
C2431 C 0.83238 0.09955 0.26371 0.0
H2432 H 0.75279 0.12262 0.07251 0.0
H2433 H 0.73231 0.19642 0.10604 0.0
H2434 H 0.68567 0.16733 0.10478 0.0
H2435 H 0.65021 0.12235 0.08984 0.0
H2436 H 0.67054 0.05099 0.05153 0.0
H2437 H 0.718 0.07743 0.05944 0.0
C2438 C 0.73822 0.13225 0.07995 0.0
C2439 C 0.74591 0.1616 0.0893 0.0
C2440 C 0.71148 0.11576 0.07832 0.0
C2441 C 0.72677 0.17388 0.09857 0.0
C2442 C 0.70016 0.15727 0.0979 0.0
C2443 C 0.66519 0.11243 0.08392 0.0
C2444 C 0.65728 0.08479 0.07051 0.0
C2445 C 0.69221 0.12838 0.08727 0.0
C2446 C 0.6765 0.07222 0.06213 0.0
C2447 C 0.7035 0.08737 0.0665 0.0
H2448 H 0.25199 0.49341 0.22864 0.0
H2449 H 0.30884 0.57797 0.24425 0.0
H2450 H 0.34558 0.55654 0.24382 0.0
H2451 H 0.36018 0.513 0.25058 0.0
H2452 H 0.30312 0.42858 0.23459 0.0
H2453 H 0.26798 0.45061 0.22289 0.0
C2454 C 0.27246 0.50718 0.23083 0.0
C2455 C 0.27779 0.53702 0.23714 0.0
C2456 C 0.29346 0.49466 0.23096 0.0
C2457 C 0.30428 0.55484 0.23955 0.0
C2458 C 0.32532 0.54256 0.23962 0.0
C2459 C 0.34029 0.49953 0.24345 0.0
C2460 C 0.33408 0.46934 0.24389 0.0
C2461 C 0.32003 0.51237 0.23711 0.0
C2462 C 0.30835 0.45194 0.23444 0.0
C2463 C 0.28814 0.46451 0.22802 0.0
H2464 H 0.31097 0.47675 0.06615 0.0
H2465 H 0.25087 0.39587 0.04194 0.0
H2466 H 0.21657 0.421 0.03913 0.0
H2467 H 0.20402 0.46646 0.04105 0.0
H2468 H 0.26446 0.54723 0.06499 0.0
H2469 H 0.29815 0.52168 0.07012 0.0
C2470 C 0.29033 0.46454 0.06053 0.0
C2471 C 0.28356 0.43445 0.05423 0.0
C2472 C 0.27075 0.47919 0.05858 0.0
C2473 C 0.25669 0.41904 0.04689 0.0
C2474 C 0.23705 0.43342 0.0452 0.0
C2475 C 0.2245 0.47844 0.04768 0.0
C2476 C 0.23166 0.50883 0.05233 0.0
C2477 C 0.24389 0.46357 0.05062 0.0
C2478 C 0.2584 0.52395 0.06072 0.0
C2479 C 0.2777 0.50932 0.06385 0.0
H2480 H 0.912 0.99065 0.25624 0.0
H2481 H 0.9839 0.97309 0.28766 0.0
H2482 H 0.95839 0.92297 0.29253 0.0
H2483 H 0.91504 0.88513 0.29025 0.0
H2484 H 0.84347 0.90474 0.26085 0.0
H2485 H 0.86968 0.95326 0.2528 0.0
C2486 C 0.9223 0.97594 0.264 0.0
C2487 C 0.94987 0.98572 0.27162 0.0
C2488 C 0.90752 0.94755 0.26724 0.0
C2489 C 0.9627 0.96617 0.28162 0.0
C2490 C 0.94811 0.93754 0.28447 0.0
C2491 C 0.90526 0.89996 0.28183 0.0
C2492 C 0.87734 0.89141 0.27627 0.0
C2493 C 0.92042 0.92812 0.27769 0.0
C2494 C 0.86489 0.91088 0.26554 0.0
C2495 C 0.87985 0.93861 0.26088 0.0
H2496 H 0.75587 0.14943 0.76186 0.0
H2497 H 0.71818 0.14648 0.83386 0.0
H2498 H 0.74147 0.19797 0.84508 0.0
H2499 H 0.77451 0.24303 0.83528 0.0
H2500 H 0.81171 0.24477 0.76291 0.0
H2501 H 0.78668 0.19434 0.7511 0.0
C2502 C 0.75258 0.16005 0.77996 0.0
C2503 C 0.73545 0.14416 0.79707 0.0
C2504 C 0.76614 0.18934 0.78632 0.0
C2505 C 0.73116 0.15832 0.82029 0.0
C2506 C 0.74462 0.18766 0.82679 0.0
C2507 C 0.77713 0.23235 0.81693 0.0
C2508 C 0.79515 0.24759 0.80011 0.0
C2509 C 0.76251 0.20326 0.81012 0.0
C2510 C 0.79806 0.23356 0.77626 0.0
C2511 C 0.78375 0.20471 0.76946 0.0
loop_
_geom_bond_atom_site_label_1
_geom_bond_atom_site_label_2
_geom_bond_distance
_geom_bond_site_symmetry_2
_ccdc_geom_bond_type
Co0 O1 2.216 . S
Co0 O2 2.091 . S
Co0 O4 2.004 . S
Co0 O10 2.021 . S
Co0 O12 2.137 . S
Co0 O13 2.244 . S
O1 Co0 2.216 . S
O1 C8 1.247 . S
O2 Co0 2.091 . S
O2 C8 1.261 . S
C3 O12 1.247 . S
C3 O13 1.272 . S
O4 Co0 2.004 . S
O4 C9 1.259 1_455 S
Co5 O6 2.061 1_455 S
Co5 O11 2.052 . S
Co5 O13 2.135 . S
O6 Co5 2.061 1_655 S
O6 C9 1.235 . S
C7 O10 1.238 . S
C7 O11 1.241 . S
C8 O1 1.247 . S
C8 O2 1.261 . S
C9 O4 1.259 1_655 S
C9 O6 1.235 . S
O10 Co0 2.021 . S
O10 C7 1.238 . S
O11 Co5 2.052 . S
O11 C7 1.241 . S
O12 Co0 2.137 . S
O12 C3 1.247 . S
O13 Co0 2.244 . S
O13 C3 1.272 . S
O13 Co5 2.135 . S
Co14 O15 2.216 . S
Co14 O16 2.091 . S
Co14 O18 2.004 . S
Co14 O24 2.021 . S
Co14 O26 2.137 . S
Co14 O27 2.244 . S
O15 Co14 2.216 . S
O15 C22 1.247 . S
O16 Co14 2.091 . S
O16 C22 1.261 . S
C17 O26 1.247 . S
C17 O27 1.272 . S
O18 Co14 2.004 . S
O18 C23 1.259 . S
Co19 O20 2.061 . S
Co19 O25 2.052 . S
Co19 O27 2.135 . S
O20 Co19 2.061 . S
O20 C23 1.235 . S
C21 O24 1.238 . S
C21 O25 1.241 . S
C22 O15 1.247 . S
C22 O16 1.261 . S
C23 O18 1.259 . S
C23 O20 1.235 . S
O24 Co14 2.021 . S
O24 C21 1.238 . S
O25 Co19 2.052 . S
O25 C21 1.241 . S
O26 Co14 2.137 . S
O26 C17 1.247 . S
O27 Co14 2.244 . S
O27 C17 1.272 . S
O27 Co19 2.135 . S
Co28 O29 2.216 . S
Co28 O30 2.091 . S
Co28 O32 2.004 . S
Co28 O38 2.021 . S
Co28 O40 2.137 . S
Co28 O41 2.244 . S
O29 Co28 2.216 . S
O29 C36 1.247 . S
O30 Co28 2.091 . S
O30 C36 1.261 . S
C31 O40 1.247 . S
C31 O41 1.272 . S
O32 Co28 2.004 . S
O32 C37 1.259 . S
Co33 O34 2.061 . S
Co33 O39 2.052 . S
Co33 O41 2.135 . S
O34 Co33 2.061 . S
O34 C37 1.235 . S
C35 O38 1.238 . S
C35 O39 1.241 . S
C36 O29 1.247 . S
C36 O30 1.261 . S
C37 O32 1.259 . S
C37 O34 1.235 . S
O38 Co28 2.021 . S
O38 C35 1.238 . S
O39 Co33 2.052 . S
O39 C35 1.241 . S
O40 Co28 2.137 . S
O40 C31 1.247 . S
O41 Co28 2.244 . S
O41 C31 1.272 . S
O41 Co33 2.135 . S
Co42 O43 2.216 . S
Co42 O44 2.091 . S
Co42 O46 2.004 . S
Co42 O52 2.021 . S
Co42 O54 2.137 . S
Co42 O55 2.244 . S
O43 Co42 2.216 . S
O43 C50 1.247 . S
O44 Co42 2.091 . S
O44 C50 1.261 . S
C45 O54 1.247 . S
C45 O55 1.272 . S
O46 Co42 2.004 . S
O46 C51 1.259 . S
Co47 O48 2.061 . S
Co47 O53 2.052 . S
Co47 O55 2.135 . S
O48 Co47 2.061 . S
O48 C51 1.235 . S
C49 O52 1.238 . S
C49 O53 1.241 . S
C50 O43 1.247 . S
C50 O44 1.261 . S
C51 O46 1.259 . S
C51 O48 1.235 . S
O52 Co42 2.021 . S
O52 C49 1.238 . S
O53 Co47 2.052 . S
O53 C49 1.241 . S
O54 Co42 2.137 . S
O54 C45 1.247 . S
O55 Co42 2.244 . S
O55 C45 1.272 . S
O55 Co47 2.135 . S
Co56 O57 2.216 . S
Co56 O58 2.091 . S
Co56 O60 2.004 . S
Co56 O66 2.021 . S
Co56 O68 2.137 . S
Co56 O69 2.244 . S
O57 Co56 2.216 . S
O57 C64 1.247 . S
O58 Co56 2.091 . S
O58 C64 1.261 . S
C59 O68 1.247 . S
C59 O69 1.272 . S
O60 Co56 2.004 . S
O60 C65 1.259 . S
Co61 O62 2.061 . S
Co61 O67 2.052 . S
Co61 O69 2.135 . S
O62 Co61 2.061 . S
O62 C65 1.235 . S
C63 O66 1.238 . S
C63 O67 1.241 . S
C64 O57 1.247 . S
C64 O58 1.261 . S
C65 O60 1.259 . S
C65 O62 1.235 . S
O66 Co56 2.021 . S
O66 C63 1.238 . S
O67 Co61 2.052 . S
O67 C63 1.241 . S
O68 Co56 2.137 . S
O68 C59 1.247 . S
O69 Co56 2.244 . S
O69 C59 1.272 . S
O69 Co61 2.135 . S
Co70 O71 2.216 . S
Co70 O72 2.091 . S
Co70 O74 2.004 . S
Co70 O80 2.021 . S
Co70 O82 2.137 . S
Co70 O83 2.244 . S
O71 Co70 2.216 . S
O71 C78 1.247 . S
O72 Co70 2.091 . S
O72 C78 1.261 . S
C73 O82 1.247 . S
C73 O83 1.272 . S
O74 Co70 2.004 . S
O74 C79 1.259 . S
Co75 O76 2.061 . S
Co75 O81 2.052 . S
Co75 O83 2.135 . S
O76 Co75 2.061 . S
O76 C79 1.235 . S
C77 O80 1.238 . S
C77 O81 1.241 . S
C78 O71 1.247 . S
C78 O72 1.261 . S
C79 O74 1.259 . S
C79 O76 1.235 . S
O80 Co70 2.021 . S
O80 C77 1.238 . S
O81 Co75 2.052 . S
O81 C77 1.241 . S
O82 Co70 2.137 . S
O82 C73 1.247 . S
O83 Co70 2.244 . S
O83 C73 1.272 . S
O83 Co75 2.135 . S
Co84 O85 2.216 . S
Co84 O86 2.091 . S
Co84 O88 2.004 . S
Co84 O94 2.021 . S
Co84 O96 2.137 . S
Co84 O97 2.244 . S
O85 Co84 2.216 . S
O85 C92 1.247 . S
O86 Co84 2.091 . S
O86 C92 1.261 . S
C87 O96 1.247 . S
C87 O97 1.272 . S
O88 Co84 2.004 . S
O88 C93 1.259 . S
Co89 O90 2.061 . S
Co89 O95 2.052 . S
Co89 O97 2.135 . S
O90 Co89 2.061 . S
O90 C93 1.235 . S
C91 O94 1.238 . S
C91 O95 1.241 . S
C92 O85 1.247 . S
C92 O86 1.261 . S
C93 O88 1.259 . S
C93 O90 1.235 . S
O94 Co84 2.021 . S
O94 C91 1.238 . S
O95 Co89 2.052 . S
O95 C91 1.241 . S
O96 Co84 2.137 . S
O96 C87 1.247 . S
O97 Co84 2.244 . S
O97 C87 1.272 . S
O97 Co89 2.135 . S
Co98 O99 2.216 . S
Co98 O100 2.091 . S
Co98 O102 2.004 1_455 S
Co98 O108 2.021 1_455 S
Co98 O110 2.137 . S
Co98 O111 2.244 1_455 S
O99 Co98 2.216 . S
O99 C106 1.247 . S
O100 Co98 2.091 . S
O100 C106 1.261 . S
C101 O110 1.247 . S
C101 O111 1.272 1_455 S
O102 Co98 2.004 1_655 S
O102 C107 1.259 . S
Co103 O104 2.061 . S
Co103 O109 2.052 . S
Co103 O111 2.135 . S
O104 Co103 2.061 . S
O104 C107 1.235 . S
C105 O108 1.238 . S
C105 O109 1.241 . S
C106 O99 1.247 . S
C106 O100 1.261 . S
C107 O102 1.259 . S
C107 O104 1.235 . S
O108 Co98 2.021 1_655 S
O108 C105 1.238 . S
O109 Co103 2.052 . S
O109 C105 1.241 . S
O110 Co98 2.137 . S
O110 C101 1.247 . S
O111 Co98 2.244 1_655 S
O111 C101 1.272 1_655 S
O111 Co103 2.135 . S
Co112 O113 2.216 . S
Co112 O114 2.091 . S
Co112 O116 2.004 1_545 S
Co112 O122 2.021 . S
Co112 O124 2.137 . S
Co112 O125 2.244 . S
O113 Co112 2.216 . S
O113 C120 1.247 . S
O114 Co112 2.091 . S
O114 C120 1.261 . S
C115 O124 1.247 . S
C115 O125 1.272 . S
O116 Co112 2.004 1_565 S
O116 C121 1.259 . S
Co117 O118 2.061 . S
Co117 O123 2.052 1_565 S
Co117 O125 2.135 1_565 S
O118 Co117 2.061 . S
O118 C121 1.235 . S
C119 O122 1.238 . S
C119 O123 1.241 . S
C120 O113 1.247 . S
C120 O114 1.261 . S
C121 O116 1.259 . S
C121 O118 1.235 . S
O122 Co112 2.021 . S
O122 C119 1.238 . S
O123 Co117 2.052 1_545 S
O123 C119 1.241 . S
O124 Co112 2.137 . S
O124 C115 1.247 . S
O125 Co112 2.244 . S
O125 C115 1.272 . S
O125 Co117 2.135 1_545 S
Co126 O127 2.216 . S
Co126 O128 2.091 . S
Co126 O130 2.004 . S
Co126 O136 2.021 . S
Co126 O138 2.137 . S
Co126 O139 2.244 . S
O127 Co126 2.216 . S
O127 C134 1.247 . S
O128 Co126 2.091 . S
O128 C134 1.261 . S
C129 O138 1.247 . S
C129 O139 1.272 . S
O130 Co126 2.004 . S
O130 C135 1.259 . S
Co131 O132 2.061 . S
Co131 O137 2.052 . S
Co131 O139 2.135 . S
O132 Co131 2.061 . S
O132 C135 1.235 . S
C133 O136 1.238 . S
C133 O137 1.241 . S
C134 O127 1.247 . S
C134 O128 1.261 . S
C135 O130 1.259 . S
C135 O132 1.235 . S
O136 Co126 2.021 . S
O136 C133 1.238 . S
O137 Co131 2.052 . S
O137 C133 1.241 . S
O138 Co126 2.137 . S
O138 C129 1.247 . S
O139 Co126 2.244 . S
O139 C129 1.272 . S
O139 Co131 2.135 . S
Co140 O141 2.216 . S
Co140 O142 2.091 . S
Co140 O144 2.004 . S
Co140 O150 2.021 . S
Co140 O152 2.137 . S
Co140 O153 2.244 . S
O141 Co140 2.216 . S
O141 C148 1.247 . S
O142 Co140 2.091 . S
O142 C148 1.261 . S
C143 O152 1.247 . S
C143 O153 1.272 . S
O144 Co140 2.004 . S
O144 C149 1.259 . S
Co145 O146 2.061 . S
Co145 O151 2.052 . S
Co145 O153 2.135 . S
O146 Co145 2.061 . S
O146 C149 1.235 . S
C147 O150 1.238 . S
C147 O151 1.241 . S
C148 O141 1.247 . S
C148 O142 1.261 . S
C149 O144 1.259 . S
C149 O146 1.235 . S
O150 Co140 2.021 . S
O150 C147 1.238 . S
O151 Co145 2.052 . S
O151 C147 1.241 . S
O152 Co140 2.137 . S
O152 C143 1.247 . S
O153 Co140 2.244 . S
O153 C143 1.272 . S
O153 Co145 2.135 . S
Co154 O155 2.216 . S
Co154 O156 2.091 1_556 S
Co154 O158 2.004 . S
Co154 O164 2.021 1_556 S
Co154 O166 2.137 . S
Co154 O167 2.244 . S
O155 Co154 2.216 . S
O155 C162 1.248 . S
O156 Co154 2.091 1_554 S
O156 C162 1.262 1_554 S
C157 O166 1.247 . S
C157 O167 1.272 . S
O158 Co154 2.004 . S
O158 C163 1.259 1_556 S
Co159 O160 2.061 1_556 S
Co159 O165 2.052 1_556 S
Co159 O167 2.135 . S
O160 Co159 2.061 1_554 S
O160 C163 1.235 . S
C161 O164 1.238 . S
C161 O165 1.241 . S
C162 O155 1.248 . S
C162 O156 1.262 1_556 S
C163 O158 1.259 1_554 S
C163 O160 1.235 . S
O164 Co154 2.021 1_554 S
O164 C161 1.238 . S
O165 Co159 2.052 1_554 S
O165 C161 1.241 . S
O166 Co154 2.137 . S
O166 C157 1.247 . S
O167 Co154 2.244 . S
O167 C157 1.272 . S
O167 Co159 2.135 . S
Co168 O169 2.216 . S
Co168 O170 2.091 . S
Co168 O172 2.004 . S
Co168 O178 2.021 . S
Co168 O180 2.137 1_554 S
Co168 O181 2.244 . S
O169 Co168 2.216 . S
O169 C176 1.247 . S
O170 Co168 2.091 . S
O170 C176 1.261 . S
C171 O180 1.247 . S
C171 O181 1.272 1_556 S
O172 Co168 2.004 . S
O172 C177 1.259 . S
Co173 O174 2.061 . S
Co173 O179 2.052 . S
Co173 O181 2.135 . S
O174 Co173 2.061 . S
O174 C177 1.235 . S
C175 O178 1.238 . S
C175 O179 1.241 . S
C176 O169 1.247 . S
C176 O170 1.261 . S
C177 O172 1.259 . S
C177 O174 1.235 . S
O178 Co168 2.021 . S
O178 C175 1.238 . S
O179 Co173 2.052 . S
O179 C175 1.241 . S
O180 Co168 2.137 1_556 S
O180 C171 1.247 . S
O181 Co168 2.244 . S
O181 C171 1.272 1_554 S
O181 Co173 2.135 . S
Co182 O183 2.216 . S
Co182 O184 2.091 . S
Co182 O186 2.004 . S
Co182 O192 2.021 . S
Co182 O194 2.137 . S
Co182 O195 2.244 . S
O183 Co182 2.216 . S
O183 C190 1.247 . S
O184 Co182 2.091 . S
O184 C190 1.261 . S
C185 O194 1.247 . S
C185 O195 1.272 . S
O186 Co182 2.004 . S
O186 C191 1.259 . S
Co187 O188 2.061 . S
Co187 O193 2.052 . S
Co187 O195 2.135 . S
O188 Co187 2.061 . S
O188 C191 1.235 . S
C189 O192 1.238 . S
C189 O193 1.241 . S
C190 O183 1.247 . S
C190 O184 1.261 . S
C191 O186 1.259 . S
C191 O188 1.235 . S
O192 Co182 2.021 . S
O192 C189 1.238 . S
O193 Co187 2.052 . S
O193 C189 1.241 . S
O194 Co182 2.137 . S
O194 C185 1.247 . S
O195 Co182 2.244 . S
O195 C185 1.272 . S
O195 Co187 2.135 . S
Co196 O197 2.216 . S
Co196 O198 2.091 . S
Co196 O200 2.004 . S
Co196 O206 2.021 . S
Co196 O208 2.137 . S
Co196 O209 2.244 . S
O197 Co196 2.216 . S
O197 C204 1.247 . S
O198 Co196 2.091 . S
O198 C204 1.261 . S
C199 O208 1.247 . S
C199 O209 1.272 . S
O200 Co196 2.004 . S
O200 C205 1.259 . S
Co201 O202 2.061 . S
Co201 O207 2.052 . S
Co201 O209 2.135 . S
O202 Co201 2.061 . S
O202 C205 1.235 . S
C203 O206 1.238 . S
C203 O207 1.241 . S
C204 O197 1.247 . S
C204 O198 1.261 . S
C205 O200 1.259 . S
C205 O202 1.235 . S
O206 Co196 2.021 . S
O206 C203 1.238 . S
O207 Co201 2.052 . S
O207 C203 1.241 . S
O208 Co196 2.137 . S
O208 C199 1.247 . S
O209 Co196 2.244 . S
O209 C199 1.272 . S
O209 Co201 2.135 . S
Co210 O211 2.216 . S
Co210 O212 2.091 . S
Co210 O214 2.004 . S
Co210 O220 2.021 . S
Co210 O222 2.137 . S
Co210 O223 2.244 . S
O211 Co210 2.216 . S
O211 C218 1.247 . S
O212 Co210 2.091 . S
O212 C218 1.261 . S
C213 O222 1.247 . S
C213 O223 1.272 . S
O214 Co210 2.004 . S
O214 C219 1.259 . S
Co215 O216 2.061 . S
Co215 O221 2.052 . S
Co215 O223 2.135 . S
O216 Co215 2.061 . S
O216 C219 1.235 . S
C217 O220 1.238 . S
C217 O221 1.241 . S
C218 O211 1.247 . S
C218 O212 1.261 . S
C219 O214 1.259 . S
C219 O216 1.235 . S
O220 Co210 2.021 . S
O220 C217 1.238 . S
O221 Co215 2.052 . S
O221 C217 1.241 . S
O222 Co210 2.137 . S
O222 C213 1.247 . S
O223 Co210 2.244 . S
O223 C213 1.272 . S
O223 Co215 2.135 . S
Co224 O225 2.216 . S
Co224 O226 2.091 . S
Co224 O228 2.004 1_545 S
Co224 O234 2.021 . S
Co224 O236 2.137 . S
Co224 O237 2.244 . S
O225 Co224 2.216 . S
O225 C232 1.247 . S
O226 Co224 2.091 . S
O226 C232 1.261 . S
C227 O236 1.247 . S
C227 O237 1.272 . S
O228 Co224 2.004 1_565 S
O228 C233 1.259 . S
Co229 O230 2.061 . S
Co229 O235 2.052 . S
Co229 O237 2.135 1_565 S
O230 Co229 2.061 . S
O230 C233 1.235 . S
C231 O234 1.238 . S
C231 O235 1.241 1_545 S
C232 O225 1.247 . S
C232 O226 1.261 . S
C233 O228 1.259 . S
C233 O230 1.235 . S
O234 Co224 2.021 . S
O234 C231 1.238 . S
O235 Co229 2.052 . S
O235 C231 1.241 1_565 S
O236 Co224 2.137 . S
O236 C227 1.247 . S
O237 Co224 2.244 . S
O237 C227 1.272 . S
O237 Co229 2.135 1_545 S
Co238 O239 2.216 . S
Co238 O240 2.091 . S
Co238 O242 2.004 . S
Co238 O248 2.021 . S
Co238 O250 2.137 . S
Co238 O251 2.244 . S
O239 Co238 2.216 . S
O239 C246 1.247 . S
O240 Co238 2.091 . S
O240 C246 1.261 . S
C241 O250 1.247 . S
C241 O251 1.272 . S
O242 Co238 2.004 . S
O242 C247 1.259 . S
Co243 O244 2.061 . S
Co243 O249 2.052 . S
Co243 O251 2.135 . S
O244 Co243 2.061 . S
O244 C247 1.235 . S
C245 O248 1.238 . S
C245 O249 1.241 . S
C246 O239 1.247 . S
C246 O240 1.261 . S
C247 O242 1.259 . S
C247 O244 1.235 . S
O248 Co238 2.021 . S
O248 C245 1.238 . S
O249 Co243 2.052 . S
O249 C245 1.241 . S
O250 Co238 2.137 . S
O250 C241 1.247 . S
O251 Co238 2.244 . S
O251 C241 1.272 . S
O251 Co243 2.135 . S
Co252 O253 2.216 . S
Co252 O254 2.091 . S
Co252 O256 2.004 . S
Co252 O262 2.021 . S
Co252 O264 2.137 . S
Co252 O265 2.244 . S
O253 Co252 2.216 . S
O253 C260 1.247 . S
O254 Co252 2.091 . S
O254 C260 1.261 . S
C255 O264 1.247 . S
C255 O265 1.272 . S
O256 Co252 2.004 . S
O256 C261 1.259 . S
Co257 O258 2.061 . S
Co257 O263 2.052 . S
Co257 O265 2.135 . S
O258 Co257 2.061 . S
O258 C261 1.235 . S
C259 O262 1.238 . S
C259 O263 1.241 . S
C260 O253 1.247 . S
C260 O254 1.261 . S
C261 O256 1.259 . S
C261 O258 1.235 . S
O262 Co252 2.021 . S
O262 C259 1.238 . S
O263 Co257 2.052 . S
O263 C259 1.241 . S
O264 Co252 2.137 . S
O264 C255 1.247 . S
O265 Co252 2.244 . S
O265 C255 1.272 . S
O265 Co257 2.135 . S
Co266 O267 2.216 . S
Co266 O268 2.091 . S
Co266 O270 2.004 . S
Co266 O276 2.021 . S
Co266 O278 2.137 . S
Co266 O279 2.244 . S
O267 Co266 2.216 . S
O267 C274 1.247 . S
O268 Co266 2.091 . S
O268 C274 1.261 . S
C269 O278 1.247 . S
C269 O279 1.272 . S
O270 Co266 2.004 . S
O270 C275 1.259 . S
Co271 O272 2.061 . S
Co271 O277 2.052 . S
Co271 O279 2.135 . S
O272 Co271 2.061 . S
O272 C275 1.235 . S
C273 O276 1.238 . S
C273 O277 1.241 . S
C274 O267 1.247 . S
C274 O268 1.261 . S
C275 O270 1.259 . S
C275 O272 1.235 . S
O276 Co266 2.021 . S
O276 C273 1.238 . S
O277 Co271 2.052 . S
O277 C273 1.241 . S
O278 Co266 2.137 . S
O278 C269 1.247 . S
O279 Co266 2.244 . S
O279 C269 1.272 . S
O279 Co271 2.135 . S
Co280 O281 2.216 . S
Co280 O282 2.091 . S
Co280 O284 2.004 . S
Co280 O290 2.021 . S
Co280 O292 2.137 1_554 S
Co280 O293 2.244 . S
O281 Co280 2.216 . S
O281 C288 1.247 . S
O282 Co280 2.091 . S
O282 C288 1.261 . S
C283 O292 1.247 . S
C283 O293 1.272 1_556 S
O284 Co280 2.004 . S
O284 C289 1.259 . S
Co285 O286 2.061 . S
Co285 O291 2.052 . S
Co285 O293 2.135 . S
O286 Co285 2.061 . S
O286 C289 1.235 . S
C287 O290 1.238 . S
C287 O291 1.241 . S
C288 O281 1.247 . S
C288 O282 1.261 . S
C289 O284 1.259 . S
C289 O286 1.235 . S
O290 Co280 2.021 . S
O290 C287 1.238 . S
O291 Co285 2.052 . S
O291 C287 1.241 . S
O292 Co280 2.137 1_556 S
O292 C283 1.247 . S
O293 Co280 2.244 . S
O293 C283 1.272 1_554 S
O293 Co285 2.135 . S
Co294 O295 2.216 . S
Co294 O296 2.091 . S
Co294 O298 2.004 . S
Co294 O304 2.021 . S
Co294 O306 2.137 . S
Co294 O307 2.244 . S
O295 Co294 2.216 . S
O295 C302 1.247 . S
O296 Co294 2.091 . S
O296 C302 1.261 . S
C297 O306 1.247 . S
C297 O307 1.272 . S
O298 Co294 2.004 . S
O298 C303 1.259 . S
Co299 O300 2.061 . S
Co299 O305 2.052 . S
Co299 O307 2.135 . S
O300 Co299 2.061 . S
O300 C303 1.235 . S
C301 O304 1.238 . S
C301 O305 1.241 . S
C302 O295 1.247 . S
C302 O296 1.261 . S
C303 O298 1.259 . S
C303 O300 1.235 . S
O304 Co294 2.021 . S
O304 C301 1.238 . S
O305 Co299 2.052 . S
O305 C301 1.241 . S
O306 Co294 2.137 . S
O306 C297 1.247 . S
O307 Co294 2.244 . S
O307 C297 1.272 . S
O307 Co299 2.135 . S
Co308 O309 2.216 . S
Co308 O310 2.091 . S
Co308 O312 2.004 . S
Co308 O318 2.021 . S
Co308 O320 2.137 . S
Co308 O321 2.244 . S
O309 Co308 2.216 . S
O309 C316 1.247 . S
O310 Co308 2.091 . S
O310 C316 1.261 . S
C311 O320 1.247 . S
C311 O321 1.272 . S
O312 Co308 2.004 . S
O312 C317 1.259 . S
Co313 O314 2.061 . S
Co313 O319 2.052 . S
Co313 O321 2.135 . S
O314 Co313 2.061 . S
O314 C317 1.235 . S
C315 O318 1.238 . S
C315 O319 1.241 . S
C316 O309 1.247 . S
C316 O310 1.261 . S
C317 O312 1.259 . S
C317 O314 1.235 . S
O318 Co308 2.021 . S
O318 C315 1.238 . S
O319 Co313 2.052 . S
O319 C315 1.241 . S
O320 Co308 2.137 . S
O320 C311 1.247 . S
O321 Co308 2.244 . S
O321 C311 1.272 . S
O321 Co313 2.135 . S
Co322 O323 2.216 . S
Co322 O324 2.091 . S
Co322 O326 2.004 . S
Co322 O332 2.021 . S
Co322 O334 2.137 . S
Co322 O335 2.244 . S
O323 Co322 2.216 . S
O323 C330 1.247 . S
O324 Co322 2.091 . S
O324 C330 1.261 . S
C325 O334 1.247 . S
C325 O335 1.272 . S
O326 Co322 2.004 . S
O326 C331 1.259 . S
Co327 O328 2.061 . S
Co327 O333 2.052 . S
Co327 O335 2.135 . S
O328 Co327 2.061 . S
O328 C331 1.235 . S
C329 O332 1.238 . S
C329 O333 1.241 . S
C330 O323 1.247 . S
C330 O324 1.261 . S
C331 O326 1.259 . S
C331 O328 1.235 . S
O332 Co322 2.021 . S
O332 C329 1.238 . S
O333 Co327 2.052 . S
O333 C329 1.241 . S
O334 Co322 2.137 . S
O334 C325 1.247 . S
O335 Co322 2.244 . S
O335 C325 1.272 . S
O335 Co327 2.135 . S
Tb336 C345 2.764 . S
Tb336 O346 2.325 . S
Tb336 O349 2.303 . S
Tb336 O353 2.322 . S
Tb336 O354 2.349 . S
Tb336 O357 2.415 . S
Tb336 O358 2.399 . S
Tb337 O347 2.322 1_545 S
Tb337 O348 2.349 1_554 S
Tb337 O350 2.415 1_455 S
Tb337 O351 2.399 1_454 S
Tb337 O352 2.325 . S
Tb337 O355 2.303 . S
Tb337 C366 2.764 1_455 S
C338 O354 1.261 . S
C338 O355 1.257 . S
C339 C342 1.358 . S
C339 C343 1.332 . S
C339 C345 1.504 . S
C340 C341 1.373 . S
C340 C344 1.308 . S
C341 C340 1.373 . S
C341 C342 1.429 . S
C341 H368 0.932 . S
C342 C339 1.358 . S
C342 C341 1.429 . S
C342 H369 0.930 . S
C343 C339 1.332 . S
C343 C344 1.394 . S
C343 H370 0.932 . S
C344 C340 1.308 . S
C344 C343 1.394 . S
C344 H371 0.929 . S
C345 Tb336 2.764 . S
C345 C339 1.504 . S
C345 O357 1.239 . S
C345 O358 1.263 . S
O346 Tb336 2.325 . S
O346 C356 1.236 1_545 S
O347 Tb337 2.322 1_565 S
O347 C356 1.257 . S
O348 Tb337 2.349 1_556 S
O348 C359 1.261 . S
O349 Tb336 2.303 . S
O349 C359 1.257 1_554 S
O350 Tb337 2.415 1_655 S
O350 C366 1.239 . S
O351 Tb337 2.399 1_656 S
O351 C366 1.263 1_556 S
O352 Tb337 2.325 . S
O352 C367 1.236 . S
O353 Tb336 2.322 . S
O353 C367 1.257 . S
O354 Tb336 2.349 . S
O354 C338 1.261 . S
O355 Tb337 2.303 . S
O355 C338 1.257 . S
C356 O346 1.236 1_565 S
C356 O347 1.257 . S
O357 Tb336 2.415 . S
O357 C345 1.239 . S
O358 Tb336 2.399 . S
O358 C345 1.263 . S
C359 O348 1.261 . S
C359 O349 1.257 1_556 S
C360 C363 1.358 1_554 S
C360 C364 1.332 . S
C360 C366 1.504 . S
C361 C362 1.373 1_554 S
C361 C365 1.308 . S
C362 C361 1.373 1_556 S
C362 C363 1.429 . S
C362 H372 0.932 . S
C363 C360 1.358 1_556 S
C363 C362 1.429 . S
C363 H373 0.930 . S
C364 C360 1.332 . S
C364 C365 1.394 . S
C364 H374 0.932 . S
C365 C361 1.308 . S
C365 C364 1.394 . S
C365 H375 0.929 . S
C366 Tb337 2.764 1_655 S
C366 O350 1.239 . S
C366 O351 1.263 1_554 S
C366 C360 1.504 . S
C367 O352 1.236 . S
C367 O353 1.257 . S
H368 C341 0.932 . S
H369 C342 0.930 . S
H370 C343 0.932 . S
H371 C344 0.929 . S
H372 C362 0.932 . S
H373 C363 0.930 . S
H374 C364 0.932 . S
H375 C365 0.929 . S
Tb376 C385 2.764 . S
Tb376 O386 2.325 . S
Tb376 O389 2.303 . S
Tb376 O393 2.322 . S
Tb376 O394 2.349 . S
Tb376 O397 2.415 . S
Tb376 O398 2.399 . S
Tb377 O387 2.322 . S
Tb377 O388 2.349 . S
Tb377 O390 2.415 . S
Tb377 O391 2.399 . S
Tb377 O392 2.325 . S
Tb377 O395 2.303 . S
Tb377 C406 2.764 . S
C378 O394 1.261 . S
C378 O395 1.257 . S
C379 C382 1.358 . S
C379 C383 1.332 . S
C379 C385 1.504 . S
C380 C381 1.373 . S
C380 C384 1.308 . S
C381 C380 1.373 . S
C381 C382 1.429 . S
C381 H408 0.932 . S
C382 C379 1.358 . S
C382 C381 1.429 . S
C382 H409 0.930 . S
C383 C379 1.332 . S
C383 C384 1.394 . S
C383 H410 0.932 . S
C384 C380 1.308 . S
C384 C383 1.394 . S
C384 H411 0.929 . S
C385 Tb376 2.764 . S
C385 C379 1.504 . S
C385 O397 1.239 . S
C385 O398 1.263 . S
O386 Tb376 2.325 . S
O386 C396 1.236 . S
O387 Tb377 2.322 . S
O387 C396 1.257 . S
O388 Tb377 2.349 . S
O388 C399 1.261 . S
O389 Tb376 2.303 . S
O389 C399 1.257 . S
O390 Tb377 2.415 . S
O390 C406 1.239 . S
O391 Tb377 2.399 . S
O391 C406 1.263 . S
O392 Tb377 2.325 . S
O392 C407 1.236 . S
O393 Tb376 2.322 . S
O393 C407 1.257 . S
O394 Tb376 2.349 . S
O394 C378 1.261 . S
O395 Tb377 2.303 . S
O395 C378 1.257 . S
C396 O386 1.236 . S
C396 O387 1.257 . S
O397 Tb376 2.415 . S
O397 C385 1.239 . S
O398 Tb376 2.399 . S
O398 C385 1.263 . S
C399 O388 1.261 . S
C399 O389 1.257 . S
C400 C403 1.358 . S
C400 C404 1.332 . S
C400 C406 1.504 . S
C401 C402 1.373 . S
C401 C405 1.308 . S
C402 C401 1.373 . S
C402 C403 1.429 . S
C402 H412 0.932 . S
C403 C400 1.358 . S
C403 C402 1.429 . S
C403 H413 0.930 . S
C404 C400 1.332 . S
C404 C405 1.394 . S
C404 H414 0.932 . S
C405 C401 1.308 . S
C405 C404 1.394 . S
C405 H415 0.929 . S
C406 Tb377 2.764 . S
C406 O390 1.239 . S
C406 O391 1.263 . S
C406 C400 1.504 . S
C407 O392 1.236 . S
C407 O393 1.257 . S
H408 C381 0.932 . S
H409 C382 0.930 . S
H410 C383 0.932 . S
H411 C384 0.929 . S
H412 C402 0.932 . S
H413 C403 0.930 . S
H414 C404 0.932 . S
H415 C405 0.929 . S
Tb416 C425 2.764 . S
Tb416 O426 2.325 . S
Tb416 O429 2.303 . S
Tb416 O433 2.322 1_545 S
Tb416 O434 2.349 . S
Tb416 O437 2.415 . S
Tb416 O438 2.399 . S
Tb417 O427 2.322 . S
Tb417 O428 2.349 . S
Tb417 O430 2.415 . S
Tb417 O431 2.399 . S
Tb417 O432 2.325 1_545 S
Tb417 O435 2.303 . S
Tb417 C446 2.764 . S
C418 O434 1.261 . S
C418 O435 1.257 . S
C419 C422 1.358 . S
C419 C423 1.332 . S
C419 C425 1.504 . S
C420 C421 1.373 . S
C420 C424 1.308 . S
C421 C420 1.373 . S
C421 C422 1.429 . S
C421 H448 0.932 . S
C422 C419 1.358 . S
C422 C421 1.429 . S
C422 H449 0.930 . S
C423 C419 1.332 . S
C423 C424 1.394 . S
C423 H450 0.932 . S
C424 C420 1.308 . S
C424 C423 1.394 . S
C424 H451 0.929 . S
C425 Tb416 2.764 . S
C425 C419 1.504 . S
C425 O437 1.239 . S
C425 O438 1.263 . S
O426 Tb416 2.325 . S
O426 C436 1.236 . S
O427 Tb417 2.322 . S
O427 C436 1.257 . S
O428 Tb417 2.349 . S
O428 C439 1.261 . S
O429 Tb416 2.303 . S
O429 C439 1.257 . S
O430 Tb417 2.415 . S
O430 C446 1.239 . S
O431 Tb417 2.399 . S
O431 C446 1.263 . S
O432 Tb417 2.325 1_565 S
O432 C447 1.236 . S
O433 Tb416 2.322 1_565 S
O433 C447 1.257 . S
O434 Tb416 2.349 . S
O434 C418 1.261 . S
O435 Tb417 2.303 . S
O435 C418 1.257 . S
C436 O426 1.236 . S
C436 O427 1.257 . S
O437 Tb416 2.415 . S
O437 C425 1.239 . S
O438 Tb416 2.399 . S
O438 C425 1.263 . S
C439 O428 1.261 . S
C439 O429 1.257 . S
C440 C443 1.358 . S
C440 C444 1.332 1_545 S
C440 C446 1.504 . S
C441 C442 1.373 . S
C441 C445 1.308 . S
C442 C441 1.373 . S
C442 C443 1.429 1_565 S
C442 H452 0.932 . S
C443 C440 1.358 . S
C443 C442 1.429 1_545 S
C443 H453 0.930 . S
C444 C440 1.332 1_565 S
C444 C445 1.394 . S
C444 H454 0.932 . S
C445 C441 1.308 . S
C445 C444 1.394 . S
C445 H455 0.929 . S
C446 Tb417 2.764 . S
C446 O430 1.239 . S
C446 O431 1.263 . S
C446 C440 1.504 . S
C447 O432 1.236 . S
C447 O433 1.257 . S
H448 C421 0.932 . S
H449 C422 0.930 . S
H450 C423 0.932 . S
H451 C424 0.929 . S
H452 C442 0.932 . S
H453 C443 0.930 . S
H454 C444 0.932 . S
H455 C445 0.929 . S
Tb456 C465 2.764 . S
Tb456 O466 2.325 . S
Tb456 O469 2.303 . S
Tb456 O473 2.322 . S
Tb456 O474 2.349 . S
Tb456 O477 2.415 . S
Tb456 O478 2.399 . S
Tb457 O467 2.322 . S
Tb457 O468 2.349 . S
Tb457 O470 2.415 . S
Tb457 O471 2.399 . S
Tb457 O472 2.325 . S
Tb457 O475 2.303 . S
Tb457 C486 2.764 . S
C458 O474 1.261 . S
C458 O475 1.257 . S
C459 C462 1.358 . S
C459 C463 1.332 . S
C459 C465 1.504 . S
C460 C461 1.373 . S
C460 C464 1.308 . S
C461 C460 1.373 . S
C461 C462 1.429 . S
C461 H488 0.932 . S
C462 C459 1.358 . S
C462 C461 1.429 . S
C462 H489 0.930 . S
C463 C459 1.332 . S
C463 C464 1.394 . S
C463 H490 0.932 . S
C464 C460 1.308 . S
C464 C463 1.394 . S
C464 H491 0.929 . S
C465 Tb456 2.764 . S
C465 C459 1.504 . S
C465 O477 1.239 . S
C465 O478 1.263 . S
O466 Tb456 2.325 . S
O466 C476 1.236 . S
O467 Tb457 2.322 . S
O467 C476 1.257 . S
O468 Tb457 2.349 . S
O468 C479 1.261 . S
O469 Tb456 2.303 . S
O469 C479 1.257 . S
O470 Tb457 2.415 . S
O470 C486 1.239 . S
O471 Tb457 2.399 . S
O471 C486 1.263 . S
O472 Tb457 2.325 . S
O472 C487 1.236 . S
O473 Tb456 2.322 . S
O473 C487 1.257 . S
O474 Tb456 2.349 . S
O474 C458 1.261 . S
O475 Tb457 2.303 . S
O475 C458 1.257 . S
C476 O466 1.236 . S
C476 O467 1.257 . S
O477 Tb456 2.415 . S
O477 C465 1.239 . S
O478 Tb456 2.399 . S
O478 C465 1.263 . S
C479 O468 1.261 . S
C479 O469 1.257 . S
C480 C483 1.358 . S
C480 C484 1.332 . S
C480 C486 1.504 . S
C481 C482 1.373 . S
C481 C485 1.308 . S
C482 C481 1.373 . S
C482 C483 1.429 . S
C482 H492 0.932 . S
C483 C480 1.358 . S
C483 C482 1.429 . S
C483 H493 0.930 . S
C484 C480 1.332 . S
C484 C485 1.394 . S
C484 H494 0.932 . S
C485 C481 1.308 . S
C485 C484 1.394 . S
C485 H495 0.929 . S
C486 Tb457 2.764 . S
C486 O470 1.239 . S
C486 O471 1.263 . S
C486 C480 1.504 . S
C487 O472 1.236 . S
C487 O473 1.257 . S
H488 C461 0.932 . S
H489 C462 0.930 . S
H490 C463 0.932 . S
H491 C464 0.929 . S
H492 C482 0.932 . S
H493 C483 0.930 . S
H494 C484 0.932 . S
H495 C485 0.929 . S
Tb496 C505 2.764 . S
Tb496 O506 2.325 . S
Tb496 O509 2.303 . S
Tb496 O513 2.322 . S
Tb496 O514 2.349 . S
Tb496 O517 2.415 . S
Tb496 O518 2.399 . S
Tb497 O507 2.322 1_545 S
Tb497 O508 2.349 . S
Tb497 O510 2.415 . S
Tb497 O511 2.399 . S
Tb497 O512 2.325 . S
Tb497 O515 2.303 . S
Tb497 C526 2.764 . S
C498 O514 1.261 1_655 S
C498 O515 1.257 1_655 S
C499 C502 1.358 . S
C499 C503 1.332 . S
C499 C505 1.504 . S
C500 C501 1.373 . S
C500 C504 1.308 . S
C501 C500 1.373 . S
C501 C502 1.429 . S
C501 H528 0.932 . S
C502 C499 1.358 . S
C502 C501 1.429 . S
C502 H529 0.930 . S
C503 C499 1.332 . S
C503 C504 1.394 . S
C503 H530 0.932 . S
C504 C500 1.308 . S
C504 C503 1.394 . S
C504 H531 0.929 . S
C505 Tb496 2.764 . S
C505 C499 1.504 . S
C505 O517 1.239 . S
C505 O518 1.263 . S
O506 Tb496 2.325 . S
O506 C516 1.236 1_545 S
O507 Tb497 2.322 1_565 S
O507 C516 1.257 . S
O508 Tb497 2.349 . S
O508 C519 1.261 . S
O509 Tb496 2.303 . S
O509 C519 1.257 . S
O510 Tb497 2.415 . S
O510 C526 1.239 . S
O511 Tb497 2.399 . S
O511 C526 1.263 . S
O512 Tb497 2.325 . S
O512 C527 1.236 . S
O513 Tb496 2.322 . S
O513 C527 1.257 . S
O514 Tb496 2.349 . S
O514 C498 1.261 1_455 S
O515 Tb497 2.303 . S
O515 C498 1.257 1_455 S
C516 O506 1.236 1_565 S
C516 O507 1.257 . S
O517 Tb496 2.415 . S
O517 C505 1.239 . S
O518 Tb496 2.399 . S
O518 C505 1.263 . S
C519 O508 1.261 . S
C519 O509 1.257 . S
C520 C523 1.358 . S
C520 C524 1.332 1_455 S
C520 C526 1.504 . S
C521 C522 1.398 . S
C521 C525 1.290 1_455 S
C522 C521 1.398 . S
C522 C523 1.429 . S
C522 H532 0.932 . S
C523 C520 1.358 . S
C523 C522 1.429 . S
C523 H533 0.930 . S
C524 C520 1.332 1_655 S
C524 C525 1.394 . S
C524 H534 0.932 . S
C525 C521 1.290 1_655 S
C525 C524 1.394 . S
C525 H535 0.929 . S
C526 Tb497 2.764 . S
C526 O510 1.239 . S
C526 O511 1.263 . S
C526 C520 1.504 . S
C527 O512 1.236 . S
C527 O513 1.257 . S
H528 C501 0.932 . S
H529 C502 0.930 . S
H530 C503 0.932 . S
H531 C504 0.929 . S
H532 C522 0.932 . S
H533 C523 0.930 . S
H534 C524 0.932 . S
H535 C525 0.929 . S
Tb536 C545 2.764 . S
Tb536 O546 2.325 . S
Tb536 O549 2.303 . S
Tb536 O553 2.322 . S
Tb536 O554 2.349 . S
Tb536 O557 2.415 . S
Tb536 O558 2.399 . S
Tb537 O547 2.322 . S
Tb537 O548 2.349 . S
Tb537 O550 2.415 . S
Tb537 O551 2.399 . S
Tb537 O552 2.325 . S
Tb537 O555 2.303 . S
Tb537 C566 2.764 . S
C538 O554 1.261 . S
C538 O555 1.257 . S
C539 C542 1.358 . S
C539 C543 1.332 . S
C539 C545 1.504 . S
C540 C541 1.373 . S
C540 C544 1.308 . S
C541 C540 1.373 . S
C541 C542 1.429 . S
C541 H568 0.932 . S
C542 C539 1.358 . S
C542 C541 1.429 . S
C542 H569 0.930 . S
C543 C539 1.332 . S
C543 C544 1.394 . S
C543 H570 0.932 . S
C544 C540 1.308 . S
C544 C543 1.394 . S
C544 H571 0.929 . S
C545 Tb536 2.764 . S
C545 C539 1.504 . S
C545 O557 1.239 . S
C545 O558 1.263 . S
O546 Tb536 2.325 . S
O546 C556 1.236 . S
O547 Tb537 2.322 . S
O547 C556 1.257 . S
O548 Tb537 2.349 . S
O548 C559 1.261 . S
O549 Tb536 2.303 . S
O549 C559 1.257 . S
O550 Tb537 2.415 . S
O550 C566 1.239 . S
O551 Tb537 2.399 . S
O551 C566 1.263 . S
O552 Tb537 2.325 . S
O552 C567 1.236 . S
O553 Tb536 2.322 . S
O553 C567 1.257 . S
O554 Tb536 2.349 . S
O554 C538 1.261 . S
O555 Tb537 2.303 . S
O555 C538 1.257 . S
C556 O546 1.236 . S
C556 O547 1.257 . S
O557 Tb536 2.415 . S
O557 C545 1.239 . S
O558 Tb536 2.399 . S
O558 C545 1.263 . S
C559 O548 1.261 . S
C559 O549 1.257 . S
C560 C563 1.358 . S
C560 C564 1.332 . S
C560 C566 1.504 . S
C561 C562 1.373 . S
C561 C565 1.308 . S
C562 C561 1.373 . S
C562 C563 1.429 . S
C562 H572 0.932 . S
C563 C560 1.358 . S
C563 C562 1.429 . S
C563 H573 0.930 . S
C564 C560 1.332 . S
C564 C565 1.394 . S
C564 H574 0.932 . S
C565 C561 1.308 . S
C565 C564 1.394 . S
C565 H575 0.929 . S
C566 Tb537 2.764 . S
C566 O550 1.239 . S
C566 O551 1.263 . S
C566 C560 1.504 . S
C567 O552 1.236 . S
C567 O553 1.257 . S
H568 C541 0.932 . S
H569 C542 0.930 . S
H570 C543 0.932 . S
H571 C544 0.929 . S
H572 C562 0.932 . S
H573 C563 0.930 . S
H574 C564 0.932 . S
H575 C565 0.929 . S
Tb576 C585 2.764 . S
Tb576 O586 2.325 . S
Tb576 O589 2.303 . S
Tb576 O593 2.322 1_545 S
Tb576 O594 2.349 . S
Tb576 O597 2.415 . S
Tb576 O598 2.399 . S
Tb577 O587 2.322 . S
Tb577 O588 2.349 . S
Tb577 O590 2.415 1_554 S
Tb577 O591 2.399 1_554 S
Tb577 O592 2.326 . S
Tb577 O595 2.303 . S
Tb577 C606 2.764 1_554 S
C578 O594 1.261 . S
C578 O595 1.257 . S
C579 C582 1.358 . S
C579 C583 1.332 . S
C579 C585 1.504 . S
C580 C581 1.373 . S
C580 C584 1.308 . S
C581 C580 1.373 . S
C581 C582 1.429 . S
C581 H608 0.932 . S
C582 C579 1.358 . S
C582 C581 1.429 . S
C582 H609 0.930 . S
C583 C579 1.332 . S
C583 C584 1.394 . S
C583 H610 0.932 . S
C584 C580 1.308 . S
C584 C583 1.394 . S
C584 H611 0.929 . S
C585 Tb576 2.764 . S
C585 C579 1.504 . S
C585 O597 1.239 . S
C585 O598 1.263 . S
O586 Tb576 2.325 . S
O586 C596 1.236 . S
O587 Tb577 2.322 . S
O587 C596 1.257 . S
O588 Tb577 2.349 . S
O588 C599 1.261 . S
O589 Tb576 2.303 . S
O589 C599 1.257 . S
O590 Tb577 2.415 1_556 S
O590 C606 1.239 . S
O591 Tb577 2.399 1_556 S
O591 C606 1.263 . S
O592 Tb577 2.326 . S
O592 C607 1.260 1_545 S
O593 Tb576 2.322 1_565 S
O593 C607 1.257 . S
O594 Tb576 2.349 . S
O594 C578 1.261 . S
O595 Tb577 2.303 . S
O595 C578 1.257 . S
C596 O586 1.236 . S
C596 O587 1.257 . S
O597 Tb576 2.415 . S
O597 C585 1.239 . S
O598 Tb576 2.399 . S
O598 C585 1.263 . S
C599 O588 1.261 . S
C599 O589 1.257 . S
C600 C603 1.358 . S
C600 C604 1.332 . S
C600 C606 1.504 . S
C601 C602 1.373 . S
C601 C605 1.308 . S
C602 C601 1.373 . S
C602 C603 1.429 . S
C602 H612 0.932 . S
C603 C600 1.358 . S
C603 C602 1.429 . S
C603 H613 0.930 . S
C604 C600 1.332 . S
C604 C605 1.394 . S
C604 H614 0.932 . S
C605 C601 1.308 . S
C605 C604 1.394 . S
C605 H615 0.929 . S
C606 Tb577 2.764 1_556 S
C606 O590 1.239 . S
C606 O591 1.263 . S
C606 C600 1.504 . S
C607 O592 1.260 1_565 S
C607 O593 1.257 . S
H608 C581 0.932 . S
H609 C582 0.930 . S
H610 C583 0.932 . S
H611 C584 0.929 . S
H612 C602 0.932 . S
H613 C603 0.930 . S
H614 C604 0.932 . S
H615 C605 0.929 . S
Tb616 C625 2.764 . S
Tb616 O626 2.325 . S
Tb616 O629 2.303 . S
Tb616 O633 2.322 . S
Tb616 O634 2.349 . S
Tb616 O637 2.415 . S
Tb616 O638 2.399 . S
Tb617 O627 2.322 . S
Tb617 O628 2.349 . S
Tb617 O630 2.415 . S
Tb617 O631 2.399 . S
Tb617 O632 2.325 . S
Tb617 O635 2.303 . S
Tb617 C646 2.764 . S
C618 O634 1.261 . S
C618 O635 1.257 . S
C619 C622 1.358 . S
C619 C623 1.332 . S
C619 C625 1.504 . S
C620 C621 1.373 . S
C620 C624 1.308 . S
C621 C620 1.373 . S
C621 C622 1.429 . S
C621 H648 0.932 . S
C622 C619 1.358 . S
C622 C621 1.429 . S
C622 H649 0.930 . S
C623 C619 1.332 . S
C623 C624 1.394 . S
C623 H650 0.932 . S
C624 C620 1.308 . S
C624 C623 1.394 . S
C624 H651 0.929 . S
C625 Tb616 2.764 . S
C625 C619 1.504 . S
C625 O637 1.239 . S
C625 O638 1.263 . S
O626 Tb616 2.325 . S
O626 C636 1.236 . S
O627 Tb617 2.322 . S
O627 C636 1.257 . S
O628 Tb617 2.349 . S
O628 C639 1.261 . S
O629 Tb616 2.303 . S
O629 C639 1.257 . S
O630 Tb617 2.415 . S
O630 C646 1.239 . S
O631 Tb617 2.399 . S
O631 C646 1.263 . S
O632 Tb617 2.325 . S
O632 C647 1.236 . S
O633 Tb616 2.322 . S
O633 C647 1.257 . S
O634 Tb616 2.349 . S
O634 C618 1.261 . S
O635 Tb617 2.303 . S
O635 C618 1.257 . S
C636 O626 1.236 . S
C636 O627 1.257 . S
O637 Tb616 2.415 . S
O637 C625 1.239 . S
O638 Tb616 2.399 . S
O638 C625 1.263 . S
C639 O628 1.261 . S
C639 O629 1.257 . S
C640 C643 1.358 . S
C640 C644 1.332 . S
C640 C646 1.504 . S
C641 C642 1.373 . S
C641 C645 1.308 . S
C642 C641 1.373 . S
C642 C643 1.429 . S
C642 H652 0.932 . S
C643 C640 1.358 . S
C643 C642 1.429 . S
C643 H653 0.930 . S
C644 C640 1.332 . S
C644 C645 1.394 . S
C644 H654 0.932 . S
C645 C641 1.308 . S
C645 C644 1.394 . S
C645 H655 0.929 . S
C646 Tb617 2.764 . S
C646 O630 1.239 . S
C646 O631 1.263 . S
C646 C640 1.504 . S
C647 O632 1.236 . S
C647 O633 1.257 . S
H648 C621 0.932 . S
H649 C622 0.930 . S
H650 C623 0.932 . S
H651 C624 0.929 . S
H652 C642 0.932 . S
H653 C643 0.930 . S
H654 C644 0.932 . S
H655 C645 0.929 . S
Tb656 C665 2.764 . S
Tb656 O666 2.325 . S
Tb656 O669 2.303 . S
Tb656 O673 2.322 . S
Tb656 O674 2.349 . S
Tb656 O677 2.415 . S
Tb656 O678 2.399 . S
Tb657 O667 2.322 . S
Tb657 O668 2.349 . S
Tb657 O670 2.415 1_554 S
Tb657 O671 2.399 1_554 S
Tb657 O672 2.325 . S
Tb657 O675 2.303 . S
Tb657 C686 2.764 1_554 S
C658 O674 1.261 . S
C658 O675 1.257 . S
C659 C662 1.358 . S
C659 C663 1.332 . S
C659 C665 1.504 . S
C660 C661 1.373 . S
C660 C664 1.308 . S
C661 C660 1.373 . S
C661 C662 1.429 . S
C661 H688 0.932 . S
C662 C659 1.358 . S
C662 C661 1.429 . S
C662 H689 0.930 . S
C663 C659 1.332 . S
C663 C664 1.394 . S
C663 H690 0.932 . S
C664 C660 1.308 . S
C664 C663 1.394 . S
C664 H691 0.929 . S
C665 Tb656 2.764 . S
C665 C659 1.504 . S
C665 O677 1.239 . S
C665 O678 1.263 . S
O666 Tb656 2.325 . S
O666 C676 1.236 . S
O667 Tb657 2.322 . S
O667 C676 1.257 . S
O668 Tb657 2.349 . S
O668 C679 1.261 . S
O669 Tb656 2.303 . S
O669 C679 1.257 . S
O670 Tb657 2.415 1_556 S
O670 C686 1.239 . S
O671 Tb657 2.399 1_556 S
O671 C686 1.263 . S
O672 Tb657 2.325 . S
O672 C687 1.236 . S
O673 Tb656 2.322 . S
O673 C687 1.257 . S
O674 Tb656 2.349 . S
O674 C658 1.261 . S
O675 Tb657 2.303 . S
O675 C658 1.257 . S
C676 O666 1.236 . S
C676 O667 1.257 . S
O677 Tb656 2.415 . S
O677 C665 1.239 . S
O678 Tb656 2.399 . S
O678 C665 1.263 . S
C679 O668 1.261 . S
C679 O669 1.257 . S
C680 C683 1.358 . S
C680 C684 1.332 . S
C680 C686 1.504 . S
C681 C682 1.373 . S
C681 C685 1.308 . S
C682 C681 1.373 . S
C682 C683 1.429 . S
C682 H692 0.932 . S
C683 C680 1.358 . S
C683 C682 1.429 . S
C683 H693 0.930 . S
C684 C680 1.332 . S
C684 C685 1.394 . S
C684 H694 0.932 . S
C685 C681 1.308 . S
C685 C684 1.394 . S
C685 H695 0.929 . S
C686 Tb657 2.764 1_556 S
C686 O670 1.239 . S
C686 O671 1.263 . S
C686 C680 1.504 . S
C687 O672 1.236 . S
C687 O673 1.257 . S
H688 C661 0.932 . S
H689 C662 0.930 . S
H690 C663 0.932 . S
H691 C664 0.929 . S
H692 C682 0.932 . S
H693 C683 0.930 . S
H694 C684 0.932 . S
H695 C685 0.929 . S
Tb696 C705 2.764 . S
Tb696 O706 2.325 . S
Tb696 O709 2.303 . S
Tb696 O713 2.322 . S
Tb696 O714 2.349 . S
Tb696 O717 2.415 . S
Tb696 O718 2.399 . S
Tb697 O707 2.322 . S
Tb697 O708 2.349 . S
Tb697 O710 2.415 . S
Tb697 O711 2.399 . S
Tb697 O712 2.325 . S
Tb697 O715 2.303 . S
Tb697 C726 2.764 . S
C698 O714 1.261 . S
C698 O715 1.257 . S
C699 C702 1.358 . S
C699 C703 1.332 . S
C699 C705 1.504 . S
C700 C701 1.373 . S
C700 C704 1.308 . S
C701 C700 1.373 . S
C701 C702 1.429 . S
C701 H728 0.932 . S
C702 C699 1.358 . S
C702 C701 1.429 . S
C702 H729 0.930 . S
C703 C699 1.332 . S
C703 C704 1.394 . S
C703 H730 0.932 . S
C704 C700 1.308 . S
C704 C703 1.394 . S
C704 H731 0.929 . S
C705 Tb696 2.764 . S
C705 C699 1.504 . S
C705 O717 1.239 . S
C705 O718 1.263 . S
O706 Tb696 2.325 . S
O706 C716 1.236 . S
O707 Tb697 2.322 . S
O707 C716 1.257 . S
O708 Tb697 2.349 . S
O708 C719 1.261 . S
O709 Tb696 2.303 . S
O709 C719 1.257 . S
O710 Tb697 2.415 . S
O710 C726 1.239 . S
O711 Tb697 2.399 . S
O711 C726 1.263 . S
O712 Tb697 2.325 . S
O712 C727 1.236 . S
O713 Tb696 2.322 . S
O713 C727 1.257 . S
O714 Tb696 2.349 . S
O714 C698 1.261 . S
O715 Tb697 2.303 . S
O715 C698 1.257 . S
C716 O706 1.236 . S
C716 O707 1.257 . S
O717 Tb696 2.415 . S
O717 C705 1.239 . S
O718 Tb696 2.399 . S
O718 C705 1.263 . S
C719 O708 1.261 . S
C719 O709 1.257 . S
C720 C723 1.358 . S
C720 C724 1.332 . S
C720 C726 1.504 . S
C721 C722 1.373 . S
C721 C725 1.308 . S
C722 C721 1.373 . S
C722 C723 1.429 . S
C722 H732 0.932 . S
C723 C720 1.358 . S
C723 C722 1.429 . S
C723 H733 0.930 . S
C724 C720 1.332 . S
C724 C725 1.394 . S
C724 H734 0.932 . S
C725 C721 1.308 . S
C725 C724 1.394 . S
C725 H735 0.929 . S
C726 Tb697 2.764 . S
C726 O710 1.239 . S
C726 O711 1.263 . S
C726 C720 1.504 . S
C727 O712 1.236 . S
C727 O713 1.257 . S
H728 C701 0.932 . S
H729 C702 0.930 . S
H730 C703 0.932 . S
H731 C704 0.929 . S
H732 C722 0.932 . S
H733 C723 0.930 . S
H734 C724 0.932 . S
H735 C725 0.929 . S
Tb736 C745 2.764 . S
Tb736 O746 2.325 . S
Tb736 O749 2.303 . S
Tb736 O753 2.322 . S
Tb736 O754 2.349 . S
Tb736 O757 2.415 . S
Tb736 O758 2.399 . S
Tb737 O747 2.322 . S
Tb737 O748 2.349 . S
Tb737 O750 2.415 . S
Tb737 O751 2.399 . S
Tb737 O752 2.325 . S
Tb737 O755 2.303 . S
Tb737 C766 2.764 . S
C738 O754 1.261 . S
C738 O755 1.257 . S
C739 C742 1.358 . S
C739 C743 1.332 1_455 S
C739 C745 1.504 . S
C740 C741 1.373 . S
C740 C744 1.308 1_455 S
C741 C740 1.373 . S
C741 C742 1.429 . S
C741 H768 0.932 . S
C742 C739 1.358 . S
C742 C741 1.429 . S
C742 H769 0.930 . S
C743 C739 1.332 1_655 S
C743 C744 1.394 . S
C743 H770 0.932 . S
C744 C740 1.308 1_655 S
C744 C743 1.394 . S
C744 H771 0.929 . S
C745 Tb736 2.764 . S
C745 C739 1.504 . S
C745 O757 1.239 . S
C745 O758 1.263 . S
O746 Tb736 2.325 . S
O746 C756 1.236 . S
O747 Tb737 2.322 . S
O747 C756 1.257 . S
O748 Tb737 2.349 . S
O748 C759 1.261 1_455 S
O749 Tb736 2.303 . S
O749 C759 1.257 1_455 S
O750 Tb737 2.415 . S
O750 C766 1.239 . S
O751 Tb737 2.399 . S
O751 C766 1.263 . S
O752 Tb737 2.325 . S
O752 C767 1.236 . S
O753 Tb736 2.322 . S
O753 C767 1.257 . S
O754 Tb736 2.349 . S
O754 C738 1.261 . S
O755 Tb737 2.303 . S
O755 C738 1.257 . S
C756 O746 1.236 . S
C756 O747 1.257 . S
O757 Tb736 2.415 . S
O757 C745 1.239 . S
O758 Tb736 2.399 . S
O758 C745 1.263 . S
C759 O748 1.261 1_655 S
C759 O749 1.257 1_655 S
C760 C763 1.358 . S
C760 C764 1.332 . S
C760 C766 1.504 . S
C761 C762 1.373 . S
C761 C765 1.308 . S
C762 C761 1.373 . S
C762 C763 1.429 . S
C762 H772 0.932 . S
C763 C760 1.358 . S
C763 C762 1.429 . S
C763 H773 0.930 . S
C764 C760 1.332 . S
C764 C765 1.394 . S
C764 H774 0.932 . S
C765 C761 1.308 . S
C765 C764 1.394 . S
C765 H775 0.929 . S
C766 Tb737 2.764 . S
C766 O750 1.239 . S
C766 O751 1.263 . S
C766 C760 1.504 . S
C767 O752 1.236 . S
C767 O753 1.257 . S
H768 C741 0.932 . S
H769 C742 0.930 . S
H770 C743 0.932 . S
H771 C744 0.929 . S
H772 C762 0.932 . S
H773 C763 0.930 . S
H774 C764 0.932 . S
H775 C765 0.929 . S
Tb776 C785 2.764 . S
Tb776 O786 2.325 . S
Tb776 O789 2.303 . S
Tb776 O793 2.322 . S
Tb776 O794 2.349 . S
Tb776 O797 2.415 . S
Tb776 O798 2.399 . S
Tb777 O787 2.322 . S
Tb777 O788 2.349 . S
Tb777 O790 2.415 . S
Tb777 O791 2.399 . S
Tb777 O792 2.325 . S
Tb777 O795 2.303 . S
Tb777 C806 2.764 . S
C778 O794 1.261 . S
C778 O795 1.257 . S
C779 C782 1.358 . S
C779 C783 1.332 . S
C779 C785 1.504 . S
C780 C781 1.373 . S
C780 C784 1.308 . S
C781 C780 1.373 . S
C781 C782 1.429 . S
C781 H808 0.932 . S
C782 C779 1.358 . S
C782 C781 1.429 . S
C782 H809 0.930 . S
C783 C779 1.332 . S
C783 C784 1.394 . S
C783 H810 0.932 . S
C784 C780 1.308 . S
C784 C783 1.394 . S
C784 H811 0.929 . S
C785 Tb776 2.764 . S
C785 C779 1.504 . S
C785 O797 1.239 . S
C785 O798 1.263 . S
O786 Tb776 2.325 . S
O786 C796 1.236 . S
O787 Tb777 2.322 . S
O787 C796 1.257 . S
O788 Tb777 2.349 . S
O788 C799 1.261 . S
O789 Tb776 2.303 . S
O789 C799 1.257 . S
O790 Tb777 2.415 . S
O790 C806 1.239 . S
O791 Tb777 2.399 . S
O791 C806 1.263 . S
O792 Tb777 2.325 . S
O792 C807 1.236 . S
O793 Tb776 2.322 . S
O793 C807 1.257 . S
O794 Tb776 2.349 . S
O794 C778 1.261 . S
O795 Tb777 2.303 . S
O795 C778 1.257 . S
C796 O786 1.236 . S
C796 O787 1.257 . S
O797 Tb776 2.415 . S
O797 C785 1.239 . S
O798 Tb776 2.399 . S
O798 C785 1.263 . S
C799 O788 1.261 . S
C799 O789 1.257 . S
C800 C803 1.358 . S
C800 C804 1.332 . S
C800 C806 1.504 . S
C801 C802 1.373 . S
C801 C805 1.308 . S
C802 C801 1.373 . S
C802 C803 1.429 . S
C802 H812 0.932 . S
C803 C800 1.358 . S
C803 C802 1.429 . S
C803 H813 0.930 . S
C804 C800 1.332 . S
C804 C805 1.394 . S
C804 H814 0.932 . S
C805 C801 1.308 . S
C805 C804 1.394 . S
C805 H815 0.929 . S
C806 Tb777 2.764 . S
C806 O790 1.239 . S
C806 O791 1.263 . S
C806 C800 1.504 . S
C807 O792 1.236 . S
C807 O793 1.257 . S
H808 C781 0.932 . S
H809 C782 0.930 . S
H810 C783 0.932 . S
H811 C784 0.929 . S
H812 C802 0.932 . S
H813 C803 0.930 . S
H814 C804 0.932 . S
H815 C805 0.929 . S
Tb816 C825 2.764 . S
Tb816 O826 2.325 . S
Tb816 O829 2.303 . S
Tb816 O833 2.322 . S
Tb816 O834 2.349 . S
Tb816 O837 2.415 . S
Tb816 O838 2.399 . S
Tb817 O827 2.322 . S
Tb817 O828 2.349 . S
Tb817 O830 2.415 . S
Tb817 O831 2.399 . S
Tb817 O832 2.325 . S
Tb817 O835 2.303 . S
Tb817 C846 2.764 . S
C818 O834 1.261 . S
C818 O835 1.257 . S
C819 C822 1.358 . S
C819 C823 1.332 . S
C819 C825 1.504 . S
C820 C821 1.373 . S
C820 C824 1.308 . S
C821 C820 1.373 . S
C821 C822 1.429 . S
C821 H848 0.932 . S
C822 C819 1.358 . S
C822 C821 1.429 . S
C822 H849 0.930 . S
C823 C819 1.332 . S
C823 C824 1.394 . S
C823 H850 0.932 . S
C824 C820 1.308 . S
C824 C823 1.394 . S
C824 H851 0.929 . S
C825 Tb816 2.764 . S
C825 C819 1.504 . S
C825 O837 1.239 . S
C825 O838 1.263 . S
O826 Tb816 2.325 . S
O826 C836 1.236 . S
O827 Tb817 2.322 . S
O827 C836 1.257 . S
O828 Tb817 2.349 . S
O828 C839 1.261 . S
O829 Tb816 2.303 . S
O829 C839 1.257 . S
O830 Tb817 2.415 . S
O830 C846 1.239 . S
O831 Tb817 2.399 . S
O831 C846 1.263 . S
O832 Tb817 2.325 . S
O832 C847 1.236 . S
O833 Tb816 2.322 . S
O833 C847 1.257 . S
O834 Tb816 2.349 . S
O834 C818 1.261 . S
O835 Tb817 2.303 . S
O835 C818 1.257 . S
C836 O826 1.236 . S
C836 O827 1.257 . S
O837 Tb816 2.415 . S
O837 C825 1.239 . S
O838 Tb816 2.399 . S
O838 C825 1.263 . S
C839 O828 1.261 . S
C839 O829 1.257 . S
C840 C843 1.358 . S
C840 C844 1.332 . S
C840 C846 1.504 . S
C841 C842 1.373 . S
C841 C845 1.308 . S
C842 C841 1.373 . S
C842 C843 1.429 . S
C842 H852 0.932 . S
C843 C840 1.358 . S
C843 C842 1.429 . S
C843 H853 0.930 . S
C844 C840 1.332 . S
C844 C845 1.394 . S
C844 H854 0.932 . S
C845 C841 1.308 . S
C845 C844 1.394 . S
C845 H855 0.929 . S
C846 Tb817 2.764 . S
C846 O830 1.239 . S
C846 O831 1.263 . S
C846 C840 1.504 . S
C847 O832 1.236 . S
C847 O833 1.257 . S
H848 C821 0.932 . S
H849 C822 0.930 . S
H850 C823 0.932 . S
H851 C824 0.929 . S
H852 C842 0.932 . S
H853 C843 0.930 . S
H854 C844 0.932 . S
H855 C845 0.929 . S
Tb856 C865 2.764 . S
Tb856 O866 2.325 . S
Tb856 O869 2.303 . S
Tb856 O873 2.322 . S
Tb856 O874 2.349 . S
Tb856 O877 2.415 . S
Tb856 O878 2.399 . S
Tb857 O867 2.322 . S
Tb857 O868 2.349 . S
Tb857 O870 2.415 . S
Tb857 O871 2.399 . S
Tb857 O872 2.325 . S
Tb857 O875 2.303 . S
Tb857 C886 2.764 . S
C858 O874 1.261 . S
C858 O875 1.257 . S
C859 C862 1.358 . S
C859 C863 1.332 . S
C859 C865 1.504 . S
C860 C861 1.373 . S
C860 C864 1.308 . S
C861 C860 1.373 . S
C861 C862 1.429 . S
C861 H888 0.932 . S
C862 C859 1.358 . S
C862 C861 1.429 . S
C862 H889 0.930 . S
C863 C859 1.332 . S
C863 C864 1.394 . S
C863 H890 0.932 . S
C864 C860 1.308 . S
C864 C863 1.394 . S
C864 H891 0.929 . S
C865 Tb856 2.764 . S
C865 C859 1.504 . S
C865 O877 1.239 . S
C865 O878 1.263 . S
O866 Tb856 2.325 . S
O866 C876 1.236 . S
O867 Tb857 2.322 . S
O867 C876 1.257 . S
O868 Tb857 2.349 . S
O868 C879 1.261 . S
O869 Tb856 2.303 . S
O869 C879 1.257 . S
O870 Tb857 2.415 . S
O870 C886 1.239 . S
O871 Tb857 2.399 . S
O871 C886 1.263 . S
O872 Tb857 2.325 . S
O872 C887 1.236 . S
O873 Tb856 2.322 . S
O873 C887 1.257 . S
O874 Tb856 2.349 . S
O874 C858 1.261 . S
O875 Tb857 2.303 . S
O875 C858 1.257 . S
C876 O866 1.236 . S
C876 O867 1.257 . S
O877 Tb856 2.415 . S
O877 C865 1.239 . S
O878 Tb856 2.399 . S
O878 C865 1.263 . S
C879 O868 1.261 . S
C879 O869 1.257 . S
C880 C883 1.358 . S
C880 C884 1.332 . S
C880 C886 1.504 . S
C881 C882 1.373 . S
C881 C885 1.308 . S
C882 C881 1.373 . S
C882 C883 1.429 . S
C882 H892 0.932 . S
C883 C880 1.358 . S
C883 C882 1.429 . S
C883 H893 0.930 . S
C884 C880 1.332 . S
C884 C885 1.394 . S
C884 H894 0.932 . S
C885 C881 1.308 . S
C885 C884 1.394 . S
C885 H895 0.929 . S
C886 Tb857 2.764 . S
C886 O870 1.239 . S
C886 O871 1.263 . S
C886 C880 1.504 . S
C887 O872 1.236 . S
C887 O873 1.257 . S
H888 C861 0.932 . S
H889 C862 0.930 . S
H890 C863 0.932 . S
H891 C864 0.929 . S
H892 C882 0.932 . S
H893 C883 0.930 . S
H894 C884 0.932 . S
H895 C885 0.929 . S
Tb896 C905 2.764 . S
Tb896 O906 2.325 . S
Tb896 O909 2.303 . S
Tb896 O913 2.322 . S
Tb896 O914 2.349 . S
Tb896 O917 2.415 . S
Tb896 O918 2.399 . S
Tb897 O907 2.322 . S
Tb897 O908 2.349 . S
Tb897 O910 2.415 . S
Tb897 O911 2.399 . S
Tb897 O912 2.325 . S
Tb897 O915 2.303 . S
Tb897 C926 2.764 . S
C898 O914 1.261 . S
C898 O915 1.257 . S
C899 C902 1.358 . S
C899 C903 1.332 . S
C899 C905 1.504 . S
C900 C901 1.373 . S
C900 C904 1.308 . S
C901 C900 1.373 . S
C901 C902 1.429 . S
C901 H928 0.932 . S
C902 C899 1.358 . S
C902 C901 1.429 . S
C902 H929 0.930 . S
C903 C899 1.332 . S
C903 C904 1.394 . S
C903 H930 0.932 . S
C904 C900 1.308 . S
C904 C903 1.394 . S
C904 H931 0.929 . S
C905 Tb896 2.764 . S
C905 C899 1.504 . S
C905 O917 1.239 . S
C905 O918 1.263 . S
O906 Tb896 2.325 . S
O906 C916 1.236 . S
O907 Tb897 2.322 . S
O907 C916 1.257 . S
O908 Tb897 2.349 . S
O908 C919 1.261 . S
O909 Tb896 2.303 . S
O909 C919 1.257 . S
O910 Tb897 2.415 . S
O910 C926 1.239 . S
O911 Tb897 2.399 . S
O911 C926 1.263 . S
O912 Tb897 2.325 . S
O912 C927 1.236 . S
O913 Tb896 2.322 . S
O913 C927 1.257 . S
O914 Tb896 2.349 . S
O914 C898 1.261 . S
O915 Tb897 2.303 . S
O915 C898 1.257 . S
C916 O906 1.236 . S
C916 O907 1.257 . S
O917 Tb896 2.415 . S
O917 C905 1.239 . S
O918 Tb896 2.399 . S
O918 C905 1.263 . S
C919 O908 1.261 . S
C919 O909 1.257 . S
C920 C923 1.358 . S
C920 C924 1.332 . S
C920 C926 1.504 . S
C921 C922 1.373 . S
C921 C925 1.308 . S
C922 C921 1.373 . S
C922 C923 1.429 . S
C922 H932 0.932 . S
C923 C920 1.358 . S
C923 C922 1.429 . S
C923 H933 0.930 . S
C924 C920 1.332 . S
C924 C925 1.394 . S
C924 H934 0.932 . S
C925 C921 1.308 . S
C925 C924 1.394 . S
C925 H935 0.929 . S
C926 Tb897 2.764 . S
C926 O910 1.239 . S
C926 O911 1.263 . S
C926 C920 1.504 . S
C927 O912 1.236 . S
C927 O913 1.257 . S
H928 C901 0.932 . S
H929 C902 0.930 . S
H930 C903 0.932 . S
H931 C904 0.929 . S
H932 C922 0.932 . S
H933 C923 0.930 . S
H934 C924 0.932 . S
H935 C925 0.929 . S
Tb936 C945 2.764 1_455 S
Tb936 O946 2.325 . S
Tb936 O949 2.303 . S
Tb936 O953 2.322 . S
Tb936 O954 2.349 . S
Tb936 O957 2.415 1_455 S
Tb936 O958 2.399 1_455 S
Tb937 O947 2.322 . S
Tb937 O948 2.349 1_554 S
Tb937 O950 2.415 . S
Tb937 O951 2.399 . S
Tb937 O952 2.325 . S
Tb937 O955 2.303 . S
Tb937 C966 2.764 . S
C938 O954 1.261 . S
C938 O955 1.257 . S
C939 C942 1.358 . S
C939 C943 1.332 . S
C939 C945 1.504 . S
C940 C941 1.373 . S
C940 C944 1.308 . S
C941 C940 1.373 . S
C941 C942 1.429 . S
C941 H968 0.932 . S
C942 C939 1.358 . S
C942 C941 1.429 . S
C942 H969 0.930 . S
C943 C939 1.332 . S
C943 C944 1.394 . S
C943 H970 0.932 . S
C944 C940 1.308 . S
C944 C943 1.394 . S
C944 H971 0.929 . S
C945 Tb936 2.764 1_655 S
C945 C939 1.504 . S
C945 O957 1.239 . S
C945 O958 1.263 . S
O946 Tb936 2.325 . S
O946 C956 1.236 . S
O947 Tb937 2.322 . S
O947 C956 1.257 . S
O948 Tb937 2.349 1_556 S
O948 C959 1.261 . S
O949 Tb936 2.303 . S
O949 C959 1.257 1_554 S
O950 Tb937 2.415 . S
O950 C966 1.239 . S
O951 Tb937 2.399 . S
O951 C966 1.263 . S
O952 Tb937 2.325 . S
O952 C967 1.236 . S
O953 Tb936 2.322 . S
O953 C967 1.257 . S
O954 Tb936 2.349 . S
O954 C938 1.261 . S
O955 Tb937 2.303 . S
O955 C938 1.257 . S
C956 O946 1.236 . S
C956 O947 1.257 . S
O957 Tb936 2.415 1_655 S
O957 C945 1.239 . S
O958 Tb936 2.399 1_655 S
O958 C945 1.263 . S
C959 O948 1.261 . S
C959 O949 1.257 1_556 S
C960 C963 1.358 1_554 S
C960 C964 1.332 . S
C960 C966 1.504 . S
C961 C962 1.373 1_554 S
C961 C965 1.308 . S
C962 C961 1.373 1_556 S
C962 C963 1.429 . S
C962 H972 0.932 . S
C963 C960 1.358 1_556 S
C963 C962 1.429 . S
C963 H973 0.930 . S
C964 C960 1.332 . S
C964 C965 1.394 . S
C964 H974 0.932 . S
C965 C961 1.308 . S
C965 C964 1.394 . S
C965 H975 0.929 . S
C966 Tb937 2.764 . S
C966 O950 1.239 . S
C966 O951 1.263 . S
C966 C960 1.504 . S
C967 O952 1.236 . S
C967 O953 1.257 . S
H968 C941 0.932 . S
H969 C942 0.930 . S
H970 C943 0.932 . S
H971 C944 0.929 . S
H972 C962 0.932 . S
H973 C963 0.930 . S
H974 C964 0.932 . S
H975 C965 0.929 . S
H976 C982 0.930 . S
H977 C985 0.930 . S
H978 C986 0.930 . S
H979 C987 0.930 1_655 S
H980 C990 0.930 . S
H981 C991 0.930 1_556 S
C982 H976 0.930 . S
C982 C983 1.337 1_455 S
C982 C984 1.415 . S
C983 C982 1.337 1_655 S
C983 C985 1.431 . S
C984 C982 1.415 . S
C984 C989 1.425 1_556 S
C984 C991 1.409 1_556 S
C985 H977 0.930 . S
C985 C983 1.431 . S
C985 C986 1.362 1_556 S
C986 H978 0.930 . S
C986 C985 1.362 1_554 S
C986 C989 1.409 1_655 S
C987 H979 0.930 1_455 S
C987 C988 1.355 . S
C987 C989 1.415 . S
C988 C987 1.355 . S
C988 C990 1.419 . S
C989 C984 1.425 1_554 S
C989 C986 1.409 1_455 S
C989 C987 1.415 . S
C990 H980 0.930 . S
C990 C988 1.419 . S
C990 C991 1.362 . S
C991 H981 0.930 1_554 S
C991 C984 1.409 1_554 S
C991 C990 1.362 . S
H992 C998 0.930 . S
H993 C1001 0.930 . S
H994 C1002 0.930 . S
H995 C1003 0.930 . S
H996 C1006 0.930 . S
H997 C1007 0.930 . S
C998 H992 0.930 . S
C998 C999 1.355 . S
C998 C1000 1.415 . S
C999 C998 1.355 . S
C999 C1001 1.419 . S
C1000 C998 1.415 . S
C1000 C1005 1.425 . S
C1000 C1007 1.409 . S
C1001 H993 0.930 . S
C1001 C999 1.419 . S
C1001 C1002 1.362 . S
C1002 H994 0.930 . S
C1002 C1001 1.362 . S
C1002 C1005 1.409 . S
C1003 H995 0.930 . S
C1003 C1004 1.355 . S
C1003 C1005 1.415 . S
C1004 C1003 1.355 . S
C1004 C1006 1.419 . S
C1005 C1000 1.425 . S
C1005 C1002 1.409 . S
C1005 C1003 1.415 . S
C1006 H996 0.930 . S
C1006 C1004 1.419 . S
C1006 C1007 1.362 . S
C1007 H997 0.930 . S
C1007 C1000 1.409 . S
C1007 C1006 1.362 . S
H1008 C1014 0.930 . S
H1009 C1017 0.930 . S
H1010 C1018 0.930 . S
H1011 C1019 0.930 . S
H1012 C1022 0.930 . S
H1013 C1023 0.930 . S
C1014 H1008 0.930 . S
C1014 C1015 1.355 . S
C1014 C1016 1.415 . S
C1015 C1014 1.355 . S
C1015 C1017 1.419 . S
C1016 C1014 1.415 . S
C1016 C1021 1.425 . S
C1016 C1023 1.409 . S
C1017 H1009 0.930 . S
C1017 C1015 1.419 . S
C1017 C1018 1.362 . S
C1018 H1010 0.930 . S
C1018 C1017 1.362 . S
C1018 C1021 1.409 . S
C1019 H1011 0.930 . S
C1019 C1020 1.355 . S
C1019 C1021 1.415 . S
C1020 C1019 1.355 . S
C1020 C1022 1.419 . S
C1021 C1016 1.425 . S
C1021 C1018 1.409 . S
C1021 C1019 1.415 . S
C1022 H1012 0.930 . S
C1022 C1020 1.419 . S
C1022 C1023 1.362 . S
C1023 H1013 0.930 . S
C1023 C1016 1.409 . S
C1023 C1022 1.362 . S
H1024 C1030 0.930 . S
H1025 C1033 0.930 . S
H1026 C1034 0.930 . S
H1027 C1035 0.930 . S
H1028 C1038 0.930 . S
H1029 C1039 0.930 . S
C1030 H1024 0.930 . S
C1030 C1031 1.355 . S
C1030 C1032 1.415 . S
C1031 C1030 1.355 . S
C1031 C1033 1.419 . S
C1032 C1030 1.415 . S
C1032 C1037 1.425 . S
C1032 C1039 1.409 . S
C1033 H1025 0.930 . S
C1033 C1031 1.419 . S
C1033 C1034 1.362 . S
C1034 H1026 0.930 . S
C1034 C1033 1.362 . S
C1034 C1037 1.409 . S
C1035 H1027 0.930 . S
C1035 C1036 1.355 . S
C1035 C1037 1.415 . S
C1036 C1035 1.355 . S
C1036 C1038 1.419 . S
C1037 C1032 1.425 . S
C1037 C1034 1.409 . S
C1037 C1035 1.415 . S
C1038 H1028 0.930 . S
C1038 C1036 1.419 . S
C1038 C1039 1.362 . S
C1039 H1029 0.930 . S
C1039 C1032 1.409 . S
C1039 C1038 1.362 . S
H1040 C1046 0.930 . S
H1041 C1049 0.930 . S
H1042 C1050 0.930 . S
H1043 C1051 0.930 . S
H1044 C1054 0.930 . S
H1045 C1055 0.930 . S
C1046 H1040 0.930 . S
C1046 C1047 1.355 . S
C1046 C1048 1.415 . S
C1047 C1046 1.355 . S
C1047 C1049 1.419 . S
C1048 C1046 1.415 . S
C1048 C1053 1.425 . S
C1048 C1055 1.409 . S
C1049 H1041 0.930 . S
C1049 C1047 1.419 . S
C1049 C1050 1.362 . S
C1050 H1042 0.930 . S
C1050 C1049 1.362 . S
C1050 C1053 1.409 . S
C1051 H1043 0.930 . S
C1051 C1052 1.355 . S
C1051 C1053 1.415 . S
C1052 C1051 1.355 . S
C1052 C1054 1.419 . S
C1053 C1048 1.425 . S
C1053 C1050 1.409 . S
C1053 C1051 1.415 . S
C1054 H1044 0.930 . S
C1054 C1052 1.419 . S
C1054 C1055 1.362 . S
C1055 H1045 0.930 . S
C1055 C1048 1.409 . S
C1055 C1054 1.362 . S
H1056 C1062 0.930 . S
H1057 C1065 0.930 . S
H1058 C1066 0.930 . S
H1059 C1067 0.930 . S
H1060 C1070 0.930 . S
H1061 C1071 0.930 . S
C1062 H1056 0.930 . S
C1062 C1063 1.355 . S
C1062 C1064 1.415 . S
C1063 C1062 1.355 . S
C1063 C1065 1.419 . S
C1064 C1062 1.415 . S
C1064 C1069 1.425 . S
C1064 C1071 1.409 . S
C1065 H1057 0.930 . S
C1065 C1063 1.419 . S
C1065 C1066 1.362 . S
C1066 H1058 0.930 . S
C1066 C1065 1.362 . S
C1066 C1069 1.409 . S
C1067 H1059 0.930 . S
C1067 C1068 1.355 . S
C1067 C1069 1.415 . S
C1068 C1067 1.355 . S
C1068 C1070 1.419 . S
C1069 C1064 1.425 . S
C1069 C1066 1.409 . S
C1069 C1067 1.415 . S
C1070 H1060 0.930 . S
C1070 C1068 1.419 . S
C1070 C1071 1.362 . S
C1071 H1061 0.930 . S
C1071 C1064 1.409 . S
C1071 C1070 1.362 . S
H1072 C1078 0.930 . S
H1073 C1081 0.930 . S
H1074 C1082 0.930 . S
H1075 C1083 0.930 . S
H1076 C1086 0.930 . S
H1077 C1087 0.930 . S
C1078 H1072 0.930 . S
C1078 C1079 1.355 . S
C1078 C1080 1.415 . S
C1079 C1078 1.355 . S
C1079 C1081 1.419 . S
C1080 C1078 1.415 . S
C1080 C1085 1.425 . S
C1080 C1087 1.409 . S
C1081 H1073 0.930 . S
C1081 C1079 1.419 . S
C1081 C1082 1.362 . S
C1082 H1074 0.930 . S
C1082 C1081 1.362 . S
C1082 C1085 1.409 . S
C1083 H1075 0.930 . S
C1083 C1084 1.355 . S
C1083 C1085 1.415 . S
C1084 C1083 1.355 . S
C1084 C1086 1.419 . S
C1085 C1080 1.425 . S
C1085 C1082 1.409 . S
C1085 C1083 1.415 . S
C1086 H1076 0.930 . S
C1086 C1084 1.419 . S
C1086 C1087 1.362 . S
C1087 H1077 0.930 . S
C1087 C1080 1.409 . S
C1087 C1086 1.362 . S
H1088 C1094 0.930 . S
H1089 C1097 0.930 . S
H1090 C1098 0.930 . S
H1091 C1099 0.930 . S
H1092 C1102 0.930 . S
H1093 C1103 0.930 . S
C1094 H1088 0.930 . S
C1094 C1095 1.355 . S
C1094 C1096 1.415 . S
C1095 C1094 1.355 . S
C1095 C1097 1.419 . S
C1096 C1094 1.415 . S
C1096 C1101 1.425 . S
C1096 C1103 1.409 . S
C1097 H1089 0.930 . S
C1097 C1095 1.419 . S
C1097 C1098 1.362 . S
C1098 H1090 0.930 . S
C1098 C1097 1.362 . S
C1098 C1101 1.409 . S
C1099 H1091 0.930 . S
C1099 C1100 1.355 . S
C1099 C1101 1.415 . S
C1100 C1099 1.355 . S
C1100 C1102 1.419 . S
C1101 C1096 1.425 . S
C1101 C1098 1.409 . S
C1101 C1099 1.415 . S
C1102 H1092 0.930 . S
C1102 C1100 1.419 . S
C1102 C1103 1.362 . S
C1103 H1093 0.930 . S
C1103 C1096 1.409 . S
C1103 C1102 1.362 . S
H1104 C1110 0.930 1_565 S
H1105 C1113 0.930 . S
H1106 C1114 0.930 1_455 S
H1107 C1115 0.930 . S
H1108 C1118 0.930 . S
H1109 C1119 0.930 . S
C1110 H1104 0.930 1_545 S
C1110 C1111 1.355 . S
C1110 C1112 1.415 . S
C1111 C1110 1.355 . S
C1111 C1113 1.419 . S
C1112 C1110 1.415 . S
C1112 C1117 1.425 . S
C1112 C1119 1.409 . S
C1113 H1105 0.930 . S
C1113 C1111 1.419 . S
C1113 C1114 1.362 . S
C1114 H1106 0.930 1_655 S
C1114 C1113 1.362 . S
C1114 C1117 1.409 . S
C1115 H1107 0.930 . S
C1115 C1116 1.355 . S
C1115 C1117 1.415 1_455 S
C1116 C1115 1.355 . S
C1116 C1118 1.419 1_455 S
C1117 C1112 1.425 . S
C1117 C1114 1.409 . S
C1117 C1115 1.415 1_655 S
C1118 H1108 0.930 . S
C1118 C1116 1.419 1_655 S
C1118 C1119 1.362 . S
C1119 H1109 0.930 . S
C1119 C1112 1.409 . S
C1119 C1118 1.362 . S
H1120 C1126 0.930 . S
H1121 C1129 0.930 . S
H1122 C1130 0.930 . S
H1123 C1131 0.930 . S
H1124 C1134 0.930 . S
H1125 C1135 0.930 . S
C1126 H1120 0.930 . S
C1126 C1127 1.355 . S
C1126 C1128 1.415 . S
C1127 C1126 1.355 . S
C1127 C1129 1.419 . S
C1128 C1126 1.415 . S
C1128 C1133 1.425 . S
C1128 C1135 1.409 . S
C1129 H1121 0.930 . S
C1129 C1127 1.419 . S
C1129 C1130 1.362 . S
C1130 H1122 0.930 . S
C1130 C1129 1.362 . S
C1130 C1133 1.409 . S
C1131 H1123 0.930 . S
C1131 C1132 1.355 . S
C1131 C1133 1.415 . S
C1132 C1131 1.355 . S
C1132 C1134 1.419 . S
C1133 C1128 1.425 . S
C1133 C1130 1.409 . S
C1133 C1131 1.415 . S
C1134 H1124 0.930 . S
C1134 C1132 1.419 . S
C1134 C1135 1.362 . S
C1135 H1125 0.930 . S
C1135 C1128 1.409 . S
C1135 C1134 1.362 . S
H1136 C1142 0.930 . S
H1137 C1145 0.930 . S
H1138 C1146 0.930 . S
H1139 C1147 0.930 . S
H1140 C1150 0.930 . S
H1141 C1151 0.930 . S
C1142 H1136 0.930 . S
C1142 C1143 1.355 . S
C1142 C1144 1.415 . S
C1143 C1142 1.355 . S
C1143 C1145 1.419 . S
C1144 C1142 1.415 . S
C1144 C1149 1.425 . S
C1144 C1151 1.409 . S
C1145 H1137 0.930 . S
C1145 C1143 1.419 . S
C1145 C1146 1.362 . S
C1146 H1138 0.930 . S
C1146 C1145 1.362 . S
C1146 C1149 1.409 . S
C1147 H1139 0.930 . S
C1147 C1148 1.355 . S
C1147 C1149 1.415 . S
C1148 C1147 1.355 . S
C1148 C1150 1.419 . S
C1149 C1144 1.425 . S
C1149 C1146 1.409 . S
C1149 C1147 1.415 . S
C1150 H1140 0.930 . S
C1150 C1148 1.419 . S
C1150 C1151 1.362 . S
C1151 H1141 0.930 . S
C1151 C1144 1.409 . S
C1151 C1150 1.362 . S
H1152 C1158 0.930 . S
H1153 C1161 0.930 . S
H1154 C1162 0.930 . S
H1155 C1163 0.930 . S
H1156 C1166 0.930 . S
H1157 C1167 0.930 . S
C1158 H1152 0.930 . S
C1158 C1159 1.355 . S
C1158 C1160 1.415 . S
C1159 C1158 1.355 . S
C1159 C1161 1.419 . S
C1160 C1158 1.415 . S
C1160 C1165 1.425 . S
C1160 C1167 1.409 . S
C1161 H1153 0.930 . S
C1161 C1159 1.419 . S
C1161 C1162 1.362 . S
C1162 H1154 0.930 . S
C1162 C1161 1.362 . S
C1162 C1165 1.409 . S
C1163 H1155 0.930 . S
C1163 C1164 1.355 . S
C1163 C1165 1.415 . S
C1164 C1163 1.355 . S
C1164 C1166 1.419 . S
C1165 C1160 1.425 . S
C1165 C1162 1.409 . S
C1165 C1163 1.415 . S
C1166 H1156 0.930 . S
C1166 C1164 1.419 . S
C1166 C1167 1.362 . S
C1167 H1157 0.930 . S
C1167 C1160 1.409 . S
C1167 C1166 1.362 . S
H1168 C1174 0.930 . S
H1169 C1177 0.930 . S
H1170 C1178 0.930 1_455 S
H1171 C1179 0.930 . S
H1172 C1182 0.930 . S
H1173 C1183 0.931 1_565 S
C1174 H1168 0.930 . S
C1174 C1175 1.355 . S
C1174 C1176 1.415 . S
C1175 C1174 1.355 . S
C1175 C1177 1.419 . S
C1176 C1174 1.415 . S
C1176 C1181 1.425 . S
C1176 C1183 1.409 . S
C1177 H1169 0.930 . S
C1177 C1175 1.419 . S
C1177 C1178 1.362 . S
C1178 H1170 0.930 1_655 S
C1178 C1177 1.362 . S
C1178 C1181 1.409 . S
C1179 H1171 0.930 . S
C1179 C1180 1.355 1_455 S
C1179 C1181 1.415 1_455 S
C1180 C1179 1.355 1_655 S
C1180 C1182 1.419 . S
C1181 C1176 1.425 . S
C1181 C1178 1.409 . S
C1181 C1179 1.415 1_655 S
C1182 H1172 0.930 . S
C1182 C1180 1.419 . S
C1182 C1183 1.362 . S
C1183 H1173 0.931 1_545 S
C1183 C1176 1.409 . S
C1183 C1182 1.362 . S
H1184 C1190 0.930 . S
H1185 C1193 0.930 . S
H1186 C1194 0.930 . S
H1187 C1195 0.930 . S
H1188 C1198 0.930 . S
H1189 C1199 0.930 . S
C1190 H1184 0.930 . S
C1190 C1191 1.355 . S
C1190 C1192 1.415 . S
C1191 C1190 1.355 . S
C1191 C1193 1.419 . S
C1192 C1190 1.415 . S
C1192 C1197 1.425 . S
C1192 C1199 1.409 . S
C1193 H1185 0.930 . S
C1193 C1191 1.419 . S
C1193 C1194 1.362 . S
C1194 H1186 0.930 . S
C1194 C1193 1.362 . S
C1194 C1197 1.409 . S
C1195 H1187 0.930 . S
C1195 C1196 1.355 . S
C1195 C1197 1.415 . S
C1196 C1195 1.355 . S
C1196 C1198 1.419 . S
C1197 C1192 1.425 . S
C1197 C1194 1.409 . S
C1197 C1195 1.415 . S
C1198 H1188 0.930 . S
C1198 C1196 1.419 . S
C1198 C1199 1.362 . S
C1199 H1189 0.930 . S
C1199 C1192 1.409 . S
C1199 C1198 1.362 . S
H1200 C1206 0.930 . S
H1201 C1209 0.930 . S
H1202 C1210 0.930 . S
H1203 C1211 0.930 . S
H1204 C1214 0.930 . S
H1205 C1215 0.930 . S
C1206 H1200 0.930 . S
C1206 C1207 1.355 . S
C1206 C1208 1.415 . S
C1207 C1206 1.355 . S
C1207 C1209 1.419 . S
C1208 C1206 1.415 . S
C1208 C1213 1.425 . S
C1208 C1215 1.409 . S
C1209 H1201 0.930 . S
C1209 C1207 1.419 . S
C1209 C1210 1.362 . S
C1210 H1202 0.930 . S
C1210 C1209 1.362 . S
C1210 C1213 1.409 . S
C1211 H1203 0.930 . S
C1211 C1212 1.355 . S
C1211 C1213 1.415 . S
C1212 C1211 1.355 . S
C1212 C1214 1.419 . S
C1213 C1208 1.425 . S
C1213 C1210 1.409 . S
C1213 C1211 1.415 . S
C1214 H1204 0.930 . S
C1214 C1212 1.419 . S
C1214 C1215 1.362 . S
C1215 H1205 0.930 . S
C1215 C1208 1.409 . S
C1215 C1214 1.362 . S
H1216 C1222 0.930 . S
H1217 C1225 0.930 . S
H1218 C1226 0.930 . S
H1219 C1227 0.930 . S
H1220 C1230 0.930 . S
H1221 C1231 0.930 . S
C1222 H1216 0.930 . S
C1222 C1223 1.355 . S
C1222 C1224 1.415 . S
C1223 C1222 1.355 . S
C1223 C1225 1.419 . S
C1224 C1222 1.415 . S
C1224 C1229 1.425 . S
C1224 C1231 1.409 . S
C1225 H1217 0.930 . S
C1225 C1223 1.419 . S
C1225 C1226 1.362 . S
C1226 H1218 0.930 . S
C1226 C1225 1.362 . S
C1226 C1229 1.409 . S
C1227 H1219 0.930 . S
C1227 C1228 1.355 . S
C1227 C1229 1.415 . S
C1228 C1227 1.355 . S
C1228 C1230 1.419 . S
C1229 C1224 1.425 . S
C1229 C1226 1.409 . S
C1229 C1227 1.415 . S
C1230 H1220 0.930 . S
C1230 C1228 1.419 . S
C1230 C1231 1.362 . S
C1231 H1221 0.930 . S
C1231 C1224 1.409 . S
C1231 C1230 1.362 . S
H1232 C1238 0.930 . S
H1233 C1241 0.930 . S
H1234 C1242 0.930 . S
H1235 C1243 0.930 . S
H1236 C1246 0.930 . S
H1237 C1247 0.930 . S
C1238 H1232 0.930 . S
C1238 C1239 1.355 . S
C1238 C1240 1.415 . S
C1239 C1238 1.355 . S
C1239 C1241 1.419 . S
C1240 C1238 1.415 . S
C1240 C1245 1.425 1_565 S
C1240 C1247 1.409 . S
C1241 H1233 0.930 . S
C1241 C1239 1.419 . S
C1241 C1242 1.362 1_565 S
C1242 H1234 0.930 . S
C1242 C1241 1.362 1_545 S
C1242 C1245 1.409 . S
C1243 H1235 0.930 . S
C1243 C1244 1.355 . S
C1243 C1245 1.415 . S
C1244 C1243 1.355 . S
C1244 C1246 1.419 1_545 S
C1245 C1240 1.425 1_545 S
C1245 C1242 1.409 . S
C1245 C1243 1.415 . S
C1246 H1236 0.930 . S
C1246 C1244 1.419 1_565 S
C1246 C1247 1.362 . S
C1247 H1237 0.930 . S
C1247 C1240 1.409 . S
C1247 C1246 1.362 . S
H1248 C1254 0.930 . S
H1249 C1257 0.930 . S
H1250 C1258 0.930 . S
H1251 C1259 0.930 . S
H1252 C1262 0.930 . S
H1253 C1263 0.930 . S
C1254 H1248 0.930 . S
C1254 C1255 1.355 . S
C1254 C1256 1.415 . S
C1255 C1254 1.355 . S
C1255 C1257 1.419 . S
C1256 C1254 1.415 . S
C1256 C1261 1.425 . S
C1256 C1263 1.409 . S
C1257 H1249 0.930 . S
C1257 C1255 1.419 . S
C1257 C1258 1.362 . S
C1258 H1250 0.930 . S
C1258 C1257 1.362 . S
C1258 C1261 1.409 . S
C1259 H1251 0.930 . S
C1259 C1260 1.355 . S
C1259 C1261 1.415 . S
C1260 C1259 1.355 . S
C1260 C1262 1.419 . S
C1261 C1256 1.425 . S
C1261 C1258 1.409 . S
C1261 C1259 1.415 . S
C1262 H1252 0.930 . S
C1262 C1260 1.419 . S
C1262 C1263 1.362 . S
C1263 H1253 0.930 . S
C1263 C1256 1.409 . S
C1263 C1262 1.362 . S
H1264 C1270 0.930 . S
H1265 C1273 0.930 . S
H1266 C1274 0.930 . S
H1267 C1275 0.930 . S
H1268 C1278 0.930 . S
H1269 C1279 0.930 . S
C1270 H1264 0.930 . S
C1270 C1271 1.355 . S
C1270 C1272 1.415 . S
C1271 C1270 1.355 . S
C1271 C1273 1.419 . S
C1272 C1270 1.415 . S
C1272 C1277 1.425 . S
C1272 C1279 1.409 . S
C1273 H1265 0.930 . S
C1273 C1271 1.419 . S
C1273 C1274 1.362 . S
C1274 H1266 0.930 . S
C1274 C1273 1.362 . S
C1274 C1277 1.409 . S
C1275 H1267 0.930 . S
C1275 C1276 1.355 . S
C1275 C1277 1.415 . S
C1276 C1275 1.355 . S
C1276 C1278 1.419 . S
C1277 C1272 1.425 . S
C1277 C1274 1.409 . S
C1277 C1275 1.415 . S
C1278 H1268 0.930 . S
C1278 C1276 1.419 . S
C1278 C1279 1.362 . S
C1279 H1269 0.930 . S
C1279 C1272 1.409 . S
C1279 C1278 1.362 . S
H1280 C1286 0.930 . S
H1281 C1289 0.930 . S
H1282 C1290 0.930 . S
H1283 C1291 0.930 . S
H1284 C1294 0.946 . S
H1285 C1295 0.930 . S
C1286 H1280 0.930 . S
C1286 C1287 1.355 . S
C1286 C1288 1.415 . S
C1287 C1286 1.355 . S
C1287 C1289 1.419 . S
C1288 C1286 1.415 . S
C1288 C1293 1.425 . S
C1288 C1295 1.409 . S
C1289 H1281 0.930 . S
C1289 C1287 1.419 . S
C1289 C1290 1.362 . S
C1290 H1282 0.930 . S
C1290 C1289 1.362 . S
C1290 C1293 1.409 . S
C1291 H1283 0.930 . S
C1291 C1292 1.355 . S
C1291 C1293 1.415 . S
C1292 C1291 1.355 . S
C1292 C1294 1.419 . S
C1293 C1288 1.425 . S
C1293 C1290 1.409 . S
C1293 C1291 1.415 . S
C1294 H1284 0.946 . S
C1294 C1292 1.419 . S
C1294 C1295 1.362 . S
C1295 H1285 0.930 . S
C1295 C1288 1.409 . S
C1295 C1294 1.362 . S
H1296 C1302 0.930 . S
H1297 C1305 0.930 . S
H1298 C1306 0.930 . S
H1299 C1307 0.930 . S
H1300 C1310 0.930 . S
H1301 C1311 0.930 . S
C1302 H1296 0.930 . S
C1302 C1303 1.355 . S
C1302 C1304 1.415 . S
C1303 C1302 1.355 . S
C1303 C1305 1.419 . S
C1304 C1302 1.415 . S
C1304 C1309 1.425 . S
C1304 C1311 1.409 . S
C1305 H1297 0.930 . S
C1305 C1303 1.419 . S
C1305 C1306 1.362 . S
C1306 H1298 0.930 . S
C1306 C1305 1.362 . S
C1306 C1309 1.409 . S
C1307 H1299 0.930 . S
C1307 C1308 1.355 . S
C1307 C1309 1.415 . S
C1308 C1307 1.355 . S
C1308 C1310 1.419 . S
C1309 C1304 1.425 . S
C1309 C1306 1.409 . S
C1309 C1307 1.415 . S
C1310 H1300 0.930 . S
C1310 C1308 1.419 . S
C1310 C1311 1.362 . S
C1311 H1301 0.930 . S
C1311 C1304 1.409 . S
C1311 C1310 1.362 . S
H1312 C1318 0.930 . S
H1313 C1321 0.930 . S
H1314 C1322 0.930 . S
H1315 C1323 0.930 . S
H1316 C1326 0.930 . S
H1317 C1327 0.930 . S
C1318 H1312 0.930 . S
C1318 C1319 1.355 . S
C1318 C1320 1.415 . S
C1319 C1318 1.355 . S
C1319 C1321 1.419 . S
C1320 C1318 1.415 . S
C1320 C1325 1.425 . S
C1320 C1327 1.409 . S
C1321 H1313 0.930 . S
C1321 C1319 1.419 . S
C1321 C1322 1.362 . S
C1322 H1314 0.930 . S
C1322 C1321 1.362 . S
C1322 C1325 1.409 . S
C1323 H1315 0.930 . S
C1323 C1324 1.355 . S
C1323 C1325 1.415 . S
C1324 C1323 1.355 . S
C1324 C1326 1.419 . S
C1325 C1320 1.425 . S
C1325 C1322 1.409 . S
C1325 C1323 1.415 . S
C1326 H1316 0.930 . S
C1326 C1324 1.419 . S
C1326 C1327 1.362 . S
C1327 H1317 0.930 . S
C1327 C1320 1.409 . S
C1327 C1326 1.362 . S
H1328 C1334 0.930 . S
H1329 C1337 0.930 . S
H1330 C1338 0.930 . S
H1331 C1339 0.930 . S
H1332 C1342 0.930 . S
H1333 C1343 0.930 . S
C1334 H1328 0.930 . S
C1334 C1335 1.355 . S
C1334 C1336 1.415 . S
C1335 C1334 1.355 . S
C1335 C1337 1.419 . S
C1336 C1334 1.415 . S
C1336 C1341 1.425 . S
C1336 C1343 1.409 . S
C1337 H1329 0.930 . S
C1337 C1335 1.419 . S
C1337 C1338 1.362 . S
C1338 H1330 0.930 . S
C1338 C1337 1.362 . S
C1338 C1341 1.409 . S
C1339 H1331 0.930 . S
C1339 C1340 1.355 . S
C1339 C1341 1.415 . S
C1340 C1339 1.355 . S
C1340 C1342 1.419 . S
C1341 C1336 1.425 . S
C1341 C1338 1.409 . S
C1341 C1339 1.415 . S
C1342 H1332 0.930 . S
C1342 C1340 1.419 . S
C1342 C1343 1.362 . S
C1343 H1333 0.930 . S
C1343 C1336 1.409 . S
C1343 C1342 1.362 . S
H1344 C1350 0.930 . S
H1345 C1353 0.930 . S
H1346 C1354 0.930 . S
H1347 C1355 0.930 . S
H1348 C1358 0.930 . S
H1349 C1359 0.930 . S
C1350 H1344 0.930 . S
C1350 C1351 1.355 . S
C1350 C1352 1.415 . S
C1351 C1350 1.355 . S
C1351 C1353 1.419 . S
C1352 C1350 1.415 . S
C1352 C1357 1.425 . S
C1352 C1359 1.409 . S
C1353 H1345 0.930 . S
C1353 C1351 1.419 . S
C1353 C1354 1.362 . S
C1354 H1346 0.930 . S
C1354 C1353 1.362 . S
C1354 C1357 1.409 . S
C1355 H1347 0.930 . S
C1355 C1356 1.355 . S
C1355 C1357 1.415 . S
C1356 C1355 1.355 . S
C1356 C1358 1.419 . S
C1357 C1352 1.425 . S
C1357 C1354 1.409 . S
C1357 C1355 1.415 . S
C1358 H1348 0.930 . S
C1358 C1356 1.419 . S
C1358 C1359 1.362 . S
C1359 H1349 0.930 . S
C1359 C1352 1.409 . S
C1359 C1358 1.362 . S
H1360 C1366 0.930 . S
H1361 C1369 0.930 . S
H1362 C1370 0.930 . S
H1363 C1371 0.930 . S
H1364 C1374 0.930 . S
H1365 C1375 0.930 . S
C1366 H1360 0.930 . S
C1366 C1367 1.355 . S
C1366 C1368 1.415 . S
C1367 C1366 1.355 . S
C1367 C1369 1.419 . S
C1368 C1366 1.415 . S
C1368 C1373 1.425 . S
C1368 C1375 1.409 . S
C1369 H1361 0.930 . S
C1369 C1367 1.419 . S
C1369 C1370 1.362 . S
C1370 H1362 0.930 . S
C1370 C1369 1.362 . S
C1370 C1373 1.409 . S
C1371 H1363 0.930 . S
C1371 C1372 1.355 . S
C1371 C1373 1.415 . S
C1372 C1371 1.355 . S
C1372 C1374 1.419 . S
C1373 C1368 1.425 . S
C1373 C1370 1.409 . S
C1373 C1371 1.415 . S
C1374 H1364 0.930 . S
C1374 C1372 1.419 . S
C1374 C1375 1.362 . S
C1375 H1365 0.930 . S
C1375 C1368 1.409 . S
C1375 C1374 1.362 . S
H1376 C1382 0.930 . S
H1377 C1385 0.930 . S
H1378 C1386 0.930 . S
H1379 C1387 0.930 . S
H1380 C1390 0.930 . S
H1381 C1391 0.930 . S
C1382 H1376 0.930 . S
C1382 C1383 1.355 . S
C1382 C1384 1.415 . S
C1383 C1382 1.355 . S
C1383 C1385 1.419 . S
C1384 C1382 1.415 . S
C1384 C1389 1.425 . S
C1384 C1391 1.409 . S
C1385 H1377 0.930 . S
C1385 C1383 1.419 . S
C1385 C1386 1.362 . S
C1386 H1378 0.930 . S
C1386 C1385 1.362 . S
C1386 C1389 1.409 . S
C1387 H1379 0.930 . S
C1387 C1388 1.355 . S
C1387 C1389 1.415 . S
C1388 C1387 1.355 . S
C1388 C1390 1.419 . S
C1389 C1384 1.425 . S
C1389 C1386 1.409 . S
C1389 C1387 1.415 . S
C1390 H1380 0.930 . S
C1390 C1388 1.419 . S
C1390 C1391 1.362 . S
C1391 H1381 0.930 . S
C1391 C1384 1.409 . S
C1391 C1390 1.362 . S
H1392 C1398 0.930 . S
H1393 C1401 0.930 . S
H1394 C1402 0.930 . S
H1395 C1403 0.930 . S
H1396 C1406 0.930 . S
H1397 C1407 0.930 . S
C1398 H1392 0.930 . S
C1398 C1399 1.355 . S
C1398 C1400 1.415 . S
C1399 C1398 1.355 . S
C1399 C1401 1.419 . S
C1400 C1398 1.415 . S
C1400 C1405 1.425 . S
C1400 C1407 1.409 . S
C1401 H1393 0.930 . S
C1401 C1399 1.419 . S
C1401 C1402 1.362 . S
C1402 H1394 0.930 . S
C1402 C1401 1.362 . S
C1402 C1405 1.409 . S
C1403 H1395 0.930 . S
C1403 C1404 1.355 . S
C1403 C1405 1.415 . S
C1404 C1403 1.355 . S
C1404 C1406 1.419 . S
C1405 C1400 1.425 . S
C1405 C1402 1.409 . S
C1405 C1403 1.415 . S
C1406 H1396 0.930 . S
C1406 C1404 1.419 . S
C1406 C1407 1.362 . S
C1407 H1397 0.930 . S
C1407 C1400 1.409 . S
C1407 C1406 1.362 . S
H1408 C1414 0.930 . S
H1409 C1417 0.930 . S
H1410 C1418 0.930 . S
H1411 C1419 0.930 . S
H1412 C1422 0.930 . S
H1413 C1423 0.930 . S
C1414 H1408 0.930 . S
C1414 C1415 1.355 . S
C1414 C1416 1.415 . S
C1415 C1414 1.355 . S
C1415 C1417 1.419 . S
C1416 C1414 1.415 . S
C1416 C1421 1.425 . S
C1416 C1423 1.409 . S
C1417 H1409 0.930 . S
C1417 C1415 1.419 . S
C1417 C1418 1.362 . S
C1418 H1410 0.930 . S
C1418 C1417 1.362 . S
C1418 C1421 1.409 . S
C1419 H1411 0.930 . S
C1419 C1420 1.355 . S
C1419 C1421 1.415 . S
C1420 C1419 1.355 . S
C1420 C1422 1.419 . S
C1421 C1416 1.425 . S
C1421 C1418 1.409 . S
C1421 C1419 1.415 . S
C1422 H1412 0.930 . S
C1422 C1420 1.419 . S
C1422 C1423 1.362 . S
C1423 H1413 0.930 . S
C1423 C1416 1.409 . S
C1423 C1422 1.362 . S
H1424 C1430 0.943 . S
H1425 C1433 0.930 . S
H1426 C1434 0.930 . S
H1427 C1435 0.930 . S
H1428 C1438 0.930 1_655 S
H1429 C1439 0.912 1_655 S
C1430 H1424 0.943 . S
C1430 C1431 1.355 . S
C1430 C1432 1.415 . S
C1431 C1430 1.355 . S
C1431 C1433 1.419 . S
C1432 C1430 1.415 . S
C1432 C1437 1.425 . S
C1432 C1439 1.420 . S
C1433 H1425 0.930 . S
C1433 C1431 1.419 . S
C1433 C1434 1.362 . S
C1434 H1426 0.930 . S
C1434 C1433 1.362 . S
C1434 C1437 1.409 . S
C1435 H1427 0.930 . S
C1435 C1436 1.355 . S
C1435 C1437 1.415 . S
C1436 C1435 1.355 . S
C1436 C1438 1.419 . S
C1437 C1432 1.425 . S
C1437 C1434 1.409 . S
C1437 C1435 1.415 . S
C1438 H1428 0.930 1_455 S
C1438 C1436 1.419 . S
C1438 C1439 1.369 . S
C1439 H1429 0.912 1_455 S
C1439 C1432 1.420 . S
C1439 C1438 1.369 . S
H1440 C1446 0.930 . S
H1441 C1449 0.930 . S
H1442 C1450 0.930 . S
H1443 C1451 0.930 . S
H1444 C1454 0.930 . S
H1445 C1455 0.930 . S
C1446 H1440 0.930 . S
C1446 C1447 1.355 . S
C1446 C1448 1.415 . S
C1447 C1446 1.355 . S
C1447 C1449 1.419 . S
C1448 C1446 1.415 . S
C1448 C1453 1.425 . S
C1448 C1455 1.409 . S
C1449 H1441 0.930 . S
C1449 C1447 1.419 . S
C1449 C1450 1.362 . S
C1450 H1442 0.930 . S
C1450 C1449 1.362 . S
C1450 C1453 1.409 . S
C1451 H1443 0.930 . S
C1451 C1452 1.355 . S
C1451 C1453 1.415 . S
C1452 C1451 1.355 . S
C1452 C1454 1.419 . S
C1453 C1448 1.425 . S
C1453 C1450 1.409 . S
C1453 C1451 1.415 . S
C1454 H1444 0.930 . S
C1454 C1452 1.419 . S
C1454 C1455 1.362 . S
C1455 H1445 0.930 . S
C1455 C1448 1.409 . S
C1455 C1454 1.362 . S
H1456 C1462 0.930 . S
H1457 C1465 0.930 . S
H1458 C1466 0.930 . S
H1459 C1467 0.930 . S
H1460 C1470 0.930 . S
H1461 C1471 0.930 1_554 S
C1462 H1456 0.930 . S
C1462 C1463 1.355 . S
C1462 C1464 1.415 . S
C1463 C1462 1.355 . S
C1463 C1465 1.419 . S
C1464 C1462 1.415 . S
C1464 C1469 1.425 . S
C1464 C1471 1.409 . S
C1465 H1457 0.930 . S
C1465 C1463 1.419 . S
C1465 C1466 1.362 . S
C1466 H1458 0.930 . S
C1466 C1465 1.362 . S
C1466 C1469 1.409 . S
C1467 H1459 0.930 . S
C1467 C1468 1.355 . S
C1467 C1469 1.415 . S
C1468 C1467 1.355 . S
C1468 C1470 1.419 1_556 S
C1469 C1464 1.425 . S
C1469 C1466 1.409 . S
C1469 C1467 1.415 . S
C1470 H1460 0.930 . S
C1470 C1468 1.419 1_554 S
C1470 C1471 1.362 1_554 S
C1471 H1461 0.930 1_556 S
C1471 C1464 1.409 . S
C1471 C1470 1.362 1_556 S
H1472 C1478 0.930 . S
H1473 C1481 0.930 . S
H1474 C1482 0.930 . S
H1475 C1483 0.930 . S
H1476 C1486 0.930 . S
H1477 C1487 0.930 . S
C1478 H1472 0.930 . S
C1478 C1479 1.355 . S
C1478 C1480 1.415 . S
C1479 C1478 1.355 . S
C1479 C1481 1.419 . S
C1480 C1478 1.415 . S
C1480 C1485 1.425 . S
C1480 C1487 1.409 . S
C1481 H1473 0.930 . S
C1481 C1479 1.419 . S
C1481 C1482 1.362 . S
C1482 H1474 0.930 . S
C1482 C1481 1.362 . S
C1482 C1485 1.409 . S
C1483 H1475 0.930 . S
C1483 C1484 1.355 . S
C1483 C1485 1.415 . S
C1484 C1483 1.355 . S
C1484 C1486 1.419 . S
C1485 C1480 1.425 . S
C1485 C1482 1.409 . S
C1485 C1483 1.415 . S
C1486 H1476 0.930 . S
C1486 C1484 1.419 . S
C1486 C1487 1.362 . S
C1487 H1477 0.930 . S
C1487 C1480 1.409 . S
C1487 C1486 1.362 . S
H1488 C1494 0.930 . S
H1489 C1497 0.930 . S
H1490 C1498 0.930 . S
H1491 C1499 0.930 . S
H1492 C1502 0.930 . S
H1493 C1503 0.930 . S
C1494 H1488 0.930 . S
C1494 C1495 1.355 . S
C1494 C1496 1.415 . S
C1495 C1494 1.355 . S
C1495 C1497 1.419 . S
C1496 C1494 1.415 . S
C1496 C1501 1.425 . S
C1496 C1503 1.409 . S
C1497 H1489 0.930 . S
C1497 C1495 1.419 . S
C1497 C1498 1.362 . S
C1498 H1490 0.930 . S
C1498 C1497 1.362 . S
C1498 C1501 1.409 . S
C1499 H1491 0.930 . S
C1499 C1500 1.355 . S
C1499 C1501 1.415 . S
C1500 C1499 1.355 . S
C1500 C1502 1.419 . S
C1501 C1496 1.425 . S
C1501 C1498 1.409 . S
C1501 C1499 1.415 . S
C1502 H1492 0.930 . S
C1502 C1500 1.419 . S
C1502 C1503 1.362 . S
C1503 H1493 0.930 . S
C1503 C1496 1.409 . S
C1503 C1502 1.362 . S
H1504 C1510 0.930 . S
H1505 C1513 0.930 . S
H1506 C1514 0.930 . S
H1507 C1515 0.930 . S
H1508 C1518 0.930 . S
H1509 C1519 0.930 . S
C1510 H1504 0.930 . S
C1510 C1511 1.355 . S
C1510 C1512 1.415 . S
C1511 C1510 1.355 . S
C1511 C1513 1.419 . S
C1512 C1510 1.415 . S
C1512 C1517 1.425 . S
C1512 C1519 1.409 . S
C1513 H1505 0.930 . S
C1513 C1511 1.419 . S
C1513 C1514 1.362 . S
C1514 H1506 0.930 . S
C1514 C1513 1.362 . S
C1514 C1517 1.409 . S
C1515 H1507 0.930 . S
C1515 C1516 1.355 . S
C1515 C1517 1.415 . S
C1516 C1515 1.355 . S
C1516 C1518 1.419 . S
C1517 C1512 1.425 . S
C1517 C1514 1.409 . S
C1517 C1515 1.415 . S
C1518 H1508 0.930 . S
C1518 C1516 1.419 . S
C1518 C1519 1.362 . S
C1519 H1509 0.930 . S
C1519 C1512 1.409 . S
C1519 C1518 1.362 . S
H1520 C1526 0.930 . S
H1521 C1529 0.930 1_565 S
H1522 C1530 0.930 1_565 S
H1523 C1531 0.930 . S
H1524 C1534 0.930 . S
H1525 C1535 0.930 . S
C1526 H1520 0.930 . S
C1526 C1527 1.355 . S
C1526 C1528 1.415 . S
C1527 C1526 1.355 . S
C1527 C1529 1.419 . S
C1528 C1526 1.415 . S
C1528 C1533 1.425 . S
C1528 C1535 1.409 . S
C1529 H1521 0.930 1_545 S
C1529 C1527 1.419 . S
C1529 C1530 1.362 . S
C1530 H1522 0.930 1_545 S
C1530 C1529 1.362 . S
C1530 C1533 1.409 . S
C1531 H1523 0.930 . S
C1531 C1532 1.355 . S
C1531 C1533 1.415 . S
C1532 C1531 1.355 . S
C1532 C1534 1.419 . S
C1533 C1528 1.425 . S
C1533 C1530 1.409 . S
C1533 C1531 1.415 . S
C1534 H1524 0.930 . S
C1534 C1532 1.419 . S
C1534 C1535 1.362 . S
C1535 H1525 0.930 . S
C1535 C1528 1.409 . S
C1535 C1534 1.362 . S
H1536 C1542 0.930 . S
H1537 C1545 0.930 . S
H1538 C1546 0.930 . S
H1539 C1547 0.930 . S
H1540 C1550 0.930 . S
H1541 C1551 0.930 . S
C1542 H1536 0.930 . S
C1542 C1543 1.355 . S
C1542 C1544 1.415 . S
C1543 C1542 1.355 . S
C1543 C1545 1.419 . S
C1544 C1542 1.415 . S
C1544 C1549 1.425 . S
C1544 C1551 1.409 . S
C1545 H1537 0.930 . S
C1545 C1543 1.419 . S
C1545 C1546 1.362 . S
C1546 H1538 0.930 . S
C1546 C1545 1.362 . S
C1546 C1549 1.409 . S
C1547 H1539 0.930 . S
C1547 C1548 1.355 . S
C1547 C1549 1.415 . S
C1548 C1547 1.355 . S
C1548 C1550 1.419 . S
C1549 C1544 1.425 . S
C1549 C1546 1.409 . S
C1549 C1547 1.415 . S
C1550 H1540 0.930 . S
C1550 C1548 1.419 . S
C1550 C1551 1.362 . S
C1551 H1541 0.930 . S
C1551 C1544 1.409 . S
C1551 C1550 1.362 . S
H1552 C1558 0.930 . S
H1553 C1561 0.930 . S
H1554 C1562 0.930 . S
H1555 C1563 0.930 . S
H1556 C1566 0.930 . S
H1557 C1567 0.930 . S
C1558 H1552 0.930 . S
C1558 C1559 1.355 . S
C1558 C1560 1.415 . S
C1559 C1558 1.355 . S
C1559 C1561 1.419 . S
C1560 C1558 1.415 . S
C1560 C1565 1.425 . S
C1560 C1567 1.409 . S
C1561 H1553 0.930 . S
C1561 C1559 1.419 . S
C1561 C1562 1.362 . S
C1562 H1554 0.930 . S
C1562 C1561 1.362 . S
C1562 C1565 1.409 . S
C1563 H1555 0.930 . S
C1563 C1564 1.355 . S
C1563 C1565 1.415 . S
C1564 C1563 1.355 . S
C1564 C1566 1.419 . S
C1565 C1560 1.425 . S
C1565 C1562 1.409 . S
C1565 C1563 1.415 . S
C1566 H1556 0.930 . S
C1566 C1564 1.419 . S
C1566 C1567 1.362 . S
C1567 H1557 0.930 . S
C1567 C1560 1.409 . S
C1567 C1566 1.362 . S
H1568 C1574 0.930 . S
H1569 C1577 0.930 . S
H1570 C1578 0.930 . S
H1571 C1579 0.930 . S
H1572 C1582 0.930 . S
H1573 C1583 0.930 . S
C1574 H1568 0.930 . S
C1574 C1575 1.355 . S
C1574 C1576 1.415 . S
C1575 C1574 1.355 . S
C1575 C1577 1.419 . S
C1576 C1574 1.415 . S
C1576 C1581 1.425 . S
C1576 C1583 1.409 . S
C1577 H1569 0.930 . S
C1577 C1575 1.419 . S
C1577 C1578 1.362 . S
C1578 H1570 0.930 . S
C1578 C1577 1.362 . S
C1578 C1581 1.409 . S
C1579 H1571 0.930 . S
C1579 C1580 1.355 . S
C1579 C1581 1.415 . S
C1580 C1579 1.355 . S
C1580 C1582 1.419 . S
C1581 C1576 1.425 . S
C1581 C1578 1.409 . S
C1581 C1579 1.415 . S
C1582 H1572 0.930 . S
C1582 C1580 1.419 . S
C1582 C1583 1.362 . S
C1583 H1573 0.930 . S
C1583 C1576 1.409 . S
C1583 C1582 1.362 . S
H1584 C1590 0.930 . S
H1585 C1593 0.930 . S
H1586 C1594 0.930 . S
H1587 C1595 0.930 . S
H1588 C1598 0.930 . S
H1589 C1599 0.930 . S
C1590 H1584 0.930 . S
C1590 C1591 1.355 . S
C1590 C1592 1.415 . S
C1591 C1590 1.355 . S
C1591 C1593 1.419 . S
C1592 C1590 1.415 . S
C1592 C1597 1.425 . S
C1592 C1599 1.409 . S
C1593 H1585 0.930 . S
C1593 C1591 1.419 . S
C1593 C1594 1.362 . S
C1594 H1586 0.930 . S
C1594 C1593 1.362 . S
C1594 C1597 1.409 . S
C1595 H1587 0.930 . S
C1595 C1596 1.355 . S
C1595 C1597 1.415 . S
C1596 C1595 1.355 . S
C1596 C1598 1.419 . S
C1597 C1592 1.425 . S
C1597 C1594 1.409 . S
C1597 C1595 1.415 . S
C1598 H1588 0.930 . S
C1598 C1596 1.419 . S
C1598 C1599 1.362 . S
C1599 H1589 0.930 . S
C1599 C1592 1.409 . S
C1599 C1598 1.362 . S
H1600 C1606 0.930 . S
H1601 C1609 0.930 . S
H1602 C1610 0.930 . S
H1603 C1611 0.930 . S
H1604 C1614 0.930 . S
H1605 C1615 0.930 . S
C1606 H1600 0.930 . S
C1606 C1607 1.355 . S
C1606 C1608 1.415 . S
C1607 C1606 1.355 . S
C1607 C1609 1.419 . S
C1608 C1606 1.415 . S
C1608 C1613 1.425 . S
C1608 C1615 1.409 . S
C1609 H1601 0.930 . S
C1609 C1607 1.419 . S
C1609 C1610 1.362 . S
C1610 H1602 0.930 . S
C1610 C1609 1.362 . S
C1610 C1613 1.409 . S
C1611 H1603 0.930 . S
C1611 C1612 1.355 . S
C1611 C1613 1.415 . S
C1612 C1611 1.355 . S
C1612 C1614 1.419 . S
C1613 C1608 1.425 . S
C1613 C1610 1.409 . S
C1613 C1611 1.415 . S
C1614 H1604 0.930 . S
C1614 C1612 1.419 . S
C1614 C1615 1.362 . S
C1615 H1605 0.930 . S
C1615 C1608 1.409 . S
C1615 C1614 1.362 . S
H1616 C1622 0.930 . S
H1617 C1625 0.930 . S
H1618 C1626 0.930 . S
H1619 C1627 0.930 . S
H1620 C1630 0.930 1_556 S
H1621 C1631 0.930 . S
C1622 H1616 0.930 . S
C1622 C1623 1.355 . S
C1622 C1624 1.415 . S
C1623 C1622 1.355 . S
C1623 C1625 1.419 . S
C1624 C1622 1.415 . S
C1624 C1629 1.425 . S
C1624 C1631 1.409 . S
C1625 H1617 0.930 . S
C1625 C1623 1.419 . S
C1625 C1626 1.362 . S
C1626 H1618 0.930 . S
C1626 C1625 1.362 . S
C1626 C1629 1.409 . S
C1627 H1619 0.930 . S
C1627 C1628 1.355 . S
C1627 C1629 1.415 . S
C1628 C1627 1.355 . S
C1628 C1630 1.419 . S
C1629 C1624 1.425 . S
C1629 C1626 1.409 . S
C1629 C1627 1.415 . S
C1630 H1620 0.930 1_554 S
C1630 C1628 1.419 . S
C1630 C1631 1.362 . S
C1631 H1621 0.930 . S
C1631 C1624 1.409 . S
C1631 C1630 1.362 . S
H1632 C1638 0.930 . S
H1633 C1641 0.930 . S
H1634 C1642 0.930 . S
H1635 C1643 0.930 . S
H1636 C1646 0.930 . S
H1637 C1647 0.930 . S
C1638 H1632 0.930 . S
C1638 C1639 1.355 . S
C1638 C1640 1.415 . S
C1639 C1638 1.355 . S
C1639 C1641 1.419 . S
C1640 C1638 1.415 . S
C1640 C1645 1.425 . S
C1640 C1647 1.409 . S
C1641 H1633 0.930 . S
C1641 C1639 1.419 . S
C1641 C1642 1.362 . S
C1642 H1634 0.930 . S
C1642 C1641 1.362 . S
C1642 C1645 1.409 . S
C1643 H1635 0.930 . S
C1643 C1644 1.355 . S
C1643 C1645 1.415 . S
C1644 C1643 1.355 . S
C1644 C1646 1.419 . S
C1645 C1640 1.425 . S
C1645 C1642 1.409 . S
C1645 C1643 1.415 . S
C1646 H1636 0.930 . S
C1646 C1644 1.419 . S
C1646 C1647 1.362 . S
C1647 H1637 0.930 . S
C1647 C1640 1.409 . S
C1647 C1646 1.362 . S
H1648 C1654 0.930 . S
H1649 C1657 0.930 . S
H1650 C1658 0.930 . S
H1651 C1659 0.930 . S
H1652 C1662 0.930 . S
H1653 C1663 0.930 . S
C1654 H1648 0.930 . S
C1654 C1655 1.355 . S
C1654 C1656 1.415 . S
C1655 C1654 1.355 . S
C1655 C1657 1.419 . S
C1656 C1654 1.415 . S
C1656 C1661 1.425 . S
C1656 C1663 1.409 . S
C1657 H1649 0.930 . S
C1657 C1655 1.419 . S
C1657 C1658 1.362 . S
C1658 H1650 0.930 . S
C1658 C1657 1.362 . S
C1658 C1661 1.409 . S
C1659 H1651 0.930 . S
C1659 C1660 1.355 . S
C1659 C1661 1.415 . S
C1660 C1659 1.355 . S
C1660 C1662 1.419 . S
C1661 C1656 1.425 . S
C1661 C1658 1.409 . S
C1661 C1659 1.415 . S
C1662 H1652 0.930 . S
C1662 C1660 1.419 . S
C1662 C1663 1.362 . S
C1663 H1653 0.930 . S
C1663 C1656 1.409 . S
C1663 C1662 1.362 . S
H1664 C1670 0.930 . S
H1665 C1673 0.930 . S
H1666 C1674 0.930 . S
H1667 C1675 0.930 . S
H1668 C1678 0.930 . S
H1669 C1679 0.930 . S
C1670 H1664 0.930 . S
C1670 C1671 1.355 . S
C1670 C1672 1.415 . S
C1671 C1670 1.355 . S
C1671 C1673 1.419 . S
C1672 C1670 1.415 . S
C1672 C1677 1.425 . S
C1672 C1679 1.409 . S
C1673 H1665 0.930 . S
C1673 C1671 1.419 . S
C1673 C1674 1.362 . S
C1674 H1666 0.930 . S
C1674 C1673 1.362 . S
C1674 C1677 1.409 . S
C1675 H1667 0.930 . S
C1675 C1676 1.355 . S
C1675 C1677 1.415 . S
C1676 C1675 1.355 . S
C1676 C1678 1.419 . S
C1677 C1672 1.425 . S
C1677 C1674 1.409 . S
C1677 C1675 1.415 . S
C1678 H1668 0.930 . S
C1678 C1676 1.419 . S
C1678 C1679 1.362 . S
C1679 H1669 0.930 . S
C1679 C1672 1.409 . S
C1679 C1678 1.362 . S
H1680 C1686 0.930 1_545 S
H1681 C1689 0.930 . S
H1682 C1690 0.930 . S
H1683 C1691 0.930 . S
H1684 C1694 0.930 . S
H1685 C1695 0.930 . S
C1686 H1680 0.930 1_565 S
C1686 C1687 1.355 . S
C1686 C1688 1.415 . S
C1687 C1686 1.355 . S
C1687 C1689 1.419 . S
C1688 C1686 1.415 . S
C1688 C1693 1.425 . S
C1688 C1695 1.409 . S
C1689 H1681 0.930 . S
C1689 C1687 1.419 . S
C1689 C1690 1.362 . S
C1690 H1682 0.930 . S
C1690 C1689 1.362 . S
C1690 C1693 1.409 . S
C1691 H1683 0.930 . S
C1691 C1692 1.355 . S
C1691 C1693 1.415 . S
C1692 C1691 1.355 . S
C1692 C1694 1.419 . S
C1693 C1688 1.425 . S
C1693 C1690 1.409 . S
C1693 C1691 1.415 . S
C1694 H1684 0.930 . S
C1694 C1692 1.419 . S
C1694 C1695 1.362 . S
C1695 H1685 0.930 . S
C1695 C1688 1.409 . S
C1695 C1694 1.362 . S
H1696 C1702 0.930 . S
H1697 C1705 0.930 . S
H1698 C1706 0.930 . S
H1699 C1707 0.930 . S
H1700 C1710 0.930 . S
H1701 C1711 0.930 . S
C1702 H1696 0.930 . S
C1702 C1703 1.355 . S
C1702 C1704 1.415 . S
C1703 C1702 1.355 . S
C1703 C1705 1.419 . S
C1704 C1702 1.415 . S
C1704 C1709 1.425 . S
C1704 C1711 1.409 . S
C1705 H1697 0.930 . S
C1705 C1703 1.419 . S
C1705 C1706 1.362 . S
C1706 H1698 0.930 . S
C1706 C1705 1.362 . S
C1706 C1709 1.409 . S
C1707 H1699 0.930 . S
C1707 C1708 1.355 . S
C1707 C1709 1.415 . S
C1708 C1707 1.355 . S
C1708 C1710 1.419 . S
C1709 C1704 1.425 . S
C1709 C1706 1.409 . S
C1709 C1707 1.415 . S
C1710 H1700 0.930 . S
C1710 C1708 1.419 . S
C1710 C1711 1.362 . S
C1711 H1701 0.930 . S
C1711 C1704 1.409 . S
C1711 C1710 1.362 . S
H1712 C1718 0.930 . S
H1713 C1721 0.930 . S
H1714 C1722 0.930 . S
H1715 C1723 0.930 . S
H1716 C1726 0.930 . S
H1717 C1727 0.930 . S
C1718 H1712 0.930 . S
C1718 C1719 1.355 . S
C1718 C1720 1.415 . S
C1719 C1718 1.355 . S
C1719 C1721 1.419 . S
C1720 C1718 1.415 . S
C1720 C1725 1.425 . S
C1720 C1727 1.409 . S
C1721 H1713 0.930 . S
C1721 C1719 1.419 . S
C1721 C1722 1.362 . S
C1722 H1714 0.930 . S
C1722 C1721 1.362 . S
C1722 C1725 1.409 . S
C1723 H1715 0.930 . S
C1723 C1724 1.355 . S
C1723 C1725 1.415 . S
C1724 C1723 1.355 . S
C1724 C1726 1.419 . S
C1725 C1720 1.425 . S
C1725 C1722 1.409 . S
C1725 C1723 1.415 . S
C1726 H1716 0.930 . S
C1726 C1724 1.419 . S
C1726 C1727 1.362 . S
C1727 H1717 0.930 . S
C1727 C1720 1.409 . S
C1727 C1726 1.362 . S
H1728 C1734 0.930 . S
H1729 C1737 0.930 . S
H1730 C1738 0.930 . S
H1731 C1739 0.930 . S
H1732 C1742 0.930 . S
H1733 C1743 0.930 . S
C1734 H1728 0.930 . S
C1734 C1735 1.355 . S
C1734 C1736 1.415 . S
C1735 C1734 1.355 . S
C1735 C1737 1.419 . S
C1736 C1734 1.415 . S
C1736 C1741 1.425 . S
C1736 C1743 1.409 . S
C1737 H1729 0.930 . S
C1737 C1735 1.419 . S
C1737 C1738 1.362 . S
C1738 H1730 0.930 . S
C1738 C1737 1.362 . S
C1738 C1741 1.409 . S
C1739 H1731 0.930 . S
C1739 C1740 1.355 . S
C1739 C1741 1.415 . S
C1740 C1739 1.355 . S
C1740 C1742 1.419 . S
C1741 C1736 1.425 . S
C1741 C1738 1.409 . S
C1741 C1739 1.415 . S
C1742 H1732 0.930 . S
C1742 C1740 1.419 . S
C1742 C1743 1.362 . S
C1743 H1733 0.930 . S
C1743 C1736 1.409 . S
C1743 C1742 1.362 . S
H1744 C1750 0.930 . S
H1745 C1753 0.930 . S
H1746 C1754 0.930 . S
H1747 C1755 0.930 . S
H1748 C1758 0.930 . S
H1749 C1759 0.930 . S
C1750 H1744 0.930 . S
C1750 C1751 1.355 . S
C1750 C1752 1.415 . S
C1751 C1750 1.355 . S
C1751 C1753 1.419 . S
C1752 C1750 1.415 . S
C1752 C1757 1.425 . S
C1752 C1759 1.409 . S
C1753 H1745 0.930 . S
C1753 C1751 1.419 . S
C1753 C1754 1.362 . S
C1754 H1746 0.930 . S
C1754 C1753 1.362 . S
C1754 C1757 1.409 . S
C1755 H1747 0.930 . S
C1755 C1756 1.355 . S
C1755 C1757 1.415 . S
C1756 C1755 1.355 . S
C1756 C1758 1.419 . S
C1757 C1752 1.425 . S
C1757 C1754 1.409 . S
C1757 C1755 1.415 . S
C1758 H1748 0.930 . S
C1758 C1756 1.419 . S
C1758 C1759 1.362 . S
C1759 H1749 0.930 . S
C1759 C1752 1.409 . S
C1759 C1758 1.362 . S
H1760 C1766 0.930 . S
H1761 C1769 0.930 . S
H1762 C1770 0.930 . S
H1763 C1771 0.930 . S
H1764 C1774 0.930 . S
H1765 C1775 0.930 . S
C1766 H1760 0.930 . S
C1766 C1767 1.355 . S
C1766 C1768 1.415 . S
C1767 C1766 1.355 . S
C1767 C1769 1.419 . S
C1768 C1766 1.415 . S
C1768 C1773 1.425 . S
C1768 C1775 1.409 . S
C1769 H1761 0.930 . S
C1769 C1767 1.419 . S
C1769 C1770 1.362 . S
C1770 H1762 0.930 . S
C1770 C1769 1.362 . S
C1770 C1773 1.409 . S
C1771 H1763 0.930 . S
C1771 C1772 1.355 . S
C1771 C1773 1.415 . S
C1772 C1771 1.355 . S
C1772 C1774 1.419 . S
C1773 C1768 1.425 . S
C1773 C1770 1.409 . S
C1773 C1771 1.415 . S
C1774 H1764 0.930 . S
C1774 C1772 1.419 . S
C1774 C1775 1.362 . S
C1775 H1765 0.930 . S
C1775 C1768 1.409 . S
C1775 C1774 1.362 . S
H1776 C1782 0.930 1_655 S
H1777 C1785 0.930 . S
H1778 C1786 0.930 . S
H1779 C1787 0.930 . S
H1780 C1790 0.930 1_655 S
H1781 C1791 0.930 . S
C1782 H1776 0.930 1_455 S
C1782 C1783 1.355 . S
C1782 C1784 1.415 1_556 S
C1783 C1782 1.355 . S
C1783 C1785 1.419 . S
C1784 C1782 1.415 1_554 S
C1784 C1789 1.425 1_554 S
C1784 C1791 1.409 1_455 S
C1785 H1777 0.930 . S
C1785 C1783 1.419 . S
C1785 C1786 1.362 . S
C1786 H1778 0.930 . S
C1786 C1785 1.362 . S
C1786 C1789 1.409 . S
C1787 H1779 0.930 . S
C1787 C1788 1.355 . S
C1787 C1789 1.415 1_554 S
C1788 C1787 1.355 . S
C1788 C1790 1.419 . S
C1789 C1784 1.425 1_556 S
C1789 C1786 1.409 . S
C1789 C1787 1.415 1_556 S
C1790 H1780 0.930 1_455 S
C1790 C1788 1.419 . S
C1790 C1791 1.362 1_455 S
C1791 H1781 0.930 . S
C1791 C1784 1.409 1_655 S
C1791 C1790 1.362 1_655 S
H1792 C1798 0.930 1_655 S
H1793 C1801 0.930 . S
H1794 C1802 0.930 . S
H1795 C1803 0.930 . S
H1796 C1806 0.930 . S
H1797 C1807 0.930 . S
C1798 H1792 0.930 1_455 S
C1798 C1799 1.355 . S
C1798 C1800 1.415 1_455 S
C1799 C1798 1.355 . S
C1799 C1801 1.419 . S
C1800 C1798 1.415 1_655 S
C1800 C1805 1.425 . S
C1800 C1807 1.409 . S
C1801 H1793 0.930 . S
C1801 C1799 1.419 . S
C1801 C1802 1.362 . S
C1802 H1794 0.930 . S
C1802 C1801 1.362 . S
C1802 C1805 1.409 1_455 S
C1803 H1795 0.930 . S
C1803 C1804 1.355 . S
C1803 C1805 1.415 . S
C1804 C1803 1.355 . S
C1804 C1806 1.419 . S
C1805 C1800 1.425 . S
C1805 C1802 1.409 1_655 S
C1805 C1803 1.415 . S
C1806 H1796 0.930 . S
C1806 C1804 1.419 . S
C1806 C1807 1.362 . S
C1807 H1797 0.930 . S
C1807 C1800 1.409 . S
C1807 C1806 1.362 . S
H1808 C1814 0.930 . S
H1809 C1817 0.930 . S
H1810 C1818 0.930 . S
H1811 C1819 0.930 . S
H1812 C1822 0.930 . S
H1813 C1823 0.930 . S
C1814 H1808 0.930 . S
C1814 C1815 1.355 . S
C1814 C1816 1.415 . S
C1815 C1814 1.355 . S
C1815 C1817 1.419 . S
C1816 C1814 1.415 . S
C1816 C1821 1.425 . S
C1816 C1823 1.409 . S
C1817 H1809 0.930 . S
C1817 C1815 1.419 . S
C1817 C1818 1.362 . S
C1818 H1810 0.930 . S
C1818 C1817 1.362 . S
C1818 C1821 1.409 . S
C1819 H1811 0.930 . S
C1819 C1820 1.355 . S
C1819 C1821 1.415 . S
C1820 C1819 1.355 . S
C1820 C1822 1.419 . S
C1821 C1816 1.425 . S
C1821 C1818 1.409 . S
C1821 C1819 1.415 . S
C1822 H1812 0.930 . S
C1822 C1820 1.419 . S
C1822 C1823 1.362 . S
C1823 H1813 0.930 . S
C1823 C1816 1.409 . S
C1823 C1822 1.362 . S
H1824 C1830 0.930 . S
H1825 C1833 0.930 . S
H1826 C1834 0.930 . S
H1827 C1835 0.930 . S
H1828 C1838 0.930 . S
H1829 C1839 0.930 . S
C1830 H1824 0.930 . S
C1830 C1831 1.355 . S
C1830 C1832 1.415 . S
C1831 C1830 1.355 . S
C1831 C1833 1.419 . S
C1832 C1830 1.415 . S
C1832 C1837 1.425 . S
C1832 C1839 1.409 . S
C1833 H1825 0.930 . S
C1833 C1831 1.419 . S
C1833 C1834 1.362 . S
C1834 H1826 0.930 . S
C1834 C1833 1.362 . S
C1834 C1837 1.409 . S
C1835 H1827 0.930 . S
C1835 C1836 1.355 . S
C1835 C1837 1.415 . S
C1836 C1835 1.355 . S
C1836 C1838 1.419 . S
C1837 C1832 1.425 . S
C1837 C1834 1.409 . S
C1837 C1835 1.415 . S
C1838 H1828 0.930 . S
C1838 C1836 1.419 . S
C1838 C1839 1.362 . S
C1839 H1829 0.930 . S
C1839 C1832 1.409 . S
C1839 C1838 1.362 . S
H1840 C1846 0.930 . S
H1841 C1849 0.930 1_655 S
H1842 C1850 0.930 1_655 S
H1843 C1851 0.930 . S
H1844 C1854 0.930 . S
H1845 C1855 0.930 . S
C1846 H1840 0.930 . S
C1846 C1847 1.355 . S
C1846 C1848 1.415 . S
C1847 C1846 1.355 . S
C1847 C1849 1.419 . S
C1848 C1846 1.415 . S
C1848 C1853 1.425 . S
C1848 C1855 1.409 . S
C1849 H1841 0.930 1_455 S
C1849 C1847 1.419 . S
C1849 C1850 1.362 . S
C1850 H1842 0.930 1_455 S
C1850 C1849 1.362 . S
C1850 C1853 1.409 . S
C1851 H1843 0.930 . S
C1851 C1852 1.355 . S
C1851 C1853 1.415 . S
C1852 C1851 1.355 . S
C1852 C1854 1.419 . S
C1853 C1848 1.425 . S
C1853 C1850 1.409 . S
C1853 C1851 1.415 . S
C1854 H1844 0.930 . S
C1854 C1852 1.419 . S
C1854 C1855 1.362 . S
C1855 H1845 0.930 . S
C1855 C1848 1.409 . S
C1855 C1854 1.362 . S
H1856 C1862 0.930 . S
H1857 C1865 0.930 . S
H1858 C1866 0.930 . S
H1859 C1867 0.930 . S
H1860 C1870 0.930 . S
H1861 C1871 0.930 . S
C1862 H1856 0.930 . S
C1862 C1863 1.355 . S
C1862 C1864 1.415 . S
C1863 C1862 1.355 . S
C1863 C1865 1.419 . S
C1864 C1862 1.415 . S
C1864 C1869 1.425 . S
C1864 C1871 1.409 . S
C1865 H1857 0.930 . S
C1865 C1863 1.419 . S
C1865 C1866 1.362 . S
C1866 H1858 0.930 . S
C1866 C1865 1.362 . S
C1866 C1869 1.409 . S
C1867 H1859 0.930 . S
C1867 C1868 1.355 . S
C1867 C1869 1.415 . S
C1868 C1867 1.355 . S
C1868 C1870 1.419 . S
C1869 C1864 1.425 . S
C1869 C1866 1.409 . S
C1869 C1867 1.415 . S
C1870 H1860 0.930 . S
C1870 C1868 1.419 . S
C1870 C1871 1.362 . S
C1871 H1861 0.930 . S
C1871 C1864 1.409 . S
C1871 C1870 1.362 . S
H1872 C1878 0.930 . S
H1873 C1881 0.930 . S
H1874 C1882 0.930 . S
H1875 C1883 0.930 . S
H1876 C1886 0.930 . S
H1877 C1887 0.930 . S
C1878 H1872 0.930 . S
C1878 C1879 1.355 . S
C1878 C1880 1.415 . S
C1879 C1878 1.355 . S
C1879 C1881 1.419 . S
C1880 C1878 1.415 . S
C1880 C1885 1.425 . S
C1880 C1887 1.409 . S
C1881 H1873 0.930 . S
C1881 C1879 1.419 . S
C1881 C1882 1.362 . S
C1882 H1874 0.930 . S
C1882 C1881 1.362 . S
C1882 C1885 1.409 . S
C1883 H1875 0.930 . S
C1883 C1884 1.355 . S
C1883 C1885 1.415 . S
C1884 C1883 1.355 . S
C1884 C1886 1.419 . S
C1885 C1880 1.425 . S
C1885 C1882 1.409 . S
C1885 C1883 1.415 . S
C1886 H1876 0.930 . S
C1886 C1884 1.419 . S
C1886 C1887 1.362 . S
C1887 H1877 0.930 . S
C1887 C1880 1.409 . S
C1887 C1886 1.362 . S
H1888 C1894 0.930 . S
H1889 C1897 0.930 . S
H1890 C1898 0.930 . S
H1891 C1899 0.930 . S
H1892 C1902 0.930 . S
H1893 C1903 0.930 . S
C1894 H1888 0.930 . S
C1894 C1895 1.355 . S
C1894 C1896 1.415 1_554 S
C1895 C1894 1.355 . S
C1895 C1897 1.419 . S
C1896 C1894 1.415 1_556 S
C1896 C1901 1.425 . S
C1896 C1903 1.409 . S
C1897 H1889 0.930 . S
C1897 C1895 1.419 . S
C1897 C1898 1.362 1_554 S
C1898 H1890 0.930 . S
C1898 C1897 1.362 1_556 S
C1898 C1901 1.409 . S
C1899 H1891 0.930 . S
C1899 C1900 1.355 . S
C1899 C1901 1.415 . S
C1900 C1899 1.355 . S
C1900 C1902 1.419 . S
C1901 C1896 1.425 . S
C1901 C1898 1.409 . S
C1901 C1899 1.415 . S
C1902 H1892 0.930 . S
C1902 C1900 1.419 . S
C1902 C1903 1.362 . S
C1903 H1893 0.930 . S
C1903 C1896 1.409 . S
C1903 C1902 1.362 . S
H1904 C1910 0.930 . S
H1905 C1913 0.930 . S
H1906 C1914 0.930 . S
H1907 C1915 0.930 . S
H1908 C1918 0.930 . S
H1909 C1919 0.930 . S
C1910 H1904 0.930 . S
C1910 C1911 1.355 . S
C1910 C1912 1.415 . S
C1911 C1910 1.355 . S
C1911 C1913 1.419 . S
C1912 C1910 1.415 . S
C1912 C1917 1.425 . S
C1912 C1919 1.409 . S
C1913 H1905 0.930 . S
C1913 C1911 1.419 . S
C1913 C1914 1.362 . S
C1914 H1906 0.930 . S
C1914 C1913 1.362 . S
C1914 C1917 1.409 . S
C1915 H1907 0.930 . S
C1915 C1916 1.355 . S
C1915 C1917 1.415 . S
C1916 C1915 1.355 . S
C1916 C1918 1.419 . S
C1917 C1912 1.425 . S
C1917 C1914 1.409 . S
C1917 C1915 1.415 . S
C1918 H1908 0.930 . S
C1918 C1916 1.419 . S
C1918 C1919 1.362 . S
C1919 H1909 0.930 . S
C1919 C1912 1.409 . S
C1919 C1918 1.362 . S
H1920 C1926 0.930 . S
H1921 C1929 0.930 . S
H1922 C1930 0.930 . S
H1923 C1931 0.930 . S
H1924 C1934 0.930 . S
H1925 C1935 0.930 . S
C1926 H1920 0.930 . S
C1926 C1927 1.355 . S
C1926 C1928 1.415 . S
C1927 C1926 1.355 . S
C1927 C1929 1.419 . S
C1928 C1926 1.415 . S
C1928 C1933 1.425 . S
C1928 C1935 1.409 . S
C1929 H1921 0.930 . S
C1929 C1927 1.419 . S
C1929 C1930 1.362 . S
C1930 H1922 0.930 . S
C1930 C1929 1.362 . S
C1930 C1933 1.409 . S
C1931 H1923 0.930 . S
C1931 C1932 1.355 . S
C1931 C1933 1.415 . S
C1932 C1931 1.355 . S
C1932 C1934 1.419 . S
C1933 C1928 1.425 . S
C1933 C1930 1.409 . S
C1933 C1931 1.415 . S
C1934 H1924 0.930 . S
C1934 C1932 1.419 . S
C1934 C1935 1.362 . S
C1935 H1925 0.930 . S
C1935 C1928 1.409 . S
C1935 C1934 1.362 . S
H1936 C1942 0.930 . S
H1937 C1945 0.930 . S
H1938 C1946 0.930 . S
H1939 C1947 0.930 . S
H1940 C1950 0.930 . S
H1941 C1951 0.930 . S
C1942 H1936 0.930 . S
C1942 C1943 1.355 . S
C1942 C1944 1.415 . S
C1943 C1942 1.355 . S
C1943 C1945 1.419 . S
C1944 C1942 1.415 . S
C1944 C1949 1.425 . S
C1944 C1951 1.409 . S
C1945 H1937 0.930 . S
C1945 C1943 1.419 . S
C1945 C1946 1.362 . S
C1946 H1938 0.930 . S
C1946 C1945 1.362 . S
C1946 C1949 1.409 . S
C1947 H1939 0.930 . S
C1947 C1948 1.355 . S
C1947 C1949 1.415 . S
C1948 C1947 1.355 . S
C1948 C1950 1.419 . S
C1949 C1944 1.425 . S
C1949 C1946 1.409 . S
C1949 C1947 1.415 . S
C1950 H1940 0.930 . S
C1950 C1948 1.419 . S
C1950 C1951 1.362 . S
C1951 H1941 0.930 . S
C1951 C1944 1.409 . S
C1951 C1950 1.362 . S
H1952 C1958 0.930 . S
H1953 C1961 0.930 . S
H1954 C1962 0.930 . S
H1955 C1963 0.930 . S
H1956 C1966 0.930 . S
H1957 C1967 0.930 . S
C1958 H1952 0.930 . S
C1958 C1959 1.355 . S
C1958 C1960 1.415 . S
C1959 C1958 1.355 . S
C1959 C1961 1.419 . S
C1960 C1958 1.415 . S
C1960 C1965 1.425 . S
C1960 C1967 1.409 . S
C1961 H1953 0.930 . S
C1961 C1959 1.419 . S
C1961 C1962 1.362 . S
C1962 H1954 0.930 . S
C1962 C1961 1.362 . S
C1962 C1965 1.409 . S
C1963 H1955 0.930 . S
C1963 C1964 1.355 . S
C1963 C1965 1.415 . S
C1964 C1963 1.355 . S
C1964 C1966 1.419 . S
C1965 C1960 1.425 . S
C1965 C1962 1.409 . S
C1965 C1963 1.415 . S
C1966 H1956 0.930 . S
C1966 C1964 1.419 . S
C1966 C1967 1.362 . S
C1967 H1957 0.930 . S
C1967 C1960 1.409 . S
C1967 C1966 1.362 . S
H1968 C1974 0.930 . S
H1969 C1977 0.930 . S
H1970 C1978 0.930 . S
H1971 C1979 0.930 . S
H1972 C1982 0.930 . S
H1973 C1983 0.930 . S
C1974 H1968 0.930 . S
C1974 C1975 1.355 . S
C1974 C1976 1.415 . S
C1975 C1974 1.355 . S
C1975 C1977 1.419 . S
C1976 C1974 1.415 . S
C1976 C1981 1.425 . S
C1976 C1983 1.409 . S
C1977 H1969 0.930 . S
C1977 C1975 1.419 . S
C1977 C1978 1.362 . S
C1978 H1970 0.930 . S
C1978 C1977 1.362 . S
C1978 C1981 1.409 . S
C1979 H1971 0.930 . S
C1979 C1980 1.355 . S
C1979 C1981 1.415 . S
C1980 C1979 1.355 . S
C1980 C1982 1.419 . S
C1981 C1976 1.425 . S
C1981 C1978 1.409 . S
C1981 C1979 1.415 . S
C1982 H1972 0.930 . S
C1982 C1980 1.419 . S
C1982 C1983 1.362 . S
C1983 H1973 0.930 . S
C1983 C1976 1.409 . S
C1983 C1982 1.362 . S
H1984 C1990 0.930 . S
H1985 C1993 0.930 . S
H1986 C1994 0.930 . S
H1987 C1995 0.930 . S
H1988 C1998 0.930 . S
H1989 C1999 0.930 . S
C1990 H1984 0.930 . S
C1990 C1991 1.355 . S
C1990 C1992 1.415 . S
C1991 C1990 1.355 . S
C1991 C1993 1.419 . S
C1992 C1990 1.415 . S
C1992 C1997 1.425 . S
C1992 C1999 1.409 . S
C1993 H1985 0.930 . S
C1993 C1991 1.419 . S
C1993 C1994 1.362 . S
C1994 H1986 0.930 . S
C1994 C1993 1.362 . S
C1994 C1997 1.409 . S
C1995 H1987 0.930 . S
C1995 C1996 1.355 . S
C1995 C1997 1.415 . S
C1996 C1995 1.355 . S
C1996 C1998 1.419 . S
C1997 C1992 1.425 . S
C1997 C1994 1.409 . S
C1997 C1995 1.415 . S
C1998 H1988 0.930 . S
C1998 C1996 1.419 . S
C1998 C1999 1.362 . S
C1999 H1989 0.930 . S
C1999 C1992 1.409 . S
C1999 C1998 1.362 . S
H2000 C2006 0.930 . S
H2001 C2009 0.930 . S
H2002 C2010 0.930 . S
H2003 C2011 0.930 . S
H2004 C2014 0.930 . S
H2005 C2015 0.930 . S
C2006 H2000 0.930 . S
C2006 C2007 1.355 . S
C2006 C2008 1.415 . S
C2007 C2006 1.355 . S
C2007 C2009 1.419 . S
C2008 C2006 1.415 . S
C2008 C2013 1.425 . S
C2008 C2015 1.409 . S
C2009 H2001 0.930 . S
C2009 C2007 1.419 . S
C2009 C2010 1.362 . S
C2010 H2002 0.930 . S
C2010 C2009 1.362 . S
C2010 C2013 1.409 . S
C2011 H2003 0.930 . S
C2011 C2012 1.355 . S
C2011 C2013 1.415 . S
C2012 C2011 1.355 . S
C2012 C2014 1.419 . S
C2013 C2008 1.425 . S
C2013 C2010 1.409 . S
C2013 C2011 1.415 . S
C2014 H2004 0.930 . S
C2014 C2012 1.419 . S
C2014 C2015 1.362 . S
C2015 H2005 0.930 . S
C2015 C2008 1.409 . S
C2015 C2014 1.362 . S
H2016 C2022 0.930 . S
H2017 C2025 0.930 . S
H2018 C2026 0.930 . S
H2019 C2027 0.930 . S
H2020 C2030 0.930 . S
H2021 C2031 0.930 . S
C2022 H2016 0.930 . S
C2022 C2023 1.355 . S
C2022 C2024 1.415 . S
C2023 C2022 1.355 . S
C2023 C2025 1.419 . S
C2024 C2022 1.415 . S
C2024 C2029 1.425 . S
C2024 C2031 1.409 . S
C2025 H2017 0.930 . S
C2025 C2023 1.419 . S
C2025 C2026 1.362 . S
C2026 H2018 0.930 . S
C2026 C2025 1.362 . S
C2026 C2029 1.409 . S
C2027 H2019 0.930 . S
C2027 C2028 1.355 . S
C2027 C2029 1.415 . S
C2028 C2027 1.355 . S
C2028 C2030 1.419 . S
C2029 C2024 1.425 . S
C2029 C2026 1.409 . S
C2029 C2027 1.415 . S
C2030 H2020 0.930 . S
C2030 C2028 1.419 . S
C2030 C2031 1.362 . S
C2031 H2021 0.930 . S
C2031 C2024 1.409 . S
C2031 C2030 1.362 . S
H2032 C2038 0.930 . S
H2033 C2041 0.930 . S
H2034 C2042 0.930 . S
H2035 C2043 0.930 . S
H2036 C2046 0.930 . S
H2037 C2047 0.930 . S
C2038 H2032 0.930 . S
C2038 C2039 1.355 1_565 S
C2038 C2040 1.415 . S
C2039 C2038 1.355 1_545 S
C2039 C2041 1.419 . S
C2040 C2038 1.415 . S
C2040 C2045 1.425 . S
C2040 C2047 1.409 . S
C2041 H2033 0.930 . S
C2041 C2039 1.419 . S
C2041 C2042 1.362 . S
C2042 H2034 0.930 . S
C2042 C2041 1.362 . S
C2042 C2045 1.409 1_545 S
C2043 H2035 0.930 . S
C2043 C2044 1.355 . S
C2043 C2045 1.415 . S
C2044 C2043 1.355 . S
C2044 C2046 1.419 . S
C2045 C2040 1.425 . S
C2045 C2042 1.409 1_565 S
C2045 C2043 1.415 . S
C2046 H2036 0.930 . S
C2046 C2044 1.419 . S
C2046 C2047 1.362 . S
C2047 H2037 0.930 . S
C2047 C2040 1.409 . S
C2047 C2046 1.362 . S
H2048 C2054 0.930 . S
H2049 C2057 0.930 . S
H2050 C2058 0.930 . S
H2051 C2059 0.930 . S
H2052 C2062 0.930 . S
H2053 C2063 0.929 1_565 S
C2054 H2048 0.930 . S
C2054 C2055 1.355 1_556 S
C2054 C2056 1.415 1_556 S
C2055 C2054 1.355 1_554 S
C2055 C2057 1.419 . S
C2056 C2054 1.415 1_554 S
C2056 C2061 1.425 1_565 S
C2056 C2063 1.409 1_564 S
C2057 H2049 0.930 . S
C2057 C2055 1.419 . S
C2057 C2058 1.362 . S
C2058 H2050 0.930 . S
C2058 C2057 1.362 . S
C2058 C2061 1.409 1_565 S
C2059 H2051 0.930 . S
C2059 C2060 1.355 . S
C2059 C2061 1.415 . S
C2060 C2059 1.355 . S
C2060 C2062 1.419 1_554 S
C2061 C2056 1.425 1_545 S
C2061 C2058 1.409 1_545 S
C2061 C2059 1.415 . S
C2062 H2052 0.930 . S
C2062 C2060 1.419 1_556 S
C2062 C2063 1.362 . S
C2063 H2053 0.929 1_545 S
C2063 C2056 1.409 1_546 S
C2063 C2062 1.362 . S
H2064 C2070 0.930 . S
H2065 C2073 0.930 . S
H2066 C2074 0.930 . S
H2067 C2075 0.930 . S
H2068 C2078 0.930 . S
H2069 C2079 0.930 . S
C2070 H2064 0.930 . S
C2070 C2071 1.355 . S
C2070 C2072 1.415 . S
C2071 C2070 1.355 . S
C2071 C2073 1.419 . S
C2072 C2070 1.415 . S
C2072 C2077 1.425 . S
C2072 C2079 1.409 . S
C2073 H2065 0.930 . S
C2073 C2071 1.419 . S
C2073 C2074 1.362 . S
C2074 H2066 0.930 . S
C2074 C2073 1.362 . S
C2074 C2077 1.409 . S
C2075 H2067 0.930 . S
C2075 C2076 1.355 . S
C2075 C2077 1.415 . S
C2076 C2075 1.355 . S
C2076 C2078 1.419 . S
C2077 C2072 1.425 . S
C2077 C2074 1.409 . S
C2077 C2075 1.415 . S
C2078 H2068 0.930 . S
C2078 C2076 1.419 . S
C2078 C2079 1.362 . S
C2079 H2069 0.930 . S
C2079 C2072 1.409 . S
C2079 C2078 1.362 . S
H2080 C2086 0.930 . S
H2081 C2089 0.930 . S
H2082 C2090 0.930 . S
H2083 C2091 0.930 . S
H2084 C2094 0.930 . S
H2085 C2095 0.930 . S
C2086 H2080 0.930 . S
C2086 C2087 1.355 . S
C2086 C2088 1.415 . S
C2087 C2086 1.355 . S
C2087 C2089 1.419 . S
C2088 C2086 1.415 . S
C2088 C2093 1.425 . S
C2088 C2095 1.409 . S
C2089 H2081 0.930 . S
C2089 C2087 1.419 . S
C2089 C2090 1.362 . S
C2090 H2082 0.930 . S
C2090 C2089 1.362 . S
C2090 C2093 1.409 . S
C2091 H2083 0.930 . S
C2091 C2092 1.355 . S
C2091 C2093 1.415 . S
C2092 C2091 1.355 . S
C2092 C2094 1.419 . S
C2093 C2088 1.425 . S
C2093 C2090 1.409 . S
C2093 C2091 1.415 . S
C2094 H2084 0.930 . S
C2094 C2092 1.419 . S
C2094 C2095 1.362 . S
C2095 H2085 0.930 . S
C2095 C2088 1.409 . S
C2095 C2094 1.362 . S
H2096 C2102 0.930 . S
H2097 C2105 0.930 . S
H2098 C2106 0.930 . S
H2099 C2107 0.930 . S
H2100 C2110 0.930 . S
H2101 C2111 0.930 . S
C2102 H2096 0.930 . S
C2102 C2103 1.355 . S
C2102 C2104 1.415 . S
C2103 C2102 1.355 . S
C2103 C2105 1.419 . S
C2104 C2102 1.415 . S
C2104 C2109 1.425 . S
C2104 C2111 1.409 . S
C2105 H2097 0.930 . S
C2105 C2103 1.419 . S
C2105 C2106 1.362 . S
C2106 H2098 0.930 . S
C2106 C2105 1.362 . S
C2106 C2109 1.409 . S
C2107 H2099 0.930 . S
C2107 C2108 1.355 . S
C2107 C2109 1.415 . S
C2108 C2107 1.355 . S
C2108 C2110 1.419 . S
C2109 C2104 1.425 . S
C2109 C2106 1.409 . S
C2109 C2107 1.415 . S
C2110 H2100 0.930 . S
C2110 C2108 1.419 . S
C2110 C2111 1.362 . S
C2111 H2101 0.930 . S
C2111 C2104 1.409 . S
C2111 C2110 1.362 . S
H2112 C2118 0.930 . S
H2113 C2121 0.930 . S
H2114 C2122 0.930 . S
H2115 C2123 0.930 . S
H2116 C2126 0.930 . S
H2117 C2127 0.930 . S
C2118 H2112 0.930 . S
C2118 C2119 1.355 . S
C2118 C2120 1.415 . S
C2119 C2118 1.355 . S
C2119 C2121 1.419 . S
C2120 C2118 1.415 . S
C2120 C2125 1.425 . S
C2120 C2127 1.409 . S
C2121 H2113 0.930 . S
C2121 C2119 1.419 . S
C2121 C2122 1.362 . S
C2122 H2114 0.930 . S
C2122 C2121 1.362 . S
C2122 C2125 1.409 . S
C2123 H2115 0.930 . S
C2123 C2124 1.355 . S
C2123 C2125 1.415 . S
C2124 C2123 1.355 . S
C2124 C2126 1.419 . S
C2125 C2120 1.425 . S
C2125 C2122 1.409 . S
C2125 C2123 1.415 . S
C2126 H2116 0.930 . S
C2126 C2124 1.419 . S
C2126 C2127 1.362 . S
C2127 H2117 0.930 . S
C2127 C2120 1.409 . S
C2127 C2126 1.362 . S
H2128 C2134 0.930 . S
H2129 C2137 0.930 . S
H2130 C2138 0.930 . S
H2131 C2139 0.930 . S
H2132 C2142 0.930 . S
H2133 C2143 0.930 . S
C2134 H2128 0.930 . S
C2134 C2135 1.355 . S
C2134 C2136 1.415 . S
C2135 C2134 1.355 . S
C2135 C2137 1.419 . S
C2136 C2134 1.415 . S
C2136 C2141 1.425 . S
C2136 C2143 1.409 . S
C2137 H2129 0.930 . S
C2137 C2135 1.419 . S
C2137 C2138 1.362 . S
C2138 H2130 0.930 . S
C2138 C2137 1.362 . S
C2138 C2141 1.409 . S
C2139 H2131 0.930 . S
C2139 C2140 1.355 . S
C2139 C2141 1.415 . S
C2140 C2139 1.355 . S
C2140 C2142 1.419 . S
C2141 C2136 1.425 . S
C2141 C2138 1.409 . S
C2141 C2139 1.415 . S
C2142 H2132 0.930 . S
C2142 C2140 1.419 . S
C2142 C2143 1.362 . S
C2143 H2133 0.930 . S
C2143 C2136 1.409 . S
C2143 C2142 1.362 . S
H2144 C2150 0.930 . S
H2145 C2153 0.930 . S
H2146 C2154 0.930 . S
H2147 C2155 0.930 . S
H2148 C2158 0.930 . S
H2149 C2159 0.930 . S
C2150 H2144 0.930 . S
C2150 C2151 1.355 . S
C2150 C2152 1.415 . S
C2151 C2150 1.355 . S
C2151 C2153 1.419 . S
C2152 C2150 1.415 . S
C2152 C2157 1.425 . S
C2152 C2159 1.409 . S
C2153 H2145 0.930 . S
C2153 C2151 1.419 . S
C2153 C2154 1.362 . S
C2154 H2146 0.930 . S
C2154 C2153 1.362 . S
C2154 C2157 1.409 . S
C2155 H2147 0.930 . S
C2155 C2156 1.355 . S
C2155 C2157 1.415 . S
C2156 C2155 1.355 . S
C2156 C2158 1.419 . S
C2157 C2152 1.425 . S
C2157 C2154 1.409 . S
C2157 C2155 1.415 . S
C2158 H2148 0.930 . S
C2158 C2156 1.419 . S
C2158 C2159 1.362 . S
C2159 H2149 0.930 . S
C2159 C2152 1.409 . S
C2159 C2158 1.362 . S
H2160 C2166 0.930 . S
H2161 C2169 0.930 . S
H2162 C2170 0.930 . S
H2163 C2171 0.930 . S
H2164 C2174 0.930 . S
H2165 C2175 0.930 . S
C2166 H2160 0.930 . S
C2166 C2167 1.355 . S
C2166 C2168 1.415 . S
C2167 C2166 1.355 . S
C2167 C2169 1.419 . S
C2168 C2166 1.415 . S
C2168 C2173 1.425 . S
C2168 C2175 1.409 . S
C2169 H2161 0.930 . S
C2169 C2167 1.419 . S
C2169 C2170 1.362 . S
C2170 H2162 0.930 . S
C2170 C2169 1.362 . S
C2170 C2173 1.409 . S
C2171 H2163 0.930 . S
C2171 C2172 1.355 . S
C2171 C2173 1.415 . S
C2172 C2171 1.355 . S
C2172 C2174 1.419 . S
C2173 C2168 1.425 . S
C2173 C2170 1.409 . S
C2173 C2171 1.415 . S
C2174 H2164 0.930 . S
C2174 C2172 1.419 . S
C2174 C2175 1.362 . S
C2175 H2165 0.930 . S
C2175 C2168 1.409 . S
C2175 C2174 1.362 . S
H2176 C2182 0.930 . S
H2177 C2185 0.930 . S
H2178 C2186 0.930 . S
H2179 C2187 0.930 . S
H2180 C2190 0.930 . S
H2181 C2191 0.930 . S
C2182 H2176 0.930 . S
C2182 C2183 1.355 . S
C2182 C2184 1.415 . S
C2183 C2182 1.355 . S
C2183 C2185 1.419 . S
C2184 C2182 1.415 . S
C2184 C2189 1.425 . S
C2184 C2191 1.409 . S
C2185 H2177 0.930 . S
C2185 C2183 1.419 . S
C2185 C2186 1.362 . S
C2186 H2178 0.930 . S
C2186 C2185 1.362 . S
C2186 C2189 1.409 . S
C2187 H2179 0.930 . S
C2187 C2188 1.355 . S
C2187 C2189 1.415 . S
C2188 C2187 1.355 . S
C2188 C2190 1.419 . S
C2189 C2184 1.425 . S
C2189 C2186 1.409 . S
C2189 C2187 1.415 . S
C2190 H2180 0.930 . S
C2190 C2188 1.419 . S
C2190 C2191 1.362 . S
C2191 H2181 0.930 . S
C2191 C2184 1.409 . S
C2191 C2190 1.362 . S
H2192 C2198 0.930 . S
H2193 C2201 0.930 . S
H2194 C2202 0.930 . S
H2195 C2203 0.930 1_554 S
H2196 C2206 0.930 . S
H2197 C2207 0.930 . S
C2198 H2192 0.930 . S
C2198 C2199 1.355 . S
C2198 C2200 1.415 . S
C2199 C2198 1.355 . S
C2199 C2201 1.419 . S
C2200 C2198 1.415 . S
C2200 C2205 1.425 . S
C2200 C2207 1.409 . S
C2201 H2193 0.930 . S
C2201 C2199 1.419 . S
C2201 C2202 1.362 . S
C2202 H2194 0.930 . S
C2202 C2201 1.362 . S
C2202 C2205 1.409 . S
C2203 H2195 0.930 1_556 S
C2203 C2204 1.355 . S
C2203 C2205 1.415 . S
C2204 C2203 1.355 . S
C2204 C2206 1.419 . S
C2205 C2200 1.425 . S
C2205 C2202 1.409 . S
C2205 C2203 1.415 . S
C2206 H2196 0.930 . S
C2206 C2204 1.419 . S
C2206 C2207 1.362 . S
C2207 H2197 0.930 . S
C2207 C2200 1.409 . S
C2207 C2206 1.362 . S
H2208 C2214 0.930 . S
H2209 C2217 0.930 . S
H2210 C2218 0.930 . S
H2211 C2219 0.930 . S
H2212 C2222 0.930 . S
H2213 C2223 0.930 . S
C2214 H2208 0.930 . S
C2214 C2215 1.355 . S
C2214 C2216 1.415 . S
C2215 C2214 1.355 . S
C2215 C2217 1.419 . S
C2216 C2214 1.415 . S
C2216 C2221 1.425 . S
C2216 C2223 1.409 . S
C2217 H2209 0.930 . S
C2217 C2215 1.419 . S
C2217 C2218 1.362 . S
C2218 H2210 0.930 . S
C2218 C2217 1.362 . S
C2218 C2221 1.409 . S
C2219 H2211 0.930 . S
C2219 C2220 1.355 . S
C2219 C2221 1.415 . S
C2220 C2219 1.355 . S
C2220 C2222 1.419 . S
C2221 C2216 1.425 . S
C2221 C2218 1.409 . S
C2221 C2219 1.415 . S
C2222 H2212 0.930 . S
C2222 C2220 1.419 . S
C2222 C2223 1.362 . S
C2223 H2213 0.930 . S
C2223 C2216 1.409 . S
C2223 C2222 1.362 . S
H2224 C2230 0.930 . S
H2225 C2233 0.930 . S
H2226 C2234 0.930 . S
H2227 C2235 0.930 . S
H2228 C2238 0.930 . S
H2229 C2239 0.930 . S
C2230 H2224 0.930 . S
C2230 C2231 1.355 . S
C2230 C2232 1.415 . S
C2231 C2230 1.355 . S
C2231 C2233 1.419 . S
C2232 C2230 1.415 . S
C2232 C2237 1.425 . S
C2232 C2239 1.409 . S
C2233 H2225 0.930 . S
C2233 C2231 1.419 . S
C2233 C2234 1.362 . S
C2234 H2226 0.930 . S
C2234 C2233 1.362 . S
C2234 C2237 1.409 . S
C2235 H2227 0.930 . S
C2235 C2236 1.355 . S
C2235 C2237 1.415 . S
C2236 C2235 1.355 . S
C2236 C2238 1.419 . S
C2237 C2232 1.425 . S
C2237 C2234 1.409 . S
C2237 C2235 1.415 . S
C2238 H2228 0.930 . S
C2238 C2236 1.419 . S
C2238 C2239 1.362 . S
C2239 H2229 0.930 . S
C2239 C2232 1.409 . S
C2239 C2238 1.362 . S
H2240 C2246 0.930 . S
H2241 C2249 0.930 . S
H2242 C2250 0.930 . S
H2243 C2251 0.930 . S
H2244 C2254 0.930 . S
H2245 C2255 0.930 . S
C2246 H2240 0.930 . S
C2246 C2247 1.355 . S
C2246 C2248 1.415 . S
C2247 C2246 1.355 . S
C2247 C2249 1.419 . S
C2248 C2246 1.415 . S
C2248 C2253 1.425 . S
C2248 C2255 1.409 . S
C2249 H2241 0.930 . S
C2249 C2247 1.419 . S
C2249 C2250 1.362 . S
C2250 H2242 0.930 . S
C2250 C2249 1.362 . S
C2250 C2253 1.409 . S
C2251 H2243 0.930 . S
C2251 C2252 1.355 . S
C2251 C2253 1.415 . S
C2252 C2251 1.355 . S
C2252 C2254 1.419 . S
C2253 C2248 1.425 . S
C2253 C2250 1.409 . S
C2253 C2251 1.415 . S
C2254 H2244 0.930 . S
C2254 C2252 1.419 . S
C2254 C2255 1.362 . S
C2255 H2245 0.930 . S
C2255 C2248 1.409 . S
C2255 C2254 1.362 . S
H2256 C2262 0.930 . S
H2257 C2265 0.930 . S
H2258 C2266 0.930 . S
H2259 C2267 0.930 . S
H2260 C2270 0.930 . S
H2261 C2271 0.930 . S
C2262 H2256 0.930 . S
C2262 C2263 1.355 . S
C2262 C2264 1.415 . S
C2263 C2262 1.355 . S
C2263 C2265 1.419 . S
C2264 C2262 1.415 . S
C2264 C2269 1.425 . S
C2264 C2271 1.409 . S
C2265 H2257 0.930 . S
C2265 C2263 1.419 . S
C2265 C2266 1.362 . S
C2266 H2258 0.930 . S
C2266 C2265 1.362 . S
C2266 C2269 1.409 . S
C2267 H2259 0.930 . S
C2267 C2268 1.355 . S
C2267 C2269 1.415 . S
C2268 C2267 1.355 . S
C2268 C2270 1.419 . S
C2269 C2264 1.425 . S
C2269 C2266 1.409 . S
C2269 C2267 1.415 . S
C2270 H2260 0.930 . S
C2270 C2268 1.419 . S
C2270 C2271 1.362 . S
C2271 H2261 0.930 . S
C2271 C2264 1.409 . S
C2271 C2270 1.362 . S
H2272 C2278 0.930 . S
H2273 C2281 0.930 . S
H2274 C2282 0.930 . S
H2275 C2283 0.930 . S
H2276 C2286 0.930 . S
H2277 C2287 0.930 . S
C2278 H2272 0.930 . S
C2278 C2279 1.355 . S
C2278 C2280 1.415 . S
C2279 C2278 1.355 . S
C2279 C2281 1.419 . S
C2280 C2278 1.415 . S
C2280 C2285 1.425 . S
C2280 C2287 1.409 . S
C2281 H2273 0.930 . S
C2281 C2279 1.419 . S
C2281 C2282 1.362 . S
C2282 H2274 0.930 . S
C2282 C2281 1.362 . S
C2282 C2285 1.409 . S
C2283 H2275 0.930 . S
C2283 C2284 1.355 . S
C2283 C2285 1.415 . S
C2284 C2283 1.355 . S
C2284 C2286 1.419 . S
C2285 C2280 1.425 . S
C2285 C2282 1.409 . S
C2285 C2283 1.415 . S
C2286 H2276 0.930 . S
C2286 C2284 1.419 . S
C2286 C2287 1.362 . S
C2287 H2277 0.930 . S
C2287 C2280 1.409 . S
C2287 C2286 1.362 . S
H2288 C2294 0.930 . S
H2289 C2297 0.930 . S
H2290 C2298 0.930 . S
H2291 C2299 0.930 1_655 S
H2292 C2302 0.930 . S
H2293 C2303 0.930 . S
C2294 H2288 0.930 . S
C2294 C2295 1.355 . S
C2294 C2296 1.415 . S
C2295 C2294 1.355 . S
C2295 C2297 1.419 . S
C2296 C2294 1.415 . S
C2296 C2301 1.425 . S
C2296 C2303 1.409 1_655 S
C2297 H2289 0.930 . S
C2297 C2295 1.419 . S
C2297 C2298 1.362 . S
C2298 H2290 0.930 . S
C2298 C2297 1.362 . S
C2298 C2301 1.409 . S
C2299 H2291 0.930 1_455 S
C2299 C2300 1.355 . S
C2299 C2301 1.415 1_455 S
C2300 C2299 1.355 . S
C2300 C2302 1.419 . S
C2301 C2296 1.425 . S
C2301 C2298 1.409 . S
C2301 C2299 1.415 1_655 S
C2302 H2292 0.930 . S
C2302 C2300 1.419 . S
C2302 C2303 1.362 . S
C2303 H2293 0.930 . S
C2303 C2296 1.409 1_455 S
C2303 C2302 1.362 . S
H2304 C2310 0.930 . S
H2305 C2313 0.930 . S
H2306 C2314 0.930 . S
H2307 C2315 0.930 . S
H2308 C2318 0.930 . S
H2309 C2319 0.930 . S
C2310 H2304 0.930 . S
C2310 C2311 1.355 . S
C2310 C2312 1.415 . S
C2311 C2310 1.355 . S
C2311 C2313 1.419 . S
C2312 C2310 1.415 . S
C2312 C2317 1.425 . S
C2312 C2319 1.409 . S
C2313 H2305 0.930 . S
C2313 C2311 1.419 . S
C2313 C2314 1.362 . S
C2314 H2306 0.930 . S
C2314 C2313 1.362 . S
C2314 C2317 1.409 . S
C2315 H2307 0.930 . S
C2315 C2316 1.355 . S
C2315 C2317 1.415 . S
C2316 C2315 1.355 . S
C2316 C2318 1.419 . S
C2317 C2312 1.425 . S
C2317 C2314 1.409 . S
C2317 C2315 1.415 . S
C2318 H2308 0.930 . S
C2318 C2316 1.419 . S
C2318 C2319 1.362 . S
C2319 H2309 0.930 . S
C2319 C2312 1.409 . S
C2319 C2318 1.362 . S
H2320 C2326 0.930 . S
H2321 C2329 0.930 . S
H2322 C2330 0.930 . S
H2323 C2331 0.930 . S
H2324 C2334 0.930 . S
H2325 C2335 0.930 . S
C2326 H2320 0.930 . S
C2326 C2327 1.355 . S
C2326 C2328 1.415 . S
C2327 C2326 1.355 . S
C2327 C2329 1.419 . S
C2328 C2326 1.415 . S
C2328 C2333 1.425 . S
C2328 C2335 1.409 . S
C2329 H2321 0.930 . S
C2329 C2327 1.419 . S
C2329 C2330 1.362 . S
C2330 H2322 0.930 . S
C2330 C2329 1.362 . S
C2330 C2333 1.409 . S
C2331 H2323 0.930 . S
C2331 C2332 1.355 . S
C2331 C2333 1.415 . S
C2332 C2331 1.355 . S
C2332 C2334 1.419 . S
C2333 C2328 1.425 . S
C2333 C2330 1.409 . S
C2333 C2331 1.415 . S
C2334 H2324 0.930 . S
C2334 C2332 1.419 . S
C2334 C2335 1.362 . S
C2335 H2325 0.930 . S
C2335 C2328 1.409 . S
C2335 C2334 1.362 . S
H2336 C2342 0.930 . S
H2337 C2345 0.930 . S
H2338 C2346 0.930 . S
H2339 C2347 0.930 . S
H2340 C2350 0.930 . S
H2341 C2351 0.930 . S
C2342 H2336 0.930 . S
C2342 C2343 1.355 . S
C2342 C2344 1.415 . S
C2343 C2342 1.355 . S
C2343 C2345 1.419 . S
C2344 C2342 1.415 . S
C2344 C2349 1.425 . S
C2344 C2351 1.409 . S
C2345 H2337 0.930 . S
C2345 C2343 1.419 . S
C2345 C2346 1.362 . S
C2346 H2338 0.930 . S
C2346 C2345 1.362 . S
C2346 C2349 1.409 . S
C2347 H2339 0.930 . S
C2347 C2348 1.355 . S
C2347 C2349 1.415 . S
C2348 C2347 1.355 . S
C2348 C2350 1.419 . S
C2349 C2344 1.425 . S
C2349 C2346 1.409 . S
C2349 C2347 1.415 . S
C2350 H2340 0.930 . S
C2350 C2348 1.419 . S
C2350 C2351 1.362 . S
C2351 H2341 0.930 . S
C2351 C2344 1.409 . S
C2351 C2350 1.362 . S
H2352 C2358 0.930 . S
H2353 C2361 0.930 . S
H2354 C2362 0.930 . S
H2355 C2363 0.930 . S
H2356 C2366 0.930 . S
H2357 C2367 0.930 . S
C2358 H2352 0.930 . S
C2358 C2359 1.355 . S
C2358 C2360 1.415 . S
C2359 C2358 1.355 . S
C2359 C2361 1.419 . S
C2360 C2358 1.415 . S
C2360 C2365 1.425 . S
C2360 C2367 1.409 1_655 S
C2361 H2353 0.930 . S
C2361 C2359 1.419 . S
C2361 C2362 1.362 . S
C2362 H2354 0.930 . S
C2362 C2361 1.362 . S
C2362 C2365 1.409 . S
C2363 H2355 0.930 . S
C2363 C2364 1.355 1_655 S
C2363 C2365 1.415 . S
C2364 C2363 1.355 1_455 S
C2364 C2366 1.419 . S
C2365 C2360 1.425 . S
C2365 C2362 1.409 . S
C2365 C2363 1.415 . S
C2366 H2356 0.930 . S
C2366 C2364 1.419 . S
C2366 C2367 1.362 . S
C2367 H2357 0.930 . S
C2367 C2360 1.409 1_455 S
C2367 C2366 1.362 . S
H2368 C2374 0.930 . S
H2369 C2377 0.930 . S
H2370 C2378 0.930 . S
H2371 C2379 0.930 . S
H2372 C2382 0.930 . S
H2373 C2383 0.930 . S
C2374 H2368 0.930 . S
C2374 C2375 1.355 . S
C2374 C2376 1.415 . S
C2375 C2374 1.355 . S
C2375 C2377 1.419 . S
C2376 C2374 1.415 . S
C2376 C2381 1.425 . S
C2376 C2383 1.409 . S
C2377 H2369 0.930 . S
C2377 C2375 1.419 . S
C2377 C2378 1.362 . S
C2378 H2370 0.930 . S
C2378 C2377 1.362 . S
C2378 C2381 1.409 . S
C2379 H2371 0.930 . S
C2379 C2380 1.355 . S
C2379 C2381 1.415 . S
C2380 C2379 1.355 . S
C2380 C2382 1.419 . S
C2381 C2376 1.425 . S
C2381 C2378 1.409 . S
C2381 C2379 1.415 . S
C2382 H2372 0.930 . S
C2382 C2380 1.419 . S
C2382 C2383 1.362 . S
C2383 H2373 0.930 . S
C2383 C2376 1.409 . S
C2383 C2382 1.362 . S
H2384 C2390 0.930 . S
H2385 C2393 0.930 . S
H2386 C2394 0.930 . S
H2387 C2395 0.930 . S
H2388 C2398 0.930 . S
H2389 C2399 0.930 . S
C2390 H2384 0.930 . S
C2390 C2391 1.355 . S
C2390 C2392 1.415 . S
C2391 C2390 1.355 . S
C2391 C2393 1.419 . S
C2392 C2390 1.415 . S
C2392 C2397 1.425 . S
C2392 C2399 1.409 . S
C2393 H2385 0.930 . S
C2393 C2391 1.419 . S
C2393 C2394 1.362 . S
C2394 H2386 0.930 . S
C2394 C2393 1.362 . S
C2394 C2397 1.409 . S
C2395 H2387 0.930 . S
C2395 C2396 1.355 . S
C2395 C2397 1.415 . S
C2396 C2395 1.355 . S
C2396 C2398 1.419 . S
C2397 C2392 1.425 . S
C2397 C2394 1.409 . S
C2397 C2395 1.415 . S
C2398 H2388 0.930 . S
C2398 C2396 1.419 . S
C2398 C2399 1.362 . S
C2399 H2389 0.930 . S
C2399 C2392 1.409 . S
C2399 C2398 1.362 . S
H2400 C2406 0.930 . S
H2401 C2409 0.930 . S
H2402 C2410 0.930 . S
H2403 C2411 0.930 . S
H2404 C2414 0.930 . S
H2405 C2415 0.930 1_545 S
C2406 H2400 0.930 . S
C2406 C2407 1.355 . S
C2406 C2408 1.415 . S
C2407 C2406 1.355 . S
C2407 C2409 1.419 . S
C2408 C2406 1.415 . S
C2408 C2413 1.425 . S
C2408 C2415 1.409 . S
C2409 H2401 0.930 . S
C2409 C2407 1.419 . S
C2409 C2410 1.362 . S
C2410 H2402 0.930 . S
C2410 C2409 1.362 . S
C2410 C2413 1.409 . S
C2411 H2403 0.930 . S
C2411 C2412 1.335 1_565 S
C2411 C2413 1.415 . S
C2412 C2411 1.335 1_545 S
C2412 C2414 1.433 . S
C2413 C2408 1.425 . S
C2413 C2410 1.409 . S
C2413 C2411 1.415 . S
C2414 H2404 0.930 . S
C2414 C2412 1.433 . S
C2414 C2415 1.362 1_545 S
C2415 H2405 0.930 1_565 S
C2415 C2408 1.409 . S
C2415 C2414 1.362 1_565 S
H2416 C2422 0.930 . S
H2417 C2425 0.930 . S
H2418 C2426 0.930 . S
H2419 C2427 0.930 . S
H2420 C2430 0.930 . S
H2421 C2431 0.930 . S
C2422 H2416 0.930 . S
C2422 C2423 1.355 . S
C2422 C2424 1.415 . S
C2423 C2422 1.355 . S
C2423 C2425 1.419 . S
C2424 C2422 1.415 . S
C2424 C2429 1.425 . S
C2424 C2431 1.409 . S
C2425 H2417 0.930 . S
C2425 C2423 1.419 . S
C2425 C2426 1.362 . S
C2426 H2418 0.930 . S
C2426 C2425 1.362 . S
C2426 C2429 1.409 . S
C2427 H2419 0.930 . S
C2427 C2428 1.355 . S
C2427 C2429 1.415 . S
C2428 C2427 1.355 . S
C2428 C2430 1.419 . S
C2429 C2424 1.425 . S
C2429 C2426 1.409 . S
C2429 C2427 1.415 . S
C2430 H2420 0.930 . S
C2430 C2428 1.419 . S
C2430 C2431 1.362 . S
C2431 H2421 0.930 . S
C2431 C2424 1.409 . S
C2431 C2430 1.362 . S
H2432 C2438 0.930 . S
H2433 C2441 0.930 . S
H2434 C2442 0.930 . S
H2435 C2443 0.930 . S
H2436 C2446 0.930 . S
H2437 C2447 0.930 . S
C2438 H2432 0.930 . S
C2438 C2439 1.355 . S
C2438 C2440 1.415 . S
C2439 C2438 1.355 . S
C2439 C2441 1.419 . S
C2440 C2438 1.415 . S
C2440 C2445 1.425 . S
C2440 C2447 1.409 . S
C2441 H2433 0.930 . S
C2441 C2439 1.419 . S
C2441 C2442 1.362 . S
C2442 H2434 0.930 . S
C2442 C2441 1.362 . S
C2442 C2445 1.409 . S
C2443 H2435 0.930 . S
C2443 C2444 1.355 . S
C2443 C2445 1.415 . S
C2444 C2443 1.355 . S
C2444 C2446 1.419 . S
C2445 C2440 1.425 . S
C2445 C2442 1.409 . S
C2445 C2443 1.415 . S
C2446 H2436 0.930 . S
C2446 C2444 1.419 . S
C2446 C2447 1.362 . S
C2447 H2437 0.930 . S
C2447 C2440 1.409 . S
C2447 C2446 1.362 . S
H2448 C2454 0.930 . S
H2449 C2457 0.930 . S
H2450 C2458 0.930 . S
H2451 C2459 0.930 . S
H2452 C2462 0.930 . S
H2453 C2463 0.930 . S
C2454 H2448 0.930 . S
C2454 C2455 1.355 . S
C2454 C2456 1.415 . S
C2455 C2454 1.355 . S
C2455 C2457 1.419 . S
C2456 C2454 1.415 . S
C2456 C2461 1.425 . S
C2456 C2463 1.409 . S
C2457 H2449 0.930 . S
C2457 C2455 1.419 . S
C2457 C2458 1.362 . S
C2458 H2450 0.930 . S
C2458 C2457 1.362 . S
C2458 C2461 1.409 . S
C2459 H2451 0.930 . S
C2459 C2460 1.355 . S
C2459 C2461 1.415 . S
C2460 C2459 1.355 . S
C2460 C2462 1.419 . S
C2461 C2456 1.425 . S
C2461 C2458 1.409 . S
C2461 C2459 1.415 . S
C2462 H2452 0.930 . S
C2462 C2460 1.419 . S
C2462 C2463 1.362 . S
C2463 H2453 0.930 . S
C2463 C2456 1.409 . S
C2463 C2462 1.362 . S
H2464 C2470 0.930 . S
H2465 C2473 0.930 . S
H2466 C2474 0.930 . S
H2467 C2475 0.930 . S
H2468 C2478 0.930 . S
H2469 C2479 0.930 . S
C2470 H2464 0.930 . S
C2470 C2471 1.355 . S
C2470 C2472 1.415 . S
C2471 C2470 1.355 . S
C2471 C2473 1.419 . S
C2472 C2470 1.415 . S
C2472 C2477 1.425 . S
C2472 C2479 1.409 . S
C2473 H2465 0.930 . S
C2473 C2471 1.419 . S
C2473 C2474 1.362 . S
C2474 H2466 0.930 . S
C2474 C2473 1.362 . S
C2474 C2477 1.409 . S
C2475 H2467 0.930 . S
C2475 C2476 1.355 . S
C2475 C2477 1.415 . S
C2476 C2475 1.355 . S
C2476 C2478 1.419 . S
C2477 C2472 1.425 . S
C2477 C2474 1.409 . S
C2477 C2475 1.415 . S
C2478 H2468 0.930 . S
C2478 C2476 1.419 . S
C2478 C2479 1.362 . S
C2479 H2469 0.930 . S
C2479 C2472 1.409 . S
C2479 C2478 1.362 . S
H2480 C2486 0.930 . S
H2481 C2489 0.930 . S
H2482 C2490 0.930 . S
H2483 C2491 0.930 . S
H2484 C2494 0.930 . S
H2485 C2495 0.930 . S
C2486 H2480 0.930 . S
C2486 C2487 1.355 . S
C2486 C2488 1.415 . S
C2487 C2486 1.355 . S
C2487 C2489 1.419 . S
C2488 C2486 1.415 . S
C2488 C2493 1.425 . S
C2488 C2495 1.409 . S
C2489 H2481 0.930 . S
C2489 C2487 1.419 . S
C2489 C2490 1.362 . S
C2490 H2482 0.930 . S
C2490 C2489 1.362 . S
C2490 C2493 1.409 . S
C2491 H2483 0.930 . S
C2491 C2492 1.355 . S
C2491 C2493 1.415 . S
C2492 C2491 1.355 . S
C2492 C2494 1.419 . S
C2493 C2488 1.425 . S
C2493 C2490 1.409 . S
C2493 C2491 1.415 . S
C2494 H2484 0.930 . S
C2494 C2492 1.419 . S
C2494 C2495 1.362 . S
C2495 H2485 0.930 . S
C2495 C2488 1.409 . S
C2495 C2494 1.362 . S
H2496 C2502 0.930 . S
H2497 C2505 0.930 . S
H2498 C2506 0.930 . S
H2499 C2507 0.930 . S
H2500 C2510 0.930 . S
H2501 C2511 0.930 . S
C2502 H2496 0.930 . S
C2502 C2503 1.355 . S
C2502 C2504 1.415 . S
C2503 C2502 1.355 . S
C2503 C2505 1.419 . S
C2504 C2502 1.415 . S
C2504 C2509 1.425 . S
C2504 C2511 1.409 . S
C2505 H2497 0.930 . S
C2505 C2503 1.419 . S
C2505 C2506 1.362 . S
C2506 H2498 0.930 . S
C2506 C2505 1.362 . S
C2506 C2509 1.409 . S
C2507 H2499 0.930 . S
C2507 C2508 1.355 . S
C2507 C2509 1.415 . S
C2508 C2507 1.355 . S
C2508 C2510 1.419 . S
C2509 C2504 1.425 . S
C2509 C2506 1.409 . S
C2509 C2507 1.415 . S
C2510 H2500 0.930 . S
C2510 C2508 1.419 . S
C2510 C2511 1.362 . S
C2511 H2501 0.930 . S
C2511 C2504 1.409 . S
C2511 C2510 1.362 . S
C983 C105 2.326 . S
C988 C367 2.269 . S
C999 C65 1.904 . S
C1004 C378 1.896 . S
C1015 C73 1.784 . S
C1020 C447 1.711 . S
C1036 C460 1.178 . S
C1031 C92 1.199 . S
C1047 C17 2.593 . S
C1052 C516 2.530 . S
C1068 C567 2.220 . S
C1063 C37 2.220 . S
C1084 C596 2.400 . S
C1079 C49 2.351 . S
C1095 C8 2.524 . S
C1100 C647 2.444 . S
C1116 C338 1.405 . S
C1111 C231 1.319 . S
C1127 C241 1.056 . S
C1132 C380 0.990 . S
C1148 C418 1.096 . S
C1143 C273 0.999 . S
C1164 C487 1.750 . S
C1159 C171 1.710 . S
C1175 C227 0.694 . S
C1180 C521 0.654 1_655 S
C1196 C538 1.486 . S
C1191 C245 1.416 . S
C1212 C601 0.434 . S
C1207 C269 0.477 . S
C1228 C618 2.094 . S
C1223 C175 2.145 . S
C1244 C340 1.793 . S
C1239 C162 1.942 1_554 S
C1255 C289 1.676 . S
C1260 C679 1.621 . S
C1276 C700 1.714 . S
C1271 C330 1.811 . S
C1292 C759 0.443 . S
C1287 C317 0.491 . S
C1303 C120 1.214 . S
C1308 C620 1.191 . S
C1319 C134 1.464 . S
C1324 C420 1.406 . S
C1335 C331 1.012 . S
C1340 C778 1.051 . S
C1356 C847 1.015 . S
C1351 C303 1.003 . S
C1372 C356 2.290 . S
C1367 C59 2.302 . S
C1388 C839 1.940 . S
C1383 C107 1.923 . S
C1399 C91 1.787 . S
C1404 C436 1.800 . S
C1415 C78 1.238 . S
C1420 C801 1.215 . S
C1436 C527 2.605 . S
C1431 C7 2.577 . S
C1447 C51 2.230 . S
C1452 C716 2.229 . S
C1468 C607 2.451 1_556 S
C1463 C31 2.461 . S
C1484 C876 2.454 . S
C1479 C22 2.523 1_655 S
C1500 C359 1.420 . S
C1495 C143 1.428 . S
C1516 C841 1.080 . S
C1511 C315 1.093 . S
C1527 C115 1.109 . S
C1532 C439 1.120 . S
C1543 C287 1.746 . S
C1548 C796 1.803 . S
C1559 C147 0.670 . S
C1564 C500 0.665 . S
C1580 C719 1.478 . S
C1575 C311 1.497 . S
C1591 C119 0.599 . S
C1596 C580 0.573 . S
C1607 C283 2.177 . S
C1612 C879 2.155 . S
C1623 C190 1.896 . S
C1628 C361 1.793 . S
C1639 C177 1.685 . S
C1644 C658 1.642 . S
C1655 C260 1.669 . S
C1660 C561 1.611 . S
C1671 C247 0.548 . S
C1676 C738 0.486 . S
C1692 C881 1.193 . S
C1687 C274 1.197 1_565 S
C1703 C218 1.497 . S
C1708 C441 1.481 . S
C1724 C479 1.081 . S
C1719 C261 1.015 . S
C1740 C396 0.913 . S
C1735 C205 0.986 . S
C1751 C77 2.300 . S
C1756 C927 2.244 . S
C1772 C818 1.894 . S
C1767 C93 1.901 . S
C1783 C101 1.772 . S
C1788 C967 1.755 . S
C1799 C64 1.213 . S
C1804 C780 1.213 . S
C1815 C45 2.582 . S
C1820 C676 2.559 . S
C1836 C727 2.176 . S
C1831 C9 2.220 . S
C1852 C756 2.389 . S
C1847 C21 2.338 . S
C1868 C887 2.442 . S
C1863 C36 2.527 . S
C1884 C898 1.421 . S
C1879 C259 1.323 . S
C1895 C185 1.083 . S
C1900 C820 1.077 . S
C1916 C938 1.096 . S
C1911 C203 0.997 . S
C1932 C807 1.737 . S
C1927 C213 1.742 . S
C1948 C681 0.740 . S
C1943 C255 0.693 . S
C1959 C189 1.449 . S
C1964 C698 1.455 . S
C1980 C761 0.464 . S
C1975 C199 0.484 . S
C1991 C217 2.136 . S
C1996 C858 2.110 . S
C2012 C900 1.864 . S
C2007 C316 1.996 . S
C2023 C135 1.682 . S
C2028 C519 1.649 . S
C2044 C540 1.694 . S
C2039 C148 1.791 . S
C2060 C599 0.453 . S
C2055 C163 0.470 . S
C2076 C860 1.205 . S
C2071 C302 1.243 . S
C2087 C288 1.504 . S
C2092 C940 1.451 . S
C2108 C458 1.026 . S
C2103 C149 0.983 . S
C2124 C407 0.949 . S
C2119 C121 0.976 . S
C2135 C87 2.294 . S
C2140 C916 2.253 . S
C2156 C399 1.945 . S
C2151 C79 1.910 . S
C2167 C63 1.779 . S
C2172 C956 1.792 . S
C2183 C106 1.208 . S
C2188 C481 1.188 . S
C2199 C35 2.563 . S
C2204 C687 2.582 1_556 S
C2220 C556 2.198 . S
C2215 C23 2.260 . S
C2231 C3 2.466 . S
C2236 C767 2.435 . S
C2247 C50 2.523 . S
C2252 C636 2.454 . S
C2268 C919 1.388 . S
C2263 C325 1.381 . S
C2279 C161 0.993 . S
C2284 C401 0.979 . S
C2300 C959 1.077 . S
C2295 C297 1.112 . S
C2311 C133 1.757 . S
C2316 C476 1.806 . S
C2327 C329 0.768 . S
C2332 C660 0.767 . S
C2348 C559 1.503 . S
C2343 C157 1.495 . S
C2359 C301 0.605 . S
C2364 C740 0.574 . S
C2380 C639 2.151 . S
C2375 C129 2.174 . S
C2396 C921 1.831 . S
C2391 C246 1.913 . S
C2412 C498 1.643 . S
C2407 C219 1.683 . S
C2423 C232 1.671 . S
C2428 C721 1.613 . S
C2444 C578 0.636 . S
C2439 C191 0.552 . S
C2455 C204 1.101 . S
C2460 C641 1.092 . S
C2471 C176 1.495 . S
C2476 C961 1.476 . S
C2492 C799 1.061 . S
C2487 C233 0.987 . S
C2508 C836 0.912 . S
C2503 C275 0.983 . S
