# Generated by pormake.
# Topology pyr, (3,6)-cn, num edge types: 1
# Building blocks:
#     Node 0, Type 0, BuildingBlock: WUSLED_clean_sbu_0, # of connection points: 3
#     Node 1, Type 0, BuildingBlock: WUSLED_clean_sbu_0, # of connection points: 3
#     Node 2, Type 0, BuildingBlock: WUSLED_clean_sbu_0, # of connection points: 3
#     Node 3, Type 0, BuildingBlock: WUSLED_clean_sbu_0, # of connection points: 3
#     Node 4, Type 0, BuildingBlock: WUSLED_clean_sbu_0, # of connection points: 3
#     Node 5, Type 0, BuildingBlock: WUSLED_clean_sbu_0, # of connection points: 3
#     Node 6, Type 0, BuildingBlock: WUSLED_clean_sbu_0, # of connection points: 3
#     Node 7, Type 0, BuildingBlock: WUSLED_clean_sbu_0, # of connection points: 3
#     Node 8, Type 1, BuildingBlock: GEDQOX_clean_sbu_0, # of connection points: 6
#     Node 9, Type 1, BuildingBlock: GEDQOX_clean_sbu_0, # of connection points: 6
#     Node 10, Type 1, BuildingBlock: GEDQOX_clean_sbu_0, # of connection points: 6
#     Node 11, Type 1, BuildingBlock: GEDQOX_clean_sbu_0, # of connection points: 6
#     Edge 12, Type (0, 1), BuildingBlock: OJICUG_clean_linker_0, # of connection points: 2
#     Edge 13, Type (0, 1), BuildingBlock: OJICUG_clean_linker_0, # of connection points: 2
#     Edge 14, Type (0, 1), BuildingBlock: OJICUG_clean_linker_0, # of connection points: 2
#     Edge 15, Type (0, 1), BuildingBlock: OJICUG_clean_linker_0, # of connection points: 2
#     Edge 16, Type (0, 1), BuildingBlock: OJICUG_clean_linker_0, # of connection points: 2
#     Edge 17, Type (0, 1), BuildingBlock: OJICUG_clean_linker_0, # of connection points: 2
#     Edge 18, Type (0, 1), BuildingBlock: OJICUG_clean_linker_0, # of connection points: 2
#     Edge 19, Type (0, 1), BuildingBlock: OJICUG_clean_linker_0, # of connection points: 2
#     Edge 20, Type (0, 1), BuildingBlock: OJICUG_clean_linker_0, # of connection points: 2
#     Edge 21, Type (0, 1), BuildingBlock: OJICUG_clean_linker_0, # of connection points: 2
#     Edge 22, Type (0, 1), BuildingBlock: OJICUG_clean_linker_0, # of connection points: 2
#     Edge 23, Type (0, 1), BuildingBlock: OJICUG_clean_linker_0, # of connection points: 2
#     Edge 24, Type (0, 1), BuildingBlock: OJICUG_clean_linker_0, # of connection points: 2
#     Edge 25, Type (0, 1), BuildingBlock: OJICUG_clean_linker_0, # of connection points: 2
#     Edge 26, Type (0, 1), BuildingBlock: OJICUG_clean_linker_0, # of connection points: 2
#     Edge 27, Type (0, 1), BuildingBlock: OJICUG_clean_linker_0, # of connection points: 2
#     Edge 28, Type (0, 1), BuildingBlock: OJICUG_clean_linker_0, # of connection points: 2
#     Edge 29, Type (0, 1), BuildingBlock: OJICUG_clean_linker_0, # of connection points: 2
#     Edge 30, Type (0, 1), BuildingBlock: OJICUG_clean_linker_0, # of connection points: 2
#     Edge 31, Type (0, 1), BuildingBlock: OJICUG_clean_linker_0, # of connection points: 2
#     Edge 32, Type (0, 1), BuildingBlock: OJICUG_clean_linker_0, # of connection points: 2
#     Edge 33, Type (0, 1), BuildingBlock: OJICUG_clean_linker_0, # of connection points: 2
#     Edge 34, Type (0, 1), BuildingBlock: OJICUG_clean_linker_0, # of connection points: 2
#     Edge 35, Type (0, 1), BuildingBlock: OJICUG_clean_linker_0, # of connection points: 2
# Relax obj value: 0.122
# Max RMSD: 0.159
# Mean RMSD: 0.063
data_MOF--net-pyr--node1-WUSLED_clean_sbu_0--node2-GEDQOX_clean_sbu_0--edge1-OJICUG_clean_linker_0
_symmetry_space_group_name_H-M    P1
_symmetry_Int_Tables_number       1
_symmetry_cell_setting            triclinic
loop_
_symmetry_equiv_pos_as_xyz
'x, y, z'
_cell_length_a     41.031748
_cell_length_b     40.982907
_cell_length_c     36.566125
_cell_angle_alpha  87.846944
_cell_angle_beta   92.053534
_cell_angle_gamma 86.155609
loop_
_atom_site_label
_atom_site_type_symbol
_atom_site_fract_x
_atom_site_fract_y
_atom_site_fract_z
_atom_type_partial_charge
C0 C 0.16097 0.27617 0.12334 0.0
C1 C 0.13665 0.29299 0.14296 0.0
C2 C 0.12935 0.33831 0.09564 0.0
C3 C 0.12101 0.32317 0.12933 0.0
C4 C 0.15384 0.32104 0.07615 0.0
C5 C 0.16907 0.29064 0.08958 0.0
U6 U 0.20597 0.18834 0.16759 0.0
O7 O 0.23163 0.15616 0.12785 0.0
O8 O 0.26044 0.18313 0.16698 0.0
C9 C 0.26089 0.16339 0.13943 0.0
C10 C 0.17833 0.24419 0.1379 0.0
C11 C 0.29248 0.14697 0.12611 0.0
C12 C 0.33574 0.14283 0.08061 0.0
C13 C 0.30583 0.15735 0.09292 0.0
C14 C 0.33955 0.10619 0.13371 0.0
C15 C 0.35372 0.11688 0.10076 0.0
C16 C 0.3099 0.12103 0.14617 0.0
C17 C 0.16242 0.1442 0.25688 0.0
C18 C 0.14952 0.09671 0.29613 0.0
C19 C 0.12919 0.15061 0.31159 0.0
C20 C 0.14433 0.1641 0.28063 0.0
C21 C 0.1314 0.11642 0.32053 0.0
C22 C 0.16456 0.11027 0.26522 0.0
C23 C 0.17929 0.15836 0.22398 0.0
O24 O 0.1997 0.24281 0.16565 0.0
O25 O 0.17115 0.21534 0.12664 0.0
O26 O 0.17241 0.15179 0.18972 0.0
O27 O 0.20024 0.18106 0.22751 0.0
H28 H 0.12953 0.2827 0.16895 0.0
H29 H 0.10204 0.3343 0.14546 0.0
H30 H 0.16198 0.33112 0.05059 0.0
H31 H 0.18774 0.2786 0.07364 0.0
H32 H 0.34492 0.15264 0.05543 0.0
H33 H 0.29328 0.17721 0.0765 0.0
H34 H 0.35107 0.08593 0.15024 0.0
H35 H 0.3005 0.11199 0.17164 0.0
H36 H 0.15207 0.07043 0.30028 0.0
H37 H 0.11618 0.16755 0.32872 0.0
H38 H 0.14184 0.19034 0.27527 0.0
H39 H 0.17823 0.09397 0.24781 0.0
C40 C 0.29276 0.78466 0.75652 0.0
C41 C 0.28817 0.81823 0.76237 0.0
C42 C 0.23609 0.82073 0.72747 0.0
C43 C 0.26002 0.83616 0.74794 0.0
C44 C 0.23981 0.78653 0.7245 0.0
C45 C 0.26799 0.76882 0.73852 0.0
U46 U 0.38349 0.76357 0.79454 0.0
O47 O 0.40547 0.71281 0.80289 0.0
O48 O 0.42265 0.74524 0.75979 0.0
C49 C 0.42403 0.71544 0.77448 0.0
C50 C 0.32463 0.76645 0.7632 0.0
C51 C 0.42463 0.68861 0.74821 0.0
C52 C 0.41115 0.66845 0.6879 0.0
C53 C 0.40549 0.69103 0.71536 0.0
C54 C 0.45318 0.6392 0.72679 0.0
C55 C 0.43561 0.64278 0.69305 0.0
C56 C 0.44781 0.66196 0.75402 0.0
C57 C 0.41398 0.83363 0.86386 0.0
C58 C 0.45127 0.85045 0.91247 0.0
C59 C 0.41564 0.89123 0.8789 0.0
C60 C 0.40271 0.8666 0.85802 0.0
C61 C 0.44073 0.8838 0.90601 0.0
C62 C 0.438 0.82576 0.8918 0.0
C63 C 0.40297 0.8082 0.83877 0.0
O64 O 0.34974 0.77947 0.74858 0.0
O65 O 0.33147 0.75217 0.79562 0.0
O66 O 0.39093 0.78099 0.85086 0.0
O67 O 0.40366 0.81175 0.80294 0.0
H68 H 0.30712 0.83086 0.77617 0.0
H69 H 0.25821 0.86239 0.75083 0.0
H70 H 0.2216 0.7735 0.70996 0.0
H71 H 0.27117 0.7429 0.73359 0.0
H72 H 0.39741 0.67182 0.66202 0.0
H73 H 0.38736 0.71129 0.71018 0.0
H74 H 0.47254 0.62 0.73121 0.0
H75 H 0.46302 0.65967 0.77894 0.0
H76 H 0.47063 0.84339 0.93267 0.0
H77 H 0.40605 0.91626 0.8735 0.0
H78 H 0.38407 0.87343 0.83688 0.0
H79 H 0.44746 0.8006 0.89673 0.0
C80 C 0.66025 0.47882 0.79828 0.0
C81 C 0.68305 0.4921 0.77511 0.0
C82 C 0.64033 0.50339 0.72783 0.0
C83 C 0.67311 0.50417 0.73982 0.0
C84 C 0.61723 0.49277 0.75213 0.0
C85 C 0.62715 0.48052 0.78712 0.0
U86 U 0.71713 0.44775 0.88168 0.0
O87 O 0.70268 0.42418 0.93322 0.0
O88 O 0.73309 0.39642 0.89537 0.0
C89 C 0.71596 0.39541 0.92501 0.0
C90 C 0.6706 0.45779 0.83062 0.0
C91 C 0.69492 0.36778 0.9282 0.0
C92 C 0.65316 0.33432 0.90351 0.0
C93 C 0.67148 0.36194 0.90067 0.0
C94 C 0.68114 0.31859 0.96159 0.0
C95 C 0.65797 0.31213 0.93395 0.0
C96 C 0.69936 0.34611 0.95872 0.0
C97 C 0.79584 0.49136 0.90683 0.0
C98 C 0.83395 0.48125 0.95949 0.0
C99 C 0.84814 0.51566 0.90799 0.0
C100 C 0.81831 0.51082 0.8903 0.0
C101 C 0.85636 0.50127 0.94296 0.0
C102 C 0.80379 0.4764 0.94157 0.0
C103 C 0.76472 0.48739 0.88651 0.0
O104 O 0.69702 0.43839 0.82717 0.0
O105 O 0.66871 0.47058 0.86298 0.0
O106 O 0.73764 0.49131 0.90453 0.0
O107 O 0.76473 0.46302 0.86417 0.0
H108 H 0.70874 0.49102 0.7833 0.0
H109 H 0.6912 0.51219 0.72123 0.0
H110 H 0.5919 0.49169 0.74307 0.0
H111 H 0.60928 0.47017 0.80446 0.0
H112 H 0.63526 0.33036 0.88192 0.0
H113 H 0.66765 0.37849 0.87686 0.0
H114 H 0.68591 0.30189 0.98511 0.0
H115 H 0.71742 0.35017 0.98012 0.0
H116 H 0.83953 0.46978 0.98635 0.0
H117 H 0.86501 0.53051 0.89392 0.0
H118 H 0.81279 0.52235 0.86342 0.0
H119 H 0.78676 0.46111 0.95475 0.0
C120 C 0.82985 0.72382 0.3868 0.0
C121 C 0.82865 0.73282 0.42346 0.0
C122 C 0.77481 0.71405 0.42565 0.0
C123 C 0.80114 0.7277 0.44301 0.0
C124 C 0.77523 0.70693 0.38846 0.0
C125 C 0.80292 0.71168 0.36902 0.0
U126 U 0.89339 0.77961 0.38155 0.0
O127 O 0.94451 0.77588 0.36519 0.0
O128 O 0.90882 0.81175 0.33713 0.0
C129 C 0.93726 0.79517 0.33599 0.0
C130 C 0.85699 0.73279 0.36593 0.0
C131 C 0.94114 0.77868 0.30202 0.0
C132 C 0.92253 0.73649 0.26384 0.0
C133 C 0.91888 0.75523 0.29403 0.0
C134 C 0.97062 0.7649 0.24832 0.0
C135 C 0.94894 0.74058 0.24157 0.0
C136 C 0.96663 0.7842 0.27874 0.0
C137 C 0.90237 0.84208 0.44323 0.0
C138 C 0.9482 0.87103 0.42267 0.0
C139 C 0.91222 0.89408 0.46793 0.0
C140 C 0.89311 0.8673 0.46604 0.0
C141 C 0.93988 0.89556 0.44646 0.0
C142 C 0.92965 0.8443 0.42135 0.0
C143 C 0.88292 0.81452 0.4377 0.0
O144 O 0.8518 0.7623 0.35075 0.0
O145 O 0.8857 0.72716 0.38313 0.0
O146 O 0.90017 0.78618 0.44066 0.0
O147 O 0.86434 0.81849 0.40764 0.0
H148 H 0.84904 0.74354 0.43699 0.0
H149 H 0.80099 0.73271 0.47191 0.0
H150 H 0.75503 0.69563 0.3752 0.0
H151 H 0.80342 0.70582 0.34039 0.0
H152 H 0.9062 0.71714 0.25941 0.0
H153 H 0.89944 0.75039 0.31207 0.0
H154 H 0.99156 0.7675 0.2315 0.0
H155 H 0.98396 0.80221 0.2849 0.0
H156 H 0.96958 0.87203 0.40618 0.0
H157 H 0.90581 0.9134 0.48635 0.0
H158 H 0.87157 0.86621 0.4822 0.0
H159 H 0.93673 0.82516 0.40326 0.0
C160 C 0.91621 0.79383 0.91719 0.0
C161 C 0.93619 0.77433 0.89508 0.0
C162 C 0.94866 0.73194 0.94504 0.0
C163 C 0.95207 0.74432 0.90858 0.0
C164 C 0.92815 0.75191 0.96697 0.0
C165 C 0.91248 0.7821 0.9534 0.0
U166 U 0.87035 0.88186 0.87457 0.0
O167 O 0.81596 0.88624 0.87747 0.0
O168 O 0.84555 0.91325 0.9157 0.0
C169 C 0.8161 0.90559 0.90536 0.0
C170 C 0.89924 0.82591 0.90245 0.0
C171 C 0.78479 0.92198 0.91964 0.0
C172 C 0.74239 0.92552 0.96627 0.0
C173 C 0.77188 0.91099 0.95288 0.0
C174 C 0.7379 0.96316 0.91403 0.0
C175 C 0.72433 0.95194 0.9471 0.0
C176 C 0.76723 0.94844 0.90058 0.0
C177 C 0.9132 0.92618 0.78484 0.0
C178 C 0.92056 0.97071 0.73884 0.0
C179 C 0.95428 0.92071 0.73688 0.0
C180 C 0.9383 0.90779 0.76781 0.0
C181 C 0.9459 0.95272 0.72111 0.0
C182 C 0.90486 0.95784 0.76964 0.0
C183 C 0.89472 0.91344 0.81748 0.0
O184 O 0.90607 0.85464 0.91436 0.0
O185 O 0.87739 0.82743 0.87514 0.0
O186 O 0.87383 0.89065 0.81426 0.0
O187 O 0.90323 0.91851 0.85173 0.0
H188 H 0.93977 0.78244 0.86707 0.0
H189 H 0.96688 0.73113 0.88954 0.0
H190 H 0.92391 0.74478 0.99499 0.0
H191 H 0.8971 0.79622 0.97135 0.0
H192 H 0.73349 0.91538 0.99146 0.0
H193 H 0.78451 0.8907 0.96854 0.0
H194 H 0.72608 0.98375 0.89826 0.0
H195 H 0.77624 0.95794 0.87511 0.0
H196 H 0.91216 0.99514 0.72936 0.0
H197 H 0.97323 0.90503 0.72559 0.0
H198 H 0.94568 0.88327 0.77838 0.0
H199 H 0.88567 0.97293 0.7816 0.0
C200 C 0.66021 0.24039 0.18844 0.0
C201 C 0.67443 0.20825 0.19278 0.0
C202 C 0.63584 0.18873 0.1468 0.0
C203 C 0.66248 0.18282 0.17225 0.0
C204 C 0.62229 0.22126 0.14182 0.0
C205 C 0.63428 0.24667 0.16236 0.0
U206 U 0.69342 0.30875 0.25828 0.0
O207 O 0.67401 0.36054 0.25211 0.0
O208 O 0.65625 0.32824 0.29496 0.0
C209 C 0.6558 0.35819 0.28083 0.0
C210 C 0.67052 0.26674 0.21275 0.0
C211 C 0.65598 0.38477 0.30746 0.0
C212 C 0.62569 0.43155 0.33237 0.0
C213 C 0.63063 0.40954 0.30439 0.0
C214 C 0.67286 0.40597 0.36638 0.0
C215 C 0.64616 0.42949 0.36408 0.0
C216 C 0.67782 0.38378 0.33821 0.0
C217 C 0.78479 0.28618 0.29741 0.0
C218 C 0.8293 0.2774 0.34275 0.0
C219 C 0.82883 0.24491 0.28875 0.0
C220 C 0.79936 0.26181 0.27625 0.0
C221 C 0.84371 0.25195 0.32273 0.0
C222 C 0.80041 0.29437 0.33008 0.0
C223 C 0.75245 0.30263 0.28869 0.0
O224 O 0.67007 0.26277 0.24855 0.0
O225 O 0.68435 0.29307 0.20105 0.0
O226 O 0.74607 0.31726 0.25634 0.0
O227 O 0.72721 0.2897 0.30313 0.0
H228 H 0.69458 0.20267 0.21245 0.0
H229 H 0.67406 0.15838 0.17648 0.0
H230 H 0.60164 0.22695 0.12285 0.0
H231 H 0.62257 0.27112 0.15862 0.0
H232 H 0.60453 0.44891 0.33029 0.0
H233 H 0.61332 0.41068 0.28122 0.0
H234 H 0.68862 0.4035 0.39087 0.0
H235 H 0.69755 0.36484 0.34137 0.0
H236 H 0.83921 0.28328 0.36935 0.0
H237 H 0.83945 0.22584 0.27228 0.0
H238 H 0.78764 0.25531 0.25079 0.0
H239 H 0.78945 0.31316 0.34677 0.0
C240 C 0.2765 0.58779 0.15685 0.0
C241 C 0.26385 0.61321 0.13245 0.0
C242 C 0.21726 0.58172 0.11616 0.0
C243 C 0.23439 0.61026 0.11241 0.0
C244 C 0.23072 0.55598 0.13975 0.0
C245 C 0.25991 0.55907 0.15995 0.0
U246 U 0.35262 0.63172 0.18751 0.0
O247 O 0.37078 0.64141 0.24303 0.0
O248 O 0.40142 0.61124 0.20724 0.0
C249 C 0.39882 0.6247 0.23914 0.0
C250 C 0.30587 0.59116 0.18068 0.0
C251 C 0.4136 0.60647 0.27149 0.0
C252 C 0.41201 0.56891 0.32435 0.0
C253 C 0.3975 0.58291 0.29154 0.0
C254 C 0.45875 0.60129 0.3162 0.0
C255 C 0.44269 0.57828 0.33702 0.0
C256 C 0.44434 0.6152 0.28384 0.0
C257 C 0.3772 0.70958 0.13873 0.0
C258 C 0.41995 0.74225 0.16279 0.0
C259 C 0.39455 0.75592 0.10288 0.0
C260 C 0.37484 0.7296 0.10679 0.0
C261 C 0.41725 0.7628 0.13085 0.0
C262 C 0.4001 0.71583 0.16668 0.0
C263 C 0.35525 0.68269 0.14239 0.0
O264 O 0.33427 0.58677 0.16538 0.0
O265 O 0.30443 0.61605 0.20236 0.0
O266 O 0.3374 0.68288 0.17153 0.0
O267 O 0.36812 0.65344 0.13551 0.0
H268 H 0.27639 0.63555 0.12951 0.0
H269 H 0.22481 0.63041 0.09426 0.0
H270 H 0.218 0.53387 0.14368 0.0
H271 H 0.26917 0.53922 0.1787 0.0
H272 H 0.39919 0.55119 0.34001 0.0
H273 H 0.37364 0.576 0.28233 0.0
H274 H 0.48202 0.60955 0.32566 0.0
H275 H 0.45688 0.63365 0.26891 0.0
H276 H 0.43743 0.7465 0.1847 0.0
H277 H 0.39134 0.77138 0.07818 0.0
H278 H 0.35735 0.72512 0.08495 0.0
H279 H 0.40247 0.70045 0.19152 0.0
C280 C 0.13996 0.22728 0.66447 0.0
C281 C 0.15817 0.21894 0.63405 0.0
C282 C 0.13173 0.16839 0.63181 0.0
C283 C 0.15405 0.1895 0.6177 0.0
C284 C 0.11477 0.17621 0.66335 0.0
C285 C 0.11888 0.20573 0.67967 0.0
U286 U 0.18575 0.30046 0.66357 0.0
O287 O 0.17085 0.35211 0.67234 0.0
O288 O 0.20969 0.32592 0.70741 0.0
C289 C 0.18858 0.35142 0.70311 0.0
C290 C 0.14382 0.25841 0.6803 0.0
C291 C 0.1704 0.35651 0.73577 0.0
C292 C 0.14098 0.33031 0.78374 0.0
C293 C 0.15091 0.3316 0.74786 0.0
C294 C 0.16726 0.38071 0.79431 0.0
C295 C 0.15032 0.35413 0.80752 0.0
C296 C 0.17761 0.38169 0.75856 0.0
C297 C 0.25485 0.31171 0.61075 0.0
C298 C 0.27815 0.35997 0.63329 0.0
C299 C 0.30763 0.32574 0.59086 0.0
C300 C 0.28242 0.30444 0.59045 0.0
C301 C 0.30537 0.35348 0.61245 0.0
C302 C 0.25292 0.33954 0.63191 0.0
C303 C 0.22889 0.28976 0.61472 0.0
O304 O 0.17187 0.25959 0.69847 0.0
O305 O 0.13643 0.28361 0.65742 0.0
O306 O 0.19954 0.30352 0.60599 0.0
O307 O 0.23085 0.27431 0.64692 0.0
H308 H 0.17497 0.23552 0.62258 0.0
H309 H 0.16746 0.18366 0.59351 0.0
H310 H 0.09716 0.16027 0.6743 0.0
H311 H 0.10514 0.21205 0.70345 0.0
H312 H 0.12711 0.31028 0.79324 0.0
H313 H 0.1452 0.31201 0.73022 0.0
H314 H 0.17317 0.40032 0.81195 0.0
H315 H 0.19254 0.40101 0.74941 0.0
H316 H 0.27577 0.38157 0.64948 0.0
H317 H 0.32868 0.3208 0.57436 0.0
H318 H 0.28436 0.2827 0.57451 0.0
H319 H 0.2317 0.34555 0.64747 0.0
Nd320 Nd 0.06717 1.00857 0.52369 0.0
Nd321 Nd 1.01509 0.06046 0.51926 0.0
C322 C 0.10603 0.95562 0.53689 0.0
C323 C 0.11819 0.93825 0.57134 0.0
C324 C 0.10754 0.90727 0.58031 0.0
C325 C 0.12083 0.88936 0.61111 0.0
C326 C 0.14519 0.90201 0.6334 0.0
C327 C 0.15413 0.93399 0.62605 0.0
C328 C 0.14076 0.95199 0.59524 0.0
C329 C 0.08412 0.06405 0.55407 0.0
C330 C 1.01078 1.00951 0.5891 0.0
C331 C 0.97648 0.11407 0.50841 0.0
C332 C 0.96215 0.13201 0.47525 0.0
C333 C 0.9765 0.15974 0.46129 0.0
C334 C 0.96249 0.17739 0.43063 0.0
C335 C 0.93343 0.16805 0.41362 0.0
C336 C 0.91976 0.13954 0.42691 0.0
C337 C 0.934 0.12168 0.45726 0.0
C338 C 1.00018 1.00672 0.48293 0.0
C339 C 0.07049 0.05922 0.45343 0.0
O340 O 0.07489 0.95441 0.52816 0.0
O341 O 0.11679 0.98446 0.53037 0.0
O342 O 0.10305 0.04703 0.53362 0.0
O343 O 0.05739 0.05165 0.55936 0.0
O344 O 1.03294 0.99185 0.5711 0.0
O345 O 1.00257 0.03998 0.57711 0.0
O346 O 1.00812 0.11459 0.51431 0.0
O347 O 0.96568 0.08536 0.51565 0.0
O348 O 0.98019 1.02192 0.50392 0.0
O349 O 1.02706 1.01913 0.4818 0.0
O350 O 0.04889 0.07722 0.47184 0.0
O351 O 0.0784 1.0285 0.4651 0.0
H352 H 0.08973 0.89642 0.5628 0.0
H353 H 0.11319 0.86491 0.61656 0.0
H354 H 0.17292 0.9443 0.64271 0.0
H355 H 0.14904 0.97614 0.58956 0.0
H356 H 0.99837 0.16809 0.47436 0.0
H357 H 0.97417 0.19876 0.42076 0.0
H358 H 0.89719 0.1317 0.415 0.0
H359 H 0.92241 0.10022 0.46708 0.0
Nd360 Nd 0.54106 1.01726 0.05606 0.0
Nd361 Nd 0.5394 0.05324 0.99645 0.0
C362 C 0.54264 0.96682 0.10371 0.0
C363 C 0.52384 0.93716 0.10664 0.0
C364 C 0.53262 0.90932 0.08688 0.0
C365 C 0.51519 0.88124 0.09006 0.0
C366 C 0.48853 0.88021 0.11312 0.0
C367 C 0.47929 0.90835 0.13222 0.0
C368 C 0.4968 0.93642 0.12912 0.0
C369 C 0.48536 0.06082 0.05817 0.0
C370 C 0.50388 0.98802 0.98388 0.0
C371 C 0.53844 0.10375 0.94904 0.0
C372 C 0.55658 0.13391 0.94796 0.0
C373 C 0.5475 0.16046 0.96958 0.0
C374 C 0.5646 0.18885 0.96836 0.0
C375 C 0.5912 0.19147 0.94546 0.0
C376 C 0.60078 0.16457 0.92454 0.0
C377 C 0.58362 0.13619 0.92569 0.0
C378 C 0.5943 1.0089 0.99366 0.0
C379 C 0.57603 0.0827 0.06892 0.0
O380 O 0.56245 0.96864 0.07669 0.0
O381 O 0.52689 0.99483 0.10896 0.0
O382 O 0.50765 0.05533 0.08405 0.0
O383 O 0.49404 0.0451 0.03008 0.0
O384 O 0.51863 0.9811 1.01603 0.0
O385 O 0.50503 1.01783 0.96959 0.0
O386 O 0.51716 0.10112 0.97448 0.0
O387 O 0.55535 0.07622 0.94463 0.0
O388 O 0.57158 1.01443 0.96825 0.0
O389 O 0.5863 1.02495 1.02183 0.0
O390 O 0.56115 0.08954 0.03683 0.0
O391 O 0.57523 0.05282 0.08306 0.0
H392 H 0.5532 0.90902 0.06913 0.0
H393 H 0.52321 0.86006 0.07508 0.0
H394 H 0.45844 0.90876 0.14957 0.0
H395 H 0.48917 0.95753 0.14446 0.0
H396 H 0.52699 0.15951 0.98734 0.0
H397 H 0.55637 0.20906 0.98472 0.0
H398 H 0.62161 0.1654 0.90724 0.0
H399 H 0.5915 0.11603 0.90905 0.0
Nd400 Nd 0.52612 0.50356 0.53715 0.0
Nd401 Nd 0.5574 0.56203 0.52787 0.0
C402 C 0.48358 0.45966 0.54012 0.0
C403 C 0.45526 0.45781 0.56266 0.0
C404 C 0.42623 0.47698 0.55345 0.0
C405 C 0.39831 0.47199 0.57252 0.0
C406 C 0.39919 0.44722 0.60006 0.0
C407 C 0.42921 0.43182 0.61281 0.0
C408 C 0.45712 0.43679 0.59381 0.0
C409 C 0.57667 0.50782 0.5869 0.0
C410 C 0.49692 0.56869 0.5798 0.0
C411 C 0.59969 0.60609 0.53117 0.0
C412 C 0.62961 0.61129 0.51336 0.0
C413 C 0.65788 0.61334 0.53533 0.0
C414 C 0.68586 0.62308 0.51965 0.0
C415 C 0.68519 0.63121 0.48213 0.0
C416 C 0.65837 0.62468 0.45944 0.0
C417 C 0.63036 0.61475 0.47514 0.0
C418 C 0.50684 0.55794 0.47789 0.0
C419 C 0.58532 0.4981 0.48254 0.0
O420 O 0.48172 0.4834 0.51503 0.0
O421 O 0.51203 0.45555 0.55762 0.0
O422 O 0.57213 0.48149 0.56926 0.0
O423 O 0.55496 0.53007 0.57804 0.0
O424 O 0.49134 0.53879 0.56977 0.0
O425 O 0.52278 0.58266 0.56889 0.0
O426 O 0.60133 0.58014 0.55321 0.0
O427 O 0.57261 0.61049 0.51096 0.0
O428 O 0.51194 0.58442 0.49502 0.0
O429 O 0.52841 0.53562 0.48685 0.0
O430 O 0.59181 0.5275 0.49369 0.0
O431 O 0.55921 0.48446 0.49363 0.0
H432 H 0.4244 0.49426 0.53019 0.0
H433 H 0.37528 0.48432 0.56269 0.0
H434 H 0.43045 0.4127 0.63421 0.0
H435 H 0.47957 0.42255 0.60205 0.0
H436 H 0.65768 0.60949 0.56481 0.0
H437 H 0.70661 0.62768 0.53744 0.0
H438 H 0.65806 0.63021 0.4302 0.0
H439 H 0.60894 0.61181 0.45768 0.0
Nd440 Nd 1.02521 0.53736 0.05537 0.0
Nd441 Nd 0.05436 0.53457 0.98414 0.0
C442 C 0.98216 0.53952 0.10554 0.0
C443 C 0.9766 0.56772 0.12806 0.0
C444 C 0.9464 0.58598 0.12478 0.0
C445 C 0.94325 0.61715 0.13863 0.0
C446 C 0.9703 0.63 0.15583 0.0
C447 C 1.00044 0.61194 0.15894 0.0
C448 C 1.00354 0.58092 0.14545 0.0
C449 C 0.0849 0.5645 0.06488 0.0
C450 C 1.01521 0.60378 0.99965 0.0
C451 C 0.0899 0.52557 0.92714 0.0
C452 C 0.10487 0.49417 0.91709 0.0
C453 C 0.12314 0.47413 0.94355 0.0
C454 C 0.12779 0.44065 0.93897 0.0
C455 C 0.11378 0.4268 0.90829 0.0
C456 C 0.09741 0.44729 0.88073 0.0
C457 C 0.09321 0.48073 0.885 0.0
C458 C 0.98945 0.5233 0.98277 0.0
C459 C 0.06757 0.46878 0.04228 0.0
O460 O 0.97409 0.54582 0.07091 0.0
O461 O 1.01054 0.52297 0.11091 0.0
O462 O 0.06374 0.56265 0.09008 0.0
O463 O 0.07384 0.55364 0.03556 0.0
O464 O 1.00393 0.58738 0.02792 0.0
O465 O 0.03919 0.5901 0.98104 0.0
O466 O 0.10157 0.53776 0.95708 0.0
O467 O 0.05802 0.52667 0.92528 0.0
O468 O 1.00235 0.54327 0.96016 0.0
O469 O 1.01063 0.51023 1.00581 0.0
O470 O 0.07319 0.48229 1.00958 0.0
O471 O 0.04859 0.48489 0.0648 0.0
H472 H 0.92568 0.57655 0.11043 0.0
H473 H 0.9197 0.63087 0.13667 0.0
H474 H 1.02143 0.6217 0.17243 0.0
H475 H 1.02736 0.56781 0.14778 0.0
H476 H 0.13224 0.48388 0.96878 0.0
H477 H 0.14174 0.42551 0.95969 0.0
H478 H 0.08791 0.43754 0.85567 0.0
H479 H 0.07886 0.49576 0.86445 0.0
C480 C 0.09089 0.11928 0.3739 0.0
C481 C 0.11535 0.10157 0.35465 0.0
H482 H 0.05821 0.12067 0.41885 0.0
C483 C 0.12424 0.06933 0.3689 0.0
H484 H 0.08216 0.14376 0.36473 0.0
C485 C 0.10966 0.05574 0.40012 0.0
C486 C 0.0856 0.07364 0.41924 0.0
H487 H 0.14302 0.0542 0.35651 0.0
H488 H 0.11764 1.03102 0.40951 0.0
C489 C 0.07659 0.10575 0.40538 0.0
C490 C 0.46073 0.9414 0.90884 0.0
C491 C 0.45637 0.91075 0.92637 0.0
H492 H 0.47876 0.98932 0.91259 0.0
C493 C 0.46756 0.90619 0.96328 0.0
H494 H 0.45318 0.94599 0.88034 0.0
C495 C 0.48259 0.93118 0.98176 0.0
C496 C 0.48698 0.96175 0.96412 0.0
H497 H 0.46446 0.88336 0.9782 0.0
H498 H 0.49075 0.92647 1.01008 0.0
C499 C 0.47567 0.96641 0.92736 0.0
C500 C 0.63312 0.48002 0.66707 0.0
C501 C 0.63066 0.50751 0.68879 0.0
H502 H 0.61785 0.45859 0.61734 0.0
C503 C 0.61373 0.53641 0.67495 0.0
H504 H 0.64577 0.45739 0.67767 0.0
C505 C 0.59779 0.53716 0.64047 0.0
C506 C 0.59821 0.50883 0.61983 0.0
H507 H 0.61141 0.55773 0.69156 0.0
H508 H 0.58369 0.55932 0.63087 0.0
C509 C 0.61702 0.48066 0.63277 0.0
C510 C 0.95115 0.71729 0.18 0.0
C511 C 0.9576 0.71422 0.21785 0.0
H512 H 0.95018 0.69181 0.1297 0.0
C513 C 0.96864 0.68412 0.23468 0.0
H514 H 0.94196 0.7405 0.16715 0.0
C515 C 0.9729 0.65692 0.21393 0.0
C516 C 0.96623 0.65957 0.17615 0.0
H517 H 0.97294 0.6815 0.26412 0.0
H518 H 0.98072 0.63357 0.22749 0.0
C519 C 0.95543 0.68973 0.15897 0.0
C520 C 0.40965 0.08478 0.11369 0.0
C521 C 0.38699 0.10166 0.08835 0.0
H522 H 0.4566 0.05914 0.1243 0.0
C523 C 0.39722 0.10393 0.05155 0.0
H524 H 0.40426 0.08234 0.14232 0.0
C525 C 0.42829 0.09024 0.04103 0.0
C526 C 0.45075 0.0739 0.06688 0.0
H527 H 0.38123 0.1162 0.03045 0.0
H528 H 0.43499 0.09311 1.01278 0.0
C529 C 0.44048 0.07145 0.10327 0.0
C530 C 0.19959 0.83017 0.67104 0.0
C531 C 0.20961 0.84035 0.70578 0.0
H532 H 0.17137 0.84149 0.62156 0.0
C533 C 0.19601 0.87041 0.7178 0.0
H534 H 0.21003 0.80782 0.66004 0.0
C535 C 0.17409 0.89026 0.69496 0.0
C536 C 0.16489 0.8801 0.66003 0.0
H537 H 0.20271 0.87891 0.74452 0.0
H538 H 0.16473 0.91372 0.70434 0.0
C539 C 0.17739 0.84962 0.64869 0.0
C540 C 0.90021 0.53886 0.95744 0.0
C541 C 0.8885 0.50748 0.96096 0.0
H542 H 0.94123 0.56811 0.96176 0.0
C543 C 0.90922 0.48204 0.97796 0.0
H544 H 0.8847 0.55927 0.94562 0.0
C545 C 0.94187 0.48738 0.98802 0.0
C546 C 0.95411 0.51811 0.98084 0.0
H547 H 0.9009 0.45763 0.98133 0.0
H548 H 0.95799 0.46706 0.99894 0.0
C549 C 0.9326 0.54399 0.96687 0.0
C550 C 0.71825 0.70519 0.43941 0.0
C551 C 0.75154 0.69841 0.44743 0.0
H552 H 0.67071 0.68815 0.44417 0.0
C553 C 0.76308 0.6704 0.46831 0.0
H554 H 0.70942 0.72669 0.42287 0.0
C555 C 0.74151 0.64772 0.47877 0.0
C556 C 0.70835 0.65349 0.46904 0.0
H557 H 0.78903 0.66479 0.47385 0.0
H558 H 0.75073 0.62543 0.49364 0.0
C559 C 0.69657 0.68278 0.45047 0.0
C560 C 0.11278 0.38222 0.04385 0.0
C561 C 0.1131 0.3717 0.08136 0.0
H562 H 0.09829 0.41971 1.00225 0.0
C563 C 0.09771 0.39393 0.10515 0.0
H564 H 0.12337 0.36641 1.02377 0.0
C565 C 0.08296 0.42465 0.09233 0.0
C566 C 0.08308 0.43517 0.05509 0.0
H567 H 0.09738 0.38815 0.13421 0.0
H568 H 0.07177 0.44048 0.11208 0.0
C569 C 0.09821 0.4132 0.03113 0.0
C570 C 0.63405 0.26351 0.90558 0.0
C571 C 0.63979 0.28183 0.93664 0.0
H572 H 0.61418 0.22097 0.88392 0.0
C573 C 0.62918 0.27025 0.97063 0.0
H574 H 0.64215 0.27144 0.87902 0.0
C575 C 0.6137 0.24092 0.97359 0.0
C576 C 0.6082 0.22247 0.94257 0.0
H577 H 0.6328 0.28389 0.99508 0.0
H578 H 0.6064 0.23255 1.00032 0.0
C579 C 0.61846 0.23424 0.90851 0.0
C580 C 0.96395 0.94607 0.42509 0.0
C581 C 0.96198 0.92099 0.4518 0.0
H582 H 0.97924 0.9944 0.41462 0.0
C583 C 0.9792 0.92137 0.4854 0.0
H584 H 0.95099 0.94544 0.3988 0.0
C585 C 0.99535 0.94871 0.49412 0.0
C586 C 0.99427 0.97536 0.46909 0.0
H587 H 0.97821 0.90154 0.50571 0.0
H588 H 1.00617 0.95015 0.52142 0.0
C589 C 0.98016 0.97358 0.4339 0.0
C590 C 0.44544 0.58907 0.66168 0.0
C591 C 0.44664 0.62335 0.66167 0.0
H592 H 0.45945 0.54459 0.63481 0.0
C593 C 0.4616 0.63924 0.63281 0.0
H594 H 0.43418 0.57626 0.68383 0.0
C595 C 0.47633 0.62132 0.60539 0.0
C596 C 0.47612 0.58696 0.6057 0.0
H597 H 0.46328 0.66553 0.63241 0.0
H598 H 0.48888 0.63442 0.58446 0.0
C599 C 0.45971 0.57101 0.63359 0.0
C600 C 0.98834 0.94964 0.66885 0.0
C601 C 0.96294 0.9672 0.68701 0.0
H602 H 1.02275 0.94821 0.62536 0.0
C603 C 0.95413 0.99917 0.67159 0.0
H604 H 0.99688 0.92518 0.67827 0.0
C605 C 0.96949 1.0125 0.64067 0.0
C606 C 0.99466 0.99488 0.62289 0.0
H607 H 0.93515 1.01469 0.68297 0.0
H608 H 0.9613 0.03696 0.63056 0.0
C609 C 1.00365 0.96304 0.63777 0.0
C610 C 0.6118 0.16486 0.08913 0.0
C611 C 0.62163 0.16108 0.12649 0.0
H612 H 0.59049 0.14351 0.04192 0.0
C613 C 0.617 0.13074 0.14449 0.0
H614 H 0.61524 0.18753 0.07402 0.0
C615 C 0.60268 0.1053 0.12599 0.0
C616 C 0.59255 0.10921 0.08875 0.0
H617 H 0.62377 0.12688 0.1733 0.0
H618 H 0.59905 0.0827 0.14113 0.0
C619 C 0.5976 0.13941 0.07062 0.0
C620 C 0.43944 0.56947 0.40489 0.0
C621 C 0.45747 0.56664 0.37305 0.0
H622 H 0.44143 0.56951 0.46377 0.0
C623 C 0.49114 0.55763 0.37636 0.0
H624 H 0.41348 0.57644 0.40305 0.0
C625 C 0.50686 0.55357 0.41077 0.0
C626 C 0.48924 0.55881 0.44238 0.0
H627 H 0.50556 0.55516 0.35224 0.0
H628 H 0.53307 0.54789 0.41264 0.0
C629 C 0.45536 0.56594 0.43945 0.0
C630 C 0.16378 0.36113 0.87252 0.0
C631 C 0.14072 0.35333 0.84559 0.0
H632 H 0.1723 0.39203 0.91668 0.0
C633 C 0.10736 0.35677 0.85254 0.0
H634 H 0.18971 0.35746 0.86801 0.0
C635 C 0.09726 0.3759 0.8812 0.0
C636 C 0.12075 0.3921 0.9012 0.0
H637 H 0.08919 0.34994 0.83252 0.0
H638 H 0.07149 0.3833 0.8826 0.0
C639 C 0.15371 0.38079 0.90062 0.0
C640 C 0.66765 0.98254 0.93554 0.0
C641 C 0.69148 0.96713 0.96054 0.0
H642 H 0.62016 1.00721 0.92602 0.0
C643 C 0.68287 0.96636 0.99796 0.0
H644 H 0.67193 0.98363 0.90653 0.0
C645 C 0.65219 0.98035 1.00944 0.0
C646 C 0.62855 0.99535 0.98395 0.0
H647 H 0.69992 0.95512 1.01872 0.0
H648 H 0.64678 0.9788 0.03819 0.0
C649 C 0.63722 0.99607 0.94688 0.0
C650 C 0.89398 0.24425 0.36437 0.0
C651 C 0.87179 0.23103 0.33968 0.0
H652 H 0.92963 0.23503 0.40786 0.0
C653 C 0.87401 0.19699 0.33542 0.0
H654 H 0.89389 0.2704 0.36764 0.0
C655 C 0.89587 0.17658 0.35752 0.0
C656 C 0.91549 0.18966 0.38492 0.0
H657 H 0.8575 0.18574 0.31673 0.0
H658 H 0.89622 0.15041 0.35423 0.0
C659 C 0.91511 0.22385 0.38711 0.0
C660 C 0.17638 0.55036 0.08106 0.0
C661 C 0.18442 0.57931 0.0978 0.0
H662 H 0.1386 0.52351 0.05653 0.0
C663 C 0.15984 0.60477 0.09994 0.0
H664 H 0.19474 0.53034 0.07885 0.0
C665 C 0.12757 0.60051 0.08792 0.0
C666 C 0.11948 0.57118 0.07236 0.0
H667 H 0.16517 0.6273 0.11278 0.0
H668 H 0.10878 0.61984 0.09159 0.0
C669 C 0.14433 0.54651 0.06808 0.0
C670 C 0.33438 0.39258 0.57589 0.0
C671 C 0.32892 0.37826 0.61013 0.0
H672 H 0.36017 0.42726 0.54618 0.0
C673 C 0.34291 0.39032 0.64207 0.0
H674 H 0.32289 0.3841 0.55118 0.0
C675 C 0.3637 0.41563 0.63945 0.0
C676 C 0.37031 0.42901 0.60492 0.0
H677 H 0.33823 0.37972 0.66881 0.0
H678 H 0.37591 0.42359 0.66399 0.0
C679 C 0.3548 0.41794 0.57327 0.0
C680 C 0.98824 0.6803 0.93835 0.0
C681 C 0.96614 0.69898 0.95972 0.0
H682 H 1.02041 0.63716 0.93352 0.0
C683 C 0.96125 0.68529 0.99531 0.0
H684 H 0.9938 0.68837 0.91104 0.0
C685 C 0.97717 0.65504 1.00834 0.0
C686 C 0.99904 0.63692 0.98671 0.0
H687 H 0.94489 0.69743 1.01368 0.0
H688 H 0.97224 0.64584 0.0356 0.0
C689 C 1.00419 0.65026 0.9515 0.0
C690 C 0.44312 0.81155 0.15675 0.0
C691 C 0.43708 0.79191 0.12683 0.0
H692 H 0.46418 0.8544 0.17603 0.0
C693 C 0.44882 0.80122 0.09254 0.0
H694 H 0.43428 0.80537 0.18351 0.0
C695 C 0.46535 0.82978 0.08805 0.0
C696 C 0.47091 0.84971 0.11782 0.0
H697 H 0.44514 0.78648 0.06897 0.0
H698 H 0.47329 0.83648 0.06102 0.0
C699 C 0.45983 0.84003 0.15231 0.0
C700 C 0.11435 0.14491 0.57376 0.0
C701 C 0.12271 0.14045 0.61125 0.0
H702 H 0.09453 0.12339 0.52616 0.0
C703 C 0.11853 0.11049 0.62968 0.0
H704 H 0.117 0.16807 0.55924 0.0
C705 C 0.10479 0.08562 0.61107 0.0
C706 C 0.09572 0.0906 0.57404 0.0
H707 H 0.12527 0.10665 0.65851 0.0
H708 H 0.10158 0.06247 0.62536 0.0
C709 C 0.10106 0.11985 0.5551 0.0
C710 C 0.64435 0.47769 0.40614 0.0
C711 C 0.63484 0.44649 0.39704 0.0
H712 H 0.63647 0.51883 0.44083 0.0
C713 C 0.6112 0.4321 0.41768 0.0
H714 H 0.66244 0.48939 0.39035 0.0
C715 C 0.59655 0.44859 0.4461 0.0
C716 C 0.60486 0.4803 0.45483 0.0
H717 H 0.60323 0.40827 0.41102 0.0
H718 H 0.57783 0.43656 0.46056 0.0
C719 C 0.62949 0.49449 0.43496 0.0
loop_
_geom_bond_atom_site_label_1
_geom_bond_atom_site_label_2
_geom_bond_distance
_geom_bond_site_symmetry_2
_ccdc_geom_bond_type
C0 C1 1.264 . S
C0 C5 1.479 . S
C0 C10 1.465 . S
C1 C0 1.264 . S
C1 C3 1.339 . S
C1 H28 0.931 . S
C2 C3 1.395 . S
C2 C4 1.320 . S
C3 C1 1.339 . S
C3 C2 1.395 . S
C3 H29 0.929 . S
C4 C2 1.320 . S
C4 C5 1.405 . S
C4 H30 0.930 . S
C5 C0 1.479 . S
C5 C4 1.405 . S
C5 H31 0.931 . S
U6 O7 2.454 . S
U6 O8 2.458 . S
U6 C9 2.984 . S
U6 C10 2.847 . S
U6 C23 2.882 . S
U6 O24 2.441 . S
U6 O25 2.420 . S
U6 O26 2.455 . S
U6 O27 2.449 . S
O7 U6 2.454 . S
O7 C9 1.353 . S
O8 U6 2.458 . S
O8 C9 1.286 . S
C9 U6 2.984 . S
C9 O7 1.353 . S
C9 O8 1.286 . S
C9 C11 1.363 . S
C10 C0 1.465 . S
C10 U6 2.847 . S
C10 O24 1.249 . S
C10 O25 1.202 . S
C11 C9 1.363 . S
C11 C13 1.408 . S
C11 C16 1.342 . S
C12 C13 1.310 . S
C12 C15 1.461 . S
C12 H32 0.932 . S
C13 C11 1.408 . S
C13 C12 1.310 . S
C13 H33 0.930 . S
C14 C15 1.474 . S
C14 C16 1.285 . S
C14 H34 0.929 . S
C15 C12 1.461 . S
C15 C14 1.474 . S
C16 C11 1.342 . S
C16 C14 1.285 . S
C16 H35 0.930 . S
C17 C20 1.424 . S
C17 C22 1.245 . S
C17 C23 1.428 . S
C18 C21 1.260 . S
C18 C22 1.477 . S
C18 H36 0.932 . S
C19 C20 1.384 . S
C19 C21 1.479 . S
C19 H37 0.929 . S
C20 C17 1.424 . S
C20 C19 1.384 . S
C20 H38 0.928 . S
C21 C18 1.260 . S
C21 C19 1.479 . S
C22 C17 1.245 . S
C22 C18 1.477 . S
C22 H39 0.932 . S
C23 U6 2.882 . S
C23 C17 1.428 . S
C23 O26 1.301 . S
C23 O27 1.282 . S
O24 U6 2.441 . S
O24 C10 1.249 . S
O25 U6 2.420 . S
O25 C10 1.202 . S
O26 U6 2.455 . S
O26 C23 1.301 . S
O27 U6 2.449 . S
O27 C23 1.282 . S
H28 C1 0.931 . S
H29 C3 0.929 . S
H30 C4 0.930 . S
H31 C5 0.931 . S
H32 C12 0.932 . S
H33 C13 0.930 . S
H34 C14 0.929 . S
H35 C16 0.930 . S
H36 C18 0.932 . S
H37 C19 0.929 . S
H38 C20 0.928 . S
H39 C22 0.932 . S
C40 C41 1.264 . S
C40 C45 1.479 . S
C40 C50 1.465 . S
C41 C40 1.264 . S
C41 C43 1.339 . S
C41 H68 0.931 . S
C42 C43 1.395 . S
C42 C44 1.320 . S
C43 C41 1.339 . S
C43 C42 1.395 . S
C43 H69 0.929 . S
C44 C42 1.320 . S
C44 C45 1.405 . S
C44 H70 0.930 . S
C45 C40 1.479 . S
C45 C44 1.405 . S
C45 H71 0.931 . S
U46 O47 2.454 . S
U46 O48 2.458 . S
U46 C49 2.984 . S
U46 C50 2.847 . S
U46 C63 2.882 . S
U46 O64 2.441 . S
U46 O65 2.420 . S
U46 O66 2.455 . S
U46 O67 2.449 . S
O47 U46 2.454 . S
O47 C49 1.353 . S
O48 U46 2.458 . S
O48 C49 1.286 . S
C49 U46 2.984 . S
C49 O47 1.353 . S
C49 O48 1.286 . S
C49 C51 1.363 . S
C50 C40 1.465 . S
C50 U46 2.847 . S
C50 O64 1.249 . S
C50 O65 1.202 . S
C51 C49 1.363 . S
C51 C53 1.408 . S
C51 C56 1.342 . S
C52 C53 1.310 . S
C52 C55 1.461 . S
C52 H72 0.932 . S
C53 C51 1.408 . S
C53 C52 1.310 . S
C53 H73 0.930 . S
C54 C55 1.474 . S
C54 C56 1.285 . S
C54 H74 0.929 . S
C55 C52 1.461 . S
C55 C54 1.474 . S
C56 C51 1.342 . S
C56 C54 1.285 . S
C56 H75 0.930 . S
C57 C60 1.424 . S
C57 C62 1.245 . S
C57 C63 1.428 . S
C58 C61 1.260 . S
C58 C62 1.477 . S
C58 H76 0.932 . S
C59 C60 1.384 . S
C59 C61 1.479 . S
C59 H77 0.929 . S
C60 C57 1.424 . S
C60 C59 1.384 . S
C60 H78 0.928 . S
C61 C58 1.260 . S
C61 C59 1.479 . S
C62 C57 1.245 . S
C62 C58 1.477 . S
C62 H79 0.932 . S
C63 U46 2.882 . S
C63 C57 1.428 . S
C63 O66 1.301 . S
C63 O67 1.282 . S
O64 U46 2.441 . S
O64 C50 1.249 . S
O65 U46 2.420 . S
O65 C50 1.202 . S
O66 U46 2.455 . S
O66 C63 1.301 . S
O67 U46 2.449 . S
O67 C63 1.282 . S
H68 C41 0.931 . S
H69 C43 0.929 . S
H70 C44 0.930 . S
H71 C45 0.931 . S
H72 C52 0.932 . S
H73 C53 0.930 . S
H74 C54 0.929 . S
H75 C56 0.930 . S
H76 C58 0.932 . S
H77 C59 0.929 . S
H78 C60 0.928 . S
H79 C62 0.932 . S
C80 C81 1.264 . S
C80 C85 1.479 . S
C80 C90 1.465 . S
C81 C80 1.264 . S
C81 C83 1.339 . S
C81 H108 0.931 . S
C82 C83 1.395 . S
C82 C84 1.320 . S
C83 C81 1.339 . S
C83 C82 1.395 . S
C83 H109 0.929 . S
C84 C82 1.320 . S
C84 C85 1.405 . S
C84 H110 0.930 . S
C85 C80 1.479 . S
C85 C84 1.405 . S
C85 H111 0.931 . S
U86 O87 2.454 . S
U86 O88 2.458 . S
U86 C89 2.984 . S
U86 C90 2.847 . S
U86 C103 2.882 . S
U86 O104 2.441 . S
U86 O105 2.420 . S
U86 O106 2.455 . S
U86 O107 2.449 . S
O87 U86 2.454 . S
O87 C89 1.353 . S
O88 U86 2.458 . S
O88 C89 1.286 . S
C89 U86 2.984 . S
C89 O87 1.353 . S
C89 O88 1.286 . S
C89 C91 1.363 . S
C90 C80 1.465 . S
C90 U86 2.847 . S
C90 O104 1.249 . S
C90 O105 1.202 . S
C91 C89 1.363 . S
C91 C93 1.408 . S
C91 C96 1.342 . S
C92 C93 1.310 . S
C92 C95 1.461 . S
C92 H112 0.932 . S
C93 C91 1.408 . S
C93 C92 1.310 . S
C93 H113 0.930 . S
C94 C95 1.474 . S
C94 C96 1.285 . S
C94 H114 0.929 . S
C95 C92 1.461 . S
C95 C94 1.474 . S
C96 C91 1.342 . S
C96 C94 1.285 . S
C96 H115 0.930 . S
C97 C100 1.424 . S
C97 C102 1.245 . S
C97 C103 1.428 . S
C98 C101 1.260 . S
C98 C102 1.477 . S
C98 H116 0.932 . S
C99 C100 1.384 . S
C99 C101 1.479 . S
C99 H117 0.929 . S
C100 C97 1.424 . S
C100 C99 1.384 . S
C100 H118 0.928 . S
C101 C98 1.260 . S
C101 C99 1.479 . S
C102 C97 1.245 . S
C102 C98 1.477 . S
C102 H119 0.932 . S
C103 U86 2.882 . S
C103 C97 1.428 . S
C103 O106 1.301 . S
C103 O107 1.282 . S
O104 U86 2.441 . S
O104 C90 1.249 . S
O105 U86 2.420 . S
O105 C90 1.202 . S
O106 U86 2.455 . S
O106 C103 1.301 . S
O107 U86 2.449 . S
O107 C103 1.282 . S
H108 C81 0.931 . S
H109 C83 0.929 . S
H110 C84 0.930 . S
H111 C85 0.931 . S
H112 C92 0.932 . S
H113 C93 0.930 . S
H114 C94 0.929 . S
H115 C96 0.930 . S
H116 C98 0.932 . S
H117 C99 0.929 . S
H118 C100 0.928 . S
H119 C102 0.932 . S
C120 C121 1.264 . S
C120 C125 1.479 . S
C120 C130 1.465 . S
C121 C120 1.264 . S
C121 C123 1.339 . S
C121 H148 0.931 . S
C122 C123 1.395 . S
C122 C124 1.320 . S
C123 C121 1.339 . S
C123 C122 1.395 . S
C123 H149 0.929 . S
C124 C122 1.320 . S
C124 C125 1.405 . S
C124 H150 0.930 . S
C125 C120 1.479 . S
C125 C124 1.405 . S
C125 H151 0.931 . S
U126 O127 2.454 . S
U126 O128 2.458 . S
U126 C129 2.984 . S
U126 C130 2.847 . S
U126 C143 2.882 . S
U126 O144 2.441 . S
U126 O145 2.420 . S
U126 O146 2.455 . S
U126 O147 2.449 . S
O127 U126 2.454 . S
O127 C129 1.353 . S
O128 U126 2.458 . S
O128 C129 1.286 . S
C129 U126 2.984 . S
C129 O127 1.353 . S
C129 O128 1.286 . S
C129 C131 1.363 . S
C130 C120 1.465 . S
C130 U126 2.847 . S
C130 O144 1.249 . S
C130 O145 1.202 . S
C131 C129 1.363 . S
C131 C133 1.408 . S
C131 C136 1.342 . S
C132 C133 1.310 . S
C132 C135 1.461 . S
C132 H152 0.932 . S
C133 C131 1.408 . S
C133 C132 1.310 . S
C133 H153 0.930 . S
C134 C135 1.474 . S
C134 C136 1.285 . S
C134 H154 0.929 . S
C135 C132 1.461 . S
C135 C134 1.474 . S
C136 C131 1.342 . S
C136 C134 1.285 . S
C136 H155 0.930 . S
C137 C140 1.424 . S
C137 C142 1.245 . S
C137 C143 1.428 . S
C138 C141 1.260 . S
C138 C142 1.477 . S
C138 H156 0.932 . S
C139 C140 1.384 . S
C139 C141 1.479 . S
C139 H157 0.929 . S
C140 C137 1.424 . S
C140 C139 1.384 . S
C140 H158 0.928 . S
C141 C138 1.260 . S
C141 C139 1.479 . S
C142 C137 1.245 . S
C142 C138 1.477 . S
C142 H159 0.932 . S
C143 U126 2.882 . S
C143 C137 1.428 . S
C143 O146 1.301 . S
C143 O147 1.282 . S
O144 U126 2.441 . S
O144 C130 1.249 . S
O145 U126 2.420 . S
O145 C130 1.202 . S
O146 U126 2.455 . S
O146 C143 1.301 . S
O147 U126 2.449 . S
O147 C143 1.282 . S
H148 C121 0.931 . S
H149 C123 0.929 . S
H150 C124 0.930 . S
H151 C125 0.931 . S
H152 C132 0.932 . S
H153 C133 0.930 . S
H154 C134 0.929 . S
H155 C136 0.930 . S
H156 C138 0.932 . S
H157 C139 0.929 . S
H158 C140 0.928 . S
H159 C142 0.932 . S
C160 C161 1.264 . S
C160 C165 1.479 . S
C160 C170 1.465 . S
C161 C160 1.264 . S
C161 C163 1.339 . S
C161 H188 0.931 . S
C162 C163 1.395 . S
C162 C164 1.320 . S
C163 C161 1.339 . S
C163 C162 1.395 . S
C163 H189 0.929 . S
C164 C162 1.320 . S
C164 C165 1.405 . S
C164 H190 0.930 . S
C165 C160 1.479 . S
C165 C164 1.405 . S
C165 H191 0.931 . S
U166 O167 2.454 . S
U166 O168 2.458 . S
U166 C169 2.984 . S
U166 C170 2.847 . S
U166 C183 2.882 . S
U166 O184 2.441 . S
U166 O185 2.420 . S
U166 O186 2.455 . S
U166 O187 2.449 . S
O167 U166 2.454 . S
O167 C169 1.353 . S
O168 U166 2.458 . S
O168 C169 1.286 . S
C169 U166 2.984 . S
C169 O167 1.353 . S
C169 O168 1.286 . S
C169 C171 1.363 . S
C170 C160 1.465 . S
C170 U166 2.847 . S
C170 O184 1.249 . S
C170 O185 1.202 . S
C171 C169 1.363 . S
C171 C173 1.408 . S
C171 C176 1.342 . S
C172 C173 1.310 . S
C172 C175 1.461 . S
C172 H192 0.932 . S
C173 C171 1.408 . S
C173 C172 1.310 . S
C173 H193 0.930 . S
C174 C175 1.474 . S
C174 C176 1.285 . S
C174 H194 0.929 . S
C175 C172 1.461 . S
C175 C174 1.474 . S
C176 C171 1.342 . S
C176 C174 1.285 . S
C176 H195 0.930 . S
C177 C180 1.424 . S
C177 C182 1.245 . S
C177 C183 1.428 . S
C178 C181 1.260 . S
C178 C182 1.477 . S
C178 H196 0.932 . S
C179 C180 1.384 . S
C179 C181 1.479 . S
C179 H197 0.929 . S
C180 C177 1.424 . S
C180 C179 1.384 . S
C180 H198 0.928 . S
C181 C178 1.260 . S
C181 C179 1.479 . S
C182 C177 1.245 . S
C182 C178 1.477 . S
C182 H199 0.932 . S
C183 U166 2.882 . S
C183 C177 1.428 . S
C183 O186 1.301 . S
C183 O187 1.282 . S
O184 U166 2.441 . S
O184 C170 1.249 . S
O185 U166 2.420 . S
O185 C170 1.202 . S
O186 U166 2.455 . S
O186 C183 1.301 . S
O187 U166 2.449 . S
O187 C183 1.282 . S
H188 C161 0.931 . S
H189 C163 0.929 . S
H190 C164 0.930 . S
H191 C165 0.931 . S
H192 C172 0.932 . S
H193 C173 0.930 . S
H194 C174 0.929 . S
H195 C176 0.930 . S
H196 C178 0.932 . S
H197 C179 0.929 . S
H198 C180 0.928 . S
H199 C182 0.932 . S
C200 C201 1.264 . S
C200 C205 1.479 . S
C200 C210 1.465 . S
C201 C200 1.264 . S
C201 C203 1.339 . S
C201 H228 0.931 . S
C202 C203 1.395 . S
C202 C204 1.320 . S
C203 C201 1.339 . S
C203 C202 1.395 . S
C203 H229 0.929 . S
C204 C202 1.320 . S
C204 C205 1.405 . S
C204 H230 0.930 . S
C205 C200 1.479 . S
C205 C204 1.405 . S
C205 H231 0.931 . S
U206 O207 2.454 . S
U206 O208 2.458 . S
U206 C209 2.984 . S
U206 C210 2.847 . S
U206 C223 2.882 . S
U206 O224 2.441 . S
U206 O225 2.420 . S
U206 O226 2.455 . S
U206 O227 2.449 . S
O207 U206 2.454 . S
O207 C209 1.353 . S
O208 U206 2.458 . S
O208 C209 1.286 . S
C209 U206 2.984 . S
C209 O207 1.353 . S
C209 O208 1.286 . S
C209 C211 1.363 . S
C210 C200 1.465 . S
C210 U206 2.847 . S
C210 O224 1.249 . S
C210 O225 1.202 . S
C211 C209 1.363 . S
C211 C213 1.408 . S
C211 C216 1.342 . S
C212 C213 1.310 . S
C212 C215 1.461 . S
C212 H232 0.932 . S
C213 C211 1.408 . S
C213 C212 1.310 . S
C213 H233 0.930 . S
C214 C215 1.474 . S
C214 C216 1.285 . S
C214 H234 0.929 . S
C215 C212 1.461 . S
C215 C214 1.474 . S
C216 C211 1.342 . S
C216 C214 1.285 . S
C216 H235 0.930 . S
C217 C220 1.424 . S
C217 C222 1.245 . S
C217 C223 1.428 . S
C218 C221 1.260 . S
C218 C222 1.477 . S
C218 H236 0.932 . S
C219 C220 1.384 . S
C219 C221 1.479 . S
C219 H237 0.929 . S
C220 C217 1.424 . S
C220 C219 1.384 . S
C220 H238 0.928 . S
C221 C218 1.260 . S
C221 C219 1.479 . S
C222 C217 1.245 . S
C222 C218 1.477 . S
C222 H239 0.932 . S
C223 U206 2.882 . S
C223 C217 1.428 . S
C223 O226 1.301 . S
C223 O227 1.282 . S
O224 U206 2.441 . S
O224 C210 1.249 . S
O225 U206 2.420 . S
O225 C210 1.202 . S
O226 U206 2.455 . S
O226 C223 1.301 . S
O227 U206 2.449 . S
O227 C223 1.282 . S
H228 C201 0.931 . S
H229 C203 0.929 . S
H230 C204 0.930 . S
H231 C205 0.931 . S
H232 C212 0.932 . S
H233 C213 0.930 . S
H234 C214 0.929 . S
H235 C216 0.930 . S
H236 C218 0.932 . S
H237 C219 0.929 . S
H238 C220 0.928 . S
H239 C222 0.932 . S
C240 C241 1.264 . S
C240 C245 1.479 . S
C240 C250 1.465 . S
C241 C240 1.264 . S
C241 C243 1.339 . S
C241 H268 0.931 . S
C242 C243 1.395 . S
C242 C244 1.320 . S
C243 C241 1.339 . S
C243 C242 1.395 . S
C243 H269 0.929 . S
C244 C242 1.320 . S
C244 C245 1.405 . S
C244 H270 0.930 . S
C245 C240 1.479 . S
C245 C244 1.405 . S
C245 H271 0.931 . S
U246 O247 2.454 . S
U246 O248 2.458 . S
U246 C249 2.984 . S
U246 C250 2.847 . S
U246 C263 2.882 . S
U246 O264 2.441 . S
U246 O265 2.420 . S
U246 O266 2.455 . S
U246 O267 2.449 . S
O247 U246 2.454 . S
O247 C249 1.353 . S
O248 U246 2.458 . S
O248 C249 1.286 . S
C249 U246 2.984 . S
C249 O247 1.353 . S
C249 O248 1.286 . S
C249 C251 1.363 . S
C250 C240 1.465 . S
C250 U246 2.847 . S
C250 O264 1.249 . S
C250 O265 1.202 . S
C251 C249 1.363 . S
C251 C253 1.408 . S
C251 C256 1.342 . S
C252 C253 1.310 . S
C252 C255 1.461 . S
C252 H272 0.932 . S
C253 C251 1.408 . S
C253 C252 1.310 . S
C253 H273 0.930 . S
C254 C255 1.474 . S
C254 C256 1.285 . S
C254 H274 0.929 . S
C255 C252 1.461 . S
C255 C254 1.474 . S
C256 C251 1.342 . S
C256 C254 1.285 . S
C256 H275 0.930 . S
C257 C260 1.424 . S
C257 C262 1.245 . S
C257 C263 1.428 . S
C258 C261 1.260 . S
C258 C262 1.477 . S
C258 H276 0.932 . S
C259 C260 1.384 . S
C259 C261 1.479 . S
C259 H277 0.929 . S
C260 C257 1.424 . S
C260 C259 1.384 . S
C260 H278 0.928 . S
C261 C258 1.260 . S
C261 C259 1.479 . S
C262 C257 1.245 . S
C262 C258 1.477 . S
C262 H279 0.932 . S
C263 U246 2.882 . S
C263 C257 1.428 . S
C263 O266 1.301 . S
C263 O267 1.282 . S
O264 U246 2.441 . S
O264 C250 1.249 . S
O265 U246 2.420 . S
O265 C250 1.202 . S
O266 U246 2.455 . S
O266 C263 1.301 . S
O267 U246 2.449 . S
O267 C263 1.282 . S
H268 C241 0.931 . S
H269 C243 0.929 . S
H270 C244 0.930 . S
H271 C245 0.931 . S
H272 C252 0.932 . S
H273 C253 0.930 . S
H274 C254 0.929 . S
H275 C256 0.930 . S
H276 C258 0.932 . S
H277 C259 0.929 . S
H278 C260 0.928 . S
H279 C262 0.932 . S
C280 C281 1.264 . S
C280 C285 1.479 . S
C280 C290 1.465 . S
C281 C280 1.264 . S
C281 C283 1.339 . S
C281 H308 0.931 . S
C282 C283 1.395 . S
C282 C284 1.320 . S
C283 C281 1.339 . S
C283 C282 1.395 . S
C283 H309 0.929 . S
C284 C282 1.320 . S
C284 C285 1.405 . S
C284 H310 0.930 . S
C285 C280 1.479 . S
C285 C284 1.405 . S
C285 H311 0.931 . S
U286 O287 2.454 . S
U286 O288 2.458 . S
U286 C289 2.984 . S
U286 C290 2.847 . S
U286 C303 2.882 . S
U286 O304 2.441 . S
U286 O305 2.420 . S
U286 O306 2.455 . S
U286 O307 2.449 . S
O287 U286 2.454 . S
O287 C289 1.353 . S
O288 U286 2.458 . S
O288 C289 1.286 . S
C289 U286 2.984 . S
C289 O287 1.353 . S
C289 O288 1.286 . S
C289 C291 1.363 . S
C290 C280 1.465 . S
C290 U286 2.847 . S
C290 O304 1.249 . S
C290 O305 1.202 . S
C291 C289 1.363 . S
C291 C293 1.408 . S
C291 C296 1.342 . S
C292 C293 1.310 . S
C292 C295 1.461 . S
C292 H312 0.932 . S
C293 C291 1.408 . S
C293 C292 1.310 . S
C293 H313 0.930 . S
C294 C295 1.474 . S
C294 C296 1.285 . S
C294 H314 0.929 . S
C295 C292 1.461 . S
C295 C294 1.474 . S
C296 C291 1.342 . S
C296 C294 1.285 . S
C296 H315 0.930 . S
C297 C300 1.424 . S
C297 C302 1.245 . S
C297 C303 1.428 . S
C298 C301 1.260 . S
C298 C302 1.477 . S
C298 H316 0.932 . S
C299 C300 1.384 . S
C299 C301 1.479 . S
C299 H317 0.929 . S
C300 C297 1.424 . S
C300 C299 1.384 . S
C300 H318 0.928 . S
C301 C298 1.260 . S
C301 C299 1.479 . S
C302 C297 1.245 . S
C302 C298 1.477 . S
C302 H319 0.932 . S
C303 U286 2.882 . S
C303 C297 1.428 . S
C303 O306 1.301 . S
C303 O307 1.282 . S
O304 U286 2.441 . S
O304 C290 1.249 . S
O305 U286 2.420 . S
O305 C290 1.202 . S
O306 U286 2.455 . S
O306 C303 1.301 . S
O307 U286 2.449 . S
O307 C303 1.282 . S
H308 C281 0.931 . S
H309 C283 0.929 . S
H310 C284 0.930 . S
H311 C285 0.931 . S
H312 C292 0.932 . S
H313 C293 0.930 . S
H314 C294 0.929 . S
H315 C296 0.930 . S
H316 C298 0.932 . S
H317 C299 0.929 . S
H318 C300 0.928 . S
H319 C302 0.932 . S
Nd320 C322 2.836 . S
Nd320 O340 2.500 . S
Nd320 O341 2.492 . S
Nd320 O342 2.487 1_565 S
Nd320 O343 2.682 1_565 S
Nd320 O344 2.410 . S
Nd320 O349 2.414 1_455 S
Nd320 O351 2.424 1_565 S
Nd321 C331 2.836 . S
Nd321 O343 2.414 1_655 S
Nd321 O345 2.424 1_545 S
Nd321 O346 2.500 . S
Nd321 O347 2.492 . S
Nd321 O348 2.487 1_545 S
Nd321 O349 2.682 1_545 S
Nd321 O350 2.410 . S
C322 Nd320 2.836 . S
C322 C323 1.498 . S
C322 O340 1.258 . S
C322 O341 1.239 . S
C323 C322 1.498 . S
C323 C324 1.366 . S
C323 C328 1.407 . S
C324 C323 1.366 . S
C324 C325 1.392 . S
C324 H352 0.930 . S
C325 C324 1.392 . S
C325 C326 1.398 . S
C325 H353 0.929 . S
C326 C325 1.398 . S
C326 C327 1.352 . S
C327 C326 1.352 . S
C327 C328 1.384 . S
C327 H354 0.930 . S
C328 C323 1.407 . S
C328 C327 1.384 . S
C328 H355 0.929 . S
C329 O342 1.241 . S
C329 O343 1.273 . S
C330 O344 1.251 1_655 S
C330 O345 1.268 . S
C331 Nd321 2.836 . S
C331 C332 1.498 . S
C331 O346 1.258 . S
C331 O347 1.239 . S
C332 C331 1.498 . S
C332 C333 1.366 . S
C332 C337 1.407 . S
C333 C332 1.366 . S
C333 C334 1.392 . S
C333 H356 0.930 . S
C334 C333 1.392 . S
C334 C335 1.398 . S
C334 H357 0.929 . S
C335 C334 1.398 . S
C335 C336 1.352 . S
C336 C335 1.352 . S
C336 C337 1.384 . S
C336 H358 0.930 . S
C337 C332 1.407 . S
C337 C336 1.384 . S
C337 H359 0.929 . S
C338 O348 1.241 . S
C338 O349 1.273 . S
C339 O350 1.251 1_455 S
C339 O351 1.268 . S
O340 Nd320 2.500 . S
O340 C322 1.258 . S
O341 Nd320 2.492 . S
O341 C322 1.239 . S
O342 Nd320 2.487 1_545 S
O342 C329 1.241 . S
O343 Nd320 2.682 1_545 S
O343 Nd321 2.414 1_455 S
O343 C329 1.273 . S
O344 Nd320 2.410 . S
O344 C330 1.251 1_455 S
O345 Nd321 2.424 1_565 S
O345 C330 1.268 . S
O346 Nd321 2.500 . S
O346 C331 1.258 . S
O347 Nd321 2.492 . S
O347 C331 1.239 . S
O348 Nd321 2.487 1_565 S
O348 C338 1.241 . S
O349 Nd320 2.414 1_655 S
O349 Nd321 2.682 1_565 S
O349 C338 1.273 . S
O350 Nd321 2.410 . S
O350 C339 1.251 1_655 S
O351 Nd320 2.424 1_545 S
O351 C339 1.268 . S
H352 C324 0.930 . S
H353 C325 0.929 . S
H354 C327 0.930 . S
H355 C328 0.929 . S
H356 C333 0.930 . S
H357 C334 0.929 . S
H358 C336 0.930 . S
H359 C337 0.929 . S
Nd360 C362 2.836 . S
Nd360 O380 2.500 . S
Nd360 O381 2.492 . S
Nd360 O382 2.487 1_565 S
Nd360 O383 2.682 1_565 S
Nd360 O384 2.410 1_554 S
Nd360 O389 2.414 1_554 S
Nd360 O391 2.424 1_565 S
Nd361 C371 2.836 . S
Nd361 O383 2.414 1_556 S
Nd361 O385 2.424 1_545 S
Nd361 O386 2.500 . S
Nd361 O387 2.492 . S
Nd361 O388 2.487 1_545 S
Nd361 O389 2.682 1_545 S
Nd361 O390 2.410 1_556 S
C362 Nd360 2.836 . S
C362 C363 1.498 . S
C362 O380 1.258 . S
C362 O381 1.239 . S
C363 C362 1.498 . S
C363 C364 1.366 . S
C363 C368 1.407 . S
C364 C363 1.366 . S
C364 C365 1.392 . S
C364 H392 0.930 . S
C365 C364 1.392 . S
C365 C366 1.398 . S
C365 H393 0.929 . S
C366 C365 1.398 . S
C366 C367 1.352 . S
C367 C366 1.352 . S
C367 C368 1.384 . S
C367 H394 0.930 . S
C368 C363 1.407 . S
C368 C367 1.384 . S
C368 H395 0.929 . S
C369 O382 1.241 . S
C369 O383 1.273 . S
C370 O384 1.251 . S
C370 O385 1.268 . S
C371 Nd361 2.836 . S
C371 C372 1.498 . S
C371 O386 1.258 . S
C371 O387 1.239 . S
C372 C371 1.498 . S
C372 C373 1.366 . S
C372 C377 1.407 . S
C373 C372 1.366 . S
C373 C374 1.392 . S
C373 H396 0.930 . S
C374 C373 1.392 . S
C374 C375 1.398 . S
C374 H397 0.929 . S
C375 C374 1.398 . S
C375 C376 1.352 . S
C376 C375 1.352 . S
C376 C377 1.384 . S
C376 H398 0.930 . S
C377 C372 1.407 . S
C377 C376 1.384 . S
C377 H399 0.929 . S
C378 O388 1.241 . S
C378 O389 1.273 . S
C379 O390 1.251 . S
C379 O391 1.268 . S
O380 Nd360 2.500 . S
O380 C362 1.258 . S
O381 Nd360 2.492 . S
O381 C362 1.239 . S
O382 Nd360 2.487 1_545 S
O382 C369 1.241 . S
O383 Nd360 2.682 1_545 S
O383 Nd361 2.414 1_554 S
O383 C369 1.273 . S
O384 Nd360 2.410 1_556 S
O384 C370 1.251 . S
O385 Nd361 2.424 1_565 S
O385 C370 1.268 . S
O386 Nd361 2.500 . S
O386 C371 1.258 . S
O387 Nd361 2.492 . S
O387 C371 1.239 . S
O388 Nd361 2.487 1_565 S
O388 C378 1.241 . S
O389 Nd360 2.414 1_556 S
O389 Nd361 2.682 1_565 S
O389 C378 1.273 . S
O390 Nd361 2.410 1_554 S
O390 C379 1.251 . S
O391 Nd360 2.424 1_545 S
O391 C379 1.268 . S
H392 C364 0.930 . S
H393 C365 0.929 . S
H394 C367 0.930 . S
H395 C368 0.929 . S
H396 C373 0.930 . S
H397 C374 0.929 . S
H398 C376 0.930 . S
H399 C377 0.929 . S
Nd400 C402 2.836 . S
Nd400 O420 2.500 . S
Nd400 O421 2.492 . S
Nd400 O422 2.487 . S
Nd400 O423 2.682 . S
Nd400 O424 2.410 . S
Nd400 O429 2.414 . S
Nd400 O431 2.424 . S
Nd401 C411 2.836 . S
Nd401 O423 2.414 . S
Nd401 O425 2.424 . S
Nd401 O426 2.500 . S
Nd401 O427 2.492 . S
Nd401 O428 2.487 . S
Nd401 O429 2.682 . S
Nd401 O430 2.410 . S
C402 Nd400 2.836 . S
C402 C403 1.498 . S
C402 O420 1.258 . S
C402 O421 1.239 . S
C403 C402 1.498 . S
C403 C404 1.366 . S
C403 C408 1.407 . S
C404 C403 1.366 . S
C404 C405 1.392 . S
C404 H432 0.930 . S
C405 C404 1.392 . S
C405 C406 1.398 . S
C405 H433 0.929 . S
C406 C405 1.398 . S
C406 C407 1.352 . S
C407 C406 1.352 . S
C407 C408 1.384 . S
C407 H434 0.930 . S
C408 C403 1.407 . S
C408 C407 1.384 . S
C408 H435 0.929 . S
C409 O422 1.241 . S
C409 O423 1.273 . S
C410 O424 1.251 . S
C410 O425 1.268 . S
C411 Nd401 2.836 . S
C411 C412 1.498 . S
C411 O426 1.258 . S
C411 O427 1.239 . S
C412 C411 1.498 . S
C412 C413 1.366 . S
C412 C417 1.407 . S
C413 C412 1.366 . S
C413 C414 1.392 . S
C413 H436 0.930 . S
C414 C413 1.392 . S
C414 C415 1.398 . S
C414 H437 0.929 . S
C415 C414 1.398 . S
C415 C416 1.352 . S
C416 C415 1.352 . S
C416 C417 1.384 . S
C416 H438 0.930 . S
C417 C412 1.407 . S
C417 C416 1.384 . S
C417 H439 0.929 . S
C418 O428 1.241 . S
C418 O429 1.273 . S
C419 O430 1.251 . S
C419 O431 1.268 . S
O420 Nd400 2.500 . S
O420 C402 1.258 . S
O421 Nd400 2.492 . S
O421 C402 1.239 . S
O422 Nd400 2.487 . S
O422 C409 1.241 . S
O423 Nd400 2.682 . S
O423 Nd401 2.414 . S
O423 C409 1.273 . S
O424 Nd400 2.410 . S
O424 C410 1.251 . S
O425 Nd401 2.424 . S
O425 C410 1.268 . S
O426 Nd401 2.500 . S
O426 C411 1.258 . S
O427 Nd401 2.492 . S
O427 C411 1.239 . S
O428 Nd401 2.487 . S
O428 C418 1.241 . S
O429 Nd400 2.414 . S
O429 Nd401 2.682 . S
O429 C418 1.273 . S
O430 Nd401 2.410 . S
O430 C419 1.251 . S
O431 Nd400 2.424 . S
O431 C419 1.268 . S
H432 C404 0.930 . S
H433 C405 0.929 . S
H434 C407 0.930 . S
H435 C408 0.929 . S
H436 C413 0.930 . S
H437 C414 0.929 . S
H438 C416 0.930 . S
H439 C417 0.929 . S
Nd440 C442 2.836 . S
Nd440 O460 2.500 . S
Nd440 O461 2.492 . S
Nd440 O462 2.487 1_655 S
Nd440 O463 2.682 1_655 S
Nd440 O464 2.410 . S
Nd440 O469 2.414 1_554 S
Nd440 O471 2.424 1_655 S
Nd441 C451 2.836 . S
Nd441 O463 2.414 1_556 S
Nd441 O465 2.424 1_455 S
Nd441 O466 2.500 . S
Nd441 O467 2.492 . S
Nd441 O468 2.487 1_455 S
Nd441 O469 2.682 1_455 S
Nd441 O470 2.410 . S
C442 Nd440 2.836 . S
C442 C443 1.498 . S
C442 O460 1.258 . S
C442 O461 1.239 . S
C443 C442 1.498 . S
C443 C444 1.366 . S
C443 C448 1.407 . S
C444 C443 1.366 . S
C444 C445 1.392 . S
C444 H472 0.930 . S
C445 C444 1.392 . S
C445 C446 1.398 . S
C445 H473 0.929 . S
C446 C445 1.398 . S
C446 C447 1.352 . S
C447 C446 1.352 . S
C447 C448 1.384 . S
C447 H474 0.930 . S
C448 C443 1.407 . S
C448 C447 1.384 . S
C448 H475 0.929 . S
C449 O462 1.241 . S
C449 O463 1.273 . S
C450 O464 1.251 1_556 S
C450 O465 1.268 . S
C451 Nd441 2.836 . S
C451 C452 1.498 . S
C451 O466 1.258 . S
C451 O467 1.239 . S
C452 C451 1.498 . S
C452 C453 1.366 . S
C452 C457 1.407 . S
C453 C452 1.366 . S
C453 C454 1.392 . S
C453 H476 0.930 . S
C454 C453 1.392 . S
C454 C455 1.398 . S
C454 H477 0.929 . S
C455 C454 1.398 . S
C455 C456 1.352 . S
C456 C455 1.352 . S
C456 C457 1.384 . S
C456 H478 0.930 . S
C457 C452 1.407 . S
C457 C456 1.384 . S
C457 H479 0.929 . S
C458 O468 1.241 . S
C458 O469 1.273 . S
C459 O470 1.251 1_554 S
C459 O471 1.268 . S
O460 Nd440 2.500 . S
O460 C442 1.258 . S
O461 Nd440 2.492 . S
O461 C442 1.239 . S
O462 Nd440 2.487 1_455 S
O462 C449 1.241 . S
O463 Nd440 2.682 1_455 S
O463 Nd441 2.414 1_554 S
O463 C449 1.273 . S
O464 Nd440 2.410 . S
O464 C450 1.251 1_554 S
O465 Nd441 2.424 1_655 S
O465 C450 1.268 . S
O466 Nd441 2.500 . S
O466 C451 1.258 . S
O467 Nd441 2.492 . S
O467 C451 1.239 . S
O468 Nd441 2.487 1_655 S
O468 C458 1.241 . S
O469 Nd440 2.414 1_556 S
O469 Nd441 2.682 1_655 S
O469 C458 1.273 . S
O470 Nd441 2.410 . S
O470 C459 1.251 1_556 S
O471 Nd440 2.424 1_455 S
O471 C459 1.268 . S
H472 C444 0.930 . S
H473 C445 0.929 . S
H474 C447 0.930 . S
H475 C448 0.929 . S
H476 C453 0.930 . S
H477 C454 0.929 . S
H478 C456 0.930 . S
H479 C457 0.929 . S
C480 C481 1.387 . S
C480 H484 0.950 . S
C480 C489 1.390 . S
C481 C480 1.387 . S
C481 C483 1.387 . S
H482 C489 0.950 . S
C483 C481 1.387 . S
C483 C485 1.390 . S
C483 H487 0.950 . S
H484 C480 0.950 . S
C485 C483 1.390 . S
C485 C486 1.387 . S
C485 H488 0.950 . S
C486 C485 1.387 . S
C486 C489 1.387 . S
H487 C483 0.950 . S
H488 C485 0.950 . S
C489 C480 1.390 . S
C489 H482 0.950 . S
C489 C486 1.387 . S
C490 C491 1.387 . S
C490 H494 0.950 . S
C490 C499 1.390 . S
C491 C490 1.387 . S
C491 C493 1.387 . S
H492 C499 0.950 . S
C493 C491 1.387 . S
C493 C495 1.390 . S
C493 H497 0.950 . S
H494 C490 0.950 . S
C495 C493 1.390 . S
C495 C496 1.387 . S
C495 H498 0.942 1_556 S
C496 C495 1.387 . S
C496 C499 1.387 . S
H497 C493 0.950 . S
H498 C495 0.942 1_554 S
C499 C490 1.390 . S
C499 H492 0.950 . S
C499 C496 1.387 . S
C500 C501 1.387 . S
C500 H504 0.950 . S
C500 C509 1.390 . S
C501 C500 1.387 . S
C501 C503 1.387 . S
H502 C509 0.950 . S
C503 C501 1.387 . S
C503 C505 1.390 . S
C503 H507 0.950 . S
H504 C500 0.950 . S
C505 C503 1.390 . S
C505 C506 1.387 . S
C505 H508 0.950 . S
C506 C505 1.387 . S
C506 C509 1.387 . S
H507 C503 0.950 . S
H508 C505 0.950 . S
C509 C500 1.390 . S
C509 H502 0.950 . S
C509 C506 1.387 . S
C510 C511 1.387 . S
C510 H514 0.950 . S
C510 C519 1.390 . S
C511 C510 1.387 . S
C511 C513 1.387 . S
H512 C519 0.950 . S
C513 C511 1.387 . S
C513 C515 1.390 . S
C513 H517 0.950 . S
H514 C510 0.950 . S
C515 C513 1.390 . S
C515 C516 1.387 . S
C515 H518 0.950 . S
C516 C515 1.387 . S
C516 C519 1.387 . S
H517 C513 0.950 . S
H518 C515 0.950 . S
C519 C510 1.390 . S
C519 H512 0.950 . S
C519 C516 1.387 . S
C520 C521 1.387 . S
C520 H524 0.950 . S
C520 C529 1.390 . S
C521 C520 1.387 . S
C521 C523 1.387 . S
H522 C529 0.950 . S
C523 C521 1.387 . S
C523 C525 1.390 . S
C523 H527 0.950 . S
H524 C520 0.950 . S
C525 C523 1.390 . S
C525 C526 1.387 . S
C525 H528 0.950 1_554 S
C526 C525 1.387 . S
C526 C529 1.387 . S
H527 C523 0.950 . S
H528 C525 0.950 1_556 S
C529 C520 1.390 . S
C529 H522 0.950 . S
C529 C526 1.387 . S
C530 C531 1.387 . S
C530 H534 0.950 . S
C530 C539 1.390 . S
C531 C530 1.387 . S
C531 C533 1.387 . S
H532 C539 0.950 . S
C533 C531 1.387 . S
C533 C535 1.390 . S
C533 H537 0.950 . S
H534 C530 0.950 . S
C535 C533 1.390 . S
C535 C536 1.387 . S
C535 H538 0.950 . S
C536 C535 1.387 . S
C536 C539 1.387 . S
H537 C533 0.950 . S
H538 C535 0.950 . S
C539 C530 1.390 . S
C539 H532 0.950 . S
C539 C536 1.387 . S
C540 C541 1.387 . S
C540 H544 0.950 . S
C540 C549 1.390 . S
C541 C540 1.387 . S
C541 C543 1.387 . S
H542 C549 0.950 . S
C543 C541 1.387 . S
C543 C545 1.390 . S
C543 H547 0.950 . S
H544 C540 0.950 . S
C545 C543 1.390 . S
C545 C546 1.387 . S
C545 H548 0.950 . S
C546 C545 1.387 . S
C546 C549 1.387 . S
H547 C543 0.950 . S
H548 C545 0.950 . S
C549 C540 1.390 . S
C549 H542 0.950 . S
C549 C546 1.387 . S
C550 C551 1.387 . S
C550 H554 0.950 . S
C550 C559 1.390 . S
C551 C550 1.387 . S
C551 C553 1.387 . S
H552 C559 0.950 . S
C553 C551 1.387 . S
C553 C555 1.390 . S
C553 H557 0.950 . S
H554 C550 0.950 . S
C555 C553 1.390 . S
C555 C556 1.387 . S
C555 H558 0.950 . S
C556 C555 1.387 . S
C556 C559 1.387 . S
H557 C553 0.950 . S
H558 C555 0.950 . S
C559 C550 1.390 . S
C559 H552 0.950 . S
C559 C556 1.387 . S
C560 C561 1.387 . S
C560 H564 0.950 1_554 S
C560 C569 1.388 1_554 S
C561 C560 1.387 . S
C561 C563 1.387 . S
H562 C569 0.962 . S
C563 C561 1.387 . S
C563 C565 1.390 . S
C563 H567 0.950 . S
H564 C560 0.950 1_556 S
C565 C563 1.390 . S
C565 C566 1.387 . S
C565 H568 0.950 . S
C566 C565 1.387 . S
C566 C569 1.377 1_554 S
H567 C563 0.950 . S
H568 C565 0.950 . S
C569 C560 1.388 1_556 S
C569 H562 0.962 . S
C569 C566 1.377 1_556 S
C570 C571 1.387 . S
C570 H574 0.950 . S
C570 C579 1.390 . S
C571 C570 1.387 . S
C571 C573 1.387 . S
H572 C579 0.950 . S
C573 C571 1.387 . S
C573 C575 1.390 . S
C573 H577 0.950 . S
H574 C570 0.950 . S
C575 C573 1.390 . S
C575 C576 1.387 . S
C575 H578 0.950 . S
C576 C575 1.387 . S
C576 C579 1.387 . S
H577 C573 0.950 . S
H578 C575 0.950 . S
C579 C570 1.390 . S
C579 H572 0.950 . S
C579 C576 1.387 . S
C580 C581 1.387 . S
C580 H584 0.950 . S
C580 C589 1.390 . S
C581 C580 1.387 . S
C581 C583 1.387 . S
H582 C589 0.950 . S
C583 C581 1.387 . S
C583 C585 1.390 . S
C583 H587 0.950 . S
H584 C580 0.950 . S
C585 C583 1.390 . S
C585 C586 1.387 . S
C585 H588 0.950 . S
C586 C585 1.387 . S
C586 C589 1.387 . S
H587 C583 0.950 . S
H588 C585 0.950 . S
C589 C580 1.390 . S
C589 H582 0.950 . S
C589 C586 1.387 . S
C590 C591 1.387 . S
C590 H594 0.950 . S
C590 C599 1.390 . S
C591 C590 1.387 . S
C591 C593 1.387 . S
H592 C599 0.950 . S
C593 C591 1.387 . S
C593 C595 1.390 . S
C593 H597 0.950 . S
H594 C590 0.950 . S
C595 C593 1.390 . S
C595 C596 1.387 . S
C595 H598 0.950 . S
C596 C595 1.387 . S
C596 C599 1.387 . S
H597 C593 0.950 . S
H598 C595 0.950 . S
C599 C590 1.390 . S
C599 H592 0.950 . S
C599 C596 1.387 . S
C600 C601 1.387 . S
C600 H604 0.950 . S
C600 C609 1.390 . S
C601 C600 1.387 . S
C601 C603 1.387 . S
H602 C609 0.950 . S
C603 C601 1.387 . S
C603 C605 1.390 . S
C603 H607 0.950 . S
H604 C600 0.950 . S
C605 C603 1.390 . S
C605 C606 1.387 . S
C605 H608 0.950 . S
C606 C605 1.387 . S
C606 C609 1.387 . S
H607 C603 0.950 . S
H608 C605 0.950 . S
C609 C600 1.390 . S
C609 H602 0.950 . S
C609 C606 1.387 . S
C610 C611 1.387 . S
C610 H614 0.950 . S
C610 C619 1.390 . S
C611 C610 1.387 . S
C611 C613 1.387 . S
H612 C619 0.950 . S
C613 C611 1.387 . S
C613 C615 1.390 . S
C613 H617 0.950 . S
H614 C610 0.950 . S
C615 C613 1.390 . S
C615 C616 1.387 . S
C615 H618 0.950 . S
C616 C615 1.387 . S
C616 C619 1.387 . S
H617 C613 0.950 . S
H618 C615 0.950 . S
C619 C610 1.390 . S
C619 H612 0.950 . S
C619 C616 1.387 . S
C620 C621 1.387 . S
C620 H624 0.950 . S
C620 C629 1.390 . S
C621 C620 1.387 . S
C621 C623 1.387 . S
H622 C629 0.950 . S
C623 C621 1.387 . S
C623 C625 1.390 . S
C623 H627 0.950 . S
H624 C620 0.950 . S
C625 C623 1.390 . S
C625 C626 1.387 . S
C625 H628 0.950 . S
C626 C625 1.387 . S
C626 C629 1.387 . S
H627 C623 0.950 . S
H628 C625 0.950 . S
C629 C620 1.390 . S
C629 H622 0.950 . S
C629 C626 1.387 . S
C630 C631 1.387 . S
C630 H634 0.950 . S
C630 C639 1.390 . S
C631 C630 1.387 . S
C631 C633 1.387 . S
H632 C639 0.950 . S
C633 C631 1.387 . S
C633 C635 1.390 . S
C633 H637 0.950 . S
H634 C630 0.950 . S
C635 C633 1.390 . S
C635 C636 1.387 . S
C635 H638 0.950 . S
C636 C635 1.387 . S
C636 C639 1.387 . S
H637 C633 0.950 . S
H638 C635 0.950 . S
C639 C630 1.390 . S
C639 H632 0.950 . S
C639 C636 1.387 . S
C640 C641 1.387 . S
C640 H644 0.950 . S
C640 C649 1.390 . S
C641 C640 1.387 . S
C641 C643 1.387 . S
H642 C649 0.950 . S
C643 C641 1.387 . S
C643 C645 1.399 . S
C643 H647 0.950 1_556 S
H644 C640 0.950 . S
C645 C643 1.399 . S
C645 C646 1.407 . S
C645 H648 0.922 1_556 S
C646 C645 1.407 . S
C646 C649 1.387 . S
H647 C643 0.950 1_554 S
H648 C645 0.922 1_554 S
C649 C640 1.390 . S
C649 H642 0.950 . S
C649 C646 1.387 . S
C650 C651 1.387 . S
C650 H654 0.950 . S
C650 C659 1.390 . S
C651 C650 1.387 . S
C651 C653 1.387 . S
H652 C659 0.950 . S
C653 C651 1.387 . S
C653 C655 1.390 . S
C653 H657 0.950 . S
H654 C650 0.950 . S
C655 C653 1.390 . S
C655 C656 1.387 . S
C655 H658 0.950 . S
C656 C655 1.387 . S
C656 C659 1.387 . S
H657 C653 0.950 . S
H658 C655 0.950 . S
C659 C650 1.390 . S
C659 H652 0.950 . S
C659 C656 1.387 . S
C660 C661 1.387 . S
C660 H664 0.950 . S
C660 C669 1.390 . S
C661 C660 1.387 . S
C661 C663 1.387 . S
H662 C669 0.950 . S
C663 C661 1.387 . S
C663 C665 1.390 . S
C663 H667 0.950 . S
H664 C660 0.950 . S
C665 C663 1.390 . S
C665 C666 1.387 . S
C665 H668 0.950 . S
C666 C665 1.387 . S
C666 C669 1.387 . S
H667 C663 0.950 . S
H668 C665 0.950 . S
C669 C660 1.390 . S
C669 H662 0.950 . S
C669 C666 1.387 . S
C670 C671 1.387 . S
C670 H674 0.950 . S
C670 C679 1.390 . S
C671 C670 1.387 . S
C671 C673 1.387 . S
H672 C679 0.950 . S
C673 C671 1.387 . S
C673 C675 1.390 . S
C673 H677 0.950 . S
H674 C670 0.950 . S
C675 C673 1.390 . S
C675 C676 1.387 . S
C675 H678 0.950 . S
C676 C675 1.387 . S
C676 C679 1.387 . S
H677 C673 0.950 . S
H678 C675 0.950 . S
C679 C670 1.390 . S
C679 H672 0.950 . S
C679 C676 1.387 . S
C680 C681 1.387 . S
C680 H684 0.950 . S
C680 C689 1.390 . S
C681 C680 1.387 . S
C681 C683 1.387 . S
H682 C689 0.950 . S
C683 C681 1.387 . S
C683 C685 1.390 1_556 S
C683 H687 0.950 1_556 S
H684 C680 0.950 . S
C685 C683 1.390 1_554 S
C685 C686 1.387 1_554 S
C685 H688 0.950 . S
C686 C685 1.387 1_556 S
C686 C689 1.387 . S
H687 C683 0.950 1_554 S
H688 C685 0.950 . S
C689 C680 1.390 . S
C689 H682 0.950 . S
C689 C686 1.387 . S
C690 C691 1.387 . S
C690 H694 0.950 . S
C690 C699 1.390 . S
C691 C690 1.387 . S
C691 C693 1.387 . S
H692 C699 0.950 . S
C693 C691 1.387 . S
C693 C695 1.390 . S
C693 H697 0.950 . S
H694 C690 0.950 . S
C695 C693 1.390 . S
C695 C696 1.387 . S
C695 H698 0.950 . S
C696 C695 1.387 . S
C696 C699 1.387 . S
H697 C693 0.950 . S
H698 C695 0.950 . S
C699 C690 1.390 . S
C699 H692 0.950 . S
C699 C696 1.387 . S
C700 C701 1.387 . S
C700 H704 0.950 . S
C700 C709 1.390 . S
C701 C700 1.387 . S
C701 C703 1.387 . S
H702 C709 0.950 . S
C703 C701 1.387 . S
C703 C705 1.390 . S
C703 H707 0.950 . S
H704 C700 0.950 . S
C705 C703 1.390 . S
C705 C706 1.387 . S
C705 H708 0.950 . S
C706 C705 1.387 . S
C706 C709 1.387 . S
H707 C703 0.950 . S
H708 C705 0.950 . S
C709 C700 1.390 . S
C709 H702 0.950 . S
C709 C706 1.387 . S
C710 C711 1.387 . S
C710 H714 0.950 . S
C710 C719 1.390 . S
C711 C710 1.387 . S
C711 C713 1.387 . S
H712 C719 0.950 . S
C713 C711 1.387 . S
C713 C715 1.390 . S
C713 H717 0.950 . S
H714 C710 0.950 . S
C715 C713 1.390 . S
C715 C716 1.387 . S
C715 H718 0.950 . S
C716 C715 1.387 . S
C716 C719 1.387 . S
H717 C713 0.950 . S
H718 C715 0.950 . S
C719 C710 1.390 . S
C719 H712 0.950 . S
C719 C716 1.387 . S
C481 C21 2.921 . S
C486 C339 2.893 . S
C491 C61 2.698 . S
C496 C370 2.777 . S
C506 C409 1.517 . S
C501 C82 1.492 . S
C511 C135 0.727 . S
C516 C446 0.726 . S
C526 C369 2.811 . S
C521 C15 2.890 . S
C536 C326 1.572 . S
C531 C42 1.559 . S
C546 C458 1.547 . S
C541 C101 1.600 . S
C556 C415 1.333 . S
C551 C122 1.272 . S
C561 C2 2.358 . S
C566 C459 2.357 . S
C576 C375 1.306 . S
C571 C95 1.303 . S
C581 C141 0.656 . S
C586 C338 0.678 . S
C591 C55 2.605 . S
C596 C410 2.679 . S
C606 C330 2.897 . S
C601 C181 2.893 . S
C611 C202 2.711 . S
C616 C379 2.768 . S
C621 C255 1.473 . S
C626 C418 1.488 . S
C631 C295 0.682 . S
C636 C455 0.680 . S
C641 C175 2.873 . S
C646 C378 2.789 . S
C656 C335 1.587 . S
C651 C221 1.562 . S
C666 C449 1.476 . S
C661 C242 1.495 . S
C676 C406 1.358 . S
C671 C301 1.349 . S
C681 C162 2.278 . S
C686 C450 2.305 . S
C696 C366 1.325 . S
C691 C261 1.309 . S
C706 C329 0.695 . S
C701 C282 0.681 . S
C711 C215 2.634 . S
C716 C419 2.701 . S
