# Generated by pormake.
# Topology scu, (8,4)-cn, num edge types: 1
# Building blocks:
#     Node 0, Type 0, BuildingBlock: TAGTUT_clean_sbu_3, # of connection points: 8
#     Node 1, Type 1, BuildingBlock: NAWXER_clean_sbu_0, # of connection points: 4
#     Node 2, Type 1, BuildingBlock: NAWXER_clean_sbu_0, # of connection points: 4
#     Edge 3, Type (0, 1), BuildingBlock: FUNLAD_clean_linker_1, # of connection points: 2
#     Edge 4, Type (0, 1), BuildingBlock: FUNLAD_clean_linker_1, # of connection points: 2
#     Edge 5, Type (0, 1), BuildingBlock: FUNLAD_clean_linker_1, # of connection points: 2
#     Edge 6, Type (0, 1), BuildingBlock: FUNLAD_clean_linker_1, # of connection points: 2
#     Edge 7, Type (0, 1), BuildingBlock: FUNLAD_clean_linker_1, # of connection points: 2
#     Edge 8, Type (0, 1), BuildingBlock: FUNLAD_clean_linker_1, # of connection points: 2
#     Edge 9, Type (0, 1), BuildingBlock: FUNLAD_clean_linker_1, # of connection points: 2
#     Edge 10, Type (0, 1), BuildingBlock: FUNLAD_clean_linker_1, # of connection points: 2
# Relax obj value: 0.033
# Max RMSD: 0.098
# Mean RMSD: 0.064
data_MOF--net-scu--node1-TAGTUT_clean_sbu_3--node2-NAWXER_clean_sbu_0--edge1-FUNLAD_clean_linker_1
_symmetry_space_group_name_H-M    P1
_symmetry_Int_Tables_number       1
_symmetry_cell_setting            triclinic
loop_
_symmetry_equiv_pos_as_xyz
'x, y, z'
_cell_length_a     28.100137
_cell_length_b     23.421137
_cell_length_c     20.726853
_cell_angle_alpha  90.247687
_cell_angle_beta   91.388023
_cell_angle_gamma 89.808358
loop_
_atom_site_label
_atom_site_type_symbol
_atom_site_fract_x
_atom_site_fract_y
_atom_site_fract_z
_atom_type_partial_charge
C0 C 1.0049 0.90144 0.08241 0.0
C1 C 0.83167 0.99494 0.07337 0.0
C2 C 0.87061 0.04583 0.88499 0.0
Mg3 Mg 0.10131 0.94556 0.01088 0.0
Mg4 Mg 0.11393 0.08334 0.98404 0.0
O5 O 0.07709 0.01763 0.96924 0.0
Mg6 Mg 0.01038 0.01852 0.99987 0.0
O7 O 0.94364 0.01453 0.03012 0.0
Mg8 Mg 0.92079 0.9448 0.98204 0.0
Mg9 Mg 0.90564 0.08009 0.01947 0.0
C10 C 0.02108 0.13771 0.918 0.0
O11 O 0.02341 0.09012 0.07577 0.0
O12 O 0.16915 0.95862 0.94812 0.0
O13 O 0.95437 0.13986 0.06749 0.0
O14 O 0.14002 0.99211 0.09454 0.0
O15 O 0.17317 0.05346 0.93031 0.0
O16 O 0.13805 0.0867 0.08382 0.0
O17 O 0.99168 0.94877 0.92595 0.0
O18 O 0.06061 0.90044 0.92874 0.0
C19 C 0.0179 0.90731 0.90726 0.0
C20 C 0.189 0.00251 0.9229 0.0
O21 O 0.99596 0.09328 0.92986 0.0
O22 O 0.85249 0.95273 0.04537 0.0
O23 O 0.06403 0.14419 0.93956 0.0
O24 O 0.88133 0.99506 0.90228 0.0
O25 O 0.84675 0.04641 0.07005 0.0
O26 O 0.88103 0.08874 0.92056 0.0
O27 O 0.03036 0.9445 0.06728 0.0
O28 O 0.96238 0.89542 0.05961 0.0
C29 C 0.1496 0.04213 0.11581 0.0
C30 C 0.99729 0.13367 0.08932 0.0
C31 C 0.99808 0.57207 0.5922 0.0
C32 C 0.04996 0.42547 0.44051 0.0
O33 O 0.04032 0.55399 0.58457 0.0
Zn34 Zn 0.02587 0.49989 0.51598 0.0
O35 O 0.9639 0.55227 0.5569 0.0
Zn36 Zn 0.95431 0.49172 0.48002 0.0
O37 O 0.91123 0.43729 0.51742 0.0
O38 O 0.98301 0.43783 0.56345 0.0
O39 O 1.00527 0.43654 0.43623 0.0
O40 O 0.07613 0.45267 0.48088 0.0
O41 O 0.00774 0.55462 0.43678 0.0
O42 O 0.93269 0.53868 0.40854 0.0
C43 C 0.94051 0.418 0.55971 0.0
C44 C 0.97136 0.56531 0.40029 0.0
C45 C 0.58198 0.97596 0.57081 0.0
C46 C 0.43901 0.97193 0.43003 0.0
O47 O 0.56016 0.93164 0.55052 0.0
Zn48 Zn 0.51065 0.97066 0.50014 0.0
O49 O 0.5665 0.02553 0.55469 0.0
Zn50 Zn 0.51026 0.06243 0.49766 0.0
O51 O 0.47472 0.10485 0.56129 0.0
O52 O 0.46984 0.01131 0.57265 0.0
O53 O 0.45403 0.02229 0.44348 0.0
O54 O 0.46159 0.92873 0.45197 0.0
O55 O 0.55085 0.00737 0.42528 0.0
O56 O 0.54545 0.10132 0.4314 0.0
C57 C 0.45866 0.06183 0.59093 0.0
C58 C 0.56161 0.05683 0.40405 0.0
H59 H 0.99316 0.21613 0.13931 0.0
C60 C 0.01547 0.17849 0.13345 0.0
H61 H 0.07696 0.135 0.16797 0.0
H62 H 0.07273 0.4119 0.26314 0.0
H63 H 0.08868 0.43392 0.15113 0.0
H64 H 0.09637 0.35685 0.07036 0.0
H65 H 0.08761 0.25726 0.10102 0.0
C66 C 0.05542 0.17348 0.17003 0.0
C67 C 0.06619 0.2175 0.22042 0.0
C68 C 0.07358 0.27506 0.20241 0.0
C69 C 0.07002 0.31934 0.24914 0.0
C70 C 0.07525 0.37669 0.22939 0.0
C71 C 0.08455 0.38983 0.16541 0.0
C72 C 0.08883 0.34644 0.11991 0.0
C73 C 0.08346 0.28961 0.13794 0.0
H74 H 0.10833 0.37199 0.40167 0.0
C75 C 0.07036 0.38082 0.39866 0.0
H76 H 1.00419 0.35967 0.35425 0.0
H77 H 0.06082 0.11081 0.27331 0.0
H78 H 0.04971 0.08876 0.38634 0.0
H79 H 0.04346 0.16577 0.46741 0.0
H80 H 0.04874 0.26542 0.43591 0.0
C81 C 0.04219 0.35107 0.35741 0.0
C82 C 0.06005 0.30576 0.31388 0.0
C83 C 0.05837 0.24792 0.3333 0.0
C84 C 0.0618 0.20357 0.2865 0.0
C85 C 0.05839 0.14615 0.30684 0.0
C86 C 0.05206 0.13292 0.37157 0.0
C87 C 0.04856 0.17629 0.41724 0.0
C88 C 0.05153 0.23323 0.39857 0.0
H89 H 0.77799 0.94051 0.1203 0.0
C90 C 0.78938 0.9842 0.11263 0.0
H91 H 0.77799 0.07148 0.13442 0.0
H92 H 0.56617 0.99069 0.21745 0.0
H93 H 0.55143 0.97161 0.10343 0.0
H94 H 0.61693 0.97472 0.02633 0.0
H95 H 0.69757 0.99668 0.06273 0.0
C96 C 0.7661 0.02779 0.1406 0.0
C97 C 0.72738 0.01926 0.18696 0.0
C98 C 0.68057 0.00624 0.16476 0.0
C99 C 0.64276 0.00479 0.20917 0.0
C100 C 0.5962 0.99215 0.18579 0.0
C101 C 0.58724 0.98125 0.12048 0.0
C102 C 0.62412 0.983 0.07706 0.0
C103 C 0.67028 0.99555 0.09861 0.0
H104 H 0.60904 0.10325 0.33855 0.0
C105 C 0.59554 0.06141 0.35108 0.0
H106 H 0.59851 0.97241 0.33288 0.0
H107 H 0.81355 0.04281 0.24544 0.0
H108 H 0.82891 0.05771 0.35994 0.0
H109 H 0.76383 0.05202 0.4373 0.0
H110 H 0.68292 0.03316 0.40077 0.0
C111 C 0.61252 0.01435 0.32183 0.0
C112 C 0.65189 0.01676 0.27541 0.0
C113 C 0.69908 0.02759 0.29794 0.0
C114 C 0.73675 0.0295 0.25351 0.0
C115 C 0.78354 0.04095 0.27709 0.0
C116 C 0.79291 0.04937 0.34272 0.0
C117 C 0.75625 0.04637 0.38628 0.0
C118 C 0.70986 0.03565 0.36451 0.0
H119 H 0.06 0.86165 0.1469 0.0
C120 C 0.02353 0.85843 0.12864 0.0
H121 H 0.9587 0.81306 0.13044 0.0
H122 H 0.01706 0.57729 0.23505 0.0
H123 H 0.00907 0.55512 0.12081 0.0
H124 H 1.00149 0.63201 0.0402 0.0
H125 H 1.00282 0.73162 0.07325 0.0
C126 C 0.99484 0.81687 0.14982 0.0
C127 C 0.00978 0.77236 0.19703 0.0
C128 C 0.00945 0.71442 0.17691 0.0
C129 C 0.01308 0.67008 0.22338 0.0
C130 C 0.01322 0.61261 0.20184 0.0
C131 C 0.00898 0.5993 0.13638 0.0
C132 C 1.00482 0.6426 0.09099 0.0
C133 C 1.00527 0.69956 0.11066 0.0
H134 H 0.94286 0.61721 0.31926 0.0
C135 C 0.97438 0.60868 0.34916 0.0
H136 H 0.04604 0.63113 0.37003 0.0
H137 H 0.01391 0.87914 0.2524 0.0
H138 H 0.02491 0.90085 0.36602 0.0
H139 H 0.03272 0.82374 0.4463 0.0
H140 H 0.02929 0.72437 0.41325 0.0
C141 C 0.01467 0.63803 0.33933 0.0
C142 C 0.01651 0.68383 0.28996 0.0
C143 C 0.02037 0.74168 0.30983 0.0
C144 C 0.01652 0.78614 0.26337 0.0
C145 C 0.01769 0.84356 0.2851 0.0
C146 C 0.02379 0.85669 0.35039 0.0
C147 C 0.02817 0.81329 0.3956 0.0
C148 C 0.02623 0.7564 0.37591 0.0
H149 H 0.1936 0.09028 0.18734 0.0
C150 C 0.18142 0.0479 0.17337 0.0
H151 H 0.18995 0.95893 0.18777 0.0
H152 H 0.40846 0.02554 0.26134 0.0
H153 H 0.41482 0.03971 0.14595 0.0
H154 H 0.34344 0.03714 0.07433 0.0
H155 H 0.26535 0.02112 0.11758 0.0
C156 C 0.20149 0.00163 0.20143 0.0
C157 C 0.24417 0.00571 0.24504 0.0
C158 C 0.28971 0.0146 0.21862 0.0
C159 C 0.33098 0.01513 0.25971 0.0
C160 C 0.37596 0.02463 0.23227 0.0
C161 C 0.38014 0.03269 0.1661 0.0
C162 C 0.33996 0.0313 0.12579 0.0
C163 C 0.29523 0.02225 0.1514 0.0
H164 H 0.38385 0.92217 0.37594 0.0
C165 C 0.39527 0.9649 0.38966 0.0
H166 H 0.38104 0.05353 0.38279 0.0
H167 H 0.16265 0.98588 0.3104 0.0
H168 H 0.15662 0.96932 0.42558 0.0
H169 H 0.2283 0.96956 0.49673 0.0
H170 H 0.30652 0.98649 0.45331 0.0
C171 C 0.36968 0.0106 0.36987 0.0
C172 C 0.32683 0.00562 0.3268 0.0
C173 C 0.28146 0.9959 0.35306 0.0
C174 C 0.24009 0.9958 0.31205 0.0
C175 C 0.19519 0.98611 0.33944 0.0
C176 C 0.19124 0.97671 0.40543 0.0
C177 C 0.23161 0.97691 0.44551 0.0
C178 C 0.27628 0.98658 0.41996 0.0
H179 H 0.01773 0.87744 0.80762 0.0
C180 C 1.00208 0.87 0.85429 0.0
H181 H 0.96908 0.8108 0.91424 0.0
H182 H 0.97622 0.72193 0.60162 0.0
H183 H 0.92607 0.80329 0.57555 0.0
H184 H 0.89979 0.86929 0.66083 0.0
H185 H 0.92494 0.85503 0.77256 0.0
C186 C 0.98131 0.81976 0.86598 0.0
C187 C 0.98532 0.77205 0.81841 0.0
C188 C 0.96746 0.77845 0.75424 0.0
C189 C 0.98 0.73823 0.70585 0.0
C190 C 0.96555 0.74905 0.64106 0.0
C191 C 0.93706 0.796 0.62527 0.0
C192 C 0.92247 0.83331 0.6732 0.0
C193 C 0.93742 0.82488 0.737 0.0
H194 H 0.94961 0.62366 0.65063 0.0
C195 C 0.98694 0.61546 0.6413 0.0
H196 H 0.05789 0.63771 0.66506 0.0
H197 H 0.02399 0.7448 0.93769 0.0
H198 H 0.06942 0.66018 0.96502 0.0
H199 H 0.08553 0.58659 0.88293 0.0
H200 H 0.05729 0.5981 0.77236 0.0
C201 C 0.02041 0.64608 0.67292 0.0
C202 C 0.00739 0.68916 0.72277 0.0
C203 C 0.02275 0.68096 0.78775 0.0
C204 C 0.01217 0.72265 0.83552 0.0
C205 C 0.02994 0.71431 0.89944 0.0
C206 C 0.05618 0.66576 0.91597 0.0
C207 C 0.06537 0.62441 0.86972 0.0
C208 C 0.049 0.63168 0.80633 0.0
H209 H 0.24458 0.95135 0.87454 0.0
C210 C 0.23104 0.9943 0.88226 0.0
H211 H 0.23744 0.08183 0.85909 0.0
H212 H 0.453 0.00531 0.77919 0.0
H213 H 0.46759 0.99017 0.89383 0.0
H214 H 0.40177 0.99506 0.97038 0.0
H215 H 0.32097 0.01459 0.93279 0.0
C216 C 0.25167 0.03896 0.85336 0.0
C217 C 0.29113 0.03218 0.80757 0.0
C218 C 0.33812 0.02078 0.83052 0.0
C219 C 0.37614 0.0186 0.78648 0.0
C220 C 0.4228 0.00729 0.81057 0.0
C221 C 0.43168 0.99868 0.87625 0.0
C222 C 0.39463 0.00141 0.91934 0.0
C223 C 0.34835 0.01248 0.89707 0.0
H224 H 0.41122 0.11178 0.65398 0.0
C225 C 0.42436 0.06919 0.64316 0.0
H226 H 0.42018 0.981 0.6643 0.0
H227 H 0.20505 0.05425 0.7479 0.0
H228 H 0.19036 0.0686 0.63329 0.0
H229 H 0.25613 0.06362 0.55675 0.0
H230 H 0.3368 0.04419 0.59418 0.0
C231 C 0.40659 0.02364 0.67374 0.0
C232 C 0.36715 0.02855 0.71988 0.0
C233 C 0.32003 0.03922 0.69681 0.0
C234 C 0.28206 0.0415 0.74083 0.0
C235 C 0.2353 0.05233 0.71663 0.0
C236 C 0.22631 0.06043 0.65091 0.0
C237 C 0.26332 0.05758 0.60781 0.0
C238 C 0.30961 0.04678 0.63011 0.0
H239 H 0.02329 0.22047 0.86874 0.0
C240 C 1.00156 0.18269 0.87535 0.0
H241 H 0.93977 0.13854 0.84416 0.0
H242 H 0.93543 0.41405 0.74651 0.0
H243 H 0.92796 0.43837 0.86 0.0
H244 H 0.92717 0.36303 0.94288 0.0
H245 H 0.93435 0.26292 0.9128 0.0
C246 C 0.96062 0.17722 0.84094 0.0
C247 C 0.94716 0.22062 0.79134 0.0
C248 C 0.94094 0.27854 0.80945 0.0
C249 C 0.94051 0.32178 0.76163 0.0
C250 C 0.93607 0.37954 0.7811 0.0
C251 C 0.93153 0.39402 0.84595 0.0
C252 C 0.93113 0.35161 0.89263 0.0
C253 C 0.93566 0.29444 0.87484 0.0
H254 H 0.8904 0.35524 0.60044 0.0
C255 C 0.92621 0.37248 0.60434 0.0
H256 H 0.99263 0.37029 0.65423 0.0
H257 H 0.94854 0.11268 0.73951 0.0
H258 H 0.95098 0.08821 0.62588 0.0
H259 H 0.9511 0.16337 0.54284 0.0
H260 H 0.94827 0.26349 0.57301 0.0
C261 C 0.95722 0.35207 0.64902 0.0
C262 C 0.94515 0.30688 0.69581 0.0
C263 C 0.94581 0.2486 0.67709 0.0
C264 C 0.94633 0.20527 0.72505 0.0
C265 C 0.9483 0.14737 0.70527 0.0
C266 C 0.94973 0.1327 0.64013 0.0
C267 C 0.94971 0.17502 0.59337 0.0
C268 C 0.948 0.23236 0.61135 0.0
H269 H 0.8241 0.09616 0.81878 0.0
C270 C 0.83883 0.05389 0.8278 0.0
H271 H 0.83529 0.96612 0.80452 0.0
H272 H 0.61663 0.96754 0.73813 0.0
H273 H 0.61855 0.92194 0.8426 0.0
H274 H 0.69307 0.91661 0.90763 0.0
H275 H 0.76595 0.95736 0.86868 0.0
C276 C 0.8219 0.00876 0.794 0.0
C277 C 0.77748 0.01248 0.75362 0.0
C278 C 0.73541 0.98651 0.77604 0.0
C279 C 0.69266 0.9884 0.73787 0.0
C280 C 0.6506 0.96527 0.76353 0.0
C281 C 0.65104 0.93942 0.82392 0.0
C282 C 0.69296 0.93649 0.86056 0.0
C283 C 0.73466 0.95988 0.83735 0.0
H284 H 0.63945 0.92875 0.62312 0.0
C285 C 0.62548 0.971 0.61207 0.0
H286 H 0.63438 0.06002 0.62372 0.0
H287 H 0.85167 0.06663 0.69694 0.0
H288 H 0.84909 0.11606 0.59425 0.0
H289 H 0.77526 0.11944 0.52787 0.0
H290 H 0.70366 0.07233 0.5627 0.0
C291 C 0.64776 0.01774 0.63596 0.0
C292 C 0.69238 0.01482 0.67634 0.0
C293 C 0.73422 0.04199 0.6547 0.0
C294 C 0.77683 0.04067 0.69333 0.0
C295 C 0.8182 0.06723 0.67006 0.0
C296 C 0.8173 0.09551 0.61108 0.0
C297 C 0.77571 0.09727 0.57359 0.0
C298 C 0.73472 0.07039 0.59448 0.0
loop_
_geom_bond_atom_site_label_1
_geom_bond_atom_site_label_2
_geom_bond_distance
_geom_bond_site_symmetry_2
_ccdc_geom_bond_type
C0 O27 1.312 1_655 S
C0 O28 1.208 . S
C1 O22 1.331 . S
C1 O25 1.244 1_565 S
C2 O24 1.264 1_545 S
C2 O26 1.273 . S
Mg3 O5 1.936 1_565 S
Mg3 O12 2.081 . S
Mg3 O14 2.023 1_556 S
Mg3 O18 2.031 . S
Mg3 O27 2.291 1_556 S
Mg4 O5 1.963 . S
Mg4 O15 1.942 . S
Mg4 O16 1.955 1_556 S
Mg4 O23 1.986 . S
O5 Mg3 1.936 1_545 S
O5 Mg4 1.963 . S
O5 Mg6 1.915 1_556 S
Mg6 O5 1.915 1_554 S
Mg6 O7 1.915 1_455 S
Mg6 O11 2.013 . S
Mg6 O17 2.114 1_444 S
Mg6 O21 2.013 1_454 S
Mg6 O27 2.114 1_545 S
O7 Mg6 1.915 1_655 S
O7 Mg8 1.936 1_545 S
O7 Mg9 1.963 . S
Mg8 O7 1.936 1_565 S
Mg8 O17 2.291 1_554 S
Mg8 O22 2.081 . S
Mg8 O24 2.023 1_554 S
Mg8 O28 2.031 . S
Mg9 O7 1.963 . S
Mg9 O13 1.986 . S
Mg9 O25 1.942 . S
Mg9 O26 1.955 1_554 S
C10 O21 1.191 1_455 S
C10 O23 1.307 . S
O11 Mg6 2.013 . S
O11 C30 1.191 1_455 S
O12 Mg3 2.081 . S
O12 C20 1.331 . S
O13 Mg9 1.986 . S
O13 C30 1.307 . S
O14 Mg3 2.023 1_554 S
O14 C29 1.264 1_565 S
O15 Mg4 1.942 . S
O15 C20 1.244 1_545 S
O16 Mg4 1.955 1_554 S
O16 C29 1.273 . S
O17 Mg6 2.114 1_666 S
O17 Mg8 2.291 1_556 S
O17 C19 1.312 1_655 S
O18 Mg3 2.031 . S
O18 C19 1.208 . S
C19 O17 1.312 1_455 S
C19 O18 1.208 . S
C20 O12 1.331 . S
C20 O15 1.244 1_565 S
O21 Mg6 2.013 1_656 S
O21 C10 1.191 1_655 S
O22 C1 1.331 . S
O22 Mg8 2.081 . S
O23 Mg4 1.986 . S
O23 C10 1.307 . S
O24 C2 1.264 1_565 S
O24 Mg8 2.023 1_556 S
O25 C1 1.244 1_545 S
O25 Mg9 1.942 . S
O26 C2 1.273 . S
O26 Mg9 1.955 1_556 S
O27 C0 1.312 1_455 S
O27 Mg3 2.291 1_554 S
O27 Mg6 2.114 1_565 S
O28 C0 1.208 . S
O28 Mg8 2.031 . S
C29 O14 1.264 1_545 S
C29 O16 1.273 . S
C30 O11 1.191 1_655 S
C30 O13 1.307 . S
C31 O33 1.251 . S
C31 O35 1.254 1_455 S
C32 O39 1.246 . S
C32 O40 1.259 1_655 S
O33 C31 1.251 . S
O33 Zn34 2.028 . S
Zn34 O33 2.028 . S
Zn34 O38 2.035 . S
Zn34 O40 2.035 . S
Zn34 O41 2.028 . S
O35 C31 1.254 1_655 S
O35 Zn36 2.035 . S
Zn36 O35 2.035 . S
Zn36 O37 2.028 . S
Zn36 O39 2.028 . S
Zn36 O42 2.035 . S
O37 Zn36 2.028 . S
O37 C43 1.246 . S
O38 Zn34 2.035 . S
O38 C43 1.259 1_455 S
O39 C32 1.246 . S
O39 Zn36 2.028 . S
O40 C32 1.259 1_455 S
O40 Zn34 2.035 . S
O41 Zn34 2.028 . S
O41 C44 1.251 . S
O42 Zn36 2.035 . S
O42 C44 1.254 1_655 S
C43 O37 1.246 . S
C43 O38 1.259 1_655 S
C44 O41 1.251 . S
C44 O42 1.254 1_455 S
C45 O47 1.247 1_545 S
C45 O49 1.258 . S
C46 O53 1.247 . S
C46 O54 1.258 1_545 S
O47 C45 1.247 1_565 S
O47 Zn48 2.028 . S
Zn48 O47 2.028 . S
Zn48 O52 2.035 . S
Zn48 O54 2.035 . S
Zn48 O55 2.028 . S
O49 C45 1.258 . S
O49 Zn50 2.035 . S
Zn50 O49 2.035 . S
Zn50 O51 2.028 . S
Zn50 O53 2.028 . S
Zn50 O56 2.035 . S
O51 Zn50 2.028 . S
O51 C57 1.247 . S
O52 Zn48 2.035 . S
O52 C57 1.258 1_565 S
O53 C46 1.247 . S
O53 Zn50 2.028 . S
O54 C46 1.258 1_565 S
O54 Zn48 2.035 . S
O55 Zn48 2.028 . S
O55 C58 1.247 1_565 S
O56 Zn50 2.035 . S
O56 C58 1.258 . S
C57 O51 1.247 . S
C57 O52 1.258 1_545 S
C58 O55 1.247 1_545 S
C58 O56 1.258 . S
H59 C60 0.951 . S
C60 H59 0.951 . S
C60 C66 1.265 1_655 S
H61 C66 0.950 . S
H62 C70 0.949 . S
H63 C71 0.950 . S
H64 C72 0.951 . S
H65 C73 0.951 . S
C66 C60 1.265 1_455 S
C66 H61 0.950 . S
C66 C67 1.478 . S
C67 C66 1.478 . S
C67 C68 1.397 . S
C67 C84 1.394 1_455 S
C68 C67 1.397 . S
C68 C69 1.438 . S
C68 C73 1.429 . S
C69 C68 1.438 . S
C69 C70 1.428 . S
C69 C82 1.394 1_455 S
C70 H62 0.949 . S
C70 C69 1.428 . S
C70 C71 1.345 . S
C71 H63 0.950 . S
C71 C70 1.345 . S
C71 C72 1.424 . S
C72 H64 0.951 . S
C72 C71 1.424 . S
C72 C73 1.347 . S
C73 H65 0.951 . S
C73 C68 1.429 . S
C73 C72 1.347 . S
H74 C75 0.951 . S
C75 H74 0.951 . S
C75 C81 1.265 1_455 S
H76 C81 0.950 . S
H77 C85 0.949 . S
H78 C86 0.950 . S
H79 C87 0.951 . S
H80 C88 0.951 . S
C81 C75 1.265 1_655 S
C81 H76 0.950 . S
C81 C82 1.478 . S
C82 C69 1.394 1_655 S
C82 C81 1.478 . S
C82 C83 1.397 . S
C83 C82 1.397 . S
C83 C84 1.438 . S
C83 C88 1.429 . S
C84 C67 1.394 1_655 S
C84 C83 1.438 . S
C84 C85 1.428 . S
C85 H77 0.949 . S
C85 C84 1.428 . S
C85 C86 1.345 . S
C86 H78 0.950 . S
C86 C85 1.345 . S
C86 C87 1.424 . S
C87 H79 0.951 . S
C87 C86 1.424 . S
C87 C88 1.347 . S
C88 H80 0.951 . S
C88 C83 1.429 . S
C88 C87 1.347 . S
H89 C90 0.951 1_545 S
C90 H89 0.951 1_565 S
C90 C96 1.265 . S
H91 C96 0.950 . S
H92 C100 0.949 . S
H93 C101 0.950 . S
H94 C102 0.951 . S
H95 C103 0.951 . S
C96 C90 1.265 . S
C96 H91 0.950 . S
C96 C97 1.478 . S
C97 C96 1.478 . S
C97 C98 1.397 . S
C97 C114 1.394 1_565 S
C98 C97 1.397 . S
C98 C99 1.438 . S
C98 C103 1.429 . S
C99 C98 1.438 . S
C99 C100 1.428 . S
C99 C112 1.394 1_565 S
C100 H92 0.949 . S
C100 C99 1.428 . S
C100 C101 1.345 . S
C101 H93 0.950 . S
C101 C100 1.345 . S
C101 C102 1.424 . S
C102 H94 0.951 . S
C102 C101 1.424 . S
C102 C103 1.347 . S
C103 H95 0.951 . S
C103 C98 1.429 . S
C103 C102 1.347 . S
H104 C105 0.951 1_565 S
C105 H104 0.951 1_545 S
C105 C111 1.265 . S
H106 C111 0.950 . S
H107 C115 0.949 . S
H108 C116 0.950 . S
H109 C117 0.951 . S
H110 C118 0.951 . S
C111 C105 1.265 . S
C111 H106 0.950 . S
C111 C112 1.478 . S
C112 C99 1.394 1_545 S
C112 C111 1.478 . S
C112 C113 1.397 . S
C113 C112 1.397 . S
C113 C114 1.438 . S
C113 C118 1.429 . S
C114 C97 1.394 1_545 S
C114 C113 1.438 . S
C114 C115 1.428 . S
C115 H107 0.949 . S
C115 C114 1.428 . S
C115 C116 1.345 . S
C116 H108 0.950 . S
C116 C115 1.345 . S
C116 C117 1.424 . S
C117 H109 0.951 . S
C117 C116 1.424 . S
C117 C118 1.347 . S
C118 H110 0.951 . S
C118 C113 1.429 . S
C118 C117 1.347 . S
H119 C120 0.951 . S
C120 H119 0.951 . S
C120 C126 1.265 1_455 S
H121 C126 0.950 . S
H122 C130 0.949 . S
H123 C131 0.950 . S
H124 C132 0.951 . S
H125 C133 0.951 . S
C126 C120 1.265 1_655 S
C126 H121 0.950 . S
C126 C127 1.478 . S
C127 C126 1.478 . S
C127 C128 1.397 . S
C127 C144 1.394 1_655 S
C128 C127 1.397 . S
C128 C129 1.438 . S
C128 C133 1.429 . S
C129 C128 1.438 . S
C129 C130 1.428 . S
C129 C142 1.394 1_655 S
C130 H122 0.949 . S
C130 C129 1.428 . S
C130 C131 1.345 . S
C131 H123 0.950 . S
C131 C130 1.345 . S
C131 C132 1.424 . S
C132 H124 0.951 . S
C132 C131 1.424 . S
C132 C133 1.347 . S
C133 H125 0.951 . S
C133 C128 1.429 . S
C133 C132 1.347 . S
H134 C135 0.951 . S
C135 H134 0.951 . S
C135 C141 1.265 1_655 S
H136 C141 0.950 . S
H137 C145 0.949 . S
H138 C146 0.950 . S
H139 C147 0.951 . S
H140 C148 0.951 . S
C141 C135 1.265 1_455 S
C141 H136 0.950 . S
C141 C142 1.478 . S
C142 C129 1.394 1_455 S
C142 C141 1.478 . S
C142 C143 1.397 . S
C143 C142 1.397 . S
C143 C144 1.438 . S
C143 C148 1.429 . S
C144 C127 1.394 1_455 S
C144 C143 1.438 . S
C144 C145 1.428 . S
C145 H137 0.949 . S
C145 C144 1.428 . S
C145 C146 1.345 . S
C146 H138 0.950 . S
C146 C145 1.345 . S
C146 C147 1.424 . S
C147 H139 0.951 . S
C147 C146 1.424 . S
C147 C148 1.347 . S
C148 H140 0.951 . S
C148 C143 1.429 . S
C148 C147 1.347 . S
H149 C150 0.951 . S
C150 H149 0.951 . S
C150 C156 1.265 . S
H151 C156 0.950 . S
H152 C160 0.949 . S
H153 C161 0.950 . S
H154 C162 0.951 . S
H155 C163 0.951 . S
C156 C150 1.265 . S
C156 H151 0.950 . S
C156 C157 1.478 . S
C157 C156 1.478 . S
C157 C158 1.397 . S
C157 C174 1.394 1_545 S
C158 C157 1.397 . S
C158 C159 1.438 . S
C158 C163 1.429 . S
C159 C158 1.438 . S
C159 C160 1.428 . S
C159 C172 1.394 . S
C160 H152 0.949 . S
C160 C159 1.428 . S
C160 C161 1.345 . S
C161 H153 0.950 . S
C161 C160 1.345 . S
C161 C162 1.424 . S
C162 H154 0.951 . S
C162 C161 1.424 . S
C162 C163 1.347 . S
C163 H155 0.951 . S
C163 C158 1.429 . S
C163 C162 1.347 . S
H164 C165 0.951 . S
C165 H164 0.951 . S
C165 C171 1.265 . S
H166 C171 0.950 1_565 S
H167 C175 0.949 . S
H168 C176 0.950 . S
H169 C177 0.951 . S
H170 C178 0.951 . S
C171 C165 1.265 . S
C171 H166 0.950 1_545 S
C171 C172 1.478 . S
C172 C159 1.394 . S
C172 C171 1.478 . S
C172 C173 1.397 1_545 S
C173 C172 1.397 1_565 S
C173 C174 1.438 . S
C173 C178 1.429 . S
C174 C157 1.394 1_565 S
C174 C173 1.438 . S
C174 C175 1.428 . S
C175 H167 0.949 . S
C175 C174 1.428 . S
C175 C176 1.345 . S
C176 H168 0.950 . S
C176 C175 1.345 . S
C176 C177 1.424 . S
C177 H169 0.951 . S
C177 C176 1.424 . S
C177 C178 1.347 . S
C178 H170 0.951 . S
C178 C173 1.429 . S
C178 C177 1.347 . S
H179 C180 0.951 . S
C180 H179 0.951 . S
C180 C186 1.265 1_455 S
H181 C186 0.950 . S
H182 C190 0.949 1_455 S
H183 C191 0.950 . S
H184 C192 0.951 . S
H185 C193 0.951 . S
C186 C180 1.265 1_655 S
C186 H181 0.950 . S
C186 C187 1.478 . S
C187 C186 1.478 . S
C187 C188 1.397 . S
C187 C204 1.393 1_655 S
C188 C187 1.397 . S
C188 C189 1.438 . S
C188 C193 1.429 . S
C189 C188 1.438 . S
C189 C190 1.428 . S
C189 C202 1.394 1_655 S
C190 H182 0.949 1_655 S
C190 C189 1.428 . S
C190 C191 1.345 . S
C191 H183 0.950 . S
C191 C190 1.345 . S
C191 C192 1.424 . S
C192 H184 0.951 . S
C192 C191 1.424 . S
C192 C193 1.347 . S
C193 H185 0.951 . S
C193 C188 1.429 . S
C193 C192 1.347 . S
H194 C195 0.951 . S
C195 H194 0.951 . S
C195 C201 1.265 1_655 S
H196 C201 0.950 . S
H197 C205 0.949 1_655 S
H198 C206 0.950 . S
H199 C207 0.951 . S
H200 C208 0.951 . S
C201 C195 1.265 1_455 S
C201 H196 0.950 . S
C201 C202 1.478 . S
C202 C189 1.394 1_455 S
C202 C201 1.478 . S
C202 C203 1.397 . S
C203 C202 1.397 . S
C203 C204 1.439 . S
C203 C208 1.429 . S
C204 C187 1.393 1_455 S
C204 C203 1.439 . S
C204 C205 1.428 . S
C205 H197 0.949 1_455 S
C205 C204 1.428 . S
C205 C206 1.345 . S
C206 H198 0.950 . S
C206 C205 1.345 . S
C206 C207 1.424 . S
C207 H199 0.951 . S
C207 C206 1.424 . S
C207 C208 1.347 . S
C208 H200 0.951 . S
C208 C203 1.429 . S
C208 C207 1.347 . S
H209 C210 0.951 1_545 S
C210 H209 0.951 1_565 S
C210 C216 1.265 . S
H211 C216 0.950 . S
H212 C220 0.949 . S
H213 C221 0.950 . S
H214 C222 0.951 . S
H215 C223 0.951 . S
C216 C210 1.265 . S
C216 H211 0.950 . S
C216 C217 1.478 . S
C217 C216 1.478 . S
C217 C218 1.397 . S
C217 C234 1.394 1_565 S
C218 C217 1.397 . S
C218 C219 1.438 . S
C218 C223 1.429 . S
C219 C218 1.438 . S
C219 C220 1.428 . S
C219 C232 1.394 1_565 S
C220 H212 0.949 . S
C220 C219 1.428 . S
C220 C221 1.345 . S
C221 H213 0.950 . S
C221 C220 1.345 . S
C221 C222 1.424 . S
C222 H214 0.951 . S
C222 C221 1.424 . S
C222 C223 1.347 . S
C223 H215 0.951 . S
C223 C218 1.429 . S
C223 C222 1.347 . S
H224 C225 0.951 1_565 S
C225 H224 0.951 1_545 S
C225 C231 1.265 . S
H226 C231 0.950 . S
H227 C235 0.949 . S
H228 C236 0.950 . S
H229 C237 0.951 . S
H230 C238 0.951 . S
C231 C225 1.265 . S
C231 H226 0.950 . S
C231 C232 1.478 . S
C232 C219 1.394 1_545 S
C232 C231 1.478 . S
C232 C233 1.397 . S
C233 C232 1.397 . S
C233 C234 1.438 . S
C233 C238 1.429 . S
C234 C217 1.394 1_545 S
C234 C233 1.438 . S
C234 C235 1.428 . S
C235 H227 0.949 . S
C235 C234 1.428 . S
C235 C236 1.345 . S
C236 H228 0.950 . S
C236 C235 1.345 . S
C236 C237 1.424 . S
C237 H229 0.951 . S
C237 C236 1.424 . S
C237 C238 1.347 . S
C238 H230 0.951 . S
C238 C233 1.429 . S
C238 C237 1.347 . S
H239 C240 0.951 . S
C240 H239 0.951 . S
C240 C246 1.265 1_455 S
H241 C246 0.950 . S
H242 C250 0.949 1_455 S
H243 C251 0.950 . S
H244 C252 0.951 . S
H245 C253 0.951 . S
C246 C240 1.265 1_655 S
C246 H241 0.950 . S
C246 C247 1.478 . S
C247 C246 1.478 . S
C247 C248 1.397 . S
C247 C264 1.394 1_655 S
C248 C247 1.397 . S
C248 C249 1.442 . S
C248 C253 1.429 . S
C249 C248 1.442 . S
C249 C250 1.428 . S
C249 C262 1.389 1_655 S
C250 H242 0.949 1_655 S
C250 C249 1.428 . S
C250 C251 1.345 . S
C251 H243 0.950 . S
C251 C250 1.345 . S
C251 C252 1.424 . S
C252 H244 0.951 . S
C252 C251 1.424 . S
C252 C253 1.347 . S
C253 H245 0.951 . S
C253 C248 1.429 . S
C253 C252 1.347 . S
H254 C255 0.951 . S
C255 H254 0.951 . S
C255 C261 1.265 1_655 S
H256 C261 0.950 . S
H257 C265 0.949 1_655 S
H258 C266 0.950 . S
H259 C267 0.951 . S
H260 C268 0.951 . S
C261 C255 1.265 1_455 S
C261 H256 0.950 . S
C261 C262 1.478 . S
C262 C249 1.389 1_455 S
C262 C261 1.478 . S
C262 C263 1.397 . S
C263 C262 1.397 . S
C263 C264 1.438 . S
C263 C268 1.429 . S
C264 C247 1.394 1_455 S
C264 C263 1.438 . S
C264 C265 1.428 . S
C265 H257 0.949 1_455 S
C265 C264 1.428 . S
C265 C266 1.345 . S
C266 H258 0.950 . S
C266 C265 1.345 . S
C266 C267 1.424 . S
C267 H259 0.951 . S
C267 C266 1.424 . S
C267 C268 1.347 . S
C268 H260 0.951 . S
C268 C263 1.429 . S
C268 C267 1.347 . S
H269 C270 0.951 . S
C270 H269 0.951 . S
C270 C276 1.265 . S
H271 C276 0.950 1_565 S
H272 C280 0.949 . S
H273 C281 0.950 . S
H274 C282 0.951 . S
H275 C283 0.951 . S
C276 C270 1.265 . S
C276 H271 0.950 1_545 S
C276 C277 1.478 . S
C277 C276 1.478 . S
C277 C278 1.397 1_545 S
C277 C294 1.394 . S
C278 C277 1.397 1_565 S
C278 C279 1.438 . S
C278 C283 1.429 . S
C279 C278 1.438 . S
C279 C280 1.428 . S
C279 C292 1.394 1_565 S
C280 H272 0.949 . S
C280 C279 1.428 . S
C280 C281 1.345 . S
C281 H273 0.950 . S
C281 C280 1.345 . S
C281 C282 1.424 . S
C282 H274 0.951 . S
C282 C281 1.424 . S
C282 C283 1.347 . S
C283 H275 0.951 . S
C283 C278 1.429 . S
C283 C282 1.347 . S
H284 C285 0.951 1_565 S
C285 H284 0.951 1_545 S
C285 C291 1.265 . S
H286 C291 0.950 . S
H287 C295 0.949 . S
H288 C296 0.950 . S
H289 C297 0.951 . S
H290 C298 0.951 . S
C291 C285 1.265 . S
C291 H286 0.950 . S
C291 C292 1.478 . S
C292 C279 1.394 1_545 S
C292 C291 1.478 . S
C292 C293 1.397 . S
C293 C292 1.397 . S
C293 C294 1.438 . S
C293 C298 1.429 . S
C294 C277 1.394 . S
C294 C293 1.438 . S
C294 C295 1.428 . S
C295 H287 0.949 . S
C295 C294 1.428 . S
C295 C296 1.345 . S
C296 H288 0.950 . S
C296 C295 1.345 . S
C296 C297 1.424 . S
C297 H289 0.951 . S
C297 C296 1.424 . S
C297 C298 1.347 . S
C298 H290 0.951 . S
C298 C293 1.429 . S
C298 C297 1.347 . S
C60 C30 1.290 . S
C75 C32 1.356 1_455 S
C90 C1 1.524 . S
C105 C58 1.518 . S
C120 C0 1.355 1_455 S
C135 C44 1.369 1_655 S
C150 C29 1.566 . S
C165 C46 1.561 . S
C180 C19 1.272 . S
C195 C31 1.372 1_655 S
C210 C20 1.523 . S
C225 C57 1.521 . S
C255 C43 1.354 . S
C240 C10 1.301 . S
C270 C2 1.505 . S
C285 C45 1.568 . S
