# Generated by pormake.
# Topology gar, (4,6)-cn, num edge types: 1
# Building blocks:
#     Node 0, Type 0, BuildingBlock: CEKHIL_clean_sbu_0, # of connection points: 4
#     Node 1, Type 0, BuildingBlock: CEKHIL_clean_sbu_0, # of connection points: 4
#     Node 2, Type 0, BuildingBlock: CEKHIL_clean_sbu_0, # of connection points: 4
#     Node 3, Type 0, BuildingBlock: CEKHIL_clean_sbu_0, # of connection points: 4
#     Node 4, Type 0, BuildingBlock: CEKHIL_clean_sbu_0, # of connection points: 4
#     Node 5, Type 0, BuildingBlock: CEKHIL_clean_sbu_0, # of connection points: 4
#     Node 6, Type 0, BuildingBlock: CEKHIL_clean_sbu_0, # of connection points: 4
#     Node 7, Type 0, BuildingBlock: CEKHIL_clean_sbu_0, # of connection points: 4
#     Node 8, Type 0, BuildingBlock: CEKHIL_clean_sbu_0, # of connection points: 4
#     Node 9, Type 0, BuildingBlock: CEKHIL_clean_sbu_0, # of connection points: 4
#     Node 10, Type 0, BuildingBlock: CEKHIL_clean_sbu_0, # of connection points: 4
#     Node 11, Type 0, BuildingBlock: CEKHIL_clean_sbu_0, # of connection points: 4
#     Node 12, Type 0, BuildingBlock: CEKHIL_clean_sbu_0, # of connection points: 4
#     Node 13, Type 0, BuildingBlock: CEKHIL_clean_sbu_0, # of connection points: 4
#     Node 14, Type 0, BuildingBlock: CEKHIL_clean_sbu_0, # of connection points: 4
#     Node 15, Type 0, BuildingBlock: CEKHIL_clean_sbu_0, # of connection points: 4
#     Node 16, Type 0, BuildingBlock: CEKHIL_clean_sbu_0, # of connection points: 4
#     Node 17, Type 0, BuildingBlock: CEKHIL_clean_sbu_0, # of connection points: 4
#     Node 18, Type 0, BuildingBlock: CEKHIL_clean_sbu_0, # of connection points: 4
#     Node 19, Type 0, BuildingBlock: CEKHIL_clean_sbu_0, # of connection points: 4
#     Node 20, Type 0, BuildingBlock: CEKHIL_clean_sbu_0, # of connection points: 4
#     Node 21, Type 0, BuildingBlock: CEKHIL_clean_sbu_0, # of connection points: 4
#     Node 22, Type 0, BuildingBlock: CEKHIL_clean_sbu_0, # of connection points: 4
#     Node 23, Type 0, BuildingBlock: CEKHIL_clean_sbu_0, # of connection points: 4
#     Node 24, Type 1, BuildingBlock: KUMBUR_clean_sbu_1, # of connection points: 6
#     Node 25, Type 1, BuildingBlock: KUMBUR_clean_sbu_1, # of connection points: 6
#     Node 26, Type 1, BuildingBlock: KUMBUR_clean_sbu_1, # of connection points: 6
#     Node 27, Type 1, BuildingBlock: KUMBUR_clean_sbu_1, # of connection points: 6
#     Node 28, Type 1, BuildingBlock: KUMBUR_clean_sbu_1, # of connection points: 6
#     Node 29, Type 1, BuildingBlock: KUMBUR_clean_sbu_1, # of connection points: 6
#     Node 30, Type 1, BuildingBlock: KUMBUR_clean_sbu_1, # of connection points: 6
#     Node 31, Type 1, BuildingBlock: KUMBUR_clean_sbu_1, # of connection points: 6
#     Node 32, Type 1, BuildingBlock: KUMBUR_clean_sbu_1, # of connection points: 6
#     Node 33, Type 1, BuildingBlock: KUMBUR_clean_sbu_1, # of connection points: 6
#     Node 34, Type 1, BuildingBlock: KUMBUR_clean_sbu_1, # of connection points: 6
#     Node 35, Type 1, BuildingBlock: KUMBUR_clean_sbu_1, # of connection points: 6
#     Node 36, Type 1, BuildingBlock: KUMBUR_clean_sbu_1, # of connection points: 6
#     Node 37, Type 1, BuildingBlock: KUMBUR_clean_sbu_1, # of connection points: 6
#     Node 38, Type 1, BuildingBlock: KUMBUR_clean_sbu_1, # of connection points: 6
#     Node 39, Type 1, BuildingBlock: KUMBUR_clean_sbu_1, # of connection points: 6
#     Edge 40, Type (0, 1), BuildingBlock: MIFKUJ_clean_linker_0, # of connection points: 2
#     Edge 41, Type (0, 1), BuildingBlock: MIFKUJ_clean_linker_0, # of connection points: 2
#     Edge 42, Type (0, 1), BuildingBlock: MIFKUJ_clean_linker_0, # of connection points: 2
#     Edge 43, Type (0, 1), BuildingBlock: MIFKUJ_clean_linker_0, # of connection points: 2
#     Edge 44, Type (0, 1), BuildingBlock: MIFKUJ_clean_linker_0, # of connection points: 2
#     Edge 45, Type (0, 1), BuildingBlock: MIFKUJ_clean_linker_0, # of connection points: 2
#     Edge 46, Type (0, 1), BuildingBlock: MIFKUJ_clean_linker_0, # of connection points: 2
#     Edge 47, Type (0, 1), BuildingBlock: MIFKUJ_clean_linker_0, # of connection points: 2
#     Edge 48, Type (0, 1), BuildingBlock: MIFKUJ_clean_linker_0, # of connection points: 2
#     Edge 49, Type (0, 1), BuildingBlock: MIFKUJ_clean_linker_0, # of connection points: 2
#     Edge 50, Type (0, 1), BuildingBlock: MIFKUJ_clean_linker_0, # of connection points: 2
#     Edge 51, Type (0, 1), BuildingBlock: MIFKUJ_clean_linker_0, # of connection points: 2
#     Edge 52, Type (0, 1), BuildingBlock: MIFKUJ_clean_linker_0, # of connection points: 2
#     Edge 53, Type (0, 1), BuildingBlock: MIFKUJ_clean_linker_0, # of connection points: 2
#     Edge 54, Type (0, 1), BuildingBlock: MIFKUJ_clean_linker_0, # of connection points: 2
#     Edge 55, Type (0, 1), BuildingBlock: MIFKUJ_clean_linker_0, # of connection points: 2
#     Edge 56, Type (0, 1), BuildingBlock: MIFKUJ_clean_linker_0, # of connection points: 2
#     Edge 57, Type (0, 1), BuildingBlock: MIFKUJ_clean_linker_0, # of connection points: 2
#     Edge 58, Type (0, 1), BuildingBlock: MIFKUJ_clean_linker_0, # of connection points: 2
#     Edge 59, Type (0, 1), BuildingBlock: MIFKUJ_clean_linker_0, # of connection points: 2
#     Edge 60, Type (0, 1), BuildingBlock: MIFKUJ_clean_linker_0, # of connection points: 2
#     Edge 61, Type (0, 1), BuildingBlock: MIFKUJ_clean_linker_0, # of connection points: 2
#     Edge 62, Type (0, 1), BuildingBlock: MIFKUJ_clean_linker_0, # of connection points: 2
#     Edge 63, Type (0, 1), BuildingBlock: MIFKUJ_clean_linker_0, # of connection points: 2
#     Edge 64, Type (0, 1), BuildingBlock: MIFKUJ_clean_linker_0, # of connection points: 2
#     Edge 65, Type (0, 1), BuildingBlock: MIFKUJ_clean_linker_0, # of connection points: 2
#     Edge 66, Type (0, 1), BuildingBlock: MIFKUJ_clean_linker_0, # of connection points: 2
#     Edge 67, Type (0, 1), BuildingBlock: MIFKUJ_clean_linker_0, # of connection points: 2
#     Edge 68, Type (0, 1), BuildingBlock: MIFKUJ_clean_linker_0, # of connection points: 2
#     Edge 69, Type (0, 1), BuildingBlock: MIFKUJ_clean_linker_0, # of connection points: 2
#     Edge 70, Type (0, 1), BuildingBlock: MIFKUJ_clean_linker_0, # of connection points: 2
#     Edge 71, Type (0, 1), BuildingBlock: MIFKUJ_clean_linker_0, # of connection points: 2
#     Edge 72, Type (0, 1), BuildingBlock: MIFKUJ_clean_linker_0, # of connection points: 2
#     Edge 73, Type (0, 1), BuildingBlock: MIFKUJ_clean_linker_0, # of connection points: 2
#     Edge 74, Type (0, 1), BuildingBlock: MIFKUJ_clean_linker_0, # of connection points: 2
#     Edge 75, Type (0, 1), BuildingBlock: MIFKUJ_clean_linker_0, # of connection points: 2
#     Edge 76, Type (0, 1), BuildingBlock: MIFKUJ_clean_linker_0, # of connection points: 2
#     Edge 77, Type (0, 1), BuildingBlock: MIFKUJ_clean_linker_0, # of connection points: 2
#     Edge 78, Type (0, 1), BuildingBlock: MIFKUJ_clean_linker_0, # of connection points: 2
#     Edge 79, Type (0, 1), BuildingBlock: MIFKUJ_clean_linker_0, # of connection points: 2
#     Edge 80, Type (0, 1), BuildingBlock: MIFKUJ_clean_linker_0, # of connection points: 2
#     Edge 81, Type (0, 1), BuildingBlock: MIFKUJ_clean_linker_0, # of connection points: 2
#     Edge 82, Type (0, 1), BuildingBlock: MIFKUJ_clean_linker_0, # of connection points: 2
#     Edge 83, Type (0, 1), BuildingBlock: MIFKUJ_clean_linker_0, # of connection points: 2
#     Edge 84, Type (0, 1), BuildingBlock: MIFKUJ_clean_linker_0, # of connection points: 2
#     Edge 85, Type (0, 1), BuildingBlock: MIFKUJ_clean_linker_0, # of connection points: 2
#     Edge 86, Type (0, 1), BuildingBlock: MIFKUJ_clean_linker_0, # of connection points: 2
#     Edge 87, Type (0, 1), BuildingBlock: MIFKUJ_clean_linker_0, # of connection points: 2
#     Edge 88, Type (0, 1), BuildingBlock: MIFKUJ_clean_linker_0, # of connection points: 2
#     Edge 89, Type (0, 1), BuildingBlock: MIFKUJ_clean_linker_0, # of connection points: 2
#     Edge 90, Type (0, 1), BuildingBlock: MIFKUJ_clean_linker_0, # of connection points: 2
#     Edge 91, Type (0, 1), BuildingBlock: MIFKUJ_clean_linker_0, # of connection points: 2
#     Edge 92, Type (0, 1), BuildingBlock: MIFKUJ_clean_linker_0, # of connection points: 2
#     Edge 93, Type (0, 1), BuildingBlock: MIFKUJ_clean_linker_0, # of connection points: 2
#     Edge 94, Type (0, 1), BuildingBlock: MIFKUJ_clean_linker_0, # of connection points: 2
#     Edge 95, Type (0, 1), BuildingBlock: MIFKUJ_clean_linker_0, # of connection points: 2
#     Edge 96, Type (0, 1), BuildingBlock: MIFKUJ_clean_linker_0, # of connection points: 2
#     Edge 97, Type (0, 1), BuildingBlock: MIFKUJ_clean_linker_0, # of connection points: 2
#     Edge 98, Type (0, 1), BuildingBlock: MIFKUJ_clean_linker_0, # of connection points: 2
#     Edge 99, Type (0, 1), BuildingBlock: MIFKUJ_clean_linker_0, # of connection points: 2
#     Edge 100, Type (0, 1), BuildingBlock: MIFKUJ_clean_linker_0, # of connection points: 2
#     Edge 101, Type (0, 1), BuildingBlock: MIFKUJ_clean_linker_0, # of connection points: 2
#     Edge 102, Type (0, 1), BuildingBlock: MIFKUJ_clean_linker_0, # of connection points: 2
#     Edge 103, Type (0, 1), BuildingBlock: MIFKUJ_clean_linker_0, # of connection points: 2
#     Edge 104, Type (0, 1), BuildingBlock: MIFKUJ_clean_linker_0, # of connection points: 2
#     Edge 105, Type (0, 1), BuildingBlock: MIFKUJ_clean_linker_0, # of connection points: 2
#     Edge 106, Type (0, 1), BuildingBlock: MIFKUJ_clean_linker_0, # of connection points: 2
#     Edge 107, Type (0, 1), BuildingBlock: MIFKUJ_clean_linker_0, # of connection points: 2
#     Edge 108, Type (0, 1), BuildingBlock: MIFKUJ_clean_linker_0, # of connection points: 2
#     Edge 109, Type (0, 1), BuildingBlock: MIFKUJ_clean_linker_0, # of connection points: 2
#     Edge 110, Type (0, 1), BuildingBlock: MIFKUJ_clean_linker_0, # of connection points: 2
#     Edge 111, Type (0, 1), BuildingBlock: MIFKUJ_clean_linker_0, # of connection points: 2
#     Edge 112, Type (0, 1), BuildingBlock: MIFKUJ_clean_linker_0, # of connection points: 2
#     Edge 113, Type (0, 1), BuildingBlock: MIFKUJ_clean_linker_0, # of connection points: 2
#     Edge 114, Type (0, 1), BuildingBlock: MIFKUJ_clean_linker_0, # of connection points: 2
#     Edge 115, Type (0, 1), BuildingBlock: MIFKUJ_clean_linker_0, # of connection points: 2
#     Edge 116, Type (0, 1), BuildingBlock: MIFKUJ_clean_linker_0, # of connection points: 2
#     Edge 117, Type (0, 1), BuildingBlock: MIFKUJ_clean_linker_0, # of connection points: 2
#     Edge 118, Type (0, 1), BuildingBlock: MIFKUJ_clean_linker_0, # of connection points: 2
#     Edge 119, Type (0, 1), BuildingBlock: MIFKUJ_clean_linker_0, # of connection points: 2
#     Edge 120, Type (0, 1), BuildingBlock: MIFKUJ_clean_linker_0, # of connection points: 2
#     Edge 121, Type (0, 1), BuildingBlock: MIFKUJ_clean_linker_0, # of connection points: 2
#     Edge 122, Type (0, 1), BuildingBlock: MIFKUJ_clean_linker_0, # of connection points: 2
#     Edge 123, Type (0, 1), BuildingBlock: MIFKUJ_clean_linker_0, # of connection points: 2
#     Edge 124, Type (0, 1), BuildingBlock: MIFKUJ_clean_linker_0, # of connection points: 2
#     Edge 125, Type (0, 1), BuildingBlock: MIFKUJ_clean_linker_0, # of connection points: 2
#     Edge 126, Type (0, 1), BuildingBlock: MIFKUJ_clean_linker_0, # of connection points: 2
#     Edge 127, Type (0, 1), BuildingBlock: MIFKUJ_clean_linker_0, # of connection points: 2
#     Edge 128, Type (0, 1), BuildingBlock: MIFKUJ_clean_linker_0, # of connection points: 2
#     Edge 129, Type (0, 1), BuildingBlock: MIFKUJ_clean_linker_0, # of connection points: 2
#     Edge 130, Type (0, 1), BuildingBlock: MIFKUJ_clean_linker_0, # of connection points: 2
#     Edge 131, Type (0, 1), BuildingBlock: MIFKUJ_clean_linker_0, # of connection points: 2
#     Edge 132, Type (0, 1), BuildingBlock: MIFKUJ_clean_linker_0, # of connection points: 2
#     Edge 133, Type (0, 1), BuildingBlock: MIFKUJ_clean_linker_0, # of connection points: 2
#     Edge 134, Type (0, 1), BuildingBlock: MIFKUJ_clean_linker_0, # of connection points: 2
#     Edge 135, Type (0, 1), BuildingBlock: MIFKUJ_clean_linker_0, # of connection points: 2
# Relax obj value: 0.055
# Max RMSD: 0.172
# Mean RMSD: 0.105
data_MOF--net-gar--node1-CEKHIL_clean_sbu_0--node2-KUMBUR_clean_sbu_1--edge1-MIFKUJ_clean_linker_0
_symmetry_space_group_name_H-M    P1
_symmetry_Int_Tables_number       1
_symmetry_cell_setting            triclinic
loop_
_symmetry_equiv_pos_as_xyz
'x, y, z'
_cell_length_a     76.553674
_cell_length_b     75.934491
_cell_length_c     71.100516
_cell_angle_alpha  95.489636
_cell_angle_beta   95.597984
_cell_angle_gamma 100.20562
loop_
_atom_site_label
_atom_site_type_symbol
_atom_site_fract_x
_atom_site_fract_y
_atom_site_fract_z
_atom_type_partial_charge
Co0 Co 0.05078 0.30931 0.3622 0.0
O1 O 0.07708 0.3115 0.3664 0.0
O2 O 0.06153 0.30137 0.33906 0.0
C3 C 0.05036 0.33746 0.37827 0.0
O4 O 0.02325 0.30549 0.35157 0.0
Co5 Co 0.0275 0.31132 0.39566 0.0
O6 O 1.00722 0.31027 0.3759 0.0
C7 C 0.04118 0.27782 0.38563 0.0
C8 C 0.0773 0.30519 0.34884 0.0
C9 C 1.00806 0.30657 0.35819 0.0
O10 O 0.04744 0.28385 0.37066 0.0
O11 O 0.03425 0.28734 0.39762 0.0
O12 O 0.05341 0.33584 0.36054 0.0
O13 O 0.04859 0.32258 0.38567 0.0
Co14 Co 0.01879 0.75903 0.68533 0.0
O15 O 0.99252 0.75733 0.68085 0.0
O16 O 1.00601 0.75395 0.70816 0.0
C17 C 0.02421 0.78567 0.67191 0.0
O18 O 0.04629 0.7607 0.69568 0.0
Co19 Co 0.04186 0.76087 0.65178 0.0
O20 O 0.06256 0.76685 0.67158 0.0
C21 C 0.02048 0.72565 0.65769 0.0
C22 C 0.99099 0.7551 0.69843 0.0
C23 C 0.06173 0.76436 0.68895 0.0
O24 O 0.0165 0.73221 0.67408 0.0
O25 O 0.02886 0.73541 0.64651 0.0
O26 O 0.02176 0.7857 0.68971 0.0
O27 O 0.02294 0.76994 0.66293 0.0
Co28 Co 0.55089 0.80877 0.86215 0.0
O29 O 0.57721 0.81102 0.86625 0.0
O30 O 0.56157 0.80057 0.83904 0.0
C31 C 0.55044 0.83705 0.87797 0.0
O32 O 0.52333 0.80517 0.85174 0.0
Co33 Co 0.52819 0.81093 0.89621 0.0
O34 O 0.50847 0.81188 0.87649 0.0
C35 C 0.54369 0.77847 0.88746 0.0
C36 C 0.57738 0.80459 0.84873 0.0
C37 C 0.50866 0.80778 0.85871 0.0
O38 O 0.54768 0.78345 0.87117 0.0
O39 O 0.53755 0.78845 0.89973 0.0
O40 O 0.55363 0.83534 0.86028 0.0
O41 O 0.54874 0.82219 0.88538 0.0
Co42 Co 0.51809 0.25879 0.18456 0.0
O43 O 0.49182 0.25664 0.17942 0.0
O44 O 0.50468 0.25265 0.20676 0.0
C45 C 0.52335 0.28605 0.17214 0.0
O46 O 0.54558 0.26105 0.19559 0.0
Co47 Co 0.54227 0.26277 0.1517 0.0
O48 O 0.56223 0.26923 0.17232 0.0
C49 C 0.523 0.22623 0.15715 0.0
C50 C 0.48984 0.2541 0.19686 0.0
C51 C 0.56116 0.26592 0.18944 0.0
O52 O 0.51705 0.23221 0.17273 0.0
O53 O 0.53153 0.23669 0.14666 0.0
O54 O 0.51996 0.28535 0.18959 0.0
O55 O 0.52285 0.27061 0.16283 0.0
Co56 Co 0.05353 0.79494 0.11558 0.0
O57 O 0.02753 0.79267 0.11188 0.0
O58 O 0.04284 0.78811 0.13816 0.0
C59 C 0.05835 0.82292 0.10312 0.0
O60 O 0.07983 0.79667 0.12753 0.0
Co61 Co 0.07773 0.79584 0.08643 0.0
O62 O 0.09883 0.79946 0.10583 0.0
C63 C 0.0588 0.75986 0.09203 0.0
C64 C 0.02743 0.78892 0.12933 0.0
C65 C 0.09593 0.79836 0.12299 0.0
O66 O 0.05153 0.76787 0.10533 0.0
O67 O 0.06945 0.76892 0.08216 0.0
O68 O 0.05596 0.82136 0.12073 0.0
O69 O 0.05785 0.80755 0.093 0.0
Co70 Co 0.51424 0.77266 0.4313 0.0
O71 O 0.54036 0.77616 0.43546 0.0
O72 O 0.52407 0.76557 0.40816 0.0
C73 C 0.51235 0.80115 0.44571 0.0
O74 O 0.48764 0.7683 0.41917 0.0
Co75 Co 0.49024 0.771 0.46131 0.0
O76 O 0.4704 0.77324 0.44185 0.0
C77 C 0.50803 0.74002 0.45515 0.0
C78 C 0.53986 0.77052 0.41754 0.0
C79 C 0.47232 0.77047 0.4243 0.0
O80 O 0.51265 0.74672 0.43977 0.0
O81 O 0.49987 0.74862 0.46676 0.0
O82 O 0.51572 0.79843 0.42827 0.0
O83 O 0.51133 0.78691 0.45469 0.0
Co84 Co 0.55466 0.29418 0.61645 0.0
O85 O 0.52868 0.29195 0.61199 0.0
O86 O 0.54345 0.28833 0.63905 0.0
C87 C 0.55992 0.32194 0.60337 0.0
O88 O 0.58069 0.29554 0.62902 0.0
Co89 Co 0.57935 0.29421 0.58816 0.0
O90 O 0.60037 0.29898 0.60808 0.0
C91 C 0.55803 0.2589 0.59223 0.0
C92 C 0.52824 0.28886 0.6296 0.0
C93 C 0.59698 0.29758 0.62506 0.0
O94 O 0.55248 0.26698 0.6068 0.0
O95 O 0.56806 0.26786 0.5817 0.0
O96 O 0.55738 0.32074 0.621 0.0
O97 O 0.55941 0.30637 0.59363 0.0
Co98 Co 0.01466 0.27222 0.93187 0.0
O99 O 0.04074 0.27615 0.93632 0.0
O100 O 0.02486 0.26491 0.90898 0.0
C101 C 0.01232 0.30051 0.94639 0.0
O102 O 0.98827 0.26787 0.91938 0.0
Co103 Co 0.99021 0.26977 0.96145 0.0
O104 O 0.96992 0.26992 0.94164 0.0
C105 C 1.00835 0.23929 0.95533 0.0
C106 C 0.04055 0.27017 0.91854 0.0
C107 C 0.97249 0.26836 0.9242 0.0
O108 O 0.01297 0.24619 0.94007 0.0
O109 O 1.00026 0.24769 0.96714 0.0
O110 O 0.01601 0.29801 0.92903 0.0
O111 O 0.01126 0.28618 0.95524 0.0
Co112 Co 0.3911 0.02217 0.29964 0.0
O113 O 0.39612 0.04723 0.29749 0.0
O114 O 0.3698 0.02849 0.28898 0.0
C115 C 0.40442 0.0246 0.32887 0.0
O116 O 0.38078 0.99636 0.29996 0.0
Co117 Co 0.42041 0.99931 0.30792 0.0
O118 O 0.40021 0.98138 0.31395 0.0
C119 C 0.4126 0.01101 0.26965 0.0
C120 C 0.37927 0.04467 0.29106 0.0
C121 C 0.38454 0.98254 0.30706 0.0
O122 O 0.3987 0.01683 0.27424 0.0
O123 O 0.42328 1.00491 0.2813 0.0
O124 O 0.38803 0.02709 0.32627 0.0
O125 O 0.41222 0.02157 0.31399 0.0
Co126 Co 0.27499 0.16898 0.50715 0.0
O127 O 0.30093 0.17355 0.50885 0.0
O128 O 0.28419 0.14843 0.51499 0.0
C129 C 0.27178 0.17974 0.47806 0.0
O130 O 0.24853 0.15746 0.5065 0.0
Co131 Co 0.25077 0.19609 0.50378 0.0
O132 O 0.23025 0.17568 0.49733 0.0
C133 C 0.27019 0.19404 0.54166 0.0
C134 C 0.30001 0.15725 0.51338 0.0
C135 C 0.23278 0.16041 0.50162 0.0
O136 O 0.27586 0.17996 0.5348 0.0
O137 O 0.26109 0.20281 0.53118 0.0
O138 O 0.27377 0.16325 0.47936 0.0
O139 O 0.27181 0.18932 0.49411 0.0
Co140 Co 0.1433 0.03747 0.79028 0.0
O141 O 0.13902 0.01141 0.7886 0.0
O142 O 0.16413 0.02866 0.78325 0.0
C143 C 0.13171 0.04081 0.81874 0.0
O144 O 0.1543 0.06424 0.79146 0.0
Co145 Co 0.1148 0.06047 0.79075 0.0
O146 O 0.13444 0.0818 0.79711 0.0
C147 C 0.11933 0.04074 0.75425 0.0
C148 C 0.15535 0.01264 0.78453 0.0
C149 C 0.15031 0.07989 0.79489 0.0
O150 O 0.13365 0.03654 0.76228 0.0
O151 O 0.10909 0.04901 0.76351 0.0
O152 O 0.14807 0.03857 0.81803 0.0
O153 O 0.12258 0.0405 0.80233 0.0
Co154 Co 0.29149 0.92521 0.99414 0.0
O155 O 0.26648 0.92145 0.9943 0.0
O156 O 0.28596 0.94665 0.00612 0.0
C157 C 0.29112 0.91456 0.96437 0.0
O158 O 0.31781 0.9334 0.99598 0.0
Co159 Co 0.30961 0.89175 0.98669 0.0
O160 O 0.33165 0.91031 0.98866 0.0
C161 C 0.29518 0.8995 0.0226 0.0
C162 C 0.26956 0.93789 0.00248 0.0
C163 C 0.33183 0.92695 0.99344 0.0
O164 O 0.29415 0.91544 0.0189 0.0
O165 O 0.29887 0.88729 0.01078 0.0
O166 O 0.28901 0.93105 0.96819 0.0
O167 O 0.29137 0.90474 0.97816 0.0
Co168 Co 0.29341 0.39009 0.03139 0.0
O169 O 0.26754 0.38573 0.02938 0.0
O170 O 0.2853 0.41191 0.03961 0.0
C171 C 0.29488 0.37614 0.00187 0.0
O172 O 0.32014 0.40102 0.03452 0.0
Co173 Co 0.31547 0.36048 0.03042 0.0
O174 O 0.33679 0.37974 0.03092 0.0
C175 C 0.29698 0.36726 0.064 0.0
C176 C 0.26916 0.40272 0.03534 0.0
C177 C 0.33534 0.3962 0.03346 0.0
O178 O 0.29436 0.38236 0.05829 0.0
O179 O 0.30354 0.35581 0.05384 0.0
O180 O 0.29267 0.39273 0.00419 0.0
O181 O 0.29514 0.36808 0.01709 0.0
Co182 Co 0.7787 0.13198 0.04199 0.0
O183 O 0.80373 0.13575 0.04911 0.0
O184 O 0.78419 0.11032 0.05029 0.0
C185 C 0.78086 0.14383 0.01497 0.0
O186 O 0.75242 0.12314 0.03578 0.0
Co187 Co 0.75847 0.16333 0.03518 0.0
O188 O 0.73886 0.14385 0.02307 0.0
C189 C 0.76772 0.1539 0.07417 0.0
C190 C 0.8006 0.11905 0.0525 0.0
C191 C 0.73882 0.12802 0.02747 0.0
O192 O 0.77504 0.14094 0.06806 0.0
O193 O 0.76117 0.16444 0.0636 0.0
O194 O 0.78203 0.12705 0.01549 0.0
O195 O 0.77925 0.15309 0.03065 0.0
Co196 Co 0.17814 0.53476 0.25499 0.0
O197 O 0.17365 0.50949 0.24975 0.0
O198 O 0.19899 0.52792 0.24597 0.0
C199 C 0.16773 0.53445 0.28268 0.0
O200 O 0.18718 0.56135 0.25957 0.0
Co201 Co 0.14689 0.5553 0.26145 0.0
O202 O 0.1666 0.57539 0.27169 0.0
C203 C 0.15479 0.54352 0.22265 0.0
C204 C 0.18994 0.51164 0.24561 0.0
C205 C 0.18228 0.57535 0.26719 0.0
O206 O 0.1682 0.53702 0.22891 0.0
O207 O 0.14447 0.55044 0.2331 0.0
O208 O 0.18423 0.53289 0.2817 0.0
O209 O 0.15793 0.53521 0.26711 0.0
Co210 Co 0.79311 0.89035 0.53216 0.0
O211 O 0.76722 0.88588 0.53005 0.0
O212 O 0.78489 0.91199 0.54082 0.0
C213 C 0.79431 0.87693 0.50228 0.0
O214 O 0.81988 0.90139 0.53566 0.0
Co215 Co 0.8156 0.86107 0.52958 0.0
O216 O 0.83517 0.88067 0.52513 0.0
C217 C 0.79767 0.86702 0.56413 0.0
C218 C 0.7688 0.9028 0.53626 0.0
C219 C 0.83431 0.89694 0.5305 0.0
O220 O 0.79409 0.88191 0.5587 0.0
O221 O 0.80487 0.85626 0.55374 0.0
O222 O 0.79229 0.89356 0.50504 0.0
O223 O 0.79486 0.86867 0.51735 0.0
Co224 Co 0.92446 0.02041 0.26591 0.0
O225 O 0.92929 0.04648 0.26851 0.0
O226 O 0.90337 0.02933 0.25675 0.0
C227 C 0.93746 0.01823 0.29579 0.0
O228 O 0.91325 0.9935 0.26218 0.0
Co229 Co 0.95376 0.99773 0.26764 0.0
O230 O 0.93417 0.97675 0.26757 0.0
C231 C 0.94778 0.01653 0.2339 0.0
C232 C 0.91272 0.04542 0.26166 0.0
C233 C 0.91789 0.97819 0.26405 0.0
O234 O 0.93287 0.01956 0.2394 0.0
O235 O 0.95882 0.0096 0.24418 0.0
O236 O 0.92118 0.02101 0.29301 0.0
O237 O 0.94569 0.0179 0.28075 0.0
Co238 Co 0.27457 0.6309 0.54092 0.0
O239 O 0.29982 0.63478 0.54584 0.0
O240 O 0.28107 0.60976 0.55008 0.0
C241 C 0.2749 0.64139 0.51304 0.0
O242 O 0.24799 0.62252 0.53714 0.0
Co243 Co 0.25513 0.66328 0.53343 0.0
O244 O 0.23381 0.64415 0.52728 0.0
C245 C 0.27123 0.65826 0.57196 0.0
C246 C 0.29737 0.61854 0.55057 0.0
C247 C 0.23382 0.62823 0.5315 0.0
O248 O 0.27328 0.64215 0.56696 0.0
O249 O 0.26603 0.66872 0.56039 0.0
O250 O 0.27586 0.62455 0.51385 0.0
O251 O 0.27436 0.65097 0.52873 0.0
Co252 Co 0.42416 0.52059 0.76517 0.0
O253 O 0.42904 0.54666 0.76684 0.0
O254 O 0.40314 0.52922 0.75558 0.0
C255 C 0.43689 0.51941 0.79535 0.0
O256 O 0.41272 0.49369 0.76219 0.0
Co257 Co 0.45292 0.49728 0.76876 0.0
O258 O 0.43314 0.47658 0.76849 0.0
C259 C 0.44695 0.51384 0.73314 0.0
C260 C 0.41239 0.54539 0.76014 0.0
C261 C 0.41702 0.47829 0.76443 0.0
O262 O 0.43282 0.51885 0.73875 0.0
O263 O 0.45726 0.50639 0.74379 0.0
O264 O 0.42069 0.52229 0.79223 0.0
O265 O 0.44522 0.51828 0.78045 0.0
Co266 Co 0.67947 0.0365 0.757 0.0
O267 O 0.67477 0.01098 0.7514 0.0
O268 O 0.69964 0.02967 0.74679 0.0
C269 C 0.67066 0.03717 0.78571 0.0
O270 O 0.68893 0.06306 0.76109 0.0
Co271 Co 0.64817 0.05705 0.76471 0.0
O272 O 0.66716 0.07863 0.76679 0.0
C273 C 0.65461 0.04525 0.72551 0.0
C274 C 0.69072 0.01334 0.74618 0.0
C275 C 0.6832 0.07778 0.76412 0.0
O276 O 0.66843 0.03905 0.73123 0.0
O277 O 0.6444 0.05163 0.7365 0.0
O278 O 0.68665 0.03444 0.78359 0.0
O279 O 0.66019 0.03765 0.77054 0.0
Co280 Co 0.77437 0.66881 0.00664 0.0
O281 O 0.80024 0.67292 0.0084 0.0
O282 O 0.78307 0.64773 0.01376 0.0
C283 C 0.77135 0.68035 0.97807 0.0
O284 O 0.74765 0.65802 0.00552 0.0
Co285 Co 0.75197 0.69794 0.00503 0.0
O286 O 0.73046 0.6786 0.00162 0.0
C287 C 0.77175 0.69414 0.04184 0.0
C288 C 0.79902 0.65646 0.01245 0.0
C289 C 0.73217 0.66247 0.00338 0.0
O290 O 0.77552 0.67917 0.03456 0.0
O291 O 0.76388 0.7042 0.03182 0.0
O292 O 0.773 0.66369 0.9788 0.0
O293 O 0.77187 0.68964 0.99439 0.0
Co294 Co 0.89088 0.52186 0.80054 0.0
O295 O 0.89485 0.5469 0.79836 0.0
O296 O 0.86912 0.52734 0.78954 0.0
C297 C 0.90379 0.52458 0.8301 0.0
O298 O 0.88197 0.49557 0.80104 0.0
Co299 Co 0.92292 0.50199 0.80863 0.0
O300 O 0.90413 0.48076 0.80912 0.0
C301 C 0.91395 0.51345 0.77083 0.0
C302 C 0.87809 0.54375 0.7916 0.0
C303 C 0.88777 0.48135 0.80468 0.0
O304 O 0.89899 0.51707 0.7751 0.0
O305 O 0.92564 0.50909 0.78272 0.0
O306 O 0.88727 0.52655 0.8271 0.0
O307 O 0.91208 0.52244 0.8154 0.0
Co308 Co 0.79085 0.42477 0.49533 0.0
O309 O 0.76596 0.42134 0.49582 0.0
O310 O 0.78539 0.44712 0.50508 0.0
C311 C 0.78986 0.41119 0.46651 0.0
O312 O 0.81727 0.43273 0.4961 0.0
Co313 Co 0.80913 0.39102 0.49091 0.0
O314 O 0.82991 0.40912 0.48703 0.0
C315 C 0.79928 0.40431 0.52802 0.0
C316 C 0.76899 0.43826 0.50241 0.0
C317 C 0.83062 0.42587 0.49159 0.0
O318 O 0.79385 0.4177 0.52139 0.0
O319 O 0.8049 0.39194 0.51818 0.0
O320 O 0.78799 0.4279 0.46865 0.0
O321 O 0.79033 0.40293 0.48151 0.0
Co322 Co 0.64252 0.53792 0.29029 0.0
O323 O 0.63797 0.51175 0.28759 0.0
O324 O 0.66324 0.52911 0.28298 0.0
C325 C 0.63128 0.5406 0.31902 0.0
O326 O 0.65381 0.56478 0.29224 0.0
Co327 Co 0.61439 0.56138 0.2925 0.0
O328 O 0.63413 0.5826 0.29768 0.0
C329 C 0.61776 0.54195 0.25527 0.0
C330 C 0.6544 0.51302 0.28382 0.0
C331 C 0.64996 0.58054 0.29546 0.0
O332 O 0.63244 0.53776 0.26248 0.0
O333 O 0.60794 0.54997 0.26541 0.0
O334 O 0.64752 0.53812 0.31793 0.0
O335 O 0.62203 0.54084 0.30283 0.0
Tb336 Tb 0.05767 0.03954 0.03859 0.0
C337 C 0.99947 0.98044 0.99075 0.0
N338 N 1.0078 0.99676 0.9866 0.0
C339 C 1.0073 0.98463 0.95406 0.0
C340 C 0.99473 0.96557 0.9766 0.0
C341 C 0.01165 0.99905 0.96849 0.0
C342 C 0.99879 0.96783 0.95811 0.0
C343 C 0.98678 0.96203 0.014 0.0
C344 C 0.99543 0.97871 0.00924 0.0
C345 C 0.98199 0.94722 0.9999 0.0
C346 C 0.98591 0.94899 0.98126 0.0
Tb347 Tb 0.01145 0.01944 0.01099 0.0
N348 N 1.00023 0.99334 0.02259 0.0
C349 C 0.98308 0.96076 0.03276 0.0
C350 C 0.9959 0.99232 0.04067 0.0
C351 C 0.98763 0.97599 0.04613 0.0
H352 H 0.01719 0.01215 0.96477 0.0
H353 H 0.98444 0.97527 0.06058 0.0
H354 H 0.05101 0.05109 0.08358 0.0
H355 H 0.09702 0.07556 0.99074 0.0
H356 H 0.99837 1.00401 0.05086 0.0
H357 H 0.9765 0.94816 0.03701 0.0
H358 H 0.07981 0.04918 0.00184 0.0
H359 H 1.01019 0.98658 0.93972 0.0
H360 H 0.9752 0.93434 0.00327 0.0
H361 H 0.98204 0.93745 0.97053 0.0
H362 H 0.05742 0.07828 0.10654 0.0
H363 H 0.99525 0.95674 0.94682 0.0
H364 H 0.103 0.10493 0.01081 0.0
N365 N 0.06208 0.06409 0.06109 0.0
C366 C 0.0716 0.0795 0.05618 0.0
C367 C 0.06124 0.0789 0.09232 0.0
C368 C 0.07605 0.09534 0.06909 0.0
C369 C 0.05719 0.06353 0.07905 0.0
C370 C 0.0706 0.09492 0.08729 0.0
N371 N 0.07323 0.06351 0.02645 0.0
C372 C 0.08076 0.06201 0.00991 0.0
C373 C 0.08791 0.09468 0.03292 0.0
C374 C 0.07739 0.07919 0.0383 0.0
C375 C 0.09454 0.09347 0.0153 0.0
C376 C 0.09112 0.07699 0.00387 0.0
H377 H 0.07388 0.10676 0.09767 0.0
H378 H 0.08965 0.12323 0.07333 0.0
H379 H 0.10011 0.12262 0.0417 0.0
O380 O 0.08038 0.02866 0.03318 0.0
O381 O 0.04214 0.06051 0.0301 0.0
O382 O 0.02142 0.04725 0.00451 0.0
O383 O 0.07735 0.04089 0.06158 0.0
O384 O 0.05627 0.02557 0.00931 0.0
O385 O 0.03089 0.03107 0.99307 0.0
O386 O 0.98713 0.02551 0.01852 0.0
O387 O 0.02889 0.99963 0.01855 0.0
O388 O 0.04551 0.01298 0.04632 0.0
O389 O 0.99012 0.01658 0.98954 0.0
O390 O 0.01185 0.03458 0.03927 0.0
O391 O 0.03718 0.03 0.05635 0.0
C392 C 0.03084 0.06176 0.01515 0.0
C393 C 0.1041 0.02893 0.0586 0.0
C394 C 0.12969 0.01549 0.05362 0.0
C395 C 0.13532 0.01831 0.07319 0.0
C396 C 0.10975 0.03198 0.07824 0.0
C397 C 0.12538 0.02669 0.08548 0.0
C398 C 0.11427 0.02092 0.04631 0.0
C399 C 0.0474 0.02856 0.99343 0.0
C400 C 0.08702 0.03277 0.051 0.0
C401 C 0.0861 0.11093 0.0636 0.0
C402 C 0.09202 0.1106 0.04556 0.0
C403 C 0.03852 0.99834 0.03468 0.0
C404 C 0.97109 0.03715 0.99425 0.0
C405 C 0.94816 0.05483 0.99783 0.0
C406 C 0.95162 0.06228 0.981 0.0
C407 C 0.97485 0.04483 0.97749 0.0
C408 C 0.95789 0.0424 0.00448 0.0
C409 C 0.96511 0.05738 0.97094 0.0
C410 C 0.02102 0.03353 0.05562 0.0
C411 C 0.97993 0.02296 0.00086 0.0
H412 H 0.14739 0.0141 0.07887 0.0
H413 H 0.10195 0.0381 0.08801 0.0
H414 H 0.12968 0.02892 0.10061 0.0
H415 H 0.11001 0.01842 0.03112 0.0
H416 H 0.94391 0.07181 0.97572 0.0
H417 H 0.98509 0.04101 0.96933 0.0
H418 H 0.95483 0.03645 0.01735 0.0
H419 H 0.96787 0.06314 0.95796 0.0
Tb420 Tb 0.26757 0.78173 0.29927 0.0
C421 C 0.30916 0.74958 0.22771 0.0
N422 N 0.31554 0.76436 0.24037 0.0
C423 C 0.34504 0.75764 0.24123 0.0
C424 C 0.32043 0.73791 0.22163 0.0
C425 C 0.33327 0.76869 0.24692 0.0
C426 C 0.33857 0.74208 0.22863 0.0
C427 C 0.28392 0.7306 0.20817 0.0
C428 C 0.29122 0.74609 0.22106 0.0
C429 C 0.29501 0.71882 0.20215 0.0
C430 C 0.31325 0.72248 0.20885 0.0
Tb431 Tb 0.29553 0.78125 0.24995 0.0
N432 N 0.2809 0.75764 0.22761 0.0
C433 C 0.26569 0.72735 0.20178 0.0
C434 C 0.26302 0.75439 0.22119 0.0
C435 C 0.25525 0.73939 0.20822 0.0
H436 H 0.33848 0.78101 0.25608 0.0
H437 H 0.24114 0.73712 0.20322 0.0
H438 H 0.22508 0.78466 0.28919 0.0
H439 H 0.31934 0.82074 0.35292 0.0
H440 H 0.25432 0.76299 0.22577 0.0
H441 H 0.25957 0.71564 0.19187 0.0
H442 H 0.30755 0.79857 0.32582 0.0
H443 H 0.35911 0.7612 0.24648 0.0
H444 H 0.28961 0.70684 0.19233 0.0
H445 H 0.32167 0.71329 0.20408 0.0
H446 H 0.20447 0.80419 0.29922 0.0
H447 H 0.34769 0.7335 0.22427 0.0
H448 H 0.29996 0.84012 0.36658 0.0
N449 N 0.24718 0.79866 0.30835 0.0
C450 C 0.25273 0.81155 0.3234 0.0
C451 C 0.2181 0.8066 0.30599 0.0
C452 C 0.24131 0.82288 0.32995 0.0
C453 C 0.22995 0.7958 0.29996 0.0
C454 C 0.22385 0.82033 0.32093 0.0
N455 N 0.28087 0.8031 0.3245 0.0
C456 C 0.2984 0.80565 0.33205 0.0
C457 C 0.27659 0.82738 0.34719 0.0
C458 C 0.27006 0.81366 0.33201 0.0
C459 C 0.29442 0.82971 0.35498 0.0
C460 C 0.30537 0.81878 0.34734 0.0
H461 H 0.21466 0.82873 0.32555 0.0
H462 H 0.23913 0.84532 0.35028 0.0
H463 H 0.27011 0.84934 0.36532 0.0
O464 O 0.2712 0.76236 0.31763 0.0
O465 O 0.27906 0.80922 0.29654 0.0
O466 O 0.28584 0.79329 0.27329 0.0
O467 O 0.24482 0.76632 0.3077 0.0
O468 O 0.29531 0.77516 0.30202 0.0
O469 O 0.31308 0.78402 0.27761 0.0
O470 O 0.29282 0.79729 0.22817 0.0
O471 O 0.29008 0.75564 0.26057 0.0
O472 O 0.26667 0.76391 0.27309 0.0
O473 O 0.31777 0.80101 0.24657 0.0
O474 O 0.26828 0.78838 0.2459 0.0
O475 O 0.25089 0.78223 0.27137 0.0
C476 C 0.28733 0.80929 0.28185 0.0
C477 C 0.24965 0.75905 0.33882 0.0
C478 C 0.25453 0.74895 0.36962 0.0
C479 C 0.24195 0.75861 0.37638 0.0
C480 C 0.23696 0.76872 0.34543 0.0
C481 C 0.23315 0.76845 0.36422 0.0
C482 C 0.2583 0.74921 0.35094 0.0
C483 C 0.31096 0.77825 0.29467 0.0
C484 C 0.25421 0.75868 0.31943 0.0
C485 C 0.24768 0.83643 0.34515 0.0
C486 C 0.26529 0.83868 0.35376 0.0
C487 C 0.27703 0.7521 0.27088 0.0
C488 C 0.3184 0.80767 0.21457 0.0
C489 C 0.31831 0.8196 0.18438 0.0
C490 C 0.33245 0.81111 0.17998 0.0
C491 C 0.33267 0.79919 0.21041 0.0
C492 C 0.31145 0.81798 0.20161 0.0
C493 C 0.33968 0.80096 0.19308 0.0
C494 C 0.25286 0.78668 0.25372 0.0
C495 C 0.30939 0.80558 0.23152 0.0
H496 H 0.23867 0.75815 0.39083 0.0
H497 H 0.22998 0.77638 0.33617 0.0
H498 H 0.22327 0.77573 0.3693 0.0
H499 H 0.26799 0.74161 0.34579 0.0
H500 H 0.33795 0.81249 0.16661 0.0
H501 H 0.33831 0.79123 0.22031 0.0
H502 H 0.30044 0.8246 0.20482 0.0
H503 H 0.35067 0.79444 0.1898 0.0
Tb504 Tb 0.50973 0.02612 0.53637 0.0
C505 C 0.5748 0.06711 0.49829 0.0
N506 N 0.56391 0.051 0.4918 0.0
C507 C 0.56298 0.05888 0.45988 0.0
C508 C 0.57973 0.07995 0.48578 0.0
C509 C 0.55872 0.04643 0.47275 0.0
C510 C 0.57333 0.0758 0.46645 0.0
C511 C 0.59372 0.08658 0.52442 0.0
C512 C 0.58172 0.07049 0.51748 0.0
C513 C 0.5983 0.09954 0.51204 0.0
C514 C 0.59126 0.09627 0.49281 0.0
Tb515 Tb 0.55878 0.03229 0.51469 0.0
N516 N 0.57659 0.05794 0.52935 0.0
C517 C 0.60106 0.08898 0.54352 0.0
C518 C 0.58421 0.05991 0.54776 0.0
C519 C 0.59634 0.07557 0.55521 0.0
H520 H 0.5519 0.033 0.46727 0.0
H521 H 0.60234 0.07712 0.56985 0.0
H522 H 0.52028 0.0259 0.58378 0.0
H523 H 0.46053 0.98183 0.48579 0.0
H524 H 0.58141 0.04924 0.55649 0.0
H525 H 0.61083 0.10085 0.54919 0.0
H526 H 0.48372 0.00873 0.49677 0.0
H527 H 0.55863 0.05527 0.44484 0.0
H528 H 0.60744 0.11206 0.51715 0.0
H529 H 0.59513 0.10632 0.48339 0.0
H530 H 0.51436 1.00466 0.60711 0.0
H531 H 0.57681 0.08532 0.45638 0.0
H532 H 0.45327 0.95864 0.50748 0.0
N533 N 0.50604 0.00776 0.56007 0.0
C534 C 0.49423 0.992 0.55483 0.0
C535 C 0.50897 1.00073 0.59237 0.0
C536 C 0.4899 0.97969 0.56809 0.0
C537 C 0.51267 0.01262 0.57884 0.0
C538 C 0.49779 0.98406 0.58693 0.0
N539 N 0.48982 1.00083 0.52397 0.0
C540 C 0.48076 0.99873 0.50617 0.0
C541 C 0.47249 0.97293 0.53075 0.0
C542 C 0.48557 0.98861 0.53637 0.0
C543 C 0.46346 0.97047 0.51231 0.0
C544 C 0.46753 0.98351 0.50002 0.0
H545 H 0.49475 0.975 0.59755 0.0
H546 H 0.47393 0.95413 0.57234 0.0
H547 H 0.4587 0.94822 0.53966 0.0
O548 O 0.48777 0.03828 0.52616 0.0
O549 O 0.51683 1.00068 0.52222 0.0
O550 O 0.54314 1.00459 0.50696 0.0
O551 O 0.49347 0.03416 0.55578 0.0
O552 O 0.51811 0.03846 0.51155 0.0
O553 O 0.53588 0.02513 0.49335 0.0
O554 O 0.58045 0.02159 0.52689 0.0
O555 O 0.54959 0.05747 0.52607 0.0
O556 O 0.52692 0.05283 0.54599 0.0
O557 O 0.57832 0.02683 0.49763 0.0
O558 O 0.54999 0.01886 0.53842 0.0
O559 O 0.53324 0.03315 0.55658 0.0
C560 C 0.52871 0.99436 0.51203 0.0
C561 C 0.46871 0.04901 0.54966 0.0
C562 C 0.44346 0.06429 0.54418 0.0
C563 C 0.44222 0.06606 0.56381 0.0
C564 C 0.46703 0.05099 0.56927 0.0
C565 C 0.45394 0.05946 0.57624 0.0
C566 C 0.45684 0.05583 0.53699 0.0
C567 C 0.52053 0.0299 0.4955 0.0
C568 C 0.48344 0.04048 0.54337 0.0
C569 C 0.47734 0.96375 0.56235 0.0
C570 C 0.46863 0.9604 0.54375 0.0
C571 C 0.5393 0.0635 0.53833 0.0
C572 C 0.59298 1.00317 0.50479 0.0
C573 C 0.61564 0.9843 0.50628 0.0
C574 C 0.60636 0.97323 0.4902 0.0
C575 C 0.5837 0.99169 0.48888 0.0
C576 C 0.60892 0.99929 0.51363 0.0
C577 C 0.59041 0.97685 0.48164 0.0
C578 C 0.54796 0.02736 0.55446 0.0
C579 C 0.58724 0.02019 0.51082 0.0
H580 H 0.43209 0.07261 0.56955 0.0
H581 H 0.47597 0.04609 0.57943 0.0
H582 H 0.45288 0.06093 0.59136 0.0
H583 H 0.45793 0.05454 0.52186 0.0
H584 H 0.61151 0.96177 0.48425 0.0
H585 H 0.57145 0.9944 0.48175 0.0
H586 H 0.61631 0.00813 0.52578 0.0
H587 H 0.58335 0.96826 0.4692 0.0
Tb588 Tb 0.30827 0.26954 0.77611 0.0
C589 C 0.24334 0.29507 0.73344 0.0
N590 N 0.25412 0.30366 0.74918 0.0
C591 C 0.25571 0.33182 0.73616 0.0
C592 C 0.23861 0.30453 0.71821 0.0
C593 C 0.26009 0.32186 0.75088 0.0
C594 C 0.24499 0.32312 0.71971 0.0
C595 C 0.22668 0.2671 0.71611 0.0
C596 C 0.23747 0.27658 0.73239 0.0
C597 C 0.22186 0.27648 0.70091 0.0
C598 C 0.22781 0.29514 0.70196 0.0
Tb599 Tb 0.26037 0.28582 0.77202 0.0
N600 N 0.24304 0.26782 0.74704 0.0
C601 C 0.22118 0.24845 0.71555 0.0
C602 C 0.237 0.24982 0.74695 0.0
C603 C 0.22621 0.23981 0.73112 0.0
H604 H 0.26784 0.32884 0.76376 0.0
H605 H 0.22166 0.22547 0.73103 0.0
H606 H 0.30118 0.22638 0.78355 0.0
H607 H 0.35377 0.32746 0.81366 0.0
H608 H 0.24011 0.24315 0.75909 0.0
H609 H 0.21288 0.24065 0.70328 0.0
H610 H 0.33291 0.31042 0.78687 0.0
H611 H 0.26051 0.34623 0.73756 0.0
H612 H 0.21359 0.26942 0.68826 0.0
H613 H 0.22404 0.30218 0.6901 0.0
H614 H 0.30806 0.20861 0.80958 0.0
H615 H 0.24165 0.33088 0.70831 0.0
H616 H 0.36157 0.31252 0.84197 0.0
N617 N 0.31558 0.25124 0.79821 0.0
C618 C 0.32669 0.25942 0.81386 0.0
C619 C 0.31327 0.22294 0.81105 0.0
C620 C 0.33118 0.24978 0.82902 0.0
C621 C 0.30923 0.23311 0.79638 0.0
C622 C 0.32414 0.23133 0.82754 0.0
N623 N 0.32832 0.28636 0.7999 0.0
C624 C 0.33587 0.3039 0.79918 0.0
C625 C 0.34529 0.28673 0.83041 0.0
C626 C 0.33353 0.27759 0.81463 0.0
C627 C 0.3524 0.30499 0.83018 0.0
C628 C 0.34793 0.31351 0.8143 0.0
H629 H 0.32721 0.22342 0.8389 0.0
H630 H 0.34608 0.25172 0.85693 0.0
H631 H 0.35854 0.28409 0.85809 0.0
O632 O 0.32929 0.27872 0.75963 0.0
O633 O 0.29916 0.27912 0.80346 0.0
O634 O 0.27812 0.2974 0.79785 0.0
O635 O 0.32191 0.25085 0.7637 0.0
O636 O 0.305 0.29415 0.76312 0.0
O637 O 0.28409 0.30744 0.7776 0.0
O638 O 0.23683 0.27619 0.78538 0.0
O639 O 0.27219 0.27901 0.7453 0.0
O640 O 0.28715 0.25712 0.75362 0.0
O641 O 0.24448 0.30405 0.78007 0.0
O642 O 0.26304 0.26213 0.78702 0.0
O643 O 0.28403 0.24854 0.77304 0.0
C644 C 0.28909 0.29058 0.80926 0.0
C645 C 0.35096 0.2594 0.75419 0.0
C646 C 0.37737 0.26164 0.73664 0.0
C647 C 0.38247 0.2475 0.74584 0.0
C648 C 0.35687 0.24558 0.76344 0.0
C649 C 0.3724 0.23967 0.75919 0.0
C650 C 0.36151 0.26766 0.74087 0.0
C651 C 0.29918 0.30852 0.76987 0.0
C652 C 0.33243 0.26254 0.75573 0.0
C653 C 0.34256 0.25886 0.84506 0.0
C654 C 0.34964 0.27729 0.84573 0.0
C655 C 0.28034 0.26564 0.7405 0.0
C656 C 0.21675 0.29775 0.79377 0.0
C657 C 0.19158 0.29509 0.81315 0.0
C658 C 0.18736 0.3109 0.80668 0.0
C659 C 0.21189 0.31348 0.78768 0.0
C660 C 0.20634 0.28831 0.8065 0.0
C661 C 0.19738 0.31994 0.79406 0.0
C662 C 0.26988 0.24781 0.78239 0.0
C663 C 0.233 0.29229 0.78678 0.0
H664 H 0.39436 0.24246 0.74262 0.0
H665 H 0.3491 0.23876 0.77346 0.0
H666 H 0.37648 0.22868 0.76604 0.0
H667 H 0.35702 0.27805 0.73327 0.0
H668 H 0.17616 0.31633 0.81145 0.0
H669 H 0.21939 0.32096 0.7779 0.0
H670 H 0.20988 0.27622 0.81149 0.0
H671 H 0.19391 0.33211 0.78925 0.0
Tb672 Tb 0.04098 1.00444 0.52268 0.0
C673 C 0.01904 0.07023 0.56377 0.0
N674 N 0.01091 0.06053 0.54714 0.0
C675 C 0.98217 0.06074 0.55799 0.0
C676 C 1.00898 0.07504 0.57839 0.0
C677 C 0.99263 0.05696 0.54363 0.0
C678 C 0.9904 0.06953 0.57559 0.0
C679 C 0.04584 0.08891 0.58133 0.0
C680 C 0.03731 0.07698 0.56539 0.0
C681 C 0.0359 0.09335 0.59605 0.0
C682 C 0.01761 0.08619 0.59476 0.0
Tb683 Tb 0.03003 0.05483 0.52543 0.0
N684 N 0.04649 0.07283 0.55065 0.0
C685 C 0.06386 0.09677 0.58151 0.0
C686 C 0.06356 0.08169 0.54994 0.0
C687 C 0.07267 0.09339 0.5656 0.0
H688 H 0.98591 0.05136 0.5297 0.0
H689 H 0.08639 0.09993 0.5653 0.0
H690 H 0.08504 0.00992 0.5185 0.0
H691 H 0.98444 0.96111 0.48025 0.0
H692 H 0.07013 0.07939 0.5374 0.0
H693 H 0.07089 0.10599 0.59355 0.0
H694 H 1.00043 0.97983 0.50916 0.0
H695 H 0.96774 0.05732 0.5553 0.0
H696 H 0.04206 0.10291 0.60812 0.0
H697 H 1.01008 0.0901 0.60608 0.0
H698 H 0.1036 1.00449 0.49304 0.0
H699 H 0.98222 0.0729 0.58651 0.0
H700 H 1.00068 0.95504 0.4526 0.0
N701 N 0.06041 0.99814 0.50155 0.0
C702 C 0.05271 0.98799 0.48503 0.0
C703 C 0.08926 0.99996 0.49052 0.0
C704 C 0.06292 0.98418 0.47021 0.0
C705 C 0.07858 1.00327 0.50485 0.0
C706 C 0.08137 0.99064 0.473 0.0
N707 N 0.02514 0.98525 0.49768 0.0
C708 C 1.0075 0.97776 0.49703 0.0
C709 C 0.02601 0.97043 0.46633 0.0
C710 C 0.03451 0.98116 0.4831 0.0
C711 C 1.00771 0.96341 0.46522 0.0
C712 C 0.99848 0.96688 0.48076 0.0
H713 H 0.08969 0.98808 0.46194 0.0
H714 H 0.06204 0.97098 0.44162 0.0
H715 H 0.02971 0.95893 0.43823 0.0
O716 O 0.03377 0.97813 0.53049 0.0
O717 O 0.03396 0.01605 0.49559 0.0
O718 O 0.01494 0.03602 0.50185 0.0
O719 O 0.0591 0.99491 0.54161 0.0
O720 O 0.01467 1.00628 0.53154 0.0
O721 O 1.00613 0.03272 0.52247 0.0
O722 O 0.03816 0.07071 0.50357 0.0
O723 O 0.04765 0.04737 0.54873 0.0
O724 O 0.03423 0.01847 0.54857 0.0
O725 O 0.02154 0.07938 0.52353 0.0
O726 O 0.05235 0.04796 0.51105 0.0
O727 O 0.06386 0.02732 0.52774 0.0
C728 C 0.02111 0.02477 0.49005 0.0
C729 C 0.05567 0.96347 0.54574 0.0
C730 C 0.05512 0.93659 0.56258 0.0
C731 C 0.07171 0.93486 0.55655 0.0
C732 C 0.07215 0.96127 0.53978 0.0
C733 C 0.08007 0.94702 0.54515 0.0
C734 C 0.04704 0.95091 0.55701 0.0
C735 C 1.00265 0.01638 0.52808 0.0
C736 C 0.04822 0.97971 0.5422 0.0
C737 C 0.05444 0.9739 0.45324 0.0
C738 C 0.03603 0.96702 0.45131 0.0
C739 C 0.04437 0.03302 0.55762 0.0
C740 C 0.01943 0.09132 0.49442 0.0
C741 C 0.01659 0.11727 0.47693 0.0
C742 C 0.99803 0.11081 0.47378 0.0
C743 C 1.00102 0.08483 0.49008 0.0
C744 C 0.02732 0.10734 0.48738 0.0
C745 C 0.9904 0.09464 0.47998 0.0
C746 C 0.06601 0.04171 0.51853 0.0
C747 C 0.02966 0.08332 0.50893 0.0
H748 H 0.07825 0.92406 0.56073 0.0
H749 H 0.07908 0.97078 0.53132 0.0
H750 H 0.09289 0.94553 0.54068 0.0
H751 H 0.03443 0.95265 0.56196 0.0
H752 H 0.98932 0.11819 0.46618 0.0
H753 H 0.99472 0.07263 0.49535 0.0
H754 H 0.04153 0.11251 0.49088 0.0
H755 H 0.97612 0.08982 0.47718 0.0
Tb756 Tb 0.28773 0.80473 0.76098 0.0
C757 C 0.24934 0.74135 0.80253 0.0
N758 N 0.26515 0.75301 0.80768 0.0
C759 C 0.25843 0.75634 0.83999 0.0
C760 C 0.23724 0.73715 0.81589 0.0
C761 C 0.2701 0.75995 0.82632 0.0
C762 C 0.24186 0.74505 0.83473 0.0
C763 C 0.22938 0.72082 0.77808 0.0
C764 C 0.24544 0.73321 0.78385 0.0
C765 C 0.2172 0.71681 0.79129 0.0
C766 C 0.2211 0.72497 0.81013 0.0
Tb767 Tb 0.2829 0.75681 0.78376 0.0
N768 N 0.25733 0.73767 0.77125 0.0
C769 C 0.22614 0.71274 0.75924 0.0
C770 C 0.25453 0.7294 0.75309 0.0
C771 C 0.2388 0.71704 0.74672 0.0
H772 H 0.28325 0.76782 0.83098 0.0
H773 H 0.23661 0.71071 0.73225 0.0
H774 H 0.28807 0.79573 0.7137 0.0
H775 H 0.33304 0.84945 0.81488 0.0
H776 H 0.26449 0.73204 0.74363 0.0
H777 H 0.21411 0.70292 0.75433 0.0
H778 H 0.30503 0.82861 0.80203 0.0
H779 H 0.2624 0.76199 0.85465 0.0
H780 H 0.20476 0.70734 0.78711 0.0
H781 H 0.21164 0.7216 0.8202 0.0
H782 H 0.30944 0.8028 0.69065 0.0
H783 H 0.23292 0.74215 0.84542 0.0
H784 H 0.35644 0.85743 0.79382 0.0
N785 N 0.30578 0.80984 0.73761 0.0
C786 C 0.32163 0.82127 0.74352 0.0
C787 C 0.3131 0.80789 0.70552 0.0
C788 C 0.33399 0.82612 0.73062 0.0
C789 C 0.30114 0.8036 0.71877 0.0
C790 C 0.32965 0.81907 0.71148 0.0
N791 N 0.31323 0.82333 0.77477 0.0
C792 C 0.31548 0.83125 0.79309 0.0
C793 C 0.34136 0.84069 0.7691 0.0
C794 C 0.32532 0.82853 0.76257 0.0
C795 C 0.3443 0.84796 0.78825 0.0
C796 C 0.33119 0.8434 0.80023 0.0
H797 H 0.33881 0.82248 0.70112 0.0
H798 H 0.35981 0.84192 0.72742 0.0
H799 H 0.36623 0.85466 0.76105 0.0
O800 O 0.27553 0.82562 0.77258 0.0
O801 O 0.31329 0.79593 0.77109 0.0
O802 O 0.30948 0.77422 0.79234 0.0
O803 O 0.28254 0.82456 0.74397 0.0
O804 O 0.2763 0.79844 0.78688 0.0
O805 O 0.29137 0.78053 0.80337 0.0
O806 O 0.29376 0.73388 0.77338 0.0
O807 O 0.25732 0.76583 0.77341 0.0
O808 O 0.26134 0.78719 0.75162 0.0
O809 O 0.29143 0.7409 0.80337 0.0
O810 O 0.29448 0.76402 0.75839 0.0
O811 O 0.27992 0.78105 0.74038 0.0
C812 C 0.31968 0.78624 0.78379 0.0
C813 C 0.25866 0.83916 0.74993 0.0
C814 C 0.24056 0.86253 0.751 0.0
C815 C 0.23082 0.85439 0.73367 0.0
C816 C 0.24843 0.83094 0.73282 0.0
C817 C 0.23464 0.83859 0.72474 0.0
C818 C 0.25446 0.85485 0.75919 0.0
C819 C 0.28528 0.79535 0.80232 0.0
C820 C 0.2751 0.83302 0.75678 0.0
C821 C 0.35014 0.83806 0.73714 0.0
C822 C 0.3538 0.84533 0.7563 0.0
C823 C 0.25097 0.77542 0.76041 0.0
C824 C 0.30453 0.71485 0.79713 0.0
C825 C 0.32151 0.69075 0.79244 0.0
C826 C 0.32158 0.68838 0.81176 0.0
C827 C 0.30472 0.71201 0.81645 0.0
C828 C 0.31292 0.70401 0.78499 0.0
C829 C 0.31318 0.69892 0.82365 0.0
C830 C 0.2855 0.76598 0.74252 0.0
C831 C 0.29666 0.73008 0.79081 0.0
H832 H 0.22022 0.8603 0.72707 0.0
H833 H 0.25145 0.81891 0.72536 0.0
H834 H 0.22708 0.83242 0.71136 0.0
H835 H 0.26239 0.86143 0.77226 0.0
H836 H 0.3282 0.67831 0.81766 0.0
H837 H 0.2985 0.72011 0.82622 0.0
H838 H 0.3131 0.70606 0.77013 0.0
H839 H 0.31334 0.69702 0.83856 0.0
Tb840 Tb 0.53193 0.04373 0.99854 0.0
C841 C 0.5656 1.004 0.06978 0.0
N842 N 0.55184 0.99681 0.05619 0.0
C843 C 0.56072 0.96804 0.05578 0.0
C844 C 0.57783 0.99354 0.07657 0.0
C845 C 0.54896 0.97896 0.04955 0.0
C846 C 0.57534 0.9754 0.06923 0.0
C847 C 0.5816 0.02986 0.09102 0.0
C848 C 0.56743 0.02191 0.07681 0.0
C849 C 0.59393 0.01958 0.0977 0.0
C850 C 0.59206 1.00147 0.09047 0.0
Tb851 Tb 0.5336 0.01559 0.04623 0.0
N852 N 0.55557 0.03161 0.06947 0.0
C853 C 0.58305 0.04792 0.09804 0.0
C854 C 0.55661 0.04908 0.07712 0.0
C855 C 0.57037 0.05749 0.09119 0.0
H856 H 0.53734 0.97298 0.03973 0.0
H857 H 0.57105 0.07137 0.0969 0.0
H858 H 0.52545 0.08493 0.01181 0.0
H859 H 0.48959 0.98849 0.95146 0.0
H860 H 0.54686 0.05681 0.07322 0.0
H861 H 0.59371 0.05451 0.10894 0.0
H862 H 0.51127 1.00117 0.9788 0.0
H863 H 0.55842 0.95392 0.05031 0.0
H864 H 0.60493 0.02551 0.10849 0.0
H865 H 0.60164 0.99367 0.09579 0.0
H866 H 0.50603 0.10531 0.00052 0.0
H867 H 0.58444 0.96692 0.07407 0.0
H868 H 0.47284 0.00817 0.93425 0.0
N869 N 0.51347 0.06305 0.99095 0.0
C870 C 0.50099 0.0571 0.97572 0.0
C871 C 0.50444 0.09177 0.99344 0.0
C872 C 0.48981 0.06838 0.96856 0.0
C873 C 0.51528 0.08009 0.99996 0.0
C874 C 0.49172 0.08593 0.97759 0.0
N875 N 0.50864 0.02844 0.97673 0.0
C876 C 0.5049 0.01027 0.97131 0.0
C877 C 0.48538 0.0323 0.95279 0.0
C878 C 0.49869 0.03924 0.96812 0.0
C879 C 0.4827 0.01398 0.94623 0.0
C880 C 0.49217 1.00284 0.95585 0.0
H881 H 0.48336 0.09502 0.97255 0.0
H882 H 0.46828 0.07018 0.94708 0.0
H883 H 0.46465 0.03866 0.93302 0.0
O884 O 0.54606 0.04244 0.97468 0.0
O885 O 0.50566 0.03802 0.00732 0.0
O886 O 0.518 0.01793 0.02035 0.0
O887 O 0.54642 0.06802 0.99172 0.0
O888 O 0.53992 0.01659 0.9938 0.0
O889 O 0.53365 0.99843 0.01869 0.0
O890 O 0.51914 0.01653 0.06955 0.0
O891 O 0.55952 0.0215 0.03671 0.0
O892 O 0.55043 0.04396 0.02363 0.0
O893 O 0.51631 0.99164 0.05045 0.0
O894 O 0.52441 0.04214 0.04969 0.0
O895 O 0.53614 0.05995 0.027 0.0
C896 C 0.50422 0.02559 0.0184 0.0
C897 C 0.56237 0.06938 0.96413 0.0
C898 C 0.57509 0.06915 0.93433 0.0
C899 C 0.58181 0.08774 0.93838 0.0
C900 C 0.56919 0.08792 0.96821 0.0
C901 C 0.57891 0.09705 0.95533 0.0
C902 C 0.56547 0.06004 0.94727 0.0
C903 C 0.53861 1.0009 0.00135 0.0
C904 C 0.55115 0.05987 0.97676 0.0
C905 C 0.47691 0.06168 0.95291 0.0
C906 C 0.47483 0.04373 0.94491 0.0
C907 C 0.56254 0.03404 0.02564 0.0
C908 C 0.49968 0.99062 0.07779 0.0
C909 C 0.48445 0.99297 0.10579 0.0
C910 C 0.48045 0.97414 0.10488 0.0
C911 C 0.49547 0.97176 0.0766 0.0
C912 C 0.49379 1.00114 0.09216 0.0
C913 C 0.48579 0.96356 0.09013 0.0
C914 C 0.52782 0.05788 0.04251 0.0
C915 C 0.51219 0.99949 0.06595 0.0
H916 H 0.58956 0.09497 0.92861 0.0
H917 H 0.56689 0.09537 0.98122 0.0
H918 H 0.58417 0.11134 0.95846 0.0
H919 H 0.56012 0.04573 0.94399 0.0
H920 H 0.47318 0.9677 0.11549 0.0
H921 H 0.50017 0.96343 0.06569 0.0
H922 H 0.49707 0.01574 0.0933 0.0
H923 H 0.48274 0.94903 0.0894 0.0
Tb924 Tb 0.27343 0.25441 0.258 0.0
C925 C 0.33065 0.31403 0.30696 0.0
N926 N 0.3148 0.30462 0.31076 0.0
C927 C 0.32703 0.30443 0.34314 0.0
C928 C 0.34534 0.31903 0.3212 0.0
C929 C 0.3128 0.29981 0.32861 0.0
C930 C 0.34336 0.31411 0.33944 0.0
C931 C 0.34838 0.32848 0.28423 0.0
C932 C 0.33212 0.31883 0.28872 0.0
C933 C 0.36301 0.33353 0.29839 0.0
C934 C 0.36147 0.32888 0.31684 0.0
Tb935 Tb 0.29209 0.30056 0.28646 0.0
N936 N 0.31762 0.31388 0.27537 0.0
C937 C 0.34941 0.33293 0.26568 0.0
C938 C 0.31838 0.31899 0.25754 0.0
C939 C 0.33431 0.3282 0.25229 0.0
H940 H 0.30003 0.29325 0.33208 0.0
H941 H 0.33481 0.33198 0.23803 0.0
H942 H 0.26139 0.26221 0.21353 0.0
H943 H 0.23828 0.21386 0.30584 0.0
H944 H 0.30677 0.31654 0.2474 0.0
H945 H 0.36168 0.34027 0.26164 0.0
H946 H 0.26449 0.23115 0.29445 0.0
H947 H 0.32528 0.3008 0.35729 0.0
H948 H 0.37555 0.3411 0.29525 0.0
H949 H 0.37286 0.33296 0.32764 0.0
H950 H 0.23413 0.25615 0.19093 0.0
H951 H 0.35429 0.31782 0.3508 0.0
H952 H 0.20901 0.20822 0.28606 0.0
N953 N 0.24889 0.25028 0.23584 0.0
C954 C 0.23373 0.24046 0.24079 0.0
C955 C 0.23375 0.25188 0.205 0.0
C956 C 0.21788 0.23621 0.22806 0.0
C957 C 0.24917 0.2557 0.21807 0.0
C958 C 0.218 0.24218 0.21005 0.0
N959 N 0.24993 0.2384 0.2703 0.0
C960 C 0.25164 0.2304 0.2866 0.0
C961 C 0.21902 0.22357 0.26395 0.0
C962 C 0.23427 0.23434 0.25858 0.0
C963 C 0.22037 0.21669 0.28149 0.0
C964 C 0.23683 0.21992 0.29274 0.0
H965 H 0.20612 0.23909 0.19982 0.0
H966 H 0.19026 0.22235 0.22393 0.0
H967 H 0.19138 0.21103 0.25518 0.0
O968 O 0.2836 0.23111 0.26281 0.0
O969 O 0.25228 0.27004 0.26575 0.0
O970 O 0.26493 0.28889 0.29273 0.0
O971 O 0.27234 0.23518 0.23439 0.0
O972 O 0.28761 0.25524 0.28706 0.0
O973 O 0.28097 0.28002 0.3035 0.0
O974 O 0.2844 0.32485 0.28008 0.0
O975 O 0.31276 0.28417 0.27888 0.0
O976 O 0.30005 0.26703 0.25101 0.0
O977 O 0.29241 0.32019 0.30932 0.0
O978 O 0.27771 0.30047 0.2578 0.0
O979 O 0.28304 0.27535 0.24061 0.0
C980 C 0.25065 0.28043 0.2813 0.0
C981 C 0.2834 0.20761 0.23717 0.0
C982 C 0.29734 0.18205 0.24185 0.0
C983 C 0.29361 0.17606 0.22235 0.0
C984 C 0.27945 0.20157 0.21766 0.0
C985 C 0.28451 0.18576 0.21031 0.0
C986 C 0.29206 0.19764 0.24925 0.0
C987 C 0.28474 0.2639 0.30307 0.0
C988 C 0.27973 0.22486 0.24487 0.0
C989 C 0.20255 0.22582 0.23354 0.0
C990 C 0.20315 0.21947 0.2514 0.0
C991 C 0.3144 0.2746 0.26277 0.0
C992 C 0.28406 0.34874 0.3053 0.0
C993 C 0.26949 0.37401 0.30097 0.0
C994 C 0.27542 0.38115 0.31995 0.0
C995 C 0.29001 0.3559 0.32427 0.0
C996 C 0.27398 0.35792 0.29367 0.0
C997 C 0.28573 0.37212 0.33151 0.0
C998 C 0.27925 0.29154 0.24142 0.0
C999 C 0.28689 0.33101 0.2981 0.0
H1000 H 0.29767 0.16391 0.21652 0.0
H1001 H 0.27277 0.20918 0.20808 0.0
H1002 H 0.28159 0.18115 0.19527 0.0
H1003 H 0.29533 0.20229 0.26431 0.0
H1004 H 0.27222 0.39376 0.32574 0.0
H1005 H 0.29775 0.34886 0.33353 0.0
H1006 H 0.26905 0.35224 0.27913 0.0
H1007 H 0.29029 0.37761 0.34613 0.0
Tb1008 Tb 0.54193 0.50341 0.01869 0.0
C1009 C 0.51657 0.5681 0.06346 0.0
N1010 N 0.50865 0.55739 0.0474 0.0
C1011 C 0.48004 0.55576 0.05901 0.0
C1012 C 0.50652 0.5729 0.07808 0.0
C1013 C 0.49053 0.55154 0.04482 0.0
C1014 C 0.48807 0.56641 0.07576 0.0
C1015 C 0.54353 0.58586 0.08139 0.0
C1016 C 0.53484 0.57445 0.06514 0.0
C1017 C 0.5336 0.59065 0.09603 0.0
C1018 C 0.51515 0.58414 0.0944 0.0
Tb1019 Tb 0.52731 0.55182 0.02522 0.0
N1020 N 0.5441 0.56921 0.05089 0.0
C1021 C 0.56191 0.59225 0.08235 0.0
C1022 C 0.56196 0.5757 0.05159 0.0
C1023 C 0.57118 0.58714 0.0674 0.0
H1024 H 0.48397 0.54417 0.03156 0.0
H1025 H 0.58537 0.59221 0.06792 0.0
H1026 H 0.58516 0.50701 0.01389 0.0
H1027 H 0.48246 0.46634 0.97538 0.0
H1028 H 0.56908 0.57238 0.03993 0.0
H1029 H 0.56894 0.6014 0.09439 0.0
H1030 H 0.49939 0.48501 0.00366 0.0
H1031 H 0.46572 0.55102 0.05688 0.0
H1032 H 0.54006 0.59941 0.10864 0.0
H1033 H 0.50764 0.58799 0.10577 0.0
H1034 H 0.60339 0.49825 0.98908 0.0
H1035 H 0.47988 0.56979 0.08666 0.0
H1036 H 0.49838 0.45611 0.94896 0.0
N1037 N 0.5604 0.49558 0.99742 0.0
C1038 C 0.55208 0.48526 0.98125 0.0
C1039 C 0.58896 0.49468 0.98661 0.0
C1040 C 0.56195 0.47942 0.96695 0.0
C1041 C 0.5786 0.49999 1.00048 0.0
C1042 C 0.5806 0.48445 0.96971 0.0
N1043 N 0.52445 0.48684 0.99295 0.0
C1044 C 0.50641 0.48136 0.99205 0.0
C1045 C 0.52449 0.46936 0.96277 0.0
C1046 C 0.53357 0.48037 0.97914 0.0
C1047 C 0.50586 0.46456 0.9613 0.0
C1048 C 0.49681 0.47043 0.97611 0.0
H1049 H 0.58867 0.48024 0.95904 0.0
H1050 H 0.5603 0.46406 0.93932 0.0
H1051 H 0.52752 0.45521 0.9357 0.0
O1052 O 0.53095 0.48347 0.03553 0.0
O1053 O 0.53401 0.51513 0.99224 0.0
O1054 O 0.5144 0.53352 1.0003 0.0
O1055 O 0.55524 0.48205 0.02341 0.0
O1056 O 0.51852 0.50685 0.03345 0.0
O1057 O 0.50572 0.52819 0.01938 0.0
O1058 O 0.53674 0.57414 0.00965 0.0
O1059 O 0.5362 0.53999 0.0513 0.0
O1060 O 0.55612 0.52149 0.0434 0.0
O1061 O 0.51026 0.56927 0.01871 0.0
O1062 O 0.55122 0.54917 0.01105 0.0
O1063 O 0.56442 0.52672 0.02311 0.0
C1064 C 0.52212 0.52508 0.98746 0.0
C1065 C 0.5512 0.4669 0.05074 0.0
C1066 C 0.55117 0.44172 0.07016 0.0
C1067 C 0.56824 0.4501 0.07892 0.0
C1068 C 0.56809 0.47507 0.06017 0.0
C1069 C 0.57652 0.46667 0.07409 0.0
C1070 C 0.54258 0.45026 0.05604 0.0
C1071 C 0.50441 0.51354 0.02803 0.0
C1072 C 0.54376 0.47441 0.03382 0.0
C1073 C 0.55294 0.46865 0.95048 0.0
C1074 C 0.53427 0.4636 0.94843 0.0
C1075 C 0.5492 0.53123 0.05602 0.0
C1076 C 0.5159 0.59514 0.00142 0.0
C1077 C 0.52015 0.62131 0.98321 0.0
C1078 C 0.50282 0.62376 0.98597 0.0
C1079 C 0.49858 0.59821 0.00376 0.0
C1080 C 0.52682 0.60685 0.99094 0.0
C1081 C 0.49217 0.61232 0.99613 0.0
C1082 C 0.56545 0.54237 0.01603 0.0
C1083 C 0.52141 0.57936 0.00986 0.0
H1084 H 0.5752 0.44376 0.08961 0.0
H1085 H 0.57503 0.4877 0.05634 0.0
H1086 H 0.5897 0.4729 0.08097 0.0
H1087 H 0.52964 0.44368 0.04873 0.0
H1088 H 0.49745 0.63464 0.98014 0.0
H1089 H 0.48976 0.58962 0.01154 0.0
H1090 H 0.54014 0.60474 0.98878 0.0
H1091 H 0.4788 0.61438 0.99808 0.0
Tb1092 Tb 0.78668 0.30373 0.26037 0.0
C1093 C 0.74782 0.23793 0.2987 0.0
N1094 N 0.76312 0.24996 0.30515 0.0
C1095 C 0.7543 0.25186 0.33665 0.0
C1096 C 0.73489 0.23283 0.31095 0.0
C1097 C 0.76677 0.25647 0.32399 0.0
C1098 C 0.73821 0.24013 0.33007 0.0
C1099 C 0.72947 0.21814 0.2725 0.0
C1100 C 0.74515 0.23058 0.27971 0.0
C1101 C 0.71645 0.21321 0.28462 0.0
C1102 C 0.71916 0.22052 0.30378 0.0
Tb1103 Tb 0.78228 0.25575 0.28289 0.0
N1104 N 0.75777 0.23609 0.26819 0.0
C1105 C 0.72738 0.211 0.25334 0.0
C1106 C 0.75631 0.22839 0.24986 0.0
C1107 C 0.74097 0.21599 0.24204 0.0
H1108 H 0.7795 0.26471 0.32953 0.0
H1109 H 0.73975 0.2101 0.22738 0.0
H1110 H 0.78786 0.29275 0.2135 0.0
H1111 H 0.83138 0.3503 0.31337 0.0
H1112 H 0.7671 0.23138 0.24144 0.0
H1113 H 0.71552 0.20139 0.24724 0.0
H1114 H 0.8043 0.32781 0.30136 0.0
H1115 H 0.75723 0.25715 0.35153 0.0
H1116 H 0.70428 0.20368 0.27934 0.0
H1117 H 0.70904 0.21648 0.31297 0.0
H1118 H 0.80908 0.29973 0.19038 0.0
H1119 H 0.72861 0.23652 0.33994 0.0
H1120 H 0.85382 0.35943 0.29165 0.0
N1121 N 0.80497 0.30833 0.23707 0.0
C1122 C 0.82035 0.32056 0.2426 0.0
C1123 C 0.81254 0.30545 0.20508 0.0
C1124 C 0.83267 0.32531 0.22959 0.0
C1125 C 0.80066 0.30123 0.21842 0.0
C1126 C 0.82868 0.3174 0.21071 0.0
N1127 N 0.81179 0.32332 0.2737 0.0
C1128 C 0.81421 0.3312 0.29204 0.0
C1129 C 0.83938 0.34139 0.26754 0.0
C1130 C 0.82371 0.32856 0.26137 0.0
C1131 C 0.84214 0.34923 0.28647 0.0
C1132 C 0.82949 0.34412 0.29877 0.0
H1133 H 0.83778 0.32073 0.20028 0.0
H1134 H 0.85805 0.34173 0.22596 0.0
H1135 H 0.8639 0.35581 0.25914 0.0
O1136 O 0.77574 0.32666 0.27032 0.0
O1137 O 0.81247 0.29543 0.27077 0.0
O1138 O 0.80827 0.27392 0.29219 0.0
O1139 O 0.77811 0.31938 0.24037 0.0
O1140 O 0.77456 0.29737 0.28577 0.0
O1141 O 0.78919 0.27955 0.30304 0.0
O1142 O 0.79383 0.23314 0.27301 0.0
O1143 O 0.75642 0.26444 0.27316 0.0
O1144 O 0.76043 0.28579 0.25157 0.0
O1145 O 0.79074 0.24004 0.30285 0.0
O1146 O 0.79456 0.2622 0.25761 0.0
O1147 O 0.77902 0.27966 0.24083 0.0
C1148 C 0.81873 0.28586 0.28377 0.0
C1149 C 0.76586 0.34605 0.24665 0.0
C1150 C 0.74911 0.37034 0.25119 0.0
C1151 C 0.75094 0.37403 0.23245 0.0
C1152 C 0.76758 0.35017 0.22794 0.0
C1153 C 0.76017 0.36403 0.22094 0.0
C1154 C 0.75666 0.35636 0.25843 0.0
C1155 C 0.78292 0.29432 0.3016 0.0
C1156 C 0.77318 0.33051 0.25287 0.0
C1157 C 0.84842 0.33796 0.23575 0.0
C1158 C 0.85174 0.34601 0.25465 0.0
C1159 C 0.75002 0.27405 0.26028 0.0
C1160 C 0.80333 0.21357 0.29679 0.0
C1161 C 0.82108 0.18993 0.2932 0.0
C1162 C 0.81821 0.18586 0.31164 0.0
C1163 C 0.80065 0.20903 0.31517 0.0
C1164 C 0.81343 0.20374 0.28559 0.0
C1165 C 0.80802 0.1953 0.32248 0.0
C1166 C 0.78603 0.26533 0.24193 0.0
C1167 C 0.79606 0.22912 0.29043 0.0
H1168 H 0.74517 0.38472 0.22672 0.0
H1169 H 0.77459 0.34257 0.21854 0.0
H1170 H 0.7615 0.36696 0.20649 0.0
H1171 H 0.7551 0.35336 0.27284 0.0
H1172 H 0.82391 0.17527 0.31768 0.0
H1173 H 0.7929 0.21622 0.3241 0.0
H1174 H 0.81576 0.20709 0.27145 0.0
H1175 H 0.80592 0.19205 0.33668 0.0
Tb1176 Tb 0.03293 0.5446 0.49742 0.0
C1177 C 0.06186 0.49981 0.57126 0.0
N1178 N 0.04894 0.49432 0.55631 0.0
C1179 C 0.05546 0.46447 0.55465 0.0
C1180 C 0.0722 0.48778 0.57844 0.0
C1181 C 0.04567 0.47691 0.54789 0.0
C1182 C 0.06876 0.46991 0.57001 0.0
C1183 C 0.07961 0.52426 0.59329 0.0
C1184 C 0.06544 0.5178 0.57864 0.0
C1185 C 0.08961 0.51224 0.60084 0.0
C1186 C 0.08591 0.49404 0.59343 0.0
Tb1187 Tb 0.03347 0.51557 0.54669 0.0
N1188 N 0.0561 0.52922 0.57025 0.0
C1189 C 0.0838 0.54272 0.59942 0.0
C1190 C 0.06072 0.54738 0.57582 0.0
C1191 C 0.0744 0.55432 0.59052 0.0
H1192 H 0.03524 0.47243 0.53618 0.0
H1193 H 0.07791 0.56871 0.59471 0.0
H1194 H 0.02799 0.58689 0.50468 0.0
H1195 H 1.0067 0.49838 0.43364 0.0
H1196 H 0.05466 0.55687 0.56865 0.0
H1197 H 0.09462 0.54819 0.61057 0.0
H1198 H 0.03012 0.51367 0.45907 0.0
H1199 H 0.05274 0.45069 0.548 0.0
H1200 H 0.10052 0.51696 0.61208 0.0
H1201 H 0.094 0.48499 0.59912 0.0
H1202 H 1.00428 0.60444 0.49808 0.0
H1203 H 0.07643 0.46027 0.57511 0.0
H1204 H 0.97823 0.50942 0.42865 0.0
N1205 N 0.01363 0.56293 0.4886 0.0
C1206 C 0.99943 0.55555 0.47573 0.0
C1207 C 1.00255 0.59055 0.49194 0.0
C1208 C 0.98565 0.56497 0.47107 0.0
C1209 C 0.01581 0.58049 0.49603 0.0
C1210 C 0.98716 0.58261 0.47973 0.0
N1211 N 0.0142 0.5316 0.47032 0.0
C1212 C 0.01744 0.51806 0.45782 0.0
C1213 C 0.98611 0.53128 0.45143 0.0
C1214 C 0.99963 0.53903 0.46628 0.0
C1215 C 0.98829 0.51586 0.44021 0.0
C1216 C 1.00433 0.50959 0.44301 0.0
H1217 H 0.97693 0.59041 0.47649 0.0
H1218 H 0.96038 0.5636 0.4538 0.0
H1219 H 0.96079 0.53396 0.43647 0.0
O1220 O 0.05399 0.54369 0.48085 0.0
O1221 O 1.00727 0.53853 0.5078 0.0
O1222 O 0.01574 0.51538 0.52084 0.0
O1223 O 0.05016 0.56882 0.49487 0.0
O1224 O 0.03628 0.51565 0.49235 0.0
O1225 O 0.03434 0.49893 0.51906 0.0
O1226 O 0.01571 0.5198 0.56651 0.0
O1227 O 0.0607 0.52442 0.54146 0.0
O1228 O 0.04433 0.53562 0.52168 0.0
O1229 O 0.01679 0.49301 0.55427 0.0
O1230 O 0.02738 0.54351 0.55037 0.0
O1231 O 0.03428 0.56152 0.52542 0.0
C1232 C 1.00406 0.52579 0.51874 0.0
C1233 C 0.05892 0.56863 0.46405 0.0
C1234 C 0.06986 0.56813 0.43337 0.0
C1235 C 0.05998 0.58118 0.42836 0.0
C1236 C 0.04879 0.58158 0.45901 0.0
C1237 C 0.04936 0.58781 0.44117 0.0
C1238 C 0.06929 0.56186 0.45109 0.0
C1239 C 0.03644 0.50055 0.50075 0.0
C1240 C 0.05827 0.56113 0.48218 0.0
C1241 C 0.9713 0.55673 0.45741 0.0
C1242 C 0.97151 0.53984 0.44759 0.0
C1243 C 0.06031 0.53398 0.52765 0.0
C1244 C 1.01046 0.49653 0.58606 0.0
C1245 C 1.00194 0.50097 0.61795 0.0
C1246 C 1.0057 0.48396 0.62128 0.0
C1247 C 0.01425 0.47962 0.58955 0.0
C1248 C 1.00493 0.50731 0.60049 0.0
C1249 C 0.01207 0.47351 0.60722 0.0
C1250 C 0.02949 0.55919 0.54285 0.0
C1251 C 1.01052 0.5026 0.56713 0.0
H1252 H 0.06047 0.58614 0.4146 0.0
H1253 H 0.04044 0.58685 0.46871 0.0
H1254 H 0.04159 0.59778 0.4373 0.0
H1255 H 0.07696 0.55171 0.45481 0.0
H1256 H 1.00308 0.47839 0.6344 0.0
H1257 H 0.01853 0.47098 0.57859 0.0
H1258 H 1.00229 0.52045 0.59777 0.0
H1259 H 0.01474 0.46036 0.60979 0.0
Tb1260 Tb 0.80892 0.77104 0.27868 0.0
C1261 C 0.74505 0.79529 0.2323 0.0
N1262 N 0.75431 0.80362 0.24904 0.0
C1263 C 0.75434 0.83246 0.2379 0.0
C1264 C 0.74032 0.8053 0.21754 0.0
C1265 C 0.75848 0.82199 0.25224 0.0
C1266 C 0.74535 0.82408 0.22042 0.0
C1267 C 0.72972 0.76759 0.2133 0.0
C1268 C 0.73986 0.77665 0.23015 0.0
C1269 C 0.72517 0.77749 0.19847 0.0
C1270 C 0.7305 0.79628 0.20056 0.0
Tb1271 Tb 0.76045 0.78479 0.2709 0.0
N1272 N 0.74495 0.76741 0.2446 0.0
C1273 C 0.72431 0.74887 0.21199 0.0
C1274 C 0.73888 0.74934 0.24381 0.0
C1275 C 0.72873 0.73974 0.2274 0.0
H1276 H 0.76449 0.82864 0.26602 0.0
H1277 H 0.72415 0.72535 0.22675 0.0
H1278 H 0.80467 0.72716 0.28346 0.0
H1279 H 0.84674 0.83013 0.32205 0.0
H1280 H 0.74159 0.74234 0.25583 0.0
H1281 H 0.71642 0.7414 0.19931 0.0
H1282 H 0.82851 0.81326 0.29337 0.0
H1283 H 0.75783 0.84701 0.24046 0.0
H1284 H 0.71741 0.77075 0.18538 0.0
H1285 H 0.72675 0.80374 0.18905 0.0
H1286 H 0.81149 0.70872 0.30891 0.0
H1287 H 0.742 0.83225 0.20941 0.0
H1288 H 0.8545 0.81413 0.34952 0.0
N1289 N 0.81533 0.75215 0.30036 0.0
C1290 C 0.82479 0.7604 0.31702 0.0
C1291 C 0.81517 0.72326 0.31143 0.0
C1292 C 0.82966 0.75035 0.33167 0.0
C1293 C 0.81097 0.73378 0.29716 0.0
C1294 C 0.82446 0.73157 0.32881 0.0
N1295 N 0.8249 0.78828 0.30479 0.0
C1296 C 0.83128 0.80628 0.30539 0.0
C1297 C 0.84058 0.78803 0.33583 0.0
C1298 C 0.83009 0.77902 0.31916 0.0
C1299 C 0.8463 0.8067 0.337 0.0
C1300 C 0.84186 0.81581 0.32158 0.0
H1301 H 0.82787 0.72336 0.33976 0.0
H1302 H 0.84366 0.7518 0.35995 0.0
H1303 H 0.85333 0.78476 0.36352 0.0
O1304 O 0.82864 0.78204 0.26175 0.0
O1305 O 0.79683 0.78033 0.30419 0.0
O1306 O 0.7771 0.7993 0.2964 0.0
O1307 O 0.83097 0.75854 0.27543 0.0
O1308 O 0.80473 0.79447 0.26389 0.0
O1309 O 0.78293 0.80777 0.27635 0.0
O1310 O 0.74026 0.77401 0.28749 0.0
O1311 O 0.77302 0.77564 0.24547 0.0
O1312 O 0.79196 0.75622 0.25372 0.0
O1313 O 0.73838 0.79737 0.27346 0.0
O1314 O 0.76457 0.76167 0.28611 0.0
O1315 O 0.78622 0.74812 0.27368 0.0
C1316 C 0.78736 0.79271 0.30883 0.0
C1317 C 0.84608 0.76183 0.24803 0.0
C1318 C 0.87083 0.76244 0.22828 0.0
C1319 C 0.86361 0.7446 0.22074 0.0
C1320 C 0.83905 0.74409 0.23983 0.0
C1321 C 0.84782 0.73557 0.22638 0.0
C1322 C 0.86199 0.7711 0.24201 0.0
C1323 C 0.79853 0.80891 0.26964 0.0
C1324 C 0.8382 0.76972 0.26442 0.0
C1325 C 0.83979 0.75931 0.34852 0.0
C1326 C 0.84529 0.77808 0.35057 0.0
C1327 C 0.78227 0.76298 0.24094 0.0
C1328 C 0.72266 0.7946 0.30048 0.0
C1329 C 0.69749 0.79428 0.31967 0.0
C1330 C 0.70396 0.81251 0.32609 0.0
C1331 C 0.72893 0.81278 0.30763 0.0
C1332 C 0.70689 0.78527 0.30676 0.0
C1333 C 0.71949 0.82164 0.32011 0.0
C1334 C 0.77071 0.74714 0.28061 0.0
C1335 C 0.73087 0.78639 0.28447 0.0
H1336 H 0.87029 0.73759 0.21045 0.0
H1337 H 0.82702 0.73661 0.24425 0.0
H1338 H 0.84249 0.72177 0.22049 0.0
H1339 H 0.86772 0.7847 0.24836 0.0
H1340 H 0.69684 0.81979 0.33567 0.0
H1341 H 0.74077 0.82038 0.30297 0.0
H1342 H 0.70163 0.77136 0.30114 0.0
H1343 H 0.72387 0.83582 0.32484 0.0
Tb1344 Tb 0.76936 0.27793 0.79975 0.0
C1345 C 0.80971 0.24779 0.72646 0.0
N1346 N 0.81579 0.26009 0.74196 0.0
C1347 C 0.84312 0.24875 0.74556 0.0
C1348 C 0.81987 0.23501 0.72036 0.0
C1349 C 0.83247 0.26099 0.75123 0.0
C1350 C 0.83674 0.23559 0.73018 0.0
C1351 C 0.78579 0.23458 0.7015 0.0
C1352 C 0.79299 0.2477 0.71701 0.0
C1353 C 0.7958 0.22175 0.69546 0.0
C1354 C 0.81283 0.222 0.70482 0.0
Tb1355 Tb 0.79706 0.27918 0.75022 0.0
N1356 N 0.78336 0.25985 0.72386 0.0
C1357 C 0.7686 0.23452 0.69279 0.0
C1358 C 0.76693 0.26037 0.71469 0.0
C1359 C 0.75919 0.24753 0.69936 0.0
H1360 H 0.83788 0.27139 0.76272 0.0
H1361 H 0.74593 0.24768 0.69264 0.0
H1362 H 0.72836 0.28396 0.78777 0.0
H1363 H 0.82137 0.31317 0.8551 0.0
H1364 H 0.75961 0.2706 0.71883 0.0
H1365 H 0.76251 0.22456 0.68095 0.0
H1366 H 0.80734 0.28857 0.83097 0.0
H1367 H 0.8563 0.24953 0.75302 0.0
H1368 H 0.79045 0.21151 0.68362 0.0
H1369 H 0.82039 0.212 0.70002 0.0
H1370 H 0.70953 0.30599 0.79616 0.0
H1371 H 0.84498 0.22604 0.72591 0.0
H1372 H 0.80525 0.33755 0.86424 0.0
N1373 N 0.75064 0.297 0.80752 0.0
C1374 C 0.75711 0.3107 0.8215 0.0
C1375 C 0.72294 0.30754 0.80333 0.0
C1376 C 0.74688 0.32371 0.82666 0.0
C1377 C 0.73372 0.29513 0.79853 0.0
C1378 C 0.72958 0.32197 0.81738 0.0
N1379 N 0.78358 0.29903 0.82459 0.0
C1380 C 0.80014 0.29916 0.83389 0.0
C1381 C 0.78172 0.32615 0.84451 0.0
C1382 C 0.77424 0.31186 0.83023 0.0
C1383 C 0.799 0.32678 0.85325 0.0
C1384 C 0.80815 0.3131 0.84807 0.0
H1385 H 0.72126 0.33165 0.82097 0.0
H1386 H 0.74669 0.34826 0.84484 0.0
H1387 H 0.77726 0.35042 0.86047 0.0
O1388 O 0.77057 0.25962 0.81975 0.0
O1389 O 0.77536 0.30418 0.79038 0.0
O1390 O 0.79862 0.29671 0.77675 0.0
O1391 O 0.74578 0.25993 0.80266 0.0
O1392 O 0.79651 0.27033 0.80298 0.0
O1393 O 0.81371 0.27952 0.7783 0.0
O1394 O 0.79493 0.2992 0.73221 0.0
O1395 O 0.78471 0.2515 0.75224 0.0
O1396 O 0.77905 0.26748 0.77592 0.0
O1397 O 0.82058 0.29316 0.7419 0.0
O1398 O 0.76982 0.28676 0.74877 0.0
O1399 O 0.75235 0.27402 0.77164 0.0
C1400 C 0.78817 0.30825 0.77987 0.0
C1401 C 0.74483 0.25465 0.83486 0.0
C1402 C 0.74397 0.24644 0.86685 0.0
C1403 C 0.72999 0.2558 0.86934 0.0
C1404 C 0.73097 0.26425 0.83744 0.0
C1405 C 0.72365 0.26485 0.85469 0.0
C1406 C 0.75143 0.24603 0.84973 0.0
C1407 C 0.81199 0.27366 0.7954 0.0
C1408 C 0.75336 0.254 0.81732 0.0
C1409 C 0.75429 0.33805 0.84074 0.0
C1410 C 0.7717 0.33929 0.84962 0.0
C1411 C 0.77718 0.25156 0.76736 0.0
C1412 C 0.81673 0.30173 0.71116 0.0
C1413 C 0.81509 0.31488 0.6817 0.0
C1414 C 0.82716 0.30464 0.67484 0.0
C1415 C 0.82856 0.29112 0.70424 0.0
C1416 C 0.80985 0.31335 0.69972 0.0
C1417 C 0.83373 0.29262 0.68607 0.0
C1418 C 0.75416 0.28156 0.75548 0.0
C1419 C 0.81194 0.3018 0.73048 0.0
H1420 H 0.72406 0.25608 0.88257 0.0
H1421 H 0.7258 0.27127 0.82625 0.0
H1422 H 0.71297 0.27221 0.85666 0.0
H1423 H 0.76216 0.23864 0.84783 0.0
H1424 H 0.83142 0.30595 0.66087 0.0
H1425 H 0.834 0.28194 0.71288 0.0
H1426 H 0.80082 0.32166 0.70506 0.0
H1427 H 0.843 0.28464 0.68079 0.0
Tb1428 Tb 0.77126 0.75343 0.75731 0.0
C1429 C 0.82865 0.81903 0.80774 0.0
N1430 N 0.81332 0.80842 0.81116 0.0
C1431 C 0.82481 0.81008 0.84411 0.0
C1432 C 0.84292 0.82517 0.8223 0.0
C1433 C 0.81106 0.80429 0.82921 0.0
C1434 C 0.84088 0.82043 0.84061 0.0
C1435 C 0.84542 0.8355 0.78561 0.0
C1436 C 0.82982 0.82432 0.78972 0.0
C1437 C 0.85986 0.8412 0.79991 0.0
C1438 C 0.85859 0.83612 0.81823 0.0
Tb1439 Tb 0.79162 0.80057 0.7857 0.0
N1440 N 0.81557 0.81863 0.77625 0.0
C1441 C 0.84594 0.84078 0.76732 0.0
C1442 C 0.81568 0.82457 0.75873 0.0
C1443 C 0.83093 0.83541 0.75387 0.0
H1444 H 0.79849 0.79669 0.83219 0.0
H1445 H 0.831 0.83979 0.73982 0.0
H1446 H 0.76177 0.76409 0.71309 0.0
H1447 H 0.7341 0.7044 0.79598 0.0
H1448 H 0.80406 0.82111 0.74853 0.0
H1449 H 0.8577 0.8493 0.76357 0.0
H1450 H 0.76118 0.72342 0.78802 0.0
H1451 H 0.82294 0.80667 0.85831 0.0
H1452 H 0.87197 0.84976 0.79702 0.0
H1453 H 0.86972 0.84089 0.82921 0.0
H1454 H 0.73516 0.7614 0.69014 0.0
H1455 H 0.85149 0.82497 0.8522 0.0
H1456 H 0.70513 0.70283 0.77658 0.0
N1457 N 0.74786 0.75136 0.7341 0.0
C1458 C 0.73218 0.74141 0.7377 0.0
C1459 C 0.73405 0.75601 0.70362 0.0
C1460 C 0.71664 0.73891 0.72458 0.0
C1461 C 0.74912 0.75799 0.71698 0.0
C1462 C 0.71767 0.74665 0.70755 0.0
N1463 N 0.74741 0.73457 0.76584 0.0
C1464 C 0.74851 0.7237 0.78003 0.0
C1465 C 0.71623 0.72146 0.75768 0.0
C1466 C 0.73195 0.7328 0.7541 0.0
C1467 C 0.71692 0.71168 0.77336 0.0
C1468 C 0.73322 0.71255 0.78437 0.0
H1469 H 0.70607 0.74494 0.69706 0.0
H1470 H 0.68869 0.7263 0.71869 0.0
H1471 H 0.68833 0.71103 0.74766 0.0
O1472 O 0.78279 0.73094 0.76221 0.0
O1473 O 0.75132 0.77061 0.76417 0.0
O1474 O 0.76505 0.78703 0.79208 0.0
O1475 O 0.76932 0.73369 0.7341 0.0
O1476 O 0.77293 0.75493 0.78841 0.0
O1477 O 0.79666 0.77738 0.80044 0.0
O1478 O 0.7847 0.82575 0.78121 0.0
O1479 O 0.81298 0.79027 0.77156 0.0
O1480 O 0.80099 0.76092 0.75821 0.0
O1481 O 0.78339 0.81493 0.80865 0.0
O1482 O 0.77653 0.7984 0.75722 0.0
O1483 O 0.78337 0.77393 0.74062 0.0
C1484 C 0.75039 0.78032 0.78041 0.0
C1485 C 0.78158 0.70674 0.73689 0.0
C1486 C 0.79612 0.68139 0.74107 0.0
C1487 C 0.79046 0.67453 0.72197 0.0
C1488 C 0.77588 0.69982 0.71782 0.0
C1489 C 0.78031 0.68372 0.71043 0.0
C1490 C 0.79156 0.69741 0.7485 0.0
C1491 C 0.78535 0.76263 0.80221 0.0
C1492 C 0.77781 0.724 0.74453 0.0
C1493 C 0.70076 0.72829 0.72856 0.0
C1494 C 0.70055 0.7196 0.74507 0.0
C1495 C 0.81471 0.77457 0.76292 0.0
C1496 C 0.77517 0.84393 0.80713 0.0
C1497 C 0.76427 0.87159 0.80343 0.0
C1498 C 0.76241 0.87364 0.82294 0.0
C1499 C 0.77325 0.84607 0.82662 0.0
C1500 C 0.77067 0.85672 0.79558 0.0
C1501 C 0.76689 0.86089 0.83445 0.0
C1502 C 0.78046 0.79042 0.74138 0.0
C1503 C 0.78122 0.82806 0.79879 0.0
H1504 H 0.7938 0.66203 0.71605 0.0
H1505 H 0.76815 0.7069 0.7086 0.0
H1506 H 0.77595 0.67842 0.69572 0.0
H1507 H 0.7962 0.70279 0.76318 0.0
H1508 H 0.7572 0.88492 0.82919 0.0
H1509 H 0.77656 0.83625 0.83579 0.0
H1510 H 0.7721 0.85512 0.78051 0.0
H1511 H 0.76532 0.86243 0.84945 0.0
Tb1512 Tb 0.55941 0.54164 0.53836 0.0
C1513 C 0.49885 0.48199 0.49165 0.0
N1514 N 0.5079 0.49807 0.48763 0.0
C1515 C 0.50734 0.48573 0.45514 0.0
C1516 C 0.49381 0.46712 0.47752 0.0
C1517 C 0.51175 0.50022 0.46949 0.0
C1518 C 0.49842 0.46909 0.45917 0.0
C1519 C 0.48377 0.46456 0.5143 0.0
C1520 C 0.49389 0.48068 0.50984 0.0
C1521 C 0.47893 0.44967 0.50031 0.0
C1522 C 0.48396 0.45093 0.48199 0.0
Tb1523 Tb 0.51248 0.52079 0.51217 0.0
N1524 N 0.49901 0.49528 0.52316 0.0
C1525 C 0.47867 0.46396 0.53264 0.0
C1526 C 0.49312 0.49508 0.54065 0.0
C1527 C 0.48323 0.47935 0.54581 0.0
H1528 H 0.51752 0.51321 0.46567 0.0
H1529 H 0.47877 0.47925 0.55979 0.0
H1530 H 0.55274 0.55007 0.58429 0.0
H1531 H 0.58632 0.58459 0.48787 0.0
H1532 H 0.49534 0.50711 0.5504 0.0
H1533 H 0.47085 0.45183 0.53662 0.0
H1534 H 0.57356 0.55591 0.49857 0.0
H1535 H 0.51046 0.48752 0.44084 0.0
H1536 H 0.47114 0.43716 0.50347 0.0
H1537 H 0.47994 0.43939 0.47129 0.0
H1538 H 0.55867 0.57625 0.6084 0.0
H1539 H 0.49477 0.45798 0.44792 0.0
H1540 H 0.59331 0.61234 0.51057 0.0
N1541 N 0.56176 0.56493 0.56192 0.0
C1542 C 0.56992 0.58116 0.55739 0.0
C1543 C 0.56162 0.57788 0.59405 0.0
C1544 C 0.57411 0.59643 0.57109 0.0
C1545 C 0.55779 0.56308 0.58008 0.0
C1546 C 0.56978 0.59463 0.58956 0.0
N1547 N 0.57032 0.5674 0.52609 0.0
C1548 C 0.57516 0.56795 0.50818 0.0
C1549 C 0.58283 0.59902 0.53382 0.0
C1550 C 0.57439 0.58243 0.53897 0.0
C1551 C 0.58692 0.59982 0.51513 0.0
C1552 C 0.58302 0.58421 0.50227 0.0
H1553 H 0.57293 0.60601 0.60053 0.0
H1554 H 0.58618 0.62475 0.57644 0.0
H1555 H 0.59366 0.62706 0.5438 0.0
O1556 O 0.58489 0.53815 0.53204 0.0
O1557 O 0.54123 0.56082 0.53065 0.0
O1558 O 0.52357 0.54734 0.50332 0.0
O1559 O 0.57989 0.54503 0.56082 0.0
O1560 O 0.55845 0.52636 0.50993 0.0
O1561 O 0.5324 0.53062 0.4938 0.0
O1562 O 0.49046 0.53132 0.52077 0.0
O1563 O 0.5272 0.49979 0.52247 0.0
O1564 O 0.55206 0.51305 0.54376 0.0
O1565 O 0.48964 0.51737 0.49269 0.0
O1566 O 0.51517 0.53557 0.54089 0.0
O1567 O 0.5405 0.52965 0.55658 0.0
C1568 C 0.53158 0.56207 0.51447 0.0
C1569 C 0.60062 0.52629 0.55636 0.0
C1570 C 0.62197 0.50714 0.5505 0.0
C1571 C 0.61945 0.49998 0.56773 0.0
C1572 C 0.59816 0.51922 0.57373 0.0
C1573 C 0.60758 0.50608 0.57933 0.0
C1574 C 0.61258 0.52024 0.54491 0.0
C1575 C 0.54864 0.52731 0.4939 0.0
C1576 C 0.59121 0.54018 0.54998 0.0
C1577 C 0.58273 0.61292 0.56605 0.0
C1578 C 0.58702 0.61423 0.54746 0.0
C1579 C 0.54079 0.49859 0.53509 0.0
C1580 C 0.47095 0.53856 0.49596 0.0
C1581 C 0.44571 0.55344 0.49799 0.0
C1582 C 0.44554 0.55608 0.47875 0.0
C1583 C 0.47123 0.54183 0.47683 0.0
C1584 C 0.45846 0.54483 0.5066 0.0
C1585 C 0.45851 0.55055 0.4683 0.0
C1586 C 0.52409 0.53231 0.55649 0.0
C1587 C 0.48121 0.52612 0.50418 0.0
H1588 H 0.62694 0.49002 0.57236 0.0
H1589 H 0.58903 0.52379 0.58297 0.0
H1590 H 0.60576 0.50072 0.59272 0.0
H1591 H 0.61462 0.52574 0.53158 0.0
H1592 H 0.43545 0.56247 0.47191 0.0
H1593 H 0.48075 0.53702 0.46828 0.0
H1594 H 0.45794 0.54205 0.52126 0.0
H1595 H 0.45843 0.55258 0.45344 0.0
Tb1596 Tb 1.00823 0.52552 0.03544 0.0
C1597 C 0.07429 0.56638 0.99681 0.0
N1598 N 0.06288 0.55037 0.99105 0.0
C1599 C 0.0607 0.55776 0.95887 0.0
C1600 C 0.07872 0.57892 0.98381 0.0
C1601 C 0.05707 0.54552 0.97208 0.0
C1602 C 0.07131 0.57464 0.9648 0.0
C1603 C 0.09541 0.58565 0.02148 0.0
C1604 C 0.08255 0.56985 0.01557 0.0
C1605 C 0.09931 0.59833 0.00866 0.0
C1606 C 0.09093 0.59503 0.98993 0.0
Tb1607 Tb 0.05911 0.53223 0.01485 0.0
N1608 N 0.07809 0.55767 0.02802 0.0
C1609 C 0.10395 0.58825 0.04015 0.0
C1610 C 0.08712 0.55961 0.04584 0.0
C1611 C 0.09984 0.57512 0.05234 0.0
H1612 H 0.05007 0.5321 0.96673 0.0
H1613 H 0.10667 0.57684 0.06664 0.0
H1614 H 0.02023 0.52287 0.08291 0.0
H1615 H 0.95507 0.48537 0.9866 0.0
H1616 H 0.08475 0.54909 0.05489 0.0
H1617 H 0.11386 0.60023 0.04522 0.0
H1618 H 0.97987 0.51103 0.99687 0.0
H1619 H 0.05569 0.55397 0.94399 0.0
H1620 H 0.10897 0.61066 0.01303 0.0
H1621 H 0.09436 0.60482 0.98013 0.0
H1622 H 0.01534 0.50002 0.10446 0.0
H1623 H 0.07437 0.58395 0.95441 0.0
H1624 H 0.94979 0.4602 0.00606 0.0
N1625 N 1.00562 0.50601 0.05829 0.0
C1626 C 0.99363 0.49041 0.05247 0.0
C1627 C 1.00947 0.49698 0.08977 0.0
C1628 C 0.98974 0.47725 0.06499 0.0
C1629 C 0.01264 0.50981 0.07708 0.0
C1630 C 0.99821 0.48051 0.08363 0.0
N1631 N 0.98782 0.50101 0.02252 0.0
C1632 C 0.97767 0.50017 0.0055 0.0
C1633 C 0.97077 0.47268 0.02847 0.0
C1634 C 0.9842 0.48804 0.0343 0.0
C1635 C 0.96054 0.47155 0.01084 0.0
C1636 C 0.9637 0.4856 0.99959 0.0
H1637 H 0.99553 0.47075 0.09364 0.0
H1638 H 0.97389 0.45133 0.06826 0.0
H1639 H 0.95725 0.4474 0.03636 0.0
O1640 O 0.98529 0.53649 0.02583 0.0
O1641 O 0.0152 0.50037 0.02022 0.0
O1642 O 0.04376 0.50401 0.009 0.0
O1643 O 0.9933 0.53441 0.05576 0.0
O1644 O 0.01925 0.53738 0.01166 0.0
O1645 O 0.03665 0.52452 0.99317 0.0
O1646 O 0.07975 0.52042 0.02764 0.0
O1647 O 0.05199 0.5574 0.0297 0.0
O1648 O 0.02275 0.55372 0.03847 0.0
O1649 O 0.07923 0.52678 0.99875 0.0
O1650 O 0.04689 0.52019 0.03753 0.0
O1651 O 0.03087 0.5336 0.05665 0.0
C1652 C 0.02821 0.49396 0.01192 0.0
C1653 C 0.96748 0.54789 0.0502 0.0
C1654 C 0.94278 0.56398 0.04556 0.0
C1655 C 0.94139 0.56501 0.06515 0.0
C1656 C 0.96571 0.54912 0.0698 0.0
C1657 C 0.9528 0.55763 0.07716 0.0
C1658 C 0.95591 0.55545 0.03798 0.0
C1659 C 0.02107 0.5284 0.99572 0.0
C1660 C 0.98219 0.53965 0.04346 0.0
C1661 C 0.97695 0.46157 0.05883 0.0
C1662 C 0.96745 0.45933 0.04067 0.0
C1663 C 0.03842 0.56382 0.03666 0.0
C1664 C 0.09353 0.50295 0.00577 0.0
C1665 C 0.1167 0.48476 0.00753 0.0
C1666 C 0.10852 0.47441 0.99054 0.0
C1667 C 0.08528 0.49216 0.98896 0.0
C1668 C 0.10919 0.49905 0.01516 0.0
C1669 C 0.09284 0.47804 0.98137 0.0
C1670 C 0.04601 0.52932 0.05353 0.0
C1671 C 0.0874 0.51962 0.01207 0.0
H1672 H 0.9314 0.5716 0.07115 0.0
H1673 H 0.97444 0.54361 0.07962 0.0
H1674 H 0.95166 0.55853 0.09227 0.0
H1675 H 0.95713 0.55481 0.02288 0.0
H1676 H 0.11432 0.46349 0.98438 0.0
H1677 H 0.07329 0.49496 0.98137 0.0
H1678 H 0.11571 0.50732 0.02804 0.0
H1679 H 0.08664 0.47004 0.96822 0.0
H1680 H 1.00058 0.20563 0.93337 0.0
H1681 H 1.0043 0.17609 0.94333 0.0
H1682 H 0.02895 0.20208 0.99836 0.0
H1683 H 0.02459 0.23133 0.98873 0.0
H1684 H 0.04747 0.17595 0.98536 0.0
H1685 H 0.9878 0.17927 0.99446 0.0
H1686 H 0.95632 0.18212 0.98757 0.0
H1687 H 0.94724 0.13573 0.94578 0.0
H1688 H 0.97879 0.13281 0.95219 0.0
H1689 H 0.04621 0.09608 0.03334 0.0
H1690 H 0.04335 0.12555 0.02353 0.0
H1691 H 1.00886 0.09955 0.97333 0.0
H1692 H 0.01147 0.07012 0.9833 0.0
H1693 H 0.99567 0.12626 0.9842 0.0
H1694 H 0.05706 0.12343 0.97652 0.0
H1695 H 0.08793 0.12039 0.98702 0.0
H1696 H 0.09344 0.1662 0.02893 0.0
H1697 H 0.06246 0.16934 0.01897 0.0
C1698 C 1.00699 0.20511 0.94752 0.0
C1699 C 0.01243 0.22116 0.9601 0.0
C1700 C 1.009 0.18807 0.95333 0.0
C1701 C 0.01693 0.18645 0.97178 0.0
C1702 C 0.02282 0.20257 0.98409 0.0
C1703 C 0.02034 0.21946 0.97849 0.0
C1704 C 0.01901 0.16818 0.97839 0.0
C1705 C 0.03605 0.16517 0.98516 0.0
C1706 C 1.00438 0.1537 0.97826 0.0
C1707 C 0.98574 0.15604 0.97354 0.0
C1708 C 0.97918 0.16989 0.98353 0.0
C1709 C 0.9613 0.17146 0.97979 0.0
C1710 C 0.9498 0.15917 0.96618 0.0
C1711 C 0.95618 0.1453 0.95626 0.0
C1712 C 0.97407 0.14369 0.95992 0.0
C1713 C 0.03812 0.09652 0.02012 0.0
C1714 C 0.02922 0.0803 0.00919 0.0
C1715 C 0.03653 0.11362 0.01436 0.0
C1716 C 0.0261 0.11534 0.99728 0.0
C1717 C 0.01707 0.09911 0.98651 0.0
C1718 C 0.01861 0.08204 0.99228 0.0
C1719 C 0.02421 0.13375 0.99074 0.0
C1720 C 1.00717 0.13689 0.98411 0.0
C1721 C 0.03884 0.14839 0.99115 0.0
C1722 C 0.05741 0.14651 0.99712 0.0
C1723 C 0.06482 0.13278 0.98806 0.0
C1724 C 0.08233 0.13106 0.99389 0.0
C1725 C 0.09265 0.14311 0.00858 0.0
C1726 C 0.08544 0.15689 0.01753 0.0
C1727 C 0.0679 0.15864 0.01182 0.0
H1728 H 0.10622 0.14175 0.01303 0.0
H1729 H 0.93593 0.16034 0.96338 0.0
H1730 H 0.09711 0.79853 0.16238 0.0
H1731 H 0.12274 0.79665 0.18535 0.0
H1732 H 0.15581 0.79492 0.13978 0.0
H1733 H 0.13049 0.7967 0.11696 0.0
H1734 H 0.1627 0.77097 0.16171 0.0
H1735 H 0.15853 0.83319 0.17338 0.0
H1736 H 0.14476 0.85941 0.18184 0.0
H1737 H 0.13641 0.84157 0.23636 0.0
H1738 H 0.14988 0.81507 0.22808 0.0
H1739 H 0.25029 0.79773 0.21767 0.0
H1740 H 0.22331 0.79878 0.19646 0.0
H1741 H 0.19052 0.7798 0.23889 0.0
H1742 H 0.21715 0.77712 0.25932 0.0
H1743 H 0.18314 0.81383 0.22004 0.0
H1744 H 0.18402 0.7503 0.20699 0.0
H1745 H 0.19704 0.72358 0.19832 0.0
H1746 H 0.21252 0.74498 0.14744 0.0
H1747 H 0.19911 0.77161 0.15552 0.0
C1748 C 0.10986 0.79788 0.15724 0.0
C1749 C 0.11155 0.79793 0.13764 0.0
C1750 C 0.12462 0.79685 0.17047 0.0
C1751 C 0.14152 0.79578 0.16452 0.0
C1752 C 0.14311 0.79573 0.14497 0.0
C1753 C 0.12849 0.79687 0.13184 0.0
C1754 C 0.15749 0.79435 0.17831 0.0
C1755 C 0.16716 0.78055 0.17431 0.0
C1756 C 0.16344 0.80641 0.19519 0.0
C1757 C 0.15494 0.82203 0.19999 0.0
C1758 C 0.15354 0.83474 0.18707 0.0
C1759 C 0.14584 0.84968 0.19186 0.0
C1760 C 0.13964 0.85212 0.20959 0.0
C1761 C 0.14115 0.83963 0.2226 0.0
C1762 C 0.14881 0.82465 0.21786 0.0
C1763 C 0.23739 0.79382 0.22264 0.0
C1764 C 0.23624 0.78806 0.24089 0.0
C1765 C 0.2219 0.79442 0.21039 0.0
C1766 C 0.20476 0.78964 0.21609 0.0
C1767 C 0.20352 0.78387 0.23418 0.0
C1768 C 0.21895 0.78272 0.24616 0.0
C1769 C 0.1882 0.79064 0.20322 0.0
C1770 C 0.17852 0.80431 0.20741 0.0
C1771 C 0.1822 0.77851 0.18654 0.0
C1772 C 0.19085 0.763 0.18198 0.0
C1773 C 0.19039 0.74938 0.19406 0.0
C1774 C 0.19778 0.73424 0.18924 0.0
C1775 C 0.20585 0.73271 0.17252 0.0
C1776 C 0.20636 0.74623 0.16045 0.0
C1777 C 0.19878 0.7613 0.16508 0.0
H1778 H 0.21159 0.72098 0.16885 0.0
H1779 H 0.13373 0.86372 0.21329 0.0
H1780 H 0.48555 0.82093 0.44748 0.0
H1781 H 0.4877 0.85251 0.46039 0.0
H1782 H 0.544 0.85651 0.47742 0.0
H1783 H 0.5416 0.82466 0.46505 0.0
H1784 H 0.53293 0.87653 0.50321 0.0
H1785 H 0.5251 0.87446 0.43553 0.0
H1786 H 0.51062 0.86391 0.40289 0.0
H1787 H 0.4625 0.88089 0.41726 0.0
H1788 H 0.47664 0.89135 0.45007 0.0
H1789 H 0.55486 0.97395 0.50845 0.0
H1790 H 0.55181 0.94145 0.49944 0.0
H1791 H 0.49452 0.93581 0.49385 0.0
H1792 H 0.49768 0.96831 0.50295 0.0
H1793 H 0.50599 0.91685 0.46296 0.0
H1794 H 0.51555 0.9207 0.53078 0.0
H1795 H 0.53092 0.93112 0.56307 0.0
H1796 H 0.57744 0.91142 0.54775 0.0
H1797 H 0.56244 0.9011 0.51526 0.0
C1798 C 0.49834 0.82846 0.45422 0.0
C1799 C 0.51333 0.82004 0.45533 0.0
C1800 C 0.49967 0.84675 0.46147 0.0
C1801 C 0.51615 0.85754 0.46972 0.0
C1802 C 0.53106 0.8489 0.47122 0.0
C1803 C 0.52969 0.83054 0.4641 0.0
C1804 C 0.51791 0.87771 0.47626 0.0
C1805 C 0.5272 0.88528 0.49419 0.0
C1806 C 0.51035 0.88963 0.46498 0.0
C1807 C 0.50186 0.88352 0.44527 0.0
C1808 C 0.5114 0.87585 0.43174 0.0
C1809 C 0.50326 0.8699 0.41322 0.0
C1810 C 0.48563 0.87169 0.40802 0.0
C1811 C 0.47614 0.87949 0.42132 0.0
C1812 C 0.48421 0.88545 0.43987 0.0
C1813 C 0.54156 0.96587 0.50524 0.0
C1814 C 0.52647 0.97413 0.50647 0.0
C1815 C 0.53982 0.94709 0.5002 0.0
C1816 C 0.52289 0.93575 0.4959 0.0
C1817 C 0.5078 0.94396 0.49703 0.0
C1818 C 0.50958 0.96271 0.50242 0.0
C1819 C 0.52095 0.91558 0.48983 0.0
C1820 C 0.51169 0.90805 0.47196 0.0
C1821 C 0.52874 0.90381 0.50108 0.0
C1822 C 0.53793 0.91029 0.5205 0.0
C1823 C 0.52913 0.91877 0.53422 0.0
C1824 C 0.53776 0.92461 0.55258 0.0
C1825 C 0.55516 0.92198 0.55744 0.0
C1826 C 0.56397 0.91348 0.54395 0.0
C1827 C 0.5554 0.90762 0.52556 0.0
H1828 H 0.5618 0.92647 0.57168 0.0
H1829 H 0.47935 0.86706 0.39367 0.0
H1830 H 0.49665 0.26481 0.62009 0.0
H1831 H 0.47 0.26209 0.63688 0.0
H1832 H 0.49539 0.30858 0.6762 0.0
H1833 H 0.52257 0.30995 0.66053 0.0
H1834 H 0.47932 0.28869 0.69565 0.0
H1835 H 0.45786 0.30535 0.63482 0.0
H1836 H 0.45194 0.30206 0.5998 0.0
H1837 H 0.41966 0.24977 0.60026 0.0
H1838 H 0.42557 0.25264 0.63524 0.0
H1839 H 0.40084 0.29386 0.7398 0.0
H1840 H 0.42498 0.30191 0.71999 0.0
H1841 H 0.40502 0.25284 0.68245 0.0
H1842 H 0.3807 0.24525 0.70186 0.0
H1843 H 0.41789 0.27628 0.66195 0.0
H1844 H 0.44087 0.25926 0.72238 0.0
H1845 H 0.44749 0.26209 0.75732 0.0
H1846 H 0.47736 0.31558 0.7573 0.0
H1847 H 0.4707 0.31316 0.72239 0.0
C1848 C 0.49645 0.2744 0.63233 0.0
C1849 C 0.51164 0.28759 0.63901 0.0
C1850 C 0.48107 0.27303 0.64186 0.0
C1851 C 0.48016 0.28543 0.65771 0.0
C1852 C 0.49545 0.29875 0.66413 0.0
C1853 C 0.51103 0.29962 0.6551 0.0
C1854 C 0.46374 0.28426 0.66809 0.0
C1855 C 0.46595 0.28635 0.68813 0.0
C1856 C 0.44602 0.28075 0.65865 0.0
C1857 C 0.44225 0.27918 0.63764 0.0
C1858 C 0.44955 0.29313 0.62744 0.0
C1859 C 0.4462 0.29133 0.60759 0.0
C1860 C 0.43546 0.27571 0.59781 0.0
C1861 C 0.42799 0.26186 0.60785 0.0
C1862 C 0.43131 0.26358 0.62768 0.0
C1863 C 0.40127 0.28518 0.72692 0.0
C1864 C 0.38876 0.26903 0.72227 0.0
C1865 C 0.41529 0.28959 0.71575 0.0
C1866 C 0.41731 0.27775 0.69989 0.0
C1867 C 0.40403 0.26222 0.69459 0.0
C1868 C 0.39001 0.2579 0.70566 0.0
C1869 C 0.43358 0.28075 0.68938 0.0
C1870 C 0.43133 0.27892 0.66936 0.0
C1871 C 0.45128 0.28461 0.69882 0.0
C1872 C 0.4551 0.2861 0.71982 0.0
C1873 C 0.44872 0.27167 0.72986 0.0
C1874 C 0.4525 0.2732 0.74965 0.0
C1875 C 0.46279 0.28902 0.75953 0.0
C1876 C 0.46935 0.30335 0.74964 0.0
C1877 C 0.46557 0.30191 0.72986 0.0
H1878 H 0.46573 0.29016 0.77485 0.0
H1879 H 0.4329 0.27433 0.58245 0.0
H1880 H 0.04077 0.82058 0.68515 0.0
H1881 H 0.04409 0.84681 0.66725 0.0
H1882 H 0.01345 0.81387 0.61799 0.0
H1883 H 0.0117 0.78756 0.63531 0.0
H1884 H 0.03605 0.83369 0.60493 0.0
H1885 H 0.99807 0.84836 0.65144 0.0
H1886 H 0.98953 0.85295 0.68386 0.0
H1887 H 0.03541 0.89525 0.69937 0.0
H1888 H 0.04437 0.89073 0.66711 0.0
H1889 H 0.02735 0.90789 0.55329 0.0
H1890 H 0.01851 0.88316 0.57242 0.0
H1891 H 0.05694 0.91065 0.61908 0.0
H1892 H 0.06552 0.93537 0.60004 0.0
H1893 H 0.0283 0.89378 0.63283 0.0
H1894 H 0.06557 0.87718 0.5849 0.0
H1895 H 0.07262 0.87172 0.55198 0.0
H1896 H 0.02456 0.83184 0.53833 0.0
H1897 H 0.01707 0.83731 0.5711 0.0
C1898 C 0.03481 0.81902 0.67049 0.0
C1899 C 0.02599 0.802 0.66167 0.0
C1900 C 0.03651 0.83409 0.66024 0.0
C1901 C 0.02866 0.83271 0.64118 0.0
C1902 C 0.01974 0.8156 0.63254 0.0
C1903 C 0.01866 0.80048 0.64252 0.0
C1904 C 0.03 0.84875 0.62999 0.0
C1905 C 0.03398 0.84668 0.61106 0.0
C1906 C 0.0276 0.86601 0.6377 0.0
C1907 C 0.02195 0.86912 0.65691 0.0
C1908 C 1.00635 0.85862 0.66178 0.0
C1909 C 1.00145 0.86119 0.68013 0.0
C1910 C 0.01194 0.87436 0.69368 0.0
C1911 C 0.02731 0.88504 0.68887 0.0
C1912 C 0.03229 0.8825 0.67055 0.0
C1913 C 0.03351 0.90883 0.56782 0.0
C1914 C 0.04707 0.92357 0.57522 0.0
C1915 C 0.02861 0.89461 0.57871 0.0
C1916 C 0.03731 0.89473 0.59717 0.0
C1917 C 0.05005 0.91005 0.60491 0.0
C1918 C 0.05496 0.92422 0.59403 0.0
C1919 C 0.03426 0.87856 0.60793 0.0
C1920 C 0.03007 0.88064 0.62675 0.0
C1921 C 0.03605 0.86119 0.6 0.0
C1922 C 0.04068 0.85779 0.58038 0.0
C1923 C 0.05646 0.86733 0.57484 0.0
C1924 C 0.06052 0.86424 0.55621 0.0
C1925 C 0.04902 0.85147 0.54306 0.0
C1926 C 0.03344 0.84175 0.54852 0.0
C1927 C 0.02927 0.84485 0.56712 0.0
H1928 H 0.0522 0.84909 0.52864 0.0
H1929 H 1.00815 0.8763 0.70789 0.0
H1930 H 0.49668 0.79321 0.82017 0.0
H1931 H 0.46579 0.78848 0.80382 0.0
H1932 H 0.44851 0.81265 0.85433 0.0
H1933 H 0.47848 0.81752 0.87027 0.0
H1934 H 0.42606 0.78197 0.84181 0.0
H1935 H 0.45422 0.83363 0.81198 0.0
H1936 H 0.47512 0.8487 0.79162 0.0
H1937 H 0.45259 0.8088 0.74453 0.0
H1938 H 0.43174 0.79336 0.7647 0.0
H1939 H 0.33813 0.7945 0.81944 0.0
H1940 H 0.37026 0.79836 0.82877 0.0
H1941 H 0.37848 0.78704 0.76997 0.0
H1942 H 0.34637 0.78512 0.7606 0.0
H1943 H 0.40613 0.80689 0.78326 0.0
H1944 H 0.37853 0.75505 0.80864 0.0
H1945 H 0.35714 0.7368 0.8262 0.0
H1946 H 0.37859 0.77085 0.87802 0.0
H1947 H 0.39993 0.78945 0.86071 0.0
C1948 C 0.48636 0.7977 0.8277 0.0
C1949 C 0.49052 0.8057 0.8468 0.0
C1950 C 0.46856 0.79497 0.81831 0.0
C1951 C 0.45442 0.80009 0.82776 0.0
C1952 C 0.45879 0.80834 0.84654 0.0
C1953 C 0.47628 0.81115 0.85574 0.0
C1954 C 0.43494 0.79667 0.81903 0.0
C1955 C 0.42179 0.78756 0.82904 0.0
C1956 C 0.42893 0.80304 0.80186 0.0
C1957 C 0.44163 0.81222 0.78992 0.0
C1958 C 0.45388 0.82797 0.79735 0.0
C1959 C 0.46568 0.83659 0.78582 0.0
C1960 C 0.46523 0.82967 0.76681 0.0
C1961 C 0.45296 0.81412 0.75927 0.0
C1962 C 0.44116 0.80543 0.77074 0.0
C1963 C 0.34682 0.79296 0.80849 0.0
C1964 C 0.33956 0.7893 0.78928 0.0
C1965 C 0.36534 0.79489 0.81386 0.0
C1966 C 0.37729 0.7922 0.80033 0.0
C1967 C 0.36997 0.78904 0.78098 0.0
C1968 C 0.35147 0.78785 0.77555 0.0
C1969 C 0.39713 0.79265 0.80641 0.0
C1970 C 0.41032 0.80112 0.79593 0.0
C1971 C 0.40327 0.78506 0.82281 0.0
C1972 C 0.39074 0.7737 0.83336 0.0
C1973 C 0.37865 0.75866 0.82377 0.0
C1974 C 0.36652 0.74827 0.83367 0.0
C1975 C 0.36649 0.75269 0.8532 0.0
C1976 C 0.37863 0.76746 0.86289 0.0
C1977 C 0.39076 0.77792 0.85305 0.0
H1978 H 0.35708 0.74464 0.86084 0.0
H1979 H 0.47436 0.83639 0.75791 0.0
H1980 H 0.54862 0.21167 0.14161 0.0
H1981 H 0.5465 0.18243 0.12363 0.0
H1982 H 0.49332 0.16593 0.13842 0.0
H1983 H 0.49509 0.19607 0.15625 0.0
H1984 H 0.52013 0.13848 0.13941 0.0
H1985 H 0.49314 0.1754 0.09771 0.0
H1986 H 0.4919 0.20296 0.08229 0.0
H1987 H 0.54041 0.19812 0.05827 0.0
H1988 H 0.54208 0.17069 0.07382 0.0
H1989 H 0.50567 0.0606 0.07056 0.0
H1990 H 0.50267 0.08737 0.09114 0.0
H1991 H 0.54251 0.11978 0.06364 0.0
H1992 H 0.54508 0.09313 0.04266 0.0
H1993 H 0.51977 0.13893 0.06965 0.0
H1994 H 0.54956 0.10528 0.11122 0.0
H1995 H 0.55431 0.07873 0.12707 0.0
H1996 H 0.50542 0.07838 0.15207 0.0
H1997 H 0.50027 0.10482 0.13618 0.0
C1998 C 0.53643 0.20186 0.14136 0.0
C1999 C 0.52196 0.20653 0.15044 0.0
C2000 C 0.53527 0.18502 0.13093 0.0
C2001 C 0.51971 0.17188 0.12931 0.0
C2002 C 0.50551 0.17584 0.13933 0.0
C2003 C 0.50657 0.19306 0.14971 0.0
C2004 C 0.51847 0.15461 0.11633 0.0
C2005 C 0.51959 0.13847 0.12411 0.0
C2006 C 0.51874 0.1546 0.09638 0.0
C2007 C 0.51782 0.17111 0.08709 0.0
C2008 C 0.50363 0.18033 0.08931 0.0
C2009 C 0.50284 0.1959 0.08051 0.0
C2010 C 0.5161 0.20232 0.06935 0.0
C2011 C 0.53017 0.19315 0.06694 0.0
C2012 C 0.53104 0.17759 0.07574 0.0
C2013 C 0.51375 0.07344 0.0688 0.0
C2014 C 0.52551 0.07455 0.0547 0.0
C2015 C 0.51215 0.08885 0.08079 0.0
C2016 C 0.52256 0.10589 0.07944 0.0
C2017 C 0.5342 0.10701 0.0652 0.0
C2018 C 0.53565 0.09164 0.05306 0.0
C2019 C 0.52127 0.12251 0.09262 0.0
C2020 C 0.51998 0.13869 0.0849 0.0
C2021 C 0.52131 0.12264 0.11267 0.0
C2022 C 0.52443 0.10687 0.12235 0.0
C2023 C 0.53977 0.09946 0.12 0.0
C2024 C 0.54254 0.08445 0.129 0.0
C2025 C 0.53014 0.07683 0.14052 0.0
C2026 C 0.51499 0.08427 0.14312 0.0
C2027 C 0.51214 0.09927 0.13414 0.0
H2028 H 0.5323 0.0652 0.14746 0.0
H2029 H 0.51544 0.21437 0.06254 0.0
H2030 H 0.112 0.31377 0.36666 0.0
H2031 H 0.13991 0.30932 0.35455 0.0
H2032 H 0.1107 0.28599 0.30045 0.0
H2033 H 0.08256 0.29019 0.31275 0.0
H2034 H 0.13559 0.26762 0.30645 0.0
H2035 H 0.1393 0.33114 0.30982 0.0
H2036 H 0.13916 0.36201 0.32409 0.0
H2037 H 0.18281 0.35891 0.36567 0.0
H2038 H 0.18306 0.32792 0.35178 0.0
H2039 H 0.21658 0.26823 0.26118 0.0
H2040 H 0.18744 0.27207 0.27069 0.0
H2041 H 0.21327 0.29991 0.32465 0.0
H2042 H 0.2423 0.29677 0.31483 0.0
H2043 H 0.18919 0.31622 0.31698 0.0
H2044 H 0.18447 0.25163 0.31375 0.0
H2045 H 0.18426 0.22096 0.29869 0.0
H2046 H 0.14276 0.22651 0.25569 0.0
H2047 H 0.14274 0.25725 0.27052 0.0
C2048 C 0.11138 0.30773 0.35213 0.0
C2049 C 0.09466 0.30248 0.34082 0.0
C2050 C 0.1276 0.30526 0.34506 0.0
C2051 C 0.128 0.29753 0.32623 0.0
C2052 C 0.11124 0.29205 0.31496 0.0
C2053 C 0.09497 0.29455 0.32205 0.0
C2054 C 0.14569 0.29503 0.31853 0.0
C2055 C 0.14719 0.27842 0.30863 0.0
C2056 C 0.16137 0.30871 0.32129 0.0
C2057 C 0.16105 0.32716 0.32991 0.0
C2058 C 0.14875 0.33699 0.32213 0.0
C2059 C 0.14868 0.35451 0.33012 0.0
C2060 C 0.16093 0.3624 0.34582 0.0
C2061 C 0.1733 0.35277 0.35354 0.0
C2062 C 0.17342 0.33523 0.34561 0.0
C2063 C 0.21613 0.27511 0.27512 0.0
C2064 C 0.23221 0.2821 0.2871 0.0
C2065 C 0.1992 0.27721 0.28074 0.0
C2066 C 0.19748 0.28609 0.29878 0.0
C2067 C 0.21363 0.29302 0.31068 0.0
C2068 C 0.23049 0.29112 0.30499 0.0
C2069 C 0.17931 0.28865 0.30527 0.0
C2070 C 0.17767 0.30534 0.31489 0.0
C2071 C 0.16352 0.27505 0.3022 0.0
C2072 C 0.1637 0.25674 0.29315 0.0
C2073 C 0.17539 0.24634 0.30102 0.0
C2074 C 0.17529 0.22894 0.29253 0.0
C2075 C 0.16351 0.2218 0.27623 0.0
C2076 C 0.15186 0.23206 0.26833 0.0
C2077 C 0.15187 0.24944 0.27679 0.0
H2078 H 0.16336 0.20827 0.26976 0.0
H2079 H 0.16087 0.37598 0.35197 0.0
H2080 H 0.92674 0.01164 0.19917 0.0
H2081 H 0.937 0.01581 0.16777 0.0
H2082 H 0.99073 0.03566 0.19477 0.0
H2083 H 0.98069 0.03116 0.22583 0.0
H2084 H 0.98201 0.05603 0.16692 0.0
H2085 H 0.98 0.99432 0.17499 0.0
H2086 H 0.96736 0.96323 0.18016 0.0
H2087 H 0.93074 0.9579 0.1293 0.0
H2088 H 0.9429 0.98913 0.12405 0.0
H2089 H 0.0334 0.02507 0.09063 0.0
H2090 H 0.01892 0.02516 0.11971 0.0
H2091 H 0.97305 0.0403 0.09011 0.0
H2092 H 0.98798 0.04154 0.06109 0.0
H2093 H 0.97611 1.00354 0.11799 0.0
H2094 H 0.98007 0.06848 0.11201 0.0
H2095 H 0.99686 0.09845 0.108 0.0
H2096 H 0.03383 0.09625 0.15681 0.0
H2097 H 0.01753 0.06598 0.16072 0.0
C2098 C 0.94067 0.01713 0.19837 0.0
C2099 C 0.95291 0.02106 0.215 0.0
C2100 C 0.94656 0.01939 0.18042 0.0
C2101 C 0.9647 0.02596 0.17883 0.0
C2102 C 0.9767 0.03057 0.19553 0.0
C2103 C 0.97093 0.02797 0.21331 0.0
C2104 C 0.97149 0.02767 0.15989 0.0
C2105 C 0.98055 0.04454 0.1562 0.0
C2106 C 0.96988 0.01271 0.14585 0.0
C2107 C 0.96211 0.99419 0.14935 0.0
C2108 C 0.96903 0.98664 0.16509 0.0
C2109 C 0.96201 0.96896 0.168 0.0
C2110 C 0.94819 0.95862 0.15513 0.0
C2111 C 0.94137 0.96595 0.13932 0.0
C2112 C 0.94831 0.98365 0.13639 0.0
C2113 C 0.02049 0.02907 0.09034 0.0
C2114 C 0.01217 0.03393 0.07352 0.0
C2115 C 0.01215 0.0289 0.10702 0.0
C2116 C 0.99506 0.03311 0.10725 0.0
C2117 C 0.98643 0.03745 0.09041 0.0
C2118 C 0.99498 0.03808 0.0738 0.0
C2119 C 0.98602 0.03195 0.12487 0.0
C2120 C 0.97696 0.0151 0.12849 0.0
C2121 C 0.98785 0.04684 0.13896 0.0
C2122 C 0.99783 0.06482 0.13637 0.0
C2123 C 0.992 0.07421 0.12162 0.0
C2124 C 1.00138 0.09129 0.11942 0.0
C2125 C 0.01648 0.09921 0.13206 0.0
C2126 C 0.0222 0.09006 0.14695 0.0
C2127 C 0.01292 0.07293 0.14913 0.0
H2128 H 0.02367 0.11247 0.13039 0.0
H2129 H 0.94281 0.94491 0.15736 0.0
H2130 H 0.2866 0.67602 0.51062 0.0
H2131 H 0.28302 0.69212 0.48326 0.0
H2132 H 0.25709 0.64254 0.44911 0.0
H2133 H 0.26093 0.62596 0.47699 0.0
H2134 H 0.28344 0.66266 0.43275 0.0
H2135 H 0.2322 0.67355 0.46238 0.0
H2136 H 0.21508 0.68214 0.4883 0.0
H2137 H 0.24792 0.73495 0.49758 0.0
H2138 H 0.2654 0.72662 0.47194 0.0
H2139 H 0.25352 0.7134 0.36147 0.0
H2140 H 0.26264 0.69304 0.38333 0.0
H2141 H 0.28438 0.73848 0.42551 0.0
H2142 H 0.27448 0.75886 0.4038 0.0
H2143 H 0.25711 0.71784 0.43609 0.0
H2144 H 0.31123 0.70664 0.41144 0.0
H2145 H 0.33124 0.69793 0.38844 0.0
H2146 H 0.29521 0.64757 0.37142 0.0
H2147 H 0.27522 0.65577 0.39462 0.0
C2148 C 0.28013 0.66849 0.49728 0.0
C2149 C 0.27396 0.64984 0.4957 0.0
C2150 C 0.27792 0.67774 0.48178 0.0
C2151 C 0.26929 0.66851 0.46452 0.0
C2152 C 0.2635 0.64976 0.4626 0.0
C2153 C 0.26585 0.64035 0.47829 0.0
C2154 C 0.26789 0.6787 0.44831 0.0
C2155 C 0.27732 0.67453 0.43313 0.0
C2156 C 0.26049 0.69447 0.44951 0.0
C2157 C 0.25015 0.69941 0.46523 0.0
C2158 C 0.23587 0.68694 0.47005 0.0
C2159 C 0.22608 0.69178 0.48468 0.0
C2160 C 0.23041 0.70908 0.49458 0.0
C2161 C 0.24456 0.72156 0.48989 0.0
C2162 C 0.25439 0.71679 0.47529 0.0
C2163 C 0.26067 0.719 0.37525 0.0
C2164 C 0.26289 0.73744 0.38144 0.0
C2165 C 0.26615 0.70743 0.38757 0.0
C2166 C 0.27407 0.71433 0.40599 0.0
C2167 C 0.27819 0.73302 0.4113 0.0
C2168 C 0.27236 0.74456 0.39912 0.0
C2169 C 0.27336 0.70227 0.42082 0.0
C2170 C 0.26324 0.70599 0.4356 0.0
C2171 C 0.28033 0.68628 0.41939 0.0
C2172 C 0.29164 0.68192 0.40454 0.0
C2173 C 0.30747 0.69382 0.4026 0.0
C2174 C 0.31885 0.68893 0.38962 0.0
C2175 C 0.31439 0.67233 0.37832 0.0
C2176 C 0.29861 0.66048 0.38009 0.0
C2177 C 0.2873 0.66519 0.39322 0.0
H2178 H 0.32323 0.66859 0.36828 0.0
H2179 H 0.22279 0.7128 0.50587 0.0
H2180 H 0.66155 0.02147 0.69731 0.0
H2181 H 0.64773 0.01724 0.6642 0.0
H2182 H 0.62363 0.06387 0.67524 0.0
H2183 H 0.63727 0.06823 0.70812 0.0
H2184 H 0.60063 0.02734 0.66722 0.0
H2185 H 0.6481 0.06868 0.64636 0.0
H2186 H 0.67913 0.08028 0.64096 0.0
H2187 H 0.67973 0.03157 0.60514 0.0
H2188 H 0.64878 0.01953 0.61067 0.0
H2189 H 0.55153 0.04825 0.58789 0.0
H2190 H 0.57264 0.04774 0.6157 0.0
H2191 H 0.5918 1.00363 0.58659 0.0
H2192 H 0.57067 1.00401 0.55864 0.0
H2193 H 0.61836 0.033 0.60247 0.0
H2194 H 0.56765 0.99436 0.62064 0.0
H2195 H 0.53597 0.98564 0.62548 0.0
H2196 H 0.54076 0.03238 0.66609 0.0
H2197 H 0.57241 0.04152 0.66132 0.0
C2198 C 0.65376 0.03112 0.69244 0.0
C2199 C 0.64989 0.04481 0.70517 0.0
C2200 C 0.64605 0.02875 0.67362 0.0
C2201 C 0.63471 0.04021 0.66769 0.0
C2202 C 0.6324 0.05497 0.67986 0.0
C2203 C 0.63999 0.05729 0.69858 0.0
C2204 C 0.62229 0.03477 0.65056 0.0
C2205 C 0.60443 0.02853 0.65301 0.0
C2206 C 0.62762 0.03597 0.63229 0.0
C2207 C 0.64628 0.04306 0.62925 0.0
C2208 C 0.65495 0.06032 0.6376 0.0
C2209 C 0.6725 0.067 0.63445 0.0
C2210 C 0.68144 0.05662 0.6228 0.0
C2211 C 0.67282 0.03956 0.61424 0.0
C2212 C 0.65529 0.03279 0.61739 0.0
C2213 C 0.56002 0.03825 0.5876 0.0
C2214 C 0.55959 0.02613 0.57136 0.0
C2215 C 0.572 0.03798 0.60337 0.0
C2216 C 0.58342 0.02548 0.60299 0.0
C2217 C 0.58288 0.01323 0.5869 0.0
C2218 C 0.57092 0.01351 0.57108 0.0
C2219 C 0.59663 0.02609 0.61919 0.0
C2220 C 0.61463 0.03131 0.61662 0.0
C2221 C 0.59139 0.02426 0.63745 0.0
C2222 C 0.57241 0.01862 0.64061 0.0
C2223 C 0.56194 1.00281 0.63056 0.0
C2224 C 0.54399 0.99779 0.6333 0.0
C2225 C 0.53636 0.00844 0.64609 0.0
C2226 C 0.54669 0.02413 0.65621 0.0
C2227 C 0.56465 0.0292 0.65353 0.0
H2228 H 0.52244 1.00455 0.64814 0.0
H2229 H 0.69502 0.06184 0.62034 0.0
H2230 H 0.27279 0.345 0.98626 0.0
H2231 H 0.27063 0.32985 0.95395 0.0
H2232 H 0.3149 0.36955 0.94229 0.0
H2233 H 0.31572 0.38563 0.97406 0.0
H2234 H 0.29388 0.36349 0.91312 0.0
H2235 H 0.31464 0.32038 0.95251 0.0
H2236 H 0.31218 0.30045 0.97798 0.0
H2237 H 0.26154 0.27164 0.94994 0.0
H2238 H 0.2636 0.29153 0.92445 0.0
H2239 H 0.31593 0.31545 0.83019 0.0
H2240 H 0.3167 0.32898 0.86314 0.0
H2241 H 0.2657 0.29554 0.86704 0.0
H2242 H 0.26507 0.282 0.8341 0.0
H2243 H 0.28839 0.29737 0.89967 0.0
H2244 H 0.2691 0.33769 0.85883 0.0
H2245 H 0.26959 0.35817 0.83397 0.0
H2246 H 0.31526 0.39337 0.86562 0.0
H2247 H 0.3159 0.3725 0.8899 0.0
C2248 C 0.28209 0.35039 0.97676 0.0
C2249 C 0.29454 0.36638 0.98269 0.0
C2250 C 0.281 0.34161 0.95827 0.0
C2251 C 0.29295 0.34806 0.9455 0.0
C2252 C 0.30548 0.36408 0.95163 0.0
C2253 C 0.30606 0.37327 0.96987 0.0
C2254 C 0.29217 0.33864 0.92566 0.0
C2255 C 0.29314 0.34907 0.91033 0.0
C2256 C 0.29022 0.31964 0.92155 0.0
C2257 C 0.28923 0.30749 0.93666 0.0
C2258 C 0.30297 0.30981 0.95182 0.0
C2259 C 0.30164 0.29854 0.96626 0.0
C2260 C 0.2867 0.28481 0.96559 0.0
C2261 C 0.27309 0.28228 0.95045 0.0
C2262 C 0.27435 0.29353 0.936 0.0
C2263 C 0.30517 0.31065 0.83828 0.0
C2264 C 0.2907 0.29732 0.82978 0.0
C2265 C 0.30547 0.31856 0.85704 0.0
C2266 C 0.29123 0.31336 0.86771 0.0
C2267 C 0.27691 0.29975 0.85927 0.0
C2268 C 0.27657 0.29198 0.84046 0.0
C2269 C 0.291 0.32238 0.8874 0.0
C2270 C 0.28954 0.31184 0.90258 0.0
C2271 C 0.2925 0.34128 0.89138 0.0
C2272 C 0.29273 0.35331 0.87609 0.0
C2273 C 0.27957 0.34953 0.86024 0.0
C2274 C 0.27967 0.36121 0.84619 0.0
C2275 C 0.29259 0.37696 0.84805 0.0
C2276 C 0.30544 0.38104 0.86396 0.0
C2277 C 0.30567 0.3692 0.8778 0.0
H2278 H 0.29257 0.38608 0.83725 0.0
H2279 H 0.28569 0.27612 0.97679 0.0
H2280 H 0.97234 0.01541 0.30572 0.0
H2281 H 0.98779 0.01597 0.33767 0.0
H2282 H 0.93883 0.0198 0.36173 0.0
H2283 H 0.92346 0.01965 0.32986 0.0
H2284 H 0.96549 0.04311 0.38108 0.0
H2285 H 0.95746 0.97984 0.35816 0.0
H2286 H 0.96074 0.95488 0.3347 0.0
H2287 H 0.01782 0.97153 0.34379 0.0
H2288 H 0.01484 0.99674 0.36713 0.0
H2289 H 0.98817 0.02975 0.476 0.0
H2290 H 0.97546 0.02817 0.44308 0.0
H2291 H 0.02384 0.01453 0.42431 0.0
H2292 H 0.03626 0.01509 0.45762 0.0
H2293 H 0.99971 0.99704 0.40086 0.0
H2294 H 1.00893 0.06048 0.42185 0.0
H2295 H 1.00687 0.0905 0.43721 0.0
H2296 H 0.94957 0.07656 0.42869 0.0
H2297 H 0.95128 0.04651 0.41338 0.0
C2298 C 0.96482 0.01621 0.3178 0.0
C2299 C 0.9466 0.01739 0.31515 0.0
C2300 C 0.97368 0.01645 0.33613 0.0
C2301 C 0.96451 0.01768 0.3523 0.0
C2302 C 0.94628 0.01879 0.34961 0.0
C2303 C 0.93745 0.01862 0.33131 0.0
C2304 C 0.97389 0.01852 0.37207 0.0
C2305 C 0.9727 0.03284 0.38551 0.0
C2306 C 0.98412 1.00569 0.37774 0.0
C2307 C 0.98593 0.99017 0.36431 0.0
C2308 C 0.9707 0.97817 0.35513 0.0
C2309 C 0.97251 0.96401 0.34184 0.0
C2310 C 0.98948 0.96163 0.33775 0.0
C2311 C 1.00469 0.97338 0.34699 0.0
C2312 C 1.00295 0.98759 0.36026 0.0
C2313 C 0.99617 0.02638 0.4649 0.0
C2314 C 0.01335 0.02268 0.46959 0.0
C2315 C 0.98892 0.02572 0.44589 0.0
C2316 C 0.99876 0.02184 0.43079 0.0
C2317 C 0.01584 0.01771 0.43546 0.0
C2318 C 0.02299 0.01801 0.45459 0.0
C2319 C 0.99093 0.02155 0.41034 0.0
C2320 C 0.99246 0.00734 0.39665 0.0
C2321 C 0.98115 0.03467 0.4043 0.0
C2322 C 0.98024 0.05129 0.41651 0.0
C2323 C 0.99591 0.06369 0.42365 0.0
C2324 C 0.99479 0.08076 0.43219 0.0
C2325 C 0.97807 0.08547 0.43361 0.0
C2326 C 0.96247 0.07292 0.42737 0.0
C2327 C 0.96351 0.0559 0.41881 0.0
H2328 H 0.9771 0.09888 0.43934 0.0
H2329 H 0.99085 0.95067 0.32742 0.0
H2330 H 0.2721 0.69265 0.5861 0.0
H2331 H 0.27885 0.70568 0.6187 0.0
H2332 H 0.28694 0.65449 0.63605 0.0
H2333 H 0.27982 0.6408 0.60275 0.0
H2334 H 0.26291 0.67401 0.65611 0.0
H2335 H 0.32299 0.68414 0.64001 0.0
H2336 H 0.34532 0.69174 0.61788 0.0
H2337 H 0.33229 0.7444 0.61696 0.0
H2338 H 0.30974 0.73706 0.63888 0.0
H2339 H 0.3045 0.73922 0.74046 0.0
H2340 H 0.30286 0.71606 0.71411 0.0
H2341 H 0.26704 0.74166 0.6802 0.0
H2342 H 0.26727 0.7643 0.70727 0.0
H2343 H 0.30946 0.72927 0.67314 0.0
H2344 H 0.24394 0.71554 0.67411 0.0
H2345 H 0.21636 0.70842 0.68906 0.0
H2346 H 0.23539 0.66448 0.71296 0.0
H2347 H 0.26345 0.67179 0.69845 0.0
C2348 C 0.27533 0.68401 0.59668 0.0
C2349 C 0.27547 0.66568 0.59188 0.0
C2350 C 0.27934 0.69156 0.61529 0.0
C2351 C 0.2838 0.68105 0.62942 0.0
C2352 C 0.2838 0.6627 0.625 0.0
C2353 C 0.27973 0.655 0.60613 0.0
C2354 C 0.28715 0.68966 0.64886 0.0
C2355 C 0.27348 0.6857 0.66032 0.0
C2356 C 0.30057 0.70523 0.65362 0.0
C2357 C 0.31478 0.71007 0.64122 0.0
C2358 C 0.32494 0.69736 0.63513 0.0
C2359 C 0.3376 0.70161 0.62259 0.0
C2360 C 0.34025 0.71856 0.61605 0.0
C2361 C 0.33029 0.73131 0.6221 0.0
C2362 C 0.31761 0.72713 0.63465 0.0
C2363 C 0.29594 0.73977 0.72758 0.0
C2364 C 0.28572 0.75331 0.72594 0.0
C2365 C 0.29503 0.72653 0.71264 0.0
C2366 C 0.28433 0.72699 0.69577 0.0
C2367 C 0.27475 0.74089 0.6936 0.0
C2368 C 0.27519 0.75393 0.70883 0.0
C2369 C 0.28489 0.71387 0.67984 0.0
C2370 C 0.29939 0.71711 0.66937 0.0
C2371 C 0.27195 0.69797 0.67562 0.0
C2372 C 0.25594 0.69452 0.68569 0.0
C2373 C 0.24245 0.70469 0.68299 0.0
C2374 C 0.22663 0.70047 0.6912 0.0
C2375 C 0.22404 0.68591 0.70192 0.0
C2376 C 0.2374 0.67573 0.70465 0.0
C2377 C 0.2533 0.67996 0.69651 0.0
H2378 H 0.21177 0.6826 0.70828 0.0
H2379 H 0.35002 0.72179 0.60628 0.0
H2380 H 0.65353 0.06346 0.797 0.0
H2381 H 0.6371 0.06471 0.82453 0.0
H2382 H 0.65709 0.01872 0.84306 0.0
H2383 H 0.67368 0.01741 0.81515 0.0
H2384 H 0.61891 0.01554 0.83802 0.0
H2385 H 0.67101 0.05688 0.86905 0.0
H2386 H 0.6954 0.0832 0.8708 0.0
H2387 H 0.65704 0.11784 0.86467 0.0
H2388 H 0.63242 0.0917 0.86255 0.0
H2389 H 0.58831 0.0382 0.93168 0.0
H2390 H 0.60115 0.02578 0.90434 0.0
H2391 H 0.58322 0.06513 0.871 0.0
H2392 H 0.57029 0.07757 0.89822 0.0
H2393 H 0.62202 0.06845 0.88565 0.0
H2394 H 0.57027 0.02946 0.85323 0.0
H2395 H 0.54462 1.00431 0.84621 0.0
H2396 H 0.58001 0.96648 0.84942 0.0
H2397 H 0.6058 0.99134 0.85783 0.0
C2398 C 0.65473 0.05389 0.80718 0.0
C2399 C 0.66466 0.0403 0.80417 0.0
C2400 C 0.64543 0.05465 0.82287 0.0
C2401 C 0.64602 0.0418 0.83565 0.0
C2402 C 0.65667 0.02873 0.83323 0.0
C2403 C 0.66619 0.0281 0.81753 0.0
C2404 C 0.63412 0.04133 0.85047 0.0
C2405 C 0.61975 0.02679 0.84892 0.0
C2406 C 0.63507 0.05649 0.86383 0.0
C2407 C 0.64988 0.07231 0.86562 0.0
C2408 C 0.66778 0.0701 0.86801 0.0
C2409 C 0.68164 0.08499 0.86905 0.0
C2410 C 0.67777 0.10218 0.86784 0.0
C2411 C 0.66002 0.10452 0.86563 0.0
C2412 C 0.64611 0.08968 0.86454 0.0
C2413 C 0.58647 0.04368 0.91826 0.0
C2414 C 0.57883 0.05911 0.91701 0.0
C2415 C 0.59361 0.03646 0.90267 0.0
C2416 C 0.59304 0.04462 0.88586 0.0
C2417 C 0.58357 0.05866 0.88395 0.0
C2418 C 0.5765 0.06592 0.8995 0.0
C2419 C 0.6066 0.04269 0.87317 0.0
C2420 C 0.62133 0.05689 0.87518 0.0
C2421 C 0.6057 0.02735 0.86004 0.0
C2422 C 0.59 0.01236 0.85668 0.0
C2423 C 0.57258 0.01581 0.85317 0.0
C2424 C 0.55798 1.00156 0.84891 0.0
C2425 C 0.56064 0.98378 0.84773 0.0
C2426 C 0.5779 0.98022 0.85084 0.0
C2427 C 0.59251 0.99439 0.85545 0.0
H2428 H 0.54935 0.97276 0.84419 0.0
H2429 H 0.68853 0.11369 0.86863 0.0
H2430 H 0.30272 0.38829 0.09893 0.0
H2431 H 0.29842 0.37779 0.13027 0.0
H2432 H 0.27661 0.32421 0.1028 0.0
H2433 H 0.28114 0.3345 0.07185 0.0
H2434 H 0.25734 0.33282 0.13085 0.0
H2435 H 0.3183 0.3341 0.12242 0.0
H2436 H 0.34919 0.34652 0.11718 0.0
H2437 H 0.35526 0.38287 0.16852 0.0
H2438 H 0.32423 0.37092 0.17384 0.0
H2439 H 0.28802 0.27959 0.20643 0.0
H2440 H 0.28829 0.29464 0.17759 0.0
H2441 H 0.27226 0.34018 0.20729 0.0
H2442 H 0.27081 0.32472 0.23606 0.0
H2443 H 0.30949 0.33738 0.17948 0.0
H2444 H 0.24471 0.33422 0.18514 0.0
H2445 H 0.21493 0.31721 0.18888 0.0
H2446 H 0.21769 0.27982 0.14045 0.0
H2447 H 0.24775 0.29636 0.1368 0.0
C2448 C 0.29674 0.37437 0.09963 0.0
C2449 C 0.29226 0.36223 0.08289 0.0
C2450 C 0.29442 0.36832 0.11754 0.0
C2451 C 0.28729 0.35012 0.119 0.0
C2452 C 0.28213 0.33828 0.10218 0.0
C2453 C 0.28475 0.34419 0.08445 0.0
C2454 C 0.28556 0.34305 0.13786 0.0
C2455 C 0.26877 0.33402 0.14151 0.0
C2456 C 0.30041 0.34424 0.15182 0.0
C2457 C 0.31883 0.35187 0.14832 0.0
C2458 C 0.32611 0.34496 0.13241 0.0
C2459 C 0.34367 0.35187 0.12947 0.0
C2460 C 0.35416 0.36555 0.14245 0.0
C2461 C 0.3471 0.37234 0.15842 0.0
C2462 C 0.32952 0.36553 0.16139 0.0
C2463 C 0.28398 0.29257 0.20679 0.0
C2464 C 0.27887 0.30066 0.22359 0.0
C2465 C 0.28432 0.30124 0.19025 0.0
C2466 C 0.27997 0.3184 0.19011 0.0
C2467 C 0.27526 0.32675 0.20689 0.0
C2468 C 0.2745 0.3179 0.22338 0.0
C2469 C 0.28123 0.32778 0.17261 0.0
C2470 C 0.29801 0.33682 0.16905 0.0
C2471 C 0.26646 0.32634 0.15858 0.0
C2472 C 0.24861 0.31627 0.16099 0.0
C2473 C 0.23913 0.32215 0.17556 0.0
C2474 C 0.22217 0.31265 0.1776 0.0
C2475 C 0.21446 0.29737 0.16498 0.0
C2476 C 0.22371 0.29159 0.15028 0.0
C2477 C 0.24072 0.301 0.14825 0.0
H2478 H 0.20129 0.29008 0.16654 0.0
H2479 H 0.36778 0.37083 0.14019 0.0
H2480 H 0.23782 0.92242 0.01203 0.0
H2481 H 0.21155 0.9363 0.01387 0.0
H2482 H 0.24152 0.98619 0.99984 0.0
H2483 H 0.26813 0.97261 0.99916 0.0
H2484 H 0.22401 0.99154 0.02837 0.0
H2485 H 0.2093 0.95691 0.96651 0.0
H2486 H 0.20556 0.92903 0.94447 0.0
H2487 H 0.16533 0.90298 0.97594 0.0
H2488 H 0.16898 0.93063 0.9983 0.0
H2489 H 0.14996 0.03129 0.02882 0.0
H2490 H 0.17116 0.01774 0.01113 0.0
H2491 H 0.15274 0.96675 0.03165 0.0
H2492 H 0.13169 0.98035 0.04945 0.0
H2493 H 0.16411 0.96374 0.99474 0.0
H2494 H 0.18206 0.99356 0.05864 0.0
H2495 H 0.18733 0.01854 0.08455 0.0
H2496 H 0.22308 0.05067 0.05277 0.0
H2497 H 0.2176 0.02602 0.02641 0.0
C2498 C 0.23874 0.93641 0.00959 0.0
C2499 C 0.25474 0.94664 0.00563 0.0
C2500 C 0.22376 0.94418 0.01029 0.0
C2501 C 0.2246 0.96201 0.00634 0.0
C2502 C 0.24071 0.97232 0.00267 0.0
C2503 C 0.25584 0.96469 0.00251 0.0
C2504 C 0.209 0.97037 0.0076 0.0
C2505 C 0.21102 0.98582 0.02055 0.0
C2506 C 0.19206 0.9623 0.9979 0.0
C2507 C 0.18942 0.94586 0.98407 0.0
C2508 C 0.19967 0.94523 0.96873 0.0
C2509 C 0.19757 0.92946 0.9562 0.0
C2510 C 0.18521 0.91424 0.9588 0.0
C2511 C 0.17487 0.91479 0.97392 0.0
C2512 C 0.17691 0.93052 0.98649 0.0
C2513 C 0.15023 0.01709 0.02905 0.0
C2514 C 0.13987 1.00679 0.04068 0.0
C2515 C 0.16208 0.00939 0.01888 0.0
C2516 C 0.16344 0.99142 0.02039 0.0
C2517 C 0.1517 0.98065 0.03041 0.0
C2518 C 0.13998 0.9884 0.04072 0.0
C2519 C 0.17931 0.98501 0.01522 0.0
C2520 C 0.17729 0.96983 0.00186 0.0
C2521 C 0.1963 0.99308 0.02479 0.0
C2522 C 0.19905 0.00813 0.04035 0.0
C2523 C 0.19074 1.00608 0.057 0.0
C2524 C 0.19383 0.02016 0.07181 0.0
C2525 C 0.20544 0.03623 0.07026 0.0
C2526 C 0.21399 0.03826 0.0539 0.0
C2527 C 0.21085 0.02427 0.03899 0.0
H2528 H 0.20789 0.04708 0.08179 0.0
H2529 H 0.18364 0.90203 0.94911 0.0
H2530 H 0.69899 0.66838 0.00981 0.0
H2531 H 0.67219 0.64633 0.01219 0.0
H2532 H 0.70089 0.60317 0.00122 0.0
H2533 H 0.72807 0.62532 0.99904 0.0
H2534 H 0.66648 0.59727 0.98 0.0
H2535 H 0.69243 0.61236 0.04481 0.0
H2536 H 0.70588 0.63262 0.07376 0.0
H2537 H 0.65805 0.65472 0.07488 0.0
H2538 H 0.6444 0.63476 0.04578 0.0
H2539 H 0.59923 0.53517 0.0259 0.0
H2540 H 0.62819 0.55364 0.02254 0.0
H2541 H 0.60148 0.5939 1.00032 0.0
H2542 H 0.57256 0.57499 0.00202 0.0
H2543 H 0.63615 0.59894 0.03858 0.0
H2544 H 0.61305 0.58753 0.9701 0.0
H2545 H 0.59997 0.56722 0.94111 0.0
H2546 H 0.6433 0.53841 0.94701 0.0
H2547 H 0.65631 0.55825 0.97645 0.0
C2548 C 0.69967 0.65422 0.00779 0.0
C2549 C 0.71575 0.6487 0.00414 0.0
C2550 C 0.6843 0.64159 0.00927 0.0
C2551 C 0.68449 0.62306 0.007 0.0
C2552 C 0.70041 0.6174 0.00305 0.0
C2553 C 0.71595 0.63009 0.00184 0.0
C2554 C 0.66796 0.6098 0.00875 0.0
C2555 C 0.66 0.59752 0.99291 0.0
C2556 C 0.65931 0.61016 0.0255 0.0
C2557 C 0.66745 0.62216 0.04302 0.0
C2558 C 0.68484 0.62164 0.05114 0.0
C2559 C 0.69248 0.63305 0.0676 0.0
C2560 C 0.68284 0.64497 0.07613 0.0
C2561 C 0.66551 0.64548 0.06825 0.0
C2562 C 0.6578 0.63411 0.05179 0.0
C2563 C 0.59941 0.54759 0.01962 0.0
C2564 C 0.58335 0.55318 0.01372 0.0
C2565 C 0.61604 0.55828 0.01795 0.0
C2566 C 0.617 0.575 0.01082 0.0
C2567 C 0.60109 0.58085 0.0054 0.0
C2568 C 0.5845 0.56996 0.00646 0.0
C2569 C 0.63458 0.58675 0.00974 0.0
C2570 C 0.64274 0.59867 0.02575 0.0
C2571 C 0.64336 0.58616 0.99314 0.0
C2572 C 0.63537 0.57404 0.97574 0.0
C2573 C 0.61955 0.5766 0.96548 0.0
C2574 C 0.6122 0.56524 0.94891 0.0
C2575 C 0.62072 0.55144 0.94229 0.0
C2576 C 0.63664 0.54901 0.95223 0.0
C2577 C 0.64397 0.56027 0.96889 0.0
H2578 H 0.61506 0.54272 0.9294 0.0
H2579 H 0.68876 0.65379 0.08887 0.0
H2580 H 0.63903 0.47735 0.27432 0.0
H2581 H 0.65433 0.45159 0.27197 0.0
H2582 H 0.70496 0.48748 0.28937 0.0
H2583 H 0.68989 0.51314 0.29035 0.0
H2584 H 0.7098 0.4661 0.26303 0.0
H2585 H 0.67984 0.45604 0.31904 0.0
H2586 H 0.65419 0.45079 0.33762 0.0
H2587 H 0.63062 0.40353 0.29925 0.0
H2588 H 0.65602 0.40863 0.28034 0.0
H2589 H 0.76228 0.40053 0.27556 0.0
H2590 H 0.74548 0.42387 0.28531 0.0
H2591 H 0.69641 0.38923 0.25952 0.0
H2592 H 0.71321 0.36585 0.25012 0.0
H2593 H 0.69068 0.40926 0.29068 0.0
H2594 H 0.72019 0.41977 0.23472 0.0
H2595 H 0.74591 0.42459 0.21622 0.0
H2596 H 0.77038 0.47123 0.25506 0.0
H2597 H 0.74493 0.46651 0.27395 0.0
C2598 C 0.65344 0.47966 0.27753 0.0
C2599 C 0.66329 0.49725 0.28231 0.0
C2600 C 0.66218 0.46491 0.27644 0.0
C2601 C 0.68086 0.46743 0.2808 0.0
C2602 C 0.69059 0.48505 0.28583 0.0
C2603 C 0.68194 0.49977 0.28637 0.0
C2604 C 0.69057 0.45204 0.27928 0.0
C2605 C 0.70574 0.45385 0.26946 0.0
C2606 C 0.68509 0.43568 0.28701 0.0
C2607 C 0.66971 0.43283 0.29819 0.0
C2608 C 0.6691 0.44463 0.31449 0.0
C2609 C 0.65463 0.44166 0.32509 0.0
C2610 C 0.64076 0.42687 0.31959 0.0
C2611 C 0.64134 0.415 0.30348 0.0
C2612 C 0.65577 0.41792 0.29283 0.0
C2613 C 0.74783 0.39767 0.27279 0.0
C2614 C 0.73894 0.38139 0.26239 0.0
C2615 C 0.73827 0.41107 0.27809 0.0
C2616 C 0.71973 0.40844 0.27277 0.0
C2617 C 0.71069 0.39158 0.26373 0.0
C2618 C 0.72025 0.37819 0.2585 0.0
C2619 C 0.71 0.42366 0.27494 0.0
C2620 C 0.69478 0.42169 0.28459 0.0
C2621 C 0.71544 0.43994 0.26713 0.0
C2622 C 0.73078 0.44267 0.25585 0.0
C2623 C 0.73114 0.43096 0.2394 0.0
C2624 C 0.74565 0.43369 0.22883 0.0
C2625 C 0.75979 0.44818 0.23448 0.0
C2626 C 0.75944 0.45999 0.25071 0.0
C2627 C 0.74498 0.45729 0.26136 0.0
H2628 H 0.77101 0.45029 0.22626 0.0
H2629 H 0.62958 0.42457 0.32784 0.0
H2630 H 0.83751 0.46116 0.48621 0.0
H2631 H 0.86647 0.4817 0.49347 0.0
H2632 H 0.89092 0.43786 0.51081 0.0
H2633 H 0.86221 0.41726 0.50335 0.0
H2634 H 0.89885 0.46964 0.53671 0.0
H2635 H 0.89769 0.44783 0.47171 0.0
H2636 H 0.88443 0.44051 0.43828 0.0
H2637 H 0.8862 0.49671 0.4334 0.0
H2638 H 0.89902 0.50434 0.46704 0.0
H2639 H 0.9903 0.49297 0.52841 0.0
H2640 H 0.9589 0.47979 0.52687 0.0
H2641 H 0.94462 0.52967 0.51213 0.0
H2642 H 0.97627 0.54323 0.51395 0.0
H2643 H 0.92998 0.49829 0.48616 0.0
H2644 H 0.93656 0.51765 0.55414 0.0
H2645 H 0.95175 0.52009 0.58667 0.0
H2646 H 0.94368 0.46241 0.58388 0.0
H2647 H 0.9284 0.45964 0.55127 0.0
C2648 C 0.84916 0.45596 0.49137 0.0
C2649 C 0.84791 0.43773 0.49402 0.0
C2650 C 0.86551 0.46762 0.49557 0.0
C2651 C 0.8805 0.46109 0.50267 0.0
C2652 C 0.87928 0.44294 0.50536 0.0
C2653 C 0.86305 0.43123 0.50087 0.0
C2654 C 0.8977 0.47309 0.50691 0.0
C2655 C 0.90569 0.47602 0.52575 0.0
C2656 C 0.90635 0.48108 0.49238 0.0
C2657 C 0.89902 0.47664 0.47201 0.0
C2658 C 0.89504 0.45862 0.4636 0.0
C2659 C 0.88763 0.45442 0.4446 0.0
C2660 C 0.88439 0.46814 0.43374 0.0
C2661 C 0.88865 0.4861 0.44186 0.0
C2662 C 0.89597 0.49037 0.46091 0.0
C2663 C 0.98056 0.5014 0.52561 0.0
C2664 C 0.98562 0.51913 0.52145 0.0
C2665 C 0.96266 0.49381 0.5246 0.0
C2666 C 0.94971 0.50392 0.51953 0.0
C2667 C 0.95464 0.52186 0.51617 0.0
C2668 C 0.97261 0.52952 0.51727 0.0
C2669 C 0.93109 0.49504 0.51606 0.0
C2670 C 0.92288 0.49247 0.49726 0.0
C2671 C 0.92254 0.48677 0.5305 0.0
C2672 C 0.93129 0.48845 0.5503 0.0
C2673 C 0.93804 0.50549 0.56046 0.0
C2674 C 0.9467 0.50692 0.57892 0.0
C2675 C 0.94872 0.49139 0.58735 0.0
C2676 C 0.94207 0.47442 0.57735 0.0
C2677 C 0.93333 0.47291 0.55892 0.0
H2678 H 0.95533 0.49241 0.60166 0.0
H2679 H 0.87866 0.46486 0.41903 0.0
H2680 H 0.39112 0.07463 0.27498 0.0
H2681 H 0.37719 0.10124 0.27463 0.0
H2682 H 0.33552 0.07569 0.30542 0.0
H2683 H 0.34857 0.04861 0.30424 0.0
H2684 H 0.32202 0.08985 0.27834 0.0
H2685 H 0.37129 0.11105 0.32718 0.0
H2686 H 0.4031 0.11564 0.33996 0.0
H2687 H 0.4172 0.14908 0.29629 0.0
H2688 H 0.38551 0.14451 0.28312 0.0
H2689 H 0.28674 0.16813 0.2735 0.0
H2690 H 0.30192 0.14856 0.29226 0.0
H2691 H 0.34544 0.1557 0.25764 0.0
H2692 H 0.33028 0.17508 0.23889 0.0
H2693 H 0.3564 0.15213 0.29543 0.0
H2694 H 0.31099 0.12507 0.24276 0.0
H2695 H 0.28075 0.11721 0.22522 0.0
H2696 H 0.26093 0.09218 0.27257 0.0
H2697 H 0.291 0.10033 0.29057 0.0
C2698 C 0.37886 0.07478 0.28138 0.0
C2699 C 0.37062 0.05985 0.28939 0.0
C2700 C 0.37113 0.08998 0.28153 0.0
C2701 C 0.3557 0.09053 0.29058 0.0
C2702 C 0.34752 0.07548 0.29855 0.0
C2703 C 0.35484 0.06007 0.29772 0.0
C2704 C 0.34726 0.10631 0.29042 0.0
C2705 C 0.32936 0.10347 0.28272 0.0
C2706 C 0.35708 0.12396 0.29573 0.0
C2707 C 0.37602 0.12749 0.30422 0.0
C2708 C 0.38118 0.11942 0.32034 0.0
C2709 C 0.39919 0.12199 0.32762 0.0
C2710 C 0.41216 0.13266 0.31895 0.0
C2711 C 0.40714 0.14086 0.30303 0.0
C2712 C 0.38915 0.13834 0.29569 0.0
C2713 C 0.29972 0.16572 0.27025 0.0
C2714 C 0.30726 0.17241 0.25454 0.0
C2715 C 0.30838 0.15479 0.28101 0.0
C2716 C 0.3246 0.15072 0.27609 0.0
C2717 C 0.3329 0.15882 0.26155 0.0
C2718 C 0.32417 0.16956 0.2507 0.0
C2719 C 0.3313 0.13555 0.28323 0.0
C2720 C 0.34888 0.13848 0.29207 0.0
C2721 C 0.3213 0.11788 0.27873 0.0
C2722 C 0.30311 0.11375 0.2682 0.0
C2723 C 0.30011 0.11823 0.24958 0.0
C2724 C 0.28301 0.11365 0.23952 0.0
C2725 C 0.26889 0.10432 0.24782 0.0
C2726 C 0.27184 0.09954 0.26621 0.0
C2727 C 0.28888 0.10419 0.27637 0.0
H2728 H 0.25569 0.10069 0.23997 0.0
H2729 H 0.42611 0.13458 0.32457 0.0
H2730 H 0.30108 0.12312 0.52163 0.0
H2731 H 0.32668 0.10806 0.52331 0.0
H2732 H 0.36056 0.15631 0.51097 0.0
H2733 H 0.33475 0.17144 0.50885 0.0
H2734 H 0.3683 0.12711 0.49144 0.0
H2735 H 0.362 0.14453 0.55625 0.0
H2736 H 0.34643 0.14758 0.58482 0.0
H2737 H 0.33297 0.09 0.58261 0.0
H2738 H 0.34825 0.08661 0.55386 0.0
H2739 H 0.44839 0.09538 0.5274 0.0
H2740 H 0.42466 0.11189 0.51804 0.0
H2741 H 0.38487 0.06632 0.52636 0.0
H2742 H 0.40849 0.04997 0.53572 0.0
H2743 H 0.38208 0.09665 0.54826 0.0
H2744 H 0.38721 0.07973 0.48199 0.0
H2745 H 0.40354 0.07722 0.45392 0.0
H2746 H 0.42092 0.13466 0.46028 0.0
H2747 H 0.40458 0.13749 0.48836 0.0
C2748 C 0.31398 0.13062 0.51938 0.0
C2749 C 0.3159 0.14857 0.51533 0.0
C2750 C 0.32864 0.12197 0.52036 0.0
C2751 C 0.34564 0.13111 0.51755 0.0
C2752 C 0.3476 0.14899 0.51327 0.0
C2753 C 0.33286 0.15767 0.51221 0.0
C2754 C 0.36126 0.12191 0.51929 0.0
C2755 C 0.37148 0.12067 0.50398 0.0
C2756 C 0.36538 0.11335 0.53555 0.0
C2757 C 0.35615 0.11532 0.55282 0.0
C2758 C 0.3556 0.13252 0.56178 0.0
C2759 C 0.34685 0.13431 0.57801 0.0
C2760 C 0.33868 0.11899 0.5855 0.0
C2761 C 0.33928 0.10185 0.57678 0.0
C2762 C 0.34801 0.09999 0.56053 0.0
C2763 C 0.43455 0.08864 0.52629 0.0
C2764 C 0.43018 0.07136 0.53201 0.0
C2765 C 0.42101 0.09811 0.52111 0.0
C2766 C 0.40298 0.09038 0.52164 0.0
C2767 C 0.39867 0.07256 0.52589 0.0
C2768 C 0.41214 0.06314 0.531 0.0
C2769 C 0.38875 0.10138 0.52021 0.0
C2770 C 0.3789 0.10309 0.53571 0.0
C2771 C 0.38513 0.11045 0.50424 0.0
C2772 C 0.39482 0.10881 0.48733 0.0
C2773 C 0.39459 0.09181 0.47744 0.0
C2774 C 0.40378 0.09034 0.4615 0.0
C2775 C 0.41335 0.10576 0.45538 0.0
C2776 C 0.41355 0.12271 0.46507 0.0
C2777 C 0.40426 0.12427 0.48094 0.0
H2778 H 0.42056 0.10457 0.44311 0.0
H2779 H 0.33192 0.12041 0.59808 0.0
H2780 H 0.64739 0.61587 0.30403 0.0
H2781 H 0.66927 0.64278 0.3015 0.0
H2782 H 0.70635 0.60979 0.28349 0.0
H2783 H 0.68451 0.58259 0.28634 0.0
H2784 H 0.72391 0.63859 0.30705 0.0
H2785 H 0.6825 0.63004 0.25086 0.0
H2786 H 0.6529 0.6247 0.23195 0.0
H2787 H 0.64195 0.67367 0.2597 0.0
H2788 H 0.67142 0.67919 0.27893 0.0
H2789 H 0.77618 0.71317 0.26802 0.0
H2790 H 0.75735 0.68407 0.27091 0.0
H2791 H 0.72115 0.71139 0.29989 0.0
H2792 H 0.74018 0.74034 0.29793 0.0
H2793 H 0.70439 0.68445 0.26878 0.0
H2794 H 0.74619 0.69215 0.32547 0.0
H2795 H 0.77651 0.69773 0.3428 0.0
H2796 H 0.78736 0.65003 0.31224 0.0
H2797 H 0.75719 0.64437 0.29445 0.0
C2798 C 0.66021 0.61423 0.29964 0.0
C2799 C 0.66404 0.59693 0.2953 0.0
C2800 C 0.67273 0.62972 0.29809 0.0
C2801 C 0.6894 0.62843 0.29192 0.0
C2802 C 0.69357 0.61121 0.28818 0.0
C2803 C 0.68103 0.59564 0.28982 0.0
C2804 C 0.70217 0.64509 0.28908 0.0
C2805 C 0.71969 0.64844 0.29842 0.0
C2806 C 0.69678 0.65818 0.27798 0.0
C2807 C 0.67908 0.65494 0.26643 0.0
C2808 C 0.67372 0.6396 0.25301 0.0
C2809 C 0.65698 0.63655 0.24222 0.0
C2810 C 0.64553 0.64881 0.24465 0.0
C2811 C 0.65082 0.66417 0.25784 0.0
C2812 C 0.66755 0.66728 0.26867 0.0
C2813 C 0.76447 0.71301 0.27542 0.0
C2814 C 0.75994 0.72921 0.28299 0.0
C2815 C 0.75361 0.69634 0.27689 0.0
C2816 C 0.73782 0.69554 0.28562 0.0
C2817 C 0.73323 0.71165 0.29307 0.0
C2818 C 0.74422 0.72824 0.29196 0.0
C2819 C 0.72593 0.67798 0.28694 0.0
C2820 C 0.7086 0.67449 0.27728 0.0
C2821 C 0.73156 0.66475 0.29758 0.0
C2822 C 0.74953 0.66794 0.30849 0.0
C2823 C 0.7551 0.68294 0.32233 0.0
C2824 C 0.77225 0.68611 0.33225 0.0
C2825 C 0.78387 0.67427 0.32858 0.0
C2826 C 0.77835 0.65921 0.31504 0.0
C2827 C 0.76123 0.656 0.30504 0.0
H2828 H 0.79715 0.67676 0.33627 0.0
H2829 H 0.63258 0.64643 0.23629 0.0
H2830 H 0.85771 0.47163 0.821 0.0
H2831 H 0.83574 0.44349 0.81242 0.0
H2832 H 0.86694 0.42703 0.76878 0.0
H2833 H 0.88916 0.45479 0.77779 0.0
H2834 H 0.8278 0.41903 0.75875 0.0
H2835 H 0.87585 0.41188 0.80362 0.0
H2836 H 0.89738 0.42055 0.83251 0.0
H2837 H 0.8543 0.41445 0.86721 0.0
H2838 H 0.83244 0.40625 0.83841 0.0
H2839 H 0.81763 0.32262 0.76435 0.0
H2840 H 0.82966 0.35446 0.76427 0.0
H2841 H 0.78563 0.36816 0.7924 0.0
H2842 H 0.77263 0.33629 0.79122 0.0
H2843 H 0.82882 0.37819 0.80931 0.0
H2844 H 0.78091 0.38244 0.75948 0.0
H2845 H 0.76349 0.36902 0.72887 0.0
H2846 H 0.81145 0.37553 0.70152 0.0
H2847 H 0.82919 0.38885 0.73209 0.0
C2848 C 0.85978 0.46186 0.80969 0.0
C2849 C 0.87515 0.46466 0.80043 0.0
C2850 C 0.84722 0.44613 0.80462 0.0
C2851 C 0.8499 0.43353 0.78997 0.0
C2852 C 0.86478 0.43684 0.78001 0.0
C2853 C 0.87754 0.45233 0.78541 0.0
C2854 C 0.83875 0.41573 0.78709 0.0
C2855 C 0.82784 0.41012 0.7698 0.0
C2856 C 0.83941 0.40417 0.80144 0.0
C2857 C 0.85248 0.40883 0.81885 0.0
C2858 C 0.87093 0.41266 0.81739 0.0
C2859 C 0.88321 0.41745 0.83375 0.0
C2860 C 0.87721 0.41816 0.85169 0.0
C2861 C 0.85892 0.41399 0.85329 0.0
C2862 C 0.84657 0.4093 0.83695 0.0
C2863 C 0.81003 0.33234 0.76961 0.0
C2864 C 0.7941 0.32704 0.77748 0.0
C2865 C 0.817 0.35044 0.76974 0.0
C2866 C 0.80831 0.36325 0.77821 0.0
C2867 C 0.7922 0.35816 0.78562 0.0
C2868 C 0.78491 0.34005 0.78497 0.0
C2869 C 0.81734 0.38183 0.78136 0.0
C2870 C 0.82827 0.38739 0.79857 0.0
C2871 C 0.81711 0.39301 0.76672 0.0
C2872 C 0.80636 0.38658 0.74805 0.0
C2873 C 0.78773 0.38104 0.74693 0.0
C2874 C 0.77781 0.37342 0.72961 0.0
C2875 C 0.78638 0.37133 0.71329 0.0
C2876 C 0.80486 0.3771 0.71421 0.0
C2877 C 0.81484 0.38477 0.7315 0.0
H2878 H 0.77869 0.3653 0.69992 0.0
H2879 H 0.88673 0.42185 0.86435 0.0
H2880 H 0.05027 0.82895 0.06533 0.0
H2881 H 0.04625 0.85708 0.05268 0.0
H2882 H 0.06074 0.88567 0.109 0.0
H2883 H 0.06356 0.85739 0.12168 0.0
H2884 H 0.03786 0.90057 0.09588 0.0
H2885 H 0.08773 0.8865 0.06435 0.0
H2886 H 0.10378 0.86847 0.04377 0.0
H2887 H 0.06358 0.86694 0.99677 0.0
H2888 H 0.04719 0.88477 0.01714 0.0
H2889 H 0.05321 0.99014 0.0692 0.0
H2890 H 0.05636 0.96082 0.07925 0.0
H2891 H 0.03134 0.93471 0.02437 0.0
H2892 H 0.02841 0.96416 0.01411 0.0
H2893 H 0.05825 0.91834 0.03524 0.0
H2894 H 1.00952 0.93348 0.06588 0.0
H2895 H 0.99369 0.95236 0.08571 0.0
H2896 H 0.03202 0.95223 0.13399 0.0
H2897 H 0.04827 0.93358 0.11435 0.0
C2898 C 0.05277 0.84124 0.07504 0.0
C2899 C 0.05742 0.84058 0.09466 0.0
C2900 C 0.0506 0.85762 0.0677 0.0
C2901 C 0.05348 0.87426 0.07955 0.0
C2902 C 0.05829 0.87348 0.09915 0.0
C2903 C 0.06008 0.85709 0.10651 0.0
C2904 C 0.051 0.89223 0.07202 0.0
C2905 C 0.04273 0.90438 0.08276 0.0
C2906 C 0.05647 0.89768 0.05446 0.0
C2907 C 0.06614 0.88675 0.04233 0.0
C2908 C 0.08225 0.88218 0.04967 0.0
C2909 C 0.09142 0.87202 0.03804 0.0
C2910 C 0.08467 0.86651 0.01899 0.0
C2911 C 0.06876 0.87117 0.01153 0.0
C2912 C 0.05954 0.88129 0.02311 0.0
C2913 C 0.04832 0.97823 0.05915 0.0
C2914 C 0.0404 0.9799 0.04075 0.0
C2915 C 0.05006 0.96124 0.06503 0.0
C2916 C 0.04395 0.94504 0.05282 0.0
C2917 C 0.03623 0.94669 0.03432 0.0
C2918 C 0.03443 0.96371 0.02843 0.0
C2919 C 0.04562 0.92662 0.05939 0.0
C2920 C 0.05358 0.91444 0.04843 0.0
C2921 C 0.03992 0.92113 0.07675 0.0
C2922 C 0.03019 0.93229 0.08861 0.0
C2923 C 0.01465 0.93759 0.08069 0.0
C2924 C 1.00559 0.94824 0.0919 0.0
C2925 C 0.01186 0.95353 0.11109 0.0
C2926 C 0.02719 0.94815 0.11912 0.0
C2927 C 0.03633 0.93754 0.10796 0.0
H2928 H 1.00482 0.96177 0.11975 0.0
H2929 H 0.0918 0.85867 0.01001 0.0
H2930 H 0.93698 0.25554 0.92649 0.0
H2931 H 0.91103 0.25571 0.9035 0.0
H2932 H 0.94578 0.28011 0.86523 0.0
H2933 H 0.97197 0.27952 0.88809 0.0
H2934 H 0.91609 0.29735 0.86941 0.0
H2935 H 0.92582 0.2377 0.85386 0.0
H2936 H 0.9303 0.2071 0.85907 0.0
H2937 H 0.87951 0.1963 0.88075 0.0
H2938 H 0.87485 0.22695 0.87592 0.0
H2939 H 0.8468 0.28958 0.79224 0.0
H2940 H 0.87414 0.28806 0.81229 0.0
H2941 H 0.84326 0.25469 0.84765 0.0
H2942 H 0.81589 0.25547 0.82701 0.0
H2943 H 0.87201 0.24213 0.84396 0.0
H2944 H 0.86225 0.30184 0.86026 0.0
H2945 H 0.8573 0.33222 0.85466 0.0
H2946 H 0.9076 0.34312 0.832 0.0
H2947 H 0.91271 0.31268 0.83717 0.0
C2948 C 0.9392 0.2608 0.91312 0.0
C2949 C 0.95675 0.26745 0.90927 0.0
C2950 C 0.92425 0.26087 0.89989 0.0
C2951 C 0.92621 0.26791 0.88244 0.0
C2952 C 0.94372 0.27458 0.87851 0.0
C2953 C 0.95877 0.27413 0.89159 0.0
C2954 C 0.90996 0.26853 0.86864 0.0
C2955 C 0.90662 0.28521 0.86363 0.0
C2956 C 0.89714 0.25288 0.86131 0.0
C2957 C 0.90011 0.23468 0.86477 0.0
C2958 C 0.91572 0.22888 0.85998 0.0
C2959 C 0.91826 0.21151 0.8628 0.0
C2960 C 0.90523 0.19978 0.8703 0.0
C2961 C 0.88962 0.20541 0.87499 0.0
C2962 C 0.88702 0.22277 0.87222 0.0
C2963 C 0.84576 0.28161 0.80405 0.0
C2964 C 0.82893 0.27245 0.80769 0.0
C2965 C 0.86153 0.281 0.81582 0.0
C2966 C 0.86106 0.27147 0.8319 0.0
C2967 C 0.84426 0.26219 0.83546 0.0
C2968 C 0.82849 0.26268 0.8236 0.0
C2969 C 0.87796 0.27098 0.84482 0.0
C2970 C 0.88144 0.25431 0.84971 0.0
C2971 C 0.89083 0.28667 0.85213 0.0
C2972 C 0.88777 0.30493 0.84892 0.0
C2973 C 0.87218 0.31067 0.85394 0.0
C2974 C 0.86936 0.3279 0.85086 0.0
C2975 C 0.88211 0.33958 0.84294 0.0
C2976 C 0.89772 0.33405 0.8381 0.0
C2977 C 0.90059 0.31681 0.8411 0.0
H2978 H 0.87992 0.35293 0.84059 0.0
H2979 H 0.9072 0.18632 0.87242 0.0
H2980 H 0.55306 0.23949 0.55686 0.0
H2981 H 0.54854 0.20686 0.54826 0.0
H2982 H 0.54923 0.19885 0.60744 0.0
H2983 H 0.55324 0.2317 0.61611 0.0
H2984 H 0.57113 0.17844 0.58872 0.0
H2985 H 0.51094 0.18678 0.57835 0.0
H2986 H 0.48541 0.19949 0.56551 0.0
H2987 H 0.49412 0.18175 0.50858 0.0
H2988 H 0.51992 0.1692 0.52108 0.0
H2989 H 0.53665 0.0816 0.5732 0.0
H2990 H 0.53952 0.11418 0.58214 0.0
H2991 H 0.5495 0.12395 0.52516 0.0
H2992 H 0.54746 0.09139 0.51638 0.0
H2993 H 0.52149 0.14307 0.54279 0.0
H2994 H 0.58362 0.13999 0.55184 0.0
H2995 H 0.61063 0.12897 0.56336 0.0
H2996 H 0.5979 0.13609 0.62074 0.0
H2997 H 0.57118 0.14801 0.6096 0.0
C2998 C 0.552 0.23085 0.56812 0.0
C2999 C 0.55342 0.23853 0.58726 0.0
C3000 C 0.54938 0.21201 0.56313 0.0
C3001 C 0.54846 0.19998 0.57707 0.0
C3002 C 0.54983 0.20758 0.59624 0.0
C3003 C 0.55201 0.22648 0.60123 0.0
C3004 C 0.54672 0.17974 0.57159 0.0
C3005 C 0.56003 0.17077 0.57893 0.0
C3006 C 0.53269 0.16937 0.55826 0.0
C3007 C 0.51751 0.17728 0.55065 0.0
C3008 C 0.50756 0.18581 0.56308 0.0
C3009 C 0.49301 0.19293 0.55587 0.0
C3010 C 0.48819 0.19149 0.53624 0.0
C3011 C 0.4979 0.1829 0.52378 0.0
C3012 C 0.5125 0.17579 0.53092 0.0
C3013 C 0.53957 0.09065 0.56255 0.0
C3014 C 0.54182 0.08365 0.54401 0.0
C3015 C 0.54121 0.1094 0.56771 0.0
C3016 C 0.54463 0.12184 0.55439 0.0
C3017 C 0.54681 0.11486 0.53582 0.0
C3018 C 0.54572 0.09614 0.53081 0.0
C3019 C 0.54586 0.14194 0.55996 0.0
C3020 C 0.53248 0.15082 0.55264 0.0
C3021 C 0.55986 0.15231 0.57314 0.0
C3022 C 0.57534 0.14457 0.5799 0.0
C3023 C 0.5865 0.13901 0.56689 0.0
C3024 C 0.60176 0.13264 0.57334 0.0
C3025 C 0.60579 0.13142 0.59271 0.0
C3026 C 0.59469 0.13689 0.60572 0.0
C3027 C 0.57957 0.1436 0.59938 0.0
H3028 H 0.6176 0.12643 0.59765 0.0
H3029 H 0.47688 0.19697 0.53069 0.0
H3030 H 0.57256 0.76368 0.43143 0.0
H3031 H 0.59907 0.76369 0.41471 0.0
H3032 H 0.5712 0.78018 0.36554 0.0
H3033 H 0.54432 0.77828 0.38159 0.0
H3034 H 0.58846 0.75995 0.35215 0.0
H3035 H 0.60856 0.80876 0.40365 0.0
H3036 H 0.61539 0.82238 0.43711 0.0
H3037 H 0.65057 0.78543 0.44827 0.0
H3038 H 0.64382 0.7715 0.41495 0.0
H3039 H 0.66375 0.79816 0.30751 0.0
H3040 H 0.63699 0.79087 0.32366 0.0
H3041 H 0.66645 0.76529 0.36441 0.0
H3042 H 0.69333 0.77286 0.34828 0.0
H3043 H 0.64945 0.78736 0.38254 0.0
H3044 H 0.63129 0.74097 0.33009 0.0
H3045 H 0.62485 0.72793 0.29646 0.0
H3046 H 0.5862 0.76172 0.28684 0.0
H3047 H 0.59255 0.77512 0.32035 0.0
C3048 C 0.57215 0.76722 0.41701 0.0
C3049 C 0.55631 0.77091 0.40782 0.0
C3050 C 0.58746 0.76749 0.40746 0.0
C3051 C 0.58764 0.77239 0.38879 0.0
C3052 C 0.57172 0.77624 0.3798 0.0
C3053 C 0.55626 0.77523 0.38904 0.0
C3054 C 0.60397 0.77317 0.37827 0.0
C3055 C 0.6017 0.76628 0.35887 0.0
C3056 C 0.62164 0.78069 0.38684 0.0
C3057 C 0.62554 0.78899 0.40688 0.0
C3058 C 0.61766 0.80348 0.41329 0.0
C3059 C 0.62153 0.81126 0.43221 0.0
C3060 C 0.63336 0.80474 0.44482 0.0
C3061 C 0.64138 0.79045 0.43851 0.0
C3062 C 0.63755 0.78262 0.41961 0.0
C3063 C 0.6643 0.79039 0.3195 0.0
C3064 C 0.6805 0.78565 0.32633 0.0
C3065 C 0.649 0.78629 0.32882 0.0
C3066 C 0.64949 0.77735 0.34528 0.0
C3067 C 0.66558 0.77211 0.35174 0.0
C3068 C 0.6809 0.7762 0.34237 0.0
C3069 C 0.6337 0.77471 0.35645 0.0
C3070 C 0.63613 0.78114 0.37593 0.0
C3071 C 0.61616 0.767 0.34792 0.0
C3072 C 0.6125 0.75914 0.3277 0.0
C3073 C 0.62153 0.74573 0.32076 0.0
C3074 C 0.61787 0.73825 0.30173 0.0
C3075 C 0.60515 0.74402 0.28952 0.0
C3076 C 0.59605 0.75727 0.29631 0.0
C3077 C 0.59967 0.7648 0.31533 0.0
H3078 H 0.60231 0.73819 0.2748 0.0
H3079 H 0.63635 0.81079 0.45945 0.0
H3080 H 0.06733 0.25666 0.38282 0.0
H3081 H 0.06789 0.22829 0.39718 0.0
H3082 H 0.01506 0.22877 0.41308 0.0
H3083 H 0.01432 0.25647 0.39878 0.0
H3084 H 0.04061 0.22731 0.44384 0.0
H3085 H 0.01993 0.19833 0.37973 0.0
H3086 H 0.02249 0.19178 0.34556 0.0
H3087 H 0.07131 0.17285 0.35919 0.0
H3088 H 0.06915 0.17951 0.39346 0.0
H3089 H 1.00298 0.14818 0.47795 0.0
H3090 H 0.01151 0.17424 0.4614 0.0
H3091 H 0.0563 0.1526 0.44306 0.0
H3092 H 0.04686 0.12548 0.45867 0.0
H3093 H 0.04167 0.16567 0.41446 0.0
H3094 H 0.06074 0.19145 0.47873 0.0
H3095 H 0.05857 0.19845 0.51293 0.0
H3096 H 0.01413 0.22433 0.49957 0.0
H3097 H 0.01591 0.21734 0.4653 0.0
C3098 C 0.05567 0.25035 0.38885 0.0
C3099 C 0.04083 0.25889 0.38976 0.0
C3100 C 0.05604 0.23423 0.39719 0.0
C3101 C 0.04159 0.22652 0.4065 0.0
C3102 C 0.02644 0.23451 0.40624 0.0
C3103 C 0.02603 0.25036 0.39795 0.0
C3104 C 0.04231 0.21103 0.41787 0.0
C3105 C 0.04084 0.21382 0.43741 0.0
C3106 C 0.04319 0.19353 0.40968 0.0
C3107 C 0.04451 0.18963 0.38913 0.0
C3108 C 0.03131 0.19295 0.37543 0.0
C3109 C 0.03266 0.18917 0.35605 0.0
C3110 C 0.04709 0.18196 0.35021 0.0
C3111 C 0.06017 0.17847 0.36373 0.0
C3112 C 0.05888 0.18223 0.38313 0.0
C3113 C 0.01468 0.14887 0.47043 0.0
C3114 C 0.02408 0.13453 0.46952 0.0
C3115 C 0.01974 0.16403 0.46112 0.0
C3116 C 0.03479 0.16575 0.4511 0.0
C3117 C 0.04466 0.15174 0.45069 0.0
C3118 C 0.03939 0.1363 0.45983 0.0
C3119 C 0.03942 0.18182 0.44047 0.0
C3120 C 0.04186 0.17919 0.42107 0.0
C3121 C 0.03956 0.1996 0.44882 0.0
C3122 C 0.03844 0.20382 0.46944 0.0
C3123 C 0.05045 0.19856 0.48309 0.0
C3124 C 0.0493 0.20254 0.50249 0.0
C3125 C 0.03622 0.21182 0.50842 0.0
C3126 C 0.02427 0.21716 0.49496 0.0
C3127 C 0.02537 0.21323 0.47555 0.0
H3128 H 0.03535 0.21489 0.52344 0.0
H3129 H 0.0481 0.17903 0.3352 0.0
H3130 H 0.57078 0.256 0.22644 0.0
H3131 H 0.60136 0.25626 0.24192 0.0
H3132 H 0.62358 0.27823 0.19396 0.0
H3133 H 0.59407 0.27847 0.17901 0.0
H3134 H 0.63908 0.25105 0.20185 0.0
H3135 H 0.62626 0.30309 0.23757 0.0
H3136 H 0.61092 0.32066 0.25936 0.0
H3137 H 0.62301 0.28882 0.30396 0.0
H3138 H 0.63815 0.27083 0.2823 0.0
H3139 H 0.73182 0.28432 0.22899 0.0
H3140 H 0.69966 0.2817 0.22063 0.0
H3141 H 0.68969 0.25636 0.27117 0.0
H3142 H 0.72208 0.25889 0.27964 0.0
H3143 H 0.6672 0.28202 0.26488 0.0
H3144 H 0.68164 0.23126 0.22965 0.0
H3145 H 0.69869 0.21522 0.20838 0.0
H3146 H 0.68406 0.24532 0.1631 0.0
H3147 H 0.66721 0.26183 0.18426 0.0
C3148 C 0.58216 0.26111 0.21931 0.0
C3149 C 0.57938 0.26709 0.20117 0.0
C3150 C 0.5998 0.26124 0.2282 0.0
C3151 C 0.61521 0.26714 0.21917 0.0
C3152 C 0.6123 0.27339 0.2014 0.0
C3153 C 0.59502 0.27351 0.19278 0.0
C3154 C 0.63437 0.26651 0.22723 0.0
C3155 C 0.64509 0.25794 0.21565 0.0
C3156 C 0.64266 0.27506 0.24542 0.0
C3157 C 0.63301 0.28538 0.25821 0.0
C3158 C 0.62538 0.29963 0.25193 0.0
C3159 C 0.61679 0.30972 0.26428 0.0
C3160 C 0.6159 0.3058 0.283 0.0
C3161 C 0.62362 0.29179 0.28942 0.0
C3162 C 0.63219 0.28163 0.27711 0.0
C3163 C 0.7229 0.2781 0.2384 0.0
C3164 C 0.72991 0.27169 0.255 0.0
C3165 C 0.70431 0.2766 0.23354 0.0
C3166 C 0.69184 0.26876 0.24513 0.0
C3167 C 0.69876 0.26251 0.26186 0.0
C3168 C 0.71743 0.26381 0.26663 0.0
C3169 C 0.67177 0.26682 0.23933 0.0
C3170 C 0.66101 0.27493 0.25124 0.0
C3171 C 0.66336 0.25787 0.22143 0.0
C3172 C 0.6733 0.24789 0.20858 0.0
C3173 C 0.68217 0.23456 0.2152 0.0
C3174 C 0.69179 0.22538 0.20316 0.0
C3175 C 0.69248 0.22927 0.1844 0.0
C3176 C 0.68352 0.24234 0.17764 0.0
C3177 C 0.67394 0.25161 0.18965 0.0
H3178 H 0.69992 0.22213 0.1751 0.0
H3179 H 0.6093 0.31366 0.29257 0.0
H3180 H 0.54752 0.87048 0.86603 0.0
H3181 H 0.54465 0.89806 0.88563 0.0
H3182 H 0.54775 0.87057 0.93587 0.0
H3183 H 0.54962 0.84301 0.9163 0.0
H3184 H 0.52573 0.88997 0.94127 0.0
H3185 H 0.58408 0.90484 0.92083 0.0
H3186 H 0.60588 0.90881 0.89749 0.0
H3187 H 0.57842 0.947 0.87245 0.0
H3188 H 0.5564 0.94316 0.89547 0.0
H3189 H 0.54245 0.96693 0.01045 0.0
H3190 H 0.5443 0.94024 0.98971 0.0
H3191 H 0.54029 0.96978 0.94112 0.0
H3192 H 0.53943 0.99694 0.96219 0.0
H3193 H 0.5617 0.94947 0.9342 0.0
H3194 H 0.50375 0.93471 0.95667 0.0
H3195 H 0.48278 0.93021 0.9808 0.0
H3196 H 0.51072 0.89114 0.00339 0.0
H3197 H 0.53194 0.89555 0.97952 0.0
C3198 C 0.54758 0.87033 0.88125 0.0
C3199 C 0.54888 0.85438 0.88945 0.0
C3200 C 0.54608 0.88626 0.8926 0.0
C3201 C 0.54629 0.88689 0.91261 0.0
C3202 C 0.54749 0.87083 0.92064 0.0
C3203 C 0.54866 0.85493 0.90932 0.0
C3204 C 0.54517 0.90395 0.92527 0.0
C3205 C 0.53382 0.9029 0.93975 0.0
C3206 C 0.55528 0.9212 0.92349 0.0
C3207 C 0.56854 0.92359 0.90973 0.0
C3208 C 0.58267 0.91402 0.91026 0.0
C3209 C 0.59507 0.91627 0.89709 0.0
C3210 C 0.59353 0.92815 0.88345 0.0
C3211 C 0.57961 0.93783 0.88298 0.0
C3212 C 0.56718 0.93564 0.89609 0.0
C3213 C 0.54188 0.96792 0.99545 0.0
C3214 C 0.5405 0.98439 0.98835 0.0
C3215 C 0.54278 0.95235 0.98335 0.0
C3216 C 0.54184 0.9524 0.96345 0.0
C3217 C 0.54089 0.96897 0.95629 0.0
C3218 C 0.54036 0.98466 0.96848 0.0
C3219 C 0.54231 0.93549 0.95023 0.0
C3220 C 0.55356 0.93656 0.93566 0.0
C3221 C 0.53224 0.9182 0.95209 0.0
C3222 C 0.51949 0.91557 0.96642 0.0
C3223 C 0.50546 0.92524 0.96686 0.0
C3224 C 0.49353 0.92269 0.98047 0.0
C3225 C 0.49544 0.91043 0.99364 0.0
C3226 C 0.50926 0.90065 0.9932 0.0
C3227 C 0.52123 0.90315 0.97962 0.0
H3228 H 0.48619 0.90847 0.00417 0.0
H3229 H 0.60313 0.92988 0.87325 0.0
H3230 H 0.95713 0.73679 0.68411 0.0
H3231 H 0.92847 0.7385 0.69575 0.0
H3232 H 0.95521 0.77826 0.74173 0.0
H3233 H 0.98413 0.77477 0.73117 0.0
H3234 H 0.9299 0.76529 0.7558 0.0
H3235 H 0.92522 0.78352 0.69259 0.0
H3236 H 0.92593 0.78041 0.65781 0.0
H3237 H 0.88547 0.73254 0.6517 0.0
H3238 H 0.88465 0.73527 0.68645 0.0
H3239 H 0.84821 0.79648 0.77391 0.0
H3240 H 0.87737 0.79307 0.76413 0.0
H3241 H 0.85271 0.74421 0.72847 0.0
H3242 H 0.8235 0.74762 0.73818 0.0
H3243 H 0.87641 0.76224 0.70956 0.0
H3244 H 0.88033 0.74627 0.77343 0.0
H3245 H 0.87956 0.75084 0.80813 0.0
H3246 H 0.92152 0.79731 0.81267 0.0
H3247 H 0.92236 0.79317 0.77795 0.0
C3248 C 0.95698 0.74572 0.6969 0.0
C3249 C 0.97328 0.75544 0.70668 0.0
C3250 C 0.94026 0.74709 0.70344 0.0
C3251 C 0.93877 0.75921 0.71944 0.0
C3252 C 0.95524 0.76879 0.72936 0.0
C3253 C 0.97206 0.76679 0.72327 0.0
C3254 C 0.92042 0.76179 0.72585 0.0
C3255 C 0.91844 0.76492 0.74544 0.0
C3256 C 0.90465 0.76106 0.71296 0.0
C3257 C 0.90501 0.75951 0.6921 0.0
C3258 C 0.91653 0.7723 0.68382 0.0
C3259 C 0.91695 0.7706 0.66412 0.0
C3260 C 0.90579 0.75626 0.65256 0.0
C3261 C 0.89413 0.74362 0.66067 0.0
C3262 C 0.89367 0.74525 0.68035 0.0
C3263 C 0.84886 0.78496 0.76399 0.0
C3264 C 0.83306 0.77236 0.75703 0.0
C3265 C 0.8658 0.78291 0.75843 0.0
C3266 C 0.86783 0.76818 0.74555 0.0
C3267 C 0.852 0.75572 0.73841 0.0
C3268 C 0.83509 0.75767 0.74411 0.0
C3269 C 0.88612 0.76585 0.73929 0.0
C3270 C 0.88801 0.76274 0.71978 0.0
C3271 C 0.90184 0.76695 0.75222 0.0
C3272 C 0.90129 0.7695 0.77307 0.0
C3273 C 0.88929 0.75755 0.78181 0.0
C3274 C 0.88886 0.76005 0.80149 0.0
C3275 C 0.90045 0.77438 0.81259 0.0
C3276 C 0.91252 0.78623 0.80405 0.0
C3277 C 0.91299 0.78381 0.78437 0.0
H3278 H 0.90011 0.77628 0.82783 0.0
H3279 H 0.90615 0.75496 0.63732 0.0
H3280 H 0.14257 0.02703 0.85127 0.0
H3281 H 0.12747 0.02411 0.88001 0.0
H3282 H 0.08621 0.05001 0.85593 0.0
H3283 H 0.10101 0.05249 0.82687 0.0
H3284 H 0.09892 0.06377 0.89392 0.0
H3285 H 0.07617 0.0075 0.8577 0.0
H3286 H 0.07635 0.97862 0.83878 0.0
H3287 H 0.10463 0.96105 0.88651 0.0
H3288 H 0.10493 0.99 0.90563 0.0
H3289 H 0.03806 0.04508 0.96239 0.0
H3290 H 0.05211 0.04714 0.93307 0.0
H3291 H 0.09039 0.01614 0.95385 0.0
H3292 H 0.07619 0.01388 0.98331 0.0
H3293 H 0.07856 1.00478 0.91694 0.0
H3294 H 0.10479 0.06451 0.95086 0.0
H3295 H 0.10524 0.09481 0.96737 0.0
H3296 H 0.06781 0.10499 0.92261 0.0
H3297 H 0.06761 0.07507 0.90554 0.0
C3298 C 0.13033 0.0322 0.8521 0.0
C3299 C 0.12307 0.0401 0.83673 0.0
C3300 C 0.12161 0.03039 0.86853 0.0
C3301 C 0.10559 0.03673 0.87021 0.0
C3302 C 0.09851 0.04496 0.85504 0.0
C3303 C 0.107 0.0464 0.83841 0.0
C3304 C 0.09646 0.03509 0.88793 0.0
C3305 C 0.0943 0.05082 0.89879 0.0
C3306 C 0.09055 0.01828 0.89458 0.0
C3307 C 0.09082 1.00104 0.88302 0.0
C3308 C 0.08267 0.9976 0.86409 0.0
C3309 C 0.08263 0.98118 0.85334 0.0
C3310 C 0.09056 0.96803 0.86141 0.0
C3311 C 0.09854 0.97127 0.88026 0.0
C3312 C 0.09866 0.98769 0.89105 0.0
C3313 C 0.04944 0.03861 0.96075 0.0
C3314 C 0.05596 0.02929 0.97532 0.0
C3315 C 0.05762 0.03997 0.94397 0.0
C3316 C 0.0726 0.03208 0.94117 0.0
C3317 C 0.07895 0.02247 0.95557 0.0
C3318 C 0.07082 0.02119 0.97246 0.0
C3319 C 0.08129 0.0335 0.92311 0.0
C3320 C 0.0833 0.01772 0.91213 0.0
C3321 C 0.08691 0.05025 0.91618 0.0
C3322 C 0.08605 0.06757 0.92707 0.0
C3323 C 0.09652 0.07316 0.94468 0.0
C3324 C 0.09679 0.09028 0.95407 0.0
C3325 C 0.08643 0.10171 0.94613 0.0
C3326 C 0.07579 0.0961 0.92876 0.0
C3327 C 0.07568 0.07914 0.91917 0.0
H3328 H 0.08676 0.115 0.95328 0.0
H3329 H 0.09046 0.95531 0.85309 0.0
H3330 H 0.8264 0.40222 0.55405 0.0
H3331 H 0.82341 0.3916 0.58517 0.0
H3332 H 0.76651 0.3903 0.57665 0.0
H3333 H 0.76972 0.40202 0.54594 0.0
H3334 H 0.78015 0.39721 0.61439 0.0
H3335 H 0.78173 0.35428 0.56064 0.0
H3336 H 0.79403 0.3425 0.53225 0.0
H3337 H 0.84257 0.33969 0.56662 0.0
H3338 H 0.83072 0.35178 0.59514 0.0
H3339 H 0.78099 0.31387 0.66672 0.0
H3340 H 0.77081 0.3343 0.64497 0.0
H3341 H 0.82424 0.36582 0.65137 0.0
H3342 H 0.83448 0.34526 0.67262 0.0
H3343 H 0.80384 0.34039 0.61315 0.0
H3344 H 0.80449 0.39066 0.66415 0.0
H3345 H 0.79292 0.40498 0.69176 0.0
H3346 H 0.73982 0.3924 0.66214 0.0
H3347 H 0.75117 0.37829 0.63424 0.0
C3348 C 0.81343 0.40029 0.55925 0.0
C3349 C 0.79821 0.40249 0.54788 0.0
C3350 C 0.81171 0.39425 0.57686 0.0
C3351 C 0.79465 0.38967 0.58266 0.0
C3352 C 0.7797 0.39366 0.57216 0.0
C3353 C 0.78152 0.40024 0.55474 0.0
C3354 C 0.79229 0.37831 0.59798 0.0
C3355 C 0.78507 0.38464 0.61407 0.0
C3356 C 0.79837 0.36175 0.59717 0.0
C3357 C 0.80533 0.354 0.58004 0.0
C3358 C 0.79504 0.35121 0.56214 0.0
C3359 C 0.80195 0.34449 0.54601 0.0
C3360 C 0.81907 0.34035 0.54763 0.0
C3361 C 0.82931 0.34289 0.56538 0.0
C3362 C 0.82249 0.34966 0.58154 0.0
C3363 C 0.79036 0.3254 0.66365 0.0
C3364 C 0.80853 0.32794 0.67058 0.0
C3365 C 0.78451 0.33712 0.65161 0.0
C3366 C 0.79681 0.35151 0.64694 0.0
C3367 C 0.81463 0.35485 0.65519 0.0
C3368 C 0.82051 0.34302 0.66693 0.0
C3369 C 0.7928 0.35991 0.62993 0.0
C3370 C 0.79855 0.35275 0.61329 0.0
C3371 C 0.78541 0.37559 0.63025 0.0
C3372 C 0.77859 0.38318 0.64732 0.0
C3373 C 0.79032 0.39075 0.66365 0.0
C3374 C 0.78383 0.39894 0.67928 0.0
C3375 C 0.76563 0.39943 0.67879 0.0
C3376 C 0.7539 0.3919 0.66257 0.0
C3377 C 0.76035 0.38389 0.64683 0.0
H3378 H 0.76063 0.40573 0.69093 0.0
H3379 H 0.82439 0.33517 0.53513 0.0
H3380 H 0.43962 0.02716 0.3372 0.0
H3381 H 0.4556 0.02398 0.36736 0.0
H3382 H 0.40602 0.01533 0.39236 0.0
H3383 H 0.38964 0.01878 0.36177 0.0
H3384 H 0.43365 0.04252 0.41146 0.0
H3385 H 0.42695 0.9799 0.38424 0.0
H3386 H 0.42892 0.95668 0.35816 0.0
H3387 H 0.48504 0.97741 0.35955 0.0
H3388 H 0.48338 1.00083 0.38546 0.0
H3389 H 0.48997 0.04324 0.49412 0.0
H3390 H 0.46614 0.03679 0.4689 0.0
H3391 H 0.50176 0.01792 0.43113 0.0
H3392 H 0.52332 0.01805 0.45847 0.0
H3393 H 0.47488 0.9997 0.42034 0.0
H3394 H 0.48366 0.0654 0.43593 0.0
H3395 H 0.48595 0.09303 0.45811 0.0
H3396 H 0.43351 0.0738 0.47307 0.0
H3397 H 0.43074 0.0463 0.45065 0.0
C3398 C 0.43205 0.02444 0.34905 0.0
C3399 C 0.41346 0.02318 0.34735 0.0
C3400 C 0.44117 0.02243 0.36615 0.0
C3401 C 0.4318 0.01889 0.38168 0.0
C3402 C 0.41324 0.01774 0.3802 0.0
C3403 C 0.40401 0.01987 0.36296 0.0
C3404 C 0.44203 0.01857 0.39989 0.0
C3405 C 0.44254 0.03305 0.41372 0.0
C3406 C 0.454 1.00659 0.40205 0.0
C3407 C 0.45503 0.99206 0.38687 0.0
C3408 C 0.4397 0.97949 0.37899 0.0
C3409 C 0.44077 0.9663 0.36422 0.0
C3410 C 0.4571 0.96555 0.35723 0.0
C3411 C 0.47241 0.97796 0.36501 0.0
C3412 C 0.47142 0.99114 0.37979 0.0
C3413 C 0.49252 0.037 0.4807 0.0
C3414 C 0.50819 0.0303 0.47865 0.0
C3415 C 0.47901 0.03411 0.46584 0.0
C3416 C 0.48209 0.0275 0.44765 0.0
C3417 C 0.49872 0.02273 0.44505 0.0
C3418 C 0.51134 0.0233 0.46061 0.0
C3419 C 0.46781 0.02471 0.4316 0.0
C3420 C 0.46622 0.00939 0.41834 0.0
C3421 C 0.45575 0.03676 0.42918 0.0
C3422 C 0.45703 0.05383 0.44167 0.0
C3423 C 0.47256 0.06719 0.44381 0.0
C3424 C 0.47392 0.08283 0.45639 0.0
C3425 C 0.45983 0.08522 0.46689 0.0
C3426 C 0.4443 0.07205 0.46473 0.0
C3427 C 0.44278 0.0565 0.45201 0.0
H3428 H 0.46095 0.09726 0.47674 0.0
H3429 H 0.45788 0.95536 0.34577 0.0
H3430 H 0.77847 0.67442 0.07197 0.0
H3431 H 0.78183 0.68505 0.1062 0.0
H3432 H 0.77704 0.73837 0.09299 0.0
H3433 H 0.77412 0.72808 0.05927 0.0
H3434 H 0.80121 0.74167 0.1217 0.0
H3435 H 0.74172 0.70702 0.10564 0.0
H3436 H 0.7189 0.67997 0.0939 0.0
H3437 H 0.74027 0.65132 0.13719 0.0
H3438 H 0.76344 0.67809 0.14894 0.0
H3439 H 0.77357 0.77856 0.20869 0.0
H3440 H 0.77334 0.7663 0.17538 0.0
H3441 H 0.78814 0.71798 0.19383 0.0
H3442 H 0.78871 0.73021 0.22703 0.0
H3443 H 0.76006 0.71127 0.16337 0.0
H3444 H 0.81856 0.74686 0.18036 0.0
H3445 H 0.84111 0.77407 0.19197 0.0
H3446 H 0.82108 0.80144 0.14676 0.0
H3447 H 0.79808 0.7745 0.13514 0.0
C3448 C 0.77839 0.68845 0.07639 0.0
C3449 C 0.77585 0.7003 0.06273 0.0
C3450 C 0.78016 0.69451 0.09601 0.0
C3451 C 0.77941 0.71254 0.10236 0.0
C3452 C 0.77762 0.72443 0.08867 0.0
C3453 C 0.77585 0.71844 0.06925 0.0
C3454 C 0.77999 0.7192 0.12307 0.0
C3455 C 0.79207 0.73506 0.1307 0.0
C3456 C 0.76832 0.71056 0.13514 0.0
C3457 C 0.75446 0.69446 0.128 0.0
C3458 C 0.74166 0.69489 0.11253 0.0
C3459 C 0.72865 0.67962 0.10589 0.0
C3460 C 0.72818 0.66392 0.11475 0.0
C3461 C 0.74069 0.66347 0.1303 0.0
C3462 C 0.75377 0.67867 0.13694 0.0
C3463 C 0.77669 0.76529 0.20566 0.0
C3464 C 0.78122 0.75541 0.2206 0.0
C3465 C 0.77663 0.75832 0.18659 0.0
C3466 C 0.78082 0.74121 0.18203 0.0
C3467 C 0.78488 0.73119 0.19692 0.0
C3468 C 0.78526 0.73826 0.21594 0.0
C3469 C 0.78112 0.73376 0.16181 0.0
C3470 C 0.76921 0.7178 0.15432 0.0
C3471 C 0.79284 0.74238 0.14983 0.0
C3472 C 0.80643 0.75872 0.15703 0.0
C3473 C 0.81878 0.75875 0.17304 0.0
C3474 C 0.83169 0.77412 0.1796 0.0
C3475 C 0.83252 0.7895 0.17013 0.0
C3476 C 0.8204 0.78954 0.15411 0.0
C3477 C 0.80741 0.77423 0.14755 0.0
H3478 H 0.84257 0.80136 0.17518 0.0
H3479 H 0.7181 0.6521 0.10961 0.0
H3480 H 0.09095 0.01681 0.73503 0.0
H3481 H 0.08031 0.01359 0.70089 0.0
H3482 H 0.12532 0.05371 0.69225 0.0
H3483 H 0.13622 0.05653 0.72634 0.0
H3484 H 0.09243 0.06097 0.67757 0.0
H3485 H 0.1233 0.01164 0.67417 0.0
H3486 H 0.13128 0.98312 0.68267 0.0
H3487 H 0.07707 0.95584 0.66595 0.0
H3488 H 0.0687 0.98429 0.65766 0.0
H3489 H 0.07239 0.0575 0.57755 0.0
H3490 H 0.08634 0.05764 0.6099 0.0
H3491 H 0.04989 0.00861 0.61545 0.0
H3492 H 0.03623 0.00823 0.58276 0.0
H3493 H 0.07957 1.00551 0.63183 0.0
H3494 H 0.0473 0.05396 0.63981 0.0
H3495 H 0.03728 0.08267 0.63603 0.0
H3496 H 0.09172 0.111 0.64578 0.0
H3497 H 0.10202 0.08246 0.64996 0.0
C3498 C 0.0988 0.02458 0.72572 0.0
C3499 C 0.11455 0.03673 0.73329 0.0
C3500 C 0.0927 0.02276 0.7062 0.0
C3501 C 0.102 0.03336 0.69384 0.0
C3502 C 0.11793 0.0453 0.70139 0.0
C3503 C 0.12423 0.04683 0.72085 0.0
C3504 C 0.09437 0.03305 0.67349 0.0
C3505 C 0.08993 0.0489 0.66747 0.0
C3506 C 0.09041 0.0172 0.6604 0.0
C3507 C 0.09534 1.00013 0.66551 0.0
C3508 C 0.11304 0.9996 0.67251 0.0
C3509 C 0.11764 0.98344 0.67725 0.0
C3510 C 0.10467 0.96769 0.67491 0.0
C3511 C 0.08709 0.96806 0.66779 0.0
C3512 C 0.08241 0.9842 0.66307 0.0
C3513 C 0.06717 0.04686 0.58568 0.0
C3514 C 0.05294 0.03303 0.57751 0.0
C3515 C 0.07517 0.04696 0.60436 0.0
C3516 C 0.06904 0.03337 0.61563 0.0
C3517 C 0.05497 0.01937 0.60733 0.0
C3518 C 0.04708 0.01917 0.58855 0.0
C3519 C 0.07749 0.03353 0.63579 0.0
C3520 C 0.0821 0.01764 0.64183 0.0
C3521 C 0.08138 0.0493 0.64908 0.0
C3522 C 0.07541 0.06613 0.64499 0.0
C3523 C 0.05713 0.0663 0.64091 0.0
C3524 C 0.0514 0.08255 0.63885 0.0
C3525 C 0.06387 0.09865 0.64066 0.0
C3526 C 0.08209 0.09853 0.6444 0.0
C3527 C 0.08787 0.08234 0.6467 0.0
H3528 H 0.05942 0.11126 0.63922 0.0
H3529 H 0.10827 0.95518 0.67856 0.0
H3530 H 0.79901 0.37865 0.46055 0.0
H3531 H 0.80183 0.36262 0.43031 0.0
H3532 H 0.79079 0.40771 0.40154 0.0
H3533 H 0.78799 0.42418 0.43216 0.0
H3534 H 0.76694 0.37374 0.39134 0.0
H3535 H 0.83084 0.3976 0.40036 0.0
H3536 H 0.86015 0.4044 0.41998 0.0
H3537 H 0.85713 0.34819 0.42574 0.0
H3538 H 0.82773 0.34108 0.40638 0.0
H3539 H 0.76681 0.32323 0.3046 0.0
H3540 H 0.7708 0.34597 0.33151 0.0
H3541 H 0.80006 0.31375 0.36508 0.0
H3542 H 0.79879 0.29236 0.3371 0.0
H3543 H 0.81643 0.34494 0.37106 0.0
H3544 H 0.75485 0.31916 0.36998 0.0
H3545 H 0.72385 0.3079 0.35529 0.0
H3546 H 0.71958 0.36098 0.34165 0.0
H3547 H 0.75066 0.3725 0.35602 0.0
C3548 C 0.79756 0.38538 0.4479 0.0
C3549 C 0.79313 0.40254 0.44852 0.0
C3550 C 0.79936 0.37627 0.4307 0.0
C3551 C 0.79676 0.38425 0.41401 0.0
C3552 C 0.79304 0.40166 0.41454 0.0
C3553 C 0.79135 0.4109 0.43188 0.0
C3554 C 0.79504 0.37302 0.39607 0.0
C3555 C 0.77779 0.36773 0.38646 0.0
C3556 C 0.80909 0.36459 0.39086 0.0
C3557 C 0.82711 0.36882 0.40186 0.0
C3558 C 0.83644 0.3867 0.40581 0.0
C3559 C 0.85306 0.3906 0.41691 0.0
C3560 C 0.86051 0.37673 0.42408 0.0
C3561 C 0.85138 0.35892 0.42013 0.0
C3562 C 0.83476 0.35494 0.40905 0.0
C3563 C 0.77413 0.32096 0.31768 0.0
C3564 C 0.78257 0.3061 0.31878 0.0
C3565 C 0.77616 0.33386 0.33314 0.0
C3566 C 0.78542 0.33133 0.35032 0.0
C3567 C 0.79291 0.3159 0.35183 0.0
C3568 C 0.79187 0.30354 0.33597 0.0
C3569 C 0.78817 0.34533 0.36637 0.0
C3570 C 0.80556 0.3511 0.37562 0.0
C3571 C 0.77401 0.35345 0.37204 0.0
C3572 C 0.7551 0.34667 0.36398 0.0
C3573 C 0.74731 0.32842 0.36381 0.0
C3574 C 0.72973 0.32199 0.35553 0.0
C3575 C 0.71976 0.33371 0.34752 0.0
C3576 C 0.72732 0.35191 0.34786 0.0
C3577 C 0.7449 0.35841 0.3561 0.0
H3578 H 0.70616 0.3287 0.34108 0.0
H3579 H 0.87335 0.3798 0.4327 0.0
H3580 H 0.4414 1.00138 0.25497 0.0
H3581 H 0.45141 0.00753 0.22453 0.0
H3582 H 0.40487 0.03049 0.21013 0.0
H3583 H 0.39456 0.02447 0.24083 0.0
H3584 H 0.41585 1.00386 0.18137 0.0
H3585 H 0.43842 0.05969 0.22133 0.0
H3586 H 0.45213 0.07624 0.25229 0.0
H3587 H 0.49962 0.05427 0.24705 0.0
H3588 H 0.48608 0.03735 0.2162 0.0
H3589 H 0.46013 0.01451 0.10259 0.0
H3590 H 0.44764 0.02947 0.12885 0.0
H3591 H 0.48525 0.01229 0.16918 0.0
H3592 H 0.49749 0.99711 0.14295 0.0
H3593 H 0.47444 0.04476 0.18257 0.0
H3594 H 0.45196 0.98347 0.15481 0.0
H3595 H 0.44047 0.95962 0.12826 0.0
H3596 H 0.39524 0.98444 0.11506 0.0
H3597 H 0.4068 0.00879 0.14125 0.0
C3598 C 0.43316 0.00761 0.24535 0.0
C3599 C 0.41733 0.01267 0.25038 0.0
C3600 C 0.43895 0.01117 0.22804 0.0
C3601 C 0.429 0.01981 0.21556 0.0
C3602 C 0.41272 0.02403 0.21992 0.0
C3603 C 0.4069 0.02054 0.23736 0.0
C3604 C 0.43602 0.02428 0.19795 0.0
C3605 C 0.42822 0.01339 0.18128 0.0
C3606 C 0.45253 0.03618 0.19847 0.0
C3607 C 0.46125 0.04733 0.21637 0.0
C3608 C 0.45181 0.05844 0.22674 0.0
C3609 C 0.45954 0.06785 0.2443 0.0
C3610 C 0.47675 0.06634 0.25161 0.0
C3611 C 0.48631 0.05548 0.24133 0.0
C3612 C 0.47864 0.04602 0.22377 0.0
C3613 C 0.46593 0.0144 0.11709 0.0
C3614 C 0.47917 1.00428 0.12111 0.0
C3615 C 0.45904 0.02313 0.13195 0.0
C3616 C 0.46548 0.02175 0.15078 0.0
C3617 C 0.48021 0.01347 0.15466 0.0
C3618 C 0.48692 1.00454 0.13981 0.0
C3619 C 0.45425 0.02429 0.16593 0.0
C3620 C 0.46143 0.0362 0.18222 0.0
C3621 C 0.43747 0.01275 0.1654 0.0
C3622 C 0.43046 0.99818 0.14965 0.0
C3623 C 0.43972 0.98401 0.14605 0.0
C3624 C 0.43318 0.97038 0.1311 0.0
C3625 C 0.4172 0.97059 0.11989 0.0
C3626 C 0.40769 0.98439 0.12367 0.0
C3627 C 0.41426 0.99814 0.13852 0.0
H3628 H 0.41213 0.96 0.10835 0.0
H3629 H 0.48268 0.07357 0.26525 0.0
H3630 H 0.75683 0.66653 0.9416 0.0
H3631 H 0.75911 0.68133 0.91256 0.0
H3632 H 0.79256 0.72827 0.94516 0.0
H3633 H 0.78873 0.7141 0.97426 0.0
H3634 H 0.77536 0.7407 0.92152 0.0
H3635 H 0.80699 0.69202 0.91212 0.0
H3636 H 0.81165 0.66059 0.90962 0.0
H3637 H 0.76887 0.6459 0.86395 0.0
H3638 H 0.76382 0.67718 0.86637 0.0
H3639 H 0.81221 0.76696 0.83239 0.0
H3640 H 0.81043 0.75489 0.86326 0.0
H3641 H 0.75554 0.72981 0.8456 0.0
H3642 H 0.75673 0.74293 0.81568 0.0
H3643 H 0.78534 0.70739 0.8613 0.0
H3644 H 0.7546 0.7579 0.87295 0.0
H3645 H 0.7528 0.79012 0.87555 0.0
H3646 H 0.79869 0.80208 0.9177 0.0
H3647 H 0.80097 0.76994 0.91504 0.0
C3648 C 0.76455 0.68006 0.94251 0.0
C3649 C 0.77253 0.68915 0.96024 0.0
C3650 C 0.7661 0.6885 0.92581 0.0
C3651 C 0.77648 0.70592 0.92623 0.0
C3652 C 0.78443 0.71493 0.94409 0.0
C3653 C 0.78228 0.70677 0.96084 0.0
C3654 C 0.77886 0.71493 0.90831 0.0
C3655 C 0.77784 0.73331 0.90854 0.0
C3656 C 0.78196 0.70566 0.89096 0.0
C3657 C 0.78492 0.68686 0.88957 0.0
C3658 C 0.79851 0.68204 0.90165 0.0
C3659 C 0.80123 0.66426 0.90023 0.0
C3660 C 0.79053 0.65125 0.88667 0.0
C3661 C 0.77712 0.65598 0.87447 0.0
C3662 C 0.77433 0.67373 0.87585 0.0
C3663 C 0.79968 0.75911 0.83519 0.0
C3664 C 0.78473 0.75564 0.82122 0.0
C3665 C 0.79871 0.75214 0.85282 0.0
C3666 C 0.78286 0.74133 0.85673 0.0
C3667 C 0.76794 0.73798 0.8429 0.0
C3668 C 0.76876 0.7453 0.82559 0.0
C3669 C 0.78183 0.73281 0.8748 0.0
C3670 C 0.78307 0.7146 0.87449 0.0
C3671 C 0.77937 0.74231 0.89214 0.0
C3672 C 0.77814 0.7616 0.89353 0.0
C3673 C 0.76448 0.76745 0.88253 0.0
C3674 C 0.76333 0.78568 0.88408 0.0
C3675 C 0.77568 0.79816 0.89671 0.0
C3676 C 0.78918 0.79242 0.90786 0.0
C3677 C 0.79041 0.7742 0.90633 0.0
H3678 H 0.77474 0.81227 0.89793 0.0
H3679 H 0.79266 0.63749 0.88559 0.0
H3680 H 0.80201 0.08739 0.03367 0.0
H3681 H 0.82889 0.07528 0.02983 0.0
H3682 H 0.8592 0.11747 0.07168 0.0
H3683 H 0.83237 0.13066 0.07412 0.0
H3684 H 0.87517 0.11465 0.04133 0.0
H3685 H 0.84747 0.0712 0.08035 0.0
H3686 H 0.82063 0.05079 0.08729 0.0
H3687 H 0.81829 0.01921 0.03335 0.0
H3688 H 0.84495 0.03959 0.02597 0.0
H3689 H 0.95155 0.07638 0.03095 0.0
H3690 H 0.92712 0.08513 0.04749 0.0
H3691 H 0.8886 0.0513 0.00458 0.0
H3692 H 0.91299 0.04268 0.98806 0.0
H3693 H 0.8788 0.04997 0.04085 0.0
H3694 H 0.90062 0.09255 0.99904 0.0
H3695 H 0.92324 0.11401 0.98624 0.0
H3696 H 0.93305 0.14761 0.03972 0.0
H3697 H 0.91081 0.12606 0.05302 0.0
C3698 C 0.81429 0.09366 0.04253 0.0
C3699 C 0.81529 0.10958 0.05454 0.0
C3700 C 0.82962 0.08677 0.04034 0.0
C3701 C 0.84587 0.09518 0.05094 0.0
C3702 C 0.84668 0.11071 0.06361 0.0
C3703 C 0.83144 0.11807 0.06518 0.0
C3704 C 0.86223 0.08856 0.0475 0.0
C3705 C 0.87625 0.10063 0.04184 0.0
C3706 C 0.86314 0.07012 0.04741 0.0
C3707 C 0.84828 0.05685 0.05269 0.0
C3708 C 0.84133 0.05979 0.07006 0.0
C3709 C 0.82609 0.04829 0.07402 0.0
C3710 C 0.81778 0.0337 0.06078 0.0
C3711 C 0.82478 0.03048 0.04362 0.0
C3712 C 0.84 0.04196 0.03958 0.0
C3713 C 0.93782 0.07082 0.02526 0.0
C3714 C 0.93382 0.05934 0.00817 0.0
C3715 C 0.92401 0.07566 0.03469 0.0
C3716 C 0.90624 0.0689 0.02706 0.0
C3717 C 0.90231 0.05657 0.01057 0.0
C3718 C 0.9161 0.05187 0.00107 0.0
C3719 C 0.89173 0.07611 0.03495 0.0
C3720 C 0.87802 0.06412 0.04119 0.0
C3721 C 0.89089 0.09456 0.03514 0.0
C3722 C 0.90431 0.10751 0.02716 0.0
C3723 C 0.90779 0.10437 0.00817 0.0
C3724 C 0.92052 0.11657 0.00081 0.0
C3725 C 0.92965 0.13212 0.01219 0.0
C3726 C 0.92603 0.13551 0.03095 0.0
C3727 C 0.9134 0.12329 0.03842 0.0
H3728 H 0.93947 0.14157 0.00645 0.0
H3729 H 0.8059 0.02489 0.06381 0.0
H3730 H 0.33938 0.4294 0.02043 0.0
H3731 H 0.36735 0.4512 0.02075 0.0
H3732 H 0.39629 0.41661 0.05079 0.0
H3733 H 0.36856 0.39459 0.04999 0.0
H3734 H 0.40611 0.4544 0.06515 0.0
H3735 H 0.3981 0.41475 0.00679 0.0
H3736 H 0.3819 0.39931 0.97636 0.0
H3737 H 0.38035 0.45035 0.9556 0.0
H3738 H 0.39623 0.46613 0.98612 0.0
H3739 H 0.49602 0.4866 0.05049 0.0
H3740 H 0.46666 0.46848 0.05248 0.0
H3741 H 0.44258 0.49905 0.01254 0.0
H3742 H 0.472 0.51677 0.00994 0.0
H3743 H 0.42922 0.46478 0.00354 0.0
H3744 H 0.43892 0.50471 0.06112 0.0
H3745 H 0.45532 0.52021 0.09145 0.0
H3746 H 0.4537 0.46942 0.11374 0.0
H3747 H 0.43759 0.45357 0.08339 0.0
C3748 C 0.35169 0.42654 0.02725 0.0
C3749 C 0.35182 0.41021 0.03506 0.0
C3750 C 0.36765 0.43898 0.02739 0.0
C3751 C 0.38394 0.43549 0.03573 0.0
C3752 C 0.38392 0.41958 0.04427 0.0
C3753 C 0.36808 0.40697 0.04371 0.0
C3754 C 0.40115 0.44792 0.03475 0.0
C3755 C 0.41124 0.4566 0.0517 0.0
C3756 C 0.40768 0.45106 0.01719 0.0
C3757 C 0.3981 0.44162 0.99885 0.0
C3758 C 0.3941 0.42269 0.99584 0.0
C3759 C 0.38501 0.41387 0.97855 0.0
C3760 C 0.38003 0.42384 0.96408 0.0
C3761 C 0.38417 0.44265 0.96685 0.0
C3762 C 0.3932 0.45154 0.98415 0.0
C3763 C 0.48447 0.48957 0.04223 0.0
C3764 C 0.48638 0.50338 0.03031 0.0
C3765 C 0.46763 0.47923 0.04345 0.0
C3766 C 0.45226 0.48254 0.0329 0.0
C3767 C 0.45416 0.49628 0.02093 0.0
C3768 C 0.471 0.50656 0.01964 0.0
C3769 C 0.43431 0.47136 0.03397 0.0
C3770 C 0.42407 0.46282 0.01702 0.0
C3771 C 0.42762 0.46843 0.05155 0.0
C3772 C 0.43716 0.47793 0.06991 0.0
C3773 C 0.44217 0.49683 0.07244 0.0
C3774 C 0.45141 0.50568 0.08964 0.0
C3775 C 0.45557 0.4958 0.1045 0.0
C3776 C 0.45048 0.47705 0.1022 0.0
C3777 C 0.44129 0.46812 0.085 0.0
H3778 H 0.46272 0.50268 0.11782 0.0
H3779 H 0.37301 0.41699 0.9507 0.0
H3780 H 0.37726 0.54622 0.74982 0.0
H3781 H 0.36266 0.5723 0.75171 0.0
H3782 H 0.41349 0.60705 0.77102 0.0
H3783 H 0.42813 0.58087 0.76969 0.0
H3784 H 0.38946 0.61559 0.79208 0.0
H3785 H 0.39118 0.6053 0.72455 0.0
H3786 H 0.38609 0.58749 0.69297 0.0
H3787 H 0.32963 0.57627 0.69673 0.0
H3788 H 0.33441 0.59385 0.72843 0.0
H3789 H 0.35687 0.69592 0.78895 0.0
H3790 H 0.37348 0.67244 0.77923 0.0
H3791 H 0.32374 0.63499 0.7626 0.0
H3792 H 0.30719 0.65863 0.772 0.0
H3793 H 0.34808 0.6287 0.7393 0.0
H3794 H 0.34609 0.63768 0.80681 0.0
H3795 H 0.35052 0.65528 0.83845 0.0
H3796 H 0.40696 0.66841 0.83512 0.0
H3797 H 0.40282 0.65111 0.80329 0.0
C3798 C 0.38539 0.55943 0.75424 0.0
C3799 C 0.4039 0.56147 0.75947 0.0
C3800 C 0.37701 0.57438 0.75526 0.0
C3801 C 0.38698 0.59174 0.76124 0.0
C3802 C 0.4055 0.59382 0.76629 0.0
C3803 C 0.41388 0.57885 0.76541 0.0
C3804 C 0.37798 0.6076 0.76295 0.0
C3805 C 0.3807 0.61864 0.78039 0.0
C3806 C 0.36608 0.61133 0.74795 0.0
C3807 C 0.36317 0.60077 0.7289 0.0
C3808 C 0.37769 0.59893 0.71869 0.0
C3809 C 0.37486 0.5889 0.70076 0.0
C3810 C 0.35756 0.58072 0.69287 0.0
C3811 C 0.34303 0.5826 0.70286 0.0
C3812 C 0.34579 0.59262 0.7208 0.0
C3813 C 0.34954 0.6829 0.78239 0.0
C3814 C 0.33081 0.67908 0.78085 0.0
C3815 C 0.359 0.66942 0.77713 0.0
C3816 C 0.34985 0.65184 0.77057 0.0
C3817 C 0.33108 0.64843 0.76765 0.0
C3818 C 0.32162 0.66195 0.77284 0.0
C3819 C 0.35972 0.63672 0.76831 0.0
C3820 C 0.35704 0.62575 0.75087 0.0
C3821 C 0.37159 0.63299 0.78335 0.0
C3822 C 0.37412 0.64326 0.80257 0.0
C3823 C 0.35943 0.64443 0.81276 0.0
C3824 C 0.36189 0.65434 0.83074 0.0
C3825 C 0.379 0.663 0.83877 0.0
C3826 C 0.3937 0.66172 0.82886 0.0
C3827 C 0.39131 0.65186 0.81085 0.0
H3828 H 0.38088 0.67067 0.85269 0.0
H3829 H 0.35539 0.57296 0.67898 0.0
H3830 H 0.20133 0.63785 0.53021 0.0
H3831 H 0.17282 0.61857 0.53213 0.0
H3832 H 0.1988 0.57283 0.53616 0.0
H3833 H 0.22768 0.59209 0.53428 0.0
H3834 H 0.17012 0.56893 0.50679 0.0
H3835 H 0.18241 0.58603 0.57378 0.0
H3836 H 0.1918 0.60664 0.60341 0.0
H3837 H 0.14895 0.63463 0.59005 0.0
H3838 H 0.13943 0.61437 0.56022 0.0
H3839 H 0.08593 0.517 0.51729 0.0
H3840 H 0.11714 0.53131 0.51839 0.0
H3841 H 0.10236 0.58372 0.5253 0.0
H3842 H 0.07129 0.56924 0.52593 0.0
H3843 H 0.12721 0.58037 0.55246 0.0
H3844 H 0.11938 0.56919 0.48346 0.0
H3845 H 0.10781 0.54897 0.45391 0.0
H3846 H 0.1407 0.51164 0.47091 0.0
H3847 H 0.15278 0.53184 0.50035 0.0
C3848 C 0.20104 0.6237 0.53145 0.0
C3849 C 0.21664 0.61639 0.53182 0.0
C3850 C 0.18482 0.61281 0.53286 0.0
C3851 C 0.184 0.59451 0.53461 0.0
C3852 C 0.19946 0.58707 0.53505 0.0
C3853 C 0.2158 0.59801 0.53381 0.0
C3854 C 0.16654 0.58301 0.53357 0.0
C3855 C 0.16081 0.57107 0.51698 0.0
C3856 C 0.15452 0.58638 0.54671 0.0
C3857 C 0.16025 0.59869 0.56467 0.0
C3858 C 0.17507 0.59666 0.57707 0.0
C3859 C 0.1804 0.60828 0.59393 0.0
C3860 C 0.17099 0.62195 0.5986 0.0
C3861 C 0.15622 0.62403 0.58643 0.0
C3862 C 0.15083 0.61246 0.56955 0.0
C3863 C 0.08936 0.53156 0.51816 0.0
C3864 C 0.07645 0.54218 0.52079 0.0
C3865 C 0.10709 0.5397 0.51886 0.0
C3866 C 0.11187 0.55851 0.52172 0.0
C3867 C 0.09874 0.56916 0.52295 0.0
C3868 C 0.08103 0.56096 0.52278 0.0
C3869 C 0.1307 0.56695 0.52531 0.0
C3870 C 0.13662 0.57813 0.54242 0.0
C3871 C 0.14285 0.56324 0.51251 0.0
C3872 C 0.13688 0.55193 0.49409 0.0
C3873 C 0.12422 0.55672 0.4808 0.0
C3874 C 0.11751 0.54525 0.46414 0.0
C3875 C 0.12324 0.52889 0.46074 0.0
C3876 C 0.13614 0.52424 0.47368 0.0
C3877 C 0.14306 0.53577 0.49026 0.0
H3878 H 0.11783 0.51992 0.44794 0.0
H3879 H 0.17514 0.63092 0.61166 0.0
H3880 H 0.67743 0.98064 0.72617 0.0
H3881 H 0.69098 0.95373 0.72727 0.0
H3882 H 0.73595 0.98513 0.76479 0.0
H3883 H 0.72331 0.01199 0.76208 0.0
H3884 H 0.74782 0.96393 0.74386 0.0
H3885 H 0.69697 0.95706 0.78014 0.0
H3886 H 0.66516 0.95445 0.78496 0.0
H3887 H 0.65145 0.90845 0.74258 0.0
H3888 H 0.68318 0.9109 0.73744 0.0
H3889 H 0.77332 0.90792 0.81038 0.0
H3890 H 0.76212 0.92995 0.79202 0.0
H3891 H 0.73277 0.88707 0.75049 0.0
H3892 H 0.74358 0.86485 0.76917 0.0
H3893 H 0.71217 0.90991 0.76512 0.0
H3894 H 0.76863 0.9173 0.73682 0.0
H3895 H 0.80151 0.92279 0.73796 0.0
H3896 H 0.80544 0.97177 0.77507 0.0
H3897 H 0.77262 0.96655 0.77411 0.0
C3898 C 0.6905 0.9817 0.73403 0.0
C3899 C 0.69962 0.99816 0.74376 0.0
C3900 C 0.69807 0.96639 0.73491 0.0
C3901 C 0.71431 0.96738 0.74635 0.0
C3902 C 0.72352 0.98406 0.75567 0.0
C3903 C 0.71636 0.99941 0.75409 0.0
C3904 C 0.72167 0.95117 0.7495 0.0
C3905 C 0.73998 0.95212 0.74852 0.0
C3906 C 0.7114 0.93565 0.75525 0.0
C3907 C 0.69236 0.93432 0.75821 0.0
C3908 C 0.68713 0.94649 0.77176 0.0
C3909 C 0.66914 0.94501 0.77457 0.0
C3910 C 0.65628 0.93134 0.76403 0.0
C3911 C 0.66141 0.91907 0.7507 0.0
C3912 C 0.67939 0.92049 0.74784 0.0
C3913 C 0.76462 0.90324 0.79724 0.0
C3914 C 0.75914 0.8848 0.79122 0.0
C3915 C 0.75845 0.91579 0.78665 0.0
C3916 C 0.74689 0.91005 0.7698 0.0
C3917 C 0.74188 0.89165 0.76338 0.0
C3918 C 0.74805 0.87905 0.77399 0.0
C3919 C 0.7384 0.9232 0.76035 0.0
C3920 C 0.71985 0.92155 0.76001 0.0
C3921 C 0.74858 0.93862 0.7545 0.0
C3922 C 0.76826 0.94151 0.75539 0.0
C3923 C 0.77655 0.92917 0.74529 0.0
C3924 C 0.79516 0.93227 0.74587 0.0
C3925 C 0.80556 0.94761 0.75658 0.0
C3926 C 0.79738 0.95991 0.76675 0.0
C3927 C 0.77879 0.95692 0.76613 0.0
H3928 H 0.81996 0.94999 0.757 0.0
H3929 H 0.64236 0.93021 0.76623 0.0
H3930 H 0.76481 0.93215 0.51906 0.0
H3931 H 0.73871 0.94644 0.51633 0.0
H3932 H 0.71189 0.90846 0.55054 0.0
H3933 H 0.73753 0.89299 0.55151 0.0
H3934 H 0.68869 0.91382 0.52597 0.0
H3935 H 0.73345 0.95637 0.5674 0.0
H3936 H 0.76339 0.97517 0.57654 0.0
H3937 H 0.7565 1.00394 0.52802 0.0
H3938 H 0.72661 0.98517 0.51849 0.0
H3939 H 0.62046 0.96494 0.5359 0.0
H3940 H 0.64709 0.95244 0.54524 0.0
H3941 H 0.6749 0.98058 0.50373 0.0
H3942 H 0.64837 0.99321 0.49464 0.0
H3943 H 0.69705 0.98051 0.53558 0.0
H3944 H 0.6532 0.93647 0.49351 0.0
H3945 H 0.62322 0.91775 0.48446 0.0
H3946 H 0.62835 0.89208 0.53546 0.0
H3947 H 0.65828 0.91085 0.54492 0.0
C3948 C 0.75334 0.92694 0.52606 0.0
C3949 C 0.75322 0.91173 0.53579 0.0
C3950 C 0.73845 0.93521 0.52466 0.0
C3951 C 0.72346 0.92908 0.53388 0.0
C3952 C 0.72329 0.91365 0.54346 0.0
C3953 C 0.73796 0.90488 0.54415 0.0
C3954 C 0.70793 0.93858 0.53318 0.0
C3955 C 0.69058 0.92839 0.52848 0.0
C3956 C 0.71017 0.95765 0.53612 0.0
C3957 C 0.72786 0.96933 0.54221 0.0
C3958 C 0.73834 0.9667 0.5587 0.0
C3959 C 0.75531 0.97734 0.56393 0.0
C3960 C 0.76185 0.99073 0.55286 0.0
C3961 C 0.75141 0.99357 0.53659 0.0
C3962 C 0.73445 0.98297 0.53129 0.0
C3963 C 0.63248 0.96882 0.52924 0.0
C3964 C 0.63255 0.98007 0.5147 0.0
C3965 C 0.64759 0.96156 0.53441 0.0
C3966 C 0.66288 0.96531 0.52494 0.0
C3967 C 0.66325 0.97745 0.5112 0.0
C3968 C 0.64816 0.9847 0.50604 0.0
C3969 C 0.67803 0.95574 0.5283 0.0
C3970 C 0.69526 0.96593 0.53343 0.0
C3971 C 0.67566 0.9367 0.52592 0.0
C3972 C 0.65788 0.92515 0.52 0.0
C3973 C 0.64789 0.92688 0.50282 0.0
C3974 C 0.63091 0.91627 0.49762 0.0
C3975 C 0.62386 0.90376 0.5094 0.0
C3976 C 0.63381 0.90179 0.52636 0.0
C3977 C 0.65079 0.9124 0.53165 0.0
H3978 H 0.6107 0.89557 0.50536 0.0
H3979 H 0.77501 0.99891 0.5569 0.0
H3980 H 0.42034 0.44393 0.75285 0.0
H3981 H 0.3981 0.41628 0.75134 0.0
H3982 H 0.35963 0.44727 0.76994 0.0
H3983 H 0.38184 0.4752 0.77113 0.0
H3984 H 0.36414 0.41771 0.79121 0.0
H3985 H 0.35321 0.42864 0.7258 0.0
H3986 H 0.36154 0.43463 0.69406 0.0
H3987 H 0.3823 0.38565 0.68873 0.0
H3988 H 0.3743 0.37949 0.72055 0.0
H3989 H 0.29449 0.34178 0.78535 0.0
H3990 H 0.3121 0.37124 0.78228 0.0
H3991 H 0.34606 0.34578 0.74778 0.0
H3992 H 0.32767 0.31647 0.74957 0.0
H3993 H 0.34261 0.3739 0.73382 0.0
H3994 H 0.35706 0.36294 0.79795 0.0
H3995 H 0.35292 0.35673 0.83083 0.0
H3996 H 0.3305 0.40438 0.83996 0.0
H3997 H 0.3341 0.41064 0.80711 0.0
C3998 C 0.4071 0.44491 0.75646 0.0
C3999 C 0.4029 0.46178 0.7622 0.0
C4000 C 0.39436 0.42908 0.75549 0.0
C4001 C 0.37717 0.42967 0.76046 0.0
C4002 C 0.37281 0.4465 0.76598 0.0
C4003 C 0.38548 0.46244 0.7666 0.0
C4004 C 0.36424 0.41261 0.76099 0.0
C4005 C 0.3591 0.40826 0.77862 0.0
C4006 C 0.35835 0.39993 0.7447 0.0
C4007 C 0.36329 0.40369 0.72563 0.0
C4008 C 0.3597 0.41923 0.71794 0.0
C4009 C 0.36433 0.42264 0.69991 0.0
C4010 C 0.37248 0.41055 0.6894 0.0
C4011 C 0.376 0.39501 0.69689 0.0
C4012 C 0.3714 0.39155 0.71491 0.0
C4013 C 0.30548 0.34245 0.77679 0.0
C4014 C 0.30952 0.32665 0.76763 0.0
C4015 C 0.31578 0.35936 0.77529 0.0
C4016 C 0.33075 0.3609 0.76511 0.0
C4017 C 0.33463 0.34513 0.75574 0.0
C4018 C 0.3241 0.32828 0.75684 0.0
C4019 C 0.3424 0.37881 0.76418 0.0
C4020 C 0.34742 0.38333 0.74647 0.0
C4021 C 0.34865 0.39144 0.78053 0.0
C4022 C 0.34567 0.38716 0.8 0.0
C4023 C 0.35099 0.37193 0.80689 0.0
C4024 C 0.34874 0.36839 0.82553 0.0
C4025 C 0.34136 0.38006 0.83744 0.0
C4026 C 0.33611 0.39525 0.83072 0.0
C4027 C 0.33822 0.3988 0.81209 0.0
H4028 H 0.33986 0.37737 0.85193 0.0
H4029 H 0.37604 0.4132 0.67544 0.0
H4030 H 0.21231 0.58235 0.2496 0.0
H4031 H 0.23093 0.61172 0.24865 0.0
H4032 H 0.19892 0.63621 0.28647 0.0
H4033 H 0.17996 0.60695 0.28731 0.0
H4034 H 0.20369 0.65285 0.25384 0.0
H4035 H 0.23924 0.6277 0.3022 0.0
H4036 H 0.25675 0.60558 0.31328 0.0
H4037 H 0.29179 0.61643 0.27042 0.0
H4038 H 0.27428 0.63837 0.25889 0.0
H4039 H 0.2469 0.73845 0.28569 0.0
H4040 H 0.23393 0.70699 0.28557 0.0
H4041 H 0.27711 0.69195 0.25663 0.0
H4042 H 0.29155 0.72339 0.2593 0.0
H4043 H 0.26797 0.66912 0.27894 0.0
H4044 H 0.23633 0.69714 0.23319 0.0
H4045 H 0.22067 0.72064 0.22242 0.0
H4046 H 0.17882 0.70452 0.25674 0.0
H4047 H 0.19461 0.68138 0.26841 0.0
C4048 C 0.20939 0.59394 0.25797 0.0
C4049 C 0.1947 0.59247 0.26856 0.0
C4050 C 0.21999 0.61063 0.25732 0.0
C4051 C 0.21614 0.62586 0.26748 0.0
C4052 C 0.20187 0.62441 0.27849 0.0
C4053 C 0.19117 0.60777 0.27903 0.0
C4054 C 0.22666 0.64356 0.26639 0.0
C4055 C 0.21773 0.65654 0.25936 0.0
C4056 C 0.24509 0.64783 0.27272 0.0
C4057 C 0.25533 0.63444 0.27954 0.0
C4058 C 0.25055 0.62519 0.29501 0.0
C4059 C 0.2605 0.61272 0.30139 0.0
C4060 C 0.27533 0.60955 0.29252 0.0
C4061 C 0.28027 0.61885 0.27725 0.0
C4062 C 0.27034 0.63128 0.27078 0.0
C4063 C 0.25415 0.72849 0.28034 0.0
C4064 C 0.27033 0.73335 0.27286 0.0
C4065 C 0.24648 0.71053 0.27975 0.0
C4066 C 0.25429 0.69736 0.27045 0.0
C4067 C 0.27085 0.70206 0.2637 0.0
C4068 C 0.27901 0.71999 0.26518 0.0
C4069 C 0.24484 0.67873 0.26722 0.0
C4070 C 0.25399 0.66549 0.27312 0.0
C4071 C 0.22668 0.67418 0.25946 0.0
C4072 C 0.21673 0.68755 0.25176 0.0
C4073 C 0.22382 0.69862 0.23851 0.0
C4074 C 0.21493 0.71193 0.23228 0.0
C4075 C 0.19873 0.71406 0.23884 0.0
C4076 C 0.19137 0.70286 0.25166 0.0
C4077 C 0.20031 0.68967 0.25813 0.0
H4078 H 0.19189 0.7244 0.23401 0.0
H4079 H 0.28305 0.59992 0.29751 0.0
H4080 H 0.51048 0.72803 0.49045 0.0
H4081 H 0.51563 0.69903 0.49966 0.0
H4082 H 0.51942 0.68074 0.44128 0.0
H4083 H 0.51458 0.71018 0.43193 0.0
H4084 H 0.49785 0.6543 0.45933 0.0
H4085 H 0.55671 0.69117 0.47429 0.0
H4086 H 0.57838 0.71784 0.48967 0.0
H4087 H 0.56461 0.70513 0.54458 0.0
H4088 H 0.54267 0.67852 0.52949 0.0
H4089 H 0.52144 0.57074 0.47859 0.0
H4090 H 0.51928 0.60002 0.46818 0.0
H4091 H 0.53535 0.62519 0.52573 0.0
H4092 H 0.53872 0.59588 0.53586 0.0
H4093 H 0.54714 0.64889 0.50779 0.0
H4094 H 0.48752 0.61665 0.49704 0.0
H4095 H 0.46139 0.59292 0.4853 0.0
H4096 H 0.47204 0.59822 0.42767 0.0
H4097 H 0.49817 0.62221 0.43914 0.0
C4098 C 0.5125 0.71797 0.47942 0.0
C4099 C 0.51206 0.72187 0.4603 0.0
C4100 C 0.51554 0.7012 0.48482 0.0
C4101 C 0.51809 0.68729 0.47136 0.0
C4102 C 0.51758 0.69101 0.45217 0.0
C4103 C 0.51486 0.70803 0.44678 0.0
C4104 C 0.52094 0.66899 0.47737 0.0
C4105 C 0.50888 0.65315 0.46965 0.0
C4106 C 0.53467 0.66709 0.49165 0.0
C4107 C 0.54797 0.68295 0.50074 0.0
C4108 C 0.55823 0.69414 0.48963 0.0
C4109 C 0.57056 0.70923 0.4983 0.0
C4110 C 0.57284 0.7132 0.51809 0.0
C4111 C 0.56282 0.70205 0.52925 0.0
C4112 C 0.55045 0.68695 0.52065 0.0
C4113 C 0.52449 0.58246 0.48913 0.0
C4114 C 0.53009 0.58054 0.50823 0.0
C4115 C 0.52301 0.59947 0.48314 0.0
C4116 C 0.52643 0.61544 0.49604 0.0
C4117 C 0.53238 0.61352 0.51513 0.0
C4118 C 0.53427 0.59652 0.52105 0.0
C4119 C 0.52403 0.63388 0.48965 0.0
C4120 C 0.53614 0.64984 0.49735 0.0
C4121 C 0.50991 0.63602 0.47587 0.0
C4122 C 0.49483 0.62107 0.46894 0.0
C4123 C 0.48437 0.61262 0.48187 0.0
C4124 C 0.46953 0.59916 0.47526 0.0
C4125 C 0.46506 0.59402 0.45572 0.0
C4126 C 0.47551 0.60224 0.44279 0.0
C4127 C 0.49029 0.61581 0.44933 0.0
H4128 H 0.45342 0.58378 0.45057 0.0
H4129 H 0.5824 0.7249 0.52477 0.0
H4130 H 0.59717 0.27704 0.65516 0.0
H4131 H 0.62259 0.27374 0.67734 0.0
H4132 H 0.6567 0.31435 0.6522 0.0
H4133 H 0.6316 0.31627 0.62895 0.0
H4134 H 0.67579 0.2937 0.65895 0.0
H4135 H 0.63826 0.31703 0.70235 0.0
H4136 H 0.61072 0.31742 0.71765 0.0
H4137 H 0.6129 0.26521 0.73521 0.0
H4138 H 0.64032 0.26444 0.71984 0.0
H4139 H 0.75071 0.30598 0.72975 0.0
H4140 H 0.72417 0.30948 0.70957 0.0
H4141 H 0.69298 0.26528 0.73252 0.0
H4142 H 0.71944 0.26252 0.75366 0.0
H4143 H 0.67237 0.28691 0.72714 0.0
H4144 H 0.71055 0.2645 0.68331 0.0
H4145 H 0.73835 0.26525 0.66818 0.0
H4146 H 0.73542 0.31789 0.65245 0.0
H4147 H 0.70753 0.31742 0.66728 0.0
C4148 C 0.61006 0.2854 0.65449 0.0
C4149 C 0.61215 0.29706 0.64022 0.0
C4150 C 0.62476 0.28365 0.66743 0.0
C4151 C 0.642 0.29407 0.6672 0.0
C4152 C 0.64387 0.30596 0.65306 0.0
C4153 C 0.62935 0.30721 0.63972 0.0
C4154 C 0.65821 0.29225 0.68087 0.0
C4155 C 0.67489 0.29255 0.67392 0.0
C4156 C 0.65761 0.29011 0.70053 0.0
C4157 C 0.64119 0.2906 0.70978 0.0
C4158 C 0.63279 0.3056 0.70939 0.0
C4159 C 0.61722 0.30589 0.71808 0.0
C4160 C 0.61003 0.29133 0.72734 0.0
C4161 C 0.61845 0.27647 0.728 0.0
C4162 C 0.634 0.2761 0.71931 0.0
C4163 C 0.73821 0.29698 0.73058 0.0
C4164 C 0.73746 0.28386 0.7434 0.0
C4165 C 0.7229 0.29885 0.71873 0.0
C4166 C 0.70627 0.28728 0.71869 0.0
C4167 C 0.70543 0.2744 0.73186 0.0
C4168 C 0.7207 0.27279 0.74404 0.0
C4169 C 0.68986 0.28866 0.70521 0.0
C4170 C 0.67318 0.28817 0.71217 0.0
C4171 C 0.69047 0.29084 0.6856 0.0
C4172 C 0.70708 0.29099 0.67654 0.0
C4173 C 0.71588 0.27625 0.67667 0.0
C4174 C 0.73164 0.27662 0.66817 0.0
C4175 C 0.73871 0.29164 0.65952 0.0
C4176 C 0.72995 0.30628 0.65919 0.0
C4177 C 0.71414 0.30594 0.66757 0.0
H4178 H 0.75092 0.2919 0.65299 0.0
H4179 H 0.59797 0.29158 0.73405 0.0
H4180 H 0.04121 0.32314 0.96752 0.0
H4181 H 0.04392 0.35487 0.98031 0.0
H4182 H 0.98855 0.35262 0.95998 0.0
H4183 H 0.98615 0.3211 0.94666 0.0
H4184 H 1.00569 0.38184 0.95163 0.0
H4185 H 1.00953 0.35583 0.01129 0.0
H4186 H 0.02252 0.3388 0.03515 0.0
H4187 H 0.07311 0.37469 0.03847 0.0
H4188 H 0.06049 0.39178 0.01445 0.0
H4189 H 0.99715 0.46842 0.99926 0.0
H4190 H 0.99426 0.4359 0.98962 0.0
H4191 H 0.0512 0.44069 0.00204 0.0
H4192 H 0.05416 0.47311 0.01116 0.0
H4193 H 0.03401 0.41029 0.01545 0.0
H4194 H 0.03356 0.43593 0.95869 0.0
H4195 H 0.02686 0.45073 0.93029 0.0
H4196 H 0.97618 0.41477 0.91734 0.0
H4197 H 0.98203 0.40046 0.94637 0.0
C4198 C 0.02952 0.32933 0.96608 0.0
C4199 C 0.01336 0.31932 0.95626 0.0
C4200 C 0.03104 0.34762 0.97353 0.0
C4201 C 0.01638 0.35661 0.97163 0.0
C4202 C 1.00018 0.34641 0.96192 0.0
C4203 C 0.99873 0.3282 0.95433 0.0
C4204 C 0.01802 0.37671 0.97842 0.0
C4205 C 0.01138 0.38786 0.96584 0.0
C4206 C 0.02655 0.38528 0.99654 0.0
C4207 C 0.0341 0.37497 0.01094 0.0
C4208 C 0.02345 0.36 0.01701 0.0
C4209 C 0.03075 0.35035 0.03058 0.0
C4210 C 0.04864 0.35563 0.03828 0.0
C4211 C 0.05927 0.37059 0.03247 0.0
C4212 C 0.05204 0.38027 0.01889 0.0
C4213 C 1.00906 0.4626 1.00001 0.0
C4214 C 0.0259 0.47374 0.00604 0.0
C4215 C 1.00742 0.44385 0.99436 0.0
C4216 C 0.0225 0.43541 0.99495 0.0
C4217 C 0.03924 0.44649 0.00135 0.0
C4218 C 0.04093 0.46525 0.00651 0.0
C4219 C 0.02094 0.41523 0.98882 0.0
C4220 C 0.02779 0.40417 0.00143 0.0
C4221 C 0.013 0.40676 0.97052 0.0
C4222 C 1.00813 0.41729 0.95496 0.0
C4223 C 0.02069 0.43159 0.95023 0.0
C4224 C 0.01709 0.43984 0.93393 0.0
C4225 C 1.00116 0.43364 0.92198 0.0
C4226 C 0.98856 0.4195 0.92657 0.0
C4227 C 0.99189 0.4115 0.94311 0.0
H4228 H 0.99863 0.43976 0.90911 0.0
H4229 H 0.05426 0.34814 0.04879 0.0
H4230 H 0.0227 0.77602 0.16349 0.0
H4231 H 0.99624 0.77373 0.18046 0.0
H4232 H 0.96832 0.79511 0.1349 0.0
H4233 H 0.99483 0.79733 0.11773 0.0
H4234 H 0.96307 0.81084 0.16994 0.0
H4235 H 0.95775 0.75126 0.13956 0.0
H4236 H 0.96691 0.72248 0.13005 0.0
H4237 H 0.97546 0.7135 0.18868 0.0
H4238 H 0.96662 0.74238 0.19856 0.0
H4239 H 0.87528 0.78378 0.19961 0.0
H4240 H 0.90224 0.79109 0.18363 0.0
H4241 H 0.93162 0.76654 0.22542 0.0
H4242 H 0.90458 0.75903 0.24115 0.0
H4243 H 0.93569 0.75301 0.19118 0.0
H4244 H 0.94054 0.81327 0.22131 0.0
H4245 H 0.93109 0.84208 0.23 0.0
H4246 H 0.92257 0.84968 0.17096 0.0
H4247 H 0.93175 0.8208 0.16191 0.0
C4248 C 0.01091 0.78012 0.15697 0.0
C4249 C 0.0109 0.78673 0.13913 0.0
C4250 C 0.99573 0.77879 0.16672 0.0
C4251 C 0.98014 0.78414 0.15898 0.0
C4252 C 0.98012 0.79087 0.14122 0.0
C4253 C 0.99527 0.79202 0.13134 0.0
C4254 C 0.96397 0.78265 0.16952 0.0
C4255 C 0.95692 0.79813 0.17436 0.0
C4256 C 0.95603 0.76621 0.17565 0.0
C4257 C 0.96172 0.74905 0.1698 0.0
C4258 C 0.96179 0.74324 0.15043 0.0
C4259 C 0.96687 0.72689 0.14497 0.0
C4260 C 0.97181 0.71619 0.15875 0.0
C4261 C 0.97167 0.72182 0.17803 0.0
C4262 C 0.96662 0.73817 0.18356 0.0
C4263 C 0.88768 0.78055 0.20574 0.0
C4264 C 0.88791 0.77112 0.22182 0.0
C4265 C 0.90312 0.78467 0.19656 0.0
C4266 C 0.91914 0.77943 0.20324 0.0
C4267 C 0.91952 0.77076 0.21988 0.0
C4268 C 0.9041 0.76662 0.22902 0.0
C4269 C 0.93489 0.78127 0.19199 0.0
C4270 C 0.94183 0.76577 0.18688 0.0
C4271 C 0.9426 0.79768 0.18554 0.0
C4272 C 0.93662 0.81478 0.19093 0.0
C4273 C 0.93644 0.82098 0.21017 0.0
C4274 C 0.93119 0.83735 0.21517 0.0
C4275 C 0.92617 0.84768 0.20104 0.0
C4276 C 0.92641 0.84166 0.18189 0.0
C4277 C 0.93165 0.8253 0.17682 0.0
H4278 H 0.92214 0.86037 0.20494 0.0
H4279 H 0.9757 0.70351 0.15449 0.0
H4280 H 0.54206 0.29267 0.14204 0.0
H4281 H 0.54467 0.31902 0.12444 0.0
H4282 H 0.5127 0.34343 0.1622 0.0
H4283 H 0.51049 0.31718 0.1803 0.0
H4284 H 0.5021 0.34385 0.12117 0.0
H4285 H 0.55345 0.3606 0.16768 0.0
H4286 H 0.58135 0.357 0.18605 0.0
H4287 H 0.60583 0.35162 0.13449 0.0
H4288 H 0.57794 0.35485 0.11577 0.0
H4289 H 0.52289 0.43347 0.09082 0.0
H4290 H 0.51535 0.40623 0.10683 0.0
H4291 H 0.555 0.38287 0.07929 0.0
H4292 H 0.56261 0.41007 0.06358 0.0
H4293 H 0.56064 0.38227 0.11632 0.0
H4294 H 0.50997 0.36515 0.06947 0.0
H4295 H 0.4819 0.3669 0.0502 0.0
H4296 H 0.45599 0.37176 0.10085 0.0
H4297 H 0.484 0.37034 0.12046 0.0
C4298 C 0.53576 0.30374 0.14678 0.0
C4299 C 0.52621 0.30288 0.16271 0.0
C4300 C 0.53722 0.31879 0.13664 0.0
C4301 C 0.52885 0.33325 0.14191 0.0
C4302 C 0.51927 0.33246 0.15782 0.0
C4303 C 0.51816 0.31753 0.16827 0.0
C4304 C 0.53024 0.34909 0.13072 0.0
C4305 C 0.51484 0.35249 0.12035 0.0
C4306 C 0.5469 0.36004 0.12915 0.0
C4307 C 0.56355 0.35776 0.14032 0.0
C4308 C 0.56471 0.35842 0.16024 0.0
C4309 C 0.58054 0.35649 0.17072 0.0
C4310 C 0.59534 0.35403 0.16144 0.0
C4311 C 0.59435 0.35349 0.14165 0.0
C4312 C 0.57853 0.35536 0.13111 0.0
C4313 C 0.52952 0.42224 0.0877 0.0
C4314 C 0.54325 0.42385 0.07583 0.0
C4315 C 0.52527 0.40667 0.09693 0.0
C4316 C 0.53466 0.39239 0.09443 0.0
C4317 C 0.54761 0.39364 0.08163 0.0
C4318 C 0.55188 0.40916 0.07251 0.0
C4319 C 0.5325 0.3771 0.10649 0.0
C4320 C 0.54781 0.37377 0.11711 0.0
C4321 C 0.51576 0.36619 0.10813 0.0
C4322 C 0.49917 0.36792 0.09646 0.0
C4323 C 0.49838 0.36689 0.07653 0.0
C4324 C 0.48245 0.36775 0.06553 0.0
C4325 C 0.46719 0.36952 0.0743 0.0
C4326 C 0.46783 0.37046 0.09408 0.0
C4327 C 0.48373 0.36964 0.10514 0.0
H4328 H 0.45485 0.37009 0.06576 0.0
H4329 H 0.60761 0.35259 0.16958 0.0
H4330 H 0.97692 0.28887 0.36794 0.0
H4331 H 0.94669 0.28512 0.35231 0.0
H4332 H 0.96666 0.31068 0.30512 0.0
H4333 H 0.99755 0.31486 0.32124 0.0
H4334 H 0.93754 0.32318 0.31302 0.0
H4335 H 0.94744 0.26338 0.30192 0.0
H4336 H 0.95618 0.23474 0.3089 0.0
H4337 H 0.91706 0.22754 0.34826 0.0
H4338 H 0.90826 0.25626 0.34171 0.0
H4339 H 0.8468 0.30295 0.26591 0.0
H4340 H 0.87898 0.3059 0.27465 0.0
H4341 H 0.86882 0.27767 0.32343 0.0
H4342 H 0.83672 0.27433 0.31444 0.0
H4343 H 0.89415 0.26594 0.3104 0.0
H4344 H 0.88726 0.32814 0.32393 0.0
H4345 H 0.8783 0.35639 0.31589 0.0
H4346 H 0.91105 0.35796 0.27011 0.0
H4347 H 0.92037 0.3298 0.27808 0.0
C4348 C 0.9751 0.29356 0.35409 0.0
C4349 C 0.99003 0.30215 0.34599 0.0
C4350 C 0.95755 0.29127 0.345 0.0
C4351 C 0.95391 0.29734 0.32721 0.0
C4352 C 0.9688 0.30572 0.31877 0.0
C4353 C 0.98661 0.30796 0.32794 0.0
C4354 C 0.93456 0.29542 0.31822 0.0
C4355 C 0.92821 0.31052 0.31218 0.0
C4356 C 0.92183 0.27911 0.31716 0.0
C4357 C 0.92732 0.26204 0.32145 0.0
C4358 C 0.94083 0.25577 0.31221 0.0
C4359 C 0.94576 0.23951 0.31605 0.0
C4360 C 0.93721 0.22935 0.32905 0.0
C4361 C 0.92369 0.23543 0.33822 0.0
C4362 C 0.91872 0.25169 0.33443 0.0
C4363 C 0.85134 0.29761 0.27868 0.0
C4364 C 0.83879 0.28859 0.28951 0.0
C4365 C 0.86998 0.29934 0.28378 0.0
C4366 C 0.87689 0.29234 0.30008 0.0
C4367 C 0.86429 0.28331 0.31082 0.0
C4368 C 0.84571 0.28145 0.30565 0.0
C4369 C 0.89697 0.29384 0.30581 0.0
C4370 C 0.90348 0.27861 0.31121 0.0
C4371 C 0.90981 0.30997 0.30619 0.0
C4372 C 0.90437 0.32687 0.30149 0.0
C4373 C 0.8925 0.33452 0.31213 0.0
C4374 C 0.88739 0.35051 0.3076 0.0
C4375 C 0.89402 0.35892 0.29243 0.0
C4376 C 0.90591 0.35143 0.28184 0.0
C4377 C 0.91118 0.3355 0.28641 0.0
H4378 H 0.88997 0.37127 0.28889 0.0
H4379 H 0.94103 0.21674 0.33198 0.0
H4380 H 1.00274 0.71143 0.62353 0.0
H4381 H 1.0035 0.68257 0.606 0.0
H4382 H 0.03031 0.66646 0.65588 0.0
H4383 H 0.03025 0.69614 0.67336 0.0
H4384 H 0.04624 0.65694 0.62681 0.0
H4385 H 0.98397 0.64715 0.63533 0.0
H4386 H 0.95398 0.6549 0.63456 0.0
H4387 H 0.95198 0.65716 0.57427 0.0
H4388 H 0.98206 0.64963 0.57473 0.0
H4389 H 0.02762 0.56276 0.58186 0.0
H4390 H 0.02546 0.5896 0.6029 0.0
H4391 H 0.02312 0.61979 0.55483 0.0
H4392 H 0.0265 0.59358 0.53406 0.0
H4393 H 0.99452 0.62066 0.58428 0.0
H4394 H 0.05668 0.63225 0.57572 0.0
H4395 H 0.08683 0.62507 0.57571 0.0
H4396 H 0.08906 0.61988 0.63548 0.0
H4397 H 0.05869 0.62663 0.63572 0.0
C4398 C 1.00818 0.70151 0.63108 0.0
C4399 C 0.01586 0.70604 0.65016 0.0
C4400 C 1.00869 0.68486 0.62092 0.0
C4401 C 0.01666 0.67181 0.62947 0.0
C4402 C 0.02391 0.67604 0.64879 0.0
C4403 C 0.02353 0.69293 0.659 0.0
C4404 C 0.0181 0.65435 0.61783 0.0
C4405 C 0.03476 0.64889 0.61787 0.0
C4406 C 1.00345 0.64378 0.60549 0.0
C4407 C 0.98526 0.64792 0.6051 0.0
C4408 C 0.97714 0.64935 0.62193 0.0
C4409 C 0.96014 0.65371 0.62154 0.0
C4410 C 0.95109 0.65654 0.60438 0.0
C4411 C 0.959 0.65496 0.58755 0.0
C4412 C 0.97601 0.65061 0.58786 0.0
C4413 C 0.02686 0.57509 0.57562 0.0
C4414 C 0.02746 0.57566 0.55584 0.0
C4415 C 0.02556 0.59052 0.5878 0.0
C4416 C 0.02418 0.60689 0.58058 0.0
C4417 C 0.02423 0.60742 0.56089 0.0
C4418 C 0.02615 0.59221 0.54885 0.0
C4419 C 0.02252 0.62336 0.59344 0.0
C4420 C 1.00587 0.62864 0.59349 0.0
C4421 C 0.03716 0.63376 0.60576 0.0
C4422 C 0.0553 0.62959 0.60566 0.0
C4423 C 0.06348 0.62928 0.58879 0.0
C4424 C 0.08063 0.62536 0.58875 0.0
C4425 C 0.08982 0.62193 0.60556 0.0
C4426 C 0.08189 0.62246 0.62245 0.0
C4427 C 0.0647 0.62632 0.62254 0.0
H4428 H 0.10312 0.61893 0.60552 0.0
H4429 H 0.93793 0.65995 0.60412 0.0
H4430 H 0.58247 0.78643 0.81411 0.0
H4431 H 0.61063 0.78236 0.80182 0.0
H4432 H 0.64037 0.81316 0.8525 0.0
H4433 H 0.61232 0.81715 0.8648 0.0
H4434 H 0.65744 0.82273 0.8231 0.0
H4435 H 0.63441 0.7651 0.84281 0.0
H4436 H 0.61226 0.73733 0.8433 0.0
H4437 H 0.61287 0.72403 0.78331 0.0
H4438 H 0.63485 0.75187 0.78243 0.0
H4439 H 0.74321 0.80082 0.81211 0.0
H4440 H 0.71449 0.80464 0.82253 0.0
H4441 H 0.687 0.76932 0.77349 0.0
H4442 H 0.71585 0.76525 0.76316 0.0
H4443 H 0.66831 0.7622 0.80077 0.0
H4444 H 0.6906 0.81834 0.7798 0.0
H4445 H 0.71235 0.84598 0.77752 0.0
H4446 H 0.71246 0.86238 0.83702 0.0
H4447 H 0.69086 0.8347 0.83972 0.0
C4448 C 0.59497 0.79237 0.8227 0.0
C4449 C 0.59476 0.80212 0.84063 0.0
C4450 C 0.61127 0.78994 0.81565 0.0
C4451 C 0.62814 0.79723 0.82613 0.0
C4452 C 0.62788 0.80725 0.84387 0.0
C4453 C 0.61163 0.8095 0.85101 0.0
C4454 C 0.6459 0.79448 0.81883 0.0
C4455 C 0.65977 0.80941 0.81848 0.0
C4456 C 0.64934 0.77729 0.81203 0.0
C4457 C 0.6361 0.76064 0.81252 0.0
C4458 C 0.6297 0.75632 0.8297 0.0
C4459 C 0.6172 0.74056 0.83005 0.0
C4460 C 0.61112 0.72895 0.81334 0.0
C4461 C 0.61756 0.73306 0.79624 0.0
C4462 C 0.63004 0.74882 0.7958 0.0
C4463 C 0.73112 0.7938 0.80343 0.0
C4464 C 0.73226 0.78269 0.78662 0.0
C4465 C 0.71445 0.79615 0.8094 0.0
C4466 C 0.69802 0.78761 0.79881 0.0
C4467 C 0.69914 0.77626 0.78214 0.0
C4468 C 0.71585 0.77394 0.77613 0.0
C4469 C 0.67992 0.79044 0.80516 0.0
C4470 C 0.66599 0.77554 0.80534 0.0
C4471 C 0.67633 0.80769 0.81152 0.0
C4472 C 0.68923 0.82438 0.80999 0.0
C4473 C 0.69535 0.82779 0.79242 0.0
C4474 C 0.70764 0.84346 0.79105 0.0
C4475 C 0.71379 0.85591 0.80712 0.0
C4476 C 0.70767 0.85271 0.8246 0.0
C4477 C 0.69539 0.83704 0.82605 0.0
H4478 H 0.72322 0.86808 0.80601 0.0
H4479 H 0.60145 0.71675 0.81364 0.0
H4480 H 0.43414 0.53447 0.70624 0.0
H4481 H 0.44535 0.53976 0.67546 0.0
H4482 H 0.48264 0.50432 0.6854 0.0
H4483 H 0.47182 0.49909 0.71559 0.0
H4484 H 0.49941 0.53471 0.6754 0.0
H4485 H 0.44467 0.49253 0.6528 0.0
H4486 H 0.4121 0.48143 0.64741 0.0
H4487 H 0.40529 0.52732 0.6185 0.0
H4488 H 0.4378 0.53884 0.62401 0.0
H4489 H 0.53323 0.51658 0.58814 0.0
H4490 H 0.51898 0.51562 0.61736 0.0
H4491 H 0.48212 0.54771 0.59548 0.0
H4492 H 0.49599 0.54809 0.56585 0.0
H4493 H 0.46436 0.52302 0.61165 0.0
H4494 H 0.51864 0.56541 0.63407 0.0
H4495 H 0.55107 0.57731 0.64012 0.0
H4496 H 0.55865 0.53152 0.66883 0.0
H4497 H 0.52621 0.51956 0.66333 0.0
C4498 C 0.44461 0.5277 0.70174 0.0
C4499 C 0.45214 0.51648 0.71365 0.0
C4500 C 0.451 0.53071 0.68411 0.0
C4501 C 0.46497 0.52251 0.67805 0.0
C4502 C 0.47202 0.51099 0.68971 0.0
C4503 C 0.46573 0.508 0.70711 0.0
C4504 C 0.4731 0.52622 0.66013 0.0
C4505 C 0.49169 0.53204 0.66146 0.0
C4506 C 0.46314 0.52334 0.64188 0.0
C4507 C 0.4436 0.51669 0.63911 0.0
C4508 C 0.43619 0.50038 0.64555 0.0
C4509 C 0.41775 0.49398 0.64241 0.0
C4510 C 0.40662 0.50371 0.6327 0.0
C4511 C 0.41391 0.51984 0.62609 0.0
C4512 C 0.43234 0.52631 0.62923 0.0
C4513 C 0.52221 0.5236 0.58962 0.0
C4514 C 0.51587 0.53255 0.57468 0.0
C4515 C 0.51409 0.52314 0.60645 0.0
C4516 C 0.49962 0.53193 0.609 0.0
C4517 C 0.49327 0.54087 0.59404 0.0
C4518 C 0.50126 0.54113 0.57708 0.0
C4519 C 0.49073 0.53117 0.62691 0.0
C4520 C 0.47204 0.52593 0.62559 0.0
C4521 C 0.50057 0.53464 0.64525 0.0
C4522 C 0.52007 0.54153 0.64812 0.0
C4523 C 0.52726 0.55783 0.64154 0.0
C4524 C 0.54563 0.56459 0.64491 0.0
C4525 C 0.55694 0.55507 0.65464 0.0
C4526 C 0.54989 0.53885 0.66122 0.0
C4527 C 0.53151 0.53213 0.65809 0.0
H4528 H 0.57116 0.56033 0.65719 0.0
H4529 H 0.39236 0.4987 0.63023 0.0
H4530 H 0.75556 0.13498 0.98471 0.0
H4531 H 0.75257 0.15226 0.95753 0.0
H4532 H 0.80224 0.18823 0.97946 0.0
H4533 H 0.8045 0.17162 0.00715 0.0
H4534 H 0.77821 0.20645 0.97029 0.0
H4535 H 0.798 0.15561 0.94034 0.0
H4536 H 0.79659 0.12298 0.93288 0.0
H4537 H 0.74436 0.11766 0.90231 0.0
H4538 H 0.74525 0.15019 0.91 0.0
H4539 H 0.77726 0.25119 0.88587 0.0
H4540 H 0.78777 0.23245 0.90935 0.0
H4541 H 0.73531 0.19882 0.90254 0.0
H4542 H 0.7247 0.21778 0.87956 0.0
H4543 H 0.76493 0.1799 0.90274 0.0
H4544 H 0.74389 0.22925 0.936 0.0
H4545 H 0.74357 0.26113 0.94597 0.0
H4546 H 0.79782 0.26862 0.97193 0.0
H4547 H 0.79866 0.23687 0.96153 0.0
C4548 C 0.76594 0.14635 0.98334 0.0
C4549 C 0.78041 0.15199 0.99748 0.0
C4550 C 0.76428 0.15617 0.96794 0.0
C4551 C 0.7774 0.17128 0.96637 0.0
C4552 C 0.79207 0.17655 0.98041 0.0
C4553 C 0.79344 0.16706 0.99603 0.0
C4554 C 0.77531 0.1823 0.95073 0.0
C4555 C 0.77576 0.20072 0.95548 0.0
C4556 C 0.77175 0.17467 0.93151 0.0
C4557 C 0.77167 0.15533 0.92583 0.0
C4558 C 0.78621 0.14748 0.93203 0.0
C4559 C 0.78548 0.12899 0.92782 0.0
C4560 C 0.77039 0.11825 0.91715 0.0
C4561 C 0.75604 0.126 0.91058 0.0
C4562 C 0.75665 0.14447 0.91486 0.0
C4563 C 0.76804 0.23987 0.88961 0.0
C4564 C 0.75014 0.23599 0.88148 0.0
C4565 C 0.77405 0.22917 0.90276 0.0
C4566 C 0.76224 0.21438 0.90749 0.0
C4567 C 0.74452 0.21023 0.89893 0.0
C4568 C 0.73843 0.22113 0.88613 0.0
C4569 C 0.7678 0.2039 0.92242 0.0
C4570 C 0.76792 0.18562 0.91753 0.0
C4571 C 0.77193 0.21164 0.94154 0.0
C4572 C 0.77147 0.23078 0.94758 0.0
C4573 C 0.75587 0.23776 0.9435 0.0
C4574 C 0.75558 0.2558 0.94929 0.0
C4575 C 0.7707 0.26693 0.95948 0.0
C4576 C 0.78615 0.26002 0.96393 0.0
C4577 C 0.78656 0.24202 0.95803 0.0
H4578 H 0.77042 0.28088 0.96401 0.0
H4579 H 0.76982 0.10392 0.91396 0.0
H4580 H 0.14284 0.56841 0.2031 0.0
H4581 H 0.12884 0.56339 0.17026 0.0
H4582 H 0.1425 0.51052 0.16395 0.0
H4583 H 0.157 0.51566 0.19681 0.0
H4584 H 0.14168 0.53081 0.12954 0.0
H4585 H 0.10642 0.50905 0.17831 0.0
H4586 H 0.09523 0.51145 0.20965 0.0
H4587 H 0.07262 0.55708 0.19568 0.0
H4588 H 0.08395 0.55515 0.16439 0.0
H4589 H 0.06662 0.50441 0.05837 0.0
H4590 H 0.08887 0.50442 0.08535 0.0
H4591 H 0.07706 0.55427 0.11103 0.0
H4592 H 0.05438 0.55405 0.08422 0.0
H4593 H 0.07726 0.5294 0.13513 0.0
H4594 H 0.11451 0.5535 0.08838 0.0
H4595 H 0.12687 0.55294 0.05755 0.0
H4596 H 0.14538 0.5041 0.06738 0.0
H4597 H 0.13309 0.50433 0.09823 0.0
C4598 C 0.14332 0.55598 0.19447 0.0
C4599 C 0.15043 0.5422 0.20228 0.0
C4600 C 0.13551 0.5532 0.17582 0.0
C4601 C 0.1345 0.53649 0.16518 0.0
C4602 C 0.14329 0.52345 0.17222 0.0
C4603 C 0.1514 0.52635 0.19087 0.0
C4604 C 0.12148 0.53172 0.14846 0.0
C4605 C 0.12754 0.53012 0.1306 0.0
C4606 C 0.10316 0.53094 0.15028 0.0
C4607 C 0.09616 0.53202 0.16906 0.0
C4608 C 0.0992 0.51969 0.18198 0.0
C4609 C 0.09281 0.52095 0.19974 0.0
C4610 C 0.08325 0.53443 0.20467 0.0
C4611 C 0.08003 0.54665 0.19185 0.0
C4612 C 0.08642 0.54547 0.1741 0.0
C4613 C 0.06893 0.51541 0.06975 0.0
C4614 C 0.05914 0.52935 0.06944 0.0
C4615 C 0.08157 0.5154 0.08501 0.0
C4616 C 0.0846 0.52946 0.09981 0.0
C4617 C 0.07476 0.54337 0.09954 0.0
C4618 C 0.06191 0.54323 0.08441 0.0
C4619 C 0.09753 0.52937 0.11609 0.0
C4620 C 0.09136 0.52978 0.13395 0.0
C4621 C 0.11568 0.52912 0.1142 0.0
C4622 C 0.1228 0.52887 0.09553 0.0
C4623 C 0.12109 0.54258 0.08389 0.0
C4624 C 0.12811 0.54234 0.06645 0.0
C4625 C 0.1369 0.52852 0.06055 0.0
C4626 C 0.13861 0.51483 0.07201 0.0
C4627 C 0.13166 0.51502 0.08948 0.0
H4628 H 0.1424 0.52843 0.04709 0.0
H4629 H 0.07831 0.53539 0.21842 0.0
H4630 H 0.78015 0.84185 0.48922 0.0
H4631 H 0.77828 0.82672 0.45698 0.0
H4632 H 0.80757 0.87533 0.43961 0.0
H4633 H 0.8079 0.89086 0.4715 0.0
H4634 H 0.7846 0.86264 0.41287 0.0
H4635 H 0.82462 0.8321 0.44979 0.0
H4636 H 0.83246 0.81454 0.47578 0.0
H4637 H 0.78802 0.77211 0.45436 0.0
H4638 H 0.7798 0.7895 0.42838 0.0
H4639 H 0.80488 0.82596 0.32465 0.0
H4640 H 0.80768 0.83886 0.35798 0.0
H4641 H 0.77567 0.78994 0.37155 0.0
H4642 H 0.77428 0.77658 0.33844 0.0
H4643 H 0.79875 0.80169 0.40014 0.0
H4644 H 0.75967 0.83107 0.36251 0.0
H4645 H 0.75242 0.84777 0.33562 0.0
H4646 H 0.79405 0.89225 0.35861 0.0
H4647 H 0.80228 0.87555 0.38518 0.0
C4648 C 0.78626 0.84925 0.47851 0.0
C4649 C 0.7943 0.86751 0.48294 0.0
C4650 C 0.78534 0.84052 0.46002 0.0
C4651 C 0.79323 0.84957 0.44564 0.0
C4652 C 0.80137 0.86786 0.45022 0.0
C4653 C 0.80167 0.87677 0.46853 0.0
C4654 C 0.79263 0.84033 0.42576 0.0
C4655 C 0.78802 0.84943 0.41022 0.0
C4656 C 0.79633 0.82272 0.42188 0.0
C4657 C 0.80155 0.81214 0.43724 0.0
C4658 C 0.81651 0.81904 0.45066 0.0
C4659 C 0.82101 0.80912 0.46539 0.0
C4660 C 0.81073 0.79223 0.46674 0.0
C4661 C 0.79596 0.78519 0.45331 0.0
C4662 C 0.79139 0.79506 0.43857 0.0
C4663 C 0.79862 0.81796 0.33485 0.0
C4664 C 0.78925 0.80037 0.32903 0.0
C4665 C 0.80007 0.82536 0.35391 0.0
C4666 C 0.7914 0.81568 0.36742 0.0
C4667 C 0.7824 0.79785 0.36157 0.0
C4668 C 0.78149 0.79023 0.34261 0.0
C4669 C 0.79125 0.82427 0.38738 0.0
C4670 C 0.7955 0.81497 0.40287 0.0
C4671 C 0.78715 0.84167 0.39126 0.0
C4672 C 0.78163 0.85203 0.37581 0.0
C4673 C 0.76729 0.84442 0.36184 0.0
C4674 C 0.76302 0.85385 0.34664 0.0
C4675 C 0.77261 0.87108 0.3455 0.0
C4676 C 0.78659 0.87891 0.35954 0.0
C4677 C 0.79113 0.86945 0.37464 0.0
H4678 H 0.76923 0.87833 0.33369 0.0
H4679 H 0.81421 0.78459 0.47817 0.0
H4680 H 0.46518 0.5035 0.80581 0.0
H4681 H 0.48071 0.50425 0.83789 0.0
H4682 H 0.44521 0.53664 0.86086 0.0
H4683 H 0.42925 0.53542 0.82893 0.0
H4684 H 0.4848 0.54925 0.87292 0.0
H4685 H 0.43716 0.49742 0.86891 0.0
H4686 H 0.4196 0.46829 0.8537 0.0
H4687 H 0.46666 0.44475 0.85837 0.0
H4688 H 0.48457 0.47388 0.8733 0.0
H4689 H 0.49794 0.54412 0.97258 0.0
H4690 H 0.48554 0.5432 0.93948 0.0
H4691 H 0.51757 0.5045 0.92247 0.0
H4692 H 0.53088 0.50615 0.95549 0.0
H4693 H 0.48139 0.49452 0.90639 0.0
H4694 H 0.52893 0.54383 0.91168 0.0
H4695 H 0.54883 0.57263 0.92396 0.0
H4696 H 0.50529 0.60065 0.9145 0.0
H4697 H 0.48496 0.57192 0.90273 0.0
C4698 C 0.46062 0.51068 0.81772 0.0
C4699 C 0.44591 0.51929 0.81485 0.0
C4700 C 0.46953 0.51113 0.83604 0.0
C4701 C 0.46418 0.52055 0.85181 0.0
C4702 C 0.44961 0.52932 0.84893 0.0
C4703 C 0.44042 0.5285 0.83069 0.0
C4704 C 0.47361 0.52104 0.87132 0.0
C4705 C 0.48385 0.53737 0.88038 0.0
C4706 C 0.47299 0.50539 0.88075 0.0
C4707 C 0.46223 0.48785 0.87202 0.0
C4708 C 0.44379 0.48608 0.86653 0.0
C4709 C 0.43377 0.46956 0.85798 0.0
C4710 C 0.44202 0.45468 0.85502 0.0
C4711 C 0.4603 0.45629 0.86064 0.0
C4712 C 0.47038 0.47279 0.86915 0.0
C4713 C 0.50244 0.53538 0.96187 0.0
C4714 C 0.5151 0.52475 0.96698 0.0
C4715 C 0.49531 0.53492 0.94287 0.0
C4716 C 0.50046 0.52367 0.92842 0.0
C4717 C 0.51321 0.51315 0.93337 0.0
C4718 C 0.5207 0.51396 0.95236 0.0
C4719 C 0.49234 0.52287 0.90826 0.0
C4720 C 0.48236 0.50647 0.89903 0.0
C4721 C 0.49344 0.53842 0.89855 0.0
C4722 C 0.50535 0.55566 0.90653 0.0
C4723 C 0.5235 0.55608 0.91256 0.0
C4724 C 0.53488 0.5724 0.91939 0.0
C4725 C 0.52834 0.58845 0.92005 0.0
C4726 C 0.51034 0.5882 0.91405 0.0
C4727 C 0.49887 0.57188 0.90733 0.0
H4728 H 0.53726 0.60109 0.9251 0.0
H4729 H 0.43424 0.4419 0.8484 0.0
H4730 H 0.79423 0.15141 0.10142 0.0
H4731 H 0.79831 0.16663 0.13391 0.0
H4732 H 0.746 0.18033 0.12494 0.0
H4733 H 0.74194 0.16543 0.09244 0.0
H4734 H 0.77619 0.20924 0.12863 0.0
H4735 H 0.75241 0.15693 0.15811 0.0
H4736 H 0.75075 0.12595 0.16638 0.0
H4737 H 0.80446 0.13998 0.19439 0.0
H4738 H 0.80656 0.17098 0.18594 0.0
H4739 H 0.76218 0.25945 0.21066 0.0
H4740 H 0.7618 0.23808 0.18276 0.0
H4741 H 0.81194 0.22578 0.20614 0.0
H4742 H 0.81202 0.2467 0.23449 0.0
H4743 H 0.78738 0.19629 0.19535 0.0
H4744 H 0.81057 0.24926 0.16784 0.0
H4745 H 0.81188 0.28047 0.16039 0.0
H4746 H 0.75948 0.26564 0.12931 0.0
H4747 H 0.75781 0.23433 0.13663 0.0
C4748 C 0.78334 0.15703 0.10671 0.0
C4749 C 0.76799 0.15783 0.09457 0.0
C4750 C 0.78566 0.1656 0.1252 0.0
C4751 C 0.7725 0.17463 0.13143 0.0
C4752 C 0.75624 0.17339 0.12009 0.0
C4753 C 0.75401 0.16505 0.10162 0.0
C4754 C 0.77716 0.18864 0.14744 0.0
C4755 C 0.77851 0.20647 0.14328 0.0
C4756 C 0.78096 0.18481 0.1662 0.0
C4757 C 0.77974 0.16617 0.17112 0.0
C4758 C 0.76396 0.15334 0.1658 0.0
C4759 C 0.76291 0.13579 0.17057 0.0
C4760 C 0.77752 0.13097 0.18083 0.0
C4761 C 0.79318 0.14371 0.18638 0.0
C4762 C 0.7943 0.16126 0.1816 0.0
C4763 C 0.77328 0.25245 0.20958 0.0
C4764 C 0.78714 0.25453 0.22443 0.0
C4765 C 0.77308 0.24035 0.19373 0.0
C4766 C 0.78701 0.2307 0.19248 0.0
C4767 C 0.80119 0.23327 0.20702 0.0
C4768 C 0.80122 0.24513 0.22306 0.0
C4769 C 0.78585 0.21684 0.1766 0.0
C4770 C 0.78534 0.19909 0.18069 0.0
C4771 C 0.7829 0.22072 0.15771 0.0
C4772 C 0.78407 0.23945 0.15281 0.0
C4773 C 0.79931 0.25266 0.15944 0.0
C4774 C 0.80011 0.27038 0.15526 0.0
C4775 C 0.78575 0.27506 0.14445 0.0
C4776 C 0.7706 0.262 0.13768 0.0
C4777 C 0.76975 0.24424 0.14178 0.0
H4778 H 0.78638 0.2888 0.14127 0.0
H4779 H 0.77667 0.11737 0.18453 0.0
H4780 H 0.14124 0.51048 0.292 0.0
H4781 H 0.12512 0.51364 0.31979 0.0
H4782 H 0.16014 0.56468 0.33932 0.0
H4783 H 0.17678 0.56103 0.31178 0.0
H4784 H 0.15468 0.54435 0.36738 0.0
H4785 H 0.11809 0.5637 0.31753 0.0
H4786 H 0.10131 0.56118 0.28565 0.0
H4787 H 0.06728 0.51294 0.29692 0.0
H4788 H 0.08393 0.51512 0.32885 0.0
H4789 H 0.10098 0.58614 0.42497 0.0
H4790 H 0.11988 0.57568 0.40214 0.0
H4791 H 0.08353 0.52443 0.39056 0.0
H4792 H 0.06459 0.53499 0.41359 0.0
H4793 H 0.08912 0.54185 0.35888 0.0
H4794 H 0.12953 0.52054 0.40653 0.0
H4795 H 0.14933 0.52188 0.43637 0.0
H4796 H 0.1758 0.57506 0.4288 0.0
H4797 H 0.1569 0.57351 0.39824 0.0
C4798 C 0.14561 0.52213 0.30253 0.0
C4799 C 0.16019 0.53539 0.30034 0.0
C4800 C 0.13635 0.52405 0.31813 0.0
C4801 C 0.14134 0.53952 0.33124 0.0
C4802 C 0.15621 0.55267 0.32921 0.0
C4803 C 0.16572 0.55055 0.31374 0.0
C4804 C 0.13116 0.54178 0.34728 0.0
C4805 C 0.14037 0.54402 0.36555 0.0
C4806 C 0.11247 0.54079 0.34467 0.0
C4807 C 0.10233 0.53951 0.32553 0.0
C4808 C 0.10708 0.55251 0.31317 0.0
C4809 C 0.09758 0.55115 0.29511 0.0
C4810 C 0.08326 0.53689 0.28925 0.0
C4811 C 0.07837 0.52398 0.30148 0.0
C4812 C 0.08781 0.5253 0.31958 0.0
C4813 C 0.09722 0.57261 0.41762 0.0
C4814 C 0.08138 0.56141 0.42045 0.0
C4815 C 0.10808 0.56655 0.40491 0.0
C4816 C 0.10311 0.54925 0.39495 0.0
C4817 C 0.08755 0.53776 0.39834 0.0
C4818 C 0.07676 0.54379 0.41124 0.0
C4819 C 0.1127 0.54451 0.37902 0.0
C4820 C 0.10338 0.54193 0.36069 0.0
C4821 C 0.13132 0.54538 0.38148 0.0
C4822 C 0.14164 0.54704 0.4004 0.0
C4823 C 0.13944 0.53258 0.41138 0.0
C4824 C 0.1506 0.53332 0.42832 0.0
C4825 C 0.16354 0.5487 0.43472 0.0
C4826 C 0.16565 0.56323 0.42394 0.0
C4827 C 0.15487 0.56234 0.40671 0.0
H4828 H 0.17206 0.54927 0.44792 0.0
H4829 H 0.07593 0.53585 0.27526 0.0
H4830 H 0.79903 0.88797 0.59869 0.0
H4831 H 0.79447 0.87715 0.62983 0.0
H4832 H 0.78166 0.82239 0.60287 0.0
H4833 H 0.78642 0.83301 0.57215 0.0
H4834 H 0.75901 0.82757 0.62864 0.0
H4835 H 0.82191 0.83882 0.62577 0.0
H4836 H 0.85182 0.85605 0.62298 0.0
H4837 H 0.84874 0.89152 0.67286 0.0
H4838 H 0.81862 0.8747 0.67571 0.0
H4839 H 0.79175 0.7796 0.70733 0.0
H4840 H 0.79168 0.79442 0.67824 0.0
H4841 H 0.77035 0.83746 0.70606 0.0
H4842 H 0.76934 0.82218 0.73497 0.0
H4843 H 0.80867 0.83997 0.68122 0.0
H4844 H 0.74348 0.82679 0.6823 0.0
H4845 H 0.71512 0.80629 0.68447 0.0
H4846 H 0.72427 0.77149 0.63663 0.0
H4847 H 0.75298 0.79156 0.63457 0.0
C4848 C 0.79504 0.87366 0.59943 0.0
C4849 C 0.79319 0.86136 0.58291 0.0
C4850 C 0.79254 0.86746 0.61724 0.0
C4851 C 0.78783 0.84888 0.61881 0.0
C4852 C 0.7853 0.83675 0.60217 0.0
C4853 C 0.78809 0.84287 0.58456 0.0
C4854 C 0.78592 0.84177 0.63765 0.0
C4855 C 0.76988 0.83043 0.64014 0.0
C4856 C 0.80004 0.84527 0.65277 0.0
C4857 C 0.81787 0.85572 0.65073 0.0
C4858 C 0.82748 0.85047 0.63596 0.0
C4859 C 0.8445 0.86012 0.63441 0.0
C4860 C 0.85214 0.87493 0.64768 0.0
C4861 C 0.84277 0.8801 0.66253 0.0
C4862 C 0.82572 0.87054 0.66411 0.0
C4863 C 0.7867 0.79205 0.70723 0.0
C4864 C 0.78029 0.79951 0.72354 0.0
C4865 C 0.78674 0.80054 0.69055 0.0
C4866 C 0.78077 0.81692 0.68983 0.0
C4867 C 0.77472 0.82465 0.70614 0.0
C4868 C 0.77421 0.81592 0.7227 0.0
C4869 C 0.78169 0.82623 0.67226 0.0
C4870 C 0.79766 0.83763 0.66989 0.0
C4871 C 0.76761 0.82264 0.65717 0.0
C4872 C 0.75055 0.81045 0.65858 0.0
C4873 C 0.73963 0.81457 0.67252 0.0
C4874 C 0.72345 0.80307 0.67367 0.0
C4875 C 0.71795 0.78753 0.66078 0.0
C4876 C 0.7286 0.78348 0.64668 0.0
C4877 C 0.74484 0.79489 0.64555 0.0
H4878 H 0.70539 0.77868 0.66165 0.0
H4879 H 0.86535 0.88234 0.64649 0.0
H4880 H 0.76963 0.47418 0.50892 0.0
H4881 H 0.74373 0.48858 0.51203 0.0
H4882 H 0.70928 0.43628 0.50637 0.0
H4883 H 0.73486 0.42183 0.50296 0.0
H4884 H 0.69605 0.459 0.48438 0.0
H4885 H 0.72049 0.45795 0.54874 0.0
H4886 H 0.74453 0.46323 0.5755 0.0
H4887 H 0.75238 0.52016 0.57187 0.0
H4888 H 0.7285 0.51518 0.54488 0.0
H4889 H 0.62464 0.47316 0.53739 0.0
H4890 H 0.64908 0.46422 0.52126 0.0
H4891 H 0.67289 0.52016 0.52108 0.0
H4892 H 0.64854 0.52917 0.5372 0.0
H4893 H 0.6926 0.49903 0.54276 0.0
H4894 H 0.66272 0.4974 0.47955 0.0
H4895 H 0.63814 0.48895 0.45334 0.0
H4896 H 0.63867 0.43293 0.4571 0.0
H4897 H 0.66316 0.44105 0.48343 0.0
C4898 C 0.75653 0.46583 0.50849 0.0
C4899 C 0.75409 0.44701 0.50576 0.0
C4900 C 0.74186 0.47401 0.51016 0.0
C4901 C 0.72484 0.46335 0.50935 0.0
C4902 C 0.72242 0.44457 0.50682 0.0
C4903 C 0.73701 0.43641 0.50503 0.0
C4904 C 0.70945 0.47171 0.51165 0.0
C4905 C 0.69518 0.46775 0.49712 0.0
C4906 C 0.7087 0.48311 0.52825 0.0
C4907 C 0.72285 0.48619 0.54468 0.0
C4908 C 0.72742 0.47159 0.55357 0.0
C4909 C 0.741 0.47452 0.56879 0.0
C4910 C 0.75001 0.49201 0.57535 0.0
C4911 C 0.7454 0.50661 0.56675 0.0
C4912 C 0.73183 0.50375 0.55151 0.0
C4913 C 0.63494 0.48346 0.53353 0.0
C4914 C 0.63508 0.50174 0.53871 0.0
C4915 C 0.64864 0.4784 0.52411 0.0
C4916 C 0.66251 0.49163 0.51998 0.0
C4917 C 0.66205 0.50991 0.52403 0.0
C4918 C 0.64829 0.51497 0.5333 0.0
C4919 C 0.67907 0.48635 0.51545 0.0
C4920 C 0.6936 0.4907 0.52975 0.0
C4921 C 0.67977 0.47481 0.49893 0.0
C4922 C 0.66467 0.46985 0.48353 0.0
C4923 C 0.65745 0.48328 0.47492 0.0
C4924 C 0.64359 0.47855 0.46 0.0
C4925 C 0.63683 0.46041 0.45358 0.0
C4926 C 0.64392 0.44697 0.46208 0.0
C4927 C 0.65781 0.45163 0.47698 0.0
H4928 H 0.62613 0.45678 0.44199 0.0
H4929 H 0.76054 0.49426 0.58712 0.0
H4930 H 0.226 0.14062 0.53103 0.0
H4931 H 0.19854 0.11989 0.53466 0.0
H4932 H 0.17689 0.1265 0.47789 0.0
H4933 H 0.20371 0.1486 0.47516 0.0
H4934 H 0.15229 0.12669 0.49686 0.0
H4935 H 0.19392 0.08514 0.49562 0.0
H4936 H 0.22084 0.07354 0.50658 0.0
H4937 H 0.20401 0.07171 0.56237 0.0
H4938 H 0.17711 0.08346 0.55177 0.0
H4939 H 0.07699 0.05664 0.48753 0.0
H4940 H 0.10588 0.07507 0.48446 0.0
H4941 H 0.12431 0.06906 0.54244 0.0
H4942 H 0.09569 0.04939 0.54495 0.0
H4943 H 0.15039 0.06879 0.52407 0.0
H4944 H 0.10838 0.10917 0.52514 0.0
H4945 H 0.08124 0.12048 0.5144 0.0
H4946 H 0.09871 0.12467 0.45913 0.0
H4947 H 0.1258 0.1131 0.46944 0.0
C4948 C 0.2154 0.13747 0.51928 0.0
C4949 C 0.21699 0.14618 0.50278 0.0
C4950 C 0.19968 0.12542 0.52127 0.0
C4951 C 0.18547 0.12109 0.50642 0.0
C4952 C 0.18743 0.12949 0.48969 0.0
C4953 C 0.20284 0.14208 0.48803 0.0
C4954 C 0.16823 0.10872 0.50851 0.0
C4955 C 0.152 0.11388 0.5025 0.0
C4956 C 0.16743 0.09224 0.51662 0.0
C4957 C 0.18365 0.08533 0.52295 0.0
C4958 C 0.19605 0.08237 0.51024 0.0
C4959 C 0.21128 0.07575 0.51639 0.0
C4960 C 0.21416 0.07194 0.53517 0.0
C4961 C 0.20179 0.07469 0.54784 0.0
C4962 C 0.18655 0.08132 0.54177 0.0
C4963 C 0.08732 0.05908 0.49954 0.0
C4964 C 0.08413 0.05155 0.51646 0.0
C4965 C 0.1038 0.06987 0.49788 0.0
C4966 C 0.11729 0.07411 0.51341 0.0
C4967 C 0.11421 0.06618 0.53023 0.0
C4968 C 0.09787 0.05487 0.53167 0.0
C4969 C 0.13457 0.08662 0.51205 0.0
C4970 C 0.15074 0.08156 0.51832 0.0
C4971 C 0.13533 0.1032 0.50419 0.0
C4972 C 0.11903 0.11015 0.49803 0.0
C4973 C 0.10637 0.1124 0.51067 0.0
C4974 C 0.091 0.11886 0.50465 0.0
C4975 C 0.08824 0.12328 0.48609 0.0
C4976 C 0.10085 0.12124 0.4735 0.0
C4977 C 0.11621 0.11473 0.47942 0.0
H4978 H 0.07636 0.12831 0.48149 0.0
H4979 H 0.22596 0.06681 0.5399 0.0
H4980 H 0.14796 0.98148 0.80096 0.0
H4981 H 0.16389 0.95605 0.79897 0.0
H4982 H 0.19809 0.98278 0.76147 0.0
H4983 H 0.18263 0.00837 0.76385 0.0
H4984 H 0.18159 0.9454 0.74889 0.0
H4985 H 0.21511 0.98381 0.80317 0.0
H4986 H 0.21945 1.00114 0.83493 0.0
H4987 H 0.20053 0.95294 0.85966 0.0
H4988 H 0.19575 0.93535 0.82794 0.0
H4989 H 0.24771 0.89549 0.73899 0.0
H4990 H 0.23469 0.92166 0.74873 0.0
H4991 H 0.20952 0.89313 0.79158 0.0
H4992 H 0.22301 0.86702 0.7821 0.0
H4993 H 0.2197 0.92994 0.80315 0.0
H4994 H 0.18667 0.89126 0.74983 0.0
H4995 H 0.18274 0.87327 0.71844 0.0
H4996 H 0.19962 0.92116 0.69232 0.0
H4997 H 0.20401 0.9394 0.72364 0.0
C4998 C 0.15881 0.98184 0.79221 0.0
C4999 C 0.16403 0.99681 0.78245 0.0
C5000 C 0.16796 0.96741 0.79121 0.0
C5001 C 0.18219 0.96764 0.78015 0.0
C5002 C 0.18717 0.98242 0.77013 0.0
C5003 C 0.17833 0.99699 0.77148 0.0
C5004 C 0.19168 0.95231 0.77849 0.0
C5005 C 0.19004 0.94211 0.76071 0.0
C5006 C 0.20223 0.94772 0.7941 0.0
C5007 C 0.2048 0.95832 0.81313 0.0
C5008 C 0.21162 0.97694 0.81533 0.0
C5009 C 0.21422 0.98681 0.83334 0.0
C5010 C 0.21019 0.97816 0.84929 0.0
C5011 C 0.20358 0.95963 0.84727 0.0
C5012 C 0.20092 0.94971 0.82928 0.0
C5013 C 0.23986 0.89507 0.75088 0.0
C5014 C 0.23626 0.87936 0.75982 0.0
C5015 C 0.23236 0.90994 0.75637 0.0
C5016 C 0.22083 0.90917 0.7706 0.0
C5017 C 0.21833 0.89397 0.78054 0.0
C5018 C 0.22602 0.87911 0.77516 0.0
C5019 C 0.20993 0.92332 0.77342 0.0
C5020 C 0.21116 0.93317 0.79138 0.0
C5021 C 0.1988 0.92753 0.75803 0.0
C5022 C 0.19581 0.91667 0.7391 0.0
C5023 C 0.18965 0.89794 0.73741 0.0
C5024 C 0.18734 0.88769 0.71963 0.0
C5025 C 0.19096 0.89606 0.7034 0.0
C5026 C 0.19684 0.9147 0.70491 0.0
C5027 C 0.19924 0.925 0.72267 0.0
H5028 H 0.18917 0.88811 0.68965 0.0
H5029 H 0.21225 0.98582 0.86323 0.0
H5030 H 0.36506 0.91854 0.99601 0.0
H5031 H 0.39324 0.93916 0.00686 0.0
H5032 H 0.36529 0.98365 0.01273 0.0
H5033 H 0.33709 0.96335 0.00166 0.0
H5034 H 0.3941 0.98912 0.9922 0.0
H5035 H 0.38145 0.97032 0.05312 0.0
H5036 H 0.37327 0.94856 0.0759 0.0
H5037 H 0.41806 0.92379 0.06478 0.0
H5038 H 0.42644 0.94536 0.0419 0.0
H5039 H 0.47794 0.04378 0.02463 0.0
H5040 H 0.44656 0.03036 0.02536 0.0
H5041 H 0.46047 0.97754 0.0234 0.0
H5042 H 0.49169 0.99088 0.02254 0.0
H5043 H 0.43623 0.98089 0.04686 0.0
H5044 H 0.44154 0.98973 0.97953 0.0
H5045 H 0.44695 1.00575 0.95148 0.0
H5046 H 0.41712 0.04521 0.97123 0.0
H5047 H 0.41076 0.02886 0.99896 0.0
C5048 C 0.36492 0.93272 0.99949 0.0
C5049 C 0.34893 0.93934 0.99806 0.0
C5050 C 0.38093 0.94437 0.00594 0.0
C5051 C 0.38101 0.96266 0.01102 0.0
C5052 C 0.36522 0.96943 0.00914 0.0
C5053 C 0.34922 0.95783 0.0027 0.0
C5054 C 0.39792 0.97496 0.01668 0.0
C5055 C 0.40318 0.98775 0.00447 0.0
C5056 C 0.4097 0.97257 0.03232 0.0
C5057 C 0.4045 0.95938 0.04577 0.0
C5058 C 0.38946 0.96014 0.05545 0.0
C5059 C 0.38482 0.94787 0.06841 0.0
C5060 C 0.39511 0.93477 0.07175 0.0
C5061 C 0.41009 0.93394 0.06218 0.0
C5062 C 0.41482 0.94621 0.04926 0.0
C5063 C 0.47426 0.02937 0.025 0.0
C5064 C 0.48702 0.01828 0.02393 0.0
C5065 C 0.45644 0.02177 0.02518 0.0
C5066 C 0.45139 1.00306 0.02417 0.0
C5067 C 0.4643 0.99207 0.02428 0.0
C5068 C 0.48211 0.99967 0.02412 0.0
C5069 C 0.43259 0.99469 0.02207 0.0
C5070 C 0.42695 0.98269 0.03497 0.0
C5071 C 0.42058 0.99742 0.00674 0.0
C5072 C 0.42608 0.00838 0.99149 0.0
C5073 C 0.43645 1.00203 0.97806 0.0
C5074 C 0.43957 0.01109 0.96216 0.0
C5075 C 0.43271 0.0267 0.95975 0.0
C5076 C 0.42257 0.03321 0.97319 0.0
C5077 C 0.4191 0.024 0.98893 0.0
H5078 H 0.43503 0.03362 0.94735 0.0
H5079 H 0.3915 0.92529 0.0818 0.0
H5080 H 0.88338 0.56805 0.7666 0.0
H5081 H 0.87059 0.59539 0.76609 0.0
H5082 H 0.84203 0.58091 0.81363 0.0
H5083 H 0.85373 0.55291 0.81301 0.0
H5084 H 0.82171 0.59204 0.78872 0.0
H5085 H 0.88139 0.61499 0.8189 0.0
H5086 H 0.91415 0.6177 0.82135 0.0
H5087 H 0.91503 0.64075 0.76852 0.0
H5088 H 0.88229 0.63798 0.76564 0.0
H5089 H 0.79091 0.67266 0.77667 0.0
H5090 H 0.8073 0.65383 0.79512 0.0
H5091 H 0.8419 0.6503 0.75095 0.0
H5092 H 0.82594 0.6694 0.73283 0.0
H5093 H 0.85987 0.6514 0.78512 0.0
H5094 H 0.80266 0.62094 0.75023 0.0
H5095 H 0.76988 0.61366 0.74269 0.0
H5096 H 0.76455 0.60133 0.79981 0.0
H5097 H 0.79731 0.60892 0.80776 0.0
C5098 C 0.87408 0.5707 0.77659 0.0
C5099 C 0.86911 0.55864 0.78959 0.0
C5100 C 0.8671 0.58635 0.7766 0.0
C5101 C 0.8559 0.59036 0.79029 0.0
C5102 C 0.85081 0.57806 0.80313 0.0
C5103 C 0.85729 0.56212 0.80266 0.0
C5104 C 0.84863 0.60691 0.7904 0.0
C5105 C 0.83006 0.60516 0.78856 0.0
C5106 C 0.85962 0.62385 0.78992 0.0
C5107 C 0.8794 0.62634 0.79211 0.0
C5108 C 0.88859 0.62068 0.80784 0.0
C5109 C 0.90715 0.62219 0.80928 0.0
C5110 C 0.91667 0.62941 0.79512 0.0
C5111 C 0.90766 0.63521 0.77952 0.0
C5112 C 0.88911 0.63373 0.778 0.0
C5113 C 0.80228 0.66815 0.77119 0.0
C5114 C 0.80701 0.67196 0.7532 0.0
C5115 C 0.81159 0.65749 0.78171 0.0
C5116 C 0.82556 0.65059 0.7742 0.0
C5117 C 0.8311 0.65554 0.75691 0.0
C5118 C 0.82186 0.66618 0.74646 0.0
C5119 C 0.83297 0.6363 0.78265 0.0
C5120 C 0.85158 0.63846 0.78621 0.0
C5121 C 0.82203 0.61958 0.78429 0.0
C5122 C 0.80235 0.61594 0.77972 0.0
C5123 C 0.79447 0.61701 0.76126 0.0
C5124 C 0.7759 0.61275 0.7569 0.0
C5125 C 0.76512 0.60716 0.7708 0.0
C5126 C 0.77289 0.6058 0.7891 0.0
C5127 C 0.79144 0.61014 0.79356 0.0
H5128 H 0.75076 0.60377 0.76737 0.0
H5129 H 0.93103 0.6305 0.79623 0.0
H5130 H 0.83399 0.6711 0.00971 0.0
H5131 H 0.85979 0.65607 0.01191 0.0
H5132 H 0.82541 0.60676 0.02075 0.0
H5133 H 0.79975 0.62178 0.01905 0.0
H5134 H 0.85394 0.61254 0.04504 0.0
H5135 H 0.84305 0.61464 0.97714 0.0
H5136 H 0.83992 0.62883 0.9475 0.0
H5137 H 0.89321 0.65955 0.96106 0.0
H5138 H 0.89656 0.64573 0.9909 0.0
H5139 H 0.90825 0.54952 0.034 0.0
H5140 H 0.88479 0.56616 0.02473 0.0
H5141 H 0.92478 0.61372 0.02353 0.0
H5142 H 0.94833 0.59692 0.03272 0.0
H5143 H 0.89541 0.61082 0.99572 0.0
H5144 H 0.90682 0.60894 0.0627 0.0
H5145 H 0.91101 0.59468 0.09211 0.0
H5146 H 0.85743 0.56432 0.08061 0.0
H5147 H 0.85302 0.57818 0.05093 0.0
C5148 C 0.83196 0.65707 0.0122 0.0
C5149 C 0.81482 0.64766 0.01431 0.0
C5150 C 0.8467 0.64844 0.01327 0.0
C5151 C 0.84455 0.63019 0.01625 0.0
C5152 C 0.82744 0.62084 0.01842 0.0
C5153 C 0.81276 0.62946 0.01746 0.0
C5154 C 0.86009 0.62087 0.01793 0.0
C5155 C 0.86282 0.612 0.03409 0.0
C5156 C 0.87218 0.62069 0.00404 0.0
C5157 C 0.86996 0.62933 0.98636 0.0
C5158 C 0.85402 0.62458 0.9739 0.0
C5159 C 0.85223 0.63252 0.95704 0.0
C5160 C 0.86633 0.64513 0.95243 0.0
C5161 C 0.88227 0.64982 0.96467 0.0
C5162 C 0.88412 0.64194 0.98155 0.0
C5163 C 0.91202 0.56328 0.03088 0.0
C5164 C 0.93 0.57192 0.03377 0.0
C5165 C 0.89865 0.57284 0.02583 0.0
C5166 C 0.90305 0.59126 0.02381 0.0
C5167 C 0.92112 0.59952 0.02506 0.0
C5168 C 0.93455 0.58992 0.03014 0.0
C5169 C 0.88878 0.60214 0.02247 0.0
C5170 C 0.88643 0.6114 0.00657 0.0
C5171 C 0.87707 0.60281 0.03664 0.0
C5172 C 0.87966 0.59446 0.05449 0.0
C5173 C 0.89598 0.59911 0.06635 0.0
C5174 C 0.89839 0.59111 0.08309 0.0
C5175 C 0.88451 0.57857 0.08821 0.0
C5176 C 0.86818 0.57402 0.07661 0.0
C5177 C 0.86572 0.58194 0.05983 0.0
H5178 H 0.88639 0.5724 0.10118 0.0
H5179 H 0.86494 0.65122 0.93935 0.0
H5180 H 0.15164 0.11363 0.81293 0.0
H5181 H 0.17341 0.14097 0.81134 0.0
H5182 H 0.20199 0.11094 0.77444 0.0
H5183 H 0.18073 0.08328 0.77692 0.0
H5184 H 0.22524 0.13458 0.79598 0.0
H5185 H 0.1717 0.13906 0.75762 0.0
H5186 H 0.13936 0.1383 0.75053 0.0
H5187 H 0.14236 0.1817 0.79486 0.0
H5188 H 0.17467 0.18255 0.80234 0.0
H5189 H 0.27196 0.21481 0.76414 0.0
H5190 H 0.25294 0.18574 0.76599 0.0
H5191 H 0.22448 0.21093 0.80712 0.0
H5192 H 0.24332 0.24011 0.80515 0.0
H5193 H 0.20166 0.1891 0.78121 0.0
H5194 H 0.25594 0.18351 0.8195 0.0
H5195 H 0.28838 0.1842 0.82499 0.0
H5196 H 0.28407 0.14295 0.77811 0.0
H5197 H 0.2516 0.14209 0.77231 0.0
C5198 C 0.16263 0.11281 0.80459 0.0
C5199 C 0.16432 0.09627 0.79494 0.0
C5200 C 0.17504 0.12852 0.80354 0.0
C5201 C 0.18915 0.12829 0.79227 0.0
C5202 C 0.19122 0.11163 0.78313 0.0
C5203 C 0.17902 0.09579 0.78455 0.0
C5204 C 0.20142 0.14543 0.78978 0.0
C5205 C 0.22002 0.1464 0.79251 0.0
C5206 C 0.19485 0.16106 0.78532 0.0
C5207 C 0.17553 0.16078 0.78061 0.0
C5208 C 0.16542 0.14839 0.76589 0.0
C5209 C 0.14711 0.14794 0.7618 0.0
C5210 C 0.1388 0.15992 0.77226 0.0
C5211 C 0.1488 0.17242 0.78678 0.0
C5212 C 0.16711 0.17291 0.79093 0.0
C5213 C 0.26191 0.21414 0.7739 0.0
C5214 C 0.25941 0.22981 0.78477 0.0
C5215 C 0.25097 0.19745 0.77489 0.0
C5216 C 0.23737 0.19599 0.78691 0.0
C5217 C 0.23489 0.21163 0.79778 0.0
C5218 C 0.24576 0.22832 0.79672 0.0
C5219 C 0.22539 0.17833 0.78788 0.0
C5220 C 0.20684 0.17726 0.7847 0.0
C5221 C 0.23203 0.1626 0.79167 0.0
C5222 C 0.25142 0.16282 0.79542 0.0
C5223 C 0.26194 0.17463 0.81035 0.0
C5224 C 0.28032 0.17505 0.81351 0.0
C5225 C 0.2883 0.16367 0.80186 0.0
C5226 C 0.27788 0.15177 0.78711 0.0
C5227 C 0.25949 0.15127 0.78391 0.0
H5228 H 0.30254 0.16406 0.8043 0.0
H5229 H 0.12462 0.15954 0.7691 0.0
H5230 H 0.36496 0.97112 0.27356 0.0
H5231 H 0.346 0.94176 0.26419 0.0
H5232 H 0.35391 0.92894 0.322 0.0
H5233 H 0.37409 0.95806 0.33111 0.0
H5234 H 0.36496 0.90655 0.29813 0.0
H5235 H 0.31224 0.93427 0.29764 0.0
H5236 H 0.29324 0.95544 0.28733 0.0
H5237 H 0.29067 0.93268 0.22924 0.0
H5238 H 0.3099 0.91158 0.23916 0.0
H5239 H 0.31056 0.82959 0.30823 0.0
H5240 H 0.32562 0.8598 0.30682 0.0
H5241 H 0.30724 0.85531 0.24677 0.0
H5242 H 0.28866 0.82588 0.24949 0.0
H5243 H 0.30453 0.88578 0.2628 0.0
H5244 H 0.3539 0.8543 0.2661 0.0
H5245 H 0.36995 0.83181 0.27898 0.0
H5246 H 0.37725 0.86149 0.33459 0.0
H5247 H 0.36108 0.88398 0.32215 0.0
C5248 C 0.36229 0.96213 0.28433 0.0
C5249 C 0.37103 0.96639 0.30293 0.0
C5250 C 0.35132 0.94552 0.279 0.0
C5251 C 0.34859 0.93334 0.29243 0.0
C5252 C 0.35604 0.9383 0.31149 0.0
C5253 C 0.36754 0.95472 0.31667 0.0
C5254 C 0.34101 0.91448 0.28603 0.0
C5255 C 0.35166 0.90197 0.29056 0.0
C5256 C 0.32424 0.90879 0.27498 0.0
C5257 C 0.31269 0.92151 0.26912 0.0
C5258 C 0.30777 0.93391 0.28265 0.0
C5259 C 0.29693 0.94587 0.27688 0.0
C5260 C 0.2908 0.94545 0.25764 0.0
C5261 C 0.29546 0.93302 0.24413 0.0
C5262 C 0.30632 0.92107 0.24982 0.0
C5263 C 0.30997 0.83487 0.29464 0.0
C5264 C 0.2994 0.82518 0.27862 0.0
C5265 C 0.31886 0.85206 0.29375 0.0
C5266 C 0.3186 0.85931 0.27638 0.0
C5267 C 0.30814 0.84956 0.26012 0.0
C5268 C 0.29805 0.83264 0.26144 0.0
C5269 C 0.32795 0.87781 0.27627 0.0
C5270 C 0.31795 0.89036 0.27006 0.0
C5271 C 0.34534 0.88365 0.28598 0.0
C5272 C 0.35644 0.87094 0.29309 0.0
C5273 C 0.35909 0.85611 0.28102 0.0
C5274 C 0.36813 0.84332 0.28829 0.0
C5275 C 0.37467 0.84525 0.30757 0.0
C5276 C 0.37228 0.86006 0.31963 0.0
C5277 C 0.36326 0.87288 0.31246 0.0
H5278 H 0.38155 0.83526 0.31318 0.0
H5279 H 0.2824 0.95471 0.2532 0.0
H5280 H 0.5392 0.32708 0.5706 0.0
H5281 H 0.53465 0.35528 0.55868 0.0
H5282 H 0.57403 0.38497 0.60339 0.0
H5283 H 0.57687 0.35681 0.6164 0.0
H5284 H 0.55504 0.40552 0.6003 0.0
H5285 H 0.57456 0.37477 0.54492 0.0
H5286 H 0.57303 0.35034 0.51893 0.0
H5287 H 0.51977 0.35599 0.49888 0.0
H5288 H 0.52094 0.38034 0.52484 0.0
H5289 H 0.56619 0.48984 0.56158 0.0
H5290 H 0.56953 0.46052 0.57132 0.0
H5291 H 0.52326 0.43508 0.53248 0.0
H5292 H 0.52073 0.46428 0.52178 0.0
H5293 H 0.54414 0.41253 0.5319 0.0
H5294 H 0.52533 0.44382 0.586 0.0
H5295 H 0.52709 0.46925 0.6109 0.0
H5296 H 0.5797 0.46288 0.63256 0.0
H5297 H 0.57832 0.43755 0.60764 0.0
C5298 C 0.54706 0.33961 0.5778 0.0
C5299 C 0.55867 0.33933 0.59444 0.0
C5300 C 0.54461 0.35607 0.57074 0.0
C5301 C 0.55432 0.37309 0.57942 0.0
C5302 C 0.56609 0.37259 0.59599 0.0
C5303 C 0.56795 0.35622 0.60346 0.0
C5304 C 0.55196 0.39131 0.57206 0.0
C5305 C 0.55307 0.40681 0.58524 0.0
C5306 C 0.54851 0.39387 0.55242 0.0
C5307 C 0.54778 0.3792 0.53694 0.0
C5308 C 0.5625 0.37072 0.53502 0.0
C5309 C 0.56169 0.3569 0.52029 0.0
C5310 C 0.54629 0.35158 0.5073 0.0
C5311 C 0.53167 0.3601 0.50897 0.0
C5312 C 0.53241 0.3739 0.52368 0.0
C5313 C 0.55664 0.47809 0.55501 0.0
C5314 C 0.54287 0.48001 0.541 0.0
C5315 C 0.55846 0.46105 0.56083 0.0
C5316 C 0.54637 0.445 0.55328 0.0
C5317 C 0.53283 0.44686 0.53896 0.0
C5318 C 0.5312 0.46388 0.53292 0.0
C5319 C 0.54788 0.42654 0.56015 0.0
C5320 C 0.54639 0.41108 0.54692 0.0
C5321 C 0.55108 0.42398 0.57969 0.0
C5322 C 0.55176 0.4389 0.5949 0.0
C5323 C 0.53728 0.44789 0.59605 0.0
C5324 C 0.53822 0.46228 0.61016 0.0
C5325 C 0.5535 0.46769 0.62328 0.0
C5326 C 0.56787 0.45868 0.62238 0.0
C5327 C 0.56701 0.44429 0.60829 0.0
H5328 H 0.55421 0.47886 0.63417 0.0
H5329 H 0.5457 0.34088 0.49591 0.0
H5330 H 0.46876 0.76312 0.38459 0.0
H5331 H 0.44237 0.76265 0.36173 0.0
H5332 H 0.41306 0.77668 0.40793 0.0
H5333 H 0.43896 0.7766 0.43063 0.0
H5334 H 0.39147 0.75339 0.3848 0.0
H5335 H 0.4327 0.80728 0.37372 0.0
H5336 H 0.46107 0.82333 0.36474 0.0
H5337 H 0.45181 0.79054 0.31075 0.0
H5338 H 0.42349 0.77419 0.31952 0.0
H5339 H 0.31465 0.77254 0.33293 0.0
H5340 H 0.34148 0.77289 0.35382 0.0
H5341 H 0.37179 0.77375 0.30569 0.0
H5342 H 0.34566 0.77782 0.28573 0.0
H5343 H 0.39395 0.78778 0.32909 0.0
H5344 H 0.35372 0.73295 0.33861 0.0
H5345 H 0.32496 0.71634 0.34614 0.0
H5346 H 0.33258 0.74722 0.40113 0.0
H5347 H 0.36129 0.76409 0.39386 0.0
C5348 C 0.4567 0.76608 0.38992 0.0
C5349 C 0.45627 0.7699 0.4097 0.0
C5350 C 0.4415 0.76595 0.37672 0.0
C5351 C 0.42541 0.76991 0.38278 0.0
C5352 C 0.42504 0.77355 0.40253 0.0
C5353 C 0.44007 0.77355 0.41566 0.0
C5354 C 0.40885 0.77015 0.36901 0.0
C5355 C 0.39207 0.761 0.37266 0.0
C5356 C 0.40921 0.77947 0.3526 0.0
C5357 C 0.42611 0.78943 0.34734 0.0
C5358 C 0.43678 0.80346 0.35998 0.0
C5359 C 0.45284 0.8126 0.35492 0.0
C5360 C 0.45826 0.80792 0.33721 0.0
C5361 C 0.44761 0.79413 0.32448 0.0
C5362 C 0.43156 0.78494 0.32947 0.0
C5363 C 0.32708 0.77346 0.32671 0.0
C5364 C 0.32758 0.77584 0.30728 0.0
C5365 C 0.34266 0.77286 0.33882 0.0
C5366 C 0.35928 0.77246 0.33179 0.0
C5367 C 0.35961 0.77407 0.31216 0.0
C5368 C 0.34429 0.77616 0.30037 0.0
C5369 C 0.3762 0.77086 0.34466 0.0
C5370 C 0.39314 0.77983 0.34094 0.0
C5371 C 0.37605 0.76092 0.36076 0.0
C5372 C 0.3595 0.7499 0.36559 0.0
C5373 C 0.34927 0.73612 0.35232 0.0
C5374 C 0.33295 0.72674 0.35651 0.0
C5375 C 0.32684 0.73092 0.37399 0.0
C5376 C 0.33726 0.74413 0.38753 0.0
C5377 C 0.35356 0.75357 0.3834 0.0
H5378 H 0.31406 0.72387 0.37707 0.0
H5379 H 0.47071 0.81501 0.33332 0.0
H5380 H 0.08214 0.73948 0.07919 0.0
H5381 H 0.07819 0.70713 0.07094 0.0
H5382 H 0.02439 0.7007 0.08597 0.0
H5383 H 0.02887 0.73343 0.09557 0.0
H5384 H 0.03483 0.67288 0.0945 0.0
H5385 H 0.03835 0.69807 0.03579 0.0
H5386 H 0.05072 0.71781 0.01279 0.0
H5387 H 0.09849 0.69539 0.01648 0.0
H5388 H 0.08647 0.67566 0.03966 0.0
H5389 H 0.01222 0.58279 0.04623 0.0
H5390 H 0.01464 0.61498 0.05552 0.0
H5391 H 0.07104 0.62348 0.05045 0.0
H5392 H 0.06855 0.5912 0.04129 0.0
H5393 H 0.05766 0.64985 0.03591 0.0
H5394 H 0.0524 0.6243 0.09529 0.0
H5395 H 0.03768 0.6035 0.11607 0.0
H5396 H 0.99011 0.6259 0.10823 0.0
H5397 H 1.0045 0.6467 0.08724 0.0
C5398 C 0.0694 0.73128 0.08081 0.0
C5399 C 0.0558 0.73943 0.08794 0.0
C5400 C 0.06704 0.71254 0.07579 0.0
C5401 C 0.05069 0.70095 0.07692 0.0
C5402 C 0.03716 0.70898 0.08459 0.0
C5403 C 0.0397 0.72786 0.09013 0.0
C5404 C 0.04801 0.68071 0.07035 0.0
C5405 C 0.03964 0.66803 0.0815 0.0
C5406 C 0.0543 0.67368 0.05346 0.0
C5407 C 0.06158 0.68554 0.03959 0.0
C5408 C 0.05154 0.69745 0.03179 0.0
C5409 C 0.05848 0.70862 0.01871 0.0
C5410 C 0.0754 0.70789 0.01322 0.0
C5411 C 0.0854 0.69596 0.02076 0.0
C5412 C 0.07852 0.68477 0.03385 0.0
C5413 C 0.02525 0.59138 0.04711 0.0
C5414 C 0.04027 0.58395 0.0427 0.0
C5415 C 0.02662 0.61001 0.05258 0.0
C5416 C 0.0431 0.6221 0.05405 0.0
C5417 C 0.05807 0.61477 0.04951 0.0
C5418 C 0.05667 0.5961 0.0441 0.0
C5419 C 0.04473 0.64222 0.06016 0.0
C5420 C 0.05288 0.65482 0.04889 0.0
C5421 C 0.03795 0.64914 0.07669 0.0
C5422 C 0.02947 0.63696 0.08964 0.0
C5423 C 0.03878 0.62474 0.09797 0.0
C5424 C 0.0305 0.61296 0.10977 0.0
C5425 C 0.01296 0.61336 0.11345 0.0
C5426 C 1.00369 0.6256 0.10538 0.0
C5427 C 0.01191 0.63741 0.09355 0.0
H5428 H 1.00657 0.6042 0.12256 0.0
H5429 H 0.08076 0.71655 0.0031 0.0
H5430 H 0.04585 0.24792 0.88776 0.0
H5431 H 0.07287 0.24908 0.8715 0.0
H5432 H 0.09966 0.29449 0.91119 0.0
H5433 H 0.07292 0.29293 0.92796 0.0
H5434 H 0.10096 0.29828 0.86972 0.0
H5435 H 0.11339 0.26009 0.91718 0.0
H5436 H 0.10724 0.23403 0.93528 0.0
H5437 H 0.10312 0.19799 0.884 0.0
H5438 H 0.10893 0.22389 0.86552 0.0
H5439 H 0.18925 0.30933 0.84899 0.0
H5440 H 0.16442 0.30181 0.86779 0.0
H5441 H 0.14204 0.25562 0.82711 0.0
H5442 H 0.16695 0.26335 0.808 0.0
H5443 H 0.13799 0.25079 0.86818 0.0
H5444 H 0.12546 0.28872 0.82064 0.0
H5445 H 0.13211 0.31468 0.80247 0.0
H5446 H 0.13606 0.35095 0.85355 0.0
H5447 H 0.12978 0.32515 0.8721 0.0
C5448 C 0.05756 0.25803 0.89315 0.0
C5449 C 0.05724 0.27026 0.90925 0.0
C5450 C 0.07301 0.25868 0.88383 0.0
C5451 C 0.08835 0.27188 0.89008 0.0
C5452 C 0.08803 0.28417 0.9061 0.0
C5453 C 0.07276 0.2832 0.91574 0.0
C5454 C 0.10453 0.27312 0.87963 0.0
C5455 C 0.10914 0.28798 0.86959 0.0
C5456 C 0.11501 0.25949 0.87894 0.0
C5457 C 0.11135 0.24391 0.88993 0.0
C5458 C 0.11094 0.24661 0.90972 0.0
C5459 C 0.10757 0.23187 0.92006 0.0
C5460 C 0.10473 0.21436 0.91079 0.0
C5461 C 0.10528 0.21156 0.89116 0.0
C5462 C 0.10861 0.22626 0.88074 0.0
C5463 C 0.17944 0.29715 0.84443 0.0
C5464 C 0.18023 0.2868 0.82713 0.0
C5465 C 0.16513 0.29295 0.85511 0.0
C5466 C 0.15121 0.27824 0.84883 0.0
C5467 C 0.15264 0.267 0.83232 0.0
C5468 C 0.16697 0.27132 0.82148 0.0
C5469 C 0.13448 0.27603 0.85843 0.0
C5470 C 0.12975 0.26103 0.86826 0.0
C5471 C 0.12377 0.28948 0.85887 0.0
C5472 C 0.12734 0.30502 0.84778 0.0
C5473 C 0.12791 0.30223 0.82802 0.0
C5474 C 0.13159 0.31691 0.81765 0.0
C5475 C 0.13455 0.33446 0.82686 0.0
C5476 C 0.13379 0.33735 0.84645 0.0
C5477 C 0.13017 0.32271 0.8569 0.0
H5478 H 0.13739 0.34581 0.8188 0.0
H5479 H 0.10216 0.20296 0.91883 0.0
H5480 H 0.53674 0.74448 0.86642 0.0
H5481 H 0.53597 0.71532 0.87939 0.0
H5482 H 0.55386 0.74356 0.93546 0.0
H5483 H 0.55519 0.77211 0.92264 0.0
H5484 H 0.56972 0.71759 0.9324 0.0
H5485 H 0.50836 0.72314 0.91806 0.0
H5486 H 0.48083 0.7256 0.89819 0.0
H5487 H 0.48198 0.67551 0.86515 0.0
H5488 H 0.50969 0.6729 0.88466 0.0
H5489 H 0.5396 0.65456 0.99599 0.0
H5490 H 0.54689 0.67944 0.97693 0.0
H5491 H 0.52869 0.64298 0.92562 0.0
H5492 H 0.52051 0.6184 0.94501 0.0
H5493 H 0.51462 0.67083 0.9228 0.0
H5494 H 0.57562 0.66512 0.9411 0.0
H5495 H 0.60202 0.66363 0.96332 0.0
H5496 H 0.60002 0.71567 0.99164 0.0
H5497 H 0.57349 0.71737 0.96974 0.0
C5498 C 0.54096 0.74436 0.88139 0.0
C5499 C 0.54612 0.76066 0.89346 0.0
C5500 C 0.54025 0.72769 0.88889 0.0
C5501 C 0.54462 0.72706 0.90858 0.0
C5502 C 0.55042 0.74342 0.92029 0.0
C5503 C 0.55118 0.75986 0.91288 0.0
C5504 C 0.54318 0.70974 0.91749 0.0
C5505 C 0.55758 0.70744 0.9303 0.0
C5506 C 0.52756 0.69613 0.91469 0.0
C5507 C 0.51125 0.69798 0.9026 0.0
C5508 C 0.50287 0.71277 0.90639 0.0
C5509 C 0.4872 0.71417 0.89523 0.0
C5510 C 0.4797 0.70076 0.88036 0.0
C5511 C 0.48785 0.68592 0.87662 0.0
C5512 C 0.50354 0.68449 0.88771 0.0
C5513 C 0.53796 0.65172 0.98062 0.0
C5514 C 0.53026 0.63431 0.97194 0.0
C5515 C 0.54203 0.66602 0.96965 0.0
C5516 C 0.53866 0.66325 0.94963 0.0
C5517 C 0.53161 0.64563 0.94095 0.0
C5518 C 0.52733 0.63141 0.95198 0.0
C5519 C 0.54108 0.67886 0.93793 0.0
C5520 C 0.52685 0.68084 0.92465 0.0
C5521 C 0.55672 0.69241 0.94058 0.0
C5522 C 0.57253 0.6913 0.95386 0.0
C5523 C 0.58075 0.67618 0.95216 0.0
C5524 C 0.59574 0.67531 0.96468 0.0
C5525 C 0.60268 0.68953 0.9789 0.0
C5526 C 0.59464 0.70466 0.98063 0.0
C5527 C 0.57964 0.70559 0.96816 0.0
H5528 H 0.61431 0.68884 0.98856 0.0
H5529 H 0.46754 0.70184 0.87178 0.0
H5530 H 0.07328 0.7693 0.72901 0.0
H5531 H 0.104 0.77072 0.74468 0.0
H5532 H 0.12223 0.76176 0.68974 0.0
H5533 H 0.09243 0.7599 0.67449 0.0
H5534 H 0.13724 0.74283 0.70995 0.0
H5535 H 0.13035 0.80463 0.72121 0.0
H5536 H 0.11769 0.83025 0.73422 0.0
H5537 H 0.13051 0.81772 0.79098 0.0
H5538 H 0.143 0.79184 0.77826 0.0
H5539 H 0.23241 0.77893 0.7261 0.0
H5540 H 0.20004 0.77577 0.71761 0.0
H5541 H 0.19114 0.76381 0.77425 0.0
H5542 H 0.22357 0.76618 0.7826 0.0
H5543 H 0.17098 0.79195 0.7576 0.0
H5544 H 0.17883 0.73094 0.74579 0.0
H5545 H 0.18928 0.70407 0.73231 0.0
H5546 H 0.1746 0.716 0.6758 0.0
H5547 H 0.164 0.74295 0.68889 0.0
C5548 C 0.08381 0.76752 0.7203 0.0
C5549 C 0.07991 0.76458 0.70025 0.0
C5550 C 0.10158 0.76851 0.72931 0.0
C5551 C 0.11599 0.76652 0.71857 0.0
C5552 C 0.11183 0.76335 0.69871 0.0
C5553 C 0.09442 0.76239 0.68987 0.0
C5554 C 0.1353 0.76713 0.72721 0.0
C5555 C 0.1445 0.7538 0.72022 0.0
C5556 C 0.14522 0.78093 0.74118 0.0
C5557 C 0.1373 0.79613 0.74877 0.0
C5558 C 0.13025 0.8072 0.73645 0.0
C5559 C 0.12315 0.8218 0.74377 0.0
C5560 C 0.12321 0.82556 0.76341 0.0
C5561 C 0.1304 0.81474 0.77577 0.0
C5562 C 0.13747 0.8001 0.76851 0.0
C5563 C 0.22363 0.77551 0.73679 0.0
C5564 C 0.23088 0.77279 0.75509 0.0
C5565 C 0.20498 0.77372 0.73188 0.0
C5566 C 0.19281 0.76965 0.74523 0.0
C5567 C 0.2 0.76704 0.76359 0.0
C5568 C 0.21866 0.7683 0.76834 0.0
C5569 C 0.17275 0.76797 0.73979 0.0
C5570 C 0.16356 0.78105 0.74736 0.0
C5571 C 0.16278 0.75406 0.72618 0.0
C5572 C 0.17081 0.73905 0.71832 0.0
C5573 C 0.17818 0.72805 0.7305 0.0
C5574 C 0.18403 0.71276 0.72293 0.0
C5575 C 0.1826 0.70836 0.70324 0.0
C5576 C 0.17565 0.71942 0.69105 0.0
C5577 C 0.16971 0.73469 0.69852 0.0
H5578 H 0.18667 0.69626 0.69741 0.0
H5579 H 0.11775 0.8369 0.76905 0.0
H5580 H 0.03466 0.3659 0.36783 0.0
H5581 H 0.03098 0.3926 0.38823 0.0
H5582 H 0.06097 0.37539 0.43545 0.0
H5583 H 0.06289 0.34797 0.41553 0.0
H5584 H 0.03989 0.38921 0.45085 0.0
H5585 H 0.07586 0.41436 0.40439 0.0
H5586 H 0.08335 0.41973 0.37218 0.0
H5587 H 0.03555 0.4412 0.36129 0.0
H5588 H 0.02771 0.43578 0.39336 0.0
H5589 H 0.05879 0.47651 0.5071 0.0
H5590 H 0.06107 0.44906 0.48678 0.0
H5591 H 0.01872 0.45837 0.44659 0.0
H5592 H 0.01586 0.48503 0.46737 0.0
H5593 H 0.04591 0.44933 0.42791 0.0
H5594 H 0.01209 0.42553 0.47653 0.0
H5595 H 1.00672 0.42132 0.50959 0.0
H5596 H 0.054 0.39847 0.51743 0.0
H5597 H 0.05981 0.40281 0.48449 0.0
C5598 C 0.04056 0.36792 0.38253 0.0
C5599 C 0.04927 0.35481 0.38989 0.0
C5600 C 0.03862 0.38341 0.39431 0.0
C5601 C 0.04612 0.38679 0.41365 0.0
C5602 C 0.05492 0.37357 0.42081 0.0
C5603 C 0.0562 0.35781 0.40927 0.0
C5604 C 0.04468 0.40368 0.42656 0.0
C5605 C 0.04158 0.40232 0.44571 0.0
C5606 C 0.04638 0.42114 0.42036 0.0
C5607 C 0.05114 0.42453 0.40118 0.0
C5608 C 0.06693 0.42016 0.39508 0.0
C5609 C 0.07123 0.42321 0.37686 0.0
C5610 C 0.05991 0.43076 0.36468 0.0
C5611 C 0.04429 0.43533 0.37072 0.0
C5612 C 0.03993 0.4323 0.38892 0.0
C5613 C 0.04998 0.4727 0.49391 0.0
C5614 C 0.0377 0.48362 0.48846 0.0
C5615 C 0.05127 0.45693 0.48224 0.0
C5616 C 0.04022 0.45151 0.46482 0.0
C5617 C 0.02773 0.46226 0.45963 0.0
C5618 C 0.02632 0.47785 0.47139 0.0
C5619 C 0.0415 0.43474 0.45199 0.0
C5620 C 0.04444 0.43616 0.43292 0.0
C5621 C 0.04006 0.41745 0.45837 0.0
C5622 C 0.03646 0.41464 0.4781 0.0
C5623 C 0.02141 0.41972 0.48535 0.0
C5624 C 0.01828 0.4173 0.50406 0.0
C5625 C 0.03003 0.40967 0.51562 0.0
C5626 C 0.04492 0.4044 0.50847 0.0
C5627 C 0.04813 0.40682 0.48977 0.0
H5628 H 0.02759 0.40781 0.5301 0.0
H5629 H 0.06326 0.4331 0.35058 0.0
H5630 H 0.48185 0.25642 0.2347 0.0
H5631 H 0.4537 0.2604 0.24692 0.0
H5632 H 0.42861 0.25765 0.1895 0.0
H5633 H 0.45685 0.25453 0.17745 0.0
H5634 H 0.41505 0.28014 0.2066 0.0
H5635 H 0.42156 0.2223 0.22565 0.0
H5636 H 0.43579 0.20021 0.24177 0.0
H5637 H 0.4376 0.23163 0.2957 0.0
H5638 H 0.42359 0.25402 0.27986 0.0
H5639 H 0.32355 0.26344 0.22737 0.0
H5640 H 0.35288 0.26048 0.21775 0.0
H5641 H 0.37723 0.27875 0.27505 0.0
H5642 H 0.34783 0.28213 0.2847 0.0
H5643 H 0.39124 0.24933 0.25963 0.0
H5644 H 0.38308 0.3059 0.24081 0.0
H5645 H 0.36753 0.32723 0.22503 0.0
H5646 H 0.36802 0.29747 0.17065 0.0
H5647 H 0.38329 0.27573 0.18616 0.0
C5648 C 0.47031 0.25643 0.2246 0.0
C5649 C 0.47199 0.25485 0.20489 0.0
C5650 C 0.45391 0.25864 0.23167 0.0
C5651 C 0.43822 0.25906 0.21939 0.0
C5652 C 0.44002 0.25744 0.1997 0.0
C5653 C 0.4564 0.25546 0.19268 0.0
C5654 C 0.42025 0.26163 0.22669 0.0
C5655 C 0.40991 0.27304 0.21801 0.0
C5656 C 0.41304 0.25313 0.24208 0.0
C5657 C 0.42177 0.23993 0.25154 0.0
C5658 C 0.42516 0.22457 0.24092 0.0
C5659 C 0.43315 0.21198 0.25001 0.0
C5660 C 0.43765 0.21454 0.26974 0.0
C5661 C 0.43416 0.22969 0.28042 0.0
C5662 C 0.4262 0.24233 0.2714 0.0
C5663 C 0.33508 0.2669 0.23804 0.0
C5664 C 0.33291 0.27304 0.25696 0.0
C5665 C 0.35206 0.26522 0.23243 0.0
C5666 C 0.36776 0.26934 0.2455 0.0
C5667 C 0.36563 0.27534 0.26447 0.0
C5668 C 0.34864 0.27736 0.27002 0.0
C5669 C 0.38615 0.26747 0.23928 0.0
C5670 C 0.39649 0.25629 0.24818 0.0
C5671 C 0.39333 0.27608 0.22405 0.0
C5672 C 0.38415 0.28908 0.21466 0.0
C5673 C 0.37971 0.30379 0.2255 0.0
C5674 C 0.37097 0.31597 0.21661 0.0
C5675 C 0.36674 0.31368 0.19686 0.0
C5676 C 0.37127 0.29921 0.18596 0.0
C5677 C 0.37997 0.28695 0.19479 0.0
H5678 H 0.35998 0.32314 0.18999 0.0
H5679 H 0.44381 0.20477 0.27675 0.0
H5680 H 0.63692 0.51924 0.34698 0.0
H5681 H 0.62189 0.51615 0.37582 0.0
H5682 H 0.59189 0.55678 0.36103 0.0
H5683 H 0.60627 0.55926 0.33162 0.0
H5684 H 0.61102 0.56027 0.40177 0.0
H5685 H 0.56917 0.52105 0.35511 0.0
H5686 H 0.55865 0.49628 0.32931 0.0
H5687 H 0.57412 0.45843 0.36581 0.0
H5688 H 0.58514 0.48307 0.39174 0.0
H5689 H 0.54254 0.54748 0.46504 0.0
H5690 H 0.55688 0.54946 0.43577 0.0
H5691 H 0.58747 0.50965 0.45172 0.0
H5692 H 0.57367 0.50818 0.4816 0.0
H5693 H 0.56781 0.50546 0.41027 0.0
H5694 H 0.61047 0.54476 0.45653 0.0
H5695 H 0.62195 0.56969 0.48196 0.0
H5696 H 0.605 0.60731 0.44601 0.0
H5697 H 0.5931 0.58251 0.42046 0.0
C5698 C 0.62716 0.52757 0.3499 0.0
C5699 C 0.62287 0.53959 0.33706 0.0
C5700 C 0.61851 0.52572 0.36636 0.0
C5701 C 0.60571 0.53621 0.37066 0.0
C5702 C 0.60167 0.54851 0.35805 0.0
C5703 C 0.6099 0.54993 0.34125 0.0
C5704 C 0.59678 0.53444 0.38843 0.0
C5705 C 0.6014 0.54838 0.40351 0.0
C5706 C 0.5845 0.51876 0.39096 0.0
C5707 C 0.57827 0.50397 0.37528 0.0
C5708 C 0.57063 0.5075 0.35755 0.0
C5709 C 0.5645 0.49347 0.34292 0.0
C5710 C 0.56579 0.4758 0.34589 0.0
C5711 C 0.5732 0.47213 0.36351 0.0
C5712 C 0.5794 0.48613 0.37817 0.0
C5713 C 0.55226 0.53905 0.46231 0.0
C5714 C 0.55691 0.5276 0.47568 0.0
C5715 C 0.5605 0.54026 0.44556 0.0
C5716 C 0.57327 0.52971 0.44145 0.0
C5717 C 0.57766 0.51792 0.45454 0.0
C5718 C 0.56979 0.51711 0.47163 0.0
C5719 C 0.58214 0.53127 0.42363 0.0
C5720 C 0.57745 0.51733 0.40852 0.0
C5721 C 0.59437 0.54695 0.42105 0.0
C5722 C 0.60069 0.56175 0.43668 0.0
C5723 C 0.60892 0.5583 0.45415 0.0
C5724 C 0.61562 0.57242 0.46854 0.0
C5725 C 0.61428 0.59008 0.46557 0.0
C5726 C 0.60608 0.59363 0.44827 0.0
C5727 C 0.59934 0.57954 0.43384 0.0
H5728 H 0.61951 0.60101 0.47672 0.0
H5729 H 0.56098 0.46494 0.33456 0.0
H5730 H 0.31313 0.91822 0.05487 0.0
H5731 H 0.31248 0.909 0.08698 0.0
H5732 H 0.27169 0.86269 0.06504 0.0
H5733 H 0.2727 0.87163 0.03288 0.0
H5734 H 0.26676 0.8795 0.10091 0.0
H5735 H 0.31044 0.85691 0.06695 0.0
H5736 H 0.33645 0.85771 0.049 0.0
H5737 H 0.37033 0.88917 0.09662 0.0
H5738 H 0.34437 0.88903 0.11467 0.0
H5739 H 0.29331 0.80856 0.15398 0.0
H5740 H 0.28201 0.82774 0.13147 0.0
H5741 H 0.31481 0.87478 0.16445 0.0
H5742 H 0.3259 0.85566 0.187 0.0
H5743 H 0.32289 0.8611 0.12549 0.0
H5744 H 0.27673 0.87791 0.16072 0.0
H5745 H 0.24927 0.8742 0.17652 0.0
H5746 H 0.21869 0.84812 0.1243 0.0
H5747 H 0.24601 0.8513 0.10829 0.0
C5748 C 0.30382 0.90629 0.0571 0.0
C5749 C 0.29308 0.89539 0.04176 0.0
C5750 C 0.30343 0.90111 0.07529 0.0
C5751 C 0.29208 0.88521 0.0781 0.0
C5752 C 0.28046 0.87503 0.06294 0.0
C5753 C 0.28114 0.87999 0.04471 0.0
C5754 C 0.29382 0.87794 0.09627 0.0
C5755 C 0.27898 0.87542 0.10641 0.0
C5756 C 0.30985 0.87273 0.10309 0.0
C5757 C 0.32537 0.87335 0.092 0.0
C5758 C 0.32335 0.86434 0.07346 0.0
C5759 C 0.3381 0.8646 0.06329 0.0
C5760 C 0.35501 0.87358 0.07162 0.0
C5761 C 0.3572 0.88232 0.09014 0.0
C5762 C 0.34246 0.88221 0.10032 0.0
C5763 C 0.29782 0.82303 0.15641 0.0
C5764 C 0.31084 0.83083 0.17152 0.0
C5765 C 0.29111 0.83393 0.14393 0.0
C5766 C 0.29751 0.85257 0.14659 0.0
C5767 C 0.30959 0.86041 0.16249 0.0
C5768 C 0.31616 0.84955 0.17503 0.0
C5769 C 0.29587 0.86276 0.13038 0.0
C5770 C 0.31077 0.86558 0.12035 0.0
C5771 C 0.27971 0.86759 0.12341 0.0
C5772 C 0.26349 0.86465 0.13337 0.0
C5773 C 0.26423 0.87107 0.15269 0.0
C5774 C 0.24865 0.86914 0.16167 0.0
C5775 C 0.23225 0.86089 0.15144 0.0
C5776 C 0.2314 0.85447 0.13223 0.0
C5777 C 0.24693 0.85632 0.12321 0.0
H5778 H 0.2202 0.85952 0.15838 0.0
H5779 H 0.36644 0.87369 0.06376 0.0
H5780 H 0.89359 0.53512 0.86455 0.0
H5781 H 0.91071 0.53543 0.89582 0.0
H5782 H 0.95051 0.51211 0.86837 0.0
H5783 H 0.93409 0.51203 0.83772 0.0
H5784 H 0.93934 0.49606 0.90018 0.0
H5785 H 0.95885 0.55397 0.8775 0.0
H5786 H 0.9537 0.58279 0.86683 0.0
H5787 H 0.93486 0.59718 0.9201 0.0
H5788 H 0.93964 0.56828 0.93093 0.0
H5789 H 0.01985 0.5098 0.96089 0.0
H5790 H 0.99817 0.5095 0.93326 0.0
H5791 H 0.9714 0.54498 0.96642 0.0
H5792 H 0.99411 0.54703 0.99313 0.0
H5793 H 0.9722 0.55453 0.93381 0.0
H5794 H 0.95953 0.49591 0.95727 0.0
H5795 H 0.96434 0.46563 0.96447 0.0
H5796 H 0.97129 0.45173 0.90625 0.0
H5797 H 0.96751 0.48192 0.89887 0.0
C5798 C 0.90587 0.52988 0.86537 0.0
C5799 C 0.91257 0.52355 0.84886 0.0
C5800 C 0.91555 0.53009 0.88305 0.0
C5801 C 0.93166 0.52375 0.88405 0.0
C5802 C 0.93796 0.5169 0.86766 0.0
C5803 C 0.92855 0.51691 0.85017 0.0
C5804 C 0.94288 0.52488 0.90191 0.0
C5805 C 0.9465 0.50877 0.90778 0.0
C5806 C 0.95205 0.54155 0.91135 0.0
C5807 C 0.94929 0.5589 0.90488 0.0
C5808 C 0.95342 0.56321 0.88684 0.0
C5809 C 0.95062 0.57956 0.88078 0.0
C5810 C 0.94388 0.59177 0.89274 0.0
C5811 C 0.94001 0.58768 0.91082 0.0
C5812 C 0.94276 0.57132 0.91692 0.0
C5813 C 1.00944 0.51768 0.96212 0.0
C5814 C 1.00828 0.52806 0.97918 0.0
C5815 C 0.99699 0.51734 0.94647 0.0
C5816 C 0.9829 0.52673 0.94811 0.0
C5817 C 0.9821 0.53749 0.96499 0.0
C5818 C 0.99494 0.53847 0.9803 0.0
C5819 C 0.9689 0.52554 0.93231 0.0
C5820 C 0.96482 0.54171 0.9267 0.0
C5821 C 0.95964 0.50882 0.92273 0.0
C5822 C 0.96327 0.49117 0.9276 0.0
C5823 C 0.96241 0.48647 0.94615 0.0
C5824 C 0.965 0.46941 0.95026 0.0
C5825 C 0.96809 0.45691 0.93591 0.0
C5826 C 0.96903 0.46147 0.91743 0.0
C5827 C 0.96675 0.47857 0.91328 0.0
H5828 H 0.96952 0.44362 0.93919 0.0
H5829 H 0.94171 0.60443 0.88803 0.0
H5830 H 0.26377 0.22546 0.55901 0.0
H5831 H 0.26722 0.23633 0.59253 0.0
H5832 H 0.28801 0.18934 0.60615 0.0
H5833 H 0.28421 0.17795 0.57202 0.0
H5834 H 0.26455 0.19688 0.63063 0.0
H5835 H 0.31579 0.23111 0.61003 0.0
H5836 H 0.33283 0.25016 0.58931 0.0
H5837 H 0.30265 0.29167 0.60115 0.0
H5838 H 0.28526 0.27278 0.62176 0.0
H5839 H 0.29216 0.23555 0.72668 0.0
H5840 H 0.29185 0.22316 0.69374 0.0
H5841 H 0.26747 0.26628 0.67462 0.0
H5842 H 0.26791 0.279 0.70782 0.0
H5843 H 0.29469 0.25972 0.65356 0.0
H5844 H 0.24308 0.22427 0.67401 0.0
H5845 H 0.2272 0.20505 0.69539 0.0
H5846 H 0.25964 0.16535 0.6844 0.0
H5847 H 0.27595 0.18451 0.66321 0.0
C5848 C 0.26916 0.21731 0.56897 0.0
C5849 C 0.27369 0.20072 0.56254 0.0
C5850 C 0.27124 0.22369 0.58831 0.0
C5851 C 0.27811 0.21388 0.60209 0.0
C5852 C 0.28273 0.19727 0.59587 0.0
C5853 C 0.28064 0.19079 0.57631 0.0
C5854 C 0.27997 0.22108 0.62282 0.0
C5855 C 0.27145 0.2105 0.63567 0.0
C5856 C 0.28865 0.239 0.62958 0.0
C5857 C 0.29915 0.25048 0.61733 0.0
C5858 C 0.31271 0.24426 0.60812 0.0
C5859 C 0.32245 0.25503 0.59641 0.0
C5860 C 0.3188 0.2721 0.59388 0.0
C5861 C 0.30545 0.27845 0.60311 0.0
C5862 C 0.29567 0.26773 0.61484 0.0
C5863 C 0.28667 0.24248 0.71555 0.0
C5864 C 0.27992 0.25829 0.72008 0.0
C5865 C 0.28646 0.23527 0.69661 0.0
C5866 C 0.27947 0.24359 0.68153 0.0
C5867 C 0.27291 0.25952 0.68593 0.0
C5868 C 0.27307 0.26676 0.70497 0.0
C5869 C 0.27908 0.23562 0.66126 0.0
C5870 C 0.28788 0.24607 0.64852 0.0
C5871 C 0.27081 0.21754 0.65468 0.0
C5872 C 0.26083 0.20588 0.66715 0.0
C5873 C 0.2469 0.21149 0.67624 0.0
C5874 C 0.23782 0.20061 0.68833 0.0
C5875 C 0.24243 0.184 0.69127 0.0
C5876 C 0.2561 0.17823 0.68211 0.0
C5877 C 0.26526 0.18909 0.67006 0.0
H5878 H 0.23538 0.17559 0.70063 0.0
H5879 H 0.32635 0.28042 0.5848 0.0
H5880 H 0.58394 0.53878 0.23772 0.0
H5881 H 0.57366 0.53532 0.20389 0.0
H5882 H 0.62707 0.53282 0.19092 0.0
H5883 H 0.6376 0.53639 0.22521 0.0
H5884 H 0.61238 0.55552 0.16949 0.0
H5885 H 0.59422 0.49527 0.18209 0.0
H5886 H 0.58038 0.47058 0.19908 0.0
H5887 H 0.52914 0.48537 0.18744 0.0
H5888 H 0.54272 0.51033 0.17059 0.0
H5889 H 0.58227 0.52614 0.07021 0.0
H5890 H 0.59454 0.52729 0.10351 0.0
H5891 H 0.54577 0.54025 0.1216 0.0
H5892 H 0.53351 0.53959 0.0882 0.0
H5893 H 0.55922 0.51083 0.13965 0.0
H5894 H 0.57883 0.57295 0.12968 0.0
H5895 H 0.59366 0.59804 0.11379 0.0
H5896 H 0.64272 0.57814 0.11965 0.0
H5897 H 0.62834 0.55313 0.13598 0.0
C5898 C 0.59358 0.53736 0.22776 0.0
C5899 C 0.61167 0.53795 0.23435 0.0
C5900 C 0.5876 0.53527 0.20829 0.0
C5901 C 0.59949 0.53369 0.19464 0.0
C5902 C 0.61757 0.53399 0.20109 0.0
C5903 C 0.62357 0.53592 0.22072 0.0
C5904 C 0.59294 0.53252 0.17383 0.0
C5905 C 0.60097 0.5455 0.16293 0.0
C5906 C 0.57778 0.51974 0.16514 0.0
C5907 C 0.56952 0.50476 0.17522 0.0
C5908 C 0.58002 0.49335 0.18328 0.0
C5909 C 0.57222 0.47929 0.19286 0.0
C5910 C 0.5539 0.47643 0.19438 0.0
C5911 C 0.54333 0.48761 0.18627 0.0
C5912 C 0.55107 0.5017 0.17668 0.0
C5913 C 0.57413 0.52933 0.08124 0.0
C5914 C 0.55684 0.53273 0.07643 0.0
C5915 C 0.58122 0.53001 0.10033 0.0
C5916 C 0.57112 0.53381 0.11516 0.0
C5917 C 0.55384 0.53725 0.11045 0.0
C5918 C 0.54687 0.53694 0.09132 0.0
C5919 C 0.57857 0.53393 0.1355 0.0
C5920 C 0.5707 0.52075 0.14625 0.0
C5921 C 0.59395 0.54639 0.14401 0.0
C5922 C 0.60248 0.56108 0.13381 0.0
C5923 C 0.59273 0.57383 0.1274 0.0
C5924 C 0.60105 0.58804 0.11836 0.0
C5925 C 0.61901 0.58953 0.11547 0.0
C5926 C 0.62878 0.57691 0.12181 0.0
C5927 C 0.62059 0.56278 0.13105 0.0
H5928 H 0.62539 0.60055 0.10844 0.0
H5929 H 0.54788 0.46554 0.2018 0.0
H5930 H 0.31651 0.89642 0.95509 0.0
H5931 H 0.31579 0.87729 0.92547 0.0
H5932 H 0.26888 0.89579 0.90232 0.0
H5933 H 0.26976 0.91536 0.93217 0.0
H5934 H 0.26622 0.85689 0.90495 0.0
H5935 H 0.30306 0.9071 0.88228 0.0
H5936 H 0.32888 0.93217 0.8856 0.0
H5937 H 0.36473 0.89494 0.89141 0.0
H5938 H 0.3391 0.86968 0.88843 0.0
H5939 H 0.26079 0.81557 0.81092 0.0
H5940 H 0.26203 0.83554 0.84025 0.0
H5941 H 0.31049 0.8192 0.86248 0.0
H5942 H 0.30933 0.79915 0.83323 0.0
H5943 H 0.31244 0.85661 0.8606 0.0
H5944 H 0.27855 0.807 0.88414 0.0
H5945 H 0.25446 0.78053 0.88288 0.0
H5946 H 0.21518 0.81427 0.87785 0.0
H5947 H 0.23906 0.84098 0.87891 0.0
C5948 C 0.30644 0.89683 0.94345 0.0
C5949 C 0.2932 0.90715 0.94555 0.0
C5950 C 0.30603 0.88596 0.92665 0.0
C5951 C 0.29226 0.88531 0.91204 0.0
C5952 C 0.27958 0.8964 0.91366 0.0
C5953 C 0.28018 0.90756 0.93045 0.0
C5954 C 0.29025 0.87155 0.89605 0.0
C5955 C 0.27603 0.85693 0.89491 0.0
C5956 C 0.30374 0.87144 0.88395 0.0
C5957 C 0.31917 0.88654 0.88522 0.0
C5958 C 0.31645 0.90428 0.88436 0.0
C5959 C 0.33105 0.91852 0.88618 0.0
C5960 C 0.34844 0.91515 0.88874 0.0
C5961 C 0.35126 0.89753 0.88942 0.0
C5962 C 0.3367 0.88324 0.88764 0.0
C5963 C 0.27155 0.81614 0.82218 0.0
C5964 C 0.28503 0.80612 0.82005 0.0
C5965 C 0.27216 0.82732 0.83884 0.0
C5966 C 0.28629 0.82852 0.85322 0.0
C5967 C 0.29949 0.81815 0.85136 0.0
C5968 C 0.2988 0.80682 0.83479 0.0
C5969 C 0.28823 0.84215 0.86926 0.0
C5970 C 0.30252 0.85664 0.87052 0.0
C5971 C 0.27503 0.84193 0.88171 0.0
C5972 C 0.26059 0.82599 0.88145 0.0
C5973 C 0.26477 0.80878 0.88263 0.0
C5974 C 0.25116 0.79372 0.88196 0.0
C5975 C 0.2333 0.7957 0.88019 0.0
C5976 C 0.22902 0.81276 0.8792 0.0
C5977 C 0.2426 0.82788 0.87988 0.0
H5978 H 0.22277 0.78402 0.87964 0.0
H5979 H 0.35973 0.9262 0.89017 0.0
H5980 H 0.89192 0.51681 0.73895 0.0
H5981 H 0.90106 0.5213 0.70723 0.0
H5982 H 0.95523 0.51845 0.72812 0.0
H5983 H 0.94652 0.51398 0.75925 0.0
H5984 H 0.95103 0.54935 0.7098 0.0
H5985 H 0.9339 0.48425 0.70536 0.0
H5986 H 0.91271 0.45569 0.70509 0.0
H5987 H 0.88029 0.46864 0.6575 0.0
H5988 H 0.90116 0.49751 0.65776 0.0
H5989 H 1.00668 0.50388 0.65696 0.0
H5990 H 0.9869 0.51494 0.67836 0.0
H5991 H 0.95687 0.53188 0.63115 0.0
H5992 H 0.97651 0.5212 0.60974 0.0
H5993 H 0.94004 0.50139 0.65526 0.0
H5994 H 0.96975 0.56421 0.65837 0.0
H5995 H 0.99629 0.58862 0.66274 0.0
H5996 H 0.01161 0.57374 0.7179 0.0
H5997 H 0.98526 0.5492 0.71378 0.0
C5998 C 0.90575 0.51712 0.73666 0.0
C5999 C 0.91855 0.51518 0.75155 0.0
C6000 C 0.91087 0.51966 0.71866 0.0
C6001 C 0.92878 0.52045 0.7157 0.0
C6002 C 0.94138 0.5181 0.73039 0.0
C6003 C 0.93632 0.51544 0.74813 0.0
C6004 C 0.93512 0.52383 0.6975 0.0
C6005 C 0.94835 0.53915 0.69757 0.0
C6006 C 0.93151 0.51036 0.68183 0.0
C6007 C 0.91881 0.49322 0.68188 0.0
C6008 C 0.92208 0.48116 0.69505 0.0
C6009 C 0.91018 0.46488 0.69486 0.0
C6010 C 0.89509 0.46041 0.68137 0.0
C6011 C 0.89192 0.47218 0.66802 0.0
C6012 C 0.90376 0.48852 0.66821 0.0
C6013 C 0.99608 0.51023 0.65116 0.0
C6014 C 0.99282 0.51106 0.63153 0.0
C6015 C 0.98496 0.5167 0.6634 0.0
C6016 C 0.97052 0.52405 0.6561 0.0
C6017 C 0.96805 0.52626 0.63687 0.0
C6018 C 0.97932 0.52006 0.62469 0.0
C6019 C 0.95658 0.52647 0.66811 0.0
C6020 C 0.94194 0.51222 0.66684 0.0
C6021 C 0.95963 0.5403 0.68334 0.0
C6022 C 0.97554 0.55493 0.68576 0.0
C6023 C 0.97884 0.56611 0.67137 0.0
C6024 C 0.99384 0.57998 0.67383 0.0
C6025 C 1.00562 0.58274 0.69059 0.0
C6026 C 1.00246 0.57163 0.70494 0.0
C6027 C 0.98747 0.55778 0.70257 0.0
H6028 H 0.01721 0.59349 0.69247 0.0
H6029 H 0.88591 0.44778 0.68121 0.0
H6030 H 0.29698 0.20794 0.47198 0.0
H6031 H 0.30091 0.22182 0.44271 0.0
H6032 H 0.25369 0.18561 0.41455 0.0
H6033 H 0.25094 0.17057 0.44351 0.0
H6034 H 0.27344 0.18946 0.38983 0.0
H6035 H 0.25873 0.23578 0.43374 0.0
H6036 H 0.26232 0.25628 0.46354 0.0
H6037 H 0.31503 0.28025 0.45282 0.0
H6038 H 0.31183 0.25976 0.42309 0.0
H6039 H 0.25707 0.25733 0.32419 0.0
H6040 H 0.25618 0.24318 0.35387 0.0
H6041 H 0.31146 0.23873 0.35334 0.0
H6042 H 0.312 0.25177 0.32288 0.0
H6043 H 0.28817 0.25593 0.39159 0.0
H6044 H 0.30251 0.20609 0.34854 0.0
H6045 H 0.29651 0.18737 0.31747 0.0
H6046 H 0.24163 0.17114 0.3266 0.0
H6047 H 0.24721 0.19033 0.35745 0.0
C6048 C 0.28745 0.20295 0.4595 0.0
C6049 C 0.27356 0.18825 0.46011 0.0
C6050 C 0.28956 0.21107 0.44271 0.0
C6051 C 0.27728 0.20538 0.4262 0.0
C6052 C 0.26341 0.19052 0.42687 0.0
C6053 C 0.26174 0.18192 0.4435 0.0
C6054 C 0.27902 0.2146 0.40828 0.0
C6055 C 0.27657 0.20401 0.39046 0.0
C6056 C 0.28327 0.23369 0.4085 0.0
C6057 C 0.28509 0.24614 0.42627 0.0
C6058 C 0.2711 0.24538 0.43779 0.0
C6059 C 0.27307 0.25699 0.45466 0.0
C6060 C 0.2889 0.26953 0.46009 0.0
C6061 C 0.30278 0.27052 0.44862 0.0
C6062 C 0.30089 0.25893 0.43174 0.0
C6063 C 0.26896 0.2531 0.3303 0.0
C6064 C 0.28447 0.2552 0.32098 0.0
C6065 C 0.26846 0.2451 0.3473 0.0
C6066 C 0.28366 0.2396 0.35576 0.0
C6067 C 0.29943 0.24244 0.34689 0.0
C6068 C 0.29974 0.24985 0.32948 0.0
C6069 C 0.28285 0.23072 0.37369 0.0
C6070 C 0.28522 0.24139 0.39131 0.0
C6071 C 0.27844 0.21179 0.37333 0.0
C6072 C 0.2752 0.1999 0.3551 0.0
C6073 C 0.2891 0.19877 0.34378 0.0
C6074 C 0.28579 0.18805 0.32623 0.0
C6075 C 0.26868 0.17814 0.32002 0.0
C6076 C 0.25486 0.1789 0.33138 0.0
C6077 C 0.25808 0.18973 0.34888 0.0
H6078 H 0.26615 0.16981 0.30645 0.0
H6079 H 0.29041 0.2785 0.47316 0.0
H6080 H 0.29894 0.58441 0.5378 0.0
H6081 H 0.3262 0.57261 0.53444 0.0
H6082 H 0.3575 0.62157 0.56548 0.0
H6083 H 0.33023 0.63387 0.5677 0.0
H6084 H 0.37044 0.61364 0.53386 0.0
H6085 H 0.35113 0.57999 0.5848 0.0
H6086 H 0.3275 0.56118 0.59917 0.0
H6087 H 0.32182 0.51978 0.55221 0.0
H6088 H 0.34524 0.53846 0.53743 0.0
H6089 H 0.44965 0.57964 0.5275 0.0
H6090 H 0.42564 0.58939 0.54403 0.0
H6091 H 0.38696 0.54755 0.50947 0.0
H6092 H 0.4109 0.53795 0.49291 0.0
H6093 H 0.37986 0.55281 0.54728 0.0
H6094 H 0.39483 0.5859 0.49476 0.0
H6095 H 0.41544 0.60446 0.47672 0.0
H6096 H 0.42656 0.64671 0.52332 0.0
H6097 H 0.4064 0.62814 0.54188 0.0
C6098 C 0.31159 0.59233 0.54448 0.0
C6099 C 0.31266 0.60983 0.55328 0.0
C6100 C 0.32714 0.58564 0.54252 0.0
C6101 C 0.3438 0.59613 0.55004 0.0
C6102 C 0.34473 0.61329 0.55971 0.0
C6103 C 0.32923 0.62018 0.56116 0.0
C6104 C 0.3603 0.58972 0.54649 0.0
C6105 C 0.37277 0.60056 0.53729 0.0
C6106 C 0.36292 0.57243 0.55042 0.0
C6107 C 0.34998 0.56058 0.56006 0.0
C6108 C 0.34492 0.56682 0.57761 0.0
C6109 C 0.33151 0.55622 0.58579 0.0
C6110 C 0.32318 0.53929 0.57662 0.0
C6111 C 0.32832 0.53287 0.55932 0.0
C6112 C 0.34171 0.54343 0.55107 0.0
C6113 C 0.43601 0.5725 0.5237 0.0
C6114 C 0.43178 0.55842 0.50881 0.0
C6115 C 0.42243 0.57793 0.53314 0.0
C6116 C 0.40467 0.56919 0.52777 0.0
C6117 C 0.40066 0.55436 0.51373 0.0
C6118 C 0.41419 0.54907 0.50417 0.0
C6119 C 0.39001 0.57683 0.53491 0.0
C6120 C 0.37781 0.56615 0.54452 0.0
C6121 C 0.38749 0.5942 0.53114 0.0
C6122 C 0.39935 0.6055 0.51985 0.0
C6123 C 0.40183 0.59906 0.50126 0.0
C6124 C 0.41342 0.60958 0.49093 0.0
C6125 C 0.42236 0.62672 0.4989 0.0
C6126 C 0.41968 0.63339 0.5172 0.0
C6127 C 0.40821 0.62286 0.52765 0.0
H6128 H 0.43132 0.63486 0.49088 0.0
H6129 H 0.31272 0.53115 0.58291 0.0
H6130 H 0.85905 0.89845 0.50558 0.0
H6131 H 0.88638 0.92062 0.5062 0.0
H6132 H 0.87447 0.94907 0.55749 0.0
H6133 H 0.84623 0.92743 0.55601 0.0
H6134 H 0.88977 0.97279 0.53883 0.0
H6135 H 0.90667 0.91931 0.5569 0.0
H6136 H 0.90644 0.88666 0.55463 0.0
H6137 H 0.92793 0.88867 0.50113 0.0
H6138 H 0.92809 0.92131 0.50298 0.0
H6139 H 0.98541 0.01266 0.55956 0.0
H6140 H 0.95609 0.99371 0.56143 0.0
H6141 H 0.94959 0.97988 0.50059 0.0
H6142 H 0.97835 0.99963 0.49862 0.0
H6143 H 0.9448 0.94923 0.5276 0.0
H6144 H 0.92609 1.00479 0.51174 0.0
H6145 H 0.92824 0.03763 0.51822 0.0
H6146 H 0.91225 0.03132 0.57381 0.0
H6147 H 0.91039 0.99844 0.56778 0.0
C6148 C 0.86222 0.90946 0.51697 0.0
C6149 C 0.8506 0.91101 0.53089 0.0
C6150 C 0.87797 0.92211 0.51742 0.0
C6151 C 0.88302 0.93629 0.53229 0.0
C6152 C 0.87111 0.93822 0.54594 0.0
C6153 C 0.85497 0.92581 0.54513 0.0
C6154 C 0.90079 0.94876 0.53355 0.0
C6155 C 0.90176 0.96752 0.5366 0.0
C6156 C 0.91675 0.94218 0.53091 0.0
C6157 C 0.9173 0.92271 0.53004 0.0
C6158 C 0.91133 0.91277 0.54465 0.0
C6159 C 0.91119 0.89427 0.54342 0.0
C6160 C 0.91714 0.88559 0.52773 0.0
C6161 C 0.92333 0.89541 0.51328 0.0
C6162 C 0.92348 0.91392 0.51442 0.0
C6163 C 0.97743 1.00594 0.54658 0.0
C6164 C 0.98393 0.00775 0.52893 0.0
C6165 C 0.96083 0.99499 0.54767 0.0
C6166 C 0.95073 0.98525 0.53116 0.0
C6167 C 0.95717 0.98722 0.5135 0.0
C6168 C 0.97348 0.99863 0.51236 0.0
C6169 C 0.93346 0.97299 0.53226 0.0
C6170 C 0.93271 0.95433 0.52983 0.0
C6171 C 0.9179 0.97964 0.53607 0.0
C6172 C 0.91823 0.99922 0.53937 0.0
C6173 C 0.92313 0.01043 0.52538 0.0
C6174 C 0.92431 0.02904 0.52898 0.0
C6175 C 0.92042 0.03656 0.54643 0.0
C6176 C 0.91527 0.02547 0.5603 0.0
C6177 C 0.91415 1.00685 0.5568 0.0
H6178 H 0.92136 0.05098 0.5492 0.0
H6179 H 0.91698 0.87125 0.52678 0.0
H6180 H 0.88214 0.04907 0.24016 0.0
H6181 H 0.86759 0.07545 0.24105 0.0
H6182 H 0.9098 0.10444 0.28316 0.0
H6183 H 0.92463 0.07837 0.28198 0.0
H6184 H 0.8744 0.10384 0.2931 0.0
H6185 H 0.90934 0.11744 0.24237 0.0
H6186 H 0.92082 0.11237 0.2115 0.0
H6187 H 0.8677 0.10555 0.18263 0.0
H6188 H 0.85586 0.11031 0.2134 0.0
H6189 H 0.85606 0.19005 0.30278 0.0
H6190 H 0.87233 0.16647 0.29286 0.0
H6191 H 0.82769 0.14166 0.25144 0.0
H6192 H 0.81125 0.16538 0.26149 0.0
H6193 H 0.863 0.13947 0.2397 0.0
H6194 H 0.82811 0.12609 0.29068 0.0
H6195 H 0.81703 0.13233 0.32157 0.0
H6196 H 0.87027 0.13885 0.35004 0.0
H6197 H 0.88173 0.13297 0.31924 0.0
C6198 C 0.88843 0.06116 0.2494 0.0
C6199 C 0.90455 0.06168 0.26095 0.0
C6200 C 0.88013 0.07622 0.24987 0.0
C6201 C 0.88765 0.0919 0.26214 0.0
C6202 C 0.90382 0.09248 0.27354 0.0
C6203 C 0.9123 0.0776 0.27279 0.0
C6204 C 0.87817 0.10732 0.26398 0.0
C6205 C 0.87208 0.11173 0.28147 0.0
C6206 C 0.87472 0.11731 0.24866 0.0
C6207 C 0.88168 0.11395 0.2302 0.0
C6208 C 0.90007 0.11459 0.22946 0.0
C6209 C 0.90665 0.11185 0.21198 0.0
C6210 C 0.89499 0.10856 0.19512 0.0
C6211 C 0.87671 0.10803 0.19571 0.0
C6212 C 0.87006 0.11075 0.21317 0.0
C6213 C 0.85001 0.17997 0.29104 0.0
C6214 C 0.83247 0.17953 0.28282 0.0
C6215 C 0.85924 0.16643 0.28549 0.0
C6216 C 0.85109 0.15217 0.27165 0.0
C6217 C 0.83419 0.15256 0.26217 0.0
C6218 C 0.82487 0.16615 0.2678 0.0
C6219 C 0.85944 0.13605 0.26885 0.0
C6220 C 0.86524 0.13147 0.25125 0.0
C6221 C 0.86262 0.12583 0.28405 0.0
C6222 C 0.8558 0.12929 0.30263 0.0
C6223 C 0.83748 0.12903 0.3035 0.0
C6224 C 0.83113 0.13247 0.321 0.0
C6225 C 0.84294 0.13603 0.33775 0.0
C6226 C 0.86114 0.13612 0.33704 0.0
C6227 C 0.86757 0.13273 0.31957 0.0
H6228 H 0.83799 0.13868 0.35129 0.0
H6229 H 0.90012 0.10649 0.18159 0.0
H6230 H 0.72728 0.10854 0.05489 0.0
H6231 H 0.69744 0.091 0.05523 0.0
H6232 H 0.68288 0.10194 0.9978 0.0
H6233 H 0.71248 0.12063 0.99798 0.0
H6234 H 0.65975 0.10969 0.01983 0.0
H6235 H 0.69175 0.05903 0.01236 0.0
H6236 H 0.71345 0.04017 0.02202 0.0
H6237 H 0.69057 0.03402 0.07436 0.0
H6238 H 0.66899 0.05308 0.06518 0.0
H6239 H 0.57744 0.04907 0.99662 0.0
H6240 H 0.60813 0.0655 0.99757 0.0
H6241 H 0.61932 0.05418 0.0555 0.0
H6242 H 0.58915 0.03771 0.05427 0.0
H6243 H 0.64397 0.04702 0.03547 0.0
H6244 H 0.61347 0.09542 0.04661 0.0
H6245 H 0.59049 0.1139 0.04086 0.0
H6246 H 0.60974 0.12552 0.98779 0.0
H6247 H 0.63262 0.10681 0.99306 0.0
C6248 C 0.71774 0.10689 0.04224 0.0
C6249 C 0.72189 0.11574 0.02634 0.0
C6250 C 0.70081 0.09682 0.04242 0.0
C6251 C 0.68817 0.09501 0.02643 0.0
C6252 C 0.6926 0.10324 0.01023 0.0
C6253 C 0.70937 0.11381 0.01029 0.0
C6254 C 0.66977 0.08605 0.02711 0.0
C6255 C 0.65626 0.09587 0.02293 0.0
C6256 C 0.66542 0.06849 0.03244 0.0
C6257 C 0.67892 0.05766 0.03816 0.0
C6258 C 0.69152 0.05385 0.02603 0.0
C6259 C 0.70376 0.04308 0.03141 0.0
C6260 C 0.70343 0.03595 0.04881 0.0
C6261 C 0.69087 0.03959 0.06091 0.0
C6262 C 0.67865 0.05039 0.05563 0.0
C6263 C 0.58646 0.05032 0.00948 0.0
C6264 C 0.581 0.0424 0.02539 0.0
C6265 C 0.60387 0.05962 0.01006 0.0
C6266 C 0.6157 0.06115 0.02672 0.0
C6267 C 0.61026 0.05309 0.04255 0.0
C6268 C 0.59305 0.04364 0.04181 0.0
C6269 C 0.63409 0.07043 0.0275 0.0
C6270 C 0.64752 0.06081 0.03224 0.0
C6271 C 0.63839 0.08833 0.02337 0.0
C6272 C 0.62463 0.09957 0.02013 0.0
C6273 C 0.61269 0.10177 0.03362 0.0
C6274 C 0.5997 0.11231 0.03046 0.0
C6275 C 0.59862 0.12084 0.01394 0.0
C6276 C 0.61056 0.11888 0.00056 0.0
C6277 C 0.62354 0.10831 0.00363 0.0
H6278 H 0.58857 0.12901 0.01152 0.0
H6279 H 0.71286 0.02755 0.05289 0.0
H6280 H 0.21137 0.5004 0.22013 0.0
H6281 H 0.22605 0.47398 0.22205 0.0
H6282 H 0.20341 0.4639 0.27418 0.0
H6283 H 0.18848 0.48944 0.272 0.0
H6284 H 0.24301 0.46707 0.2732 0.0
H6285 H 0.18305 0.43843 0.24559 0.0
H6286 H 0.15718 0.43515 0.22114 0.0
H6287 H 0.18951 0.42167 0.1778 0.0
H6288 H 0.21571 0.42528 0.20205 0.0
H6289 H 0.24008 0.38707 0.30911 0.0
H6290 H 0.22541 0.40725 0.29097 0.0
H6291 H 0.25986 0.40189 0.24706 0.0
H6292 H 0.2747 0.38175 0.26517 0.0
H6293 H 0.21823 0.40675 0.23773 0.0
H6294 H 0.27844 0.43276 0.27342 0.0
H6295 H 0.2996 0.43594 0.30258 0.0
H6296 H 0.2608 0.45386 0.33581 0.0
H6297 H 0.23936 0.45058 0.30684 0.0
C6298 C 0.20958 0.49233 0.23181 0.0
C6299 C 0.1988 0.49645 0.24578 0.0
C6300 C 0.21784 0.47745 0.23289 0.0
C6301 C 0.21558 0.46727 0.24819 0.0
C6302 C 0.20509 0.47171 0.26227 0.0
C6303 C 0.19657 0.48613 0.26095 0.0
C6304 C 0.22427 0.45199 0.25024 0.0
C6305 C 0.23798 0.45395 0.26515 0.0
C6306 C 0.21709 0.435 0.24004 0.0
C6307 C 0.20136 0.4324 0.22553 0.0
C6308 C 0.18468 0.43496 0.23082 0.0
C6309 C 0.16996 0.43301 0.21702 0.0
C6310 C 0.17172 0.42828 0.19791 0.0
C6311 C 0.18819 0.4254 0.1926 0.0
C6312 C 0.20298 0.42741 0.20636 0.0
C6313 C 0.24423 0.38993 0.29541 0.0
C6314 C 0.25873 0.3834 0.28868 0.0
C6315 C 0.23571 0.40113 0.28498 0.0
C6316 C 0.24175 0.4059 0.26787 0.0
C6317 C 0.25506 0.39807 0.26021 0.0
C6318 C 0.26357 0.38679 0.27062 0.0
C6319 C 0.23709 0.42191 0.2606 0.0
C6320 C 0.22398 0.42003 0.24502 0.0
C6321 C 0.24431 0.439 0.2707 0.0
C6322 C 0.25732 0.44133 0.28802 0.0
C6323 C 0.27442 0.43729 0.28696 0.0
C6324 C 0.28646 0.43912 0.30345 0.0
C6325 C 0.28154 0.44507 0.32104 0.0
C6326 C 0.26459 0.44926 0.32218 0.0
C6327 C 0.25251 0.44744 0.30573 0.0
H6328 H 0.29088 0.44647 0.33378 0.0
H6329 H 0.16031 0.42678 0.18723 0.0
H6330 H 0.23571 0.38869 0.04358 0.0
H6331 H 0.20979 0.40352 0.04352 0.0
H6332 H 0.24114 0.4508 0.02563 0.0
H6333 H 0.26731 0.4366 0.02753 0.0
H6334 H 0.22268 0.46225 0.04781 0.0
H6335 H 0.20599 0.41432 0.99511 0.0
H6336 H 0.19898 0.38308 0.97934 0.0
H6337 H 0.15861 0.3695 0.01619 0.0
H6338 H 0.16552 0.40058 0.03228 0.0
H6339 H 0.15104 0.49875 0.003 0.0
H6340 H 0.17753 0.48609 0.01243 0.0
H6341 H 0.14529 0.4473 0.04152 0.0
H6342 H 0.11885 0.45985 0.03186 0.0
H6343 H 0.16301 0.4313 0.01654 0.0
H6344 H 0.17771 0.48088 0.06591 0.0
H6345 H 0.18357 0.5128 0.07933 0.0
H6346 H 0.22732 0.52395 0.04607 0.0
H6347 H 0.22151 0.49216 0.03218 0.0
C6348 C 0.23701 0.40231 0.03982 0.0
C6349 C 0.25349 0.41155 0.03567 0.0
C6350 C 0.22212 0.41073 0.03952 0.0
C6351 C 0.22322 0.42823 0.03411 0.0
C6352 C 0.23979 0.43737 0.02994 0.0
C6353 C 0.25479 0.42923 0.03099 0.0
C6354 C 0.20738 0.43729 0.03301 0.0
C6355 C 0.20973 0.45546 0.04068 0.0
C6356 C 0.19016 0.42847 0.02436 0.0
C6357 C 0.18644 0.40968 0.01504 0.0
C6358 C 0.19576 0.40461 0.99996 0.0
C6359 C 0.19176 0.38695 0.99094 0.0
C6360 C 0.1784 0.3743 0.9968 0.0
C6361 C 0.16899 0.37928 0.01169 0.0
C6362 C 0.17294 0.39691 0.02076 0.0
C6363 C 0.14984 0.48791 0.01193 0.0
C6364 C 0.13309 0.48028 0.0169 0.0
C6365 C 0.16491 0.48067 0.01729 0.0
C6366 C 0.16339 0.46575 0.02771 0.0
C6367 C 0.14677 0.4588 0.0335 0.0
C6368 C 0.13173 0.46602 0.02813 0.0
C6369 C 0.17857 0.4562 0.03084 0.0
C6370 C 0.17603 0.43798 0.02364 0.0
C6371 C 0.19563 0.46504 0.0396 0.0
C6372 C 0.19909 0.48416 0.04791 0.0
C6373 C 0.18848 0.49017 0.06134 0.0
C6374 C 0.19181 0.50824 0.06904 0.0
C6375 C 0.20579 0.5204 0.06354 0.0
C6376 C 0.21648 0.51452 0.05032 0.0
C6377 C 0.21318 0.49648 0.04253 0.0
H6378 H 0.20837 0.53438 0.06955 0.0
H6379 H 0.1753 0.36065 0.98977 0.0
H6380 H 0.922 0.94339 0.25582 0.0
H6381 H 0.89981 0.91582 0.25486 0.0
H6382 H 0.85995 0.94732 0.26772 0.0
H6383 H 0.88215 0.97514 0.26853 0.0
H6384 H 0.86132 0.91924 0.29069 0.0
H6385 H 0.8574 0.92621 0.22378 0.0
H6386 H 0.86895 0.93039 0.193 0.0
H6387 H 0.8906 0.88205 0.19491 0.0
H6388 H 0.87933 0.87769 0.22579 0.0
H6389 H 0.79211 0.84248 0.28194 0.0
H6390 H 0.80977 0.8718 0.27864 0.0
H6391 H 0.84784 0.84567 0.25126 0.0
H6392 H 0.82927 0.81646 0.25274 0.0
H6393 H 0.84588 0.87255 0.23493 0.0
H6394 H 0.85302 0.86582 0.30175 0.0
H6395 H 0.8428 0.8606 0.33298 0.0
H6396 H 0.81784 0.90692 0.33263 0.0
H6397 H 0.82781 0.91239 0.30136 0.0
C6398 C 0.9085 0.94452 0.25834 0.0
C6399 C 0.90391 0.96153 0.26231 0.0
C6400 C 0.89578 0.9287 0.25769 0.0
C6401 C 0.87816 0.92945 0.26114 0.0
C6402 C 0.87345 0.9464 0.26498 0.0
C6403 C 0.88614 0.96229 0.26536 0.0
C6404 C 0.86498 0.91247 0.26143 0.0
C6405 C 0.8577 0.90913 0.27841 0.0
C6406 C 0.8607 0.899 0.24564 0.0
C6407 C 0.86765 0.90172 0.22717 0.0
C6408 C 0.86476 0.91656 0.21772 0.0
C6409 C 0.87122 0.91894 0.20023 0.0
C6410 C 0.88054 0.90652 0.19202 0.0
C6411 C 0.88339 0.89167 0.20128 0.0
C6412 C 0.87695 0.88923 0.21876 0.0
C6413 C 0.80395 0.84294 0.27473 0.0
C6414 C 0.80902 0.82697 0.26737 0.0
C6415 C 0.81433 0.85981 0.27322 0.0
C6416 C 0.83051 0.86116 0.26509 0.0
C6417 C 0.83549 0.84519 0.25761 0.0
C6418 C 0.82484 0.82838 0.25857 0.0
C6419 C 0.84231 0.87904 0.26434 0.0
C6420 C 0.84938 0.8826 0.24727 0.0
C6421 C 0.84675 0.89253 0.28021 0.0
C6422 C 0.84102 0.88942 0.29914 0.0
C6423 C 0.84529 0.87485 0.3083 0.0
C6424 C 0.83954 0.87184 0.32599 0.0
C6425 C 0.82962 0.88336 0.33472 0.0
C6426 C 0.8255 0.89799 0.32583 0.0
C6427 C 0.83122 0.90108 0.30815 0.0
H6428 H 0.82518 0.88098 0.34841 0.0
H6429 H 0.88551 0.90838 0.17847 0.0
H6430 H 0.67468 0.10692 0.74929 0.0
H6431 H 0.69488 0.13507 0.74673 0.0
H6432 H 0.73926 0.11381 0.77179 0.0
H6433 H 0.71909 0.08535 0.77409 0.0
H6434 H 0.73069 0.14481 0.79202 0.0
H6435 H 0.7429 0.1241 0.73057 0.0
H6436 H 0.73712 0.11037 0.6972 0.0
H6437 H 0.70799 0.15149 0.68266 0.0
H6438 H 0.71333 0.16534 0.71601 0.0
H6439 H 0.78861 0.22846 0.78932 0.0
H6440 H 0.77396 0.19702 0.78853 0.0
H6441 H 0.72772 0.20772 0.75476 0.0
H6442 H 0.74276 0.239 0.75497 0.0
H6443 H 0.74143 0.18055 0.73801 0.0
H6444 H 0.72417 0.19753 0.79977 0.0
H6445 H 0.73016 0.21223 0.83278 0.0
H6446 H 0.76832 0.17868 0.84579 0.0
H6447 H 0.7624 0.16363 0.81285 0.0
C6448 C 0.68876 0.10827 0.75418 0.0
C6449 C 0.69539 0.09439 0.76245 0.0
C6450 C 0.70027 0.12411 0.75233 0.0
C6451 C 0.71842 0.12622 0.75894 0.0
C6452 C 0.72524 0.11212 0.76646 0.0
C6453 C 0.71376 0.0961 0.76799 0.0
C6454 C 0.72919 0.14425 0.76148 0.0
C6455 C 0.73348 0.15255 0.78023 0.0
C6456 C 0.7321 0.15422 0.74596 0.0
C6457 C 0.7284 0.14568 0.72591 0.0
C6458 C 0.73506 0.1301 0.72033 0.0
C6459 C 0.73191 0.12233 0.70139 0.0
C6460 C 0.72216 0.13003 0.68783 0.0
C6461 C 0.71553 0.14553 0.69319 0.0
C6462 C 0.71863 0.15336 0.71212 0.0
C6463 C 0.77502 0.22414 0.7825 0.0
C6464 C 0.76645 0.23578 0.77255 0.0
C6465 C 0.76675 0.20631 0.78193 0.0
C6466 C 0.74986 0.20027 0.77156 0.0
C6467 C 0.74079 0.21232 0.76278 0.0
C6468 C 0.74917 0.2301 0.76317 0.0
C6469 C 0.7424 0.18108 0.76849 0.0
C6470 C 0.73879 0.17268 0.74972 0.0
C6471 C 0.73984 0.17099 0.78392 0.0
C6472 C 0.74293 0.17954 0.80387 0.0
C6473 C 0.73385 0.1933 0.80968 0.0
C6474 C 0.73723 0.2017 0.82837 0.0
C6475 C 0.74973 0.19649 0.84133 0.0
C6476 C 0.75868 0.18271 0.83571 0.0
C6477 C 0.75524 0.17417 0.81707 0.0
H6478 H 0.75249 0.20307 0.85575 0.0
H6479 H 0.71977 0.12401 0.67316 0.0
loop_
_geom_bond_atom_site_label_1
_geom_bond_atom_site_label_2
_geom_bond_distance
_geom_bond_site_symmetry_2
_ccdc_geom_bond_type
Co0 O1 2.216 . S
Co0 O2 2.091 . S
Co0 O4 2.004 . S
Co0 O10 2.021 . S
Co0 O12 2.137 . S
Co0 O13 2.244 . S
O1 Co0 2.216 . S
O1 C8 1.247 . S
O2 Co0 2.091 . S
O2 C8 1.261 . S
C3 O12 1.247 . S
C3 O13 1.272 . S
O4 Co0 2.004 . S
O4 C9 1.259 1_455 S
Co5 O6 2.061 1_455 S
Co5 O11 2.052 . S
Co5 O13 2.135 . S
O6 Co5 2.061 1_655 S
O6 C9 1.235 . S
C7 O10 1.238 . S
C7 O11 1.241 . S
C8 O1 1.247 . S
C8 O2 1.261 . S
C9 O4 1.259 1_655 S
C9 O6 1.235 . S
O10 Co0 2.021 . S
O10 C7 1.238 . S
O11 Co5 2.052 . S
O11 C7 1.241 . S
O12 Co0 2.137 . S
O12 C3 1.247 . S
O13 Co0 2.244 . S
O13 C3 1.272 . S
O13 Co5 2.135 . S
Co14 O15 2.216 1_455 S
Co14 O16 2.091 1_455 S
Co14 O18 2.004 . S
Co14 O24 2.021 . S
Co14 O26 2.137 . S
Co14 O27 2.244 . S
O15 Co14 2.216 1_655 S
O15 C22 1.247 . S
O16 Co14 2.091 1_655 S
O16 C22 1.261 . S
C17 O26 1.247 . S
C17 O27 1.272 . S
O18 Co14 2.004 . S
O18 C23 1.259 . S
Co19 O20 2.061 . S
Co19 O25 2.052 . S
Co19 O27 2.135 . S
O20 Co19 2.061 . S
O20 C23 1.235 . S
C21 O24 1.238 . S
C21 O25 1.241 . S
C22 O15 1.247 . S
C22 O16 1.261 . S
C23 O18 1.259 . S
C23 O20 1.235 . S
O24 Co14 2.021 . S
O24 C21 1.238 . S
O25 Co19 2.052 . S
O25 C21 1.241 . S
O26 Co14 2.137 . S
O26 C17 1.247 . S
O27 Co14 2.244 . S
O27 C17 1.272 . S
O27 Co19 2.135 . S
Co28 O29 2.216 . S
Co28 O30 2.091 . S
Co28 O32 2.004 . S
Co28 O38 2.021 . S
Co28 O40 2.137 . S
Co28 O41 2.244 . S
O29 Co28 2.216 . S
O29 C36 1.247 . S
O30 Co28 2.091 . S
O30 C36 1.261 . S
C31 O40 1.247 . S
C31 O41 1.272 . S
O32 Co28 2.004 . S
O32 C37 1.259 . S
Co33 O34 2.061 . S
Co33 O39 2.052 . S
Co33 O41 2.135 . S
O34 Co33 2.061 . S
O34 C37 1.235 . S
C35 O38 1.238 . S
C35 O39 1.241 . S
C36 O29 1.247 . S
C36 O30 1.261 . S
C37 O32 1.259 . S
C37 O34 1.235 . S
O38 Co28 2.021 . S
O38 C35 1.238 . S
O39 Co33 2.052 . S
O39 C35 1.241 . S
O40 Co28 2.137 . S
O40 C31 1.247 . S
O41 Co28 2.244 . S
O41 C31 1.272 . S
O41 Co33 2.135 . S
Co42 O43 2.216 . S
Co42 O44 2.091 . S
Co42 O46 2.004 . S
Co42 O52 2.021 . S
Co42 O54 2.137 . S
Co42 O55 2.244 . S
O43 Co42 2.216 . S
O43 C50 1.247 . S
O44 Co42 2.091 . S
O44 C50 1.261 . S
C45 O54 1.247 . S
C45 O55 1.272 . S
O46 Co42 2.004 . S
O46 C51 1.259 . S
Co47 O48 2.061 . S
Co47 O53 2.052 . S
Co47 O55 2.135 . S
O48 Co47 2.061 . S
O48 C51 1.235 . S
C49 O52 1.238 . S
C49 O53 1.241 . S
C50 O43 1.247 . S
C50 O44 1.261 . S
C51 O46 1.259 . S
C51 O48 1.235 . S
O52 Co42 2.021 . S
O52 C49 1.238 . S
O53 Co47 2.052 . S
O53 C49 1.241 . S
O54 Co42 2.137 . S
O54 C45 1.247 . S
O55 Co42 2.244 . S
O55 C45 1.272 . S
O55 Co47 2.135 . S
Co56 O57 2.216 . S
Co56 O58 2.091 . S
Co56 O60 2.004 . S
Co56 O66 2.021 . S
Co56 O68 2.137 . S
Co56 O69 2.244 . S
O57 Co56 2.216 . S
O57 C64 1.247 . S
O58 Co56 2.091 . S
O58 C64 1.261 . S
C59 O68 1.247 . S
C59 O69 1.272 . S
O60 Co56 2.004 . S
O60 C65 1.259 . S
Co61 O62 2.061 . S
Co61 O67 2.052 . S
Co61 O69 2.135 . S
O62 Co61 2.061 . S
O62 C65 1.235 . S
C63 O66 1.238 . S
C63 O67 1.241 . S
C64 O57 1.247 . S
C64 O58 1.261 . S
C65 O60 1.259 . S
C65 O62 1.235 . S
O66 Co56 2.021 . S
O66 C63 1.238 . S
O67 Co61 2.052 . S
O67 C63 1.241 . S
O68 Co56 2.137 . S
O68 C59 1.247 . S
O69 Co56 2.244 . S
O69 C59 1.272 . S
O69 Co61 2.135 . S
Co70 O71 2.216 . S
Co70 O72 2.091 . S
Co70 O74 2.004 . S
Co70 O80 2.021 . S
Co70 O82 2.137 . S
Co70 O83 2.244 . S
O71 Co70 2.216 . S
O71 C78 1.247 . S
O72 Co70 2.091 . S
O72 C78 1.261 . S
C73 O82 1.247 . S
C73 O83 1.272 . S
O74 Co70 2.004 . S
O74 C79 1.259 . S
Co75 O76 2.061 . S
Co75 O81 2.052 . S
Co75 O83 2.135 . S
O76 Co75 2.061 . S
O76 C79 1.235 . S
C77 O80 1.238 . S
C77 O81 1.241 . S
C78 O71 1.247 . S
C78 O72 1.261 . S
C79 O74 1.259 . S
C79 O76 1.235 . S
O80 Co70 2.021 . S
O80 C77 1.238 . S
O81 Co75 2.052 . S
O81 C77 1.241 . S
O82 Co70 2.137 . S
O82 C73 1.247 . S
O83 Co70 2.244 . S
O83 C73 1.272 . S
O83 Co75 2.135 . S
Co84 O85 2.216 . S
Co84 O86 2.091 . S
Co84 O88 2.004 . S
Co84 O94 2.021 . S
Co84 O96 2.137 . S
Co84 O97 2.244 . S
O85 Co84 2.216 . S
O85 C92 1.247 . S
O86 Co84 2.091 . S
O86 C92 1.261 . S
C87 O96 1.247 . S
C87 O97 1.272 . S
O88 Co84 2.004 . S
O88 C93 1.259 . S
Co89 O90 2.061 . S
Co89 O95 2.052 . S
Co89 O97 2.135 . S
O90 Co89 2.061 . S
O90 C93 1.235 . S
C91 O94 1.238 . S
C91 O95 1.241 . S
C92 O85 1.247 . S
C92 O86 1.261 . S
C93 O88 1.259 . S
C93 O90 1.235 . S
O94 Co84 2.021 . S
O94 C91 1.238 . S
O95 Co89 2.052 . S
O95 C91 1.241 . S
O96 Co84 2.137 . S
O96 C87 1.247 . S
O97 Co84 2.244 . S
O97 C87 1.272 . S
O97 Co89 2.135 . S
Co98 O99 2.216 . S
Co98 O100 2.091 . S
Co98 O102 2.004 1_455 S
Co98 O108 2.021 1_455 S
Co98 O110 2.137 . S
Co98 O111 2.244 1_455 S
O99 Co98 2.216 . S
O99 C106 1.247 . S
O100 Co98 2.091 . S
O100 C106 1.261 . S
C101 O110 1.247 . S
C101 O111 1.272 1_455 S
O102 Co98 2.004 1_655 S
O102 C107 1.259 . S
Co103 O104 2.061 . S
Co103 O109 2.052 . S
Co103 O111 2.135 . S
O104 Co103 2.061 . S
O104 C107 1.235 . S
C105 O108 1.238 . S
C105 O109 1.241 . S
C106 O99 1.247 . S
C106 O100 1.261 . S
C107 O102 1.259 . S
C107 O104 1.235 . S
O108 Co98 2.021 1_655 S
O108 C105 1.238 . S
O109 Co103 2.052 . S
O109 C105 1.241 . S
O110 Co98 2.137 . S
O110 C101 1.247 . S
O111 Co98 2.244 1_655 S
O111 C101 1.272 1_655 S
O111 Co103 2.135 . S
Co112 O113 2.216 . S
Co112 O114 2.091 . S
Co112 O116 2.004 1_545 S
Co112 O122 2.021 . S
Co112 O124 2.137 . S
Co112 O125 2.244 . S
O113 Co112 2.216 . S
O113 C120 1.247 . S
O114 Co112 2.091 . S
O114 C120 1.261 . S
C115 O124 1.247 . S
C115 O125 1.272 . S
O116 Co112 2.004 1_565 S
O116 C121 1.259 . S
Co117 O118 2.061 . S
Co117 O123 2.052 . S
Co117 O125 2.135 1_565 S
O118 Co117 2.061 . S
O118 C121 1.235 . S
C119 O122 1.238 . S
C119 O123 1.241 1_545 S
C120 O113 1.247 . S
C120 O114 1.261 . S
C121 O116 1.259 . S
C121 O118 1.235 . S
O122 Co112 2.021 . S
O122 C119 1.238 . S
O123 Co117 2.052 . S
O123 C119 1.241 1_565 S
O124 Co112 2.137 . S
O124 C115 1.247 . S
O125 Co112 2.244 . S
O125 C115 1.272 . S
O125 Co117 2.135 1_545 S
Co126 O127 2.216 . S
Co126 O128 2.091 . S
Co126 O130 2.004 . S
Co126 O136 2.021 . S
Co126 O138 2.137 . S
Co126 O139 2.244 . S
O127 Co126 2.216 . S
O127 C134 1.247 . S
O128 Co126 2.091 . S
O128 C134 1.261 . S
C129 O138 1.247 . S
C129 O139 1.272 . S
O130 Co126 2.004 . S
O130 C135 1.259 . S
Co131 O132 2.061 . S
Co131 O137 2.052 . S
Co131 O139 2.135 . S
O132 Co131 2.061 . S
O132 C135 1.235 . S
C133 O136 1.238 . S
C133 O137 1.241 . S
C134 O127 1.247 . S
C134 O128 1.261 . S
C135 O130 1.259 . S
C135 O132 1.235 . S
O136 Co126 2.021 . S
O136 C133 1.238 . S
O137 Co131 2.052 . S
O137 C133 1.241 . S
O138 Co126 2.137 . S
O138 C129 1.247 . S
O139 Co126 2.244 . S
O139 C129 1.272 . S
O139 Co131 2.135 . S
Co140 O141 2.211 . S
Co140 O142 2.091 . S
Co140 O144 2.004 . S
Co140 O150 2.021 . S
Co140 O152 2.137 . S
Co140 O153 2.244 . S
O141 Co140 2.211 . S
O141 C148 1.248 . S
O142 Co140 2.091 . S
O142 C148 1.264 . S
C143 O152 1.247 . S
C143 O153 1.272 . S
O144 Co140 2.004 . S
O144 C149 1.259 . S
Co145 O146 2.061 . S
Co145 O151 2.052 . S
Co145 O153 2.135 . S
O146 Co145 2.061 . S
O146 C149 1.235 . S
C147 O150 1.238 . S
C147 O151 1.241 . S
C148 O141 1.248 . S
C148 O142 1.264 . S
C149 O144 1.259 . S
C149 O146 1.235 . S
O150 Co140 2.021 . S
O150 C147 1.238 . S
O151 Co145 2.052 . S
O151 C147 1.241 . S
O152 Co140 2.137 . S
O152 C143 1.247 . S
O153 Co140 2.244 . S
O153 C143 1.272 . S
O153 Co145 2.135 . S
Co154 O155 2.216 . S
Co154 O156 2.091 1_556 S
Co154 O158 2.000 . S
Co154 O164 2.021 1_556 S
Co154 O166 2.137 . S
Co154 O167 2.244 . S
O155 Co154 2.216 . S
O155 C162 1.250 . S
O156 Co154 2.091 1_554 S
O156 C162 1.264 1_554 S
C157 O166 1.247 . S
C157 O167 1.272 . S
O158 Co154 2.000 . S
O158 C163 1.254 1_556 S
Co159 O160 2.061 1_556 S
Co159 O165 2.052 1_556 S
Co159 O167 2.135 . S
O160 Co159 2.061 1_554 S
O160 C163 1.235 . S
C161 O164 1.238 . S
C161 O165 1.241 . S
C162 O155 1.250 . S
C162 O156 1.264 1_556 S
C163 O158 1.254 1_554 S
C163 O160 1.235 . S
O164 Co154 2.021 1_554 S
O164 C161 1.238 . S
O165 Co159 2.052 1_554 S
O165 C161 1.241 . S
O166 Co154 2.137 . S
O166 C157 1.247 . S
O167 Co154 2.244 . S
O167 C157 1.272 . S
O167 Co159 2.135 . S
Co168 O169 2.216 . S
Co168 O170 2.091 . S
Co168 O172 2.004 . S
Co168 O178 2.021 . S
Co168 O180 2.137 . S
Co168 O181 2.244 . S
O169 Co168 2.216 . S
O169 C176 1.247 . S
O170 Co168 2.091 . S
O170 C176 1.261 . S
C171 O180 1.247 . S
C171 O181 1.272 . S
O172 Co168 2.004 . S
O172 C177 1.259 . S
Co173 O174 2.061 . S
Co173 O179 2.052 . S
Co173 O181 2.135 . S
O174 Co173 2.061 . S
O174 C177 1.235 . S
C175 O178 1.238 . S
C175 O179 1.241 . S
C176 O169 1.247 . S
C176 O170 1.261 . S
C177 O172 1.259 . S
C177 O174 1.235 . S
O178 Co168 2.021 . S
O178 C175 1.238 . S
O179 Co173 2.052 . S
O179 C175 1.241 . S
O180 Co168 2.137 . S
O180 C171 1.247 . S
O181 Co168 2.244 . S
O181 C171 1.272 . S
O181 Co173 2.135 . S
Co182 O183 2.216 . S
Co182 O184 2.091 . S
Co182 O186 2.004 . S
Co182 O192 2.021 . S
Co182 O194 2.137 . S
Co182 O195 2.244 . S
O183 Co182 2.216 . S
O183 C190 1.247 . S
O184 Co182 2.091 . S
O184 C190 1.261 . S
C185 O194 1.247 . S
C185 O195 1.272 . S
O186 Co182 2.004 . S
O186 C191 1.259 . S
Co187 O188 2.061 . S
Co187 O193 2.052 . S
Co187 O195 2.135 . S
O188 Co187 2.061 . S
O188 C191 1.235 . S
C189 O192 1.238 . S
C189 O193 1.241 . S
C190 O183 1.247 . S
C190 O184 1.261 . S
C191 O186 1.259 . S
C191 O188 1.235 . S
O192 Co182 2.021 . S
O192 C189 1.238 . S
O193 Co187 2.052 . S
O193 C189 1.241 . S
O194 Co182 2.137 . S
O194 C185 1.247 . S
O195 Co182 2.244 . S
O195 C185 1.272 . S
O195 Co187 2.135 . S
Co196 O197 2.216 . S
Co196 O198 2.091 . S
Co196 O200 2.004 . S
Co196 O206 2.021 . S
Co196 O208 2.137 . S
Co196 O209 2.244 . S
O197 Co196 2.216 . S
O197 C204 1.247 . S
O198 Co196 2.091 . S
O198 C204 1.261 . S
C199 O208 1.247 . S
C199 O209 1.272 . S
O200 Co196 2.004 . S
O200 C205 1.259 . S
Co201 O202 2.061 . S
Co201 O207 2.052 . S
Co201 O209 2.135 . S
O202 Co201 2.061 . S
O202 C205 1.235 . S
C203 O206 1.238 . S
C203 O207 1.241 . S
C204 O197 1.247 . S
C204 O198 1.261 . S
C205 O200 1.259 . S
C205 O202 1.235 . S
O206 Co196 2.021 . S
O206 C203 1.238 . S
O207 Co201 2.052 . S
O207 C203 1.241 . S
O208 Co196 2.137 . S
O208 C199 1.247 . S
O209 Co196 2.244 . S
O209 C199 1.272 . S
O209 Co201 2.135 . S
Co210 O211 2.216 . S
Co210 O212 2.091 . S
Co210 O214 2.004 . S
Co210 O220 2.021 . S
Co210 O222 2.137 . S
Co210 O223 2.244 . S
O211 Co210 2.216 . S
O211 C218 1.247 . S
O212 Co210 2.091 . S
O212 C218 1.261 . S
C213 O222 1.247 . S
C213 O223 1.272 . S
O214 Co210 2.004 . S
O214 C219 1.259 . S
Co215 O216 2.061 . S
Co215 O221 2.052 . S
Co215 O223 2.135 . S
O216 Co215 2.061 . S
O216 C219 1.235 . S
C217 O220 1.238 . S
C217 O221 1.241 . S
C218 O211 1.247 . S
C218 O212 1.261 . S
C219 O214 1.259 . S
C219 O216 1.235 . S
O220 Co210 2.021 . S
O220 C217 1.238 . S
O221 Co215 2.052 . S
O221 C217 1.241 . S
O222 Co210 2.137 . S
O222 C213 1.247 . S
O223 Co210 2.244 . S
O223 C213 1.272 . S
O223 Co215 2.135 . S
Co224 O225 2.216 . S
Co224 O226 2.091 . S
Co224 O228 2.004 1_545 S
Co224 O234 2.021 . S
Co224 O236 2.137 . S
Co224 O237 2.244 . S
O225 Co224 2.216 . S
O225 C232 1.247 . S
O226 Co224 2.091 . S
O226 C232 1.261 . S
C227 O236 1.247 . S
C227 O237 1.272 . S
O228 Co224 2.004 1_565 S
O228 C233 1.259 . S
Co229 O230 2.061 . S
Co229 O235 2.052 1_565 S
Co229 O237 2.135 1_565 S
O230 Co229 2.061 . S
O230 C233 1.235 . S
C231 O234 1.238 . S
C231 O235 1.241 . S
C232 O225 1.247 . S
C232 O226 1.261 . S
C233 O228 1.259 . S
C233 O230 1.235 . S
O234 Co224 2.021 . S
O234 C231 1.238 . S
O235 Co229 2.052 1_545 S
O235 C231 1.241 . S
O236 Co224 2.137 . S
O236 C227 1.247 . S
O237 Co224 2.244 . S
O237 C227 1.272 . S
O237 Co229 2.135 1_545 S
Co238 O239 2.216 . S
Co238 O240 2.091 . S
Co238 O242 2.004 . S
Co238 O248 2.021 . S
Co238 O250 2.137 . S
Co238 O251 2.244 . S
O239 Co238 2.216 . S
O239 C246 1.247 . S
O240 Co238 2.091 . S
O240 C246 1.261 . S
C241 O250 1.247 . S
C241 O251 1.272 . S
O242 Co238 2.004 . S
O242 C247 1.259 . S
Co243 O244 2.061 . S
Co243 O249 2.052 . S
Co243 O251 2.135 . S
O244 Co243 2.061 . S
O244 C247 1.235 . S
C245 O248 1.238 . S
C245 O249 1.241 . S
C246 O239 1.247 . S
C246 O240 1.261 . S
C247 O242 1.259 . S
C247 O244 1.235 . S
O248 Co238 2.021 . S
O248 C245 1.238 . S
O249 Co243 2.052 . S
O249 C245 1.241 . S
O250 Co238 2.137 . S
O250 C241 1.247 . S
O251 Co238 2.244 . S
O251 C241 1.272 . S
O251 Co243 2.135 . S
Co252 O253 2.216 . S
Co252 O254 2.091 . S
Co252 O256 2.004 . S
Co252 O262 2.021 . S
Co252 O264 2.137 . S
Co252 O265 2.244 . S
O253 Co252 2.216 . S
O253 C260 1.247 . S
O254 Co252 2.091 . S
O254 C260 1.261 . S
C255 O264 1.247 . S
C255 O265 1.272 . S
O256 Co252 2.004 . S
O256 C261 1.259 . S
Co257 O258 2.061 . S
Co257 O263 2.052 . S
Co257 O265 2.135 . S
O258 Co257 2.061 . S
O258 C261 1.235 . S
C259 O262 1.238 . S
C259 O263 1.241 . S
C260 O253 1.247 . S
C260 O254 1.261 . S
C261 O256 1.259 . S
C261 O258 1.235 . S
O262 Co252 2.021 . S
O262 C259 1.238 . S
O263 Co257 2.052 . S
O263 C259 1.241 . S
O264 Co252 2.137 . S
O264 C255 1.247 . S
O265 Co252 2.244 . S
O265 C255 1.272 . S
O265 Co257 2.135 . S
Co266 O267 2.216 . S
Co266 O268 2.091 . S
Co266 O270 2.004 . S
Co266 O276 2.021 . S
Co266 O278 2.137 . S
Co266 O279 2.244 . S
O267 Co266 2.216 . S
O267 C274 1.247 . S
O268 Co266 2.091 . S
O268 C274 1.261 . S
C269 O278 1.247 . S
C269 O279 1.272 . S
O270 Co266 2.004 . S
O270 C275 1.259 . S
Co271 O272 2.061 . S
Co271 O277 2.052 . S
Co271 O279 2.135 . S
O272 Co271 2.061 . S
O272 C275 1.235 . S
C273 O276 1.238 . S
C273 O277 1.241 . S
C274 O267 1.247 . S
C274 O268 1.261 . S
C275 O270 1.259 . S
C275 O272 1.235 . S
O276 Co266 2.021 . S
O276 C273 1.238 . S
O277 Co271 2.052 . S
O277 C273 1.241 . S
O278 Co266 2.137 . S
O278 C269 1.247 . S
O279 Co266 2.244 . S
O279 C269 1.272 . S
O279 Co271 2.135 . S
Co280 O281 2.216 . S
Co280 O282 2.091 . S
Co280 O284 2.004 . S
Co280 O290 2.021 . S
Co280 O292 2.137 1_554 S
Co280 O293 2.244 1_554 S
O281 Co280 2.216 . S
O281 C288 1.247 . S
O282 Co280 2.091 . S
O282 C288 1.261 . S
C283 O292 1.247 . S
C283 O293 1.272 . S
O284 Co280 2.004 . S
O284 C289 1.259 . S
Co285 O286 2.061 . S
Co285 O291 2.052 . S
Co285 O293 2.135 1_554 S
O286 Co285 2.061 . S
O286 C289 1.235 . S
C287 O290 1.238 . S
C287 O291 1.241 . S
C288 O281 1.247 . S
C288 O282 1.261 . S
C289 O284 1.259 . S
C289 O286 1.235 . S
O290 Co280 2.021 . S
O290 C287 1.238 . S
O291 Co285 2.052 . S
O291 C287 1.241 . S
O292 Co280 2.137 1_556 S
O292 C283 1.247 . S
O293 Co280 2.244 1_556 S
O293 C283 1.272 . S
O293 Co285 2.135 1_556 S
Co294 O295 2.216 . S
Co294 O296 2.091 . S
Co294 O298 2.004 . S
Co294 O304 2.021 . S
Co294 O306 2.137 . S
Co294 O307 2.244 . S
O295 Co294 2.216 . S
O295 C302 1.247 . S
O296 Co294 2.091 . S
O296 C302 1.261 . S
C297 O306 1.247 . S
C297 O307 1.272 . S
O298 Co294 2.004 . S
O298 C303 1.259 . S
Co299 O300 2.061 . S
Co299 O305 2.052 . S
Co299 O307 2.135 . S
O300 Co299 2.061 . S
O300 C303 1.235 . S
C301 O304 1.238 . S
C301 O305 1.241 . S
C302 O295 1.247 . S
C302 O296 1.261 . S
C303 O298 1.259 . S
C303 O300 1.235 . S
O304 Co294 2.021 . S
O304 C301 1.238 . S
O305 Co299 2.052 . S
O305 C301 1.241 . S
O306 Co294 2.137 . S
O306 C297 1.247 . S
O307 Co294 2.244 . S
O307 C297 1.272 . S
O307 Co299 2.135 . S
Co308 O309 2.216 . S
Co308 O310 2.091 . S
Co308 O312 2.004 . S
Co308 O318 2.021 . S
Co308 O320 2.137 . S
Co308 O321 2.244 . S
O309 Co308 2.216 . S
O309 C316 1.247 . S
O310 Co308 2.091 . S
O310 C316 1.261 . S
C311 O320 1.247 . S
C311 O321 1.272 . S
O312 Co308 2.004 . S
O312 C317 1.259 . S
Co313 O314 2.061 . S
Co313 O319 2.052 . S
Co313 O321 2.135 . S
O314 Co313 2.061 . S
O314 C317 1.235 . S
C315 O318 1.238 . S
C315 O319 1.241 . S
C316 O309 1.247 . S
C316 O310 1.261 . S
C317 O312 1.259 . S
C317 O314 1.235 . S
O318 Co308 2.021 . S
O318 C315 1.238 . S
O319 Co313 2.052 . S
O319 C315 1.241 . S
O320 Co308 2.137 . S
O320 C311 1.247 . S
O321 Co308 2.244 . S
O321 C311 1.272 . S
O321 Co313 2.135 . S
Co322 O323 2.216 . S
Co322 O324 2.091 . S
Co322 O326 2.004 . S
Co322 O332 2.021 . S
Co322 O334 2.137 . S
Co322 O335 2.244 . S
O323 Co322 2.216 . S
O323 C330 1.247 . S
O324 Co322 2.091 . S
O324 C330 1.261 . S
C325 O334 1.247 . S
C325 O335 1.272 . S
O326 Co322 2.004 . S
O326 C331 1.259 . S
Co327 O328 2.061 . S
Co327 O333 2.052 . S
Co327 O335 2.135 . S
O328 Co327 2.061 . S
O328 C331 1.235 . S
C329 O332 1.238 . S
C329 O333 1.241 . S
C330 O323 1.247 . S
C330 O324 1.261 . S
C331 O326 1.259 . S
C331 O328 1.235 . S
O332 Co322 2.021 . S
O332 C329 1.238 . S
O333 Co327 2.052 . S
O333 C329 1.241 . S
O334 Co322 2.137 . S
O334 C325 1.247 . S
O335 Co322 2.244 . S
O335 C325 1.272 . S
O335 Co327 2.135 . S
Tb336 N365 2.617 . S
Tb336 N371 2.572 . S
Tb336 O380 2.465 . S
Tb336 O381 2.387 . S
Tb336 O383 2.428 . S
Tb336 O384 2.308 . S
Tb336 O388 2.349 . S
Tb336 O391 2.393 . S
Tb336 C400 2.802 . S
C337 N338 1.379 . S
C337 C340 1.416 . S
C337 C344 1.424 1_556 S
N338 C337 1.379 . S
N338 C341 1.334 . S
N338 Tb347 2.617 1_566 S
C339 C341 1.390 . S
C339 C342 1.339 . S
C339 H359 0.930 . S
C340 C337 1.416 . S
C340 C342 1.416 . S
C340 C346 1.448 . S
C341 N338 1.334 . S
C341 C339 1.390 . S
C341 H352 0.943 . S
C342 C339 1.339 . S
C342 C340 1.416 . S
C342 H363 0.930 . S
C343 C344 1.413 . S
C343 C345 1.395 1_554 S
C343 C349 1.416 . S
C344 C337 1.424 1_554 S
C344 C343 1.413 . S
C344 N348 1.361 . S
C345 C343 1.395 1_556 S
C345 C346 1.383 . S
C345 H360 0.908 1_556 S
C346 C340 1.448 . S
C346 C345 1.383 . S
C346 H361 0.930 . S
Tb347 N338 2.617 1_544 S
Tb347 N348 2.572 1_545 S
Tb347 O382 2.349 1_655 S
Tb347 O385 2.393 1_654 S
Tb347 O386 2.465 . S
Tb347 O387 2.387 1_645 S
Tb347 O389 2.428 1_554 S
Tb347 O390 2.308 1_655 S
Tb347 C411 2.802 . S
N348 C344 1.361 . S
N348 Tb347 2.572 1_565 S
N348 C350 1.340 . S
C349 C343 1.416 . S
C349 C351 1.332 . S
C349 H357 0.931 . S
C350 N348 1.340 . S
C350 C351 1.407 . S
C350 H356 0.930 . S
C351 C349 1.332 . S
C351 C350 1.407 . S
C351 H353 0.929 . S
H352 C341 0.943 . S
H353 C351 0.929 . S
H354 C369 0.930 . S
H355 C376 0.929 1_556 S
H356 C350 0.930 . S
H357 C349 0.931 . S
H358 C372 0.930 . S
H359 C339 0.930 . S
H360 C345 0.908 1_554 S
H361 C346 0.930 . S
H362 C367 0.930 . S
H363 C342 0.930 . S
H364 C375 0.931 . S
N365 Tb336 2.617 . S
N365 C366 1.379 . S
N365 C369 1.334 . S
C366 N365 1.379 . S
C366 C368 1.416 . S
C366 C374 1.424 . S
C367 H362 0.930 . S
C367 C369 1.390 . S
C367 C370 1.339 . S
C368 C366 1.416 . S
C368 C370 1.416 . S
C368 C401 1.448 . S
C369 H354 0.930 . S
C369 N365 1.334 . S
C369 C367 1.390 . S
C370 C367 1.339 . S
C370 C368 1.416 . S
C370 H377 0.930 . S
N371 Tb336 2.572 . S
N371 C372 1.340 . S
N371 C374 1.361 . S
C372 H358 0.930 . S
C372 N371 1.340 . S
C372 C376 1.407 . S
C373 C374 1.413 . S
C373 C375 1.416 . S
C373 C402 1.427 . S
C374 C366 1.424 . S
C374 N371 1.361 . S
C374 C373 1.413 . S
C375 H364 0.931 . S
C375 C373 1.416 . S
C375 C376 1.332 . S
C376 H355 0.929 1_554 S
C376 C372 1.407 . S
C376 C375 1.332 . S
H377 C370 0.930 . S
H378 C401 0.930 . S
H379 C402 0.929 . S
O380 Tb336 2.465 . S
O380 C400 1.264 . S
O381 Tb336 2.387 . S
O381 C392 1.264 . S
O382 Tb347 2.349 1_455 S
O382 C392 1.243 . S
O383 Tb336 2.428 . S
O383 C400 1.256 . S
O384 Tb336 2.308 . S
O384 C399 1.266 1_554 S
O385 Tb347 2.393 1_456 S
O385 C399 1.248 . S
O386 Tb347 2.465 . S
O386 C411 1.264 . S
O387 Tb347 2.387 1_465 S
O387 C403 1.264 . S
O388 Tb336 2.349 . S
O388 C403 1.243 1_545 S
O389 Tb347 2.428 1_556 S
O389 C411 1.256 1_556 S
O390 Tb347 2.308 1_455 S
O390 C410 1.266 . S
O391 Tb336 2.393 . S
O391 C410 1.248 . S
C392 O381 1.264 . S
C392 O382 1.243 . S
C393 C396 1.399 . S
C393 C398 1.383 . S
C393 C400 1.496 . S
C394 C395 1.390 . S
C394 C398 1.423 . S
C395 C394 1.390 . S
C395 C397 1.380 . S
C395 H412 0.929 1_545 S
C396 C393 1.399 . S
C396 C397 1.392 . S
C396 H413 0.929 . S
C397 C395 1.380 . S
C397 C396 1.392 . S
C397 H414 0.929 . S
C398 C393 1.383 . S
C398 C394 1.423 . S
C398 H415 0.931 . S
C399 O384 1.266 1_556 S
C399 O385 1.248 . S
C400 Tb336 2.802 . S
C400 O380 1.264 . S
C400 O383 1.256 . S
C400 C393 1.496 . S
C401 C368 1.448 . S
C401 H378 0.930 . S
C401 C402 1.328 . S
C402 C373 1.427 . S
C402 H379 0.929 . S
C402 C401 1.328 . S
C403 O387 1.264 . S
C403 O388 1.243 1_565 S
C404 C407 1.399 1_554 S
C404 C408 1.383 . S
C404 C411 1.496 . S
C405 C406 1.399 1_554 S
C405 C408 1.389 . S
C406 C405 1.399 1_556 S
C406 C409 1.380 . S
C406 H416 0.929 . S
C407 C404 1.399 1_556 S
C407 C409 1.392 . S
C407 H417 0.929 . S
C408 C404 1.383 . S
C408 C405 1.389 . S
C408 H418 0.931 . S
C409 C406 1.380 . S
C409 C407 1.392 . S
C409 H419 0.929 . S
C410 O390 1.266 . S
C410 O391 1.248 . S
C411 Tb347 2.802 . S
C411 O386 1.264 . S
C411 O389 1.256 1_554 S
C411 C404 1.496 . S
H412 C395 0.929 1_565 S
H413 C396 0.929 . S
H414 C397 0.929 . S
H415 C398 0.931 . S
H416 C406 0.929 . S
H417 C407 0.929 . S
H418 C408 0.931 . S
H419 C409 0.929 . S
Tb420 N449 2.617 . S
Tb420 N455 2.572 . S
Tb420 O464 2.465 . S
Tb420 O465 2.387 . S
Tb420 O467 2.428 . S
Tb420 O468 2.308 . S
Tb420 O472 2.349 . S
Tb420 O475 2.393 . S
Tb420 C484 2.802 . S
C421 N422 1.379 . S
C421 C424 1.416 . S
C421 C428 1.424 . S
N422 C421 1.379 . S
N422 C425 1.334 . S
N422 Tb431 2.617 . S
C423 C425 1.390 . S
C423 C426 1.339 . S
C423 H443 0.930 . S
C424 C421 1.416 . S
C424 C426 1.416 . S
C424 C430 1.448 . S
C425 N422 1.334 . S
C425 C423 1.390 . S
C425 H436 0.930 . S
C426 C423 1.339 . S
C426 C424 1.416 . S
C426 H447 0.930 . S
C427 C428 1.413 . S
C427 C429 1.427 . S
C427 C433 1.416 . S
C428 C421 1.424 . S
C428 C427 1.413 . S
C428 N432 1.361 . S
C429 C427 1.427 . S
C429 C430 1.328 . S
C429 H444 0.929 . S
C430 C424 1.448 . S
C430 C429 1.328 . S
C430 H445 0.930 . S
Tb431 N422 2.617 . S
Tb431 N432 2.572 . S
Tb431 O466 2.349 . S
Tb431 O469 2.393 . S
Tb431 O470 2.465 . S
Tb431 O471 2.387 . S
Tb431 O473 2.428 . S
Tb431 O474 2.308 . S
Tb431 C495 2.802 . S
N432 C428 1.361 . S
N432 Tb431 2.572 . S
N432 C434 1.340 . S
C433 C427 1.416 . S
C433 C435 1.332 . S
C433 H441 0.931 . S
C434 N432 1.340 . S
C434 C435 1.407 . S
C434 H440 0.930 . S
C435 C433 1.332 . S
C435 C434 1.407 . S
C435 H437 0.929 . S
H436 C425 0.930 . S
H437 C435 0.929 . S
H438 C453 0.930 . S
H439 C460 0.929 . S
H440 C434 0.930 . S
H441 C433 0.931 . S
H442 C456 0.930 . S
H443 C423 0.930 . S
H444 C429 0.929 . S
H445 C430 0.930 . S
H446 C451 0.930 . S
H447 C426 0.930 . S
H448 C459 0.931 . S
N449 Tb420 2.617 . S
N449 C450 1.379 . S
N449 C453 1.334 . S
C450 N449 1.379 . S
C450 C452 1.416 . S
C450 C458 1.424 . S
C451 H446 0.930 . S
C451 C453 1.390 . S
C451 C454 1.339 . S
C452 C450 1.416 . S
C452 C454 1.416 . S
C452 C485 1.448 . S
C453 H438 0.930 . S
C453 N449 1.334 . S
C453 C451 1.390 . S
C454 C451 1.339 . S
C454 C452 1.416 . S
C454 H461 0.930 . S
N455 Tb420 2.572 . S
N455 C456 1.340 . S
N455 C458 1.361 . S
C456 H442 0.930 . S
C456 N455 1.340 . S
C456 C460 1.407 . S
C457 C458 1.413 . S
C457 C459 1.416 . S
C457 C486 1.427 . S
C458 C450 1.424 . S
C458 N455 1.361 . S
C458 C457 1.413 . S
C459 H448 0.931 . S
C459 C457 1.416 . S
C459 C460 1.332 . S
C460 H439 0.929 . S
C460 C456 1.407 . S
C460 C459 1.332 . S
H461 C454 0.930 . S
H462 C485 0.930 . S
H463 C486 0.929 . S
O464 Tb420 2.465 . S
O464 C484 1.264 . S
O465 Tb420 2.387 . S
O465 C476 1.264 . S
O466 Tb431 2.349 . S
O466 C476 1.243 . S
O467 Tb420 2.428 . S
O467 C484 1.256 . S
O468 Tb420 2.308 . S
O468 C483 1.266 . S
O469 Tb431 2.393 . S
O469 C483 1.248 . S
O470 Tb431 2.465 . S
O470 C495 1.264 . S
O471 Tb431 2.387 . S
O471 C487 1.264 . S
O472 Tb420 2.349 . S
O472 C487 1.243 . S
O473 Tb431 2.428 . S
O473 C495 1.256 . S
O474 Tb431 2.308 . S
O474 C494 1.266 . S
O475 Tb420 2.393 . S
O475 C494 1.248 . S
C476 O465 1.264 . S
C476 O466 1.243 . S
C477 C480 1.399 . S
C477 C482 1.383 . S
C477 C484 1.496 . S
C478 C479 1.399 . S
C478 C482 1.389 . S
C479 C478 1.399 . S
C479 C481 1.380 . S
C479 H496 0.929 . S
C480 C477 1.399 . S
C480 C481 1.392 . S
C480 H497 0.929 . S
C481 C479 1.380 . S
C481 C480 1.392 . S
C481 H498 0.929 . S
C482 C477 1.383 . S
C482 C478 1.389 . S
C482 H499 0.931 . S
C483 O468 1.266 . S
C483 O469 1.248 . S
C484 Tb420 2.802 . S
C484 O464 1.264 . S
C484 O467 1.256 . S
C484 C477 1.496 . S
C485 C452 1.448 . S
C485 H462 0.930 . S
C485 C486 1.328 . S
C486 C457 1.427 . S
C486 H463 0.929 . S
C486 C485 1.328 . S
C487 O471 1.264 . S
C487 O472 1.243 . S
C488 C491 1.399 . S
C488 C492 1.383 . S
C488 C495 1.496 . S
C489 C490 1.399 . S
C489 C492 1.389 . S
C490 C489 1.399 . S
C490 C493 1.380 . S
C490 H500 0.929 . S
C491 C488 1.399 . S
C491 C493 1.392 . S
C491 H501 0.929 . S
C492 C488 1.383 . S
C492 C489 1.389 . S
C492 H502 0.931 . S
C493 C490 1.380 . S
C493 C491 1.392 . S
C493 H503 0.929 . S
C494 O474 1.266 . S
C494 O475 1.248 . S
C495 Tb431 2.802 . S
C495 O470 1.264 . S
C495 O473 1.256 . S
C495 C488 1.496 . S
H496 C479 0.929 . S
H497 C480 0.929 . S
H498 C481 0.929 . S
H499 C482 0.931 . S
H500 C490 0.929 . S
H501 C491 0.929 . S
H502 C492 0.931 . S
H503 C493 0.929 . S
Tb504 N533 2.617 1_545 S
Tb504 N539 2.572 1_545 S
Tb504 O548 2.465 . S
Tb504 O549 2.387 1_545 S
Tb504 O551 2.428 . S
Tb504 O552 2.308 . S
Tb504 O556 2.349 . S
Tb504 O559 2.393 . S
Tb504 C568 2.802 . S
C505 N506 1.379 . S
C505 C508 1.416 . S
C505 C512 1.424 . S
N506 C505 1.379 . S
N506 C509 1.334 . S
N506 Tb515 2.617 . S
C507 C509 1.390 . S
C507 C510 1.339 . S
C507 H527 0.930 . S
C508 C505 1.416 . S
C508 C510 1.416 . S
C508 C514 1.448 . S
C509 N506 1.334 . S
C509 C507 1.390 . S
C509 H520 0.930 . S
C510 C507 1.339 . S
C510 C508 1.416 . S
C510 H531 0.930 . S
C511 C512 1.413 . S
C511 C513 1.427 . S
C511 C517 1.416 . S
C512 C505 1.424 . S
C512 C511 1.413 . S
C512 N516 1.361 . S
C513 C511 1.427 . S
C513 C514 1.328 . S
C513 H528 0.929 . S
C514 C508 1.448 . S
C514 C513 1.328 . S
C514 H529 0.930 . S
Tb515 N506 2.617 . S
Tb515 N516 2.572 . S
Tb515 O550 2.349 1_545 S
Tb515 O553 2.393 . S
Tb515 O554 2.465 . S
Tb515 O555 2.387 . S
Tb515 O557 2.428 . S
Tb515 O558 2.308 . S
Tb515 C579 2.802 . S
N516 C512 1.361 . S
N516 Tb515 2.572 . S
N516 C518 1.340 . S
C517 C511 1.416 . S
C517 C519 1.332 . S
C517 H525 0.931 . S
C518 N516 1.340 . S
C518 C519 1.407 . S
C518 H524 0.930 . S
C519 C517 1.332 . S
C519 C518 1.407 . S
C519 H521 0.929 . S
H520 C509 0.930 . S
H521 C519 0.929 . S
H522 C537 0.903 1_545 S
H523 C544 0.929 . S
H524 C518 0.930 . S
H525 C517 0.931 . S
H526 C540 0.930 . S
H527 C507 0.930 . S
H528 C513 0.929 . S
H529 C514 0.930 . S
H530 C535 0.930 . S
H531 C510 0.930 . S
H532 C543 0.931 . S
N533 Tb504 2.617 1_565 S
N533 C534 1.379 . S
N533 C537 1.333 . S
C534 N533 1.379 . S
C534 C536 1.416 . S
C534 C542 1.424 . S
C535 H530 0.930 . S
C535 C537 1.418 . S
C535 C538 1.339 . S
C536 C534 1.416 . S
C536 C538 1.416 . S
C536 C569 1.448 . S
C537 H522 0.903 1_565 S
C537 N533 1.333 . S
C537 C535 1.418 . S
C538 C535 1.339 . S
C538 C536 1.416 . S
C538 H545 0.930 . S
N539 Tb504 2.572 1_565 S
N539 C540 1.340 . S
N539 C542 1.361 . S
C540 H526 0.930 . S
C540 N539 1.340 . S
C540 C544 1.407 . S
C541 C542 1.413 . S
C541 C543 1.416 . S
C541 C570 1.427 . S
C542 C534 1.424 . S
C542 N539 1.361 . S
C542 C541 1.413 . S
C543 H532 0.931 . S
C543 C541 1.416 . S
C543 C544 1.332 . S
C544 H523 0.929 . S
C544 C540 1.407 . S
C544 C543 1.332 . S
H545 C538 0.930 . S
H546 C569 0.930 . S
H547 C570 0.929 . S
O548 Tb504 2.465 . S
O548 C568 1.264 . S
O549 Tb504 2.387 1_565 S
O549 C560 1.264 . S
O550 Tb515 2.349 1_565 S
O550 C560 1.243 . S
O551 Tb504 2.428 . S
O551 C568 1.256 . S
O552 Tb504 2.308 . S
O552 C567 1.266 . S
O553 Tb515 2.393 . S
O553 C567 1.248 . S
O554 Tb515 2.465 . S
O554 C579 1.264 . S
O555 Tb515 2.387 . S
O555 C571 1.264 . S
O556 Tb504 2.349 . S
O556 C571 1.243 . S
O557 Tb515 2.428 . S
O557 C579 1.256 . S
O558 Tb515 2.308 . S
O558 C578 1.266 . S
O559 Tb504 2.393 . S
O559 C578 1.248 . S
C560 O549 1.264 . S
C560 O550 1.243 . S
C561 C564 1.399 . S
C561 C566 1.383 . S
C561 C568 1.496 . S
C562 C563 1.399 . S
C562 C566 1.389 . S
C563 C562 1.399 . S
C563 C565 1.380 . S
C563 H580 0.929 . S
C564 C561 1.399 . S
C564 C565 1.392 . S
C564 H581 0.929 . S
C565 C563 1.380 . S
C565 C564 1.392 . S
C565 H582 0.929 . S
C566 C561 1.383 . S
C566 C562 1.389 . S
C566 H583 0.931 . S
C567 O552 1.266 . S
C567 O553 1.248 . S
C568 Tb504 2.802 . S
C568 O548 1.264 . S
C568 O551 1.256 . S
C568 C561 1.496 . S
C569 C536 1.448 . S
C569 H546 0.930 . S
C569 C570 1.328 . S
C570 C541 1.427 . S
C570 H547 0.929 . S
C570 C569 1.328 . S
C571 O555 1.264 . S
C571 O556 1.243 . S
C572 C575 1.399 . S
C572 C576 1.383 . S
C572 C579 1.496 1_565 S
C573 C574 1.399 . S
C573 C576 1.389 . S
C574 C573 1.399 . S
C574 C577 1.380 . S
C574 H584 0.929 . S
C575 C572 1.399 . S
C575 C577 1.392 . S
C575 H585 0.929 . S
C576 C572 1.383 . S
C576 C573 1.389 . S
C576 H586 0.931 . S
C577 C574 1.380 . S
C577 C575 1.392 . S
C577 H587 0.929 . S
C578 O558 1.266 . S
C578 O559 1.248 . S
C579 Tb515 2.802 . S
C579 O554 1.264 . S
C579 O557 1.256 . S
C579 C572 1.496 1_545 S
H580 C563 0.929 . S
H581 C564 0.929 . S
H582 C565 0.929 . S
H583 C566 0.931 . S
H584 C574 0.929 . S
H585 C575 0.929 . S
H586 C576 0.931 . S
H587 C577 0.929 . S
Tb588 N617 2.617 . S
Tb588 N623 2.572 . S
Tb588 O632 2.465 . S
Tb588 O633 2.387 . S
Tb588 O635 2.428 . S
Tb588 O636 2.308 . S
Tb588 O640 2.349 . S
Tb588 O643 2.393 . S
Tb588 C652 2.802 . S
C589 N590 1.379 . S
C589 C592 1.416 . S
C589 C596 1.424 . S
N590 C589 1.379 . S
N590 C593 1.334 . S
N590 Tb599 2.617 . S
C591 C593 1.390 . S
C591 C594 1.339 . S
C591 H611 0.930 . S
C592 C589 1.416 . S
C592 C594 1.416 . S
C592 C598 1.448 . S
C593 N590 1.334 . S
C593 C591 1.390 . S
C593 H604 0.930 . S
C594 C591 1.339 . S
C594 C592 1.416 . S
C594 H615 0.930 . S
C595 C596 1.413 . S
C595 C597 1.427 . S
C595 C601 1.416 . S
C596 C589 1.424 . S
C596 C595 1.413 . S
C596 N600 1.361 . S
C597 C595 1.427 . S
C597 C598 1.328 . S
C597 H612 0.929 . S
C598 C592 1.448 . S
C598 C597 1.328 . S
C598 H613 0.930 . S
Tb599 N590 2.617 . S
Tb599 N600 2.572 . S
Tb599 O634 2.349 . S
Tb599 O637 2.393 . S
Tb599 O638 2.465 . S
Tb599 O639 2.387 . S
Tb599 O641 2.428 . S
Tb599 O642 2.308 . S
Tb599 C663 2.802 . S
N600 C596 1.361 . S
N600 Tb599 2.572 . S
N600 C602 1.340 . S
C601 C595 1.416 . S
C601 C603 1.332 . S
C601 H609 0.931 . S
C602 N600 1.340 . S
C602 C603 1.407 . S
C602 H608 0.930 . S
C603 C601 1.332 . S
C603 C602 1.407 . S
C603 H605 0.929 . S
H604 C593 0.930 . S
H605 C603 0.929 . S
H606 C621 0.930 . S
H607 C628 0.929 . S
H608 C602 0.930 . S
H609 C601 0.931 . S
H610 C624 0.930 . S
H611 C591 0.930 . S
H612 C597 0.929 . S
H613 C598 0.930 . S
H614 C619 0.930 . S
H615 C594 0.930 . S
H616 C627 0.931 . S
N617 Tb588 2.617 . S
N617 C618 1.379 . S
N617 C621 1.334 . S
C618 N617 1.379 . S
C618 C620 1.416 . S
C618 C626 1.424 . S
C619 H614 0.930 . S
C619 C621 1.390 . S
C619 C622 1.339 . S
C620 C618 1.416 . S
C620 C622 1.416 . S
C620 C653 1.448 . S
C621 H606 0.930 . S
C621 N617 1.334 . S
C621 C619 1.390 . S
C622 C619 1.339 . S
C622 C620 1.416 . S
C622 H629 0.930 . S
N623 Tb588 2.572 . S
N623 C624 1.340 . S
N623 C626 1.361 . S
C624 H610 0.930 . S
C624 N623 1.340 . S
C624 C628 1.407 . S
C625 C626 1.413 . S
C625 C627 1.416 . S
C625 C654 1.427 . S
C626 C618 1.424 . S
C626 N623 1.361 . S
C626 C625 1.413 . S
C627 H616 0.931 . S
C627 C625 1.416 . S
C627 C628 1.332 . S
C628 H607 0.929 . S
C628 C624 1.407 . S
C628 C627 1.332 . S
H629 C622 0.930 . S
H630 C653 0.930 . S
H631 C654 0.929 . S
O632 Tb588 2.465 . S
O632 C652 1.264 . S
O633 Tb588 2.387 . S
O633 C644 1.264 . S
O634 Tb599 2.349 . S
O634 C644 1.243 . S
O635 Tb588 2.428 . S
O635 C652 1.256 . S
O636 Tb588 2.308 . S
O636 C651 1.266 . S
O637 Tb599 2.393 . S
O637 C651 1.248 . S
O638 Tb599 2.465 . S
O638 C663 1.264 . S
O639 Tb599 2.387 . S
O639 C655 1.264 . S
O640 Tb588 2.349 . S
O640 C655 1.243 . S
O641 Tb599 2.428 . S
O641 C663 1.256 . S
O642 Tb599 2.308 . S
O642 C662 1.266 . S
O643 Tb588 2.393 . S
O643 C662 1.248 . S
C644 O633 1.264 . S
C644 O634 1.243 . S
C645 C648 1.399 . S
C645 C650 1.383 . S
C645 C652 1.496 . S
C646 C647 1.399 . S
C646 C650 1.389 . S
C647 C646 1.399 . S
C647 C649 1.380 . S
C647 H664 0.929 . S
C648 C645 1.399 . S
C648 C649 1.392 . S
C648 H665 0.929 . S
C649 C647 1.380 . S
C649 C648 1.392 . S
C649 H666 0.929 . S
C650 C645 1.383 . S
C650 C646 1.389 . S
C650 H667 0.931 . S
C651 O636 1.266 . S
C651 O637 1.248 . S
C652 Tb588 2.802 . S
C652 O632 1.264 . S
C652 O635 1.256 . S
C652 C645 1.496 . S
C653 C620 1.448 . S
C653 H630 0.930 . S
C653 C654 1.328 . S
C654 C625 1.427 . S
C654 H631 0.929 . S
C654 C653 1.328 . S
C655 O639 1.264 . S
C655 O640 1.243 . S
C656 C659 1.399 . S
C656 C660 1.383 . S
C656 C663 1.496 . S
C657 C658 1.399 . S
C657 C660 1.389 . S
C658 C657 1.399 . S
C658 C661 1.380 . S
C658 H668 0.929 . S
C659 C656 1.399 . S
C659 C661 1.392 . S
C659 H669 0.929 . S
C660 C656 1.383 . S
C660 C657 1.389 . S
C660 H670 0.931 . S
C661 C658 1.380 . S
C661 C659 1.392 . S
C661 H671 0.929 . S
C662 O642 1.266 . S
C662 O643 1.248 . S
C663 Tb599 2.802 . S
C663 O638 1.264 . S
C663 O641 1.256 . S
C663 C656 1.496 . S
H664 C647 0.929 . S
H665 C648 0.929 . S
H666 C649 0.929 . S
H667 C650 0.931 . S
H668 C658 0.929 . S
H669 C659 0.929 . S
H670 C660 0.931 . S
H671 C661 0.929 . S
Tb672 N701 2.617 . S
Tb672 N707 2.572 . S
Tb672 O716 2.465 . S
Tb672 O717 2.387 1_565 S
Tb672 O719 2.428 . S
Tb672 O720 2.290 1_565 S
Tb672 O724 2.349 1_565 S
Tb672 O727 2.393 1_565 S
Tb672 C736 2.802 . S
C673 N674 1.379 1_455 S
C673 C676 1.416 1_455 S
C673 C680 1.424 . S
N674 C673 1.379 1_655 S
N674 C677 1.334 . S
N674 Tb683 2.617 1_655 S
C675 C677 1.390 . S
C675 C678 1.339 . S
C675 H695 0.930 . S
C676 C673 1.416 1_655 S
C676 C678 1.416 . S
C676 C682 1.448 1_655 S
C677 N674 1.334 . S
C677 C675 1.390 . S
C677 H688 0.930 . S
C678 C675 1.339 . S
C678 C676 1.416 . S
C678 H699 0.930 . S
C679 C680 1.413 . S
C679 C681 1.427 . S
C679 C685 1.416 . S
C680 C673 1.424 . S
C680 C679 1.413 . S
C680 N684 1.361 . S
C681 C679 1.427 . S
C681 C682 1.328 . S
C681 H696 0.929 . S
C682 C676 1.448 1_455 S
C682 C681 1.328 . S
C682 H697 0.922 1_455 S
Tb683 N674 2.617 1_455 S
Tb683 N684 2.572 . S
Tb683 O718 2.349 . S
Tb683 O721 2.393 1_455 S
Tb683 O722 2.465 . S
Tb683 O723 2.387 . S
Tb683 O725 2.428 1_455 S
Tb683 O726 2.308 . S
Tb683 C747 2.802 . S
N684 C680 1.361 . S
N684 Tb683 2.572 . S
N684 C686 1.340 . S
C685 C679 1.416 . S
C685 C687 1.332 . S
C685 H693 0.931 . S
C686 N684 1.340 . S
C686 C687 1.407 . S
C686 H692 0.930 . S
C687 C685 1.332 . S
C687 C686 1.407 . S
C687 H689 0.929 . S
H688 C677 0.930 . S
H689 C687 0.929 . S
H690 C705 0.930 1_545 S
H691 C712 0.929 . S
H692 C686 0.930 . S
H693 C685 0.931 . S
H694 C708 0.892 1_655 S
H695 C675 0.930 . S
H696 C681 0.929 . S
H697 C682 0.922 1_655 S
H698 C703 0.930 . S
H699 C678 0.930 . S
H700 C711 0.950 . S
N701 Tb672 2.617 . S
N701 C702 1.379 . S
N701 C705 1.334 . S
C702 N701 1.379 . S
C702 C704 1.416 . S
C702 C710 1.424 . S
C703 H698 0.930 . S
C703 C705 1.390 . S
C703 C706 1.339 . S
C704 C702 1.416 . S
C704 C706 1.416 . S
C704 C737 1.448 . S
C705 H690 0.930 1_565 S
C705 N701 1.334 . S
C705 C703 1.390 . S
C706 C703 1.339 . S
C706 C704 1.416 . S
C706 H713 0.930 . S
N707 Tb672 2.572 . S
N707 C708 1.399 . S
N707 C710 1.361 . S
C708 H694 0.892 1_455 S
C708 N707 1.399 . S
C708 C712 1.387 1_455 S
C709 C710 1.413 . S
C709 C711 1.367 1_455 S
C709 C738 1.427 . S
C710 C702 1.424 . S
C710 N707 1.361 . S
C710 C709 1.413 . S
C711 H700 0.950 . S
C711 C709 1.367 1_655 S
C711 C712 1.365 . S
C712 H691 0.929 . S
C712 C708 1.387 1_655 S
C712 C711 1.365 . S
H713 C706 0.930 . S
H714 C737 0.930 . S
H715 C738 0.929 . S
O716 Tb672 2.465 . S
O716 C736 1.264 . S
O717 Tb672 2.387 1_545 S
O717 C728 1.264 . S
O718 Tb683 2.349 . S
O718 C728 1.243 . S
O719 Tb672 2.428 . S
O719 C736 1.256 . S
O720 Tb672 2.290 1_545 S
O720 C735 1.298 1_455 S
O721 Tb683 2.393 1_655 S
O721 C735 1.248 . S
O722 Tb683 2.465 . S
O722 C747 1.264 . S
O723 Tb683 2.387 . S
O723 C739 1.264 . S
O724 Tb672 2.349 1_545 S
O724 C739 1.243 . S
O725 Tb683 2.428 1_655 S
O725 C747 1.256 1_655 S
O726 Tb683 2.308 . S
O726 C746 1.266 . S
O727 Tb672 2.393 1_545 S
O727 C746 1.248 . S
C728 O717 1.264 . S
C728 O718 1.243 . S
C729 C732 1.399 . S
C729 C734 1.383 . S
C729 C736 1.496 . S
C730 C731 1.399 . S
C730 C734 1.389 . S
C731 C730 1.399 . S
C731 C733 1.380 . S
C731 H748 0.929 . S
C732 C729 1.399 . S
C732 C733 1.392 . S
C732 H749 0.929 . S
C733 C731 1.380 . S
C733 C732 1.392 . S
C733 H750 0.929 . S
C734 C729 1.383 . S
C734 C730 1.389 . S
C734 H751 0.931 . S
C735 O720 1.298 1_655 S
C735 O721 1.248 . S
C736 Tb672 2.802 . S
C736 O716 1.264 . S
C736 O719 1.256 . S
C736 C729 1.496 . S
C737 C704 1.448 . S
C737 H714 0.930 . S
C737 C738 1.328 . S
C738 C709 1.427 . S
C738 H715 0.929 . S
C738 C737 1.328 . S
C739 O723 1.264 . S
C739 O724 1.243 . S
C740 C743 1.399 1_455 S
C740 C744 1.383 . S
C740 C747 1.496 . S
C741 C742 1.435 . S
C741 C744 1.389 . S
C742 C741 1.435 . S
C742 C745 1.353 1_455 S
C742 H752 0.919 1_455 S
C743 C740 1.399 1_655 S
C743 C745 1.392 . S
C743 H753 0.929 . S
C744 C740 1.383 . S
C744 C741 1.389 . S
C744 H754 0.931 . S
C745 C742 1.353 1_655 S
C745 C743 1.392 . S
C745 H755 0.929 . S
C746 O726 1.266 . S
C746 O727 1.248 . S
C747 Tb683 2.802 . S
C747 O722 1.264 . S
C747 O725 1.256 1_455 S
C747 C740 1.496 . S
H748 C731 0.929 . S
H749 C732 0.929 . S
H750 C733 0.929 . S
H751 C734 0.931 . S
H752 C742 0.919 1_655 S
H753 C743 0.929 . S
H754 C744 0.931 . S
H755 C745 0.929 . S
Tb756 N785 2.617 . S
Tb756 N791 2.572 . S
Tb756 O800 2.465 . S
Tb756 O801 2.387 . S
Tb756 O803 2.428 . S
Tb756 O804 2.308 . S
Tb756 O808 2.349 . S
Tb756 O811 2.393 . S
Tb756 C820 2.802 . S
C757 N758 1.379 . S
C757 C760 1.416 . S
C757 C764 1.424 . S
N758 C757 1.379 . S
N758 C761 1.334 . S
N758 Tb767 2.617 . S
C759 C761 1.390 . S
C759 C762 1.339 . S
C759 H779 0.930 . S
C760 C757 1.416 . S
C760 C762 1.416 . S
C760 C766 1.448 . S
C761 N758 1.334 . S
C761 C759 1.390 . S
C761 H772 0.930 . S
C762 C759 1.339 . S
C762 C760 1.416 . S
C762 H783 0.930 . S
C763 C764 1.413 . S
C763 C765 1.427 . S
C763 C769 1.416 . S
C764 C757 1.424 . S
C764 C763 1.413 . S
C764 N768 1.361 . S
C765 C763 1.427 . S
C765 C766 1.328 . S
C765 H780 0.929 . S
C766 C760 1.448 . S
C766 C765 1.328 . S
C766 H781 0.930 . S
Tb767 N758 2.617 . S
Tb767 N768 2.572 . S
Tb767 O802 2.349 . S
Tb767 O805 2.393 . S
Tb767 O806 2.465 . S
Tb767 O807 2.387 . S
Tb767 O809 2.428 . S
Tb767 O810 2.308 . S
Tb767 C831 2.802 . S
N768 C764 1.361 . S
N768 Tb767 2.572 . S
N768 C770 1.340 . S
C769 C763 1.416 . S
C769 C771 1.332 . S
C769 H777 0.931 . S
C770 N768 1.340 . S
C770 C771 1.407 . S
C770 H776 0.930 . S
C771 C769 1.332 . S
C771 C770 1.407 . S
C771 H773 0.929 . S
H772 C761 0.930 . S
H773 C771 0.929 . S
H774 C789 0.930 . S
H775 C796 0.929 . S
H776 C770 0.930 . S
H777 C769 0.931 . S
H778 C792 0.930 . S
H779 C759 0.930 . S
H780 C765 0.929 . S
H781 C766 0.930 . S
H782 C787 0.930 . S
H783 C762 0.930 . S
H784 C795 0.931 . S
N785 Tb756 2.617 . S
N785 C786 1.379 . S
N785 C789 1.334 . S
C786 N785 1.379 . S
C786 C788 1.416 . S
C786 C794 1.424 . S
C787 H782 0.930 . S
C787 C789 1.390 . S
C787 C790 1.339 . S
C788 C786 1.416 . S
C788 C790 1.416 . S
C788 C821 1.448 . S
C789 H774 0.930 . S
C789 N785 1.334 . S
C789 C787 1.390 . S
C790 C787 1.339 . S
C790 C788 1.416 . S
C790 H797 0.930 . S
N791 Tb756 2.572 . S
N791 C792 1.340 . S
N791 C794 1.361 . S
C792 H778 0.930 . S
C792 N791 1.340 . S
C792 C796 1.407 . S
C793 C794 1.413 . S
C793 C795 1.416 . S
C793 C822 1.427 . S
C794 C786 1.424 . S
C794 N791 1.361 . S
C794 C793 1.413 . S
C795 H784 0.931 . S
C795 C793 1.416 . S
C795 C796 1.332 . S
C796 H775 0.929 . S
C796 C792 1.407 . S
C796 C795 1.332 . S
H797 C790 0.930 . S
H798 C821 0.930 . S
H799 C822 0.929 . S
O800 Tb756 2.465 . S
O800 C820 1.264 . S
O801 Tb756 2.387 . S
O801 C812 1.264 . S
O802 Tb767 2.349 . S
O802 C812 1.243 . S
O803 Tb756 2.428 . S
O803 C820 1.256 . S
O804 Tb756 2.308 . S
O804 C819 1.266 . S
O805 Tb767 2.393 . S
O805 C819 1.248 . S
O806 Tb767 2.465 . S
O806 C831 1.264 . S
O807 Tb767 2.387 . S
O807 C823 1.264 . S
O808 Tb756 2.349 . S
O808 C823 1.243 . S
O809 Tb767 2.428 . S
O809 C831 1.256 . S
O810 Tb767 2.308 . S
O810 C830 1.266 . S
O811 Tb756 2.393 . S
O811 C830 1.248 . S
C812 O801 1.264 . S
C812 O802 1.243 . S
C813 C816 1.399 . S
C813 C818 1.383 . S
C813 C820 1.496 . S
C814 C815 1.399 . S
C814 C818 1.389 . S
C815 C814 1.399 . S
C815 C817 1.380 . S
C815 H832 0.929 . S
C816 C813 1.399 . S
C816 C817 1.392 . S
C816 H833 0.929 . S
C817 C815 1.380 . S
C817 C816 1.392 . S
C817 H834 0.929 . S
C818 C813 1.383 . S
C818 C814 1.389 . S
C818 H835 0.931 . S
C819 O804 1.266 . S
C819 O805 1.248 . S
C820 Tb756 2.802 . S
C820 O800 1.264 . S
C820 O803 1.256 . S
C820 C813 1.496 . S
C821 C788 1.448 . S
C821 H798 0.930 . S
C821 C822 1.328 . S
C822 C793 1.427 . S
C822 H799 0.929 . S
C822 C821 1.328 . S
C823 O807 1.264 . S
C823 O808 1.243 . S
C824 C827 1.399 . S
C824 C828 1.383 . S
C824 C831 1.496 . S
C825 C826 1.399 . S
C825 C828 1.389 . S
C826 C825 1.399 . S
C826 C829 1.380 . S
C826 H836 0.929 . S
C827 C824 1.399 . S
C827 C829 1.392 . S
C827 H837 0.929 . S
C828 C824 1.383 . S
C828 C825 1.389 . S
C828 H838 0.931 . S
C829 C826 1.380 . S
C829 C827 1.392 . S
C829 H839 0.929 . S
C830 O810 1.266 . S
C830 O811 1.248 . S
C831 Tb767 2.802 . S
C831 O806 1.264 . S
C831 O809 1.256 . S
C831 C824 1.496 . S
H832 C815 0.929 . S
H833 C816 0.929 . S
H834 C817 0.929 . S
H835 C818 0.931 . S
H836 C826 0.929 . S
H837 C827 0.929 . S
H838 C828 0.931 . S
H839 C829 0.929 . S
Tb840 N869 2.617 . S
Tb840 N875 2.572 . S
Tb840 O884 2.465 . S
Tb840 O885 2.387 1_556 S
Tb840 O887 2.428 . S
Tb840 O888 2.315 . S
Tb840 O892 2.349 1_556 S
Tb840 O895 2.393 1_556 S
Tb840 C904 2.802 . S
C841 N842 1.395 . S
C841 C844 1.462 . S
C841 C848 1.364 1_565 S
N842 C841 1.395 . S
N842 C845 1.334 . S
N842 Tb851 2.617 1_565 S
C843 C845 1.390 . S
C843 C846 1.339 . S
C843 H863 0.930 . S
C844 C841 1.462 . S
C844 C846 1.416 . S
C844 C850 1.448 . S
C845 N842 1.334 . S
C845 C843 1.390 . S
C845 H856 0.930 . S
C846 C843 1.339 . S
C846 C844 1.416 . S
C846 H867 0.930 . S
C847 C848 1.413 . S
C847 C849 1.427 . S
C847 C853 1.416 . S
C848 C841 1.364 1_545 S
C848 C847 1.413 . S
C848 N852 1.361 . S
C849 C847 1.427 . S
C849 C850 1.328 1_545 S
C849 H864 0.929 . S
C850 C844 1.448 . S
C850 C849 1.328 1_565 S
C850 H865 0.930 . S
Tb851 N842 2.617 1_545 S
Tb851 N852 2.572 . S
Tb851 O886 2.349 . S
Tb851 O889 2.393 1_545 S
Tb851 O890 2.465 . S
Tb851 O891 2.387 . S
Tb851 O893 2.428 1_545 S
Tb851 O894 2.308 . S
Tb851 C915 2.802 . S
N852 C848 1.361 . S
N852 Tb851 2.572 . S
N852 C854 1.340 . S
C853 C847 1.416 . S
C853 C855 1.332 . S
C853 H861 0.931 . S
C854 N852 1.340 . S
C854 C855 1.407 . S
C854 H860 0.930 . S
C855 C853 1.332 . S
C855 C854 1.407 . S
C855 H857 0.929 . S
H856 C845 0.930 . S
H857 C855 0.929 . S
H858 C873 0.930 1_554 S
H859 C880 0.929 . S
H860 C854 0.930 . S
H861 C853 0.931 . S
H862 C876 0.908 1_565 S
H863 C843 0.930 . S
H864 C849 0.929 . S
H865 C850 0.930 . S
H866 C871 0.930 . S
H867 C846 0.930 . S
H868 C879 0.916 1_565 S
N869 Tb840 2.617 . S
N869 C870 1.379 . S
N869 C873 1.334 . S
C870 N869 1.379 . S
C870 C872 1.416 . S
C870 C878 1.424 . S
C871 H866 0.930 . S
C871 C873 1.390 . S
C871 C874 1.339 . S
C872 C870 1.416 . S
C872 C874 1.416 . S
C872 C905 1.448 . S
C873 H858 0.930 1_556 S
C873 N869 1.334 . S
C873 C871 1.390 . S
C874 C871 1.339 . S
C874 C872 1.416 . S
C874 H881 0.930 . S
N875 Tb840 2.572 . S
N875 C876 1.340 . S
N875 C878 1.361 . S
C876 H862 0.908 1_545 S
C876 N875 1.340 . S
C876 C880 1.407 1_545 S
C877 C878 1.413 . S
C877 C879 1.416 . S
C877 C906 1.427 . S
C878 C870 1.424 . S
C878 N875 1.361 . S
C878 C877 1.413 . S
C879 H868 0.916 1_545 S
C879 C877 1.416 . S
C879 C880 1.332 1_545 S
C880 H859 0.929 . S
C880 C876 1.407 1_565 S
C880 C879 1.332 1_565 S
H881 C874 0.930 . S
H882 C905 0.930 . S
H883 C906 0.929 . S
O884 Tb840 2.465 . S
O884 C904 1.264 . S
O885 Tb840 2.387 1_554 S
O885 C896 1.264 . S
O886 Tb851 2.349 . S
O886 C896 1.243 . S
O887 Tb840 2.428 . S
O887 C904 1.256 . S
O888 Tb840 2.315 . S
O888 C903 1.254 1_546 S
O889 Tb851 2.393 1_565 S
O889 C903 1.248 . S
O890 Tb851 2.465 . S
O890 C915 1.264 . S
O891 Tb851 2.387 . S
O891 C907 1.264 . S
O892 Tb840 2.349 1_554 S
O892 C907 1.243 . S
O893 Tb851 2.428 1_565 S
O893 C915 1.256 1_565 S
O894 Tb851 2.308 . S
O894 C914 1.266 . S
O895 Tb840 2.393 1_554 S
O895 C914 1.248 . S
C896 O885 1.264 . S
C896 O886 1.243 . S
C897 C900 1.399 . S
C897 C902 1.383 . S
C897 C904 1.496 . S
C898 C899 1.399 . S
C898 C902 1.389 . S
C899 C898 1.399 . S
C899 C901 1.380 . S
C899 H916 0.929 . S
C900 C897 1.399 . S
C900 C901 1.392 . S
C900 H917 0.929 . S
C901 C899 1.380 . S
C901 C900 1.392 . S
C901 H918 0.929 . S
C902 C897 1.383 . S
C902 C898 1.389 . S
C902 H919 0.931 . S
C903 O888 1.254 1_564 S
C903 O889 1.248 . S
C904 Tb840 2.802 . S
C904 O884 1.264 . S
C904 O887 1.256 . S
C904 C897 1.496 . S
C905 C872 1.448 . S
C905 H882 0.930 . S
C905 C906 1.328 . S
C906 C877 1.427 . S
C906 H883 0.929 . S
C906 C905 1.328 . S
C907 O891 1.264 . S
C907 O892 1.243 . S
C908 C911 1.399 . S
C908 C912 1.383 1_565 S
C908 C915 1.496 1_565 S
C909 C910 1.399 1_545 S
C909 C912 1.389 . S
C910 C909 1.399 1_565 S
C910 C913 1.380 . S
C910 H920 0.929 . S
C911 C908 1.399 . S
C911 C913 1.392 . S
C911 H921 0.929 . S
C912 C908 1.383 1_545 S
C912 C909 1.389 . S
C912 H922 0.931 . S
C913 C910 1.380 . S
C913 C911 1.392 . S
C913 H923 0.929 . S
C914 O894 1.266 . S
C914 O895 1.248 . S
C915 Tb851 2.802 . S
C915 O890 1.264 . S
C915 O893 1.256 1_545 S
C915 C908 1.496 1_545 S
H916 C899 0.929 . S
H917 C900 0.929 . S
H918 C901 0.929 . S
H919 C902 0.931 . S
H920 C910 0.929 . S
H921 C911 0.929 . S
H922 C912 0.931 . S
H923 C913 0.929 . S
Tb924 N953 2.617 . S
Tb924 N959 2.572 . S
Tb924 O968 2.465 . S
Tb924 O969 2.387 . S
Tb924 O971 2.428 . S
Tb924 O972 2.308 . S
Tb924 O976 2.349 . S
Tb924 O979 2.393 . S
Tb924 C988 2.802 . S
C925 N926 1.379 . S
C925 C928 1.416 . S
C925 C932 1.424 . S
N926 C925 1.379 . S
N926 C929 1.334 . S
N926 Tb935 2.617 . S
C927 C929 1.390 . S
C927 C930 1.339 . S
C927 H947 0.930 . S
C928 C925 1.416 . S
C928 C930 1.416 . S
C928 C934 1.448 . S
C929 N926 1.334 . S
C929 C927 1.390 . S
C929 H940 0.930 . S
C930 C927 1.339 . S
C930 C928 1.416 . S
C930 H951 0.930 . S
C931 C932 1.413 . S
C931 C933 1.427 . S
C931 C937 1.416 . S
C932 C925 1.424 . S
C932 C931 1.413 . S
C932 N936 1.361 . S
C933 C931 1.427 . S
C933 C934 1.328 . S
C933 H948 0.929 . S
C934 C928 1.448 . S
C934 C933 1.328 . S
C934 H949 0.930 . S
Tb935 N926 2.617 . S
Tb935 N936 2.572 . S
Tb935 O970 2.349 . S
Tb935 O973 2.393 . S
Tb935 O974 2.465 . S
Tb935 O975 2.387 . S
Tb935 O977 2.428 . S
Tb935 O978 2.308 . S
Tb935 C999 2.802 . S
N936 C932 1.361 . S
N936 Tb935 2.572 . S
N936 C938 1.340 . S
C937 C931 1.416 . S
C937 C939 1.332 . S
C937 H945 0.931 . S
C938 N936 1.340 . S
C938 C939 1.407 . S
C938 H944 0.930 . S
C939 C937 1.332 . S
C939 C938 1.407 . S
C939 H941 0.929 . S
H940 C929 0.930 . S
H941 C939 0.929 . S
H942 C957 0.930 . S
H943 C964 0.929 . S
H944 C938 0.930 . S
H945 C937 0.931 . S
H946 C960 0.930 . S
H947 C927 0.930 . S
H948 C933 0.929 . S
H949 C934 0.930 . S
H950 C955 0.930 . S
H951 C930 0.930 . S
H952 C963 0.931 . S
N953 Tb924 2.617 . S
N953 C954 1.379 . S
N953 C957 1.334 . S
C954 N953 1.379 . S
C954 C956 1.416 . S
C954 C962 1.424 . S
C955 H950 0.930 . S
C955 C957 1.390 . S
C955 C958 1.339 . S
C956 C954 1.416 . S
C956 C958 1.416 . S
C956 C989 1.448 . S
C957 H942 0.930 . S
C957 N953 1.334 . S
C957 C955 1.390 . S
C958 C955 1.339 . S
C958 C956 1.416 . S
C958 H965 0.930 . S
N959 Tb924 2.572 . S
N959 C960 1.340 . S
N959 C962 1.361 . S
C960 H946 0.930 . S
C960 N959 1.340 . S
C960 C964 1.407 . S
C961 C962 1.413 . S
C961 C963 1.416 . S
C961 C990 1.427 . S
C962 C954 1.424 . S
C962 N959 1.361 . S
C962 C961 1.413 . S
C963 H952 0.931 . S
C963 C961 1.416 . S
C963 C964 1.332 . S
C964 H943 0.929 . S
C964 C960 1.407 . S
C964 C963 1.332 . S
H965 C958 0.930 . S
H966 C989 0.930 . S
H967 C990 0.929 . S
O968 Tb924 2.465 . S
O968 C988 1.264 . S
O969 Tb924 2.387 . S
O969 C980 1.264 . S
O970 Tb935 2.349 . S
O970 C980 1.243 . S
O971 Tb924 2.428 . S
O971 C988 1.256 . S
O972 Tb924 2.308 . S
O972 C987 1.266 . S
O973 Tb935 2.393 . S
O973 C987 1.248 . S
O974 Tb935 2.465 . S
O974 C999 1.264 . S
O975 Tb935 2.387 . S
O975 C991 1.264 . S
O976 Tb924 2.349 . S
O976 C991 1.243 . S
O977 Tb935 2.428 . S
O977 C999 1.256 . S
O978 Tb935 2.308 . S
O978 C998 1.266 . S
O979 Tb924 2.393 . S
O979 C998 1.248 . S
C980 O969 1.264 . S
C980 O970 1.243 . S
C981 C984 1.399 . S
C981 C986 1.383 . S
C981 C988 1.496 . S
C982 C983 1.399 . S
C982 C986 1.389 . S
C983 C982 1.399 . S
C983 C985 1.380 . S
C983 H1000 0.929 . S
C984 C981 1.399 . S
C984 C985 1.392 . S
C984 H1001 0.929 . S
C985 C983 1.380 . S
C985 C984 1.392 . S
C985 H1002 0.929 . S
C986 C981 1.383 . S
C986 C982 1.389 . S
C986 H1003 0.931 . S
C987 O972 1.266 . S
C987 O973 1.248 . S
C988 Tb924 2.802 . S
C988 O968 1.264 . S
C988 O971 1.256 . S
C988 C981 1.496 . S
C989 C956 1.448 . S
C989 H966 0.930 . S
C989 C990 1.328 . S
C990 C961 1.427 . S
C990 H967 0.929 . S
C990 C989 1.328 . S
C991 O975 1.264 . S
C991 O976 1.243 . S
C992 C995 1.399 . S
C992 C996 1.383 . S
C992 C999 1.496 . S
C993 C994 1.399 . S
C993 C996 1.389 . S
C994 C993 1.399 . S
C994 C997 1.380 . S
C994 H1004 0.929 . S
C995 C992 1.399 . S
C995 C997 1.392 . S
C995 H1005 0.929 . S
C996 C992 1.383 . S
C996 C993 1.389 . S
C996 H1006 0.931 . S
C997 C994 1.380 . S
C997 C995 1.392 . S
C997 H1007 0.929 . S
C998 O978 1.266 . S
C998 O979 1.248 . S
C999 Tb935 2.802 . S
C999 O974 1.264 . S
C999 O977 1.256 . S
C999 C992 1.496 . S
H1000 C983 0.929 . S
H1001 C984 0.929 . S
H1002 C985 0.929 . S
H1003 C986 0.931 . S
H1004 C994 0.929 . S
H1005 C995 0.929 . S
H1006 C996 0.931 . S
H1007 C997 0.929 . S
Tb1008 N1037 2.617 1_554 S
Tb1008 N1043 2.572 1_554 S
Tb1008 O1052 2.465 . S
Tb1008 O1053 2.387 1_554 S
Tb1008 O1055 2.428 . S
Tb1008 O1056 2.308 . S
Tb1008 O1060 2.349 . S
Tb1008 O1063 2.393 . S
Tb1008 C1072 2.802 . S
C1009 N1010 1.379 . S
C1009 C1012 1.416 . S
C1009 C1016 1.424 . S
N1010 C1009 1.379 . S
N1010 C1013 1.334 . S
N1010 Tb1019 2.617 . S
C1011 C1013 1.390 . S
C1011 C1014 1.339 . S
C1011 H1031 0.930 . S
C1012 C1009 1.416 . S
C1012 C1014 1.416 . S
C1012 C1018 1.448 . S
C1013 N1010 1.334 . S
C1013 C1011 1.390 . S
C1013 H1024 0.930 . S
C1014 C1011 1.339 . S
C1014 C1012 1.416 . S
C1014 H1035 0.930 . S
C1015 C1016 1.413 . S
C1015 C1017 1.427 . S
C1015 C1021 1.416 . S
C1016 C1009 1.424 . S
C1016 C1015 1.413 . S
C1016 N1020 1.361 . S
C1017 C1015 1.427 . S
C1017 C1018 1.328 . S
C1017 H1032 0.929 . S
C1018 C1012 1.448 . S
C1018 C1017 1.328 . S
C1018 H1033 0.930 . S
Tb1019 N1010 2.617 . S
Tb1019 N1020 2.572 . S
Tb1019 O1054 2.349 1_554 S
Tb1019 O1057 2.393 . S
Tb1019 O1058 2.465 . S
Tb1019 O1059 2.387 . S
Tb1019 O1061 2.428 . S
Tb1019 O1062 2.308 . S
Tb1019 C1083 2.802 . S
N1020 C1016 1.361 . S
N1020 Tb1019 2.572 . S
N1020 C1022 1.340 . S
C1021 C1015 1.416 . S
C1021 C1023 1.332 . S
C1021 H1029 0.931 . S
C1022 N1020 1.340 . S
C1022 C1023 1.407 . S
C1022 H1028 0.930 . S
C1023 C1021 1.332 . S
C1023 C1022 1.407 . S
C1023 H1025 0.929 . S
H1024 C1013 0.930 . S
H1025 C1023 0.929 . S
H1026 C1041 0.930 1_554 S
H1027 C1048 0.929 . S
H1028 C1022 0.930 . S
H1029 C1021 0.931 . S
H1030 C1044 0.930 1_554 S
H1031 C1011 0.930 . S
H1032 C1017 0.929 . S
H1033 C1018 0.930 . S
H1034 C1039 0.930 . S
H1035 C1014 0.930 . S
H1036 C1047 0.931 . S
N1037 Tb1008 2.617 1_556 S
N1037 C1038 1.379 . S
N1037 C1041 1.334 . S
C1038 N1037 1.379 . S
C1038 C1040 1.416 . S
C1038 C1046 1.424 . S
C1039 H1034 0.930 . S
C1039 C1041 1.390 . S
C1039 C1042 1.339 . S
C1040 C1038 1.416 . S
C1040 C1042 1.416 . S
C1040 C1073 1.448 . S
C1041 H1026 0.930 1_556 S
C1041 N1037 1.334 . S
C1041 C1039 1.390 . S
C1042 C1039 1.339 . S
C1042 C1040 1.416 . S
C1042 H1049 0.930 . S
N1043 Tb1008 2.572 1_556 S
N1043 C1044 1.340 . S
N1043 C1046 1.361 . S
C1044 H1030 0.930 1_556 S
C1044 N1043 1.340 . S
C1044 C1048 1.407 . S
C1045 C1046 1.413 . S
C1045 C1047 1.416 . S
C1045 C1074 1.427 . S
C1046 C1038 1.424 . S
C1046 N1043 1.361 . S
C1046 C1045 1.413 . S
C1047 H1036 0.931 . S
C1047 C1045 1.416 . S
C1047 C1048 1.332 . S
C1048 H1027 0.929 . S
C1048 C1044 1.407 . S
C1048 C1047 1.332 . S
H1049 C1042 0.930 . S
H1050 C1073 0.930 . S
H1051 C1074 0.929 . S
O1052 Tb1008 2.465 . S
O1052 C1072 1.264 . S
O1053 Tb1008 2.387 1_556 S
O1053 C1064 1.264 . S
O1054 Tb1019 2.349 1_556 S
O1054 C1064 1.243 . S
O1055 Tb1008 2.428 . S
O1055 C1072 1.256 . S
O1056 Tb1008 2.308 . S
O1056 C1071 1.266 . S
O1057 Tb1019 2.393 . S
O1057 C1071 1.248 . S
O1058 Tb1019 2.465 . S
O1058 C1083 1.264 . S
O1059 Tb1019 2.387 . S
O1059 C1075 1.264 . S
O1060 Tb1008 2.349 . S
O1060 C1075 1.243 . S
O1061 Tb1019 2.428 . S
O1061 C1083 1.256 . S
O1062 Tb1019 2.308 . S
O1062 C1082 1.266 . S
O1063 Tb1008 2.393 . S
O1063 C1082 1.248 . S
C1064 O1053 1.264 . S
C1064 O1054 1.243 . S
C1065 C1068 1.399 . S
C1065 C1070 1.383 . S
C1065 C1072 1.496 . S
C1066 C1067 1.399 . S
C1066 C1070 1.389 . S
C1067 C1066 1.399 . S
C1067 C1069 1.380 . S
C1067 H1084 0.929 . S
C1068 C1065 1.399 . S
C1068 C1069 1.392 . S
C1068 H1085 0.929 . S
C1069 C1067 1.380 . S
C1069 C1068 1.392 . S
C1069 H1086 0.929 . S
C1070 C1065 1.383 . S
C1070 C1066 1.389 . S
C1070 H1087 0.931 . S
C1071 O1056 1.266 . S
C1071 O1057 1.248 . S
C1072 Tb1008 2.802 . S
C1072 O1052 1.264 . S
C1072 O1055 1.256 . S
C1072 C1065 1.496 . S
C1073 C1040 1.448 . S
C1073 H1050 0.930 . S
C1073 C1074 1.328 . S
C1074 C1045 1.427 . S
C1074 H1051 0.929 . S
C1074 C1073 1.328 . S
C1075 O1059 1.264 . S
C1075 O1060 1.243 . S
C1076 C1079 1.399 . S
C1076 C1080 1.383 . S
C1076 C1083 1.496 1_556 S
C1077 C1078 1.399 . S
C1077 C1080 1.389 . S
C1078 C1077 1.399 . S
C1078 C1081 1.380 . S
C1078 H1088 0.929 . S
C1079 C1076 1.399 . S
C1079 C1081 1.392 . S
C1079 H1089 0.945 . S
C1080 C1076 1.383 . S
C1080 C1077 1.389 . S
C1080 H1090 0.931 . S
C1081 C1078 1.380 . S
C1081 C1079 1.392 . S
C1081 H1091 0.929 . S
C1082 O1062 1.266 . S
C1082 O1063 1.248 . S
C1083 Tb1019 2.802 . S
C1083 O1058 1.264 . S
C1083 O1061 1.256 . S
C1083 C1076 1.496 1_554 S
H1084 C1067 0.929 . S
H1085 C1068 0.929 . S
H1086 C1069 0.929 . S
H1087 C1070 0.931 . S
H1088 C1078 0.929 . S
H1089 C1079 0.945 . S
H1090 C1080 0.931 . S
H1091 C1081 0.929 . S
Tb1092 N1121 2.617 . S
Tb1092 N1127 2.572 . S
Tb1092 O1136 2.465 . S
Tb1092 O1137 2.387 . S
Tb1092 O1139 2.428 . S
Tb1092 O1140 2.308 . S
Tb1092 O1144 2.349 . S
Tb1092 O1147 2.393 . S
Tb1092 C1156 2.802 . S
C1093 N1094 1.379 . S
C1093 C1096 1.416 . S
C1093 C1100 1.424 . S
N1094 C1093 1.379 . S
N1094 C1097 1.334 . S
N1094 Tb1103 2.617 . S
C1095 C1097 1.390 . S
C1095 C1098 1.339 . S
C1095 H1115 0.930 . S
C1096 C1093 1.416 . S
C1096 C1098 1.416 . S
C1096 C1102 1.448 . S
C1097 N1094 1.334 . S
C1097 C1095 1.390 . S
C1097 H1108 0.930 . S
C1098 C1095 1.339 . S
C1098 C1096 1.416 . S
C1098 H1119 0.930 . S
C1099 C1100 1.413 . S
C1099 C1101 1.427 . S
C1099 C1105 1.416 . S
C1100 C1093 1.424 . S
C1100 C1099 1.413 . S
C1100 N1104 1.361 . S
C1101 C1099 1.427 . S
C1101 C1102 1.328 . S
C1101 H1116 0.929 . S
C1102 C1096 1.448 . S
C1102 C1101 1.328 . S
C1102 H1117 0.930 . S
Tb1103 N1094 2.617 . S
Tb1103 N1104 2.572 . S
Tb1103 O1138 2.349 . S
Tb1103 O1141 2.393 . S
Tb1103 O1142 2.465 . S
Tb1103 O1143 2.387 . S
Tb1103 O1145 2.428 . S
Tb1103 O1146 2.308 . S
Tb1103 C1167 2.802 . S
N1104 C1100 1.361 . S
N1104 Tb1103 2.572 . S
N1104 C1106 1.340 . S
C1105 C1099 1.416 . S
C1105 C1107 1.332 . S
C1105 H1113 0.931 . S
C1106 N1104 1.340 . S
C1106 C1107 1.407 . S
C1106 H1112 0.930 . S
C1107 C1105 1.332 . S
C1107 C1106 1.407 . S
C1107 H1109 0.929 . S
H1108 C1097 0.930 . S
H1109 C1107 0.929 . S
H1110 C1125 0.930 . S
H1111 C1132 0.929 . S
H1112 C1106 0.930 . S
H1113 C1105 0.931 . S
H1114 C1128 0.930 . S
H1115 C1095 0.930 . S
H1116 C1101 0.929 . S
H1117 C1102 0.930 . S
H1118 C1123 0.930 . S
H1119 C1098 0.930 . S
H1120 C1131 0.931 . S
N1121 Tb1092 2.617 . S
N1121 C1122 1.379 . S
N1121 C1125 1.334 . S
C1122 N1121 1.379 . S
C1122 C1124 1.416 . S
C1122 C1130 1.424 . S
C1123 H1118 0.930 . S
C1123 C1125 1.390 . S
C1123 C1126 1.339 . S
C1124 C1122 1.416 . S
C1124 C1126 1.416 . S
C1124 C1157 1.448 . S
C1125 H1110 0.930 . S
C1125 N1121 1.334 . S
C1125 C1123 1.390 . S
C1126 C1123 1.339 . S
C1126 C1124 1.416 . S
C1126 H1133 0.930 . S
N1127 Tb1092 2.572 . S
N1127 C1128 1.340 . S
N1127 C1130 1.361 . S
C1128 H1114 0.930 . S
C1128 N1127 1.340 . S
C1128 C1132 1.407 . S
C1129 C1130 1.413 . S
C1129 C1131 1.416 . S
C1129 C1158 1.427 . S
C1130 C1122 1.424 . S
C1130 N1127 1.361 . S
C1130 C1129 1.413 . S
C1131 H1120 0.931 . S
C1131 C1129 1.416 . S
C1131 C1132 1.332 . S
C1132 H1111 0.929 . S
C1132 C1128 1.407 . S
C1132 C1131 1.332 . S
H1133 C1126 0.930 . S
H1134 C1157 0.930 . S
H1135 C1158 0.929 . S
O1136 Tb1092 2.465 . S
O1136 C1156 1.264 . S
O1137 Tb1092 2.387 . S
O1137 C1148 1.264 . S
O1138 Tb1103 2.349 . S
O1138 C1148 1.243 . S
O1139 Tb1092 2.428 . S
O1139 C1156 1.256 . S
O1140 Tb1092 2.308 . S
O1140 C1155 1.266 . S
O1141 Tb1103 2.393 . S
O1141 C1155 1.248 . S
O1142 Tb1103 2.465 . S
O1142 C1167 1.264 . S
O1143 Tb1103 2.387 . S
O1143 C1159 1.264 . S
O1144 Tb1092 2.349 . S
O1144 C1159 1.243 . S
O1145 Tb1103 2.428 . S
O1145 C1167 1.256 . S
O1146 Tb1103 2.308 . S
O1146 C1166 1.266 . S
O1147 Tb1092 2.393 . S
O1147 C1166 1.248 . S
C1148 O1137 1.264 . S
C1148 O1138 1.243 . S
C1149 C1152 1.399 . S
C1149 C1154 1.383 . S
C1149 C1156 1.496 . S
C1150 C1151 1.399 . S
C1150 C1154 1.389 . S
C1151 C1150 1.399 . S
C1151 C1153 1.380 . S
C1151 H1168 0.929 . S
C1152 C1149 1.399 . S
C1152 C1153 1.392 . S
C1152 H1169 0.929 . S
C1153 C1151 1.380 . S
C1153 C1152 1.392 . S
C1153 H1170 0.929 . S
C1154 C1149 1.383 . S
C1154 C1150 1.389 . S
C1154 H1171 0.931 . S
C1155 O1140 1.266 . S
C1155 O1141 1.248 . S
C1156 Tb1092 2.802 . S
C1156 O1136 1.264 . S
C1156 O1139 1.256 . S
C1156 C1149 1.496 . S
C1157 C1124 1.448 . S
C1157 H1134 0.930 . S
C1157 C1158 1.328 . S
C1158 C1129 1.427 . S
C1158 H1135 0.929 . S
C1158 C1157 1.328 . S
C1159 O1143 1.264 . S
C1159 O1144 1.243 . S
C1160 C1163 1.399 . S
C1160 C1164 1.383 . S
C1160 C1167 1.496 . S
C1161 C1162 1.399 . S
C1161 C1164 1.389 . S
C1162 C1161 1.399 . S
C1162 C1165 1.380 . S
C1162 H1172 0.929 . S
C1163 C1160 1.399 . S
C1163 C1165 1.392 . S
C1163 H1173 0.929 . S
C1164 C1160 1.383 . S
C1164 C1161 1.389 . S
C1164 H1174 0.931 . S
C1165 C1162 1.380 . S
C1165 C1163 1.392 . S
C1165 H1175 0.929 . S
C1166 O1146 1.266 . S
C1166 O1147 1.248 . S
C1167 Tb1103 2.802 . S
C1167 O1142 1.264 . S
C1167 O1145 1.256 . S
C1167 C1160 1.496 . S
H1168 C1151 0.929 . S
H1169 C1152 0.929 . S
H1170 C1153 0.929 . S
H1171 C1154 0.931 . S
H1172 C1162 0.929 . S
H1173 C1163 0.929 . S
H1174 C1164 0.931 . S
H1175 C1165 0.929 . S
Tb1176 N1205 2.617 1_455 S
Tb1176 N1211 2.572 1_455 S
Tb1176 O1220 2.465 . S
Tb1176 O1221 2.387 1_455 S
Tb1176 O1223 2.428 . S
Tb1176 O1224 2.308 . S
Tb1176 O1228 2.349 . S
Tb1176 O1231 2.393 . S
Tb1176 C1240 2.802 . S
C1177 N1178 1.379 . S
C1177 C1180 1.416 . S
C1177 C1184 1.424 . S
N1178 C1177 1.379 . S
N1178 C1181 1.334 . S
N1178 Tb1187 2.617 . S
C1179 C1181 1.390 . S
C1179 C1182 1.339 . S
C1179 H1199 0.930 . S
C1180 C1177 1.416 . S
C1180 C1182 1.416 . S
C1180 C1186 1.448 . S
C1181 N1178 1.334 . S
C1181 C1179 1.390 . S
C1181 H1192 0.930 . S
C1182 C1179 1.339 . S
C1182 C1180 1.416 . S
C1182 H1203 0.930 . S
C1183 C1184 1.413 . S
C1183 C1185 1.427 . S
C1183 C1189 1.416 . S
C1184 C1177 1.424 . S
C1184 C1183 1.413 . S
C1184 N1188 1.361 . S
C1185 C1183 1.427 . S
C1185 C1186 1.328 . S
C1185 H1200 0.929 . S
C1186 C1180 1.448 . S
C1186 C1185 1.328 . S
C1186 H1201 0.930 . S
Tb1187 N1178 2.617 . S
Tb1187 N1188 2.572 . S
Tb1187 O1222 2.349 1_455 S
Tb1187 O1225 2.393 . S
Tb1187 O1226 2.465 . S
Tb1187 O1227 2.387 . S
Tb1187 O1229 2.428 . S
Tb1187 O1230 2.308 . S
Tb1187 C1251 2.802 . S
N1188 C1184 1.361 . S
N1188 Tb1187 2.572 . S
N1188 C1190 1.340 . S
C1189 C1183 1.416 . S
C1189 C1191 1.332 . S
C1189 H1197 0.931 . S
C1190 N1188 1.340 . S
C1190 C1191 1.407 . S
C1190 H1196 0.930 . S
C1191 C1189 1.332 . S
C1191 C1190 1.407 . S
C1191 H1193 0.929 . S
H1192 C1181 0.930 . S
H1193 C1191 0.929 . S
H1194 C1209 0.930 1_455 S
H1195 C1216 0.929 . S
H1196 C1190 0.930 . S
H1197 C1189 0.931 . S
H1198 C1212 0.930 1_455 S
H1199 C1179 0.930 . S
H1200 C1185 0.929 . S
H1201 C1186 0.930 . S
H1202 C1207 0.930 . S
H1203 C1182 0.930 . S
H1204 C1215 0.931 . S
N1205 Tb1176 2.617 1_655 S
N1205 C1206 1.379 . S
N1205 C1209 1.334 . S
C1206 N1205 1.379 . S
C1206 C1208 1.416 . S
C1206 C1214 1.424 . S
C1207 H1202 0.930 . S
C1207 C1209 1.390 . S
C1207 C1210 1.339 . S
C1208 C1206 1.416 . S
C1208 C1210 1.416 . S
C1208 C1241 1.448 . S
C1209 H1194 0.930 1_655 S
C1209 N1205 1.334 . S
C1209 C1207 1.390 . S
C1210 C1207 1.339 . S
C1210 C1208 1.416 . S
C1210 H1217 0.930 . S
N1211 Tb1176 2.572 1_655 S
N1211 C1212 1.340 . S
N1211 C1214 1.361 . S
C1212 H1198 0.930 1_655 S
C1212 N1211 1.340 . S
C1212 C1216 1.407 . S
C1213 C1214 1.413 . S
C1213 C1215 1.416 . S
C1213 C1242 1.427 . S
C1214 C1206 1.424 . S
C1214 N1211 1.361 . S
C1214 C1213 1.413 . S
C1215 H1204 0.931 . S
C1215 C1213 1.416 . S
C1215 C1216 1.332 . S
C1216 H1195 0.929 . S
C1216 C1212 1.407 . S
C1216 C1215 1.332 . S
H1217 C1210 0.930 . S
H1218 C1241 0.930 . S
H1219 C1242 0.929 . S
O1220 Tb1176 2.465 . S
O1220 C1240 1.264 . S
O1221 Tb1176 2.387 1_655 S
O1221 C1232 1.264 . S
O1222 Tb1187 2.349 1_655 S
O1222 C1232 1.243 . S
O1223 Tb1176 2.428 . S
O1223 C1240 1.256 . S
O1224 Tb1176 2.308 . S
O1224 C1239 1.266 . S
O1225 Tb1187 2.393 . S
O1225 C1239 1.248 . S
O1226 Tb1187 2.465 . S
O1226 C1251 1.264 . S
O1227 Tb1187 2.387 . S
O1227 C1243 1.264 . S
O1228 Tb1176 2.349 . S
O1228 C1243 1.243 . S
O1229 Tb1187 2.428 . S
O1229 C1251 1.256 . S
O1230 Tb1187 2.308 . S
O1230 C1250 1.266 . S
O1231 Tb1176 2.393 . S
O1231 C1250 1.248 . S
C1232 O1221 1.264 . S
C1232 O1222 1.243 . S
C1233 C1236 1.399 . S
C1233 C1238 1.383 . S
C1233 C1240 1.496 . S
C1234 C1235 1.399 . S
C1234 C1238 1.389 . S
C1235 C1234 1.399 . S
C1235 C1237 1.380 . S
C1235 H1252 0.929 . S
C1236 C1233 1.399 . S
C1236 C1237 1.392 . S
C1236 H1253 0.929 . S
C1237 C1235 1.380 . S
C1237 C1236 1.392 . S
C1237 H1254 0.929 . S
C1238 C1233 1.383 . S
C1238 C1234 1.389 . S
C1238 H1255 0.931 . S
C1239 O1224 1.266 . S
C1239 O1225 1.248 . S
C1240 Tb1176 2.802 . S
C1240 O1220 1.264 . S
C1240 O1223 1.256 . S
C1240 C1233 1.496 . S
C1241 C1208 1.448 . S
C1241 H1218 0.930 . S
C1241 C1242 1.328 . S
C1242 C1213 1.427 . S
C1242 H1219 0.929 . S
C1242 C1241 1.328 . S
C1243 O1227 1.264 . S
C1243 O1228 1.243 . S
C1244 C1247 1.399 . S
C1244 C1248 1.383 . S
C1244 C1251 1.496 1_655 S
C1245 C1246 1.399 . S
C1245 C1248 1.389 . S
C1246 C1245 1.399 . S
C1246 C1249 1.380 . S
C1246 H1256 0.929 . S
C1247 C1244 1.399 . S
C1247 C1249 1.392 . S
C1247 H1257 0.929 . S
C1248 C1244 1.383 . S
C1248 C1245 1.389 . S
C1248 H1258 0.931 . S
C1249 C1246 1.380 . S
C1249 C1247 1.392 . S
C1249 H1259 0.929 . S
C1250 O1230 1.266 . S
C1250 O1231 1.248 . S
C1251 Tb1187 2.802 . S
C1251 O1226 1.264 . S
C1251 O1229 1.256 . S
C1251 C1244 1.496 1_455 S
H1252 C1235 0.929 . S
H1253 C1236 0.929 . S
H1254 C1237 0.929 . S
H1255 C1238 0.931 . S
H1256 C1246 0.929 . S
H1257 C1247 0.929 . S
H1258 C1248 0.931 . S
H1259 C1249 0.929 . S
Tb1260 N1289 2.617 . S
Tb1260 N1295 2.572 . S
Tb1260 O1304 2.465 . S
Tb1260 O1305 2.387 . S
Tb1260 O1307 2.428 . S
Tb1260 O1308 2.308 . S
Tb1260 O1312 2.349 . S
Tb1260 O1315 2.393 . S
Tb1260 C1324 2.802 . S
C1261 N1262 1.379 . S
C1261 C1264 1.416 . S
C1261 C1268 1.424 . S
N1262 C1261 1.379 . S
N1262 C1265 1.334 . S
N1262 Tb1271 2.617 . S
C1263 C1265 1.390 . S
C1263 C1266 1.339 . S
C1263 H1283 0.930 . S
C1264 C1261 1.416 . S
C1264 C1266 1.416 . S
C1264 C1270 1.448 . S
C1265 N1262 1.334 . S
C1265 C1263 1.390 . S
C1265 H1276 0.930 . S
C1266 C1263 1.339 . S
C1266 C1264 1.416 . S
C1266 H1287 0.930 . S
C1267 C1268 1.413 . S
C1267 C1269 1.427 . S
C1267 C1273 1.416 . S
C1268 C1261 1.424 . S
C1268 C1267 1.413 . S
C1268 N1272 1.361 . S
C1269 C1267 1.427 . S
C1269 C1270 1.328 . S
C1269 H1284 0.929 . S
C1270 C1264 1.448 . S
C1270 C1269 1.328 . S
C1270 H1285 0.930 . S
Tb1271 N1262 2.617 . S
Tb1271 N1272 2.572 . S
Tb1271 O1306 2.349 . S
Tb1271 O1309 2.393 . S
Tb1271 O1310 2.465 . S
Tb1271 O1311 2.387 . S
Tb1271 O1313 2.428 . S
Tb1271 O1314 2.308 . S
Tb1271 C1335 2.802 . S
N1272 C1268 1.361 . S
N1272 Tb1271 2.572 . S
N1272 C1274 1.340 . S
C1273 C1267 1.416 . S
C1273 C1275 1.332 . S
C1273 H1281 0.931 . S
C1274 N1272 1.340 . S
C1274 C1275 1.407 . S
C1274 H1280 0.930 . S
C1275 C1273 1.332 . S
C1275 C1274 1.407 . S
C1275 H1277 0.929 . S
H1276 C1265 0.930 . S
H1277 C1275 0.929 . S
H1278 C1293 0.930 . S
H1279 C1300 0.929 . S
H1280 C1274 0.930 . S
H1281 C1273 0.931 . S
H1282 C1296 0.930 . S
H1283 C1263 0.930 . S
H1284 C1269 0.929 . S
H1285 C1270 0.930 . S
H1286 C1291 0.930 . S
H1287 C1266 0.930 . S
H1288 C1299 0.931 . S
N1289 Tb1260 2.617 . S
N1289 C1290 1.379 . S
N1289 C1293 1.334 . S
C1290 N1289 1.379 . S
C1290 C1292 1.416 . S
C1290 C1298 1.424 . S
C1291 H1286 0.930 . S
C1291 C1293 1.390 . S
C1291 C1294 1.339 . S
C1292 C1290 1.416 . S
C1292 C1294 1.416 . S
C1292 C1325 1.448 . S
C1293 H1278 0.930 . S
C1293 N1289 1.334 . S
C1293 C1291 1.390 . S
C1294 C1291 1.339 . S
C1294 C1292 1.416 . S
C1294 H1301 0.930 . S
N1295 Tb1260 2.572 . S
N1295 C1296 1.340 . S
N1295 C1298 1.361 . S
C1296 H1282 0.930 . S
C1296 N1295 1.340 . S
C1296 C1300 1.407 . S
C1297 C1298 1.413 . S
C1297 C1299 1.416 . S
C1297 C1326 1.427 . S
C1298 C1290 1.424 . S
C1298 N1295 1.361 . S
C1298 C1297 1.413 . S
C1299 H1288 0.931 . S
C1299 C1297 1.416 . S
C1299 C1300 1.332 . S
C1300 H1279 0.929 . S
C1300 C1296 1.407 . S
C1300 C1299 1.332 . S
H1301 C1294 0.930 . S
H1302 C1325 0.930 . S
H1303 C1326 0.929 . S
O1304 Tb1260 2.465 . S
O1304 C1324 1.264 . S
O1305 Tb1260 2.387 . S
O1305 C1316 1.264 . S
O1306 Tb1271 2.349 . S
O1306 C1316 1.243 . S
O1307 Tb1260 2.428 . S
O1307 C1324 1.256 . S
O1308 Tb1260 2.308 . S
O1308 C1323 1.266 . S
O1309 Tb1271 2.393 . S
O1309 C1323 1.248 . S
O1310 Tb1271 2.465 . S
O1310 C1335 1.264 . S
O1311 Tb1271 2.387 . S
O1311 C1327 1.264 . S
O1312 Tb1260 2.349 . S
O1312 C1327 1.243 . S
O1313 Tb1271 2.428 . S
O1313 C1335 1.256 . S
O1314 Tb1271 2.308 . S
O1314 C1334 1.266 . S
O1315 Tb1260 2.393 . S
O1315 C1334 1.248 . S
C1316 O1305 1.264 . S
C1316 O1306 1.243 . S
C1317 C1320 1.399 . S
C1317 C1322 1.383 . S
C1317 C1324 1.496 . S
C1318 C1319 1.399 . S
C1318 C1322 1.389 . S
C1319 C1318 1.399 . S
C1319 C1321 1.380 . S
C1319 H1336 0.929 . S
C1320 C1317 1.399 . S
C1320 C1321 1.392 . S
C1320 H1337 0.929 . S
C1321 C1319 1.380 . S
C1321 C1320 1.392 . S
C1321 H1338 0.929 . S
C1322 C1317 1.383 . S
C1322 C1318 1.389 . S
C1322 H1339 0.931 . S
C1323 O1308 1.266 . S
C1323 O1309 1.248 . S
C1324 Tb1260 2.802 . S
C1324 O1304 1.264 . S
C1324 O1307 1.256 . S
C1324 C1317 1.496 . S
C1325 C1292 1.448 . S
C1325 H1302 0.930 . S
C1325 C1326 1.328 . S
C1326 C1297 1.427 . S
C1326 H1303 0.929 . S
C1326 C1325 1.328 . S
C1327 O1311 1.264 . S
C1327 O1312 1.243 . S
C1328 C1331 1.399 . S
C1328 C1332 1.383 . S
C1328 C1335 1.496 . S
C1329 C1330 1.399 . S
C1329 C1332 1.389 . S
C1330 C1329 1.399 . S
C1330 C1333 1.380 . S
C1330 H1340 0.929 . S
C1331 C1328 1.399 . S
C1331 C1333 1.392 . S
C1331 H1341 0.929 . S
C1332 C1328 1.383 . S
C1332 C1329 1.389 . S
C1332 H1342 0.931 . S
C1333 C1330 1.380 . S
C1333 C1331 1.392 . S
C1333 H1343 0.929 . S
C1334 O1314 1.266 . S
C1334 O1315 1.248 . S
C1335 Tb1271 2.802 . S
C1335 O1310 1.264 . S
C1335 O1313 1.256 . S
C1335 C1328 1.496 . S
H1336 C1319 0.929 . S
H1337 C1320 0.929 . S
H1338 C1321 0.929 . S
H1339 C1322 0.931 . S
H1340 C1330 0.929 . S
H1341 C1331 0.929 . S
H1342 C1332 0.931 . S
H1343 C1333 0.929 . S
Tb1344 N1373 2.617 . S
Tb1344 N1379 2.572 . S
Tb1344 O1388 2.465 . S
Tb1344 O1389 2.387 . S
Tb1344 O1391 2.428 . S
Tb1344 O1392 2.308 . S
Tb1344 O1396 2.349 . S
Tb1344 O1399 2.393 . S
Tb1344 C1408 2.802 . S
C1345 N1346 1.379 . S
C1345 C1348 1.416 . S
C1345 C1352 1.424 . S
N1346 C1345 1.379 . S
N1346 C1349 1.334 . S
N1346 Tb1355 2.617 . S
C1347 C1349 1.390 . S
C1347 C1350 1.339 . S
C1347 H1367 0.930 . S
C1348 C1345 1.416 . S
C1348 C1350 1.416 . S
C1348 C1354 1.448 . S
C1349 N1346 1.334 . S
C1349 C1347 1.390 . S
C1349 H1360 0.930 . S
C1350 C1347 1.339 . S
C1350 C1348 1.416 . S
C1350 H1371 0.930 . S
C1351 C1352 1.413 . S
C1351 C1353 1.427 . S
C1351 C1357 1.416 . S
C1352 C1345 1.424 . S
C1352 C1351 1.413 . S
C1352 N1356 1.361 . S
C1353 C1351 1.427 . S
C1353 C1354 1.328 . S
C1353 H1368 0.929 . S
C1354 C1348 1.448 . S
C1354 C1353 1.328 . S
C1354 H1369 0.930 . S
Tb1355 N1346 2.617 . S
Tb1355 N1356 2.572 . S
Tb1355 O1390 2.349 . S
Tb1355 O1393 2.393 . S
Tb1355 O1394 2.465 . S
Tb1355 O1395 2.387 . S
Tb1355 O1397 2.428 . S
Tb1355 O1398 2.308 . S
Tb1355 C1419 2.802 . S
N1356 C1352 1.361 . S
N1356 Tb1355 2.572 . S
N1356 C1358 1.340 . S
C1357 C1351 1.416 . S
C1357 C1359 1.332 . S
C1357 H1365 0.931 . S
C1358 N1356 1.340 . S
C1358 C1359 1.407 . S
C1358 H1364 0.930 . S
C1359 C1357 1.332 . S
C1359 C1358 1.407 . S
C1359 H1361 0.929 . S
H1360 C1349 0.930 . S
H1361 C1359 0.929 . S
H1362 C1377 0.930 . S
H1363 C1384 0.929 . S
H1364 C1358 0.930 . S
H1365 C1357 0.931 . S
H1366 C1380 0.930 . S
H1367 C1347 0.930 . S
H1368 C1353 0.929 . S
H1369 C1354 0.930 . S
H1370 C1375 0.930 . S
H1371 C1350 0.930 . S
H1372 C1383 0.931 . S
N1373 Tb1344 2.617 . S
N1373 C1374 1.379 . S
N1373 C1377 1.334 . S
C1374 N1373 1.379 . S
C1374 C1376 1.416 . S
C1374 C1382 1.424 . S
C1375 H1370 0.930 . S
C1375 C1377 1.390 . S
C1375 C1378 1.339 . S
C1376 C1374 1.416 . S
C1376 C1378 1.416 . S
C1376 C1409 1.448 . S
C1377 H1362 0.930 . S
C1377 N1373 1.334 . S
C1377 C1375 1.390 . S
C1378 C1375 1.339 . S
C1378 C1376 1.416 . S
C1378 H1385 0.930 . S
N1379 Tb1344 2.572 . S
N1379 C1380 1.340 . S
N1379 C1382 1.361 . S
C1380 H1366 0.930 . S
C1380 N1379 1.340 . S
C1380 C1384 1.407 . S
C1381 C1382 1.413 . S
C1381 C1383 1.416 . S
C1381 C1410 1.427 . S
C1382 C1374 1.424 . S
C1382 N1379 1.361 . S
C1382 C1381 1.413 . S
C1383 H1372 0.931 . S
C1383 C1381 1.416 . S
C1383 C1384 1.332 . S
C1384 H1363 0.929 . S
C1384 C1380 1.407 . S
C1384 C1383 1.332 . S
H1385 C1378 0.930 . S
H1386 C1409 0.930 . S
H1387 C1410 0.929 . S
O1388 Tb1344 2.465 . S
O1388 C1408 1.264 . S
O1389 Tb1344 2.387 . S
O1389 C1400 1.264 . S
O1390 Tb1355 2.349 . S
O1390 C1400 1.243 . S
O1391 Tb1344 2.428 . S
O1391 C1408 1.256 . S
O1392 Tb1344 2.308 . S
O1392 C1407 1.266 . S
O1393 Tb1355 2.393 . S
O1393 C1407 1.248 . S
O1394 Tb1355 2.465 . S
O1394 C1419 1.264 . S
O1395 Tb1355 2.387 . S
O1395 C1411 1.264 . S
O1396 Tb1344 2.349 . S
O1396 C1411 1.243 . S
O1397 Tb1355 2.428 . S
O1397 C1419 1.256 . S
O1398 Tb1355 2.308 . S
O1398 C1418 1.266 . S
O1399 Tb1344 2.393 . S
O1399 C1418 1.248 . S
C1400 O1389 1.264 . S
C1400 O1390 1.243 . S
C1401 C1404 1.399 . S
C1401 C1406 1.383 . S
C1401 C1408 1.496 . S
C1402 C1403 1.399 . S
C1402 C1406 1.389 . S
C1403 C1402 1.399 . S
C1403 C1405 1.380 . S
C1403 H1420 0.929 . S
C1404 C1401 1.399 . S
C1404 C1405 1.392 . S
C1404 H1421 0.929 . S
C1405 C1403 1.380 . S
C1405 C1404 1.392 . S
C1405 H1422 0.929 . S
C1406 C1401 1.383 . S
C1406 C1402 1.389 . S
C1406 H1423 0.931 . S
C1407 O1392 1.266 . S
C1407 O1393 1.248 . S
C1408 Tb1344 2.802 . S
C1408 O1388 1.264 . S
C1408 O1391 1.256 . S
C1408 C1401 1.496 . S
C1409 C1376 1.448 . S
C1409 H1386 0.930 . S
C1409 C1410 1.328 . S
C1410 C1381 1.427 . S
C1410 H1387 0.929 . S
C1410 C1409 1.328 . S
C1411 O1395 1.264 . S
C1411 O1396 1.243 . S
C1412 C1415 1.399 . S
C1412 C1416 1.383 . S
C1412 C1419 1.496 . S
C1413 C1414 1.399 . S
C1413 C1416 1.389 . S
C1414 C1413 1.399 . S
C1414 C1417 1.380 . S
C1414 H1424 0.929 . S
C1415 C1412 1.399 . S
C1415 C1417 1.392 . S
C1415 H1425 0.929 . S
C1416 C1412 1.383 . S
C1416 C1413 1.389 . S
C1416 H1426 0.931 . S
C1417 C1414 1.380 . S
C1417 C1415 1.392 . S
C1417 H1427 0.929 . S
C1418 O1398 1.266 . S
C1418 O1399 1.248 . S
C1419 Tb1355 2.802 . S
C1419 O1394 1.264 . S
C1419 O1397 1.256 . S
C1419 C1412 1.496 . S
H1420 C1403 0.929 . S
H1421 C1404 0.929 . S
H1422 C1405 0.929 . S
H1423 C1406 0.931 . S
H1424 C1414 0.929 . S
H1425 C1415 0.929 . S
H1426 C1416 0.931 . S
H1427 C1417 0.929 . S
Tb1428 N1457 2.617 . S
Tb1428 N1463 2.572 . S
Tb1428 O1472 2.465 . S
Tb1428 O1473 2.387 . S
Tb1428 O1475 2.428 . S
Tb1428 O1476 2.308 . S
Tb1428 O1480 2.349 . S
Tb1428 O1483 2.393 . S
Tb1428 C1492 2.802 . S
C1429 N1430 1.379 . S
C1429 C1432 1.416 . S
C1429 C1436 1.424 . S
N1430 C1429 1.379 . S
N1430 C1433 1.334 . S
N1430 Tb1439 2.617 . S
C1431 C1433 1.390 . S
C1431 C1434 1.339 . S
C1431 H1451 0.930 . S
C1432 C1429 1.416 . S
C1432 C1434 1.416 . S
C1432 C1438 1.448 . S
C1433 N1430 1.334 . S
C1433 C1431 1.390 . S
C1433 H1444 0.930 . S
C1434 C1431 1.339 . S
C1434 C1432 1.416 . S
C1434 H1455 0.930 . S
C1435 C1436 1.413 . S
C1435 C1437 1.427 . S
C1435 C1441 1.416 . S
C1436 C1429 1.424 . S
C1436 C1435 1.413 . S
C1436 N1440 1.361 . S
C1437 C1435 1.427 . S
C1437 C1438 1.328 . S
C1437 H1452 0.929 . S
C1438 C1432 1.448 . S
C1438 C1437 1.328 . S
C1438 H1453 0.930 . S
Tb1439 N1430 2.617 . S
Tb1439 N1440 2.572 . S
Tb1439 O1474 2.349 . S
Tb1439 O1477 2.393 . S
Tb1439 O1478 2.465 . S
Tb1439 O1479 2.387 . S
Tb1439 O1481 2.428 . S
Tb1439 O1482 2.308 . S
Tb1439 C1503 2.802 . S
N1440 C1436 1.361 . S
N1440 Tb1439 2.572 . S
N1440 C1442 1.340 . S
C1441 C1435 1.416 . S
C1441 C1443 1.332 . S
C1441 H1449 0.931 . S
C1442 N1440 1.340 . S
C1442 C1443 1.407 . S
C1442 H1448 0.930 . S
C1443 C1441 1.332 . S
C1443 C1442 1.407 . S
C1443 H1445 0.929 . S
H1444 C1433 0.930 . S
H1445 C1443 0.929 . S
H1446 C1461 0.930 . S
H1447 C1468 0.929 . S
H1448 C1442 0.930 . S
H1449 C1441 0.931 . S
H1450 C1464 0.930 . S
H1451 C1431 0.930 . S
H1452 C1437 0.929 . S
H1453 C1438 0.930 . S
H1454 C1459 0.930 . S
H1455 C1434 0.930 . S
H1456 C1467 0.931 . S
N1457 Tb1428 2.617 . S
N1457 C1458 1.379 . S
N1457 C1461 1.334 . S
C1458 N1457 1.379 . S
C1458 C1460 1.416 . S
C1458 C1466 1.424 . S
C1459 H1454 0.930 . S
C1459 C1461 1.390 . S
C1459 C1462 1.339 . S
C1460 C1458 1.416 . S
C1460 C1462 1.416 . S
C1460 C1493 1.448 . S
C1461 H1446 0.930 . S
C1461 N1457 1.334 . S
C1461 C1459 1.390 . S
C1462 C1459 1.339 . S
C1462 C1460 1.416 . S
C1462 H1469 0.930 . S
N1463 Tb1428 2.572 . S
N1463 C1464 1.340 . S
N1463 C1466 1.361 . S
C1464 H1450 0.930 . S
C1464 N1463 1.340 . S
C1464 C1468 1.407 . S
C1465 C1466 1.413 . S
C1465 C1467 1.416 . S
C1465 C1494 1.427 . S
C1466 C1458 1.424 . S
C1466 N1463 1.361 . S
C1466 C1465 1.413 . S
C1467 H1456 0.931 . S
C1467 C1465 1.416 . S
C1467 C1468 1.332 . S
C1468 H1447 0.929 . S
C1468 C1464 1.407 . S
C1468 C1467 1.332 . S
H1469 C1462 0.930 . S
H1470 C1493 0.930 . S
H1471 C1494 0.929 . S
O1472 Tb1428 2.465 . S
O1472 C1492 1.264 . S
O1473 Tb1428 2.387 . S
O1473 C1484 1.264 . S
O1474 Tb1439 2.349 . S
O1474 C1484 1.243 . S
O1475 Tb1428 2.428 . S
O1475 C1492 1.256 . S
O1476 Tb1428 2.308 . S
O1476 C1491 1.266 . S
O1477 Tb1439 2.393 . S
O1477 C1491 1.248 . S
O1478 Tb1439 2.465 . S
O1478 C1503 1.264 . S
O1479 Tb1439 2.387 . S
O1479 C1495 1.264 . S
O1480 Tb1428 2.349 . S
O1480 C1495 1.243 . S
O1481 Tb1439 2.428 . S
O1481 C1503 1.256 . S
O1482 Tb1439 2.308 . S
O1482 C1502 1.266 . S
O1483 Tb1428 2.393 . S
O1483 C1502 1.248 . S
C1484 O1473 1.264 . S
C1484 O1474 1.243 . S
C1485 C1488 1.399 . S
C1485 C1490 1.383 . S
C1485 C1492 1.496 . S
C1486 C1487 1.399 . S
C1486 C1490 1.389 . S
C1487 C1486 1.399 . S
C1487 C1489 1.380 . S
C1487 H1504 0.929 . S
C1488 C1485 1.399 . S
C1488 C1489 1.392 . S
C1488 H1505 0.929 . S
C1489 C1487 1.380 . S
C1489 C1488 1.392 . S
C1489 H1506 0.929 . S
C1490 C1485 1.383 . S
C1490 C1486 1.389 . S
C1490 H1507 0.931 . S
C1491 O1476 1.266 . S
C1491 O1477 1.248 . S
C1492 Tb1428 2.802 . S
C1492 O1472 1.264 . S
C1492 O1475 1.256 . S
C1492 C1485 1.496 . S
C1493 C1460 1.448 . S
C1493 H1470 0.930 . S
C1493 C1494 1.328 . S
C1494 C1465 1.427 . S
C1494 H1471 0.929 . S
C1494 C1493 1.328 . S
C1495 O1479 1.264 . S
C1495 O1480 1.243 . S
C1496 C1499 1.399 . S
C1496 C1500 1.383 . S
C1496 C1503 1.496 . S
C1497 C1498 1.399 . S
C1497 C1500 1.389 . S
C1498 C1497 1.399 . S
C1498 C1501 1.380 . S
C1498 H1508 0.929 . S
C1499 C1496 1.399 . S
C1499 C1501 1.392 . S
C1499 H1509 0.929 . S
C1500 C1496 1.383 . S
C1500 C1497 1.389 . S
C1500 H1510 0.931 . S
C1501 C1498 1.380 . S
C1501 C1499 1.392 . S
C1501 H1511 0.929 . S
C1502 O1482 1.266 . S
C1502 O1483 1.248 . S
C1503 Tb1439 2.802 . S
C1503 O1478 1.264 . S
C1503 O1481 1.256 . S
C1503 C1496 1.496 . S
H1504 C1487 0.929 . S
H1505 C1488 0.929 . S
H1506 C1489 0.929 . S
H1507 C1490 0.931 . S
H1508 C1498 0.929 . S
H1509 C1499 0.929 . S
H1510 C1500 0.931 . S
H1511 C1501 0.929 . S
Tb1512 N1541 2.617 . S
Tb1512 N1547 2.572 . S
Tb1512 O1556 2.465 . S
Tb1512 O1557 2.387 . S
Tb1512 O1559 2.428 . S
Tb1512 O1560 2.308 . S
Tb1512 O1564 2.349 . S
Tb1512 O1567 2.393 . S
Tb1512 C1576 2.802 . S
C1513 N1514 1.379 . S
C1513 C1516 1.416 . S
C1513 C1520 1.424 . S
N1514 C1513 1.379 . S
N1514 C1517 1.334 . S
N1514 Tb1523 2.617 . S
C1515 C1517 1.390 . S
C1515 C1518 1.339 . S
C1515 H1535 0.930 . S
C1516 C1513 1.416 . S
C1516 C1518 1.416 . S
C1516 C1522 1.448 . S
C1517 N1514 1.334 . S
C1517 C1515 1.390 . S
C1517 H1528 0.930 . S
C1518 C1515 1.339 . S
C1518 C1516 1.416 . S
C1518 H1539 0.930 . S
C1519 C1520 1.413 . S
C1519 C1521 1.427 . S
C1519 C1525 1.416 . S
C1520 C1513 1.424 . S
C1520 C1519 1.413 . S
C1520 N1524 1.361 . S
C1521 C1519 1.427 . S
C1521 C1522 1.328 . S
C1521 H1536 0.929 . S
C1522 C1516 1.448 . S
C1522 C1521 1.328 . S
C1522 H1537 0.930 . S
Tb1523 N1514 2.617 . S
Tb1523 N1524 2.572 . S
Tb1523 O1558 2.349 . S
Tb1523 O1561 2.393 . S
Tb1523 O1562 2.465 . S
Tb1523 O1563 2.387 . S
Tb1523 O1565 2.428 . S
Tb1523 O1566 2.308 . S
Tb1523 C1587 2.802 . S
N1524 C1520 1.361 . S
N1524 Tb1523 2.572 . S
N1524 C1526 1.340 . S
C1525 C1519 1.416 . S
C1525 C1527 1.332 . S
C1525 H1533 0.931 . S
C1526 N1524 1.340 . S
C1526 C1527 1.407 . S
C1526 H1532 0.930 . S
C1527 C1525 1.332 . S
C1527 C1526 1.407 . S
C1527 H1529 0.929 . S
H1528 C1517 0.930 . S
H1529 C1527 0.929 . S
H1530 C1545 0.930 . S
H1531 C1552 0.929 . S
H1532 C1526 0.930 . S
H1533 C1525 0.931 . S
H1534 C1548 0.930 . S
H1535 C1515 0.930 . S
H1536 C1521 0.929 . S
H1537 C1522 0.930 . S
H1538 C1543 0.930 . S
H1539 C1518 0.930 . S
H1540 C1551 0.931 . S
N1541 Tb1512 2.617 . S
N1541 C1542 1.379 . S
N1541 C1545 1.334 . S
C1542 N1541 1.379 . S
C1542 C1544 1.416 . S
C1542 C1550 1.424 . S
C1543 H1538 0.930 . S
C1543 C1545 1.390 . S
C1543 C1546 1.339 . S
C1544 C1542 1.416 . S
C1544 C1546 1.416 . S
C1544 C1577 1.448 . S
C1545 H1530 0.930 . S
C1545 N1541 1.334 . S
C1545 C1543 1.390 . S
C1546 C1543 1.339 . S
C1546 C1544 1.416 . S
C1546 H1553 0.930 . S
N1547 Tb1512 2.572 . S
N1547 C1548 1.340 . S
N1547 C1550 1.361 . S
C1548 H1534 0.930 . S
C1548 N1547 1.340 . S
C1548 C1552 1.407 . S
C1549 C1550 1.413 . S
C1549 C1551 1.416 . S
C1549 C1578 1.427 . S
C1550 C1542 1.424 . S
C1550 N1547 1.361 . S
C1550 C1549 1.413 . S
C1551 H1540 0.931 . S
C1551 C1549 1.416 . S
C1551 C1552 1.332 . S
C1552 H1531 0.929 . S
C1552 C1548 1.407 . S
C1552 C1551 1.332 . S
H1553 C1546 0.930 . S
H1554 C1577 0.930 . S
H1555 C1578 0.929 . S
O1556 Tb1512 2.465 . S
O1556 C1576 1.264 . S
O1557 Tb1512 2.387 . S
O1557 C1568 1.264 . S
O1558 Tb1523 2.349 . S
O1558 C1568 1.243 . S
O1559 Tb1512 2.428 . S
O1559 C1576 1.256 . S
O1560 Tb1512 2.308 . S
O1560 C1575 1.266 . S
O1561 Tb1523 2.393 . S
O1561 C1575 1.248 . S
O1562 Tb1523 2.465 . S
O1562 C1587 1.264 . S
O1563 Tb1523 2.387 . S
O1563 C1579 1.264 . S
O1564 Tb1512 2.349 . S
O1564 C1579 1.243 . S
O1565 Tb1523 2.428 . S
O1565 C1587 1.256 . S
O1566 Tb1523 2.308 . S
O1566 C1586 1.266 . S
O1567 Tb1512 2.393 . S
O1567 C1586 1.248 . S
C1568 O1557 1.264 . S
C1568 O1558 1.243 . S
C1569 C1572 1.399 . S
C1569 C1574 1.383 . S
C1569 C1576 1.496 . S
C1570 C1571 1.399 . S
C1570 C1574 1.389 . S
C1571 C1570 1.399 . S
C1571 C1573 1.380 . S
C1571 H1588 0.929 . S
C1572 C1569 1.399 . S
C1572 C1573 1.392 . S
C1572 H1589 0.929 . S
C1573 C1571 1.380 . S
C1573 C1572 1.392 . S
C1573 H1590 0.929 . S
C1574 C1569 1.383 . S
C1574 C1570 1.389 . S
C1574 H1591 0.931 . S
C1575 O1560 1.266 . S
C1575 O1561 1.248 . S
C1576 Tb1512 2.802 . S
C1576 O1556 1.264 . S
C1576 O1559 1.256 . S
C1576 C1569 1.496 . S
C1577 C1544 1.448 . S
C1577 H1554 0.930 . S
C1577 C1578 1.328 . S
C1578 C1549 1.427 . S
C1578 H1555 0.929 . S
C1578 C1577 1.328 . S
C1579 O1563 1.264 . S
C1579 O1564 1.243 . S
C1580 C1583 1.399 . S
C1580 C1584 1.383 . S
C1580 C1587 1.496 . S
C1581 C1582 1.399 . S
C1581 C1584 1.389 . S
C1582 C1581 1.399 . S
C1582 C1585 1.380 . S
C1582 H1592 0.929 . S
C1583 C1580 1.399 . S
C1583 C1585 1.392 . S
C1583 H1593 0.929 . S
C1584 C1580 1.383 . S
C1584 C1581 1.389 . S
C1584 H1594 0.931 . S
C1585 C1582 1.380 . S
C1585 C1583 1.392 . S
C1585 H1595 0.929 . S
C1586 O1566 1.266 . S
C1586 O1567 1.248 . S
C1587 Tb1523 2.802 . S
C1587 O1562 1.264 . S
C1587 O1565 1.256 . S
C1587 C1580 1.496 . S
H1588 C1571 0.929 . S
H1589 C1572 0.929 . S
H1590 C1573 0.929 . S
H1591 C1574 0.931 . S
H1592 C1582 0.929 . S
H1593 C1583 0.929 . S
H1594 C1584 0.931 . S
H1595 C1585 0.929 . S
Tb1596 N1625 2.617 . S
Tb1596 N1631 2.572 . S
Tb1596 O1640 2.465 . S
Tb1596 O1641 2.387 1_655 S
Tb1596 O1643 2.428 . S
Tb1596 O1644 2.308 1_655 S
Tb1596 O1648 2.349 1_655 S
Tb1596 O1651 2.393 1_655 S
Tb1596 C1660 2.802 . S
C1597 N1598 1.379 . S
C1597 C1600 1.416 . S
C1597 C1604 1.424 1_556 S
N1598 C1597 1.379 . S
N1598 C1601 1.334 . S
N1598 Tb1607 2.617 1_556 S
C1599 C1601 1.390 . S
C1599 C1602 1.339 . S
C1599 H1619 0.930 . S
C1600 C1597 1.416 . S
C1600 C1602 1.416 . S
C1600 C1606 1.448 . S
C1601 N1598 1.334 . S
C1601 C1599 1.390 . S
C1601 H1612 0.930 . S
C1602 C1599 1.339 . S
C1602 C1600 1.416 . S
C1602 H1623 0.930 . S
C1603 C1604 1.413 . S
C1603 C1605 1.427 . S
C1603 C1609 1.416 . S
C1604 C1597 1.424 1_554 S
C1604 C1603 1.413 . S
C1604 N1608 1.361 . S
C1605 C1603 1.427 . S
C1605 C1606 1.328 1_554 S
C1605 H1620 0.929 . S
C1606 C1600 1.448 . S
C1606 C1605 1.328 1_556 S
C1606 H1621 0.930 . S
Tb1607 N1598 2.617 1_554 S
Tb1607 N1608 2.572 . S
Tb1607 O1642 2.349 . S
Tb1607 O1645 2.393 1_554 S
Tb1607 O1646 2.465 . S
Tb1607 O1647 2.387 . S
Tb1607 O1649 2.428 1_554 S
Tb1607 O1650 2.308 . S
Tb1607 C1671 2.802 . S
N1608 C1604 1.361 . S
N1608 Tb1607 2.572 . S
N1608 C1610 1.340 . S
C1609 C1603 1.416 . S
C1609 C1611 1.332 . S
C1609 H1617 0.931 . S
C1610 N1608 1.340 . S
C1610 C1611 1.407 . S
C1610 H1616 0.930 . S
C1611 C1609 1.332 . S
C1611 C1610 1.407 . S
C1611 H1613 0.929 . S
H1612 C1601 0.930 . S
H1613 C1611 0.929 . S
H1614 C1629 0.930 1_455 S
H1615 C1636 0.929 1_556 S
H1616 C1610 0.930 . S
H1617 C1609 0.931 . S
H1618 C1632 0.930 . S
H1619 C1599 0.930 . S
H1620 C1605 0.929 . S
H1621 C1606 0.930 . S
H1622 C1627 0.930 . S
H1623 C1602 0.930 . S
H1624 C1635 0.931 . S
N1625 Tb1596 2.617 . S
N1625 C1626 1.379 . S
N1625 C1629 1.334 . S
C1626 N1625 1.379 . S
C1626 C1628 1.416 . S
C1626 C1634 1.424 . S
C1627 H1622 0.930 . S
C1627 C1629 1.390 . S
C1627 C1630 1.339 . S
C1628 C1626 1.416 . S
C1628 C1630 1.416 . S
C1628 C1661 1.448 . S
C1629 H1614 0.930 1_655 S
C1629 N1625 1.334 . S
C1629 C1627 1.390 . S
C1630 C1627 1.339 . S
C1630 C1628 1.416 . S
C1630 H1637 0.930 . S
N1631 Tb1596 2.572 . S
N1631 C1632 1.340 . S
N1631 C1634 1.361 . S
C1632 H1618 0.930 . S
C1632 N1631 1.340 . S
C1632 C1636 1.407 . S
C1633 C1634 1.413 . S
C1633 C1635 1.416 . S
C1633 C1662 1.427 . S
C1634 C1626 1.424 . S
C1634 N1631 1.361 . S
C1634 C1633 1.413 . S
C1635 H1624 0.931 . S
C1635 C1633 1.416 . S
C1635 C1636 1.332 . S
C1636 H1615 0.929 1_554 S
C1636 C1632 1.407 . S
C1636 C1635 1.332 . S
H1637 C1630 0.930 . S
H1638 C1661 0.930 . S
H1639 C1662 0.929 . S
O1640 Tb1596 2.465 . S
O1640 C1660 1.264 . S
O1641 Tb1596 2.387 1_455 S
O1641 C1652 1.264 . S
O1642 Tb1607 2.349 . S
O1642 C1652 1.243 . S
O1643 Tb1596 2.428 . S
O1643 C1660 1.256 . S
O1644 Tb1596 2.308 1_455 S
O1644 C1659 1.266 1_554 S
O1645 Tb1607 2.393 1_556 S
O1645 C1659 1.248 . S
O1646 Tb1607 2.465 . S
O1646 C1671 1.264 . S
O1647 Tb1607 2.387 . S
O1647 C1663 1.264 . S
O1648 Tb1596 2.349 1_455 S
O1648 C1663 1.243 . S
O1649 Tb1607 2.428 1_556 S
O1649 C1671 1.256 1_556 S
O1650 Tb1607 2.308 . S
O1650 C1670 1.266 . S
O1651 Tb1596 2.393 1_455 S
O1651 C1670 1.248 . S
C1652 O1641 1.264 . S
C1652 O1642 1.243 . S
C1653 C1656 1.399 . S
C1653 C1658 1.383 . S
C1653 C1660 1.496 . S
C1654 C1655 1.399 . S
C1654 C1658 1.389 . S
C1655 C1654 1.399 . S
C1655 C1657 1.380 . S
C1655 H1672 0.929 . S
C1656 C1653 1.399 . S
C1656 C1657 1.392 . S
C1656 H1673 0.929 . S
C1657 C1655 1.380 . S
C1657 C1656 1.392 . S
C1657 H1674 0.929 . S
C1658 C1653 1.383 . S
C1658 C1654 1.389 . S
C1658 H1675 0.931 . S
C1659 O1644 1.266 1_556 S
C1659 O1645 1.248 . S
C1660 Tb1596 2.802 . S
C1660 O1640 1.264 . S
C1660 O1643 1.256 . S
C1660 C1653 1.496 . S
C1661 C1628 1.448 . S
C1661 H1638 0.930 . S
C1661 C1662 1.328 . S
C1662 C1633 1.427 . S
C1662 H1639 0.929 . S
C1662 C1661 1.328 . S
C1663 O1647 1.264 . S
C1663 O1648 1.243 . S
C1664 C1667 1.352 1_554 S
C1664 C1668 1.419 . S
C1664 C1671 1.507 . S
C1665 C1666 1.399 1_554 S
C1665 C1668 1.389 . S
C1666 C1665 1.399 1_556 S
C1666 C1669 1.380 . S
C1666 H1676 0.929 . S
C1667 C1664 1.352 1_556 S
C1667 C1669 1.392 . S
C1667 H1677 0.929 . S
C1668 C1664 1.419 . S
C1668 C1665 1.389 . S
C1668 H1678 0.931 . S
C1669 C1666 1.380 . S
C1669 C1667 1.392 . S
C1669 H1679 0.929 . S
C1670 O1650 1.266 . S
C1670 O1651 1.248 . S
C1671 Tb1607 2.802 . S
C1671 O1646 1.264 . S
C1671 O1649 1.256 1_554 S
C1671 C1664 1.507 . S
H1672 C1655 0.929 . S
H1673 C1656 0.929 . S
H1674 C1657 0.929 . S
H1675 C1658 0.931 . S
H1676 C1666 0.929 . S
H1677 C1667 0.929 . S
H1678 C1668 0.931 . S
H1679 C1669 0.929 . S
H1680 C1698 0.951 . S
H1681 C1700 0.951 . S
H1682 C1702 0.950 . S
H1683 C1703 0.950 . S
H1684 C1705 0.950 . S
H1685 C1708 0.950 . S
H1686 C1709 0.950 . S
H1687 C1711 0.950 . S
H1688 C1712 0.950 . S
H1689 C1713 0.951 . S
H1690 C1715 0.951 . S
H1691 C1717 0.950 . S
H1692 C1718 0.950 . S
H1693 C1720 0.950 . S
H1694 C1723 0.950 . S
H1695 C1724 0.950 . S
H1696 C1726 0.950 . S
H1697 C1727 0.950 . S
C1698 H1680 0.951 . S
C1698 C1699 1.363 1_655 S
C1698 C1700 1.388 . S
C1699 C1698 1.363 1_455 S
C1699 C1703 1.391 . S
C1700 H1681 0.951 . S
C1700 C1698 1.388 . S
C1700 C1701 1.366 1_655 S
C1701 C1700 1.366 1_455 S
C1701 C1702 1.414 . S
C1701 C1704 1.499 . S
C1702 H1682 0.950 . S
C1702 C1701 1.414 . S
C1702 C1703 1.374 . S
C1703 H1683 0.950 . S
C1703 C1699 1.391 . S
C1703 C1702 1.374 . S
C1704 C1701 1.499 . S
C1704 C1705 1.373 . S
C1704 C1706 1.389 1_455 S
C1705 H1684 0.950 . S
C1705 C1704 1.373 . S
C1705 C1721 1.377 . S
C1706 C1704 1.389 1_655 S
C1706 C1707 1.524 . S
C1706 C1720 1.377 . S
C1707 C1706 1.524 . S
C1707 C1708 1.397 . S
C1707 C1712 1.363 . S
C1708 H1685 0.950 . S
C1708 C1707 1.397 . S
C1708 C1709 1.334 . S
C1709 H1686 0.950 . S
C1709 C1708 1.334 . S
C1709 C1710 1.287 . S
C1710 C1709 1.287 . S
C1710 C1711 1.524 . S
C1710 H1729 0.913 . S
C1711 H1687 0.950 . S
C1711 C1710 1.524 . S
C1711 C1712 1.415 . S
C1712 H1688 0.950 . S
C1712 C1707 1.363 . S
C1712 C1711 1.415 . S
C1713 H1689 0.951 . S
C1713 C1714 1.366 . S
C1713 C1715 1.388 . S
C1714 C1713 1.366 . S
C1714 C1718 1.385 1_554 S
C1715 H1690 0.951 . S
C1715 C1713 1.388 . S
C1715 C1716 1.328 1_554 S
C1716 C1715 1.328 1_556 S
C1716 C1717 1.432 . S
C1716 C1719 1.518 . S
C1717 H1691 0.950 . S
C1717 C1716 1.432 . S
C1717 C1718 1.374 . S
C1718 H1692 0.950 . S
C1718 C1714 1.385 1_556 S
C1718 C1717 1.374 . S
C1719 C1716 1.518 . S
C1719 C1720 1.373 1_455 S
C1719 C1721 1.389 . S
C1720 H1693 0.950 . S
C1720 C1706 1.377 . S
C1720 C1719 1.373 1_655 S
C1721 C1705 1.377 . S
C1721 C1719 1.389 . S
C1721 C1722 1.524 . S
C1722 C1721 1.524 . S
C1722 C1723 1.397 . S
C1722 C1727 1.363 1_556 S
C1723 H1694 0.950 . S
C1723 C1722 1.397 . S
C1723 C1724 1.334 . S
C1724 H1695 0.950 . S
C1724 C1723 1.334 . S
C1724 C1725 1.287 1_556 S
C1725 C1724 1.287 1_554 S
C1725 C1726 1.524 . S
C1725 H1728 0.999 . S
C1726 H1696 0.950 . S
C1726 C1725 1.524 . S
C1726 C1727 1.415 . S
C1727 H1697 0.950 . S
C1727 C1722 1.363 1_554 S
C1727 C1726 1.415 . S
H1728 C1725 0.999 . S
H1729 C1710 0.913 . S
H1730 C1748 0.951 . S
H1731 C1750 0.951 . S
H1732 C1752 0.950 . S
H1733 C1753 0.950 . S
H1734 C1755 0.950 . S
H1735 C1758 0.950 . S
H1736 C1759 0.950 . S
H1737 C1761 0.950 . S
H1738 C1762 0.950 . S
H1739 C1763 0.951 . S
H1740 C1765 0.951 . S
H1741 C1767 0.950 . S
H1742 C1768 0.950 . S
H1743 C1770 0.950 . S
H1744 C1773 0.950 . S
H1745 C1774 0.950 . S
H1746 C1776 0.950 . S
H1747 C1777 0.950 . S
C1748 H1730 0.951 . S
C1748 C1749 1.366 . S
C1748 C1750 1.388 . S
C1749 C1748 1.366 . S
C1749 C1753 1.385 . S
C1750 H1731 0.951 . S
C1750 C1748 1.388 . S
C1750 C1751 1.366 . S
C1751 C1750 1.366 . S
C1751 C1752 1.414 . S
C1751 C1754 1.499 . S
C1752 H1732 0.950 . S
C1752 C1751 1.414 . S
C1752 C1753 1.374 . S
C1753 H1733 0.950 . S
C1753 C1749 1.385 . S
C1753 C1752 1.374 . S
C1754 C1751 1.499 . S
C1754 C1755 1.373 . S
C1754 C1756 1.389 . S
C1755 H1734 0.950 . S
C1755 C1754 1.373 . S
C1755 C1771 1.377 . S
C1756 C1754 1.389 . S
C1756 C1757 1.524 . S
C1756 C1770 1.377 . S
C1757 C1756 1.524 . S
C1757 C1758 1.397 . S
C1757 C1762 1.363 . S
C1758 H1735 0.950 . S
C1758 C1757 1.397 . S
C1758 C1759 1.334 . S
C1759 H1736 0.950 . S
C1759 C1758 1.334 . S
C1759 C1760 1.287 . S
C1760 C1759 1.287 . S
C1760 C1761 1.524 . S
C1760 H1779 0.913 . S
C1761 H1737 0.950 . S
C1761 C1760 1.524 . S
C1761 C1762 1.415 . S
C1762 H1738 0.950 . S
C1762 C1757 1.363 . S
C1762 C1761 1.415 . S
C1763 H1739 0.951 . S
C1763 C1764 1.366 . S
C1763 C1765 1.388 . S
C1764 C1763 1.366 . S
C1764 C1768 1.385 . S
C1765 H1740 0.951 . S
C1765 C1763 1.388 . S
C1765 C1766 1.366 . S
C1766 C1765 1.366 . S
C1766 C1767 1.414 . S
C1766 C1769 1.499 . S
C1767 H1741 0.950 . S
C1767 C1766 1.414 . S
C1767 C1768 1.374 . S
C1768 H1742 0.950 . S
C1768 C1764 1.385 . S
C1768 C1767 1.374 . S
C1769 C1766 1.499 . S
C1769 C1770 1.373 . S
C1769 C1771 1.389 . S
C1770 H1743 0.950 . S
C1770 C1756 1.377 . S
C1770 C1769 1.373 . S
C1771 C1755 1.377 . S
C1771 C1769 1.389 . S
C1771 C1772 1.524 . S
C1772 C1771 1.524 . S
C1772 C1773 1.397 . S
C1772 C1777 1.363 . S
C1773 H1744 0.950 . S
C1773 C1772 1.397 . S
C1773 C1774 1.334 . S
C1774 H1745 0.950 . S
C1774 C1773 1.334 . S
C1774 C1775 1.287 . S
C1775 C1774 1.287 . S
C1775 C1776 1.524 . S
C1775 H1778 0.999 . S
C1776 H1746 0.950 . S
C1776 C1775 1.524 . S
C1776 C1777 1.415 . S
C1777 H1747 0.950 . S
C1777 C1772 1.363 . S
C1777 C1776 1.415 . S
H1778 C1775 0.999 . S
H1779 C1760 0.913 . S
H1780 C1798 0.951 . S
H1781 C1800 0.951 . S
H1782 C1802 0.950 . S
H1783 C1803 0.950 . S
H1784 C1805 0.950 . S
H1785 C1808 0.950 . S
H1786 C1809 0.950 . S
H1787 C1811 0.950 . S
H1788 C1812 0.950 . S
H1789 C1813 0.951 . S
H1790 C1815 0.951 . S
H1791 C1817 0.950 . S
H1792 C1818 0.950 . S
H1793 C1820 0.950 . S
H1794 C1823 0.950 . S
H1795 C1824 0.950 . S
H1796 C1826 0.950 . S
H1797 C1827 0.950 . S
C1798 H1780 0.951 . S
C1798 C1799 1.366 . S
C1798 C1800 1.388 . S
C1799 C1798 1.366 . S
C1799 C1803 1.385 . S
C1800 H1781 0.951 . S
C1800 C1798 1.388 . S
C1800 C1801 1.366 . S
C1801 C1800 1.366 . S
C1801 C1802 1.414 . S
C1801 C1804 1.499 . S
C1802 H1782 0.950 . S
C1802 C1801 1.414 . S
C1802 C1803 1.374 . S
C1803 H1783 0.950 . S
C1803 C1799 1.385 . S
C1803 C1802 1.374 . S
C1804 C1801 1.499 . S
C1804 C1805 1.373 . S
C1804 C1806 1.389 . S
C1805 H1784 0.950 . S
C1805 C1804 1.373 . S
C1805 C1821 1.377 . S
C1806 C1804 1.389 . S
C1806 C1807 1.524 . S
C1806 C1820 1.377 . S
C1807 C1806 1.524 . S
C1807 C1808 1.397 . S
C1807 C1812 1.363 . S
C1808 H1785 0.950 . S
C1808 C1807 1.397 . S
C1808 C1809 1.334 . S
C1809 H1786 0.950 . S
C1809 C1808 1.334 . S
C1809 C1810 1.287 . S
C1810 C1809 1.287 . S
C1810 C1811 1.524 . S
C1810 H1829 0.913 . S
C1811 H1787 0.950 . S
C1811 C1810 1.524 . S
C1811 C1812 1.415 . S
C1812 H1788 0.950 . S
C1812 C1807 1.363 . S
C1812 C1811 1.415 . S
C1813 H1789 0.951 . S
C1813 C1814 1.366 . S
C1813 C1815 1.388 . S
C1814 C1813 1.366 . S
C1814 C1818 1.385 . S
C1815 H1790 0.951 . S
C1815 C1813 1.388 . S
C1815 C1816 1.366 . S
C1816 C1815 1.366 . S
C1816 C1817 1.414 . S
C1816 C1819 1.499 . S
C1817 H1791 0.950 . S
C1817 C1816 1.414 . S
C1817 C1818 1.374 . S
C1818 H1792 0.950 . S
C1818 C1814 1.385 . S
C1818 C1817 1.374 . S
C1819 C1816 1.499 . S
C1819 C1820 1.373 . S
C1819 C1821 1.389 . S
C1820 H1793 0.950 . S
C1820 C1806 1.377 . S
C1820 C1819 1.373 . S
C1821 C1805 1.377 . S
C1821 C1819 1.389 . S
C1821 C1822 1.524 . S
C1822 C1821 1.524 . S
C1822 C1823 1.397 . S
C1822 C1827 1.363 . S
C1823 H1794 0.950 . S
C1823 C1822 1.397 . S
C1823 C1824 1.334 . S
C1824 H1795 0.950 . S
C1824 C1823 1.334 . S
C1824 C1825 1.287 . S
C1825 C1824 1.287 . S
C1825 C1826 1.524 . S
C1825 H1828 0.999 . S
C1826 H1796 0.950 . S
C1826 C1825 1.524 . S
C1826 C1827 1.415 . S
C1827 H1797 0.950 . S
C1827 C1822 1.363 . S
C1827 C1826 1.415 . S
H1828 C1825 0.999 . S
H1829 C1810 0.913 . S
H1830 C1848 0.951 . S
H1831 C1850 0.951 . S
H1832 C1852 0.950 . S
H1833 C1853 0.950 . S
H1834 C1855 0.950 . S
H1835 C1858 0.950 . S
H1836 C1859 0.950 . S
H1837 C1861 0.950 . S
H1838 C1862 0.950 . S
H1839 C1863 0.951 . S
H1840 C1865 0.951 . S
H1841 C1867 0.950 . S
H1842 C1868 0.950 . S
H1843 C1870 0.950 . S
H1844 C1873 0.950 . S
H1845 C1874 0.950 . S
H1846 C1876 0.950 . S
H1847 C1877 0.950 . S
C1848 H1830 0.951 . S
C1848 C1849 1.366 . S
C1848 C1850 1.388 . S
C1849 C1848 1.366 . S
C1849 C1853 1.385 . S
C1850 H1831 0.951 . S
C1850 C1848 1.388 . S
C1850 C1851 1.366 . S
C1851 C1850 1.366 . S
C1851 C1852 1.414 . S
C1851 C1854 1.499 . S
C1852 H1832 0.950 . S
C1852 C1851 1.414 . S
C1852 C1853 1.374 . S
C1853 H1833 0.950 . S
C1853 C1849 1.385 . S
C1853 C1852 1.374 . S
C1854 C1851 1.499 . S
C1854 C1855 1.373 . S
C1854 C1856 1.389 . S
C1855 H1834 0.950 . S
C1855 C1854 1.373 . S
C1855 C1871 1.377 . S
C1856 C1854 1.389 . S
C1856 C1857 1.524 . S
C1856 C1870 1.377 . S
C1857 C1856 1.524 . S
C1857 C1858 1.397 . S
C1857 C1862 1.363 . S
C1858 H1835 0.950 . S
C1858 C1857 1.397 . S
C1858 C1859 1.334 . S
C1859 H1836 0.950 . S
C1859 C1858 1.334 . S
C1859 C1860 1.287 . S
C1860 C1859 1.287 . S
C1860 C1861 1.524 . S
C1860 H1879 0.913 . S
C1861 H1837 0.950 . S
C1861 C1860 1.524 . S
C1861 C1862 1.415 . S
C1862 H1838 0.950 . S
C1862 C1857 1.363 . S
C1862 C1861 1.415 . S
C1863 H1839 0.951 . S
C1863 C1864 1.366 . S
C1863 C1865 1.388 . S
C1864 C1863 1.366 . S
C1864 C1868 1.385 . S
C1865 H1840 0.951 . S
C1865 C1863 1.388 . S
C1865 C1866 1.366 . S
C1866 C1865 1.366 . S
C1866 C1867 1.414 . S
C1866 C1869 1.499 . S
C1867 H1841 0.950 . S
C1867 C1866 1.414 . S
C1867 C1868 1.374 . S
C1868 H1842 0.950 . S
C1868 C1864 1.385 . S
C1868 C1867 1.374 . S
C1869 C1866 1.499 . S
C1869 C1870 1.373 . S
C1869 C1871 1.389 . S
C1870 H1843 0.950 . S
C1870 C1856 1.377 . S
C1870 C1869 1.373 . S
C1871 C1855 1.377 . S
C1871 C1869 1.389 . S
C1871 C1872 1.524 . S
C1872 C1871 1.524 . S
C1872 C1873 1.397 . S
C1872 C1877 1.363 . S
C1873 H1844 0.950 . S
C1873 C1872 1.397 . S
C1873 C1874 1.334 . S
C1874 H1845 0.950 . S
C1874 C1873 1.334 . S
C1874 C1875 1.287 . S
C1875 C1874 1.287 . S
C1875 C1876 1.524 . S
C1875 H1878 0.999 . S
C1876 H1846 0.950 . S
C1876 C1875 1.524 . S
C1876 C1877 1.415 . S
C1877 H1847 0.950 . S
C1877 C1872 1.363 . S
C1877 C1876 1.415 . S
H1878 C1875 0.999 . S
H1879 C1860 0.913 . S
H1880 C1898 0.951 . S
H1881 C1900 0.951 . S
H1882 C1902 0.947 . S
H1883 C1903 0.950 1_655 S
H1884 C1905 0.950 . S
H1885 C1908 0.950 . S
H1886 C1909 0.950 . S
H1887 C1911 0.950 . S
H1888 C1912 0.950 . S
H1889 C1913 0.951 . S
H1890 C1915 0.951 . S
H1891 C1917 0.950 . S
H1892 C1918 0.950 . S
H1893 C1920 0.950 . S
H1894 C1923 0.950 . S
H1895 C1924 0.950 . S
H1896 C1926 0.950 . S
H1897 C1927 0.950 . S
C1898 H1880 0.951 . S
C1898 C1899 1.366 . S
C1898 C1900 1.388 . S
C1899 C1898 1.366 . S
C1899 C1903 1.385 . S
C1900 H1881 0.951 . S
C1900 C1898 1.388 . S
C1900 C1901 1.366 . S
C1901 C1900 1.366 . S
C1901 C1902 1.414 . S
C1901 C1904 1.499 . S
C1902 H1882 0.947 . S
C1902 C1901 1.414 . S
C1902 C1903 1.374 . S
C1903 H1883 0.950 1_455 S
C1903 C1899 1.385 . S
C1903 C1902 1.374 . S
C1904 C1901 1.499 . S
C1904 C1905 1.373 . S
C1904 C1906 1.389 . S
C1905 H1884 0.950 . S
C1905 C1904 1.373 . S
C1905 C1921 1.377 . S
C1906 C1904 1.389 . S
C1906 C1907 1.524 . S
C1906 C1920 1.377 . S
C1907 C1906 1.524 . S
C1907 C1908 1.397 1_455 S
C1907 C1912 1.363 . S
C1908 H1885 0.950 . S
C1908 C1907 1.397 1_655 S
C1908 C1909 1.334 . S
C1909 H1886 0.950 . S
C1909 C1908 1.334 . S
C1909 C1910 1.287 1_655 S
C1910 C1909 1.287 1_455 S
C1910 C1911 1.524 . S
C1910 H1929 0.913 1_455 S
C1911 H1887 0.950 . S
C1911 C1910 1.524 . S
C1911 C1912 1.415 . S
C1912 H1888 0.950 . S
C1912 C1907 1.363 . S
C1912 C1911 1.415 . S
C1913 H1889 0.951 . S
C1913 C1914 1.366 . S
C1913 C1915 1.388 . S
C1914 C1913 1.366 . S
C1914 C1918 1.385 . S
C1915 H1890 0.951 . S
C1915 C1913 1.388 . S
C1915 C1916 1.366 . S
C1916 C1915 1.366 . S
C1916 C1917 1.414 . S
C1916 C1919 1.499 . S
C1917 H1891 0.950 . S
C1917 C1916 1.414 . S
C1917 C1918 1.374 . S
C1918 H1892 0.950 . S
C1918 C1914 1.385 . S
C1918 C1917 1.374 . S
C1919 C1916 1.499 . S
C1919 C1920 1.373 . S
C1919 C1921 1.389 . S
C1920 H1893 0.950 . S
C1920 C1906 1.377 . S
C1920 C1919 1.373 . S
C1921 C1905 1.377 . S
C1921 C1919 1.389 . S
C1921 C1922 1.524 . S
C1922 C1921 1.524 . S
C1922 C1923 1.397 . S
C1922 C1927 1.363 . S
C1923 H1894 0.950 . S
C1923 C1922 1.397 . S
C1923 C1924 1.334 . S
C1924 H1895 0.950 . S
C1924 C1923 1.334 . S
C1924 C1925 1.287 . S
C1925 C1924 1.287 . S
C1925 C1926 1.524 . S
C1925 H1928 0.999 . S
C1926 H1896 0.950 . S
C1926 C1925 1.524 . S
C1926 C1927 1.415 . S
C1927 H1897 0.950 . S
C1927 C1922 1.363 . S
C1927 C1926 1.415 . S
H1928 C1925 0.999 . S
H1929 C1910 0.913 1_655 S
H1930 C1948 0.951 . S
H1931 C1950 0.951 . S
H1932 C1952 0.950 . S
H1933 C1953 0.950 . S
H1934 C1955 0.950 . S
H1935 C1958 0.950 . S
H1936 C1959 0.950 . S
H1937 C1961 0.950 . S
H1938 C1962 0.950 . S
H1939 C1963 0.951 . S
H1940 C1965 0.951 . S
H1941 C1967 0.950 . S
H1942 C1968 0.950 . S
H1943 C1970 0.950 . S
H1944 C1973 0.950 . S
H1945 C1974 0.950 . S
H1946 C1976 0.950 . S
H1947 C1977 0.950 . S
C1948 H1930 0.951 . S
C1948 C1949 1.366 . S
C1948 C1950 1.388 . S
C1949 C1948 1.366 . S
C1949 C1953 1.385 . S
C1950 H1931 0.951 . S
C1950 C1948 1.388 . S
C1950 C1951 1.366 . S
C1951 C1950 1.366 . S
C1951 C1952 1.414 . S
C1951 C1954 1.499 . S
C1952 H1932 0.950 . S
C1952 C1951 1.414 . S
C1952 C1953 1.374 . S
C1953 H1933 0.950 . S
C1953 C1949 1.385 . S
C1953 C1952 1.374 . S
C1954 C1951 1.499 . S
C1954 C1955 1.373 . S
C1954 C1956 1.389 . S
C1955 H1934 0.950 . S
C1955 C1954 1.373 . S
C1955 C1971 1.377 . S
C1956 C1954 1.389 . S
C1956 C1957 1.524 . S
C1956 C1970 1.377 . S
C1957 C1956 1.524 . S
C1957 C1958 1.397 . S
C1957 C1962 1.363 . S
C1958 H1935 0.950 . S
C1958 C1957 1.397 . S
C1958 C1959 1.334 . S
C1959 H1936 0.950 . S
C1959 C1958 1.334 . S
C1959 C1960 1.287 . S
C1960 C1959 1.287 . S
C1960 C1961 1.524 . S
C1960 H1979 0.913 . S
C1961 H1937 0.950 . S
C1961 C1960 1.524 . S
C1961 C1962 1.415 . S
C1962 H1938 0.950 . S
C1962 C1957 1.363 . S
C1962 C1961 1.415 . S
C1963 H1939 0.951 . S
C1963 C1964 1.366 . S
C1963 C1965 1.388 . S
C1964 C1963 1.366 . S
C1964 C1968 1.385 . S
C1965 H1940 0.951 . S
C1965 C1963 1.388 . S
C1965 C1966 1.366 . S
C1966 C1965 1.366 . S
C1966 C1967 1.414 . S
C1966 C1969 1.499 . S
C1967 H1941 0.950 . S
C1967 C1966 1.414 . S
C1967 C1968 1.374 . S
C1968 H1942 0.950 . S
C1968 C1964 1.385 . S
C1968 C1967 1.374 . S
C1969 C1966 1.499 . S
C1969 C1970 1.373 . S
C1969 C1971 1.389 . S
C1970 H1943 0.950 . S
C1970 C1956 1.377 . S
C1970 C1969 1.373 . S
C1971 C1955 1.377 . S
C1971 C1969 1.389 . S
C1971 C1972 1.524 . S
C1972 C1971 1.524 . S
C1972 C1973 1.397 . S
C1972 C1977 1.363 . S
C1973 H1944 0.950 . S
C1973 C1972 1.397 . S
C1973 C1974 1.334 . S
C1974 H1945 0.950 . S
C1974 C1973 1.334 . S
C1974 C1975 1.287 . S
C1975 C1974 1.287 . S
C1975 C1976 1.524 . S
C1975 H1978 0.999 . S
C1976 H1946 0.950 . S
C1976 C1975 1.524 . S
C1976 C1977 1.415 . S
C1977 H1947 0.950 . S
C1977 C1972 1.363 . S
C1977 C1976 1.415 . S
H1978 C1975 0.999 . S
H1979 C1960 0.913 . S
H1980 C1998 0.951 . S
H1981 C2000 0.951 . S
H1982 C2002 0.950 . S
H1983 C2003 0.950 . S
H1984 C2005 0.950 . S
H1985 C2008 0.950 . S
H1986 C2009 0.950 . S
H1987 C2011 0.950 . S
H1988 C2012 0.950 . S
H1989 C2013 0.951 . S
H1990 C2015 0.951 . S
H1991 C2017 0.950 . S
H1992 C2018 0.950 . S
H1993 C2020 0.950 . S
H1994 C2023 0.950 . S
H1995 C2024 0.950 . S
H1996 C2026 0.950 . S
H1997 C2027 0.950 . S
C1998 H1980 0.951 . S
C1998 C1999 1.366 . S
C1998 C2000 1.388 . S
C1999 C1998 1.366 . S
C1999 C2003 1.385 . S
C2000 H1981 0.951 . S
C2000 C1998 1.388 . S
C2000 C2001 1.366 . S
C2001 C2000 1.366 . S
C2001 C2002 1.414 . S
C2001 C2004 1.499 . S
C2002 H1982 0.950 . S
C2002 C2001 1.414 . S
C2002 C2003 1.374 . S
C2003 H1983 0.950 . S
C2003 C1999 1.385 . S
C2003 C2002 1.374 . S
C2004 C2001 1.499 . S
C2004 C2005 1.373 . S
C2004 C2006 1.389 . S
C2005 H1984 0.950 . S
C2005 C2004 1.373 . S
C2005 C2021 1.377 . S
C2006 C2004 1.389 . S
C2006 C2007 1.524 . S
C2006 C2020 1.377 . S
C2007 C2006 1.524 . S
C2007 C2008 1.397 . S
C2007 C2012 1.363 . S
C2008 H1985 0.950 . S
C2008 C2007 1.397 . S
C2008 C2009 1.334 . S
C2009 H1986 0.950 . S
C2009 C2008 1.334 . S
C2009 C2010 1.287 . S
C2010 C2009 1.287 . S
C2010 C2011 1.524 . S
C2010 H2029 0.913 . S
C2011 H1987 0.950 . S
C2011 C2010 1.524 . S
C2011 C2012 1.415 . S
C2012 H1988 0.950 . S
C2012 C2007 1.363 . S
C2012 C2011 1.415 . S
C2013 H1989 0.951 . S
C2013 C2014 1.366 . S
C2013 C2015 1.388 . S
C2014 C2013 1.366 . S
C2014 C2018 1.385 . S
C2015 H1990 0.951 . S
C2015 C2013 1.388 . S
C2015 C2016 1.366 . S
C2016 C2015 1.366 . S
C2016 C2017 1.414 . S
C2016 C2019 1.499 . S
C2017 H1991 0.950 . S
C2017 C2016 1.414 . S
C2017 C2018 1.374 . S
C2018 H1992 0.950 . S
C2018 C2014 1.385 . S
C2018 C2017 1.374 . S
C2019 C2016 1.499 . S
C2019 C2020 1.373 . S
C2019 C2021 1.389 . S
C2020 H1993 0.950 . S
C2020 C2006 1.377 . S
C2020 C2019 1.373 . S
C2021 C2005 1.377 . S
C2021 C2019 1.389 . S
C2021 C2022 1.524 . S
C2022 C2021 1.524 . S
C2022 C2023 1.397 . S
C2022 C2027 1.363 . S
C2023 H1994 0.950 . S
C2023 C2022 1.397 . S
C2023 C2024 1.334 . S
C2024 H1995 0.950 . S
C2024 C2023 1.334 . S
C2024 C2025 1.287 . S
C2025 C2024 1.287 . S
C2025 C2026 1.524 . S
C2025 H2028 0.999 . S
C2026 H1996 0.950 . S
C2026 C2025 1.524 . S
C2026 C2027 1.415 . S
C2027 H1997 0.950 . S
C2027 C2022 1.363 . S
C2027 C2026 1.415 . S
H2028 C2025 0.999 . S
H2029 C2010 0.913 . S
H2030 C2048 0.951 . S
H2031 C2050 0.951 . S
H2032 C2052 0.950 . S
H2033 C2053 0.950 . S
H2034 C2055 0.950 . S
H2035 C2058 0.950 . S
H2036 C2059 0.950 . S
H2037 C2061 0.950 . S
H2038 C2062 0.950 . S
H2039 C2063 0.951 . S
H2040 C2065 0.951 . S
H2041 C2067 0.950 . S
H2042 C2068 0.950 . S
H2043 C2070 0.950 . S
H2044 C2073 0.950 . S
H2045 C2074 0.950 . S
H2046 C2076 0.950 . S
H2047 C2077 0.950 . S
C2048 H2030 0.951 . S
C2048 C2049 1.366 . S
C2048 C2050 1.388 . S
C2049 C2048 1.366 . S
C2049 C2053 1.385 . S
C2050 H2031 0.951 . S
C2050 C2048 1.388 . S
C2050 C2051 1.366 . S
C2051 C2050 1.366 . S
C2051 C2052 1.414 . S
C2051 C2054 1.499 . S
C2052 H2032 0.950 . S
C2052 C2051 1.414 . S
C2052 C2053 1.374 . S
C2053 H2033 0.950 . S
C2053 C2049 1.385 . S
C2053 C2052 1.374 . S
C2054 C2051 1.499 . S
C2054 C2055 1.373 . S
C2054 C2056 1.389 . S
C2055 H2034 0.950 . S
C2055 C2054 1.373 . S
C2055 C2071 1.377 . S
C2056 C2054 1.389 . S
C2056 C2057 1.524 . S
C2056 C2070 1.377 . S
C2057 C2056 1.524 . S
C2057 C2058 1.397 . S
C2057 C2062 1.363 . S
C2058 H2035 0.950 . S
C2058 C2057 1.397 . S
C2058 C2059 1.334 . S
C2059 H2036 0.950 . S
C2059 C2058 1.334 . S
C2059 C2060 1.287 . S
C2060 C2059 1.287 . S
C2060 C2061 1.524 . S
C2060 H2079 0.913 . S
C2061 H2037 0.950 . S
C2061 C2060 1.524 . S
C2061 C2062 1.415 . S
C2062 H2038 0.950 . S
C2062 C2057 1.363 . S
C2062 C2061 1.415 . S
C2063 H2039 0.951 . S
C2063 C2064 1.366 . S
C2063 C2065 1.388 . S
C2064 C2063 1.366 . S
C2064 C2068 1.385 . S
C2065 H2040 0.951 . S
C2065 C2063 1.388 . S
C2065 C2066 1.366 . S
C2066 C2065 1.366 . S
C2066 C2067 1.414 . S
C2066 C2069 1.499 . S
C2067 H2041 0.950 . S
C2067 C2066 1.414 . S
C2067 C2068 1.374 . S
C2068 H2042 0.950 . S
C2068 C2064 1.385 . S
C2068 C2067 1.374 . S
C2069 C2066 1.499 . S
C2069 C2070 1.373 . S
C2069 C2071 1.389 . S
C2070 H2043 0.950 . S
C2070 C2056 1.377 . S
C2070 C2069 1.373 . S
C2071 C2055 1.377 . S
C2071 C2069 1.389 . S
C2071 C2072 1.524 . S
C2072 C2071 1.524 . S
C2072 C2073 1.397 . S
C2072 C2077 1.363 . S
C2073 H2044 0.950 . S
C2073 C2072 1.397 . S
C2073 C2074 1.334 . S
C2074 H2045 0.950 . S
C2074 C2073 1.334 . S
C2074 C2075 1.287 . S
C2075 C2074 1.287 . S
C2075 C2076 1.524 . S
C2075 H2078 0.999 . S
C2076 H2046 0.950 . S
C2076 C2075 1.524 . S
C2076 C2077 1.415 . S
C2077 H2047 0.950 . S
C2077 C2072 1.363 . S
C2077 C2076 1.415 . S
H2078 C2075 0.999 . S
H2079 C2060 0.913 . S
H2080 C2098 0.951 . S
H2081 C2100 0.951 . S
H2082 C2102 0.950 . S
H2083 C2103 0.950 . S
H2084 C2105 0.950 . S
H2085 C2108 0.950 . S
H2086 C2109 0.950 . S
H2087 C2111 0.950 . S
H2088 C2112 0.950 . S
H2089 C2113 0.951 . S
H2090 C2115 0.951 . S
H2091 C2117 0.950 . S
H2092 C2118 0.950 . S
H2093 C2120 0.950 1_565 S
H2094 C2123 0.950 . S
H2095 C2124 0.950 . S
H2096 C2126 0.950 . S
H2097 C2127 0.950 . S
C2098 H2080 0.951 . S
C2098 C2099 1.366 . S
C2098 C2100 1.388 . S
C2099 C2098 1.366 . S
C2099 C2103 1.385 . S
C2100 H2081 0.951 . S
C2100 C2098 1.388 . S
C2100 C2101 1.366 . S
C2101 C2100 1.366 . S
C2101 C2102 1.414 . S
C2101 C2104 1.499 . S
C2102 H2082 0.950 . S
C2102 C2101 1.414 . S
C2102 C2103 1.374 . S
C2103 H2083 0.950 . S
C2103 C2099 1.385 . S
C2103 C2102 1.374 . S
C2104 C2101 1.499 . S
C2104 C2105 1.373 . S
C2104 C2106 1.389 . S
C2105 H2084 0.950 . S
C2105 C2104 1.373 . S
C2105 C2121 1.377 . S
C2106 C2104 1.389 . S
C2106 C2107 1.524 1_545 S
C2106 C2120 1.377 . S
C2107 C2106 1.524 1_565 S
C2107 C2108 1.397 . S
C2107 C2112 1.363 . S
C2108 H2085 0.950 . S
C2108 C2107 1.397 . S
C2108 C2109 1.334 . S
C2109 H2086 0.950 . S
C2109 C2108 1.334 . S
C2109 C2110 1.287 . S
C2110 C2109 1.287 . S
C2110 C2111 1.524 . S
C2110 H2129 0.913 . S
C2111 H2087 0.950 . S
C2111 C2110 1.524 . S
C2111 C2112 1.415 . S
C2112 H2088 0.950 . S
C2112 C2107 1.363 . S
C2112 C2111 1.415 . S
C2113 H2089 0.951 . S
C2113 C2114 1.366 . S
C2113 C2115 1.388 . S
C2114 C2113 1.366 . S
C2114 C2118 1.385 1_455 S
C2115 H2090 0.951 . S
C2115 C2113 1.388 . S
C2115 C2116 1.366 1_455 S
C2116 C2115 1.366 1_655 S
C2116 C2117 1.414 . S
C2116 C2119 1.499 . S
C2117 H2091 0.950 . S
C2117 C2116 1.414 . S
C2117 C2118 1.374 . S
C2118 H2092 0.950 . S
C2118 C2114 1.385 1_655 S
C2118 C2117 1.374 . S
C2119 C2116 1.499 . S
C2119 C2120 1.373 . S
C2119 C2121 1.389 . S
C2120 H2093 0.950 1_545 S
C2120 C2106 1.377 . S
C2120 C2119 1.373 . S
C2121 C2105 1.377 . S
C2121 C2119 1.389 . S
C2121 C2122 1.524 . S
C2122 C2121 1.524 . S
C2122 C2123 1.397 . S
C2122 C2127 1.363 1_655 S
C2123 H2094 0.950 . S
C2123 C2122 1.397 . S
C2123 C2124 1.334 . S
C2124 H2095 0.950 . S
C2124 C2123 1.334 . S
C2124 C2125 1.269 1_655 S
C2125 C2124 1.269 1_455 S
C2125 C2126 1.538 . S
C2125 H2128 1.009 . S
C2126 H2096 0.950 . S
C2126 C2125 1.538 . S
C2126 C2127 1.415 . S
C2127 H2097 0.950 . S
C2127 C2122 1.363 1_455 S
C2127 C2126 1.415 . S
H2128 C2125 1.009 . S
H2129 C2110 0.913 . S
H2130 C2148 0.951 . S
H2131 C2150 0.951 . S
H2132 C2152 0.950 . S
H2133 C2153 0.950 . S
H2134 C2155 0.950 . S
H2135 C2158 0.950 . S
H2136 C2159 0.950 . S
H2137 C2161 0.950 . S
H2138 C2162 0.950 . S
H2139 C2163 0.951 . S
H2140 C2165 0.951 . S
H2141 C2167 0.950 . S
H2142 C2168 0.950 . S
H2143 C2170 0.950 . S
H2144 C2173 0.950 . S
H2145 C2174 0.950 . S
H2146 C2176 0.950 . S
H2147 C2177 0.950 . S
C2148 H2130 0.951 . S
C2148 C2149 1.366 . S
C2148 C2150 1.388 . S
C2149 C2148 1.366 . S
C2149 C2153 1.385 . S
C2150 H2131 0.951 . S
C2150 C2148 1.388 . S
C2150 C2151 1.366 . S
C2151 C2150 1.366 . S
C2151 C2152 1.414 . S
C2151 C2154 1.499 . S
C2152 H2132 0.950 . S
C2152 C2151 1.414 . S
C2152 C2153 1.374 . S
C2153 H2133 0.950 . S
C2153 C2149 1.385 . S
C2153 C2152 1.374 . S
C2154 C2151 1.499 . S
C2154 C2155 1.373 . S
C2154 C2156 1.389 . S
C2155 H2134 0.950 . S
C2155 C2154 1.373 . S
C2155 C2171 1.377 . S
C2156 C2154 1.389 . S
C2156 C2157 1.524 . S
C2156 C2170 1.377 . S
C2157 C2156 1.524 . S
C2157 C2158 1.397 . S
C2157 C2162 1.363 . S
C2158 H2135 0.950 . S
C2158 C2157 1.397 . S
C2158 C2159 1.334 . S
C2159 H2136 0.950 . S
C2159 C2158 1.334 . S
C2159 C2160 1.287 . S
C2160 C2159 1.287 . S
C2160 C2161 1.524 . S
C2160 H2179 0.913 . S
C2161 H2137 0.950 . S
C2161 C2160 1.524 . S
C2161 C2162 1.415 . S
C2162 H2138 0.950 . S
C2162 C2157 1.363 . S
C2162 C2161 1.415 . S
C2163 H2139 0.951 . S
C2163 C2164 1.366 . S
C2163 C2165 1.388 . S
C2164 C2163 1.366 . S
C2164 C2168 1.385 . S
C2165 H2140 0.951 . S
C2165 C2163 1.388 . S
C2165 C2166 1.366 . S
C2166 C2165 1.366 . S
C2166 C2167 1.414 . S
C2166 C2169 1.499 . S
C2167 H2141 0.950 . S
C2167 C2166 1.414 . S
C2167 C2168 1.374 . S
C2168 H2142 0.950 . S
C2168 C2164 1.385 . S
C2168 C2167 1.374 . S
C2169 C2166 1.499 . S
C2169 C2170 1.373 . S
C2169 C2171 1.389 . S
C2170 H2143 0.950 . S
C2170 C2156 1.377 . S
C2170 C2169 1.373 . S
C2171 C2155 1.377 . S
C2171 C2169 1.389 . S
C2171 C2172 1.524 . S
C2172 C2171 1.524 . S
C2172 C2173 1.397 . S
C2172 C2177 1.363 . S
C2173 H2144 0.950 . S
C2173 C2172 1.397 . S
C2173 C2174 1.334 . S
C2174 H2145 0.950 . S
C2174 C2173 1.334 . S
C2174 C2175 1.287 . S
C2175 C2174 1.287 . S
C2175 C2176 1.524 . S
C2175 H2178 0.999 . S
C2176 H2146 0.950 . S
C2176 C2175 1.524 . S
C2176 C2177 1.415 . S
C2177 H2147 0.950 . S
C2177 C2172 1.363 . S
C2177 C2176 1.415 . S
H2178 C2175 0.999 . S
H2179 C2160 0.913 . S
H2180 C2198 0.951 . S
H2181 C2200 0.951 . S
H2182 C2202 0.950 . S
H2183 C2203 0.950 . S
H2184 C2205 0.950 . S
H2185 C2208 0.950 . S
H2186 C2209 0.950 . S
H2187 C2211 0.950 . S
H2188 C2212 0.950 . S
H2189 C2213 0.951 . S
H2190 C2215 0.951 . S
H2191 C2217 0.950 . S
H2192 C2218 0.950 . S
H2193 C2220 0.950 . S
H2194 C2223 0.915 1_565 S
H2195 C2224 0.950 . S
H2196 C2226 0.950 . S
H2197 C2227 0.950 . S
C2198 H2180 0.951 . S
C2198 C2199 1.366 . S
C2198 C2200 1.388 . S
C2199 C2198 1.366 . S
C2199 C2203 1.385 . S
C2200 H2181 0.951 . S
C2200 C2198 1.388 . S
C2200 C2201 1.366 . S
C2201 C2200 1.366 . S
C2201 C2202 1.414 . S
C2201 C2204 1.499 . S
C2202 H2182 0.950 . S
C2202 C2201 1.414 . S
C2202 C2203 1.374 . S
C2203 H2183 0.950 . S
C2203 C2199 1.385 . S
C2203 C2202 1.374 . S
C2204 C2201 1.499 . S
C2204 C2205 1.373 . S
C2204 C2206 1.389 . S
C2205 H2184 0.950 . S
C2205 C2204 1.373 . S
C2205 C2221 1.377 . S
C2206 C2204 1.389 . S
C2206 C2207 1.524 . S
C2206 C2220 1.377 . S
C2207 C2206 1.524 . S
C2207 C2208 1.397 . S
C2207 C2212 1.363 . S
C2208 H2185 0.950 . S
C2208 C2207 1.397 . S
C2208 C2209 1.334 . S
C2209 H2186 0.950 . S
C2209 C2208 1.334 . S
C2209 C2210 1.287 . S
C2210 C2209 1.287 . S
C2210 C2211 1.524 . S
C2210 H2229 0.913 . S
C2211 H2187 0.950 . S
C2211 C2210 1.524 . S
C2211 C2212 1.415 . S
C2212 H2188 0.950 . S
C2212 C2207 1.363 . S
C2212 C2211 1.415 . S
C2213 H2189 0.951 . S
C2213 C2214 1.366 . S
C2213 C2215 1.388 . S
C2214 C2213 1.366 . S
C2214 C2218 1.385 . S
C2215 H2190 0.951 . S
C2215 C2213 1.388 . S
C2215 C2216 1.366 . S
C2216 C2215 1.366 . S
C2216 C2217 1.414 . S
C2216 C2219 1.499 . S
C2217 H2191 0.950 . S
C2217 C2216 1.414 . S
C2217 C2218 1.374 . S
C2218 H2192 0.950 . S
C2218 C2214 1.385 . S
C2218 C2217 1.374 . S
C2219 C2216 1.499 . S
C2219 C2220 1.373 . S
C2219 C2221 1.389 . S
C2220 H2193 0.950 . S
C2220 C2206 1.377 . S
C2220 C2219 1.373 . S
C2221 C2205 1.377 . S
C2221 C2219 1.389 . S
C2221 C2222 1.524 . S
C2222 C2221 1.524 . S
C2222 C2223 1.446 . S
C2222 C2227 1.363 . S
C2223 H2194 0.915 1_545 S
C2223 C2222 1.446 . S
C2223 C2224 1.322 1_545 S
C2224 H2195 0.950 . S
C2224 C2223 1.322 1_565 S
C2224 C2225 1.287 1_565 S
C2225 C2224 1.287 1_545 S
C2225 C2226 1.524 . S
C2225 H2228 0.999 1_545 S
C2226 H2196 0.950 . S
C2226 C2225 1.524 . S
C2226 C2227 1.415 . S
C2227 H2197 0.950 . S
C2227 C2222 1.363 . S
C2227 C2226 1.415 . S
H2228 C2225 0.999 1_565 S
H2229 C2210 0.913 . S
H2230 C2248 0.951 . S
H2231 C2250 0.951 . S
H2232 C2252 0.950 . S
H2233 C2253 0.950 . S
H2234 C2255 0.950 . S
H2235 C2258 0.950 . S
H2236 C2259 0.950 . S
H2237 C2261 0.950 . S
H2238 C2262 0.950 . S
H2239 C2263 0.951 . S
H2240 C2265 0.951 . S
H2241 C2267 0.950 . S
H2242 C2268 0.950 . S
H2243 C2270 0.950 . S
H2244 C2273 0.950 . S
H2245 C2274 0.950 . S
H2246 C2276 0.950 . S
H2247 C2277 0.950 . S
C2248 H2230 0.951 . S
C2248 C2249 1.366 . S
C2248 C2250 1.388 . S
C2249 C2248 1.366 . S
C2249 C2253 1.385 . S
C2250 H2231 0.951 . S
C2250 C2248 1.388 . S
C2250 C2251 1.366 . S
C2251 C2250 1.366 . S
C2251 C2252 1.414 . S
C2251 C2254 1.499 . S
C2252 H2232 0.950 . S
C2252 C2251 1.414 . S
C2252 C2253 1.374 . S
C2253 H2233 0.950 . S
C2253 C2249 1.385 . S
C2253 C2252 1.374 . S
C2254 C2251 1.499 . S
C2254 C2255 1.373 . S
C2254 C2256 1.389 . S
C2255 H2234 0.950 . S
C2255 C2254 1.373 . S
C2255 C2271 1.377 . S
C2256 C2254 1.389 . S
C2256 C2257 1.524 . S
C2256 C2270 1.377 . S
C2257 C2256 1.524 . S
C2257 C2258 1.397 . S
C2257 C2262 1.363 . S
C2258 H2235 0.950 . S
C2258 C2257 1.397 . S
C2258 C2259 1.334 . S
C2259 H2236 0.950 . S
C2259 C2258 1.334 . S
C2259 C2260 1.287 . S
C2260 C2259 1.287 . S
C2260 C2261 1.524 . S
C2260 H2279 0.913 . S
C2261 H2237 0.950 . S
C2261 C2260 1.524 . S
C2261 C2262 1.415 . S
C2262 H2238 0.950 . S
C2262 C2257 1.363 . S
C2262 C2261 1.415 . S
C2263 H2239 0.951 . S
C2263 C2264 1.366 . S
C2263 C2265 1.388 . S
C2264 C2263 1.366 . S
C2264 C2268 1.385 . S
C2265 H2240 0.951 . S
C2265 C2263 1.388 . S
C2265 C2266 1.366 . S
C2266 C2265 1.366 . S
C2266 C2267 1.414 . S
C2266 C2269 1.499 . S
C2267 H2241 0.950 . S
C2267 C2266 1.414 . S
C2267 C2268 1.374 . S
C2268 H2242 0.950 . S
C2268 C2264 1.385 . S
C2268 C2267 1.374 . S
C2269 C2266 1.499 . S
C2269 C2270 1.373 . S
C2269 C2271 1.389 . S
C2270 H2243 0.950 . S
C2270 C2256 1.377 . S
C2270 C2269 1.373 . S
C2271 C2255 1.377 . S
C2271 C2269 1.389 . S
C2271 C2272 1.524 . S
C2272 C2271 1.524 . S
C2272 C2273 1.397 . S
C2272 C2277 1.363 . S
C2273 H2244 0.950 . S
C2273 C2272 1.397 . S
C2273 C2274 1.334 . S
C2274 H2245 0.950 . S
C2274 C2273 1.334 . S
C2274 C2275 1.287 . S
C2275 C2274 1.287 . S
C2275 C2276 1.524 . S
C2275 H2278 0.999 . S
C2276 H2246 0.950 . S
C2276 C2275 1.524 . S
C2276 C2277 1.415 . S
C2277 H2247 0.950 . S
C2277 C2272 1.363 . S
C2277 C2276 1.415 . S
H2278 C2275 0.999 . S
H2279 C2260 0.913 . S
H2280 C2298 0.951 . S
H2281 C2300 0.951 . S
H2282 C2302 0.950 . S
H2283 C2303 0.950 . S
H2284 C2305 0.950 . S
H2285 C2308 0.950 . S
H2286 C2309 0.950 . S
H2287 C2311 0.950 1_455 S
H2288 C2312 0.950 1_455 S
H2289 C2313 0.951 . S
H2290 C2315 0.951 . S
H2291 C2317 0.950 . S
H2292 C2318 0.950 . S
H2293 C2320 0.950 1_565 S
H2294 C2323 0.950 . S
H2295 C2324 0.950 . S
H2296 C2326 0.950 . S
H2297 C2327 0.950 . S
C2298 H2280 0.951 . S
C2298 C2299 1.366 . S
C2298 C2300 1.388 . S
C2299 C2298 1.366 . S
C2299 C2303 1.385 . S
C2300 H2281 0.951 . S
C2300 C2298 1.388 . S
C2300 C2301 1.366 . S
C2301 C2300 1.366 . S
C2301 C2302 1.414 . S
C2301 C2304 1.499 . S
C2302 H2282 0.950 . S
C2302 C2301 1.414 . S
C2302 C2303 1.374 . S
C2303 H2283 0.950 . S
C2303 C2299 1.385 . S
C2303 C2302 1.374 . S
C2304 C2301 1.499 . S
C2304 C2305 1.373 . S
C2304 C2306 1.389 . S
C2305 H2284 0.950 . S
C2305 C2304 1.373 . S
C2305 C2321 1.377 . S
C2306 C2304 1.389 . S
C2306 C2307 1.524 1_545 S
C2306 C2320 1.377 . S
C2307 C2306 1.524 1_565 S
C2307 C2308 1.397 . S
C2307 C2312 1.363 . S
C2308 H2285 0.950 . S
C2308 C2307 1.397 . S
C2308 C2309 1.334 . S
C2309 H2286 0.950 . S
C2309 C2308 1.334 . S
C2309 C2310 1.287 . S
C2310 C2309 1.287 . S
C2310 C2311 1.524 . S
C2310 H2329 0.913 . S
C2311 H2287 0.950 1_655 S
C2311 C2310 1.524 . S
C2311 C2312 1.415 . S
C2312 H2288 0.950 1_655 S
C2312 C2307 1.363 . S
C2312 C2311 1.415 . S
C2313 H2289 0.951 . S
C2313 C2314 1.366 1_655 S
C2313 C2315 1.388 . S
C2314 C2313 1.366 1_455 S
C2314 C2318 1.385 . S
C2315 H2290 0.951 . S
C2315 C2313 1.388 . S
C2315 C2316 1.366 . S
C2316 C2315 1.366 . S
C2316 C2317 1.414 1_655 S
C2316 C2319 1.499 . S
C2317 H2291 0.950 . S
C2317 C2316 1.414 1_455 S
C2317 C2318 1.374 . S
C2318 H2292 0.950 . S
C2318 C2314 1.385 . S
C2318 C2317 1.374 . S
C2319 C2316 1.499 . S
C2319 C2320 1.373 . S
C2319 C2321 1.389 . S
C2320 H2293 0.950 1_545 S
C2320 C2306 1.377 . S
C2320 C2319 1.373 . S
C2321 C2305 1.377 . S
C2321 C2319 1.389 . S
C2321 C2322 1.524 . S
C2322 C2321 1.524 . S
C2322 C2323 1.397 . S
C2322 C2327 1.363 . S
C2323 H2294 0.950 . S
C2323 C2322 1.397 . S
C2323 C2324 1.334 . S
C2324 H2295 0.950 . S
C2324 C2323 1.334 . S
C2324 C2325 1.287 . S
C2325 C2324 1.287 . S
C2325 C2326 1.524 . S
C2325 H2328 0.999 . S
C2326 H2296 0.950 . S
C2326 C2325 1.524 . S
C2326 C2327 1.415 . S
C2327 H2297 0.950 . S
C2327 C2322 1.363 . S
C2327 C2326 1.415 . S
H2328 C2325 0.999 . S
H2329 C2310 0.913 . S
H2330 C2348 0.951 . S
H2331 C2350 0.951 . S
H2332 C2352 0.950 . S
H2333 C2353 0.950 . S
H2334 C2355 0.950 . S
H2335 C2358 0.950 . S
H2336 C2359 0.950 . S
H2337 C2361 0.950 . S
H2338 C2362 0.950 . S
H2339 C2363 0.951 . S
H2340 C2365 0.951 . S
H2341 C2367 0.950 . S
H2342 C2368 0.950 . S
H2343 C2370 0.950 . S
H2344 C2373 0.950 . S
H2345 C2374 0.950 . S
H2346 C2376 0.950 . S
H2347 C2377 0.950 . S
C2348 H2330 0.951 . S
C2348 C2349 1.366 . S
C2348 C2350 1.388 . S
C2349 C2348 1.366 . S
C2349 C2353 1.385 . S
C2350 H2331 0.951 . S
C2350 C2348 1.388 . S
C2350 C2351 1.366 . S
C2351 C2350 1.366 . S
C2351 C2352 1.414 . S
C2351 C2354 1.499 . S
C2352 H2332 0.950 . S
C2352 C2351 1.414 . S
C2352 C2353 1.374 . S
C2353 H2333 0.950 . S
C2353 C2349 1.385 . S
C2353 C2352 1.374 . S
C2354 C2351 1.499 . S
C2354 C2355 1.373 . S
C2354 C2356 1.389 . S
C2355 H2334 0.950 . S
C2355 C2354 1.373 . S
C2355 C2371 1.377 . S
C2356 C2354 1.389 . S
C2356 C2357 1.524 . S
C2356 C2370 1.377 . S
C2357 C2356 1.524 . S
C2357 C2358 1.397 . S
C2357 C2362 1.363 . S
C2358 H2335 0.950 . S
C2358 C2357 1.397 . S
C2358 C2359 1.334 . S
C2359 H2336 0.950 . S
C2359 C2358 1.334 . S
C2359 C2360 1.287 . S
C2360 C2359 1.287 . S
C2360 C2361 1.524 . S
C2360 H2379 0.913 . S
C2361 H2337 0.950 . S
C2361 C2360 1.524 . S
C2361 C2362 1.415 . S
C2362 H2338 0.950 . S
C2362 C2357 1.363 . S
C2362 C2361 1.415 . S
C2363 H2339 0.951 . S
C2363 C2364 1.366 . S
C2363 C2365 1.388 . S
C2364 C2363 1.366 . S
C2364 C2368 1.385 . S
C2365 H2340 0.951 . S
C2365 C2363 1.388 . S
C2365 C2366 1.366 . S
C2366 C2365 1.366 . S
C2366 C2367 1.414 . S
C2366 C2369 1.499 . S
C2367 H2341 0.950 . S
C2367 C2366 1.414 . S
C2367 C2368 1.374 . S
C2368 H2342 0.950 . S
C2368 C2364 1.385 . S
C2368 C2367 1.374 . S
C2369 C2366 1.499 . S
C2369 C2370 1.373 . S
C2369 C2371 1.389 . S
C2370 H2343 0.950 . S
C2370 C2356 1.377 . S
C2370 C2369 1.373 . S
C2371 C2355 1.377 . S
C2371 C2369 1.389 . S
C2371 C2372 1.524 . S
C2372 C2371 1.524 . S
C2372 C2373 1.397 . S
C2372 C2377 1.363 . S
C2373 H2344 0.950 . S
C2373 C2372 1.397 . S
C2373 C2374 1.334 . S
C2374 H2345 0.950 . S
C2374 C2373 1.334 . S
C2374 C2375 1.287 . S
C2375 C2374 1.287 . S
C2375 C2376 1.524 . S
C2375 H2378 0.999 . S
C2376 H2346 0.950 . S
C2376 C2375 1.524 . S
C2376 C2377 1.415 . S
C2377 H2347 0.950 . S
C2377 C2372 1.363 . S
C2377 C2376 1.415 . S
H2378 C2375 0.999 . S
H2379 C2360 0.913 . S
H2380 C2398 0.951 . S
H2381 C2400 0.951 . S
H2382 C2402 0.950 . S
H2383 C2403 0.950 . S
H2384 C2405 0.950 . S
H2385 C2408 0.950 . S
H2386 C2409 0.950 . S
H2387 C2411 0.950 . S
H2388 C2412 0.950 . S
H2389 C2413 0.951 . S
H2390 C2415 0.951 . S
H2391 C2417 0.950 . S
H2392 C2418 0.950 . S
H2393 C2420 0.950 . S
H2394 C2423 0.950 . S
H2395 C2424 0.950 1_545 S
H2396 C2426 0.950 . S
H2397 C2427 0.950 . S
C2398 H2380 0.951 . S
C2398 C2399 1.366 . S
C2398 C2400 1.388 . S
C2399 C2398 1.366 . S
C2399 C2403 1.385 . S
C2400 H2381 0.951 . S
C2400 C2398 1.388 . S
C2400 C2401 1.366 . S
C2401 C2400 1.366 . S
C2401 C2402 1.414 . S
C2401 C2404 1.499 . S
C2402 H2382 0.950 . S
C2402 C2401 1.414 . S
C2402 C2403 1.374 . S
C2403 H2383 0.950 . S
C2403 C2399 1.385 . S
C2403 C2402 1.374 . S
C2404 C2401 1.499 . S
C2404 C2405 1.373 . S
C2404 C2406 1.389 . S
C2405 H2384 0.950 . S
C2405 C2404 1.373 . S
C2405 C2421 1.377 . S
C2406 C2404 1.389 . S
C2406 C2407 1.524 . S
C2406 C2420 1.377 . S
C2407 C2406 1.524 . S
C2407 C2408 1.397 . S
C2407 C2412 1.363 . S
C2408 H2385 0.950 . S
C2408 C2407 1.397 . S
C2408 C2409 1.334 . S
C2409 H2386 0.950 . S
C2409 C2408 1.334 . S
C2409 C2410 1.287 . S
C2410 C2409 1.287 . S
C2410 C2411 1.524 . S
C2410 H2429 0.913 . S
C2411 H2387 0.950 . S
C2411 C2410 1.524 . S
C2411 C2412 1.415 . S
C2412 H2388 0.950 . S
C2412 C2407 1.363 . S
C2412 C2411 1.415 . S
C2413 H2389 0.951 . S
C2413 C2414 1.366 . S
C2413 C2415 1.388 . S
C2414 C2413 1.366 . S
C2414 C2418 1.385 . S
C2415 H2390 0.951 . S
C2415 C2413 1.388 . S
C2415 C2416 1.366 . S
C2416 C2415 1.366 . S
C2416 C2417 1.414 . S
C2416 C2419 1.499 . S
C2417 H2391 0.950 . S
C2417 C2416 1.414 . S
C2417 C2418 1.374 . S
C2418 H2392 0.950 . S
C2418 C2414 1.385 . S
C2418 C2417 1.374 . S
C2419 C2416 1.499 . S
C2419 C2420 1.373 . S
C2419 C2421 1.389 . S
C2420 H2393 0.950 . S
C2420 C2406 1.377 . S
C2420 C2419 1.373 . S
C2421 C2405 1.377 . S
C2421 C2419 1.389 . S
C2421 C2422 1.524 . S
C2422 C2421 1.524 . S
C2422 C2423 1.397 . S
C2422 C2427 1.363 1_545 S
C2423 H2394 0.950 . S
C2423 C2422 1.397 . S
C2423 C2424 1.334 1_545 S
C2424 H2395 0.950 1_565 S
C2424 C2423 1.334 1_565 S
C2424 C2425 1.287 . S
C2425 C2424 1.287 . S
C2425 C2426 1.524 . S
C2425 H2428 0.999 . S
C2426 H2396 0.950 . S
C2426 C2425 1.524 . S
C2426 C2427 1.415 . S
C2427 H2397 0.950 . S
C2427 C2422 1.363 1_565 S
C2427 C2426 1.415 . S
H2428 C2425 0.999 . S
H2429 C2410 0.913 . S
H2430 C2448 0.951 . S
H2431 C2450 0.951 . S
H2432 C2452 0.950 . S
H2433 C2453 0.950 . S
H2434 C2455 0.950 . S
H2435 C2458 0.950 . S
H2436 C2459 0.950 . S
H2437 C2461 0.950 . S
H2438 C2462 0.950 . S
H2439 C2463 0.951 . S
H2440 C2465 0.951 . S
H2441 C2467 0.950 . S
H2442 C2468 0.950 . S
H2443 C2470 0.950 . S
H2444 C2473 0.950 . S
H2445 C2474 0.950 . S
H2446 C2476 0.950 . S
H2447 C2477 0.950 . S
C2448 H2430 0.951 . S
C2448 C2449 1.366 . S
C2448 C2450 1.388 . S
C2449 C2448 1.366 . S
C2449 C2453 1.385 . S
C2450 H2431 0.951 . S
C2450 C2448 1.388 . S
C2450 C2451 1.366 . S
C2451 C2450 1.366 . S
C2451 C2452 1.414 . S
C2451 C2454 1.499 . S
C2452 H2432 0.950 . S
C2452 C2451 1.414 . S
C2452 C2453 1.374 . S
C2453 H2433 0.950 . S
C2453 C2449 1.385 . S
C2453 C2452 1.374 . S
C2454 C2451 1.499 . S
C2454 C2455 1.373 . S
C2454 C2456 1.389 . S
C2455 H2434 0.950 . S
C2455 C2454 1.373 . S
C2455 C2471 1.377 . S
C2456 C2454 1.389 . S
C2456 C2457 1.524 . S
C2456 C2470 1.377 . S
C2457 C2456 1.524 . S
C2457 C2458 1.397 . S
C2457 C2462 1.363 . S
C2458 H2435 0.950 . S
C2458 C2457 1.397 . S
C2458 C2459 1.334 . S
C2459 H2436 0.950 . S
C2459 C2458 1.334 . S
C2459 C2460 1.287 . S
C2460 C2459 1.287 . S
C2460 C2461 1.524 . S
C2460 H2479 0.913 . S
C2461 H2437 0.950 . S
C2461 C2460 1.524 . S
C2461 C2462 1.415 . S
C2462 H2438 0.950 . S
C2462 C2457 1.363 . S
C2462 C2461 1.415 . S
C2463 H2439 0.951 . S
C2463 C2464 1.366 . S
C2463 C2465 1.388 . S
C2464 C2463 1.366 . S
C2464 C2468 1.385 . S
C2465 H2440 0.951 . S
C2465 C2463 1.388 . S
C2465 C2466 1.366 . S
C2466 C2465 1.366 . S
C2466 C2467 1.414 . S
C2466 C2469 1.499 . S
C2467 H2441 0.950 . S
C2467 C2466 1.414 . S
C2467 C2468 1.374 . S
C2468 H2442 0.950 . S
C2468 C2464 1.385 . S
C2468 C2467 1.374 . S
C2469 C2466 1.499 . S
C2469 C2470 1.373 . S
C2469 C2471 1.389 . S
C2470 H2443 0.950 . S
C2470 C2456 1.377 . S
C2470 C2469 1.373 . S
C2471 C2455 1.377 . S
C2471 C2469 1.389 . S
C2471 C2472 1.524 . S
C2472 C2471 1.524 . S
C2472 C2473 1.397 . S
C2472 C2477 1.363 . S
C2473 H2444 0.950 . S
C2473 C2472 1.397 . S
C2473 C2474 1.334 . S
C2474 H2445 0.950 . S
C2474 C2473 1.334 . S
C2474 C2475 1.287 . S
C2475 C2474 1.287 . S
C2475 C2476 1.524 . S
C2475 H2478 0.999 . S
C2476 H2446 0.950 . S
C2476 C2475 1.524 . S
C2476 C2477 1.415 . S
C2477 H2447 0.950 . S
C2477 C2472 1.363 . S
C2477 C2476 1.415 . S
H2478 C2475 0.999 . S
H2479 C2460 0.913 . S
H2480 C2498 0.951 . S
H2481 C2500 0.951 . S
H2482 C2502 0.948 1_556 S
H2483 C2503 0.950 . S
H2484 C2505 0.950 . S
H2485 C2508 0.950 . S
H2486 C2509 0.950 . S
H2487 C2511 0.950 . S
H2488 C2512 0.950 1_554 S
H2489 C2513 0.951 . S
H2490 C2515 0.939 1_545 S
H2491 C2517 0.950 . S
H2492 C2518 0.950 . S
H2493 C2520 0.950 . S
H2494 C2523 0.950 . S
H2495 C2524 0.950 . S
H2496 C2526 0.950 . S
H2497 C2527 0.950 . S
C2498 H2480 0.951 . S
C2498 C2499 1.370 . S
C2498 C2500 1.388 . S
C2499 C2498 1.370 . S
C2499 C2503 1.383 1_554 S
C2500 H2481 0.951 . S
C2500 C2498 1.388 . S
C2500 C2501 1.366 . S
C2501 C2500 1.366 . S
C2501 C2502 1.414 . S
C2501 C2504 1.499 . S
C2502 H2482 0.948 1_554 S
C2502 C2501 1.414 . S
C2502 C2503 1.374 1_554 S
C2503 H2483 0.950 . S
C2503 C2499 1.383 1_556 S
C2503 C2502 1.374 1_556 S
C2504 C2501 1.499 . S
C2504 C2505 1.373 . S
C2504 C2506 1.389 . S
C2505 H2484 0.950 . S
C2505 C2504 1.373 . S
C2505 C2521 1.377 . S
C2506 C2504 1.389 . S
C2506 C2507 1.524 1_554 S
C2506 C2520 1.377 . S
C2507 C2506 1.524 1_556 S
C2507 C2508 1.397 . S
C2507 C2512 1.363 . S
C2508 H2485 0.950 . S
C2508 C2507 1.397 . S
C2508 C2509 1.334 . S
C2509 H2486 0.950 . S
C2509 C2508 1.334 . S
C2509 C2510 1.287 . S
C2510 C2509 1.287 . S
C2510 C2511 1.524 . S
C2510 H2529 0.913 . S
C2511 H2487 0.950 . S
C2511 C2510 1.524 . S
C2511 C2512 1.415 . S
C2512 H2488 0.950 1_556 S
C2512 C2507 1.363 . S
C2512 C2511 1.415 . S
C2513 H2489 0.951 . S
C2513 C2514 1.366 1_545 S
C2513 C2515 1.373 1_545 S
C2514 C2513 1.366 1_565 S
C2514 C2518 1.385 . S
C2515 H2490 0.939 1_565 S
C2515 C2513 1.373 1_565 S
C2515 C2516 1.393 . S
C2516 C2515 1.393 . S
C2516 C2517 1.414 . S
C2516 C2519 1.499 . S
C2517 H2491 0.950 . S
C2517 C2516 1.414 . S
C2517 C2518 1.374 . S
C2518 H2492 0.950 . S
C2518 C2514 1.385 . S
C2518 C2517 1.374 . S
C2519 C2516 1.499 . S
C2519 C2520 1.373 . S
C2519 C2521 1.389 . S
C2520 H2493 0.950 . S
C2520 C2506 1.377 . S
C2520 C2519 1.373 . S
C2521 C2505 1.377 . S
C2521 C2519 1.389 . S
C2521 C2522 1.524 . S
C2522 C2521 1.524 . S
C2522 C2523 1.397 . S
C2522 C2527 1.363 1_565 S
C2523 H2494 0.950 . S
C2523 C2522 1.397 . S
C2523 C2524 1.334 1_565 S
C2524 H2495 0.950 . S
C2524 C2523 1.334 1_545 S
C2524 C2525 1.287 . S
C2525 C2524 1.287 . S
C2525 C2526 1.524 . S
C2525 H2528 0.999 . S
C2526 H2496 0.950 . S
C2526 C2525 1.524 . S
C2526 C2527 1.415 . S
C2527 H2497 0.950 . S
C2527 C2522 1.363 1_545 S
C2527 C2526 1.415 . S
H2528 C2525 0.999 . S
H2529 C2510 0.913 . S
H2530 C2548 0.951 . S
H2531 C2550 0.951 . S
H2532 C2552 0.950 1_556 S
H2533 C2553 0.936 1_556 S
H2534 C2555 0.950 . S
H2535 C2558 0.950 . S
H2536 C2559 0.950 . S
H2537 C2561 0.950 . S
H2538 C2562 0.950 . S
H2539 C2563 0.951 . S
H2540 C2565 0.951 . S
H2541 C2567 0.950 . S
H2542 C2568 0.950 . S
H2543 C2570 0.950 . S
H2544 C2573 0.950 . S
H2545 C2574 0.950 . S
H2546 C2576 0.950 . S
H2547 C2577 0.950 . S
C2548 H2530 0.951 . S
C2548 C2549 1.366 . S
C2548 C2550 1.388 . S
C2549 C2548 1.366 . S
C2549 C2553 1.390 . S
C2550 H2531 0.951 . S
C2550 C2548 1.388 . S
C2550 C2551 1.366 . S
C2551 C2550 1.366 . S
C2551 C2552 1.414 . S
C2551 C2554 1.499 . S
C2552 H2532 0.950 1_554 S
C2552 C2551 1.414 . S
C2552 C2553 1.385 . S
C2553 H2533 0.936 1_554 S
C2553 C2549 1.390 . S
C2553 C2552 1.385 . S
C2554 C2551 1.499 . S
C2554 C2555 1.373 1_554 S
C2554 C2556 1.389 . S
C2555 H2534 0.950 . S
C2555 C2554 1.373 1_556 S
C2555 C2571 1.377 . S
C2556 C2554 1.389 . S
C2556 C2557 1.524 . S
C2556 C2570 1.377 . S
C2557 C2556 1.524 . S
C2557 C2558 1.397 . S
C2557 C2562 1.363 . S
C2558 H2535 0.950 . S
C2558 C2557 1.397 . S
C2558 C2559 1.334 . S
C2559 H2536 0.950 . S
C2559 C2558 1.334 . S
C2559 C2560 1.287 . S
C2560 C2559 1.287 . S
C2560 C2561 1.524 . S
C2560 H2579 0.913 . S
C2561 H2537 0.950 . S
C2561 C2560 1.524 . S
C2561 C2562 1.415 . S
C2562 H2538 0.950 . S
C2562 C2557 1.363 . S
C2562 C2561 1.415 . S
C2563 H2539 0.951 . S
C2563 C2564 1.366 . S
C2563 C2565 1.388 . S
C2564 C2563 1.366 . S
C2564 C2568 1.385 . S
C2565 H2540 0.951 . S
C2565 C2563 1.388 . S
C2565 C2566 1.366 . S
C2566 C2565 1.366 . S
C2566 C2567 1.414 . S
C2566 C2569 1.499 . S
C2567 H2541 0.950 . S
C2567 C2566 1.414 . S
C2567 C2568 1.374 . S
C2568 H2542 0.950 . S
C2568 C2564 1.385 . S
C2568 C2567 1.374 . S
C2569 C2566 1.499 . S
C2569 C2570 1.373 . S
C2569 C2571 1.389 1_554 S
C2570 H2543 0.950 . S
C2570 C2556 1.377 . S
C2570 C2569 1.373 . S
C2571 C2555 1.377 . S
C2571 C2569 1.389 1_556 S
C2571 C2572 1.524 . S
C2572 C2571 1.524 . S
C2572 C2573 1.397 . S
C2572 C2577 1.363 . S
C2573 H2544 0.950 . S
C2573 C2572 1.397 . S
C2573 C2574 1.334 . S
C2574 H2545 0.950 . S
C2574 C2573 1.334 . S
C2574 C2575 1.287 . S
C2575 C2574 1.287 . S
C2575 C2576 1.524 . S
C2575 H2578 0.999 . S
C2576 H2546 0.950 . S
C2576 C2575 1.524 . S
C2576 C2577 1.415 . S
C2577 H2547 0.950 . S
C2577 C2572 1.363 . S
C2577 C2576 1.415 . S
H2578 C2575 0.999 . S
H2579 C2560 0.913 . S
H2580 C2598 0.951 . S
H2581 C2600 0.951 . S
H2582 C2602 0.950 . S
H2583 C2603 0.950 . S
H2584 C2605 0.950 . S
H2585 C2608 0.950 . S
H2586 C2609 0.950 . S
H2587 C2611 0.950 . S
H2588 C2612 0.950 . S
H2589 C2613 0.951 . S
H2590 C2615 0.951 . S
H2591 C2617 0.950 . S
H2592 C2618 0.950 . S
H2593 C2620 0.950 . S
H2594 C2623 0.950 . S
H2595 C2624 0.950 . S
H2596 C2626 0.950 . S
H2597 C2627 0.950 . S
C2598 H2580 0.951 . S
C2598 C2599 1.366 . S
C2598 C2600 1.388 . S
C2599 C2598 1.366 . S
C2599 C2603 1.385 . S
C2600 H2581 0.951 . S
C2600 C2598 1.388 . S
C2600 C2601 1.366 . S
C2601 C2600 1.366 . S
C2601 C2602 1.414 . S
C2601 C2604 1.499 . S
C2602 H2582 0.950 . S
C2602 C2601 1.414 . S
C2602 C2603 1.374 . S
C2603 H2583 0.950 . S
C2603 C2599 1.385 . S
C2603 C2602 1.374 . S
C2604 C2601 1.499 . S
C2604 C2605 1.373 . S
C2604 C2606 1.389 . S
C2605 H2584 0.950 . S
C2605 C2604 1.373 . S
C2605 C2621 1.377 . S
C2606 C2604 1.389 . S
C2606 C2607 1.524 . S
C2606 C2620 1.377 . S
C2607 C2606 1.524 . S
C2607 C2608 1.397 . S
C2607 C2612 1.363 . S
C2608 H2585 0.950 . S
C2608 C2607 1.397 . S
C2608 C2609 1.334 . S
C2609 H2586 0.950 . S
C2609 C2608 1.334 . S
C2609 C2610 1.287 . S
C2610 C2609 1.287 . S
C2610 C2611 1.524 . S
C2610 H2629 0.913 . S
C2611 H2587 0.950 . S
C2611 C2610 1.524 . S
C2611 C2612 1.415 . S
C2612 H2588 0.950 . S
C2612 C2607 1.363 . S
C2612 C2611 1.415 . S
C2613 H2589 0.951 . S
C2613 C2614 1.366 . S
C2613 C2615 1.388 . S
C2614 C2613 1.366 . S
C2614 C2618 1.385 . S
C2615 H2590 0.951 . S
C2615 C2613 1.388 . S
C2615 C2616 1.366 . S
C2616 C2615 1.366 . S
C2616 C2617 1.414 . S
C2616 C2619 1.499 . S
C2617 H2591 0.950 . S
C2617 C2616 1.414 . S
C2617 C2618 1.374 . S
C2618 H2592 0.950 . S
C2618 C2614 1.385 . S
C2618 C2617 1.374 . S
C2619 C2616 1.499 . S
C2619 C2620 1.373 . S
C2619 C2621 1.389 . S
C2620 H2593 0.950 . S
C2620 C2606 1.377 . S
C2620 C2619 1.373 . S
C2621 C2605 1.377 . S
C2621 C2619 1.389 . S
C2621 C2622 1.524 . S
C2622 C2621 1.524 . S
C2622 C2623 1.397 . S
C2622 C2627 1.363 . S
C2623 H2594 0.950 . S
C2623 C2622 1.397 . S
C2623 C2624 1.334 . S
C2624 H2595 0.950 . S
C2624 C2623 1.334 . S
C2624 C2625 1.287 . S
C2625 C2624 1.287 . S
C2625 C2626 1.524 . S
C2625 H2628 0.999 . S
C2626 H2596 0.950 . S
C2626 C2625 1.524 . S
C2626 C2627 1.415 . S
C2627 H2597 0.950 . S
C2627 C2622 1.363 . S
C2627 C2626 1.415 . S
H2628 C2625 0.999 . S
H2629 C2610 0.913 . S
H2630 C2648 0.951 . S
H2631 C2650 0.951 . S
H2632 C2652 0.950 . S
H2633 C2653 0.950 . S
H2634 C2655 0.950 . S
H2635 C2658 0.950 . S
H2636 C2659 0.950 . S
H2637 C2661 0.950 . S
H2638 C2662 0.950 . S
H2639 C2663 0.951 . S
H2640 C2665 0.951 . S
H2641 C2667 0.950 . S
H2642 C2668 0.950 . S
H2643 C2670 0.950 . S
H2644 C2673 0.950 . S
H2645 C2674 0.950 . S
H2646 C2676 0.950 . S
H2647 C2677 0.950 . S
C2648 H2630 0.951 . S
C2648 C2649 1.366 . S
C2648 C2650 1.388 . S
C2649 C2648 1.366 . S
C2649 C2653 1.385 . S
C2650 H2631 0.951 . S
C2650 C2648 1.388 . S
C2650 C2651 1.366 . S
C2651 C2650 1.366 . S
C2651 C2652 1.414 . S
C2651 C2654 1.499 . S
C2652 H2632 0.950 . S
C2652 C2651 1.414 . S
C2652 C2653 1.374 . S
C2653 H2633 0.950 . S
C2653 C2649 1.385 . S
C2653 C2652 1.374 . S
C2654 C2651 1.499 . S
C2654 C2655 1.373 . S
C2654 C2656 1.389 . S
C2655 H2634 0.950 . S
C2655 C2654 1.373 . S
C2655 C2671 1.377 . S
C2656 C2654 1.389 . S
C2656 C2657 1.524 . S
C2656 C2670 1.377 . S
C2657 C2656 1.524 . S
C2657 C2658 1.397 . S
C2657 C2662 1.363 . S
C2658 H2635 0.950 . S
C2658 C2657 1.397 . S
C2658 C2659 1.334 . S
C2659 H2636 0.950 . S
C2659 C2658 1.334 . S
C2659 C2660 1.287 . S
C2660 C2659 1.287 . S
C2660 C2661 1.524 . S
C2660 H2679 0.913 . S
C2661 H2637 0.950 . S
C2661 C2660 1.524 . S
C2661 C2662 1.415 . S
C2662 H2638 0.950 . S
C2662 C2657 1.363 . S
C2662 C2661 1.415 . S
C2663 H2639 0.951 . S
C2663 C2664 1.366 . S
C2663 C2665 1.388 . S
C2664 C2663 1.366 . S
C2664 C2668 1.385 . S
C2665 H2640 0.951 . S
C2665 C2663 1.388 . S
C2665 C2666 1.366 . S
C2666 C2665 1.366 . S
C2666 C2667 1.414 . S
C2666 C2669 1.499 . S
C2667 H2641 0.950 . S
C2667 C2666 1.414 . S
C2667 C2668 1.374 . S
C2668 H2642 0.950 . S
C2668 C2664 1.385 . S
C2668 C2667 1.374 . S
C2669 C2666 1.499 . S
C2669 C2670 1.373 . S
C2669 C2671 1.389 . S
C2670 H2643 0.950 . S
C2670 C2656 1.377 . S
C2670 C2669 1.373 . S
C2671 C2655 1.377 . S
C2671 C2669 1.389 . S
C2671 C2672 1.524 . S
C2672 C2671 1.524 . S
C2672 C2673 1.397 . S
C2672 C2677 1.363 . S
C2673 H2644 0.950 . S
C2673 C2672 1.397 . S
C2673 C2674 1.334 . S
C2674 H2645 0.950 . S
C2674 C2673 1.334 . S
C2674 C2675 1.287 . S
C2675 C2674 1.287 . S
C2675 C2676 1.524 . S
C2675 H2678 0.999 . S
C2676 H2646 0.950 . S
C2676 C2675 1.524 . S
C2676 C2677 1.415 . S
C2677 H2647 0.950 . S
C2677 C2672 1.363 . S
C2677 C2676 1.415 . S
H2678 C2675 0.999 . S
H2679 C2660 0.913 . S
H2680 C2698 0.951 . S
H2681 C2700 0.951 . S
H2682 C2702 0.950 . S
H2683 C2703 0.950 . S
H2684 C2705 0.950 . S
H2685 C2708 0.950 . S
H2686 C2709 0.950 . S
H2687 C2711 0.950 . S
H2688 C2712 0.950 . S
H2689 C2713 0.951 . S
H2690 C2715 0.951 . S
H2691 C2717 0.950 . S
H2692 C2718 0.950 . S
H2693 C2720 0.950 . S
H2694 C2723 0.950 . S
H2695 C2724 0.950 . S
H2696 C2726 0.950 . S
H2697 C2727 0.950 . S
C2698 H2680 0.951 . S
C2698 C2699 1.366 . S
C2698 C2700 1.388 . S
C2699 C2698 1.366 . S
C2699 C2703 1.385 . S
C2700 H2681 0.951 . S
C2700 C2698 1.388 . S
C2700 C2701 1.366 . S
C2701 C2700 1.366 . S
C2701 C2702 1.414 . S
C2701 C2704 1.499 . S
C2702 H2682 0.950 . S
C2702 C2701 1.414 . S
C2702 C2703 1.374 . S
C2703 H2683 0.950 . S
C2703 C2699 1.385 . S
C2703 C2702 1.374 . S
C2704 C2701 1.499 . S
C2704 C2705 1.373 . S
C2704 C2706 1.389 . S
C2705 H2684 0.950 . S
C2705 C2704 1.373 . S
C2705 C2721 1.377 . S
C2706 C2704 1.389 . S
C2706 C2707 1.524 . S
C2706 C2720 1.377 . S
C2707 C2706 1.524 . S
C2707 C2708 1.397 . S
C2707 C2712 1.363 . S
C2708 H2685 0.950 . S
C2708 C2707 1.397 . S
C2708 C2709 1.334 . S
C2709 H2686 0.950 . S
C2709 C2708 1.334 . S
C2709 C2710 1.287 . S
C2710 C2709 1.287 . S
C2710 C2711 1.524 . S
C2710 H2729 0.913 . S
C2711 H2687 0.950 . S
C2711 C2710 1.524 . S
C2711 C2712 1.415 . S
C2712 H2688 0.950 . S
C2712 C2707 1.363 . S
C2712 C2711 1.415 . S
C2713 H2689 0.951 . S
C2713 C2714 1.366 . S
C2713 C2715 1.388 . S
C2714 C2713 1.366 . S
C2714 C2718 1.385 . S
C2715 H2690 0.951 . S
C2715 C2713 1.388 . S
C2715 C2716 1.366 . S
C2716 C2715 1.366 . S
C2716 C2717 1.414 . S
C2716 C2719 1.499 . S
C2717 H2691 0.950 . S
C2717 C2716 1.414 . S
C2717 C2718 1.374 . S
C2718 H2692 0.950 . S
C2718 C2714 1.385 . S
C2718 C2717 1.374 . S
C2719 C2716 1.499 . S
C2719 C2720 1.373 . S
C2719 C2721 1.389 . S
C2720 H2693 0.950 . S
C2720 C2706 1.377 . S
C2720 C2719 1.373 . S
C2721 C2705 1.377 . S
C2721 C2719 1.389 . S
C2721 C2722 1.524 . S
C2722 C2721 1.524 . S
C2722 C2723 1.397 . S
C2722 C2727 1.363 . S
C2723 H2694 0.950 . S
C2723 C2722 1.397 . S
C2723 C2724 1.334 . S
C2724 H2695 0.950 . S
C2724 C2723 1.334 . S
C2724 C2725 1.287 . S
C2725 C2724 1.287 . S
C2725 C2726 1.524 . S
C2725 H2728 0.999 . S
C2726 H2696 0.950 . S
C2726 C2725 1.524 . S
C2726 C2727 1.415 . S
C2727 H2697 0.950 . S
C2727 C2722 1.363 . S
C2727 C2726 1.415 . S
H2728 C2725 0.999 . S
H2729 C2710 0.913 . S
H2730 C2748 0.951 . S
H2731 C2750 0.951 . S
H2732 C2752 0.950 . S
H2733 C2753 0.950 . S
H2734 C2755 0.950 . S
H2735 C2758 0.950 . S
H2736 C2759 0.950 . S
H2737 C2761 0.950 . S
H2738 C2762 0.950 . S
H2739 C2763 0.951 . S
H2740 C2765 0.951 . S
H2741 C2767 0.950 . S
H2742 C2768 0.950 . S
H2743 C2770 0.950 . S
H2744 C2773 0.950 . S
H2745 C2774 0.950 . S
H2746 C2776 0.950 . S
H2747 C2777 0.950 . S
C2748 H2730 0.951 . S
C2748 C2749 1.366 . S
C2748 C2750 1.388 . S
C2749 C2748 1.366 . S
C2749 C2753 1.385 . S
C2750 H2731 0.951 . S
C2750 C2748 1.388 . S
C2750 C2751 1.366 . S
C2751 C2750 1.366 . S
C2751 C2752 1.414 . S
C2751 C2754 1.499 . S
C2752 H2732 0.950 . S
C2752 C2751 1.414 . S
C2752 C2753 1.374 . S
C2753 H2733 0.950 . S
C2753 C2749 1.385 . S
C2753 C2752 1.374 . S
C2754 C2751 1.499 . S
C2754 C2755 1.373 . S
C2754 C2756 1.389 . S
C2755 H2734 0.950 . S
C2755 C2754 1.373 . S
C2755 C2771 1.377 . S
C2756 C2754 1.389 . S
C2756 C2757 1.524 . S
C2756 C2770 1.377 . S
C2757 C2756 1.524 . S
C2757 C2758 1.397 . S
C2757 C2762 1.363 . S
C2758 H2735 0.950 . S
C2758 C2757 1.397 . S
C2758 C2759 1.334 . S
C2759 H2736 0.950 . S
C2759 C2758 1.334 . S
C2759 C2760 1.287 . S
C2760 C2759 1.287 . S
C2760 C2761 1.524 . S
C2760 H2779 0.913 . S
C2761 H2737 0.950 . S
C2761 C2760 1.524 . S
C2761 C2762 1.415 . S
C2762 H2738 0.950 . S
C2762 C2757 1.363 . S
C2762 C2761 1.415 . S
C2763 H2739 0.951 . S
C2763 C2764 1.366 . S
C2763 C2765 1.388 . S
C2764 C2763 1.366 . S
C2764 C2768 1.385 . S
C2765 H2740 0.951 . S
C2765 C2763 1.388 . S
C2765 C2766 1.366 . S
C2766 C2765 1.366 . S
C2766 C2767 1.414 . S
C2766 C2769 1.499 . S
C2767 H2741 0.950 . S
C2767 C2766 1.414 . S
C2767 C2768 1.374 . S
C2768 H2742 0.950 . S
C2768 C2764 1.385 . S
C2768 C2767 1.374 . S
C2769 C2766 1.499 . S
C2769 C2770 1.373 . S
C2769 C2771 1.389 . S
C2770 H2743 0.950 . S
C2770 C2756 1.377 . S
C2770 C2769 1.373 . S
C2771 C2755 1.377 . S
C2771 C2769 1.389 . S
C2771 C2772 1.524 . S
C2772 C2771 1.524 . S
C2772 C2773 1.397 . S
C2772 C2777 1.363 . S
C2773 H2744 0.950 . S
C2773 C2772 1.397 . S
C2773 C2774 1.334 . S
C2774 H2745 0.950 . S
C2774 C2773 1.334 . S
C2774 C2775 1.287 . S
C2775 C2774 1.287 . S
C2775 C2776 1.524 . S
C2775 H2778 0.999 . S
C2776 H2746 0.950 . S
C2776 C2775 1.524 . S
C2776 C2777 1.415 . S
C2777 H2747 0.950 . S
C2777 C2772 1.363 . S
C2777 C2776 1.415 . S
H2778 C2775 0.999 . S
H2779 C2760 0.913 . S
H2780 C2798 0.951 . S
H2781 C2800 0.951 . S
H2782 C2802 0.950 . S
H2783 C2803 0.950 . S
H2784 C2805 0.950 . S
H2785 C2808 0.950 . S
H2786 C2809 0.950 . S
H2787 C2811 0.950 . S
H2788 C2812 0.950 . S
H2789 C2813 0.951 . S
H2790 C2815 0.951 . S
H2791 C2817 0.950 . S
H2792 C2818 0.950 . S
H2793 C2820 0.950 . S
H2794 C2823 0.950 . S
H2795 C2824 0.950 . S
H2796 C2826 0.950 . S
H2797 C2827 0.950 . S
C2798 H2780 0.951 . S
C2798 C2799 1.366 . S
C2798 C2800 1.388 . S
C2799 C2798 1.366 . S
C2799 C2803 1.385 . S
C2800 H2781 0.951 . S
C2800 C2798 1.388 . S
C2800 C2801 1.366 . S
C2801 C2800 1.366 . S
C2801 C2802 1.414 . S
C2801 C2804 1.499 . S
C2802 H2782 0.950 . S
C2802 C2801 1.414 . S
C2802 C2803 1.374 . S
C2803 H2783 0.950 . S
C2803 C2799 1.385 . S
C2803 C2802 1.374 . S
C2804 C2801 1.499 . S
C2804 C2805 1.373 . S
C2804 C2806 1.389 . S
C2805 H2784 0.950 . S
C2805 C2804 1.373 . S
C2805 C2821 1.377 . S
C2806 C2804 1.389 . S
C2806 C2807 1.524 . S
C2806 C2820 1.377 . S
C2807 C2806 1.524 . S
C2807 C2808 1.397 . S
C2807 C2812 1.363 . S
C2808 H2785 0.950 . S
C2808 C2807 1.397 . S
C2808 C2809 1.334 . S
C2809 H2786 0.950 . S
C2809 C2808 1.334 . S
C2809 C2810 1.287 . S
C2810 C2809 1.287 . S
C2810 C2811 1.524 . S
C2810 H2829 0.913 . S
C2811 H2787 0.950 . S
C2811 C2810 1.524 . S
C2811 C2812 1.415 . S
C2812 H2788 0.950 . S
C2812 C2807 1.363 . S
C2812 C2811 1.415 . S
C2813 H2789 0.951 . S
C2813 C2814 1.366 . S
C2813 C2815 1.388 . S
C2814 C2813 1.366 . S
C2814 C2818 1.385 . S
C2815 H2790 0.951 . S
C2815 C2813 1.388 . S
C2815 C2816 1.366 . S
C2816 C2815 1.366 . S
C2816 C2817 1.414 . S
C2816 C2819 1.499 . S
C2817 H2791 0.950 . S
C2817 C2816 1.414 . S
C2817 C2818 1.374 . S
C2818 H2792 0.950 . S
C2818 C2814 1.385 . S
C2818 C2817 1.374 . S
C2819 C2816 1.499 . S
C2819 C2820 1.373 . S
C2819 C2821 1.389 . S
C2820 H2793 0.950 . S
C2820 C2806 1.377 . S
C2820 C2819 1.373 . S
C2821 C2805 1.377 . S
C2821 C2819 1.389 . S
C2821 C2822 1.524 . S
C2822 C2821 1.524 . S
C2822 C2823 1.397 . S
C2822 C2827 1.363 . S
C2823 H2794 0.950 . S
C2823 C2822 1.397 . S
C2823 C2824 1.334 . S
C2824 H2795 0.950 . S
C2824 C2823 1.334 . S
C2824 C2825 1.287 . S
C2825 C2824 1.287 . S
C2825 C2826 1.524 . S
C2825 H2828 0.999 . S
C2826 H2796 0.950 . S
C2826 C2825 1.524 . S
C2826 C2827 1.415 . S
C2827 H2797 0.950 . S
C2827 C2822 1.363 . S
C2827 C2826 1.415 . S
H2828 C2825 0.999 . S
H2829 C2810 0.913 . S
H2830 C2848 0.951 . S
H2831 C2850 0.951 . S
H2832 C2852 0.950 . S
H2833 C2853 0.950 . S
H2834 C2855 0.950 . S
H2835 C2858 0.950 . S
H2836 C2859 0.950 . S
H2837 C2861 0.950 . S
H2838 C2862 0.950 . S
H2839 C2863 0.951 . S
H2840 C2865 0.951 . S
H2841 C2867 0.950 . S
H2842 C2868 0.950 . S
H2843 C2870 0.950 . S
H2844 C2873 0.950 . S
H2845 C2874 0.950 . S
H2846 C2876 0.950 . S
H2847 C2877 0.950 . S
C2848 H2830 0.951 . S
C2848 C2849 1.366 . S
C2848 C2850 1.388 . S
C2849 C2848 1.366 . S
C2849 C2853 1.385 . S
C2850 H2831 0.951 . S
C2850 C2848 1.388 . S
C2850 C2851 1.366 . S
C2851 C2850 1.366 . S
C2851 C2852 1.414 . S
C2851 C2854 1.499 . S
C2852 H2832 0.950 . S
C2852 C2851 1.414 . S
C2852 C2853 1.374 . S
C2853 H2833 0.950 . S
C2853 C2849 1.385 . S
C2853 C2852 1.374 . S
C2854 C2851 1.499 . S
C2854 C2855 1.373 . S
C2854 C2856 1.389 . S
C2855 H2834 0.950 . S
C2855 C2854 1.373 . S
C2855 C2871 1.377 . S
C2856 C2854 1.389 . S
C2856 C2857 1.524 . S
C2856 C2870 1.377 . S
C2857 C2856 1.524 . S
C2857 C2858 1.397 . S
C2857 C2862 1.363 . S
C2858 H2835 0.950 . S
C2858 C2857 1.397 . S
C2858 C2859 1.334 . S
C2859 H2836 0.950 . S
C2859 C2858 1.334 . S
C2859 C2860 1.287 . S
C2860 C2859 1.287 . S
C2860 C2861 1.524 . S
C2860 H2879 0.913 . S
C2861 H2837 0.950 . S
C2861 C2860 1.524 . S
C2861 C2862 1.415 . S
C2862 H2838 0.950 . S
C2862 C2857 1.363 . S
C2862 C2861 1.415 . S
C2863 H2839 0.951 . S
C2863 C2864 1.366 . S
C2863 C2865 1.388 . S
C2864 C2863 1.366 . S
C2864 C2868 1.385 . S
C2865 H2840 0.951 . S
C2865 C2863 1.388 . S
C2865 C2866 1.366 . S
C2866 C2865 1.366 . S
C2866 C2867 1.414 . S
C2866 C2869 1.499 . S
C2867 H2841 0.950 . S
C2867 C2866 1.414 . S
C2867 C2868 1.374 . S
C2868 H2842 0.950 . S
C2868 C2864 1.385 . S
C2868 C2867 1.374 . S
C2869 C2866 1.499 . S
C2869 C2870 1.373 . S
C2869 C2871 1.389 . S
C2870 H2843 0.950 . S
C2870 C2856 1.377 . S
C2870 C2869 1.373 . S
C2871 C2855 1.377 . S
C2871 C2869 1.389 . S
C2871 C2872 1.524 . S
C2872 C2871 1.524 . S
C2872 C2873 1.397 . S
C2872 C2877 1.363 . S
C2873 H2844 0.950 . S
C2873 C2872 1.397 . S
C2873 C2874 1.334 . S
C2874 H2845 0.950 . S
C2874 C2873 1.334 . S
C2874 C2875 1.287 . S
C2875 C2874 1.287 . S
C2875 C2876 1.524 . S
C2875 H2878 0.999 . S
C2876 H2846 0.950 . S
C2876 C2875 1.524 . S
C2876 C2877 1.415 . S
C2877 H2847 0.950 . S
C2877 C2872 1.363 . S
C2877 C2876 1.415 . S
H2878 C2875 0.999 . S
H2879 C2860 0.913 . S
H2880 C2898 0.951 . S
H2881 C2900 0.951 . S
H2882 C2902 0.950 . S
H2883 C2903 0.950 . S
H2884 C2905 0.950 . S
H2885 C2908 0.950 . S
H2886 C2909 0.950 . S
H2887 C2911 0.950 1_556 S
H2888 C2912 0.950 . S
H2889 C2913 0.951 . S
H2890 C2915 0.951 . S
H2891 C2917 0.950 . S
H2892 C2918 0.950 . S
H2893 C2920 0.950 . S
H2894 C2923 0.950 . S
H2895 C2924 0.950 . S
H2896 C2926 0.950 . S
H2897 C2927 0.950 . S
C2898 H2880 0.951 . S
C2898 C2899 1.366 . S
C2898 C2900 1.388 . S
C2899 C2898 1.366 . S
C2899 C2903 1.385 . S
C2900 H2881 0.951 . S
C2900 C2898 1.388 . S
C2900 C2901 1.366 . S
C2901 C2900 1.366 . S
C2901 C2902 1.414 . S
C2901 C2904 1.499 . S
C2902 H2882 0.950 . S
C2902 C2901 1.414 . S
C2902 C2903 1.374 . S
C2903 H2883 0.950 . S
C2903 C2899 1.385 . S
C2903 C2902 1.374 . S
C2904 C2901 1.499 . S
C2904 C2905 1.373 . S
C2904 C2906 1.389 . S
C2905 H2884 0.950 . S
C2905 C2904 1.373 . S
C2905 C2921 1.377 . S
C2906 C2904 1.389 . S
C2906 C2907 1.524 . S
C2906 C2920 1.377 . S
C2907 C2906 1.524 . S
C2907 C2908 1.397 . S
C2907 C2912 1.363 . S
C2908 H2885 0.950 . S
C2908 C2907 1.397 . S
C2908 C2909 1.334 . S
C2909 H2886 0.950 . S
C2909 C2908 1.334 . S
C2909 C2910 1.287 . S
C2910 C2909 1.287 . S
C2910 C2911 1.524 . S
C2910 H2929 0.913 . S
C2911 H2887 0.950 1_554 S
C2911 C2910 1.524 . S
C2911 C2912 1.415 . S
C2912 H2888 0.950 . S
C2912 C2907 1.363 . S
C2912 C2911 1.415 . S
C2913 H2889 0.951 . S
C2913 C2914 1.366 . S
C2913 C2915 1.388 . S
C2914 C2913 1.366 . S
C2914 C2918 1.385 . S
C2915 H2890 0.951 . S
C2915 C2913 1.388 . S
C2915 C2916 1.366 . S
C2916 C2915 1.366 . S
C2916 C2917 1.414 . S
C2916 C2919 1.499 . S
C2917 H2891 0.950 . S
C2917 C2916 1.414 . S
C2917 C2918 1.374 . S
C2918 H2892 0.950 . S
C2918 C2914 1.385 . S
C2918 C2917 1.374 . S
C2919 C2916 1.499 . S
C2919 C2920 1.373 . S
C2919 C2921 1.389 . S
C2920 H2893 0.950 . S
C2920 C2906 1.377 . S
C2920 C2919 1.373 . S
C2921 C2905 1.377 . S
C2921 C2919 1.389 . S
C2921 C2922 1.524 . S
C2922 C2921 1.524 . S
C2922 C2923 1.397 . S
C2922 C2927 1.363 . S
C2923 H2894 0.950 . S
C2923 C2922 1.397 . S
C2923 C2924 1.334 1_455 S
C2924 H2895 0.950 . S
C2924 C2923 1.334 1_655 S
C2924 C2925 1.287 1_655 S
C2925 C2924 1.287 1_455 S
C2925 C2926 1.524 . S
C2925 H2928 0.999 1_455 S
C2926 H2896 0.950 . S
C2926 C2925 1.524 . S
C2926 C2927 1.415 . S
C2927 H2897 0.950 . S
C2927 C2922 1.363 . S
C2927 C2926 1.415 . S
H2928 C2925 0.999 1_655 S
H2929 C2910 0.913 . S
H2930 C2948 0.951 . S
H2931 C2950 0.951 . S
H2932 C2952 0.950 . S
H2933 C2953 0.950 . S
H2934 C2955 0.950 . S
H2935 C2958 0.950 . S
H2936 C2959 0.950 . S
H2937 C2961 0.950 . S
H2938 C2962 0.950 . S
H2939 C2963 0.951 . S
H2940 C2965 0.951 . S
H2941 C2967 0.950 . S
H2942 C2968 0.950 . S
H2943 C2970 0.950 . S
H2944 C2973 0.950 . S
H2945 C2974 0.950 . S
H2946 C2976 0.950 . S
H2947 C2977 0.950 . S
C2948 H2930 0.951 . S
C2948 C2949 1.366 . S
C2948 C2950 1.388 . S
C2949 C2948 1.366 . S
C2949 C2953 1.385 . S
C2950 H2931 0.951 . S
C2950 C2948 1.388 . S
C2950 C2951 1.366 . S
C2951 C2950 1.366 . S
C2951 C2952 1.414 . S
C2951 C2954 1.499 . S
C2952 H2932 0.950 . S
C2952 C2951 1.414 . S
C2952 C2953 1.374 . S
C2953 H2933 0.950 . S
C2953 C2949 1.385 . S
C2953 C2952 1.374 . S
C2954 C2951 1.499 . S
C2954 C2955 1.373 . S
C2954 C2956 1.389 . S
C2955 H2934 0.950 . S
C2955 C2954 1.373 . S
C2955 C2971 1.377 . S
C2956 C2954 1.389 . S
C2956 C2957 1.524 . S
C2956 C2970 1.377 . S
C2957 C2956 1.524 . S
C2957 C2958 1.397 . S
C2957 C2962 1.363 . S
C2958 H2935 0.950 . S
C2958 C2957 1.397 . S
C2958 C2959 1.334 . S
C2959 H2936 0.950 . S
C2959 C2958 1.334 . S
C2959 C2960 1.287 . S
C2960 C2959 1.287 . S
C2960 C2961 1.524 . S
C2960 H2979 0.913 . S
C2961 H2937 0.950 . S
C2961 C2960 1.524 . S
C2961 C2962 1.415 . S
C2962 H2938 0.950 . S
C2962 C2957 1.363 . S
C2962 C2961 1.415 . S
C2963 H2939 0.951 . S
C2963 C2964 1.366 . S
C2963 C2965 1.388 . S
C2964 C2963 1.366 . S
C2964 C2968 1.385 . S
C2965 H2940 0.951 . S
C2965 C2963 1.388 . S
C2965 C2966 1.366 . S
C2966 C2965 1.366 . S
C2966 C2967 1.414 . S
C2966 C2969 1.499 . S
C2967 H2941 0.950 . S
C2967 C2966 1.414 . S
C2967 C2968 1.374 . S
C2968 H2942 0.950 . S
C2968 C2964 1.385 . S
C2968 C2967 1.374 . S
C2969 C2966 1.499 . S
C2969 C2970 1.373 . S
C2969 C2971 1.389 . S
C2970 H2943 0.950 . S
C2970 C2956 1.377 . S
C2970 C2969 1.373 . S
C2971 C2955 1.377 . S
C2971 C2969 1.389 . S
C2971 C2972 1.524 . S
C2972 C2971 1.524 . S
C2972 C2973 1.397 . S
C2972 C2977 1.363 . S
C2973 H2944 0.950 . S
C2973 C2972 1.397 . S
C2973 C2974 1.334 . S
C2974 H2945 0.950 . S
C2974 C2973 1.334 . S
C2974 C2975 1.287 . S
C2975 C2974 1.287 . S
C2975 C2976 1.524 . S
C2975 H2978 0.999 . S
C2976 H2946 0.950 . S
C2976 C2975 1.524 . S
C2976 C2977 1.415 . S
C2977 H2947 0.950 . S
C2977 C2972 1.363 . S
C2977 C2976 1.415 . S
H2978 C2975 0.999 . S
H2979 C2960 0.913 . S
H2980 C2998 0.951 . S
H2981 C3000 0.951 . S
H2982 C3002 0.950 . S
H2983 C3003 0.950 . S
H2984 C3005 0.950 . S
H2985 C3008 0.950 . S
H2986 C3009 0.950 . S
H2987 C3011 0.950 . S
H2988 C3012 0.950 . S
H2989 C3013 0.951 . S
H2990 C3015 0.951 . S
H2991 C3017 0.950 . S
H2992 C3018 0.950 . S
H2993 C3020 0.950 . S
H2994 C3023 0.950 . S
H2995 C3024 0.950 . S
H2996 C3026 0.950 . S
H2997 C3027 0.950 . S
C2998 H2980 0.951 . S
C2998 C2999 1.366 . S
C2998 C3000 1.388 . S
C2999 C2998 1.366 . S
C2999 C3003 1.385 . S
C3000 H2981 0.951 . S
C3000 C2998 1.388 . S
C3000 C3001 1.366 . S
C3001 C3000 1.366 . S
C3001 C3002 1.414 . S
C3001 C3004 1.499 . S
C3002 H2982 0.950 . S
C3002 C3001 1.414 . S
C3002 C3003 1.374 . S
C3003 H2983 0.950 . S
C3003 C2999 1.385 . S
C3003 C3002 1.374 . S
C3004 C3001 1.499 . S
C3004 C3005 1.373 . S
C3004 C3006 1.389 . S
C3005 H2984 0.950 . S
C3005 C3004 1.373 . S
C3005 C3021 1.377 . S
C3006 C3004 1.389 . S
C3006 C3007 1.524 . S
C3006 C3020 1.377 . S
C3007 C3006 1.524 . S
C3007 C3008 1.397 . S
C3007 C3012 1.363 . S
C3008 H2985 0.950 . S
C3008 C3007 1.397 . S
C3008 C3009 1.334 . S
C3009 H2986 0.950 . S
C3009 C3008 1.334 . S
C3009 C3010 1.287 . S
C3010 C3009 1.287 . S
C3010 C3011 1.524 . S
C3010 H3029 0.913 . S
C3011 H2987 0.950 . S
C3011 C3010 1.524 . S
C3011 C3012 1.415 . S
C3012 H2988 0.950 . S
C3012 C3007 1.363 . S
C3012 C3011 1.415 . S
C3013 H2989 0.951 . S
C3013 C3014 1.366 . S
C3013 C3015 1.388 . S
C3014 C3013 1.366 . S
C3014 C3018 1.385 . S
C3015 H2990 0.951 . S
C3015 C3013 1.388 . S
C3015 C3016 1.366 . S
C3016 C3015 1.366 . S
C3016 C3017 1.414 . S
C3016 C3019 1.499 . S
C3017 H2991 0.950 . S
C3017 C3016 1.414 . S
C3017 C3018 1.374 . S
C3018 H2992 0.950 . S
C3018 C3014 1.385 . S
C3018 C3017 1.374 . S
C3019 C3016 1.499 . S
C3019 C3020 1.373 . S
C3019 C3021 1.389 . S
C3020 H2993 0.950 . S
C3020 C3006 1.377 . S
C3020 C3019 1.373 . S
C3021 C3005 1.377 . S
C3021 C3019 1.389 . S
C3021 C3022 1.524 . S
C3022 C3021 1.524 . S
C3022 C3023 1.397 . S
C3022 C3027 1.363 . S
C3023 H2994 0.950 . S
C3023 C3022 1.397 . S
C3023 C3024 1.334 . S
C3024 H2995 0.950 . S
C3024 C3023 1.334 . S
C3024 C3025 1.287 . S
C3025 C3024 1.287 . S
C3025 C3026 1.524 . S
C3025 H3028 0.999 . S
C3026 H2996 0.950 . S
C3026 C3025 1.524 . S
C3026 C3027 1.415 . S
C3027 H2997 0.950 . S
C3027 C3022 1.363 . S
C3027 C3026 1.415 . S
H3028 C3025 0.999 . S
H3029 C3010 0.913 . S
H3030 C3048 0.951 . S
H3031 C3050 0.951 . S
H3032 C3052 0.950 . S
H3033 C3053 0.950 . S
H3034 C3055 0.950 . S
H3035 C3058 0.950 . S
H3036 C3059 0.950 . S
H3037 C3061 0.950 . S
H3038 C3062 0.950 . S
H3039 C3063 0.951 . S
H3040 C3065 0.951 . S
H3041 C3067 0.950 . S
H3042 C3068 0.950 . S
H3043 C3070 0.950 . S
H3044 C3073 0.950 . S
H3045 C3074 0.950 . S
H3046 C3076 0.950 . S
H3047 C3077 0.950 . S
C3048 H3030 0.951 . S
C3048 C3049 1.366 . S
C3048 C3050 1.388 . S
C3049 C3048 1.366 . S
C3049 C3053 1.385 . S
C3050 H3031 0.951 . S
C3050 C3048 1.388 . S
C3050 C3051 1.366 . S
C3051 C3050 1.366 . S
C3051 C3052 1.414 . S
C3051 C3054 1.499 . S
C3052 H3032 0.950 . S
C3052 C3051 1.414 . S
C3052 C3053 1.374 . S
C3053 H3033 0.950 . S
C3053 C3049 1.385 . S
C3053 C3052 1.374 . S
C3054 C3051 1.499 . S
C3054 C3055 1.373 . S
C3054 C3056 1.389 . S
C3055 H3034 0.950 . S
C3055 C3054 1.373 . S
C3055 C3071 1.377 . S
C3056 C3054 1.389 . S
C3056 C3057 1.524 . S
C3056 C3070 1.377 . S
C3057 C3056 1.524 . S
C3057 C3058 1.397 . S
C3057 C3062 1.363 . S
C3058 H3035 0.950 . S
C3058 C3057 1.397 . S
C3058 C3059 1.334 . S
C3059 H3036 0.950 . S
C3059 C3058 1.334 . S
C3059 C3060 1.287 . S
C3060 C3059 1.287 . S
C3060 C3061 1.524 . S
C3060 H3079 0.913 . S
C3061 H3037 0.950 . S
C3061 C3060 1.524 . S
C3061 C3062 1.415 . S
C3062 H3038 0.950 . S
C3062 C3057 1.363 . S
C3062 C3061 1.415 . S
C3063 H3039 0.951 . S
C3063 C3064 1.366 . S
C3063 C3065 1.388 . S
C3064 C3063 1.366 . S
C3064 C3068 1.385 . S
C3065 H3040 0.951 . S
C3065 C3063 1.388 . S
C3065 C3066 1.366 . S
C3066 C3065 1.366 . S
C3066 C3067 1.414 . S
C3066 C3069 1.499 . S
C3067 H3041 0.950 . S
C3067 C3066 1.414 . S
C3067 C3068 1.374 . S
C3068 H3042 0.950 . S
C3068 C3064 1.385 . S
C3068 C3067 1.374 . S
C3069 C3066 1.499 . S
C3069 C3070 1.373 . S
C3069 C3071 1.389 . S
C3070 H3043 0.950 . S
C3070 C3056 1.377 . S
C3070 C3069 1.373 . S
C3071 C3055 1.377 . S
C3071 C3069 1.389 . S
C3071 C3072 1.524 . S
C3072 C3071 1.524 . S
C3072 C3073 1.397 . S
C3072 C3077 1.363 . S
C3073 H3044 0.950 . S
C3073 C3072 1.397 . S
C3073 C3074 1.334 . S
C3074 H3045 0.950 . S
C3074 C3073 1.334 . S
C3074 C3075 1.287 . S
C3075 C3074 1.287 . S
C3075 C3076 1.524 . S
C3075 H3078 0.999 . S
C3076 H3046 0.950 . S
C3076 C3075 1.524 . S
C3076 C3077 1.415 . S
C3077 H3047 0.950 . S
C3077 C3072 1.363 . S
C3077 C3076 1.415 . S
H3078 C3075 0.999 . S
H3079 C3060 0.913 . S
H3080 C3098 0.951 . S
H3081 C3100 0.951 . S
H3082 C3102 0.950 . S
H3083 C3103 0.950 . S
H3084 C3105 0.950 . S
H3085 C3108 0.950 . S
H3086 C3109 0.950 . S
H3087 C3111 0.950 . S
H3088 C3112 0.950 . S
H3089 C3113 0.951 . S
H3090 C3115 0.951 . S
H3091 C3117 0.950 . S
H3092 C3118 0.950 . S
H3093 C3120 0.950 . S
H3094 C3123 0.950 . S
H3095 C3124 0.950 . S
H3096 C3126 0.950 1_655 S
H3097 C3127 0.964 . S
C3098 H3080 0.951 . S
C3098 C3099 1.366 . S
C3098 C3100 1.388 . S
C3099 C3098 1.366 . S
C3099 C3103 1.385 . S
C3100 H3081 0.951 . S
C3100 C3098 1.388 . S
C3100 C3101 1.366 . S
C3101 C3100 1.366 . S
C3101 C3102 1.414 . S
C3101 C3104 1.499 . S
C3102 H3082 0.950 . S
C3102 C3101 1.414 . S
C3102 C3103 1.374 . S
C3103 H3083 0.950 . S
C3103 C3099 1.385 . S
C3103 C3102 1.374 . S
C3104 C3101 1.499 . S
C3104 C3105 1.373 . S
C3104 C3106 1.389 . S
C3105 H3084 0.950 . S
C3105 C3104 1.373 . S
C3105 C3121 1.377 . S
C3106 C3104 1.389 . S
C3106 C3107 1.524 . S
C3106 C3120 1.377 . S
C3107 C3106 1.524 . S
C3107 C3108 1.397 . S
C3107 C3112 1.363 . S
C3108 H3085 0.950 . S
C3108 C3107 1.397 . S
C3108 C3109 1.334 . S
C3109 H3086 0.950 . S
C3109 C3108 1.334 . S
C3109 C3110 1.287 . S
C3110 C3109 1.287 . S
C3110 C3111 1.524 . S
C3110 H3129 0.913 . S
C3111 H3087 0.950 . S
C3111 C3110 1.524 . S
C3111 C3112 1.415 . S
C3112 H3088 0.950 . S
C3112 C3107 1.363 . S
C3112 C3111 1.415 . S
C3113 H3089 0.951 . S
C3113 C3114 1.366 . S
C3113 C3115 1.388 . S
C3114 C3113 1.366 . S
C3114 C3118 1.385 . S
C3115 H3090 0.951 . S
C3115 C3113 1.388 . S
C3115 C3116 1.366 . S
C3116 C3115 1.366 . S
C3116 C3117 1.414 . S
C3116 C3119 1.499 . S
C3117 H3091 0.950 . S
C3117 C3116 1.414 . S
C3117 C3118 1.374 . S
C3118 H3092 0.950 . S
C3118 C3114 1.385 . S
C3118 C3117 1.374 . S
C3119 C3116 1.499 . S
C3119 C3120 1.373 . S
C3119 C3121 1.389 . S
C3120 H3093 0.950 . S
C3120 C3106 1.377 . S
C3120 C3119 1.373 . S
C3121 C3105 1.377 . S
C3121 C3119 1.389 . S
C3121 C3122 1.524 . S
C3122 C3121 1.524 . S
C3122 C3123 1.397 . S
C3122 C3127 1.363 . S
C3123 H3094 0.950 . S
C3123 C3122 1.397 . S
C3123 C3124 1.334 . S
C3124 H3095 0.950 . S
C3124 C3123 1.334 . S
C3124 C3125 1.287 . S
C3125 C3124 1.287 . S
C3125 C3126 1.524 . S
C3125 H3128 0.999 . S
C3126 H3096 0.950 1_455 S
C3126 C3125 1.524 . S
C3126 C3127 1.415 . S
C3127 H3097 0.964 . S
C3127 C3122 1.363 . S
C3127 C3126 1.415 . S
H3128 C3125 0.999 . S
H3129 C3110 0.913 . S
H3130 C3148 0.951 . S
H3131 C3150 0.951 . S
H3132 C3152 0.950 . S
H3133 C3153 0.950 . S
H3134 C3155 0.950 . S
H3135 C3158 0.950 . S
H3136 C3159 0.950 . S
H3137 C3161 0.950 . S
H3138 C3162 0.950 . S
H3139 C3163 0.951 . S
H3140 C3165 0.951 . S
H3141 C3167 0.950 . S
H3142 C3168 0.950 . S
H3143 C3170 0.950 . S
H3144 C3173 0.950 . S
H3145 C3174 0.950 . S
H3146 C3176 0.950 . S
H3147 C3177 0.950 . S
C3148 H3130 0.951 . S
C3148 C3149 1.366 . S
C3148 C3150 1.388 . S
C3149 C3148 1.366 . S
C3149 C3153 1.385 . S
C3150 H3131 0.951 . S
C3150 C3148 1.388 . S
C3150 C3151 1.366 . S
C3151 C3150 1.366 . S
C3151 C3152 1.414 . S
C3151 C3154 1.499 . S
C3152 H3132 0.950 . S
C3152 C3151 1.414 . S
C3152 C3153 1.374 . S
C3153 H3133 0.950 . S
C3153 C3149 1.385 . S
C3153 C3152 1.374 . S
C3154 C3151 1.499 . S
C3154 C3155 1.373 . S
C3154 C3156 1.389 . S
C3155 H3134 0.950 . S
C3155 C3154 1.373 . S
C3155 C3171 1.377 . S
C3156 C3154 1.389 . S
C3156 C3157 1.524 . S
C3156 C3170 1.377 . S
C3157 C3156 1.524 . S
C3157 C3158 1.397 . S
C3157 C3162 1.363 . S
C3158 H3135 0.950 . S
C3158 C3157 1.397 . S
C3158 C3159 1.334 . S
C3159 H3136 0.950 . S
C3159 C3158 1.334 . S
C3159 C3160 1.287 . S
C3160 C3159 1.287 . S
C3160 C3161 1.524 . S
C3160 H3179 0.913 . S
C3161 H3137 0.950 . S
C3161 C3160 1.524 . S
C3161 C3162 1.415 . S
C3162 H3138 0.950 . S
C3162 C3157 1.363 . S
C3162 C3161 1.415 . S
C3163 H3139 0.951 . S
C3163 C3164 1.366 . S
C3163 C3165 1.388 . S
C3164 C3163 1.366 . S
C3164 C3168 1.385 . S
C3165 H3140 0.951 . S
C3165 C3163 1.388 . S
C3165 C3166 1.366 . S
C3166 C3165 1.366 . S
C3166 C3167 1.414 . S
C3166 C3169 1.499 . S
C3167 H3141 0.950 . S
C3167 C3166 1.414 . S
C3167 C3168 1.374 . S
C3168 H3142 0.950 . S
C3168 C3164 1.385 . S
C3168 C3167 1.374 . S
C3169 C3166 1.499 . S
C3169 C3170 1.373 . S
C3169 C3171 1.389 . S
C3170 H3143 0.950 . S
C3170 C3156 1.377 . S
C3170 C3169 1.373 . S
C3171 C3155 1.377 . S
C3171 C3169 1.389 . S
C3171 C3172 1.524 . S
C3172 C3171 1.524 . S
C3172 C3173 1.397 . S
C3172 C3177 1.363 . S
C3173 H3144 0.950 . S
C3173 C3172 1.397 . S
C3173 C3174 1.334 . S
C3174 H3145 0.950 . S
C3174 C3173 1.334 . S
C3174 C3175 1.287 . S
C3175 C3174 1.287 . S
C3175 C3176 1.524 . S
C3175 H3178 0.999 . S
C3176 H3146 0.950 . S
C3176 C3175 1.524 . S
C3176 C3177 1.415 . S
C3177 H3147 0.950 . S
C3177 C3172 1.363 . S
C3177 C3176 1.415 . S
H3178 C3175 0.999 . S
H3179 C3160 0.913 . S
H3180 C3198 0.951 . S
H3181 C3200 0.951 . S
H3182 C3202 0.950 . S
H3183 C3203 0.950 . S
H3184 C3205 0.950 . S
H3185 C3208 0.950 . S
H3186 C3209 0.950 . S
H3187 C3211 0.950 . S
H3188 C3212 0.950 . S
H3189 C3213 0.951 1_554 S
H3190 C3215 0.951 . S
H3191 C3217 0.950 . S
H3192 C3218 0.950 . S
H3193 C3220 0.950 . S
H3194 C3223 0.950 . S
H3195 C3224 0.950 . S
H3196 C3226 0.950 1_554 S
H3197 C3227 0.950 . S
C3198 H3180 0.951 . S
C3198 C3199 1.366 . S
C3198 C3200 1.388 . S
C3199 C3198 1.366 . S
C3199 C3203 1.385 . S
C3200 H3181 0.951 . S
C3200 C3198 1.388 . S
C3200 C3201 1.366 . S
C3201 C3200 1.366 . S
C3201 C3202 1.414 . S
C3201 C3204 1.499 . S
C3202 H3182 0.950 . S
C3202 C3201 1.414 . S
C3202 C3203 1.374 . S
C3203 H3183 0.950 . S
C3203 C3199 1.385 . S
C3203 C3202 1.374 . S
C3204 C3201 1.499 . S
C3204 C3205 1.373 . S
C3204 C3206 1.389 . S
C3205 H3184 0.950 . S
C3205 C3204 1.373 . S
C3205 C3221 1.377 . S
C3206 C3204 1.389 . S
C3206 C3207 1.524 . S
C3206 C3220 1.377 . S
C3207 C3206 1.524 . S
C3207 C3208 1.397 . S
C3207 C3212 1.363 . S
C3208 H3185 0.950 . S
C3208 C3207 1.397 . S
C3208 C3209 1.334 . S
C3209 H3186 0.950 . S
C3209 C3208 1.334 . S
C3209 C3210 1.287 . S
C3210 C3209 1.287 . S
C3210 C3211 1.524 . S
C3210 H3229 0.913 . S
C3211 H3187 0.950 . S
C3211 C3210 1.524 . S
C3211 C3212 1.415 . S
C3212 H3188 0.950 . S
C3212 C3207 1.363 . S
C3212 C3211 1.415 . S
C3213 H3189 0.951 1_556 S
C3213 C3214 1.366 . S
C3213 C3215 1.388 . S
C3214 C3213 1.366 . S
C3214 C3218 1.385 . S
C3215 H3190 0.951 . S
C3215 C3213 1.388 . S
C3215 C3216 1.366 . S
C3216 C3215 1.366 . S
C3216 C3217 1.414 . S
C3216 C3219 1.499 . S
C3217 H3191 0.950 . S
C3217 C3216 1.414 . S
C3217 C3218 1.374 . S
C3218 H3192 0.950 . S
C3218 C3214 1.385 . S
C3218 C3217 1.374 . S
C3219 C3216 1.499 . S
C3219 C3220 1.373 . S
C3219 C3221 1.389 . S
C3220 H3193 0.950 . S
C3220 C3206 1.377 . S
C3220 C3219 1.373 . S
C3221 C3205 1.377 . S
C3221 C3219 1.389 . S
C3221 C3222 1.524 . S
C3222 C3221 1.524 . S
C3222 C3223 1.397 . S
C3222 C3227 1.363 . S
C3223 H3194 0.950 . S
C3223 C3222 1.397 . S
C3223 C3224 1.334 . S
C3224 H3195 0.950 . S
C3224 C3223 1.334 . S
C3224 C3225 1.287 . S
C3225 C3224 1.287 . S
C3225 C3226 1.524 . S
C3225 H3228 0.999 1_556 S
C3226 H3196 0.950 1_556 S
C3226 C3225 1.524 . S
C3226 C3227 1.415 . S
C3227 H3197 0.950 . S
C3227 C3222 1.363 . S
C3227 C3226 1.415 . S
H3228 C3225 0.999 1_554 S
H3229 C3210 0.913 . S
H3230 C3248 0.951 . S
H3231 C3250 0.951 . S
H3232 C3252 0.950 . S
H3233 C3253 0.950 . S
H3234 C3255 0.950 . S
H3235 C3258 0.950 . S
H3236 C3259 0.950 . S
H3237 C3261 0.950 . S
H3238 C3262 0.950 . S
H3239 C3263 0.951 . S
H3240 C3265 0.951 . S
H3241 C3267 0.950 . S
H3242 C3268 0.950 . S
H3243 C3270 0.950 . S
H3244 C3273 0.950 . S
H3245 C3274 0.950 . S
H3246 C3276 0.950 . S
H3247 C3277 0.950 . S
C3248 H3230 0.951 . S
C3248 C3249 1.366 . S
C3248 C3250 1.388 . S
C3249 C3248 1.366 . S
C3249 C3253 1.385 . S
C3250 H3231 0.951 . S
C3250 C3248 1.388 . S
C3250 C3251 1.366 . S
C3251 C3250 1.366 . S
C3251 C3252 1.414 . S
C3251 C3254 1.499 . S
C3252 H3232 0.950 . S
C3252 C3251 1.414 . S
C3252 C3253 1.374 . S
C3253 H3233 0.950 . S
C3253 C3249 1.385 . S
C3253 C3252 1.374 . S
C3254 C3251 1.499 . S
C3254 C3255 1.373 . S
C3254 C3256 1.389 . S
C3255 H3234 0.950 . S
C3255 C3254 1.373 . S
C3255 C3271 1.377 . S
C3256 C3254 1.389 . S
C3256 C3257 1.524 . S
C3256 C3270 1.377 . S
C3257 C3256 1.524 . S
C3257 C3258 1.397 . S
C3257 C3262 1.363 . S
C3258 H3235 0.950 . S
C3258 C3257 1.397 . S
C3258 C3259 1.334 . S
C3259 H3236 0.950 . S
C3259 C3258 1.334 . S
C3259 C3260 1.287 . S
C3260 C3259 1.287 . S
C3260 C3261 1.524 . S
C3260 H3279 0.913 . S
C3261 H3237 0.950 . S
C3261 C3260 1.524 . S
C3261 C3262 1.415 . S
C3262 H3238 0.950 . S
C3262 C3257 1.363 . S
C3262 C3261 1.415 . S
C3263 H3239 0.951 . S
C3263 C3264 1.366 . S
C3263 C3265 1.388 . S
C3264 C3263 1.366 . S
C3264 C3268 1.385 . S
C3265 H3240 0.951 . S
C3265 C3263 1.388 . S
C3265 C3266 1.366 . S
C3266 C3265 1.366 . S
C3266 C3267 1.414 . S
C3266 C3269 1.499 . S
C3267 H3241 0.950 . S
C3267 C3266 1.414 . S
C3267 C3268 1.374 . S
C3268 H3242 0.950 . S
C3268 C3264 1.385 . S
C3268 C3267 1.374 . S
C3269 C3266 1.499 . S
C3269 C3270 1.373 . S
C3269 C3271 1.389 . S
C3270 H3243 0.950 . S
C3270 C3256 1.377 . S
C3270 C3269 1.373 . S
C3271 C3255 1.377 . S
C3271 C3269 1.389 . S
C3271 C3272 1.524 . S
C3272 C3271 1.524 . S
C3272 C3273 1.397 . S
C3272 C3277 1.363 . S
C3273 H3244 0.950 . S
C3273 C3272 1.397 . S
C3273 C3274 1.334 . S
C3274 H3245 0.950 . S
C3274 C3273 1.334 . S
C3274 C3275 1.287 . S
C3275 C3274 1.287 . S
C3275 C3276 1.524 . S
C3275 H3278 0.999 . S
C3276 H3246 0.950 . S
C3276 C3275 1.524 . S
C3276 C3277 1.415 . S
C3277 H3247 0.950 . S
C3277 C3272 1.363 . S
C3277 C3276 1.415 . S
H3278 C3275 0.999 . S
H3279 C3260 0.913 . S
H3280 C3298 0.951 . S
H3281 C3300 0.951 . S
H3282 C3302 0.950 . S
H3283 C3303 0.950 . S
H3284 C3305 0.950 . S
H3285 C3308 0.950 . S
H3286 C3309 0.950 . S
H3287 C3311 0.950 . S
H3288 C3312 0.950 . S
H3289 C3313 0.951 . S
H3290 C3315 0.951 . S
H3291 C3317 0.950 . S
H3292 C3318 0.950 . S
H3293 C3320 0.950 1_565 S
H3294 C3323 0.950 . S
H3295 C3324 0.950 . S
H3296 C3326 0.950 . S
H3297 C3327 0.950 . S
C3298 H3280 0.951 . S
C3298 C3299 1.366 . S
C3298 C3300 1.388 . S
C3299 C3298 1.366 . S
C3299 C3303 1.385 . S
C3300 H3281 0.951 . S
C3300 C3298 1.388 . S
C3300 C3301 1.366 . S
C3301 C3300 1.366 . S
C3301 C3302 1.414 . S
C3301 C3304 1.499 . S
C3302 H3282 0.950 . S
C3302 C3301 1.414 . S
C3302 C3303 1.374 . S
C3303 H3283 0.950 . S
C3303 C3299 1.385 . S
C3303 C3302 1.374 . S
C3304 C3301 1.499 . S
C3304 C3305 1.373 . S
C3304 C3306 1.389 . S
C3305 H3284 0.950 . S
C3305 C3304 1.373 . S
C3305 C3321 1.377 . S
C3306 C3304 1.389 . S
C3306 C3307 1.524 1_545 S
C3306 C3320 1.377 . S
C3307 C3306 1.524 1_565 S
C3307 C3308 1.397 . S
C3307 C3312 1.363 . S
C3308 H3285 0.950 . S
C3308 C3307 1.397 . S
C3308 C3309 1.334 . S
C3309 H3286 0.950 . S
C3309 C3308 1.334 . S
C3309 C3310 1.287 . S
C3310 C3309 1.287 . S
C3310 C3311 1.524 . S
C3310 H3329 0.913 . S
C3311 H3287 0.950 . S
C3311 C3310 1.524 . S
C3311 C3312 1.415 . S
C3312 H3288 0.950 . S
C3312 C3307 1.363 . S
C3312 C3311 1.415 . S
C3313 H3289 0.951 . S
C3313 C3314 1.366 . S
C3313 C3315 1.388 . S
C3314 C3313 1.366 . S
C3314 C3318 1.385 . S
C3315 H3290 0.951 . S
C3315 C3313 1.388 . S
C3315 C3316 1.366 . S
C3316 C3315 1.366 . S
C3316 C3317 1.414 . S
C3316 C3319 1.499 . S
C3317 H3291 0.950 . S
C3317 C3316 1.414 . S
C3317 C3318 1.374 . S
C3318 H3292 0.950 . S
C3318 C3314 1.385 . S
C3318 C3317 1.374 . S
C3319 C3316 1.499 . S
C3319 C3320 1.373 . S
C3319 C3321 1.389 . S
C3320 H3293 0.950 1_545 S
C3320 C3306 1.377 . S
C3320 C3319 1.373 . S
C3321 C3305 1.377 . S
C3321 C3319 1.389 . S
C3321 C3322 1.524 . S
C3322 C3321 1.524 . S
C3322 C3323 1.397 . S
C3322 C3327 1.363 . S
C3323 H3294 0.950 . S
C3323 C3322 1.397 . S
C3323 C3324 1.334 . S
C3324 H3295 0.950 . S
C3324 C3323 1.334 . S
C3324 C3325 1.287 . S
C3325 C3324 1.287 . S
C3325 C3326 1.524 . S
C3325 H3328 0.999 . S
C3326 H3296 0.950 . S
C3326 C3325 1.524 . S
C3326 C3327 1.415 . S
C3327 H3297 0.950 . S
C3327 C3322 1.363 . S
C3327 C3326 1.415 . S
H3328 C3325 0.999 . S
H3329 C3310 0.913 . S
H3330 C3348 0.951 . S
H3331 C3350 0.951 . S
H3332 C3352 0.950 . S
H3333 C3353 0.950 . S
H3334 C3355 0.950 . S
H3335 C3358 0.950 . S
H3336 C3359 0.950 . S
H3337 C3361 0.950 . S
H3338 C3362 0.950 . S
H3339 C3363 0.951 . S
H3340 C3365 0.951 . S
H3341 C3367 0.950 . S
H3342 C3368 0.950 . S
H3343 C3370 0.950 . S
H3344 C3373 0.950 . S
H3345 C3374 0.950 . S
H3346 C3376 0.950 . S
H3347 C3377 0.950 . S
C3348 H3330 0.951 . S
C3348 C3349 1.366 . S
C3348 C3350 1.388 . S
C3349 C3348 1.366 . S
C3349 C3353 1.385 . S
C3350 H3331 0.951 . S
C3350 C3348 1.388 . S
C3350 C3351 1.366 . S
C3351 C3350 1.366 . S
C3351 C3352 1.414 . S
C3351 C3354 1.499 . S
C3352 H3332 0.950 . S
C3352 C3351 1.414 . S
C3352 C3353 1.374 . S
C3353 H3333 0.950 . S
C3353 C3349 1.385 . S
C3353 C3352 1.374 . S
C3354 C3351 1.499 . S
C3354 C3355 1.373 . S
C3354 C3356 1.389 . S
C3355 H3334 0.950 . S
C3355 C3354 1.373 . S
C3355 C3371 1.377 . S
C3356 C3354 1.389 . S
C3356 C3357 1.524 . S
C3356 C3370 1.377 . S
C3357 C3356 1.524 . S
C3357 C3358 1.397 . S
C3357 C3362 1.363 . S
C3358 H3335 0.950 . S
C3358 C3357 1.397 . S
C3358 C3359 1.334 . S
C3359 H3336 0.950 . S
C3359 C3358 1.334 . S
C3359 C3360 1.287 . S
C3360 C3359 1.287 . S
C3360 C3361 1.524 . S
C3360 H3379 0.913 . S
C3361 H3337 0.950 . S
C3361 C3360 1.524 . S
C3361 C3362 1.415 . S
C3362 H3338 0.950 . S
C3362 C3357 1.363 . S
C3362 C3361 1.415 . S
C3363 H3339 0.951 . S
C3363 C3364 1.366 . S
C3363 C3365 1.388 . S
C3364 C3363 1.366 . S
C3364 C3368 1.385 . S
C3365 H3340 0.951 . S
C3365 C3363 1.388 . S
C3365 C3366 1.366 . S
C3366 C3365 1.366 . S
C3366 C3367 1.414 . S
C3366 C3369 1.499 . S
C3367 H3341 0.950 . S
C3367 C3366 1.414 . S
C3367 C3368 1.374 . S
C3368 H3342 0.950 . S
C3368 C3364 1.385 . S
C3368 C3367 1.374 . S
C3369 C3366 1.499 . S
C3369 C3370 1.373 . S
C3369 C3371 1.389 . S
C3370 H3343 0.950 . S
C3370 C3356 1.377 . S
C3370 C3369 1.373 . S
C3371 C3355 1.377 . S
C3371 C3369 1.389 . S
C3371 C3372 1.524 . S
C3372 C3371 1.524 . S
C3372 C3373 1.397 . S
C3372 C3377 1.363 . S
C3373 H3344 0.950 . S
C3373 C3372 1.397 . S
C3373 C3374 1.334 . S
C3374 H3345 0.950 . S
C3374 C3373 1.334 . S
C3374 C3375 1.287 . S
C3375 C3374 1.287 . S
C3375 C3376 1.524 . S
C3375 H3378 0.999 . S
C3376 H3346 0.950 . S
C3376 C3375 1.524 . S
C3376 C3377 1.415 . S
C3377 H3347 0.950 . S
C3377 C3372 1.363 . S
C3377 C3376 1.415 . S
H3378 C3375 0.999 . S
H3379 C3360 0.913 . S
H3380 C3398 0.951 . S
H3381 C3400 0.951 . S
H3382 C3402 0.950 . S
H3383 C3403 0.950 . S
H3384 C3405 0.950 . S
H3385 C3408 0.950 . S
H3386 C3409 0.950 . S
H3387 C3411 0.950 . S
H3388 C3412 0.950 . S
H3389 C3413 0.951 . S
H3390 C3415 0.951 . S
H3391 C3417 0.950 . S
H3392 C3418 0.950 . S
H3393 C3420 0.954 1_565 S
H3394 C3423 0.950 . S
H3395 C3424 0.950 . S
H3396 C3426 0.950 . S
H3397 C3427 0.950 . S
C3398 H3380 0.951 . S
C3398 C3399 1.366 . S
C3398 C3400 1.388 . S
C3399 C3398 1.366 . S
C3399 C3403 1.385 . S
C3400 H3381 0.951 . S
C3400 C3398 1.388 . S
C3400 C3401 1.366 . S
C3401 C3400 1.366 . S
C3401 C3402 1.414 . S
C3401 C3404 1.499 . S
C3402 H3382 0.950 . S
C3402 C3401 1.414 . S
C3402 C3403 1.374 . S
C3403 H3383 0.950 . S
C3403 C3399 1.385 . S
C3403 C3402 1.374 . S
C3404 C3401 1.499 . S
C3404 C3405 1.373 . S
C3404 C3406 1.389 . S
C3405 H3384 0.950 . S
C3405 C3404 1.373 . S
C3405 C3421 1.377 . S
C3406 C3404 1.389 . S
C3406 C3407 1.524 1_545 S
C3406 C3420 1.377 . S
C3407 C3406 1.524 1_565 S
C3407 C3408 1.397 . S
C3407 C3412 1.363 . S
C3408 H3385 0.950 . S
C3408 C3407 1.397 . S
C3408 C3409 1.334 . S
C3409 H3386 0.950 . S
C3409 C3408 1.334 . S
C3409 C3410 1.287 . S
C3410 C3409 1.287 . S
C3410 C3411 1.524 . S
C3410 H3429 0.913 . S
C3411 H3387 0.950 . S
C3411 C3410 1.524 . S
C3411 C3412 1.415 . S
C3412 H3388 0.950 . S
C3412 C3407 1.363 . S
C3412 C3411 1.415 . S
C3413 H3389 0.951 . S
C3413 C3414 1.366 . S
C3413 C3415 1.388 . S
C3414 C3413 1.366 . S
C3414 C3418 1.385 . S
C3415 H3390 0.951 . S
C3415 C3413 1.388 . S
C3415 C3416 1.366 . S
C3416 C3415 1.366 . S
C3416 C3417 1.414 . S
C3416 C3419 1.499 . S
C3417 H3391 0.950 . S
C3417 C3416 1.414 . S
C3417 C3418 1.374 . S
C3418 H3392 0.950 . S
C3418 C3414 1.385 . S
C3418 C3417 1.374 . S
C3419 C3416 1.499 . S
C3419 C3420 1.373 . S
C3419 C3421 1.389 . S
C3420 H3393 0.954 1_545 S
C3420 C3406 1.377 . S
C3420 C3419 1.373 . S
C3421 C3405 1.377 . S
C3421 C3419 1.389 . S
C3421 C3422 1.524 . S
C3422 C3421 1.524 . S
C3422 C3423 1.397 . S
C3422 C3427 1.363 . S
C3423 H3394 0.950 . S
C3423 C3422 1.397 . S
C3423 C3424 1.334 . S
C3424 H3395 0.950 . S
C3424 C3423 1.334 . S
C3424 C3425 1.287 . S
C3425 C3424 1.287 . S
C3425 C3426 1.524 . S
C3425 H3428 0.999 . S
C3426 H3396 0.950 . S
C3426 C3425 1.524 . S
C3426 C3427 1.415 . S
C3427 H3397 0.950 . S
C3427 C3422 1.363 . S
C3427 C3426 1.415 . S
H3428 C3425 0.999 . S
H3429 C3410 0.913 . S
H3430 C3448 0.951 . S
H3431 C3450 0.951 . S
H3432 C3452 0.950 . S
H3433 C3453 0.950 . S
H3434 C3455 0.950 . S
H3435 C3458 0.950 . S
H3436 C3459 0.950 . S
H3437 C3461 0.950 . S
H3438 C3462 0.950 . S
H3439 C3463 0.951 . S
H3440 C3465 0.951 . S
H3441 C3467 0.950 . S
H3442 C3468 0.950 . S
H3443 C3470 0.950 . S
H3444 C3473 0.950 . S
H3445 C3474 0.950 . S
H3446 C3476 0.950 . S
H3447 C3477 0.950 . S
C3448 H3430 0.951 . S
C3448 C3449 1.366 . S
C3448 C3450 1.388 . S
C3449 C3448 1.366 . S
C3449 C3453 1.385 . S
C3450 H3431 0.951 . S
C3450 C3448 1.388 . S
C3450 C3451 1.366 . S
C3451 C3450 1.366 . S
C3451 C3452 1.414 . S
C3451 C3454 1.499 . S
C3452 H3432 0.950 . S
C3452 C3451 1.414 . S
C3452 C3453 1.374 . S
C3453 H3433 0.950 . S
C3453 C3449 1.385 . S
C3453 C3452 1.374 . S
C3454 C3451 1.499 . S
C3454 C3455 1.373 . S
C3454 C3456 1.389 . S
C3455 H3434 0.950 . S
C3455 C3454 1.373 . S
C3455 C3471 1.377 . S
C3456 C3454 1.389 . S
C3456 C3457 1.524 . S
C3456 C3470 1.377 . S
C3457 C3456 1.524 . S
C3457 C3458 1.397 . S
C3457 C3462 1.363 . S
C3458 H3435 0.950 . S
C3458 C3457 1.397 . S
C3458 C3459 1.334 . S
C3459 H3436 0.950 . S
C3459 C3458 1.334 . S
C3459 C3460 1.287 . S
C3460 C3459 1.287 . S
C3460 C3461 1.524 . S
C3460 H3479 0.913 . S
C3461 H3437 0.950 . S
C3461 C3460 1.524 . S
C3461 C3462 1.415 . S
C3462 H3438 0.950 . S
C3462 C3457 1.363 . S
C3462 C3461 1.415 . S
C3463 H3439 0.951 . S
C3463 C3464 1.366 . S
C3463 C3465 1.388 . S
C3464 C3463 1.366 . S
C3464 C3468 1.385 . S
C3465 H3440 0.951 . S
C3465 C3463 1.388 . S
C3465 C3466 1.366 . S
C3466 C3465 1.366 . S
C3466 C3467 1.414 . S
C3466 C3469 1.499 . S
C3467 H3441 0.950 . S
C3467 C3466 1.414 . S
C3467 C3468 1.374 . S
C3468 H3442 0.950 . S
C3468 C3464 1.385 . S
C3468 C3467 1.374 . S
C3469 C3466 1.499 . S
C3469 C3470 1.373 . S
C3469 C3471 1.389 . S
C3470 H3443 0.950 . S
C3470 C3456 1.377 . S
C3470 C3469 1.373 . S
C3471 C3455 1.377 . S
C3471 C3469 1.389 . S
C3471 C3472 1.524 . S
C3472 C3471 1.524 . S
C3472 C3473 1.397 . S
C3472 C3477 1.363 . S
C3473 H3444 0.950 . S
C3473 C3472 1.397 . S
C3473 C3474 1.334 . S
C3474 H3445 0.950 . S
C3474 C3473 1.334 . S
C3474 C3475 1.287 . S
C3475 C3474 1.287 . S
C3475 C3476 1.524 . S
C3475 H3478 0.999 . S
C3476 H3446 0.950 . S
C3476 C3475 1.524 . S
C3476 C3477 1.415 . S
C3477 H3447 0.950 . S
C3477 C3472 1.363 . S
C3477 C3476 1.415 . S
H3478 C3475 0.999 . S
H3479 C3460 0.913 . S
H3480 C3498 0.951 . S
H3481 C3500 0.951 . S
H3482 C3502 0.950 . S
H3483 C3503 0.950 . S
H3484 C3505 0.950 . S
H3485 C3508 0.950 1_545 S
H3486 C3509 0.950 . S
H3487 C3511 0.950 . S
H3488 C3512 0.950 . S
H3489 C3513 0.951 . S
H3490 C3515 0.951 . S
H3491 C3517 0.950 . S
H3492 C3518 0.950 . S
H3493 C3520 0.919 1_565 S
H3494 C3523 0.950 . S
H3495 C3524 0.950 . S
H3496 C3526 0.950 . S
H3497 C3527 0.950 . S
C3498 H3480 0.951 . S
C3498 C3499 1.366 . S
C3498 C3500 1.388 . S
C3499 C3498 1.366 . S
C3499 C3503 1.385 . S
C3500 H3481 0.951 . S
C3500 C3498 1.388 . S
C3500 C3501 1.366 . S
C3501 C3500 1.366 . S
C3501 C3502 1.414 . S
C3501 C3504 1.499 . S
C3502 H3482 0.950 . S
C3502 C3501 1.414 . S
C3502 C3503 1.374 . S
C3503 H3483 0.950 . S
C3503 C3499 1.385 . S
C3503 C3502 1.374 . S
C3504 C3501 1.499 . S
C3504 C3505 1.373 . S
C3504 C3506 1.389 . S
C3505 H3484 0.950 . S
C3505 C3504 1.373 . S
C3505 C3521 1.377 . S
C3506 C3504 1.389 . S
C3506 C3507 1.524 1_545 S
C3506 C3520 1.377 . S
C3507 C3506 1.524 1_565 S
C3507 C3508 1.397 . S
C3507 C3512 1.363 . S
C3508 H3485 0.950 1_565 S
C3508 C3507 1.397 . S
C3508 C3509 1.334 . S
C3509 H3486 0.950 . S
C3509 C3508 1.334 . S
C3509 C3510 1.287 . S
C3510 C3509 1.287 . S
C3510 C3511 1.524 . S
C3510 H3529 0.913 . S
C3511 H3487 0.950 . S
C3511 C3510 1.524 . S
C3511 C3512 1.415 . S
C3512 H3488 0.950 . S
C3512 C3507 1.363 . S
C3512 C3511 1.415 . S
C3513 H3489 0.951 . S
C3513 C3514 1.366 . S
C3513 C3515 1.388 . S
C3514 C3513 1.366 . S
C3514 C3518 1.385 . S
C3515 H3490 0.951 . S
C3515 C3513 1.388 . S
C3515 C3516 1.366 . S
C3516 C3515 1.366 . S
C3516 C3517 1.414 . S
C3516 C3519 1.499 . S
C3517 H3491 0.950 . S
C3517 C3516 1.414 . S
C3517 C3518 1.374 . S
C3518 H3492 0.950 . S
C3518 C3514 1.385 . S
C3518 C3517 1.374 . S
C3519 C3516 1.499 . S
C3519 C3520 1.373 . S
C3519 C3521 1.389 . S
C3520 H3493 0.919 1_545 S
C3520 C3506 1.377 . S
C3520 C3519 1.373 . S
C3521 C3505 1.377 . S
C3521 C3519 1.389 . S
C3521 C3522 1.524 . S
C3522 C3521 1.524 . S
C3522 C3523 1.397 . S
C3522 C3527 1.363 . S
C3523 H3494 0.950 . S
C3523 C3522 1.397 . S
C3523 C3524 1.334 . S
C3524 H3495 0.950 . S
C3524 C3523 1.334 . S
C3524 C3525 1.287 . S
C3525 C3524 1.287 . S
C3525 C3526 1.524 . S
C3525 H3528 0.999 . S
C3526 H3496 0.950 . S
C3526 C3525 1.524 . S
C3526 C3527 1.415 . S
C3527 H3497 0.950 . S
C3527 C3522 1.363 . S
C3527 C3526 1.415 . S
H3528 C3525 0.999 . S
H3529 C3510 0.913 . S
H3530 C3548 0.951 . S
H3531 C3550 0.951 . S
H3532 C3552 0.950 . S
H3533 C3553 0.950 . S
H3534 C3555 0.950 . S
H3535 C3558 0.950 . S
H3536 C3559 0.950 . S
H3537 C3561 0.950 . S
H3538 C3562 0.950 . S
H3539 C3563 0.951 . S
H3540 C3565 0.951 . S
H3541 C3567 0.950 . S
H3542 C3568 0.950 . S
H3543 C3570 0.950 . S
H3544 C3573 0.950 . S
H3545 C3574 0.950 . S
H3546 C3576 0.950 . S
H3547 C3577 0.950 . S
C3548 H3530 0.951 . S
C3548 C3549 1.366 . S
C3548 C3550 1.388 . S
C3549 C3548 1.366 . S
C3549 C3553 1.385 . S
C3550 H3531 0.951 . S
C3550 C3548 1.388 . S
C3550 C3551 1.366 . S
C3551 C3550 1.366 . S
C3551 C3552 1.414 . S
C3551 C3554 1.499 . S
C3552 H3532 0.950 . S
C3552 C3551 1.414 . S
C3552 C3553 1.374 . S
C3553 H3533 0.950 . S
C3553 C3549 1.385 . S
C3553 C3552 1.374 . S
C3554 C3551 1.499 . S
C3554 C3555 1.373 . S
C3554 C3556 1.389 . S
C3555 H3534 0.950 . S
C3555 C3554 1.373 . S
C3555 C3571 1.377 . S
C3556 C3554 1.389 . S
C3556 C3557 1.524 . S
C3556 C3570 1.377 . S
C3557 C3556 1.524 . S
C3557 C3558 1.397 . S
C3557 C3562 1.363 . S
C3558 H3535 0.950 . S
C3558 C3557 1.397 . S
C3558 C3559 1.334 . S
C3559 H3536 0.950 . S
C3559 C3558 1.334 . S
C3559 C3560 1.287 . S
C3560 C3559 1.287 . S
C3560 C3561 1.524 . S
C3560 H3579 0.913 . S
C3561 H3537 0.950 . S
C3561 C3560 1.524 . S
C3561 C3562 1.415 . S
C3562 H3538 0.950 . S
C3562 C3557 1.363 . S
C3562 C3561 1.415 . S
C3563 H3539 0.951 . S
C3563 C3564 1.366 . S
C3563 C3565 1.388 . S
C3564 C3563 1.366 . S
C3564 C3568 1.385 . S
C3565 H3540 0.951 . S
C3565 C3563 1.388 . S
C3565 C3566 1.366 . S
C3566 C3565 1.366 . S
C3566 C3567 1.414 . S
C3566 C3569 1.499 . S
C3567 H3541 0.950 . S
C3567 C3566 1.414 . S
C3567 C3568 1.374 . S
C3568 H3542 0.950 . S
C3568 C3564 1.385 . S
C3568 C3567 1.374 . S
C3569 C3566 1.499 . S
C3569 C3570 1.373 . S
C3569 C3571 1.389 . S
C3570 H3543 0.950 . S
C3570 C3556 1.377 . S
C3570 C3569 1.373 . S
C3571 C3555 1.377 . S
C3571 C3569 1.389 . S
C3571 C3572 1.524 . S
C3572 C3571 1.524 . S
C3572 C3573 1.397 . S
C3572 C3577 1.363 . S
C3573 H3544 0.950 . S
C3573 C3572 1.397 . S
C3573 C3574 1.334 . S
C3574 H3545 0.950 . S
C3574 C3573 1.334 . S
C3574 C3575 1.287 . S
C3575 C3574 1.287 . S
C3575 C3576 1.524 . S
C3575 H3578 0.999 . S
C3576 H3546 0.950 . S
C3576 C3575 1.524 . S
C3576 C3577 1.415 . S
C3577 H3547 0.950 . S
C3577 C3572 1.363 . S
C3577 C3576 1.415 . S
H3578 C3575 0.999 . S
H3579 C3560 0.913 . S
H3580 C3598 0.951 . S
H3581 C3600 0.951 . S
H3582 C3602 0.950 . S
H3583 C3603 0.950 . S
H3584 C3605 0.968 . S
H3585 C3608 0.950 . S
H3586 C3609 0.950 . S
H3587 C3611 0.950 . S
H3588 C3612 0.950 . S
H3589 C3613 0.951 . S
H3590 C3615 0.951 . S
H3591 C3617 0.950 . S
H3592 C3618 0.950 . S
H3593 C3620 0.950 . S
H3594 C3623 0.950 . S
H3595 C3624 0.950 . S
H3596 C3626 0.950 . S
H3597 C3627 0.950 . S
C3598 H3580 0.951 . S
C3598 C3599 1.366 . S
C3598 C3600 1.388 . S
C3599 C3598 1.366 . S
C3599 C3603 1.385 . S
C3600 H3581 0.951 . S
C3600 C3598 1.388 . S
C3600 C3601 1.366 . S
C3601 C3600 1.366 . S
C3601 C3602 1.414 . S
C3601 C3604 1.499 . S
C3602 H3582 0.950 . S
C3602 C3601 1.414 . S
C3602 C3603 1.374 . S
C3603 H3583 0.950 . S
C3603 C3599 1.385 . S
C3603 C3602 1.374 . S
C3604 C3601 1.499 . S
C3604 C3605 1.354 1_545 S
C3604 C3606 1.389 . S
C3605 H3584 0.968 . S
C3605 C3604 1.354 1_565 S
C3605 C3621 1.380 . S
C3606 C3604 1.389 . S
C3606 C3607 1.524 . S
C3606 C3620 1.377 . S
C3607 C3606 1.524 . S
C3607 C3608 1.397 . S
C3607 C3612 1.363 . S
C3608 H3585 0.950 . S
C3608 C3607 1.397 . S
C3608 C3609 1.334 . S
C3609 H3586 0.950 . S
C3609 C3608 1.334 . S
C3609 C3610 1.287 . S
C3610 C3609 1.287 . S
C3610 C3611 1.524 . S
C3610 H3629 0.913 . S
C3611 H3587 0.950 . S
C3611 C3610 1.524 . S
C3611 C3612 1.415 . S
C3612 H3588 0.950 . S
C3612 C3607 1.363 . S
C3612 C3611 1.415 . S
C3613 H3589 0.951 . S
C3613 C3614 1.366 . S
C3613 C3615 1.388 . S
C3614 C3613 1.366 . S
C3614 C3618 1.385 . S
C3615 H3590 0.951 . S
C3615 C3613 1.388 . S
C3615 C3616 1.366 . S
C3616 C3615 1.366 . S
C3616 C3617 1.414 . S
C3616 C3619 1.499 . S
C3617 H3591 0.950 . S
C3617 C3616 1.414 . S
C3617 C3618 1.374 . S
C3618 H3592 0.950 . S
C3618 C3614 1.385 . S
C3618 C3617 1.374 . S
C3619 C3616 1.499 . S
C3619 C3620 1.373 . S
C3619 C3621 1.389 1_545 S
C3620 H3593 0.950 . S
C3620 C3606 1.377 . S
C3620 C3619 1.373 . S
C3621 C3605 1.380 . S
C3621 C3619 1.389 1_565 S
C3621 C3622 1.524 . S
C3622 C3621 1.524 . S
C3622 C3623 1.397 . S
C3622 C3627 1.363 . S
C3623 H3594 0.950 . S
C3623 C3622 1.397 . S
C3623 C3624 1.334 . S
C3624 H3595 0.950 . S
C3624 C3623 1.334 . S
C3624 C3625 1.287 . S
C3625 C3624 1.287 . S
C3625 C3626 1.524 . S
C3625 H3628 0.999 . S
C3626 H3596 0.950 . S
C3626 C3625 1.524 . S
C3626 C3627 1.415 . S
C3627 H3597 0.950 . S
C3627 C3622 1.363 . S
C3627 C3626 1.415 . S
H3628 C3625 0.999 . S
H3629 C3610 0.913 . S
H3630 C3648 0.951 . S
H3631 C3650 0.951 . S
H3632 C3652 0.950 . S
H3633 C3653 0.950 . S
H3634 C3655 0.950 . S
H3635 C3658 0.950 . S
H3636 C3659 0.950 . S
H3637 C3661 0.950 . S
H3638 C3662 0.950 . S
H3639 C3663 0.951 . S
H3640 C3665 0.951 . S
H3641 C3667 0.950 . S
H3642 C3668 0.950 . S
H3643 C3670 0.950 . S
H3644 C3673 0.950 . S
H3645 C3674 0.950 . S
H3646 C3676 0.950 . S
H3647 C3677 0.950 . S
C3648 H3630 0.951 . S
C3648 C3649 1.366 . S
C3648 C3650 1.388 . S
C3649 C3648 1.366 . S
C3649 C3653 1.385 . S
C3650 H3631 0.951 . S
C3650 C3648 1.388 . S
C3650 C3651 1.366 . S
C3651 C3650 1.366 . S
C3651 C3652 1.414 . S
C3651 C3654 1.499 . S
C3652 H3632 0.950 . S
C3652 C3651 1.414 . S
C3652 C3653 1.374 . S
C3653 H3633 0.950 . S
C3653 C3649 1.385 . S
C3653 C3652 1.374 . S
C3654 C3651 1.499 . S
C3654 C3655 1.373 . S
C3654 C3656 1.389 . S
C3655 H3634 0.950 . S
C3655 C3654 1.373 . S
C3655 C3671 1.377 . S
C3656 C3654 1.389 . S
C3656 C3657 1.524 . S
C3656 C3670 1.377 . S
C3657 C3656 1.524 . S
C3657 C3658 1.397 . S
C3657 C3662 1.363 . S
C3658 H3635 0.950 . S
C3658 C3657 1.397 . S
C3658 C3659 1.334 . S
C3659 H3636 0.950 . S
C3659 C3658 1.334 . S
C3659 C3660 1.287 . S
C3660 C3659 1.287 . S
C3660 C3661 1.524 . S
C3660 H3679 0.913 . S
C3661 H3637 0.950 . S
C3661 C3660 1.524 . S
C3661 C3662 1.415 . S
C3662 H3638 0.950 . S
C3662 C3657 1.363 . S
C3662 C3661 1.415 . S
C3663 H3639 0.951 . S
C3663 C3664 1.366 . S
C3663 C3665 1.388 . S
C3664 C3663 1.366 . S
C3664 C3668 1.385 . S
C3665 H3640 0.951 . S
C3665 C3663 1.388 . S
C3665 C3666 1.366 . S
C3666 C3665 1.366 . S
C3666 C3667 1.414 . S
C3666 C3669 1.499 . S
C3667 H3641 0.950 . S
C3667 C3666 1.414 . S
C3667 C3668 1.374 . S
C3668 H3642 0.950 . S
C3668 C3664 1.385 . S
C3668 C3667 1.374 . S
C3669 C3666 1.499 . S
C3669 C3670 1.373 . S
C3669 C3671 1.389 . S
C3670 H3643 0.950 . S
C3670 C3656 1.377 . S
C3670 C3669 1.373 . S
C3671 C3655 1.377 . S
C3671 C3669 1.389 . S
C3671 C3672 1.524 . S
C3672 C3671 1.524 . S
C3672 C3673 1.397 . S
C3672 C3677 1.363 . S
C3673 H3644 0.950 . S
C3673 C3672 1.397 . S
C3673 C3674 1.334 . S
C3674 H3645 0.950 . S
C3674 C3673 1.334 . S
C3674 C3675 1.287 . S
C3675 C3674 1.287 . S
C3675 C3676 1.524 . S
C3675 H3678 0.999 . S
C3676 H3646 0.950 . S
C3676 C3675 1.524 . S
C3676 C3677 1.415 . S
C3677 H3647 0.950 . S
C3677 C3672 1.363 . S
C3677 C3676 1.415 . S
H3678 C3675 0.999 . S
H3679 C3660 0.913 . S
H3680 C3698 0.951 . S
H3681 C3700 0.951 . S
H3682 C3702 0.950 . S
H3683 C3703 0.950 . S
H3684 C3705 0.950 . S
H3685 C3708 0.950 . S
H3686 C3709 0.950 . S
H3687 C3711 0.950 . S
H3688 C3712 0.950 . S
H3689 C3713 0.951 . S
H3690 C3715 0.951 . S
H3691 C3717 0.950 . S
H3692 C3718 0.950 . S
H3693 C3720 0.950 . S
H3694 C3723 0.941 1_556 S
H3695 C3724 0.950 1_556 S
H3696 C3726 0.950 . S
H3697 C3727 0.950 . S
C3698 H3680 0.951 . S
C3698 C3699 1.366 . S
C3698 C3700 1.388 . S
C3699 C3698 1.366 . S
C3699 C3703 1.385 . S
C3700 H3681 0.951 . S
C3700 C3698 1.388 . S
C3700 C3701 1.366 . S
C3701 C3700 1.366 . S
C3701 C3702 1.414 . S
C3701 C3704 1.499 . S
C3702 H3682 0.950 . S
C3702 C3701 1.414 . S
C3702 C3703 1.374 . S
C3703 H3683 0.950 . S
C3703 C3699 1.385 . S
C3703 C3702 1.374 . S
C3704 C3701 1.499 . S
C3704 C3705 1.373 . S
C3704 C3706 1.389 . S
C3705 H3684 0.950 . S
C3705 C3704 1.373 . S
C3705 C3721 1.377 . S
C3706 C3704 1.389 . S
C3706 C3707 1.524 . S
C3706 C3720 1.377 . S
C3707 C3706 1.524 . S
C3707 C3708 1.397 . S
C3707 C3712 1.363 . S
C3708 H3685 0.950 . S
C3708 C3707 1.397 . S
C3708 C3709 1.334 . S
C3709 H3686 0.950 . S
C3709 C3708 1.334 . S
C3709 C3710 1.287 . S
C3710 C3709 1.287 . S
C3710 C3711 1.524 . S
C3710 H3729 0.913 . S
C3711 H3687 0.950 . S
C3711 C3710 1.524 . S
C3711 C3712 1.415 . S
C3712 H3688 0.950 . S
C3712 C3707 1.363 . S
C3712 C3711 1.415 . S
C3713 H3689 0.951 . S
C3713 C3714 1.366 . S
C3713 C3715 1.388 . S
C3714 C3713 1.366 . S
C3714 C3718 1.385 . S
C3715 H3690 0.951 . S
C3715 C3713 1.388 . S
C3715 C3716 1.366 . S
C3716 C3715 1.366 . S
C3716 C3717 1.414 . S
C3716 C3719 1.499 . S
C3717 H3691 0.950 . S
C3717 C3716 1.414 . S
C3717 C3718 1.374 . S
C3718 H3692 0.950 . S
C3718 C3714 1.385 . S
C3718 C3717 1.374 . S
C3719 C3716 1.499 . S
C3719 C3720 1.373 . S
C3719 C3721 1.389 . S
C3720 H3693 0.950 . S
C3720 C3706 1.377 . S
C3720 C3719 1.373 . S
C3721 C3705 1.377 . S
C3721 C3719 1.389 . S
C3721 C3722 1.524 . S
C3722 C3721 1.524 . S
C3722 C3723 1.397 . S
C3722 C3727 1.363 . S
C3723 H3694 0.941 1_554 S
C3723 C3722 1.397 . S
C3723 C3724 1.334 . S
C3724 H3695 0.950 1_554 S
C3724 C3723 1.334 . S
C3724 C3725 1.287 . S
C3725 C3724 1.287 . S
C3725 C3726 1.524 . S
C3725 H3728 0.999 . S
C3726 H3696 0.950 . S
C3726 C3725 1.524 . S
C3726 C3727 1.415 . S
C3727 H3697 0.950 . S
C3727 C3722 1.363 . S
C3727 C3726 1.415 . S
H3728 C3725 0.999 . S
H3729 C3710 0.913 . S
H3730 C3748 0.951 . S
H3731 C3750 0.951 . S
H3732 C3752 0.950 . S
H3733 C3753 0.950 . S
H3734 C3755 0.950 . S
H3735 C3758 0.950 1_554 S
H3736 C3759 0.950 . S
H3737 C3761 0.950 . S
H3738 C3762 0.950 . S
H3739 C3763 0.951 . S
H3740 C3765 0.951 . S
H3741 C3767 0.950 . S
H3742 C3768 0.950 . S
H3743 C3770 0.950 . S
H3744 C3773 0.950 . S
H3745 C3774 0.950 . S
H3746 C3776 0.950 . S
H3747 C3777 0.950 . S
C3748 H3730 0.951 . S
C3748 C3749 1.366 . S
C3748 C3750 1.388 . S
C3749 C3748 1.366 . S
C3749 C3753 1.385 . S
C3750 H3731 0.951 . S
C3750 C3748 1.388 . S
C3750 C3751 1.366 . S
C3751 C3750 1.366 . S
C3751 C3752 1.414 . S
C3751 C3754 1.499 . S
C3752 H3732 0.950 . S
C3752 C3751 1.414 . S
C3752 C3753 1.374 . S
C3753 H3733 0.950 . S
C3753 C3749 1.385 . S
C3753 C3752 1.374 . S
C3754 C3751 1.499 . S
C3754 C3755 1.373 . S
C3754 C3756 1.389 . S
C3755 H3734 0.950 . S
C3755 C3754 1.373 . S
C3755 C3771 1.377 . S
C3756 C3754 1.389 . S
C3756 C3757 1.510 1_554 S
C3756 C3770 1.377 . S
C3757 C3756 1.510 1_556 S
C3757 C3758 1.396 . S
C3757 C3762 1.378 . S
C3758 H3735 0.950 1_556 S
C3758 C3757 1.396 . S
C3758 C3759 1.334 . S
C3759 H3736 0.950 . S
C3759 C3758 1.334 . S
C3759 C3760 1.287 . S
C3760 C3759 1.287 . S
C3760 C3761 1.524 . S
C3760 H3779 0.913 . S
C3761 H3737 0.950 . S
C3761 C3760 1.524 . S
C3761 C3762 1.415 . S
C3762 H3738 0.950 . S
C3762 C3757 1.378 . S
C3762 C3761 1.415 . S
C3763 H3739 0.951 . S
C3763 C3764 1.366 . S
C3763 C3765 1.388 . S
C3764 C3763 1.366 . S
C3764 C3768 1.385 . S
C3765 H3740 0.951 . S
C3765 C3763 1.388 . S
C3765 C3766 1.366 . S
C3766 C3765 1.366 . S
C3766 C3767 1.414 . S
C3766 C3769 1.499 . S
C3767 H3741 0.950 . S
C3767 C3766 1.414 . S
C3767 C3768 1.374 . S
C3768 H3742 0.950 . S
C3768 C3764 1.385 . S
C3768 C3767 1.374 . S
C3769 C3766 1.499 . S
C3769 C3770 1.373 . S
C3769 C3771 1.389 . S
C3770 H3743 0.950 . S
C3770 C3756 1.377 . S
C3770 C3769 1.373 . S
C3771 C3755 1.377 . S
C3771 C3769 1.389 . S
C3771 C3772 1.524 . S
C3772 C3771 1.524 . S
C3772 C3773 1.397 . S
C3772 C3777 1.363 . S
C3773 H3744 0.950 . S
C3773 C3772 1.397 . S
C3773 C3774 1.334 . S
C3774 H3745 0.950 . S
C3774 C3773 1.334 . S
C3774 C3775 1.287 . S
C3775 C3774 1.287 . S
C3775 C3776 1.524 . S
C3775 H3778 0.999 . S
C3776 H3746 0.950 . S
C3776 C3775 1.524 . S
C3776 C3777 1.415 . S
C3777 H3747 0.950 . S
C3777 C3772 1.363 . S
C3777 C3776 1.415 . S
H3778 C3775 0.999 . S
H3779 C3760 0.913 . S
H3780 C3798 0.951 . S
H3781 C3800 0.951 . S
H3782 C3802 0.950 . S
H3783 C3803 0.950 . S
H3784 C3805 0.950 . S
H3785 C3808 0.950 . S
H3786 C3809 0.950 . S
H3787 C3811 0.950 . S
H3788 C3812 0.950 . S
H3789 C3813 0.951 . S
H3790 C3815 0.951 . S
H3791 C3817 0.950 . S
H3792 C3818 0.950 . S
H3793 C3820 0.950 . S
H3794 C3823 0.950 . S
H3795 C3824 0.950 . S
H3796 C3826 0.950 . S
H3797 C3827 0.950 . S
C3798 H3780 0.951 . S
C3798 C3799 1.366 . S
C3798 C3800 1.388 . S
C3799 C3798 1.366 . S
C3799 C3803 1.385 . S
C3800 H3781 0.951 . S
C3800 C3798 1.388 . S
C3800 C3801 1.366 . S
C3801 C3800 1.366 . S
C3801 C3802 1.414 . S
C3801 C3804 1.499 . S
C3802 H3782 0.950 . S
C3802 C3801 1.414 . S
C3802 C3803 1.374 . S
C3803 H3783 0.950 . S
C3803 C3799 1.385 . S
C3803 C3802 1.374 . S
C3804 C3801 1.499 . S
C3804 C3805 1.373 . S
C3804 C3806 1.389 . S
C3805 H3784 0.950 . S
C3805 C3804 1.373 . S
C3805 C3821 1.377 . S
C3806 C3804 1.389 . S
C3806 C3807 1.524 . S
C3806 C3820 1.377 . S
C3807 C3806 1.524 . S
C3807 C3808 1.397 . S
C3807 C3812 1.363 . S
C3808 H3785 0.950 . S
C3808 C3807 1.397 . S
C3808 C3809 1.334 . S
C3809 H3786 0.950 . S
C3809 C3808 1.334 . S
C3809 C3810 1.287 . S
C3810 C3809 1.287 . S
C3810 C3811 1.524 . S
C3810 H3829 0.913 . S
C3811 H3787 0.950 . S
C3811 C3810 1.524 . S
C3811 C3812 1.415 . S
C3812 H3788 0.950 . S
C3812 C3807 1.363 . S
C3812 C3811 1.415 . S
C3813 H3789 0.951 . S
C3813 C3814 1.366 . S
C3813 C3815 1.388 . S
C3814 C3813 1.366 . S
C3814 C3818 1.385 . S
C3815 H3790 0.951 . S
C3815 C3813 1.388 . S
C3815 C3816 1.366 . S
C3816 C3815 1.366 . S
C3816 C3817 1.414 . S
C3816 C3819 1.499 . S
C3817 H3791 0.950 . S
C3817 C3816 1.414 . S
C3817 C3818 1.374 . S
C3818 H3792 0.950 . S
C3818 C3814 1.385 . S
C3818 C3817 1.374 . S
C3819 C3816 1.499 . S
C3819 C3820 1.373 . S
C3819 C3821 1.389 . S
C3820 H3793 0.950 . S
C3820 C3806 1.377 . S
C3820 C3819 1.373 . S
C3821 C3805 1.377 . S
C3821 C3819 1.389 . S
C3821 C3822 1.524 . S
C3822 C3821 1.524 . S
C3822 C3823 1.397 . S
C3822 C3827 1.363 . S
C3823 H3794 0.950 . S
C3823 C3822 1.397 . S
C3823 C3824 1.334 . S
C3824 H3795 0.950 . S
C3824 C3823 1.334 . S
C3824 C3825 1.287 . S
C3825 C3824 1.287 . S
C3825 C3826 1.524 . S
C3825 H3828 0.999 . S
C3826 H3796 0.950 . S
C3826 C3825 1.524 . S
C3826 C3827 1.415 . S
C3827 H3797 0.950 . S
C3827 C3822 1.363 . S
C3827 C3826 1.415 . S
H3828 C3825 0.999 . S
H3829 C3810 0.913 . S
H3830 C3848 0.951 . S
H3831 C3850 0.951 . S
H3832 C3852 0.950 . S
H3833 C3853 0.950 . S
H3834 C3855 0.950 . S
H3835 C3858 0.950 . S
H3836 C3859 0.950 . S
H3837 C3861 0.950 . S
H3838 C3862 0.950 . S
H3839 C3863 0.951 . S
H3840 C3865 0.951 . S
H3841 C3867 0.950 . S
H3842 C3868 0.950 . S
H3843 C3870 0.950 . S
H3844 C3873 0.950 . S
H3845 C3874 0.950 . S
H3846 C3876 0.950 . S
H3847 C3877 0.950 . S
C3848 H3830 0.951 . S
C3848 C3849 1.366 . S
C3848 C3850 1.388 . S
C3849 C3848 1.366 . S
C3849 C3853 1.385 . S
C3850 H3831 0.951 . S
C3850 C3848 1.388 . S
C3850 C3851 1.366 . S
C3851 C3850 1.366 . S
C3851 C3852 1.414 . S
C3851 C3854 1.499 . S
C3852 H3832 0.950 . S
C3852 C3851 1.414 . S
C3852 C3853 1.374 . S
C3853 H3833 0.950 . S
C3853 C3849 1.385 . S
C3853 C3852 1.374 . S
C3854 C3851 1.499 . S
C3854 C3855 1.373 . S
C3854 C3856 1.389 . S
C3855 H3834 0.950 . S
C3855 C3854 1.373 . S
C3855 C3871 1.377 . S
C3856 C3854 1.389 . S
C3856 C3857 1.524 . S
C3856 C3870 1.377 . S
C3857 C3856 1.524 . S
C3857 C3858 1.397 . S
C3857 C3862 1.363 . S
C3858 H3835 0.950 . S
C3858 C3857 1.397 . S
C3858 C3859 1.334 . S
C3859 H3836 0.950 . S
C3859 C3858 1.334 . S
C3859 C3860 1.287 . S
C3860 C3859 1.287 . S
C3860 C3861 1.524 . S
C3860 H3879 0.913 . S
C3861 H3837 0.950 . S
C3861 C3860 1.524 . S
C3861 C3862 1.415 . S
C3862 H3838 0.950 . S
C3862 C3857 1.363 . S
C3862 C3861 1.415 . S
C3863 H3839 0.951 . S
C3863 C3864 1.366 . S
C3863 C3865 1.388 . S
C3864 C3863 1.366 . S
C3864 C3868 1.385 . S
C3865 H3840 0.951 . S
C3865 C3863 1.388 . S
C3865 C3866 1.366 . S
C3866 C3865 1.366 . S
C3866 C3867 1.414 . S
C3866 C3869 1.499 . S
C3867 H3841 0.950 . S
C3867 C3866 1.414 . S
C3867 C3868 1.374 . S
C3868 H3842 0.950 . S
C3868 C3864 1.385 . S
C3868 C3867 1.374 . S
C3869 C3866 1.499 . S
C3869 C3870 1.373 . S
C3869 C3871 1.389 . S
C3870 H3843 0.950 . S
C3870 C3856 1.377 . S
C3870 C3869 1.373 . S
C3871 C3855 1.377 . S
C3871 C3869 1.389 . S
C3871 C3872 1.524 . S
C3872 C3871 1.524 . S
C3872 C3873 1.397 . S
C3872 C3877 1.363 . S
C3873 H3844 0.950 . S
C3873 C3872 1.397 . S
C3873 C3874 1.334 . S
C3874 H3845 0.950 . S
C3874 C3873 1.334 . S
C3874 C3875 1.287 . S
C3875 C3874 1.287 . S
C3875 C3876 1.524 . S
C3875 H3878 0.999 . S
C3876 H3846 0.950 . S
C3876 C3875 1.524 . S
C3876 C3877 1.415 . S
C3877 H3847 0.950 . S
C3877 C3872 1.363 . S
C3877 C3876 1.415 . S
H3878 C3875 0.999 . S
H3879 C3860 0.913 . S
H3880 C3898 0.951 . S
H3881 C3900 0.951 . S
H3882 C3902 0.950 . S
H3883 C3903 0.950 1_545 S
H3884 C3905 0.950 . S
H3885 C3908 0.950 . S
H3886 C3909 0.950 . S
H3887 C3911 0.950 . S
H3888 C3912 0.950 . S
H3889 C3913 0.951 . S
H3890 C3915 0.951 . S
H3891 C3917 0.950 . S
H3892 C3918 0.950 . S
H3893 C3920 0.950 . S
H3894 C3923 0.950 . S
H3895 C3924 0.950 . S
H3896 C3926 0.950 . S
H3897 C3927 0.950 . S
C3898 H3880 0.951 . S
C3898 C3899 1.366 . S
C3898 C3900 1.388 . S
C3899 C3898 1.366 . S
C3899 C3903 1.385 . S
C3900 H3881 0.951 . S
C3900 C3898 1.388 . S
C3900 C3901 1.366 . S
C3901 C3900 1.366 . S
C3901 C3902 1.414 . S
C3901 C3904 1.499 . S
C3902 H3882 0.950 . S
C3902 C3901 1.414 . S
C3902 C3903 1.374 . S
C3903 H3883 0.950 1_565 S
C3903 C3899 1.385 . S
C3903 C3902 1.374 . S
C3904 C3901 1.499 . S
C3904 C3905 1.373 . S
C3904 C3906 1.389 . S
C3905 H3884 0.950 . S
C3905 C3904 1.373 . S
C3905 C3921 1.377 . S
C3906 C3904 1.389 . S
C3906 C3907 1.524 . S
C3906 C3920 1.377 . S
C3907 C3906 1.524 . S
C3907 C3908 1.397 . S
C3907 C3912 1.363 . S
C3908 H3885 0.950 . S
C3908 C3907 1.397 . S
C3908 C3909 1.334 . S
C3909 H3886 0.950 . S
C3909 C3908 1.334 . S
C3909 C3910 1.287 . S
C3910 C3909 1.287 . S
C3910 C3911 1.524 . S
C3910 H3929 0.913 . S
C3911 H3887 0.950 . S
C3911 C3910 1.524 . S
C3911 C3912 1.415 . S
C3912 H3888 0.950 . S
C3912 C3907 1.363 . S
C3912 C3911 1.415 . S
C3913 H3889 0.951 . S
C3913 C3914 1.366 . S
C3913 C3915 1.388 . S
C3914 C3913 1.366 . S
C3914 C3918 1.385 . S
C3915 H3890 0.951 . S
C3915 C3913 1.388 . S
C3915 C3916 1.366 . S
C3916 C3915 1.366 . S
C3916 C3917 1.414 . S
C3916 C3919 1.499 . S
C3917 H3891 0.950 . S
C3917 C3916 1.414 . S
C3917 C3918 1.374 . S
C3918 H3892 0.950 . S
C3918 C3914 1.385 . S
C3918 C3917 1.374 . S
C3919 C3916 1.499 . S
C3919 C3920 1.373 . S
C3919 C3921 1.389 . S
C3920 H3893 0.950 . S
C3920 C3906 1.377 . S
C3920 C3919 1.373 . S
C3921 C3905 1.377 . S
C3921 C3919 1.389 . S
C3921 C3922 1.524 . S
C3922 C3921 1.524 . S
C3922 C3923 1.397 . S
C3922 C3927 1.363 . S
C3923 H3894 0.950 . S
C3923 C3922 1.397 . S
C3923 C3924 1.334 . S
C3924 H3895 0.950 . S
C3924 C3923 1.334 . S
C3924 C3925 1.287 . S
C3925 C3924 1.287 . S
C3925 C3926 1.524 . S
C3925 H3928 0.999 . S
C3926 H3896 0.950 . S
C3926 C3925 1.524 . S
C3926 C3927 1.415 . S
C3927 H3897 0.950 . S
C3927 C3922 1.363 . S
C3927 C3926 1.415 . S
H3928 C3925 0.999 . S
H3929 C3910 0.913 . S
H3930 C3948 0.951 . S
H3931 C3950 0.951 . S
H3932 C3952 0.950 . S
H3933 C3953 0.950 . S
H3934 C3955 0.950 . S
H3935 C3958 0.950 . S
H3936 C3959 0.950 . S
H3937 C3961 0.950 . S
H3938 C3962 0.950 . S
H3939 C3963 0.951 . S
H3940 C3965 0.951 . S
H3941 C3967 0.950 . S
H3942 C3968 0.950 . S
H3943 C3970 0.950 . S
H3944 C3973 0.950 . S
H3945 C3974 0.950 . S
H3946 C3976 0.950 . S
H3947 C3977 0.950 . S
C3948 H3930 0.951 . S
C3948 C3949 1.366 . S
C3948 C3950 1.388 . S
C3949 C3948 1.366 . S
C3949 C3953 1.385 . S
C3950 H3931 0.951 . S
C3950 C3948 1.388 . S
C3950 C3951 1.366 . S
C3951 C3950 1.366 . S
C3951 C3952 1.414 . S
C3951 C3954 1.499 . S
C3952 H3932 0.950 . S
C3952 C3951 1.414 . S
C3952 C3953 1.374 . S
C3953 H3933 0.950 . S
C3953 C3949 1.385 . S
C3953 C3952 1.374 . S
C3954 C3951 1.499 . S
C3954 C3955 1.373 . S
C3954 C3956 1.389 . S
C3955 H3934 0.950 . S
C3955 C3954 1.373 . S
C3955 C3971 1.377 . S
C3956 C3954 1.389 . S
C3956 C3957 1.524 . S
C3956 C3970 1.377 . S
C3957 C3956 1.524 . S
C3957 C3958 1.397 . S
C3957 C3962 1.363 . S
C3958 H3935 0.950 . S
C3958 C3957 1.397 . S
C3958 C3959 1.334 . S
C3959 H3936 0.950 . S
C3959 C3958 1.334 . S
C3959 C3960 1.287 . S
C3960 C3959 1.287 . S
C3960 C3961 1.524 . S
C3960 H3979 0.913 . S
C3961 H3937 0.950 . S
C3961 C3960 1.524 . S
C3961 C3962 1.415 . S
C3962 H3938 0.950 . S
C3962 C3957 1.363 . S
C3962 C3961 1.415 . S
C3963 H3939 0.951 . S
C3963 C3964 1.366 . S
C3963 C3965 1.388 . S
C3964 C3963 1.366 . S
C3964 C3968 1.385 . S
C3965 H3940 0.951 . S
C3965 C3963 1.388 . S
C3965 C3966 1.366 . S
C3966 C3965 1.366 . S
C3966 C3967 1.414 . S
C3966 C3969 1.499 . S
C3967 H3941 0.950 . S
C3967 C3966 1.414 . S
C3967 C3968 1.374 . S
C3968 H3942 0.950 . S
C3968 C3964 1.385 . S
C3968 C3967 1.374 . S
C3969 C3966 1.499 . S
C3969 C3970 1.373 . S
C3969 C3971 1.389 . S
C3970 H3943 0.950 . S
C3970 C3956 1.377 . S
C3970 C3969 1.373 . S
C3971 C3955 1.377 . S
C3971 C3969 1.389 . S
C3971 C3972 1.524 . S
C3972 C3971 1.524 . S
C3972 C3973 1.397 . S
C3972 C3977 1.363 . S
C3973 H3944 0.950 . S
C3973 C3972 1.397 . S
C3973 C3974 1.334 . S
C3974 H3945 0.950 . S
C3974 C3973 1.334 . S
C3974 C3975 1.287 . S
C3975 C3974 1.287 . S
C3975 C3976 1.524 . S
C3975 H3978 0.999 . S
C3976 H3946 0.950 . S
C3976 C3975 1.524 . S
C3976 C3977 1.415 . S
C3977 H3947 0.950 . S
C3977 C3972 1.363 . S
C3977 C3976 1.415 . S
H3978 C3975 0.999 . S
H3979 C3960 0.913 . S
H3980 C3998 0.951 . S
H3981 C4000 0.951 . S
H3982 C4002 0.950 . S
H3983 C4003 0.950 . S
H3984 C4005 0.950 . S
H3985 C4008 0.950 . S
H3986 C4009 0.950 . S
H3987 C4011 0.950 . S
H3988 C4012 0.950 . S
H3989 C4013 0.951 . S
H3990 C4015 0.951 . S
H3991 C4017 0.950 . S
H3992 C4018 0.950 . S
H3993 C4020 0.950 . S
H3994 C4023 0.950 . S
H3995 C4024 0.950 . S
H3996 C4026 0.950 . S
H3997 C4027 0.950 . S
C3998 H3980 0.951 . S
C3998 C3999 1.366 . S
C3998 C4000 1.388 . S
C3999 C3998 1.366 . S
C3999 C4003 1.385 . S
C4000 H3981 0.951 . S
C4000 C3998 1.388 . S
C4000 C4001 1.366 . S
C4001 C4000 1.366 . S
C4001 C4002 1.414 . S
C4001 C4004 1.499 . S
C4002 H3982 0.950 . S
C4002 C4001 1.414 . S
C4002 C4003 1.374 . S
C4003 H3983 0.950 . S
C4003 C3999 1.385 . S
C4003 C4002 1.374 . S
C4004 C4001 1.499 . S
C4004 C4005 1.373 . S
C4004 C4006 1.389 . S
C4005 H3984 0.950 . S
C4005 C4004 1.373 . S
C4005 C4021 1.377 . S
C4006 C4004 1.389 . S
C4006 C4007 1.524 . S
C4006 C4020 1.377 . S
C4007 C4006 1.524 . S
C4007 C4008 1.397 . S
C4007 C4012 1.363 . S
C4008 H3985 0.950 . S
C4008 C4007 1.397 . S
C4008 C4009 1.334 . S
C4009 H3986 0.950 . S
C4009 C4008 1.334 . S
C4009 C4010 1.287 . S
C4010 C4009 1.287 . S
C4010 C4011 1.524 . S
C4010 H4029 0.913 . S
C4011 H3987 0.950 . S
C4011 C4010 1.524 . S
C4011 C4012 1.415 . S
C4012 H3988 0.950 . S
C4012 C4007 1.363 . S
C4012 C4011 1.415 . S
C4013 H3989 0.951 . S
C4013 C4014 1.366 . S
C4013 C4015 1.388 . S
C4014 C4013 1.366 . S
C4014 C4018 1.385 . S
C4015 H3990 0.951 . S
C4015 C4013 1.388 . S
C4015 C4016 1.366 . S
C4016 C4015 1.366 . S
C4016 C4017 1.414 . S
C4016 C4019 1.499 . S
C4017 H3991 0.950 . S
C4017 C4016 1.414 . S
C4017 C4018 1.374 . S
C4018 H3992 0.950 . S
C4018 C4014 1.385 . S
C4018 C4017 1.374 . S
C4019 C4016 1.499 . S
C4019 C4020 1.373 . S
C4019 C4021 1.389 . S
C4020 H3993 0.950 . S
C4020 C4006 1.377 . S
C4020 C4019 1.373 . S
C4021 C4005 1.377 . S
C4021 C4019 1.389 . S
C4021 C4022 1.524 . S
C4022 C4021 1.524 . S
C4022 C4023 1.397 . S
C4022 C4027 1.363 . S
C4023 H3994 0.950 . S
C4023 C4022 1.397 . S
C4023 C4024 1.334 . S
C4024 H3995 0.950 . S
C4024 C4023 1.334 . S
C4024 C4025 1.287 . S
C4025 C4024 1.287 . S
C4025 C4026 1.524 . S
C4025 H4028 0.999 . S
C4026 H3996 0.950 . S
C4026 C4025 1.524 . S
C4026 C4027 1.415 . S
C4027 H3997 0.950 . S
C4027 C4022 1.363 . S
C4027 C4026 1.415 . S
H4028 C4025 0.999 . S
H4029 C4010 0.913 . S
H4030 C4048 0.951 . S
H4031 C4050 0.951 . S
H4032 C4052 0.950 . S
H4033 C4053 0.950 . S
H4034 C4055 0.950 . S
H4035 C4058 0.950 . S
H4036 C4059 0.950 . S
H4037 C4061 0.950 . S
H4038 C4062 0.950 . S
H4039 C4063 0.951 . S
H4040 C4065 0.951 . S
H4041 C4067 0.950 . S
H4042 C4068 0.950 . S
H4043 C4070 0.950 . S
H4044 C4073 0.950 . S
H4045 C4074 0.950 . S
H4046 C4076 0.950 . S
H4047 C4077 0.950 . S
C4048 H4030 0.951 . S
C4048 C4049 1.366 . S
C4048 C4050 1.388 . S
C4049 C4048 1.366 . S
C4049 C4053 1.385 . S
C4050 H4031 0.951 . S
C4050 C4048 1.388 . S
C4050 C4051 1.366 . S
C4051 C4050 1.366 . S
C4051 C4052 1.414 . S
C4051 C4054 1.499 . S
C4052 H4032 0.950 . S
C4052 C4051 1.414 . S
C4052 C4053 1.374 . S
C4053 H4033 0.950 . S
C4053 C4049 1.385 . S
C4053 C4052 1.374 . S
C4054 C4051 1.499 . S
C4054 C4055 1.373 . S
C4054 C4056 1.389 . S
C4055 H4034 0.950 . S
C4055 C4054 1.373 . S
C4055 C4071 1.377 . S
C4056 C4054 1.389 . S
C4056 C4057 1.524 . S
C4056 C4070 1.377 . S
C4057 C4056 1.524 . S
C4057 C4058 1.397 . S
C4057 C4062 1.363 . S
C4058 H4035 0.950 . S
C4058 C4057 1.397 . S
C4058 C4059 1.334 . S
C4059 H4036 0.950 . S
C4059 C4058 1.334 . S
C4059 C4060 1.287 . S
C4060 C4059 1.287 . S
C4060 C4061 1.524 . S
C4060 H4079 0.913 . S
C4061 H4037 0.950 . S
C4061 C4060 1.524 . S
C4061 C4062 1.415 . S
C4062 H4038 0.950 . S
C4062 C4057 1.363 . S
C4062 C4061 1.415 . S
C4063 H4039 0.951 . S
C4063 C4064 1.366 . S
C4063 C4065 1.388 . S
C4064 C4063 1.366 . S
C4064 C4068 1.385 . S
C4065 H4040 0.951 . S
C4065 C4063 1.388 . S
C4065 C4066 1.366 . S
C4066 C4065 1.366 . S
C4066 C4067 1.414 . S
C4066 C4069 1.499 . S
C4067 H4041 0.950 . S
C4067 C4066 1.414 . S
C4067 C4068 1.374 . S
C4068 H4042 0.950 . S
C4068 C4064 1.385 . S
C4068 C4067 1.374 . S
C4069 C4066 1.499 . S
C4069 C4070 1.373 . S
C4069 C4071 1.389 . S
C4070 H4043 0.950 . S
C4070 C4056 1.377 . S
C4070 C4069 1.373 . S
C4071 C4055 1.377 . S
C4071 C4069 1.389 . S
C4071 C4072 1.524 . S
C4072 C4071 1.524 . S
C4072 C4073 1.397 . S
C4072 C4077 1.363 . S
C4073 H4044 0.950 . S
C4073 C4072 1.397 . S
C4073 C4074 1.334 . S
C4074 H4045 0.950 . S
C4074 C4073 1.334 . S
C4074 C4075 1.287 . S
C4075 C4074 1.287 . S
C4075 C4076 1.524 . S
C4075 H4078 0.999 . S
C4076 H4046 0.950 . S
C4076 C4075 1.524 . S
C4076 C4077 1.415 . S
C4077 H4047 0.950 . S
C4077 C4072 1.363 . S
C4077 C4076 1.415 . S
H4078 C4075 0.999 . S
H4079 C4060 0.913 . S
H4080 C4098 0.951 . S
H4081 C4100 0.951 . S
H4082 C4102 0.950 . S
H4083 C4103 0.950 . S
H4084 C4105 0.950 . S
H4085 C4108 0.950 . S
H4086 C4109 0.950 . S
H4087 C4111 0.950 . S
H4088 C4112 0.950 . S
H4089 C4113 0.951 . S
H4090 C4115 0.951 . S
H4091 C4117 0.950 . S
H4092 C4118 0.950 . S
H4093 C4120 0.950 . S
H4094 C4123 0.950 . S
H4095 C4124 0.950 . S
H4096 C4126 0.950 . S
H4097 C4127 0.950 . S
C4098 H4080 0.951 . S
C4098 C4099 1.366 . S
C4098 C4100 1.388 . S
C4099 C4098 1.366 . S
C4099 C4103 1.385 . S
C4100 H4081 0.951 . S
C4100 C4098 1.388 . S
C4100 C4101 1.366 . S
C4101 C4100 1.366 . S
C4101 C4102 1.414 . S
C4101 C4104 1.499 . S
C4102 H4082 0.950 . S
C4102 C4101 1.414 . S
C4102 C4103 1.374 . S
C4103 H4083 0.950 . S
C4103 C4099 1.385 . S
C4103 C4102 1.374 . S
C4104 C4101 1.499 . S
C4104 C4105 1.373 . S
C4104 C4106 1.389 . S
C4105 H4084 0.950 . S
C4105 C4104 1.373 . S
C4105 C4121 1.377 . S
C4106 C4104 1.389 . S
C4106 C4107 1.524 . S
C4106 C4120 1.377 . S
C4107 C4106 1.524 . S
C4107 C4108 1.397 . S
C4107 C4112 1.363 . S
C4108 H4085 0.950 . S
C4108 C4107 1.397 . S
C4108 C4109 1.334 . S
C4109 H4086 0.950 . S
C4109 C4108 1.334 . S
C4109 C4110 1.287 . S
C4110 C4109 1.287 . S
C4110 C4111 1.524 . S
C4110 H4129 0.913 . S
C4111 H4087 0.950 . S
C4111 C4110 1.524 . S
C4111 C4112 1.415 . S
C4112 H4088 0.950 . S
C4112 C4107 1.363 . S
C4112 C4111 1.415 . S
C4113 H4089 0.951 . S
C4113 C4114 1.366 . S
C4113 C4115 1.388 . S
C4114 C4113 1.366 . S
C4114 C4118 1.385 . S
C4115 H4090 0.951 . S
C4115 C4113 1.388 . S
C4115 C4116 1.366 . S
C4116 C4115 1.366 . S
C4116 C4117 1.414 . S
C4116 C4119 1.499 . S
C4117 H4091 0.950 . S
C4117 C4116 1.414 . S
C4117 C4118 1.374 . S
C4118 H4092 0.950 . S
C4118 C4114 1.385 . S
C4118 C4117 1.374 . S
C4119 C4116 1.499 . S
C4119 C4120 1.373 . S
C4119 C4121 1.389 . S
C4120 H4093 0.950 . S
C4120 C4106 1.377 . S
C4120 C4119 1.373 . S
C4121 C4105 1.377 . S
C4121 C4119 1.389 . S
C4121 C4122 1.524 . S
C4122 C4121 1.524 . S
C4122 C4123 1.397 . S
C4122 C4127 1.363 . S
C4123 H4094 0.950 . S
C4123 C4122 1.397 . S
C4123 C4124 1.334 . S
C4124 H4095 0.950 . S
C4124 C4123 1.334 . S
C4124 C4125 1.287 . S
C4125 C4124 1.287 . S
C4125 C4126 1.524 . S
C4125 H4128 0.999 . S
C4126 H4096 0.950 . S
C4126 C4125 1.524 . S
C4126 C4127 1.415 . S
C4127 H4097 0.950 . S
C4127 C4122 1.363 . S
C4127 C4126 1.415 . S
H4128 C4125 0.999 . S
H4129 C4110 0.913 . S
H4130 C4148 0.951 . S
H4131 C4150 0.951 . S
H4132 C4152 0.950 . S
H4133 C4153 0.950 . S
H4134 C4155 0.950 . S
H4135 C4158 0.950 . S
H4136 C4159 0.950 . S
H4137 C4161 0.950 . S
H4138 C4162 0.950 . S
H4139 C4163 0.951 . S
H4140 C4165 0.951 . S
H4141 C4167 0.950 . S
H4142 C4168 0.950 . S
H4143 C4170 0.950 . S
H4144 C4173 0.950 . S
H4145 C4174 0.950 . S
H4146 C4176 0.950 . S
H4147 C4177 0.950 . S
C4148 H4130 0.951 . S
C4148 C4149 1.366 . S
C4148 C4150 1.388 . S
C4149 C4148 1.366 . S
C4149 C4153 1.385 . S
C4150 H4131 0.951 . S
C4150 C4148 1.388 . S
C4150 C4151 1.366 . S
C4151 C4150 1.366 . S
C4151 C4152 1.414 . S
C4151 C4154 1.499 . S
C4152 H4132 0.950 . S
C4152 C4151 1.414 . S
C4152 C4153 1.374 . S
C4153 H4133 0.950 . S
C4153 C4149 1.385 . S
C4153 C4152 1.374 . S
C4154 C4151 1.499 . S
C4154 C4155 1.373 . S
C4154 C4156 1.389 . S
C4155 H4134 0.950 . S
C4155 C4154 1.373 . S
C4155 C4171 1.377 . S
C4156 C4154 1.389 . S
C4156 C4157 1.524 . S
C4156 C4170 1.377 . S
C4157 C4156 1.524 . S
C4157 C4158 1.397 . S
C4157 C4162 1.363 . S
C4158 H4135 0.950 . S
C4158 C4157 1.397 . S
C4158 C4159 1.334 . S
C4159 H4136 0.950 . S
C4159 C4158 1.334 . S
C4159 C4160 1.287 . S
C4160 C4159 1.287 . S
C4160 C4161 1.524 . S
C4160 H4179 0.913 . S
C4161 H4137 0.950 . S
C4161 C4160 1.524 . S
C4161 C4162 1.415 . S
C4162 H4138 0.950 . S
C4162 C4157 1.363 . S
C4162 C4161 1.415 . S
C4163 H4139 0.951 . S
C4163 C4164 1.366 . S
C4163 C4165 1.388 . S
C4164 C4163 1.366 . S
C4164 C4168 1.385 . S
C4165 H4140 0.951 . S
C4165 C4163 1.388 . S
C4165 C4166 1.366 . S
C4166 C4165 1.366 . S
C4166 C4167 1.414 . S
C4166 C4169 1.499 . S
C4167 H4141 0.950 . S
C4167 C4166 1.414 . S
C4167 C4168 1.374 . S
C4168 H4142 0.950 . S
C4168 C4164 1.385 . S
C4168 C4167 1.374 . S
C4169 C4166 1.499 . S
C4169 C4170 1.373 . S
C4169 C4171 1.389 . S
C4170 H4143 0.950 . S
C4170 C4156 1.377 . S
C4170 C4169 1.373 . S
C4171 C4155 1.377 . S
C4171 C4169 1.389 . S
C4171 C4172 1.524 . S
C4172 C4171 1.524 . S
C4172 C4173 1.397 . S
C4172 C4177 1.363 . S
C4173 H4144 0.950 . S
C4173 C4172 1.397 . S
C4173 C4174 1.334 . S
C4174 H4145 0.950 . S
C4174 C4173 1.334 . S
C4174 C4175 1.287 . S
C4175 C4174 1.287 . S
C4175 C4176 1.524 . S
C4175 H4178 0.999 . S
C4176 H4146 0.950 . S
C4176 C4175 1.524 . S
C4176 C4177 1.415 . S
C4177 H4147 0.950 . S
C4177 C4172 1.363 . S
C4177 C4176 1.415 . S
H4178 C4175 0.999 . S
H4179 C4160 0.913 . S
H4180 C4198 0.951 . S
H4181 C4200 0.951 . S
H4182 C4202 0.950 . S
H4183 C4203 0.950 . S
H4184 C4205 0.950 1_655 S
H4185 C4208 0.950 . S
H4186 C4209 0.950 . S
H4187 C4211 0.950 . S
H4188 C4212 0.950 . S
H4189 C4213 0.919 1_655 S
H4190 C4215 0.989 . S
H4191 C4217 0.950 . S
H4192 C4218 0.950 . S
H4193 C4220 0.950 . S
H4194 C4223 0.950 . S
H4195 C4224 0.976 . S
H4196 C4226 0.950 . S
H4197 C4227 0.950 . S
C4198 H4180 0.951 . S
C4198 C4199 1.366 . S
C4198 C4200 1.388 . S
C4199 C4198 1.366 . S
C4199 C4203 1.385 1_455 S
C4200 H4181 0.951 . S
C4200 C4198 1.388 . S
C4200 C4201 1.366 . S
C4201 C4200 1.366 . S
C4201 C4202 1.414 1_455 S
C4201 C4204 1.499 . S
C4202 H4182 0.950 . S
C4202 C4201 1.414 1_655 S
C4202 C4203 1.374 . S
C4203 H4183 0.950 . S
C4203 C4199 1.385 1_655 S
C4203 C4202 1.374 . S
C4204 C4201 1.499 . S
C4204 C4205 1.373 . S
C4204 C4206 1.389 . S
C4205 H4184 0.950 1_455 S
C4205 C4204 1.373 . S
C4205 C4221 1.377 . S
C4206 C4204 1.389 . S
C4206 C4207 1.524 1_556 S
C4206 C4220 1.377 1_556 S
C4207 C4206 1.524 1_554 S
C4207 C4208 1.397 . S
C4207 C4212 1.363 . S
C4208 H4185 0.950 . S
C4208 C4207 1.397 . S
C4208 C4209 1.334 . S
C4209 H4186 0.950 . S
C4209 C4208 1.334 . S
C4209 C4210 1.287 . S
C4210 C4209 1.287 . S
C4210 C4211 1.524 . S
C4210 H4229 0.913 . S
C4211 H4187 0.950 . S
C4211 C4210 1.524 . S
C4211 C4212 1.415 . S
C4212 H4188 0.950 . S
C4212 C4207 1.363 . S
C4212 C4211 1.415 . S
C4213 H4189 0.919 1_455 S
C4213 C4214 1.393 . S
C4213 C4215 1.402 1_454 S
C4214 C4213 1.393 . S
C4214 C4218 1.385 . S
C4215 H4190 0.989 . S
C4215 C4213 1.402 1_656 S
C4215 C4216 1.321 1_655 S
C4216 C4215 1.321 1_455 S
C4216 C4217 1.414 1_556 S
C4216 C4219 1.499 . S
C4217 H4191 0.950 . S
C4217 C4216 1.414 1_554 S
C4217 C4218 1.374 . S
C4218 H4192 0.950 . S
C4218 C4214 1.385 . S
C4218 C4217 1.374 . S
C4219 C4216 1.499 . S
C4219 C4220 1.373 1_556 S
C4219 C4221 1.389 . S
C4220 H4193 0.950 . S
C4220 C4206 1.377 1_554 S
C4220 C4219 1.373 1_554 S
C4221 C4205 1.377 . S
C4221 C4219 1.389 . S
C4221 C4222 1.524 1_455 S
C4222 C4221 1.524 1_655 S
C4222 C4223 1.397 1_655 S
C4222 C4227 1.363 . S
C4223 H4194 0.950 . S
C4223 C4222 1.397 1_455 S
C4223 C4224 1.353 . S
C4224 H4195 0.976 . S
C4224 C4223 1.353 . S
C4224 C4225 1.244 1_455 S
C4225 C4224 1.244 1_655 S
C4225 C4226 1.524 . S
C4225 H4228 0.999 . S
C4226 H4196 0.950 . S
C4226 C4225 1.524 . S
C4226 C4227 1.415 . S
C4227 H4197 0.950 . S
C4227 C4222 1.363 . S
C4227 C4226 1.415 . S
H4228 C4225 0.999 . S
H4229 C4210 0.913 . S
H4230 C4248 0.951 1_455 S
H4231 C4250 0.951 . S
H4232 C4252 0.950 . S
H4233 C4253 0.950 . S
H4234 C4255 0.950 . S
H4235 C4258 0.950 . S
H4236 C4259 0.950 . S
H4237 C4261 0.950 . S
H4238 C4262 0.950 . S
H4239 C4263 0.951 . S
H4240 C4265 0.951 . S
H4241 C4267 0.950 . S
H4242 C4268 0.950 . S
H4243 C4270 0.950 . S
H4244 C4273 0.950 . S
H4245 C4274 0.950 . S
H4246 C4276 0.950 . S
H4247 C4277 0.950 . S
C4248 H4230 0.951 1_655 S
C4248 C4249 1.366 . S
C4248 C4250 1.388 . S
C4249 C4248 1.366 . S
C4249 C4253 1.385 . S
C4250 H4231 0.951 . S
C4250 C4248 1.388 . S
C4250 C4251 1.366 . S
C4251 C4250 1.366 . S
C4251 C4252 1.414 . S
C4251 C4254 1.499 . S
C4252 H4232 0.950 . S
C4252 C4251 1.414 . S
C4252 C4253 1.374 . S
C4253 H4233 0.950 . S
C4253 C4249 1.385 . S
C4253 C4252 1.374 . S
C4254 C4251 1.499 . S
C4254 C4255 1.373 . S
C4254 C4256 1.389 . S
C4255 H4234 0.950 . S
C4255 C4254 1.373 . S
C4255 C4271 1.377 . S
C4256 C4254 1.389 . S
C4256 C4257 1.524 . S
C4256 C4270 1.377 . S
C4257 C4256 1.524 . S
C4257 C4258 1.397 . S
C4257 C4262 1.363 . S
C4258 H4235 0.950 . S
C4258 C4257 1.397 . S
C4258 C4259 1.334 . S
C4259 H4236 0.950 . S
C4259 C4258 1.334 . S
C4259 C4260 1.287 . S
C4260 C4259 1.287 . S
C4260 C4261 1.524 . S
C4260 H4279 0.913 . S
C4261 H4237 0.950 . S
C4261 C4260 1.524 . S
C4261 C4262 1.415 . S
C4262 H4238 0.950 . S
C4262 C4257 1.363 . S
C4262 C4261 1.415 . S
C4263 H4239 0.951 . S
C4263 C4264 1.366 . S
C4263 C4265 1.388 . S
C4264 C4263 1.366 . S
C4264 C4268 1.385 . S
C4265 H4240 0.951 . S
C4265 C4263 1.388 . S
C4265 C4266 1.366 . S
C4266 C4265 1.366 . S
C4266 C4267 1.414 . S
C4266 C4269 1.499 . S
C4267 H4241 0.950 . S
C4267 C4266 1.414 . S
C4267 C4268 1.374 . S
C4268 H4242 0.950 . S
C4268 C4264 1.385 . S
C4268 C4267 1.374 . S
C4269 C4266 1.499 . S
C4269 C4270 1.373 . S
C4269 C4271 1.389 . S
C4270 H4243 0.950 . S
C4270 C4256 1.377 . S
C4270 C4269 1.373 . S
C4271 C4255 1.377 . S
C4271 C4269 1.389 . S
C4271 C4272 1.524 . S
C4272 C4271 1.524 . S
C4272 C4273 1.397 . S
C4272 C4277 1.363 . S
C4273 H4244 0.950 . S
C4273 C4272 1.397 . S
C4273 C4274 1.334 . S
C4274 H4245 0.950 . S
C4274 C4273 1.334 . S
C4274 C4275 1.287 . S
C4275 C4274 1.287 . S
C4275 C4276 1.524 . S
C4275 H4278 0.999 . S
C4276 H4246 0.950 . S
C4276 C4275 1.524 . S
C4276 C4277 1.415 . S
C4277 H4247 0.950 . S
C4277 C4272 1.363 . S
C4277 C4276 1.415 . S
H4278 C4275 0.999 . S
H4279 C4260 0.913 . S
H4280 C4298 0.951 . S
H4281 C4300 0.951 . S
H4282 C4302 0.950 . S
H4283 C4303 0.950 . S
H4284 C4305 0.950 . S
H4285 C4308 0.950 . S
H4286 C4309 0.950 . S
H4287 C4311 0.950 . S
H4288 C4312 0.950 . S
H4289 C4313 0.951 . S
H4290 C4315 0.951 . S
H4291 C4317 0.950 . S
H4292 C4318 0.950 . S
H4293 C4320 0.950 . S
H4294 C4323 0.950 . S
H4295 C4324 0.950 . S
H4296 C4326 0.950 . S
H4297 C4327 0.950 . S
C4298 H4280 0.951 . S
C4298 C4299 1.366 . S
C4298 C4300 1.388 . S
C4299 C4298 1.366 . S
C4299 C4303 1.385 . S
C4300 H4281 0.951 . S
C4300 C4298 1.388 . S
C4300 C4301 1.366 . S
C4301 C4300 1.366 . S
C4301 C4302 1.414 . S
C4301 C4304 1.499 . S
C4302 H4282 0.950 . S
C4302 C4301 1.414 . S
C4302 C4303 1.374 . S
C4303 H4283 0.950 . S
C4303 C4299 1.385 . S
C4303 C4302 1.374 . S
C4304 C4301 1.499 . S
C4304 C4305 1.373 . S
C4304 C4306 1.389 . S
C4305 H4284 0.950 . S
C4305 C4304 1.373 . S
C4305 C4321 1.377 . S
C4306 C4304 1.389 . S
C4306 C4307 1.524 . S
C4306 C4320 1.377 . S
C4307 C4306 1.524 . S
C4307 C4308 1.397 . S
C4307 C4312 1.363 . S
C4308 H4285 0.950 . S
C4308 C4307 1.397 . S
C4308 C4309 1.334 . S
C4309 H4286 0.950 . S
C4309 C4308 1.334 . S
C4309 C4310 1.287 . S
C4310 C4309 1.287 . S
C4310 C4311 1.524 . S
C4310 H4329 0.913 . S
C4311 H4287 0.950 . S
C4311 C4310 1.524 . S
C4311 C4312 1.415 . S
C4312 H4288 0.950 . S
C4312 C4307 1.363 . S
C4312 C4311 1.415 . S
C4313 H4289 0.951 . S
C4313 C4314 1.366 . S
C4313 C4315 1.388 . S
C4314 C4313 1.366 . S
C4314 C4318 1.385 . S
C4315 H4290 0.951 . S
C4315 C4313 1.388 . S
C4315 C4316 1.366 . S
C4316 C4315 1.366 . S
C4316 C4317 1.414 . S
C4316 C4319 1.499 . S
C4317 H4291 0.950 . S
C4317 C4316 1.414 . S
C4317 C4318 1.374 . S
C4318 H4292 0.950 . S
C4318 C4314 1.385 . S
C4318 C4317 1.374 . S
C4319 C4316 1.499 . S
C4319 C4320 1.373 . S
C4319 C4321 1.389 . S
C4320 H4293 0.950 . S
C4320 C4306 1.377 . S
C4320 C4319 1.373 . S
C4321 C4305 1.377 . S
C4321 C4319 1.389 . S
C4321 C4322 1.524 . S
C4322 C4321 1.524 . S
C4322 C4323 1.397 . S
C4322 C4327 1.363 . S
C4323 H4294 0.950 . S
C4323 C4322 1.397 . S
C4323 C4324 1.334 . S
C4324 H4295 0.950 . S
C4324 C4323 1.334 . S
C4324 C4325 1.287 . S
C4325 C4324 1.287 . S
C4325 C4326 1.524 . S
C4325 H4328 0.999 . S
C4326 H4296 0.950 . S
C4326 C4325 1.524 . S
C4326 C4327 1.415 . S
C4327 H4297 0.950 . S
C4327 C4322 1.363 . S
C4327 C4326 1.415 . S
H4328 C4325 0.999 . S
H4329 C4310 0.913 . S
H4330 C4348 0.951 . S
H4331 C4350 0.951 . S
H4332 C4352 0.950 . S
H4333 C4353 0.950 . S
H4334 C4355 0.950 . S
H4335 C4358 0.950 . S
H4336 C4359 0.950 . S
H4337 C4361 0.950 . S
H4338 C4362 0.950 . S
H4339 C4363 0.951 . S
H4340 C4365 0.951 . S
H4341 C4367 0.950 . S
H4342 C4368 0.950 . S
H4343 C4370 0.950 . S
H4344 C4373 0.950 . S
H4345 C4374 0.950 . S
H4346 C4376 0.950 . S
H4347 C4377 0.950 . S
C4348 H4330 0.951 . S
C4348 C4349 1.366 . S
C4348 C4350 1.388 . S
C4349 C4348 1.366 . S
C4349 C4353 1.385 . S
C4350 H4331 0.951 . S
C4350 C4348 1.388 . S
C4350 C4351 1.366 . S
C4351 C4350 1.366 . S
C4351 C4352 1.414 . S
C4351 C4354 1.499 . S
C4352 H4332 0.950 . S
C4352 C4351 1.414 . S
C4352 C4353 1.374 . S
C4353 H4333 0.950 . S
C4353 C4349 1.385 . S
C4353 C4352 1.374 . S
C4354 C4351 1.499 . S
C4354 C4355 1.373 . S
C4354 C4356 1.389 . S
C4355 H4334 0.950 . S
C4355 C4354 1.373 . S
C4355 C4371 1.377 . S
C4356 C4354 1.389 . S
C4356 C4357 1.524 . S
C4356 C4370 1.377 . S
C4357 C4356 1.524 . S
C4357 C4358 1.397 . S
C4357 C4362 1.363 . S
C4358 H4335 0.950 . S
C4358 C4357 1.397 . S
C4358 C4359 1.334 . S
C4359 H4336 0.950 . S
C4359 C4358 1.334 . S
C4359 C4360 1.287 . S
C4360 C4359 1.287 . S
C4360 C4361 1.524 . S
C4360 H4379 0.913 . S
C4361 H4337 0.950 . S
C4361 C4360 1.524 . S
C4361 C4362 1.415 . S
C4362 H4338 0.950 . S
C4362 C4357 1.363 . S
C4362 C4361 1.415 . S
C4363 H4339 0.951 . S
C4363 C4364 1.366 . S
C4363 C4365 1.388 . S
C4364 C4363 1.366 . S
C4364 C4368 1.385 . S
C4365 H4340 0.951 . S
C4365 C4363 1.388 . S
C4365 C4366 1.366 . S
C4366 C4365 1.366 . S
C4366 C4367 1.414 . S
C4366 C4369 1.499 . S
C4367 H4341 0.950 . S
C4367 C4366 1.414 . S
C4367 C4368 1.374 . S
C4368 H4342 0.950 . S
C4368 C4364 1.385 . S
C4368 C4367 1.374 . S
C4369 C4366 1.499 . S
C4369 C4370 1.373 . S
C4369 C4371 1.389 . S
C4370 H4343 0.950 . S
C4370 C4356 1.377 . S
C4370 C4369 1.373 . S
C4371 C4355 1.377 . S
C4371 C4369 1.389 . S
C4371 C4372 1.524 . S
C4372 C4371 1.524 . S
C4372 C4373 1.397 . S
C4372 C4377 1.363 . S
C4373 H4344 0.950 . S
C4373 C4372 1.397 . S
C4373 C4374 1.334 . S
C4374 H4345 0.950 . S
C4374 C4373 1.334 . S
C4374 C4375 1.287 . S
C4375 C4374 1.287 . S
C4375 C4376 1.524 . S
C4375 H4378 0.999 . S
C4376 H4346 0.950 . S
C4376 C4375 1.524 . S
C4376 C4377 1.415 . S
C4377 H4347 0.950 . S
C4377 C4372 1.363 . S
C4377 C4376 1.415 . S
H4378 C4375 0.999 . S
H4379 C4360 0.913 . S
H4380 C4398 0.951 1_655 S
H4381 C4400 0.945 1_655 S
H4382 C4402 0.950 . S
H4383 C4403 0.950 . S
H4384 C4405 0.950 . S
H4385 C4408 0.950 . S
H4386 C4409 0.950 . S
H4387 C4411 0.950 . S
H4388 C4412 0.950 . S
H4389 C4413 0.951 . S
H4390 C4415 0.951 . S
H4391 C4417 0.950 . S
H4392 C4418 0.950 . S
H4393 C4420 0.950 . S
H4394 C4423 0.950 . S
H4395 C4424 0.950 . S
H4396 C4426 0.950 . S
H4397 C4427 0.950 . S
C4398 H4380 0.951 1_455 S
C4398 C4399 1.366 . S
C4398 C4400 1.388 . S
C4399 C4398 1.366 . S
C4399 C4403 1.385 . S
C4400 H4381 0.945 1_455 S
C4400 C4398 1.388 . S
C4400 C4401 1.366 . S
C4401 C4400 1.366 . S
C4401 C4402 1.414 . S
C4401 C4404 1.499 . S
C4402 H4382 0.950 . S
C4402 C4401 1.414 . S
C4402 C4403 1.374 . S
C4403 H4383 0.950 . S
C4403 C4399 1.385 . S
C4403 C4402 1.374 . S
C4404 C4401 1.499 . S
C4404 C4405 1.373 . S
C4404 C4406 1.389 1_455 S
C4405 H4384 0.950 . S
C4405 C4404 1.373 . S
C4405 C4421 1.377 . S
C4406 C4404 1.389 1_655 S
C4406 C4407 1.524 . S
C4406 C4420 1.377 . S
C4407 C4406 1.524 . S
C4407 C4408 1.397 . S
C4407 C4412 1.363 . S
C4408 H4385 0.950 . S
C4408 C4407 1.397 . S
C4408 C4409 1.334 . S
C4409 H4386 0.950 . S
C4409 C4408 1.334 . S
C4409 C4410 1.287 . S
C4410 C4409 1.287 . S
C4410 C4411 1.524 . S
C4410 H4429 0.913 . S
C4411 H4387 0.950 . S
C4411 C4410 1.524 . S
C4411 C4412 1.415 . S
C4412 H4388 0.950 . S
C4412 C4407 1.363 . S
C4412 C4411 1.415 . S
C4413 H4389 0.951 . S
C4413 C4414 1.366 . S
C4413 C4415 1.388 . S
C4414 C4413 1.366 . S
C4414 C4418 1.385 . S
C4415 H4390 0.951 . S
C4415 C4413 1.388 . S
C4415 C4416 1.366 . S
C4416 C4415 1.366 . S
C4416 C4417 1.414 . S
C4416 C4419 1.499 . S
C4417 H4391 0.950 . S
C4417 C4416 1.414 . S
C4417 C4418 1.374 . S
C4418 H4392 0.950 . S
C4418 C4414 1.385 . S
C4418 C4417 1.374 . S
C4419 C4416 1.499 . S
C4419 C4420 1.373 1_455 S
C4419 C4421 1.389 . S
C4420 H4393 0.950 . S
C4420 C4406 1.377 . S
C4420 C4419 1.373 1_655 S
C4421 C4405 1.377 . S
C4421 C4419 1.389 . S
C4421 C4422 1.524 . S
C4422 C4421 1.524 . S
C4422 C4423 1.397 . S
C4422 C4427 1.363 . S
C4423 H4394 0.950 . S
C4423 C4422 1.397 . S
C4423 C4424 1.334 . S
C4424 H4395 0.950 . S
C4424 C4423 1.334 . S
C4424 C4425 1.287 . S
C4425 C4424 1.287 . S
C4425 C4426 1.524 . S
C4425 H4428 0.999 . S
C4426 H4396 0.950 . S
C4426 C4425 1.524 . S
C4426 C4427 1.415 . S
C4427 H4397 0.950 . S
C4427 C4422 1.363 . S
C4427 C4426 1.415 . S
H4428 C4425 0.999 . S
H4429 C4410 0.913 . S
H4430 C4448 0.951 . S
H4431 C4450 0.951 . S
H4432 C4452 0.950 . S
H4433 C4453 0.950 . S
H4434 C4455 0.950 . S
H4435 C4458 0.950 . S
H4436 C4459 0.950 . S
H4437 C4461 0.950 . S
H4438 C4462 0.950 . S
H4439 C4463 0.951 . S
H4440 C4465 0.951 . S
H4441 C4467 0.950 . S
H4442 C4468 0.950 . S
H4443 C4470 0.950 . S
H4444 C4473 0.950 . S
H4445 C4474 0.950 . S
H4446 C4476 0.950 . S
H4447 C4477 0.950 . S
C4448 H4430 0.951 . S
C4448 C4449 1.366 . S
C4448 C4450 1.388 . S
C4449 C4448 1.366 . S
C4449 C4453 1.385 . S
C4450 H4431 0.951 . S
C4450 C4448 1.388 . S
C4450 C4451 1.366 . S
C4451 C4450 1.366 . S
C4451 C4452 1.414 . S
C4451 C4454 1.499 . S
C4452 H4432 0.950 . S
C4452 C4451 1.414 . S
C4452 C4453 1.374 . S
C4453 H4433 0.950 . S
C4453 C4449 1.385 . S
C4453 C4452 1.374 . S
C4454 C4451 1.499 . S
C4454 C4455 1.373 . S
C4454 C4456 1.389 . S
C4455 H4434 0.950 . S
C4455 C4454 1.373 . S
C4455 C4471 1.377 . S
C4456 C4454 1.389 . S
C4456 C4457 1.524 . S
C4456 C4470 1.377 . S
C4457 C4456 1.524 . S
C4457 C4458 1.397 . S
C4457 C4462 1.363 . S
C4458 H4435 0.950 . S
C4458 C4457 1.397 . S
C4458 C4459 1.334 . S
C4459 H4436 0.950 . S
C4459 C4458 1.334 . S
C4459 C4460 1.287 . S
C4460 C4459 1.287 . S
C4460 C4461 1.524 . S
C4460 H4479 0.913 . S
C4461 H4437 0.950 . S
C4461 C4460 1.524 . S
C4461 C4462 1.415 . S
C4462 H4438 0.950 . S
C4462 C4457 1.363 . S
C4462 C4461 1.415 . S
C4463 H4439 0.951 . S
C4463 C4464 1.366 . S
C4463 C4465 1.388 . S
C4464 C4463 1.366 . S
C4464 C4468 1.385 . S
C4465 H4440 0.951 . S
C4465 C4463 1.388 . S
C4465 C4466 1.366 . S
C4466 C4465 1.366 . S
C4466 C4467 1.414 . S
C4466 C4469 1.499 . S
C4467 H4441 0.950 . S
C4467 C4466 1.414 . S
C4467 C4468 1.374 . S
C4468 H4442 0.950 . S
C4468 C4464 1.385 . S
C4468 C4467 1.374 . S
C4469 C4466 1.499 . S
C4469 C4470 1.373 . S
C4469 C4471 1.389 . S
C4470 H4443 0.950 . S
C4470 C4456 1.377 . S
C4470 C4469 1.373 . S
C4471 C4455 1.377 . S
C4471 C4469 1.389 . S
C4471 C4472 1.524 . S
C4472 C4471 1.524 . S
C4472 C4473 1.397 . S
C4472 C4477 1.363 . S
C4473 H4444 0.950 . S
C4473 C4472 1.397 . S
C4473 C4474 1.334 . S
C4474 H4445 0.950 . S
C4474 C4473 1.334 . S
C4474 C4475 1.287 . S
C4475 C4474 1.287 . S
C4475 C4476 1.524 . S
C4475 H4478 0.999 . S
C4476 H4446 0.950 . S
C4476 C4475 1.524 . S
C4476 C4477 1.415 . S
C4477 H4447 0.950 . S
C4477 C4472 1.363 . S
C4477 C4476 1.415 . S
H4478 C4475 0.999 . S
H4479 C4460 0.913 . S
H4480 C4498 0.951 . S
H4481 C4500 0.951 . S
H4482 C4502 0.950 . S
H4483 C4503 0.950 . S
H4484 C4505 0.950 . S
H4485 C4508 0.950 . S
H4486 C4509 0.950 . S
H4487 C4511 0.950 . S
H4488 C4512 0.950 . S
H4489 C4513 0.951 . S
H4490 C4515 0.951 . S
H4491 C4517 0.950 . S
H4492 C4518 0.950 . S
H4493 C4520 0.950 . S
H4494 C4523 0.950 . S
H4495 C4524 0.950 . S
H4496 C4526 0.950 . S
H4497 C4527 0.950 . S
C4498 H4480 0.951 . S
C4498 C4499 1.366 . S
C4498 C4500 1.388 . S
C4499 C4498 1.366 . S
C4499 C4503 1.385 . S
C4500 H4481 0.951 . S
C4500 C4498 1.388 . S
C4500 C4501 1.366 . S
C4501 C4500 1.366 . S
C4501 C4502 1.414 . S
C4501 C4504 1.499 . S
C4502 H4482 0.950 . S
C4502 C4501 1.414 . S
C4502 C4503 1.374 . S
C4503 H4483 0.950 . S
C4503 C4499 1.385 . S
C4503 C4502 1.374 . S
C4504 C4501 1.499 . S
C4504 C4505 1.373 . S
C4504 C4506 1.389 . S
C4505 H4484 0.950 . S
C4505 C4504 1.373 . S
C4505 C4521 1.377 . S
C4506 C4504 1.389 . S
C4506 C4507 1.524 . S
C4506 C4520 1.377 . S
C4507 C4506 1.524 . S
C4507 C4508 1.397 . S
C4507 C4512 1.363 . S
C4508 H4485 0.950 . S
C4508 C4507 1.397 . S
C4508 C4509 1.334 . S
C4509 H4486 0.950 . S
C4509 C4508 1.334 . S
C4509 C4510 1.287 . S
C4510 C4509 1.287 . S
C4510 C4511 1.524 . S
C4510 H4529 0.913 . S
C4511 H4487 0.950 . S
C4511 C4510 1.524 . S
C4511 C4512 1.415 . S
C4512 H4488 0.950 . S
C4512 C4507 1.363 . S
C4512 C4511 1.415 . S
C4513 H4489 0.951 . S
C4513 C4514 1.366 . S
C4513 C4515 1.388 . S
C4514 C4513 1.366 . S
C4514 C4518 1.385 . S
C4515 H4490 0.951 . S
C4515 C4513 1.388 . S
C4515 C4516 1.366 . S
C4516 C4515 1.366 . S
C4516 C4517 1.414 . S
C4516 C4519 1.499 . S
C4517 H4491 0.950 . S
C4517 C4516 1.414 . S
C4517 C4518 1.374 . S
C4518 H4492 0.950 . S
C4518 C4514 1.385 . S
C4518 C4517 1.374 . S
C4519 C4516 1.499 . S
C4519 C4520 1.373 . S
C4519 C4521 1.389 . S
C4520 H4493 0.950 . S
C4520 C4506 1.377 . S
C4520 C4519 1.373 . S
C4521 C4505 1.377 . S
C4521 C4519 1.389 . S
C4521 C4522 1.524 . S
C4522 C4521 1.524 . S
C4522 C4523 1.397 . S
C4522 C4527 1.363 . S
C4523 H4494 0.950 . S
C4523 C4522 1.397 . S
C4523 C4524 1.334 . S
C4524 H4495 0.950 . S
C4524 C4523 1.334 . S
C4524 C4525 1.287 . S
C4525 C4524 1.287 . S
C4525 C4526 1.524 . S
C4525 H4528 0.999 . S
C4526 H4496 0.950 . S
C4526 C4525 1.524 . S
C4526 C4527 1.415 . S
C4527 H4497 0.950 . S
C4527 C4522 1.363 . S
C4527 C4526 1.415 . S
H4528 C4525 0.999 . S
H4529 C4510 0.913 . S
H4530 C4548 0.951 . S
H4531 C4550 0.951 . S
H4532 C4552 0.950 . S
H4533 C4553 0.950 . S
H4534 C4555 0.950 . S
H4535 C4558 0.950 . S
H4536 C4559 0.950 . S
H4537 C4561 0.950 . S
H4538 C4562 0.950 . S
H4539 C4563 0.951 . S
H4540 C4565 0.951 . S
H4541 C4567 0.950 . S
H4542 C4568 0.950 . S
H4543 C4570 0.950 . S
H4544 C4573 0.950 . S
H4545 C4574 0.950 . S
H4546 C4576 0.950 . S
H4547 C4577 0.950 . S
C4548 H4530 0.951 . S
C4548 C4549 1.366 1_556 S
C4548 C4550 1.388 . S
C4549 C4548 1.366 1_554 S
C4549 C4553 1.385 . S
C4550 H4531 0.951 . S
C4550 C4548 1.388 . S
C4550 C4551 1.366 . S
C4551 C4550 1.366 . S
C4551 C4552 1.414 . S
C4551 C4554 1.499 . S
C4552 H4532 0.950 . S
C4552 C4551 1.414 . S
C4552 C4553 1.374 1_556 S
C4553 H4533 0.950 . S
C4553 C4549 1.385 . S
C4553 C4552 1.374 1_554 S
C4554 C4551 1.499 . S
C4554 C4555 1.373 . S
C4554 C4556 1.389 . S
C4555 H4534 0.950 . S
C4555 C4554 1.373 . S
C4555 C4571 1.377 . S
C4556 C4554 1.389 . S
C4556 C4557 1.524 . S
C4556 C4570 1.377 . S
C4557 C4556 1.524 . S
C4557 C4558 1.397 . S
C4557 C4562 1.363 . S
C4558 H4535 0.950 . S
C4558 C4557 1.397 . S
C4558 C4559 1.334 . S
C4559 H4536 0.950 . S
C4559 C4558 1.334 . S
C4559 C4560 1.287 . S
C4560 C4559 1.287 . S
C4560 C4561 1.524 . S
C4560 H4579 0.913 . S
C4561 H4537 0.950 . S
C4561 C4560 1.524 . S
C4561 C4562 1.415 . S
C4562 H4538 0.950 . S
C4562 C4557 1.363 . S
C4562 C4561 1.415 . S
C4563 H4539 0.951 . S
C4563 C4564 1.366 . S
C4563 C4565 1.388 . S
C4564 C4563 1.366 . S
C4564 C4568 1.385 . S
C4565 H4540 0.951 . S
C4565 C4563 1.388 . S
C4565 C4566 1.366 . S
C4566 C4565 1.366 . S
C4566 C4567 1.414 . S
C4566 C4569 1.499 . S
C4567 H4541 0.950 . S
C4567 C4566 1.414 . S
C4567 C4568 1.374 . S
C4568 H4542 0.950 . S
C4568 C4564 1.385 . S
C4568 C4567 1.374 . S
C4569 C4566 1.499 . S
C4569 C4570 1.373 . S
C4569 C4571 1.389 . S
C4570 H4543 0.950 . S
C4570 C4556 1.377 . S
C4570 C4569 1.373 . S
C4571 C4555 1.377 . S
C4571 C4569 1.389 . S
C4571 C4572 1.524 . S
C4572 C4571 1.524 . S
C4572 C4573 1.397 . S
C4572 C4577 1.363 . S
C4573 H4544 0.950 . S
C4573 C4572 1.397 . S
C4573 C4574 1.334 . S
C4574 H4545 0.950 . S
C4574 C4573 1.334 . S
C4574 C4575 1.287 . S
C4575 C4574 1.287 . S
C4575 C4576 1.524 . S
C4575 H4578 0.999 . S
C4576 H4546 0.950 . S
C4576 C4575 1.524 . S
C4576 C4577 1.415 . S
C4577 H4547 0.950 . S
C4577 C4572 1.363 . S
C4577 C4576 1.415 . S
H4578 C4575 0.999 . S
H4579 C4560 0.913 . S
H4580 C4598 0.951 . S
H4581 C4600 0.951 . S
H4582 C4602 0.950 . S
H4583 C4603 0.950 . S
H4584 C4605 0.950 . S
H4585 C4608 0.950 . S
H4586 C4609 0.950 . S
H4587 C4611 0.950 . S
H4588 C4612 0.950 . S
H4589 C4613 0.951 . S
H4590 C4615 0.951 . S
H4591 C4617 0.950 . S
H4592 C4618 0.950 . S
H4593 C4620 0.950 . S
H4594 C4623 0.950 . S
H4595 C4624 0.950 . S
H4596 C4626 0.950 . S
H4597 C4627 0.950 . S
C4598 H4580 0.951 . S
C4598 C4599 1.366 . S
C4598 C4600 1.388 . S
C4599 C4598 1.366 . S
C4599 C4603 1.385 . S
C4600 H4581 0.951 . S
C4600 C4598 1.388 . S
C4600 C4601 1.366 . S
C4601 C4600 1.366 . S
C4601 C4602 1.414 . S
C4601 C4604 1.499 . S
C4602 H4582 0.950 . S
C4602 C4601 1.414 . S
C4602 C4603 1.374 . S
C4603 H4583 0.950 . S
C4603 C4599 1.385 . S
C4603 C4602 1.374 . S
C4604 C4601 1.499 . S
C4604 C4605 1.373 . S
C4604 C4606 1.389 . S
C4605 H4584 0.950 . S
C4605 C4604 1.373 . S
C4605 C4621 1.377 . S
C4606 C4604 1.389 . S
C4606 C4607 1.524 . S
C4606 C4620 1.377 . S
C4607 C4606 1.524 . S
C4607 C4608 1.397 . S
C4607 C4612 1.363 . S
C4608 H4585 0.950 . S
C4608 C4607 1.397 . S
C4608 C4609 1.334 . S
C4609 H4586 0.950 . S
C4609 C4608 1.334 . S
C4609 C4610 1.287 . S
C4610 C4609 1.287 . S
C4610 C4611 1.524 . S
C4610 H4629 0.913 . S
C4611 H4587 0.950 . S
C4611 C4610 1.524 . S
C4611 C4612 1.415 . S
C4612 H4588 0.950 . S
C4612 C4607 1.363 . S
C4612 C4611 1.415 . S
C4613 H4589 0.951 . S
C4613 C4614 1.366 . S
C4613 C4615 1.388 . S
C4614 C4613 1.366 . S
C4614 C4618 1.385 . S
C4615 H4590 0.951 . S
C4615 C4613 1.388 . S
C4615 C4616 1.366 . S
C4616 C4615 1.366 . S
C4616 C4617 1.414 . S
C4616 C4619 1.499 . S
C4617 H4591 0.950 . S
C4617 C4616 1.414 . S
C4617 C4618 1.374 . S
C4618 H4592 0.950 . S
C4618 C4614 1.385 . S
C4618 C4617 1.374 . S
C4619 C4616 1.499 . S
C4619 C4620 1.373 . S
C4619 C4621 1.389 . S
C4620 H4593 0.950 . S
C4620 C4606 1.377 . S
C4620 C4619 1.373 . S
C4621 C4605 1.377 . S
C4621 C4619 1.389 . S
C4621 C4622 1.524 . S
C4622 C4621 1.524 . S
C4622 C4623 1.397 . S
C4622 C4627 1.363 . S
C4623 H4594 0.950 . S
C4623 C4622 1.397 . S
C4623 C4624 1.334 . S
C4624 H4595 0.950 . S
C4624 C4623 1.334 . S
C4624 C4625 1.287 . S
C4625 C4624 1.287 . S
C4625 C4626 1.524 . S
C4625 H4628 0.999 . S
C4626 H4596 0.950 . S
C4626 C4625 1.524 . S
C4626 C4627 1.415 . S
C4627 H4597 0.950 . S
C4627 C4622 1.363 . S
C4627 C4626 1.415 . S
H4628 C4625 0.999 . S
H4629 C4610 0.913 . S
H4630 C4648 0.951 . S
H4631 C4650 0.951 . S
H4632 C4652 0.950 . S
H4633 C4653 0.950 . S
H4634 C4655 0.950 . S
H4635 C4658 0.950 . S
H4636 C4659 0.950 . S
H4637 C4661 0.950 . S
H4638 C4662 0.950 . S
H4639 C4663 0.951 . S
H4640 C4665 0.951 . S
H4641 C4667 0.950 . S
H4642 C4668 0.950 . S
H4643 C4670 0.950 . S
H4644 C4673 0.950 . S
H4645 C4674 0.950 . S
H4646 C4676 0.950 . S
H4647 C4677 0.950 . S
C4648 H4630 0.951 . S
C4648 C4649 1.366 . S
C4648 C4650 1.388 . S
C4649 C4648 1.366 . S
C4649 C4653 1.385 . S
C4650 H4631 0.951 . S
C4650 C4648 1.388 . S
C4650 C4651 1.366 . S
C4651 C4650 1.366 . S
C4651 C4652 1.414 . S
C4651 C4654 1.499 . S
C4652 H4632 0.950 . S
C4652 C4651 1.414 . S
C4652 C4653 1.374 . S
C4653 H4633 0.950 . S
C4653 C4649 1.385 . S
C4653 C4652 1.374 . S
C4654 C4651 1.499 . S
C4654 C4655 1.373 . S
C4654 C4656 1.389 . S
C4655 H4634 0.950 . S
C4655 C4654 1.373 . S
C4655 C4671 1.377 . S
C4656 C4654 1.389 . S
C4656 C4657 1.524 . S
C4656 C4670 1.377 . S
C4657 C4656 1.524 . S
C4657 C4658 1.397 . S
C4657 C4662 1.363 . S
C4658 H4635 0.950 . S
C4658 C4657 1.397 . S
C4658 C4659 1.334 . S
C4659 H4636 0.950 . S
C4659 C4658 1.334 . S
C4659 C4660 1.287 . S
C4660 C4659 1.287 . S
C4660 C4661 1.524 . S
C4660 H4679 0.913 . S
C4661 H4637 0.950 . S
C4661 C4660 1.524 . S
C4661 C4662 1.415 . S
C4662 H4638 0.950 . S
C4662 C4657 1.363 . S
C4662 C4661 1.415 . S
C4663 H4639 0.951 . S
C4663 C4664 1.366 . S
C4663 C4665 1.388 . S
C4664 C4663 1.366 . S
C4664 C4668 1.385 . S
C4665 H4640 0.951 . S
C4665 C4663 1.388 . S
C4665 C4666 1.366 . S
C4666 C4665 1.366 . S
C4666 C4667 1.414 . S
C4666 C4669 1.499 . S
C4667 H4641 0.950 . S
C4667 C4666 1.414 . S
C4667 C4668 1.374 . S
C4668 H4642 0.950 . S
C4668 C4664 1.385 . S
C4668 C4667 1.374 . S
C4669 C4666 1.499 . S
C4669 C4670 1.373 . S
C4669 C4671 1.389 . S
C4670 H4643 0.950 . S
C4670 C4656 1.377 . S
C4670 C4669 1.373 . S
C4671 C4655 1.377 . S
C4671 C4669 1.389 . S
C4671 C4672 1.524 . S
C4672 C4671 1.524 . S
C4672 C4673 1.397 . S
C4672 C4677 1.363 . S
C4673 H4644 0.950 . S
C4673 C4672 1.397 . S
C4673 C4674 1.334 . S
C4674 H4645 0.950 . S
C4674 C4673 1.334 . S
C4674 C4675 1.287 . S
C4675 C4674 1.287 . S
C4675 C4676 1.524 . S
C4675 H4678 0.999 . S
C4676 H4646 0.950 . S
C4676 C4675 1.524 . S
C4676 C4677 1.415 . S
C4677 H4647 0.950 . S
C4677 C4672 1.363 . S
C4677 C4676 1.415 . S
H4678 C4675 0.999 . S
H4679 C4660 0.913 . S
H4680 C4698 0.951 . S
H4681 C4700 0.951 . S
H4682 C4702 0.950 . S
H4683 C4703 0.950 . S
H4684 C4705 0.950 . S
H4685 C4708 0.950 . S
H4686 C4709 0.950 . S
H4687 C4711 0.950 . S
H4688 C4712 0.950 . S
H4689 C4713 0.951 . S
H4690 C4715 0.951 . S
H4691 C4717 0.950 . S
H4692 C4718 0.950 . S
H4693 C4720 0.950 . S
H4694 C4723 0.950 . S
H4695 C4724 0.950 . S
H4696 C4726 0.950 . S
H4697 C4727 0.950 . S
C4698 H4680 0.951 . S
C4698 C4699 1.366 . S
C4698 C4700 1.388 . S
C4699 C4698 1.366 . S
C4699 C4703 1.385 . S
C4700 H4681 0.951 . S
C4700 C4698 1.388 . S
C4700 C4701 1.366 . S
C4701 C4700 1.366 . S
C4701 C4702 1.414 . S
C4701 C4704 1.499 . S
C4702 H4682 0.950 . S
C4702 C4701 1.414 . S
C4702 C4703 1.374 . S
C4703 H4683 0.950 . S
C4703 C4699 1.385 . S
C4703 C4702 1.374 . S
C4704 C4701 1.499 . S
C4704 C4705 1.373 . S
C4704 C4706 1.389 . S
C4705 H4684 0.950 . S
C4705 C4704 1.373 . S
C4705 C4721 1.377 . S
C4706 C4704 1.389 . S
C4706 C4707 1.524 . S
C4706 C4720 1.377 . S
C4707 C4706 1.524 . S
C4707 C4708 1.397 . S
C4707 C4712 1.363 . S
C4708 H4685 0.950 . S
C4708 C4707 1.397 . S
C4708 C4709 1.334 . S
C4709 H4686 0.950 . S
C4709 C4708 1.334 . S
C4709 C4710 1.287 . S
C4710 C4709 1.287 . S
C4710 C4711 1.524 . S
C4710 H4729 0.913 . S
C4711 H4687 0.950 . S
C4711 C4710 1.524 . S
C4711 C4712 1.415 . S
C4712 H4688 0.950 . S
C4712 C4707 1.363 . S
C4712 C4711 1.415 . S
C4713 H4689 0.951 . S
C4713 C4714 1.366 . S
C4713 C4715 1.388 . S
C4714 C4713 1.366 . S
C4714 C4718 1.385 . S
C4715 H4690 0.951 . S
C4715 C4713 1.388 . S
C4715 C4716 1.366 . S
C4716 C4715 1.366 . S
C4716 C4717 1.414 . S
C4716 C4719 1.499 . S
C4717 H4691 0.950 . S
C4717 C4716 1.414 . S
C4717 C4718 1.374 . S
C4718 H4692 0.950 . S
C4718 C4714 1.385 . S
C4718 C4717 1.374 . S
C4719 C4716 1.499 . S
C4719 C4720 1.373 . S
C4719 C4721 1.389 . S
C4720 H4693 0.950 . S
C4720 C4706 1.377 . S
C4720 C4719 1.373 . S
C4721 C4705 1.377 . S
C4721 C4719 1.389 . S
C4721 C4722 1.524 . S
C4722 C4721 1.524 . S
C4722 C4723 1.397 . S
C4722 C4727 1.363 . S
C4723 H4694 0.950 . S
C4723 C4722 1.397 . S
C4723 C4724 1.334 . S
C4724 H4695 0.950 . S
C4724 C4723 1.334 . S
C4724 C4725 1.287 . S
C4725 C4724 1.287 . S
C4725 C4726 1.524 . S
C4725 H4728 0.999 . S
C4726 H4696 0.950 . S
C4726 C4725 1.524 . S
C4726 C4727 1.415 . S
C4727 H4697 0.950 . S
C4727 C4722 1.363 . S
C4727 C4726 1.415 . S
H4728 C4725 0.999 . S
H4729 C4710 0.913 . S
H4730 C4748 0.951 . S
H4731 C4750 0.951 . S
H4732 C4752 0.950 . S
H4733 C4753 0.950 . S
H4734 C4755 0.950 . S
H4735 C4758 0.950 . S
H4736 C4759 0.950 . S
H4737 C4761 0.950 . S
H4738 C4762 0.950 . S
H4739 C4763 0.951 . S
H4740 C4765 0.951 . S
H4741 C4767 0.950 . S
H4742 C4768 0.950 . S
H4743 C4770 0.950 . S
H4744 C4773 0.950 . S
H4745 C4774 0.950 . S
H4746 C4776 0.950 . S
H4747 C4777 0.950 . S
C4748 H4730 0.951 . S
C4748 C4749 1.366 . S
C4748 C4750 1.388 . S
C4749 C4748 1.366 . S
C4749 C4753 1.385 . S
C4750 H4731 0.951 . S
C4750 C4748 1.388 . S
C4750 C4751 1.366 . S
C4751 C4750 1.366 . S
C4751 C4752 1.414 . S
C4751 C4754 1.499 . S
C4752 H4732 0.950 . S
C4752 C4751 1.414 . S
C4752 C4753 1.374 . S
C4753 H4733 0.950 . S
C4753 C4749 1.385 . S
C4753 C4752 1.374 . S
C4754 C4751 1.499 . S
C4754 C4755 1.373 . S
C4754 C4756 1.389 . S
C4755 H4734 0.950 . S
C4755 C4754 1.373 . S
C4755 C4771 1.377 . S
C4756 C4754 1.389 . S
C4756 C4757 1.524 . S
C4756 C4770 1.377 . S
C4757 C4756 1.524 . S
C4757 C4758 1.397 . S
C4757 C4762 1.363 . S
C4758 H4735 0.950 . S
C4758 C4757 1.397 . S
C4758 C4759 1.334 . S
C4759 H4736 0.950 . S
C4759 C4758 1.334 . S
C4759 C4760 1.287 . S
C4760 C4759 1.287 . S
C4760 C4761 1.524 . S
C4760 H4779 0.913 . S
C4761 H4737 0.950 . S
C4761 C4760 1.524 . S
C4761 C4762 1.415 . S
C4762 H4738 0.950 . S
C4762 C4757 1.363 . S
C4762 C4761 1.415 . S
C4763 H4739 0.951 . S
C4763 C4764 1.366 . S
C4763 C4765 1.388 . S
C4764 C4763 1.366 . S
C4764 C4768 1.385 . S
C4765 H4740 0.951 . S
C4765 C4763 1.388 . S
C4765 C4766 1.366 . S
C4766 C4765 1.366 . S
C4766 C4767 1.414 . S
C4766 C4769 1.499 . S
C4767 H4741 0.950 . S
C4767 C4766 1.414 . S
C4767 C4768 1.374 . S
C4768 H4742 0.950 . S
C4768 C4764 1.385 . S
C4768 C4767 1.374 . S
C4769 C4766 1.499 . S
C4769 C4770 1.373 . S
C4769 C4771 1.389 . S
C4770 H4743 0.950 . S
C4770 C4756 1.377 . S
C4770 C4769 1.373 . S
C4771 C4755 1.377 . S
C4771 C4769 1.389 . S
C4771 C4772 1.524 . S
C4772 C4771 1.524 . S
C4772 C4773 1.397 . S
C4772 C4777 1.363 . S
C4773 H4744 0.950 . S
C4773 C4772 1.397 . S
C4773 C4774 1.334 . S
C4774 H4745 0.950 . S
C4774 C4773 1.334 . S
C4774 C4775 1.287 . S
C4775 C4774 1.287 . S
C4775 C4776 1.524 . S
C4775 H4778 0.999 . S
C4776 H4746 0.950 . S
C4776 C4775 1.524 . S
C4776 C4777 1.415 . S
C4777 H4747 0.950 . S
C4777 C4772 1.363 . S
C4777 C4776 1.415 . S
H4778 C4775 0.999 . S
H4779 C4760 0.913 . S
H4780 C4798 0.951 . S
H4781 C4800 0.951 . S
H4782 C4802 0.950 . S
H4783 C4803 0.950 . S
H4784 C4805 0.950 . S
H4785 C4808 0.950 . S
H4786 C4809 0.950 . S
H4787 C4811 0.950 . S
H4788 C4812 0.950 . S
H4789 C4813 0.951 . S
H4790 C4815 0.951 . S
H4791 C4817 0.950 . S
H4792 C4818 0.950 . S
H4793 C4820 0.950 . S
H4794 C4823 0.950 . S
H4795 C4824 0.950 . S
H4796 C4826 0.950 . S
H4797 C4827 0.950 . S
C4798 H4780 0.951 . S
C4798 C4799 1.366 . S
C4798 C4800 1.388 . S
C4799 C4798 1.366 . S
C4799 C4803 1.385 . S
C4800 H4781 0.951 . S
C4800 C4798 1.388 . S
C4800 C4801 1.366 . S
C4801 C4800 1.366 . S
C4801 C4802 1.414 . S
C4801 C4804 1.499 . S
C4802 H4782 0.950 . S
C4802 C4801 1.414 . S
C4802 C4803 1.374 . S
C4803 H4783 0.950 . S
C4803 C4799 1.385 . S
C4803 C4802 1.374 . S
C4804 C4801 1.499 . S
C4804 C4805 1.373 . S
C4804 C4806 1.389 . S
C4805 H4784 0.950 . S
C4805 C4804 1.373 . S
C4805 C4821 1.377 . S
C4806 C4804 1.389 . S
C4806 C4807 1.524 . S
C4806 C4820 1.377 . S
C4807 C4806 1.524 . S
C4807 C4808 1.397 . S
C4807 C4812 1.363 . S
C4808 H4785 0.950 . S
C4808 C4807 1.397 . S
C4808 C4809 1.334 . S
C4809 H4786 0.950 . S
C4809 C4808 1.334 . S
C4809 C4810 1.287 . S
C4810 C4809 1.287 . S
C4810 C4811 1.524 . S
C4810 H4829 0.913 . S
C4811 H4787 0.950 . S
C4811 C4810 1.524 . S
C4811 C4812 1.415 . S
C4812 H4788 0.950 . S
C4812 C4807 1.363 . S
C4812 C4811 1.415 . S
C4813 H4789 0.951 . S
C4813 C4814 1.366 . S
C4813 C4815 1.388 . S
C4814 C4813 1.366 . S
C4814 C4818 1.385 . S
C4815 H4790 0.951 . S
C4815 C4813 1.388 . S
C4815 C4816 1.366 . S
C4816 C4815 1.366 . S
C4816 C4817 1.414 . S
C4816 C4819 1.499 . S
C4817 H4791 0.950 . S
C4817 C4816 1.414 . S
C4817 C4818 1.374 . S
C4818 H4792 0.950 . S
C4818 C4814 1.385 . S
C4818 C4817 1.374 . S
C4819 C4816 1.499 . S
C4819 C4820 1.373 . S
C4819 C4821 1.389 . S
C4820 H4793 0.950 . S
C4820 C4806 1.377 . S
C4820 C4819 1.373 . S
C4821 C4805 1.377 . S
C4821 C4819 1.389 . S
C4821 C4822 1.524 . S
C4822 C4821 1.524 . S
C4822 C4823 1.397 . S
C4822 C4827 1.363 . S
C4823 H4794 0.950 . S
C4823 C4822 1.397 . S
C4823 C4824 1.334 . S
C4824 H4795 0.950 . S
C4824 C4823 1.334 . S
C4824 C4825 1.287 . S
C4825 C4824 1.287 . S
C4825 C4826 1.524 . S
C4825 H4828 0.999 . S
C4826 H4796 0.950 . S
C4826 C4825 1.524 . S
C4826 C4827 1.415 . S
C4827 H4797 0.950 . S
C4827 C4822 1.363 . S
C4827 C4826 1.415 . S
H4828 C4825 0.999 . S
H4829 C4810 0.913 . S
H4830 C4848 0.951 . S
H4831 C4850 0.951 . S
H4832 C4852 0.950 . S
H4833 C4853 0.950 . S
H4834 C4855 0.950 . S
H4835 C4858 0.950 . S
H4836 C4859 0.950 . S
H4837 C4861 0.950 . S
H4838 C4862 0.950 . S
H4839 C4863 0.951 . S
H4840 C4865 0.951 . S
H4841 C4867 0.950 . S
H4842 C4868 0.950 . S
H4843 C4870 0.950 . S
H4844 C4873 0.950 . S
H4845 C4874 0.950 . S
H4846 C4876 0.950 . S
H4847 C4877 0.950 . S
C4848 H4830 0.951 . S
C4848 C4849 1.366 . S
C4848 C4850 1.388 . S
C4849 C4848 1.366 . S
C4849 C4853 1.385 . S
C4850 H4831 0.951 . S
C4850 C4848 1.388 . S
C4850 C4851 1.366 . S
C4851 C4850 1.366 . S
C4851 C4852 1.414 . S
C4851 C4854 1.499 . S
C4852 H4832 0.950 . S
C4852 C4851 1.414 . S
C4852 C4853 1.374 . S
C4853 H4833 0.950 . S
C4853 C4849 1.385 . S
C4853 C4852 1.374 . S
C4854 C4851 1.499 . S
C4854 C4855 1.373 . S
C4854 C4856 1.389 . S
C4855 H4834 0.950 . S
C4855 C4854 1.373 . S
C4855 C4871 1.377 . S
C4856 C4854 1.389 . S
C4856 C4857 1.524 . S
C4856 C4870 1.377 . S
C4857 C4856 1.524 . S
C4857 C4858 1.397 . S
C4857 C4862 1.363 . S
C4858 H4835 0.950 . S
C4858 C4857 1.397 . S
C4858 C4859 1.334 . S
C4859 H4836 0.950 . S
C4859 C4858 1.334 . S
C4859 C4860 1.287 . S
C4860 C4859 1.287 . S
C4860 C4861 1.524 . S
C4860 H4879 0.913 . S
C4861 H4837 0.950 . S
C4861 C4860 1.524 . S
C4861 C4862 1.415 . S
C4862 H4838 0.950 . S
C4862 C4857 1.363 . S
C4862 C4861 1.415 . S
C4863 H4839 0.951 . S
C4863 C4864 1.366 . S
C4863 C4865 1.388 . S
C4864 C4863 1.366 . S
C4864 C4868 1.385 . S
C4865 H4840 0.951 . S
C4865 C4863 1.388 . S
C4865 C4866 1.366 . S
C4866 C4865 1.366 . S
C4866 C4867 1.414 . S
C4866 C4869 1.499 . S
C4867 H4841 0.950 . S
C4867 C4866 1.414 . S
C4867 C4868 1.374 . S
C4868 H4842 0.950 . S
C4868 C4864 1.385 . S
C4868 C4867 1.374 . S
C4869 C4866 1.499 . S
C4869 C4870 1.373 . S
C4869 C4871 1.389 . S
C4870 H4843 0.950 . S
C4870 C4856 1.377 . S
C4870 C4869 1.373 . S
C4871 C4855 1.377 . S
C4871 C4869 1.389 . S
C4871 C4872 1.524 . S
C4872 C4871 1.524 . S
C4872 C4873 1.397 . S
C4872 C4877 1.363 . S
C4873 H4844 0.950 . S
C4873 C4872 1.397 . S
C4873 C4874 1.334 . S
C4874 H4845 0.950 . S
C4874 C4873 1.334 . S
C4874 C4875 1.287 . S
C4875 C4874 1.287 . S
C4875 C4876 1.524 . S
C4875 H4878 0.999 . S
C4876 H4846 0.950 . S
C4876 C4875 1.524 . S
C4876 C4877 1.415 . S
C4877 H4847 0.950 . S
C4877 C4872 1.363 . S
C4877 C4876 1.415 . S
H4878 C4875 0.999 . S
H4879 C4860 0.913 . S
H4880 C4898 0.951 . S
H4881 C4900 0.951 . S
H4882 C4902 0.950 . S
H4883 C4903 0.950 . S
H4884 C4905 0.950 . S
H4885 C4908 0.950 . S
H4886 C4909 0.950 . S
H4887 C4911 0.950 . S
H4888 C4912 0.950 . S
H4889 C4913 0.951 . S
H4890 C4915 0.951 . S
H4891 C4917 0.950 . S
H4892 C4918 0.950 . S
H4893 C4920 0.950 . S
H4894 C4923 0.950 . S
H4895 C4924 0.950 . S
H4896 C4926 0.950 . S
H4897 C4927 0.950 . S
C4898 H4880 0.951 . S
C4898 C4899 1.366 . S
C4898 C4900 1.388 . S
C4899 C4898 1.366 . S
C4899 C4903 1.385 . S
C4900 H4881 0.951 . S
C4900 C4898 1.388 . S
C4900 C4901 1.366 . S
C4901 C4900 1.366 . S
C4901 C4902 1.414 . S
C4901 C4904 1.499 . S
C4902 H4882 0.950 . S
C4902 C4901 1.414 . S
C4902 C4903 1.374 . S
C4903 H4883 0.950 . S
C4903 C4899 1.385 . S
C4903 C4902 1.374 . S
C4904 C4901 1.499 . S
C4904 C4905 1.373 . S
C4904 C4906 1.389 . S
C4905 H4884 0.950 . S
C4905 C4904 1.373 . S
C4905 C4921 1.377 . S
C4906 C4904 1.389 . S
C4906 C4907 1.524 . S
C4906 C4920 1.377 . S
C4907 C4906 1.524 . S
C4907 C4908 1.397 . S
C4907 C4912 1.363 . S
C4908 H4885 0.950 . S
C4908 C4907 1.397 . S
C4908 C4909 1.334 . S
C4909 H4886 0.950 . S
C4909 C4908 1.334 . S
C4909 C4910 1.287 . S
C4910 C4909 1.287 . S
C4910 C4911 1.524 . S
C4910 H4929 0.913 . S
C4911 H4887 0.950 . S
C4911 C4910 1.524 . S
C4911 C4912 1.415 . S
C4912 H4888 0.950 . S
C4912 C4907 1.363 . S
C4912 C4911 1.415 . S
C4913 H4889 0.951 . S
C4913 C4914 1.366 . S
C4913 C4915 1.388 . S
C4914 C4913 1.366 . S
C4914 C4918 1.385 . S
C4915 H4890 0.951 . S
C4915 C4913 1.388 . S
C4915 C4916 1.366 . S
C4916 C4915 1.366 . S
C4916 C4917 1.414 . S
C4916 C4919 1.499 . S
C4917 H4891 0.950 . S
C4917 C4916 1.414 . S
C4917 C4918 1.374 . S
C4918 H4892 0.950 . S
C4918 C4914 1.385 . S
C4918 C4917 1.374 . S
C4919 C4916 1.499 . S
C4919 C4920 1.373 . S
C4919 C4921 1.389 . S
C4920 H4893 0.950 . S
C4920 C4906 1.377 . S
C4920 C4919 1.373 . S
C4921 C4905 1.377 . S
C4921 C4919 1.389 . S
C4921 C4922 1.524 . S
C4922 C4921 1.524 . S
C4922 C4923 1.397 . S
C4922 C4927 1.363 . S
C4923 H4894 0.950 . S
C4923 C4922 1.397 . S
C4923 C4924 1.334 . S
C4924 H4895 0.950 . S
C4924 C4923 1.334 . S
C4924 C4925 1.287 . S
C4925 C4924 1.287 . S
C4925 C4926 1.524 . S
C4925 H4928 0.999 . S
C4926 H4896 0.950 . S
C4926 C4925 1.524 . S
C4926 C4927 1.415 . S
C4927 H4897 0.950 . S
C4927 C4922 1.363 . S
C4927 C4926 1.415 . S
H4928 C4925 0.999 . S
H4929 C4910 0.913 . S
H4930 C4948 0.951 . S
H4931 C4950 0.951 . S
H4932 C4952 0.950 . S
H4933 C4953 0.950 . S
H4934 C4955 0.950 . S
H4935 C4958 0.950 . S
H4936 C4959 0.950 . S
H4937 C4961 0.950 . S
H4938 C4962 0.950 . S
H4939 C4963 0.951 . S
H4940 C4965 0.951 . S
H4941 C4967 0.950 . S
H4942 C4968 0.950 . S
H4943 C4970 0.950 . S
H4944 C4973 0.950 . S
H4945 C4974 0.950 . S
H4946 C4976 0.950 . S
H4947 C4977 0.950 . S
C4948 H4930 0.951 . S
C4948 C4949 1.366 . S
C4948 C4950 1.388 . S
C4949 C4948 1.366 . S
C4949 C4953 1.385 . S
C4950 H4931 0.951 . S
C4950 C4948 1.388 . S
C4950 C4951 1.366 . S
C4951 C4950 1.366 . S
C4951 C4952 1.414 . S
C4951 C4954 1.499 . S
C4952 H4932 0.950 . S
C4952 C4951 1.414 . S
C4952 C4953 1.374 . S
C4953 H4933 0.950 . S
C4953 C4949 1.385 . S
C4953 C4952 1.374 . S
C4954 C4951 1.499 . S
C4954 C4955 1.373 . S
C4954 C4956 1.389 . S
C4955 H4934 0.950 . S
C4955 C4954 1.373 . S
C4955 C4971 1.377 . S
C4956 C4954 1.389 . S
C4956 C4957 1.524 . S
C4956 C4970 1.377 . S
C4957 C4956 1.524 . S
C4957 C4958 1.397 . S
C4957 C4962 1.363 . S
C4958 H4935 0.950 . S
C4958 C4957 1.397 . S
C4958 C4959 1.334 . S
C4959 H4936 0.950 . S
C4959 C4958 1.334 . S
C4959 C4960 1.287 . S
C4960 C4959 1.287 . S
C4960 C4961 1.524 . S
C4960 H4979 0.913 . S
C4961 H4937 0.950 . S
C4961 C4960 1.524 . S
C4961 C4962 1.415 . S
C4962 H4938 0.950 . S
C4962 C4957 1.363 . S
C4962 C4961 1.415 . S
C4963 H4939 0.951 . S
C4963 C4964 1.366 . S
C4963 C4965 1.388 . S
C4964 C4963 1.366 . S
C4964 C4968 1.385 . S
C4965 H4940 0.951 . S
C4965 C4963 1.388 . S
C4965 C4966 1.366 . S
C4966 C4965 1.366 . S
C4966 C4967 1.414 . S
C4966 C4969 1.499 . S
C4967 H4941 0.950 . S
C4967 C4966 1.414 . S
C4967 C4968 1.374 . S
C4968 H4942 0.950 . S
C4968 C4964 1.385 . S
C4968 C4967 1.374 . S
C4969 C4966 1.499 . S
C4969 C4970 1.373 . S
C4969 C4971 1.389 . S
C4970 H4943 0.950 . S
C4970 C4956 1.377 . S
C4970 C4969 1.373 . S
C4971 C4955 1.377 . S
C4971 C4969 1.389 . S
C4971 C4972 1.524 . S
C4972 C4971 1.524 . S
C4972 C4973 1.397 . S
C4972 C4977 1.363 . S
C4973 H4944 0.950 . S
C4973 C4972 1.397 . S
C4973 C4974 1.334 . S
C4974 H4945 0.950 . S
C4974 C4973 1.334 . S
C4974 C4975 1.287 . S
C4975 C4974 1.287 . S
C4975 C4976 1.524 . S
C4975 H4978 0.999 . S
C4976 H4946 0.950 . S
C4976 C4975 1.524 . S
C4976 C4977 1.415 . S
C4977 H4947 0.950 . S
C4977 C4972 1.363 . S
C4977 C4976 1.415 . S
H4978 C4975 0.999 . S
H4979 C4960 0.913 . S
H4980 C4998 0.951 . S
H4981 C5000 0.951 . S
H4982 C5002 0.950 . S
H4983 C5003 0.950 . S
H4984 C5005 0.950 . S
H4985 C5008 0.950 . S
H4986 C5009 0.950 . S
H4987 C5011 0.950 . S
H4988 C5012 0.950 . S
H4989 C5013 0.951 . S
H4990 C5015 0.951 . S
H4991 C5017 0.950 . S
H4992 C5018 0.950 . S
H4993 C5020 0.950 . S
H4994 C5023 0.950 . S
H4995 C5024 0.950 . S
H4996 C5026 0.950 . S
H4997 C5027 0.950 . S
C4998 H4980 0.951 . S
C4998 C4999 1.366 . S
C4998 C5000 1.388 . S
C4999 C4998 1.366 . S
C4999 C5003 1.385 . S
C5000 H4981 0.951 . S
C5000 C4998 1.388 . S
C5000 C5001 1.366 . S
C5001 C5000 1.366 . S
C5001 C5002 1.414 . S
C5001 C5004 1.499 . S
C5002 H4982 0.950 . S
C5002 C5001 1.414 . S
C5002 C5003 1.374 . S
C5003 H4983 0.950 . S
C5003 C4999 1.385 . S
C5003 C5002 1.374 . S
C5004 C5001 1.499 . S
C5004 C5005 1.373 . S
C5004 C5006 1.389 . S
C5005 H4984 0.950 . S
C5005 C5004 1.373 . S
C5005 C5021 1.377 . S
C5006 C5004 1.389 . S
C5006 C5007 1.524 . S
C5006 C5020 1.377 . S
C5007 C5006 1.524 . S
C5007 C5008 1.397 . S
C5007 C5012 1.363 . S
C5008 H4985 0.950 . S
C5008 C5007 1.397 . S
C5008 C5009 1.334 . S
C5009 H4986 0.950 . S
C5009 C5008 1.334 . S
C5009 C5010 1.287 . S
C5010 C5009 1.287 . S
C5010 C5011 1.524 . S
C5010 H5029 0.913 . S
C5011 H4987 0.950 . S
C5011 C5010 1.524 . S
C5011 C5012 1.415 . S
C5012 H4988 0.950 . S
C5012 C5007 1.363 . S
C5012 C5011 1.415 . S
C5013 H4989 0.951 . S
C5013 C5014 1.366 . S
C5013 C5015 1.388 . S
C5014 C5013 1.366 . S
C5014 C5018 1.385 . S
C5015 H4990 0.951 . S
C5015 C5013 1.388 . S
C5015 C5016 1.366 . S
C5016 C5015 1.366 . S
C5016 C5017 1.414 . S
C5016 C5019 1.499 . S
C5017 H4991 0.950 . S
C5017 C5016 1.414 . S
C5017 C5018 1.374 . S
C5018 H4992 0.950 . S
C5018 C5014 1.385 . S
C5018 C5017 1.374 . S
C5019 C5016 1.499 . S
C5019 C5020 1.373 . S
C5019 C5021 1.389 . S
C5020 H4993 0.950 . S
C5020 C5006 1.377 . S
C5020 C5019 1.373 . S
C5021 C5005 1.377 . S
C5021 C5019 1.389 . S
C5021 C5022 1.524 . S
C5022 C5021 1.524 . S
C5022 C5023 1.397 . S
C5022 C5027 1.363 . S
C5023 H4994 0.950 . S
C5023 C5022 1.397 . S
C5023 C5024 1.334 . S
C5024 H4995 0.950 . S
C5024 C5023 1.334 . S
C5024 C5025 1.287 . S
C5025 C5024 1.287 . S
C5025 C5026 1.524 . S
C5025 H5028 0.999 . S
C5026 H4996 0.950 . S
C5026 C5025 1.524 . S
C5026 C5027 1.415 . S
C5027 H4997 0.950 . S
C5027 C5022 1.363 . S
C5027 C5026 1.415 . S
H5028 C5025 0.999 . S
H5029 C5010 0.913 . S
H5030 C5048 0.951 . S
H5031 C5050 0.951 . S
H5032 C5052 0.950 . S
H5033 C5053 0.950 . S
H5034 C5055 0.950 . S
H5035 C5058 0.950 . S
H5036 C5059 0.950 . S
H5037 C5061 0.950 . S
H5038 C5062 0.950 . S
H5039 C5063 0.951 . S
H5040 C5065 0.951 . S
H5041 C5067 0.950 . S
H5042 C5068 0.950 . S
H5043 C5070 0.950 . S
H5044 C5073 0.950 . S
H5045 C5074 0.950 . S
H5046 C5076 0.950 . S
H5047 C5077 0.950 . S
C5048 H5030 0.951 . S
C5048 C5049 1.366 . S
C5048 C5050 1.388 . S
C5049 C5048 1.366 . S
C5049 C5053 1.385 . S
C5050 H5031 0.951 . S
C5050 C5048 1.388 . S
C5050 C5051 1.366 . S
C5051 C5050 1.366 . S
C5051 C5052 1.414 . S
C5051 C5054 1.499 . S
C5052 H5032 0.950 . S
C5052 C5051 1.414 . S
C5052 C5053 1.374 . S
C5053 H5033 0.950 . S
C5053 C5049 1.385 . S
C5053 C5052 1.374 . S
C5054 C5051 1.499 . S
C5054 C5055 1.373 1_554 S
C5054 C5056 1.389 . S
C5055 H5034 0.950 . S
C5055 C5054 1.373 1_556 S
C5055 C5071 1.377 . S
C5056 C5054 1.389 . S
C5056 C5057 1.524 . S
C5056 C5070 1.377 . S
C5057 C5056 1.524 . S
C5057 C5058 1.397 . S
C5057 C5062 1.363 . S
C5058 H5035 0.950 . S
C5058 C5057 1.397 . S
C5058 C5059 1.334 . S
C5059 H5036 0.950 . S
C5059 C5058 1.334 . S
C5059 C5060 1.287 . S
C5060 C5059 1.287 . S
C5060 C5061 1.524 . S
C5060 H5079 0.913 . S
C5061 H5037 0.950 . S
C5061 C5060 1.524 . S
C5061 C5062 1.415 . S
C5062 H5038 0.950 . S
C5062 C5057 1.363 . S
C5062 C5061 1.415 . S
C5063 H5039 0.951 . S
C5063 C5064 1.366 . S
C5063 C5065 1.388 . S
C5064 C5063 1.366 . S
C5064 C5068 1.385 1_545 S
C5065 H5040 0.951 . S
C5065 C5063 1.388 . S
C5065 C5066 1.366 1_545 S
C5066 C5065 1.366 1_565 S
C5066 C5067 1.414 . S
C5066 C5069 1.499 . S
C5067 H5041 0.950 . S
C5067 C5066 1.414 . S
C5067 C5068 1.374 . S
C5068 H5042 0.950 . S
C5068 C5064 1.385 1_565 S
C5068 C5067 1.374 . S
C5069 C5066 1.499 . S
C5069 C5070 1.373 . S
C5069 C5071 1.389 1_554 S
C5070 H5043 0.950 . S
C5070 C5056 1.377 . S
C5070 C5069 1.373 . S
C5071 C5055 1.377 . S
C5071 C5069 1.389 1_556 S
C5071 C5072 1.524 . S
C5072 C5071 1.524 . S
C5072 C5073 1.397 . S
C5072 C5077 1.363 1_565 S
C5073 H5044 0.950 . S
C5073 C5072 1.397 . S
C5073 C5074 1.334 1_565 S
C5074 H5045 0.950 . S
C5074 C5073 1.334 1_545 S
C5074 C5075 1.287 . S
C5075 C5074 1.287 . S
C5075 C5076 1.524 . S
C5075 H5078 0.999 . S
C5076 H5046 0.950 . S
C5076 C5075 1.524 . S
C5076 C5077 1.415 . S
C5077 H5047 0.950 . S
C5077 C5072 1.363 1_545 S
C5077 C5076 1.415 . S
H5078 C5075 0.999 . S
H5079 C5060 0.913 . S
H5080 C5098 0.951 . S
H5081 C5100 0.951 . S
H5082 C5102 0.950 . S
H5083 C5103 0.950 . S
H5084 C5105 0.950 . S
H5085 C5108 0.950 . S
H5086 C5109 0.950 . S
H5087 C5111 0.950 . S
H5088 C5112 0.950 . S
H5089 C5113 0.951 . S
H5090 C5115 0.951 . S
H5091 C5117 0.950 . S
H5092 C5118 0.950 . S
H5093 C5120 0.950 . S
H5094 C5123 0.950 . S
H5095 C5124 0.950 . S
H5096 C5126 0.950 . S
H5097 C5127 0.950 . S
C5098 H5080 0.951 . S
C5098 C5099 1.366 . S
C5098 C5100 1.388 . S
C5099 C5098 1.366 . S
C5099 C5103 1.385 . S
C5100 H5081 0.951 . S
C5100 C5098 1.388 . S
C5100 C5101 1.366 . S
C5101 C5100 1.366 . S
C5101 C5102 1.414 . S
C5101 C5104 1.499 . S
C5102 H5082 0.950 . S
C5102 C5101 1.414 . S
C5102 C5103 1.374 . S
C5103 H5083 0.950 . S
C5103 C5099 1.385 . S
C5103 C5102 1.374 . S
C5104 C5101 1.499 . S
C5104 C5105 1.373 . S
C5104 C5106 1.389 . S
C5105 H5084 0.950 . S
C5105 C5104 1.373 . S
C5105 C5121 1.377 . S
C5106 C5104 1.389 . S
C5106 C5107 1.524 . S
C5106 C5120 1.377 . S
C5107 C5106 1.524 . S
C5107 C5108 1.397 . S
C5107 C5112 1.363 . S
C5108 H5085 0.950 . S
C5108 C5107 1.397 . S
C5108 C5109 1.334 . S
C5109 H5086 0.950 . S
C5109 C5108 1.334 . S
C5109 C5110 1.287 . S
C5110 C5109 1.287 . S
C5110 C5111 1.524 . S
C5110 H5129 0.913 . S
C5111 H5087 0.950 . S
C5111 C5110 1.524 . S
C5111 C5112 1.415 . S
C5112 H5088 0.950 . S
C5112 C5107 1.363 . S
C5112 C5111 1.415 . S
C5113 H5089 0.951 . S
C5113 C5114 1.366 . S
C5113 C5115 1.388 . S
C5114 C5113 1.366 . S
C5114 C5118 1.385 . S
C5115 H5090 0.951 . S
C5115 C5113 1.388 . S
C5115 C5116 1.366 . S
C5116 C5115 1.366 . S
C5116 C5117 1.414 . S
C5116 C5119 1.499 . S
C5117 H5091 0.950 . S
C5117 C5116 1.414 . S
C5117 C5118 1.374 . S
C5118 H5092 0.950 . S
C5118 C5114 1.385 . S
C5118 C5117 1.374 . S
C5119 C5116 1.499 . S
C5119 C5120 1.373 . S
C5119 C5121 1.389 . S
C5120 H5093 0.950 . S
C5120 C5106 1.377 . S
C5120 C5119 1.373 . S
C5121 C5105 1.377 . S
C5121 C5119 1.389 . S
C5121 C5122 1.524 . S
C5122 C5121 1.524 . S
C5122 C5123 1.397 . S
C5122 C5127 1.363 . S
C5123 H5094 0.950 . S
C5123 C5122 1.397 . S
C5123 C5124 1.334 . S
C5124 H5095 0.950 . S
C5124 C5123 1.334 . S
C5124 C5125 1.287 . S
C5125 C5124 1.287 . S
C5125 C5126 1.524 . S
C5125 H5128 0.999 . S
C5126 H5096 0.950 . S
C5126 C5125 1.524 . S
C5126 C5127 1.415 . S
C5127 H5097 0.950 . S
C5127 C5122 1.363 . S
C5127 C5126 1.415 . S
H5128 C5125 0.999 . S
H5129 C5110 0.913 . S
H5130 C5148 0.951 . S
H5131 C5150 0.951 . S
H5132 C5152 0.950 . S
H5133 C5153 0.950 . S
H5134 C5155 0.950 . S
H5135 C5158 0.950 . S
H5136 C5159 0.950 . S
H5137 C5161 0.950 . S
H5138 C5162 0.950 . S
H5139 C5163 0.951 . S
H5140 C5165 0.951 . S
H5141 C5167 0.950 . S
H5142 C5168 0.950 . S
H5143 C5170 0.945 . S
H5144 C5173 0.950 . S
H5145 C5174 0.950 . S
H5146 C5176 0.950 . S
H5147 C5177 0.950 . S
C5148 H5130 0.951 . S
C5148 C5149 1.366 . S
C5148 C5150 1.388 . S
C5149 C5148 1.366 . S
C5149 C5153 1.385 . S
C5150 H5131 0.951 . S
C5150 C5148 1.388 . S
C5150 C5151 1.366 . S
C5151 C5150 1.366 . S
C5151 C5152 1.414 . S
C5151 C5154 1.499 . S
C5152 H5132 0.950 . S
C5152 C5151 1.414 . S
C5152 C5153 1.374 . S
C5153 H5133 0.950 . S
C5153 C5149 1.385 . S
C5153 C5152 1.374 . S
C5154 C5151 1.499 . S
C5154 C5155 1.373 . S
C5154 C5156 1.389 . S
C5155 H5134 0.950 . S
C5155 C5154 1.373 . S
C5155 C5171 1.377 . S
C5156 C5154 1.389 . S
C5156 C5157 1.524 1_554 S
C5156 C5170 1.377 . S
C5157 C5156 1.524 1_556 S
C5157 C5158 1.397 . S
C5157 C5162 1.363 . S
C5158 H5135 0.950 . S
C5158 C5157 1.397 . S
C5158 C5159 1.334 . S
C5159 H5136 0.950 . S
C5159 C5158 1.334 . S
C5159 C5160 1.287 . S
C5160 C5159 1.287 . S
C5160 C5161 1.524 . S
C5160 H5179 0.913 . S
C5161 H5137 0.950 . S
C5161 C5160 1.524 . S
C5161 C5162 1.415 . S
C5162 H5138 0.950 . S
C5162 C5157 1.363 . S
C5162 C5161 1.415 . S
C5163 H5139 0.951 . S
C5163 C5164 1.366 . S
C5163 C5165 1.388 . S
C5164 C5163 1.366 . S
C5164 C5168 1.385 . S
C5165 H5140 0.951 . S
C5165 C5163 1.388 . S
C5165 C5166 1.366 . S
C5166 C5165 1.366 . S
C5166 C5167 1.414 . S
C5166 C5169 1.499 . S
C5167 H5141 0.950 . S
C5167 C5166 1.414 . S
C5167 C5168 1.374 . S
C5168 H5142 0.950 . S
C5168 C5164 1.385 . S
C5168 C5167 1.374 . S
C5169 C5166 1.499 . S
C5169 C5170 1.373 . S
C5169 C5171 1.389 . S
C5170 H5143 0.945 . S
C5170 C5156 1.377 . S
C5170 C5169 1.373 . S
C5171 C5155 1.377 . S
C5171 C5169 1.389 . S
C5171 C5172 1.524 . S
C5172 C5171 1.524 . S
C5172 C5173 1.397 . S
C5172 C5177 1.363 . S
C5173 H5144 0.950 . S
C5173 C5172 1.397 . S
C5173 C5174 1.334 . S
C5174 H5145 0.950 . S
C5174 C5173 1.334 . S
C5174 C5175 1.287 . S
C5175 C5174 1.287 . S
C5175 C5176 1.524 . S
C5175 H5178 0.999 . S
C5176 H5146 0.950 . S
C5176 C5175 1.524 . S
C5176 C5177 1.415 . S
C5177 H5147 0.950 . S
C5177 C5172 1.363 . S
C5177 C5176 1.415 . S
H5178 C5175 0.999 . S
H5179 C5160 0.913 . S
H5180 C5198 0.951 . S
H5181 C5200 0.951 . S
H5182 C5202 0.950 . S
H5183 C5203 0.950 . S
H5184 C5205 0.950 . S
H5185 C5208 0.950 . S
H5186 C5209 0.950 . S
H5187 C5211 0.950 . S
H5188 C5212 0.950 . S
H5189 C5213 0.951 . S
H5190 C5215 0.951 . S
H5191 C5217 0.950 . S
H5192 C5218 0.950 . S
H5193 C5220 0.950 . S
H5194 C5223 0.950 . S
H5195 C5224 0.950 . S
H5196 C5226 0.950 . S
H5197 C5227 0.950 . S
C5198 H5180 0.951 . S
C5198 C5199 1.366 . S
C5198 C5200 1.388 . S
C5199 C5198 1.366 . S
C5199 C5203 1.385 . S
C5200 H5181 0.951 . S
C5200 C5198 1.388 . S
C5200 C5201 1.366 . S
C5201 C5200 1.366 . S
C5201 C5202 1.414 . S
C5201 C5204 1.499 . S
C5202 H5182 0.950 . S
C5202 C5201 1.414 . S
C5202 C5203 1.374 . S
C5203 H5183 0.950 . S
C5203 C5199 1.385 . S
C5203 C5202 1.374 . S
C5204 C5201 1.499 . S
C5204 C5205 1.373 . S
C5204 C5206 1.389 . S
C5205 H5184 0.950 . S
C5205 C5204 1.373 . S
C5205 C5221 1.377 . S
C5206 C5204 1.389 . S
C5206 C5207 1.524 . S
C5206 C5220 1.377 . S
C5207 C5206 1.524 . S
C5207 C5208 1.397 . S
C5207 C5212 1.363 . S
C5208 H5185 0.950 . S
C5208 C5207 1.397 . S
C5208 C5209 1.334 . S
C5209 H5186 0.950 . S
C5209 C5208 1.334 . S
C5209 C5210 1.287 . S
C5210 C5209 1.287 . S
C5210 C5211 1.524 . S
C5210 H5229 0.913 . S
C5211 H5187 0.950 . S
C5211 C5210 1.524 . S
C5211 C5212 1.415 . S
C5212 H5188 0.950 . S
C5212 C5207 1.363 . S
C5212 C5211 1.415 . S
C5213 H5189 0.951 . S
C5213 C5214 1.366 . S
C5213 C5215 1.388 . S
C5214 C5213 1.366 . S
C5214 C5218 1.385 . S
C5215 H5190 0.951 . S
C5215 C5213 1.388 . S
C5215 C5216 1.366 . S
C5216 C5215 1.366 . S
C5216 C5217 1.414 . S
C5216 C5219 1.499 . S
C5217 H5191 0.950 . S
C5217 C5216 1.414 . S
C5217 C5218 1.374 . S
C5218 H5192 0.950 . S
C5218 C5214 1.385 . S
C5218 C5217 1.374 . S
C5219 C5216 1.499 . S
C5219 C5220 1.373 . S
C5219 C5221 1.389 . S
C5220 H5193 0.950 . S
C5220 C5206 1.377 . S
C5220 C5219 1.373 . S
C5221 C5205 1.377 . S
C5221 C5219 1.389 . S
C5221 C5222 1.524 . S
C5222 C5221 1.524 . S
C5222 C5223 1.397 . S
C5222 C5227 1.363 . S
C5223 H5194 0.950 . S
C5223 C5222 1.397 . S
C5223 C5224 1.334 . S
C5224 H5195 0.950 . S
C5224 C5223 1.334 . S
C5224 C5225 1.287 . S
C5225 C5224 1.287 . S
C5225 C5226 1.524 . S
C5225 H5228 0.999 . S
C5226 H5196 0.950 . S
C5226 C5225 1.524 . S
C5226 C5227 1.415 . S
C5227 H5197 0.950 . S
C5227 C5222 1.363 . S
C5227 C5226 1.415 . S
H5228 C5225 0.999 . S
H5229 C5210 0.913 . S
H5230 C5248 0.951 . S
H5231 C5250 0.951 . S
H5232 C5252 0.950 . S
H5233 C5253 0.950 . S
H5234 C5255 0.950 . S
H5235 C5258 0.950 . S
H5236 C5259 0.950 . S
H5237 C5261 0.950 . S
H5238 C5262 0.950 . S
H5239 C5263 0.951 . S
H5240 C5265 0.951 . S
H5241 C5267 0.950 . S
H5242 C5268 0.950 . S
H5243 C5270 0.950 . S
H5244 C5273 0.950 . S
H5245 C5274 0.950 . S
H5246 C5276 0.950 . S
H5247 C5277 0.950 . S
C5248 H5230 0.951 . S
C5248 C5249 1.366 . S
C5248 C5250 1.388 . S
C5249 C5248 1.366 . S
C5249 C5253 1.385 . S
C5250 H5231 0.951 . S
C5250 C5248 1.388 . S
C5250 C5251 1.366 . S
C5251 C5250 1.366 . S
C5251 C5252 1.414 . S
C5251 C5254 1.499 . S
C5252 H5232 0.950 . S
C5252 C5251 1.414 . S
C5252 C5253 1.374 . S
C5253 H5233 0.950 . S
C5253 C5249 1.385 . S
C5253 C5252 1.374 . S
C5254 C5251 1.499 . S
C5254 C5255 1.373 . S
C5254 C5256 1.389 . S
C5255 H5234 0.950 . S
C5255 C5254 1.373 . S
C5255 C5271 1.377 . S
C5256 C5254 1.389 . S
C5256 C5257 1.524 . S
C5256 C5270 1.377 . S
C5257 C5256 1.524 . S
C5257 C5258 1.397 . S
C5257 C5262 1.363 . S
C5258 H5235 0.950 . S
C5258 C5257 1.397 . S
C5258 C5259 1.334 . S
C5259 H5236 0.950 . S
C5259 C5258 1.334 . S
C5259 C5260 1.287 . S
C5260 C5259 1.287 . S
C5260 C5261 1.524 . S
C5260 H5279 0.913 . S
C5261 H5237 0.950 . S
C5261 C5260 1.524 . S
C5261 C5262 1.415 . S
C5262 H5238 0.950 . S
C5262 C5257 1.363 . S
C5262 C5261 1.415 . S
C5263 H5239 0.951 . S
C5263 C5264 1.366 . S
C5263 C5265 1.388 . S
C5264 C5263 1.366 . S
C5264 C5268 1.385 . S
C5265 H5240 0.951 . S
C5265 C5263 1.388 . S
C5265 C5266 1.366 . S
C5266 C5265 1.366 . S
C5266 C5267 1.414 . S
C5266 C5269 1.499 . S
C5267 H5241 0.950 . S
C5267 C5266 1.414 . S
C5267 C5268 1.374 . S
C5268 H5242 0.950 . S
C5268 C5264 1.385 . S
C5268 C5267 1.374 . S
C5269 C5266 1.499 . S
C5269 C5270 1.373 . S
C5269 C5271 1.389 . S
C5270 H5243 0.950 . S
C5270 C5256 1.377 . S
C5270 C5269 1.373 . S
C5271 C5255 1.377 . S
C5271 C5269 1.389 . S
C5271 C5272 1.524 . S
C5272 C5271 1.524 . S
C5272 C5273 1.397 . S
C5272 C5277 1.363 . S
C5273 H5244 0.950 . S
C5273 C5272 1.397 . S
C5273 C5274 1.334 . S
C5274 H5245 0.950 . S
C5274 C5273 1.334 . S
C5274 C5275 1.287 . S
C5275 C5274 1.287 . S
C5275 C5276 1.524 . S
C5275 H5278 0.999 . S
C5276 H5246 0.950 . S
C5276 C5275 1.524 . S
C5276 C5277 1.415 . S
C5277 H5247 0.950 . S
C5277 C5272 1.363 . S
C5277 C5276 1.415 . S
H5278 C5275 0.999 . S
H5279 C5260 0.913 . S
H5280 C5298 0.951 . S
H5281 C5300 0.951 . S
H5282 C5302 0.950 . S
H5283 C5303 0.950 . S
H5284 C5305 0.950 . S
H5285 C5308 0.950 . S
H5286 C5309 0.950 . S
H5287 C5311 0.950 . S
H5288 C5312 0.950 . S
H5289 C5313 0.951 . S
H5290 C5315 0.951 . S
H5291 C5317 0.950 . S
H5292 C5318 0.950 . S
H5293 C5320 0.950 . S
H5294 C5323 0.950 . S
H5295 C5324 0.950 . S
H5296 C5326 0.950 . S
H5297 C5327 0.950 . S
C5298 H5280 0.951 . S
C5298 C5299 1.366 . S
C5298 C5300 1.388 . S
C5299 C5298 1.366 . S
C5299 C5303 1.385 . S
C5300 H5281 0.951 . S
C5300 C5298 1.388 . S
C5300 C5301 1.366 . S
C5301 C5300 1.366 . S
C5301 C5302 1.414 . S
C5301 C5304 1.499 . S
C5302 H5282 0.950 . S
C5302 C5301 1.414 . S
C5302 C5303 1.374 . S
C5303 H5283 0.950 . S
C5303 C5299 1.385 . S
C5303 C5302 1.374 . S
C5304 C5301 1.499 . S
C5304 C5305 1.373 . S
C5304 C5306 1.389 . S
C5305 H5284 0.950 . S
C5305 C5304 1.373 . S
C5305 C5321 1.377 . S
C5306 C5304 1.389 . S
C5306 C5307 1.524 . S
C5306 C5320 1.377 . S
C5307 C5306 1.524 . S
C5307 C5308 1.397 . S
C5307 C5312 1.363 . S
C5308 H5285 0.950 . S
C5308 C5307 1.397 . S
C5308 C5309 1.334 . S
C5309 H5286 0.950 . S
C5309 C5308 1.334 . S
C5309 C5310 1.287 . S
C5310 C5309 1.287 . S
C5310 C5311 1.524 . S
C5310 H5329 0.913 . S
C5311 H5287 0.950 . S
C5311 C5310 1.524 . S
C5311 C5312 1.415 . S
C5312 H5288 0.950 . S
C5312 C5307 1.363 . S
C5312 C5311 1.415 . S
C5313 H5289 0.951 . S
C5313 C5314 1.366 . S
C5313 C5315 1.388 . S
C5314 C5313 1.366 . S
C5314 C5318 1.385 . S
C5315 H5290 0.951 . S
C5315 C5313 1.388 . S
C5315 C5316 1.366 . S
C5316 C5315 1.366 . S
C5316 C5317 1.414 . S
C5316 C5319 1.499 . S
C5317 H5291 0.950 . S
C5317 C5316 1.414 . S
C5317 C5318 1.374 . S
C5318 H5292 0.950 . S
C5318 C5314 1.385 . S
C5318 C5317 1.374 . S
C5319 C5316 1.499 . S
C5319 C5320 1.373 . S
C5319 C5321 1.389 . S
C5320 H5293 0.950 . S
C5320 C5306 1.377 . S
C5320 C5319 1.373 . S
C5321 C5305 1.377 . S
C5321 C5319 1.389 . S
C5321 C5322 1.524 . S
C5322 C5321 1.524 . S
C5322 C5323 1.397 . S
C5322 C5327 1.363 . S
C5323 H5294 0.950 . S
C5323 C5322 1.397 . S
C5323 C5324 1.334 . S
C5324 H5295 0.950 . S
C5324 C5323 1.334 . S
C5324 C5325 1.287 . S
C5325 C5324 1.287 . S
C5325 C5326 1.524 . S
C5325 H5328 0.999 . S
C5326 H5296 0.950 . S
C5326 C5325 1.524 . S
C5326 C5327 1.415 . S
C5327 H5297 0.950 . S
C5327 C5322 1.363 . S
C5327 C5326 1.415 . S
H5328 C5325 0.999 . S
H5329 C5310 0.913 . S
H5330 C5348 0.951 . S
H5331 C5350 0.951 . S
H5332 C5352 0.950 . S
H5333 C5353 0.950 . S
H5334 C5355 0.950 . S
H5335 C5358 0.950 . S
H5336 C5359 0.950 . S
H5337 C5361 0.950 . S
H5338 C5362 0.950 . S
H5339 C5363 0.951 . S
H5340 C5365 0.951 . S
H5341 C5367 0.950 . S
H5342 C5368 0.950 . S
H5343 C5370 0.950 . S
H5344 C5373 0.950 . S
H5345 C5374 0.950 . S
H5346 C5376 0.950 . S
H5347 C5377 0.950 . S
C5348 H5330 0.951 . S
C5348 C5349 1.366 . S
C5348 C5350 1.388 . S
C5349 C5348 1.366 . S
C5349 C5353 1.385 . S
C5350 H5331 0.951 . S
C5350 C5348 1.388 . S
C5350 C5351 1.366 . S
C5351 C5350 1.366 . S
C5351 C5352 1.414 . S
C5351 C5354 1.499 . S
C5352 H5332 0.950 . S
C5352 C5351 1.414 . S
C5352 C5353 1.374 . S
C5353 H5333 0.950 . S
C5353 C5349 1.385 . S
C5353 C5352 1.374 . S
C5354 C5351 1.499 . S
C5354 C5355 1.373 . S
C5354 C5356 1.389 . S
C5355 H5334 0.950 . S
C5355 C5354 1.373 . S
C5355 C5371 1.377 . S
C5356 C5354 1.389 . S
C5356 C5357 1.524 . S
C5356 C5370 1.377 . S
C5357 C5356 1.524 . S
C5357 C5358 1.397 . S
C5357 C5362 1.363 . S
C5358 H5335 0.950 . S
C5358 C5357 1.397 . S
C5358 C5359 1.334 . S
C5359 H5336 0.950 . S
C5359 C5358 1.334 . S
C5359 C5360 1.287 . S
C5360 C5359 1.287 . S
C5360 C5361 1.524 . S
C5360 H5379 0.913 . S
C5361 H5337 0.950 . S
C5361 C5360 1.524 . S
C5361 C5362 1.415 . S
C5362 H5338 0.950 . S
C5362 C5357 1.363 . S
C5362 C5361 1.415 . S
C5363 H5339 0.951 . S
C5363 C5364 1.366 . S
C5363 C5365 1.388 . S
C5364 C5363 1.366 . S
C5364 C5368 1.385 . S
C5365 H5340 0.951 . S
C5365 C5363 1.388 . S
C5365 C5366 1.366 . S
C5366 C5365 1.366 . S
C5366 C5367 1.414 . S
C5366 C5369 1.499 . S
C5367 H5341 0.950 . S
C5367 C5366 1.414 . S
C5367 C5368 1.374 . S
C5368 H5342 0.950 . S
C5368 C5364 1.385 . S
C5368 C5367 1.374 . S
C5369 C5366 1.499 . S
C5369 C5370 1.373 . S
C5369 C5371 1.389 . S
C5370 H5343 0.950 . S
C5370 C5356 1.377 . S
C5370 C5369 1.373 . S
C5371 C5355 1.377 . S
C5371 C5369 1.389 . S
C5371 C5372 1.524 . S
C5372 C5371 1.524 . S
C5372 C5373 1.397 . S
C5372 C5377 1.363 . S
C5373 H5344 0.950 . S
C5373 C5372 1.397 . S
C5373 C5374 1.334 . S
C5374 H5345 0.950 . S
C5374 C5373 1.334 . S
C5374 C5375 1.287 . S
C5375 C5374 1.287 . S
C5375 C5376 1.524 . S
C5375 H5378 0.999 . S
C5376 H5346 0.950 . S
C5376 C5375 1.524 . S
C5376 C5377 1.415 . S
C5377 H5347 0.950 . S
C5377 C5372 1.363 . S
C5377 C5376 1.415 . S
H5378 C5375 0.999 . S
H5379 C5360 0.913 . S
H5380 C5398 0.951 . S
H5381 C5400 0.951 . S
H5382 C5402 0.950 . S
H5383 C5403 0.950 . S
H5384 C5405 0.950 . S
H5385 C5408 0.950 . S
H5386 C5409 0.950 . S
H5387 C5411 0.950 . S
H5388 C5412 0.950 . S
H5389 C5413 0.951 . S
H5390 C5415 0.951 . S
H5391 C5417 0.950 . S
H5392 C5418 0.950 . S
H5393 C5420 0.950 . S
H5394 C5423 0.950 . S
H5395 C5424 0.950 . S
H5396 C5426 0.950 . S
H5397 C5427 0.914 1_655 S
C5398 H5380 0.951 . S
C5398 C5399 1.366 . S
C5398 C5400 1.388 . S
C5399 C5398 1.366 . S
C5399 C5403 1.385 . S
C5400 H5381 0.951 . S
C5400 C5398 1.388 . S
C5400 C5401 1.366 . S
C5401 C5400 1.366 . S
C5401 C5402 1.414 . S
C5401 C5404 1.499 . S
C5402 H5382 0.950 . S
C5402 C5401 1.414 . S
C5402 C5403 1.374 . S
C5403 H5383 0.950 . S
C5403 C5399 1.385 . S
C5403 C5402 1.374 . S
C5404 C5401 1.499 . S
C5404 C5405 1.373 . S
C5404 C5406 1.389 . S
C5405 H5384 0.950 . S
C5405 C5404 1.373 . S
C5405 C5421 1.377 . S
C5406 C5404 1.389 . S
C5406 C5407 1.524 . S
C5406 C5420 1.377 . S
C5407 C5406 1.524 . S
C5407 C5408 1.397 . S
C5407 C5412 1.363 . S
C5408 H5385 0.950 . S
C5408 C5407 1.397 . S
C5408 C5409 1.334 . S
C5409 H5386 0.950 . S
C5409 C5408 1.334 . S
C5409 C5410 1.287 . S
C5410 C5409 1.287 . S
C5410 C5411 1.524 . S
C5410 H5429 0.913 . S
C5411 H5387 0.950 . S
C5411 C5410 1.524 . S
C5411 C5412 1.415 . S
C5412 H5388 0.950 . S
C5412 C5407 1.363 . S
C5412 C5411 1.415 . S
C5413 H5389 0.951 . S
C5413 C5414 1.366 . S
C5413 C5415 1.388 . S
C5414 C5413 1.366 . S
C5414 C5418 1.385 . S
C5415 H5390 0.951 . S
C5415 C5413 1.388 . S
C5415 C5416 1.366 . S
C5416 C5415 1.366 . S
C5416 C5417 1.414 . S
C5416 C5419 1.499 . S
C5417 H5391 0.950 . S
C5417 C5416 1.414 . S
C5417 C5418 1.374 . S
C5418 H5392 0.950 . S
C5418 C5414 1.385 . S
C5418 C5417 1.374 . S
C5419 C5416 1.499 . S
C5419 C5420 1.373 . S
C5419 C5421 1.389 . S
C5420 H5393 0.950 . S
C5420 C5406 1.377 . S
C5420 C5419 1.373 . S
C5421 C5405 1.377 . S
C5421 C5419 1.389 . S
C5421 C5422 1.524 . S
C5422 C5421 1.524 . S
C5422 C5423 1.397 . S
C5422 C5427 1.426 . S
C5423 H5394 0.950 . S
C5423 C5422 1.397 . S
C5423 C5424 1.334 . S
C5424 H5395 0.950 . S
C5424 C5423 1.334 . S
C5424 C5425 1.287 . S
C5425 C5424 1.287 . S
C5425 C5426 1.524 1_455 S
C5425 H5428 1.008 . S
C5426 H5396 0.950 . S
C5426 C5425 1.524 1_655 S
C5426 C5427 1.391 1_655 S
C5427 H5397 0.914 1_455 S
C5427 C5422 1.426 . S
C5427 C5426 1.391 1_455 S
H5428 C5425 1.008 . S
H5429 C5410 0.913 . S
H5430 C5448 0.951 . S
H5431 C5450 0.951 . S
H5432 C5452 0.950 . S
H5433 C5453 0.950 . S
H5434 C5455 0.950 . S
H5435 C5458 0.950 . S
H5436 C5459 0.950 . S
H5437 C5461 0.950 . S
H5438 C5462 0.950 . S
H5439 C5463 0.951 . S
H5440 C5465 0.951 . S
H5441 C5467 0.950 . S
H5442 C5468 0.950 . S
H5443 C5470 0.950 . S
H5444 C5473 0.950 . S
H5445 C5474 0.950 . S
H5446 C5476 0.950 . S
H5447 C5477 0.950 . S
C5448 H5430 0.951 . S
C5448 C5449 1.366 . S
C5448 C5450 1.388 . S
C5449 C5448 1.366 . S
C5449 C5453 1.385 . S
C5450 H5431 0.951 . S
C5450 C5448 1.388 . S
C5450 C5451 1.366 . S
C5451 C5450 1.366 . S
C5451 C5452 1.414 . S
C5451 C5454 1.499 . S
C5452 H5432 0.950 . S
C5452 C5451 1.414 . S
C5452 C5453 1.374 . S
C5453 H5433 0.950 . S
C5453 C5449 1.385 . S
C5453 C5452 1.374 . S
C5454 C5451 1.499 . S
C5454 C5455 1.373 . S
C5454 C5456 1.389 . S
C5455 H5434 0.950 . S
C5455 C5454 1.373 . S
C5455 C5471 1.377 . S
C5456 C5454 1.389 . S
C5456 C5457 1.524 . S
C5456 C5470 1.377 . S
C5457 C5456 1.524 . S
C5457 C5458 1.397 . S
C5457 C5462 1.363 . S
C5458 H5435 0.950 . S
C5458 C5457 1.397 . S
C5458 C5459 1.334 . S
C5459 H5436 0.950 . S
C5459 C5458 1.334 . S
C5459 C5460 1.287 . S
C5460 C5459 1.287 . S
C5460 C5461 1.524 . S
C5460 H5479 0.913 . S
C5461 H5437 0.950 . S
C5461 C5460 1.524 . S
C5461 C5462 1.415 . S
C5462 H5438 0.950 . S
C5462 C5457 1.363 . S
C5462 C5461 1.415 . S
C5463 H5439 0.951 . S
C5463 C5464 1.366 . S
C5463 C5465 1.388 . S
C5464 C5463 1.366 . S
C5464 C5468 1.385 . S
C5465 H5440 0.951 . S
C5465 C5463 1.388 . S
C5465 C5466 1.366 . S
C5466 C5465 1.366 . S
C5466 C5467 1.414 . S
C5466 C5469 1.499 . S
C5467 H5441 0.950 . S
C5467 C5466 1.414 . S
C5467 C5468 1.374 . S
C5468 H5442 0.950 . S
C5468 C5464 1.385 . S
C5468 C5467 1.374 . S
C5469 C5466 1.499 . S
C5469 C5470 1.373 . S
C5469 C5471 1.389 . S
C5470 H5443 0.950 . S
C5470 C5456 1.377 . S
C5470 C5469 1.373 . S
C5471 C5455 1.377 . S
C5471 C5469 1.389 . S
C5471 C5472 1.524 . S
C5472 C5471 1.524 . S
C5472 C5473 1.397 . S
C5472 C5477 1.363 . S
C5473 H5444 0.950 . S
C5473 C5472 1.397 . S
C5473 C5474 1.334 . S
C5474 H5445 0.950 . S
C5474 C5473 1.334 . S
C5474 C5475 1.287 . S
C5475 C5474 1.287 . S
C5475 C5476 1.524 . S
C5475 H5478 0.999 . S
C5476 H5446 0.950 . S
C5476 C5475 1.524 . S
C5476 C5477 1.415 . S
C5477 H5447 0.950 . S
C5477 C5472 1.363 . S
C5477 C5476 1.415 . S
H5478 C5475 0.999 . S
H5479 C5460 0.913 . S
H5480 C5498 0.951 . S
H5481 C5500 0.951 . S
H5482 C5502 0.950 . S
H5483 C5503 0.950 . S
H5484 C5505 0.950 . S
H5485 C5508 0.950 . S
H5486 C5509 0.950 . S
H5487 C5511 0.950 . S
H5488 C5512 0.950 . S
H5489 C5513 0.951 . S
H5490 C5515 0.951 . S
H5491 C5517 0.950 . S
H5492 C5518 0.950 . S
H5493 C5520 0.950 . S
H5494 C5523 0.950 . S
H5495 C5524 0.950 . S
H5496 C5526 0.950 . S
H5497 C5527 0.950 . S
C5498 H5480 0.951 . S
C5498 C5499 1.366 . S
C5498 C5500 1.388 . S
C5499 C5498 1.366 . S
C5499 C5503 1.385 . S
C5500 H5481 0.951 . S
C5500 C5498 1.388 . S
C5500 C5501 1.366 . S
C5501 C5500 1.366 . S
C5501 C5502 1.414 . S
C5501 C5504 1.499 . S
C5502 H5482 0.950 . S
C5502 C5501 1.414 . S
C5502 C5503 1.374 . S
C5503 H5483 0.950 . S
C5503 C5499 1.385 . S
C5503 C5502 1.374 . S
C5504 C5501 1.499 . S
C5504 C5505 1.373 . S
C5504 C5506 1.389 . S
C5505 H5484 0.950 . S
C5505 C5504 1.373 . S
C5505 C5521 1.377 . S
C5506 C5504 1.389 . S
C5506 C5507 1.524 . S
C5506 C5520 1.377 . S
C5507 C5506 1.524 . S
C5507 C5508 1.397 . S
C5507 C5512 1.363 . S
C5508 H5485 0.950 . S
C5508 C5507 1.397 . S
C5508 C5509 1.334 . S
C5509 H5486 0.950 . S
C5509 C5508 1.334 . S
C5509 C5510 1.287 . S
C5510 C5509 1.287 . S
C5510 C5511 1.524 . S
C5510 H5529 0.913 . S
C5511 H5487 0.950 . S
C5511 C5510 1.524 . S
C5511 C5512 1.415 . S
C5512 H5488 0.950 . S
C5512 C5507 1.363 . S
C5512 C5511 1.415 . S
C5513 H5489 0.951 . S
C5513 C5514 1.366 . S
C5513 C5515 1.388 . S
C5514 C5513 1.366 . S
C5514 C5518 1.385 . S
C5515 H5490 0.951 . S
C5515 C5513 1.388 . S
C5515 C5516 1.366 . S
C5516 C5515 1.366 . S
C5516 C5517 1.414 . S
C5516 C5519 1.499 . S
C5517 H5491 0.950 . S
C5517 C5516 1.414 . S
C5517 C5518 1.374 . S
C5518 H5492 0.950 . S
C5518 C5514 1.385 . S
C5518 C5517 1.374 . S
C5519 C5516 1.499 . S
C5519 C5520 1.373 . S
C5519 C5521 1.389 . S
C5520 H5493 0.950 . S
C5520 C5506 1.377 . S
C5520 C5519 1.373 . S
C5521 C5505 1.377 . S
C5521 C5519 1.389 . S
C5521 C5522 1.524 . S
C5522 C5521 1.524 . S
C5522 C5523 1.397 . S
C5522 C5527 1.363 . S
C5523 H5494 0.950 . S
C5523 C5522 1.397 . S
C5523 C5524 1.334 . S
C5524 H5495 0.950 . S
C5524 C5523 1.334 . S
C5524 C5525 1.287 . S
C5525 C5524 1.287 . S
C5525 C5526 1.524 . S
C5525 H5528 0.999 . S
C5526 H5496 0.950 . S
C5526 C5525 1.524 . S
C5526 C5527 1.415 . S
C5527 H5497 0.950 . S
C5527 C5522 1.363 . S
C5527 C5526 1.415 . S
H5528 C5525 0.999 . S
H5529 C5510 0.913 . S
H5530 C5548 0.951 . S
H5531 C5550 0.951 . S
H5532 C5552 0.950 . S
H5533 C5553 0.950 . S
H5534 C5555 0.950 . S
H5535 C5558 0.950 . S
H5536 C5559 0.950 . S
H5537 C5561 0.950 . S
H5538 C5562 0.950 . S
H5539 C5563 0.951 . S
H5540 C5565 0.951 . S
H5541 C5567 0.950 . S
H5542 C5568 0.950 . S
H5543 C5570 0.950 . S
H5544 C5573 0.950 . S
H5545 C5574 0.950 . S
H5546 C5576 0.950 . S
H5547 C5577 0.950 . S
C5548 H5530 0.951 . S
C5548 C5549 1.366 . S
C5548 C5550 1.388 . S
C5549 C5548 1.366 . S
C5549 C5553 1.385 . S
C5550 H5531 0.951 . S
C5550 C5548 1.388 . S
C5550 C5551 1.366 . S
C5551 C5550 1.366 . S
C5551 C5552 1.414 . S
C5551 C5554 1.499 . S
C5552 H5532 0.950 . S
C5552 C5551 1.414 . S
C5552 C5553 1.374 . S
C5553 H5533 0.950 . S
C5553 C5549 1.385 . S
C5553 C5552 1.374 . S
C5554 C5551 1.499 . S
C5554 C5555 1.373 . S
C5554 C5556 1.389 . S
C5555 H5534 0.950 . S
C5555 C5554 1.373 . S
C5555 C5571 1.377 . S
C5556 C5554 1.389 . S
C5556 C5557 1.524 . S
C5556 C5570 1.377 . S
C5557 C5556 1.524 . S
C5557 C5558 1.397 . S
C5557 C5562 1.363 . S
C5558 H5535 0.950 . S
C5558 C5557 1.397 . S
C5558 C5559 1.334 . S
C5559 H5536 0.950 . S
C5559 C5558 1.334 . S
C5559 C5560 1.287 . S
C5560 C5559 1.287 . S
C5560 C5561 1.524 . S
C5560 H5579 0.913 . S
C5561 H5537 0.950 . S
C5561 C5560 1.524 . S
C5561 C5562 1.415 . S
C5562 H5538 0.950 . S
C5562 C5557 1.363 . S
C5562 C5561 1.415 . S
C5563 H5539 0.951 . S
C5563 C5564 1.366 . S
C5563 C5565 1.388 . S
C5564 C5563 1.366 . S
C5564 C5568 1.385 . S
C5565 H5540 0.951 . S
C5565 C5563 1.388 . S
C5565 C5566 1.366 . S
C5566 C5565 1.366 . S
C5566 C5567 1.414 . S
C5566 C5569 1.499 . S
C5567 H5541 0.950 . S
C5567 C5566 1.414 . S
C5567 C5568 1.374 . S
C5568 H5542 0.950 . S
C5568 C5564 1.385 . S
C5568 C5567 1.374 . S
C5569 C5566 1.499 . S
C5569 C5570 1.373 . S
C5569 C5571 1.389 . S
C5570 H5543 0.950 . S
C5570 C5556 1.377 . S
C5570 C5569 1.373 . S
C5571 C5555 1.377 . S
C5571 C5569 1.389 . S
C5571 C5572 1.524 . S
C5572 C5571 1.524 . S
C5572 C5573 1.397 . S
C5572 C5577 1.363 . S
C5573 H5544 0.950 . S
C5573 C5572 1.397 . S
C5573 C5574 1.334 . S
C5574 H5545 0.950 . S
C5574 C5573 1.334 . S
C5574 C5575 1.287 . S
C5575 C5574 1.287 . S
C5575 C5576 1.524 . S
C5575 H5578 0.999 . S
C5576 H5546 0.950 . S
C5576 C5575 1.524 . S
C5576 C5577 1.415 . S
C5577 H5547 0.950 . S
C5577 C5572 1.363 . S
C5577 C5576 1.415 . S
H5578 C5575 0.999 . S
H5579 C5560 0.913 . S
H5580 C5598 0.951 . S
H5581 C5600 0.951 . S
H5582 C5602 0.950 . S
H5583 C5603 0.950 . S
H5584 C5605 0.950 . S
H5585 C5608 0.950 . S
H5586 C5609 0.950 . S
H5587 C5611 0.950 . S
H5588 C5612 0.950 . S
H5589 C5613 0.951 . S
H5590 C5615 0.951 . S
H5591 C5617 0.950 . S
H5592 C5618 0.950 . S
H5593 C5620 0.950 . S
H5594 C5623 0.950 . S
H5595 C5624 0.950 1_655 S
H5596 C5626 0.950 . S
H5597 C5627 0.950 . S
C5598 H5580 0.951 . S
C5598 C5599 1.366 . S
C5598 C5600 1.388 . S
C5599 C5598 1.366 . S
C5599 C5603 1.385 . S
C5600 H5581 0.951 . S
C5600 C5598 1.388 . S
C5600 C5601 1.366 . S
C5601 C5600 1.366 . S
C5601 C5602 1.414 . S
C5601 C5604 1.499 . S
C5602 H5582 0.950 . S
C5602 C5601 1.414 . S
C5602 C5603 1.374 . S
C5603 H5583 0.950 . S
C5603 C5599 1.385 . S
C5603 C5602 1.374 . S
C5604 C5601 1.499 . S
C5604 C5605 1.373 . S
C5604 C5606 1.389 . S
C5605 H5584 0.950 . S
C5605 C5604 1.373 . S
C5605 C5621 1.377 . S
C5606 C5604 1.389 . S
C5606 C5607 1.524 . S
C5606 C5620 1.377 . S
C5607 C5606 1.524 . S
C5607 C5608 1.397 . S
C5607 C5612 1.363 . S
C5608 H5585 0.950 . S
C5608 C5607 1.397 . S
C5608 C5609 1.334 . S
C5609 H5586 0.950 . S
C5609 C5608 1.334 . S
C5609 C5610 1.287 . S
C5610 C5609 1.287 . S
C5610 C5611 1.524 . S
C5610 H5629 0.913 . S
C5611 H5587 0.950 . S
C5611 C5610 1.524 . S
C5611 C5612 1.415 . S
C5612 H5588 0.950 . S
C5612 C5607 1.363 . S
C5612 C5611 1.415 . S
C5613 H5589 0.951 . S
C5613 C5614 1.366 . S
C5613 C5615 1.388 . S
C5614 C5613 1.366 . S
C5614 C5618 1.385 . S
C5615 H5590 0.951 . S
C5615 C5613 1.388 . S
C5615 C5616 1.366 . S
C5616 C5615 1.366 . S
C5616 C5617 1.414 . S
C5616 C5619 1.499 . S
C5617 H5591 0.950 . S
C5617 C5616 1.414 . S
C5617 C5618 1.374 . S
C5618 H5592 0.950 . S
C5618 C5614 1.385 . S
C5618 C5617 1.374 . S
C5619 C5616 1.499 . S
C5619 C5620 1.373 . S
C5619 C5621 1.389 . S
C5620 H5593 0.950 . S
C5620 C5606 1.377 . S
C5620 C5619 1.373 . S
C5621 C5605 1.377 . S
C5621 C5619 1.389 . S
C5621 C5622 1.524 . S
C5622 C5621 1.524 . S
C5622 C5623 1.397 . S
C5622 C5627 1.363 . S
C5623 H5594 0.950 . S
C5623 C5622 1.397 . S
C5623 C5624 1.334 . S
C5624 H5595 0.950 1_455 S
C5624 C5623 1.334 . S
C5624 C5625 1.287 . S
C5625 C5624 1.287 . S
C5625 C5626 1.524 . S
C5625 H5628 0.999 . S
C5626 H5596 0.950 . S
C5626 C5625 1.524 . S
C5626 C5627 1.415 . S
C5627 H5597 0.950 . S
C5627 C5622 1.363 . S
C5627 C5626 1.415 . S
H5628 C5625 0.999 . S
H5629 C5610 0.913 . S
H5630 C5648 0.951 . S
H5631 C5650 0.951 . S
H5632 C5652 0.950 . S
H5633 C5653 0.950 . S
H5634 C5655 0.950 . S
H5635 C5658 0.950 . S
H5636 C5659 0.950 . S
H5637 C5661 0.950 . S
H5638 C5662 0.950 . S
H5639 C5663 0.951 . S
H5640 C5665 0.951 . S
H5641 C5667 0.950 . S
H5642 C5668 0.950 . S
H5643 C5670 0.950 . S
H5644 C5673 0.950 . S
H5645 C5674 0.950 . S
H5646 C5676 0.950 . S
H5647 C5677 0.950 . S
C5648 H5630 0.951 . S
C5648 C5649 1.366 . S
C5648 C5650 1.388 . S
C5649 C5648 1.366 . S
C5649 C5653 1.385 . S
C5650 H5631 0.951 . S
C5650 C5648 1.388 . S
C5650 C5651 1.366 . S
C5651 C5650 1.366 . S
C5651 C5652 1.414 . S
C5651 C5654 1.499 . S
C5652 H5632 0.950 . S
C5652 C5651 1.414 . S
C5652 C5653 1.374 . S
C5653 H5633 0.950 . S
C5653 C5649 1.385 . S
C5653 C5652 1.374 . S
C5654 C5651 1.499 . S
C5654 C5655 1.373 . S
C5654 C5656 1.389 . S
C5655 H5634 0.950 . S
C5655 C5654 1.373 . S
C5655 C5671 1.377 . S
C5656 C5654 1.389 . S
C5656 C5657 1.524 . S
C5656 C5670 1.377 . S
C5657 C5656 1.524 . S
C5657 C5658 1.397 . S
C5657 C5662 1.363 . S
C5658 H5635 0.950 . S
C5658 C5657 1.397 . S
C5658 C5659 1.334 . S
C5659 H5636 0.950 . S
C5659 C5658 1.334 . S
C5659 C5660 1.287 . S
C5660 C5659 1.287 . S
C5660 C5661 1.524 . S
C5660 H5679 0.913 . S
C5661 H5637 0.950 . S
C5661 C5660 1.524 . S
C5661 C5662 1.415 . S
C5662 H5638 0.950 . S
C5662 C5657 1.363 . S
C5662 C5661 1.415 . S
C5663 H5639 0.951 . S
C5663 C5664 1.366 . S
C5663 C5665 1.388 . S
C5664 C5663 1.366 . S
C5664 C5668 1.385 . S
C5665 H5640 0.951 . S
C5665 C5663 1.388 . S
C5665 C5666 1.366 . S
C5666 C5665 1.366 . S
C5666 C5667 1.414 . S
C5666 C5669 1.499 . S
C5667 H5641 0.950 . S
C5667 C5666 1.414 . S
C5667 C5668 1.374 . S
C5668 H5642 0.950 . S
C5668 C5664 1.385 . S
C5668 C5667 1.374 . S
C5669 C5666 1.499 . S
C5669 C5670 1.373 . S
C5669 C5671 1.389 . S
C5670 H5643 0.950 . S
C5670 C5656 1.377 . S
C5670 C5669 1.373 . S
C5671 C5655 1.377 . S
C5671 C5669 1.389 . S
C5671 C5672 1.524 . S
C5672 C5671 1.524 . S
C5672 C5673 1.397 . S
C5672 C5677 1.363 . S
C5673 H5644 0.950 . S
C5673 C5672 1.397 . S
C5673 C5674 1.334 . S
C5674 H5645 0.950 . S
C5674 C5673 1.334 . S
C5674 C5675 1.287 . S
C5675 C5674 1.287 . S
C5675 C5676 1.524 . S
C5675 H5678 0.999 . S
C5676 H5646 0.950 . S
C5676 C5675 1.524 . S
C5676 C5677 1.415 . S
C5677 H5647 0.950 . S
C5677 C5672 1.363 . S
C5677 C5676 1.415 . S
H5678 C5675 0.999 . S
H5679 C5660 0.913 . S
H5680 C5698 0.951 . S
H5681 C5700 0.951 . S
H5682 C5702 0.950 . S
H5683 C5703 0.950 . S
H5684 C5705 0.950 . S
H5685 C5708 0.950 . S
H5686 C5709 0.950 . S
H5687 C5711 0.950 . S
H5688 C5712 0.950 . S
H5689 C5713 0.951 . S
H5690 C5715 0.951 . S
H5691 C5717 0.950 . S
H5692 C5718 0.950 . S
H5693 C5720 0.950 . S
H5694 C5723 0.950 . S
H5695 C5724 0.950 . S
H5696 C5726 0.950 . S
H5697 C5727 0.950 . S
C5698 H5680 0.951 . S
C5698 C5699 1.366 . S
C5698 C5700 1.388 . S
C5699 C5698 1.366 . S
C5699 C5703 1.385 . S
C5700 H5681 0.951 . S
C5700 C5698 1.388 . S
C5700 C5701 1.366 . S
C5701 C5700 1.366 . S
C5701 C5702 1.414 . S
C5701 C5704 1.499 . S
C5702 H5682 0.950 . S
C5702 C5701 1.414 . S
C5702 C5703 1.374 . S
C5703 H5683 0.950 . S
C5703 C5699 1.385 . S
C5703 C5702 1.374 . S
C5704 C5701 1.499 . S
C5704 C5705 1.373 . S
C5704 C5706 1.389 . S
C5705 H5684 0.950 . S
C5705 C5704 1.373 . S
C5705 C5721 1.377 . S
C5706 C5704 1.389 . S
C5706 C5707 1.524 . S
C5706 C5720 1.377 . S
C5707 C5706 1.524 . S
C5707 C5708 1.397 . S
C5707 C5712 1.363 . S
C5708 H5685 0.950 . S
C5708 C5707 1.397 . S
C5708 C5709 1.334 . S
C5709 H5686 0.950 . S
C5709 C5708 1.334 . S
C5709 C5710 1.287 . S
C5710 C5709 1.287 . S
C5710 C5711 1.524 . S
C5710 H5729 0.913 . S
C5711 H5687 0.950 . S
C5711 C5710 1.524 . S
C5711 C5712 1.415 . S
C5712 H5688 0.950 . S
C5712 C5707 1.363 . S
C5712 C5711 1.415 . S
C5713 H5689 0.951 . S
C5713 C5714 1.366 . S
C5713 C5715 1.388 . S
C5714 C5713 1.366 . S
C5714 C5718 1.385 . S
C5715 H5690 0.951 . S
C5715 C5713 1.388 . S
C5715 C5716 1.366 . S
C5716 C5715 1.366 . S
C5716 C5717 1.414 . S
C5716 C5719 1.499 . S
C5717 H5691 0.950 . S
C5717 C5716 1.414 . S
C5717 C5718 1.374 . S
C5718 H5692 0.950 . S
C5718 C5714 1.385 . S
C5718 C5717 1.374 . S
C5719 C5716 1.499 . S
C5719 C5720 1.373 . S
C5719 C5721 1.389 . S
C5720 H5693 0.950 . S
C5720 C5706 1.377 . S
C5720 C5719 1.373 . S
C5721 C5705 1.377 . S
C5721 C5719 1.389 . S
C5721 C5722 1.524 . S
C5722 C5721 1.524 . S
C5722 C5723 1.397 . S
C5722 C5727 1.363 . S
C5723 H5694 0.950 . S
C5723 C5722 1.397 . S
C5723 C5724 1.334 . S
C5724 H5695 0.950 . S
C5724 C5723 1.334 . S
C5724 C5725 1.287 . S
C5725 C5724 1.287 . S
C5725 C5726 1.524 . S
C5725 H5728 0.999 . S
C5726 H5696 0.950 . S
C5726 C5725 1.524 . S
C5726 C5727 1.415 . S
C5727 H5697 0.950 . S
C5727 C5722 1.363 . S
C5727 C5726 1.415 . S
H5728 C5725 0.999 . S
H5729 C5710 0.913 . S
H5730 C5748 0.951 . S
H5731 C5750 0.951 . S
H5732 C5752 0.950 . S
H5733 C5753 0.950 . S
H5734 C5755 0.950 . S
H5735 C5758 0.950 . S
H5736 C5759 0.950 . S
H5737 C5761 0.950 . S
H5738 C5762 0.950 . S
H5739 C5763 0.951 . S
H5740 C5765 0.951 . S
H5741 C5767 0.950 . S
H5742 C5768 0.950 . S
H5743 C5770 0.950 . S
H5744 C5773 0.950 . S
H5745 C5774 0.950 . S
H5746 C5776 0.950 . S
H5747 C5777 0.950 . S
C5748 H5730 0.951 . S
C5748 C5749 1.366 . S
C5748 C5750 1.388 . S
C5749 C5748 1.366 . S
C5749 C5753 1.385 . S
C5750 H5731 0.951 . S
C5750 C5748 1.388 . S
C5750 C5751 1.366 . S
C5751 C5750 1.366 . S
C5751 C5752 1.414 . S
C5751 C5754 1.499 . S
C5752 H5732 0.950 . S
C5752 C5751 1.414 . S
C5752 C5753 1.374 . S
C5753 H5733 0.950 . S
C5753 C5749 1.385 . S
C5753 C5752 1.374 . S
C5754 C5751 1.499 . S
C5754 C5755 1.373 . S
C5754 C5756 1.389 . S
C5755 H5734 0.950 . S
C5755 C5754 1.373 . S
C5755 C5771 1.377 . S
C5756 C5754 1.389 . S
C5756 C5757 1.524 . S
C5756 C5770 1.377 . S
C5757 C5756 1.524 . S
C5757 C5758 1.397 . S
C5757 C5762 1.363 . S
C5758 H5735 0.950 . S
C5758 C5757 1.397 . S
C5758 C5759 1.334 . S
C5759 H5736 0.950 . S
C5759 C5758 1.334 . S
C5759 C5760 1.287 . S
C5760 C5759 1.287 . S
C5760 C5761 1.524 . S
C5760 H5779 0.913 . S
C5761 H5737 0.950 . S
C5761 C5760 1.524 . S
C5761 C5762 1.415 . S
C5762 H5738 0.950 . S
C5762 C5757 1.363 . S
C5762 C5761 1.415 . S
C5763 H5739 0.951 . S
C5763 C5764 1.366 . S
C5763 C5765 1.388 . S
C5764 C5763 1.366 . S
C5764 C5768 1.385 . S
C5765 H5740 0.951 . S
C5765 C5763 1.388 . S
C5765 C5766 1.366 . S
C5766 C5765 1.366 . S
C5766 C5767 1.414 . S
C5766 C5769 1.499 . S
C5767 H5741 0.950 . S
C5767 C5766 1.414 . S
C5767 C5768 1.374 . S
C5768 H5742 0.950 . S
C5768 C5764 1.385 . S
C5768 C5767 1.374 . S
C5769 C5766 1.499 . S
C5769 C5770 1.373 . S
C5769 C5771 1.389 . S
C5770 H5743 0.950 . S
C5770 C5756 1.377 . S
C5770 C5769 1.373 . S
C5771 C5755 1.377 . S
C5771 C5769 1.389 . S
C5771 C5772 1.524 . S
C5772 C5771 1.524 . S
C5772 C5773 1.397 . S
C5772 C5777 1.363 . S
C5773 H5744 0.950 . S
C5773 C5772 1.397 . S
C5773 C5774 1.334 . S
C5774 H5745 0.950 . S
C5774 C5773 1.334 . S
C5774 C5775 1.287 . S
C5775 C5774 1.287 . S
C5775 C5776 1.524 . S
C5775 H5778 0.999 . S
C5776 H5746 0.950 . S
C5776 C5775 1.524 . S
C5776 C5777 1.415 . S
C5777 H5747 0.950 . S
C5777 C5772 1.363 . S
C5777 C5776 1.415 . S
H5778 C5775 0.999 . S
H5779 C5760 0.913 . S
H5780 C5798 0.951 . S
H5781 C5800 0.951 . S
H5782 C5802 0.950 . S
H5783 C5803 0.950 . S
H5784 C5805 0.950 . S
H5785 C5808 0.950 . S
H5786 C5809 0.950 . S
H5787 C5811 0.950 . S
H5788 C5812 0.950 . S
H5789 C5813 0.976 . S
H5790 C5815 0.951 . S
H5791 C5817 0.950 . S
H5792 C5818 0.950 . S
H5793 C5820 0.950 . S
H5794 C5823 0.950 . S
H5795 C5824 0.950 . S
H5796 C5826 0.950 . S
H5797 C5827 0.950 . S
C5798 H5780 0.951 . S
C5798 C5799 1.366 . S
C5798 C5800 1.388 . S
C5799 C5798 1.366 . S
C5799 C5803 1.385 . S
C5800 H5781 0.951 . S
C5800 C5798 1.388 . S
C5800 C5801 1.366 . S
C5801 C5800 1.366 . S
C5801 C5802 1.414 . S
C5801 C5804 1.499 . S
C5802 H5782 0.950 . S
C5802 C5801 1.414 . S
C5802 C5803 1.374 . S
C5803 H5783 0.950 . S
C5803 C5799 1.385 . S
C5803 C5802 1.374 . S
C5804 C5801 1.499 . S
C5804 C5805 1.373 . S
C5804 C5806 1.389 . S
C5805 H5784 0.950 . S
C5805 C5804 1.373 . S
C5805 C5821 1.377 . S
C5806 C5804 1.389 . S
C5806 C5807 1.524 . S
C5806 C5820 1.377 . S
C5807 C5806 1.524 . S
C5807 C5808 1.397 . S
C5807 C5812 1.363 . S
C5808 H5785 0.950 . S
C5808 C5807 1.397 . S
C5808 C5809 1.334 . S
C5809 H5786 0.950 . S
C5809 C5808 1.334 . S
C5809 C5810 1.287 . S
C5810 C5809 1.287 . S
C5810 C5811 1.524 . S
C5810 H5829 0.913 . S
C5811 H5787 0.950 . S
C5811 C5810 1.524 . S
C5811 C5812 1.415 . S
C5812 H5788 0.950 . S
C5812 C5807 1.363 . S
C5812 C5811 1.415 . S
C5813 H5789 0.976 . S
C5813 C5814 1.356 1_455 S
C5813 C5815 1.373 1_455 S
C5814 C5813 1.356 1_655 S
C5814 C5818 1.385 . S
C5815 H5790 0.951 . S
C5815 C5813 1.373 1_655 S
C5815 C5816 1.366 . S
C5816 C5815 1.366 . S
C5816 C5817 1.414 . S
C5816 C5819 1.499 . S
C5817 H5791 0.950 . S
C5817 C5816 1.414 . S
C5817 C5818 1.374 . S
C5818 H5792 0.950 . S
C5818 C5814 1.385 . S
C5818 C5817 1.374 . S
C5819 C5816 1.499 . S
C5819 C5820 1.373 . S
C5819 C5821 1.389 . S
C5820 H5793 0.950 . S
C5820 C5806 1.377 . S
C5820 C5819 1.373 . S
C5821 C5805 1.377 . S
C5821 C5819 1.389 . S
C5821 C5822 1.524 . S
C5822 C5821 1.524 . S
C5822 C5823 1.397 . S
C5822 C5827 1.363 . S
C5823 H5794 0.950 . S
C5823 C5822 1.397 . S
C5823 C5824 1.334 . S
C5824 H5795 0.950 . S
C5824 C5823 1.334 . S
C5824 C5825 1.287 . S
C5825 C5824 1.287 . S
C5825 C5826 1.524 . S
C5825 H5828 0.999 . S
C5826 H5796 0.950 . S
C5826 C5825 1.524 . S
C5826 C5827 1.415 . S
C5827 H5797 0.950 . S
C5827 C5822 1.363 . S
C5827 C5826 1.415 . S
H5828 C5825 0.999 . S
H5829 C5810 0.913 . S
H5830 C5848 0.951 . S
H5831 C5850 0.951 . S
H5832 C5852 0.950 . S
H5833 C5853 0.950 . S
H5834 C5855 0.950 . S
H5835 C5858 0.950 . S
H5836 C5859 0.950 . S
H5837 C5861 0.950 . S
H5838 C5862 0.950 . S
H5839 C5863 0.951 . S
H5840 C5865 0.951 . S
H5841 C5867 0.950 . S
H5842 C5868 0.950 . S
H5843 C5870 0.950 . S
H5844 C5873 0.950 . S
H5845 C5874 0.950 . S
H5846 C5876 0.950 . S
H5847 C5877 0.950 . S
C5848 H5830 0.951 . S
C5848 C5849 1.366 . S
C5848 C5850 1.388 . S
C5849 C5848 1.366 . S
C5849 C5853 1.385 . S
C5850 H5831 0.951 . S
C5850 C5848 1.388 . S
C5850 C5851 1.366 . S
C5851 C5850 1.366 . S
C5851 C5852 1.414 . S
C5851 C5854 1.499 . S
C5852 H5832 0.950 . S
C5852 C5851 1.414 . S
C5852 C5853 1.374 . S
C5853 H5833 0.950 . S
C5853 C5849 1.385 . S
C5853 C5852 1.374 . S
C5854 C5851 1.499 . S
C5854 C5855 1.373 . S
C5854 C5856 1.389 . S
C5855 H5834 0.950 . S
C5855 C5854 1.373 . S
C5855 C5871 1.377 . S
C5856 C5854 1.389 . S
C5856 C5857 1.524 . S
C5856 C5870 1.377 . S
C5857 C5856 1.524 . S
C5857 C5858 1.397 . S
C5857 C5862 1.363 . S
C5858 H5835 0.950 . S
C5858 C5857 1.397 . S
C5858 C5859 1.334 . S
C5859 H5836 0.950 . S
C5859 C5858 1.334 . S
C5859 C5860 1.287 . S
C5860 C5859 1.287 . S
C5860 C5861 1.524 . S
C5860 H5879 0.913 . S
C5861 H5837 0.950 . S
C5861 C5860 1.524 . S
C5861 C5862 1.415 . S
C5862 H5838 0.950 . S
C5862 C5857 1.363 . S
C5862 C5861 1.415 . S
C5863 H5839 0.951 . S
C5863 C5864 1.366 . S
C5863 C5865 1.388 . S
C5864 C5863 1.366 . S
C5864 C5868 1.385 . S
C5865 H5840 0.951 . S
C5865 C5863 1.388 . S
C5865 C5866 1.366 . S
C5866 C5865 1.366 . S
C5866 C5867 1.414 . S
C5866 C5869 1.499 . S
C5867 H5841 0.950 . S
C5867 C5866 1.414 . S
C5867 C5868 1.374 . S
C5868 H5842 0.950 . S
C5868 C5864 1.385 . S
C5868 C5867 1.374 . S
C5869 C5866 1.499 . S
C5869 C5870 1.373 . S
C5869 C5871 1.389 . S
C5870 H5843 0.950 . S
C5870 C5856 1.377 . S
C5870 C5869 1.373 . S
C5871 C5855 1.377 . S
C5871 C5869 1.389 . S
C5871 C5872 1.524 . S
C5872 C5871 1.524 . S
C5872 C5873 1.397 . S
C5872 C5877 1.363 . S
C5873 H5844 0.950 . S
C5873 C5872 1.397 . S
C5873 C5874 1.334 . S
C5874 H5845 0.950 . S
C5874 C5873 1.334 . S
C5874 C5875 1.287 . S
C5875 C5874 1.287 . S
C5875 C5876 1.524 . S
C5875 H5878 0.999 . S
C5876 H5846 0.950 . S
C5876 C5875 1.524 . S
C5876 C5877 1.415 . S
C5877 H5847 0.950 . S
C5877 C5872 1.363 . S
C5877 C5876 1.415 . S
H5878 C5875 0.999 . S
H5879 C5860 0.913 . S
H5880 C5898 0.951 . S
H5881 C5900 0.951 . S
H5882 C5902 0.950 . S
H5883 C5903 0.950 . S
H5884 C5905 0.950 . S
H5885 C5908 0.950 . S
H5886 C5909 0.950 . S
H5887 C5911 0.950 . S
H5888 C5912 0.950 . S
H5889 C5913 0.951 . S
H5890 C5915 0.951 . S
H5891 C5917 0.950 . S
H5892 C5918 0.950 . S
H5893 C5920 0.950 . S
H5894 C5923 0.950 . S
H5895 C5924 0.950 . S
H5896 C5926 0.950 . S
H5897 C5927 0.950 . S
C5898 H5880 0.951 . S
C5898 C5899 1.366 . S
C5898 C5900 1.388 . S
C5899 C5898 1.366 . S
C5899 C5903 1.385 . S
C5900 H5881 0.951 . S
C5900 C5898 1.388 . S
C5900 C5901 1.366 . S
C5901 C5900 1.366 . S
C5901 C5902 1.414 . S
C5901 C5904 1.499 . S
C5902 H5882 0.950 . S
C5902 C5901 1.414 . S
C5902 C5903 1.374 . S
C5903 H5883 0.950 . S
C5903 C5899 1.385 . S
C5903 C5902 1.374 . S
C5904 C5901 1.499 . S
C5904 C5905 1.373 . S
C5904 C5906 1.389 . S
C5905 H5884 0.950 . S
C5905 C5904 1.373 . S
C5905 C5921 1.377 . S
C5906 C5904 1.389 . S
C5906 C5907 1.524 . S
C5906 C5920 1.377 . S
C5907 C5906 1.524 . S
C5907 C5908 1.397 . S
C5907 C5912 1.363 . S
C5908 H5885 0.950 . S
C5908 C5907 1.397 . S
C5908 C5909 1.334 . S
C5909 H5886 0.950 . S
C5909 C5908 1.334 . S
C5909 C5910 1.287 . S
C5910 C5909 1.287 . S
C5910 C5911 1.524 . S
C5910 H5929 0.913 . S
C5911 H5887 0.950 . S
C5911 C5910 1.524 . S
C5911 C5912 1.415 . S
C5912 H5888 0.950 . S
C5912 C5907 1.363 . S
C5912 C5911 1.415 . S
C5913 H5889 0.951 . S
C5913 C5914 1.366 . S
C5913 C5915 1.388 . S
C5914 C5913 1.366 . S
C5914 C5918 1.385 . S
C5915 H5890 0.951 . S
C5915 C5913 1.388 . S
C5915 C5916 1.366 . S
C5916 C5915 1.366 . S
C5916 C5917 1.414 . S
C5916 C5919 1.499 . S
C5917 H5891 0.950 . S
C5917 C5916 1.414 . S
C5917 C5918 1.374 . S
C5918 H5892 0.950 . S
C5918 C5914 1.385 . S
C5918 C5917 1.374 . S
C5919 C5916 1.499 . S
C5919 C5920 1.373 . S
C5919 C5921 1.389 . S
C5920 H5893 0.950 . S
C5920 C5906 1.377 . S
C5920 C5919 1.373 . S
C5921 C5905 1.377 . S
C5921 C5919 1.389 . S
C5921 C5922 1.524 . S
C5922 C5921 1.524 . S
C5922 C5923 1.397 . S
C5922 C5927 1.363 . S
C5923 H5894 0.950 . S
C5923 C5922 1.397 . S
C5923 C5924 1.334 . S
C5924 H5895 0.950 . S
C5924 C5923 1.334 . S
C5924 C5925 1.287 . S
C5925 C5924 1.287 . S
C5925 C5926 1.524 . S
C5925 H5928 0.999 . S
C5926 H5896 0.950 . S
C5926 C5925 1.524 . S
C5926 C5927 1.415 . S
C5927 H5897 0.950 . S
C5927 C5922 1.363 . S
C5927 C5926 1.415 . S
H5928 C5925 0.999 . S
H5929 C5910 0.913 . S
H5930 C5948 0.951 . S
H5931 C5950 0.951 . S
H5932 C5952 0.950 . S
H5933 C5953 0.950 . S
H5934 C5955 0.950 . S
H5935 C5958 0.950 . S
H5936 C5959 0.950 . S
H5937 C5961 0.950 . S
H5938 C5962 0.950 . S
H5939 C5963 0.951 . S
H5940 C5965 0.951 . S
H5941 C5967 0.950 . S
H5942 C5968 0.950 . S
H5943 C5970 0.950 . S
H5944 C5973 0.950 . S
H5945 C5974 0.950 . S
H5946 C5976 0.950 . S
H5947 C5977 0.950 . S
C5948 H5930 0.951 . S
C5948 C5949 1.366 . S
C5948 C5950 1.388 . S
C5949 C5948 1.366 . S
C5949 C5953 1.385 . S
C5950 H5931 0.951 . S
C5950 C5948 1.388 . S
C5950 C5951 1.366 . S
C5951 C5950 1.366 . S
C5951 C5952 1.414 . S
C5951 C5954 1.499 . S
C5952 H5932 0.950 . S
C5952 C5951 1.414 . S
C5952 C5953 1.374 . S
C5953 H5933 0.950 . S
C5953 C5949 1.385 . S
C5953 C5952 1.374 . S
C5954 C5951 1.499 . S
C5954 C5955 1.373 . S
C5954 C5956 1.389 . S
C5955 H5934 0.950 . S
C5955 C5954 1.373 . S
C5955 C5971 1.377 . S
C5956 C5954 1.389 . S
C5956 C5957 1.524 . S
C5956 C5970 1.377 . S
C5957 C5956 1.524 . S
C5957 C5958 1.397 . S
C5957 C5962 1.363 . S
C5958 H5935 0.950 . S
C5958 C5957 1.397 . S
C5958 C5959 1.334 . S
C5959 H5936 0.950 . S
C5959 C5958 1.334 . S
C5959 C5960 1.287 . S
C5960 C5959 1.287 . S
C5960 C5961 1.524 . S
C5960 H5979 0.913 . S
C5961 H5937 0.950 . S
C5961 C5960 1.524 . S
C5961 C5962 1.415 . S
C5962 H5938 0.950 . S
C5962 C5957 1.363 . S
C5962 C5961 1.415 . S
C5963 H5939 0.951 . S
C5963 C5964 1.366 . S
C5963 C5965 1.388 . S
C5964 C5963 1.366 . S
C5964 C5968 1.385 . S
C5965 H5940 0.951 . S
C5965 C5963 1.388 . S
C5965 C5966 1.366 . S
C5966 C5965 1.366 . S
C5966 C5967 1.414 . S
C5966 C5969 1.499 . S
C5967 H5941 0.950 . S
C5967 C5966 1.414 . S
C5967 C5968 1.374 . S
C5968 H5942 0.950 . S
C5968 C5964 1.385 . S
C5968 C5967 1.374 . S
C5969 C5966 1.499 . S
C5969 C5970 1.373 . S
C5969 C5971 1.389 . S
C5970 H5943 0.950 . S
C5970 C5956 1.377 . S
C5970 C5969 1.373 . S
C5971 C5955 1.377 . S
C5971 C5969 1.389 . S
C5971 C5972 1.524 . S
C5972 C5971 1.524 . S
C5972 C5973 1.397 . S
C5972 C5977 1.363 . S
C5973 H5944 0.950 . S
C5973 C5972 1.397 . S
C5973 C5974 1.334 . S
C5974 H5945 0.950 . S
C5974 C5973 1.334 . S
C5974 C5975 1.287 . S
C5975 C5974 1.287 . S
C5975 C5976 1.524 . S
C5975 H5978 0.999 . S
C5976 H5946 0.950 . S
C5976 C5975 1.524 . S
C5976 C5977 1.415 . S
C5977 H5947 0.950 . S
C5977 C5972 1.363 . S
C5977 C5976 1.415 . S
H5978 C5975 0.999 . S
H5979 C5960 0.913 . S
H5980 C5998 0.951 . S
H5981 C6000 0.951 . S
H5982 C6002 0.950 . S
H5983 C6003 0.950 . S
H5984 C6005 0.950 . S
H5985 C6008 0.950 . S
H5986 C6009 0.950 . S
H5987 C6011 0.950 . S
H5988 C6012 0.950 . S
H5989 C6013 0.951 . S
H5990 C6015 0.951 . S
H5991 C6017 0.950 . S
H5992 C6018 0.950 . S
H5993 C6020 0.950 . S
H5994 C6023 0.950 . S
H5995 C6024 0.950 . S
H5996 C6026 0.937 1_455 S
H5997 C6027 0.950 . S
C5998 H5980 0.951 . S
C5998 C5999 1.366 . S
C5998 C6000 1.388 . S
C5999 C5998 1.366 . S
C5999 C6003 1.385 . S
C6000 H5981 0.951 . S
C6000 C5998 1.388 . S
C6000 C6001 1.366 . S
C6001 C6000 1.366 . S
C6001 C6002 1.414 . S
C6001 C6004 1.499 . S
C6002 H5982 0.950 . S
C6002 C6001 1.414 . S
C6002 C6003 1.374 . S
C6003 H5983 0.950 . S
C6003 C5999 1.385 . S
C6003 C6002 1.374 . S
C6004 C6001 1.499 . S
C6004 C6005 1.373 . S
C6004 C6006 1.389 . S
C6005 H5984 0.950 . S
C6005 C6004 1.373 . S
C6005 C6021 1.377 . S
C6006 C6004 1.389 . S
C6006 C6007 1.524 . S
C6006 C6020 1.377 . S
C6007 C6006 1.524 . S
C6007 C6008 1.397 . S
C6007 C6012 1.363 . S
C6008 H5985 0.950 . S
C6008 C6007 1.397 . S
C6008 C6009 1.334 . S
C6009 H5986 0.950 . S
C6009 C6008 1.334 . S
C6009 C6010 1.287 . S
C6010 C6009 1.287 . S
C6010 C6011 1.524 . S
C6010 H6029 0.913 . S
C6011 H5987 0.950 . S
C6011 C6010 1.524 . S
C6011 C6012 1.415 . S
C6012 H5988 0.950 . S
C6012 C6007 1.363 . S
C6012 C6011 1.415 . S
C6013 H5989 0.951 . S
C6013 C6014 1.366 . S
C6013 C6015 1.388 . S
C6014 C6013 1.366 . S
C6014 C6018 1.385 . S
C6015 H5990 0.951 . S
C6015 C6013 1.388 . S
C6015 C6016 1.366 . S
C6016 C6015 1.366 . S
C6016 C6017 1.414 . S
C6016 C6019 1.499 . S
C6017 H5991 0.950 . S
C6017 C6016 1.414 . S
C6017 C6018 1.374 . S
C6018 H5992 0.950 . S
C6018 C6014 1.385 . S
C6018 C6017 1.374 . S
C6019 C6016 1.499 . S
C6019 C6020 1.373 . S
C6019 C6021 1.389 . S
C6020 H5993 0.950 . S
C6020 C6006 1.377 . S
C6020 C6019 1.373 . S
C6021 C6005 1.377 . S
C6021 C6019 1.389 . S
C6021 C6022 1.524 . S
C6022 C6021 1.524 . S
C6022 C6023 1.397 . S
C6022 C6027 1.363 . S
C6023 H5994 0.950 . S
C6023 C6022 1.397 . S
C6023 C6024 1.334 . S
C6024 H5995 0.950 . S
C6024 C6023 1.334 . S
C6024 C6025 1.287 . S
C6025 C6024 1.287 . S
C6025 C6026 1.524 . S
C6025 H6028 0.999 . S
C6026 H5996 0.937 1_655 S
C6026 C6025 1.524 . S
C6026 C6027 1.415 . S
C6027 H5997 0.950 . S
C6027 C6022 1.363 . S
C6027 C6026 1.415 . S
H6028 C6025 0.999 . S
H6029 C6010 0.913 . S
H6030 C6048 0.951 . S
H6031 C6050 0.951 . S
H6032 C6052 0.950 . S
H6033 C6053 0.950 . S
H6034 C6055 0.950 . S
H6035 C6058 0.950 . S
H6036 C6059 0.950 . S
H6037 C6061 0.950 . S
H6038 C6062 0.950 . S
H6039 C6063 0.951 . S
H6040 C6065 0.951 . S
H6041 C6067 0.950 . S
H6042 C6068 0.950 . S
H6043 C6070 0.950 . S
H6044 C6073 0.950 . S
H6045 C6074 0.950 . S
H6046 C6076 0.950 . S
H6047 C6077 0.950 . S
C6048 H6030 0.951 . S
C6048 C6049 1.366 . S
C6048 C6050 1.388 . S
C6049 C6048 1.366 . S
C6049 C6053 1.385 . S
C6050 H6031 0.951 . S
C6050 C6048 1.388 . S
C6050 C6051 1.366 . S
C6051 C6050 1.366 . S
C6051 C6052 1.414 . S
C6051 C6054 1.499 . S
C6052 H6032 0.950 . S
C6052 C6051 1.414 . S
C6052 C6053 1.374 . S
C6053 H6033 0.950 . S
C6053 C6049 1.385 . S
C6053 C6052 1.374 . S
C6054 C6051 1.499 . S
C6054 C6055 1.373 . S
C6054 C6056 1.389 . S
C6055 H6034 0.950 . S
C6055 C6054 1.373 . S
C6055 C6071 1.377 . S
C6056 C6054 1.389 . S
C6056 C6057 1.524 . S
C6056 C6070 1.377 . S
C6057 C6056 1.524 . S
C6057 C6058 1.397 . S
C6057 C6062 1.363 . S
C6058 H6035 0.950 . S
C6058 C6057 1.397 . S
C6058 C6059 1.334 . S
C6059 H6036 0.950 . S
C6059 C6058 1.334 . S
C6059 C6060 1.287 . S
C6060 C6059 1.287 . S
C6060 C6061 1.524 . S
C6060 H6079 0.913 . S
C6061 H6037 0.950 . S
C6061 C6060 1.524 . S
C6061 C6062 1.415 . S
C6062 H6038 0.950 . S
C6062 C6057 1.363 . S
C6062 C6061 1.415 . S
C6063 H6039 0.951 . S
C6063 C6064 1.366 . S
C6063 C6065 1.388 . S
C6064 C6063 1.366 . S
C6064 C6068 1.385 . S
C6065 H6040 0.951 . S
C6065 C6063 1.388 . S
C6065 C6066 1.366 . S
C6066 C6065 1.366 . S
C6066 C6067 1.414 . S
C6066 C6069 1.499 . S
C6067 H6041 0.950 . S
C6067 C6066 1.414 . S
C6067 C6068 1.374 . S
C6068 H6042 0.950 . S
C6068 C6064 1.385 . S
C6068 C6067 1.374 . S
C6069 C6066 1.499 . S
C6069 C6070 1.373 . S
C6069 C6071 1.389 . S
C6070 H6043 0.950 . S
C6070 C6056 1.377 . S
C6070 C6069 1.373 . S
C6071 C6055 1.377 . S
C6071 C6069 1.389 . S
C6071 C6072 1.524 . S
C6072 C6071 1.524 . S
C6072 C6073 1.397 . S
C6072 C6077 1.363 . S
C6073 H6044 0.950 . S
C6073 C6072 1.397 . S
C6073 C6074 1.334 . S
C6074 H6045 0.950 . S
C6074 C6073 1.334 . S
C6074 C6075 1.287 . S
C6075 C6074 1.287 . S
C6075 C6076 1.524 . S
C6075 H6078 0.999 . S
C6076 H6046 0.950 . S
C6076 C6075 1.524 . S
C6076 C6077 1.415 . S
C6077 H6047 0.950 . S
C6077 C6072 1.363 . S
C6077 C6076 1.415 . S
H6078 C6075 0.999 . S
H6079 C6060 0.913 . S
H6080 C6098 0.951 . S
H6081 C6100 0.951 . S
H6082 C6102 0.950 . S
H6083 C6103 0.950 . S
H6084 C6105 0.950 . S
H6085 C6108 0.950 . S
H6086 C6109 0.950 . S
H6087 C6111 0.950 . S
H6088 C6112 0.950 . S
H6089 C6113 0.951 . S
H6090 C6115 0.951 . S
H6091 C6117 0.950 . S
H6092 C6118 0.950 . S
H6093 C6120 0.950 . S
H6094 C6123 0.950 . S
H6095 C6124 0.950 . S
H6096 C6126 0.950 . S
H6097 C6127 0.950 . S
C6098 H6080 0.951 . S
C6098 C6099 1.366 . S
C6098 C6100 1.388 . S
C6099 C6098 1.366 . S
C6099 C6103 1.385 . S
C6100 H6081 0.951 . S
C6100 C6098 1.388 . S
C6100 C6101 1.366 . S
C6101 C6100 1.366 . S
C6101 C6102 1.414 . S
C6101 C6104 1.499 . S
C6102 H6082 0.950 . S
C6102 C6101 1.414 . S
C6102 C6103 1.374 . S
C6103 H6083 0.950 . S
C6103 C6099 1.385 . S
C6103 C6102 1.374 . S
C6104 C6101 1.499 . S
C6104 C6105 1.373 . S
C6104 C6106 1.389 . S
C6105 H6084 0.950 . S
C6105 C6104 1.373 . S
C6105 C6121 1.377 . S
C6106 C6104 1.389 . S
C6106 C6107 1.524 . S
C6106 C6120 1.377 . S
C6107 C6106 1.524 . S
C6107 C6108 1.397 . S
C6107 C6112 1.363 . S
C6108 H6085 0.950 . S
C6108 C6107 1.397 . S
C6108 C6109 1.334 . S
C6109 H6086 0.950 . S
C6109 C6108 1.334 . S
C6109 C6110 1.287 . S
C6110 C6109 1.287 . S
C6110 C6111 1.524 . S
C6110 H6129 0.913 . S
C6111 H6087 0.950 . S
C6111 C6110 1.524 . S
C6111 C6112 1.415 . S
C6112 H6088 0.950 . S
C6112 C6107 1.363 . S
C6112 C6111 1.415 . S
C6113 H6089 0.951 . S
C6113 C6114 1.366 . S
C6113 C6115 1.388 . S
C6114 C6113 1.366 . S
C6114 C6118 1.385 . S
C6115 H6090 0.951 . S
C6115 C6113 1.388 . S
C6115 C6116 1.366 . S
C6116 C6115 1.366 . S
C6116 C6117 1.414 . S
C6116 C6119 1.499 . S
C6117 H6091 0.950 . S
C6117 C6116 1.414 . S
C6117 C6118 1.374 . S
C6118 H6092 0.950 . S
C6118 C6114 1.385 . S
C6118 C6117 1.374 . S
C6119 C6116 1.499 . S
C6119 C6120 1.373 . S
C6119 C6121 1.389 . S
C6120 H6093 0.950 . S
C6120 C6106 1.377 . S
C6120 C6119 1.373 . S
C6121 C6105 1.377 . S
C6121 C6119 1.389 . S
C6121 C6122 1.524 . S
C6122 C6121 1.524 . S
C6122 C6123 1.397 . S
C6122 C6127 1.363 . S
C6123 H6094 0.950 . S
C6123 C6122 1.397 . S
C6123 C6124 1.334 . S
C6124 H6095 0.950 . S
C6124 C6123 1.334 . S
C6124 C6125 1.287 . S
C6125 C6124 1.287 . S
C6125 C6126 1.524 . S
C6125 H6128 0.999 . S
C6126 H6096 0.950 . S
C6126 C6125 1.524 . S
C6126 C6127 1.415 . S
C6127 H6097 0.950 . S
C6127 C6122 1.363 . S
C6127 C6126 1.415 . S
H6128 C6125 0.999 . S
H6129 C6110 0.913 . S
H6130 C6148 0.951 . S
H6131 C6150 0.951 . S
H6132 C6152 0.950 . S
H6133 C6153 0.950 . S
H6134 C6155 0.950 . S
H6135 C6158 0.950 . S
H6136 C6159 0.950 . S
H6137 C6161 0.950 . S
H6138 C6162 0.950 . S
H6139 C6163 0.951 1_545 S
H6140 C6165 0.951 . S
H6141 C6167 0.950 . S
H6142 C6168 0.950 . S
H6143 C6170 0.950 . S
H6144 C6173 0.950 . S
H6145 C6174 0.950 . S
H6146 C6176 0.950 . S
H6147 C6177 0.950 . S
C6148 H6130 0.951 . S
C6148 C6149 1.366 . S
C6148 C6150 1.388 . S
C6149 C6148 1.366 . S
C6149 C6153 1.385 . S
C6150 H6131 0.951 . S
C6150 C6148 1.388 . S
C6150 C6151 1.366 . S
C6151 C6150 1.366 . S
C6151 C6152 1.414 . S
C6151 C6154 1.499 . S
C6152 H6132 0.950 . S
C6152 C6151 1.414 . S
C6152 C6153 1.374 . S
C6153 H6133 0.950 . S
C6153 C6149 1.385 . S
C6153 C6152 1.374 . S
C6154 C6151 1.499 . S
C6154 C6155 1.373 . S
C6154 C6156 1.389 . S
C6155 H6134 0.950 . S
C6155 C6154 1.373 . S
C6155 C6171 1.377 . S
C6156 C6154 1.389 . S
C6156 C6157 1.524 . S
C6156 C6170 1.377 . S
C6157 C6156 1.524 . S
C6157 C6158 1.397 . S
C6157 C6162 1.363 . S
C6158 H6135 0.950 . S
C6158 C6157 1.397 . S
C6158 C6159 1.334 . S
C6159 H6136 0.950 . S
C6159 C6158 1.334 . S
C6159 C6160 1.287 . S
C6160 C6159 1.287 . S
C6160 C6161 1.524 . S
C6160 H6179 0.913 . S
C6161 H6137 0.950 . S
C6161 C6160 1.524 . S
C6161 C6162 1.415 . S
C6162 H6138 0.950 . S
C6162 C6157 1.363 . S
C6162 C6161 1.415 . S
C6163 H6139 0.951 1_565 S
C6163 C6164 1.366 . S
C6163 C6165 1.388 . S
C6164 C6163 1.366 . S
C6164 C6168 1.385 . S
C6165 H6140 0.951 . S
C6165 C6163 1.388 . S
C6165 C6166 1.366 . S
C6166 C6165 1.366 . S
C6166 C6167 1.414 . S
C6166 C6169 1.499 . S
C6167 H6141 0.950 . S
C6167 C6166 1.414 . S
C6167 C6168 1.374 . S
C6168 H6142 0.950 . S
C6168 C6164 1.385 . S
C6168 C6167 1.374 . S
C6169 C6166 1.499 . S
C6169 C6170 1.373 . S
C6169 C6171 1.389 . S
C6170 H6143 0.950 . S
C6170 C6156 1.377 . S
C6170 C6169 1.373 . S
C6171 C6155 1.377 . S
C6171 C6169 1.389 . S
C6171 C6172 1.524 . S
C6172 C6171 1.524 . S
C6172 C6173 1.397 . S
C6172 C6177 1.363 . S
C6173 H6144 0.950 . S
C6173 C6172 1.397 . S
C6173 C6174 1.334 1_565 S
C6174 H6145 0.950 . S
C6174 C6173 1.334 1_545 S
C6174 C6175 1.287 . S
C6175 C6174 1.287 . S
C6175 C6176 1.524 . S
C6175 H6178 0.999 . S
C6176 H6146 0.950 . S
C6176 C6175 1.524 . S
C6176 C6177 1.415 1_545 S
C6177 H6147 0.950 . S
C6177 C6172 1.363 . S
C6177 C6176 1.415 1_565 S
H6178 C6175 0.999 . S
H6179 C6160 0.913 . S
H6180 C6198 0.951 . S
H6181 C6200 0.951 . S
H6182 C6202 0.950 . S
H6183 C6203 0.950 . S
H6184 C6205 0.950 . S
H6185 C6208 0.950 . S
H6186 C6209 0.950 . S
H6187 C6211 0.950 . S
H6188 C6212 0.950 . S
H6189 C6213 0.951 . S
H6190 C6215 0.951 . S
H6191 C6217 0.950 . S
H6192 C6218 0.950 . S
H6193 C6220 0.950 . S
H6194 C6223 0.950 . S
H6195 C6224 0.950 . S
H6196 C6226 0.950 . S
H6197 C6227 0.950 . S
C6198 H6180 0.951 . S
C6198 C6199 1.366 . S
C6198 C6200 1.388 . S
C6199 C6198 1.366 . S
C6199 C6203 1.385 . S
C6200 H6181 0.951 . S
C6200 C6198 1.388 . S
C6200 C6201 1.366 . S
C6201 C6200 1.366 . S
C6201 C6202 1.414 . S
C6201 C6204 1.499 . S
C6202 H6182 0.950 . S
C6202 C6201 1.414 . S
C6202 C6203 1.374 . S
C6203 H6183 0.950 . S
C6203 C6199 1.385 . S
C6203 C6202 1.374 . S
C6204 C6201 1.499 . S
C6204 C6205 1.373 . S
C6204 C6206 1.389 . S
C6205 H6184 0.950 . S
C6205 C6204 1.373 . S
C6205 C6221 1.377 . S
C6206 C6204 1.389 . S
C6206 C6207 1.524 . S
C6206 C6220 1.377 . S
C6207 C6206 1.524 . S
C6207 C6208 1.397 . S
C6207 C6212 1.363 . S
C6208 H6185 0.950 . S
C6208 C6207 1.397 . S
C6208 C6209 1.334 . S
C6209 H6186 0.950 . S
C6209 C6208 1.334 . S
C6209 C6210 1.287 . S
C6210 C6209 1.287 . S
C6210 C6211 1.524 . S
C6210 H6229 0.913 . S
C6211 H6187 0.950 . S
C6211 C6210 1.524 . S
C6211 C6212 1.415 . S
C6212 H6188 0.950 . S
C6212 C6207 1.363 . S
C6212 C6211 1.415 . S
C6213 H6189 0.951 . S
C6213 C6214 1.366 . S
C6213 C6215 1.388 . S
C6214 C6213 1.366 . S
C6214 C6218 1.385 . S
C6215 H6190 0.951 . S
C6215 C6213 1.388 . S
C6215 C6216 1.366 . S
C6216 C6215 1.366 . S
C6216 C6217 1.414 . S
C6216 C6219 1.499 . S
C6217 H6191 0.950 . S
C6217 C6216 1.414 . S
C6217 C6218 1.374 . S
C6218 H6192 0.950 . S
C6218 C6214 1.385 . S
C6218 C6217 1.374 . S
C6219 C6216 1.499 . S
C6219 C6220 1.373 . S
C6219 C6221 1.389 . S
C6220 H6193 0.950 . S
C6220 C6206 1.377 . S
C6220 C6219 1.373 . S
C6221 C6205 1.377 . S
C6221 C6219 1.389 . S
C6221 C6222 1.524 . S
C6222 C6221 1.524 . S
C6222 C6223 1.397 . S
C6222 C6227 1.363 . S
C6223 H6194 0.950 . S
C6223 C6222 1.397 . S
C6223 C6224 1.334 . S
C6224 H6195 0.950 . S
C6224 C6223 1.334 . S
C6224 C6225 1.287 . S
C6225 C6224 1.287 . S
C6225 C6226 1.524 . S
C6225 H6228 0.999 . S
C6226 H6196 0.950 . S
C6226 C6225 1.524 . S
C6226 C6227 1.415 . S
C6227 H6197 0.950 . S
C6227 C6222 1.363 . S
C6227 C6226 1.415 . S
H6228 C6225 0.999 . S
H6229 C6210 0.913 . S
H6230 C6248 0.951 . S
H6231 C6250 0.951 . S
H6232 C6252 0.950 . S
H6233 C6253 0.950 . S
H6234 C6255 0.950 . S
H6235 C6258 0.950 . S
H6236 C6259 0.950 . S
H6237 C6261 0.950 . S
H6238 C6262 0.950 . S
H6239 C6263 0.980 . S
H6240 C6265 0.951 . S
H6241 C6267 0.950 . S
H6242 C6268 0.950 . S
H6243 C6270 0.950 . S
H6244 C6273 0.950 . S
H6245 C6274 0.950 . S
H6246 C6276 0.950 1_556 S
H6247 C6277 0.916 1_556 S
C6248 H6230 0.951 . S
C6248 C6249 1.366 . S
C6248 C6250 1.388 . S
C6249 C6248 1.366 . S
C6249 C6253 1.385 . S
C6250 H6231 0.951 . S
C6250 C6248 1.388 . S
C6250 C6251 1.366 . S
C6251 C6250 1.366 . S
C6251 C6252 1.414 . S
C6251 C6254 1.499 . S
C6252 H6232 0.950 . S
C6252 C6251 1.414 . S
C6252 C6253 1.374 . S
C6253 H6233 0.950 . S
C6253 C6249 1.385 . S
C6253 C6252 1.374 . S
C6254 C6251 1.499 . S
C6254 C6255 1.373 . S
C6254 C6256 1.389 . S
C6255 H6234 0.950 . S
C6255 C6254 1.373 . S
C6255 C6271 1.377 . S
C6256 C6254 1.389 . S
C6256 C6257 1.524 . S
C6256 C6270 1.377 . S
C6257 C6256 1.524 . S
C6257 C6258 1.397 . S
C6257 C6262 1.363 . S
C6258 H6235 0.950 . S
C6258 C6257 1.397 . S
C6258 C6259 1.334 . S
C6259 H6236 0.950 . S
C6259 C6258 1.334 . S
C6259 C6260 1.287 . S
C6260 C6259 1.287 . S
C6260 C6261 1.524 . S
C6260 H6279 0.913 . S
C6261 H6237 0.950 . S
C6261 C6260 1.524 . S
C6261 C6262 1.415 . S
C6262 H6238 0.950 . S
C6262 C6257 1.363 . S
C6262 C6261 1.415 . S
C6263 H6239 0.980 . S
C6263 C6264 1.366 . S
C6263 C6265 1.388 . S
C6264 C6263 1.366 . S
C6264 C6268 1.385 . S
C6265 H6240 0.951 . S
C6265 C6263 1.388 . S
C6265 C6266 1.366 . S
C6266 C6265 1.366 . S
C6266 C6267 1.414 . S
C6266 C6269 1.499 . S
C6267 H6241 0.950 . S
C6267 C6266 1.414 . S
C6267 C6268 1.374 . S
C6268 H6242 0.950 . S
C6268 C6264 1.385 . S
C6268 C6267 1.374 . S
C6269 C6266 1.499 . S
C6269 C6270 1.373 . S
C6269 C6271 1.389 . S
C6270 H6243 0.950 . S
C6270 C6256 1.377 . S
C6270 C6269 1.373 . S
C6271 C6255 1.377 . S
C6271 C6269 1.389 . S
C6271 C6272 1.524 . S
C6272 C6271 1.524 . S
C6272 C6273 1.397 . S
C6272 C6277 1.363 . S
C6273 H6244 0.950 . S
C6273 C6272 1.397 . S
C6273 C6274 1.334 . S
C6274 H6245 0.950 . S
C6274 C6273 1.334 . S
C6274 C6275 1.287 . S
C6275 C6274 1.287 . S
C6275 C6276 1.524 . S
C6275 H6278 0.999 . S
C6276 H6246 0.950 1_554 S
C6276 C6275 1.524 . S
C6276 C6277 1.415 . S
C6277 H6247 0.916 1_554 S
C6277 C6272 1.363 . S
C6277 C6276 1.415 . S
H6278 C6275 0.999 . S
H6279 C6260 0.913 . S
H6280 C6298 0.951 . S
H6281 C6300 0.951 . S
H6282 C6302 0.950 . S
H6283 C6303 0.950 . S
H6284 C6305 0.950 . S
H6285 C6308 0.950 . S
H6286 C6309 0.950 . S
H6287 C6311 0.950 . S
H6288 C6312 0.950 . S
H6289 C6313 0.951 . S
H6290 C6315 0.951 . S
H6291 C6317 0.950 . S
H6292 C6318 0.950 . S
H6293 C6320 0.950 . S
H6294 C6323 0.950 . S
H6295 C6324 0.950 . S
H6296 C6326 0.950 . S
H6297 C6327 0.950 . S
C6298 H6280 0.951 . S
C6298 C6299 1.366 . S
C6298 C6300 1.388 . S
C6299 C6298 1.366 . S
C6299 C6303 1.385 . S
C6300 H6281 0.951 . S
C6300 C6298 1.388 . S
C6300 C6301 1.366 . S
C6301 C6300 1.366 . S
C6301 C6302 1.414 . S
C6301 C6304 1.499 . S
C6302 H6282 0.950 . S
C6302 C6301 1.414 . S
C6302 C6303 1.374 . S
C6303 H6283 0.950 . S
C6303 C6299 1.385 . S
C6303 C6302 1.374 . S
C6304 C6301 1.499 . S
C6304 C6305 1.373 . S
C6304 C6306 1.389 . S
C6305 H6284 0.950 . S
C6305 C6304 1.373 . S
C6305 C6321 1.377 . S
C6306 C6304 1.389 . S
C6306 C6307 1.524 . S
C6306 C6320 1.377 . S
C6307 C6306 1.524 . S
C6307 C6308 1.397 . S
C6307 C6312 1.363 . S
C6308 H6285 0.950 . S
C6308 C6307 1.397 . S
C6308 C6309 1.334 . S
C6309 H6286 0.950 . S
C6309 C6308 1.334 . S
C6309 C6310 1.287 . S
C6310 C6309 1.287 . S
C6310 C6311 1.524 . S
C6310 H6329 0.913 . S
C6311 H6287 0.950 . S
C6311 C6310 1.524 . S
C6311 C6312 1.415 . S
C6312 H6288 0.950 . S
C6312 C6307 1.363 . S
C6312 C6311 1.415 . S
C6313 H6289 0.951 . S
C6313 C6314 1.366 . S
C6313 C6315 1.388 . S
C6314 C6313 1.366 . S
C6314 C6318 1.385 . S
C6315 H6290 0.951 . S
C6315 C6313 1.388 . S
C6315 C6316 1.366 . S
C6316 C6315 1.366 . S
C6316 C6317 1.414 . S
C6316 C6319 1.499 . S
C6317 H6291 0.950 . S
C6317 C6316 1.414 . S
C6317 C6318 1.374 . S
C6318 H6292 0.950 . S
C6318 C6314 1.385 . S
C6318 C6317 1.374 . S
C6319 C6316 1.499 . S
C6319 C6320 1.373 . S
C6319 C6321 1.389 . S
C6320 H6293 0.950 . S
C6320 C6306 1.377 . S
C6320 C6319 1.373 . S
C6321 C6305 1.377 . S
C6321 C6319 1.389 . S
C6321 C6322 1.524 . S
C6322 C6321 1.524 . S
C6322 C6323 1.397 . S
C6322 C6327 1.363 . S
C6323 H6294 0.950 . S
C6323 C6322 1.397 . S
C6323 C6324 1.334 . S
C6324 H6295 0.950 . S
C6324 C6323 1.334 . S
C6324 C6325 1.287 . S
C6325 C6324 1.287 . S
C6325 C6326 1.524 . S
C6325 H6328 0.999 . S
C6326 H6296 0.950 . S
C6326 C6325 1.524 . S
C6326 C6327 1.415 . S
C6327 H6297 0.950 . S
C6327 C6322 1.363 . S
C6327 C6326 1.415 . S
H6328 C6325 0.999 . S
H6329 C6310 0.913 . S
H6330 C6348 0.951 . S
H6331 C6350 0.951 . S
H6332 C6352 0.950 . S
H6333 C6353 0.950 . S
H6334 C6355 0.950 . S
H6335 C6358 0.968 . S
H6336 C6359 0.950 . S
H6337 C6361 0.950 . S
H6338 C6362 0.950 . S
H6339 C6363 0.951 . S
H6340 C6365 0.951 . S
H6341 C6367 0.950 . S
H6342 C6368 0.950 . S
H6343 C6370 0.950 . S
H6344 C6373 0.950 . S
H6345 C6374 0.950 . S
H6346 C6376 0.950 . S
H6347 C6377 0.950 . S
C6348 H6330 0.951 . S
C6348 C6349 1.366 . S
C6348 C6350 1.388 . S
C6349 C6348 1.366 . S
C6349 C6353 1.385 . S
C6350 H6331 0.951 . S
C6350 C6348 1.388 . S
C6350 C6351 1.366 . S
C6351 C6350 1.366 . S
C6351 C6352 1.414 . S
C6351 C6354 1.499 . S
C6352 H6332 0.950 . S
C6352 C6351 1.414 . S
C6352 C6353 1.374 . S
C6353 H6333 0.950 . S
C6353 C6349 1.385 . S
C6353 C6352 1.374 . S
C6354 C6351 1.499 . S
C6354 C6355 1.373 . S
C6354 C6356 1.389 . S
C6355 H6334 0.950 . S
C6355 C6354 1.373 . S
C6355 C6371 1.377 . S
C6356 C6354 1.389 . S
C6356 C6357 1.524 . S
C6356 C6370 1.377 . S
C6357 C6356 1.524 . S
C6357 C6358 1.366 1_554 S
C6357 C6362 1.363 . S
C6358 H6335 0.968 . S
C6358 C6357 1.366 1_556 S
C6358 C6359 1.348 . S
C6359 H6336 0.950 . S
C6359 C6358 1.348 . S
C6359 C6360 1.287 . S
C6360 C6359 1.287 . S
C6360 C6361 1.524 1_556 S
C6360 H6379 0.913 . S
C6361 H6337 0.950 . S
C6361 C6360 1.524 1_554 S
C6361 C6362 1.415 . S
C6362 H6338 0.950 . S
C6362 C6357 1.363 . S
C6362 C6361 1.415 . S
C6363 H6339 0.951 . S
C6363 C6364 1.366 . S
C6363 C6365 1.388 . S
C6364 C6363 1.366 . S
C6364 C6368 1.385 . S
C6365 H6340 0.951 . S
C6365 C6363 1.388 . S
C6365 C6366 1.366 . S
C6366 C6365 1.366 . S
C6366 C6367 1.414 . S
C6366 C6369 1.499 . S
C6367 H6341 0.950 . S
C6367 C6366 1.414 . S
C6367 C6368 1.374 . S
C6368 H6342 0.950 . S
C6368 C6364 1.385 . S
C6368 C6367 1.374 . S
C6369 C6366 1.499 . S
C6369 C6370 1.373 . S
C6369 C6371 1.389 . S
C6370 H6343 0.950 . S
C6370 C6356 1.377 . S
C6370 C6369 1.373 . S
C6371 C6355 1.377 . S
C6371 C6369 1.389 . S
C6371 C6372 1.524 . S
C6372 C6371 1.524 . S
C6372 C6373 1.397 . S
C6372 C6377 1.363 . S
C6373 H6344 0.950 . S
C6373 C6372 1.397 . S
C6373 C6374 1.334 . S
C6374 H6345 0.950 . S
C6374 C6373 1.334 . S
C6374 C6375 1.287 . S
C6375 C6374 1.287 . S
C6375 C6376 1.524 . S
C6375 H6378 0.999 . S
C6376 H6346 0.950 . S
C6376 C6375 1.524 . S
C6376 C6377 1.415 . S
C6377 H6347 0.950 . S
C6377 C6372 1.363 . S
C6377 C6376 1.415 . S
H6378 C6375 0.999 . S
H6379 C6360 0.913 . S
H6380 C6398 0.951 . S
H6381 C6400 0.951 . S
H6382 C6402 0.950 . S
H6383 C6403 0.950 . S
H6384 C6405 0.950 . S
H6385 C6408 0.950 . S
H6386 C6409 0.950 . S
H6387 C6411 0.950 . S
H6388 C6412 0.950 . S
H6389 C6413 0.951 . S
H6390 C6415 0.951 . S
H6391 C6417 0.950 . S
H6392 C6418 0.950 . S
H6393 C6420 0.950 . S
H6394 C6423 0.950 . S
H6395 C6424 0.950 . S
H6396 C6426 0.950 . S
H6397 C6427 0.950 . S
C6398 H6380 0.951 . S
C6398 C6399 1.366 . S
C6398 C6400 1.388 . S
C6399 C6398 1.366 . S
C6399 C6403 1.385 . S
C6400 H6381 0.951 . S
C6400 C6398 1.388 . S
C6400 C6401 1.366 . S
C6401 C6400 1.366 . S
C6401 C6402 1.414 . S
C6401 C6404 1.499 . S
C6402 H6382 0.950 . S
C6402 C6401 1.414 . S
C6402 C6403 1.374 . S
C6403 H6383 0.950 . S
C6403 C6399 1.385 . S
C6403 C6402 1.374 . S
C6404 C6401 1.499 . S
C6404 C6405 1.373 . S
C6404 C6406 1.389 . S
C6405 H6384 0.950 . S
C6405 C6404 1.373 . S
C6405 C6421 1.377 . S
C6406 C6404 1.389 . S
C6406 C6407 1.524 . S
C6406 C6420 1.377 . S
C6407 C6406 1.524 . S
C6407 C6408 1.397 . S
C6407 C6412 1.363 . S
C6408 H6385 0.950 . S
C6408 C6407 1.397 . S
C6408 C6409 1.334 . S
C6409 H6386 0.950 . S
C6409 C6408 1.334 . S
C6409 C6410 1.287 . S
C6410 C6409 1.287 . S
C6410 C6411 1.524 . S
C6410 H6429 0.913 . S
C6411 H6387 0.950 . S
C6411 C6410 1.524 . S
C6411 C6412 1.415 . S
C6412 H6388 0.950 . S
C6412 C6407 1.363 . S
C6412 C6411 1.415 . S
C6413 H6389 0.951 . S
C6413 C6414 1.366 . S
C6413 C6415 1.388 . S
C6414 C6413 1.366 . S
C6414 C6418 1.385 . S
C6415 H6390 0.951 . S
C6415 C6413 1.388 . S
C6415 C6416 1.366 . S
C6416 C6415 1.366 . S
C6416 C6417 1.414 . S
C6416 C6419 1.499 . S
C6417 H6391 0.950 . S
C6417 C6416 1.414 . S
C6417 C6418 1.374 . S
C6418 H6392 0.950 . S
C6418 C6414 1.385 . S
C6418 C6417 1.374 . S
C6419 C6416 1.499 . S
C6419 C6420 1.373 . S
C6419 C6421 1.389 . S
C6420 H6393 0.950 . S
C6420 C6406 1.377 . S
C6420 C6419 1.373 . S
C6421 C6405 1.377 . S
C6421 C6419 1.389 . S
C6421 C6422 1.524 . S
C6422 C6421 1.524 . S
C6422 C6423 1.397 . S
C6422 C6427 1.363 . S
C6423 H6394 0.950 . S
C6423 C6422 1.397 . S
C6423 C6424 1.334 . S
C6424 H6395 0.950 . S
C6424 C6423 1.334 . S
C6424 C6425 1.287 . S
C6425 C6424 1.287 . S
C6425 C6426 1.524 . S
C6425 H6428 0.999 . S
C6426 H6396 0.950 . S
C6426 C6425 1.524 . S
C6426 C6427 1.415 . S
C6427 H6397 0.950 . S
C6427 C6422 1.363 . S
C6427 C6426 1.415 . S
H6428 C6425 0.999 . S
H6429 C6410 0.913 . S
H6430 C6448 0.951 . S
H6431 C6450 0.951 . S
H6432 C6452 0.950 . S
H6433 C6453 0.950 . S
H6434 C6455 0.950 . S
H6435 C6458 0.950 . S
H6436 C6459 0.950 . S
H6437 C6461 0.950 . S
H6438 C6462 0.950 . S
H6439 C6463 0.951 . S
H6440 C6465 0.951 . S
H6441 C6467 0.950 . S
H6442 C6468 0.950 . S
H6443 C6470 0.950 . S
H6444 C6473 0.950 . S
H6445 C6474 0.950 . S
H6446 C6476 0.950 . S
H6447 C6477 0.950 . S
C6448 H6430 0.951 . S
C6448 C6449 1.366 . S
C6448 C6450 1.388 . S
C6449 C6448 1.366 . S
C6449 C6453 1.385 . S
C6450 H6431 0.951 . S
C6450 C6448 1.388 . S
C6450 C6451 1.366 . S
C6451 C6450 1.366 . S
C6451 C6452 1.414 . S
C6451 C6454 1.499 . S
C6452 H6432 0.950 . S
C6452 C6451 1.414 . S
C6452 C6453 1.374 . S
C6453 H6433 0.950 . S
C6453 C6449 1.385 . S
C6453 C6452 1.374 . S
C6454 C6451 1.499 . S
C6454 C6455 1.373 . S
C6454 C6456 1.389 . S
C6455 H6434 0.950 . S
C6455 C6454 1.373 . S
C6455 C6471 1.377 . S
C6456 C6454 1.389 . S
C6456 C6457 1.524 . S
C6456 C6470 1.377 . S
C6457 C6456 1.524 . S
C6457 C6458 1.397 . S
C6457 C6462 1.363 . S
C6458 H6435 0.950 . S
C6458 C6457 1.397 . S
C6458 C6459 1.334 . S
C6459 H6436 0.950 . S
C6459 C6458 1.334 . S
C6459 C6460 1.287 . S
C6460 C6459 1.287 . S
C6460 C6461 1.524 . S
C6460 H6479 0.913 . S
C6461 H6437 0.950 . S
C6461 C6460 1.524 . S
C6461 C6462 1.415 . S
C6462 H6438 0.950 . S
C6462 C6457 1.363 . S
C6462 C6461 1.415 . S
C6463 H6439 0.951 . S
C6463 C6464 1.366 . S
C6463 C6465 1.388 . S
C6464 C6463 1.366 . S
C6464 C6468 1.385 . S
C6465 H6440 0.951 . S
C6465 C6463 1.388 . S
C6465 C6466 1.366 . S
C6466 C6465 1.366 . S
C6466 C6467 1.414 . S
C6466 C6469 1.499 . S
C6467 H6441 0.950 . S
C6467 C6466 1.414 . S
C6467 C6468 1.374 . S
C6468 H6442 0.950 . S
C6468 C6464 1.385 . S
C6468 C6467 1.374 . S
C6469 C6466 1.499 . S
C6469 C6470 1.373 . S
C6469 C6471 1.389 . S
C6470 H6443 0.950 . S
C6470 C6456 1.377 . S
C6470 C6469 1.373 . S
C6471 C6455 1.377 . S
C6471 C6469 1.389 . S
C6471 C6472 1.524 . S
C6472 C6471 1.524 . S
C6472 C6473 1.397 . S
C6472 C6477 1.363 . S
C6473 H6444 0.950 . S
C6473 C6472 1.397 . S
C6473 C6474 1.334 . S
C6474 H6445 0.950 . S
C6474 C6473 1.334 . S
C6474 C6475 1.287 . S
C6475 C6474 1.287 . S
C6475 C6476 1.524 . S
C6475 H6478 0.999 . S
C6476 H6446 0.950 . S
C6476 C6475 1.524 . S
C6476 C6477 1.415 . S
C6477 H6447 0.950 . S
C6477 C6472 1.363 . S
C6477 C6476 1.415 . S
H6478 C6475 0.999 . S
H6479 C6460 0.913 . S
C1699 C105 2.015 1_455 S
C1714 C392 2.023 . S
C1749 C65 1.853 . S
C1764 C494 1.836 . S
C1799 C73 1.797 . S
C1814 C560 1.810 . S
C1864 C646 1.469 . S
C1849 C92 1.575 . S
C1899 C17 1.643 . S
C1914 C730 1.517 . S
C1964 C812 1.784 . S
C1949 C37 1.752 . S
C2014 C914 1.852 . S
C1999 C49 1.784 . S
C2049 C8 1.959 . S
C2064 C980 1.956 . S
C2114 C410 1.544 . S
C2099 C231 1.556 . S
C2149 C241 0.900 . S
C2164 C478 0.864 . S
C2214 C578 1.097 . S
C2199 C273 1.072 . S
C2264 C644 1.601 . S
C2249 C171 1.600 1_556 S
C2299 C227 1.585 . S
C2314 C728 1.586 . S
C2364 C830 1.102 . S
C2349 C245 1.076 . S
C2414 C898 0.865 . S
C2399 C269 0.900 . S
C2464 C998 1.536 . S
C2449 C175 1.548 . S
C2514 C394 0.870 1_565 S
C2499 C162 0.914 1_554 S
C2549 C289 1.700 . S
C2564 C1082 1.679 . S
C2614 C1150 1.297 . S
C2599 C330 1.368 . S
C2664 C1232 0.798 . S
C2649 C317 0.796 . S
C2699 C120 0.876 . S
C2714 C982 0.855 . S
C2749 C134 1.386 . S
C2764 C562 1.310 . S
C2799 C331 1.656 . S
C2814 C1334 1.636 . S
C2864 C1400 0.731 . S
C2849 C303 0.732 . S
C2914 C403 2.057 . S
C2899 C59 2.037 . S
C2964 C1407 1.891 . S
C2949 C107 1.901 . S
C2999 C91 1.848 . S
C3014 C571 1.871 . S
C3049 C78 1.614 . S
C3064 C1329 1.501 . S
C3114 C741 1.555 . S
C3099 C7 1.642 . S
C3149 C51 1.802 . S
C3164 C1159 1.837 . S
C3214 C903 1.904 1_556 S
C3199 C31 1.922 . S
C3264 C1495 1.996 . S
C3249 C22 1.985 . S
C3314 C399 1.593 . S
C3299 C143 1.626 . S
C3364 C1413 0.902 . S
C3349 C315 0.931 . S
C3399 C115 1.154 . S
C3414 C567 1.139 . S
C3449 C287 1.620 . S
C3464 C1327 1.655 . S
C3499 C147 1.609 . S
C3514 C739 1.644 . S
C3564 C1155 1.144 . S
C3549 C311 1.159 . S
C3599 C119 0.928 . S
C3614 C909 0.901 . S
C3649 C283 1.617 . S
C3664 C1491 1.583 . S
C3699 C190 0.935 . S
C3714 C405 0.908 . S
C3749 C177 1.740 . S
C3764 C1071 1.723 . S
C3799 C260 1.384 . S
C3814 C825 1.312 . S
C3849 C247 0.849 . S
C3864 C1243 0.852 . S
C3914 C1497 0.870 . S
C3899 C274 0.894 1_565 S
C3949 C218 1.407 . S
C3964 C573 1.330 . S
C4014 C651 1.682 . S
C3999 C261 1.697 . S
C4064 C487 0.784 . S
C4049 C205 0.783 . S
C4099 C77 2.020 . S
C4114 C1568 2.023 . S
C4164 C1418 1.835 . S
C4149 C93 1.853 . S
C4199 C101 1.797 . S
C4214 C1652 1.810 . S
C4249 C64 1.575 1_655 S
C4264 C1318 1.468 . S
C4299 C45 1.643 . S
C4314 C1066 1.516 . S
C4364 C1148 1.784 . S
C4349 C9 1.752 . S
C4414 C1250 1.853 . S
C4399 C21 1.784 . S
C4464 C1484 1.956 . S
C4449 C36 1.959 . S
C4514 C1586 1.545 . S
C4499 C259 1.556 . S
C4549 C185 0.900 . S
C4564 C1402 0.866 . S
C4614 C1670 1.097 . S
C4599 C203 1.072 . S
C4664 C1316 1.601 . S
C4649 C213 1.600 . S
C4714 C1064 1.586 . S
C4699 C255 1.585 . S
C4749 C189 1.075 . S
C4764 C1166 1.102 . S
C4814 C1234 0.865 . S
C4799 C199 0.900 . S
C4849 C217 1.548 . S
C4864 C1502 1.536 . S
C4914 C1570 0.892 . S
C4899 C316 0.921 . S
C4949 C135 1.700 . S
C4964 C746 1.679 . S
C5014 C814 1.297 . S
C4999 C148 1.365 1_565 S
C5064 C896 0.798 . S
C5049 C163 0.797 . S
C5114 C1486 0.855 . S
C5099 C302 0.876 . S
C5149 C288 1.386 . S
C5164 C1654 1.312 . S
C5214 C662 1.636 . S
C5199 C149 1.656 . S
C5264 C476 0.731 . S
C5249 C121 0.731 . S
C5299 C87 2.037 . S
C5314 C1579 2.057 . S
C5364 C483 1.890 . S
C5349 C79 1.902 . S
C5399 C63 1.849 . S
C5414 C1663 1.872 . S
C5449 C106 1.614 . S
C5464 C657 1.502 . S
C5499 C35 1.643 . S
C5514 C1077 1.555 . S
C5564 C823 1.837 . S
C5549 C23 1.802 . S
C5599 C3 1.922 . S
C5614 C1239 1.904 . S
C5649 C50 1.985 . S
C5664 C991 1.996 . S
C5714 C1575 1.593 . S
C5699 C325 1.626 . S
C5749 C161 0.931 . S
C5764 C489 0.897 . S
C5814 C1659 1.140 1_655 S
C5799 C297 1.154 . S
C5849 C133 1.620 . S
C5864 C655 1.655 . S
C5899 C329 1.610 . S
C5914 C1075 1.644 . S
C5964 C819 1.144 . S
C5949 C157 1.164 . S
C5999 C301 0.928 . S
C6014 C1245 0.899 . S
C6064 C987 1.582 . S
C6049 C129 1.616 . S
C6114 C1581 0.908 . S
C6099 C246 0.935 . S
C6164 C735 1.724 1_565 S
C6149 C219 1.740 . S
C6199 C232 1.384 . S
C6214 C1161 1.312 . S
C6264 C907 0.852 . S
C6249 C191 0.848 . S
C6299 C204 0.893 . S
C6314 C993 0.871 . S
C6349 C176 1.407 . S
C6364 C1665 1.329 . S
C6414 C1323 1.682 . S
C6399 C233 1.697 . S
C6464 C1411 0.785 . S
C6449 C275 0.783 . S
