# Generated by pormake.
# Topology gar, (4,6)-cn, num edge types: 1
# Building blocks:
#     Node 0, Type 0, BuildingBlock: QUQFOY_clean_sbu_3, # of connection points: 4
#     Node 1, Type 0, BuildingBlock: QUQFOY_clean_sbu_3, # of connection points: 4
#     Node 2, Type 0, BuildingBlock: QUQFOY_clean_sbu_3, # of connection points: 4
#     Node 3, Type 0, BuildingBlock: QUQFOY_clean_sbu_3, # of connection points: 4
#     Node 4, Type 0, BuildingBlock: QUQFOY_clean_sbu_3, # of connection points: 4
#     Node 5, Type 0, BuildingBlock: QUQFOY_clean_sbu_3, # of connection points: 4
#     Node 6, Type 0, BuildingBlock: QUQFOY_clean_sbu_3, # of connection points: 4
#     Node 7, Type 0, BuildingBlock: QUQFOY_clean_sbu_3, # of connection points: 4
#     Node 8, Type 0, BuildingBlock: QUQFOY_clean_sbu_3, # of connection points: 4
#     Node 9, Type 0, BuildingBlock: QUQFOY_clean_sbu_3, # of connection points: 4
#     Node 10, Type 0, BuildingBlock: QUQFOY_clean_sbu_3, # of connection points: 4
#     Node 11, Type 0, BuildingBlock: QUQFOY_clean_sbu_3, # of connection points: 4
#     Node 12, Type 0, BuildingBlock: QUQFOY_clean_sbu_3, # of connection points: 4
#     Node 13, Type 0, BuildingBlock: QUQFOY_clean_sbu_3, # of connection points: 4
#     Node 14, Type 0, BuildingBlock: QUQFOY_clean_sbu_3, # of connection points: 4
#     Node 15, Type 0, BuildingBlock: QUQFOY_clean_sbu_3, # of connection points: 4
#     Node 16, Type 0, BuildingBlock: QUQFOY_clean_sbu_3, # of connection points: 4
#     Node 17, Type 0, BuildingBlock: QUQFOY_clean_sbu_3, # of connection points: 4
#     Node 18, Type 0, BuildingBlock: QUQFOY_clean_sbu_3, # of connection points: 4
#     Node 19, Type 0, BuildingBlock: QUQFOY_clean_sbu_3, # of connection points: 4
#     Node 20, Type 0, BuildingBlock: QUQFOY_clean_sbu_3, # of connection points: 4
#     Node 21, Type 0, BuildingBlock: QUQFOY_clean_sbu_3, # of connection points: 4
#     Node 22, Type 0, BuildingBlock: QUQFOY_clean_sbu_3, # of connection points: 4
#     Node 23, Type 0, BuildingBlock: QUQFOY_clean_sbu_3, # of connection points: 4
#     Node 24, Type 1, BuildingBlock: PAMTOO_clean_sbu_0, # of connection points: 6
#     Node 25, Type 1, BuildingBlock: PAMTOO_clean_sbu_0, # of connection points: 6
#     Node 26, Type 1, BuildingBlock: PAMTOO_clean_sbu_0, # of connection points: 6
#     Node 27, Type 1, BuildingBlock: PAMTOO_clean_sbu_0, # of connection points: 6
#     Node 28, Type 1, BuildingBlock: PAMTOO_clean_sbu_0, # of connection points: 6
#     Node 29, Type 1, BuildingBlock: PAMTOO_clean_sbu_0, # of connection points: 6
#     Node 30, Type 1, BuildingBlock: PAMTOO_clean_sbu_0, # of connection points: 6
#     Node 31, Type 1, BuildingBlock: PAMTOO_clean_sbu_0, # of connection points: 6
#     Node 32, Type 1, BuildingBlock: PAMTOO_clean_sbu_0, # of connection points: 6
#     Node 33, Type 1, BuildingBlock: PAMTOO_clean_sbu_0, # of connection points: 6
#     Node 34, Type 1, BuildingBlock: PAMTOO_clean_sbu_0, # of connection points: 6
#     Node 35, Type 1, BuildingBlock: PAMTOO_clean_sbu_0, # of connection points: 6
#     Node 36, Type 1, BuildingBlock: PAMTOO_clean_sbu_0, # of connection points: 6
#     Node 37, Type 1, BuildingBlock: PAMTOO_clean_sbu_0, # of connection points: 6
#     Node 38, Type 1, BuildingBlock: PAMTOO_clean_sbu_0, # of connection points: 6
#     Node 39, Type 1, BuildingBlock: PAMTOO_clean_sbu_0, # of connection points: 6
#     Edge 40, Type (0, 1), BuildingBlock: OJICUG_clean_linker_0, # of connection points: 2
#     Edge 41, Type (0, 1), BuildingBlock: OJICUG_clean_linker_0, # of connection points: 2
#     Edge 42, Type (0, 1), BuildingBlock: OJICUG_clean_linker_0, # of connection points: 2
#     Edge 43, Type (0, 1), BuildingBlock: OJICUG_clean_linker_0, # of connection points: 2
#     Edge 44, Type (0, 1), BuildingBlock: OJICUG_clean_linker_0, # of connection points: 2
#     Edge 45, Type (0, 1), BuildingBlock: OJICUG_clean_linker_0, # of connection points: 2
#     Edge 46, Type (0, 1), BuildingBlock: OJICUG_clean_linker_0, # of connection points: 2
#     Edge 47, Type (0, 1), BuildingBlock: OJICUG_clean_linker_0, # of connection points: 2
#     Edge 48, Type (0, 1), BuildingBlock: OJICUG_clean_linker_0, # of connection points: 2
#     Edge 49, Type (0, 1), BuildingBlock: OJICUG_clean_linker_0, # of connection points: 2
#     Edge 50, Type (0, 1), BuildingBlock: OJICUG_clean_linker_0, # of connection points: 2
#     Edge 51, Type (0, 1), BuildingBlock: OJICUG_clean_linker_0, # of connection points: 2
#     Edge 52, Type (0, 1), BuildingBlock: OJICUG_clean_linker_0, # of connection points: 2
#     Edge 53, Type (0, 1), BuildingBlock: OJICUG_clean_linker_0, # of connection points: 2
#     Edge 54, Type (0, 1), BuildingBlock: OJICUG_clean_linker_0, # of connection points: 2
#     Edge 55, Type (0, 1), BuildingBlock: OJICUG_clean_linker_0, # of connection points: 2
#     Edge 56, Type (0, 1), BuildingBlock: OJICUG_clean_linker_0, # of connection points: 2
#     Edge 57, Type (0, 1), BuildingBlock: OJICUG_clean_linker_0, # of connection points: 2
#     Edge 58, Type (0, 1), BuildingBlock: OJICUG_clean_linker_0, # of connection points: 2
#     Edge 59, Type (0, 1), BuildingBlock: OJICUG_clean_linker_0, # of connection points: 2
#     Edge 60, Type (0, 1), BuildingBlock: OJICUG_clean_linker_0, # of connection points: 2
#     Edge 61, Type (0, 1), BuildingBlock: OJICUG_clean_linker_0, # of connection points: 2
#     Edge 62, Type (0, 1), BuildingBlock: OJICUG_clean_linker_0, # of connection points: 2
#     Edge 63, Type (0, 1), BuildingBlock: OJICUG_clean_linker_0, # of connection points: 2
#     Edge 64, Type (0, 1), BuildingBlock: OJICUG_clean_linker_0, # of connection points: 2
#     Edge 65, Type (0, 1), BuildingBlock: OJICUG_clean_linker_0, # of connection points: 2
#     Edge 66, Type (0, 1), BuildingBlock: OJICUG_clean_linker_0, # of connection points: 2
#     Edge 67, Type (0, 1), BuildingBlock: OJICUG_clean_linker_0, # of connection points: 2
#     Edge 68, Type (0, 1), BuildingBlock: OJICUG_clean_linker_0, # of connection points: 2
#     Edge 69, Type (0, 1), BuildingBlock: OJICUG_clean_linker_0, # of connection points: 2
#     Edge 70, Type (0, 1), BuildingBlock: OJICUG_clean_linker_0, # of connection points: 2
#     Edge 71, Type (0, 1), BuildingBlock: OJICUG_clean_linker_0, # of connection points: 2
#     Edge 72, Type (0, 1), BuildingBlock: OJICUG_clean_linker_0, # of connection points: 2
#     Edge 73, Type (0, 1), BuildingBlock: OJICUG_clean_linker_0, # of connection points: 2
#     Edge 74, Type (0, 1), BuildingBlock: OJICUG_clean_linker_0, # of connection points: 2
#     Edge 75, Type (0, 1), BuildingBlock: OJICUG_clean_linker_0, # of connection points: 2
#     Edge 76, Type (0, 1), BuildingBlock: OJICUG_clean_linker_0, # of connection points: 2
#     Edge 77, Type (0, 1), BuildingBlock: OJICUG_clean_linker_0, # of connection points: 2
#     Edge 78, Type (0, 1), BuildingBlock: OJICUG_clean_linker_0, # of connection points: 2
#     Edge 79, Type (0, 1), BuildingBlock: OJICUG_clean_linker_0, # of connection points: 2
#     Edge 80, Type (0, 1), BuildingBlock: OJICUG_clean_linker_0, # of connection points: 2
#     Edge 81, Type (0, 1), BuildingBlock: OJICUG_clean_linker_0, # of connection points: 2
#     Edge 82, Type (0, 1), BuildingBlock: OJICUG_clean_linker_0, # of connection points: 2
#     Edge 83, Type (0, 1), BuildingBlock: OJICUG_clean_linker_0, # of connection points: 2
#     Edge 84, Type (0, 1), BuildingBlock: OJICUG_clean_linker_0, # of connection points: 2
#     Edge 85, Type (0, 1), BuildingBlock: OJICUG_clean_linker_0, # of connection points: 2
#     Edge 86, Type (0, 1), BuildingBlock: OJICUG_clean_linker_0, # of connection points: 2
#     Edge 87, Type (0, 1), BuildingBlock: OJICUG_clean_linker_0, # of connection points: 2
#     Edge 88, Type (0, 1), BuildingBlock: OJICUG_clean_linker_0, # of connection points: 2
#     Edge 89, Type (0, 1), BuildingBlock: OJICUG_clean_linker_0, # of connection points: 2
#     Edge 90, Type (0, 1), BuildingBlock: OJICUG_clean_linker_0, # of connection points: 2
#     Edge 91, Type (0, 1), BuildingBlock: OJICUG_clean_linker_0, # of connection points: 2
#     Edge 92, Type (0, 1), BuildingBlock: OJICUG_clean_linker_0, # of connection points: 2
#     Edge 93, Type (0, 1), BuildingBlock: OJICUG_clean_linker_0, # of connection points: 2
#     Edge 94, Type (0, 1), BuildingBlock: OJICUG_clean_linker_0, # of connection points: 2
#     Edge 95, Type (0, 1), BuildingBlock: OJICUG_clean_linker_0, # of connection points: 2
#     Edge 96, Type (0, 1), BuildingBlock: OJICUG_clean_linker_0, # of connection points: 2
#     Edge 97, Type (0, 1), BuildingBlock: OJICUG_clean_linker_0, # of connection points: 2
#     Edge 98, Type (0, 1), BuildingBlock: OJICUG_clean_linker_0, # of connection points: 2
#     Edge 99, Type (0, 1), BuildingBlock: OJICUG_clean_linker_0, # of connection points: 2
#     Edge 100, Type (0, 1), BuildingBlock: OJICUG_clean_linker_0, # of connection points: 2
#     Edge 101, Type (0, 1), BuildingBlock: OJICUG_clean_linker_0, # of connection points: 2
#     Edge 102, Type (0, 1), BuildingBlock: OJICUG_clean_linker_0, # of connection points: 2
#     Edge 103, Type (0, 1), BuildingBlock: OJICUG_clean_linker_0, # of connection points: 2
#     Edge 104, Type (0, 1), BuildingBlock: OJICUG_clean_linker_0, # of connection points: 2
#     Edge 105, Type (0, 1), BuildingBlock: OJICUG_clean_linker_0, # of connection points: 2
#     Edge 106, Type (0, 1), BuildingBlock: OJICUG_clean_linker_0, # of connection points: 2
#     Edge 107, Type (0, 1), BuildingBlock: OJICUG_clean_linker_0, # of connection points: 2
#     Edge 108, Type (0, 1), BuildingBlock: OJICUG_clean_linker_0, # of connection points: 2
#     Edge 109, Type (0, 1), BuildingBlock: OJICUG_clean_linker_0, # of connection points: 2
#     Edge 110, Type (0, 1), BuildingBlock: OJICUG_clean_linker_0, # of connection points: 2
#     Edge 111, Type (0, 1), BuildingBlock: OJICUG_clean_linker_0, # of connection points: 2
#     Edge 112, Type (0, 1), BuildingBlock: OJICUG_clean_linker_0, # of connection points: 2
#     Edge 113, Type (0, 1), BuildingBlock: OJICUG_clean_linker_0, # of connection points: 2
#     Edge 114, Type (0, 1), BuildingBlock: OJICUG_clean_linker_0, # of connection points: 2
#     Edge 115, Type (0, 1), BuildingBlock: OJICUG_clean_linker_0, # of connection points: 2
#     Edge 116, Type (0, 1), BuildingBlock: OJICUG_clean_linker_0, # of connection points: 2
#     Edge 117, Type (0, 1), BuildingBlock: OJICUG_clean_linker_0, # of connection points: 2
#     Edge 118, Type (0, 1), BuildingBlock: OJICUG_clean_linker_0, # of connection points: 2
#     Edge 119, Type (0, 1), BuildingBlock: OJICUG_clean_linker_0, # of connection points: 2
#     Edge 120, Type (0, 1), BuildingBlock: OJICUG_clean_linker_0, # of connection points: 2
#     Edge 121, Type (0, 1), BuildingBlock: OJICUG_clean_linker_0, # of connection points: 2
#     Edge 122, Type (0, 1), BuildingBlock: OJICUG_clean_linker_0, # of connection points: 2
#     Edge 123, Type (0, 1), BuildingBlock: OJICUG_clean_linker_0, # of connection points: 2
#     Edge 124, Type (0, 1), BuildingBlock: OJICUG_clean_linker_0, # of connection points: 2
#     Edge 125, Type (0, 1), BuildingBlock: OJICUG_clean_linker_0, # of connection points: 2
#     Edge 126, Type (0, 1), BuildingBlock: OJICUG_clean_linker_0, # of connection points: 2
#     Edge 127, Type (0, 1), BuildingBlock: OJICUG_clean_linker_0, # of connection points: 2
#     Edge 128, Type (0, 1), BuildingBlock: OJICUG_clean_linker_0, # of connection points: 2
#     Edge 129, Type (0, 1), BuildingBlock: OJICUG_clean_linker_0, # of connection points: 2
#     Edge 130, Type (0, 1), BuildingBlock: OJICUG_clean_linker_0, # of connection points: 2
#     Edge 131, Type (0, 1), BuildingBlock: OJICUG_clean_linker_0, # of connection points: 2
#     Edge 132, Type (0, 1), BuildingBlock: OJICUG_clean_linker_0, # of connection points: 2
#     Edge 133, Type (0, 1), BuildingBlock: OJICUG_clean_linker_0, # of connection points: 2
#     Edge 134, Type (0, 1), BuildingBlock: OJICUG_clean_linker_0, # of connection points: 2
#     Edge 135, Type (0, 1), BuildingBlock: OJICUG_clean_linker_0, # of connection points: 2
# Relax obj value: 0.184
# Max RMSD: 0.282
# Mean RMSD: 0.165
data_MOF--net-gar--node1-QUQFOY_clean_sbu_3--node2-PAMTOO_clean_sbu_0--edge1-OJICUG_clean_linker_0
_symmetry_space_group_name_H-M    P1
_symmetry_Int_Tables_number       1
_symmetry_cell_setting            triclinic
loop_
_symmetry_equiv_pos_as_xyz
'x, y, z'
_cell_length_a     45.603209
_cell_length_b     46.931385
_cell_length_c     43.951202
_cell_angle_alpha  97.647608
_cell_angle_beta   96.1879
_cell_angle_gamma 103.06773
loop_
_atom_site_label
_atom_site_type_symbol
_atom_site_fract_x
_atom_site_fract_y
_atom_site_fract_z
_atom_type_partial_charge
C0 C 1.00261 0.34113 0.33204 0.0
O1 O 0.02013 0.36008 0.31994 0.0
Cd2 Cd 0.07015 0.36959 0.35327 0.0
O3 O 0.01528 0.3297 0.35312 0.0
Cd4 Cd 0.07294 0.33951 0.37766 0.0
C5 C 0.07711 0.41175 0.4151 0.0
O6 O 0.11753 0.35518 0.34234 0.0
O7 O 0.11466 0.3156 0.36239 0.0
O8 O 0.04988 0.28952 0.38684 0.0
C9 C 0.12928 0.33347 0.34696 0.0
O10 O 0.07693 0.41676 0.38747 0.0
C11 C 0.06224 0.29326 0.41491 0.0
O12 O 0.07651 0.38528 0.41961 0.0
O13 O 0.07998 0.31857 0.42575 0.0
C14 C 0.96863 0.7602 0.75636 0.0
O15 O 0.97846 0.73984 0.76718 0.0
Cd16 Cd 0.02495 0.73652 0.74321 0.0
O17 O 0.98441 0.77366 0.73771 0.0
Cd18 Cd 0.0344 0.76406 0.71487 0.0
C19 C 0.02046 0.68859 0.68675 0.0
O20 O 0.07811 0.76526 0.76084 0.0
O21 O 0.08932 0.76846 0.71493 0.0
O22 O 0.04464 0.81637 0.70607 0.0
C23 C 0.09887 0.76929 0.74324 0.0
O24 O 0.02314 0.68752 0.71554 0.0
C25 C 0.04041 0.81044 0.67663 0.0
O26 O 0.02082 0.71374 0.67843 0.0
O27 O 0.03263 0.78312 0.66495 0.0
C28 C 0.49522 0.83963 0.82891 0.0
O29 O 0.51124 0.8581 0.81499 0.0
Cd30 Cd 0.56606 0.873 0.83495 0.0
O31 O 0.50916 0.82903 0.84989 0.0
Cd32 Cd 0.56675 0.83922 0.87397 0.0
C33 C 0.5674 0.91242 0.9027 0.0
O34 O 0.60002 0.8374 0.82919 0.0
O35 O 0.62415 0.84919 0.87543 0.0
O36 O 0.55252 0.78676 0.88163 0.0
C37 C 0.62534 0.8414 0.84687 0.0
O38 O 0.57283 0.91701 0.87577 0.0
C39 C 0.56004 0.79217 0.91091 0.0
O40 O 0.56355 0.886 0.90845 0.0
O41 O 0.57128 0.81916 0.92277 0.0
C42 C 0.47617 0.26293 0.25326 0.0
O43 O 0.48465 0.24041 0.26028 0.0
Cd44 Cd 0.53067 0.23907 0.23474 0.0
O45 O 0.49289 0.27867 0.23693 0.0
Cd46 Cd 0.54186 0.26827 0.21235 0.0
C47 C 0.52645 0.19353 0.17801 0.0
O48 O 0.58474 0.26121 0.25568 0.0
O49 O 0.59786 0.28592 0.21946 0.0
O50 O 0.54695 0.31982 0.20267 0.0
C51 C 0.60629 0.27596 0.2434 0.0
O52 O 0.52684 0.19023 0.20615 0.0
C53 C 0.54635 0.31381 0.17349 0.0
O54 O 0.52929 0.21983 0.17194 0.0
O55 O 0.54283 0.28665 0.16231 0.0
C56 C 0.0503 0.79271 0.16363 0.0
O57 O 0.06807 0.7791 0.17644 0.0
Cd58 Cd 0.1175 0.77549 0.16928 0.0
O59 O 0.0581 0.80811 0.14239 0.0
Cd60 Cd 0.10424 0.82066 0.11228 0.0
C61 C 0.0954 0.73853 0.0933 0.0
O62 O 0.13731 0.8237 0.16019 0.0
O63 O 0.16338 0.82693 0.12294 0.0
O64 O 0.10283 0.87669 0.11768 0.0
C65 C 0.16323 0.82626 0.1518 0.0
O66 O 0.1051 0.73943 0.12176 0.0
C67 C 0.09558 0.87897 0.08948 0.0
O68 O 0.09188 0.76262 0.08321 0.0
O69 O 0.0925 0.85477 0.07081 0.0
C70 C 0.45048 0.77884 0.40887 0.0
O71 O 0.46886 0.79633 0.39602 0.0
Cd72 Cd 0.52171 0.81683 0.40826 0.0
O73 O 0.45971 0.76877 0.43328 0.0
Cd74 Cd 0.51298 0.77395 0.46887 0.0
C75 C 0.52413 0.85608 0.48229 0.0
O76 O 0.53671 0.77563 0.42286 0.0
O77 O 0.56909 0.78641 0.46404 0.0
O78 O 0.50194 0.71663 0.46789 0.0
C79 C 0.56427 0.78253 0.43468 0.0
O80 O 0.52759 0.85458 0.45379 0.0
C81 C 0.51504 0.71586 0.49477 0.0
O82 O 0.5175 0.8319 0.49437 0.0
O83 O 0.52517 0.74151 0.51131 0.0
C84 C 0.55627 0.30412 0.67476 0.0
O85 O 0.57513 0.29231 0.68865 0.0
Cd86 Cd 0.62062 0.28267 0.67486 0.0
O87 O 0.56118 0.31447 0.64961 0.0
Cd88 Cd 0.60427 0.3227 0.61492 0.0
C89 C 0.59221 0.24049 0.60103 0.0
O90 O 0.64131 0.32876 0.66102 0.0
O91 O 0.66266 0.32517 0.62045 0.0
O92 O 0.60609 0.3794 0.61798 0.0
C93 C 0.66558 0.32825 0.64994 0.0
O94 O 0.60266 0.24352 0.62966 0.0
C95 C 0.59555 0.38033 0.59022 0.0
O96 O 0.58962 0.26375 0.58874 0.0
O97 O 0.58929 0.35505 0.57271 0.0
C98 C 0.95358 0.27815 0.90567 0.0
O99 O 0.97336 0.29535 0.89398 0.0
Cd100 Cd 0.02597 0.31438 0.90814 0.0
O101 O 0.96113 0.26764 0.93038 0.0
Cd102 Cd 0.01373 0.27256 0.96774 0.0
C103 C 0.02628 0.35458 0.98084 0.0
O104 O 0.03881 0.27209 0.92264 0.0
O105 O 0.07024 0.28668 0.96441 0.0
O106 O 1.00237 0.21528 0.9675 0.0
C107 C 0.06616 0.28006 0.93511 0.0
O108 O 0.03127 0.35284 0.95279 0.0
C109 C 0.01542 0.21472 0.99445 0.0
O110 O 0.0182 0.33051 0.99278 0.0
O111 O 0.02559 0.24049 0.01074 0.0
C112 C 0.45099 0.05426 0.36684 0.0
O113 O 0.46376 0.04679 0.34382 0.0
Cd114 Cd 0.44188 0.02991 0.29162 0.0
O115 O 0.4229 0.05462 0.36342 0.0
Cd116 Cd 0.38143 0.04529 0.31845 0.0
C117 C 0.38312 0.97367 0.3047 0.0
O118 O 0.41276 0.06398 0.28182 0.0
O119 O 0.36991 0.03554 0.26092 0.0
O120 O 0.36184 0.08719 0.33792 0.0
C121 C 0.39539 0.05115 0.25715 0.0
O122 O 0.40722 0.98184 0.29259 0.0
C123 C 0.33418 0.07266 0.33345 0.0
O124 O 0.37048 0.99256 0.31788 0.0
O125 O 0.32882 0.04507 0.32348 0.0
C126 C 0.32112 0.16624 0.56478 0.0
O127 O 0.29987 0.15581 0.57967 0.0
Cd128 Cd 0.24871 0.15902 0.5746 0.0
O129 O 0.31721 0.18274 0.54443 0.0
Cd130 Cd 0.27447 0.20546 0.52574 0.0
C131 C 0.26753 0.23329 0.60225 0.0
O132 O 0.24003 0.15784 0.52081 0.0
O133 O 0.21685 0.19154 0.51323 0.0
O134 O 0.29076 0.20406 0.47317 0.0
C135 C 0.21511 0.16425 0.51391 0.0
O136 O 0.25255 0.2074 0.60432 0.0
C137 C 0.29005 0.23044 0.47009 0.0
O138 O 0.28005 0.23843 0.57811 0.0
O139 O 0.2831 0.24576 0.49311 0.0
C140 C 0.10493 0.07443 0.86403 0.0
O141 O 0.09211 0.09259 0.8524 0.0
Cd142 Cd 0.10006 0.10339 0.80083 0.0
O143 O 0.12273 0.06283 0.84864 0.0
Cd144 Cd 0.14158 0.0709 0.79631 0.0
C145 C 0.17133 0.14464 0.80743 0.0
O146 O 0.09467 0.06373 0.75689 0.0
O147 O 0.13722 0.08643 0.74474 0.0
O148 O 0.14593 0.01927 0.78384 0.0
C149 C 0.10949 0.07348 0.73592 0.0
O150 O 0.14348 0.14495 0.80167 0.0
C151 C 0.17454 0.02597 0.78419 0.0
O152 O 0.17825 0.12031 0.81077 0.0
O153 O 0.18775 0.05332 0.79073 0.0
C154 C 0.34011 0.98191 0.0066 0.0
O155 O 0.32229 -0.00526 0.9926 0.0
Cd156 Cd 0.26899 0.97494 0.99173 0.0
O157 O 0.32972 0.95907 0.01843 0.0
Cd158 Cd 0.28377 0.92509 0.02717 0.0
C159 C 0.26119 0.90668 0.94977 0.0
O160 O 0.27013 0.96904 0.04636 0.0
O161 O 0.23795 0.92875 0.05127 0.0
O162 O 0.32309 0.91827 0.06487 0.0
C163 C 0.24729 0.95675 0.05796 0.0
O164 O 0.25822 0.93286 0.94886 0.0
C165 C 0.31144 0.89089 0.06396 0.0
O166 O 0.26937 0.89917 0.97534 0.0
O167 O 0.28602 0.87978 0.04692 0.0
C168 C 0.37563 0.4467 0.05163 0.0
O169 O 0.35583 0.45558 0.03542 0.0
Cd170 Cd 0.30413 0.433 0.02084 0.0
O171 O 0.36826 0.4227 0.06304 0.0
Cd172 Cd 0.31692 0.38569 0.06308 0.0
C173 C 0.31074 0.36498 0.9843 0.0
O174 O 0.28904 0.42337 0.06874 0.0
O175 O 0.26121 0.38171 0.04547 0.0
O176 O 0.32875 0.38758 0.11999 0.0
C177 C 0.26271 0.40813 0.05775 0.0
O178 O 0.30219 0.38893 0.98363 0.0
C179 C 0.31673 0.36062 0.12103 0.0
O180 O 0.32012 0.35788 0.01014 0.0
O181 O 0.3065 0.34418 0.09486 0.0
C182 C 0.82027 0.09487 0.06035 0.0
O183 O 0.81006 0.08629 0.08429 0.0
Cd184 Cd 0.77462 0.10403 0.11426 0.0
O185 O 0.81336 0.11675 0.04961 0.0
Cd186 Cd 0.7812 0.15012 0.06191 0.0
C187 C 0.80386 0.17662 0.14041 0.0
O188 O 0.73953 0.11351 0.07513 0.0
O189 O 0.72892 0.13622 0.03759 0.0
O190 O 0.79459 0.16833 0.01494 0.0
C191 C 0.71976 0.11752 0.0548 0.0
O192 O 0.79768 0.15082 0.14774 0.0
C193 C 0.78763 0.1929 0.02215 0.0
O194 O 0.79955 0.18031 0.11235 0.0
O195 O 0.77915 0.19788 0.04853 0.0
C196 C 0.12442 0.56624 0.28714 0.0
O197 O 0.10932 0.56978 0.2625 0.0
Cd198 Cd 0.12593 0.56388 0.21326 0.0
O199 O 0.14881 0.55735 0.28651 0.0
Cd200 Cd 0.18272 0.54261 0.2513 0.0
C201 C 0.19429 0.61387 0.23974 0.0
O202 O 0.14176 0.51876 0.21282 0.0
O203 O 0.18458 0.52535 0.19575 0.0
O204 O 0.19601 0.50754 0.28302 0.0
C205 C 0.15588 0.51585 0.18996 0.0
O206 O 0.16906 0.608 0.22176 0.0
C207 C 0.2245 0.51752 0.28368 0.0
O208 O 0.2028 0.59425 0.25325 0.0
O209 O 0.23301 0.53851 0.26867 0.0
C210 C 0.87719 0.94624 0.55512 0.0
O211 O 0.86069 0.95657 0.53649 0.0
Cd212 Cd 0.8099 0.93817 0.51491 0.0
O213 O 0.86663 0.92252 0.56608 0.0
Cd214 Cd 0.81389 0.88701 0.56389 0.0
C215 C 0.8135 0.86663 0.48405 0.0
O216 O 0.79327 0.92821 0.56151 0.0
O217 O 0.75804 0.88838 0.55311 0.0
O218 O 0.82346 0.89074 0.62147 0.0
C219 C 0.76528 0.91645 0.55622 0.0
O220 O 0.81038 0.89251 0.48144 0.0
C221 C 0.81173 0.86379 0.6229 0.0
O222 O 0.81597 0.8582 0.51065 0.0
O223 O 0.80259 0.84677 0.59688 0.0
C224 C 1.00576 0.02578 0.34159 0.0
O225 O 0.01863 0.0103 0.32399 0.0
Cd226 Cd 1.00051 -0.00204 0.26849 0.0
O227 O 0.98472 0.03649 0.32948 0.0
Cd228 Cd 0.95774 0.03575 0.27495 0.0
C229 C 0.92763 0.96149 0.26904 0.0
O230 O 0.99967 0.04011 0.2412 0.0
O231 O 0.954 0.02852 0.21699 0.0
O232 O 0.9547 0.08742 0.29214 0.0
C233 C 0.98227 0.03575 0.21544 0.0
O234 O 0.95348 0.9587 0.26258 0.0
C235 C 0.92587 0.08186 0.28626 0.0
O236 O 0.92322 0.98722 0.27602 0.0
O237 O 0.91226 0.05537 0.27437 0.0
C238 C 0.32739 0.59831 0.56448 0.0
O239 O 0.32089 0.58944 0.58953 0.0
Cd240 Cd 0.28573 0.60477 0.61992 0.0
O241 O 0.31695 0.61901 0.55492 0.0
Cd242 Cd 0.28323 0.64961 0.5739 0.0
C243 C 0.31667 0.67827 0.64624 0.0
O244 O 0.2452 0.60645 0.58179 0.0
O245 O 0.23656 0.64907 0.59643 0.0
O246 O 0.26764 0.65484 0.52008 0.0
C247 C 0.22712 0.62113 0.59161 0.0
O248 O 0.3064 0.65251 0.65252 0.0
C249 C 0.27095 0.6827 0.52619 0.0
O250 O 0.3149 0.68269 0.6183 0.0
O251 O 0.28057 0.69487 0.55407 0.0
C252 C 0.50512 0.52818 0.83975 0.0
O253 O 0.5165 0.51092 0.82249 0.0
Cd254 Cd 0.49951 0.49799 0.76686 0.0
O255 O 0.48482 0.53967 0.82748 0.0
Cd256 Cd 0.45657 0.53543 0.77274 0.0
C257 C 0.42766 0.46074 0.76795 0.0
O258 O 0.49861 0.53992 0.73916 0.0
O259 O 0.45302 0.52814 0.71477 0.0
O260 O 0.45092 0.58641 0.78817 0.0
C261 C 0.4813 0.5355 0.71334 0.0
O262 O 0.45326 0.45796 0.76074 0.0
C263 C 0.42202 0.57941 0.7825 0.0
O264 O 0.42333 0.48648 0.7751 0.0
O265 O 0.40957 0.55246 0.77144 0.0
C266 C 0.63017 0.0846 0.78888 0.0
O267 O 0.61457 0.08469 0.76316 0.0
Cd268 Cd 0.62689 0.07079 0.71353 0.0
O269 O 0.65392 0.07443 0.79009 0.0
Cd270 Cd 0.68391 0.05146 0.7545 0.0
C271 C 0.69838 0.11795 0.72984 0.0
O272 O 0.64049 0.02569 0.71957 0.0
O273 O 0.68171 0.0256 0.70065 0.0
O274 O 0.69607 0.0186 0.78981 0.0
C275 C 0.65286 0.01821 0.69652 0.0
O276 O 0.67129 0.11225 0.71571 0.0
C277 C 0.72461 0.02687 0.78958 0.0
O278 O 0.70748 0.09969 0.74511 0.0
O279 O 0.73373 0.04625 0.77288 0.0
C280 C 0.82217 0.66543 0.06167 0.0
O281 O 0.80085 0.6548 0.07638 0.0
Cd282 Cd 0.75003 0.65939 0.07127 0.0
O283 O 0.81849 0.68278 0.04218 0.0
Cd284 Cd 0.77602 0.70674 0.02548 0.0
C285 C 0.76861 0.73269 0.1023 0.0
O286 O 0.74016 0.65897 0.01739 0.0
O287 O 0.71844 0.69451 0.01466 0.0
O288 O 0.78996 0.70644 0.97222 0.0
C289 C 0.71568 0.6667 0.01202 0.0
O290 O 0.75319 0.70668 0.1032 0.0
C291 C 0.79194 0.73365 0.97084 0.0
O292 O 0.78167 0.73851 0.07865 0.0
O293 O 0.78744 0.74912 -0.00485 0.0
C294 C 0.95448 0.5557 0.86121 0.0
O295 O 0.96675 0.55014 0.83722 0.0
Cd296 Cd 0.94371 0.53559 0.78483 0.0
O297 O 0.92613 0.55489 0.85915 0.0
Cd298 Cd 0.88241 0.54486 0.81668 0.0
C299 C 0.89033 0.47525 0.79781 0.0
O300 O 0.91024 0.56664 0.77933 0.0
O301 O 0.8668 0.53848 0.76 0.0
O302 O 0.86029 0.58255 0.84152 0.0
C303 C 0.8918 0.55418 0.75519 0.0
O304 O 0.91257 0.48535 0.78379 0.0
C305 C 0.83313 0.56669 0.8354 0.0
O306 O 0.87746 0.49243 0.81347 0.0
O307 O 0.82931 0.53999 0.82259 0.0
C308 C 0.85603 0.48537 0.49802 0.0
O309 O 0.84072 0.5018 0.48647 0.0
Cd310 Cd 0.78681 0.48657 0.48658 0.0
O311 O 0.84285 0.46298 0.50907 0.0
Cd312 Cd 0.79524 0.43384 0.52023 0.0
C313 C 0.77129 0.41726 0.44376 0.0
O314 O 0.78474 0.4795 0.54078 0.0
O315 O 0.74995 0.44009 0.54291 0.0
O316 O 0.83227 0.42358 0.55813 0.0
C317 C 0.76058 0.46785 0.55081 0.0
O318 O 0.77233 0.44453 0.44339 0.0
C319 C 0.81872 0.39651 0.55626 0.0
O320 O 0.77763 0.40832 0.46899 0.0
O321 O 0.79335 0.38729 0.53873 0.0
C322 C 0.60516 0.57398 0.36248 0.0
O323 O 0.59358 0.59312 0.35118 0.0
Cd324 Cd 0.60142 0.60541 0.30001 0.0
O325 O 0.62239 0.56157 0.34705 0.0
Cd326 Cd 0.64318 0.57012 0.29579 0.0
C327 C 0.6732 0.64497 0.30786 0.0
O328 O 0.59646 0.56635 0.25572 0.0
O329 O 0.64104 0.57998 0.24259 0.0
O330 O 0.64983 0.519 0.28318 0.0
C331 C 0.61256 0.57214 0.23428 0.0
O332 O 0.64558 0.64617 0.30266 0.0
C333 C 0.67872 0.52678 0.2871 0.0
O334 O 0.67945 0.6201 0.3098 0.0
O335 O 0.69073 0.55422 0.29565 0.0
Dy336 Dy 0.08686 0.06683 0.06119 0.0
Dy337 Dy 0.02495 0.02764 0.02193 0.0
C338 C 0.07952 0.05093 0.98738 0.0
O339 O 0.06172 0.10287 0.05352 0.0
O340 O 0.02357 0.07542 0.01565 0.0
O341 O 0.13508 0.08174 0.06188 0.0
O342 O 0.1142 0.09678 0.10113 0.0
O343 O 0.01213 0.03936 0.06991 0.0
O344 O 0.05956 0.05315 0.09824 0.0
O345 O 0.0449 0.99097 0.03798 0.0
O346 O 0.09139 0.01878 0.06273 0.0
O347 O 0.98213 -0.00493 0.01654 0.0
O348 O 0.9965 0.01517 0.97741 0.0
C349 C 0.03899 0.10162 0.03149 0.0
O350 O 0.08806 0.07243 0.01114 0.0
O351 O 0.06071 0.02632 0.99061 0.0
C352 C 0.16047 0.08267 0.11045 0.0
C353 C 0.19563 0.04221 0.12071 0.0
C354 C 0.20875 0.0695 0.11184 0.0
C355 C 0.19121 0.08964 0.1068 0.0
C356 C 0.14881 0.05789 0.12416 0.0
C357 C 0.16644 0.03786 0.12954 0.0
C358 C 0.13952 0.09436 0.09087 0.0
C359 C 0.02994 0.04547 0.0969 0.0
C360 C 0.07171 0.99253 0.05374 0.0
C361 C 0.94513 0.00835 0.98445 0.0
C362 C 0.89486 0.03091 -0.00403 0.0
C363 C 0.92021 0.04884 0.98657 0.0
C364 C 0.94519 0.03767 0.98092 0.0
C365 C 0.91861 0.9895 0.99049 0.0
C366 C 0.89355 0.00073 -0.00379 0.0
C367 C 0.97397 -0.00044 0.98859 0.0
H368 H 0.23121 0.07379 0.10493 0.0
H369 H 0.20053 0.10862 0.09615 0.0
H370 H 0.12505 0.05209 0.12723 0.0
H371 H 0.15611 0.01749 0.13736 0.0
H372 H 0.92198 0.07222 0.98634 0.0
H373 H 0.96539 0.05275 0.97635 0.0
H374 H 0.91818 0.96682 0.99328 0.0
H375 H 0.874 0.98635 0.0029 0.0
Dy376 Dy 0.32085 0.78299 0.25813 0.0
Dy377 Dy 0.27926 0.79578 0.31136 0.0
C378 C 0.32584 0.84901 0.29201 0.0
O379 O 0.33758 0.76382 0.29934 0.0
O380 O 0.32447 0.79491 0.33693 0.0
O381 O 0.36599 0.78668 0.24577 0.0
O382 O 0.32675 0.76137 0.21349 0.0
O383 O 0.27355 0.74682 0.30022 0.0
O384 O 0.28009 0.74555 0.24964 0.0
O385 O 0.25119 0.79796 0.26666 0.0
O386 O 0.28748 0.80502 0.23399 0.0
O387 O 0.23643 0.78373 0.32881 0.0
O388 O 0.27297 0.81912 0.35495 0.0
C389 C 0.34129 0.77674 0.32848 0.0
O390 O 0.34018 0.82994 0.28008 0.0
O391 O 0.29899 0.8405 0.30059 0.0
C392 C 0.36524 0.79117 0.19305 0.0
C393 C 0.36422 0.8236 0.14405 0.0
C394 C 0.37084 0.83833 0.17486 0.0
C395 C 0.37121 0.82223 0.1992 0.0
C396 C 0.36205 0.77673 0.16243 0.0
C397 C 0.36157 0.79288 0.13799 0.0
C398 C 0.35574 0.7739 0.21723 0.0
C399 C 0.26842 0.73282 0.27163 0.0
C400 C 0.25964 0.80475 0.24017 0.0
C401 C 0.24467 0.78588 0.38325 0.0
C402 C 0.24728 0.75314 0.43243 0.0
C403 C 0.22552 0.74195 0.40587 0.0
C404 C 0.22417 0.75818 0.38155 0.0
C405 C 0.26508 0.79787 0.41066 0.0
C406 C 0.26646 0.78162 0.43492 0.0
C407 C 0.24698 0.80066 0.35559 0.0
H408 H 0.37273 0.86194 0.1803 0.0
H409 H 0.37352 0.8339 0.22264 0.0
H410 H 0.35735 0.75277 0.15731 0.0
H411 H 0.35682 0.78109 0.11439 0.0
H412 H 0.20998 0.72034 0.40357 0.0
H413 H 0.20785 0.74849 0.36094 0.0
H414 H 0.28098 0.81927 0.41288 0.0
H415 H 0.28359 0.79085 0.45499 0.0
Dy416 Dy 0.52106 0.04419 0.555 0.0
Dy417 Dy 0.5825 0.05215 0.52223 0.0
C418 C 0.52015 0.05721 0.48464 0.0
O419 O 0.5178 -0.00373 0.53352 0.0
O420 O 0.56634 0.00232 0.52154 0.0
O421 O 0.47258 0.02948 0.55413 0.0
O422 O 0.5011 0.05478 0.59611 0.0
O423 O 0.596 0.05375 0.5725 0.0
O424 O 0.55253 0.02536 0.58408 0.0
O425 O 0.5778 0.09979 0.53127 0.0
O426 O 0.54635 0.0931 0.56837 0.0
O427 O 0.63093 0.06997 0.5249 0.0
O428 O 0.606 0.03871 0.48479 0.0
C429 C 0.53995 0.98476 0.52427 0.0
O430 O 0.50741 0.05763 0.50995 0.0
O431 O 0.54732 0.05259 0.48363 0.0
C432 C 0.45451 0.06619 0.58208 0.0
C433 C 0.41673 0.10597 0.57977 0.0
C434 C 0.44416 0.11144 0.56727 0.0
C435 C 0.4629 0.09171 0.56843 0.0
C436 C 0.42743 0.06077 0.59489 0.0
C437 C 0.40867 0.0805 0.59376 0.0
C438 C 0.47342 0.04473 0.58144 0.0
C439 C 0.5821 0.03537 0.58917 0.0
C440 C 0.56427 0.11105 0.55345 0.0
C441 C 0.65158 0.03066 0.50689 0.0
C442 C 0.6862 0.98978 0.51893 0.0
C443 C 0.66063 0.99073 0.53374 0.0
C444 C 0.64361 0.01109 0.52789 0.0
C445 C 0.67677 0.02954 0.49162 0.0
C446 C 0.6941 0.00929 0.49772 0.0
C447 C 0.63263 0.05126 0.50078 0.0
H448 H 0.45111 0.13092 0.55656 0.0
H449 H 0.48377 0.09615 0.5583 0.0
H450 H 0.42054 0.04105 0.60526 0.0
H451 H 0.38742 0.07536 0.60313 0.0
H452 H 0.65434 0.97635 0.55054 0.0
H453 H 0.6243 0.01174 0.54004 0.0
H454 H 0.68308 0.04432 0.4752 0.0
H455 H 0.71372 0.00892 0.48594 0.0
Dy456 Dy 0.3297 0.28893 0.79446 0.0
Dy457 Dy 0.27174 0.32008 0.79152 0.0
C458 C 0.3379 0.35544 0.78204 0.0
O459 O 0.33042 0.31275 0.84302 0.0
O460 O 0.2795 0.30848 0.83876 0.0
O461 O 0.37702 0.29355 0.81152 0.0
O462 O 0.35155 0.25384 0.78046 0.0
O463 O 0.25162 0.27141 0.78591 0.0
O464 O 0.29169 0.25443 0.80667 0.0
O465 O 0.27723 0.31114 0.7413 0.0
O466 O 0.30829 0.27864 0.74457 0.0
O467 O 0.22673 0.3236 0.77406 0.0
O468 O 0.25268 0.35389 0.81448 0.0
C469 C 0.30593 0.31377 0.85605 0.0
O470 O 0.34404 0.32982 0.77398 0.0
O471 O 0.31347 0.35722 0.79479 0.0
C472 C 0.40228 0.27396 0.7731 0.0
C473 C 0.45048 0.28703 0.73764 0.0
C474 C 0.42284 0.29457 0.72949 0.0
C475 C 0.399 0.28818 0.74715 0.0
C476 C 0.42939 0.26564 0.78072 0.0
C477 C 0.45319 0.27201 0.76316 0.0
C478 C 0.37844 0.26966 0.79343 0.0
C479 C 0.26235 0.25087 0.79771 0.0
C480 C 0.29087 0.29174 0.7283 0.0
C481 C 0.20082 0.33408 0.81684 0.0
C482 C 0.15773 0.31603 0.85665 0.0
C483 C 0.16075 0.29627 0.83083 0.0
C484 C 0.182 0.30516 0.81119 0.0
C485 C 0.19758 0.354 0.84239 0.0
C486 C 0.17631 0.34507 0.86213 0.0
C487 C 0.22583 0.34256 0.79837 0.0
H488 H 0.42 0.30623 0.71013 0.0
H489 H 0.37825 0.29494 0.74096 0.0
H490 H 0.43239 0.25467 0.80062 0.0
H491 H 0.47389 0.26534 0.76976 0.0
H492 H 0.14709 0.27364 0.82611 0.0
H493 H 0.18405 0.2891 0.79194 0.0
H494 H 0.21194 0.37634 0.84742 0.0
H495 H 0.1743 0.36095 0.88158 0.0
Dy496 Dy 0.06413 0.01939 0.53921 0.0
Dy497 Dy 0.03665 0.07919 0.54317 0.0
C498 C 0.99601 0.0168 0.55277 0.0
O499 O 0.05614 0.02623 0.48933 0.0
O500 O 0.02154 0.05489 0.49429 0.0
O501 O 0.06174 0.97347 0.5215 0.0
O502 O 0.09788 -0.00195 0.55785 0.0
O503 O 0.07771 0.08968 0.52016 0.0
O504 O 0.10381 0.0583 0.53985 0.0
O505 O 0.06486 0.08143 0.58936 0.0
O506 O 0.05779 0.03172 0.58872 0.0
O507 O 0.04287 0.12525 0.56234 0.0
O508 O 1.00297 0.10294 0.52934 0.0
C509 C 0.0355 0.03866 0.47689 0.0
O510 O 0.01407 0.00366 0.53794 0.0
O511 O 1.00246 0.04577 0.56122 0.0
C512 C 0.07671 0.94758 0.56165 0.0
C513 C 0.06386 0.90252 0.59913 0.0
C514 C 0.04323 0.90286 0.573 0.0
C515 C 0.04953 0.9251 0.55454 0.0
C516 C 0.09751 0.94697 0.58749 0.0
C517 C 0.09113 0.92486 0.60604 0.0
C518 C 0.08337 0.97189 0.54279 0.0
C519 C 0.1032 0.08219 0.52725 0.0
C520 C 0.06496 0.05881 0.60409 0.0
C521 C 0.02608 0.15295 0.52542 0.0
C522 C 0.03756 0.19923 0.48951 0.0
C523 C 0.06165 0.19187 0.50701 0.0
C524 C 0.05601 0.16901 0.52467 0.0
C525 C 1.00197 0.16033 0.50806 0.0
C526 C 0.00763 0.18313 0.49022 0.0
C527 C 0.01988 0.12841 0.54384 0.0
H528 H 0.02191 0.88619 0.56708 0.0
H529 H 0.03291 0.92476 0.53485 0.0
H530 H 0.11877 0.96376 0.5935 0.0
H531 H 0.10778 0.92508 0.62566 0.0
H532 H 0.08499 0.20348 0.50669 0.0
H533 H 0.07521 0.16388 0.53761 0.0
H534 H 0.9787 0.1484 0.50824 0.0
H535 H 0.98851 0.18839 0.47727 0.0
Dy536 Dy 0.29896 0.82985 0.7723 0.0
Dy537 Dy 0.2931 0.77271 0.80997 0.0
C538 C 0.28205 0.83367 0.84258 0.0
O539 O 0.34762 0.83505 0.79418 0.0
O540 O 0.34386 0.78971 0.80989 0.0
O541 O 0.31522 0.87656 0.77153 0.0
O542 O 0.28591 0.84814 0.73171 0.0
O543 O 0.29059 0.75718 0.75977 0.0
O544 O 0.31814 0.79771 0.74338 0.0
O545 O 0.24436 0.77745 0.80146 0.0
O546 O 0.25 0.80272 0.76033 0.0
O547 O 0.27458 0.72581 0.80902 0.0
O548 O 0.30798 0.75129 0.84732 0.0
C549 C 0.36048 0.8152 0.80508 0.0
O550 O 0.28162 0.84355 0.81603 0.0
O551 O 0.28969 0.8089 0.84643 0.0
C552 C 0.27781 0.8956 0.74671 0.0
C553 C 0.24221 0.93723 0.75564 0.0
C554 C 0.23461 0.91 0.76653 0.0
C555 C 0.25226 0.88942 0.76213 0.0
C556 C 0.28511 0.92233 0.73513 0.0
C557 C 0.26743 0.94296 0.73948 0.0
C558 C 0.29817 0.87538 0.74537 0.0
C559 C 0.30892 0.76895 0.74146 0.0
C560 C 0.23231 0.78784 0.77782 0.0
C561 C 0.31319 0.70386 0.82712 0.0
C562 C 0.34914 0.66326 0.81314 0.0
C563 C 0.35741 0.6923 0.8066 0.0
C564 C 0.33962 0.71231 0.81346 0.0
C565 C 0.30482 0.675 0.83383 0.0
C566 C 0.32263 0.65486 0.82691 0.0
C567 C 0.29386 0.72483 0.83279 0.0
H568 H 0.21566 0.90498 0.77941 0.0
H569 H 0.24646 0.86899 0.77154 0.0
H570 H 0.30486 0.92753 0.72334 0.0
H571 H 0.27367 0.96351 0.73042 0.0
H572 H 0.37731 0.69942 0.79554 0.0
H573 H 0.34631 0.73431 0.80762 0.0
H574 H 0.28443 0.66798 0.8442 0.0
H575 H 0.31573 0.63276 0.83252 0.0
Dy576 Dy 0.52824 0.06972 0.01154 0.0
Dy577 Dy 0.53294 0.02692 0.06368 0.0
C578 C 0.54315 0.00565 0.99309 0.0
O579 O 0.4832 0.03834 0.00462 0.0
O580 O 0.4847 0.02964 0.05446 0.0
O581 O 0.51181 0.07822 0.96661 0.0
O582 O 0.54019 0.11405 0.00078 0.0
O583 O 0.53845 0.07283 0.09005 0.0
O584 O 0.51267 0.09178 0.05337 0.0
O585 O 0.58068 0.04025 0.05442 0.0
O586 O 0.57573 0.08219 0.0349 0.0
O587 O 0.54967 0.01897 0.10892 0.0
O588 O 0.51571 0.9847 0.07779 0.0
C589 C 0.46952 0.02896 0.02723 0.0
O590 O 0.54699 0.03322 0.98774 0.0
O591 O 0.53326 -0.00202 0.01864 0.0
C592 C 0.54937 0.11215 0.94965 0.0
C593 C 0.58501 0.11732 0.90174 0.0
C594 C 0.59048 0.09994 0.92439 0.0
C595 C 0.57283 0.09745 0.94819 0.0
C596 C 0.54505 0.13111 0.92852 0.0
C597 C 0.56295 0.13386 0.90473 0.0
C598 C 0.5283 0.10543 0.9718 0.0
C599 C 0.52463 0.09312 0.08228 0.0
C600 C 0.59243 0.06534 0.04539 0.0
C601 C 0.50723 -0.00523 0.12979 0.0
C602 C 0.46666 0.01047 0.16925 0.0
C603 C 0.45549 0.99316 0.13997 0.0
C604 C 0.47556 0.98523 0.1205 0.0
C605 C 0.51821 0.00977 0.16011 0.0
C606 C 0.49812 0.01754 0.17965 0.0
C607 C 0.52831 -0.00538 0.1065 0.0
H608 H 0.60692 0.08659 0.92263 0.0
H609 H 0.5764 0.08276 0.96451 0.0
H610 H 0.52712 0.14277 0.92967 0.0
H611 H 0.5586 0.1478 0.88787 0.0
H612 H 0.43139 0.98714 0.13134 0.0
H613 H 0.46625 0.97327 0.09743 0.0
H614 H 0.54244 0.01715 0.16801 0.0
H615 H 0.50735 0.03003 0.20255 0.0
Dy616 Dy 0.28441 0.26648 0.2803 0.0
Dy617 Dy 0.32012 0.33194 0.3158 0.0
C618 C 0.30545 0.27599 0.3536 0.0
O619 O 0.24985 0.28558 0.30519 0.0
O620 O 0.27055 0.33501 0.30888 0.0
O621 O 0.2406 0.23557 0.2647 0.0
O622 O 0.28175 0.22305 0.25512 0.0
O623 O 0.31534 0.33852 0.26598 0.0
O624 O 0.28624 0.29303 0.2412 0.0
O625 O 0.35912 0.31073 0.30586 0.0
O626 O 0.33355 0.2675 0.27375 0.0
O627 O 0.35514 0.37254 0.32061 0.0
O628 O 0.3273 0.36502 0.35674 0.0
C629 C 0.24693 0.31313 0.31017 0.0
O630 O 0.29953 0.25729 0.32746 0.0
O631 O 0.31113 0.30473 0.35381 0.0
C632 C 0.24502 0.18757 0.27107 0.0
C633 C 0.25264 0.14145 0.30332 0.0
C634 C 0.24933 0.16819 0.31944 0.0
C635 C 0.24561 0.19116 0.3034 0.0
C636 C 0.24445 0.15975 0.25464 0.0
C637 C 0.24808 0.13673 0.27066 0.0
C638 C 0.25279 0.21382 0.25604 0.0
C639 C 0.30139 0.32034 0.24051 0.0
C640 C 0.35933 0.28653 0.28674 0.0
C641 C 0.33901 0.41326 0.34492 0.0
C642 C 0.31066 0.45935 0.33627 0.0
C643 C 0.32891 0.45057 0.31482 0.0
C644 C 0.343 0.42771 0.3191 0.0
C645 C 0.32358 0.42429 0.36804 0.0
C646 C 0.30932 0.44706 0.36365 0.0
C647 C 0.3466 0.38443 0.34559 0.0
H648 H 0.25244 0.17229 0.34456 0.0
H649 H 0.24608 0.21253 0.31656 0.0
H650 H 0.24422 0.15667 0.22973 0.0
H651 H 0.25072 0.11644 0.25756 0.0
H652 H 0.33031 0.45965 0.29346 0.0
H653 H 0.35515 0.42006 0.30106 0.0
H654 H 0.32067 0.41389 0.38846 0.0
H655 H 0.29579 0.45386 0.38077 0.0
Dy656 Dy 0.56424 0.52202 0.0363 0.0
Dy657 Dy 0.53675 0.58212 0.04279 0.0
C658 C 0.49584 0.5192 0.05035 0.0
O659 O 0.54292 0.52208 0.98764 0.0
O660 O 0.53749 0.57001 0.99164 0.0
O661 O 0.55746 0.47511 0.02023 0.0
O662 O 0.59895 0.49946 0.04973 0.0
O663 O 0.58635 0.5974 0.04196 0.0
O664 O 0.59856 0.55579 0.01819 0.0
O665 O 0.54429 0.57202 0.09166 0.0
O666 O 0.58211 0.54825 0.08363 0.0
O667 O 0.54229 0.62819 0.06242 0.0
O668 O 0.50291 0.60536 0.02909 0.0
C669 C 0.53687 0.54439 0.97488 0.0
O670 O 0.52052 0.50971 0.05589 0.0
O671 O 0.49658 0.5444 0.04023 0.0
C672 C 0.57752 0.45069 0.05791 0.0
C673 C 0.56701 0.40615 0.096 0.0
C674 C 0.55548 0.43153 0.10143 0.0
C675 C 0.56068 0.45353 0.08261 0.0
C676 C 0.58924 0.42562 0.05246 0.0
C677 C 0.58408 0.4036 0.07129 0.0
C678 C 0.58198 0.47333 0.03731 0.0
C679 C 0.60432 0.5848 0.02649 0.0
C680 C 0.56726 0.56175 0.10255 0.0
C681 C 0.52563 0.65469 0.02479 0.0
C682 C 0.53773 0.69978 0.98772 0.0
C683 C 0.5463 0.67299 0.98027 0.0
C684 C 0.54043 0.65076 -0.00132 0.0
C685 C 0.51713 0.68136 0.03244 0.0
C686 C 0.52319 0.70373 0.01414 0.0
C687 C 0.51916 0.63096 0.04385 0.0
H688 H 0.54192 0.43418 0.1199 0.0
H689 H 0.55129 0.47265 0.08715 0.0
H690 H 0.60228 0.423 0.03353 0.0
H691 H 0.59373 0.38467 0.06662 0.0
H692 H 0.55791 0.66934 0.9604 0.0
H693 H 0.54745 0.63044 0.9925 0.0
H694 H 0.50572 0.68483 0.0525 0.0
H695 H 0.51604 0.72396 0.02039 0.0
Dy696 Dy 0.80689 0.33412 0.27075 0.0
Dy697 Dy 0.80131 0.27816 0.30955 0.0
C698 C 0.79082 0.33966 0.34043 0.0
O699 O 0.85552 0.32945 0.28043 0.0
O700 O 0.8506 0.30456 0.32189 0.0
O701 O 0.82818 0.37926 0.26666 0.0
O702 O 0.79069 0.35364 0.23231 0.0
O703 O 0.82207 0.2673 0.2677 0.0
O704 O 0.80206 0.2941 0.23513 0.0
O705 O 0.75242 0.27363 0.28696 0.0
O706 O 0.75681 0.32022 0.27437 0.0
O707 O 0.78461 0.23105 0.30768 0.0
O708 O 0.81336 0.25769 0.34887 0.0
C709 C 0.86799 0.31957 0.30424 0.0
O710 O 0.80543 0.35235 0.31976 0.0
O711 O 0.78428 0.31086 0.33975 0.0
C712 C 0.79038 0.40354 0.24953 0.0
C713 C 0.75405 0.44431 0.26143 0.0
C714 C 0.77805 0.44313 0.28379 0.0
C715 C 0.79595 0.42298 0.27796 0.0
C716 C 0.76682 0.40516 0.2269 0.0
C717 C 0.74877 0.42522 0.23282 0.0
C718 C 0.80722 0.38007 0.2443 0.0
C719 C 0.8138 0.27175 0.23978 0.0
C720 C 0.73977 0.2944 0.27769 0.0
C721 C 0.82179 0.21066 0.33112 0.0
C722 C 0.85749 0.16946 0.31882 0.0
C723 C 0.86704 0.19878 0.31331 0.0
C724 C 0.84933 0.21912 0.3193 0.0
C725 C 0.81251 0.18173 0.33738 0.0
C726 C 0.83019 0.16133 0.33136 0.0
C727 C 0.80138 0.23092 0.33365 0.0
H728 H 0.78254 0.4573 0.30619 0.0
H729 H 0.81373 0.42227 0.29608 0.0
H730 H 0.76196 0.39046 0.20481 0.0
H731 H 0.7307 0.42584 0.21496 0.0
H732 H 0.88767 0.20574 0.30333 0.0
H733 H 0.8567 0.24123 0.31383 0.0
H734 H 0.79122 0.1747 0.34624 0.0
H735 H 0.82233 0.13909 0.33627 0.0
Dy736 Dy 0.04795 0.56901 0.53153 0.0
Dy737 Dy 0.04014 0.52155 0.57921 0.0
C738 C 0.05924 0.50313 0.5118 0.0
O739 O 1.00389 0.53703 0.51294 0.0
O740 O 0.99407 0.52413 0.55978 0.0
O741 O 0.03195 0.59221 0.4963 0.0
O742 O 0.07923 0.60458 0.51716 0.0
O743 O 0.03715 0.5651 0.60673 0.0
O744 O 0.02374 0.58903 0.56717 0.0
O745 O 0.08971 0.53752 0.5785 0.0
O746 O 0.08407 0.58311 0.57239 0.0
O747 O 0.05063 0.5103 0.62454 0.0
O748 O 0.01876 0.47844 0.58898 0.0
C749 C 0.98506 0.52512 0.53073 0.0
O750 O 0.06571 0.53137 0.50857 0.0
O751 O 0.0463 0.49425 0.5354 0.0
C752 C 0.06896 0.60357 0.46411 0.0
C753 C 0.08711 0.59487 0.40554 0.0
C754 C 0.09173 0.57608 0.42688 0.0
C755 C 0.08281 0.58046 0.4559 0.0
C756 C 0.06389 0.62229 0.44287 0.0
C757 C 0.07294 0.61794 0.41356 0.0
C758 C 0.05939 0.60716 0.49467 0.0
C759 C 0.0272 0.58709 0.59685 0.0
C760 C 0.10122 0.56598 0.58095 0.0
C761 C 1.00412 0.48676 0.63864 0.0
C762 C 0.96119 0.50602 0.67219 0.0
C763 C 0.95209 0.49035 0.64195 0.0
C764 C 0.97339 0.48077 0.62527 0.0
C765 C 0.01233 0.49955 0.67 0.0
C766 C 0.99107 0.50925 0.68659 0.0
C767 C 0.02812 0.48658 0.61868 0.0
H768 H 0.10205 0.55779 0.42106 0.0
H769 H 0.08688 0.56578 0.47198 0.0
H770 H 0.05304 0.64014 0.44895 0.0
H771 H 0.06923 0.6327 0.39737 0.0
H772 H 0.92908 0.48725 0.63049 0.0
H773 H 0.96615 0.47073 0.60119 0.0
H774 H 0.03574 0.50423 0.68093 0.0
H775 H 0.99836 0.5205 0.71029 0.0
Dy776 Dy 0.83124 0.78961 0.29447 0.0
Dy777 Dy 0.77236 0.8196 0.29238 0.0
C778 C 0.83767 0.85577 0.28154 0.0
O779 O 0.83281 0.81404 0.34287 0.0
O780 O 0.78186 0.80949 0.34023 0.0
O781 O 0.87925 0.79579 0.3094 0.0
O782 O 0.85329 0.75443 0.28148 0.0
O783 O 0.75348 0.77091 0.28729 0.0
O784 O 0.79421 0.75501 0.30814 0.0
O785 O 0.77738 0.81042 0.24192 0.0
O786 O 0.80893 0.77834 0.24493 0.0
O787 O 0.72594 0.82007 0.27628 0.0
O788 O 0.7527 0.85374 0.31351 0.0
C789 C 0.80873 0.81477 0.35671 0.0
O790 O 0.84391 0.83025 0.27315 0.0
O791 O 0.81343 0.85728 0.29475 0.0
C792 C 0.90286 0.77397 0.27068 0.0
C793 C 0.94683 0.7804 0.22962 0.0
C794 C 0.92222 0.79371 0.22613 0.0
C795 C 0.90036 0.79038 0.24638 0.0
C796 C 0.92741 0.76086 0.27437 0.0
C797 C 0.94914 0.764 0.25407 0.0
C798 C 0.88036 0.77108 0.29255 0.0
C799 C 0.76475 0.75097 0.29959 0.0
C800 C 0.79106 0.79108 0.22878 0.0
C801 C 0.70202 0.83325 0.31897 0.0
C802 C 0.65779 0.81826 0.35823 0.0
C803 C 0.68286 0.80551 0.35867 0.0
C804 C 0.70462 0.81279 0.33909 0.0
C805 C 0.67716 0.84616 0.31848 0.0
C806 C 0.65511 0.83862 0.33786 0.0
C807 C 0.7255 0.84095 0.29888 0.0
H808 H 0.91963 0.8063 0.2075 0.0
H809 H 0.88148 0.80064 0.24309 0.0
H810 H 0.92987 0.7483 0.29306 0.0
H811 H 0.96805 0.75387 0.25782 0.0
H812 H 0.68532 0.78943 0.3737 0.0
H813 H 0.72343 0.80228 0.33956 0.0
H814 H 0.67478 0.86199 0.30312 0.0
H815 H 0.6361 0.8489 0.33712 0.0
Dy816 Dy 0.82699 0.28417 0.75 0.0
Dy817 Dy 0.78667 0.29907 0.80414 0.0
C818 C 0.83635 0.35013 0.78367 0.0
O819 O 0.85619 0.28575 0.7951 0.0
O820 O 0.81965 0.276 0.82664 0.0
O821 O 0.87086 0.2872 0.73492 0.0
O822 O 0.83021 0.2606 0.70526 0.0
O823 O 0.76185 0.25643 0.77427 0.0
O824 O 0.80337 0.24116 0.76154 0.0
O825 O 0.76712 0.31799 0.76449 0.0
O826 O 0.78403 0.29213 0.72454 0.0
O827 O 0.74423 0.29071 0.82296 0.0
O828 O 0.78327 0.32352 0.84837 0.0
C829 C 0.84776 0.27793 0.82111 0.0
O830 O 0.83566 0.33321 0.75728 0.0
O831 O 0.8234 0.33983 0.8065 0.0
C832 C 0.86689 0.28974 0.68162 0.0
C833 C 0.86517 0.32244 0.63281 0.0
C834 C 0.87582 0.33702 0.66336 0.0
C835 C 0.87662 0.32082 0.68756 0.0
C836 C 0.85932 0.27503 0.65089 0.0
C837 C 0.8585 0.2913 0.62656 0.0
C838 C 0.85905 0.2734 0.70702 0.0
C839 C 0.77441 0.2354 0.76372 0.0
C840 C 0.76574 0.30845 0.7346 0.0
C841 C 0.75546 0.29111 0.87674 0.0
C842 C 0.76647 0.26201 0.92722 0.0
C843 C 0.75552 0.2457 0.89741 0.0
C844 C 0.75021 0.26007 0.87241 0.0
C845 C 0.76464 0.30735 0.9068 0.0
C846 C 0.7701 0.2929 0.93191 0.0
C847 C 0.7567 0.30663 0.84977 0.0
H848 H 0.88089 0.36096 0.66902 0.0
H849 H 0.88254 0.33282 0.71106 0.0
H850 H 0.85182 0.25107 0.64587 0.0
H851 H 0.85068 0.27955 0.60312 0.0
H852 H 0.75179 0.22179 0.89323 0.0
H853 H 0.74338 0.24689 0.8495 0.0
H854 H 0.76916 0.33133 0.91058 0.0
H855 H 0.7785 0.30602 0.95466 0.0
Dy856 Dy 0.77766 0.77016 0.78169 0.0
Dy857 Dy 0.81603 0.83468 0.81668 0.0
C858 C 0.80337 0.78062 0.85499 0.0
O859 O 0.74104 0.79603 0.78639 0.0
O860 O 0.76727 0.83299 0.82544 0.0
O861 O 0.73767 0.73434 0.77878 0.0
O862 O 0.77115 0.73007 0.74846 0.0
O863 O 0.80109 0.84211 0.76812 0.0
O864 O 0.7873 0.79431 0.74195 0.0
O865 O 0.8525 0.81548 0.79674 0.0
O866 O 0.82731 0.76642 0.78578 0.0
O867 O 0.84918 0.87586 0.81775 0.0
O868 O 0.82681 0.86815 0.8577 0.0
C869 C 0.74115 0.81771 0.809 0.0
O870 O 0.78238 0.76613 0.83201 0.0
O871 O 0.82255 0.80532 0.85216 0.0
C872 C 0.75381 0.69071 0.77478 0.0
C873 C 0.76445 0.64511 0.80687 0.0
C874 C 0.78657 0.67197 0.80997 0.0
C875 C 0.78122 0.69445 0.79433 0.0
C876 C 0.73132 0.6642 0.77163 0.0
C877 C 0.73667 0.64139 0.7875 0.0
C878 C 0.74851 0.71612 0.76087 0.0
C879 C 0.79492 0.82303 0.74196 0.0
C880 C 0.85262 0.78756 0.78796 0.0
C881 C 0.83493 0.91633 0.84502 0.0
C882 C 0.80724 0.96349 0.83908 0.0
C883 C 0.82615 0.95597 0.81772 0.0
C884 C 0.83996 0.93268 0.82071 0.0
C885 C 0.81847 0.92573 0.86804 0.0
C886 C 0.80463 0.94906 0.86503 0.0
C887 C 0.84347 0.88775 0.84429 0.0
H888 H 0.80859 0.6755 0.82383 0.0
H889 H 0.79867 0.71494 0.79764 0.0
H890 H 0.70973 0.66123 0.75714 0.0
H891 H 0.7192 0.62093 0.78457 0.0
H892 H 0.82855 0.9666 0.7974 0.0
H893 H 0.85297 0.92634 0.80286 0.0
H894 H 0.81476 0.91397 0.88743 0.0
H895 H 0.79067 0.95483 0.88217 0.0
Dy896 Dy 0.58654 0.56751 0.55961 0.0
Dy897 Dy 0.5248 0.52838 0.52024 0.0
C898 C 0.57934 0.55125 0.48601 0.0
O899 O 0.56115 0.60349 0.55283 0.0
O900 O 0.52364 0.57631 0.51428 0.0
O901 O 0.63434 0.58381 0.55904 0.0
O902 O 0.61446 0.59655 0.59984 0.0
O903 O 0.51174 0.53962 0.56817 0.0
O904 O 0.55915 0.55402 0.59669 0.0
O905 O 0.54421 0.49176 0.53741 0.0
O906 O 0.59127 0.51945 0.56086 0.0
O907 O 0.48107 0.49699 0.51387 0.0
O908 O 0.49778 0.51581 0.47493 0.0
C909 C 0.5387 0.6024 0.53059 0.0
O910 O 0.58718 0.57306 0.50947 0.0
O911 O 0.56104 0.52652 0.48966 0.0
C912 C 0.66253 0.5854 0.60627 0.0
C913 C 0.7025 0.54876 0.61379 0.0
C914 C 0.71274 0.57692 0.60543 0.0
C915 C 0.69283 0.59516 0.60179 0.0
C916 C 0.65365 0.55963 0.61936 0.0
C917 C 0.67371 0.54155 0.62345 0.0
C918 C 0.63951 0.5959 0.5882 0.0
C919 C 0.52951 0.54598 0.59521 0.0
C920 C 0.57128 0.49327 0.55267 0.0
C921 C 0.44621 0.51119 0.47992 0.0
C922 C 0.39705 0.5356 0.49102 0.0
C923 C 0.42345 0.55323 0.48319 0.0
C924 C 0.44791 0.54111 0.47772 0.0
C925 C 0.41852 0.49274 0.48367 0.0
C926 C 0.39395 0.50488 0.48906 0.0
C927 C 0.47426 0.50123 0.48551 0.0
H928 H 0.73476 0.58343 0.59789 0.0
H929 H 0.69999 0.61495 0.59159 0.0
H930 H 0.63027 0.55172 0.62303 0.0
H931 H 0.66552 0.52048 0.63097 0.0
H932 H 0.42651 0.57696 0.48452 0.0
H933 H 0.46901 0.55582 0.47468 0.0
H934 H 0.41677 0.46959 0.48529 0.0
H935 H 0.37353 0.49074 0.49445 0.0
Dy936 Dy 0.02408 0.54361 0.04851 0.0
Dy937 Dy 0.08619 0.54992 0.01653 0.0
C938 C 0.02452 0.55582 0.97802 0.0
O939 O 0.02027 0.49563 0.02696 0.0
O940 O 0.07002 0.50077 0.01951 0.0
O941 O 0.97553 0.52914 0.04734 0.0
O942 O 1.00383 0.55491 0.08924 0.0
O943 O 0.09879 0.55568 0.0674 0.0
O944 O 0.05601 0.52623 0.07878 0.0
O945 O 0.08286 0.59805 0.02467 0.0
O946 O 0.04871 0.59273 0.05962 0.0
O947 O 0.13472 0.56661 0.01839 0.0
O948 O 0.10942 0.5329 0.98046 0.0
C949 C 0.04288 0.4836 0.02033 0.0
O950 O 0.01164 0.55699 0.00323 0.0
O951 O 0.05146 0.55047 0.97732 0.0
C952 C 0.95676 0.56556 0.07515 0.0
C953 C 0.91806 0.60464 0.07358 0.0
C954 C 0.94542 0.61068 0.06095 0.0
C955 C 0.9646 0.59129 0.06172 0.0
C956 C 0.9297 0.55952 0.08796 0.0
C957 C 0.9105 0.57886 0.08719 0.0
C958 C 0.97619 0.54451 0.07454 0.0
C959 C 0.08539 0.53751 0.08449 0.0
C960 C 0.06809 0.60995 0.04534 0.0
C961 C 0.1543 0.52511 0.00505 0.0
C962 C 0.18511 0.48242 0.02157 0.0
C963 C 0.16561 0.49239 0.04077 0.0
C964 C 0.15016 0.51324 0.03242 0.0
C965 C 0.17352 0.51506 0.98556 0.0
C966 C 0.18879 0.49374 0.99373 0.0
C967 C 0.13612 0.54573 -0.00383 0.0
H968 H 0.95203 0.63039 0.05053 0.0
H969 H 0.98542 0.5962 0.05157 0.0
H970 H 0.9232 0.53963 0.09815 0.0
H971 H 0.88934 0.57322 0.09661 0.0
H972 H 0.16206 0.48381 0.06214 0.0
H973 H 0.13463 0.51988 0.04724 0.0
H974 H 0.17652 0.52348 0.96403 0.0
H975 H 0.20385 0.48649 0.97861 0.0
C976 C 0.03975 0.18559 0.03243 0.0
C977 C 0.01999 0.1857 0.00524 0.0
H978 H 0.06128 0.1604 0.06179 0.0
C979 C 1.00592 0.15742 0.98749 0.0
H980 H 0.05141 0.20644 0.04693 0.0
C981 C 0.01139 0.13065 -0.00373 0.0
C982 C 0.03159 0.13055 0.02314 0.0
H983 H 0.99067 0.15589 0.96636 0.0
H984 H 1.00008 0.10988 0.98145 0.0
C985 C 0.04552 0.15882 0.04102 0.0
C986 C 0.21774 0.82011 0.16482 0.0
C987 C 0.18943 0.82244 0.17378 0.0
H988 H 0.26217 0.81288 0.17835 0.0
C989 C 0.1854 0.81997 0.20475 0.0
H990 H 0.22185 0.82185 0.14125 0.0
C991 C 0.20822 0.81474 0.2258 0.0
C992 C 0.23635 0.81184 0.21702 0.0
H993 H 0.16418 0.8217 0.21288 0.0
H994 H 0.20353 0.81275 0.24916 0.0
C995 C 0.24091 0.81494 0.18617 0.0
C996 C 0.55651 0.90841 0.49859 0.0
C997 C 0.52922 0.88747 0.49995 0.0
H998 H 0.58135 0.954 0.50503 0.0
C999 C 0.50545 0.89896 0.51083 0.0
H1000 H 0.57515 0.90091 0.48959 0.0
C1001 C 0.5088 0.93012 0.5193 0.0
C1002 C 0.53599 0.95106 0.51705 0.0
H1003 H 0.48366 0.884 0.51125 0.0
H1004 H 0.48968 0.93783 0.52678 0.0
C1005 C 0.55992 0.93926 0.50715 0.0
C1006 C 0.53178 0.31074 0.72198 0.0
C1007 C 0.52871 0.30548 0.68942 0.0
H1008 H 0.50979 0.30974 0.76244 0.0
C1009 C 0.49934 0.29706 0.67241 0.0
H1010 H 0.55413 0.31749 0.73574 0.0
C1011 C 0.47361 0.29208 0.68791 0.0
C1012 C 0.47695 0.29548 0.72059 0.0
H1013 H 0.49632 0.29256 0.64731 0.0
H1014 H 0.45125 0.28413 0.67432 0.0
C1015 C 0.50634 0.30597 0.73732 0.0
C1016 C 0.05789 0.86396 0.67026 0.0
C1017 C 0.04533 0.83413 0.65689 0.0
H1018 H 0.07343 0.90879 0.66273 0.0
C1019 C 0.03841 0.82705 0.62438 0.0
H1020 H 0.06352 0.87025 0.6952 0.0
C1021 C 0.04408 0.84919 0.60573 0.0
C1022 C 0.05707 0.87899 0.61905 0.0
H1023 H 0.02878 0.80432 0.61326 0.0
H1024 H 0.03887 0.84283 0.58078 0.0
C1025 C 0.06378 0.88606 0.6516 0.0
C1026 C 0.44194 0.80916 0.83366 0.0
C1027 C 0.46066 0.83244 0.82219 0.0
H1028 H 0.39644 0.78526 0.8372 0.0
C1029 C 0.44582 0.84987 0.80504 0.0
H1030 H 0.45215 0.79519 0.84702 0.0
C1031 C 0.41376 0.84454 0.79988 0.0
C1032 C 0.39499 0.82124 0.81124 0.0
H1033 H 0.45908 0.86813 0.79586 0.0
H1034 H 0.40365 0.85869 0.7867 0.0
C1035 C 0.40977 0.80349 0.82804 0.0
C1036 C 0.51922 0.16949 0.12143 0.0
C1037 C 0.52432 0.1675 0.15319 0.0
H1038 H 0.51481 0.14771 0.0743 0.0
C1039 C 0.52845 0.14041 0.1612 0.0
H1040 H 0.51593 0.18989 0.11429 0.0
C1041 C 0.52826 0.11638 0.13829 0.0
C1042 C 0.52342 0.11841 0.10655 0.0
H1043 H 0.53248 0.13789 0.18532 0.0
H1044 H 0.53199 0.09614 0.14553 0.0
C1045 C 0.5185 0.14521 0.09845 0.0
C1046 C 0.18113 0.35162 0.32716 0.0
C1047 C 0.15909 0.32886 0.33597 0.0
H1048 H 0.22555 0.36518 0.31282 0.0
C1049 C 0.16655 0.30115 0.33565 0.0
H1050 H 0.17684 0.37339 0.32717 0.0
C1051 C 0.19433 0.29629 0.32698 0.0
C1052 C 0.21666 0.31901 0.31865 0.0
H1053 H 0.15071 0.28285 0.34222 0.0
H1054 H 0.19848 0.2745 0.32729 0.0
C1055 C 0.20938 0.34689 0.31897 0.0
C1056 C 0.97433 0.03286 0.15669 0.0
C1057 C 0.99418 0.0386 0.185 0.0
H1058 H 0.96958 0.03044 0.107 0.0
C1059 C 0.02561 0.04694 0.18382 0.0
H1060 H 0.94996 0.02637 0.15651 0.0
C1061 C 0.03684 0.04934 0.15543 0.0
C1062 C 0.0171 0.04346 0.12703 0.0
H1063 H 0.0417 0.05157 0.20492 0.0
H1064 H 0.06126 0.0557 0.15586 0.0
C1065 C 0.9856 0.03521 0.12817 0.0
C1066 C 0.26425 0.73034 0.51067 0.0
C1067 C 0.26376 0.70027 0.50222 0.0
H1068 H 0.25858 0.7704 0.49539 0.0
C1069 C 0.25639 0.68732 0.47083 0.0
H1070 H 0.26953 0.74087 0.53474 0.0
C1071 C 0.25033 0.70433 0.44823 0.0
C1072 C 0.25136 0.73458 0.45662 0.0
H1073 H 0.25582 0.66419 0.46364 0.0
H1074 H 0.24571 0.69397 0.42411 0.0
C1075 C 0.25803 0.74729 0.48813 0.0
C1076 C 0.64962 0.02688 0.64174 0.0
C1077 C 0.63547 0.01489 0.66556 0.0
H1078 H 0.64367 0.04324 0.59898 0.0
C1079 C 0.60355 0.00606 0.66204 0.0
H1080 H 0.67417 0.03396 0.64385 0.0
C1081 C 0.58605 0.01163 0.63652 0.0
C1082 C 0.60023 0.02626 0.61421 0.0
H1083 H 0.59211 -0.0033 0.68011 0.0
H1084 H 0.56151 0.00589 0.63518 0.0
C1085 C 0.63212 0.03266 0.61631 0.0
C1086 C 0.28187 0.33853 0.93342 0.0
C1087 C 0.30922 0.34607 0.95393 0.0
H1088 H 0.25929 0.32211 0.88727 0.0
C1089 C 0.33553 0.34053 0.94273 0.0
H1090 H 0.26134 0.34293 0.94124 0.0
C1091 C 0.33463 0.32904 0.91115 0.0
C1092 C 0.30733 0.32266 0.89033 0.0
H1093 H 0.3571 0.34675 0.95787 0.0
H1094 H 0.35547 0.32619 0.90287 0.0
C1095 C 0.28083 0.32674 0.90228 0.0
C1096 C 0.9994 0.04603 0.3963 0.0
C1097 C 0.01409 0.02986 0.37623 0.0
H1098 H 0.99438 0.06138 0.44316 0.0
C1099 C 0.036 0.01654 0.38971 0.0
H1100 H 0.98236 0.05655 0.387 0.0
C1101 C 0.04285 0.01919 0.42215 0.0
C1102 C 0.02804 0.03524 0.44221 0.0
H1103 H 0.04779 0.0038 0.37517 0.0
H1104 H 0.05981 0.0086 0.43147 0.0
C1105 C 1.00627 0.0487 0.4287 0.0
C1106 C 0.32374 0.69876 0.70232 0.0
C1107 C 0.32398 0.70388 0.67161 0.0
H1108 H 0.31845 0.71558 0.74836 0.0
C1109 C 0.32488 0.73269 0.66518 0.0
H1110 H 0.32353 0.67703 0.70821 0.0
C1111 C 0.32213 0.755 0.68847 0.0
C1112 C 0.31823 0.74856 0.71822 0.0
H1113 H 0.32525 0.73739 0.64173 0.0
H1114 H 0.32074 0.77642 0.68264 0.0
C1115 C 0.32062 0.72081 0.72531 0.0
C1116 C 0.59124 0.10195 0.81685 0.0
C1117 C 0.62021 0.09625 0.81771 0.0
H1118 H 0.55739 0.11298 0.84275 0.0
C1119 C 0.63913 0.10131 0.84627 0.0
H1120 H 0.57619 0.09847 0.79516 0.0
C1121 C 0.62857 0.11042 0.87366 0.0
C1122 C 0.5988 0.11423 0.87294 0.0
H1123 H 0.66182 0.09766 0.84755 0.0
H1124 H 0.6433 0.11345 0.89549 0.0
C1125 C 0.58059 0.11071 0.84417 0.0
C1126 C 0.29718 0.32064 0.15276 0.0
C1127 C 0.31325 0.34975 0.15141 0.0
H1128 H 0.28051 0.28861 0.18145 0.0
C1129 C 0.3247 0.36914 0.17965 0.0
H1130 H 0.28781 0.3051 0.13159 0.0
C1131 C 0.32038 0.35977 0.20828 0.0
C1132 C 0.30434 0.33066 0.20974 0.0
H1133 H 0.33702 0.39177 0.17972 0.0
H1134 H 0.32982 0.37545 0.22934 0.0
C1135 C 0.29279 0.31124 0.18147 0.0
C1136 C 0.2531 0.0003 0.09864 0.0
C1137 C 0.23413 0.97476 0.08003 0.0
H1138 H 0.25579 0.04112 0.12813 0.0
C1139 C 0.20274 0.96857 0.08065 0.0
H1140 H 0.27755 0.00511 0.09909 0.0
C1141 C 0.19021 0.98948 0.09685 0.0
C1142 C 0.20901 0.01659 0.11301 0.0
H1143 H 0.18776 0.94886 0.06664 0.0
H1144 H 0.16569 0.98547 0.09426 0.0
C1145 C 0.24068 0.02085 0.11533 0.0
C1146 C 0.65985 0.65512 0.01602 0.0
C1147 C 0.68614 0.64526 0.01167 0.0
H1148 H 0.61355 0.64375 0.02395 0.0
C1149 C 0.68462 0.61468 0.00963 0.0
H1150 H 0.66016 0.67842 0.01759 0.0
C1151 C 0.65779 0.59462 0.0132 0.0
C1152 C 0.63202 0.6048 0.01923 0.0
H1153 H 0.70449 0.60632 0.00613 0.0
H1154 H 0.65761 0.57142 0.01242 0.0
C1155 C 0.63318 0.63518 0.01987 0.0
C1156 C 0.68448 0.47591 0.26673 0.0
C1157 C 0.69768 0.5053 0.28119 0.0
H1158 H 0.6919 0.43363 0.24909 0.0
C1159 C 0.72947 0.51438 0.28916 0.0
H1160 H 0.66007 0.46824 0.26022 0.0
C1161 C 0.74765 0.4946 0.28283 0.0
C1162 C 0.73455 0.46529 0.26811 0.0
H1163 H 0.7404 0.53687 0.30026 0.0
H1164 H 0.77208 0.50243 0.28903 0.0
C1165 C 0.70273 0.45616 0.26013 0.0
C1166 C 0.90544 0.47874 0.52158 0.0
C1167 C 0.88953 0.49361 0.5024 0.0
H1168 H 0.94819 0.47738 0.54556 0.0
C1169 C 0.90586 0.51746 0.49001 0.0
H1170 H 0.89367 0.46016 0.53141 0.0
C1171 C 0.93748 0.52703 0.49789 0.0
C1172 C 0.95281 0.51318 0.51866 0.0
H1173 H 0.89418 0.52921 0.47506 0.0
H1174 H 0.94968 0.54605 0.48901 0.0
C1175 C 0.93669 0.48863 0.52985 0.0
C1176 C 0.28047 0.07425 0.31759 0.0
C1177 C 0.30936 0.08802 0.33441 0.0
H1178 H 0.23906 0.08065 0.29472 0.0
C1179 C 0.31584 0.11818 0.34709 0.0
H1180 H 0.27474 0.05093 0.30776 0.0
C1181 C 0.2953 0.13506 0.33991 0.0
C1182 C 0.26809 0.12207 0.31964 0.0
H1183 H 0.3378 0.12927 0.36044 0.0
H1184 H 0.30226 0.1588 0.34762 0.0
C1185 C 0.26003 0.09123 0.31007 0.0
C1186 C 0.35735 0.14758 0.59852 0.0
C1187 C 0.34962 0.15655 0.57008 0.0
H1188 H 0.38504 0.12522 0.62407 0.0
C1189 C 0.36676 0.15211 0.54598 0.0
H1190 H 0.34479 0.15109 0.61768 0.0
C1191 C 0.38967 0.13682 0.54954 0.0
C1192 C 0.39586 0.12596 0.57731 0.0
H1193 H 0.36117 0.15867 0.52379 0.0
H1194 H 0.4013 0.13206 0.52995 0.0
C1195 C 0.38025 0.13256 0.60213 0.0
C1196 C 0.68988 0.69931 0.30672 0.0
C1197 C 0.69774 0.67233 0.30907 0.0
H1198 H 0.70458 0.74475 0.30213 0.0
C1199 C 0.72863 0.67173 0.31028 0.0
H1200 H 0.66648 0.70084 0.30597 0.0
C1201 C 0.75089 0.69736 0.30809 0.0
C1202 C 0.74256 0.72391 0.30436 0.0
H1203 H 0.73551 0.65133 0.31209 0.0
H1204 H 0.77434 0.69613 0.30835 0.0
C1205 C 0.71187 0.7246 0.30434 0.0
C1206 C 0.85976 0.43167 0.81632 0.0
C1207 C 0.87827 0.44302 0.79505 0.0
H1208 H 0.8322 0.39345 0.8295 0.0
C1209 C 0.88385 0.42347 0.77048 0.0
H1210 H 0.85518 0.44619 0.83558 0.0
C1211 C 0.87038 0.39315 0.76678 0.0
C1212 C 0.85148 0.3819 0.78784 0.0
H1213 H 0.89795 0.43167 0.75367 0.0
H1214 H 0.87463 0.3786 0.74735 0.0
C1215 C 0.84664 0.40141 0.81286 0.0
C1216 C 0.10372 0.93628 0.0981 0.0
C1217 C 0.09058 0.90819 0.07945 0.0
H1218 H 0.10907 0.98387 0.10486 0.0
C1219 C 0.07187 0.90869 0.0517 0.0
H1220 H 0.11826 0.93751 0.11964 0.0
C1221 C 0.06602 0.93557 0.04351 0.0
C1222 C 0.07929 0.96366 0.06206 0.0
H1223 H 0.061 0.88802 0.03648 0.0
H1224 H 0.05094 0.93428 0.02231 0.0
C1225 C 0.09855 0.96325 0.08945 0.0
C1226 C 0.89733 0.27823 0.89794 0.0
C1227 C 0.92246 0.26947 0.88709 0.0
H1228 H 0.85356 0.28741 0.88571 0.0
C1229 C 0.92049 0.25999 0.85499 0.0
H1230 H 0.89834 0.28648 0.92234 0.0
C1231 C 0.89556 0.26135 0.8341 0.0
C1232 C 0.87129 0.2719 0.84447 0.0
H1233 H 0.93953 0.25354 0.84568 0.0
H1234 H 0.89595 0.2553 0.80951 0.0
C1235 C 0.87182 0.27911 0.87684 0.0
C1236 C 0.59323 0.19703 0.55814 0.0
C1237 C 0.58133 0.20843 0.58427 0.0
H1238 H 0.59777 0.15818 0.52809 0.0
C1239 C 0.56302 0.18733 0.59887 0.0
H1240 H 0.60811 0.21211 0.5466 0.0
C1241 C 0.55713 0.15646 0.58841 0.0
C1242 C 0.56972 0.14476 0.56302 0.0
H1243 H 0.55378 0.19478 0.61934 0.0
H1244 H 0.54318 0.14165 0.60101 0.0
C1245 C 0.58756 0.16581 0.54776 0.0
C1246 C 0.61947 0.79883 0.42813 0.0
C1247 C 0.58857 0.79158 0.41553 0.0
H1248 H 0.66568 0.81303 0.41988 0.0
C1249 C 0.58072 0.79341 0.38411 0.0
H1250 H 0.62623 0.79766 0.45224 0.0
C1251 C 0.60316 0.80245 0.36577 0.0
C1252 C 0.63406 0.80955 0.37823 0.0
H1253 H 0.55713 0.78797 0.3736 0.0
H1254 H 0.59631 0.80338 0.34161 0.0
C1255 C 0.64202 0.80755 0.4096 0.0
C1256 C 0.03413 0.2426 0.42235 0.0
C1257 C 0.05599 0.26928 0.43405 0.0
H1258 H 0.01125 0.19968 0.43049 0.0
C1259 C 0.07162 0.27281 0.46421 0.0
H1260 H 0.02165 0.23911 0.39922 0.0
C1261 C 0.06564 0.25016 0.48216 0.0
C1262 C 0.04373 0.22347 0.47048 0.0
H1263 H 0.08855 0.29308 0.47399 0.0
H1264 H 0.07796 0.2537 0.50537 0.0
C1265 C 0.028 0.22004 0.44037 0.0
C1266 C 0.66114 0.3044 0.24597 0.0
C1267 C 0.64012 0.28105 0.25488 0.0
H1268 H 0.70766 0.32691 0.24609 0.0
C1269 C 0.65235 0.26198 0.27213 0.0
H1270 H 0.65307 0.31961 0.23263 0.0
C1271 C 0.68437 0.26587 0.27948 0.0
C1272 C 0.7053 0.28928 0.27032 0.0
H1273 H 0.63719 0.24353 0.27921 0.0
H1274 H 0.69272 0.25051 0.29237 0.0
C1275 C 0.69283 0.30858 0.25373 0.0
C1276 C 0.55431 0.93107 0.95514 0.0
C1277 C 0.56314 0.93697 0.92641 0.0
H1278 H 0.54111 0.94747 -0.00186 0.0
C1279 C 0.56597 0.96611 0.92006 0.0
H1280 H 0.55172 0.90904 0.96103 0.0
C1281 C 0.5598 0.98842 0.94156 0.0
C1282 C 0.55044 0.9823 0.97007 0.0
H1283 H 0.57259 0.97165 0.89824 0.0
H1284 H 0.56206 0.01042 0.93565 0.0
C1285 C 0.54805 0.95327 0.97651 0.0
C1286 C 0.93255 0.79506 0.76218 0.0
C1287 C 0.93896 0.76731 0.76459 0.0
H1288 H 0.90154 0.82326 0.76805 0.0
C1289 C 0.9163 0.74615 0.7748 0.0
H1290 H 0.94902 0.81208 0.75448 0.0
C1291 C 0.88842 0.75231 0.78186 0.0
C1292 C 0.88226 0.78026 0.77996 0.0
H1293 H 0.91992 0.72444 0.77692 0.0
H1294 H 0.8718 0.73521 0.78928 0.0
C1295 C 0.90508 0.80151 0.77011 0.0
C1296 C 0.09751 0.0395 0.90379 0.0
C1297 C 0.09975 0.06796 0.89582 0.0
H1298 H 0.08854 0.01144 0.93856 0.0
C1299 C 0.09603 0.09055 0.91849 0.0
H1300 H 0.10008 0.02154 0.88689 0.0
C1301 C 0.09043 0.08502 0.94823 0.0
C1302 C 0.08735 0.05647 0.95605 0.0
H1303 H 0.09763 0.11272 0.91327 0.0
H1304 H 0.08765 0.10306 0.96491 0.0
C1305 C 0.09081 0.03369 0.93336 0.0
C1306 C 0.86139 0.38649 0.5903 0.0
C1307 C 0.832 0.3766 0.57348 0.0
H1308 H 0.89564 0.37649 0.62147 0.0
C1309 C 0.81532 0.34753 0.57332 0.0
H1310 H 0.87496 0.40867 0.59038 0.0
C1311 C 0.82712 0.32919 0.59108 0.0
C1312 C 0.8559 0.33953 0.60918 0.0
H1313 H 0.79269 0.33926 0.56034 0.0
H1314 H 0.81291 0.30752 0.59195 0.0
C1315 C 0.87329 0.36806 0.60794 0.0
C1316 C 0.45459 0.05886 0.42474 0.0
C1317 C 0.46886 0.05998 0.39801 0.0
H1318 H 0.45971 0.05709 0.47343 0.0
C1319 C 0.50052 0.06355 0.40081 0.0
H1320 H 0.43023 0.0562 0.42329 0.0
C1321 C 0.51729 0.06391 0.42928 0.0
C1322 C 0.50282 0.06078 0.45565 0.0
H1323 H 0.51231 0.06496 0.38074 0.0
H1324 H 0.54149 0.06569 0.43031 0.0
C1325 C 0.47147 0.05926 0.4534 0.0
C1326 C 0.75048 0.75908 0.14726 0.0
C1327 C 0.77469 0.75439 0.13147 0.0
H1328 H 0.73677 0.77544 0.19021 0.0
C1329 C 0.80455 0.76513 0.14704 0.0
H1330 H 0.72721 0.75049 0.13601 0.0
C1331 C 0.80992 0.77835 0.17838 0.0
C1332 C 0.78563 0.78195 0.19452 0.0
H1333 H 0.82357 0.76121 0.13575 0.0
H1334 H 0.83305 0.78476 0.19035 0.0
C1335 C 0.75593 0.77325 0.17829 0.0
C1336 C 0.10688 0.09262 0.68517 0.0
C1337 C 0.09575 0.07074 0.70294 0.0
H1338 H 0.10535 0.10647 0.64046 0.0
C1339 C 0.07318 0.04558 0.6882 0.0
H1340 H 0.12429 0.11228 0.6958 0.0
C1341 C 0.06297 0.04186 0.6562 0.0
C1342 C 0.07436 0.06364 0.63838 0.0
H1343 H 0.06431 0.02824 0.70114 0.0
H1344 H 0.04624 0.02179 0.64533 0.0
C1345 C 0.09598 0.08935 0.65344 0.0
C1346 C 0.76478 0.36613 0.4155 0.0
C1347 C 0.76915 0.39667 0.41475 0.0
H1348 H 0.76846 0.32415 0.39274 0.0
C1349 C 0.77743 0.40765 0.38793 0.0
H1350 H 0.75823 0.357 0.43585 0.0
C1351 C 0.78375 0.38888 0.36343 0.0
C1352 C 0.78164 0.35878 0.36522 0.0
H1353 H 0.78106 0.43106 0.38668 0.0
H1354 H 0.79123 0.39824 0.34353 0.0
C1355 C 0.7709 0.34734 0.39093 0.0
C1356 C 0.39902 0.0152 0.21123 0.0
C1357 C 0.40942 0.04342 0.22953 0.0
H1358 H 0.40942 0.98222 0.17845 0.0
C1359 C 0.43707 0.06179 0.22532 0.0
H1360 H 0.37794 0.00041 0.21423 0.0
C1361 C 0.45506 0.0514 0.20488 0.0
C1362 C 0.4459 0.02231 0.18841 0.0
H1363 H 0.44556 0.08366 0.2391 0.0
H1364 H 0.4766 0.0659 0.20266 0.0
C1365 C 0.41718 0.00468 0.19091 0.0
C1366 C 0.8074 0.77676 0.94173 0.0
C1367 C 0.79747 0.74603 0.94166 0.0
H1368 H 0.81801 0.81182 0.91461 0.0
C1369 C 0.79164 0.72695 0.91296 0.0
H1370 H 0.81217 0.79211 0.96337 0.0
C1371 C 0.79438 0.73825 0.88512 0.0
C1372 C 0.80387 0.76895 0.88506 0.0
H1373 H 0.78391 0.7032 0.91187 0.0
H1374 H 0.78867 0.72287 0.86347 0.0
C1375 C 0.81095 0.78805 0.9138 0.0
C1376 C 0.84603 0.08416 0.01433 0.0
C1377 C 0.83858 0.07789 0.04335 0.0
H1378 H 0.86879 0.07336 0.97589 0.0
C1379 C 0.84769 0.05448 0.05532 0.0
H1380 H 0.83893 0.10178 0.00424 0.0
C1381 C 0.86468 0.03821 0.03902 0.0
C1382 C 0.87279 0.04496 0.01039 0.0
H1383 H 0.84215 0.04899 0.07753 0.0
H1384 H 0.87253 0.02116 0.04951 0.0
C1385 C 0.86293 0.06779 -0.00203 0.0
C1386 C 0.43283 0.45339 0.06009 0.0
C1387 C 0.40725 0.46528 0.05638 0.0
H1388 H 0.48128 0.46116 0.06097 0.0
C1389 C 0.41166 0.49547 0.05385 0.0
H1390 H 0.43012 0.43021 0.06205 0.0
C1391 C 0.44051 0.51298 0.05309 0.0
C1392 C 0.46599 0.5009 0.05488 0.0
H1393 H 0.39253 0.50552 0.05146 0.0
H1394 H 0.44263 0.5359 0.05023 0.0
C1395 C 0.46203 0.4711 0.05931 0.0
C1396 C 0.37158 0.59209 0.78448 0.0
C1397 C 0.40354 0.60115 0.78954 0.0
H1398 H 0.32945 0.60445 0.78772 0.0
C1399 C 0.4175 0.63083 0.80235 0.0
H1400 H 0.36005 0.56939 0.77465 0.0
C1401 C 0.3999 0.65093 0.81003 0.0
C1402 C 0.36791 0.64182 0.80517 0.0
H1403 H 0.44205 0.63852 0.80671 0.0
H1404 H 0.4114 0.67354 0.82023 0.0
C1405 C 0.35399 0.61215 0.79223 0.0
C1406 C 0.18574 0.57537 0.58819 0.0
C1407 C 0.19581 0.60645 0.59465 0.0
H1408 H 0.14738 0.53788 0.57919 0.0
C1409 C 0.17503 0.62349 0.60132 0.0
H1410 H 0.20144 0.56171 0.58333 0.0
C1411 C 0.14426 0.60988 0.59893 0.0
C1412 C 0.13386 0.57904 0.59003 0.0
H1413 H 0.18224 0.64744 0.60677 0.0
H1414 H 0.12845 0.62369 0.60261 0.0
C1415 C 0.1549 0.56171 0.586 0.0
C1416 C 0.77763 0.02328 0.80567 0.0
C1417 C 0.74628 0.01348 0.80648 0.0
H1418 H 0.82182 0.01558 0.81626 0.0
C1419 C 0.73578 0.98959 0.82182 0.0
H1420 H 0.78644 0.0419 0.79435 0.0
C1421 C 0.75605 0.97452 0.8343 0.0
C1422 C 0.78717 0.98312 0.83172 0.0
H1423 H 0.71176 0.98167 0.82295 0.0
H1424 H 0.74701 0.95503 0.84427 0.0
C1425 C 0.7979 0.00824 0.8182 0.0
C1426 C 0.75614 0.9643 0.54452 0.0
C1427 C 0.74412 0.93436 0.54671 0.0
H1428 H 0.74735 0.0049 0.53384 0.0
C1429 C 0.71262 0.92241 0.53919 0.0
H1430 H 0.7803 0.97434 0.55019 0.0
C1431 C 0.69358 0.94027 0.52984 0.0
C1432 C 0.70588 0.97013 0.52748 0.0
H1433 H 0.70275 0.89945 0.54063 0.0
H1434 H 0.66931 0.93074 0.52428 0.0
C1435 C 0.73731 0.98186 0.53487 0.0
C1436 C 0.37662 0.4364 0.78175 0.0
C1437 C 0.40351 0.43394 0.76968 0.0
H1438 H 0.33481 0.41371 0.79522 0.0
C1439 C 0.40782 0.40549 0.76062 0.0
H1440 H 0.37254 0.45797 0.789 0.0
C1441 C 0.38623 0.38022 0.76413 0.0
C1442 C 0.35969 0.38261 0.77692 0.0
H1443 H 0.42814 0.40266 0.75117 0.0
H1444 H 0.3907 0.35875 0.75721 0.0
C1445 C 0.35498 0.41102 0.78538 0.0
C1446 C 0.2142 0.66385 0.2259 0.0
C1447 C 0.21307 0.64438 0.24751 0.0
H1448 H 0.23331 0.70732 0.21664 0.0
C1449 C 0.22986 0.6543 0.27732 0.0
H1450 H 0.20139 0.65668 0.20285 0.0
C1451 C 0.24746 0.68331 0.28546 0.0
C1452 C 0.24916 0.70257 0.26364 0.0
H1453 H 0.22905 0.63973 0.29454 0.0
H1454 H 0.26014 0.69048 0.30857 0.0
C1455 C 0.23248 0.69267 0.23378 0.0
C1456 C 0.50579 0.65858 0.4871 0.0
C1457 C 0.51965 0.68672 0.50522 0.0
H1458 H 0.50016 0.61106 0.48048 0.0
C1459 C 0.53921 0.6864 0.53246 0.0
H1460 H 0.49069 0.65722 0.4659 0.0
C1461 C 0.54499 0.65954 0.54079 0.0
C1462 C 0.53127 0.63141 0.52253 0.0
H1463 H 0.5507 0.70715 0.54724 0.0
H1464 H 0.56058 0.66095 0.56164 0.0
C1465 C 0.51129 0.63172 0.49559 0.0
C1466 C 0.71615 0.31303 0.65901 0.0
C1467 C 0.69311 0.32519 0.67047 0.0
H1468 H 0.75685 0.29796 0.66983 0.0
C1469 C 0.69527 0.33285 0.7029 0.0
H1470 H 0.71531 0.30666 0.63427 0.0
C1471 C 0.71907 0.32813 0.72321 0.0
C1472 C 0.74167 0.31518 0.71205 0.0
H1473 H 0.67814 0.34227 0.71281 0.0
H1474 H 0.71924 0.33409 0.7479 0.0
C1475 C 0.73997 0.30793 0.67951 0.0
C1476 C 0.05919 0.40651 -0.00143 0.0
C1477 C 0.03111 0.38605 -0.00187 0.0
H1478 H 0.08497 0.45184 0.00583 0.0
C1479 C 0.00683 0.39813 0.00661 0.0
H1480 H 0.07829 0.39854 0.99137 0.0
C1481 C 0.01049 0.42938 0.01445 0.0
C1482 C 0.03854 0.44983 0.01397 0.0
H1483 H 0.98452 0.38354 0.00553 0.0
H1484 H 0.991 0.43754 0.02 0.0
C1485 C 0.06291 0.43747 0.00653 0.0
C1486 C 0.00764 0.81361 0.18212 0.0
C1487 C 0.02011 0.78931 0.17426 0.0
H1488 H 0.97468 0.83002 0.2063 0.0
C1489 C 1.006 0.76165 0.1815 0.0
H1490 H 0.01825 0.83523 0.17709 0.0
C1491 C 0.98135 0.75863 0.19803 0.0
C1492 C 0.97016 0.78325 0.20809 0.0
H1493 H 0.01494 0.74244 0.17549 0.0
H1494 H 0.97167 0.73709 0.20383 0.0
C1495 C 0.98282 0.8106 0.19896 0.0
C1496 C 0.55615 0.36746 0.16665 0.0
C1497 C 0.55062 0.33737 0.1536 0.0
H1498 H 0.56608 0.41261 0.15906 0.0
C1499 C 0.55015 0.33007 0.12143 0.0
H1500 H 0.55684 0.37393 0.19136 0.0
C1501 C 0.55532 0.35227 0.10283 0.0
C1502 C 0.56114 0.38243 0.11586 0.0
H1503 H 0.54592 0.30714 0.11054 0.0
H1504 H 0.55447 0.34571 0.07811 0.0
C1505 C 0.56134 0.38968 0.14805 0.0
C1506 C 0.94842 0.3162 0.34006 0.0
C1507 C 0.96809 0.33433 0.32376 0.0
H1508 H 0.90244 0.29751 0.34714 0.0
C1509 C 0.95421 0.34734 0.30072 0.0
H1510 H 0.9578 0.3058 0.35808 0.0
C1511 C 0.92216 0.34257 0.29439 0.0
C1512 C 0.9025 0.32476 0.31099 0.0
H1513 H 0.96819 0.36156 0.28762 0.0
H1514 H 0.91279 0.35315 0.27653 0.0
C1515 C 0.91638 0.31156 0.33385 0.0
C1516 C 0.0162 0.6626 0.6315 0.0
C1517 C 0.01923 0.66162 0.66353 0.0
H1518 H 0.01593 0.64018 0.58563 0.0
C1519 C 0.02295 0.63501 0.67324 0.0
H1520 H 0.01329 0.68257 0.62302 0.0
C1521 C 0.02467 0.61058 0.6517 0.0
C1522 C 0.02251 0.61189 0.61973 0.0
H1523 H 0.02535 0.63325 0.69766 0.0
H1524 H 0.02826 0.59084 0.66023 0.0
C1525 C 0.0177 0.63813 0.60997 0.0
C1526 C 0.65539 0.81901 0.80683 0.0
C1527 C 0.65481 0.83617 0.83573 0.0
H1528 H 0.68196 0.79937 0.77589 0.0
C1529 C 0.68315 0.84758 0.85495 0.0
H1530 H 0.63438 0.80955 0.79121 0.0
C1531 C 0.71062 0.84218 0.84592 0.0
C1532 C 0.71128 0.82454 0.81739 0.0
H1533 H 0.6842 0.86087 0.87734 0.0
H1534 H 0.73147 0.85151 0.86184 0.0
C1535 C 0.68294 0.81307 0.79801 0.0
C1536 C 0.47362 0.53264 0.65461 0.0
C1537 C 0.49335 0.53852 0.68301 0.0
H1538 H 0.4691 0.5303 0.60495 0.0
C1539 C 0.5248 0.5472 0.68202 0.0
H1540 H 0.44924 0.5259 0.65429 0.0
C1541 C 0.53616 0.5498 0.65373 0.0
C1542 C 0.51655 0.54378 0.62525 0.0
H1543 H 0.54079 0.55194 0.70321 0.0
H1544 H 0.56058 0.55642 0.6543 0.0
C1545 C 0.48502 0.53519 0.62619 0.0
C1546 C 0.7723 0.23693 0.00553 0.0
C1547 C 0.7862 0.21329 -0.00042 0.0
H1548 H 0.75472 0.27069 0.98707 0.0
C1549 C 0.79589 0.20753 0.97067 0.0
H1550 H 0.76457 0.24187 0.02763 0.0
C1551 C 0.79039 0.22411 0.94758 0.0
C1552 C 0.77491 0.24663 0.95287 0.0
H1553 H 0.8069 0.18963 0.96552 0.0
H1554 H 0.79776 0.2189 0.92532 0.0
C1555 C 0.76667 0.25345 0.98234 0.0
C1556 C 0.1079 0.50311 0.15342 0.0
C1557 C 0.13949 0.51517 0.15916 0.0
H1558 H 0.06588 0.50101 0.12546 0.0
C1559 C 0.15352 0.53221 0.13845 0.0
H1560 H 0.09659 0.48993 0.16916 0.0
C1561 C 0.13588 0.53917 0.11392 0.0
C1562 C 0.10401 0.52881 0.10943 0.0
H1563 H 0.17779 0.54201 0.14247 0.0
H1564 H 0.14721 0.55349 0.09912 0.0
C1565 C 0.0903 0.50981 0.1287 0.0
C1566 C 0.78604 0.83101 0.43699 0.0
C1567 C 0.81374 0.84681 0.45481 0.0
H1568 H 0.76279 0.80828 0.39242 0.0
C1569 C 0.84044 0.84952 0.44093 0.0
H1570 H 0.76501 0.82929 0.44677 0.0
C1571 C 0.83929 0.83759 0.40954 0.0
C1572 C 0.81127 0.8232 0.39117 0.0
H1573 H 0.862 0.86238 0.45388 0.0
H1574 H 0.86009 0.84117 0.39925 0.0
C1575 C 0.78481 0.8193 0.40565 0.0
C1576 C 0.52901 0.51401 0.88836 0.0
C1577 C 0.51417 0.53325 0.8743 0.0
H1578 H 0.54733 0.50205 0.93058 0.0
C1579 C 0.50724 0.55646 0.89375 0.0
H1580 H 0.5346 0.49575 0.8743 0.0
C1581 C 0.51498 0.56033 0.9262 0.0
C1582 C 0.52932 0.54073 0.94025 0.0
H1583 H 0.49584 0.57172 0.8839 0.0
H1584 H 0.50925 0.57847 0.94033 0.0
C1585 C 0.53621 0.51752 0.92078 0.0
C1586 C 0.82141 0.19996 0.19558 0.0
C1587 C 0.8119 0.20278 0.16499 0.0
H1588 H 0.83 0.21977 0.24314 0.0
C1589 C 0.80658 0.22996 0.15868 0.0
H1590 H 0.82592 0.17939 0.20109 0.0
C1591 C 0.80844 0.25312 0.18287 0.0
C1592 C 0.81609 0.24956 0.21365 0.0
H1593 H 0.79922 0.23279 0.13524 0.0
H1594 H 0.80275 0.27327 0.17754 0.0
C1595 C 0.8237 0.22318 0.21966 0.0
C1596 C 0.08656 0.58129 0.31899 0.0
C1597 C 0.11476 0.57423 0.31724 0.0
H1598 H 0.05561 0.59348 0.34872 0.0
C1599 C 0.13437 0.57584 0.34464 0.0
H1600 H 0.0711 0.58044 0.29819 0.0
C1601 C 0.12573 0.58372 0.37327 0.0
C1602 C 0.09721 0.58986 0.37509 0.0
H1603 H 0.15648 0.57106 0.34407 0.0
H1604 H 0.14127 0.58469 0.39407 0.0
C1605 C 0.07782 0.58903 0.34779 0.0
C1606 C 0.81536 0.87344 0.68153 0.0
C1607 C 0.80761 0.8533 0.65338 0.0
H1608 H 0.81719 0.88007 0.73113 0.0
C1609 C 0.79481 0.82333 0.65472 0.0
H1610 H 0.82508 0.89674 0.68154 0.0
C1611 C 0.79019 0.81376 0.68325 0.0
C1612 C 0.79802 0.83385 0.71145 0.0
H1613 H 0.78835 0.80716 0.63366 0.0
H1614 H 0.78057 0.79043 0.68313 0.0
C1615 C 0.8106 0.86389 0.71007 0.0
C1616 C 0.71525 0.4775 0.57345 0.0
C1617 C 0.74641 0.48602 0.5717 0.0
H1618 H 0.67672 0.4908 0.5882 0.0
C1619 C 0.76391 0.51299 0.58896 0.0
H1620 H 0.70136 0.45665 0.56057 0.0
C1621 C 0.75007 0.53223 0.60578 0.0
C1622 C 0.71834 0.5252 0.60495 0.0
H1623 H 0.78821 0.51968 0.58864 0.0
H1624 H 0.76399 0.55339 0.61786 0.0
C1625 C 0.70125 0.49701 0.58973 0.0
C1626 C 0.15806 0.14977 0.50929 0.0
C1627 C 0.18614 0.14257 0.51498 0.0
H1628 H 0.10995 0.13628 0.50833 0.0
C1629 C 0.18662 0.11467 0.52332 0.0
H1630 H 0.1569 0.17099 0.50277 0.0
C1631 C 0.15976 0.0948 0.52687 0.0
C1632 C 0.13172 0.10223 0.52184 0.0
H1633 H 0.2079 0.10837 0.52785 0.0
H1634 H 0.16104 0.07381 0.53391 0.0
C1635 C 0.13115 0.12978 0.51253 0.0
C1636 C 0.22345 0.01145 0.77807 0.0
C1637 C 0.19169 0.00319 0.77684 0.0
H1638 H 0.26424 -0.00278 0.7727 0.0
C1639 C 0.17653 0.97311 0.76813 0.0
H1640 H 0.23585 0.03443 0.78473 0.0
C1641 C 0.19281 0.95175 0.76092 0.0
C1642 C 0.22464 0.95998 0.76227 0.0
H1643 H 0.15204 0.96604 0.76677 0.0
H1644 H 0.18041 0.92879 0.75404 0.0
C1645 C 0.23973 0.99011 0.7709 0.0
C1646 C 0.38706 0.01295 0.99198 0.0
C1647 C 0.37314 -0.00569 0.01144 0.0
H1648 H 0.42891 0.03841 0.98157 0.0
C1649 C 0.39102 0.98763 0.03634 0.0
H1650 H 0.37371 0.01843 0.97268 0.0
C1651 C 0.42229 -0.00063 0.04173 0.0
C1652 C 0.43635 0.01758 0.02201 0.0
H1653 H 0.38083 0.97354 0.05194 0.0
H1654 H 0.43545 0.99383 0.06108 0.0
C1655 C 0.41855 0.02428 -0.00295 0.0
C1656 C 0.81037 0.6072 0.8562 0.0
C1657 C 0.80746 0.58076 0.83587 0.0
H1658 H 0.79686 0.64795 0.864 0.0
C1659 C 0.78368 0.57213 0.81085 0.0
H1660 H 0.82823 0.61405 0.87594 0.0
C1661 C 0.76657 0.59202 0.80321 0.0
C1662 C 0.77269 0.62044 0.82095 0.0
H1663 H 0.78087 0.55169 0.79489 0.0
H1664 H 0.75122 0.58633 0.78154 0.0
C1665 C 0.7926 0.62666 0.84913 0.0
C1666 C 0.86766 0.65161 0.04196 0.0
C1667 C 0.85045 0.65517 0.06621 0.0
H1668 H 0.90234 0.6323 0.02502 0.0
C1669 C 0.85809 0.64509 0.09401 0.0
H1670 H 0.86216 0.65903 0.02022 0.0
C1671 C 0.88108 0.63005 0.09688 0.0
C1672 C 0.89685 0.62445 0.0719 0.0
H1673 H 0.8455 0.64788 0.11329 0.0
H1674 H 0.88586 0.62201 0.11841 0.0
C1675 C 0.89063 0.63627 0.04474 0.0
C1676 C 0.18687 0.19798 0.80127 0.0
C1677 C 0.19535 0.17213 0.8075 0.0
H1678 H 0.20096 0.24245 0.7932 0.0
C1679 C 0.22656 0.17257 0.8116 0.0
H1680 H 0.16317 0.19865 0.79799 0.0
C1681 C 0.24861 0.19814 0.8089 0.0
C1682 C 0.23985 0.22365 0.80174 0.0
H1683 H 0.23392 0.15304 0.81637 0.0
H1684 H 0.27238 0.19772 0.81182 0.0
C1685 C 0.20871 0.22322 0.79833 0.0
C1686 C 0.34121 0.9323 0.31364 0.0
C1687 C 0.36894 0.94177 0.30242 0.0
H1688 H 0.30575 0.89559 0.31907 0.0
C1689 C 0.38248 0.92047 0.28813 0.0
H1690 H 0.33013 0.94816 0.32473 0.0
C1691 C 0.3685 0.89036 0.28489 0.0
C1692 C 0.34062 0.8809 0.29581 0.0
H1693 H 0.40382 0.927 0.27921 0.0
H1694 H 0.37952 0.87456 0.27361 0.0
C1695 C 0.32716 0.90216 0.31032 0.0
C1696 C 0.6063 0.4378 0.59573 0.0
C1697 C 0.59039 0.40928 0.57955 0.0
H1698 H 0.61387 0.48555 0.60008 0.0
C1699 C 0.56882 0.40917 0.55376 0.0
H1700 H 0.62313 0.43951 0.61567 0.0
C1701 C 0.56292 0.43592 0.54519 0.0
C1702 C 0.57885 0.46444 0.56132 0.0
H1703 H 0.55577 0.38819 0.54046 0.0
H1704 H 0.54563 0.43416 0.52564 0.0
C1705 C 0.601 0.46458 0.58662 0.0
C1706 C 0.41174 0.75412 0.36298 0.0
C1707 C 0.41831 0.77051 0.39321 0.0
H1708 H 0.38263 0.74291 0.31917 0.0
C1709 C 0.39746 0.78651 0.40302 0.0
H1710 H 0.42781 0.74238 0.35427 0.0
C1711 C 0.37161 0.78727 0.38262 0.0
C1712 C 0.36605 0.77229 0.35168 0.0
H1713 H 0.40234 0.80027 0.42566 0.0
H1714 H 0.35689 0.80094 0.39065 0.0
C1715 C 0.38597 0.75482 0.34262 0.0
C1716 C 0.06074 0.687 0.0832 0.0
C1717 C 0.0849 0.70743 0.0744 0.0
H1718 H 0.03652 0.64169 0.0813 0.0
C1719 C 0.10294 0.69537 0.05442 0.0
H1720 H 0.04686 0.69493 0.09932 0.0
C1721 C 0.09717 0.66418 0.04412 0.0
C1722 C 0.07348 0.64373 0.05387 0.0
H1723 H 0.12251 0.7099 0.04798 0.0
H1724 H 0.11208 0.65604 0.02943 0.0
C1725 C 0.05507 0.65607 0.07312 0.0
C1726 C 0.08397 0.27998 0.88345 0.0
C1727 C 0.09059 0.28815 0.91587 0.0
H1728 H 0.09958 0.28269 0.83958 0.0
C1729 C 0.1198 0.30521 0.92893 0.0
H1730 H 0.06168 0.2669 0.8726 0.0
C1731 C 0.14171 0.31433 0.90981 0.0
C1732 C 0.13486 0.30637 0.87732 0.0
H1733 H 0.12556 0.31193 0.95381 0.0
H1734 H 0.16404 0.32748 0.92046 0.0
C1735 C 0.10578 0.28894 0.86447 0.0
C1736 C 0.54436 0.73843 0.91686 0.0
C1737 C 0.55512 0.76841 0.93044 0.0
H1738 H 0.5303 0.69338 0.92417 0.0
C1739 C 0.56041 0.77559 0.963 0.0
H1740 H 0.53996 0.73211 0.89187 0.0
C1741 C 0.55476 0.7534 0.98151 0.0
C1742 C 0.5439 0.72342 0.96797 0.0
H1743 H 0.56868 0.79845 0.97426 0.0
H1744 H 0.55919 0.75973 0.0065 0.0
C1745 C 0.53893 0.71621 0.93539 0.0
C1746 C 0.15368 0.78537 0.73393 0.0
C1747 C 0.13289 0.77472 0.75385 0.0
H1748 H 0.19996 0.79783 0.72553 0.0
C1749 C 0.14533 0.76836 0.78231 0.0
H1750 H 0.14547 0.79063 0.71181 0.0
C1751 C 0.17728 0.77217 0.79015 0.0
C1752 C 0.19794 0.78281 0.76997 0.0
H1753 H 0.13037 0.75998 0.79834 0.0
H1754 H 0.18579 0.76689 0.81213 0.0
C1755 C 0.18532 0.78951 0.74185 0.0
C1756 C 0.07837 0.46527 0.43597 0.0
C1757 C 0.07535 0.43569 0.4409 0.0
H1758 H 0.07605 0.50947 0.454 0.0
C1759 C 0.06836 0.42897 0.46998 0.0
H1760 H 0.08366 0.47146 0.41394 0.0
C1761 C 0.06365 0.45083 0.49296 0.0
C1762 C 0.06608 0.48029 0.48782 0.0
H1763 H 0.06565 0.40654 0.47476 0.0
H1764 H 0.05773 0.44447 0.51473 0.0
C1765 C 0.07399 0.48721 0.45907 0.0
C1766 C 0.42176 0.24623 0.26554 0.0
C1767 C 0.44659 0.26947 0.26246 0.0
H1768 H 0.37538 0.23297 0.27453 0.0
C1769 C 0.44232 0.29853 0.26794 0.0
H1770 H 0.4237 0.2235 0.26144 0.0
C1771 C 0.41466 0.30406 0.2766 0.0
C1772 C 0.38963 0.28072 0.27903 0.0
H1773 H 0.46056 0.31716 0.26591 0.0
H1774 H 0.41263 0.32676 0.2807 0.0
C1775 C 0.39378 0.25167 0.27305 0.0
C1776 C 0.5959 0.59031 0.41676 0.0
C1777 C 0.59953 0.56757 0.39421 0.0
H1778 H 0.58758 0.60317 0.46311 0.0
C1779 C 0.5971 0.53915 0.40236 0.0
H1780 H 0.59768 0.61248 0.41145 0.0
C1781 C 0.59039 0.53356 0.432 0.0
C1782 C 0.58706 0.55651 0.45456 0.0
H1783 H 0.59965 0.52109 0.38558 0.0
H1784 H 0.58804 0.51136 0.43734 0.0
C1785 C 0.59024 0.58499 0.44654 0.0
C1786 C 0.35518 0.88553 0.10018 0.0
C1787 C 0.32681 0.87283 0.0819 0.0
H1788 H 0.39002 0.87943 0.13364 0.0
C1789 C 0.31304 0.84279 0.08122 0.0
H1790 H 0.36654 0.90856 0.10077 0.0
C1791 C 0.32653 0.82617 0.09985 0.0
C1792 C 0.35406 0.83927 0.11948 0.0
H1793 H 0.29131 0.83236 0.06711 0.0
H1794 H 0.3144 0.80356 0.10025 0.0
C1795 C 0.36871 0.86886 0.11883 0.0
C1796 C 0.95967 0.56085 0.91917 0.0
C1797 C 0.97311 0.56016 0.89188 0.0
H1798 H 0.96544 0.56009 0.96796 0.0
C1799 C 1.00426 0.56091 0.89377 0.0
H1800 H 0.93576 0.56041 0.91852 0.0
C1801 C 0.0212 0.56053 0.92196 0.0
C1802 C 0.0074 0.55952 0.94895 0.0
H1803 H 0.01545 0.56071 0.87324 0.0
H1804 H 0.04491 0.56018 0.92236 0.0
C1805 C 0.97669 0.56058 0.94749 0.0
C1806 C 0.30411 0.26477 0.64681 0.0
C1807 C 0.27428 0.25554 0.63095 0.0
H1808 H 0.33265 0.28307 0.69036 0.0
C1809 C 0.2504 0.26168 0.64643 0.0
H1810 H 0.32282 0.25963 0.63574 0.0
C1811 C 0.25609 0.27572 0.67751 0.0
C1812 C 0.28562 0.2828 0.69405 0.0
H1813 H 0.22712 0.25417 0.63496 0.0
H1814 H 0.2371 0.27899 0.68921 0.0
C1815 C 0.30967 0.27787 0.67816 0.0
C1816 C 0.61902 0.56761 0.17812 0.0
C1817 C 0.59975 0.56948 0.20086 0.0
H1818 H 0.62401 0.56377 0.13008 0.0
C1819 C 0.56928 0.56957 0.19106 0.0
H1820 H 0.64258 0.56748 0.18459 0.0
C1821 C 0.55859 0.568 0.15928 0.0
C1822 C 0.578 0.56567 0.13663 0.0
H1823 H 0.55384 0.57116 0.20792 0.0
H1824 H 0.53506 0.56796 0.15239 0.0
C1825 C 0.6083 0.56548 0.14666 0.0
C1826 C 0.26115 0.89643 0.89232 0.0
C1827 C 0.26062 0.88624 0.92093 0.0
H1828 H 0.26856 0.8879 0.84511 0.0
C1829 C 0.26439 0.85754 0.92271 0.0
H1830 H 0.25837 0.91842 0.89018 0.0
C1831 C 0.27065 0.84021 0.89708 0.0
C1832 C 0.27311 0.85111 0.86901 0.0
H1833 H 0.2639 0.84889 0.94436 0.0
H1834 H 0.27438 0.8186 0.8996 0.0
C1835 C 0.26731 0.879 0.86658 0.0
C1836 C 0.89269 0.51751 0.70887 0.0
C1837 C 0.90463 0.5457 0.72698 0.0
H1838 H 0.90174 0.48243 0.67762 0.0
C1839 C 0.93315 0.56242 0.72281 0.0
H1840 H 0.87077 0.50406 0.71162 0.0
C1841 C 0.9509 0.54991 0.70368 0.0
C1842 C 0.94035 0.52054 0.68827 0.0
H1843 H 0.94278 0.58427 0.73631 0.0
H1844 H 0.9735 0.56271 0.7021 0.0
C1845 C 0.91051 0.50498 0.68965 0.0
C1846 C 0.29902 0.27259 0.43918 0.0
C1847 C 0.29586 0.24231 0.44068 0.0
H1848 H 0.30494 0.30693 0.4111 0.0
C1849 C 0.29721 0.22332 0.41343 0.0
H1850 H 0.29813 0.28792 0.4596 0.0
C1851 C 0.30085 0.2342 0.38537 0.0
C1852 C 0.30364 0.26447 0.38379 0.0
H1853 H 0.29478 0.19984 0.41357 0.0
H1854 H 0.3012 0.21879 0.36483 0.0
C1855 C 0.30303 0.28353 0.41126 0.0
C1856 C 0.35346 0.55759 0.55428 0.0
C1857 C 0.34495 0.58244 0.54506 0.0
H1858 H 0.37615 0.52324 0.54419 0.0
C1859 C 0.35191 0.59071 0.51658 0.0
H1860 H 0.34831 0.55047 0.57598 0.0
C1861 C 0.36766 0.57469 0.49801 0.0
C1862 C 0.37644 0.55007 0.50756 0.0
H1863 H 0.34536 0.60959 0.50871 0.0
H1864 H 0.37334 0.58177 0.47645 0.0
C1865 C 0.36896 0.5416 0.53575 0.0
C1866 C 0.91552 0.9939 0.57039 0.0
C1867 C 0.90919 0.96286 0.56294 0.0
H1868 H 0.94788 0.03532 0.57321 0.0
C1869 C 0.93262 0.94944 0.55581 0.0
H1870 H 0.89763 0.00472 0.5757 0.0
C1871 C 0.96137 0.96702 0.55375 0.0
C1872 C 0.96707 -0.00176 0.55899 0.0
H1873 H 0.9281 0.92558 0.54947 0.0
H1874 H 0.9787 0.95613 0.54674 0.0
C1875 C 0.94422 0.01143 0.56867 0.0
C1876 C 0.87671 0.09711 0.28818 0.0
C1877 C 0.90868 0.10465 0.29388 0.0
H1878 H 0.83566 0.1115 0.29126 0.0
C1879 C 0.92379 0.13379 0.30777 0.0
H1880 H 0.8643 0.0749 0.27749 0.0
C1881 C 0.90728 0.15482 0.31588 0.0
C1882 C 0.87526 0.14718 0.31042 0.0
H1883 H 0.94839 0.14031 0.31262 0.0
H1884 H 0.91962 0.17695 0.32688 0.0
C1885 C 0.86024 0.11806 0.29635 0.0
C1886 C 0.66702 0.10798 0.02861 0.0
C1887 C 0.68766 0.10169 0.05119 0.0
H1888 H 0.62082 0.10108 0.00906 0.0
C1889 C 0.67709 0.08126 0.07063 0.0
H1890 H 0.67451 0.12336 0.01307 0.0
C1891 C 0.64598 0.06821 0.06818 0.0
C1892 C 0.62535 0.0758 0.04652 0.0
H1893 H 0.6927 0.07594 0.08811 0.0
H1894 H 0.63802 0.05318 0.08389 0.0
C1895 C 0.63621 0.09523 0.02635 0.0
C1896 C 0.27813 0.51561 0.29934 0.0
C1897 C 0.24693 0.50491 0.30041 0.0
H1898 H 0.32308 0.5099 0.31063 0.0
C1899 C 0.23741 0.48145 0.31662 0.0
H1900 H 0.28618 0.53391 0.28729 0.0
C1901 C 0.25856 0.46787 0.33009 0.0
C1902 C 0.28957 0.47751 0.32753 0.0
H1903 H 0.21353 0.4729 0.318 0.0
H1904 H 0.25039 0.44876 0.34098 0.0
C1905 C 0.29927 0.50197 0.31274 0.0
C1906 C 0.2213 0.41691 0.0205 0.0
C1907 C 0.23883 0.42361 0.05002 0.0
H1908 H 0.19081 0.43078 0.98803 0.0
C1909 C 0.2371 0.44858 0.07054 0.0
H1910 H 0.22267 0.39805 0.00407 0.0
C1911 C 0.2189 0.46706 0.0615 0.0
C1912 C 0.2025 0.4613 0.03149 0.0
H1913 H 0.25067 0.45436 0.09328 0.0
H1914 H 0.21864 0.4866 0.07758 0.0
C1915 C 0.20348 0.43581 0.01119 0.0
C1916 C 0.8764 0.93696 0.28233 0.0
C1917 C 0.90327 0.93465 0.27013 0.0
H1918 H 0.83459 0.914 0.29562 0.0
C1919 C 0.90741 0.90626 0.26038 0.0
H1920 H 0.87245 0.95848 0.2901 0.0
C1921 C 0.88574 0.88089 0.26344 0.0
C1922 C 0.85929 0.88309 0.27649 0.0
H1923 H 0.92769 0.90356 0.25077 0.0
H1924 H 0.89014 0.85949 0.25606 0.0
C1925 C 0.85468 0.91145 0.28555 0.0
C1926 C 0.74986 0.15236 0.74076 0.0
C1927 C 0.71826 0.14787 0.73313 0.0
H1928 H 0.79253 0.18379 0.7564 0.0
C1929 C 0.70553 0.17247 0.73365 0.0
H1930 H 0.76019 0.1337 0.74058 0.0
C1931 C 0.7239 0.20101 0.74347 0.0
C1932 C 0.75533 0.2054 0.75232 0.0
H1933 H 0.68119 0.1696 0.72818 0.0
H1934 H 0.71342 0.2196 0.74454 0.0
C1935 C 0.76831 0.18094 0.74999 0.0
loop_
_geom_bond_atom_site_label_1
_geom_bond_atom_site_label_2
_geom_bond_distance
_geom_bond_site_symmetry_2
_ccdc_geom_bond_type
C0 O1 1.306 1_655 S
C0 O3 1.149 1_655 S
O1 C0 1.306 1_455 S
O1 Cd2 2.228 . S
Cd2 O1 2.228 . S
Cd2 O6 2.273 . S
Cd2 O10 2.277 . S
O3 C0 1.149 1_455 S
O3 Cd4 2.242 . S
Cd4 O3 2.242 . S
Cd4 O6 2.411 . S
Cd4 O7 2.333 . S
Cd4 O8 2.352 . S
Cd4 O12 2.277 . S
Cd4 O13 2.356 . S
C5 O10 1.209 . S
C5 O12 1.226 . S
O6 Cd2 2.273 . S
O6 Cd4 2.411 . S
O6 C9 1.320 . S
O7 Cd4 2.333 . S
O7 C9 1.214 . S
O8 Cd4 2.352 . S
O8 C11 1.258 . S
C9 O6 1.320 . S
C9 O7 1.214 . S
O10 Cd2 2.277 . S
O10 C5 1.209 . S
C11 O8 1.258 . S
C11 O13 1.282 . S
O12 Cd4 2.277 . S
O12 C5 1.226 . S
O13 Cd4 2.356 . S
O13 C11 1.282 . S
C14 O15 1.294 1_655 S
C14 O17 1.160 . S
O15 C14 1.294 1_455 S
O15 Cd16 2.245 . S
Cd16 O15 2.245 . S
Cd16 O20 2.273 . S
Cd16 O24 2.277 . S
O17 C14 1.160 . S
O17 Cd18 2.203 1_655 S
Cd18 O17 2.203 1_455 S
Cd18 O20 2.411 . S
Cd18 O21 2.333 . S
Cd18 O22 2.352 . S
Cd18 O26 2.277 . S
Cd18 O27 2.356 . S
C19 O24 1.209 . S
C19 O26 1.226 . S
O20 Cd16 2.273 . S
O20 Cd18 2.411 . S
O20 C23 1.320 . S
O21 Cd18 2.333 . S
O21 C23 1.214 . S
O22 Cd18 2.352 . S
O22 C25 1.258 . S
C23 O20 1.320 . S
C23 O21 1.214 . S
O24 Cd16 2.277 . S
O24 C19 1.209 . S
C25 O22 1.258 . S
C25 O27 1.282 . S
O26 Cd18 2.277 . S
O26 C19 1.226 . S
O27 Cd18 2.356 . S
O27 C25 1.282 . S
C28 O29 1.306 . S
C28 O31 1.160 . S
O29 C28 1.306 . S
O29 Cd30 2.228 . S
Cd30 O29 2.228 . S
Cd30 O34 2.273 . S
Cd30 O38 2.277 . S
O31 C28 1.160 . S
O31 Cd32 2.203 . S
Cd32 O31 2.203 . S
Cd32 O34 2.411 . S
Cd32 O35 2.333 . S
Cd32 O36 2.352 . S
Cd32 O40 2.277 . S
Cd32 O41 2.356 . S
C33 O38 1.209 . S
C33 O40 1.226 . S
O34 Cd30 2.273 . S
O34 Cd32 2.411 . S
O34 C37 1.320 . S
O35 Cd32 2.333 . S
O35 C37 1.214 . S
O36 Cd32 2.352 . S
O36 C39 1.258 . S
C37 O34 1.320 . S
C37 O35 1.214 . S
O38 Cd30 2.277 . S
O38 C33 1.209 . S
C39 O36 1.258 . S
C39 O41 1.282 . S
O40 Cd32 2.277 . S
O40 C33 1.226 . S
O41 Cd32 2.356 . S
O41 C39 1.282 . S
C42 O43 1.306 . S
C42 O45 1.160 . S
O43 C42 1.306 . S
O43 Cd44 2.228 . S
Cd44 O43 2.228 . S
Cd44 O48 2.273 . S
Cd44 O52 2.277 . S
O45 C42 1.160 . S
O45 Cd46 2.203 . S
Cd46 O45 2.203 . S
Cd46 O48 2.411 . S
Cd46 O49 2.333 . S
Cd46 O50 2.352 . S
Cd46 O54 2.277 . S
Cd46 O55 2.356 . S
C47 O52 1.209 . S
C47 O54 1.226 . S
O48 Cd44 2.273 . S
O48 Cd46 2.411 . S
O48 C51 1.320 . S
O49 Cd46 2.333 . S
O49 C51 1.214 . S
O50 Cd46 2.352 . S
O50 C53 1.258 . S
C51 O48 1.320 . S
C51 O49 1.214 . S
O52 Cd44 2.277 . S
O52 C47 1.209 . S
C53 O50 1.258 . S
C53 O55 1.282 . S
O54 Cd46 2.277 . S
O54 C47 1.226 . S
O55 Cd46 2.356 . S
O55 C53 1.282 . S
C56 O57 1.306 . S
C56 O59 1.160 . S
O57 C56 1.306 . S
O57 Cd58 2.228 . S
Cd58 O57 2.228 . S
Cd58 O62 2.273 . S
Cd58 O66 2.277 . S
O59 C56 1.160 . S
O59 Cd60 2.203 . S
Cd60 O59 2.203 . S
Cd60 O62 2.411 . S
Cd60 O63 2.333 . S
Cd60 O64 2.352 . S
Cd60 O68 2.277 . S
Cd60 O69 2.356 . S
C61 O66 1.209 . S
C61 O68 1.226 . S
O62 Cd58 2.273 . S
O62 Cd60 2.411 . S
O62 C65 1.320 . S
O63 Cd60 2.333 . S
O63 C65 1.214 . S
O64 Cd60 2.352 . S
O64 C67 1.258 . S
C65 O62 1.320 . S
C65 O63 1.214 . S
O66 Cd58 2.277 . S
O66 C61 1.209 . S
C67 O64 1.258 . S
C67 O69 1.282 . S
O68 Cd60 2.277 . S
O68 C61 1.226 . S
O69 Cd60 2.356 . S
O69 C67 1.282 . S
C70 O71 1.306 . S
C70 O73 1.160 . S
O71 C70 1.306 . S
O71 Cd72 2.228 . S
Cd72 O71 2.228 . S
Cd72 O76 2.273 . S
Cd72 O80 2.277 . S
O73 C70 1.160 . S
O73 Cd74 2.203 . S
Cd74 O73 2.203 . S
Cd74 O76 2.411 . S
Cd74 O77 2.333 . S
Cd74 O78 2.352 . S
Cd74 O82 2.277 . S
Cd74 O83 2.356 . S
C75 O80 1.209 . S
C75 O82 1.226 . S
O76 Cd72 2.273 . S
O76 Cd74 2.411 . S
O76 C79 1.320 . S
O77 Cd74 2.333 . S
O77 C79 1.214 . S
O78 Cd74 2.352 . S
O78 C81 1.258 . S
C79 O76 1.320 . S
C79 O77 1.214 . S
O80 Cd72 2.277 . S
O80 C75 1.209 . S
C81 O78 1.258 . S
C81 O83 1.282 . S
O82 Cd74 2.277 . S
O82 C75 1.226 . S
O83 Cd74 2.356 . S
O83 C81 1.282 . S
C84 O85 1.306 . S
C84 O87 1.160 . S
O85 C84 1.306 . S
O85 Cd86 2.228 . S
Cd86 O85 2.228 . S
Cd86 O90 2.273 . S
Cd86 O94 2.277 . S
O87 C84 1.160 . S
O87 Cd88 2.203 . S
Cd88 O87 2.203 . S
Cd88 O90 2.411 . S
Cd88 O91 2.333 . S
Cd88 O92 2.352 . S
Cd88 O96 2.277 . S
Cd88 O97 2.356 . S
C89 O94 1.209 . S
C89 O96 1.226 . S
O90 Cd86 2.273 . S
O90 Cd88 2.411 . S
O90 C93 1.320 . S
O91 Cd88 2.333 . S
O91 C93 1.214 . S
O92 Cd88 2.352 . S
O92 C95 1.258 . S
C93 O90 1.320 . S
C93 O91 1.214 . S
O94 Cd86 2.277 . S
O94 C89 1.209 . S
C95 O92 1.258 . S
C95 O97 1.282 . S
O96 Cd88 2.277 . S
O96 C89 1.226 . S
O97 Cd88 2.356 . S
O97 C95 1.282 . S
C98 O99 1.306 . S
C98 O101 1.160 . S
O99 C98 1.306 . S
O99 Cd100 2.228 1_655 S
Cd100 O99 2.228 1_455 S
Cd100 O104 2.273 . S
Cd100 O108 2.277 . S
O101 C98 1.160 . S
O101 Cd102 2.203 1_655 S
Cd102 O101 2.203 1_455 S
Cd102 O104 2.411 . S
Cd102 O105 2.333 . S
Cd102 O106 2.352 1_455 S
Cd102 O110 2.277 1_556 S
Cd102 O111 2.356 1_556 S
C103 O108 1.209 1_554 S
C103 O110 1.226 . S
O104 Cd100 2.273 . S
O104 Cd102 2.411 . S
O104 C107 1.320 . S
O105 Cd102 2.333 . S
O105 C107 1.214 . S
O106 Cd102 2.352 1_655 S
O106 C109 1.258 1_556 S
C107 O104 1.320 . S
C107 O105 1.214 . S
O108 Cd100 2.277 . S
O108 C103 1.209 1_556 S
C109 O106 1.258 1_554 S
C109 O111 1.282 1_655 S
O110 Cd102 2.277 1_554 S
O110 C103 1.226 . S
O111 Cd102 2.356 1_554 S
O111 C109 1.282 1_455 S
C112 O113 1.306 1_545 S
C112 O115 1.160 . S
O113 C112 1.306 1_565 S
O113 Cd114 2.228 . S
Cd114 O113 2.228 . S
Cd114 O118 2.273 1_565 S
Cd114 O122 2.277 . S
O115 C112 1.160 . S
O115 Cd116 2.203 . S
Cd116 O115 2.203 . S
Cd116 O118 2.411 . S
Cd116 O119 2.333 1_545 S
Cd116 O120 2.352 . S
Cd116 O124 2.277 1_545 S
Cd116 O125 2.356 . S
C117 O122 1.209 . S
C117 O124 1.226 . S
O118 Cd114 2.273 1_545 S
O118 Cd116 2.411 . S
O118 C121 1.314 . S
O119 Cd116 2.333 1_565 S
O119 C121 1.223 1_565 S
O120 Cd116 2.352 . S
O120 C123 1.258 . S
C121 O118 1.314 . S
C121 O119 1.223 1_545 S
O122 Cd114 2.277 . S
O122 C117 1.209 . S
C123 O120 1.258 . S
C123 O125 1.282 . S
O124 Cd116 2.277 1_565 S
O124 C117 1.226 . S
O125 Cd116 2.356 . S
O125 C123 1.282 . S
C126 O127 1.306 . S
C126 O129 1.160 . S
O127 C126 1.306 . S
O127 Cd128 2.228 . S
Cd128 O127 2.228 . S
Cd128 O132 2.273 . S
Cd128 O136 2.277 . S
O129 C126 1.160 . S
O129 Cd130 2.203 . S
Cd130 O129 2.203 . S
Cd130 O132 2.411 . S
Cd130 O133 2.333 . S
Cd130 O134 2.352 . S
Cd130 O138 2.277 . S
Cd130 O139 2.356 . S
C131 O136 1.209 . S
C131 O138 1.226 . S
O132 Cd128 2.273 . S
O132 Cd130 2.411 . S
O132 C135 1.320 . S
O133 Cd130 2.333 . S
O133 C135 1.214 . S
O134 Cd130 2.352 . S
O134 C137 1.258 . S
C135 O132 1.320 . S
C135 O133 1.214 . S
O136 Cd128 2.277 . S
O136 C131 1.209 . S
C137 O134 1.258 . S
C137 O139 1.282 . S
O138 Cd130 2.277 . S
O138 C131 1.226 . S
O139 Cd130 2.356 . S
O139 C137 1.282 . S
C140 O141 1.306 . S
C140 O143 1.160 . S
O141 C140 1.306 . S
O141 Cd142 2.228 . S
Cd142 O141 2.228 . S
Cd142 O146 2.273 . S
Cd142 O150 2.277 . S
O143 C140 1.160 . S
O143 Cd144 2.203 . S
Cd144 O143 2.203 . S
Cd144 O146 2.411 . S
Cd144 O147 2.333 . S
Cd144 O148 2.352 . S
Cd144 O152 2.277 . S
Cd144 O153 2.356 . S
C145 O150 1.209 . S
C145 O152 1.226 . S
O146 Cd142 2.273 . S
O146 Cd144 2.411 . S
O146 C149 1.320 . S
O147 Cd144 2.333 . S
O147 C149 1.214 . S
O148 Cd144 2.352 . S
O148 C151 1.258 . S
C149 O146 1.320 . S
C149 O147 1.214 . S
O150 Cd142 2.277 . S
O150 C145 1.209 . S
C151 O148 1.258 . S
C151 O153 1.282 . S
O152 Cd144 2.277 . S
O152 C145 1.226 . S
O153 Cd144 2.356 . S
O153 C151 1.282 . S
C154 O155 1.306 1_554 S
C154 O157 1.160 . S
O155 C154 1.306 1_556 S
O155 Cd156 2.228 . S
Cd156 O155 2.228 . S
Cd156 O160 2.254 1_556 S
Cd156 O164 2.277 . S
O157 C154 1.160 . S
O157 Cd158 2.203 . S
Cd158 O157 2.203 . S
Cd158 O160 2.414 . S
Cd158 O161 2.333 1_554 S
Cd158 O162 2.352 . S
Cd158 O166 2.277 1_554 S
Cd158 O167 2.356 . S
C159 O164 1.209 . S
C159 O166 1.226 . S
O160 Cd156 2.254 1_554 S
O160 Cd158 2.414 . S
O160 C163 1.331 1_554 S
O161 Cd158 2.333 1_556 S
O161 C163 1.208 . S
O162 Cd158 2.352 . S
O162 C165 1.258 . S
C163 O160 1.331 1_556 S
C163 O161 1.208 . S
O164 Cd156 2.277 . S
O164 C159 1.209 . S
C165 O162 1.258 . S
C165 O167 1.282 . S
O166 Cd158 2.277 1_556 S
O166 C159 1.226 . S
O167 Cd158 2.356 . S
O167 C165 1.282 . S
C168 O169 1.306 . S
C168 O171 1.160 . S
O169 C168 1.306 . S
O169 Cd170 2.228 . S
Cd170 O169 2.228 . S
Cd170 O174 2.273 . S
Cd170 O178 2.277 1_554 S
O171 C168 1.160 . S
O171 Cd172 2.203 . S
Cd172 O171 2.203 . S
Cd172 O174 2.411 . S
Cd172 O175 2.333 . S
Cd172 O176 2.352 . S
Cd172 O180 2.277 . S
Cd172 O181 2.356 . S
C173 O178 1.209 . S
C173 O180 1.226 1_556 S
O174 Cd170 2.273 . S
O174 Cd172 2.411 . S
O174 C177 1.320 . S
O175 Cd172 2.333 . S
O175 C177 1.214 . S
O176 Cd172 2.352 . S
O176 C179 1.258 . S
C177 O174 1.320 . S
C177 O175 1.214 . S
O178 Cd170 2.277 1_556 S
O178 C173 1.209 . S
C179 O176 1.258 . S
C179 O181 1.282 . S
O180 Cd172 2.277 . S
O180 C173 1.226 1_554 S
O181 Cd172 2.356 . S
O181 C179 1.282 . S
C182 O183 1.306 . S
C182 O185 1.160 . S
O183 C182 1.306 . S
O183 Cd184 2.228 . S
Cd184 O183 2.228 . S
Cd184 O188 2.273 . S
Cd184 O192 2.277 . S
O185 C182 1.160 . S
O185 Cd186 2.203 . S
Cd186 O185 2.203 . S
Cd186 O188 2.411 . S
Cd186 O189 2.333 . S
Cd186 O190 2.352 . S
Cd186 O194 2.277 . S
Cd186 O195 2.356 . S
C187 O192 1.209 . S
C187 O194 1.226 . S
O188 Cd184 2.273 . S
O188 Cd186 2.411 . S
O188 C191 1.320 . S
O189 Cd186 2.333 . S
O189 C191 1.214 . S
O190 Cd186 2.352 . S
O190 C193 1.258 . S
C191 O188 1.320 . S
C191 O189 1.214 . S
O192 Cd184 2.277 . S
O192 C187 1.209 . S
C193 O190 1.258 . S
C193 O195 1.282 . S
O194 Cd186 2.277 . S
O194 C187 1.226 . S
O195 Cd186 2.356 . S
O195 C193 1.282 . S
C196 O197 1.306 . S
C196 O199 1.160 . S
O197 C196 1.306 . S
O197 Cd198 2.228 . S
Cd198 O197 2.228 . S
Cd198 O202 2.273 . S
Cd198 O206 2.277 . S
O199 C196 1.160 . S
O199 Cd200 2.203 . S
Cd200 O199 2.203 . S
Cd200 O202 2.411 . S
Cd200 O203 2.333 . S
Cd200 O204 2.352 . S
Cd200 O208 2.277 . S
Cd200 O209 2.356 . S
C201 O206 1.209 . S
C201 O208 1.226 . S
O202 Cd198 2.273 . S
O202 Cd200 2.411 . S
O202 C205 1.320 . S
O203 Cd200 2.333 . S
O203 C205 1.214 . S
O204 Cd200 2.352 . S
O204 C207 1.258 . S
C205 O202 1.320 . S
C205 O203 1.214 . S
O206 Cd198 2.277 . S
O206 C201 1.209 . S
C207 O204 1.258 . S
C207 O209 1.282 . S
O208 Cd200 2.277 . S
O208 C201 1.226 . S
O209 Cd200 2.356 . S
O209 C207 1.282 . S
C210 O211 1.306 . S
C210 O213 1.160 . S
O211 C210 1.306 . S
O211 Cd212 2.228 . S
Cd212 O211 2.228 . S
Cd212 O216 2.273 . S
Cd212 O220 2.277 . S
O213 C210 1.160 . S
O213 Cd214 2.203 . S
Cd214 O213 2.203 . S
Cd214 O216 2.411 . S
Cd214 O217 2.333 . S
Cd214 O218 2.352 . S
Cd214 O222 2.277 . S
Cd214 O223 2.356 . S
C215 O220 1.209 . S
C215 O222 1.226 . S
O216 Cd212 2.273 . S
O216 Cd214 2.411 . S
O216 C219 1.320 . S
O217 Cd214 2.333 . S
O217 C219 1.214 . S
O218 Cd214 2.352 . S
O218 C221 1.258 . S
C219 O216 1.320 . S
C219 O217 1.214 . S
O220 Cd212 2.277 . S
O220 C215 1.209 . S
C221 O218 1.258 . S
C221 O223 1.282 . S
O222 Cd214 2.277 . S
O222 C215 1.226 . S
O223 Cd214 2.356 . S
O223 C221 1.282 . S
C224 O225 1.306 1_655 S
C224 O227 1.160 . S
O225 C224 1.306 1_455 S
O225 Cd226 2.219 1_545 S
Cd226 O225 2.219 1_565 S
Cd226 O230 2.257 1_465 S
Cd226 O234 2.278 1_455 S
O227 C224 1.160 . S
O227 Cd228 2.203 . S
Cd228 O227 2.203 . S
Cd228 O230 2.411 . S
Cd228 O231 2.333 . S
Cd228 O232 2.352 . S
Cd228 O236 2.277 1_545 S
Cd228 O237 2.356 . S
C229 O234 1.209 . S
C229 O236 1.226 . S
O230 Cd226 2.257 1_645 S
O230 Cd228 2.411 . S
O230 C233 1.320 . S
O231 Cd228 2.333 . S
O231 C233 1.214 . S
O232 Cd228 2.352 . S
O232 C235 1.258 . S
C233 O230 1.320 . S
C233 O231 1.214 . S
O234 Cd226 2.278 1_655 S
O234 C229 1.209 . S
C235 O232 1.258 . S
C235 O237 1.282 . S
O236 Cd228 2.277 1_565 S
O236 C229 1.226 . S
O237 Cd228 2.356 . S
O237 C235 1.282 . S
C238 O239 1.306 . S
C238 O241 1.160 . S
O239 C238 1.306 . S
O239 Cd240 2.228 . S
Cd240 O239 2.228 . S
Cd240 O244 2.273 . S
Cd240 O248 2.277 . S
O241 C238 1.160 . S
O241 Cd242 2.203 . S
Cd242 O241 2.203 . S
Cd242 O244 2.411 . S
Cd242 O245 2.333 . S
Cd242 O246 2.352 . S
Cd242 O250 2.277 . S
Cd242 O251 2.356 . S
C243 O248 1.209 . S
C243 O250 1.226 . S
O244 Cd240 2.273 . S
O244 Cd242 2.411 . S
O244 C247 1.320 . S
O245 Cd242 2.333 . S
O245 C247 1.214 . S
O246 Cd242 2.352 . S
O246 C249 1.258 . S
C247 O244 1.320 . S
C247 O245 1.214 . S
O248 Cd240 2.277 . S
O248 C243 1.209 . S
C249 O246 1.258 . S
C249 O251 1.282 . S
O250 Cd242 2.277 . S
O250 C243 1.226 . S
O251 Cd242 2.356 . S
O251 C249 1.282 . S
C252 O253 1.306 . S
C252 O255 1.160 . S
O253 C252 1.306 . S
O253 Cd254 2.228 . S
Cd254 O253 2.228 . S
Cd254 O258 2.273 . S
Cd254 O262 2.277 . S
O255 C252 1.160 . S
O255 Cd256 2.203 . S
Cd256 O255 2.203 . S
Cd256 O258 2.411 . S
Cd256 O259 2.333 . S
Cd256 O260 2.352 . S
Cd256 O264 2.277 . S
Cd256 O265 2.356 . S
C257 O262 1.209 . S
C257 O264 1.226 . S
O258 Cd254 2.273 . S
O258 Cd256 2.411 . S
O258 C261 1.320 . S
O259 Cd256 2.333 . S
O259 C261 1.214 . S
O260 Cd256 2.352 . S
O260 C263 1.258 . S
C261 O258 1.320 . S
C261 O259 1.214 . S
O262 Cd254 2.277 . S
O262 C257 1.209 . S
C263 O260 1.258 . S
C263 O265 1.282 . S
O264 Cd256 2.277 . S
O264 C257 1.226 . S
O265 Cd256 2.356 . S
O265 C263 1.282 . S
C266 O267 1.306 . S
C266 O269 1.160 . S
O267 C266 1.306 . S
O267 Cd268 2.228 . S
Cd268 O267 2.228 . S
Cd268 O272 2.273 . S
Cd268 O276 2.277 . S
O269 C266 1.160 . S
O269 Cd270 2.203 . S
Cd270 O269 2.203 . S
Cd270 O272 2.411 . S
Cd270 O273 2.333 . S
Cd270 O274 2.352 . S
Cd270 O278 2.277 . S
Cd270 O279 2.356 . S
C271 O276 1.209 . S
C271 O278 1.226 . S
O272 Cd268 2.273 . S
O272 Cd270 2.411 . S
O272 C275 1.320 . S
O273 Cd270 2.333 . S
O273 C275 1.214 . S
O274 Cd270 2.352 . S
O274 C277 1.258 . S
C275 O272 1.320 . S
C275 O273 1.214 . S
O276 Cd268 2.277 . S
O276 C271 1.209 . S
C277 O274 1.258 . S
C277 O279 1.282 . S
O278 Cd270 2.277 . S
O278 C271 1.226 . S
O279 Cd270 2.356 . S
O279 C277 1.282 . S
C280 O281 1.306 . S
C280 O283 1.160 . S
O281 C280 1.306 . S
O281 Cd282 2.228 . S
Cd282 O281 2.228 . S
Cd282 O286 2.273 . S
Cd282 O290 2.277 . S
O283 C280 1.160 . S
O283 Cd284 2.203 . S
Cd284 O283 2.203 . S
Cd284 O286 2.411 . S
Cd284 O287 2.333 . S
Cd284 O288 2.352 1_554 S
Cd284 O292 2.277 . S
Cd284 O293 2.356 . S
C285 O290 1.209 . S
C285 O292 1.226 . S
O286 Cd282 2.273 . S
O286 Cd284 2.411 . S
O286 C289 1.320 . S
O287 Cd284 2.333 . S
O287 C289 1.214 . S
O288 Cd284 2.352 1_556 S
O288 C291 1.258 . S
C289 O286 1.320 . S
C289 O287 1.214 . S
O290 Cd282 2.277 . S
O290 C285 1.209 . S
C291 O288 1.258 . S
C291 O293 1.282 1_556 S
O292 Cd284 2.277 . S
O292 C285 1.226 . S
O293 Cd284 2.356 . S
O293 C291 1.282 1_554 S
C294 O295 1.306 . S
C294 O297 1.160 . S
O295 C294 1.306 . S
O295 Cd296 2.228 . S
Cd296 O295 2.228 . S
Cd296 O300 2.273 . S
Cd296 O304 2.277 . S
O297 C294 1.160 . S
O297 Cd298 2.203 . S
Cd298 O297 2.203 . S
Cd298 O300 2.411 . S
Cd298 O301 2.333 . S
Cd298 O302 2.352 . S
Cd298 O306 2.277 . S
Cd298 O307 2.356 . S
C299 O304 1.209 . S
C299 O306 1.226 . S
O300 Cd296 2.273 . S
O300 Cd298 2.411 . S
O300 C303 1.320 . S
O301 Cd298 2.333 . S
O301 C303 1.214 . S
O302 Cd298 2.352 . S
O302 C305 1.258 . S
C303 O300 1.320 . S
C303 O301 1.214 . S
O304 Cd296 2.277 . S
O304 C299 1.209 . S
C305 O302 1.258 . S
C305 O307 1.282 . S
O306 Cd298 2.277 . S
O306 C299 1.226 . S
O307 Cd298 2.356 . S
O307 C305 1.282 . S
C308 O309 1.306 . S
C308 O311 1.160 . S
O309 C308 1.306 . S
O309 Cd310 2.228 . S
Cd310 O309 2.228 . S
Cd310 O314 2.273 . S
Cd310 O318 2.277 . S
O311 C308 1.160 . S
O311 Cd312 2.203 . S
Cd312 O311 2.203 . S
Cd312 O314 2.411 . S
Cd312 O315 2.333 . S
Cd312 O316 2.352 . S
Cd312 O320 2.277 . S
Cd312 O321 2.356 . S
C313 O318 1.209 . S
C313 O320 1.226 . S
O314 Cd310 2.273 . S
O314 Cd312 2.411 . S
O314 C317 1.320 . S
O315 Cd312 2.333 . S
O315 C317 1.214 . S
O316 Cd312 2.352 . S
O316 C319 1.258 . S
C317 O314 1.320 . S
C317 O315 1.214 . S
O318 Cd310 2.277 . S
O318 C313 1.209 . S
C319 O316 1.258 . S
C319 O321 1.282 . S
O320 Cd312 2.277 . S
O320 C313 1.226 . S
O321 Cd312 2.356 . S
O321 C319 1.282 . S
C322 O323 1.306 . S
C322 O325 1.160 . S
O323 C322 1.306 . S
O323 Cd324 2.228 . S
Cd324 O323 2.228 . S
Cd324 O328 2.273 . S
Cd324 O332 2.277 . S
O325 C322 1.160 . S
O325 Cd326 2.203 . S
Cd326 O325 2.203 . S
Cd326 O328 2.411 . S
Cd326 O329 2.333 . S
Cd326 O330 2.352 . S
Cd326 O334 2.277 . S
Cd326 O335 2.356 . S
C327 O332 1.209 . S
C327 O334 1.226 . S
O328 Cd324 2.273 . S
O328 Cd326 2.411 . S
O328 C331 1.320 . S
O329 Cd326 2.333 . S
O329 C331 1.214 . S
O330 Cd326 2.352 . S
O330 C333 1.258 . S
C331 O328 1.320 . S
C331 O329 1.214 . S
O332 Cd324 2.277 . S
O332 C327 1.209 . S
C333 O330 1.258 . S
C333 O335 1.282 . S
O334 Cd326 2.277 . S
O334 C327 1.226 . S
O335 Cd326 2.356 . S
O335 C333 1.282 . S
Dy336 O339 2.307 . S
Dy336 O341 2.395 . S
Dy336 O342 2.379 . S
Dy336 O344 2.339 . S
Dy336 O346 2.298 . S
Dy336 O350 2.275 . S
Dy336 C358 2.738 . S
Dy337 O340 2.298 1_655 S
Dy337 O343 2.275 1_655 S
Dy337 O345 2.307 1_655 S
Dy337 O347 2.395 . S
Dy337 O348 2.379 . S
Dy337 O351 2.339 1_654 S
Dy337 C367 2.738 . S
C338 O350 1.254 1_556 S
C338 O351 1.257 . S
O339 Dy336 2.307 . S
O339 C349 1.266 . S
O340 Dy337 2.298 1_455 S
O340 C349 1.236 . S
O341 Dy336 2.395 . S
O341 C358 1.255 . S
O342 Dy336 2.379 . S
O342 C358 1.249 . S
O343 Dy337 2.275 1_455 S
O343 C359 1.254 . S
O344 Dy336 2.339 . S
O344 C359 1.257 . S
O345 Dy337 2.307 1_455 S
O345 C360 1.266 1_545 S
O346 Dy336 2.298 . S
O346 C360 1.236 1_545 S
O347 Dy337 2.395 . S
O347 C367 1.255 . S
O348 Dy337 2.379 . S
O348 C367 1.249 . S
C349 O339 1.266 . S
C349 O340 1.236 . S
O350 Dy336 2.275 . S
O350 C338 1.254 1_554 S
O351 Dy337 2.339 1_456 S
O351 C338 1.257 . S
C352 C355 1.344 . S
C352 C356 1.328 . S
C352 C358 1.516 . S
C353 C354 1.304 . S
C353 C357 1.323 . S
C354 C353 1.304 . S
C354 C355 1.371 . S
C354 H368 0.930 . S
C355 C352 1.344 . S
C355 C354 1.371 . S
C355 H369 0.931 . S
C356 C352 1.328 . S
C356 C357 1.433 . S
C356 H370 0.931 . S
C357 C353 1.323 . S
C357 C356 1.433 . S
C357 H371 0.933 . S
C358 Dy336 2.738 . S
C358 O341 1.255 . S
C358 O342 1.249 . S
C358 C352 1.516 . S
C359 O343 1.254 . S
C359 O344 1.257 . S
C360 O345 1.266 1_565 S
C360 O346 1.236 1_565 S
C361 C364 1.344 . S
C361 C365 1.297 1_554 S
C361 C367 1.516 . S
C362 C363 1.304 . S
C362 C366 1.323 1_554 S
C363 C362 1.304 . S
C363 C364 1.371 . S
C363 H372 0.930 . S
C364 C361 1.344 . S
C364 C363 1.371 . S
C364 H373 0.931 . S
C365 C361 1.297 1_556 S
C365 C366 1.431 . S
C365 H374 0.964 . S
C366 C362 1.323 1_556 S
C366 C365 1.431 . S
C366 H375 0.933 . S
C367 Dy337 2.738 . S
C367 O347 1.255 . S
C367 O348 1.249 . S
C367 C361 1.516 . S
H368 C354 0.930 . S
H369 C355 0.931 . S
H370 C356 0.931 . S
H371 C357 0.933 . S
H372 C363 0.930 . S
H373 C364 0.931 . S
H374 C365 0.964 . S
H375 C366 0.933 . S
Dy376 O379 2.307 . S
Dy376 O381 2.395 . S
Dy376 O382 2.379 . S
Dy376 O384 2.339 . S
Dy376 O386 2.298 . S
Dy376 O390 2.275 . S
Dy376 C398 2.738 . S
Dy377 O380 2.298 . S
Dy377 O383 2.275 . S
Dy377 O385 2.307 . S
Dy377 O387 2.395 . S
Dy377 O388 2.379 . S
Dy377 O391 2.339 . S
Dy377 C407 2.738 . S
C378 O390 1.254 . S
C378 O391 1.257 . S
O379 Dy376 2.307 . S
O379 C389 1.266 . S
O380 Dy377 2.298 . S
O380 C389 1.236 . S
O381 Dy376 2.395 . S
O381 C398 1.255 . S
O382 Dy376 2.379 . S
O382 C398 1.249 . S
O383 Dy377 2.275 . S
O383 C399 1.254 . S
O384 Dy376 2.339 . S
O384 C399 1.257 . S
O385 Dy377 2.307 . S
O385 C400 1.266 . S
O386 Dy376 2.298 . S
O386 C400 1.236 . S
O387 Dy377 2.395 . S
O387 C407 1.255 . S
O388 Dy377 2.379 . S
O388 C407 1.249 . S
C389 O379 1.266 . S
C389 O380 1.236 . S
O390 Dy376 2.275 . S
O390 C378 1.254 . S
O391 Dy377 2.339 . S
O391 C378 1.257 . S
C392 C395 1.344 . S
C392 C396 1.328 . S
C392 C398 1.516 . S
C393 C394 1.304 . S
C393 C397 1.323 . S
C394 C393 1.304 . S
C394 C395 1.371 . S
C394 H408 0.930 . S
C395 C392 1.344 . S
C395 C394 1.371 . S
C395 H409 0.931 . S
C396 C392 1.328 . S
C396 C397 1.433 . S
C396 H410 0.931 . S
C397 C393 1.323 . S
C397 C396 1.433 . S
C397 H411 0.933 . S
C398 Dy376 2.738 . S
C398 O381 1.255 . S
C398 O382 1.249 . S
C398 C392 1.516 . S
C399 O383 1.254 . S
C399 O384 1.257 . S
C400 O385 1.266 . S
C400 O386 1.236 . S
C401 C404 1.344 . S
C401 C405 1.328 . S
C401 C407 1.516 . S
C402 C403 1.304 . S
C402 C406 1.323 . S
C403 C402 1.304 . S
C403 C404 1.371 . S
C403 H412 0.930 . S
C404 C401 1.344 . S
C404 C403 1.371 . S
C404 H413 0.931 . S
C405 C401 1.328 . S
C405 C406 1.433 . S
C405 H414 0.931 . S
C406 C402 1.323 . S
C406 C405 1.433 . S
C406 H415 0.933 . S
C407 Dy377 2.738 . S
C407 O387 1.255 . S
C407 O388 1.249 . S
C407 C401 1.516 . S
H408 C394 0.930 . S
H409 C395 0.931 . S
H410 C396 0.931 . S
H411 C397 0.933 . S
H412 C403 0.930 . S
H413 C404 0.931 . S
H414 C405 0.931 . S
H415 C406 0.933 . S
Dy416 O419 2.307 . S
Dy416 O421 2.395 . S
Dy416 O422 2.379 . S
Dy416 O424 2.339 . S
Dy416 O426 2.298 . S
Dy416 O430 2.275 . S
Dy416 C438 2.738 . S
Dy417 O420 2.298 . S
Dy417 O423 2.275 . S
Dy417 O425 2.307 . S
Dy417 O427 2.395 . S
Dy417 O428 2.379 . S
Dy417 O431 2.339 . S
Dy417 C447 2.738 . S
C418 O430 1.254 . S
C418 O431 1.257 . S
O419 Dy416 2.307 . S
O419 C429 1.266 1_545 S
O420 Dy417 2.298 . S
O420 C429 1.236 1_545 S
O421 Dy416 2.395 . S
O421 C438 1.255 . S
O422 Dy416 2.379 . S
O422 C438 1.249 . S
O423 Dy417 2.275 . S
O423 C439 1.254 . S
O424 Dy416 2.339 . S
O424 C439 1.257 . S
O425 Dy417 2.307 . S
O425 C440 1.266 . S
O426 Dy416 2.298 . S
O426 C440 1.236 . S
O427 Dy417 2.395 . S
O427 C447 1.255 . S
O428 Dy417 2.379 . S
O428 C447 1.249 . S
C429 O419 1.266 1_565 S
C429 O420 1.236 1_565 S
O430 Dy416 2.275 . S
O430 C418 1.254 . S
O431 Dy417 2.339 . S
O431 C418 1.257 . S
C432 C435 1.344 . S
C432 C436 1.328 . S
C432 C438 1.516 . S
C433 C434 1.304 . S
C433 C437 1.323 . S
C434 C433 1.304 . S
C434 C435 1.371 . S
C434 H448 0.930 . S
C435 C432 1.344 . S
C435 C434 1.371 . S
C435 H449 0.931 . S
C436 C432 1.328 . S
C436 C437 1.433 . S
C436 H450 0.931 . S
C437 C433 1.323 . S
C437 C436 1.433 . S
C437 H451 0.933 . S
C438 Dy416 2.738 . S
C438 O421 1.255 . S
C438 O422 1.249 . S
C438 C432 1.516 . S
C439 O423 1.254 . S
C439 O424 1.257 . S
C440 O425 1.266 . S
C440 O426 1.236 . S
C441 C444 1.344 1_545 S
C441 C445 1.334 . S
C441 C447 1.516 . S
C442 C443 1.304 . S
C442 C446 1.323 . S
C443 C442 1.304 . S
C443 C444 1.371 . S
C443 H452 0.930 . S
C444 C441 1.344 1_565 S
C444 C443 1.371 . S
C444 H453 0.931 . S
C445 C441 1.334 . S
C445 C446 1.406 1_545 S
C445 H454 0.953 . S
C446 C442 1.323 . S
C446 C445 1.406 1_565 S
C446 H455 0.933 . S
C447 Dy417 2.738 . S
C447 O427 1.255 . S
C447 O428 1.249 . S
C447 C441 1.516 . S
H448 C434 0.930 . S
H449 C435 0.931 . S
H450 C436 0.931 . S
H451 C437 0.933 . S
H452 C443 0.930 . S
H453 C444 0.931 . S
H454 C445 0.953 . S
H455 C446 0.933 . S
Dy456 O459 2.307 . S
Dy456 O461 2.395 . S
Dy456 O462 2.379 . S
Dy456 O464 2.339 . S
Dy456 O466 2.298 . S
Dy456 O470 2.275 . S
Dy456 C478 2.738 . S
Dy457 O460 2.298 . S
Dy457 O463 2.275 . S
Dy457 O465 2.307 . S
Dy457 O467 2.395 . S
Dy457 O468 2.379 . S
Dy457 O471 2.339 . S
Dy457 C487 2.738 . S
C458 O470 1.254 . S
C458 O471 1.257 . S
O459 Dy456 2.307 . S
O459 C469 1.266 . S
O460 Dy457 2.298 . S
O460 C469 1.236 . S
O461 Dy456 2.395 . S
O461 C478 1.255 . S
O462 Dy456 2.379 . S
O462 C478 1.249 . S
O463 Dy457 2.275 . S
O463 C479 1.254 . S
O464 Dy456 2.339 . S
O464 C479 1.257 . S
O465 Dy457 2.307 . S
O465 C480 1.266 . S
O466 Dy456 2.298 . S
O466 C480 1.236 . S
O467 Dy457 2.395 . S
O467 C487 1.255 . S
O468 Dy457 2.379 . S
O468 C487 1.249 . S
C469 O459 1.266 . S
C469 O460 1.236 . S
O470 Dy456 2.275 . S
O470 C458 1.254 . S
O471 Dy457 2.339 . S
O471 C458 1.257 . S
C472 C475 1.344 . S
C472 C476 1.328 . S
C472 C478 1.516 . S
C473 C474 1.304 . S
C473 C477 1.323 . S
C474 C473 1.304 . S
C474 C475 1.371 . S
C474 H488 0.930 . S
C475 C472 1.344 . S
C475 C474 1.371 . S
C475 H489 0.931 . S
C476 C472 1.328 . S
C476 C477 1.433 . S
C476 H490 0.931 . S
C477 C473 1.323 . S
C477 C476 1.433 . S
C477 H491 0.933 . S
C478 Dy456 2.738 . S
C478 O461 1.255 . S
C478 O462 1.249 . S
C478 C472 1.516 . S
C479 O463 1.254 . S
C479 O464 1.257 . S
C480 O465 1.266 . S
C480 O466 1.236 . S
C481 C484 1.344 . S
C481 C485 1.328 . S
C481 C487 1.516 . S
C482 C483 1.304 . S
C482 C486 1.323 . S
C483 C482 1.304 . S
C483 C484 1.371 . S
C483 H492 0.930 . S
C484 C481 1.344 . S
C484 C483 1.371 . S
C484 H493 0.931 . S
C485 C481 1.328 . S
C485 C486 1.433 . S
C485 H494 0.931 . S
C486 C482 1.323 . S
C486 C485 1.433 . S
C486 H495 0.933 . S
C487 Dy457 2.738 . S
C487 O467 1.255 . S
C487 O468 1.249 . S
C487 C481 1.516 . S
H488 C474 0.930 . S
H489 C475 0.931 . S
H490 C476 0.931 . S
H491 C477 0.933 . S
H492 C483 0.930 . S
H493 C484 0.931 . S
H494 C485 0.931 . S
H495 C486 0.933 . S
Dy496 O499 2.307 . S
Dy496 O501 2.395 1_545 S
Dy496 O502 2.379 1_545 S
Dy496 O504 2.339 . S
Dy496 O506 2.298 . S
Dy496 O510 2.275 . S
Dy496 C518 2.738 1_545 S
Dy497 O500 2.298 . S
Dy497 O503 2.275 . S
Dy497 O505 2.307 . S
Dy497 O507 2.395 . S
Dy497 O508 2.380 1_455 S
Dy497 O511 2.339 1_455 S
Dy497 C527 2.738 . S
C498 O510 1.254 1_655 S
C498 O511 1.257 . S
O499 Dy496 2.307 . S
O499 C509 1.266 . S
O500 Dy497 2.298 . S
O500 C509 1.236 . S
O501 Dy496 2.395 1_565 S
O501 C518 1.255 . S
O502 Dy496 2.379 1_565 S
O502 C518 1.249 . S
O503 Dy497 2.275 . S
O503 C519 1.254 . S
O504 Dy496 2.339 . S
O504 C519 1.257 . S
O505 Dy497 2.307 . S
O505 C520 1.266 . S
O506 Dy496 2.298 . S
O506 C520 1.236 . S
O507 Dy497 2.395 . S
O507 C527 1.255 . S
O508 Dy497 2.380 1_655 S
O508 C527 1.250 1_655 S
C509 O499 1.266 . S
C509 O500 1.236 . S
O510 Dy496 2.275 . S
O510 C498 1.254 1_455 S
O511 Dy497 2.339 1_655 S
O511 C498 1.257 . S
C512 C515 1.344 . S
C512 C516 1.328 . S
C512 C518 1.516 . S
C513 C514 1.304 . S
C513 C517 1.323 . S
C514 C513 1.304 . S
C514 C515 1.371 . S
C514 H528 0.930 . S
C515 C512 1.344 . S
C515 C514 1.371 . S
C515 H529 0.931 . S
C516 C512 1.328 . S
C516 C517 1.433 . S
C516 H530 0.931 . S
C517 C513 1.323 . S
C517 C516 1.433 . S
C517 H531 0.933 . S
C518 Dy496 2.738 1_565 S
C518 O501 1.255 . S
C518 O502 1.249 . S
C518 C512 1.516 . S
C519 O503 1.254 . S
C519 O504 1.257 . S
C520 O505 1.266 . S
C520 O506 1.236 . S
C521 C524 1.344 . S
C521 C525 1.328 1_455 S
C521 C527 1.516 . S
C522 C523 1.304 . S
C522 C526 1.323 1_455 S
C523 C522 1.304 . S
C523 C524 1.371 . S
C523 H532 0.930 . S
C524 C521 1.344 . S
C524 C523 1.371 . S
C524 H533 0.931 . S
C525 C521 1.328 1_655 S
C525 C526 1.433 . S
C525 H534 0.931 . S
C526 C522 1.323 1_655 S
C526 C525 1.433 . S
C526 H535 0.933 . S
C527 Dy497 2.738 . S
C527 O507 1.255 . S
C527 O508 1.250 1_455 S
C527 C521 1.516 . S
H528 C514 0.930 . S
H529 C515 0.931 . S
H530 C516 0.931 . S
H531 C517 0.933 . S
H532 C523 0.930 . S
H533 C524 0.931 . S
H534 C525 0.931 . S
H535 C526 0.933 . S
Dy536 O539 2.307 . S
Dy536 O541 2.395 . S
Dy536 O542 2.379 . S
Dy536 O544 2.339 . S
Dy536 O546 2.298 . S
Dy536 O550 2.275 . S
Dy536 C558 2.738 . S
Dy537 O540 2.298 . S
Dy537 O543 2.275 . S
Dy537 O545 2.307 . S
Dy537 O547 2.395 . S
Dy537 O548 2.379 . S
Dy537 O551 2.339 . S
Dy537 C567 2.738 . S
C538 O550 1.254 . S
C538 O551 1.257 . S
O539 Dy536 2.307 . S
O539 C549 1.266 . S
O540 Dy537 2.298 . S
O540 C549 1.236 . S
O541 Dy536 2.395 . S
O541 C558 1.255 . S
O542 Dy536 2.379 . S
O542 C558 1.249 . S
O543 Dy537 2.275 . S
O543 C559 1.254 . S
O544 Dy536 2.339 . S
O544 C559 1.257 . S
O545 Dy537 2.307 . S
O545 C560 1.266 . S
O546 Dy536 2.298 . S
O546 C560 1.236 . S
O547 Dy537 2.395 . S
O547 C567 1.255 . S
O548 Dy537 2.379 . S
O548 C567 1.249 . S
C549 O539 1.266 . S
C549 O540 1.236 . S
O550 Dy536 2.275 . S
O550 C538 1.254 . S
O551 Dy537 2.339 . S
O551 C538 1.257 . S
C552 C555 1.344 . S
C552 C556 1.328 . S
C552 C558 1.516 . S
C553 C554 1.304 . S
C553 C557 1.323 . S
C554 C553 1.304 . S
C554 C555 1.371 . S
C554 H568 0.930 . S
C555 C552 1.344 . S
C555 C554 1.371 . S
C555 H569 0.931 . S
C556 C552 1.328 . S
C556 C557 1.433 . S
C556 H570 0.931 . S
C557 C553 1.323 . S
C557 C556 1.433 . S
C557 H571 0.933 . S
C558 Dy536 2.738 . S
C558 O541 1.255 . S
C558 O542 1.249 . S
C558 C552 1.516 . S
C559 O543 1.254 . S
C559 O544 1.257 . S
C560 O545 1.266 . S
C560 O546 1.236 . S
C561 C564 1.344 . S
C561 C565 1.328 . S
C561 C567 1.516 . S
C562 C563 1.304 . S
C562 C566 1.323 . S
C563 C562 1.304 . S
C563 C564 1.371 . S
C563 H572 0.930 . S
C564 C561 1.344 . S
C564 C563 1.371 . S
C564 H573 0.931 . S
C565 C561 1.328 . S
C565 C566 1.433 . S
C565 H574 0.931 . S
C566 C562 1.323 . S
C566 C565 1.433 . S
C566 H575 0.933 . S
C567 Dy537 2.738 . S
C567 O547 1.255 . S
C567 O548 1.249 . S
C567 C561 1.516 . S
H568 C554 0.930 . S
H569 C555 0.931 . S
H570 C556 0.931 . S
H571 C557 0.933 . S
H572 C563 0.930 . S
H573 C564 0.931 . S
H574 C565 0.931 . S
H575 C566 0.933 . S
Dy576 O579 2.307 . S
Dy576 O581 2.395 1_554 S
Dy576 O582 2.379 1_554 S
Dy576 O584 2.339 . S
Dy576 O586 2.298 . S
Dy576 O590 2.275 . S
Dy576 C598 2.738 1_554 S
Dy577 O580 2.298 . S
Dy577 O583 2.275 . S
Dy577 O585 2.307 . S
Dy577 O587 2.395 . S
Dy577 O588 2.379 . S
Dy577 O591 2.339 1_545 S
Dy577 C607 2.738 . S
C578 O590 1.254 . S
C578 O591 1.257 1_545 S
O579 Dy576 2.307 . S
O579 C589 1.266 . S
O580 Dy577 2.298 . S
O580 C589 1.236 . S
O581 Dy576 2.395 1_556 S
O581 C598 1.255 . S
O582 Dy576 2.379 1_556 S
O582 C598 1.249 . S
O583 Dy577 2.275 . S
O583 C599 1.254 . S
O584 Dy576 2.339 . S
O584 C599 1.257 . S
O585 Dy577 2.307 . S
O585 C600 1.266 . S
O586 Dy576 2.298 . S
O586 C600 1.236 . S
O587 Dy577 2.395 . S
O587 C607 1.255 . S
O588 Dy577 2.379 . S
O588 C607 1.249 . S
C589 O579 1.266 . S
C589 O580 1.236 . S
O590 Dy576 2.275 . S
O590 C578 1.254 . S
O591 Dy577 2.339 1_565 S
O591 C578 1.257 1_565 S
C592 C595 1.344 . S
C592 C596 1.328 . S
C592 C598 1.516 . S
C593 C594 1.304 . S
C593 C597 1.323 . S
C594 C593 1.304 . S
C594 C595 1.371 . S
C594 H608 0.930 . S
C595 C592 1.344 . S
C595 C594 1.371 . S
C595 H609 0.931 . S
C596 C592 1.328 . S
C596 C597 1.433 . S
C596 H610 0.931 . S
C597 C593 1.323 . S
C597 C596 1.433 . S
C597 H611 0.933 . S
C598 Dy576 2.738 1_556 S
C598 O581 1.255 . S
C598 O582 1.249 . S
C598 C592 1.516 . S
C599 O583 1.254 . S
C599 O584 1.257 . S
C600 O585 1.266 . S
C600 O586 1.236 . S
C601 C604 1.344 . S
C601 C605 1.328 1_545 S
C601 C607 1.516 . S
C602 C603 1.304 1_565 S
C602 C606 1.323 . S
C603 C602 1.304 1_545 S
C603 C604 1.371 . S
C603 H612 0.930 . S
C604 C601 1.344 . S
C604 C603 1.371 . S
C604 H613 0.931 . S
C605 C601 1.328 1_565 S
C605 C606 1.433 . S
C605 H614 0.931 . S
C606 C602 1.323 . S
C606 C605 1.433 . S
C606 H615 0.933 . S
C607 Dy577 2.738 . S
C607 O587 1.255 . S
C607 O588 1.249 . S
C607 C601 1.516 . S
H608 C594 0.930 . S
H609 C595 0.931 . S
H610 C596 0.931 . S
H611 C597 0.933 . S
H612 C603 0.930 . S
H613 C604 0.931 . S
H614 C605 0.931 . S
H615 C606 0.933 . S
Dy616 O619 2.307 . S
Dy616 O621 2.395 . S
Dy616 O622 2.379 . S
Dy616 O624 2.339 . S
Dy616 O626 2.298 . S
Dy616 O630 2.275 . S
Dy616 C638 2.738 . S
Dy617 O620 2.298 . S
Dy617 O623 2.275 . S
Dy617 O625 2.307 . S
Dy617 O627 2.395 . S
Dy617 O628 2.379 . S
Dy617 O631 2.339 . S
Dy617 C647 2.738 . S
C618 O630 1.254 . S
C618 O631 1.257 . S
O619 Dy616 2.307 . S
O619 C629 1.266 . S
O620 Dy617 2.298 . S
O620 C629 1.236 . S
O621 Dy616 2.395 . S
O621 C638 1.255 . S
O622 Dy616 2.379 . S
O622 C638 1.249 . S
O623 Dy617 2.275 . S
O623 C639 1.254 . S
O624 Dy616 2.339 . S
O624 C639 1.257 . S
O625 Dy617 2.307 . S
O625 C640 1.266 . S
O626 Dy616 2.298 . S
O626 C640 1.236 . S
O627 Dy617 2.395 . S
O627 C647 1.255 . S
O628 Dy617 2.379 . S
O628 C647 1.249 . S
C629 O619 1.266 . S
C629 O620 1.236 . S
O630 Dy616 2.275 . S
O630 C618 1.254 . S
O631 Dy617 2.339 . S
O631 C618 1.257 . S
C632 C635 1.344 . S
C632 C636 1.328 . S
C632 C638 1.516 . S
C633 C634 1.304 . S
C633 C637 1.323 . S
C634 C633 1.304 . S
C634 C635 1.371 . S
C634 H648 0.930 . S
C635 C632 1.344 . S
C635 C634 1.371 . S
C635 H649 0.931 . S
C636 C632 1.328 . S
C636 C637 1.433 . S
C636 H650 0.931 . S
C637 C633 1.323 . S
C637 C636 1.433 . S
C637 H651 0.933 . S
C638 Dy616 2.738 . S
C638 O621 1.255 . S
C638 O622 1.249 . S
C638 C632 1.516 . S
C639 O623 1.254 . S
C639 O624 1.257 . S
C640 O625 1.266 . S
C640 O626 1.236 . S
C641 C644 1.344 . S
C641 C645 1.328 . S
C641 C647 1.516 . S
C642 C643 1.304 . S
C642 C646 1.323 . S
C643 C642 1.304 . S
C643 C644 1.371 . S
C643 H652 0.930 . S
C644 C641 1.344 . S
C644 C643 1.371 . S
C644 H653 0.931 . S
C645 C641 1.328 . S
C645 C646 1.433 . S
C645 H654 0.931 . S
C646 C642 1.323 . S
C646 C645 1.433 . S
C646 H655 0.933 . S
C647 Dy617 2.738 . S
C647 O627 1.255 . S
C647 O628 1.249 . S
C647 C641 1.516 . S
H648 C634 0.930 . S
H649 C635 0.931 . S
H650 C636 0.931 . S
H651 C637 0.933 . S
H652 C643 0.930 . S
H653 C644 0.931 . S
H654 C645 0.931 . S
H655 C646 0.933 . S
Dy656 O659 2.307 1_554 S
Dy656 O661 2.395 . S
Dy656 O662 2.379 . S
Dy656 O664 2.339 . S
Dy656 O666 2.298 . S
Dy656 O670 2.275 . S
Dy656 C678 2.738 . S
Dy657 O660 2.308 . S
Dy657 O663 2.275 . S
Dy657 O665 2.307 . S
Dy657 O667 2.395 . S
Dy657 O668 2.379 . S
Dy657 O671 2.339 . S
Dy657 C687 2.738 . S
C658 O670 1.254 . S
C658 O671 1.257 . S
O659 Dy656 2.307 1_556 S
O659 C669 1.266 . S
O660 Dy657 2.308 . S
O660 C669 1.230 1_554 S
O661 Dy656 2.395 . S
O661 C678 1.255 . S
O662 Dy656 2.379 . S
O662 C678 1.249 . S
O663 Dy657 2.275 . S
O663 C679 1.254 . S
O664 Dy656 2.339 . S
O664 C679 1.257 . S
O665 Dy657 2.307 . S
O665 C680 1.266 . S
O666 Dy656 2.298 . S
O666 C680 1.236 . S
O667 Dy657 2.395 . S
O667 C687 1.255 . S
O668 Dy657 2.379 . S
O668 C687 1.249 . S
C669 O659 1.266 . S
C669 O660 1.230 1_556 S
O670 Dy656 2.275 . S
O670 C658 1.254 . S
O671 Dy657 2.339 . S
O671 C658 1.257 . S
C672 C675 1.344 . S
C672 C676 1.328 . S
C672 C678 1.516 . S
C673 C674 1.304 . S
C673 C677 1.323 . S
C674 C673 1.304 . S
C674 C675 1.371 . S
C674 H688 0.930 . S
C675 C672 1.344 . S
C675 C674 1.371 . S
C675 H689 0.931 . S
C676 C672 1.328 . S
C676 C677 1.433 . S
C676 H690 0.931 . S
C677 C673 1.323 . S
C677 C676 1.433 . S
C677 H691 0.933 . S
C678 Dy656 2.738 . S
C678 O661 1.255 . S
C678 O662 1.249 . S
C678 C672 1.516 . S
C679 O663 1.254 . S
C679 O664 1.257 . S
C680 O665 1.266 . S
C680 O666 1.236 . S
C681 C684 1.324 1_554 S
C681 C685 1.328 . S
C681 C687 1.534 . S
C682 C683 1.304 . S
C682 C686 1.323 . S
C683 C682 1.304 . S
C683 C684 1.371 . S
C683 H692 0.930 . S
C684 C681 1.324 1_556 S
C684 C683 1.371 . S
C684 H693 0.931 . S
C685 C681 1.328 . S
C685 C686 1.421 1_554 S
C685 H694 0.944 . S
C686 C682 1.323 . S
C686 C685 1.421 1_556 S
C686 H695 0.933 . S
C687 Dy657 2.738 . S
C687 O667 1.255 . S
C687 O668 1.249 . S
C687 C681 1.534 . S
H688 C674 0.930 . S
H689 C675 0.931 . S
H690 C676 0.931 . S
H691 C677 0.933 . S
H692 C683 0.930 . S
H693 C684 0.931 . S
H694 C685 0.944 . S
H695 C686 0.933 . S
Dy696 O699 2.307 . S
Dy696 O701 2.395 . S
Dy696 O702 2.379 . S
Dy696 O704 2.339 . S
Dy696 O706 2.298 . S
Dy696 O710 2.275 . S
Dy696 C718 2.738 . S
Dy697 O700 2.298 . S
Dy697 O703 2.275 . S
Dy697 O705 2.307 . S
Dy697 O707 2.395 . S
Dy697 O708 2.379 . S
Dy697 O711 2.339 . S
Dy697 C727 2.738 . S
C698 O710 1.254 . S
C698 O711 1.257 . S
O699 Dy696 2.307 . S
O699 C709 1.266 . S
O700 Dy697 2.298 . S
O700 C709 1.236 . S
O701 Dy696 2.395 . S
O701 C718 1.255 . S
O702 Dy696 2.379 . S
O702 C718 1.249 . S
O703 Dy697 2.275 . S
O703 C719 1.254 . S
O704 Dy696 2.339 . S
O704 C719 1.257 . S
O705 Dy697 2.307 . S
O705 C720 1.266 . S
O706 Dy696 2.298 . S
O706 C720 1.236 . S
O707 Dy697 2.395 . S
O707 C727 1.255 . S
O708 Dy697 2.379 . S
O708 C727 1.249 . S
C709 O699 1.266 . S
C709 O700 1.236 . S
O710 Dy696 2.275 . S
O710 C698 1.254 . S
O711 Dy697 2.339 . S
O711 C698 1.257 . S
C712 C715 1.344 . S
C712 C716 1.328 . S
C712 C718 1.516 . S
C713 C714 1.304 . S
C713 C717 1.323 . S
C714 C713 1.304 . S
C714 C715 1.371 . S
C714 H728 0.930 . S
C715 C712 1.344 . S
C715 C714 1.371 . S
C715 H729 0.931 . S
C716 C712 1.328 . S
C716 C717 1.433 . S
C716 H730 0.931 . S
C717 C713 1.323 . S
C717 C716 1.433 . S
C717 H731 0.933 . S
C718 Dy696 2.738 . S
C718 O701 1.255 . S
C718 O702 1.249 . S
C718 C712 1.516 . S
C719 O703 1.254 . S
C719 O704 1.257 . S
C720 O705 1.266 . S
C720 O706 1.236 . S
C721 C724 1.344 . S
C721 C725 1.328 . S
C721 C727 1.516 . S
C722 C723 1.304 . S
C722 C726 1.323 . S
C723 C722 1.304 . S
C723 C724 1.371 . S
C723 H732 0.930 . S
C724 C721 1.344 . S
C724 C723 1.371 . S
C724 H733 0.931 . S
C725 C721 1.328 . S
C725 C726 1.433 . S
C725 H734 0.931 . S
C726 C722 1.323 . S
C726 C725 1.433 . S
C726 H735 0.933 . S
C727 Dy697 2.738 . S
C727 O707 1.255 . S
C727 O708 1.249 . S
C727 C721 1.516 . S
H728 C714 0.930 . S
H729 C715 0.931 . S
H730 C716 0.931 . S
H731 C717 0.933 . S
H732 C723 0.930 . S
H733 C724 0.931 . S
H734 C725 0.931 . S
H735 C726 0.933 . S
Dy736 O739 2.307 1_455 S
Dy736 O741 2.395 . S
Dy736 O742 2.379 . S
Dy736 O744 2.339 . S
Dy736 O746 2.298 . S
Dy736 O750 2.275 . S
Dy736 C758 2.738 . S
Dy737 O740 2.298 1_455 S
Dy737 O743 2.275 . S
Dy737 O745 2.307 . S
Dy737 O747 2.395 . S
Dy737 O748 2.379 . S
Dy737 O751 2.339 . S
Dy737 C767 2.738 . S
C738 O750 1.254 . S
C738 O751 1.257 . S
O739 Dy736 2.307 1_655 S
O739 C749 1.266 . S
O740 Dy737 2.298 1_655 S
O740 C749 1.236 . S
O741 Dy736 2.395 . S
O741 C758 1.255 . S
O742 Dy736 2.379 . S
O742 C758 1.249 . S
O743 Dy737 2.275 . S
O743 C759 1.254 . S
O744 Dy736 2.339 . S
O744 C759 1.257 . S
O745 Dy737 2.307 . S
O745 C760 1.266 . S
O746 Dy736 2.298 . S
O746 C760 1.236 . S
O747 Dy737 2.395 . S
O747 C767 1.255 . S
O748 Dy737 2.379 . S
O748 C767 1.249 . S
C749 O739 1.266 . S
C749 O740 1.236 . S
O750 Dy736 2.275 . S
O750 C738 1.254 . S
O751 Dy737 2.339 . S
O751 C738 1.257 . S
C752 C755 1.344 . S
C752 C756 1.328 . S
C752 C758 1.516 . S
C753 C754 1.304 . S
C753 C757 1.323 . S
C754 C753 1.304 . S
C754 C755 1.371 . S
C754 H768 0.930 . S
C755 C752 1.344 . S
C755 C754 1.371 . S
C755 H769 0.931 . S
C756 C752 1.328 . S
C756 C757 1.433 . S
C756 H770 0.931 . S
C757 C753 1.323 . S
C757 C756 1.433 . S
C757 H771 0.933 . S
C758 Dy736 2.738 . S
C758 O741 1.255 . S
C758 O742 1.249 . S
C758 C752 1.516 . S
C759 O743 1.254 . S
C759 O744 1.257 . S
C760 O745 1.266 . S
C760 O746 1.236 . S
C761 C764 1.344 . S
C761 C765 1.328 . S
C761 C767 1.516 1_655 S
C762 C763 1.304 . S
C762 C766 1.323 . S
C763 C762 1.304 . S
C763 C764 1.371 . S
C763 H772 0.930 . S
C764 C761 1.344 . S
C764 C763 1.371 . S
C764 H773 0.931 . S
C765 C761 1.328 . S
C765 C766 1.433 . S
C765 H774 0.931 . S
C766 C762 1.323 . S
C766 C765 1.433 . S
C766 H775 0.933 . S
C767 Dy737 2.738 . S
C767 O747 1.255 . S
C767 O748 1.249 . S
C767 C761 1.516 1_455 S
H768 C754 0.930 . S
H769 C755 0.931 . S
H770 C756 0.931 . S
H771 C757 0.933 . S
H772 C763 0.930 . S
H773 C764 0.931 . S
H774 C765 0.931 . S
H775 C766 0.933 . S
Dy776 O779 2.307 . S
Dy776 O781 2.395 . S
Dy776 O782 2.379 . S
Dy776 O784 2.339 . S
Dy776 O786 2.298 . S
Dy776 O790 2.275 . S
Dy776 C798 2.738 . S
Dy777 O780 2.298 . S
Dy777 O783 2.275 . S
Dy777 O785 2.307 . S
Dy777 O787 2.395 . S
Dy777 O788 2.379 . S
Dy777 O791 2.339 . S
Dy777 C807 2.738 . S
C778 O790 1.254 . S
C778 O791 1.257 . S
O779 Dy776 2.307 . S
O779 C789 1.266 . S
O780 Dy777 2.298 . S
O780 C789 1.236 . S
O781 Dy776 2.395 . S
O781 C798 1.255 . S
O782 Dy776 2.379 . S
O782 C798 1.249 . S
O783 Dy777 2.275 . S
O783 C799 1.254 . S
O784 Dy776 2.339 . S
O784 C799 1.257 . S
O785 Dy777 2.307 . S
O785 C800 1.266 . S
O786 Dy776 2.298 . S
O786 C800 1.236 . S
O787 Dy777 2.395 . S
O787 C807 1.255 . S
O788 Dy777 2.379 . S
O788 C807 1.249 . S
C789 O779 1.266 . S
C789 O780 1.236 . S
O790 Dy776 2.275 . S
O790 C778 1.254 . S
O791 Dy777 2.339 . S
O791 C778 1.257 . S
C792 C795 1.344 . S
C792 C796 1.328 . S
C792 C798 1.516 . S
C793 C794 1.304 . S
C793 C797 1.323 . S
C794 C793 1.304 . S
C794 C795 1.371 . S
C794 H808 0.930 . S
C795 C792 1.344 . S
C795 C794 1.371 . S
C795 H809 0.931 . S
C796 C792 1.328 . S
C796 C797 1.433 . S
C796 H810 0.931 . S
C797 C793 1.323 . S
C797 C796 1.433 . S
C797 H811 0.933 . S
C798 Dy776 2.738 . S
C798 O781 1.255 . S
C798 O782 1.249 . S
C798 C792 1.516 . S
C799 O783 1.254 . S
C799 O784 1.257 . S
C800 O785 1.266 . S
C800 O786 1.236 . S
C801 C804 1.344 . S
C801 C805 1.328 . S
C801 C807 1.516 . S
C802 C803 1.304 . S
C802 C806 1.323 . S
C803 C802 1.304 . S
C803 C804 1.371 . S
C803 H812 0.930 . S
C804 C801 1.344 . S
C804 C803 1.371 . S
C804 H813 0.931 . S
C805 C801 1.328 . S
C805 C806 1.433 . S
C805 H814 0.931 . S
C806 C802 1.323 . S
C806 C805 1.433 . S
C806 H815 0.933 . S
C807 Dy777 2.738 . S
C807 O787 1.255 . S
C807 O788 1.249 . S
C807 C801 1.516 . S
H808 C794 0.930 . S
H809 C795 0.931 . S
H810 C796 0.931 . S
H811 C797 0.933 . S
H812 C803 0.930 . S
H813 C804 0.931 . S
H814 C805 0.931 . S
H815 C806 0.933 . S
Dy816 O819 2.307 . S
Dy816 O821 2.395 . S
Dy816 O822 2.379 . S
Dy816 O824 2.339 . S
Dy816 O826 2.298 . S
Dy816 O830 2.275 . S
Dy816 C838 2.738 . S
Dy817 O820 2.298 . S
Dy817 O823 2.275 . S
Dy817 O825 2.307 . S
Dy817 O827 2.395 . S
Dy817 O828 2.379 . S
Dy817 O831 2.339 . S
Dy817 C847 2.738 . S
C818 O830 1.254 . S
C818 O831 1.257 . S
O819 Dy816 2.307 . S
O819 C829 1.266 . S
O820 Dy817 2.298 . S
O820 C829 1.236 . S
O821 Dy816 2.395 . S
O821 C838 1.255 . S
O822 Dy816 2.379 . S
O822 C838 1.249 . S
O823 Dy817 2.275 . S
O823 C839 1.254 . S
O824 Dy816 2.339 . S
O824 C839 1.257 . S
O825 Dy817 2.307 . S
O825 C840 1.266 . S
O826 Dy816 2.298 . S
O826 C840 1.236 . S
O827 Dy817 2.395 . S
O827 C847 1.255 . S
O828 Dy817 2.379 . S
O828 C847 1.249 . S
C829 O819 1.266 . S
C829 O820 1.236 . S
O830 Dy816 2.275 . S
O830 C818 1.254 . S
O831 Dy817 2.339 . S
O831 C818 1.257 . S
C832 C835 1.344 . S
C832 C836 1.328 . S
C832 C838 1.516 . S
C833 C834 1.304 . S
C833 C837 1.323 . S
C834 C833 1.304 . S
C834 C835 1.371 . S
C834 H848 0.930 . S
C835 C832 1.344 . S
C835 C834 1.371 . S
C835 H849 0.931 . S
C836 C832 1.328 . S
C836 C837 1.433 . S
C836 H850 0.931 . S
C837 C833 1.323 . S
C837 C836 1.433 . S
C837 H851 0.933 . S
C838 Dy816 2.738 . S
C838 O821 1.255 . S
C838 O822 1.249 . S
C838 C832 1.516 . S
C839 O823 1.254 . S
C839 O824 1.257 . S
C840 O825 1.266 . S
C840 O826 1.236 . S
C841 C844 1.344 . S
C841 C845 1.328 . S
C841 C847 1.516 . S
C842 C843 1.304 . S
C842 C846 1.323 . S
C843 C842 1.304 . S
C843 C844 1.371 . S
C843 H852 0.930 . S
C844 C841 1.344 . S
C844 C843 1.371 . S
C844 H853 0.931 . S
C845 C841 1.328 . S
C845 C846 1.433 . S
C845 H854 0.931 . S
C846 C842 1.323 . S
C846 C845 1.433 . S
C846 H855 0.933 . S
C847 Dy817 2.738 . S
C847 O827 1.255 . S
C847 O828 1.249 . S
C847 C841 1.516 . S
H848 C834 0.930 . S
H849 C835 0.931 . S
H850 C836 0.931 . S
H851 C837 0.933 . S
H852 C843 0.930 . S
H853 C844 0.931 . S
H854 C845 0.931 . S
H855 C846 0.933 . S
Dy856 O859 2.307 . S
Dy856 O861 2.395 . S
Dy856 O862 2.379 . S
Dy856 O864 2.339 . S
Dy856 O866 2.298 . S
Dy856 O870 2.275 . S
Dy856 C878 2.738 . S
Dy857 O860 2.298 . S
Dy857 O863 2.275 . S
Dy857 O865 2.307 . S
Dy857 O867 2.395 . S
Dy857 O868 2.379 . S
Dy857 O871 2.339 . S
Dy857 C887 2.738 . S
C858 O870 1.254 . S
C858 O871 1.257 . S
O859 Dy856 2.307 . S
O859 C869 1.266 . S
O860 Dy857 2.298 . S
O860 C869 1.236 . S
O861 Dy856 2.395 . S
O861 C878 1.255 . S
O862 Dy856 2.379 . S
O862 C878 1.249 . S
O863 Dy857 2.275 . S
O863 C879 1.254 . S
O864 Dy856 2.339 . S
O864 C879 1.257 . S
O865 Dy857 2.307 . S
O865 C880 1.266 . S
O866 Dy856 2.298 . S
O866 C880 1.236 . S
O867 Dy857 2.395 . S
O867 C887 1.255 . S
O868 Dy857 2.379 . S
O868 C887 1.249 . S
C869 O859 1.266 . S
C869 O860 1.236 . S
O870 Dy856 2.275 . S
O870 C858 1.254 . S
O871 Dy857 2.339 . S
O871 C858 1.257 . S
C872 C875 1.344 . S
C872 C876 1.328 . S
C872 C878 1.516 . S
C873 C874 1.304 . S
C873 C877 1.323 . S
C874 C873 1.304 . S
C874 C875 1.371 . S
C874 H888 0.930 . S
C875 C872 1.344 . S
C875 C874 1.371 . S
C875 H889 0.931 . S
C876 C872 1.328 . S
C876 C877 1.433 . S
C876 H890 0.931 . S
C877 C873 1.323 . S
C877 C876 1.433 . S
C877 H891 0.933 . S
C878 Dy856 2.738 . S
C878 O861 1.255 . S
C878 O862 1.249 . S
C878 C872 1.516 . S
C879 O863 1.254 . S
C879 O864 1.257 . S
C880 O865 1.266 . S
C880 O866 1.236 . S
C881 C884 1.344 . S
C881 C885 1.328 . S
C881 C887 1.516 . S
C882 C883 1.304 . S
C882 C886 1.323 . S
C883 C882 1.304 . S
C883 C884 1.371 . S
C883 H892 0.930 . S
C884 C881 1.344 . S
C884 C883 1.371 . S
C884 H893 0.931 . S
C885 C881 1.328 . S
C885 C886 1.433 . S
C885 H894 0.931 . S
C886 C882 1.323 . S
C886 C885 1.433 . S
C886 H895 0.933 . S
C887 Dy857 2.738 . S
C887 O867 1.255 . S
C887 O868 1.249 . S
C887 C881 1.516 . S
H888 C874 0.930 . S
H889 C875 0.931 . S
H890 C876 0.931 . S
H891 C877 0.933 . S
H892 C883 0.930 . S
H893 C884 0.931 . S
H894 C885 0.931 . S
H895 C886 0.933 . S
Dy896 O899 2.307 . S
Dy896 O901 2.395 . S
Dy896 O902 2.379 . S
Dy896 O904 2.339 . S
Dy896 O906 2.298 . S
Dy896 O910 2.275 . S
Dy896 C918 2.738 . S
Dy897 O900 2.298 . S
Dy897 O903 2.275 . S
Dy897 O905 2.307 . S
Dy897 O907 2.395 . S
Dy897 O908 2.379 . S
Dy897 O911 2.339 . S
Dy897 C927 2.738 . S
C898 O910 1.254 . S
C898 O911 1.257 . S
O899 Dy896 2.307 . S
O899 C909 1.266 . S
O900 Dy897 2.298 . S
O900 C909 1.236 . S
O901 Dy896 2.395 . S
O901 C918 1.255 . S
O902 Dy896 2.379 . S
O902 C918 1.249 . S
O903 Dy897 2.275 . S
O903 C919 1.254 . S
O904 Dy896 2.339 . S
O904 C919 1.257 . S
O905 Dy897 2.307 . S
O905 C920 1.266 . S
O906 Dy896 2.298 . S
O906 C920 1.236 . S
O907 Dy897 2.395 . S
O907 C927 1.255 . S
O908 Dy897 2.379 . S
O908 C927 1.249 . S
C909 O899 1.266 . S
C909 O900 1.236 . S
O910 Dy896 2.275 . S
O910 C898 1.254 . S
O911 Dy897 2.339 . S
O911 C898 1.257 . S
C912 C915 1.344 . S
C912 C916 1.328 . S
C912 C918 1.516 . S
C913 C914 1.304 . S
C913 C917 1.323 . S
C914 C913 1.304 . S
C914 C915 1.371 . S
C914 H928 0.930 . S
C915 C912 1.344 . S
C915 C914 1.371 . S
C915 H929 0.931 . S
C916 C912 1.328 . S
C916 C917 1.433 . S
C916 H930 0.931 . S
C917 C913 1.323 . S
C917 C916 1.433 . S
C917 H931 0.933 . S
C918 Dy896 2.738 . S
C918 O901 1.255 . S
C918 O902 1.249 . S
C918 C912 1.516 . S
C919 O903 1.254 . S
C919 O904 1.257 . S
C920 O905 1.266 . S
C920 O906 1.236 . S
C921 C924 1.344 . S
C921 C925 1.328 . S
C921 C927 1.516 . S
C922 C923 1.304 . S
C922 C926 1.323 . S
C923 C922 1.304 . S
C923 C924 1.371 . S
C923 H932 0.930 . S
C924 C921 1.344 . S
C924 C923 1.371 . S
C924 H933 0.931 . S
C925 C921 1.328 . S
C925 C926 1.433 . S
C925 H934 0.931 . S
C926 C922 1.323 . S
C926 C925 1.433 . S
C926 H935 0.933 . S
C927 Dy897 2.738 . S
C927 O907 1.255 . S
C927 O908 1.249 . S
C927 C921 1.516 . S
H928 C914 0.930 . S
H929 C915 0.931 . S
H930 C916 0.931 . S
H931 C917 0.933 . S
H932 C923 0.930 . S
H933 C924 0.931 . S
H934 C925 0.931 . S
H935 C926 0.933 . S
Dy936 O939 2.307 . S
Dy936 O941 2.395 1_455 S
Dy936 O942 2.379 1_455 S
Dy936 O944 2.339 . S
Dy936 O946 2.298 . S
Dy936 O950 2.275 . S
Dy936 C958 2.738 1_455 S
Dy937 O940 2.298 . S
Dy937 O943 2.275 . S
Dy937 O945 2.307 . S
Dy937 O947 2.395 . S
Dy937 O948 2.379 1_554 S
Dy937 O951 2.339 1_554 S
Dy937 C967 2.738 . S
C938 O950 1.254 1_556 S
C938 O951 1.257 . S
O939 Dy936 2.307 . S
O939 C949 1.266 . S
O940 Dy937 2.298 . S
O940 C949 1.236 . S
O941 Dy936 2.395 1_655 S
O941 C958 1.255 . S
O942 Dy936 2.379 1_655 S
O942 C958 1.249 . S
O943 Dy937 2.275 . S
O943 C959 1.254 . S
O944 Dy936 2.339 . S
O944 C959 1.257 . S
O945 Dy937 2.307 . S
O945 C960 1.266 . S
O946 Dy936 2.298 . S
O946 C960 1.236 . S
O947 Dy937 2.395 . S
O947 C967 1.255 . S
O948 Dy937 2.379 1_556 S
O948 C967 1.249 1_556 S
C949 O939 1.266 . S
C949 O940 1.236 . S
O950 Dy936 2.275 . S
O950 C938 1.254 1_554 S
O951 Dy937 2.339 1_556 S
O951 C938 1.257 . S
C952 C955 1.344 . S
C952 C956 1.328 . S
C952 C958 1.516 . S
C953 C954 1.304 . S
C953 C957 1.323 . S
C954 C953 1.304 . S
C954 C955 1.371 . S
C954 H968 0.930 . S
C955 C952 1.344 . S
C955 C954 1.371 . S
C955 H969 0.931 . S
C956 C952 1.328 . S
C956 C957 1.433 . S
C956 H970 0.931 . S
C957 C953 1.323 . S
C957 C956 1.433 . S
C957 H971 0.933 . S
C958 Dy936 2.738 1_655 S
C958 O941 1.255 . S
C958 O942 1.249 . S
C958 C952 1.516 . S
C959 O943 1.254 . S
C959 O944 1.257 . S
C960 O945 1.266 . S
C960 O946 1.236 . S
C961 C964 1.344 . S
C961 C965 1.328 1_554 S
C961 C967 1.516 . S
C962 C963 1.304 . S
C962 C966 1.323 1_554 S
C963 C962 1.304 . S
C963 C964 1.371 . S
C963 H972 0.930 . S
C964 C961 1.344 . S
C964 C963 1.371 . S
C964 H973 0.931 . S
C965 C961 1.328 1_556 S
C965 C966 1.433 . S
C965 H974 0.931 . S
C966 C962 1.323 1_556 S
C966 C965 1.433 . S
C966 H975 0.933 . S
C967 Dy937 2.738 . S
C967 O947 1.255 . S
C967 O948 1.249 1_554 S
C967 C961 1.516 . S
H968 C954 0.930 . S
H969 C955 0.931 . S
H970 C956 0.931 . S
H971 C957 0.933 . S
H972 C963 0.930 . S
H973 C964 0.931 . S
H974 C965 0.931 . S
H975 C966 0.933 . S
C976 C977 1.387 . S
C976 H980 0.950 . S
C976 C985 1.390 . S
C977 C976 1.387 . S
C977 C979 1.387 . S
H978 C985 0.950 . S
C979 C977 1.387 . S
C979 C981 1.390 . S
C979 H983 0.950 1_454 S
H980 C976 0.950 . S
C981 C979 1.390 . S
C981 C982 1.387 . S
C981 H984 0.935 1_554 S
C982 C981 1.387 . S
C982 C985 1.387 . S
H983 C979 0.950 1_656 S
H984 C981 0.935 1_556 S
C985 C976 1.390 . S
C985 H978 0.950 . S
C985 C982 1.387 . S
C986 C987 1.387 . S
C986 H990 0.950 . S
C986 C995 1.390 . S
C987 C986 1.387 . S
C987 C989 1.387 . S
H988 C995 0.950 . S
C989 C987 1.387 . S
C989 C991 1.390 . S
C989 H993 0.950 . S
H990 C986 0.950 . S
C991 C989 1.390 . S
C991 C992 1.387 . S
C991 H994 0.950 . S
C992 C991 1.387 . S
C992 C995 1.387 . S
H993 C989 0.950 . S
H994 C991 0.950 . S
C995 C986 1.390 . S
C995 H988 0.950 . S
C995 C992 1.387 . S
C996 C997 1.387 . S
C996 H1000 0.950 . S
C996 C1005 1.390 . S
C997 C996 1.387 . S
C997 C999 1.387 . S
H998 C1005 0.950 . S
C999 C997 1.387 . S
C999 C1001 1.390 . S
C999 H1003 0.950 . S
H1000 C996 0.950 . S
C1001 C999 1.390 . S
C1001 C1002 1.387 . S
C1001 H1004 0.950 . S
C1002 C1001 1.387 . S
C1002 C1005 1.387 . S
H1003 C999 0.950 . S
H1004 C1001 0.950 . S
C1005 C996 1.390 . S
C1005 H998 0.950 . S
C1005 C1002 1.387 . S
C1006 C1007 1.387 . S
C1006 H1010 0.950 . S
C1006 C1015 1.390 . S
C1007 C1006 1.387 . S
C1007 C1009 1.387 . S
H1008 C1015 0.950 . S
C1009 C1007 1.387 . S
C1009 C1011 1.390 . S
C1009 H1013 0.950 . S
H1010 C1006 0.950 . S
C1011 C1009 1.390 . S
C1011 C1012 1.387 . S
C1011 H1014 0.950 . S
C1012 C1011 1.387 . S
C1012 C1015 1.387 . S
H1013 C1009 0.950 . S
H1014 C1011 0.950 . S
C1015 C1006 1.390 . S
C1015 H1008 0.950 . S
C1015 C1012 1.387 . S
C1016 C1017 1.387 . S
C1016 H1020 0.950 . S
C1016 C1025 1.390 . S
C1017 C1016 1.387 . S
C1017 C1019 1.387 . S
H1018 C1025 0.950 . S
C1019 C1017 1.387 . S
C1019 C1021 1.390 . S
C1019 H1023 0.950 . S
H1020 C1016 0.950 . S
C1021 C1019 1.390 . S
C1021 C1022 1.387 . S
C1021 H1024 0.950 . S
C1022 C1021 1.387 . S
C1022 C1025 1.387 . S
H1023 C1019 0.950 . S
H1024 C1021 0.950 . S
C1025 C1016 1.390 . S
C1025 H1018 0.950 . S
C1025 C1022 1.387 . S
C1026 C1027 1.387 . S
C1026 H1030 0.950 . S
C1026 C1035 1.390 . S
C1027 C1026 1.387 . S
C1027 C1029 1.387 . S
H1028 C1035 0.950 . S
C1029 C1027 1.387 . S
C1029 C1031 1.390 . S
C1029 H1033 0.950 . S
H1030 C1026 0.950 . S
C1031 C1029 1.390 . S
C1031 C1032 1.387 . S
C1031 H1034 0.950 . S
C1032 C1031 1.387 . S
C1032 C1035 1.387 . S
H1033 C1029 0.950 . S
H1034 C1031 0.950 . S
C1035 C1026 1.390 . S
C1035 H1028 0.950 . S
C1035 C1032 1.387 . S
C1036 C1037 1.387 . S
C1036 H1040 0.950 . S
C1036 C1045 1.390 . S
C1037 C1036 1.387 . S
C1037 C1039 1.387 . S
H1038 C1045 0.950 . S
C1039 C1037 1.387 . S
C1039 C1041 1.390 . S
C1039 H1043 0.950 . S
H1040 C1036 0.950 . S
C1041 C1039 1.390 . S
C1041 C1042 1.387 . S
C1041 H1044 0.950 . S
C1042 C1041 1.387 . S
C1042 C1045 1.387 . S
H1043 C1039 0.950 . S
H1044 C1041 0.950 . S
C1045 C1036 1.390 . S
C1045 H1038 0.950 . S
C1045 C1042 1.387 . S
C1046 C1047 1.387 . S
C1046 H1050 0.950 . S
C1046 C1055 1.390 . S
C1047 C1046 1.387 . S
C1047 C1049 1.387 . S
H1048 C1055 0.950 . S
C1049 C1047 1.387 . S
C1049 C1051 1.390 . S
C1049 H1053 0.950 . S
H1050 C1046 0.950 . S
C1051 C1049 1.390 . S
C1051 C1052 1.387 . S
C1051 H1054 0.950 . S
C1052 C1051 1.387 . S
C1052 C1055 1.387 . S
H1053 C1049 0.950 . S
H1054 C1051 0.950 . S
C1055 C1046 1.390 . S
C1055 H1048 0.950 . S
C1055 C1052 1.387 . S
C1056 C1057 1.387 . S
C1056 H1060 0.950 1_545 S
C1056 C1065 1.390 1_655 S
C1057 C1056 1.387 . S
C1057 C1059 1.387 1_655 S
H1058 C1065 0.950 1_655 S
C1059 C1057 1.387 1_455 S
C1059 C1061 1.390 . S
C1059 H1063 0.950 . S
H1060 C1056 0.950 1_565 S
C1061 C1059 1.390 . S
C1061 C1062 1.387 . S
C1061 H1064 0.950 . S
C1062 C1061 1.387 . S
C1062 C1065 1.387 . S
H1063 C1059 0.950 . S
H1064 C1061 0.950 . S
C1065 C1056 1.390 1_455 S
C1065 H1058 0.950 1_455 S
C1065 C1062 1.387 . S
C1066 C1067 1.387 . S
C1066 H1070 0.950 . S
C1066 C1075 1.390 . S
C1067 C1066 1.387 . S
C1067 C1069 1.387 . S
H1068 C1075 0.950 . S
C1069 C1067 1.387 . S
C1069 C1071 1.390 . S
C1069 H1073 0.950 . S
H1070 C1066 0.950 . S
C1071 C1069 1.390 . S
C1071 C1072 1.387 . S
C1071 H1074 0.950 . S
C1072 C1071 1.387 . S
C1072 C1075 1.387 . S
H1073 C1069 0.950 . S
H1074 C1071 0.950 . S
C1075 C1066 1.390 . S
C1075 H1068 0.950 . S
C1075 C1072 1.387 . S
C1076 C1077 1.387 . S
C1076 H1080 0.950 . S
C1076 C1085 1.390 . S
C1077 C1076 1.387 . S
C1077 C1079 1.387 . S
H1078 C1085 0.950 . S
C1079 C1077 1.387 . S
C1079 C1081 1.390 . S
C1079 H1083 0.950 . S
H1080 C1076 0.950 . S
C1081 C1079 1.390 . S
C1081 C1082 1.387 . S
C1081 H1084 0.950 . S
C1082 C1081 1.387 . S
C1082 C1085 1.387 . S
H1083 C1079 0.950 . S
H1084 C1081 0.950 . S
C1085 C1076 1.390 . S
C1085 H1078 0.950 . S
C1085 C1082 1.387 . S
C1086 C1087 1.387 . S
C1086 H1090 0.950 . S
C1086 C1095 1.390 . S
C1087 C1086 1.387 . S
C1087 C1089 1.387 . S
H1088 C1095 0.950 . S
C1089 C1087 1.387 . S
C1089 C1091 1.390 . S
C1089 H1093 0.950 . S
H1090 C1086 0.950 . S
C1091 C1089 1.390 . S
C1091 C1092 1.387 . S
C1091 H1094 0.950 . S
C1092 C1091 1.387 . S
C1092 C1095 1.387 . S
H1093 C1089 0.950 . S
H1094 C1091 0.950 . S
C1095 C1086 1.390 . S
C1095 H1088 0.950 . S
C1095 C1092 1.387 . S
C1096 C1097 1.389 1_455 S
C1096 H1100 0.950 . S
C1096 C1105 1.390 . S
C1097 C1096 1.389 1_655 S
C1097 C1099 1.382 1_655 S
H1098 C1105 0.950 . S
C1099 C1097 1.382 1_455 S
C1099 C1101 1.390 . S
C1099 H1103 0.964 1_455 S
H1100 C1096 0.950 . S
C1101 C1099 1.390 . S
C1101 C1102 1.387 . S
C1101 H1104 0.950 . S
C1102 C1101 1.387 . S
C1102 C1105 1.387 . S
H1103 C1099 0.964 1_655 S
H1104 C1101 0.950 . S
C1105 C1096 1.390 . S
C1105 H1098 0.950 . S
C1105 C1102 1.387 . S
C1106 C1107 1.387 . S
C1106 H1110 0.950 . S
C1106 C1115 1.390 . S
C1107 C1106 1.387 . S
C1107 C1109 1.387 . S
H1108 C1115 0.950 . S
C1109 C1107 1.387 . S
C1109 C1111 1.390 . S
C1109 H1113 0.950 . S
H1110 C1106 0.950 . S
C1111 C1109 1.390 . S
C1111 C1112 1.387 . S
C1111 H1114 0.950 . S
C1112 C1111 1.387 . S
C1112 C1115 1.387 . S
H1113 C1109 0.950 . S
H1114 C1111 0.950 . S
C1115 C1106 1.390 . S
C1115 H1108 0.950 . S
C1115 C1112 1.387 . S
C1116 C1117 1.387 . S
C1116 H1120 0.950 . S
C1116 C1125 1.390 . S
C1117 C1116 1.387 . S
C1117 C1119 1.387 . S
H1118 C1125 0.950 . S
C1119 C1117 1.387 . S
C1119 C1121 1.390 . S
C1119 H1123 0.950 . S
H1120 C1116 0.950 . S
C1121 C1119 1.390 . S
C1121 C1122 1.387 . S
C1121 H1124 0.950 . S
C1122 C1121 1.387 . S
C1122 C1125 1.387 . S
H1123 C1119 0.950 . S
H1124 C1121 0.950 . S
C1125 C1116 1.390 . S
C1125 H1118 0.950 . S
C1125 C1122 1.387 . S
C1126 C1127 1.387 . S
C1126 H1130 0.950 . S
C1126 C1135 1.390 . S
C1127 C1126 1.387 . S
C1127 C1129 1.387 . S
H1128 C1135 0.950 . S
C1129 C1127 1.387 . S
C1129 C1131 1.390 . S
C1129 H1133 0.950 . S
H1130 C1126 0.950 . S
C1131 C1129 1.390 . S
C1131 C1132 1.387 . S
C1131 H1134 0.950 . S
C1132 C1131 1.387 . S
C1132 C1135 1.387 . S
H1133 C1129 0.950 . S
H1134 C1131 0.950 . S
C1135 C1126 1.390 . S
C1135 H1128 0.950 . S
C1135 C1132 1.387 . S
C1136 C1137 1.387 1_545 S
C1136 H1140 0.950 1_554 S
C1136 C1145 1.390 . S
C1137 C1136 1.387 1_565 S
C1137 C1139 1.387 . S
H1138 C1145 0.950 . S
C1139 C1137 1.387 . S
C1139 C1141 1.390 . S
C1139 H1143 0.950 . S
H1140 C1136 0.950 1_556 S
C1141 C1139 1.390 . S
C1141 C1142 1.387 1_565 S
C1141 H1144 0.950 . S
C1142 C1141 1.387 1_545 S
C1142 C1145 1.387 . S
H1143 C1139 0.950 . S
H1144 C1141 0.950 . S
C1145 C1136 1.390 . S
C1145 H1138 0.950 . S
C1145 C1142 1.387 . S
C1146 C1147 1.387 . S
C1146 H1150 0.950 . S
C1146 C1155 1.390 . S
C1147 C1146 1.387 . S
C1147 C1149 1.387 . S
H1148 C1155 0.950 . S
C1149 C1147 1.387 . S
C1149 C1151 1.390 . S
C1149 H1153 0.950 1_554 S
H1150 C1146 0.950 . S
C1151 C1149 1.390 . S
C1151 C1152 1.387 . S
C1151 H1154 0.950 1_554 S
C1152 C1151 1.387 . S
C1152 C1155 1.387 . S
H1153 C1149 0.950 1_556 S
H1154 C1151 0.950 1_556 S
C1155 C1146 1.390 . S
C1155 H1148 0.950 . S
C1155 C1152 1.387 . S
C1156 C1157 1.387 . S
C1156 H1160 0.950 . S
C1156 C1165 1.390 . S
C1157 C1156 1.387 . S
C1157 C1159 1.387 . S
H1158 C1165 0.950 . S
C1159 C1157 1.387 . S
C1159 C1161 1.390 . S
C1159 H1163 0.950 . S
H1160 C1156 0.950 . S
C1161 C1159 1.390 . S
C1161 C1162 1.387 . S
C1161 H1164 0.950 . S
C1162 C1161 1.387 . S
C1162 C1165 1.387 . S
H1163 C1159 0.950 . S
H1164 C1161 0.950 . S
C1165 C1156 1.390 . S
C1165 H1158 0.950 . S
C1165 C1162 1.387 . S
C1166 C1167 1.387 . S
C1166 H1170 0.950 . S
C1166 C1175 1.390 . S
C1167 C1166 1.387 . S
C1167 C1169 1.387 . S
H1168 C1175 0.950 . S
C1169 C1167 1.387 . S
C1169 C1171 1.390 . S
C1169 H1173 0.950 . S
H1170 C1166 0.950 . S
C1171 C1169 1.390 . S
C1171 C1172 1.387 . S
C1171 H1174 0.950 . S
C1172 C1171 1.387 . S
C1172 C1175 1.387 . S
H1173 C1169 0.950 . S
H1174 C1171 0.950 . S
C1175 C1166 1.390 . S
C1175 H1168 0.950 . S
C1175 C1172 1.387 . S
C1176 C1177 1.387 . S
C1176 H1180 0.950 . S
C1176 C1185 1.390 . S
C1177 C1176 1.387 . S
C1177 C1179 1.387 . S
H1178 C1185 0.950 . S
C1179 C1177 1.387 . S
C1179 C1181 1.390 . S
C1179 H1183 0.950 . S
H1180 C1176 0.950 . S
C1181 C1179 1.390 . S
C1181 C1182 1.387 . S
C1181 H1184 0.950 . S
C1182 C1181 1.387 . S
C1182 C1185 1.387 . S
H1183 C1179 0.950 . S
H1184 C1181 0.950 . S
C1185 C1176 1.390 . S
C1185 H1178 0.950 . S
C1185 C1182 1.387 . S
C1186 C1187 1.387 . S
C1186 H1190 0.950 . S
C1186 C1195 1.390 . S
C1187 C1186 1.387 . S
C1187 C1189 1.387 . S
H1188 C1195 0.950 . S
C1189 C1187 1.387 . S
C1189 C1191 1.390 . S
C1189 H1193 0.950 . S
H1190 C1186 0.950 . S
C1191 C1189 1.390 . S
C1191 C1192 1.387 . S
C1191 H1194 0.950 . S
C1192 C1191 1.387 . S
C1192 C1195 1.387 . S
H1193 C1189 0.950 . S
H1194 C1191 0.950 . S
C1195 C1186 1.390 . S
C1195 H1188 0.950 . S
C1195 C1192 1.387 . S
C1196 C1197 1.387 . S
C1196 H1200 0.950 . S
C1196 C1205 1.390 . S
C1197 C1196 1.387 . S
C1197 C1199 1.387 . S
H1198 C1205 0.950 . S
C1199 C1197 1.387 . S
C1199 C1201 1.390 . S
C1199 H1203 0.950 . S
H1200 C1196 0.950 . S
C1201 C1199 1.390 . S
C1201 C1202 1.387 . S
C1201 H1204 0.950 . S
C1202 C1201 1.387 . S
C1202 C1205 1.387 . S
H1203 C1199 0.950 . S
H1204 C1201 0.950 . S
C1205 C1196 1.390 . S
C1205 H1198 0.950 . S
C1205 C1202 1.387 . S
C1206 C1207 1.387 . S
C1206 H1210 0.950 . S
C1206 C1215 1.390 . S
C1207 C1206 1.387 . S
C1207 C1209 1.387 . S
H1208 C1215 0.950 . S
C1209 C1207 1.387 . S
C1209 C1211 1.390 . S
C1209 H1213 0.950 . S
H1210 C1206 0.950 . S
C1211 C1209 1.390 . S
C1211 C1212 1.387 . S
C1211 H1214 0.950 . S
C1212 C1211 1.387 . S
C1212 C1215 1.387 . S
H1213 C1209 0.950 . S
H1214 C1211 0.950 . S
C1215 C1206 1.390 . S
C1215 H1208 0.950 . S
C1215 C1212 1.387 . S
C1216 C1217 1.387 . S
C1216 H1220 0.950 . S
C1216 C1225 1.390 . S
C1217 C1216 1.387 . S
C1217 C1219 1.387 . S
H1218 C1225 0.950 . S
C1219 C1217 1.387 . S
C1219 C1221 1.390 . S
C1219 H1223 0.950 . S
H1220 C1216 0.950 . S
C1221 C1219 1.390 . S
C1221 C1222 1.387 . S
C1221 H1224 0.950 . S
C1222 C1221 1.387 . S
C1222 C1225 1.387 . S
H1223 C1219 0.950 . S
H1224 C1221 0.950 . S
C1225 C1216 1.390 . S
C1225 H1218 0.950 . S
C1225 C1222 1.387 . S
C1226 C1227 1.387 . S
C1226 H1230 0.950 . S
C1226 C1235 1.390 . S
C1227 C1226 1.387 . S
C1227 C1229 1.387 . S
H1228 C1235 0.950 . S
C1229 C1227 1.387 . S
C1229 C1231 1.390 . S
C1229 H1233 0.950 . S
H1230 C1226 0.950 . S
C1231 C1229 1.390 . S
C1231 C1232 1.387 . S
C1231 H1234 0.950 . S
C1232 C1231 1.387 . S
C1232 C1235 1.387 . S
H1233 C1229 0.950 . S
H1234 C1231 0.950 . S
C1235 C1226 1.390 . S
C1235 H1228 0.950 . S
C1235 C1232 1.387 . S
C1236 C1237 1.387 . S
C1236 H1240 0.950 . S
C1236 C1245 1.390 . S
C1237 C1236 1.387 . S
C1237 C1239 1.387 . S
H1238 C1245 0.950 . S
C1239 C1237 1.387 . S
C1239 C1241 1.390 . S
C1239 H1243 0.950 . S
H1240 C1236 0.950 . S
C1241 C1239 1.390 . S
C1241 C1242 1.387 . S
C1241 H1244 0.950 . S
C1242 C1241 1.387 . S
C1242 C1245 1.387 . S
H1243 C1239 0.950 . S
H1244 C1241 0.950 . S
C1245 C1236 1.390 . S
C1245 H1238 0.950 . S
C1245 C1242 1.387 . S
C1246 C1247 1.387 . S
C1246 H1250 0.950 . S
C1246 C1255 1.390 . S
C1247 C1246 1.387 . S
C1247 C1249 1.387 . S
H1248 C1255 0.950 . S
C1249 C1247 1.387 . S
C1249 C1251 1.390 . S
C1249 H1253 0.950 . S
H1250 C1246 0.950 . S
C1251 C1249 1.390 . S
C1251 C1252 1.387 . S
C1251 H1254 0.950 . S
C1252 C1251 1.387 . S
C1252 C1255 1.387 . S
H1253 C1249 0.950 . S
H1254 C1251 0.950 . S
C1255 C1246 1.390 . S
C1255 H1248 0.950 . S
C1255 C1252 1.387 . S
C1256 C1257 1.387 . S
C1256 H1260 0.950 1_455 S
C1256 C1265 1.390 1_455 S
C1257 C1256 1.387 . S
C1257 C1259 1.387 . S
H1258 C1265 0.950 . S
C1259 C1257 1.387 . S
C1259 C1261 1.390 . S
C1259 H1263 0.950 . S
H1260 C1256 0.950 1_655 S
C1261 C1259 1.390 . S
C1261 C1262 1.387 . S
C1261 H1264 0.950 . S
C1262 C1261 1.387 . S
C1262 C1265 1.387 1_455 S
H1263 C1259 0.950 . S
H1264 C1261 0.950 . S
C1265 C1256 1.390 1_655 S
C1265 H1258 0.950 . S
C1265 C1262 1.387 1_655 S
C1266 C1267 1.387 . S
C1266 H1270 0.950 . S
C1266 C1275 1.390 . S
C1267 C1266 1.387 . S
C1267 C1269 1.387 . S
H1268 C1275 0.950 . S
C1269 C1267 1.387 . S
C1269 C1271 1.390 . S
C1269 H1273 0.950 . S
H1270 C1266 0.950 . S
C1271 C1269 1.390 . S
C1271 C1272 1.387 . S
C1271 H1274 0.950 . S
C1272 C1271 1.387 . S
C1272 C1275 1.387 . S
H1273 C1269 0.950 . S
H1274 C1271 0.950 . S
C1275 C1266 1.390 . S
C1275 H1268 0.950 . S
C1275 C1272 1.387 . S
C1276 C1277 1.387 . S
C1276 H1280 0.950 . S
C1276 C1285 1.390 . S
C1277 C1276 1.387 . S
C1277 C1279 1.387 . S
H1278 C1285 0.950 1_554 S
C1279 C1277 1.387 . S
C1279 C1281 1.390 . S
C1279 H1283 0.950 . S
H1280 C1276 0.950 . S
C1281 C1279 1.390 . S
C1281 C1282 1.387 . S
C1281 H1284 0.950 1_565 S
C1282 C1281 1.387 . S
C1282 C1285 1.387 . S
H1283 C1279 0.950 . S
H1284 C1281 0.950 1_545 S
C1285 C1276 1.390 . S
C1285 H1278 0.950 1_556 S
C1285 C1282 1.387 . S
C1286 C1287 1.387 . S
C1286 H1290 0.950 . S
C1286 C1295 1.390 . S
C1287 C1286 1.387 . S
C1287 C1289 1.387 . S
H1288 C1295 0.950 . S
C1289 C1287 1.387 . S
C1289 C1291 1.390 . S
C1289 H1293 0.950 . S
H1290 C1286 0.950 . S
C1291 C1289 1.390 . S
C1291 C1292 1.387 . S
C1291 H1294 0.950 . S
C1292 C1291 1.387 . S
C1292 C1295 1.387 . S
H1293 C1289 0.950 . S
H1294 C1291 0.950 . S
C1295 C1286 1.390 . S
C1295 H1288 0.950 . S
C1295 C1292 1.387 . S
C1296 C1297 1.387 . S
C1296 H1300 0.950 . S
C1296 C1305 1.390 . S
C1297 C1296 1.387 . S
C1297 C1299 1.387 . S
H1298 C1305 0.950 . S
C1299 C1297 1.387 . S
C1299 C1301 1.390 . S
C1299 H1303 0.950 . S
H1300 C1296 0.950 . S
C1301 C1299 1.390 . S
C1301 C1302 1.387 . S
C1301 H1304 0.950 . S
C1302 C1301 1.387 . S
C1302 C1305 1.387 . S
H1303 C1299 0.950 . S
H1304 C1301 0.950 . S
C1305 C1296 1.390 . S
C1305 H1298 0.950 . S
C1305 C1302 1.387 . S
C1306 C1307 1.387 . S
C1306 H1310 0.950 . S
C1306 C1315 1.390 . S
C1307 C1306 1.387 . S
C1307 C1309 1.387 . S
H1308 C1315 0.950 . S
C1309 C1307 1.387 . S
C1309 C1311 1.390 . S
C1309 H1313 0.950 . S
H1310 C1306 0.950 . S
C1311 C1309 1.390 . S
C1311 C1312 1.387 . S
C1311 H1314 0.950 . S
C1312 C1311 1.387 . S
C1312 C1315 1.387 . S
H1313 C1309 0.950 . S
H1314 C1311 0.950 . S
C1315 C1306 1.390 . S
C1315 H1308 0.950 . S
C1315 C1312 1.387 . S
C1316 C1317 1.387 . S
C1316 H1320 0.950 . S
C1316 C1325 1.390 . S
C1317 C1316 1.387 . S
C1317 C1319 1.360 1_545 S
H1318 C1325 0.950 . S
C1319 C1317 1.360 1_565 S
C1319 C1321 1.391 1_565 S
C1319 H1323 0.978 . S
H1320 C1316 0.950 . S
C1321 C1319 1.391 1_545 S
C1321 C1322 1.387 . S
C1321 H1324 0.950 1_545 S
C1322 C1321 1.387 . S
C1322 C1325 1.387 . S
H1323 C1319 0.978 . S
H1324 C1321 0.950 1_565 S
C1325 C1316 1.390 . S
C1325 H1318 0.950 . S
C1325 C1322 1.387 . S
C1326 C1327 1.387 . S
C1326 H1330 0.950 . S
C1326 C1335 1.390 . S
C1327 C1326 1.387 . S
C1327 C1329 1.387 . S
H1328 C1335 0.950 . S
C1329 C1327 1.387 . S
C1329 C1331 1.390 . S
C1329 H1333 0.950 . S
H1330 C1326 0.950 . S
C1331 C1329 1.390 . S
C1331 C1332 1.387 . S
C1331 H1334 0.950 . S
C1332 C1331 1.387 . S
C1332 C1335 1.387 . S
H1333 C1329 0.950 . S
H1334 C1331 0.950 . S
C1335 C1326 1.390 . S
C1335 H1328 0.950 . S
C1335 C1332 1.387 . S
C1336 C1337 1.387 . S
C1336 H1340 0.950 . S
C1336 C1345 1.390 . S
C1337 C1336 1.387 . S
C1337 C1339 1.387 . S
H1338 C1345 0.950 . S
C1339 C1337 1.387 . S
C1339 C1341 1.390 . S
C1339 H1343 0.950 . S
H1340 C1336 0.950 . S
C1341 C1339 1.390 . S
C1341 C1342 1.387 . S
C1341 H1344 0.950 . S
C1342 C1341 1.387 . S
C1342 C1345 1.387 . S
H1343 C1339 0.950 . S
H1344 C1341 0.950 . S
C1345 C1336 1.390 . S
C1345 H1338 0.950 . S
C1345 C1342 1.387 . S
C1346 C1347 1.387 . S
C1346 H1350 0.950 . S
C1346 C1355 1.390 . S
C1347 C1346 1.387 . S
C1347 C1349 1.387 . S
H1348 C1355 0.950 . S
C1349 C1347 1.387 . S
C1349 C1351 1.390 . S
C1349 H1353 0.950 . S
H1350 C1346 0.950 . S
C1351 C1349 1.390 . S
C1351 C1352 1.387 . S
C1351 H1354 0.950 . S
C1352 C1351 1.387 . S
C1352 C1355 1.387 . S
H1353 C1349 0.950 . S
H1354 C1351 0.950 . S
C1355 C1346 1.390 . S
C1355 H1348 0.950 . S
C1355 C1352 1.387 . S
C1356 C1357 1.387 . S
C1356 H1360 0.950 . S
C1356 C1365 1.390 . S
C1357 C1356 1.387 . S
C1357 C1359 1.387 1_565 S
H1358 C1365 0.950 . S
C1359 C1357 1.387 1_545 S
C1359 C1361 1.390 . S
C1359 H1363 0.950 . S
H1360 C1356 0.950 . S
C1361 C1359 1.390 . S
C1361 C1362 1.387 1_545 S
C1361 H1364 0.950 . S
C1362 C1361 1.387 1_565 S
C1362 C1365 1.387 . S
H1363 C1359 0.950 . S
H1364 C1361 0.950 . S
C1365 C1356 1.390 . S
C1365 H1358 0.950 . S
C1365 C1362 1.387 . S
C1366 C1367 1.387 . S
C1366 H1370 0.950 . S
C1366 C1375 1.390 . S
C1367 C1366 1.387 . S
C1367 C1369 1.387 . S
H1368 C1375 0.950 . S
C1369 C1367 1.387 . S
C1369 C1371 1.390 . S
C1369 H1373 0.950 . S
H1370 C1366 0.950 . S
C1371 C1369 1.390 . S
C1371 C1372 1.387 . S
C1371 H1374 0.950 . S
C1372 C1371 1.387 . S
C1372 C1375 1.387 . S
H1373 C1369 0.950 . S
H1374 C1371 0.950 . S
C1375 C1366 1.390 . S
C1375 H1368 0.950 . S
C1375 C1372 1.387 . S
C1376 C1377 1.387 . S
C1376 H1380 0.950 . S
C1376 C1385 1.390 . S
C1377 C1376 1.387 . S
C1377 C1379 1.387 . S
H1378 C1385 0.950 . S
C1379 C1377 1.387 . S
C1379 C1381 1.390 . S
C1379 H1383 0.950 . S
H1380 C1376 0.950 . S
C1381 C1379 1.390 . S
C1381 C1382 1.387 . S
C1381 H1384 0.950 . S
C1382 C1381 1.387 . S
C1382 C1385 1.387 . S
H1383 C1379 0.950 . S
H1384 C1381 0.950 . S
C1385 C1376 1.390 . S
C1385 H1378 0.950 . S
C1385 C1382 1.387 . S
C1386 C1387 1.387 . S
C1386 H1390 0.950 . S
C1386 C1395 1.390 . S
C1387 C1386 1.387 . S
C1387 C1389 1.387 . S
H1388 C1395 0.950 . S
C1389 C1387 1.387 . S
C1389 C1391 1.390 . S
C1389 H1393 0.950 . S
H1390 C1386 0.950 . S
C1391 C1389 1.390 . S
C1391 C1392 1.387 . S
C1391 H1394 0.950 . S
C1392 C1391 1.387 . S
C1392 C1395 1.387 . S
H1393 C1389 0.950 . S
H1394 C1391 0.950 . S
C1395 C1386 1.390 . S
C1395 H1388 0.950 . S
C1395 C1392 1.387 . S
C1396 C1397 1.387 . S
C1396 H1400 0.950 . S
C1396 C1405 1.390 . S
C1397 C1396 1.387 . S
C1397 C1399 1.387 . S
H1398 C1405 0.950 . S
C1399 C1397 1.387 . S
C1399 C1401 1.390 . S
C1399 H1403 0.950 . S
H1400 C1396 0.950 . S
C1401 C1399 1.390 . S
C1401 C1402 1.387 . S
C1401 H1404 0.950 . S
C1402 C1401 1.387 . S
C1402 C1405 1.387 . S
H1403 C1399 0.950 . S
H1404 C1401 0.950 . S
C1405 C1396 1.390 . S
C1405 H1398 0.950 . S
C1405 C1402 1.387 . S
C1406 C1407 1.387 . S
C1406 H1410 0.950 . S
C1406 C1415 1.390 . S
C1407 C1406 1.387 . S
C1407 C1409 1.387 . S
H1408 C1415 0.950 . S
C1409 C1407 1.387 . S
C1409 C1411 1.390 . S
C1409 H1413 0.950 . S
H1410 C1406 0.950 . S
C1411 C1409 1.390 . S
C1411 C1412 1.387 . S
C1411 H1414 0.950 . S
C1412 C1411 1.387 . S
C1412 C1415 1.387 . S
H1413 C1409 0.950 . S
H1414 C1411 0.950 . S
C1415 C1406 1.390 . S
C1415 H1408 0.950 . S
C1415 C1412 1.387 . S
C1416 C1417 1.387 . S
C1416 H1420 0.950 . S
C1416 C1425 1.390 . S
C1417 C1416 1.387 . S
C1417 C1419 1.387 . S
H1418 C1425 0.950 . S
C1419 C1417 1.387 . S
C1419 C1421 1.390 1_545 S
C1419 H1423 0.950 1_545 S
H1420 C1416 0.950 . S
C1421 C1419 1.390 1_565 S
C1421 C1422 1.387 1_565 S
C1421 H1424 0.950 . S
C1422 C1421 1.387 1_545 S
C1422 C1425 1.387 . S
H1423 C1419 0.950 1_565 S
H1424 C1421 0.950 . S
C1425 C1416 1.390 . S
C1425 H1418 0.950 . S
C1425 C1422 1.387 . S
C1426 C1427 1.387 . S
C1426 H1430 0.950 . S
C1426 C1435 1.390 . S
C1427 C1426 1.387 . S
C1427 C1429 1.387 . S
H1428 C1435 0.950 . S
C1429 C1427 1.387 . S
C1429 C1431 1.390 . S
C1429 H1433 0.950 . S
H1430 C1426 0.950 . S
C1431 C1429 1.390 . S
C1431 C1432 1.387 . S
C1431 H1434 0.950 . S
C1432 C1431 1.387 . S
C1432 C1435 1.387 . S
H1433 C1429 0.950 . S
H1434 C1431 0.950 . S
C1435 C1426 1.390 . S
C1435 H1428 0.950 . S
C1435 C1432 1.387 . S
C1436 C1437 1.387 . S
C1436 H1440 0.950 . S
C1436 C1445 1.390 . S
C1437 C1436 1.387 . S
C1437 C1439 1.387 . S
H1438 C1445 0.950 . S
C1439 C1437 1.387 . S
C1439 C1441 1.390 . S
C1439 H1443 0.950 . S
H1440 C1436 0.950 . S
C1441 C1439 1.390 . S
C1441 C1442 1.387 . S
C1441 H1444 0.950 . S
C1442 C1441 1.387 . S
C1442 C1445 1.387 . S
H1443 C1439 0.950 . S
H1444 C1441 0.950 . S
C1445 C1436 1.390 . S
C1445 H1438 0.950 . S
C1445 C1442 1.387 . S
C1446 C1447 1.387 . S
C1446 H1450 0.950 . S
C1446 C1455 1.390 . S
C1447 C1446 1.387 . S
C1447 C1449 1.387 . S
H1448 C1455 0.950 . S
C1449 C1447 1.387 . S
C1449 C1451 1.390 . S
C1449 H1453 0.950 . S
H1450 C1446 0.950 . S
C1451 C1449 1.390 . S
C1451 C1452 1.387 . S
C1451 H1454 0.950 . S
C1452 C1451 1.387 . S
C1452 C1455 1.387 . S
H1453 C1449 0.950 . S
H1454 C1451 0.950 . S
C1455 C1446 1.390 . S
C1455 H1448 0.950 . S
C1455 C1452 1.387 . S
C1456 C1457 1.387 . S
C1456 H1460 0.950 . S
C1456 C1465 1.390 . S
C1457 C1456 1.387 . S
C1457 C1459 1.387 . S
H1458 C1465 0.950 . S
C1459 C1457 1.387 . S
C1459 C1461 1.390 . S
C1459 H1463 0.950 . S
H1460 C1456 0.950 . S
C1461 C1459 1.390 . S
C1461 C1462 1.387 . S
C1461 H1464 0.950 . S
C1462 C1461 1.387 . S
C1462 C1465 1.387 . S
H1463 C1459 0.950 . S
H1464 C1461 0.950 . S
C1465 C1456 1.390 . S
C1465 H1458 0.950 . S
C1465 C1462 1.387 . S
C1466 C1467 1.387 . S
C1466 H1470 0.950 . S
C1466 C1475 1.390 . S
C1467 C1466 1.387 . S
C1467 C1469 1.387 . S
H1468 C1475 0.950 . S
C1469 C1467 1.387 . S
C1469 C1471 1.390 . S
C1469 H1473 0.950 . S
H1470 C1466 0.950 . S
C1471 C1469 1.390 . S
C1471 C1472 1.387 . S
C1471 H1474 0.950 . S
C1472 C1471 1.387 . S
C1472 C1475 1.387 . S
H1473 C1469 0.950 . S
H1474 C1471 0.950 . S
C1475 C1466 1.390 . S
C1475 H1468 0.950 . S
C1475 C1472 1.387 . S
C1476 C1477 1.387 . S
C1476 H1480 0.950 . S
C1476 C1485 1.390 . S
C1477 C1476 1.387 . S
C1477 C1479 1.387 . S
H1478 C1485 0.950 . S
C1479 C1477 1.387 . S
C1479 C1481 1.390 . S
C1479 H1483 0.950 1_554 S
H1480 C1476 0.950 . S
C1481 C1479 1.390 . S
C1481 C1482 1.387 . S
C1481 H1484 0.950 1_554 S
C1482 C1481 1.387 . S
C1482 C1485 1.387 . S
H1483 C1479 0.950 1_556 S
H1484 C1481 0.950 1_556 S
C1485 C1476 1.390 . S
C1485 H1478 0.950 . S
C1485 C1482 1.387 . S
C1486 C1487 1.387 1_655 S
C1486 H1490 0.950 1_655 S
C1486 C1495 1.390 . S
C1487 C1486 1.387 1_455 S
C1487 C1489 1.387 1_455 S
H1488 C1495 0.950 . S
C1489 C1487 1.387 1_655 S
C1489 C1491 1.390 . S
C1489 H1493 0.950 . S
H1490 C1486 0.950 1_455 S
C1491 C1489 1.390 . S
C1491 C1492 1.387 . S
C1491 H1494 0.950 . S
C1492 C1491 1.387 . S
C1492 C1495 1.387 . S
H1493 C1489 0.950 . S
H1494 C1491 0.950 . S
C1495 C1486 1.390 . S
C1495 H1488 0.950 . S
C1495 C1492 1.387 . S
C1496 C1497 1.387 . S
C1496 H1500 0.950 . S
C1496 C1505 1.390 . S
C1497 C1496 1.387 . S
C1497 C1499 1.387 . S
H1498 C1505 0.950 . S
C1499 C1497 1.387 . S
C1499 C1501 1.390 . S
C1499 H1503 0.950 . S
H1500 C1496 0.950 . S
C1501 C1499 1.390 . S
C1501 C1502 1.387 . S
C1501 H1504 0.950 . S
C1502 C1501 1.387 . S
C1502 C1505 1.387 . S
H1503 C1499 0.950 . S
H1504 C1501 0.950 . S
C1505 C1496 1.390 . S
C1505 H1498 0.950 . S
C1505 C1502 1.387 . S
C1506 C1507 1.387 . S
C1506 H1510 0.950 . S
C1506 C1515 1.390 . S
C1507 C1506 1.387 . S
C1507 C1509 1.387 . S
H1508 C1515 0.950 . S
C1509 C1507 1.387 . S
C1509 C1511 1.390 . S
C1509 H1513 0.950 . S
H1510 C1506 0.950 . S
C1511 C1509 1.390 . S
C1511 C1512 1.387 . S
C1511 H1514 0.950 . S
C1512 C1511 1.387 . S
C1512 C1515 1.387 . S
H1513 C1509 0.950 . S
H1514 C1511 0.950 . S
C1515 C1506 1.390 . S
C1515 H1508 0.950 . S
C1515 C1512 1.387 . S
C1516 C1517 1.387 . S
C1516 H1520 0.950 . S
C1516 C1525 1.390 . S
C1517 C1516 1.387 . S
C1517 C1519 1.387 . S
H1518 C1525 0.950 . S
C1519 C1517 1.387 . S
C1519 C1521 1.390 . S
C1519 H1523 0.950 . S
H1520 C1516 0.950 . S
C1521 C1519 1.390 . S
C1521 C1522 1.387 . S
C1521 H1524 0.950 . S
C1522 C1521 1.387 . S
C1522 C1525 1.387 . S
H1523 C1519 0.950 . S
H1524 C1521 0.950 . S
C1525 C1516 1.390 . S
C1525 H1518 0.950 . S
C1525 C1522 1.387 . S
C1526 C1527 1.387 . S
C1526 H1530 0.950 . S
C1526 C1535 1.390 . S
C1527 C1526 1.387 . S
C1527 C1529 1.387 . S
H1528 C1535 0.950 . S
C1529 C1527 1.387 . S
C1529 C1531 1.390 . S
C1529 H1533 0.950 . S
H1530 C1526 0.950 . S
C1531 C1529 1.390 . S
C1531 C1532 1.387 . S
C1531 H1534 0.950 . S
C1532 C1531 1.387 . S
C1532 C1535 1.387 . S
H1533 C1529 0.950 . S
H1534 C1531 0.950 . S
C1535 C1526 1.390 . S
C1535 H1528 0.950 . S
C1535 C1532 1.387 . S
C1536 C1537 1.387 . S
C1536 H1540 0.950 . S
C1536 C1545 1.390 . S
C1537 C1536 1.387 . S
C1537 C1539 1.387 . S
H1538 C1545 0.950 . S
C1539 C1537 1.387 . S
C1539 C1541 1.390 . S
C1539 H1543 0.950 . S
H1540 C1536 0.950 . S
C1541 C1539 1.390 . S
C1541 C1542 1.387 . S
C1541 H1544 0.950 . S
C1542 C1541 1.387 . S
C1542 C1545 1.387 . S
H1543 C1539 0.950 . S
H1544 C1541 0.950 . S
C1545 C1536 1.390 . S
C1545 H1538 0.950 . S
C1545 C1542 1.387 . S
C1546 C1547 1.387 . S
C1546 H1550 0.950 . S
C1546 C1555 1.390 . S
C1547 C1546 1.387 . S
C1547 C1549 1.387 1_554 S
H1548 C1555 0.950 . S
C1549 C1547 1.387 1_556 S
C1549 C1551 1.390 . S
C1549 H1553 0.950 . S
H1550 C1546 0.950 . S
C1551 C1549 1.390 . S
C1551 C1552 1.387 . S
C1551 H1554 0.950 . S
C1552 C1551 1.387 . S
C1552 C1555 1.387 1_556 S
H1553 C1549 0.950 . S
H1554 C1551 0.950 . S
C1555 C1546 1.390 . S
C1555 H1548 0.950 . S
C1555 C1552 1.387 1_554 S
C1556 C1557 1.387 . S
C1556 H1560 0.950 . S
C1556 C1565 1.390 . S
C1557 C1556 1.387 . S
C1557 C1559 1.387 . S
H1558 C1565 0.950 . S
C1559 C1557 1.387 . S
C1559 C1561 1.390 . S
C1559 H1563 0.950 . S
H1560 C1556 0.950 . S
C1561 C1559 1.390 . S
C1561 C1562 1.387 . S
C1561 H1564 0.950 . S
C1562 C1561 1.387 . S
C1562 C1565 1.387 . S
H1563 C1559 0.950 . S
H1564 C1561 0.950 . S
C1565 C1556 1.390 . S
C1565 H1558 0.950 . S
C1565 C1562 1.387 . S
C1566 C1567 1.387 . S
C1566 H1570 0.950 . S
C1566 C1575 1.390 . S
C1567 C1566 1.387 . S
C1567 C1569 1.387 . S
H1568 C1575 0.950 . S
C1569 C1567 1.387 . S
C1569 C1571 1.390 . S
C1569 H1573 0.950 . S
H1570 C1566 0.950 . S
C1571 C1569 1.390 . S
C1571 C1572 1.387 . S
C1571 H1574 0.950 . S
C1572 C1571 1.387 . S
C1572 C1575 1.387 . S
H1573 C1569 0.950 . S
H1574 C1571 0.950 . S
C1575 C1566 1.390 . S
C1575 H1568 0.950 . S
C1575 C1572 1.387 . S
C1576 C1577 1.387 . S
C1576 H1580 0.950 . S
C1576 C1585 1.390 . S
C1577 C1576 1.387 . S
C1577 C1579 1.387 . S
H1578 C1585 0.950 . S
C1579 C1577 1.387 . S
C1579 C1581 1.390 . S
C1579 H1583 0.950 . S
H1580 C1576 0.950 . S
C1581 C1579 1.390 . S
C1581 C1582 1.387 . S
C1581 H1584 0.950 . S
C1582 C1581 1.387 . S
C1582 C1585 1.387 . S
H1583 C1579 0.950 . S
H1584 C1581 0.950 . S
C1585 C1576 1.390 . S
C1585 H1578 0.950 . S
C1585 C1582 1.387 . S
C1586 C1587 1.387 . S
C1586 H1590 0.950 . S
C1586 C1595 1.390 . S
C1587 C1586 1.387 . S
C1587 C1589 1.387 . S
H1588 C1595 0.950 . S
C1589 C1587 1.387 . S
C1589 C1591 1.390 . S
C1589 H1593 0.950 . S
H1590 C1586 0.950 . S
C1591 C1589 1.390 . S
C1591 C1592 1.387 . S
C1591 H1594 0.950 . S
C1592 C1591 1.387 . S
C1592 C1595 1.387 . S
H1593 C1589 0.950 . S
H1594 C1591 0.950 . S
C1595 C1586 1.390 . S
C1595 H1588 0.950 . S
C1595 C1592 1.387 . S
C1596 C1597 1.387 . S
C1596 H1600 0.950 . S
C1596 C1605 1.390 . S
C1597 C1596 1.387 . S
C1597 C1599 1.387 . S
H1598 C1605 0.950 . S
C1599 C1597 1.387 . S
C1599 C1601 1.390 . S
C1599 H1603 0.950 . S
H1600 C1596 0.950 . S
C1601 C1599 1.390 . S
C1601 C1602 1.387 . S
C1601 H1604 0.950 . S
C1602 C1601 1.387 . S
C1602 C1605 1.387 . S
H1603 C1599 0.950 . S
H1604 C1601 0.950 . S
C1605 C1596 1.390 . S
C1605 H1598 0.950 . S
C1605 C1602 1.387 . S
C1606 C1607 1.387 . S
C1606 H1610 0.950 . S
C1606 C1615 1.390 . S
C1607 C1606 1.387 . S
C1607 C1609 1.387 . S
H1608 C1615 0.950 . S
C1609 C1607 1.387 . S
C1609 C1611 1.390 . S
C1609 H1613 0.950 . S
H1610 C1606 0.950 . S
C1611 C1609 1.390 . S
C1611 C1612 1.387 . S
C1611 H1614 0.950 . S
C1612 C1611 1.387 . S
C1612 C1615 1.387 . S
H1613 C1609 0.950 . S
H1614 C1611 0.950 . S
C1615 C1606 1.390 . S
C1615 H1608 0.950 . S
C1615 C1612 1.387 . S
C1616 C1617 1.387 . S
C1616 H1620 0.950 . S
C1616 C1625 1.390 . S
C1617 C1616 1.387 . S
C1617 C1619 1.387 . S
H1618 C1625 0.950 . S
C1619 C1617 1.387 . S
C1619 C1621 1.390 . S
C1619 H1623 0.950 . S
H1620 C1616 0.950 . S
C1621 C1619 1.390 . S
C1621 C1622 1.387 . S
C1621 H1624 0.950 . S
C1622 C1621 1.387 . S
C1622 C1625 1.387 . S
H1623 C1619 0.950 . S
H1624 C1621 0.950 . S
C1625 C1616 1.390 . S
C1625 H1618 0.950 . S
C1625 C1622 1.387 . S
C1626 C1627 1.387 . S
C1626 H1630 0.950 . S
C1626 C1635 1.390 . S
C1627 C1626 1.387 . S
C1627 C1629 1.387 . S
H1628 C1635 0.950 . S
C1629 C1627 1.387 . S
C1629 C1631 1.390 . S
C1629 H1633 0.950 . S
H1630 C1626 0.950 . S
C1631 C1629 1.390 . S
C1631 C1632 1.387 . S
C1631 H1634 0.950 . S
C1632 C1631 1.387 . S
C1632 C1635 1.387 . S
H1633 C1629 0.950 . S
H1634 C1631 0.950 . S
C1635 C1626 1.390 . S
C1635 H1628 0.950 . S
C1635 C1632 1.387 . S
C1636 C1637 1.388 1_545 S
C1636 H1640 0.950 . S
C1636 C1645 1.390 1_545 S
C1637 C1636 1.388 1_565 S
C1637 C1639 1.387 . S
H1638 C1645 0.950 . S
C1639 C1637 1.387 . S
C1639 C1641 1.390 . S
C1639 H1643 0.950 . S
H1640 C1636 0.950 . S
C1641 C1639 1.390 . S
C1641 C1642 1.387 . S
C1641 H1644 0.950 . S
C1642 C1641 1.387 . S
C1642 C1645 1.387 . S
H1643 C1639 0.950 . S
H1644 C1641 0.950 . S
C1645 C1636 1.390 1_565 S
C1645 H1638 0.950 . S
C1645 C1642 1.387 . S
C1646 C1647 1.387 1_556 S
C1646 H1650 0.950 . S
C1646 C1655 1.390 1_566 S
C1647 C1646 1.387 1_554 S
C1647 C1649 1.387 . S
H1648 C1655 0.950 1_556 S
C1649 C1647 1.387 . S
C1649 C1651 1.390 1_565 S
C1649 H1653 0.950 . S
H1650 C1646 0.950 . S
C1651 C1649 1.390 1_545 S
C1651 C1652 1.387 . S
C1651 H1654 0.950 . S
C1652 C1651 1.387 . S
C1652 C1655 1.387 . S
H1653 C1649 0.950 . S
H1654 C1651 0.950 . S
C1655 C1646 1.390 1_544 S
C1655 H1648 0.950 1_554 S
C1655 C1652 1.387 . S
C1656 C1657 1.387 . S
C1656 H1660 0.950 . S
C1656 C1665 1.390 . S
C1657 C1656 1.387 . S
C1657 C1659 1.387 . S
H1658 C1665 0.950 . S
C1659 C1657 1.387 . S
C1659 C1661 1.390 . S
C1659 H1663 0.950 . S
H1660 C1656 0.950 . S
C1661 C1659 1.390 . S
C1661 C1662 1.387 . S
C1661 H1664 0.950 . S
C1662 C1661 1.387 . S
C1662 C1665 1.387 . S
H1663 C1659 0.950 . S
H1664 C1661 0.950 . S
C1665 C1656 1.390 . S
C1665 H1658 0.950 . S
C1665 C1662 1.387 . S
C1666 C1667 1.387 . S
C1666 H1670 0.950 . S
C1666 C1675 1.390 . S
C1667 C1666 1.387 . S
C1667 C1669 1.387 . S
H1668 C1675 0.950 . S
C1669 C1667 1.387 . S
C1669 C1671 1.390 . S
C1669 H1673 0.950 . S
H1670 C1666 0.950 . S
C1671 C1669 1.390 . S
C1671 C1672 1.387 . S
C1671 H1674 0.950 . S
C1672 C1671 1.387 . S
C1672 C1675 1.387 . S
H1673 C1669 0.950 . S
H1674 C1671 0.950 . S
C1675 C1666 1.390 . S
C1675 H1668 0.950 . S
C1675 C1672 1.387 . S
C1676 C1677 1.387 . S
C1676 H1680 0.950 . S
C1676 C1685 1.390 . S
C1677 C1676 1.387 . S
C1677 C1679 1.387 . S
H1678 C1685 0.950 . S
C1679 C1677 1.387 . S
C1679 C1681 1.390 . S
C1679 H1683 0.950 . S
H1680 C1676 0.950 . S
C1681 C1679 1.390 . S
C1681 C1682 1.387 . S
C1681 H1684 0.950 . S
C1682 C1681 1.387 . S
C1682 C1685 1.387 . S
H1683 C1679 0.950 . S
H1684 C1681 0.950 . S
C1685 C1676 1.390 . S
C1685 H1678 0.950 . S
C1685 C1682 1.387 . S
C1686 C1687 1.387 . S
C1686 H1690 0.950 . S
C1686 C1695 1.390 . S
C1687 C1686 1.387 . S
C1687 C1689 1.387 . S
H1688 C1695 0.950 . S
C1689 C1687 1.387 . S
C1689 C1691 1.390 . S
C1689 H1693 0.950 . S
H1690 C1686 0.950 . S
C1691 C1689 1.390 . S
C1691 C1692 1.387 . S
C1691 H1694 0.950 . S
C1692 C1691 1.387 . S
C1692 C1695 1.387 . S
H1693 C1689 0.950 . S
H1694 C1691 0.950 . S
C1695 C1686 1.390 . S
C1695 H1688 0.950 . S
C1695 C1692 1.387 . S
C1696 C1697 1.387 . S
C1696 H1700 0.950 . S
C1696 C1705 1.390 . S
C1697 C1696 1.387 . S
C1697 C1699 1.387 . S
H1698 C1705 0.950 . S
C1699 C1697 1.387 . S
C1699 C1701 1.390 . S
C1699 H1703 0.950 . S
H1700 C1696 0.950 . S
C1701 C1699 1.390 . S
C1701 C1702 1.387 . S
C1701 H1704 0.950 . S
C1702 C1701 1.387 . S
C1702 C1705 1.387 . S
H1703 C1699 0.950 . S
H1704 C1701 0.950 . S
C1705 C1696 1.390 . S
C1705 H1698 0.950 . S
C1705 C1702 1.387 . S
C1706 C1707 1.387 . S
C1706 H1710 0.950 . S
C1706 C1715 1.390 . S
C1707 C1706 1.387 . S
C1707 C1709 1.387 . S
H1708 C1715 0.950 . S
C1709 C1707 1.387 . S
C1709 C1711 1.390 . S
C1709 H1713 0.950 . S
H1710 C1706 0.950 . S
C1711 C1709 1.390 . S
C1711 C1712 1.387 . S
C1711 H1714 0.950 . S
C1712 C1711 1.387 . S
C1712 C1715 1.387 . S
H1713 C1709 0.950 . S
H1714 C1711 0.950 . S
C1715 C1706 1.390 . S
C1715 H1708 0.950 . S
C1715 C1712 1.387 . S
C1716 C1717 1.387 . S
C1716 H1720 0.950 . S
C1716 C1725 1.390 . S
C1717 C1716 1.387 . S
C1717 C1719 1.387 . S
H1718 C1725 0.950 . S
C1719 C1717 1.387 . S
C1719 C1721 1.390 . S
C1719 H1723 0.950 . S
H1720 C1716 0.950 . S
C1721 C1719 1.390 . S
C1721 C1722 1.387 . S
C1721 H1724 0.950 . S
C1722 C1721 1.387 . S
C1722 C1725 1.387 . S
H1723 C1719 0.950 . S
H1724 C1721 0.950 . S
C1725 C1716 1.390 . S
C1725 H1718 0.950 . S
C1725 C1722 1.387 . S
C1726 C1727 1.387 . S
C1726 H1730 0.950 . S
C1726 C1735 1.390 . S
C1727 C1726 1.387 . S
C1727 C1729 1.387 . S
H1728 C1735 0.950 . S
C1729 C1727 1.387 . S
C1729 C1731 1.390 . S
C1729 H1733 0.950 . S
H1730 C1726 0.950 . S
C1731 C1729 1.390 . S
C1731 C1732 1.387 . S
C1731 H1734 0.950 . S
C1732 C1731 1.387 . S
C1732 C1735 1.387 . S
H1733 C1729 0.950 . S
H1734 C1731 0.950 . S
C1735 C1726 1.390 . S
C1735 H1728 0.950 . S
C1735 C1732 1.387 . S
C1736 C1737 1.387 . S
C1736 H1740 0.950 . S
C1736 C1745 1.390 . S
C1737 C1736 1.387 . S
C1737 C1739 1.387 . S
H1738 C1745 0.950 . S
C1739 C1737 1.387 . S
C1739 C1741 1.390 . S
C1739 H1743 0.950 . S
H1740 C1736 0.950 . S
C1741 C1739 1.390 . S
C1741 C1742 1.387 . S
C1741 H1744 0.950 . S
C1742 C1741 1.387 . S
C1742 C1745 1.387 . S
H1743 C1739 0.950 . S
H1744 C1741 0.950 . S
C1745 C1736 1.390 . S
C1745 H1738 0.950 . S
C1745 C1742 1.387 . S
C1746 C1747 1.387 . S
C1746 H1750 0.950 . S
C1746 C1755 1.390 . S
C1747 C1746 1.387 . S
C1747 C1749 1.387 . S
H1748 C1755 0.950 . S
C1749 C1747 1.387 . S
C1749 C1751 1.390 . S
C1749 H1753 0.950 . S
H1750 C1746 0.950 . S
C1751 C1749 1.390 . S
C1751 C1752 1.387 . S
C1751 H1754 0.950 . S
C1752 C1751 1.387 . S
C1752 C1755 1.387 . S
H1753 C1749 0.950 . S
H1754 C1751 0.950 . S
C1755 C1746 1.390 . S
C1755 H1748 0.950 . S
C1755 C1752 1.387 . S
C1756 C1757 1.387 . S
C1756 H1760 0.950 . S
C1756 C1765 1.390 . S
C1757 C1756 1.387 . S
C1757 C1759 1.387 . S
H1758 C1765 0.950 . S
C1759 C1757 1.387 . S
C1759 C1761 1.390 . S
C1759 H1763 0.950 . S
H1760 C1756 0.950 . S
C1761 C1759 1.390 . S
C1761 C1762 1.387 . S
C1761 H1764 0.950 . S
C1762 C1761 1.387 . S
C1762 C1765 1.387 . S
H1763 C1759 0.950 . S
H1764 C1761 0.950 . S
C1765 C1756 1.390 . S
C1765 H1758 0.950 . S
C1765 C1762 1.387 . S
C1766 C1767 1.387 . S
C1766 H1770 0.950 . S
C1766 C1775 1.390 . S
C1767 C1766 1.387 . S
C1767 C1769 1.387 . S
H1768 C1775 0.950 . S
C1769 C1767 1.387 . S
C1769 C1771 1.390 . S
C1769 H1773 0.950 . S
H1770 C1766 0.950 . S
C1771 C1769 1.390 . S
C1771 C1772 1.387 . S
C1771 H1774 0.950 . S
C1772 C1771 1.387 . S
C1772 C1775 1.387 . S
H1773 C1769 0.950 . S
H1774 C1771 0.950 . S
C1775 C1766 1.390 . S
C1775 H1768 0.950 . S
C1775 C1772 1.387 . S
C1776 C1777 1.387 . S
C1776 H1780 0.950 . S
C1776 C1785 1.390 . S
C1777 C1776 1.387 . S
C1777 C1779 1.387 . S
H1778 C1785 0.950 . S
C1779 C1777 1.387 . S
C1779 C1781 1.390 . S
C1779 H1783 0.950 . S
H1780 C1776 0.950 . S
C1781 C1779 1.390 . S
C1781 C1782 1.387 . S
C1781 H1784 0.950 . S
C1782 C1781 1.387 . S
C1782 C1785 1.387 . S
H1783 C1779 0.950 . S
H1784 C1781 0.950 . S
C1785 C1776 1.390 . S
C1785 H1778 0.950 . S
C1785 C1782 1.387 . S
C1786 C1787 1.387 . S
C1786 H1790 0.950 . S
C1786 C1795 1.390 . S
C1787 C1786 1.387 . S
C1787 C1789 1.387 . S
H1788 C1795 0.950 . S
C1789 C1787 1.387 . S
C1789 C1791 1.390 . S
C1789 H1793 0.950 . S
H1790 C1786 0.950 . S
C1791 C1789 1.390 . S
C1791 C1792 1.387 . S
C1791 H1794 0.950 . S
C1792 C1791 1.387 . S
C1792 C1795 1.387 . S
H1793 C1789 0.950 . S
H1794 C1791 0.950 . S
C1795 C1786 1.390 . S
C1795 H1788 0.950 . S
C1795 C1792 1.387 . S
C1796 C1797 1.387 . S
C1796 H1800 0.950 . S
C1796 C1805 1.390 . S
C1797 C1796 1.387 . S
C1797 C1799 1.387 . S
H1798 C1805 0.950 . S
C1799 C1797 1.387 . S
C1799 C1801 1.390 . S
C1799 H1803 0.950 . S
H1800 C1796 0.950 . S
C1801 C1799 1.390 . S
C1801 C1802 1.387 . S
C1801 H1804 0.950 . S
C1802 C1801 1.387 . S
C1802 C1805 1.387 . S
H1803 C1799 0.950 . S
H1804 C1801 0.950 . S
C1805 C1796 1.390 . S
C1805 H1798 0.950 . S
C1805 C1802 1.387 . S
C1806 C1807 1.387 . S
C1806 H1810 0.950 . S
C1806 C1815 1.390 . S
C1807 C1806 1.387 . S
C1807 C1809 1.387 . S
H1808 C1815 0.950 . S
C1809 C1807 1.387 . S
C1809 C1811 1.390 . S
C1809 H1813 0.950 . S
H1810 C1806 0.950 . S
C1811 C1809 1.390 . S
C1811 C1812 1.387 . S
C1811 H1814 0.950 . S
C1812 C1811 1.387 . S
C1812 C1815 1.387 . S
H1813 C1809 0.950 . S
H1814 C1811 0.950 . S
C1815 C1806 1.390 . S
C1815 H1808 0.950 . S
C1815 C1812 1.387 . S
C1816 C1817 1.387 . S
C1816 H1820 0.950 . S
C1816 C1825 1.390 . S
C1817 C1816 1.387 . S
C1817 C1819 1.387 . S
H1818 C1825 0.950 . S
C1819 C1817 1.387 . S
C1819 C1821 1.390 . S
C1819 H1823 0.950 . S
H1820 C1816 0.950 . S
C1821 C1819 1.390 . S
C1821 C1822 1.387 . S
C1821 H1824 0.950 . S
C1822 C1821 1.387 . S
C1822 C1825 1.387 . S
H1823 C1819 0.950 . S
H1824 C1821 0.950 . S
C1825 C1816 1.390 . S
C1825 H1818 0.950 . S
C1825 C1822 1.387 . S
C1826 C1827 1.387 . S
C1826 H1830 0.950 . S
C1826 C1835 1.390 . S
C1827 C1826 1.387 . S
C1827 C1829 1.387 . S
H1828 C1835 0.950 . S
C1829 C1827 1.387 . S
C1829 C1831 1.390 . S
C1829 H1833 0.950 . S
H1830 C1826 0.950 . S
C1831 C1829 1.390 . S
C1831 C1832 1.387 . S
C1831 H1834 0.950 . S
C1832 C1831 1.387 . S
C1832 C1835 1.387 . S
H1833 C1829 0.950 . S
H1834 C1831 0.950 . S
C1835 C1826 1.390 . S
C1835 H1828 0.950 . S
C1835 C1832 1.387 . S
C1836 C1837 1.387 . S
C1836 H1840 0.950 . S
C1836 C1845 1.390 . S
C1837 C1836 1.387 . S
C1837 C1839 1.387 . S
H1838 C1845 0.950 . S
C1839 C1837 1.387 . S
C1839 C1841 1.390 . S
C1839 H1843 0.950 . S
H1840 C1836 0.950 . S
C1841 C1839 1.390 . S
C1841 C1842 1.387 . S
C1841 H1844 0.950 . S
C1842 C1841 1.387 . S
C1842 C1845 1.387 . S
H1843 C1839 0.950 . S
H1844 C1841 0.950 . S
C1845 C1836 1.390 . S
C1845 H1838 0.950 . S
C1845 C1842 1.387 . S
C1846 C1847 1.387 . S
C1846 H1850 0.950 . S
C1846 C1855 1.390 . S
C1847 C1846 1.387 . S
C1847 C1849 1.387 . S
H1848 C1855 0.950 . S
C1849 C1847 1.387 . S
C1849 C1851 1.390 . S
C1849 H1853 0.950 . S
H1850 C1846 0.950 . S
C1851 C1849 1.390 . S
C1851 C1852 1.387 . S
C1851 H1854 0.950 . S
C1852 C1851 1.387 . S
C1852 C1855 1.387 . S
H1853 C1849 0.950 . S
H1854 C1851 0.950 . S
C1855 C1846 1.390 . S
C1855 H1848 0.950 . S
C1855 C1852 1.387 . S
C1856 C1857 1.387 . S
C1856 H1860 0.950 . S
C1856 C1865 1.390 . S
C1857 C1856 1.387 . S
C1857 C1859 1.387 . S
H1858 C1865 0.950 . S
C1859 C1857 1.387 . S
C1859 C1861 1.390 . S
C1859 H1863 0.950 . S
H1860 C1856 0.950 . S
C1861 C1859 1.390 . S
C1861 C1862 1.387 . S
C1861 H1864 0.950 . S
C1862 C1861 1.387 . S
C1862 C1865 1.387 . S
H1863 C1859 0.950 . S
H1864 C1861 0.950 . S
C1865 C1856 1.390 . S
C1865 H1858 0.950 . S
C1865 C1862 1.387 . S
C1866 C1867 1.387 . S
C1866 H1870 0.950 . S
C1866 C1875 1.390 . S
C1867 C1866 1.387 . S
C1867 C1869 1.387 . S
H1868 C1875 0.950 1_545 S
C1869 C1867 1.387 . S
C1869 C1871 1.390 . S
C1869 H1873 0.950 . S
H1870 C1866 0.950 . S
C1871 C1869 1.390 . S
C1871 C1872 1.399 . S
C1871 H1874 0.950 . S
C1872 C1871 1.399 . S
C1872 C1875 1.394 . S
H1873 C1869 0.950 . S
H1874 C1871 0.950 . S
C1875 C1866 1.390 . S
C1875 H1868 0.950 1_565 S
C1875 C1872 1.394 . S
C1876 C1877 1.387 . S
C1876 H1880 0.950 . S
C1876 C1885 1.390 . S
C1877 C1876 1.387 . S
C1877 C1879 1.387 . S
H1878 C1885 0.950 . S
C1879 C1877 1.387 . S
C1879 C1881 1.390 . S
C1879 H1883 0.950 . S
H1880 C1876 0.950 . S
C1881 C1879 1.390 . S
C1881 C1882 1.387 . S
C1881 H1884 0.950 . S
C1882 C1881 1.387 . S
C1882 C1885 1.387 . S
H1883 C1879 0.950 . S
H1884 C1881 0.950 . S
C1885 C1876 1.390 . S
C1885 H1878 0.950 . S
C1885 C1882 1.387 . S
C1886 C1887 1.387 . S
C1886 H1890 0.950 . S
C1886 C1895 1.390 . S
C1887 C1886 1.387 . S
C1887 C1889 1.387 . S
H1888 C1895 0.950 . S
C1889 C1887 1.387 . S
C1889 C1891 1.390 . S
C1889 H1893 0.950 . S
H1890 C1886 0.950 . S
C1891 C1889 1.390 . S
C1891 C1892 1.387 . S
C1891 H1894 0.950 . S
C1892 C1891 1.387 . S
C1892 C1895 1.387 . S
H1893 C1889 0.950 . S
H1894 C1891 0.950 . S
C1895 C1886 1.390 . S
C1895 H1888 0.950 . S
C1895 C1892 1.387 . S
C1896 C1897 1.387 . S
C1896 H1900 0.950 . S
C1896 C1905 1.390 . S
C1897 C1896 1.387 . S
C1897 C1899 1.387 . S
H1898 C1905 0.950 . S
C1899 C1897 1.387 . S
C1899 C1901 1.390 . S
C1899 H1903 0.950 . S
H1900 C1896 0.950 . S
C1901 C1899 1.390 . S
C1901 C1902 1.387 . S
C1901 H1904 0.950 . S
C1902 C1901 1.387 . S
C1902 C1905 1.387 . S
H1903 C1899 0.950 . S
H1904 C1901 0.950 . S
C1905 C1896 1.390 . S
C1905 H1898 0.950 . S
C1905 C1902 1.387 . S
C1906 C1907 1.387 . S
C1906 H1910 0.950 1_554 S
C1906 C1915 1.390 1_554 S
C1907 C1906 1.387 . S
C1907 C1909 1.387 . S
H1908 C1915 0.950 . S
C1909 C1907 1.387 . S
C1909 C1911 1.390 . S
C1909 H1913 0.950 . S
H1910 C1906 0.950 1_556 S
C1911 C1909 1.390 . S
C1911 C1912 1.387 . S
C1911 H1914 0.950 . S
C1912 C1911 1.387 . S
C1912 C1915 1.387 1_554 S
H1913 C1909 0.950 . S
H1914 C1911 0.950 . S
C1915 C1906 1.390 1_556 S
C1915 H1908 0.950 . S
C1915 C1912 1.387 1_556 S
C1916 C1917 1.387 . S
C1916 H1920 0.950 . S
C1916 C1925 1.390 . S
C1917 C1916 1.387 . S
C1917 C1919 1.387 . S
H1918 C1925 0.950 . S
C1919 C1917 1.387 . S
C1919 C1921 1.390 . S
C1919 H1923 0.950 . S
H1920 C1916 0.950 . S
C1921 C1919 1.390 . S
C1921 C1922 1.387 . S
C1921 H1924 0.950 . S
C1922 C1921 1.387 . S
C1922 C1925 1.387 . S
H1923 C1919 0.950 . S
H1924 C1921 0.950 . S
C1925 C1916 1.390 . S
C1925 H1918 0.950 . S
C1925 C1922 1.387 . S
C1926 C1927 1.387 . S
C1926 H1930 0.950 . S
C1926 C1935 1.390 . S
C1927 C1926 1.387 . S
C1927 C1929 1.387 . S
H1928 C1935 0.950 . S
C1929 C1927 1.387 . S
C1929 C1931 1.390 . S
C1929 H1933 0.950 . S
H1930 C1926 0.950 . S
C1931 C1929 1.390 . S
C1931 C1932 1.387 . S
C1931 H1934 0.950 . S
C1932 C1931 1.387 . S
C1932 C1935 1.387 . S
H1933 C1929 0.950 . S
H1934 C1931 0.950 . S
C1935 C1926 1.390 . S
C1935 H1928 0.950 . S
C1935 C1932 1.387 . S
C977 C109 2.365 1_455 S
C982 C349 2.359 . S
C987 C65 2.139 . S
C992 C400 2.142 . S
C997 C75 1.802 . S
C1002 C429 1.794 . S
C1012 C473 1.450 . S
C1007 C84 1.488 . S
C1017 C25 1.422 . S
C1022 C513 1.364 . S
C1032 C549 1.744 . S
C1027 C28 1.761 . S
C1042 C599 2.046 . S
C1037 C47 1.973 . S
C1047 C9 2.471 . S
C1052 C629 2.479 . S
C1062 C359 2.136 . S
C1057 C233 2.148 . S
C1067 C249 0.895 . S
C1072 C402 0.875 . S
C1082 C439 1.422 . S
C1077 C275 1.406 . S
C1092 C469 1.507 . S
C1087 C173 1.520 . S
C1097 C224 1.616 . S
C1102 C509 1.605 . S
C1112 C559 1.065 . S
C1107 C243 1.042 . S
C1122 C593 0.975 . S
C1117 C266 1.011 . S
C1132 C639 1.989 . S
C1127 C179 2.008 . S
C1142 C353 1.482 . S
C1137 C163 1.550 1_554 S
C1147 C289 1.760 . S
C1152 C679 1.781 . S
C1162 C713 1.510 . S
C1157 C333 1.569 . S
C1172 C749 0.848 . S
C1167 C308 0.862 . S
C1177 C123 1.660 . S
C1182 C633 1.586 . S
C1187 C126 1.647 . S
C1192 C433 1.605 . S
C1197 C327 1.708 . S
C1202 C799 1.756 . S
C1212 C818 0.473 . S
C1207 C299 0.444 . S
C1222 C360 2.378 . S
C1217 C67 2.399 . S
C1232 C829 2.172 . S
C1227 C98 2.091 . S
C1237 C89 1.828 . S
C1242 C440 1.828 . S
C1247 C79 1.582 . S
C1252 C802 1.481 . S
C1262 C522 1.363 . S
C1257 C11 1.431 . S
C1267 C51 1.778 . S
C1272 C720 1.784 . S
C1282 C578 2.085 1_566 S
C1277 C33 2.016 . S
C1292 C880 2.474 . S
C1287 C14 2.513 . S
C1302 C338 2.125 . S
C1297 C140 2.172 . S
C1312 C833 0.850 . S
C1307 C319 0.868 . S
C1317 C112 1.385 . S
C1322 C418 1.423 . S
C1327 C285 1.539 . S
C1332 C800 1.531 . S
C1337 C149 1.642 . S
C1342 C520 1.645 . S
C1352 C698 1.085 . S
C1347 C313 1.065 . S
C1357 C121 1.047 1_565 S
C1362 C602 0.998 . S
C1367 C291 2.050 . S
C1372 C858 2.020 . S
C1377 C182 1.573 . S
C1382 C362 1.452 . S
C1387 C168 1.715 . S
C1392 C658 1.789 . S
C1397 C263 1.583 . S
C1402 C562 1.511 . S
C1407 C247 0.885 . S
C1412 C760 0.874 . S
C1422 C882 1.584 1_545 S
C1417 C277 1.685 . S
C1427 C219 1.716 . S
C1432 C442 1.602 . S
C1442 C458 1.789 . S
C1437 C257 1.744 . S
C1452 C399 0.454 . S
C1447 C201 0.427 . S
C1457 C81 2.367 . S
C1462 C909 2.358 . S
C1472 C840 2.142 . S
C1467 C93 2.138 . S
C1477 C103 1.802 . S
C1482 C949 1.794 . S
C1487 C56 1.488 . S
C1492 C793 1.451 . S
C1497 C53 1.421 . S
C1502 C673 1.363 . S
C1512 C709 1.744 . S
C1507 C0 1.762 . S
C1522 C759 2.046 . S
C1517 C19 1.974 . S
C1532 C869 2.481 . S
C1527 C37 2.470 . S
C1542 C919 2.136 . S
C1537 C261 2.148 . S
C1547 C193 0.894 . S
C1552 C842 0.873 . S
C1562 C959 1.421 . S
C1557 C205 1.408 . S
C1572 C789 1.506 . S
C1567 C215 1.521 . S
C1582 C669 1.606 . S
C1577 C252 1.612 . S
C1587 C187 1.045 . S
C1592 C719 1.065 . S
C1602 C753 0.973 . S
C1597 C196 1.009 . S
C1607 C221 2.009 . S
C1612 C879 1.991 . S
C1622 C913 1.487 . S
C1617 C317 1.568 . S
C1627 C135 1.760 . S
C1632 C519 1.782 . S
C1642 C553 1.509 . S
C1637 C151 1.569 1_565 S
C1652 C589 0.853 . S
C1647 C154 0.864 . S
C1662 C873 1.586 . S
C1657 C305 1.660 . S
C1667 C280 1.644 . S
C1672 C953 1.602 . S
C1682 C479 1.756 . S
C1677 C145 1.707 . S
C1692 C378 0.473 . S
C1687 C117 0.444 . S
C1697 C95 2.399 . S
C1702 C920 2.377 . S
C1712 C389 2.171 . S
C1707 C70 2.088 . S
C1717 C61 1.827 . S
C1722 C960 1.828 . S
C1727 C107 1.582 . S
C1732 C482 1.483 . S
C1737 C39 1.432 . S
C1742 C682 1.363 . S
C1752 C560 1.783 . S
C1747 C23 1.780 . S
C1757 C5 2.016 . S
C1762 C738 2.084 . S
C1767 C42 2.513 . S
C1772 C640 2.476 . S
C1782 C898 2.124 . S
C1777 C322 2.173 . S
C1787 C165 0.868 . S
C1792 C393 0.846 . S
C1802 C938 1.424 1_655 S
C1797 C294 1.385 . S
C1807 C131 1.539 . S
C1812 C480 1.531 . S
C1817 C331 1.641 . S
C1822 C680 1.647 . S
C1832 C538 1.087 . S
C1827 C159 1.074 . S
C1837 C303 1.051 . S
C1842 C762 0.997 . S
C1852 C618 2.019 . S
C1847 C137 2.050 . S
C1862 C922 1.456 . S
C1857 C238 1.576 . S
C1872 C498 1.772 1_565 S
C1867 C210 1.715 . S
C1877 C235 1.583 . S
C1882 C722 1.512 . S
C1892 C600 0.879 . S
C1887 C191 0.887 . S
C1897 C207 1.684 . S
C1902 C642 1.583 . S
C1907 C177 1.716 . S
C1912 C962 1.600 . S
C1922 C778 1.789 . S
C1917 C229 1.746 . S
C1932 C839 0.456 . S
C1927 C271 0.428 . S
