# Generated by pormake.
# Topology ocu, (6,8)-cn, num edge types: 1
# Building blocks:
#     Node 0, Type 0, BuildingBlock: BETDEL_clean_sbu_0, # of connection points: 6
#     Node 1, Type 0, BuildingBlock: BETDEL_clean_sbu_0, # of connection points: 6
#     Node 2, Type 0, BuildingBlock: BETDEL_clean_sbu_0, # of connection points: 6
#     Node 3, Type 0, BuildingBlock: BETDEL_clean_sbu_0, # of connection points: 6
#     Node 4, Type 0, BuildingBlock: BETDEL_clean_sbu_0, # of connection points: 6
#     Node 5, Type 0, BuildingBlock: BETDEL_clean_sbu_0, # of connection points: 6
#     Node 6, Type 0, BuildingBlock: BETDEL_clean_sbu_0, # of connection points: 6
#     Node 7, Type 0, BuildingBlock: BETDEL_clean_sbu_0, # of connection points: 6
#     Node 8, Type 1, BuildingBlock: VETTIZ_charged_sbu_0, # of connection points: 8
#     Node 9, Type 1, BuildingBlock: VETTIZ_charged_sbu_0, # of connection points: 8
#     Node 10, Type 1, BuildingBlock: VETTIZ_charged_sbu_0, # of connection points: 8
#     Node 11, Type 1, BuildingBlock: VETTIZ_charged_sbu_0, # of connection points: 8
#     Node 12, Type 1, BuildingBlock: VETTIZ_charged_sbu_0, # of connection points: 8
#     Node 13, Type 1, BuildingBlock: VETTIZ_charged_sbu_0, # of connection points: 8
#     Edge 14, Type (0, 1), BuildingBlock: TEMPAE_clean_linker_10, # of connection points: 2
#     Edge 15, Type (0, 1), BuildingBlock: TEMPAE_clean_linker_10, # of connection points: 2
#     Edge 16, Type (0, 1), BuildingBlock: TEMPAE_clean_linker_10, # of connection points: 2
#     Edge 17, Type (0, 1), BuildingBlock: TEMPAE_clean_linker_10, # of connection points: 2
#     Edge 18, Type (0, 1), BuildingBlock: TEMPAE_clean_linker_10, # of connection points: 2
#     Edge 19, Type (0, 1), BuildingBlock: TEMPAE_clean_linker_10, # of connection points: 2
#     Edge 20, Type (0, 1), BuildingBlock: TEMPAE_clean_linker_10, # of connection points: 2
#     Edge 21, Type (0, 1), BuildingBlock: TEMPAE_clean_linker_10, # of connection points: 2
#     Edge 22, Type (0, 1), BuildingBlock: TEMPAE_clean_linker_10, # of connection points: 2
#     Edge 23, Type (0, 1), BuildingBlock: TEMPAE_clean_linker_10, # of connection points: 2
#     Edge 24, Type (0, 1), BuildingBlock: TEMPAE_clean_linker_10, # of connection points: 2
#     Edge 25, Type (0, 1), BuildingBlock: TEMPAE_clean_linker_10, # of connection points: 2
#     Edge 26, Type (0, 1), BuildingBlock: TEMPAE_clean_linker_10, # of connection points: 2
#     Edge 27, Type (0, 1), BuildingBlock: TEMPAE_clean_linker_10, # of connection points: 2
#     Edge 28, Type (0, 1), BuildingBlock: TEMPAE_clean_linker_10, # of connection points: 2
#     Edge 29, Type (0, 1), BuildingBlock: TEMPAE_clean_linker_10, # of connection points: 2
#     Edge 30, Type (0, 1), BuildingBlock: TEMPAE_clean_linker_10, # of connection points: 2
#     Edge 31, Type (0, 1), BuildingBlock: TEMPAE_clean_linker_10, # of connection points: 2
#     Edge 32, Type (0, 1), BuildingBlock: TEMPAE_clean_linker_10, # of connection points: 2
#     Edge 33, Type (0, 1), BuildingBlock: TEMPAE_clean_linker_10, # of connection points: 2
#     Edge 34, Type (0, 1), BuildingBlock: TEMPAE_clean_linker_10, # of connection points: 2
#     Edge 35, Type (0, 1), BuildingBlock: TEMPAE_clean_linker_10, # of connection points: 2
#     Edge 36, Type (0, 1), BuildingBlock: TEMPAE_clean_linker_10, # of connection points: 2
#     Edge 37, Type (0, 1), BuildingBlock: TEMPAE_clean_linker_10, # of connection points: 2
#     Edge 38, Type (0, 1), BuildingBlock: TEMPAE_clean_linker_10, # of connection points: 2
#     Edge 39, Type (0, 1), BuildingBlock: TEMPAE_clean_linker_10, # of connection points: 2
#     Edge 40, Type (0, 1), BuildingBlock: TEMPAE_clean_linker_10, # of connection points: 2
#     Edge 41, Type (0, 1), BuildingBlock: TEMPAE_clean_linker_10, # of connection points: 2
#     Edge 42, Type (0, 1), BuildingBlock: TEMPAE_clean_linker_10, # of connection points: 2
#     Edge 43, Type (0, 1), BuildingBlock: TEMPAE_clean_linker_10, # of connection points: 2
#     Edge 44, Type (0, 1), BuildingBlock: TEMPAE_clean_linker_10, # of connection points: 2
#     Edge 45, Type (0, 1), BuildingBlock: TEMPAE_clean_linker_10, # of connection points: 2
#     Edge 46, Type (0, 1), BuildingBlock: TEMPAE_clean_linker_10, # of connection points: 2
#     Edge 47, Type (0, 1), BuildingBlock: TEMPAE_clean_linker_10, # of connection points: 2
#     Edge 48, Type (0, 1), BuildingBlock: TEMPAE_clean_linker_10, # of connection points: 2
#     Edge 49, Type (0, 1), BuildingBlock: TEMPAE_clean_linker_10, # of connection points: 2
#     Edge 50, Type (0, 1), BuildingBlock: TEMPAE_clean_linker_10, # of connection points: 2
#     Edge 51, Type (0, 1), BuildingBlock: TEMPAE_clean_linker_10, # of connection points: 2
#     Edge 52, Type (0, 1), BuildingBlock: TEMPAE_clean_linker_10, # of connection points: 2
#     Edge 53, Type (0, 1), BuildingBlock: TEMPAE_clean_linker_10, # of connection points: 2
#     Edge 54, Type (0, 1), BuildingBlock: TEMPAE_clean_linker_10, # of connection points: 2
#     Edge 55, Type (0, 1), BuildingBlock: TEMPAE_clean_linker_10, # of connection points: 2
#     Edge 56, Type (0, 1), BuildingBlock: TEMPAE_clean_linker_10, # of connection points: 2
#     Edge 57, Type (0, 1), BuildingBlock: TEMPAE_clean_linker_10, # of connection points: 2
#     Edge 58, Type (0, 1), BuildingBlock: TEMPAE_clean_linker_10, # of connection points: 2
#     Edge 59, Type (0, 1), BuildingBlock: TEMPAE_clean_linker_10, # of connection points: 2
#     Edge 60, Type (0, 1), BuildingBlock: TEMPAE_clean_linker_10, # of connection points: 2
#     Edge 61, Type (0, 1), BuildingBlock: TEMPAE_clean_linker_10, # of connection points: 2
# Relax obj value: 0.089
# Max RMSD: 0.224
# Mean RMSD: 0.135
data_MOF--net-ocu--node1-BETDEL_clean_sbu_0--node2-VETTIZ_charged_sbu_0--edge1-TEMPAE_clean_linker_10
_symmetry_space_group_name_H-M    P1
_symmetry_Int_Tables_number       1
_symmetry_cell_setting            triclinic
loop_
_symmetry_equiv_pos_as_xyz
'x, y, z'
_cell_length_a     37.772573
_cell_length_b     38.948891
_cell_length_c     37.723223
_cell_angle_alpha  91.141987
_cell_angle_beta   91.718827
_cell_angle_gamma 96.006858
loop_
_atom_site_label
_atom_site_type_symbol
_atom_site_fract_x
_atom_site_fract_y
_atom_site_fract_z
_atom_type_partial_charge
Dy0 Dy 0.28931 0.25621 0.29283 0.0
C1 C 0.1967 0.28376 0.17521 0.0
C2 C 0.3087 0.21665 0.3465 0.0
Dy3 Dy 0.23992 0.26238 0.22675 0.0
O4 O 0.31778 0.24991 0.34515 0.0
O5 O 0.28936 0.20559 0.31877 0.0
O6 O 0.33587 0.29448 0.28085 0.0
O7 O 0.29187 0.28565 0.24526 0.0
C8 C 0.32244 0.30206 0.25002 0.0
C9 C 0.21886 0.21268 0.27268 0.0
O10 O 0.27986 0.23278 0.20002 0.0
O11 O 0.31099 0.22007 0.25138 0.0
O12 O 0.18636 0.27154 0.20527 0.0
O13 O 0.23094 0.28384 0.17281 0.0
O14 O 0.21359 0.20883 0.23852 0.0
O15 O 0.23367 0.24253 0.27944 0.0
O16 O 0.25333 0.29448 0.31497 0.0
O17 O 0.2283 0.30848 0.26063 0.0
C18 C 0.30529 0.21725 0.21617 0.0
C19 C 0.2326 0.31337 0.29566 0.0
Dy20 Dy 0.78757 0.22852 0.27111 0.0
C21 C 0.69637 0.30879 0.19958 0.0
C22 C 0.83999 0.19619 0.30161 0.0
Dy23 Dy 0.73683 0.27418 0.24346 0.0
O24 O 0.82586 0.1889 0.27039 0.0
O25 O 0.82465 0.22053 0.31708 0.0
O26 O 0.77051 0.18861 0.22845 0.0
O27 O 0.73299 0.21867 0.24883 0.0
C28 C 0.73808 0.1963 0.22566 0.0
C29 C 0.78359 0.30541 0.29106 0.0
O30 O 0.70584 0.25575 0.28994 0.0
O31 O 0.75183 0.23005 0.31737 0.0
O32 O 0.68372 0.28327 0.21869 0.0
O33 O 0.73023 0.31589 0.20542 0.0
O34 O 0.75092 0.31267 0.28774 0.0
O35 O 0.79044 0.28435 0.26705 0.0
O36 O 0.81988 0.25627 0.23081 0.0
O37 O 0.77056 0.26405 0.19684 0.0
C38 C 0.7196 0.24072 0.3176 0.0
C39 C 0.80536 0.26322 0.20006 0.0
Dy40 Dy 0.74832 0.77237 0.28111 0.0
C41 C 0.821 0.74236 0.15859 0.0
C42 C 0.72571 0.80314 0.33998 0.0
Dy43 Dy 0.78684 0.76385 0.21579 0.0
O44 O 0.71673 0.77109 0.33051 0.0
O45 O 0.74654 0.81831 0.31704 0.0
O46 O 0.71902 0.72008 0.27721 0.0
O47 O 0.73217 0.74674 0.2303 0.0
C48 C 0.71931 0.71829 0.24278 0.0
C49 C 0.81456 0.81555 0.25983 0.0
O50 O 0.74477 0.7933 0.19049 0.0
O51 O 0.72215 0.80991 0.24361 0.0
O52 O 0.83018 0.77063 0.17671 0.0
O53 O 0.79277 0.72597 0.17148 0.0
O54 O 0.81299 0.81863 0.22565 0.0
O55 O 0.80252 0.78565 0.26775 0.0
O56 O 0.7901 0.73957 0.30339 0.0
O57 O 0.80822 0.72137 0.24897 0.0
C58 C 0.72328 0.81184 0.20818 0.0
C59 C 0.80857 0.71899 0.28418 0.0
Dy60 Dy 0.2932 0.7168 0.25556 0.0
C61 C 0.19348 0.81118 0.2851 0.0
C62 C 0.32339 0.66621 0.22167 0.0
Dy63 Dy 0.2436 0.77139 0.26191 0.0
O64 O 0.33335 0.67799 0.25336 0.0
O65 O 0.29746 0.68201 0.20913 0.0
O66 O 0.32134 0.73171 0.30762 0.0
O67 O 0.29934 0.76958 0.27735 0.0
C68 C 0.31361 0.76354 0.30702 0.0
C69 C 0.22539 0.72355 0.21078 0.0
O70 O 0.28104 0.80017 0.22494 0.0
O71 O 0.31188 0.75292 0.21307 0.0
O72 O 0.18716 0.78217 0.26768 0.0
O73 O 0.22769 0.81951 0.28877 0.0
O74 O 0.2217 0.75609 0.20728 0.0
O75 O 0.23731 0.7183 0.24158 0.0
O76 O 0.25462 0.68933 0.29056 0.0
O77 O 0.23551 0.74008 0.31135 0.0
C78 C 0.30498 0.78492 0.20685 0.0
C79 C 0.23755 0.70646 0.31386 0.0
Dy80 Dy 0.29108 0.72995 0.76029 0.0
C81 C 0.18201 0.80926 0.71768 0.0
C82 C 0.34166 0.69868 0.79561 0.0
Dy83 Dy 0.23611 0.77564 0.74304 0.0
O84 O 0.32637 0.68755 0.76571 0.0
O85 O 0.32985 0.72723 0.80577 0.0
O86 O 0.27565 0.69634 0.71252 0.0
O87 O 0.23636 0.71994 0.73987 0.0
C88 C 0.24247 0.70222 0.7128 0.0
C89 C 0.28703 0.80286 0.78959 0.0
O90 O 0.20609 0.74557 0.7832 0.0
O91 O 0.2546 0.7216 0.80662 0.0
O92 O 0.2041 0.82071 0.74316 0.0
O93 O 0.19029 0.78007 0.705 0.0
O94 O 0.25362 0.80693 0.79231 0.0
O95 O 0.29171 0.78571 0.76187 0.0
O96 O 0.31912 0.75869 0.71726 0.0
O97 O 0.26901 0.78102 0.69441 0.0
C98 C 0.22105 0.72851 0.80831 0.0
C99 C 0.30248 0.77411 0.69168 0.0
Dy100 Dy 0.23364 0.25164 0.78642 0.0
C101 C 0.31052 0.23084 0.66517 0.0
C102 C 0.19436 0.26738 0.84246 0.0
Dy103 Dy 0.27608 0.24863 0.72373 0.0
O104 O 0.18511 0.24319 0.81898 0.0
O105 O 0.22529 0.28303 0.83542 0.0
O106 O 0.2143 0.1953 0.77644 0.0
O107 O 0.22242 0.22856 0.73388 0.0
C108 C 0.21353 0.19793 0.7422 0.0
C109 C 0.29658 0.3044 0.76393 0.0
O110 O 0.23374 0.2794 0.6997 0.0
O111 O 0.21085 0.2935 0.75337 0.0
O112 O 0.32195 0.2554 0.68758 0.0
O113 O 0.28037 0.21549 0.67501 0.0
O114 O 0.29527 0.30406 0.72953 0.0
O115 O 0.28757 0.27448 0.77543 0.0
O116 O 0.27663 0.22413 0.81275 0.0
O117 O 0.30121 0.20955 0.76003 0.0
C118 C 0.21248 0.29748 0.71841 0.0
C119 C 0.29937 0.20686 0.79531 0.0
Dy120 Dy 0.79016 0.23471 0.74643 0.0
C121 C 0.71249 0.34525 0.77898 0.0
C122 C 0.83746 0.19109 0.72435 0.0
Dy123 Dy 0.74238 0.29211 0.74883 0.0
O124 O 0.84498 0.21795 0.745 0.0
O125 O 0.80335 0.18675 0.71721 0.0
O126 O 0.8105 0.25003 0.80139 0.0
O127 O 0.79715 0.28808 0.76591 0.0
C128 C 0.80755 0.28267 0.79729 0.0
C129 C 0.72316 0.24454 0.69784 0.0
O130 O 0.77992 0.31677 0.71102 0.0
O131 O 0.80496 0.26615 0.69854 0.0
O132 O 0.69874 0.3273 0.75152 0.0
O133 O 0.74228 0.33439 0.78912 0.0
O134 O 0.71712 0.2768 0.69565 0.0
O135 O 0.73548 0.2389 0.7285 0.0
O136 O 0.74974 0.20845 0.78211 0.0
O137 O 0.72144 0.25779 0.79201 0.0
C138 C 0.80048 0.29874 0.69203 0.0
C139 C 0.7262 0.22537 0.799 0.0
Dy140 Dy 0.78423 0.74647 0.78342 0.0
C141 C 0.69791 0.78451 0.66429 0.0
C142 C 0.81166 0.70911 0.83459 0.0
Dy143 Dy 0.73504 0.75579 0.71677 0.0
O144 O 0.81407 0.74281 0.83552 0.0
O145 O 0.79381 0.69662 0.80656 0.0
O146 O 0.83169 0.78414 0.76938 0.0
O147 O 0.78657 0.77697 0.73682 0.0
C148 C 0.81748 0.79257 0.73937 0.0
C149 C 0.71528 0.701 0.75631 0.0
O150 O 0.77499 0.72384 0.69129 0.0
O151 O 0.80007 0.70656 0.74419 0.0
O152 O 0.68408 0.76304 0.68717 0.0
O153 O 0.73218 0.78938 0.66943 0.0
O154 O 0.70922 0.70171 0.72214 0.0
O155 O 0.72897 0.73045 0.76724 0.0
O156 O 0.74593 0.77906 0.80972 0.0
O157 O 0.71538 0.79308 0.75818 0.0
C158 C 0.7965 0.70462 0.70903 0.0
C159 C 0.72133 0.79587 0.79341 0.0
Fe160 Fe 0.02522 0.04105 0.50346 0.0
O161 O 0.9888 0.00668 0.52425 0.0
Fe162 Fe 0.09551 0.9925 0.48896 0.0
Fe163 Fe 0.9371 0.00947 0.51992 0.0
O164 O 0.04498 0.99941 0.48418 0.0
O165 O 0.04391 0.99599 0.48399 0.0
O166 O 0.98768 1.00336 0.52393 0.0
Fe167 Fe 1.00752 0.96171 0.505 0.0
C168 C 0.97423 0.07705 0.5512 0.0
O169 O 0.99516 0.04234 0.45808 0.0
O170 O 0.9414 0.04474 0.48033 0.0
O171 O 0.03332 0.92234 0.48094 0.0
O172 O 0.0814 0.95205 0.45414 0.0
O173 O 0.10019 0.03161 0.45309 0.0
O174 O 0.0662 0.07171 0.47705 0.0
O175 O 0.92494 0.97098 0.48138 0.0
O176 O 0.97699 0.96138 0.45924 0.0
C177 C 0.09029 0.06249 0.45547 0.0
O178 O 0.03738 0.96109 0.55055 0.0
O179 O 0.09047 0.95661 0.52811 0.0
O180 O 0.99937 0.0803 0.5281 0.0
O181 O 0.9511 0.05028 0.55437 0.0
C182 C 0.96306 0.04878 0.4552 0.0
C183 C 0.94333 0.96038 0.45641 0.0
C184 C 0.94455 0.94045 0.55472 0.0
O185 O 0.93378 0.97099 0.55653 0.0
O186 O 0.96706 0.93092 0.53167 0.0
C187 C 0.05821 0.92538 0.45764 0.0
O188 O 0.10769 0.03063 0.52773 0.0
O189 O 0.0556 0.04095 0.54923 0.0
C190 C 0.06899 0.95333 0.55343 0.0
C191 C 0.08924 0.04201 0.55221 0.0
Fe192 Fe 0.51294 0.9668 0.99751 0.0
O193 O 0.5407 0.01031 0.9827 0.0
Fe194 Fe 0.4296 0.99881 0.01371 0.0
Fe195 Fe 0.59241 0.0181 0.98766 0.0
O196 O 0.48261 1.00117 0.01996 0.0
O197 O 0.48135 0.00573 0.01907 0.0
O198 O 0.53938 0.01496 0.98172 0.0
Fe199 Fe 0.50965 0.04919 0.00511 0.0
C200 C 0.5781 0.96273 0.04647 0.0
O201 O 0.54921 0.93742 0.96881 0.0
O202 O 0.59021 0.97983 0.94854 0.0
O203 O 0.4784 0.05455 0.95845 0.0
O204 O 0.42481 0.03953 0.97921 0.0
O205 O 0.42757 0.96559 0.97062 0.0
O206 O 0.4829 0.96582 0.95093 0.0
O207 O 0.58696 0.0598 0.95613 0.0
O208 O 0.54536 0.08922 0.98515 0.0
C209 C 0.44928 0.95937 0.94679 0.0
O210 O 0.47397 0.07824 0.03503 0.0
O211 O 0.43231 0.03576 0.05423 0.0
O212 O 0.54413 0.96286 0.0444 0.0
O213 O 0.59774 0.97878 0.02386 0.0
C214 C 0.57592 0.94802 0.94864 0.0
C215 C 0.57083 0.08702 0.96268 0.0
C216 C 0.57345 0.0585 0.05371 0.0
O217 O 0.59433 0.05341 0.02882 0.0
O218 O 0.54027 0.04856 0.05149 0.0
C219 C 0.44452 0.05535 0.95658 0.0
O220 O 0.4339 0.95585 0.04388 0.0
O221 O 0.47748 0.92684 0.0176 0.0
C222 C 0.44734 0.06737 0.05522 0.0
C223 C 0.45063 0.92883 0.0384 0.0
Fe224 Fe 0.01491 0.54117 0.00957 0.0
O225 O 0.98719 0.50334 0.03519 0.0
Fe226 Fe 0.08567 0.50242 0.97615 0.0
Fe227 Fe 0.93563 0.50081 0.04201 0.0
O228 O 0.03465 0.50344 0.98285 0.0
O229 O 0.03415 0.50056 0.98275 0.0
O230 O 0.98646 0.50048 0.03478 0.0
Fe231 Fe 1.00637 0.46284 0.00826 0.0
C232 C 0.96868 0.57183 0.06633 0.0
O233 O 0.97497 0.54204 0.9715 0.0
O234 O 0.92789 0.53766 0.006 0.0
O235 O 0.03091 0.42786 0.97796 0.0
O236 O 0.06941 0.46068 0.94247 0.0
O237 O 0.07731 0.54219 0.94295 0.0
O238 O 0.04645 0.57636 0.97921 0.0
O239 O 0.91988 0.46278 1.00318 0.0
O240 O 0.96711 0.46119 0.9696 0.0
C241 C 0.06581 0.57135 0.95192 0.0
O242 O 0.04538 0.46306 0.04665 0.0
O243 O 0.09325 0.46586 0.01318 0.0
O244 O 0.9904 0.57567 0.0403 0.0
O245 O 0.95193 0.54262 0.07586 0.0
C246 C 0.94334 0.5481 0.97816 0.0
C247 C 0.93398 0.45441 0.9743 0.0
C248 C 0.95526 0.43153 0.06526 0.0
O249 O 0.94396 0.4606 0.0748 0.0
O250 O 0.97497 0.42731 0.03813 0.0
C251 C 0.05208 0.43165 0.95152 0.0
O252 O 0.10151 0.54082 0.01407 0.0
O253 O 0.05474 0.54293 0.04813 0.0
C254 C 0.0772 0.45729 0.04129 0.0
C255 C 0.08785 0.54956 0.04297 0.0
Fe256 Fe 0.51753 0.50578 0.96179 0.0
O257 O 0.54251 0.53001 0.0037 0.0
Fe258 Fe 0.43918 0.46638 0.99569 0.0
Fe259 Fe 0.59396 0.54099 0.00753 0.0
O260 O 0.49141 0.47599 0.99703 0.0
O261 O 0.49096 0.47624 1.00012 0.0
O262 O 0.54196 0.53039 0.00669 0.0
Fe263 Fe 0.51579 0.50078 0.04209 0.0
C264 C 0.58726 0.48076 0.95299 0.0
O265 O 0.5481 0.54036 0.92952 0.0
O266 O 0.58429 0.57573 0.96847 0.0
O267 O 0.47879 0.53516 0.04462 0.0
O268 O 0.42971 0.49851 0.03733 0.0
O269 O 0.43083 0.50531 0.96049 0.0
O270 O 0.4813 0.54021 0.96475 0.0
O271 O 0.58327 0.56959 0.05161 0.0
O272 O 0.54585 0.53037 0.08208 0.0
C273 C 0.44876 0.53433 0.9556 0.0
O274 O 0.4844 0.46625 0.07421 0.0
O275 O 0.44807 0.43144 0.03469 0.0
O276 O 0.5547 0.47153 0.95843 0.0
O277 O 0.60348 0.50876 0.96581 0.0
C278 C 0.57039 0.56764 0.93704 0.0
C279 C 0.56765 0.55849 0.08001 0.0
C280 C 0.58581 0.47278 0.04633 0.0
O281 O 0.60279 0.50243 0.04245 0.0
O282 O 0.5526 0.46645 0.04009 0.0
C283 C 0.44622 0.5263 0.05018 0.0
O284 O 0.44972 0.43763 0.95176 0.0
O285 O 0.48707 0.47705 0.92167 0.0
C286 C 0.46178 0.43922 0.06625 0.0
C287 C 0.46501 0.44913 0.92337 0.0
Fe288 Fe 0.03439 0.43338 0.49718 0.0
O289 O 0.03411 0.48386 0.5022 0.0
Fe290 Fe 0.01394 0.51032 0.45796 0.0
Fe291 Fe 1.01025 0.50686 0.54188 0.0
O292 O 0.03415 0.48402 0.49799 0.0
O293 O 0.98914 0.53255 0.49742 0.0
O294 O 0.98923 0.53246 0.50175 0.0
Fe295 Fe 0.98859 0.58302 0.50195 0.0
C296 C 0.96683 0.43836 0.53952 0.0
O297 O 0.0677 0.44024 0.54196 0.0
O298 O 0.03738 0.47468 0.5785 0.0
O299 O 0.02802 0.59361 0.4661 0.0
O300 O 0.05707 0.54681 0.46382 0.0
O301 O 0.045 0.4815 0.42241 0.0
O302 O 0.07188 0.44414 0.45918 0.0
O303 O 0.05333 0.54313 0.54749 0.0
O304 O 0.02672 0.59148 0.54256 0.0
C305 C 0.06827 0.45918 0.42909 0.0
O306 O 0.9544 0.57511 0.45805 0.0
O307 O 0.98681 0.54279 0.42135 0.0
O308 O 0.99339 0.42255 0.53139 0.0
O309 O 0.967 0.47088 0.53806 0.0
C310 C 0.06099 0.4525 0.573 0.0
C311 C 0.05279 0.5754 0.55274 0.0
C312 C 0.95668 0.55816 0.57121 0.0
O313 O 0.98035 0.53627 0.57776 0.0
O314 O 0.95218 0.57259 0.54096 0.0
C315 C 0.05593 0.57903 0.4604 0.0
O316 O 0.97098 0.47397 0.45073 0.0
O317 O 0.99752 0.42563 0.45564 0.0
C318 C 0.96192 0.56368 0.42691 0.0
C319 C 0.97147 0.44169 0.44558 0.0
Fe320 Fe 0.50873 0.9688 0.50323 0.0
O321 O 0.49023 0.00566 0.53277 0.0
Fe322 Fe 0.52603 0.00889 0.42321 0.0
Fe323 Fe 0.49594 0.0082 0.58507 0.0
O324 O 0.53058 0.00772 0.47492 0.0
O325 O 0.53192 0.01091 0.47542 0.0
O326 O 0.49205 0.00887 0.5335 0.0
Fe327 Fe 0.5137 0.04773 0.50512 0.0
C328 C 0.46139 0.93681 0.56263 0.0
O329 O 0.55441 0.97199 0.53392 0.0
O330 O 0.53274 0.97267 0.58803 0.0
O331 O 0.53864 0.08432 0.47137 0.0
O332 O 0.56263 0.0517 0.42833 0.0
O333 O 0.56004 0.97122 0.42737 0.0
O334 O 0.53296 0.93566 0.46962 0.0
O335 O 0.53639 0.04802 0.58911 0.0
O336 O 0.56011 0.05337 0.53598 0.0
C337 C 0.55583 0.9428 0.44496 0.0
O338 O 0.46749 0.04411 0.47538 0.0
O339 O 0.48803 0.04349 0.42088 0.0
O340 O 0.48293 0.93255 0.53689 0.0
O341 O 0.45887 0.96576 0.57969 0.0
C342 C 0.55579 0.96442 0.5664 0.0
C343 C 0.56144 0.05952 0.5693 0.0
C344 C 0.4675 0.07512 0.56336 0.0
O345 O 0.46253 0.04651 0.58058 0.0
O346 O 0.49052 0.08137 0.53874 0.0
C347 C 0.55998 0.08055 0.44541 0.0
O348 O 0.48655 0.96834 0.419 0.0
O349 O 0.4626 0.96288 0.4719 0.0
C350 C 0.4645 0.05033 0.44269 0.0
C351 C 0.4617 0.95625 0.43868 0.0
C352 C 0.20427 0.20114 0.3359 0.0
C353 C 0.19997 0.1912 0.2999 0.0
C354 C 0.18547 0.18255 0.36224 0.0
C355 C 0.16149 0.15323 0.35251 0.0
C356 C 0.15686 0.14316 0.31615 0.0
C357 C 0.1762 0.16219 0.2903 0.0
C358 C 0.1916 0.19413 0.40057 0.0
C359 C 0.13165 0.11206 0.30458 0.0
C360 C 0.14299 0.08283 0.42004 0.0
C361 C 0.10893 0.08825 0.4317 0.0
C362 C 0.16038 0.10405 0.39489 0.0
C363 C 0.14343 0.1316 0.38056 0.0
C364 C 0.1095 0.13804 0.39291 0.0
C365 C 0.09267 0.11635 0.41844 0.0
C366 C 0.19676 0.09649 0.38317 0.0
C367 C 0.09055 0.16723 0.37845 0.0
H368 H 0.22238 0.22368 0.34359 0.0
H369 H 0.1725 0.1545 0.26256 0.0
H370 H 0.16589 0.19819 0.41262 0.0
H371 H 0.20329 0.17373 0.41577 0.0
H372 H 0.20979 0.21841 0.40361 0.0
H373 H 0.12976 0.10847 0.27527 0.0
H374 H 0.14074 0.08846 0.3163 0.0
H375 H 0.10466 0.11469 0.31443 0.0
H376 H 0.15614 0.06152 0.43039 0.0
H377 H 0.06638 0.12072 0.42709 0.0
H378 H 0.21625 0.11967 0.38748 0.0
H379 H 0.19569 0.09005 0.35435 0.0
H380 H 0.20678 0.07469 0.39762 0.0
H381 H 0.10858 0.19164 0.37941 0.0
H382 H 0.06632 0.1712 0.39335 0.0
H383 H 0.08259 0.16152 0.35022 0.0
C384 C 0.88088 0.1509 0.29824 0.0
C385 C 0.86797 0.17786 0.31743 0.0
C386 C 0.90355 0.12953 0.31463 0.0
C387 C 0.91309 0.13551 0.35083 0.0
C388 C 0.90294 0.16478 0.36925 0.0
C389 C 0.88023 0.18571 0.35221 0.0
C390 C 0.91464 0.09892 0.29417 0.0
C391 C 0.91343 0.17222 0.40781 0.0
C392 C 0.91535 0.06291 0.41382 0.0
C393 C 0.95157 0.06562 0.42331 0.0
C394 C 0.9028 0.08385 0.38782 0.0
C395 C 0.92724 0.10807 0.37134 0.0
C396 C 0.96423 0.10861 0.37842 0.0
C397 C 0.97608 0.08712 0.40448 0.0
C398 C 0.86311 0.08199 0.38019 0.0
C399 C 0.9911 0.13367 0.36092 0.0
H400 H 0.87185 0.14539 0.27097 0.0
H401 H 0.87067 0.20707 0.36665 0.0
H402 H 0.94295 0.09547 0.30026 0.0
H403 H 0.89832 0.07512 0.3021 0.0
H404 H 0.91088 0.10167 0.26508 0.0
H405 H 0.90737 0.19828 0.4167 0.0
H406 H 0.8987 0.15273 0.42447 0.0
H407 H 0.94229 0.17033 0.41244 0.0
H408 H 0.89664 0.04552 0.4279 0.0
H409 H 1.00423 0.08889 0.41168 0.0
H410 H 0.85723 0.08056 0.35119 0.0
H411 H 0.85288 0.10572 0.39077 0.0
H412 H 0.84836 0.05929 0.39247 0.0
H413 H 0.98244 0.13923 0.33346 0.0
H414 H 0.01754 0.12363 0.36024 0.0
H415 H 0.99429 0.15838 0.37642 0.0
C416 C 0.83554 0.831 0.32157 0.0
C417 C 0.83244 0.84075 0.28612 0.0
C418 C 0.85342 0.85328 0.34733 0.0
C419 C 0.86846 0.8864 0.33756 0.0
C420 C 0.86484 0.89679 0.30192 0.0
C421 C 0.84693 0.8737 0.27648 0.0
C422 C 0.85673 0.84103 0.38494 0.0
C423 C 0.88016 0.93209 0.29069 0.0
C424 C 0.8888 0.94784 0.41668 0.0
C425 C 0.92489 0.94434 0.42393 0.0
C426 C 0.87053 0.93076 0.38731 0.0
C427 C 0.8887 0.9094 0.36485 0.0
C428 C 0.92549 0.90693 0.37119 0.0
C429 C 0.94315 0.92454 0.40052 0.0
C430 C 0.83142 0.93438 0.38121 0.0
C431 C 0.94582 0.8842 0.34813 0.0
H432 H 0.82431 0.80557 0.32924 0.0
H433 H 0.84445 0.88132 0.24911 0.0
H434 H 0.88525 0.8412 0.39296 0.0
H435 H 0.84487 0.8588 0.40342 0.0
H436 H 0.84334 0.81453 0.38815 0.0
H437 H 0.87362 0.93685 0.26242 0.0
H438 H 0.86988 0.95235 0.30744 0.0
H439 H 0.90955 0.9348 0.29464 0.0
H440 H 0.8746 0.9635 0.4343 0.0
H441 H 0.97105 0.92174 0.40578 0.0
H442 H 0.81551 0.90968 0.3871 0.0
H443 H 0.82574 0.94006 0.35303 0.0
H444 H 0.82232 0.95513 0.39823 0.0
H445 H 0.93567 0.85673 0.35161 0.0
H446 H 0.97487 0.88741 0.35472 0.0
H447 H 0.9417 0.89003 0.31974 0.0
C448 C 0.17519 0.85691 0.32553 0.0
C449 C 0.16622 0.82679 0.30509 0.0
C450 C 0.15073 0.86893 0.34877 0.0
C451 C 0.11682 0.84997 0.35187 0.0
C452 C 0.10727 0.82013 0.33041 0.0
C453 C 0.13206 0.80902 0.30702 0.0
C454 C 0.16162 0.90132 0.37084 0.0
C455 C 0.07159 0.79908 0.33331 0.0
C456 C 0.0802 0.87019 0.44075 0.0
C457 C 0.06073 0.8975 0.43179 0.0
C458 C 0.09585 0.85165 0.41423 0.0
C459 C 0.09207 0.8613 0.37839 0.0
C460 C 0.06896 0.88624 0.36914 0.0
C461 C 0.05355 0.90415 0.39614 0.0
C462 C 0.11958 0.82452 0.42497 0.0
C463 C 0.06393 0.89704 0.33127 0.0
H464 H 0.20164 0.87052 0.32409 0.0
H465 H 0.12518 0.78549 0.29137 0.0
H466 H 0.14174 0.9201 0.36708 0.0
H467 H 0.1624 0.89498 0.39938 0.0
H468 H 0.18821 0.9139 0.36394 0.0
H469 H 0.06689 0.77869 0.31218 0.0
H470 H 0.07034 0.78651 0.35944 0.0
H471 H 0.04968 0.81591 0.33184 0.0
H472 H 0.08605 0.86557 0.46847 0.0
H473 H 0.03875 0.9257 0.38952 0.0
H474 H 0.14786 0.83538 0.42374 0.0
H475 H 0.11553 0.80182 0.40653 0.0
H476 H 0.11463 0.81577 0.45241 0.0
H477 H 0.08795 0.91372 0.3235 0.0
H478 H 0.04045 0.91178 0.32787 0.0
H479 H 0.06061 0.87428 0.31288 0.0
C480 C 0.14847 0.86048 0.71796 0.0
C481 C 0.15381 0.82824 0.70323 0.0
C482 C 0.12678 0.88197 0.70025 0.0
C483 C 0.11078 0.87074 0.66714 0.0
C484 C 0.11271 0.83657 0.65444 0.0
C485 C 0.13437 0.81557 0.67281 0.0
C486 C 0.12428 0.91792 0.71497 0.0
C487 C 0.09549 0.8236 0.61938 0.0
C488 C 0.05437 0.92277 0.60938 0.0
C489 C 0.07989 0.93647 0.58575 0.0
C490 C 0.06418 0.90276 0.63771 0.0
C491 C 0.10018 0.89647 0.64205 0.0
C492 C 0.12633 0.91219 0.6197 0.0
C493 C 0.11581 0.93213 0.59183 0.0
C494 C 0.03573 0.88682 0.66142 0.0
C495 C 0.16519 0.90632 0.62381 0.0
H496 H 0.16295 0.86983 0.7421 0.0
H497 H 0.138 0.79021 0.66198 0.0
H498 H 0.14333 0.93648 0.70136 0.0
H499 H 0.09719 0.92582 0.71023 0.0
H500 H 0.13093 0.91983 0.74388 0.0
H501 H 0.09469 0.7951 0.61621 0.0
H502 H 0.06795 0.83088 0.61671 0.0
H503 H 0.11089 0.83568 0.59742 0.0
H504 H 0.02651 0.92635 0.60492 0.0
H505 H 0.13564 0.94334 0.57403 0.0
H506 H 0.04572 0.88635 0.68934 0.0
H507 H 0.02767 0.85975 0.65248 0.0
H508 H 1.01163 0.90093 0.66041 0.0
H509 H 0.17519 0.91289 0.6513 0.0
H510 H 0.18221 0.92197 0.60529 0.0
H511 H 0.16828 0.87866 0.61866 0.0
C512 C 0.19315 0.17991 0.68086 0.0
C513 C 0.19747 0.17128 0.71651 0.0
C514 C 0.17613 0.15611 0.65597 0.0
C515 C 0.16333 0.12267 0.66691 0.0
C516 C 0.16844 0.11343 0.70271 0.0
C517 C 0.18539 0.13798 0.72722 0.0
C518 C 0.17116 0.16709 0.6181 0.0
C519 C 0.15553 0.07785 0.71517 0.0
C520 C 0.08882 0.07886 0.60728 0.0
C521 C 0.10761 0.05944 0.58399 0.0
C522 C 0.10639 0.09828 0.6355 0.0
C523 C 0.14363 0.09808 0.64078 0.0
C524 C 0.16245 0.07711 0.61857 0.0
C525 C 0.14424 0.05814 0.59033 0.0
C526 C 0.08533 0.12047 0.65842 0.0
C527 C 0.20211 0.07591 0.62362 0.0
H528 H 0.20248 0.20566 0.67244 0.0
H529 H 0.18885 0.13126 0.75476 0.0
H530 H 0.18341 0.14947 0.59977 0.0
H531 H 0.14234 0.1654 0.61083 0.0
H532 H 0.18315 0.19392 0.61386 0.0
H533 H 0.16333 0.07412 0.74335 0.0
H534 H 0.12609 0.07354 0.71222 0.0
H535 H 0.16643 0.0579 0.69851 0.0
H536 H 0.06049 0.07997 0.60273 0.0
H537 H 0.15892 0.04288 0.57276 0.0
H538 H 0.09358 0.14813 0.65358 0.0
H539 H 0.09088 0.11605 0.68691 0.0
H540 H 0.05617 0.11533 0.65292 0.0
H541 H 0.21633 0.10105 0.61638 0.0
H542 H 0.21197 0.05525 0.60705 0.0
H543 H 0.20909 0.07163 0.65185 0.0
C544 C 0.85462 0.14616 0.68212 0.0
C545 C 0.86441 0.17511 0.70411 0.0
C546 C 0.87899 0.134 0.6588 0.0
C547 C 0.91364 0.15176 0.65698 0.0
C548 C 0.92388 0.18056 0.67975 0.0
C549 C 0.89921 0.19168 0.70334 0.0
C550 C 0.86733 0.10264 0.63547 0.0
C551 C 0.96027 0.2005 0.67811 0.0
C552 C 0.97692 0.09684 0.6132 0.0
C553 C 0.97136 0.10458 0.57752 0.0
C554 C 0.96075 0.11428 0.64007 0.0
C555 C 0.93867 0.14008 0.63077 0.0
C556 C 0.93652 0.15074 0.59511 0.0
C557 C 0.95275 0.13253 0.56867 0.0
C558 C 0.96393 0.10215 0.67768 0.0
C559 C 0.9141 0.1789 0.58434 0.0
H560 H 0.82767 0.1335 0.6826 0.0
H561 H 0.90672 0.21441 0.72004 0.0
H562 H 0.86748 0.10996 0.6072 0.0
H563 H 0.88627 0.08292 0.63891 0.0
H564 H 0.84018 0.09079 0.64146 0.0
H565 H 0.96502 0.22065 0.69948 0.0
H566 H 0.98141 0.18284 0.68019 0.0
H567 H 0.96289 0.21322 0.65212 0.0
H568 H 0.99101 0.0748 0.61978 0.0
H569 H 0.94806 0.13803 0.54095 0.0
H570 H 0.93915 0.08586 0.68407 0.0
H571 H 0.96719 0.1243 0.69684 0.0
H572 H 0.98676 0.08662 0.68146 0.0
H573 H 0.88552 0.16878 0.58434 0.0
H574 H 0.92032 0.18827 0.55737 0.0
H575 H 0.91815 0.20105 0.60349 0.0
C576 C 0.87457 0.81683 0.71305 0.0
C577 C 0.83719 0.81185 0.71114 0.0
C578 C 0.89405 0.83474 0.68666 0.0
C579 C 0.87576 0.84831 0.65766 0.0
C580 C 0.83802 0.84298 0.65542 0.0
C581 C 0.81927 0.82492 0.68222 0.0
C582 C 0.9342 0.83992 0.6903 0.0
C583 C 0.81737 0.85728 0.62524 0.0
C584 C 0.91797 0.92878 0.6136 0.0
C585 C 0.92974 0.91569 0.58152 0.0
C586 C 0.90122 0.90707 0.63868 0.0
C587 C 0.89572 0.87106 0.63175 0.0
C588 C 0.90845 0.85737 0.59994 0.0
C589 C 0.92554 0.87984 0.57525 0.0
C590 C 0.88873 0.92291 0.67238 0.0
C591 C 0.90315 0.81911 0.59159 0.0
H592 H 0.88869 0.80667 0.73528 0.0
H593 H 0.79055 0.82187 0.68101 0.0
H594 H 0.9462 0.83135 0.66559 0.0
H595 H 0.94321 0.86779 0.69442 0.0
H596 H 0.94455 0.8256 0.71289 0.0
H597 H 0.78843 0.84872 0.62584 0.0
H598 H 0.8211 0.88591 0.62665 0.0
H599 H 0.8275 0.8491 0.59943 0.0
H600 H 0.92161 0.95637 0.61913 0.0
H601 H 0.93453 0.86947 0.55062 0.0
H602 H 0.90033 0.91093 0.69586 0.0
H603 H 0.85934 0.91783 0.67357 0.0
H604 H 0.89615 0.95126 0.67432 0.0
H605 H 0.91418 0.80466 0.61367 0.0
H606 H 0.91601 0.81229 0.56668 0.0
H607 H 0.87425 0.81041 0.58892 0.0
C608 C 0.32117 0.19157 0.15678 0.0
C609 C 0.32868 0.19677 0.19347 0.0
C610 C 0.34263 0.17294 0.13477 0.0
C611 C 0.37305 0.15894 0.14917 0.0
C612 C 0.38119 0.16456 0.18607 0.0
C613 C 0.35905 0.18312 0.2076 0.0
C614 C 0.33215 0.16761 0.09597 0.0
C615 C 0.41322 0.15055 0.20299 0.0
C616 C 0.40216 0.07866 0.10143 0.0
C617 C 0.4307 0.0918 0.08046 0.0
C618 C 0.38397 0.09994 0.1238 0.0
C619 C 0.39416 0.13599 0.12631 0.0
C620 C 0.42341 0.14963 0.10596 0.0
C621 C 0.44115 0.12758 0.08334 0.0
C622 C 0.35306 0.08368 0.14432 0.0
C623 C 0.43571 0.18772 0.10777 0.0
H624 H 0.29808 0.20185 0.14506 0.0
H625 H 0.36569 0.18697 0.23564 0.0
H626 H 0.35481 0.17678 0.07935 0.0
H627 H 0.32547 0.13964 0.08991 0.0
H628 H 0.30886 0.18134 0.08826 0.0
H629 H 0.41756 0.15891 0.23125 0.0
H630 H 0.40973 0.12192 0.2015 0.0
H631 H 0.43746 0.15917 0.18831 0.0
H632 H 0.39331 0.05129 0.10013 0.0
H633 H 0.46291 0.1385 0.06763 0.0
H634 H 0.3283 0.0948 0.13606 0.0
H635 H 0.35769 0.08946 0.17309 0.0
H636 H 0.34871 0.05521 0.14021 0.0
H637 H 0.41421 0.20246 0.09735 0.0
H638 H 0.45994 0.19428 0.09227 0.0
H639 H 0.44144 0.19632 0.13577 0.0
C640 C 0.81572 0.29588 0.14445 0.0
C641 C 0.82886 0.27646 0.1718 0.0
C642 C 0.83915 0.31588 0.12305 0.0
C643 C 0.87637 0.31623 0.12925 0.0
C644 C 0.8896 0.2938 0.15423 0.0
C645 C 0.86562 0.27414 0.17526 0.0
C646 C 0.82404 0.33913 0.09622 0.0
C647 C 0.92908 0.29305 0.16122 0.0
C648 C 0.93636 0.36813 0.0664 0.0
C649 C 0.94058 0.40052 0.08389 0.0
C650 C 0.9165 0.33984 0.0813 0.0
C651 C 0.90084 0.34418 0.11446 0.0
C652 C 0.90697 0.37623 0.1332 0.0
C653 C 0.92671 0.40402 0.11763 0.0
C654 C 0.91068 0.30601 0.06068 0.0
C655 C 0.89126 0.3817 0.16901 0.0
H656 H 0.78732 0.29752 0.14143 0.0
H657 H 0.8759 0.25863 0.19598 0.0
H658 H 0.82819 0.36626 0.10634 0.0
H659 H 0.83798 0.33793 0.07083 0.0
H660 H 0.79505 0.33218 0.09097 0.0
H661 H 0.93491 0.26996 0.17628 0.0
H662 H 0.9435 0.29332 0.13603 0.0
H663 H 0.93968 0.31643 0.177 0.0
H664 H 0.94689 0.36529 0.0402 0.0
H665 H 0.93026 0.42889 0.13143 0.0
H666 H 0.88299 0.30242 0.04954 0.0
H667 H 0.91409 0.284 0.07823 0.0
H668 H 0.92921 0.30515 0.03843 0.0
H669 H 0.86176 0.37888 0.16632 0.0
H670 H 0.90016 0.40763 0.18084 0.0
H671 H 0.89886 0.36186 0.18767 0.0
C672 C 0.69445 0.82928 0.14998 0.0
C673 C 0.69933 0.83403 0.18708 0.0
C674 C 0.67295 0.84965 0.12921 0.0
C675 C 0.65568 0.8765 0.14519 0.0
C676 C 0.6603 0.88141 0.18269 0.0
C677 C 0.68155 0.86017 0.20301 0.0
C678 C 0.66894 0.84246 0.08976 0.0
C679 C 0.64328 0.90972 0.20141 0.0
C680 C 0.63312 0.94989 0.08279 0.0
C681 C 0.59638 0.94226 0.0746 0.0
C682 C 0.65202 0.92973 0.10633 0.0
C683 C 0.6345 0.90015 0.12234 0.0
C684 C 0.59721 0.89257 0.11475 0.0
C685 C 0.57873 0.91364 0.09147 0.0
C686 C 0.69127 0.93989 0.11354 0.0
C687 C 0.57689 0.86137 0.13035 0.0
H688 H 0.70747 0.80927 0.13686 0.0
H689 H 0.68479 0.86455 0.23143 0.0
H690 H 0.6403 0.8381 0.08169 0.0
H691 H 0.6807 0.86518 0.07526 0.0
H692 H 0.68212 0.81956 0.08138 0.0
H693 H 0.64838 0.90997 0.23057 0.0
H694 H 0.65375 0.93515 0.19108 0.0
H695 H 0.61409 0.90659 0.19594 0.0
H696 H 0.64749 0.9718 0.07042 0.0
H697 H 0.55058 0.9069 0.08552 0.0
H698 H 0.70678 0.91967 0.10265 0.0
H699 H 0.69714 0.94191 0.14255 0.0
H700 H 0.70063 0.9649 0.10153 0.0
H701 H 0.58703 0.83759 0.1198 0.0
H702 H 0.54784 0.85998 0.12408 0.0
H703 H 0.58116 0.86173 0.15958 0.0
C704 C 0.20869 0.6611 0.19432 0.0
C705 C 0.2091 0.69604 0.18587 0.0
C706 C 0.19102 0.63502 0.17191 0.0
C707 C 0.17327 0.64414 0.14037 0.0
C708 C 0.17447 0.67937 0.13133 0.0
C709 C 0.1924 0.70485 0.15414 0.0
C710 C 0.19063 0.59779 0.18239 0.0
C711 C 0.15606 0.69026 0.09792 0.0
C712 C 0.14717 0.57894 0.06502 0.0
C713 C 0.11048 0.57104 0.06983 0.0
C714 C 0.16822 0.60172 0.08846 0.0
C715 C 0.15225 0.61718 0.11738 0.0
C716 C 0.11553 0.60846 0.12306 0.0
C717 C 0.09515 0.58549 0.09933 0.0
C718 C 0.20731 0.61014 0.08157 0.0
C719 C 0.09743 0.62433 0.15356 0.0
H720 H 0.22163 0.65415 0.21879 0.0
H721 H 0.19275 0.73181 0.14741 0.0
H722 H 0.16291 0.58691 0.18725 0.0
H723 H 0.20042 0.58225 0.16049 0.0
H724 H 0.20729 0.59484 0.20668 0.0
H725 H 0.16057 0.71856 0.09405 0.0
H726 H 0.16569 0.67684 0.07444 0.0
H727 H 0.12697 0.68271 0.09902 0.0
H728 H 0.15941 0.56787 0.04246 0.0
H729 H 0.0669 0.57965 0.10342 0.0
H730 H 0.22362 0.60653 0.1059 0.0
H731 H 0.21254 0.63764 0.07437 0.0
H732 H 0.21631 0.59387 0.05977 0.0
H733 H 0.11177 0.62019 0.17896 0.0
H734 H 0.06919 0.61343 0.15552 0.0
H735 H 0.09821 0.65263 0.15017 0.0
C736 C 0.3112 0.83191 0.84564 0.0
C737 C 0.31567 0.82381 0.8099 0.0
C738 C 0.33726 0.85343 0.86503 0.0
C739 C 0.36783 0.86828 0.84778 0.0
C740 C 0.37255 0.85993 0.81164 0.0
C741 C 0.34664 0.83721 0.79325 0.0
C742 C 0.33176 0.86074 0.90384 0.0
C743 C 0.40415 0.87603 0.79205 0.0
C744 C 0.40651 0.95072 0.8955 0.0
C745 C 0.43449 0.93916 0.91554 0.0
C746 C 0.38647 0.92858 0.8709 0.0
C747 C 0.39372 0.89371 0.86751 0.0
C748 C 0.42321 0.88249 0.88645 0.0
C749 C 0.44361 0.90561 0.90996 0.0
C750 C 0.35607 0.94193 0.85032 0.0
C751 C 0.43132 0.84538 0.88437 0.0
H752 H 0.28728 0.82129 0.85844 0.0
H753 H 0.34987 0.83109 0.76544 0.0
H754 H 0.3557 0.85575 0.9199 0.0
H755 H 0.32783 0.88835 0.90795 0.0
H756 H 0.30828 0.84475 0.91395 0.0
H757 H 0.40459 0.86584 0.76436 0.0
H758 H 0.4034 0.90442 0.79136 0.0
H759 H 0.42934 0.87135 0.80611 0.0
H760 H 0.39946 0.97669 0.90013 0.0
H761 H 0.46491 0.89662 0.92607 0.0
H762 H 0.3304 0.93123 0.86125 0.0
H763 H 0.35603 0.93345 0.82206 0.0
H764 H 0.3575 0.97057 0.85173 0.0
H765 H 0.41059 0.829 0.89835 0.0
H766 H 0.45772 0.84193 0.89679 0.0
H767 H 0.4307 0.83588 0.85643 0.0
C768 C 0.13322 0.27055 0.86299 0.0
C769 C 0.16979 0.28083 0.86713 0.0
C770 C 0.10852 0.28948 0.87935 0.0
C771 C 0.12106 0.31879 0.90054 0.0
C772 C 0.15799 0.32678 0.908 0.0
C773 C 0.18208 0.30776 0.89084 0.0
C774 C 0.06927 0.28005 0.87131 0.0
C775 C 0.17217 0.35722 0.9316 0.0
C776 C 0.07598 0.40032 0.90103 0.0
C777 C 0.06226 0.39988 0.93502 0.0
C778 C 0.09278 0.37245 0.88828 0.0
C779 C 0.09651 0.34408 0.91055 0.0
C780 C 0.0804 0.34239 0.94383 0.0
C781 C 0.06308 0.37028 0.95555 0.0
C782 C 0.10886 0.37457 0.85209 0.0
C783 C 0.08413 0.31284 0.96853 0.0
H784 H 0.12379 0.24943 0.84479 0.0
H785 H 0.21046 0.3153 0.89431 0.0
H786 H 0.0538 0.28157 0.89572 0.0
H787 H 0.05962 0.29872 0.85239 0.0
H788 H 0.06372 0.25368 0.85933 0.0
H789 H 0.20102 0.35715 0.93828 0.0
H790 H 0.16824 0.38157 0.91794 0.0
H791 H 0.15744 0.35719 0.95661 0.0
H792 H 0.07495 0.42306 0.88506 0.0
H793 H 0.05259 0.36986 0.98199 0.0
H794 H 0.1018 0.3501 0.83674 0.0
H795 H 0.13833 0.37853 0.85516 0.0
H796 H 0.09985 0.39617 0.83656 0.0
H797 H 0.08349 0.28787 0.95377 0.0
H798 H 0.06279 0.31076 0.98824 0.0
H799 H 0.11013 0.3174 0.98327 0.0
C800 C 0.67876 0.22701 0.84356 0.0
C801 C 0.70266 0.208 0.82553 0.0
C802 C 0.65485 0.21134 0.86754 0.0
C803 C 0.65478 0.17575 0.87393 0.0
C804 C 0.67911 0.15641 0.85632 0.0
C805 C 0.70277 0.17277 0.83228 0.0
C806 C 0.62939 0.23284 0.88576 0.0
C807 C 0.67989 0.11835 0.86267 0.0
C808 C 0.61716 0.13565 0.9574 0.0
C809 C 0.58532 0.11774 0.94415 0.0
C810 C 0.63925 0.15625 0.93524 0.0
C811 C 0.62921 0.15863 0.89897 0.0
C812 C 0.5957 0.14261 0.8862 0.0
C813 C 0.57419 0.1221 0.90899 0.0
C814 C 0.67458 0.1731 0.95 0.0
C815 C 0.58379 0.14493 0.84784 0.0
H816 H 0.67839 0.25431 0.83879 0.0
H817 H 0.72104 0.15789 0.81852 0.0
H818 H 0.60151 0.22239 0.87892 0.0
H819 H 0.63304 0.2315 0.91497 0.0
H820 H 0.63314 0.26038 0.8782 0.0
H821 H 0.7007 0.1071 0.84732 0.0
H822 H 0.68494 0.11408 0.89129 0.0
H823 H 0.65362 0.10421 0.85513 0.0
H824 H 0.62612 0.13136 0.98437 0.0
H825 H 0.54996 0.10742 0.89866 0.0
H826 H 0.67887 0.20045 0.94205 0.0
H827 H 0.69643 0.15964 0.93899 0.0
H828 H 0.67648 0.17216 0.97941 0.0
H829 H 0.58733 0.17209 0.83919 0.0
H830 H 0.55544 0.1346 0.84321 0.0
H831 H 0.60046 0.12993 0.83092 0.0
C832 C 0.82736 0.65179 0.85106 0.0
C833 C 0.83081 0.68745 0.858 0.0
C834 C 0.84781 0.63028 0.87005 0.0
C835 C 0.87188 0.64484 0.89698 0.0
C836 C 0.87516 0.6808 0.9046 0.0
C837 C 0.85449 0.70189 0.88478 0.0
C838 C 0.84352 0.59197 0.86137 0.0
C839 C 0.90025 0.69682 0.93369 0.0
C840 C 0.89217 0.58169 0.96663 0.0
C841 C 0.92523 0.57216 0.95617 0.0
C842 C 0.87531 0.60643 0.94838 0.0
C843 C 0.89163 0.62171 0.91858 0.0
C844 C 0.92501 0.6125 0.90779 0.0
C845 C 0.94157 0.58775 0.92685 0.0
C846 C 0.83969 0.61572 0.96065 0.0
C847 C 0.94288 0.62841 0.87588 0.0
H848 H 0.80901 0.64063 0.83024 0.0
H849 H 0.85718 0.72954 0.88988 0.0
H850 H 0.86967 0.58316 0.85511 0.0
H851 H 0.83354 0.57748 0.88471 0.0
H852 H 0.8247 0.58514 0.8385 0.0
H853 H 0.90094 0.7254 0.93505 0.0
H854 H 0.89191 0.68642 0.95965 0.0
H855 H 0.92761 0.68992 0.92954 0.0
H856 H 0.87938 0.57006 0.98946 0.0
H857 H 0.96727 0.58079 0.91891 0.0
H858 H 0.81872 0.60774 0.94002 0.0
H859 H 0.84041 0.64408 0.96463 0.0
H860 H 0.83189 0.60314 0.98583 0.0
H861 H 0.92633 0.621 0.85159 0.0
H862 H 0.96983 0.62008 0.87237 0.0
H863 H 0.94528 0.65699 0.87843 0.0
C864 C 0.18413 0.31068 0.11782 0.0
C865 C 0.17469 0.30337 0.15259 0.0
C866 C 0.16599 0.33381 0.09811 0.0
C867 C 0.13913 0.35071 0.11445 0.0
C868 C 0.12894 0.34259 0.14926 0.0
C869 C 0.14646 0.31837 0.16772 0.0
C870 C 0.1764 0.34111 0.06044 0.0
C871 C 0.1011 0.36094 0.16779 0.0
C872 C 0.12421 0.43883 0.08112 0.0
C873 C 0.09177 0.43131 0.06257 0.0
C874 C 0.13981 0.41269 0.09872 0.0
C875 C 0.12302 0.37841 0.09606 0.0
C876 C 0.09041 0.37081 0.07679 0.0
C877 C 0.07475 0.39767 0.06076 0.0
C878 C 0.1741 0.42169 0.12009 0.0
C879 C 0.07253 0.33435 0.07246 0.0
H880 H 0.20604 0.29888 0.10637 0.0
H881 H 0.13955 0.31288 0.19487 0.0
H882 H 0.15236 0.33964 0.04259 0.0
H883 H 0.19001 0.36768 0.05907 0.0
H884 H 0.19457 0.32275 0.05037 0.0
H885 H 0.09576 0.35087 0.19467 0.0
H886 H 0.11017 0.38895 0.17041 0.0
H887 H 0.07576 0.35826 0.15189 0.0
H888 H 0.13719 0.46504 0.08184 0.0
H889 H 0.04985 0.39223 0.04561 0.0
H890 H 0.19559 0.40793 0.10881 0.0
H891 H 0.17075 0.41314 0.14779 0.0
H892 H 0.18277 0.44986 0.12059 0.0
H893 H 0.09097 0.31764 0.05999 0.0
H894 H 0.04761 0.33294 0.05583 0.0
H895 H 0.06607 0.32359 0.09876 0.0
C896 C 0.16297 0.72206 0.83821 0.0
C897 C 0.19814 0.71364 0.83633 0.0
C898 C 0.13871 0.70416 0.86031 0.0
C899 C 0.14998 0.67733 0.88107 0.0
C900 C 0.18615 0.67062 0.88153 0.0
C901 C 0.20989 0.6889 0.85906 0.0
C902 C 0.10043 0.7122 0.85931 0.0
C903 C 0.19919 0.64243 0.90383 0.0
C904 C 0.09259 0.63235 0.95049 0.0
C905 C 0.08035 0.60148 0.93227 0.0
C906 C 0.11423 0.65826 0.93377 0.0
C907 C 0.12324 0.65304 0.89806 0.0
C908 C 0.10855 0.62304 0.87886 0.0
C909 C 0.08742 0.5975 0.89632 0.0
C910 C 0.12939 0.68995 0.95499 0.0
C911 C 0.11691 0.61691 0.84046 0.0
H912 H 0.15379 0.74163 0.82119 0.0
H913 H 0.23711 0.68254 0.85803 0.0
H914 H 0.08374 0.6914 0.84421 0.0
H915 H 0.09007 0.71319 0.88647 0.0
H916 H 0.09726 0.73713 0.84638 0.0
H917 H 0.2287 0.64341 0.90466 0.0
H918 H 0.18994 0.64443 0.93135 0.0
H919 H 0.18798 0.61688 0.89266 0.0
H920 H 0.08739 0.63524 0.97846 0.0
H921 H 0.07769 0.57365 0.88225 0.0
H922 H 0.12753 0.71364 0.93949 0.0
H923 H 0.15802 0.68819 0.96126 0.0
H924 H 0.11555 0.69263 0.98033 0.0
H925 H 0.11157 0.63952 0.8245 0.0
H926 H 0.10106 0.59359 0.82869 0.0
H927 H 0.14559 0.61356 0.83837 0.0
C928 C 0.34196 0.15925 0.80038 0.0
C929 C 0.32335 0.1847 0.81644 0.0
C930 C 0.36321 0.13797 0.82065 0.0
C931 C 0.36702 0.14216 0.85829 0.0
C932 C 0.34891 0.16834 0.87443 0.0
C933 C 0.3274 0.18874 0.85368 0.0
C934 C 0.38109 0.11036 0.80174 0.0
C935 C 0.35203 0.17478 0.91403 0.0
C936 C 0.38984 0.06803 0.91968 0.0
C937 C 0.4264 0.07608 0.92856 0.0
C938 C 0.37095 0.08829 0.89621 0.0
C939 C 0.38827 0.11845 0.88105 0.0
C940 C 0.42538 0.12647 0.88935 0.0
C941 C 0.44389 0.10525 0.91248 0.0
C942 C 0.33194 0.07759 0.88817 0.0
C943 C 0.44545 0.15828 0.87468 0.0
H944 H 0.33937 0.15541 0.77185 0.0
H945 H 0.31371 0.20821 0.86691 0.0
H946 H 0.41018 0.11384 0.80777 0.0
H947 H 0.37082 0.08459 0.81139 0.0
H948 H 0.37655 0.11062 0.77251 0.0
H949 H 0.33829 0.19726 0.92257 0.0
H950 H 0.34035 0.15162 0.92786 0.0
H951 H 0.3805 0.17944 0.92268 0.0
H952 H 0.37562 0.04566 0.9314 0.0
H953 H 0.47188 0.11231 0.91896 0.0
H954 H 0.3266 0.07614 0.85907 0.0
H955 H 0.31582 0.09723 0.89926 0.0
H956 H 0.32284 0.05217 0.89946 0.0
H957 H 0.4418 0.15837 0.8454 0.0
H958 H 0.47441 0.16012 0.88155 0.0
H959 H 0.4346 0.18163 0.88539 0.0
C960 C 0.83463 0.30077 0.85679 0.0
C961 C 0.82156 0.30997 0.82352 0.0
C962 C 0.85032 0.32591 0.88127 0.0
C963 C 0.85273 0.36125 0.87246 0.0
C964 C 0.83839 0.3708 0.83937 0.0
C965 C 0.82327 0.34501 0.81515 0.0
C966 C 0.86543 0.31453 0.91612 0.0
C967 C 0.83993 0.40818 0.82914 0.0
C968 C 0.87524 0.42575 0.94938 0.0
C969 C 0.91225 0.4331 0.94667 0.0
C970 C 0.85522 0.40343 0.92466 0.0
C971 C 0.87264 0.38773 0.89683 0.0
C972 C 0.9098 0.39575 0.89346 0.0
C973 C 0.92904 0.41839 0.91821 0.0
C974 C 0.81557 0.39591 0.92886 0.0
C975 C 0.92954 0.37947 0.86438 0.0
H976 H 0.83331 0.27372 0.86345 0.0
H977 H 0.81342 0.35229 0.78939 0.0
H978 H 0.89469 0.32149 0.91753 0.0
H979 H 0.8541 0.3281 0.93856 0.0
H980 H 0.85993 0.28625 0.91967 0.0
H981 H 0.82461 0.41154 0.80407 0.0
H982 H 0.82926 0.42373 0.85052 0.0
H983 H 0.86804 0.41868 0.82572 0.0
H984 H 0.86193 0.43704 0.97111 0.0
H985 H 0.95759 0.42374 0.91574 0.0
H986 H 0.80919 0.36864 0.93642 0.0
H987 H 0.80119 0.39933 0.90331 0.0
H988 H 0.80544 0.41285 0.94943 0.0
H989 H 0.92742 0.35107 0.86752 0.0
H990 H 0.95821 0.38943 0.86456 0.0
H991 H 0.91738 0.38437 0.83808 0.0
C992 C 0.70463 0.82151 0.85267 0.0
C993 C 0.69815 0.81686 0.81579 0.0
C994 C 0.68284 0.84031 0.8742 0.0
C995 C 0.65317 0.85505 0.85905 0.0
C996 C 0.64613 0.85002 0.82193 0.0
C997 C 0.66853 0.83128 0.80094 0.0
C998 C 0.69209 0.84499 0.91331 0.0
C999 C 0.615 0.86486 0.80417 0.0
C1000 C 0.58282 0.88742 0.92176 0.0
C1001 C 0.59366 0.92312 0.92486 0.0
C1002 C 0.60132 0.86504 0.90023 0.0
C1003 C 0.63177 0.87824 0.88131 0.0
C1004 C 0.64251 0.91417 0.88422 0.0
C1005 C 0.62355 0.93578 0.90545 0.0
C1006 C 0.58841 0.8271 0.89793 0.0
C1007 C 0.67465 0.92998 0.86517 0.0
H1008 H 0.72708 0.81058 0.86492 0.0
H1009 H 0.66264 0.82785 0.77273 0.0
H1010 H 0.69915 0.87281 0.91987 0.0
H1011 H 0.6687 0.83604 0.92907 0.0
H1012 H 0.71478 0.83067 0.92159 0.0
H1013 H 0.61142 0.85688 0.77574 0.0
H1014 H 0.59013 0.85652 0.81798 0.0
H1015 H 0.61905 0.89347 0.80604 0.0
H1016 H 0.56003 0.87687 0.93629 0.0
H1017 H 0.63284 0.96305 0.90705 0.0
H1018 H 0.60928 0.81193 0.90895 0.0
H1019 H 0.58344 0.81874 0.86977 0.0
H1020 H 0.56359 0.82084 0.91262 0.0
H1021 H 0.6987 0.91811 0.87424 0.0
H1022 H 0.67959 0.95836 0.86976 0.0
H1023 H 0.67105 0.92468 0.83622 0.0
C1024 C 0.83226 0.69613 0.11604 0.0
C1025 C 0.84484 0.72617 0.13527 0.0
C1026 C 0.85613 0.67509 0.10151 0.0
C1027 C 0.89315 0.68422 0.10731 0.0
C1028 C 0.9059 0.71604 0.1241 0.0
C1029 C 0.88139 0.737 0.13758 0.0
C1030 C 0.84173 0.64183 0.08245 0.0
C1031 C 0.94522 0.72643 0.13076 0.0
C1032 C 0.94234 0.60523 0.11394 0.0
C1033 C 0.95585 0.60358 0.07997 0.0
C1034 C 0.92383 0.63294 0.12411 0.0
C1035 C 0.91801 0.65869 0.09918 0.0
C1036 C 0.9331 0.65798 0.06548 0.0
C1037 C 0.95228 0.63058 0.05642 0.0
C1038 C 0.90868 0.63355 0.16071 0.0
C1039 C 0.92661 0.68452 0.03799 0.0
H1040 H 0.80388 0.68807 0.11413 0.0
H1041 H 0.89101 0.76035 0.15254 0.0
H1042 H 0.85579 0.63857 0.05739 0.0
H1043 H 0.84634 0.61963 0.09936 0.0
H1044 H 0.81271 0.64086 0.07618 0.0
H1045 H 0.95079 0.75395 0.1394 0.0
H1046 H 0.95533 0.71018 0.15185 0.0
H1047 H 0.96034 0.72211 0.10661 0.0
H1048 H 0.94518 0.58433 0.13204 0.0
H1049 H 0.9622 0.62907 0.0298 0.0
H1050 H 0.87924 0.62829 0.15858 0.0
H1051 H 0.91504 0.65944 0.17353 0.0
H1052 H 0.91908 0.61397 0.17812 0.0
H1053 H 0.89829 0.68077 0.02868 0.0
H1054 H 0.94356 0.68249 0.01462 0.0
H1055 H 0.93168 0.71103 0.04957 0.0
C1056 C 0.32745 0.83952 0.17633 0.0
C1057 C 0.32654 0.80369 0.17969 0.0
C1058 C 0.34972 0.85708 0.15182 0.0
C1059 C 0.3714 0.83832 0.13014 0.0
C1060 C 0.37018 0.80215 0.13311 0.0
C1061 C 0.34782 0.78532 0.15774 0.0
C1062 C 0.35028 0.89577 0.14928 0.0
C1063 C 0.39264 0.78118 0.11035 0.0
C1064 C 0.40199 0.88289 0.04631 0.0
C1065 C 0.4359 0.89818 0.05698 0.0
C1066 C 0.38132 0.8619 0.06929 0.0
C1067 C 0.39487 0.8565 0.1039 0.0
C1068 C 0.43015 0.87007 0.11391 0.0
C1069 C 0.45028 0.89094 0.09025 0.0
C1070 C 0.34407 0.84758 0.05738 0.0
C1071 C 0.4457 0.86461 0.15043 0.0
H1072 H 0.31125 0.8539 0.19321 0.0
H1073 H 0.34723 0.75755 0.15982 0.0
H1074 H 0.37766 0.90828 0.155 0.0
H1075 H 0.34255 0.9026 0.12191 0.0
H1076 H 0.33196 0.90657 0.16802 0.0
H1077 H 0.38864 0.75317 0.11598 0.0
H1078 H 0.38607 0.78468 0.08188 0.0
H1079 H 0.42125 0.79038 0.11484 0.0
H1080 H 0.39071 0.88928 0.02079 0.0
H1081 H 0.47619 0.90361 0.09872 0.0
H1082 H 0.32443 0.86079 0.07243 0.0
H1083 H 0.33943 0.81965 0.06296 0.0
H1084 H 0.33894 0.85118 0.0286 0.0
H1085 H 0.43172 0.87906 0.17038 0.0
H1086 H 0.47462 0.87355 0.15266 0.0
H1087 H 0.44176 0.8369 0.15716 0.0
C1088 C 0.71703 0.14719 0.1845 0.0
C1089 C 0.70947 0.17607 0.20443 0.0
C1090 C 0.69043 0.12796 0.1636 0.0
C1091 C 0.65547 0.1381 0.16232 0.0
C1092 C 0.64748 0.16681 0.18307 0.0
C1093 C 0.67462 0.18546 0.204 0.0
C1094 C 0.70006 0.09746 0.14191 0.0
C1095 C 0.61062 0.17853 0.18222 0.0
C1096 C 0.60827 0.11235 0.07483 0.0
C1097 C 0.58818 0.08145 0.08312 0.0
C1098 C 0.62836 0.13229 0.10097 0.0
C1099 C 0.62874 0.12076 0.13629 0.0
C1100 C 0.60668 0.09062 0.14526 0.0
C1101 C 0.58639 0.07126 0.11841 0.0
C1102 C 0.65107 0.16443 0.09021 0.0
C1103 C 0.6064 0.07757 0.18264 0.0
H1104 H 0.74391 0.13976 0.18497 0.0
H1105 H 0.66871 0.20774 0.21955 0.0
H1106 H 0.68132 0.07428 0.14679 0.0
H1107 H 0.69776 0.10303 0.11325 0.0
H1108 H 0.72763 0.09132 0.14804 0.0
H1109 H 0.60786 0.19908 0.2025 0.0
H1110 H 0.6047 0.1887 0.15567 0.0
H1111 H 0.59035 0.15643 0.18665 0.0
H1112 H 0.60928 0.12026 0.04744 0.0
H1113 H 0.57094 0.04721 0.12464 0.0
H1114 H 0.67961 0.16002 0.09225 0.0
H1115 H 0.64729 0.18646 0.10829 0.0
H1116 H 0.64485 0.17172 0.06256 0.0
H1117 H 0.63189 0.06682 0.18879 0.0
H1118 H 0.58419 0.05704 0.18635 0.0
H1119 H 0.60414 0.09899 0.20199 0.0
C1120 C 0.70718 0.65931 0.80559 0.0
C1121 C 0.69234 0.67847 0.77908 0.0
C1122 C 0.68544 0.64029 0.82943 0.0
C1123 C 0.64798 0.641 0.82699 0.0
C1124 C 0.63287 0.65991 0.79975 0.0
C1125 C 0.65527 0.67824 0.77596 0.0
C1126 C 0.70262 0.61997 0.85765 0.0
C1127 C 0.59318 0.66174 0.79649 0.0
C1128 C 0.59028 0.57139 0.87451 0.0
C1129 C 0.58548 0.5879 0.90717 0.0
C1130 C 0.61012 0.58846 0.84794 0.0
C1131 C 0.62484 0.62314 0.85384 0.0
C1132 C 0.61857 0.64044 0.88609 0.0
C1133 C 0.59931 0.62251 0.9125 0.0
C1134 C 0.61666 0.56888 0.81422 0.0
C1135 C 0.63325 0.67759 0.8932 0.0
H1136 H 0.73576 0.65917 0.80772 0.0
H1137 H 0.64386 0.69342 0.7556 0.0
H1138 H 0.69754 0.63063 0.88429 0.0
H1139 H 0.69073 0.59266 0.85649 0.0
H1140 H 0.73188 0.6206 0.85477 0.0
H1141 H 0.58554 0.67649 0.77306 0.0
H1142 H 0.57893 0.63536 0.79437 0.0
H1143 H 0.58396 0.67429 0.8207 0.0
H1144 H 0.58017 0.54446 0.87041 0.0
H1145 H 0.59569 0.63538 0.93767 0.0
H1146 H 0.64562 0.56703 0.81191 0.0
H1147 H 0.60782 0.58292 0.79081 0.0
H1148 H 0.6026 0.54234 0.81333 0.0
H1149 H 0.66279 0.6797 0.89446 0.0
H1150 H 0.62394 0.68802 0.9185 0.0
H1151 H 0.62526 0.69397 0.87123 0.0
C1152 C 0.3724 0.64655 0.8057 0.0
C1153 C 0.36267 0.67809 0.81838 0.0
C1154 C 0.38733 0.62396 0.82874 0.0
C1155 C 0.39216 0.63327 0.86513 0.0
C1156 C 0.38357 0.66568 0.87779 0.0
C1157 C 0.36908 0.68793 0.85407 0.0
C1158 C 0.39697 0.58977 0.81438 0.0
C1159 C 0.38842 0.67625 0.91652 0.0
C1160 C 0.39665 0.55954 0.92814 0.0
C1161 C 0.43343 0.56073 0.93451 0.0
C1162 C 0.38264 0.58371 0.90618 0.0
C1163 C 0.40617 0.60897 0.88996 0.0
C1164 C 0.44325 0.61048 0.89658 0.0
C1165 C 0.45641 0.5865 0.91902 0.0
C1166 C 0.34282 0.58191 0.89985 0.0
C1167 C 0.4691 0.63677 0.8792 0.0
H1168 H 0.36736 0.6391 0.77802 0.0
H1169 H 0.36133 0.71235 0.8638 0.0
H1170 H 0.4252 0.58673 0.82134 0.0
H1171 H 0.3804 0.56828 0.82667 0.0
H1172 H 0.39302 0.58725 0.7851 0.0
H1173 H 0.38131 0.7028 0.92179 0.0
H1174 H 0.37151 0.65802 0.93271 0.0
H1175 H 0.41645 0.67499 0.9256 0.0
H1176 H 0.3789 0.5397 0.94015 0.0
H1177 H 0.48498 0.58741 0.92353 0.0
H1178 H 0.33604 0.57605 0.87141 0.0
H1179 H 0.33338 0.60727 0.90633 0.0
H1180 H 0.32816 0.56185 0.91595 0.0
H1181 H 0.46672 0.63318 0.84994 0.0
H1182 H 0.49719 0.63472 0.88776 0.0
H1183 H 0.46262 0.66328 0.88555 0.0
C1184 C 0.34889 0.34866 0.76591 0.0
C1185 C 0.32142 0.32985 0.78375 0.0
C1186 C 0.3754 0.37015 0.78455 0.0
C1187 C 0.37365 0.3737 0.82177 0.0
C1188 C 0.34511 0.35588 0.83978 0.0
C1189 C 0.31958 0.33359 0.82055 0.0
C1190 C 0.40598 0.3879 0.76464 0.0
C1191 C 0.34186 0.35987 0.87941 0.0
C1192 C 0.45369 0.39841 0.88284 0.0
C1193 C 0.44971 0.43301 0.89042 0.0
C1194 C 0.43062 0.37936 0.8582 0.0
C1195 C 0.40223 0.39515 0.84219 0.0
C1196 C 0.39951 0.43074 0.8483 0.0
C1197 C 0.42373 0.44942 0.87215 0.0
C1198 C 0.43512 0.34178 0.85127 0.0
C1199 C 0.3692 0.44832 0.83235 0.0
H1200 H 0.35059 0.34548 0.73738 0.0
H1201 H 0.29835 0.31903 0.83419 0.0
H1202 H 0.40854 0.41614 0.77017 0.0
H1203 H 0.43128 0.37835 0.77383 0.0
H1204 H 0.40272 0.3833 0.7355 0.0
H1205 H 0.31658 0.3465 0.88883 0.0
H1206 H 0.36441 0.3491 0.89325 0.0
H1207 H 0.34324 0.38764 0.88714 0.0
H1208 H 0.47356 0.38582 0.89762 0.0
H1209 H 0.42032 0.47606 0.87893 0.0
H1210 H 0.43259 0.3355 0.82243 0.0
H1211 H 0.41384 0.32536 0.86444 0.0
H1212 H 0.46132 0.33498 0.8615 0.0
H1213 H 0.36594 0.44251 0.80348 0.0
H1214 H 0.37319 0.47679 0.8366 0.0
H1215 H 0.34399 0.43832 0.84473 0.0
C1216 C 0.70986 0.38109 0.83311 0.0
C1217 C 0.69465 0.36984 0.80004 0.0
C1218 C 0.69144 0.40036 0.85646 0.0
C1219 C 0.65743 0.4093 0.84597 0.0
C1220 C 0.6427 0.39962 0.81183 0.0
C1221 C 0.66145 0.37952 0.78923 0.0
C1222 C 0.70778 0.40995 0.89286 0.0
C1223 C 0.60682 0.4096 0.79967 0.0
C1224 C 0.59787 0.42632 0.92157 0.0
C1225 C 0.60474 0.46215 0.92566 0.0
C1226 C 0.61423 0.4087 0.89496 0.0
C1227 C 0.63704 0.42772 0.87157 0.0
C1228 C 0.64288 0.46409 0.8748 0.0
C1229 C 0.62699 0.48087 0.9022 0.0
C1230 C 0.60809 0.36977 0.89262 0.0
C1231 C 0.66631 0.48521 0.84973 0.0
H1232 H 0.73564 0.37361 0.84144 0.0
H1233 H 0.64986 0.37079 0.76357 0.0
H1234 H 0.71083 0.4384 0.89684 0.0
H1235 H 0.68996 0.39895 0.91358 0.0
H1236 H 0.73428 0.40044 0.89692 0.0
H1237 H 0.60068 0.40274 0.77126 0.0
H1238 H 0.58569 0.39627 0.81578 0.0
H1239 H 0.60582 0.43778 0.8037 0.0
H1240 H 0.58037 0.41207 0.93968 0.0
H1241 H 0.63151 0.50877 0.90492 0.0
H1242 H 0.6336 0.35872 0.89791 0.0
H1243 H 0.59851 0.36112 0.8655 0.0
H1244 H 0.5884 0.35906 0.91188 0.0
H1245 H 0.69431 0.47949 0.85353 0.0
H1246 H 0.66535 0.51341 0.85392 0.0
H1247 H 0.65806 0.47823 0.82182 0.0
C1248 C 0.64202 0.33341 0.17812 0.0
C1249 C 0.67673 0.32578 0.17262 0.0
C1250 C 0.62563 0.35457 0.15449 0.0
C1251 C 0.64436 0.36708 0.12458 0.0
C1252 C 0.67829 0.35687 0.11757 0.0
C1253 C 0.69437 0.33671 0.14213 0.0
C1254 C 0.5896 0.36558 0.16291 0.0
C1255 C 0.69848 0.3689 0.08533 0.0
C1256 C 0.59367 0.41122 0.05437 0.0
C1257 C 0.60367 0.44594 0.0636 0.0
C1258 C 0.60734 0.385 0.07356 0.0
C1259 C 0.63058 0.39407 0.10306 0.0
C1260 C 0.64115 0.42918 0.11211 0.0
C1261 C 0.62789 0.45482 0.09181 0.0
C1262 C 0.59657 0.34776 0.06267 0.0
C1263 C 0.66559 0.43968 0.14381 0.0
H1264 H 0.6287 0.3247 0.20189 0.0
H1265 H 0.72115 0.3301 0.13789 0.0
H1266 H 0.59252 0.39348 0.1703 0.0
H1267 H 0.57128 0.36201 0.13931 0.0
H1268 H 0.57724 0.35094 0.18517 0.0
H1269 H 0.72207 0.35464 0.08126 0.0
H1270 H 0.68091 0.36563 0.06114 0.0
H1271 H 0.70778 0.3968 0.08853 0.0
H1272 H 0.57492 0.40464 0.03232 0.0
H1273 H 0.63514 0.48178 0.09903 0.0
H1274 H 0.58138 0.33441 0.08401 0.0
H1275 H 0.6206 0.33416 0.05875 0.0
H1276 H 0.57989 0.34528 0.0378 0.0
H1277 H 0.65408 0.42828 0.16819 0.0
H1278 H 0.67016 0.46816 0.14779 0.0
H1279 H 0.69172 0.42962 0.14044 0.0
C1280 C 0.66871 0.67185 0.23914 0.0
C1281 C 0.69558 0.69234 0.22214 0.0
C1282 C 0.64444 0.64842 0.21979 0.0
C1283 C 0.64783 0.64474 0.18274 0.0
C1284 C 0.67552 0.66477 0.16556 0.0
C1285 C 0.69878 0.68876 0.18546 0.0
C1286 C 0.61476 0.62817 0.23884 0.0
C1287 C 0.68049 0.66095 0.12616 0.0
C1288 C 0.60848 0.56412 0.13213 0.0
C1289 C 0.58075 0.57681 0.11273 0.0
C1290 C 0.6297 0.58554 0.15643 0.0
C1291 C 0.62237 0.62017 0.16168 0.0
C1292 C 0.59242 0.63211 0.1442 0.0
C1293 C 0.57227 0.61037 0.11933 0.0
C1294 C 0.6617 0.57199 0.17403 0.0
C1295 C 0.5831 0.66852 0.14993 0.0
H1296 H 0.66601 0.67477 0.26754 0.0
H1297 H 0.71955 0.7046 0.17236 0.0
H1298 H 0.58862 0.6341 0.2277 0.0
H1299 H 0.61609 0.60007 0.23471 0.0
H1300 H 0.61585 0.63408 0.26781 0.0
H1301 H 0.70449 0.67705 0.11728 0.0
H1302 H 0.68297 0.63354 0.119 0.0
H1303 H 0.65682 0.66854 0.11136 0.0
H1304 H 0.61536 0.53833 0.12618 0.0
H1305 H 0.5511 0.62015 0.1037 0.0
H1306 H 0.66275 0.57791 0.20294 0.0
H1307 H 0.68637 0.58497 0.16294 0.0
H1308 H 0.66161 0.54366 0.16988 0.0
H1309 H 0.58383 0.67537 0.17865 0.0
H1310 H 0.55631 0.67206 0.1385 0.0
H1311 H 0.60303 0.68686 0.13718 0.0
C1312 C 0.37128 0.62769 0.21339 0.0
C1313 C 0.34072 0.64138 0.20059 0.0
C1314 C 0.3896 0.60675 0.19131 0.0
C1315 C 0.37701 0.60006 0.15587 0.0
C1316 C 0.34547 0.61295 0.14335 0.0
C1317 C 0.32755 0.63329 0.16603 0.0
C1318 C 0.42284 0.59265 0.20546 0.0
C1319 C 0.33133 0.60638 0.10562 0.0
C1320 C 0.43918 0.58058 0.08362 0.0
C1321 C 0.42891 0.54541 0.07726 0.0
C1322 C 0.42325 0.59862 0.11016 0.0
C1323 C 0.39719 0.58066 0.13106 0.0
C1324 C 0.38778 0.54485 0.12563 0.0
C1325 C 0.40349 0.52768 0.0984 0.0
C1326 C 0.43337 0.63702 0.11499 0.0
C1327 C 0.36064 0.52484 0.14803 0.0
H1328 H 0.38125 0.63398 0.24024 0.0
H1329 H 0.30371 0.64376 0.15625 0.0
H1330 H 0.42121 0.56439 0.2002 0.0
H1331 H 0.44635 0.60463 0.19159 0.0
H1332 H 0.42726 0.59775 0.23442 0.0
H1333 H 0.30592 0.61773 0.10049 0.0
H1334 H 0.35125 0.61759 0.08688 0.0
H1335 H 0.32683 0.57823 0.0997 0.0
H1336 H 0.45912 0.59407 0.06738 0.0
H1337 H 0.39621 0.50022 0.094 0.0
H1338 H 0.4412 0.64351 0.14309 0.0
H1339 H 0.41003 0.65101 0.10823 0.0
H1340 H 0.45569 0.64659 0.09803 0.0
H1341 H 0.36766 0.52953 0.17662 0.0
H1342 H 0.35865 0.49661 0.14226 0.0
H1343 H 0.33405 0.53382 0.14311 0.0
C1344 C 0.32564 0.33605 0.19394 0.0
C1345 C 0.34256 0.32327 0.22368 0.0
C1346 C 0.34541 0.35577 0.16893 0.0
C1347 C 0.38302 0.36198 0.17338 0.0
C1348 C 0.4001 0.3488 0.2033 0.0
C1349 C 0.37964 0.33003 0.22824 0.0
C1350 C 0.32609 0.37 0.13781 0.0
C1351 C 0.44011 0.35401 0.20869 0.0
C1352 C 0.43665 0.38315 0.09116 0.0
C1353 C 0.44578 0.41883 0.09556 0.0
C1354 C 0.41684 0.36426 0.1166 0.0
C1355 C 0.40476 0.38167 0.14654 0.0
C1356 C 0.41408 0.41774 0.15115 0.0
C1357 C 0.43496 0.43577 0.12589 0.0
C1358 C 0.4085 0.3257 0.11119 0.0
C1359 C 0.40103 0.43749 0.18213 0.0
H1360 H 0.29697 0.33091 0.1904 0.0
H1361 H 0.39291 0.31995 0.25106 0.0
H1362 H 0.3327 0.39841 0.13702 0.0
H1363 H 0.33494 0.35892 0.11267 0.0
H1364 H 0.29672 0.36419 0.13898 0.0
H1365 H 0.44933 0.34165 0.2331 0.0
H1366 H 0.45297 0.34305 0.18558 0.0
H1367 H 0.4494 0.38198 0.21047 0.0
H1368 H 0.44477 0.37007 0.06759 0.0
H1369 H 0.44128 0.46349 0.12896 0.0
H1370 H 0.37928 0.31898 0.10819 0.0
H1371 H 0.41774 0.31215 0.13479 0.0
H1372 H 0.4212 0.31585 0.08739 0.0
H1373 H 0.37148 0.43456 0.18159 0.0
H1374 H 0.41054 0.46546 0.18184 0.0
H1375 H 0.41011 0.42683 0.20748 0.0
C1376 C 0.82468 0.68252 0.65331 0.0
C1377 C 0.81833 0.68008 0.68977 0.0
C1378 C 0.84717 0.66079 0.63612 0.0
C1379 C 0.86363 0.63539 0.65547 0.0
C1380 C 0.85666 0.63239 0.69209 0.0
C1381 C 0.83453 0.65467 0.70865 0.0
C1382 C 0.85387 0.66549 0.59721 0.0
C1383 C 0.87289 0.6057 0.71402 0.0
C1384 C 0.89856 0.56123 0.60153 0.0
C1385 C 0.93519 0.57188 0.60004 0.0
C1386 C 0.87534 0.58076 0.62047 0.0
C1387 C 0.88859 0.61253 0.63769 0.0
C1388 C 0.9258 0.62284 0.63707 0.0
C1389 C 0.94845 0.60252 0.61839 0.0
C1390 C 0.83622 0.56809 0.62063 0.0
C1391 C 0.94153 0.65642 0.65452 0.0
H1392 H 0.81274 0.70201 0.63829 0.0
H1393 H 0.82997 0.65211 0.73675 0.0
H1394 H 0.88275 0.67228 0.5934 0.0
H1395 H 0.84591 0.64093 0.58229 0.0
H1396 H 0.83907 0.68602 0.58568 0.0
H1397 H 0.86395 0.60562 0.74182 0.0
H1398 H 0.86575 0.5796 0.70193 0.0
H1399 H 0.90235 0.61073 0.71441 0.0
H1400 H 0.88773 0.53836 0.58642 0.0
H1401 H 0.97637 0.61181 0.61625 0.0
H1402 H 0.82085 0.5857 0.60507 0.0
H1403 H 0.82656 0.56829 0.64812 0.0
H1404 H 0.83051 0.54156 0.60908 0.0
H1405 H 0.93059 0.67832 0.64115 0.0
H1406 H 0.97104 0.66004 0.65337 0.0
H1407 H 0.93404 0.65748 0.6827 0.0
C1408 C 0.30895 0.81055 0.63809 0.0
C1409 C 0.32299 0.78733 0.66122 0.0
C1410 C 0.33071 0.82886 0.61394 0.0
C1411 C 0.36719 0.82364 0.61303 0.0
C1412 C 0.38025 0.79705 0.63301 0.0
C1413 C 0.35799 0.77928 0.6571 0.0
C1414 C 0.31565 0.85664 0.59261 0.0
C1415 C 0.41877 0.79008 0.632 0.0
C1416 C 0.42701 0.87862 0.55201 0.0
C1417 C 0.43886 0.90652 0.57494 0.0
C1418 C 0.4039 0.85086 0.56389 0.0
C1419 C 0.39277 0.85129 0.59942 0.0
C1420 C 0.40553 0.87904 0.62277 0.0
C1421 C 0.42833 0.90623 0.61021 0.0
C1422 C 0.39073 0.82177 0.53825 0.0
C1423 C 0.39468 0.88042 0.66104 0.0
H1424 H 0.28166 0.81635 0.64051 0.0
H1425 H 0.36876 0.76057 0.67416 0.0
H1426 H 0.32395 0.88218 0.60553 0.0
H1427 H 0.326 0.85718 0.56541 0.0
H1428 H 0.28607 0.85292 0.59081 0.0
H1429 H 0.42278 0.7643 0.64258 0.0
H1430 H 0.42848 0.79159 0.60456 0.0
H1431 H 0.43531 0.80996 0.64848 0.0
H1432 H 0.43503 0.87892 0.52465 0.0
H1433 H 0.43791 0.92747 0.62819 0.0
H1434 H 0.36272 0.82435 0.52998 0.0
H1435 H 0.39122 0.79637 0.55096 0.0
H1436 H 0.40682 0.82204 0.51405 0.0
H1437 H 0.36534 0.88024 0.66224 0.0
H1438 H 0.4073 0.90382 0.67563 0.0
H1439 H 0.40222 0.85736 0.67505 0.0
C1440 C 0.16889 0.34384 0.71902 0.0
C1441 C 0.18969 0.32233 0.69982 0.0
C1442 C 0.14743 0.36699 0.70191 0.0
C1443 C 0.14601 0.36906 0.66426 0.0
C1444 C 0.16695 0.34739 0.64477 0.0
C1445 C 0.18835 0.32469 0.66256 0.0
C1446 C 0.12614 0.38932 0.72429 0.0
C1447 C 0.16655 0.34794 0.60479 0.0
C1448 C 0.06584 0.40263 0.61385 0.0
C1449 C 0.07941 0.43578 0.60329 0.0
C1450 C 0.08652 0.38142 0.63448 0.0
C1451 C 0.12229 0.39309 0.64515 0.0
C1452 C 0.1357 0.42714 0.63565 0.0
C1453 C 0.11446 0.4477 0.61466 0.0
C1454 C 0.07052 0.3456 0.64326 0.0
C1455 C 0.17323 0.4414 0.6463 0.0
H1456 H 0.16936 0.34271 0.74771 0.0
H1457 H 0.20394 0.30846 0.64701 0.0
H1458 H 0.13359 0.41694 0.71866 0.0
H1459 H 0.09734 0.38352 0.7174 0.0
H1460 H 0.13035 0.3854 0.75315 0.0
H1461 H 0.18417 0.32981 0.59325 0.0
H1462 H 0.13902 0.34094 0.59405 0.0
H1463 H 0.17526 0.37438 0.59589 0.0
H1464 H 0.03939 0.39243 0.60429 0.0
H1465 H 0.12592 0.47262 0.6058 0.0
H1466 H 0.07376 0.34121 0.67208 0.0
H1467 H 0.08476 0.32619 0.62912 0.0
H1468 H 0.04175 0.3411 0.63559 0.0
H1469 H 0.17832 0.43783 0.67504 0.0
H1470 H 0.1786 0.46929 0.6405 0.0
H1471 H 0.19234 0.42707 0.63172 0.0
C1472 C 0.71373 0.18272 0.67696 0.0
C1473 C 0.70629 0.21699 0.67333 0.0
C1474 C 0.69508 0.1559 0.65624 0.0
C1475 C 0.66758 0.16345 0.63215 0.0
C1476 C 0.66114 0.19826 0.62727 0.0
C1477 C 0.68089 0.22463 0.64761 0.0
C1478 C 0.70357 0.1193 0.66149 0.0
C1479 C 0.63168 0.20749 0.60243 0.0
C1480 C 0.62044 0.09646 0.56647 0.0
C1481 C 0.5906 0.08402 0.58557 0.0
C1482 C 0.64652 0.12152 0.58157 0.0
C1483 C 0.64218 0.13496 0.61621 0.0
C1484 C 0.61236 0.12215 0.63565 0.0
C1485 C 0.58729 0.09672 0.62031 0.0
C1486 C 0.67827 0.13404 0.56023 0.0
C1487 C 0.60621 0.13612 0.67239 0.0
H1488 H 0.7335 0.17671 0.69663 0.0
H1489 H 0.67511 0.25112 0.64459 0.0
H1490 H 0.68218 0.10508 0.6766 0.0
H1491 H 0.70474 0.10562 0.63553 0.0
H1492 H 0.72929 0.11835 0.67634 0.0
H1493 H 0.63218 0.23583 0.59923 0.0
H1494 H 0.63368 0.19517 0.57592 0.0
H1495 H 0.60552 0.19759 0.61293 0.0
H1496 H 0.62329 0.08688 0.53964 0.0
H1497 H 0.56435 0.08757 0.63539 0.0
H1498 H 0.70324 0.13409 0.57652 0.0
H1499 H 0.67614 0.16099 0.55213 0.0
H1500 H 0.68027 0.11785 0.53593 0.0
H1501 H 0.62906 0.13228 0.6905 0.0
H1502 H 0.58154 0.12352 0.68389 0.0
H1503 H 0.60419 0.16431 0.67144 0.0
C1504 C 0.84671 0.32537 0.30809 0.0
C1505 C 0.81045 0.3243 0.31518 0.0
C1506 C 0.87235 0.34473 0.33005 0.0
C1507 C 0.86139 0.36259 0.36022 0.0
C1508 C 0.82482 0.36075 0.36796 0.0
C1509 C 0.7997 0.34192 0.34504 0.0
C1510 C 0.91107 0.34656 0.32063 0.0
C1511 C 0.81226 0.37868 0.40041 0.0
C1512 C 0.93285 0.38705 0.43157 0.0
C1513 C 0.94178 0.42217 0.42524 0.0
C1514 C 0.90585 0.36759 0.41138 0.0
C1515 C 0.88824 0.38344 0.38346 0.0
C1516 C 0.89695 0.41901 0.37714 0.0
C1517 C 0.92333 0.43811 0.3985 0.0
C1518 C 0.89648 0.33001 0.41966 0.0
C1519 C 0.8792 0.43664 0.34717 0.0
H1520 H 0.85496 0.31177 0.2849 0.0
H1521 H 0.77161 0.34078 0.35061 0.0
H1522 H 0.92183 0.37387 0.31717 0.0
H1523 H 0.92686 0.3363 0.34251 0.0
H1524 H 0.91505 0.33171 0.29587 0.0
H1525 H 0.78304 0.37343 0.40344 0.0
H1526 H 0.826 0.37015 0.42459 0.0
H1527 H 0.81915 0.40698 0.39879 0.0
H1528 H 0.94698 0.37477 0.45241 0.0
H1529 H 0.93041 0.46523 0.39343 0.0
H1530 H 0.9031 0.3135 0.39702 0.0
H1531 H 0.86743 0.32473 0.42352 0.0
H1532 H 0.91091 0.32232 0.44384 0.0
H1533 H 0.88463 0.42413 0.32149 0.0
H1534 H 0.88866 0.46458 0.34616 0.0
H1535 H 0.84991 0.43383 0.35001 0.0
C1536 C 0.71388 0.85759 0.36946 0.0
C1537 C 0.70886 0.82151 0.36792 0.0
C1538 C 0.69119 0.87623 0.38893 0.0
C1539 C 0.66355 0.85805 0.40769 0.0
C1540 C 0.66131 0.82169 0.40976 0.0
C1541 C 0.68394 0.80366 0.38939 0.0
C1542 C 0.69436 0.91506 0.38596 0.0
C1543 C 0.6329 0.80173 0.43065 0.0
C1544 C 0.60848 0.91388 0.46164 0.0
C1545 C 0.58045 0.91759 0.43749 0.0
C1546 C 0.63523 0.89319 0.45303 0.0
C1547 C 0.63369 0.87648 0.41937 0.0
C1548 C 0.60483 0.87972 0.39518 0.0
C1549 C 0.57845 0.90047 0.40461 0.0
C1550 C 0.66576 0.89043 0.47918 0.0
C1551 C 0.6027 0.86268 0.35872 0.0
H1552 H 0.7336 0.87133 0.35316 0.0
H1553 H 0.68059 0.77566 0.38857 0.0
H1554 H 0.67305 0.92225 0.36752 0.0
H1555 H 0.69086 0.92776 0.41198 0.0
H1556 H 0.7205 0.92539 0.37564 0.0
H1557 H 0.63897 0.77482 0.43512 0.0
H1558 H 0.62989 0.81465 0.45671 0.0
H1559 H 0.60696 0.80073 0.41586 0.0
H1560 H 0.61036 0.92846 0.48649 0.0
H1561 H 0.55681 0.90414 0.38597 0.0
H1562 H 0.6912 0.90107 0.46776 0.0
H1563 H 0.66816 0.86291 0.48481 0.0
H1564 H 0.66232 0.90457 0.50448 0.0
H1565 H 0.62577 0.87312 0.34323 0.0
H1566 H 0.57783 0.86691 0.34371 0.0
H1567 H 0.60398 0.83448 0.36092 0.0
C1568 C 0.20419 0.6527 0.33422 0.0
C1569 C 0.21749 0.68717 0.34115 0.0
C1570 C 0.18097 0.63504 0.35747 0.0
C1571 C 0.17175 0.65207 0.38883 0.0
C1572 C 0.18714 0.68608 0.3972 0.0
C1573 C 0.20944 0.70353 0.37285 0.0
C1574 C 0.16438 0.59909 0.34716 0.0
C1575 C 0.17878 0.70457 0.43099 0.0
C1576 C 0.07932 0.62435 0.41977 0.0
C1577 C 0.08602 0.59934 0.4445 0.0
C1578 C 0.10721 0.6423 0.40205 0.0
C1579 C 0.14267 0.63578 0.41021 0.0
C1580 C 0.14972 0.61178 0.43655 0.0
C1581 C 0.12111 0.59325 0.45298 0.0
C1582 C 0.09851 0.66704 0.37346 0.0
C1583 C 0.18731 0.60517 0.44676 0.0
H1584 H 0.21027 0.64009 0.30959 0.0
H1585 H 0.22011 0.7301 0.37835 0.0
H1586 H 0.16786 0.58107 0.36906 0.0
H1587 H 0.13532 0.59947 0.34213 0.0
H1588 H 0.17601 0.58882 0.32294 0.0
H1589 H 0.19759 0.72809 0.4365 0.0
H1590 H 0.15143 0.71242 0.4288 0.0
H1591 H 0.17976 0.68721 0.4539 0.0
H1592 H 0.05208 0.62885 0.41316 0.0
H1593 H 0.12613 0.57412 0.4725 0.0
H1594 H 0.10797 0.65816 0.34761 0.0
H1595 H 0.11246 0.69309 0.37943 0.0
H1596 H 0.06948 0.66929 0.37064 0.0
H1597 H 0.19887 0.59117 0.42477 0.0
H1598 H 0.1884 0.58952 0.471 0.0
H1599 H 0.2043 0.62996 0.4514 0.0
C1600 C 0.30908 0.15853 0.37133 0.0
C1601 C 0.32392 0.19302 0.371 0.0
C1602 C 0.32781 0.13322 0.3868 0.0
C1603 C 0.36213 0.14286 0.40207 0.0
C1604 C 0.37577 0.17819 0.40457 0.0
C1605 C 0.35632 0.20299 0.38902 0.0
C1606 C 0.31219 0.09593 0.38394 0.0
C1607 C 0.4123 0.18969 0.42055 0.0
C1608 C 0.41106 0.08057 0.45574 0.0
C1609 C 0.4352 0.07023 0.43102 0.0
C1610 C 0.3863 0.10347 0.44648 0.0
C1611 C 0.38543 0.11597 0.4116 0.0
C1612 C 0.40843 0.10431 0.38605 0.0
C1613 C 0.43309 0.08156 0.39608 0.0
C1614 C 0.36183 0.11499 0.47425 0.0
C1615 C 0.40798 0.11694 0.34845 0.0
H1616 H 0.28373 0.15097 0.3576 0.0
H1617 H 0.36779 0.22969 0.38865 0.0
H1618 H 0.32645 0.08223 0.3636 0.0
H1619 H 0.31564 0.0828 0.40942 0.0
H1620 H 0.2834 0.09338 0.37621 0.0
H1621 H 0.41406 0.21678 0.43077 0.0
H1622 H 0.41949 0.17287 0.44238 0.0
H1623 H 0.4323 0.18836 0.39973 0.0
H1624 H 0.41222 0.07171 0.48277 0.0
H1625 H 0.45148 0.07358 0.3768 0.0
H1626 H 0.33411 0.10389 0.46769 0.0
H1627 H 0.36207 0.14349 0.47461 0.0
H1628 H 0.36928 0.10668 0.50122 0.0
H1629 H 0.38055 0.11289 0.33666 0.0
H1630 H 0.4259 0.10363 0.33125 0.0
H1631 H 0.4165 0.14509 0.34847 0.0
C1632 C 0.64049 0.80549 0.64613 0.0
C1633 C 0.6774 0.80685 0.64273 0.0
C1634 C 0.62141 0.83099 0.63149 0.0
C1635 C 0.63982 0.85824 0.61296 0.0
C1636 C 0.67682 0.85867 0.60787 0.0
C1637 C 0.69521 0.83281 0.6228 0.0
C1638 C 0.58192 0.82974 0.63747 0.0
C1639 C 0.69716 0.88706 0.58778 0.0
C1640 C 0.58354 0.91071 0.55513 0.0
C1641 C 0.58003 0.93929 0.57738 0.0
C1642 C 0.60368 0.88445 0.56601 0.0
C1643 C 0.6205 0.88691 0.60006 0.0
C1644 C 0.61738 0.91596 0.62255 0.0
C1645 C 0.59683 0.9418 0.61098 0.0
C1646 C 0.6055 0.85335 0.54181 0.0
C1647 C 0.63491 0.91925 0.65913 0.0
H1648 H 0.62677 0.78542 0.66169 0.0
H1649 H 0.72376 0.83374 0.62014 0.0
H1650 H 0.57665 0.85204 0.65457 0.0
H1651 H 0.56707 0.83183 0.61193 0.0
H1652 H 0.57127 0.8056 0.65038 0.0
H1653 H 0.72591 0.88361 0.58628 0.0
H1654 H 0.68571 0.88772 0.56046 0.0
H1655 H 0.69456 0.91248 0.60071 0.0
H1656 H 0.56912 0.9081 0.52979 0.0
H1657 H 0.59358 0.96375 0.62826 0.0
H1658 H 0.58993 0.83057 0.55295 0.0
H1659 H 0.63337 0.84711 0.53993 0.0
H1660 H 0.59459 0.8573 0.5147 0.0
H1661 H 0.62362 0.89786 0.67575 0.0
H1662 H 0.63118 0.94417 0.67263 0.0
H1663 H 0.66387 0.9171 0.65745 0.0
C1664 C 0.66049 0.23604 0.34614 0.0
C1665 C 0.69681 0.23137 0.34783 0.0
C1666 C 0.63692 0.2193 0.36981 0.0
C1667 C 0.65012 0.19732 0.39532 0.0
C1668 C 0.68728 0.19669 0.4004 0.0
C1669 C 0.71029 0.21374 0.37648 0.0
C1670 C 0.59751 0.22171 0.3646 0.0
C1671 C 0.70245 0.17442 0.42811 0.0
C1672 C 0.58774 0.14191 0.45374 0.0
C1673 C 0.5822 0.11127 0.43316 0.0
C1674 C 0.60938 0.1707 0.4418 0.0
C1675 C 0.62585 0.16846 0.40872 0.0
C1676 C 0.61992 0.13772 0.38777 0.0
C1677 C 0.59822 0.10966 0.40022 0.0
C1678 C 0.61519 0.2029 0.46503 0.0
C1679 C 0.63679 0.13416 0.35216 0.0
H1680 H 0.64993 0.2505 0.32472 0.0
H1681 H 0.73852 0.21095 0.37874 0.0
H1682 H 0.58526 0.19865 0.34926 0.0
H1683 H 0.58436 0.22221 0.3905 0.0
H1684 H 0.59217 0.24509 0.34976 0.0
H1685 H 0.73137 0.18185 0.4333 0.0
H1686 H 0.68839 0.1762 0.45336 0.0
H1687 H 0.69871 0.14705 0.41873 0.0
H1688 H 0.57559 0.14331 0.47933 0.0
H1689 H 0.59381 0.08632 0.38387 0.0
H1690 H 0.61735 0.22659 0.44903 0.0
H1691 H 0.64044 0.20263 0.48077 0.0
H1692 H 0.59332 0.20424 0.48389 0.0
H1693 H 0.62855 0.15416 0.33403 0.0
H1694 H 0.6293 0.10843 0.33927 0.0
H1695 H 0.66623 0.1381 0.35543 0.0
C1696 C 0.84837 0.66947 0.28294 0.0
C1697 C 0.83151 0.69408 0.30244 0.0
C1698 C 0.87012 0.64633 0.29965 0.0
C1699 C 0.87603 0.64752 0.33713 0.0
C1700 C 0.85924 0.67244 0.35689 0.0
C1701 C 0.83731 0.69498 0.33956 0.0
C1702 C 0.88672 0.62038 0.27702 0.0
C1703 C 0.86465 0.67554 0.39666 0.0
C1704 C 0.9058 0.57039 0.39023 0.0
C1705 C 0.94249 0.57963 0.39676 0.0
C1706 C 0.88447 0.59111 0.36964 0.0
C1707 C 0.8995 0.62293 0.35575 0.0
C1708 C 0.93679 0.63191 0.36154 0.0
C1709 C 0.95758 0.61037 0.38174 0.0
C1710 C 0.84529 0.57959 0.36415 0.0
C1711 C 0.95454 0.66543 0.3481 0.0
H1712 H 0.84445 0.66809 0.25435 0.0
H1713 H 0.82493 0.71372 0.35529 0.0
H1714 H 0.91614 0.62417 0.2806 0.0
H1715 H 0.87784 0.59384 0.28555 0.0
H1716 H 0.8797 0.62238 0.24837 0.0
H1717 H 0.85057 0.69648 0.40837 0.0
H1718 H 0.8549 0.65082 0.40892 0.0
H1719 H 0.89349 0.68075 0.40367 0.0
H1720 H 0.89335 0.54748 0.40256 0.0
H1721 H 0.98546 0.61874 0.38762 0.0
H1722 H 0.83728 0.58103 0.33572 0.0
H1723 H 0.8296 0.59712 0.37924 0.0
H1724 H 0.83823 0.55279 0.37304 0.0
H1725 H 0.94823 0.66777 0.3194 0.0
H1726 H 0.98394 0.66771 0.35228 0.0
H1727 H 0.94411 0.6874 0.3621 0.0
C1728 C 0.31663 0.82356 0.33258 0.0
C1729 C 0.32918 0.79096 0.33233 0.0
C1730 C 0.3332 0.85075 0.35426 0.0
C1731 C 0.36385 0.84552 0.37523 0.0
C1732 C 0.37571 0.81218 0.37613 0.0
C1733 C 0.35791 0.78519 0.35504 0.0
C1734 C 0.31897 0.88552 0.35327 0.0
C1735 C 0.40872 0.80556 0.3974 0.0
C1736 C 0.43552 0.92103 0.38643 0.0
C1737 C 0.43376 0.93033 0.42247 0.0
C1738 C 0.41266 0.89387 0.37092 0.0
C1739 C 0.38659 0.87571 0.39161 0.0
C1740 C 0.38354 0.88571 0.42768 0.0
C1741 C 0.40736 0.91277 0.44279 0.0
C1742 C 0.41739 0.88382 0.33256 0.0
C1743 C 0.35563 0.86743 0.45043 0.0
H1744 H 0.29426 0.82804 0.31529 0.0
H1745 H 0.36767 0.75999 0.35499 0.0
H1746 H 0.31834 0.89683 0.38045 0.0
H1747 H 0.33679 0.90348 0.33767 0.0
H1748 H 0.29174 0.88381 0.34093 0.0
H1749 H 0.41244 0.77766 0.39804 0.0
H1750 H 0.43246 0.81952 0.38552 0.0
H1751 H 0.40754 0.81551 0.42503 0.0
H1752 H 0.45568 0.93428 0.3703 0.0
H1753 H 0.40573 0.91964 0.47063 0.0
H1754 H 0.39236 0.88565 0.31691 0.0
H1755 H 0.42349 0.8566 0.33063 0.0
H1756 H 0.43916 0.90041 0.32022 0.0
H1757 H 0.32891 0.86723 0.43733 0.0
H1758 H 0.35516 0.87975 0.47721 0.0
H1759 H 0.36082 0.84014 0.4536 0.0
C1760 C 0.19172 0.36133 0.29309 0.0
C1761 C 0.21104 0.33921 0.31348 0.0
C1762 C 0.16899 0.3837 0.30875 0.0
C1763 C 0.16471 0.38423 0.34603 0.0
C1764 C 0.18455 0.36238 0.36685 0.0
C1765 C 0.20738 0.34044 0.3505 0.0
C1766 C 0.14897 0.4064 0.28516 0.0
C1767 C 0.18091 0.36146 0.40654 0.0
C1768 C 0.12528 0.45898 0.39545 0.0
C1769 C 0.08989 0.44523 0.40036 0.0
C1770 C 0.14939 0.44023 0.37666 0.0
C1771 C 0.13843 0.4063 0.36304 0.0
C1772 C 0.10236 0.39285 0.36706 0.0
C1773 C 0.07881 0.4123 0.38554 0.0
C1774 C 0.18716 0.45619 0.37287 0.0
C1775 C 0.089 0.35696 0.35355 0.0
H1776 H 0.19396 0.36094 0.26451 0.0
H1777 H 0.22167 0.32351 0.36678 0.0
H1778 H 0.1199 0.39907 0.28683 0.0
H1779 H 0.15434 0.43376 0.29431 0.0
H1780 H 0.15631 0.4044 0.25695 0.0
H1781 H 0.19871 0.34401 0.41928 0.0
H1782 H 0.18718 0.38779 0.41834 0.0
H1783 H 0.15298 0.35259 0.41286 0.0
H1784 H 0.13465 0.48375 0.40783 0.0
H1785 H 0.05201 0.4008 0.39026 0.0
H1786 H 0.19517 0.45396 0.34492 0.0
H1787 H 0.20544 0.44207 0.3893 0.0
H1788 H 0.19068 0.48386 0.38132 0.0
H1789 H 0.09484 0.35397 0.32508 0.0
H1790 H 0.05989 0.35091 0.35677 0.0
H1791 H 0.10307 0.33772 0.36819 0.0
C1792 C 0.36875 0.2283 0.63792 0.0
C1793 C 0.33221 0.21758 0.63767 0.0
C1794 C 0.39175 0.20944 0.61906 0.0
C1795 C 0.37742 0.17984 0.59911 0.0
C1796 C 0.34009 0.1718 0.59506 0.0
C1797 C 0.31776 0.19066 0.61488 0.0
C1798 C 0.43142 0.21864 0.6244 0.0
C1799 C 0.32397 0.14111 0.57285 0.0
C1800 C 0.4398 0.12863 0.54831 0.0
C1801 C 0.44521 0.10255 0.57243 0.0
C1802 C 0.41764 0.15417 0.55646 0.0
C1803 C 0.40096 0.15351 0.58946 0.0
C1804 C 0.40676 0.12755 0.61407 0.0
C1805 C 0.42869 0.10226 0.60513 0.0
C1806 C 0.41214 0.1818 0.52997 0.0
C1807 C 0.38984 0.12644 0.64993 0.0
H1808 H 0.37979 0.24947 0.65535 0.0
H1809 H 0.28932 0.18289 0.61431 0.0
H1810 H 0.44167 0.20164 0.64473 0.0
H1811 H 0.44566 0.21461 0.59965 0.0
H1812 H 0.43793 0.24587 0.63373 0.0
H1813 H 0.29488 0.14166 0.56799 0.0
H1814 H 0.33707 0.14033 0.54697 0.0
H1815 H 0.32828 0.11695 0.58669 0.0
H1816 H 0.45238 0.12878 0.52285 0.0
H1817 H 0.43308 0.08235 0.62397 0.0
H1818 H 0.42322 0.2074 0.54103 0.0
H1819 H 0.38329 0.18309 0.52455 0.0
H1820 H 0.42523 0.17723 0.50464 0.0
H1821 H 0.39713 0.15121 0.66471 0.0
H1822 H 0.39814 0.10513 0.66635 0.0
H1823 H 0.3604 0.12297 0.64645 0.0
C1824 C 0.85704 0.31161 0.66133 0.0
C1825 C 0.82098 0.31608 0.664 0.0
C1826 C 0.87826 0.33098 0.63758 0.0
C1827 C 0.86249 0.35424 0.61511 0.0
C1828 C 0.8255 0.35711 0.61617 0.0
C1829 C 0.80524 0.33851 0.64132 0.0
C1830 C 0.91783 0.32795 0.63797 0.0
C1831 C 0.80757 0.38048 0.59148 0.0
C1832 C 0.92431 0.43103 0.58794 0.0
C1833 C 0.93679 0.41875 0.55608 0.0
C1834 C 0.89925 0.41056 0.60703 0.0
C1835 C 0.88547 0.37768 0.59303 0.0
C1836 C 0.89621 0.36626 0.55954 0.0
C1837 C 0.92253 0.38667 0.5418 0.0
C1838 C 0.88925 0.42324 0.64312 0.0
C1839 C 0.88091 0.33207 0.54306 0.0
H1840 H 0.86906 0.2943 0.67916 0.0
H1841 H 0.77714 0.34151 0.64331 0.0
H1842 H 0.92626 0.32109 0.61108 0.0
H1843 H 0.93263 0.35322 0.64582 0.0
H1844 H 0.92568 0.30819 0.65667 0.0
H1845 H 0.77807 0.37601 0.59223 0.0
H1846 H 0.81591 0.40785 0.59905 0.0
H1847 H 0.81576 0.37643 0.56382 0.0
H1848 H 0.93572 0.45582 0.59896 0.0
H1849 H 0.93221 0.37747 0.51695 0.0
H1850 H 0.89792 0.4057 0.66376 0.0
H1851 H 0.85995 0.42293 0.64449 0.0
H1852 H 0.90165 0.44984 0.64962 0.0
H1853 H 0.89216 0.31073 0.55709 0.0
H1854 H 0.88709 0.33001 0.51453 0.0
H1855 H 0.85158 0.32839 0.54566 0.0
C1856 C 0.22468 0.6718 0.65551 0.0
C1857 C 0.21487 0.68579 0.6878 0.0
C1858 C 0.19897 0.65502 0.63176 0.0
C1859 C 0.16275 0.65157 0.641 0.0
C1860 C 0.15269 0.66602 0.67347 0.0
C1861 C 0.17891 0.68336 0.69636 0.0
C1862 C 0.21058 0.64068 0.59699 0.0
C1863 C 0.11437 0.66242 0.68442 0.0
C1864 C 0.08972 0.63037 0.57032 0.0
C1865 C 0.08225 0.5946 0.57379 0.0
C1866 C 0.11643 0.64919 0.5915 0.0
C1867 C 0.13553 0.63187 0.61722 0.0
C1868 C 0.12833 0.59568 0.62059 0.0
C1869 C 0.10201 0.57741 0.59855 0.0
C1870 C 0.12403 0.68762 0.58655 0.0
C1871 C 0.14782 0.57637 0.64806 0.0
H1872 H 0.25253 0.67403 0.64879 0.0
H1873 H 0.17137 0.69422 0.72138 0.0
H1874 H 0.20487 0.61215 0.59616 0.0
H1875 H 0.19531 0.65068 0.57457 0.0
H1876 H 0.23946 0.6474 0.5929 0.0
H1877 H 0.11097 0.67538 0.71042 0.0
H1878 H 0.0974 0.67363 0.66413 0.0
H1879 H 0.10452 0.63467 0.68623 0.0
H1880 H 0.0747 0.64366 0.55094 0.0
H1881 H 0.09615 0.54978 0.60149 0.0
H1882 H 0.15269 0.69432 0.58148 0.0
H1883 H 0.11815 0.70175 0.61114 0.0
H1884 H 0.108 0.69686 0.5642 0.0
H1885 H 0.17692 0.5803 0.64407 0.0
H1886 H 0.13919 0.5482 0.64707 0.0
H1887 H 0.14314 0.58666 0.67497 0.0
loop_
_geom_bond_atom_site_label_1
_geom_bond_atom_site_label_2
_geom_bond_distance
_geom_bond_site_symmetry_2
_ccdc_geom_bond_type
Dy0 O4 2.398 . S
Dy0 O5 2.491 . S
Dy0 O6 2.403 . S
Dy0 O7 2.664 . S
Dy0 O11 2.326 . S
Dy0 O15 2.310 . S
Dy0 O16 2.351 . S
C1 O12 1.185 . S
C1 O13 1.355 . S
C2 O4 1.185 . S
C2 O5 1.355 . S
Dy3 O7 2.310 . S
Dy3 O10 2.351 . S
Dy3 O12 2.398 . S
Dy3 O13 2.491 . S
Dy3 O14 2.403 . S
Dy3 O15 2.664 . S
Dy3 O17 2.326 . S
O4 Dy0 2.398 . S
O4 C2 1.185 . S
O5 Dy0 2.491 . S
O5 C2 1.355 . S
O6 Dy0 2.403 . S
O6 C8 1.254 . S
O7 Dy0 2.664 . S
O7 Dy3 2.310 . S
O7 C8 1.268 . S
C8 O6 1.254 . S
C8 O7 1.268 . S
C9 O14 1.254 . S
C9 O15 1.268 . S
O10 Dy3 2.351 . S
O10 C18 1.249 . S
O11 Dy0 2.326 . S
O11 C18 1.267 . S
O12 C1 1.185 . S
O12 Dy3 2.398 . S
O13 C1 1.355 . S
O13 Dy3 2.491 . S
O14 Dy3 2.403 . S
O14 C9 1.254 . S
O15 Dy0 2.310 . S
O15 Dy3 2.664 . S
O15 C9 1.268 . S
O16 Dy0 2.351 . S
O16 C19 1.249 . S
O17 Dy3 2.326 . S
O17 C19 1.267 . S
C18 O10 1.249 . S
C18 O11 1.267 . S
C19 O16 1.249 . S
C19 O17 1.267 . S
Dy20 O24 2.398 . S
Dy20 O25 2.491 . S
Dy20 O26 2.403 . S
Dy20 O27 2.664 . S
Dy20 O31 2.326 . S
Dy20 O35 2.310 . S
Dy20 O36 2.351 . S
C21 O32 1.185 . S
C21 O33 1.355 . S
C22 O24 1.185 . S
C22 O25 1.355 . S
Dy23 O27 2.310 . S
Dy23 O30 2.351 . S
Dy23 O32 2.398 . S
Dy23 O33 2.491 . S
Dy23 O34 2.403 . S
Dy23 O35 2.664 . S
Dy23 O37 2.326 . S
O24 Dy20 2.398 . S
O24 C22 1.185 . S
O25 Dy20 2.491 . S
O25 C22 1.355 . S
O26 Dy20 2.403 . S
O26 C28 1.254 . S
O27 Dy20 2.664 . S
O27 Dy23 2.310 . S
O27 C28 1.268 . S
C28 O26 1.254 . S
C28 O27 1.268 . S
C29 O34 1.254 . S
C29 O35 1.268 . S
O30 Dy23 2.351 . S
O30 C38 1.249 . S
O31 Dy20 2.326 . S
O31 C38 1.267 . S
O32 C21 1.185 . S
O32 Dy23 2.398 . S
O33 C21 1.355 . S
O33 Dy23 2.491 . S
O34 Dy23 2.403 . S
O34 C29 1.254 . S
O35 Dy20 2.310 . S
O35 Dy23 2.664 . S
O35 C29 1.268 . S
O36 Dy20 2.351 . S
O36 C39 1.249 . S
O37 Dy23 2.326 . S
O37 C39 1.267 . S
C38 O30 1.249 . S
C38 O31 1.267 . S
C39 O36 1.249 . S
C39 O37 1.267 . S
Dy40 O44 2.398 . S
Dy40 O45 2.491 . S
Dy40 O46 2.403 . S
Dy40 O47 2.664 . S
Dy40 O51 2.326 . S
Dy40 O55 2.310 . S
Dy40 O56 2.351 . S
C41 O52 1.185 . S
C41 O53 1.355 . S
C42 O44 1.185 . S
C42 O45 1.355 . S
Dy43 O47 2.310 . S
Dy43 O50 2.351 . S
Dy43 O52 2.398 . S
Dy43 O53 2.491 . S
Dy43 O54 2.403 . S
Dy43 O55 2.664 . S
Dy43 O57 2.326 . S
O44 Dy40 2.398 . S
O44 C42 1.185 . S
O45 Dy40 2.491 . S
O45 C42 1.355 . S
O46 Dy40 2.403 . S
O46 C48 1.254 . S
O47 Dy40 2.664 . S
O47 Dy43 2.310 . S
O47 C48 1.268 . S
C48 O46 1.254 . S
C48 O47 1.268 . S
C49 O54 1.254 . S
C49 O55 1.268 . S
O50 Dy43 2.351 . S
O50 C58 1.249 . S
O51 Dy40 2.326 . S
O51 C58 1.267 . S
O52 C41 1.185 . S
O52 Dy43 2.398 . S
O53 C41 1.355 . S
O53 Dy43 2.491 . S
O54 Dy43 2.403 . S
O54 C49 1.254 . S
O55 Dy40 2.310 . S
O55 Dy43 2.664 . S
O55 C49 1.268 . S
O56 Dy40 2.351 . S
O56 C59 1.249 . S
O57 Dy43 2.326 . S
O57 C59 1.267 . S
C58 O50 1.249 . S
C58 O51 1.267 . S
C59 O56 1.249 . S
C59 O57 1.267 . S
Dy60 O64 2.398 . S
Dy60 O65 2.491 . S
Dy60 O66 2.403 . S
Dy60 O67 2.664 . S
Dy60 O71 2.326 . S
Dy60 O75 2.310 . S
Dy60 O76 2.351 . S
C61 O72 1.185 . S
C61 O73 1.355 . S
C62 O64 1.185 . S
C62 O65 1.355 . S
Dy63 O67 2.310 . S
Dy63 O70 2.351 . S
Dy63 O72 2.398 . S
Dy63 O73 2.491 . S
Dy63 O74 2.403 . S
Dy63 O75 2.664 . S
Dy63 O77 2.326 . S
O64 Dy60 2.398 . S
O64 C62 1.185 . S
O65 Dy60 2.491 . S
O65 C62 1.355 . S
O66 Dy60 2.403 . S
O66 C68 1.254 . S
O67 Dy60 2.664 . S
O67 Dy63 2.310 . S
O67 C68 1.268 . S
C68 O66 1.254 . S
C68 O67 1.268 . S
C69 O74 1.254 . S
C69 O75 1.268 . S
O70 Dy63 2.351 . S
O70 C78 1.249 . S
O71 Dy60 2.326 . S
O71 C78 1.267 . S
O72 C61 1.185 . S
O72 Dy63 2.398 . S
O73 C61 1.355 . S
O73 Dy63 2.491 . S
O74 Dy63 2.403 . S
O74 C69 1.254 . S
O75 Dy60 2.310 . S
O75 Dy63 2.664 . S
O75 C69 1.268 . S
O76 Dy60 2.351 . S
O76 C79 1.249 . S
O77 Dy63 2.326 . S
O77 C79 1.267 . S
C78 O70 1.249 . S
C78 O71 1.267 . S
C79 O76 1.249 . S
C79 O77 1.267 . S
Dy80 O84 2.398 . S
Dy80 O85 2.491 . S
Dy80 O86 2.403 . S
Dy80 O87 2.664 . S
Dy80 O91 2.326 . S
Dy80 O95 2.310 . S
Dy80 O96 2.351 . S
C81 O92 1.185 . S
C81 O93 1.355 . S
C82 O84 1.185 . S
C82 O85 1.355 . S
Dy83 O87 2.310 . S
Dy83 O90 2.351 . S
Dy83 O92 2.398 . S
Dy83 O93 2.491 . S
Dy83 O94 2.403 . S
Dy83 O95 2.664 . S
Dy83 O97 2.326 . S
O84 Dy80 2.398 . S
O84 C82 1.185 . S
O85 Dy80 2.491 . S
O85 C82 1.355 . S
O86 Dy80 2.403 . S
O86 C88 1.254 . S
O87 Dy80 2.664 . S
O87 Dy83 2.310 . S
O87 C88 1.268 . S
C88 O86 1.254 . S
C88 O87 1.268 . S
C89 O94 1.254 . S
C89 O95 1.268 . S
O90 Dy83 2.351 . S
O90 C98 1.249 . S
O91 Dy80 2.326 . S
O91 C98 1.267 . S
O92 C81 1.185 . S
O92 Dy83 2.398 . S
O93 C81 1.355 . S
O93 Dy83 2.491 . S
O94 Dy83 2.403 . S
O94 C89 1.254 . S
O95 Dy80 2.310 . S
O95 Dy83 2.664 . S
O95 C89 1.268 . S
O96 Dy80 2.351 . S
O96 C99 1.249 . S
O97 Dy83 2.326 . S
O97 C99 1.267 . S
C98 O90 1.249 . S
C98 O91 1.267 . S
C99 O96 1.249 . S
C99 O97 1.267 . S
Dy100 O104 2.398 . S
Dy100 O105 2.491 . S
Dy100 O106 2.403 . S
Dy100 O107 2.664 . S
Dy100 O111 2.326 . S
Dy100 O115 2.310 . S
Dy100 O116 2.351 . S
C101 O112 1.185 . S
C101 O113 1.355 . S
C102 O104 1.185 . S
C102 O105 1.355 . S
Dy103 O107 2.310 . S
Dy103 O110 2.351 . S
Dy103 O112 2.398 . S
Dy103 O113 2.491 . S
Dy103 O114 2.403 . S
Dy103 O115 2.664 . S
Dy103 O117 2.326 . S
O104 Dy100 2.398 . S
O104 C102 1.185 . S
O105 Dy100 2.491 . S
O105 C102 1.355 . S
O106 Dy100 2.403 . S
O106 C108 1.254 . S
O107 Dy100 2.664 . S
O107 Dy103 2.310 . S
O107 C108 1.268 . S
C108 O106 1.254 . S
C108 O107 1.268 . S
C109 O114 1.254 . S
C109 O115 1.268 . S
O110 Dy103 2.351 . S
O110 C118 1.249 . S
O111 Dy100 2.326 . S
O111 C118 1.267 . S
O112 C101 1.185 . S
O112 Dy103 2.398 . S
O113 C101 1.355 . S
O113 Dy103 2.491 . S
O114 Dy103 2.403 . S
O114 C109 1.254 . S
O115 Dy100 2.310 . S
O115 Dy103 2.664 . S
O115 C109 1.268 . S
O116 Dy100 2.351 . S
O116 C119 1.249 . S
O117 Dy103 2.326 . S
O117 C119 1.267 . S
C118 O110 1.249 . S
C118 O111 1.267 . S
C119 O116 1.249 . S
C119 O117 1.267 . S
Dy120 O124 2.398 . S
Dy120 O125 2.491 . S
Dy120 O126 2.403 . S
Dy120 O127 2.664 . S
Dy120 O131 2.326 . S
Dy120 O135 2.310 . S
Dy120 O136 2.351 . S
C121 O132 1.185 . S
C121 O133 1.355 . S
C122 O124 1.185 . S
C122 O125 1.355 . S
Dy123 O127 2.310 . S
Dy123 O130 2.351 . S
Dy123 O132 2.398 . S
Dy123 O133 2.491 . S
Dy123 O134 2.403 . S
Dy123 O135 2.664 . S
Dy123 O137 2.326 . S
O124 Dy120 2.398 . S
O124 C122 1.185 . S
O125 Dy120 2.491 . S
O125 C122 1.355 . S
O126 Dy120 2.403 . S
O126 C128 1.254 . S
O127 Dy120 2.664 . S
O127 Dy123 2.310 . S
O127 C128 1.268 . S
C128 O126 1.254 . S
C128 O127 1.268 . S
C129 O134 1.254 . S
C129 O135 1.268 . S
O130 Dy123 2.351 . S
O130 C138 1.249 . S
O131 Dy120 2.326 . S
O131 C138 1.267 . S
O132 C121 1.185 . S
O132 Dy123 2.398 . S
O133 C121 1.355 . S
O133 Dy123 2.491 . S
O134 Dy123 2.403 . S
O134 C129 1.254 . S
O135 Dy120 2.310 . S
O135 Dy123 2.664 . S
O135 C129 1.268 . S
O136 Dy120 2.351 . S
O136 C139 1.249 . S
O137 Dy123 2.326 . S
O137 C139 1.267 . S
C138 O130 1.249 . S
C138 O131 1.267 . S
C139 O136 1.249 . S
C139 O137 1.267 . S
Dy140 O144 2.398 . S
Dy140 O145 2.491 . S
Dy140 O146 2.403 . S
Dy140 O147 2.664 . S
Dy140 O151 2.326 . S
Dy140 O155 2.310 . S
Dy140 O156 2.351 . S
C141 O152 1.185 . S
C141 O153 1.355 . S
C142 O144 1.185 . S
C142 O145 1.355 . S
Dy143 O147 2.310 . S
Dy143 O150 2.351 . S
Dy143 O152 2.398 . S
Dy143 O153 2.491 . S
Dy143 O154 2.403 . S
Dy143 O155 2.664 . S
Dy143 O157 2.326 . S
O144 Dy140 2.398 . S
O144 C142 1.185 . S
O145 Dy140 2.491 . S
O145 C142 1.355 . S
O146 Dy140 2.403 . S
O146 C148 1.254 . S
O147 Dy140 2.664 . S
O147 Dy143 2.310 . S
O147 C148 1.268 . S
C148 O146 1.254 . S
C148 O147 1.268 . S
C149 O154 1.254 . S
C149 O155 1.268 . S
O150 Dy143 2.351 . S
O150 C158 1.249 . S
O151 Dy140 2.326 . S
O151 C158 1.267 . S
O152 C141 1.185 . S
O152 Dy143 2.398 . S
O153 C141 1.355 . S
O153 Dy143 2.491 . S
O154 Dy143 2.403 . S
O154 C149 1.254 . S
O155 Dy140 2.310 . S
O155 Dy143 2.664 . S
O155 C149 1.268 . S
O156 Dy140 2.351 . S
O156 C159 1.249 . S
O157 Dy143 2.326 . S
O157 C159 1.267 . S
C158 O150 1.249 . S
C158 O151 1.267 . S
C159 O156 1.249 . S
C159 O157 1.267 . S
Fe160 O161 1.886 1_455 S
Fe160 O164 1.715 . S
Fe160 O169 2.077 1_455 S
Fe160 O174 1.935 . S
Fe160 O180 2.077 1_455 S
Fe160 O189 1.935 . S
O161 Fe160 1.886 1_655 S
O161 Fe163 1.715 1_545 S
Fe162 O164 1.886 . S
Fe162 O165 1.715 1_545 S
Fe162 O172 1.935 1_545 S
Fe162 O173 2.077 . S
Fe162 O179 1.935 1_545 S
Fe162 O188 2.077 . S
Fe163 O161 1.715 1_565 S
Fe163 O166 1.886 . S
Fe163 O170 1.935 1_565 S
Fe163 O175 2.077 . S
Fe163 O181 1.935 1_565 S
Fe163 O185 2.077 . S
O164 Fe160 1.715 . S
O164 Fe162 1.886 . S
O165 Fe162 1.715 1_565 S
O165 Fe167 1.886 1_455 S
O166 Fe163 1.886 . S
O166 Fe167 1.715 . S
Fe167 O165 1.886 1_655 S
Fe167 O166 1.715 . S
Fe167 O171 2.077 1_655 S
Fe167 O176 1.935 . S
Fe167 O178 2.077 1_655 S
Fe167 O186 1.935 . S
C168 O180 1.381 . S
C168 O181 1.421 . S
O169 Fe160 2.077 1_655 S
O169 C182 1.381 . S
O170 Fe163 1.935 1_545 S
O170 C182 1.421 . S
O171 Fe167 2.077 1_455 S
O171 C187 1.381 . S
O172 Fe162 1.935 1_565 S
O172 C187 1.421 . S
O173 Fe162 2.077 . S
O173 C177 1.381 . S
O174 Fe160 1.935 . S
O174 C177 1.421 . S
O175 Fe163 2.077 . S
O175 C183 1.381 . S
O176 Fe167 1.935 . S
O176 C183 1.421 . S
C177 O173 1.381 . S
C177 O174 1.421 . S
O178 Fe167 2.077 1_455 S
O178 C190 1.381 . S
O179 Fe162 1.935 1_565 S
O179 C190 1.421 . S
O180 Fe160 2.077 1_655 S
O180 C168 1.381 . S
O181 Fe163 1.935 1_545 S
O181 C168 1.421 . S
C182 O169 1.381 . S
C182 O170 1.421 . S
C183 O175 1.381 . S
C183 O176 1.421 . S
C184 O185 1.381 . S
C184 O186 1.421 . S
O185 Fe163 2.077 . S
O185 C184 1.381 . S
O186 Fe167 1.935 . S
O186 C184 1.421 . S
C187 O171 1.381 . S
C187 O172 1.421 . S
O188 Fe162 2.077 . S
O188 C191 1.381 . S
O189 Fe160 1.935 . S
O189 C191 1.421 . S
C190 O178 1.381 . S
C190 O179 1.421 . S
C191 O188 1.381 . S
C191 O189 1.421 . S
Fe192 O193 1.887 1_556 S
Fe192 O196 1.715 . S
Fe192 O201 2.100 . S
Fe192 O206 1.961 . S
Fe192 O212 2.055 1_556 S
Fe192 O221 1.909 1_556 S
O193 Fe192 1.887 1_554 S
O193 Fe195 1.715 1_565 S
Fe194 O196 1.886 . S
Fe194 O197 1.715 1_566 S
Fe194 O204 1.935 1_565 S
Fe194 O205 2.077 . S
Fe194 O211 1.935 1_566 S
Fe194 O220 2.077 1_556 S
Fe195 O193 1.715 1_545 S
Fe195 O198 1.886 . S
Fe195 O202 1.935 1_544 S
Fe195 O207 2.077 1_554 S
Fe195 O213 1.935 1_545 S
Fe195 O217 2.077 . S
O196 Fe192 1.715 . S
O196 Fe194 1.886 . S
O197 Fe194 1.715 1_544 S
O197 Fe199 1.886 . S
O198 Fe195 1.886 . S
O198 Fe199 1.715 . S
Fe199 O197 1.886 . S
Fe199 O198 1.715 . S
Fe199 O203 2.077 1_554 S
Fe199 O208 1.935 1_554 S
Fe199 O210 2.077 . S
Fe199 O218 1.935 . S
C200 O212 1.381 . S
C200 O213 1.421 . S
O201 Fe192 2.100 . S
O201 C214 1.381 . S
O202 Fe195 1.935 1_566 S
O202 C214 1.421 . S
O203 Fe199 2.077 1_556 S
O203 C219 1.381 . S
O204 Fe194 1.935 1_545 S
O204 C219 1.421 . S
O205 Fe194 2.077 . S
O205 C209 1.381 . S
O206 Fe192 1.961 . S
O206 C209 1.421 . S
O207 Fe195 2.077 1_556 S
O207 C215 1.381 . S
O208 Fe199 1.935 1_556 S
O208 C215 1.421 . S
C209 O205 1.381 . S
C209 O206 1.421 . S
O210 Fe199 2.077 . S
O210 C222 1.381 . S
O211 Fe194 1.935 1_544 S
O211 C222 1.421 . S
O212 Fe192 2.055 1_554 S
O212 C200 1.381 . S
O213 Fe195 1.935 1_565 S
O213 C200 1.421 . S
C214 O201 1.381 . S
C214 O202 1.421 . S
C215 O207 1.381 . S
C215 O208 1.421 . S
C216 O217 1.381 . S
C216 O218 1.421 . S
O217 Fe195 2.077 . S
O217 C216 1.381 . S
O218 Fe199 1.935 . S
O218 C216 1.421 . S
C219 O203 1.381 . S
C219 O204 1.421 . S
O220 Fe194 2.077 1_554 S
O220 C223 1.381 . S
O221 Fe192 1.909 1_554 S
O221 C223 1.421 . S
C222 O210 1.381 . S
C222 O211 1.421 . S
C223 O220 1.381 . S
C223 O221 1.421 . S
Fe224 O225 1.886 1_455 S
Fe224 O228 1.715 . S
Fe224 O233 2.077 1_454 S
Fe224 O238 1.935 1_554 S
Fe224 O244 2.077 1_455 S
Fe224 O253 1.935 . S
O225 Fe224 1.886 1_655 S
O225 Fe227 1.715 1_554 S
Fe226 O228 1.886 . S
Fe226 O229 1.715 . S
Fe226 O236 1.935 1_554 S
Fe226 O237 2.077 1_554 S
Fe226 O243 1.935 . S
Fe226 O252 2.077 . S
Fe227 O225 1.715 1_556 S
Fe227 O230 1.886 . S
Fe227 O234 1.935 . S
Fe227 O239 2.077 . S
Fe227 O245 1.935 1_556 S
Fe227 O249 2.077 1_556 S
O228 Fe224 1.715 . S
O228 Fe226 1.886 . S
O229 Fe226 1.715 . S
O229 Fe231 1.887 1_454 S
O230 Fe227 1.886 . S
O230 Fe231 1.715 . S
Fe231 O229 1.887 1_656 S
Fe231 O230 1.715 . S
Fe231 O235 2.100 1_655 S
Fe231 O240 1.961 . S
Fe231 O242 2.055 1_656 S
Fe231 O250 1.909 1_556 S
C232 O244 1.381 . S
C232 O245 1.421 . S
O233 Fe224 2.077 1_656 S
O233 C246 1.381 . S
O234 Fe227 1.935 . S
O234 C246 1.421 . S
O235 Fe231 2.100 1_455 S
O235 C251 1.381 . S
O236 Fe226 1.935 1_556 S
O236 C251 1.421 . S
O237 Fe226 2.077 1_556 S
O237 C241 1.381 . S
O238 Fe224 1.935 1_556 S
O238 C241 1.421 . S
O239 Fe227 2.077 . S
O239 C247 1.381 . S
O240 Fe231 1.961 . S
O240 C247 1.421 . S
C241 O237 1.381 . S
C241 O238 1.421 . S
O242 Fe231 2.055 1_454 S
O242 C254 1.381 . S
O243 Fe226 1.935 . S
O243 C254 1.421 . S
O244 Fe224 2.077 1_655 S
O244 C232 1.381 . S
O245 Fe227 1.935 1_554 S
O245 C232 1.421 . S
C246 O233 1.381 . S
C246 O234 1.421 . S
C247 O239 1.381 . S
C247 O240 1.421 . S
C248 O249 1.381 . S
C248 O250 1.421 . S
O249 Fe227 2.077 1_554 S
O249 C248 1.381 . S
O250 Fe231 1.909 1_554 S
O250 C248 1.421 . S
C251 O235 1.381 . S
C251 O236 1.421 . S
O252 Fe226 2.077 . S
O252 C255 1.381 . S
O253 Fe224 1.935 . S
O253 C255 1.421 . S
C254 O242 1.381 . S
C254 O243 1.421 . S
C255 O252 1.381 . S
C255 O253 1.421 . S
Fe256 O257 1.886 . S
Fe256 O260 1.715 . S
Fe256 O265 2.077 . S
Fe256 O270 1.935 . S
Fe256 O276 2.077 . S
Fe256 O285 1.935 . S
O257 Fe256 1.886 . S
O257 Fe259 1.715 1_556 S
Fe258 O260 1.886 . S
Fe258 O261 1.715 1_556 S
Fe258 O268 1.935 1_556 S
Fe258 O269 2.077 . S
Fe258 O275 1.935 1_556 S
Fe258 O284 2.077 . S
Fe259 O257 1.715 1_554 S
Fe259 O262 1.886 . S
Fe259 O266 1.935 1_554 S
Fe259 O271 2.077 . S
Fe259 O277 1.935 1_554 S
Fe259 O281 2.077 . S
O260 Fe256 1.715 . S
O260 Fe258 1.886 . S
O261 Fe258 1.715 1_554 S
O261 Fe263 1.886 . S
O262 Fe259 1.886 . S
O262 Fe263 1.715 . S
Fe263 O261 1.886 . S
Fe263 O262 1.715 . S
Fe263 O267 2.077 . S
Fe263 O272 1.935 . S
Fe263 O274 2.077 . S
Fe263 O282 1.935 . S
C264 O276 1.381 . S
C264 O277 1.421 . S
O265 Fe256 2.077 . S
O265 C278 1.381 . S
O266 Fe259 1.935 1_556 S
O266 C278 1.421 . S
O267 Fe263 2.077 . S
O267 C283 1.381 . S
O268 Fe258 1.935 1_554 S
O268 C283 1.421 . S
O269 Fe258 2.077 . S
O269 C273 1.381 . S
O270 Fe256 1.935 . S
O270 C273 1.421 . S
O271 Fe259 2.077 . S
O271 C279 1.381 . S
O272 Fe263 1.935 . S
O272 C279 1.421 . S
C273 O269 1.381 . S
C273 O270 1.421 . S
O274 Fe263 2.077 . S
O274 C286 1.381 . S
O275 Fe258 1.935 1_554 S
O275 C286 1.421 . S
O276 Fe256 2.077 . S
O276 C264 1.381 . S
O277 Fe259 1.935 1_556 S
O277 C264 1.421 . S
C278 O265 1.381 . S
C278 O266 1.421 . S
C279 O271 1.381 . S
C279 O272 1.421 . S
C280 O281 1.381 . S
C280 O282 1.421 . S
O281 Fe259 2.077 . S
O281 C280 1.381 . S
O282 Fe263 1.935 . S
O282 C280 1.421 . S
C283 O267 1.381 . S
C283 O268 1.421 . S
O284 Fe258 2.077 . S
O284 C287 1.381 . S
O285 Fe256 1.935 . S
O285 C287 1.421 . S
C286 O274 1.381 . S
C286 O275 1.421 . S
C287 O284 1.381 . S
C287 O285 1.421 . S
Fe288 O289 1.886 . S
Fe288 O292 1.715 . S
Fe288 O297 2.077 1_655 S
Fe288 O302 1.935 1_655 S
Fe288 O308 2.077 . S
Fe288 O317 1.935 . S
O289 Fe288 1.886 . S
O289 Fe291 1.715 1_655 S
Fe290 O292 1.886 . S
Fe290 O293 1.715 1_655 S
Fe290 O300 1.935 1_655 S
Fe290 O301 2.077 1_655 S
Fe290 O307 1.935 . S
Fe290 O316 2.077 . S
Fe291 O289 1.715 1_455 S
Fe291 O294 1.886 . S
Fe291 O298 1.935 . S
Fe291 O303 2.077 . S
Fe291 O309 1.935 1_455 S
Fe291 O313 2.077 1_455 S
O292 Fe288 1.715 . S
O292 Fe290 1.886 . S
O293 Fe290 1.715 1_455 S
O293 Fe295 1.886 . S
O294 Fe291 1.886 . S
O294 Fe295 1.715 . S
Fe295 O293 1.886 . S
Fe295 O294 1.715 . S
Fe295 O299 2.077 . S
Fe295 O304 1.935 . S
Fe295 O306 2.077 1_455 S
Fe295 O314 1.935 1_455 S
C296 O308 1.381 . S
C296 O309 1.421 . S
O297 Fe288 2.077 1_455 S
O297 C310 1.381 . S
O298 Fe291 1.935 . S
O298 C310 1.421 . S
O299 Fe295 2.077 . S
O299 C315 1.381 . S
O300 Fe290 1.935 1_455 S
O300 C315 1.421 . S
O301 Fe290 2.077 1_455 S
O301 C305 1.381 . S
O302 Fe288 1.935 1_455 S
O302 C305 1.421 . S
O303 Fe291 2.077 . S
O303 C311 1.381 . S
O304 Fe295 1.935 . S
O304 C311 1.421 . S
C305 O301 1.381 . S
C305 O302 1.421 . S
O306 Fe295 2.077 1_655 S
O306 C318 1.381 . S
O307 Fe290 1.935 . S
O307 C318 1.421 . S
O308 Fe288 2.077 . S
O308 C296 1.381 . S
O309 Fe291 1.935 1_655 S
O309 C296 1.421 . S
C310 O297 1.381 . S
C310 O298 1.421 . S
C311 O303 1.381 . S
C311 O304 1.421 . S
C312 O313 1.381 . S
C312 O314 1.421 . S
O313 Fe291 2.077 1_655 S
O313 C312 1.381 . S
O314 Fe295 1.935 1_655 S
O314 C312 1.421 . S
C315 O299 1.381 . S
C315 O300 1.421 . S
O316 Fe290 2.077 . S
O316 C319 1.381 . S
O317 Fe288 1.935 . S
O317 C319 1.421 . S
C318 O306 1.381 . S
C318 O307 1.421 . S
C319 O316 1.381 . S
C319 O317 1.421 . S
Fe320 O321 1.886 . S
Fe320 O324 1.715 . S
Fe320 O329 2.077 . S
Fe320 O334 1.935 . S
Fe320 O340 2.077 . S
Fe320 O349 1.935 . S
O321 Fe320 1.886 . S
O321 Fe323 1.715 1_565 S
Fe322 O324 1.886 . S
Fe322 O325 1.715 1_565 S
Fe322 O332 1.935 1_565 S
Fe322 O333 2.077 . S
Fe322 O339 1.935 1_565 S
Fe322 O348 2.077 . S
Fe323 O321 1.715 1_545 S
Fe323 O326 1.886 . S
Fe323 O330 1.935 1_545 S
Fe323 O335 2.077 . S
Fe323 O341 1.935 1_545 S
Fe323 O345 2.077 . S
O324 Fe320 1.715 . S
O324 Fe322 1.886 . S
O325 Fe322 1.715 1_545 S
O325 Fe327 1.886 . S
O326 Fe323 1.886 . S
O326 Fe327 1.715 . S
Fe327 O325 1.886 . S
Fe327 O326 1.715 . S
Fe327 O331 2.077 . S
Fe327 O336 1.935 . S
Fe327 O338 2.077 . S
Fe327 O346 1.935 . S
C328 O340 1.381 . S
C328 O341 1.421 . S
O329 Fe320 2.077 . S
O329 C342 1.381 . S
O330 Fe323 1.935 1_565 S
O330 C342 1.421 . S
O331 Fe327 2.077 . S
O331 C347 1.381 . S
O332 Fe322 1.935 1_545 S
O332 C347 1.421 . S
O333 Fe322 2.077 . S
O333 C337 1.381 . S
O334 Fe320 1.935 . S
O334 C337 1.421 . S
O335 Fe323 2.077 . S
O335 C343 1.381 . S
O336 Fe327 1.935 . S
O336 C343 1.421 . S
C337 O333 1.381 . S
C337 O334 1.421 . S
O338 Fe327 2.077 . S
O338 C350 1.381 . S
O339 Fe322 1.935 1_545 S
O339 C350 1.421 . S
O340 Fe320 2.077 . S
O340 C328 1.381 . S
O341 Fe323 1.935 1_565 S
O341 C328 1.421 . S
C342 O329 1.381 . S
C342 O330 1.421 . S
C343 O335 1.381 . S
C343 O336 1.421 . S
C344 O345 1.381 . S
C344 O346 1.421 . S
O345 Fe323 2.077 . S
O345 C344 1.381 . S
O346 Fe327 1.935 . S
O346 C344 1.421 . S
C347 O331 1.381 . S
C347 O332 1.421 . S
O348 Fe322 2.077 . S
O348 C351 1.381 . S
O349 Fe320 1.935 . S
O349 C351 1.421 . S
C350 O338 1.381 . S
C350 O339 1.421 . S
C351 O348 1.381 . S
C351 O349 1.421 . S
C352 C353 1.391 . S
C352 C354 1.394 . S
C352 H368 0.931 . S
C353 C352 1.391 . S
C353 C357 1.376 . S
C354 C352 1.394 . S
C354 C355 1.369 . S
C354 C358 1.531 . S
C355 C354 1.369 . S
C355 C356 1.410 . S
C355 C363 1.503 . S
C356 C355 1.410 . S
C356 C357 1.392 . S
C356 C359 1.511 . S
C357 C353 1.376 . S
C357 C356 1.392 . S
C357 H369 0.929 . S
C358 C354 1.531 . S
C358 H370 0.960 . S
C358 H371 0.962 . S
C358 H372 0.960 . S
C359 C356 1.511 . S
C359 H373 0.961 . S
C359 H374 0.961 . S
C359 H375 0.961 . S
C360 C361 1.370 . S
C360 C362 1.363 . S
C360 H376 0.931 . S
C361 C360 1.370 . S
C361 C365 1.408 . S
C362 C360 1.363 . S
C362 C363 1.370 . S
C362 C366 1.524 . S
C363 C355 1.503 . S
C363 C362 1.370 . S
C363 C364 1.403 . S
C364 C363 1.403 . S
C364 C365 1.404 . S
C364 C367 1.539 . S
C365 C361 1.408 . S
C365 C364 1.404 . S
C365 H377 0.930 . S
C366 C362 1.524 . S
C366 H378 0.956 . S
C366 H379 0.961 . S
C366 H380 0.961 . S
C367 C364 1.539 . S
C367 H381 0.958 . S
C367 H382 0.961 . S
C367 H383 0.960 . S
H368 C352 0.931 . S
H369 C357 0.929 . S
H370 C358 0.960 . S
H371 C358 0.962 . S
H372 C358 0.960 . S
H373 C359 0.961 . S
H374 C359 0.961 . S
H375 C359 0.961 . S
H376 C360 0.931 . S
H377 C365 0.930 . S
H378 C366 0.956 . S
H379 C366 0.961 . S
H380 C366 0.961 . S
H381 C367 0.958 . S
H382 C367 0.961 . S
H383 C367 0.960 . S
C384 C385 1.391 . S
C384 C386 1.394 . S
C384 H400 0.931 . S
C385 C384 1.391 . S
C385 C389 1.376 . S
C386 C384 1.394 . S
C386 C387 1.369 . S
C386 C390 1.531 . S
C387 C386 1.369 . S
C387 C388 1.410 . S
C387 C395 1.503 . S
C388 C387 1.410 . S
C388 C389 1.392 . S
C388 C391 1.511 . S
C389 C385 1.376 . S
C389 C388 1.392 . S
C389 H401 0.929 . S
C390 C386 1.531 . S
C390 H402 0.960 . S
C390 H403 0.962 . S
C390 H404 0.960 . S
C391 C388 1.511 . S
C391 H405 0.961 . S
C391 H406 0.961 . S
C391 H407 0.961 . S
C392 C393 1.370 . S
C392 C394 1.363 . S
C392 H408 0.931 . S
C393 C392 1.370 . S
C393 C397 1.408 . S
C394 C392 1.363 . S
C394 C395 1.370 . S
C394 C398 1.524 . S
C395 C387 1.503 . S
C395 C394 1.370 . S
C395 C396 1.403 . S
C396 C395 1.403 . S
C396 C397 1.404 . S
C396 C399 1.539 . S
C397 C393 1.408 . S
C397 C396 1.404 . S
C397 H409 0.930 . S
C398 C394 1.524 . S
C398 H410 0.956 . S
C398 H411 0.961 . S
C398 H412 0.961 . S
C399 C396 1.539 . S
C399 H413 0.958 . S
C399 H414 0.961 . S
C399 H415 0.960 . S
H400 C384 0.931 . S
H401 C389 0.929 . S
H402 C390 0.960 . S
H403 C390 0.962 . S
H404 C390 0.960 . S
H405 C391 0.961 . S
H406 C391 0.961 . S
H407 C391 0.961 . S
H408 C392 0.931 . S
H409 C397 0.930 . S
H410 C398 0.956 . S
H411 C398 0.961 . S
H412 C398 0.961 . S
H413 C399 0.958 . S
H414 C399 0.961 . S
H415 C399 0.960 . S
C416 C417 1.391 . S
C416 C418 1.394 . S
C416 H432 0.931 . S
C417 C416 1.391 . S
C417 C421 1.376 . S
C418 C416 1.394 . S
C418 C419 1.369 . S
C418 C422 1.531 . S
C419 C418 1.369 . S
C419 C420 1.410 . S
C419 C427 1.503 . S
C420 C419 1.410 . S
C420 C421 1.392 . S
C420 C423 1.511 . S
C421 C417 1.376 . S
C421 C420 1.392 . S
C421 H433 0.929 . S
C422 C418 1.531 . S
C422 H434 0.960 . S
C422 H435 0.962 . S
C422 H436 0.960 . S
C423 C420 1.511 . S
C423 H437 0.961 . S
C423 H438 0.961 . S
C423 H439 0.961 . S
C424 C425 1.370 . S
C424 C426 1.363 . S
C424 H440 0.931 . S
C425 C424 1.370 . S
C425 C429 1.408 . S
C426 C424 1.363 . S
C426 C427 1.370 . S
C426 C430 1.524 . S
C427 C419 1.503 . S
C427 C426 1.370 . S
C427 C428 1.403 . S
C428 C427 1.403 . S
C428 C429 1.404 . S
C428 C431 1.539 . S
C429 C425 1.408 . S
C429 C428 1.404 . S
C429 H441 0.930 . S
C430 C426 1.524 . S
C430 H442 0.956 . S
C430 H443 0.961 . S
C430 H444 0.961 . S
C431 C428 1.539 . S
C431 H445 0.958 . S
C431 H446 0.961 . S
C431 H447 0.960 . S
H432 C416 0.931 . S
H433 C421 0.929 . S
H434 C422 0.960 . S
H435 C422 0.962 . S
H436 C422 0.960 . S
H437 C423 0.961 . S
H438 C423 0.961 . S
H439 C423 0.961 . S
H440 C424 0.931 . S
H441 C429 0.930 . S
H442 C430 0.956 . S
H443 C430 0.961 . S
H444 C430 0.961 . S
H445 C431 0.958 . S
H446 C431 0.961 . S
H447 C431 0.960 . S
C448 C449 1.391 . S
C448 C450 1.394 . S
C448 H464 0.931 . S
C449 C448 1.391 . S
C449 C453 1.376 . S
C450 C448 1.394 . S
C450 C451 1.369 . S
C450 C454 1.531 . S
C451 C450 1.369 . S
C451 C452 1.410 . S
C451 C459 1.503 . S
C452 C451 1.410 . S
C452 C453 1.392 . S
C452 C455 1.511 . S
C453 C449 1.376 . S
C453 C452 1.392 . S
C453 H465 0.929 . S
C454 C450 1.531 . S
C454 H466 0.960 . S
C454 H467 0.962 . S
C454 H468 0.960 . S
C455 C452 1.511 . S
C455 H469 0.961 . S
C455 H470 0.961 . S
C455 H471 0.961 . S
C456 C457 1.370 . S
C456 C458 1.363 . S
C456 H472 0.931 . S
C457 C456 1.370 . S
C457 C461 1.408 . S
C458 C456 1.363 . S
C458 C459 1.370 . S
C458 C462 1.524 . S
C459 C451 1.503 . S
C459 C458 1.370 . S
C459 C460 1.403 . S
C460 C459 1.403 . S
C460 C461 1.404 . S
C460 C463 1.539 . S
C461 C457 1.408 . S
C461 C460 1.404 . S
C461 H473 0.930 . S
C462 C458 1.524 . S
C462 H474 0.956 . S
C462 H475 0.961 . S
C462 H476 0.961 . S
C463 C460 1.539 . S
C463 H477 0.958 . S
C463 H478 0.961 . S
C463 H479 0.960 . S
H464 C448 0.931 . S
H465 C453 0.929 . S
H466 C454 0.960 . S
H467 C454 0.962 . S
H468 C454 0.960 . S
H469 C455 0.961 . S
H470 C455 0.961 . S
H471 C455 0.961 . S
H472 C456 0.931 . S
H473 C461 0.930 . S
H474 C462 0.956 . S
H475 C462 0.961 . S
H476 C462 0.961 . S
H477 C463 0.958 . S
H478 C463 0.961 . S
H479 C463 0.960 . S
C480 C481 1.391 . S
C480 C482 1.394 . S
C480 H496 0.931 . S
C481 C480 1.391 . S
C481 C485 1.376 . S
C482 C480 1.394 . S
C482 C483 1.369 . S
C482 C486 1.531 . S
C483 C482 1.369 . S
C483 C484 1.410 . S
C483 C491 1.503 . S
C484 C483 1.410 . S
C484 C485 1.392 . S
C484 C487 1.511 . S
C485 C481 1.376 . S
C485 C484 1.392 . S
C485 H497 0.929 . S
C486 C482 1.531 . S
C486 H498 0.960 . S
C486 H499 0.962 . S
C486 H500 0.960 . S
C487 C484 1.511 . S
C487 H501 0.961 . S
C487 H502 0.961 . S
C487 H503 0.961 . S
C488 C489 1.370 . S
C488 C490 1.363 . S
C488 H504 0.931 . S
C489 C488 1.370 . S
C489 C493 1.408 . S
C490 C488 1.363 . S
C490 C491 1.370 . S
C490 C494 1.524 . S
C491 C483 1.503 . S
C491 C490 1.370 . S
C491 C492 1.403 . S
C492 C491 1.403 . S
C492 C493 1.404 . S
C492 C495 1.539 . S
C493 C489 1.408 . S
C493 C492 1.404 . S
C493 H505 0.930 . S
C494 C490 1.524 . S
C494 H506 0.956 . S
C494 H507 0.961 . S
C494 H508 0.961 . S
C495 C492 1.539 . S
C495 H509 0.958 . S
C495 H510 0.961 . S
C495 H511 0.960 . S
H496 C480 0.931 . S
H497 C485 0.929 . S
H498 C486 0.960 . S
H499 C486 0.962 . S
H500 C486 0.960 . S
H501 C487 0.961 . S
H502 C487 0.961 . S
H503 C487 0.961 . S
H504 C488 0.931 . S
H505 C493 0.930 . S
H506 C494 0.956 . S
H507 C494 0.961 . S
H508 C494 0.961 . S
H509 C495 0.958 . S
H510 C495 0.961 . S
H511 C495 0.960 . S
C512 C513 1.391 . S
C512 C514 1.394 . S
C512 H528 0.931 . S
C513 C512 1.391 . S
C513 C517 1.376 . S
C514 C512 1.394 . S
C514 C515 1.369 . S
C514 C518 1.531 . S
C515 C514 1.369 . S
C515 C516 1.410 . S
C515 C523 1.503 . S
C516 C515 1.410 . S
C516 C517 1.392 . S
C516 C519 1.511 . S
C517 C513 1.376 . S
C517 C516 1.392 . S
C517 H529 0.929 . S
C518 C514 1.531 . S
C518 H530 0.960 . S
C518 H531 0.962 . S
C518 H532 0.960 . S
C519 C516 1.511 . S
C519 H533 0.961 . S
C519 H534 0.961 . S
C519 H535 0.961 . S
C520 C521 1.370 . S
C520 C522 1.363 . S
C520 H536 0.931 . S
C521 C520 1.370 . S
C521 C525 1.408 . S
C522 C520 1.363 . S
C522 C523 1.370 . S
C522 C526 1.524 . S
C523 C515 1.503 . S
C523 C522 1.370 . S
C523 C524 1.403 . S
C524 C523 1.403 . S
C524 C525 1.404 . S
C524 C527 1.539 . S
C525 C521 1.408 . S
C525 C524 1.404 . S
C525 H537 0.930 . S
C526 C522 1.524 . S
C526 H538 0.956 . S
C526 H539 0.961 . S
C526 H540 0.961 . S
C527 C524 1.539 . S
C527 H541 0.958 . S
C527 H542 0.961 . S
C527 H543 0.960 . S
H528 C512 0.931 . S
H529 C517 0.929 . S
H530 C518 0.960 . S
H531 C518 0.962 . S
H532 C518 0.960 . S
H533 C519 0.961 . S
H534 C519 0.961 . S
H535 C519 0.961 . S
H536 C520 0.931 . S
H537 C525 0.930 . S
H538 C526 0.956 . S
H539 C526 0.961 . S
H540 C526 0.961 . S
H541 C527 0.958 . S
H542 C527 0.961 . S
H543 C527 0.960 . S
C544 C545 1.391 . S
C544 C546 1.394 . S
C544 H560 0.931 . S
C545 C544 1.391 . S
C545 C549 1.376 . S
C546 C544 1.394 . S
C546 C547 1.369 . S
C546 C550 1.531 . S
C547 C546 1.369 . S
C547 C548 1.410 . S
C547 C555 1.503 . S
C548 C547 1.410 . S
C548 C549 1.392 . S
C548 C551 1.511 . S
C549 C545 1.376 . S
C549 C548 1.392 . S
C549 H561 0.929 . S
C550 C546 1.531 . S
C550 H562 0.960 . S
C550 H563 0.962 . S
C550 H564 0.960 . S
C551 C548 1.511 . S
C551 H565 0.961 . S
C551 H566 0.961 . S
C551 H567 0.961 . S
C552 C553 1.370 . S
C552 C554 1.363 . S
C552 H568 0.931 . S
C553 C552 1.370 . S
C553 C557 1.408 . S
C554 C552 1.363 . S
C554 C555 1.370 . S
C554 C558 1.524 . S
C555 C547 1.503 . S
C555 C554 1.370 . S
C555 C556 1.403 . S
C556 C555 1.403 . S
C556 C557 1.404 . S
C556 C559 1.539 . S
C557 C553 1.408 . S
C557 C556 1.404 . S
C557 H569 0.930 . S
C558 C554 1.524 . S
C558 H570 0.956 . S
C558 H571 0.961 . S
C558 H572 0.961 . S
C559 C556 1.539 . S
C559 H573 0.958 . S
C559 H574 0.961 . S
C559 H575 0.960 . S
H560 C544 0.931 . S
H561 C549 0.929 . S
H562 C550 0.960 . S
H563 C550 0.962 . S
H564 C550 0.960 . S
H565 C551 0.961 . S
H566 C551 0.961 . S
H567 C551 0.961 . S
H568 C552 0.931 . S
H569 C557 0.930 . S
H570 C558 0.956 . S
H571 C558 0.961 . S
H572 C558 0.961 . S
H573 C559 0.958 . S
H574 C559 0.961 . S
H575 C559 0.960 . S
C576 C577 1.391 . S
C576 C578 1.394 . S
C576 H592 0.931 . S
C577 C576 1.391 . S
C577 C581 1.376 . S
C578 C576 1.394 . S
C578 C579 1.369 . S
C578 C582 1.531 . S
C579 C578 1.369 . S
C579 C580 1.410 . S
C579 C587 1.503 . S
C580 C579 1.410 . S
C580 C581 1.392 . S
C580 C583 1.511 . S
C581 C577 1.376 . S
C581 C580 1.392 . S
C581 H593 0.929 . S
C582 C578 1.531 . S
C582 H594 0.960 . S
C582 H595 0.962 . S
C582 H596 0.960 . S
C583 C580 1.511 . S
C583 H597 0.961 . S
C583 H598 0.961 . S
C583 H599 0.961 . S
C584 C585 1.370 . S
C584 C586 1.363 . S
C584 H600 0.931 . S
C585 C584 1.370 . S
C585 C589 1.408 . S
C586 C584 1.363 . S
C586 C587 1.370 . S
C586 C590 1.524 . S
C587 C579 1.503 . S
C587 C586 1.370 . S
C587 C588 1.403 . S
C588 C587 1.403 . S
C588 C589 1.404 . S
C588 C591 1.539 . S
C589 C585 1.408 . S
C589 C588 1.404 . S
C589 H601 0.930 . S
C590 C586 1.524 . S
C590 H602 0.956 . S
C590 H603 0.961 . S
C590 H604 0.961 . S
C591 C588 1.539 . S
C591 H605 0.958 . S
C591 H606 0.961 . S
C591 H607 0.960 . S
H592 C576 0.931 . S
H593 C581 0.929 . S
H594 C582 0.960 . S
H595 C582 0.962 . S
H596 C582 0.960 . S
H597 C583 0.961 . S
H598 C583 0.961 . S
H599 C583 0.961 . S
H600 C584 0.931 . S
H601 C589 0.930 . S
H602 C590 0.956 . S
H603 C590 0.961 . S
H604 C590 0.961 . S
H605 C591 0.958 . S
H606 C591 0.961 . S
H607 C591 0.960 . S
C608 C609 1.391 . S
C608 C610 1.394 . S
C608 H624 0.931 . S
C609 C608 1.391 . S
C609 C613 1.376 . S
C610 C608 1.394 . S
C610 C611 1.369 . S
C610 C614 1.531 . S
C611 C610 1.369 . S
C611 C612 1.410 . S
C611 C619 1.503 . S
C612 C611 1.410 . S
C612 C613 1.392 . S
C612 C615 1.511 . S
C613 C609 1.376 . S
C613 C612 1.392 . S
C613 H625 0.929 . S
C614 C610 1.531 . S
C614 H626 0.960 . S
C614 H627 0.962 . S
C614 H628 0.960 . S
C615 C612 1.511 . S
C615 H629 0.961 . S
C615 H630 0.961 . S
C615 H631 0.961 . S
C616 C617 1.370 . S
C616 C618 1.363 . S
C616 H632 0.931 . S
C617 C616 1.370 . S
C617 C621 1.408 . S
C618 C616 1.363 . S
C618 C619 1.370 . S
C618 C622 1.524 . S
C619 C611 1.503 . S
C619 C618 1.370 . S
C619 C620 1.403 . S
C620 C619 1.403 . S
C620 C621 1.404 . S
C620 C623 1.539 . S
C621 C617 1.408 . S
C621 C620 1.404 . S
C621 H633 0.930 . S
C622 C618 1.524 . S
C622 H634 0.956 . S
C622 H635 0.961 . S
C622 H636 0.961 . S
C623 C620 1.539 . S
C623 H637 0.958 . S
C623 H638 0.961 . S
C623 H639 0.960 . S
H624 C608 0.931 . S
H625 C613 0.929 . S
H626 C614 0.960 . S
H627 C614 0.962 . S
H628 C614 0.960 . S
H629 C615 0.961 . S
H630 C615 0.961 . S
H631 C615 0.961 . S
H632 C616 0.931 . S
H633 C621 0.930 . S
H634 C622 0.956 . S
H635 C622 0.961 . S
H636 C622 0.961 . S
H637 C623 0.958 . S
H638 C623 0.961 . S
H639 C623 0.960 . S
C640 C641 1.391 . S
C640 C642 1.394 . S
C640 H656 0.931 . S
C641 C640 1.391 . S
C641 C645 1.376 . S
C642 C640 1.394 . S
C642 C643 1.369 . S
C642 C646 1.531 . S
C643 C642 1.369 . S
C643 C644 1.410 . S
C643 C651 1.503 . S
C644 C643 1.410 . S
C644 C645 1.392 . S
C644 C647 1.511 . S
C645 C641 1.376 . S
C645 C644 1.392 . S
C645 H657 0.929 . S
C646 C642 1.531 . S
C646 H658 0.960 . S
C646 H659 0.962 . S
C646 H660 0.960 . S
C647 C644 1.511 . S
C647 H661 0.961 . S
C647 H662 0.961 . S
C647 H663 0.961 . S
C648 C649 1.370 . S
C648 C650 1.363 . S
C648 H664 0.931 . S
C649 C648 1.370 . S
C649 C653 1.408 . S
C650 C648 1.363 . S
C650 C651 1.370 . S
C650 C654 1.524 . S
C651 C643 1.503 . S
C651 C650 1.370 . S
C651 C652 1.403 . S
C652 C651 1.403 . S
C652 C653 1.404 . S
C652 C655 1.539 . S
C653 C649 1.408 . S
C653 C652 1.404 . S
C653 H665 0.930 . S
C654 C650 1.524 . S
C654 H666 0.956 . S
C654 H667 0.961 . S
C654 H668 0.961 . S
C655 C652 1.539 . S
C655 H669 0.958 . S
C655 H670 0.961 . S
C655 H671 0.960 . S
H656 C640 0.931 . S
H657 C645 0.929 . S
H658 C646 0.960 . S
H659 C646 0.962 . S
H660 C646 0.960 . S
H661 C647 0.961 . S
H662 C647 0.961 . S
H663 C647 0.961 . S
H664 C648 0.931 . S
H665 C653 0.930 . S
H666 C654 0.956 . S
H667 C654 0.961 . S
H668 C654 0.961 . S
H669 C655 0.958 . S
H670 C655 0.961 . S
H671 C655 0.960 . S
C672 C673 1.391 . S
C672 C674 1.394 . S
C672 H688 0.931 . S
C673 C672 1.391 . S
C673 C677 1.376 . S
C674 C672 1.394 . S
C674 C675 1.369 . S
C674 C678 1.531 . S
C675 C674 1.369 . S
C675 C676 1.410 . S
C675 C683 1.503 . S
C676 C675 1.410 . S
C676 C677 1.392 . S
C676 C679 1.511 . S
C677 C673 1.376 . S
C677 C676 1.392 . S
C677 H689 0.929 . S
C678 C674 1.531 . S
C678 H690 0.960 . S
C678 H691 0.962 . S
C678 H692 0.960 . S
C679 C676 1.511 . S
C679 H693 0.961 . S
C679 H694 0.961 . S
C679 H695 0.961 . S
C680 C681 1.370 . S
C680 C682 1.363 . S
C680 H696 0.931 . S
C681 C680 1.370 . S
C681 C685 1.408 . S
C682 C680 1.363 . S
C682 C683 1.370 . S
C682 C686 1.524 . S
C683 C675 1.503 . S
C683 C682 1.370 . S
C683 C684 1.403 . S
C684 C683 1.403 . S
C684 C685 1.404 . S
C684 C687 1.539 . S
C685 C681 1.408 . S
C685 C684 1.404 . S
C685 H697 0.930 . S
C686 C682 1.524 . S
C686 H698 0.956 . S
C686 H699 0.961 . S
C686 H700 0.961 . S
C687 C684 1.539 . S
C687 H701 0.958 . S
C687 H702 0.961 . S
C687 H703 0.960 . S
H688 C672 0.931 . S
H689 C677 0.929 . S
H690 C678 0.960 . S
H691 C678 0.962 . S
H692 C678 0.960 . S
H693 C679 0.961 . S
H694 C679 0.961 . S
H695 C679 0.961 . S
H696 C680 0.931 . S
H697 C685 0.930 . S
H698 C686 0.956 . S
H699 C686 0.961 . S
H700 C686 0.961 . S
H701 C687 0.958 . S
H702 C687 0.961 . S
H703 C687 0.960 . S
C704 C705 1.391 . S
C704 C706 1.394 . S
C704 H720 0.931 . S
C705 C704 1.391 . S
C705 C709 1.376 . S
C706 C704 1.394 . S
C706 C707 1.369 . S
C706 C710 1.531 . S
C707 C706 1.369 . S
C707 C708 1.410 . S
C707 C715 1.503 . S
C708 C707 1.410 . S
C708 C709 1.392 . S
C708 C711 1.511 . S
C709 C705 1.376 . S
C709 C708 1.392 . S
C709 H721 0.929 . S
C710 C706 1.531 . S
C710 H722 0.960 . S
C710 H723 0.962 . S
C710 H724 0.960 . S
C711 C708 1.511 . S
C711 H725 0.961 . S
C711 H726 0.961 . S
C711 H727 0.961 . S
C712 C713 1.370 . S
C712 C714 1.363 . S
C712 H728 0.931 . S
C713 C712 1.370 . S
C713 C717 1.408 . S
C714 C712 1.363 . S
C714 C715 1.370 . S
C714 C718 1.524 . S
C715 C707 1.503 . S
C715 C714 1.370 . S
C715 C716 1.403 . S
C716 C715 1.403 . S
C716 C717 1.404 . S
C716 C719 1.539 . S
C717 C713 1.408 . S
C717 C716 1.404 . S
C717 H729 0.930 . S
C718 C714 1.524 . S
C718 H730 0.956 . S
C718 H731 0.961 . S
C718 H732 0.961 . S
C719 C716 1.539 . S
C719 H733 0.958 . S
C719 H734 0.961 . S
C719 H735 0.960 . S
H720 C704 0.931 . S
H721 C709 0.929 . S
H722 C710 0.960 . S
H723 C710 0.962 . S
H724 C710 0.960 . S
H725 C711 0.961 . S
H726 C711 0.961 . S
H727 C711 0.961 . S
H728 C712 0.931 . S
H729 C717 0.930 . S
H730 C718 0.956 . S
H731 C718 0.961 . S
H732 C718 0.961 . S
H733 C719 0.958 . S
H734 C719 0.961 . S
H735 C719 0.960 . S
C736 C737 1.391 . S
C736 C738 1.394 . S
C736 H752 0.931 . S
C737 C736 1.391 . S
C737 C741 1.376 . S
C738 C736 1.394 . S
C738 C739 1.369 . S
C738 C742 1.531 . S
C739 C738 1.369 . S
C739 C740 1.410 . S
C739 C747 1.503 . S
C740 C739 1.410 . S
C740 C741 1.392 . S
C740 C743 1.511 . S
C741 C737 1.376 . S
C741 C740 1.392 . S
C741 H753 0.929 . S
C742 C738 1.531 . S
C742 H754 0.960 . S
C742 H755 0.962 . S
C742 H756 0.960 . S
C743 C740 1.511 . S
C743 H757 0.961 . S
C743 H758 0.961 . S
C743 H759 0.961 . S
C744 C745 1.370 . S
C744 C746 1.363 . S
C744 H760 0.931 . S
C745 C744 1.370 . S
C745 C749 1.408 . S
C746 C744 1.363 . S
C746 C747 1.370 . S
C746 C750 1.524 . S
C747 C739 1.503 . S
C747 C746 1.370 . S
C747 C748 1.403 . S
C748 C747 1.403 . S
C748 C749 1.404 . S
C748 C751 1.539 . S
C749 C745 1.408 . S
C749 C748 1.404 . S
C749 H761 0.930 . S
C750 C746 1.524 . S
C750 H762 0.956 . S
C750 H763 0.961 . S
C750 H764 0.961 . S
C751 C748 1.539 . S
C751 H765 0.958 . S
C751 H766 0.961 . S
C751 H767 0.960 . S
H752 C736 0.931 . S
H753 C741 0.929 . S
H754 C742 0.960 . S
H755 C742 0.962 . S
H756 C742 0.960 . S
H757 C743 0.961 . S
H758 C743 0.961 . S
H759 C743 0.961 . S
H760 C744 0.931 . S
H761 C749 0.930 . S
H762 C750 0.956 . S
H763 C750 0.961 . S
H764 C750 0.961 . S
H765 C751 0.958 . S
H766 C751 0.961 . S
H767 C751 0.960 . S
C768 C769 1.391 . S
C768 C770 1.394 . S
C768 H784 0.931 . S
C769 C768 1.391 . S
C769 C773 1.376 . S
C770 C768 1.394 . S
C770 C771 1.369 . S
C770 C774 1.531 . S
C771 C770 1.369 . S
C771 C772 1.410 . S
C771 C779 1.503 . S
C772 C771 1.410 . S
C772 C773 1.392 . S
C772 C775 1.511 . S
C773 C769 1.376 . S
C773 C772 1.392 . S
C773 H785 0.929 . S
C774 C770 1.531 . S
C774 H786 0.960 . S
C774 H787 0.962 . S
C774 H788 0.960 . S
C775 C772 1.511 . S
C775 H789 0.961 . S
C775 H790 0.961 . S
C775 H791 0.961 . S
C776 C777 1.370 . S
C776 C778 1.363 . S
C776 H792 0.931 . S
C777 C776 1.370 . S
C777 C781 1.408 . S
C778 C776 1.363 . S
C778 C779 1.370 . S
C778 C782 1.524 . S
C779 C771 1.503 . S
C779 C778 1.370 . S
C779 C780 1.403 . S
C780 C779 1.403 . S
C780 C781 1.404 . S
C780 C783 1.539 . S
C781 C777 1.408 . S
C781 C780 1.404 . S
C781 H793 0.930 . S
C782 C778 1.524 . S
C782 H794 0.956 . S
C782 H795 0.961 . S
C782 H796 0.961 . S
C783 C780 1.539 . S
C783 H797 0.958 . S
C783 H798 0.961 . S
C783 H799 0.960 . S
H784 C768 0.931 . S
H785 C773 0.929 . S
H786 C774 0.960 . S
H787 C774 0.962 . S
H788 C774 0.960 . S
H789 C775 0.961 . S
H790 C775 0.961 . S
H791 C775 0.961 . S
H792 C776 0.931 . S
H793 C781 0.930 . S
H794 C782 0.956 . S
H795 C782 0.961 . S
H796 C782 0.961 . S
H797 C783 0.958 . S
H798 C783 0.961 . S
H799 C783 0.960 . S
C800 C801 1.391 . S
C800 C802 1.394 . S
C800 H816 0.931 . S
C801 C800 1.391 . S
C801 C805 1.376 . S
C802 C800 1.394 . S
C802 C803 1.369 . S
C802 C806 1.531 . S
C803 C802 1.369 . S
C803 C804 1.410 . S
C803 C811 1.503 . S
C804 C803 1.410 . S
C804 C805 1.392 . S
C804 C807 1.511 . S
C805 C801 1.376 . S
C805 C804 1.392 . S
C805 H817 0.929 . S
C806 C802 1.531 . S
C806 H818 0.960 . S
C806 H819 0.962 . S
C806 H820 0.960 . S
C807 C804 1.511 . S
C807 H821 0.961 . S
C807 H822 0.961 . S
C807 H823 0.961 . S
C808 C809 1.370 . S
C808 C810 1.363 . S
C808 H824 0.931 . S
C809 C808 1.370 . S
C809 C813 1.408 . S
C810 C808 1.363 . S
C810 C811 1.370 . S
C810 C814 1.524 . S
C811 C803 1.503 . S
C811 C810 1.370 . S
C811 C812 1.403 . S
C812 C811 1.403 . S
C812 C813 1.404 . S
C812 C815 1.539 . S
C813 C809 1.408 . S
C813 C812 1.404 . S
C813 H825 0.930 . S
C814 C810 1.524 . S
C814 H826 0.956 . S
C814 H827 0.961 . S
C814 H828 0.961 . S
C815 C812 1.539 . S
C815 H829 0.958 . S
C815 H830 0.961 . S
C815 H831 0.960 . S
H816 C800 0.931 . S
H817 C805 0.929 . S
H818 C806 0.960 . S
H819 C806 0.962 . S
H820 C806 0.960 . S
H821 C807 0.961 . S
H822 C807 0.961 . S
H823 C807 0.961 . S
H824 C808 0.931 . S
H825 C813 0.930 . S
H826 C814 0.956 . S
H827 C814 0.961 . S
H828 C814 0.961 . S
H829 C815 0.958 . S
H830 C815 0.961 . S
H831 C815 0.960 . S
C832 C833 1.391 . S
C832 C834 1.394 . S
C832 H848 0.931 . S
C833 C832 1.391 . S
C833 C837 1.376 . S
C834 C832 1.394 . S
C834 C835 1.369 . S
C834 C838 1.531 . S
C835 C834 1.369 . S
C835 C836 1.410 . S
C835 C843 1.503 . S
C836 C835 1.410 . S
C836 C837 1.392 . S
C836 C839 1.511 . S
C837 C833 1.376 . S
C837 C836 1.392 . S
C837 H849 0.929 . S
C838 C834 1.531 . S
C838 H850 0.960 . S
C838 H851 0.962 . S
C838 H852 0.960 . S
C839 C836 1.511 . S
C839 H853 0.961 . S
C839 H854 0.961 . S
C839 H855 0.961 . S
C840 C841 1.370 . S
C840 C842 1.363 . S
C840 H856 0.931 . S
C841 C840 1.370 . S
C841 C845 1.408 . S
C842 C840 1.363 . S
C842 C843 1.370 . S
C842 C846 1.524 . S
C843 C835 1.503 . S
C843 C842 1.370 . S
C843 C844 1.403 . S
C844 C843 1.403 . S
C844 C845 1.404 . S
C844 C847 1.539 . S
C845 C841 1.408 . S
C845 C844 1.404 . S
C845 H857 0.930 . S
C846 C842 1.524 . S
C846 H858 0.956 . S
C846 H859 0.961 . S
C846 H860 0.961 . S
C847 C844 1.539 . S
C847 H861 0.958 . S
C847 H862 0.961 . S
C847 H863 0.960 . S
H848 C832 0.931 . S
H849 C837 0.929 . S
H850 C838 0.960 . S
H851 C838 0.962 . S
H852 C838 0.960 . S
H853 C839 0.961 . S
H854 C839 0.961 . S
H855 C839 0.961 . S
H856 C840 0.931 . S
H857 C845 0.930 . S
H858 C846 0.956 . S
H859 C846 0.961 . S
H860 C846 0.961 . S
H861 C847 0.958 . S
H862 C847 0.961 . S
H863 C847 0.960 . S
C864 C865 1.391 . S
C864 C866 1.394 . S
C864 H880 0.931 . S
C865 C864 1.391 . S
C865 C869 1.376 . S
C866 C864 1.394 . S
C866 C867 1.369 . S
C866 C870 1.531 . S
C867 C866 1.369 . S
C867 C868 1.410 . S
C867 C875 1.503 . S
C868 C867 1.410 . S
C868 C869 1.392 . S
C868 C871 1.511 . S
C869 C865 1.376 . S
C869 C868 1.392 . S
C869 H881 0.929 . S
C870 C866 1.531 . S
C870 H882 0.960 . S
C870 H883 0.962 . S
C870 H884 0.960 . S
C871 C868 1.511 . S
C871 H885 0.961 . S
C871 H886 0.961 . S
C871 H887 0.961 . S
C872 C873 1.370 . S
C872 C874 1.363 . S
C872 H888 0.931 . S
C873 C872 1.370 . S
C873 C877 1.408 . S
C874 C872 1.363 . S
C874 C875 1.370 . S
C874 C878 1.524 . S
C875 C867 1.503 . S
C875 C874 1.370 . S
C875 C876 1.403 . S
C876 C875 1.403 . S
C876 C877 1.404 . S
C876 C879 1.539 . S
C877 C873 1.408 . S
C877 C876 1.404 . S
C877 H889 0.930 . S
C878 C874 1.524 . S
C878 H890 0.956 . S
C878 H891 0.961 . S
C878 H892 0.961 . S
C879 C876 1.539 . S
C879 H893 0.958 . S
C879 H894 0.961 . S
C879 H895 0.960 . S
H880 C864 0.931 . S
H881 C869 0.929 . S
H882 C870 0.960 . S
H883 C870 0.962 . S
H884 C870 0.960 . S
H885 C871 0.961 . S
H886 C871 0.961 . S
H887 C871 0.961 . S
H888 C872 0.931 . S
H889 C877 0.930 . S
H890 C878 0.956 . S
H891 C878 0.961 . S
H892 C878 0.961 . S
H893 C879 0.958 . S
H894 C879 0.961 . S
H895 C879 0.960 . S
C896 C897 1.391 . S
C896 C898 1.394 . S
C896 H912 0.931 . S
C897 C896 1.391 . S
C897 C901 1.376 . S
C898 C896 1.394 . S
C898 C899 1.369 . S
C898 C902 1.531 . S
C899 C898 1.369 . S
C899 C900 1.410 . S
C899 C907 1.503 . S
C900 C899 1.410 . S
C900 C901 1.392 . S
C900 C903 1.511 . S
C901 C897 1.376 . S
C901 C900 1.392 . S
C901 H913 0.929 . S
C902 C898 1.531 . S
C902 H914 0.960 . S
C902 H915 0.962 . S
C902 H916 0.960 . S
C903 C900 1.511 . S
C903 H917 0.961 . S
C903 H918 0.961 . S
C903 H919 0.961 . S
C904 C905 1.370 . S
C904 C906 1.363 . S
C904 H920 0.931 . S
C905 C904 1.370 . S
C905 C909 1.408 . S
C906 C904 1.363 . S
C906 C907 1.370 . S
C906 C910 1.524 . S
C907 C899 1.503 . S
C907 C906 1.370 . S
C907 C908 1.403 . S
C908 C907 1.403 . S
C908 C909 1.404 . S
C908 C911 1.539 . S
C909 C905 1.408 . S
C909 C908 1.404 . S
C909 H921 0.930 . S
C910 C906 1.524 . S
C910 H922 0.956 . S
C910 H923 0.961 . S
C910 H924 0.961 . S
C911 C908 1.539 . S
C911 H925 0.958 . S
C911 H926 0.961 . S
C911 H927 0.960 . S
H912 C896 0.931 . S
H913 C901 0.929 . S
H914 C902 0.960 . S
H915 C902 0.962 . S
H916 C902 0.960 . S
H917 C903 0.961 . S
H918 C903 0.961 . S
H919 C903 0.961 . S
H920 C904 0.931 . S
H921 C909 0.930 . S
H922 C910 0.956 . S
H923 C910 0.961 . S
H924 C910 0.961 . S
H925 C911 0.958 . S
H926 C911 0.961 . S
H927 C911 0.960 . S
C928 C929 1.391 . S
C928 C930 1.394 . S
C928 H944 0.931 . S
C929 C928 1.391 . S
C929 C933 1.376 . S
C930 C928 1.394 . S
C930 C931 1.369 . S
C930 C934 1.531 . S
C931 C930 1.369 . S
C931 C932 1.410 . S
C931 C939 1.503 . S
C932 C931 1.410 . S
C932 C933 1.392 . S
C932 C935 1.511 . S
C933 C929 1.376 . S
C933 C932 1.392 . S
C933 H945 0.929 . S
C934 C930 1.531 . S
C934 H946 0.960 . S
C934 H947 0.962 . S
C934 H948 0.960 . S
C935 C932 1.511 . S
C935 H949 0.961 . S
C935 H950 0.961 . S
C935 H951 0.961 . S
C936 C937 1.370 . S
C936 C938 1.363 . S
C936 H952 0.931 . S
C937 C936 1.370 . S
C937 C941 1.408 . S
C938 C936 1.363 . S
C938 C939 1.370 . S
C938 C942 1.524 . S
C939 C931 1.503 . S
C939 C938 1.370 . S
C939 C940 1.403 . S
C940 C939 1.403 . S
C940 C941 1.404 . S
C940 C943 1.539 . S
C941 C937 1.408 . S
C941 C940 1.404 . S
C941 H953 0.930 . S
C942 C938 1.524 . S
C942 H954 0.956 . S
C942 H955 0.961 . S
C942 H956 0.961 . S
C943 C940 1.539 . S
C943 H957 0.958 . S
C943 H958 0.961 . S
C943 H959 0.960 . S
H944 C928 0.931 . S
H945 C933 0.929 . S
H946 C934 0.960 . S
H947 C934 0.962 . S
H948 C934 0.960 . S
H949 C935 0.961 . S
H950 C935 0.961 . S
H951 C935 0.961 . S
H952 C936 0.931 . S
H953 C941 0.930 . S
H954 C942 0.956 . S
H955 C942 0.961 . S
H956 C942 0.961 . S
H957 C943 0.958 . S
H958 C943 0.961 . S
H959 C943 0.960 . S
C960 C961 1.391 . S
C960 C962 1.394 . S
C960 H976 0.931 . S
C961 C960 1.391 . S
C961 C965 1.376 . S
C962 C960 1.394 . S
C962 C963 1.369 . S
C962 C966 1.531 . S
C963 C962 1.369 . S
C963 C964 1.410 . S
C963 C971 1.503 . S
C964 C963 1.410 . S
C964 C965 1.392 . S
C964 C967 1.511 . S
C965 C961 1.376 . S
C965 C964 1.392 . S
C965 H977 0.929 . S
C966 C962 1.531 . S
C966 H978 0.960 . S
C966 H979 0.962 . S
C966 H980 0.960 . S
C967 C964 1.511 . S
C967 H981 0.961 . S
C967 H982 0.961 . S
C967 H983 0.961 . S
C968 C969 1.370 . S
C968 C970 1.363 . S
C968 H984 0.931 . S
C969 C968 1.370 . S
C969 C973 1.408 . S
C970 C968 1.363 . S
C970 C971 1.370 . S
C970 C974 1.524 . S
C971 C963 1.503 . S
C971 C970 1.370 . S
C971 C972 1.403 . S
C972 C971 1.403 . S
C972 C973 1.404 . S
C972 C975 1.539 . S
C973 C969 1.408 . S
C973 C972 1.404 . S
C973 H985 0.930 . S
C974 C970 1.524 . S
C974 H986 0.956 . S
C974 H987 0.961 . S
C974 H988 0.961 . S
C975 C972 1.539 . S
C975 H989 0.958 . S
C975 H990 0.961 . S
C975 H991 0.960 . S
H976 C960 0.931 . S
H977 C965 0.929 . S
H978 C966 0.960 . S
H979 C966 0.962 . S
H980 C966 0.960 . S
H981 C967 0.961 . S
H982 C967 0.961 . S
H983 C967 0.961 . S
H984 C968 0.931 . S
H985 C973 0.930 . S
H986 C974 0.956 . S
H987 C974 0.961 . S
H988 C974 0.961 . S
H989 C975 0.958 . S
H990 C975 0.961 . S
H991 C975 0.960 . S
C992 C993 1.391 . S
C992 C994 1.394 . S
C992 H1008 0.931 . S
C993 C992 1.391 . S
C993 C997 1.376 . S
C994 C992 1.394 . S
C994 C995 1.369 . S
C994 C998 1.531 . S
C995 C994 1.369 . S
C995 C996 1.410 . S
C995 C1003 1.503 . S
C996 C995 1.410 . S
C996 C997 1.392 . S
C996 C999 1.511 . S
C997 C993 1.376 . S
C997 C996 1.392 . S
C997 H1009 0.929 . S
C998 C994 1.531 . S
C998 H1010 0.960 . S
C998 H1011 0.962 . S
C998 H1012 0.960 . S
C999 C996 1.511 . S
C999 H1013 0.961 . S
C999 H1014 0.961 . S
C999 H1015 0.961 . S
C1000 C1001 1.370 . S
C1000 C1002 1.363 . S
C1000 H1016 0.931 . S
C1001 C1000 1.370 . S
C1001 C1005 1.408 . S
C1002 C1000 1.363 . S
C1002 C1003 1.370 . S
C1002 C1006 1.524 . S
C1003 C995 1.503 . S
C1003 C1002 1.370 . S
C1003 C1004 1.403 . S
C1004 C1003 1.403 . S
C1004 C1005 1.404 . S
C1004 C1007 1.539 . S
C1005 C1001 1.408 . S
C1005 C1004 1.404 . S
C1005 H1017 0.930 . S
C1006 C1002 1.524 . S
C1006 H1018 0.956 . S
C1006 H1019 0.961 . S
C1006 H1020 0.961 . S
C1007 C1004 1.539 . S
C1007 H1021 0.958 . S
C1007 H1022 0.961 . S
C1007 H1023 0.960 . S
H1008 C992 0.931 . S
H1009 C997 0.929 . S
H1010 C998 0.960 . S
H1011 C998 0.962 . S
H1012 C998 0.960 . S
H1013 C999 0.961 . S
H1014 C999 0.961 . S
H1015 C999 0.961 . S
H1016 C1000 0.931 . S
H1017 C1005 0.930 . S
H1018 C1006 0.956 . S
H1019 C1006 0.961 . S
H1020 C1006 0.961 . S
H1021 C1007 0.958 . S
H1022 C1007 0.961 . S
H1023 C1007 0.960 . S
C1024 C1025 1.391 . S
C1024 C1026 1.394 . S
C1024 H1040 0.931 . S
C1025 C1024 1.391 . S
C1025 C1029 1.376 . S
C1026 C1024 1.394 . S
C1026 C1027 1.369 . S
C1026 C1030 1.531 . S
C1027 C1026 1.369 . S
C1027 C1028 1.410 . S
C1027 C1035 1.503 . S
C1028 C1027 1.410 . S
C1028 C1029 1.392 . S
C1028 C1031 1.511 . S
C1029 C1025 1.376 . S
C1029 C1028 1.392 . S
C1029 H1041 0.929 . S
C1030 C1026 1.531 . S
C1030 H1042 0.960 . S
C1030 H1043 0.962 . S
C1030 H1044 0.960 . S
C1031 C1028 1.511 . S
C1031 H1045 0.961 . S
C1031 H1046 0.961 . S
C1031 H1047 0.961 . S
C1032 C1033 1.370 . S
C1032 C1034 1.363 . S
C1032 H1048 0.931 . S
C1033 C1032 1.370 . S
C1033 C1037 1.408 . S
C1034 C1032 1.363 . S
C1034 C1035 1.370 . S
C1034 C1038 1.524 . S
C1035 C1027 1.503 . S
C1035 C1034 1.370 . S
C1035 C1036 1.403 . S
C1036 C1035 1.403 . S
C1036 C1037 1.404 . S
C1036 C1039 1.539 . S
C1037 C1033 1.408 . S
C1037 C1036 1.404 . S
C1037 H1049 0.930 . S
C1038 C1034 1.524 . S
C1038 H1050 0.956 . S
C1038 H1051 0.961 . S
C1038 H1052 0.961 . S
C1039 C1036 1.539 . S
C1039 H1053 0.958 . S
C1039 H1054 0.961 . S
C1039 H1055 0.960 . S
H1040 C1024 0.931 . S
H1041 C1029 0.929 . S
H1042 C1030 0.960 . S
H1043 C1030 0.962 . S
H1044 C1030 0.960 . S
H1045 C1031 0.961 . S
H1046 C1031 0.961 . S
H1047 C1031 0.961 . S
H1048 C1032 0.931 . S
H1049 C1037 0.930 . S
H1050 C1038 0.956 . S
H1051 C1038 0.961 . S
H1052 C1038 0.961 . S
H1053 C1039 0.958 . S
H1054 C1039 0.961 . S
H1055 C1039 0.960 . S
C1056 C1057 1.391 . S
C1056 C1058 1.394 . S
C1056 H1072 0.931 . S
C1057 C1056 1.391 . S
C1057 C1061 1.376 . S
C1058 C1056 1.394 . S
C1058 C1059 1.369 . S
C1058 C1062 1.531 . S
C1059 C1058 1.369 . S
C1059 C1060 1.410 . S
C1059 C1067 1.503 . S
C1060 C1059 1.410 . S
C1060 C1061 1.392 . S
C1060 C1063 1.511 . S
C1061 C1057 1.376 . S
C1061 C1060 1.392 . S
C1061 H1073 0.929 . S
C1062 C1058 1.531 . S
C1062 H1074 0.960 . S
C1062 H1075 0.962 . S
C1062 H1076 0.960 . S
C1063 C1060 1.511 . S
C1063 H1077 0.961 . S
C1063 H1078 0.961 . S
C1063 H1079 0.961 . S
C1064 C1065 1.370 . S
C1064 C1066 1.363 . S
C1064 H1080 0.931 . S
C1065 C1064 1.370 . S
C1065 C1069 1.408 . S
C1066 C1064 1.363 . S
C1066 C1067 1.370 . S
C1066 C1070 1.524 . S
C1067 C1059 1.503 . S
C1067 C1066 1.370 . S
C1067 C1068 1.403 . S
C1068 C1067 1.403 . S
C1068 C1069 1.404 . S
C1068 C1071 1.539 . S
C1069 C1065 1.408 . S
C1069 C1068 1.404 . S
C1069 H1081 0.930 . S
C1070 C1066 1.524 . S
C1070 H1082 0.956 . S
C1070 H1083 0.961 . S
C1070 H1084 0.961 . S
C1071 C1068 1.539 . S
C1071 H1085 0.958 . S
C1071 H1086 0.961 . S
C1071 H1087 0.960 . S
H1072 C1056 0.931 . S
H1073 C1061 0.929 . S
H1074 C1062 0.960 . S
H1075 C1062 0.962 . S
H1076 C1062 0.960 . S
H1077 C1063 0.961 . S
H1078 C1063 0.961 . S
H1079 C1063 0.961 . S
H1080 C1064 0.931 . S
H1081 C1069 0.930 . S
H1082 C1070 0.956 . S
H1083 C1070 0.961 . S
H1084 C1070 0.961 . S
H1085 C1071 0.958 . S
H1086 C1071 0.961 . S
H1087 C1071 0.960 . S
C1088 C1089 1.391 . S
C1088 C1090 1.394 . S
C1088 H1104 0.931 . S
C1089 C1088 1.391 . S
C1089 C1093 1.376 . S
C1090 C1088 1.394 . S
C1090 C1091 1.369 . S
C1090 C1094 1.531 . S
C1091 C1090 1.369 . S
C1091 C1092 1.410 . S
C1091 C1099 1.503 . S
C1092 C1091 1.410 . S
C1092 C1093 1.392 . S
C1092 C1095 1.511 . S
C1093 C1089 1.376 . S
C1093 C1092 1.392 . S
C1093 H1105 0.929 . S
C1094 C1090 1.531 . S
C1094 H1106 0.960 . S
C1094 H1107 0.962 . S
C1094 H1108 0.960 . S
C1095 C1092 1.511 . S
C1095 H1109 0.961 . S
C1095 H1110 0.961 . S
C1095 H1111 0.961 . S
C1096 C1097 1.370 . S
C1096 C1098 1.363 . S
C1096 H1112 0.931 . S
C1097 C1096 1.370 . S
C1097 C1101 1.408 . S
C1098 C1096 1.363 . S
C1098 C1099 1.370 . S
C1098 C1102 1.524 . S
C1099 C1091 1.503 . S
C1099 C1098 1.370 . S
C1099 C1100 1.403 . S
C1100 C1099 1.403 . S
C1100 C1101 1.404 . S
C1100 C1103 1.539 . S
C1101 C1097 1.408 . S
C1101 C1100 1.404 . S
C1101 H1113 0.930 . S
C1102 C1098 1.524 . S
C1102 H1114 0.956 . S
C1102 H1115 0.961 . S
C1102 H1116 0.961 . S
C1103 C1100 1.539 . S
C1103 H1117 0.958 . S
C1103 H1118 0.961 . S
C1103 H1119 0.960 . S
H1104 C1088 0.931 . S
H1105 C1093 0.929 . S
H1106 C1094 0.960 . S
H1107 C1094 0.962 . S
H1108 C1094 0.960 . S
H1109 C1095 0.961 . S
H1110 C1095 0.961 . S
H1111 C1095 0.961 . S
H1112 C1096 0.931 . S
H1113 C1101 0.930 . S
H1114 C1102 0.956 . S
H1115 C1102 0.961 . S
H1116 C1102 0.961 . S
H1117 C1103 0.958 . S
H1118 C1103 0.961 . S
H1119 C1103 0.960 . S
C1120 C1121 1.391 . S
C1120 C1122 1.394 . S
C1120 H1136 0.931 . S
C1121 C1120 1.391 . S
C1121 C1125 1.376 . S
C1122 C1120 1.394 . S
C1122 C1123 1.369 . S
C1122 C1126 1.531 . S
C1123 C1122 1.369 . S
C1123 C1124 1.410 . S
C1123 C1131 1.503 . S
C1124 C1123 1.410 . S
C1124 C1125 1.392 . S
C1124 C1127 1.511 . S
C1125 C1121 1.376 . S
C1125 C1124 1.392 . S
C1125 H1137 0.929 . S
C1126 C1122 1.531 . S
C1126 H1138 0.960 . S
C1126 H1139 0.962 . S
C1126 H1140 0.960 . S
C1127 C1124 1.511 . S
C1127 H1141 0.961 . S
C1127 H1142 0.961 . S
C1127 H1143 0.961 . S
C1128 C1129 1.370 . S
C1128 C1130 1.363 . S
C1128 H1144 0.931 . S
C1129 C1128 1.370 . S
C1129 C1133 1.408 . S
C1130 C1128 1.363 . S
C1130 C1131 1.370 . S
C1130 C1134 1.524 . S
C1131 C1123 1.503 . S
C1131 C1130 1.370 . S
C1131 C1132 1.403 . S
C1132 C1131 1.403 . S
C1132 C1133 1.404 . S
C1132 C1135 1.539 . S
C1133 C1129 1.408 . S
C1133 C1132 1.404 . S
C1133 H1145 0.930 . S
C1134 C1130 1.524 . S
C1134 H1146 0.956 . S
C1134 H1147 0.961 . S
C1134 H1148 0.961 . S
C1135 C1132 1.539 . S
C1135 H1149 0.958 . S
C1135 H1150 0.961 . S
C1135 H1151 0.960 . S
H1136 C1120 0.931 . S
H1137 C1125 0.929 . S
H1138 C1126 0.960 . S
H1139 C1126 0.962 . S
H1140 C1126 0.960 . S
H1141 C1127 0.961 . S
H1142 C1127 0.961 . S
H1143 C1127 0.961 . S
H1144 C1128 0.931 . S
H1145 C1133 0.930 . S
H1146 C1134 0.956 . S
H1147 C1134 0.961 . S
H1148 C1134 0.961 . S
H1149 C1135 0.958 . S
H1150 C1135 0.961 . S
H1151 C1135 0.960 . S
C1152 C1153 1.391 . S
C1152 C1154 1.394 . S
C1152 H1168 0.931 . S
C1153 C1152 1.391 . S
C1153 C1157 1.376 . S
C1154 C1152 1.394 . S
C1154 C1155 1.369 . S
C1154 C1158 1.531 . S
C1155 C1154 1.369 . S
C1155 C1156 1.410 . S
C1155 C1163 1.503 . S
C1156 C1155 1.410 . S
C1156 C1157 1.392 . S
C1156 C1159 1.511 . S
C1157 C1153 1.376 . S
C1157 C1156 1.392 . S
C1157 H1169 0.929 . S
C1158 C1154 1.531 . S
C1158 H1170 0.960 . S
C1158 H1171 0.962 . S
C1158 H1172 0.960 . S
C1159 C1156 1.511 . S
C1159 H1173 0.961 . S
C1159 H1174 0.961 . S
C1159 H1175 0.961 . S
C1160 C1161 1.370 . S
C1160 C1162 1.363 . S
C1160 H1176 0.931 . S
C1161 C1160 1.370 . S
C1161 C1165 1.408 . S
C1162 C1160 1.363 . S
C1162 C1163 1.370 . S
C1162 C1166 1.524 . S
C1163 C1155 1.503 . S
C1163 C1162 1.370 . S
C1163 C1164 1.403 . S
C1164 C1163 1.403 . S
C1164 C1165 1.404 . S
C1164 C1167 1.539 . S
C1165 C1161 1.408 . S
C1165 C1164 1.404 . S
C1165 H1177 0.930 . S
C1166 C1162 1.524 . S
C1166 H1178 0.956 . S
C1166 H1179 0.961 . S
C1166 H1180 0.961 . S
C1167 C1164 1.539 . S
C1167 H1181 0.958 . S
C1167 H1182 0.961 . S
C1167 H1183 0.960 . S
H1168 C1152 0.931 . S
H1169 C1157 0.929 . S
H1170 C1158 0.960 . S
H1171 C1158 0.962 . S
H1172 C1158 0.960 . S
H1173 C1159 0.961 . S
H1174 C1159 0.961 . S
H1175 C1159 0.961 . S
H1176 C1160 0.931 . S
H1177 C1165 0.930 . S
H1178 C1166 0.956 . S
H1179 C1166 0.961 . S
H1180 C1166 0.961 . S
H1181 C1167 0.958 . S
H1182 C1167 0.961 . S
H1183 C1167 0.960 . S
C1184 C1185 1.391 . S
C1184 C1186 1.394 . S
C1184 H1200 0.931 . S
C1185 C1184 1.391 . S
C1185 C1189 1.376 . S
C1186 C1184 1.394 . S
C1186 C1187 1.369 . S
C1186 C1190 1.531 . S
C1187 C1186 1.369 . S
C1187 C1188 1.410 . S
C1187 C1195 1.503 . S
C1188 C1187 1.410 . S
C1188 C1189 1.392 . S
C1188 C1191 1.511 . S
C1189 C1185 1.376 . S
C1189 C1188 1.392 . S
C1189 H1201 0.929 . S
C1190 C1186 1.531 . S
C1190 H1202 0.960 . S
C1190 H1203 0.962 . S
C1190 H1204 0.960 . S
C1191 C1188 1.511 . S
C1191 H1205 0.961 . S
C1191 H1206 0.961 . S
C1191 H1207 0.961 . S
C1192 C1193 1.370 . S
C1192 C1194 1.363 . S
C1192 H1208 0.931 . S
C1193 C1192 1.370 . S
C1193 C1197 1.408 . S
C1194 C1192 1.363 . S
C1194 C1195 1.370 . S
C1194 C1198 1.524 . S
C1195 C1187 1.503 . S
C1195 C1194 1.370 . S
C1195 C1196 1.403 . S
C1196 C1195 1.403 . S
C1196 C1197 1.404 . S
C1196 C1199 1.539 . S
C1197 C1193 1.408 . S
C1197 C1196 1.404 . S
C1197 H1209 0.930 . S
C1198 C1194 1.524 . S
C1198 H1210 0.956 . S
C1198 H1211 0.961 . S
C1198 H1212 0.961 . S
C1199 C1196 1.539 . S
C1199 H1213 0.958 . S
C1199 H1214 0.961 . S
C1199 H1215 0.960 . S
H1200 C1184 0.931 . S
H1201 C1189 0.929 . S
H1202 C1190 0.960 . S
H1203 C1190 0.962 . S
H1204 C1190 0.960 . S
H1205 C1191 0.961 . S
H1206 C1191 0.961 . S
H1207 C1191 0.961 . S
H1208 C1192 0.931 . S
H1209 C1197 0.930 . S
H1210 C1198 0.956 . S
H1211 C1198 0.961 . S
H1212 C1198 0.961 . S
H1213 C1199 0.958 . S
H1214 C1199 0.961 . S
H1215 C1199 0.960 . S
C1216 C1217 1.391 . S
C1216 C1218 1.394 . S
C1216 H1232 0.931 . S
C1217 C1216 1.391 . S
C1217 C1221 1.376 . S
C1218 C1216 1.394 . S
C1218 C1219 1.369 . S
C1218 C1222 1.531 . S
C1219 C1218 1.369 . S
C1219 C1220 1.410 . S
C1219 C1227 1.503 . S
C1220 C1219 1.410 . S
C1220 C1221 1.392 . S
C1220 C1223 1.511 . S
C1221 C1217 1.376 . S
C1221 C1220 1.392 . S
C1221 H1233 0.929 . S
C1222 C1218 1.531 . S
C1222 H1234 0.960 . S
C1222 H1235 0.962 . S
C1222 H1236 0.960 . S
C1223 C1220 1.511 . S
C1223 H1237 0.961 . S
C1223 H1238 0.961 . S
C1223 H1239 0.961 . S
C1224 C1225 1.370 . S
C1224 C1226 1.363 . S
C1224 H1240 0.931 . S
C1225 C1224 1.370 . S
C1225 C1229 1.408 . S
C1226 C1224 1.363 . S
C1226 C1227 1.370 . S
C1226 C1230 1.524 . S
C1227 C1219 1.503 . S
C1227 C1226 1.370 . S
C1227 C1228 1.403 . S
C1228 C1227 1.403 . S
C1228 C1229 1.404 . S
C1228 C1231 1.539 . S
C1229 C1225 1.408 . S
C1229 C1228 1.404 . S
C1229 H1241 0.930 . S
C1230 C1226 1.524 . S
C1230 H1242 0.956 . S
C1230 H1243 0.961 . S
C1230 H1244 0.961 . S
C1231 C1228 1.539 . S
C1231 H1245 0.958 . S
C1231 H1246 0.961 . S
C1231 H1247 0.960 . S
H1232 C1216 0.931 . S
H1233 C1221 0.929 . S
H1234 C1222 0.960 . S
H1235 C1222 0.962 . S
H1236 C1222 0.960 . S
H1237 C1223 0.961 . S
H1238 C1223 0.961 . S
H1239 C1223 0.961 . S
H1240 C1224 0.931 . S
H1241 C1229 0.930 . S
H1242 C1230 0.956 . S
H1243 C1230 0.961 . S
H1244 C1230 0.961 . S
H1245 C1231 0.958 . S
H1246 C1231 0.961 . S
H1247 C1231 0.960 . S
C1248 C1249 1.391 . S
C1248 C1250 1.394 . S
C1248 H1264 0.931 . S
C1249 C1248 1.391 . S
C1249 C1253 1.376 . S
C1250 C1248 1.394 . S
C1250 C1251 1.369 . S
C1250 C1254 1.531 . S
C1251 C1250 1.369 . S
C1251 C1252 1.410 . S
C1251 C1259 1.503 . S
C1252 C1251 1.410 . S
C1252 C1253 1.392 . S
C1252 C1255 1.511 . S
C1253 C1249 1.376 . S
C1253 C1252 1.392 . S
C1253 H1265 0.929 . S
C1254 C1250 1.531 . S
C1254 H1266 0.960 . S
C1254 H1267 0.962 . S
C1254 H1268 0.960 . S
C1255 C1252 1.511 . S
C1255 H1269 0.961 . S
C1255 H1270 0.961 . S
C1255 H1271 0.961 . S
C1256 C1257 1.370 . S
C1256 C1258 1.363 . S
C1256 H1272 0.931 . S
C1257 C1256 1.370 . S
C1257 C1261 1.408 . S
C1258 C1256 1.363 . S
C1258 C1259 1.370 . S
C1258 C1262 1.524 . S
C1259 C1251 1.503 . S
C1259 C1258 1.370 . S
C1259 C1260 1.403 . S
C1260 C1259 1.403 . S
C1260 C1261 1.404 . S
C1260 C1263 1.539 . S
C1261 C1257 1.408 . S
C1261 C1260 1.404 . S
C1261 H1273 0.930 . S
C1262 C1258 1.524 . S
C1262 H1274 0.956 . S
C1262 H1275 0.961 . S
C1262 H1276 0.961 . S
C1263 C1260 1.539 . S
C1263 H1277 0.958 . S
C1263 H1278 0.961 . S
C1263 H1279 0.960 . S
H1264 C1248 0.931 . S
H1265 C1253 0.929 . S
H1266 C1254 0.960 . S
H1267 C1254 0.962 . S
H1268 C1254 0.960 . S
H1269 C1255 0.961 . S
H1270 C1255 0.961 . S
H1271 C1255 0.961 . S
H1272 C1256 0.931 . S
H1273 C1261 0.930 . S
H1274 C1262 0.956 . S
H1275 C1262 0.961 . S
H1276 C1262 0.961 . S
H1277 C1263 0.958 . S
H1278 C1263 0.961 . S
H1279 C1263 0.960 . S
C1280 C1281 1.391 . S
C1280 C1282 1.394 . S
C1280 H1296 0.931 . S
C1281 C1280 1.391 . S
C1281 C1285 1.376 . S
C1282 C1280 1.394 . S
C1282 C1283 1.369 . S
C1282 C1286 1.531 . S
C1283 C1282 1.369 . S
C1283 C1284 1.410 . S
C1283 C1291 1.503 . S
C1284 C1283 1.410 . S
C1284 C1285 1.392 . S
C1284 C1287 1.511 . S
C1285 C1281 1.376 . S
C1285 C1284 1.392 . S
C1285 H1297 0.929 . S
C1286 C1282 1.531 . S
C1286 H1298 0.960 . S
C1286 H1299 0.962 . S
C1286 H1300 0.960 . S
C1287 C1284 1.511 . S
C1287 H1301 0.961 . S
C1287 H1302 0.961 . S
C1287 H1303 0.961 . S
C1288 C1289 1.370 . S
C1288 C1290 1.363 . S
C1288 H1304 0.931 . S
C1289 C1288 1.370 . S
C1289 C1293 1.408 . S
C1290 C1288 1.363 . S
C1290 C1291 1.370 . S
C1290 C1294 1.524 . S
C1291 C1283 1.503 . S
C1291 C1290 1.370 . S
C1291 C1292 1.403 . S
C1292 C1291 1.403 . S
C1292 C1293 1.404 . S
C1292 C1295 1.539 . S
C1293 C1289 1.408 . S
C1293 C1292 1.404 . S
C1293 H1305 0.930 . S
C1294 C1290 1.524 . S
C1294 H1306 0.956 . S
C1294 H1307 0.961 . S
C1294 H1308 0.961 . S
C1295 C1292 1.539 . S
C1295 H1309 0.958 . S
C1295 H1310 0.961 . S
C1295 H1311 0.960 . S
H1296 C1280 0.931 . S
H1297 C1285 0.929 . S
H1298 C1286 0.960 . S
H1299 C1286 0.962 . S
H1300 C1286 0.960 . S
H1301 C1287 0.961 . S
H1302 C1287 0.961 . S
H1303 C1287 0.961 . S
H1304 C1288 0.931 . S
H1305 C1293 0.930 . S
H1306 C1294 0.956 . S
H1307 C1294 0.961 . S
H1308 C1294 0.961 . S
H1309 C1295 0.958 . S
H1310 C1295 0.961 . S
H1311 C1295 0.960 . S
C1312 C1313 1.391 . S
C1312 C1314 1.394 . S
C1312 H1328 0.931 . S
C1313 C1312 1.391 . S
C1313 C1317 1.376 . S
C1314 C1312 1.394 . S
C1314 C1315 1.369 . S
C1314 C1318 1.531 . S
C1315 C1314 1.369 . S
C1315 C1316 1.410 . S
C1315 C1323 1.503 . S
C1316 C1315 1.410 . S
C1316 C1317 1.392 . S
C1316 C1319 1.511 . S
C1317 C1313 1.376 . S
C1317 C1316 1.392 . S
C1317 H1329 0.929 . S
C1318 C1314 1.531 . S
C1318 H1330 0.960 . S
C1318 H1331 0.962 . S
C1318 H1332 0.960 . S
C1319 C1316 1.511 . S
C1319 H1333 0.961 . S
C1319 H1334 0.961 . S
C1319 H1335 0.961 . S
C1320 C1321 1.370 . S
C1320 C1322 1.363 . S
C1320 H1336 0.931 . S
C1321 C1320 1.370 . S
C1321 C1325 1.408 . S
C1322 C1320 1.363 . S
C1322 C1323 1.370 . S
C1322 C1326 1.524 . S
C1323 C1315 1.503 . S
C1323 C1322 1.370 . S
C1323 C1324 1.403 . S
C1324 C1323 1.403 . S
C1324 C1325 1.404 . S
C1324 C1327 1.539 . S
C1325 C1321 1.408 . S
C1325 C1324 1.404 . S
C1325 H1337 0.930 . S
C1326 C1322 1.524 . S
C1326 H1338 0.956 . S
C1326 H1339 0.961 . S
C1326 H1340 0.961 . S
C1327 C1324 1.539 . S
C1327 H1341 0.958 . S
C1327 H1342 0.961 . S
C1327 H1343 0.960 . S
H1328 C1312 0.931 . S
H1329 C1317 0.929 . S
H1330 C1318 0.960 . S
H1331 C1318 0.962 . S
H1332 C1318 0.960 . S
H1333 C1319 0.961 . S
H1334 C1319 0.961 . S
H1335 C1319 0.961 . S
H1336 C1320 0.931 . S
H1337 C1325 0.930 . S
H1338 C1326 0.956 . S
H1339 C1326 0.961 . S
H1340 C1326 0.961 . S
H1341 C1327 0.958 . S
H1342 C1327 0.961 . S
H1343 C1327 0.960 . S
C1344 C1345 1.391 . S
C1344 C1346 1.394 . S
C1344 H1360 0.931 . S
C1345 C1344 1.391 . S
C1345 C1349 1.376 . S
C1346 C1344 1.394 . S
C1346 C1347 1.369 . S
C1346 C1350 1.531 . S
C1347 C1346 1.369 . S
C1347 C1348 1.410 . S
C1347 C1355 1.503 . S
C1348 C1347 1.410 . S
C1348 C1349 1.392 . S
C1348 C1351 1.511 . S
C1349 C1345 1.376 . S
C1349 C1348 1.392 . S
C1349 H1361 0.929 . S
C1350 C1346 1.531 . S
C1350 H1362 0.960 . S
C1350 H1363 0.962 . S
C1350 H1364 0.960 . S
C1351 C1348 1.511 . S
C1351 H1365 0.961 . S
C1351 H1366 0.961 . S
C1351 H1367 0.961 . S
C1352 C1353 1.370 . S
C1352 C1354 1.363 . S
C1352 H1368 0.931 . S
C1353 C1352 1.370 . S
C1353 C1357 1.408 . S
C1354 C1352 1.363 . S
C1354 C1355 1.370 . S
C1354 C1358 1.524 . S
C1355 C1347 1.503 . S
C1355 C1354 1.370 . S
C1355 C1356 1.403 . S
C1356 C1355 1.403 . S
C1356 C1357 1.404 . S
C1356 C1359 1.539 . S
C1357 C1353 1.408 . S
C1357 C1356 1.404 . S
C1357 H1369 0.930 . S
C1358 C1354 1.524 . S
C1358 H1370 0.956 . S
C1358 H1371 0.961 . S
C1358 H1372 0.961 . S
C1359 C1356 1.539 . S
C1359 H1373 0.958 . S
C1359 H1374 0.961 . S
C1359 H1375 0.960 . S
H1360 C1344 0.931 . S
H1361 C1349 0.929 . S
H1362 C1350 0.960 . S
H1363 C1350 0.962 . S
H1364 C1350 0.960 . S
H1365 C1351 0.961 . S
H1366 C1351 0.961 . S
H1367 C1351 0.961 . S
H1368 C1352 0.931 . S
H1369 C1357 0.930 . S
H1370 C1358 0.956 . S
H1371 C1358 0.961 . S
H1372 C1358 0.961 . S
H1373 C1359 0.958 . S
H1374 C1359 0.961 . S
H1375 C1359 0.960 . S
C1376 C1377 1.391 . S
C1376 C1378 1.394 . S
C1376 H1392 0.931 . S
C1377 C1376 1.391 . S
C1377 C1381 1.376 . S
C1378 C1376 1.394 . S
C1378 C1379 1.369 . S
C1378 C1382 1.531 . S
C1379 C1378 1.369 . S
C1379 C1380 1.410 . S
C1379 C1387 1.503 . S
C1380 C1379 1.410 . S
C1380 C1381 1.392 . S
C1380 C1383 1.511 . S
C1381 C1377 1.376 . S
C1381 C1380 1.392 . S
C1381 H1393 0.929 . S
C1382 C1378 1.531 . S
C1382 H1394 0.960 . S
C1382 H1395 0.962 . S
C1382 H1396 0.960 . S
C1383 C1380 1.511 . S
C1383 H1397 0.961 . S
C1383 H1398 0.961 . S
C1383 H1399 0.961 . S
C1384 C1385 1.370 . S
C1384 C1386 1.363 . S
C1384 H1400 0.931 . S
C1385 C1384 1.370 . S
C1385 C1389 1.408 . S
C1386 C1384 1.363 . S
C1386 C1387 1.370 . S
C1386 C1390 1.524 . S
C1387 C1379 1.503 . S
C1387 C1386 1.370 . S
C1387 C1388 1.403 . S
C1388 C1387 1.403 . S
C1388 C1389 1.404 . S
C1388 C1391 1.539 . S
C1389 C1385 1.408 . S
C1389 C1388 1.404 . S
C1389 H1401 0.930 . S
C1390 C1386 1.524 . S
C1390 H1402 0.956 . S
C1390 H1403 0.961 . S
C1390 H1404 0.961 . S
C1391 C1388 1.539 . S
C1391 H1405 0.958 . S
C1391 H1406 0.961 . S
C1391 H1407 0.960 . S
H1392 C1376 0.931 . S
H1393 C1381 0.929 . S
H1394 C1382 0.960 . S
H1395 C1382 0.962 . S
H1396 C1382 0.960 . S
H1397 C1383 0.961 . S
H1398 C1383 0.961 . S
H1399 C1383 0.961 . S
H1400 C1384 0.931 . S
H1401 C1389 0.930 . S
H1402 C1390 0.956 . S
H1403 C1390 0.961 . S
H1404 C1390 0.961 . S
H1405 C1391 0.958 . S
H1406 C1391 0.961 . S
H1407 C1391 0.960 . S
C1408 C1409 1.391 . S
C1408 C1410 1.394 . S
C1408 H1424 0.931 . S
C1409 C1408 1.391 . S
C1409 C1413 1.376 . S
C1410 C1408 1.394 . S
C1410 C1411 1.369 . S
C1410 C1414 1.531 . S
C1411 C1410 1.369 . S
C1411 C1412 1.410 . S
C1411 C1419 1.503 . S
C1412 C1411 1.410 . S
C1412 C1413 1.392 . S
C1412 C1415 1.511 . S
C1413 C1409 1.376 . S
C1413 C1412 1.392 . S
C1413 H1425 0.929 . S
C1414 C1410 1.531 . S
C1414 H1426 0.960 . S
C1414 H1427 0.962 . S
C1414 H1428 0.960 . S
C1415 C1412 1.511 . S
C1415 H1429 0.961 . S
C1415 H1430 0.961 . S
C1415 H1431 0.961 . S
C1416 C1417 1.370 . S
C1416 C1418 1.363 . S
C1416 H1432 0.931 . S
C1417 C1416 1.370 . S
C1417 C1421 1.408 . S
C1418 C1416 1.363 . S
C1418 C1419 1.370 . S
C1418 C1422 1.524 . S
C1419 C1411 1.503 . S
C1419 C1418 1.370 . S
C1419 C1420 1.403 . S
C1420 C1419 1.403 . S
C1420 C1421 1.404 . S
C1420 C1423 1.539 . S
C1421 C1417 1.408 . S
C1421 C1420 1.404 . S
C1421 H1433 0.930 . S
C1422 C1418 1.524 . S
C1422 H1434 0.956 . S
C1422 H1435 0.961 . S
C1422 H1436 0.961 . S
C1423 C1420 1.539 . S
C1423 H1437 0.958 . S
C1423 H1438 0.961 . S
C1423 H1439 0.960 . S
H1424 C1408 0.931 . S
H1425 C1413 0.929 . S
H1426 C1414 0.960 . S
H1427 C1414 0.962 . S
H1428 C1414 0.960 . S
H1429 C1415 0.961 . S
H1430 C1415 0.961 . S
H1431 C1415 0.961 . S
H1432 C1416 0.931 . S
H1433 C1421 0.930 . S
H1434 C1422 0.956 . S
H1435 C1422 0.961 . S
H1436 C1422 0.961 . S
H1437 C1423 0.958 . S
H1438 C1423 0.961 . S
H1439 C1423 0.960 . S
C1440 C1441 1.391 . S
C1440 C1442 1.394 . S
C1440 H1456 0.931 . S
C1441 C1440 1.391 . S
C1441 C1445 1.376 . S
C1442 C1440 1.394 . S
C1442 C1443 1.369 . S
C1442 C1446 1.531 . S
C1443 C1442 1.369 . S
C1443 C1444 1.410 . S
C1443 C1451 1.503 . S
C1444 C1443 1.410 . S
C1444 C1445 1.392 . S
C1444 C1447 1.511 . S
C1445 C1441 1.376 . S
C1445 C1444 1.392 . S
C1445 H1457 0.929 . S
C1446 C1442 1.531 . S
C1446 H1458 0.960 . S
C1446 H1459 0.962 . S
C1446 H1460 0.960 . S
C1447 C1444 1.511 . S
C1447 H1461 0.961 . S
C1447 H1462 0.961 . S
C1447 H1463 0.961 . S
C1448 C1449 1.370 . S
C1448 C1450 1.363 . S
C1448 H1464 0.931 . S
C1449 C1448 1.370 . S
C1449 C1453 1.408 . S
C1450 C1448 1.363 . S
C1450 C1451 1.370 . S
C1450 C1454 1.524 . S
C1451 C1443 1.503 . S
C1451 C1450 1.370 . S
C1451 C1452 1.403 . S
C1452 C1451 1.403 . S
C1452 C1453 1.404 . S
C1452 C1455 1.539 . S
C1453 C1449 1.408 . S
C1453 C1452 1.404 . S
C1453 H1465 0.930 . S
C1454 C1450 1.524 . S
C1454 H1466 0.956 . S
C1454 H1467 0.961 . S
C1454 H1468 0.961 . S
C1455 C1452 1.539 . S
C1455 H1469 0.958 . S
C1455 H1470 0.961 . S
C1455 H1471 0.960 . S
H1456 C1440 0.931 . S
H1457 C1445 0.929 . S
H1458 C1446 0.960 . S
H1459 C1446 0.962 . S
H1460 C1446 0.960 . S
H1461 C1447 0.961 . S
H1462 C1447 0.961 . S
H1463 C1447 0.961 . S
H1464 C1448 0.931 . S
H1465 C1453 0.930 . S
H1466 C1454 0.956 . S
H1467 C1454 0.961 . S
H1468 C1454 0.961 . S
H1469 C1455 0.958 . S
H1470 C1455 0.961 . S
H1471 C1455 0.960 . S
C1472 C1473 1.391 . S
C1472 C1474 1.394 . S
C1472 H1488 0.931 . S
C1473 C1472 1.391 . S
C1473 C1477 1.376 . S
C1474 C1472 1.394 . S
C1474 C1475 1.369 . S
C1474 C1478 1.531 . S
C1475 C1474 1.369 . S
C1475 C1476 1.410 . S
C1475 C1483 1.503 . S
C1476 C1475 1.410 . S
C1476 C1477 1.392 . S
C1476 C1479 1.511 . S
C1477 C1473 1.376 . S
C1477 C1476 1.392 . S
C1477 H1489 0.929 . S
C1478 C1474 1.531 . S
C1478 H1490 0.960 . S
C1478 H1491 0.962 . S
C1478 H1492 0.960 . S
C1479 C1476 1.511 . S
C1479 H1493 0.961 . S
C1479 H1494 0.961 . S
C1479 H1495 0.961 . S
C1480 C1481 1.370 . S
C1480 C1482 1.363 . S
C1480 H1496 0.931 . S
C1481 C1480 1.370 . S
C1481 C1485 1.408 . S
C1482 C1480 1.363 . S
C1482 C1483 1.370 . S
C1482 C1486 1.524 . S
C1483 C1475 1.503 . S
C1483 C1482 1.370 . S
C1483 C1484 1.403 . S
C1484 C1483 1.403 . S
C1484 C1485 1.404 . S
C1484 C1487 1.539 . S
C1485 C1481 1.408 . S
C1485 C1484 1.404 . S
C1485 H1497 0.930 . S
C1486 C1482 1.524 . S
C1486 H1498 0.956 . S
C1486 H1499 0.961 . S
C1486 H1500 0.961 . S
C1487 C1484 1.539 . S
C1487 H1501 0.958 . S
C1487 H1502 0.961 . S
C1487 H1503 0.960 . S
H1488 C1472 0.931 . S
H1489 C1477 0.929 . S
H1490 C1478 0.960 . S
H1491 C1478 0.962 . S
H1492 C1478 0.960 . S
H1493 C1479 0.961 . S
H1494 C1479 0.961 . S
H1495 C1479 0.961 . S
H1496 C1480 0.931 . S
H1497 C1485 0.930 . S
H1498 C1486 0.956 . S
H1499 C1486 0.961 . S
H1500 C1486 0.961 . S
H1501 C1487 0.958 . S
H1502 C1487 0.961 . S
H1503 C1487 0.960 . S
C1504 C1505 1.391 . S
C1504 C1506 1.394 . S
C1504 H1520 0.931 . S
C1505 C1504 1.391 . S
C1505 C1509 1.376 . S
C1506 C1504 1.394 . S
C1506 C1507 1.369 . S
C1506 C1510 1.531 . S
C1507 C1506 1.369 . S
C1507 C1508 1.410 . S
C1507 C1515 1.503 . S
C1508 C1507 1.410 . S
C1508 C1509 1.392 . S
C1508 C1511 1.511 . S
C1509 C1505 1.376 . S
C1509 C1508 1.392 . S
C1509 H1521 0.929 . S
C1510 C1506 1.531 . S
C1510 H1522 0.960 . S
C1510 H1523 0.962 . S
C1510 H1524 0.960 . S
C1511 C1508 1.511 . S
C1511 H1525 0.961 . S
C1511 H1526 0.961 . S
C1511 H1527 0.961 . S
C1512 C1513 1.370 . S
C1512 C1514 1.363 . S
C1512 H1528 0.931 . S
C1513 C1512 1.370 . S
C1513 C1517 1.408 . S
C1514 C1512 1.363 . S
C1514 C1515 1.370 . S
C1514 C1518 1.524 . S
C1515 C1507 1.503 . S
C1515 C1514 1.370 . S
C1515 C1516 1.403 . S
C1516 C1515 1.403 . S
C1516 C1517 1.404 . S
C1516 C1519 1.539 . S
C1517 C1513 1.408 . S
C1517 C1516 1.404 . S
C1517 H1529 0.930 . S
C1518 C1514 1.524 . S
C1518 H1530 0.956 . S
C1518 H1531 0.961 . S
C1518 H1532 0.961 . S
C1519 C1516 1.539 . S
C1519 H1533 0.958 . S
C1519 H1534 0.961 . S
C1519 H1535 0.960 . S
H1520 C1504 0.931 . S
H1521 C1509 0.929 . S
H1522 C1510 0.960 . S
H1523 C1510 0.962 . S
H1524 C1510 0.960 . S
H1525 C1511 0.961 . S
H1526 C1511 0.961 . S
H1527 C1511 0.961 . S
H1528 C1512 0.931 . S
H1529 C1517 0.930 . S
H1530 C1518 0.956 . S
H1531 C1518 0.961 . S
H1532 C1518 0.961 . S
H1533 C1519 0.958 . S
H1534 C1519 0.961 . S
H1535 C1519 0.960 . S
C1536 C1537 1.391 . S
C1536 C1538 1.394 . S
C1536 H1552 0.931 . S
C1537 C1536 1.391 . S
C1537 C1541 1.376 . S
C1538 C1536 1.394 . S
C1538 C1539 1.369 . S
C1538 C1542 1.531 . S
C1539 C1538 1.369 . S
C1539 C1540 1.410 . S
C1539 C1547 1.503 . S
C1540 C1539 1.410 . S
C1540 C1541 1.392 . S
C1540 C1543 1.511 . S
C1541 C1537 1.376 . S
C1541 C1540 1.392 . S
C1541 H1553 0.929 . S
C1542 C1538 1.531 . S
C1542 H1554 0.960 . S
C1542 H1555 0.962 . S
C1542 H1556 0.960 . S
C1543 C1540 1.511 . S
C1543 H1557 0.961 . S
C1543 H1558 0.961 . S
C1543 H1559 0.961 . S
C1544 C1545 1.370 . S
C1544 C1546 1.363 . S
C1544 H1560 0.931 . S
C1545 C1544 1.370 . S
C1545 C1549 1.408 . S
C1546 C1544 1.363 . S
C1546 C1547 1.370 . S
C1546 C1550 1.524 . S
C1547 C1539 1.503 . S
C1547 C1546 1.370 . S
C1547 C1548 1.403 . S
C1548 C1547 1.403 . S
C1548 C1549 1.404 . S
C1548 C1551 1.539 . S
C1549 C1545 1.408 . S
C1549 C1548 1.404 . S
C1549 H1561 0.930 . S
C1550 C1546 1.524 . S
C1550 H1562 0.956 . S
C1550 H1563 0.961 . S
C1550 H1564 0.961 . S
C1551 C1548 1.539 . S
C1551 H1565 0.958 . S
C1551 H1566 0.961 . S
C1551 H1567 0.960 . S
H1552 C1536 0.931 . S
H1553 C1541 0.929 . S
H1554 C1542 0.960 . S
H1555 C1542 0.962 . S
H1556 C1542 0.960 . S
H1557 C1543 0.961 . S
H1558 C1543 0.961 . S
H1559 C1543 0.961 . S
H1560 C1544 0.931 . S
H1561 C1549 0.930 . S
H1562 C1550 0.956 . S
H1563 C1550 0.961 . S
H1564 C1550 0.961 . S
H1565 C1551 0.958 . S
H1566 C1551 0.961 . S
H1567 C1551 0.960 . S
C1568 C1569 1.391 . S
C1568 C1570 1.394 . S
C1568 H1584 0.931 . S
C1569 C1568 1.391 . S
C1569 C1573 1.376 . S
C1570 C1568 1.394 . S
C1570 C1571 1.369 . S
C1570 C1574 1.531 . S
C1571 C1570 1.369 . S
C1571 C1572 1.410 . S
C1571 C1579 1.503 . S
C1572 C1571 1.410 . S
C1572 C1573 1.392 . S
C1572 C1575 1.511 . S
C1573 C1569 1.376 . S
C1573 C1572 1.392 . S
C1573 H1585 0.929 . S
C1574 C1570 1.531 . S
C1574 H1586 0.960 . S
C1574 H1587 0.962 . S
C1574 H1588 0.960 . S
C1575 C1572 1.511 . S
C1575 H1589 0.961 . S
C1575 H1590 0.961 . S
C1575 H1591 0.961 . S
C1576 C1577 1.370 . S
C1576 C1578 1.363 . S
C1576 H1592 0.931 . S
C1577 C1576 1.370 . S
C1577 C1581 1.408 . S
C1578 C1576 1.363 . S
C1578 C1579 1.370 . S
C1578 C1582 1.524 . S
C1579 C1571 1.503 . S
C1579 C1578 1.370 . S
C1579 C1580 1.403 . S
C1580 C1579 1.403 . S
C1580 C1581 1.404 . S
C1580 C1583 1.539 . S
C1581 C1577 1.408 . S
C1581 C1580 1.404 . S
C1581 H1593 0.930 . S
C1582 C1578 1.524 . S
C1582 H1594 0.956 . S
C1582 H1595 0.961 . S
C1582 H1596 0.961 . S
C1583 C1580 1.539 . S
C1583 H1597 0.958 . S
C1583 H1598 0.961 . S
C1583 H1599 0.960 . S
H1584 C1568 0.931 . S
H1585 C1573 0.929 . S
H1586 C1574 0.960 . S
H1587 C1574 0.962 . S
H1588 C1574 0.960 . S
H1589 C1575 0.961 . S
H1590 C1575 0.961 . S
H1591 C1575 0.961 . S
H1592 C1576 0.931 . S
H1593 C1581 0.930 . S
H1594 C1582 0.956 . S
H1595 C1582 0.961 . S
H1596 C1582 0.961 . S
H1597 C1583 0.958 . S
H1598 C1583 0.961 . S
H1599 C1583 0.960 . S
C1600 C1601 1.391 . S
C1600 C1602 1.394 . S
C1600 H1616 0.931 . S
C1601 C1600 1.391 . S
C1601 C1605 1.376 . S
C1602 C1600 1.394 . S
C1602 C1603 1.369 . S
C1602 C1606 1.531 . S
C1603 C1602 1.369 . S
C1603 C1604 1.410 . S
C1603 C1611 1.503 . S
C1604 C1603 1.410 . S
C1604 C1605 1.392 . S
C1604 C1607 1.511 . S
C1605 C1601 1.376 . S
C1605 C1604 1.392 . S
C1605 H1617 0.929 . S
C1606 C1602 1.531 . S
C1606 H1618 0.960 . S
C1606 H1619 0.962 . S
C1606 H1620 0.960 . S
C1607 C1604 1.511 . S
C1607 H1621 0.961 . S
C1607 H1622 0.961 . S
C1607 H1623 0.961 . S
C1608 C1609 1.370 . S
C1608 C1610 1.363 . S
C1608 H1624 0.931 . S
C1609 C1608 1.370 . S
C1609 C1613 1.408 . S
C1610 C1608 1.363 . S
C1610 C1611 1.370 . S
C1610 C1614 1.524 . S
C1611 C1603 1.503 . S
C1611 C1610 1.370 . S
C1611 C1612 1.403 . S
C1612 C1611 1.403 . S
C1612 C1613 1.404 . S
C1612 C1615 1.539 . S
C1613 C1609 1.408 . S
C1613 C1612 1.404 . S
C1613 H1625 0.930 . S
C1614 C1610 1.524 . S
C1614 H1626 0.956 . S
C1614 H1627 0.961 . S
C1614 H1628 0.961 . S
C1615 C1612 1.539 . S
C1615 H1629 0.958 . S
C1615 H1630 0.961 . S
C1615 H1631 0.960 . S
H1616 C1600 0.931 . S
H1617 C1605 0.929 . S
H1618 C1606 0.960 . S
H1619 C1606 0.962 . S
H1620 C1606 0.960 . S
H1621 C1607 0.961 . S
H1622 C1607 0.961 . S
H1623 C1607 0.961 . S
H1624 C1608 0.931 . S
H1625 C1613 0.930 . S
H1626 C1614 0.956 . S
H1627 C1614 0.961 . S
H1628 C1614 0.961 . S
H1629 C1615 0.958 . S
H1630 C1615 0.961 . S
H1631 C1615 0.960 . S
C1632 C1633 1.391 . S
C1632 C1634 1.394 . S
C1632 H1648 0.931 . S
C1633 C1632 1.391 . S
C1633 C1637 1.376 . S
C1634 C1632 1.394 . S
C1634 C1635 1.369 . S
C1634 C1638 1.531 . S
C1635 C1634 1.369 . S
C1635 C1636 1.410 . S
C1635 C1643 1.503 . S
C1636 C1635 1.410 . S
C1636 C1637 1.392 . S
C1636 C1639 1.511 . S
C1637 C1633 1.376 . S
C1637 C1636 1.392 . S
C1637 H1649 0.929 . S
C1638 C1634 1.531 . S
C1638 H1650 0.960 . S
C1638 H1651 0.962 . S
C1638 H1652 0.960 . S
C1639 C1636 1.511 . S
C1639 H1653 0.961 . S
C1639 H1654 0.961 . S
C1639 H1655 0.961 . S
C1640 C1641 1.370 . S
C1640 C1642 1.363 . S
C1640 H1656 0.931 . S
C1641 C1640 1.370 . S
C1641 C1645 1.408 . S
C1642 C1640 1.363 . S
C1642 C1643 1.370 . S
C1642 C1646 1.524 . S
C1643 C1635 1.503 . S
C1643 C1642 1.370 . S
C1643 C1644 1.403 . S
C1644 C1643 1.403 . S
C1644 C1645 1.404 . S
C1644 C1647 1.539 . S
C1645 C1641 1.408 . S
C1645 C1644 1.404 . S
C1645 H1657 0.930 . S
C1646 C1642 1.524 . S
C1646 H1658 0.956 . S
C1646 H1659 0.961 . S
C1646 H1660 0.961 . S
C1647 C1644 1.539 . S
C1647 H1661 0.958 . S
C1647 H1662 0.961 . S
C1647 H1663 0.960 . S
H1648 C1632 0.931 . S
H1649 C1637 0.929 . S
H1650 C1638 0.960 . S
H1651 C1638 0.962 . S
H1652 C1638 0.960 . S
H1653 C1639 0.961 . S
H1654 C1639 0.961 . S
H1655 C1639 0.961 . S
H1656 C1640 0.931 . S
H1657 C1645 0.930 . S
H1658 C1646 0.956 . S
H1659 C1646 0.961 . S
H1660 C1646 0.961 . S
H1661 C1647 0.958 . S
H1662 C1647 0.961 . S
H1663 C1647 0.960 . S
C1664 C1665 1.391 . S
C1664 C1666 1.394 . S
C1664 H1680 0.931 . S
C1665 C1664 1.391 . S
C1665 C1669 1.376 . S
C1666 C1664 1.394 . S
C1666 C1667 1.369 . S
C1666 C1670 1.531 . S
C1667 C1666 1.369 . S
C1667 C1668 1.410 . S
C1667 C1675 1.503 . S
C1668 C1667 1.410 . S
C1668 C1669 1.392 . S
C1668 C1671 1.511 . S
C1669 C1665 1.376 . S
C1669 C1668 1.392 . S
C1669 H1681 0.929 . S
C1670 C1666 1.531 . S
C1670 H1682 0.960 . S
C1670 H1683 0.962 . S
C1670 H1684 0.960 . S
C1671 C1668 1.511 . S
C1671 H1685 0.961 . S
C1671 H1686 0.961 . S
C1671 H1687 0.961 . S
C1672 C1673 1.370 . S
C1672 C1674 1.363 . S
C1672 H1688 0.931 . S
C1673 C1672 1.370 . S
C1673 C1677 1.408 . S
C1674 C1672 1.363 . S
C1674 C1675 1.370 . S
C1674 C1678 1.524 . S
C1675 C1667 1.503 . S
C1675 C1674 1.370 . S
C1675 C1676 1.403 . S
C1676 C1675 1.403 . S
C1676 C1677 1.404 . S
C1676 C1679 1.539 . S
C1677 C1673 1.408 . S
C1677 C1676 1.404 . S
C1677 H1689 0.930 . S
C1678 C1674 1.524 . S
C1678 H1690 0.956 . S
C1678 H1691 0.961 . S
C1678 H1692 0.961 . S
C1679 C1676 1.539 . S
C1679 H1693 0.958 . S
C1679 H1694 0.961 . S
C1679 H1695 0.960 . S
H1680 C1664 0.931 . S
H1681 C1669 0.929 . S
H1682 C1670 0.960 . S
H1683 C1670 0.962 . S
H1684 C1670 0.960 . S
H1685 C1671 0.961 . S
H1686 C1671 0.961 . S
H1687 C1671 0.961 . S
H1688 C1672 0.931 . S
H1689 C1677 0.930 . S
H1690 C1678 0.956 . S
H1691 C1678 0.961 . S
H1692 C1678 0.961 . S
H1693 C1679 0.958 . S
H1694 C1679 0.961 . S
H1695 C1679 0.960 . S
C1696 C1697 1.391 . S
C1696 C1698 1.394 . S
C1696 H1712 0.931 . S
C1697 C1696 1.391 . S
C1697 C1701 1.376 . S
C1698 C1696 1.394 . S
C1698 C1699 1.369 . S
C1698 C1702 1.531 . S
C1699 C1698 1.369 . S
C1699 C1700 1.410 . S
C1699 C1707 1.503 . S
C1700 C1699 1.410 . S
C1700 C1701 1.392 . S
C1700 C1703 1.511 . S
C1701 C1697 1.376 . S
C1701 C1700 1.392 . S
C1701 H1713 0.929 . S
C1702 C1698 1.531 . S
C1702 H1714 0.960 . S
C1702 H1715 0.962 . S
C1702 H1716 0.960 . S
C1703 C1700 1.511 . S
C1703 H1717 0.961 . S
C1703 H1718 0.961 . S
C1703 H1719 0.961 . S
C1704 C1705 1.370 . S
C1704 C1706 1.363 . S
C1704 H1720 0.931 . S
C1705 C1704 1.370 . S
C1705 C1709 1.408 . S
C1706 C1704 1.363 . S
C1706 C1707 1.370 . S
C1706 C1710 1.524 . S
C1707 C1699 1.503 . S
C1707 C1706 1.370 . S
C1707 C1708 1.403 . S
C1708 C1707 1.403 . S
C1708 C1709 1.404 . S
C1708 C1711 1.539 . S
C1709 C1705 1.408 . S
C1709 C1708 1.404 . S
C1709 H1721 0.930 . S
C1710 C1706 1.524 . S
C1710 H1722 0.956 . S
C1710 H1723 0.961 . S
C1710 H1724 0.961 . S
C1711 C1708 1.539 . S
C1711 H1725 0.958 . S
C1711 H1726 0.961 . S
C1711 H1727 0.960 . S
H1712 C1696 0.931 . S
H1713 C1701 0.929 . S
H1714 C1702 0.960 . S
H1715 C1702 0.962 . S
H1716 C1702 0.960 . S
H1717 C1703 0.961 . S
H1718 C1703 0.961 . S
H1719 C1703 0.961 . S
H1720 C1704 0.931 . S
H1721 C1709 0.930 . S
H1722 C1710 0.956 . S
H1723 C1710 0.961 . S
H1724 C1710 0.961 . S
H1725 C1711 0.958 . S
H1726 C1711 0.961 . S
H1727 C1711 0.960 . S
C1728 C1729 1.391 . S
C1728 C1730 1.394 . S
C1728 H1744 0.931 . S
C1729 C1728 1.391 . S
C1729 C1733 1.376 . S
C1730 C1728 1.394 . S
C1730 C1731 1.369 . S
C1730 C1734 1.531 . S
C1731 C1730 1.369 . S
C1731 C1732 1.410 . S
C1731 C1739 1.503 . S
C1732 C1731 1.410 . S
C1732 C1733 1.392 . S
C1732 C1735 1.511 . S
C1733 C1729 1.376 . S
C1733 C1732 1.392 . S
C1733 H1745 0.929 . S
C1734 C1730 1.531 . S
C1734 H1746 0.960 . S
C1734 H1747 0.962 . S
C1734 H1748 0.960 . S
C1735 C1732 1.511 . S
C1735 H1749 0.961 . S
C1735 H1750 0.961 . S
C1735 H1751 0.961 . S
C1736 C1737 1.370 . S
C1736 C1738 1.363 . S
C1736 H1752 0.931 . S
C1737 C1736 1.370 . S
C1737 C1741 1.408 . S
C1738 C1736 1.363 . S
C1738 C1739 1.370 . S
C1738 C1742 1.524 . S
C1739 C1731 1.503 . S
C1739 C1738 1.370 . S
C1739 C1740 1.403 . S
C1740 C1739 1.403 . S
C1740 C1741 1.404 . S
C1740 C1743 1.539 . S
C1741 C1737 1.408 . S
C1741 C1740 1.404 . S
C1741 H1753 0.930 . S
C1742 C1738 1.524 . S
C1742 H1754 0.956 . S
C1742 H1755 0.961 . S
C1742 H1756 0.961 . S
C1743 C1740 1.539 . S
C1743 H1757 0.958 . S
C1743 H1758 0.961 . S
C1743 H1759 0.960 . S
H1744 C1728 0.931 . S
H1745 C1733 0.929 . S
H1746 C1734 0.960 . S
H1747 C1734 0.962 . S
H1748 C1734 0.960 . S
H1749 C1735 0.961 . S
H1750 C1735 0.961 . S
H1751 C1735 0.961 . S
H1752 C1736 0.931 . S
H1753 C1741 0.930 . S
H1754 C1742 0.956 . S
H1755 C1742 0.961 . S
H1756 C1742 0.961 . S
H1757 C1743 0.958 . S
H1758 C1743 0.961 . S
H1759 C1743 0.960 . S
C1760 C1761 1.391 . S
C1760 C1762 1.394 . S
C1760 H1776 0.931 . S
C1761 C1760 1.391 . S
C1761 C1765 1.376 . S
C1762 C1760 1.394 . S
C1762 C1763 1.369 . S
C1762 C1766 1.531 . S
C1763 C1762 1.369 . S
C1763 C1764 1.410 . S
C1763 C1771 1.503 . S
C1764 C1763 1.410 . S
C1764 C1765 1.392 . S
C1764 C1767 1.511 . S
C1765 C1761 1.376 . S
C1765 C1764 1.392 . S
C1765 H1777 0.929 . S
C1766 C1762 1.531 . S
C1766 H1778 0.960 . S
C1766 H1779 0.962 . S
C1766 H1780 0.960 . S
C1767 C1764 1.511 . S
C1767 H1781 0.961 . S
C1767 H1782 0.961 . S
C1767 H1783 0.961 . S
C1768 C1769 1.370 . S
C1768 C1770 1.363 . S
C1768 H1784 0.931 . S
C1769 C1768 1.370 . S
C1769 C1773 1.408 . S
C1770 C1768 1.363 . S
C1770 C1771 1.370 . S
C1770 C1774 1.524 . S
C1771 C1763 1.503 . S
C1771 C1770 1.370 . S
C1771 C1772 1.403 . S
C1772 C1771 1.403 . S
C1772 C1773 1.404 . S
C1772 C1775 1.539 . S
C1773 C1769 1.408 . S
C1773 C1772 1.404 . S
C1773 H1785 0.930 . S
C1774 C1770 1.524 . S
C1774 H1786 0.956 . S
C1774 H1787 0.961 . S
C1774 H1788 0.961 . S
C1775 C1772 1.539 . S
C1775 H1789 0.958 . S
C1775 H1790 0.961 . S
C1775 H1791 0.960 . S
H1776 C1760 0.931 . S
H1777 C1765 0.929 . S
H1778 C1766 0.960 . S
H1779 C1766 0.962 . S
H1780 C1766 0.960 . S
H1781 C1767 0.961 . S
H1782 C1767 0.961 . S
H1783 C1767 0.961 . S
H1784 C1768 0.931 . S
H1785 C1773 0.930 . S
H1786 C1774 0.956 . S
H1787 C1774 0.961 . S
H1788 C1774 0.961 . S
H1789 C1775 0.958 . S
H1790 C1775 0.961 . S
H1791 C1775 0.960 . S
C1792 C1793 1.391 . S
C1792 C1794 1.394 . S
C1792 H1808 0.931 . S
C1793 C1792 1.391 . S
C1793 C1797 1.376 . S
C1794 C1792 1.394 . S
C1794 C1795 1.369 . S
C1794 C1798 1.531 . S
C1795 C1794 1.369 . S
C1795 C1796 1.410 . S
C1795 C1803 1.503 . S
C1796 C1795 1.410 . S
C1796 C1797 1.392 . S
C1796 C1799 1.511 . S
C1797 C1793 1.376 . S
C1797 C1796 1.392 . S
C1797 H1809 0.929 . S
C1798 C1794 1.531 . S
C1798 H1810 0.960 . S
C1798 H1811 0.962 . S
C1798 H1812 0.960 . S
C1799 C1796 1.511 . S
C1799 H1813 0.961 . S
C1799 H1814 0.961 . S
C1799 H1815 0.961 . S
C1800 C1801 1.370 . S
C1800 C1802 1.363 . S
C1800 H1816 0.931 . S
C1801 C1800 1.370 . S
C1801 C1805 1.408 . S
C1802 C1800 1.363 . S
C1802 C1803 1.370 . S
C1802 C1806 1.524 . S
C1803 C1795 1.503 . S
C1803 C1802 1.370 . S
C1803 C1804 1.403 . S
C1804 C1803 1.403 . S
C1804 C1805 1.404 . S
C1804 C1807 1.539 . S
C1805 C1801 1.408 . S
C1805 C1804 1.404 . S
C1805 H1817 0.930 . S
C1806 C1802 1.524 . S
C1806 H1818 0.956 . S
C1806 H1819 0.961 . S
C1806 H1820 0.961 . S
C1807 C1804 1.539 . S
C1807 H1821 0.958 . S
C1807 H1822 0.961 . S
C1807 H1823 0.960 . S
H1808 C1792 0.931 . S
H1809 C1797 0.929 . S
H1810 C1798 0.960 . S
H1811 C1798 0.962 . S
H1812 C1798 0.960 . S
H1813 C1799 0.961 . S
H1814 C1799 0.961 . S
H1815 C1799 0.961 . S
H1816 C1800 0.931 . S
H1817 C1805 0.930 . S
H1818 C1806 0.956 . S
H1819 C1806 0.961 . S
H1820 C1806 0.961 . S
H1821 C1807 0.958 . S
H1822 C1807 0.961 . S
H1823 C1807 0.960 . S
C1824 C1825 1.391 . S
C1824 C1826 1.394 . S
C1824 H1840 0.931 . S
C1825 C1824 1.391 . S
C1825 C1829 1.376 . S
C1826 C1824 1.394 . S
C1826 C1827 1.369 . S
C1826 C1830 1.531 . S
C1827 C1826 1.369 . S
C1827 C1828 1.410 . S
C1827 C1835 1.503 . S
C1828 C1827 1.410 . S
C1828 C1829 1.392 . S
C1828 C1831 1.511 . S
C1829 C1825 1.376 . S
C1829 C1828 1.392 . S
C1829 H1841 0.929 . S
C1830 C1826 1.531 . S
C1830 H1842 0.960 . S
C1830 H1843 0.962 . S
C1830 H1844 0.960 . S
C1831 C1828 1.511 . S
C1831 H1845 0.961 . S
C1831 H1846 0.961 . S
C1831 H1847 0.961 . S
C1832 C1833 1.370 . S
C1832 C1834 1.363 . S
C1832 H1848 0.931 . S
C1833 C1832 1.370 . S
C1833 C1837 1.408 . S
C1834 C1832 1.363 . S
C1834 C1835 1.370 . S
C1834 C1838 1.524 . S
C1835 C1827 1.503 . S
C1835 C1834 1.370 . S
C1835 C1836 1.403 . S
C1836 C1835 1.403 . S
C1836 C1837 1.404 . S
C1836 C1839 1.539 . S
C1837 C1833 1.408 . S
C1837 C1836 1.404 . S
C1837 H1849 0.930 . S
C1838 C1834 1.524 . S
C1838 H1850 0.956 . S
C1838 H1851 0.961 . S
C1838 H1852 0.961 . S
C1839 C1836 1.539 . S
C1839 H1853 0.958 . S
C1839 H1854 0.961 . S
C1839 H1855 0.960 . S
H1840 C1824 0.931 . S
H1841 C1829 0.929 . S
H1842 C1830 0.960 . S
H1843 C1830 0.962 . S
H1844 C1830 0.960 . S
H1845 C1831 0.961 . S
H1846 C1831 0.961 . S
H1847 C1831 0.961 . S
H1848 C1832 0.931 . S
H1849 C1837 0.930 . S
H1850 C1838 0.956 . S
H1851 C1838 0.961 . S
H1852 C1838 0.961 . S
H1853 C1839 0.958 . S
H1854 C1839 0.961 . S
H1855 C1839 0.960 . S
C1856 C1857 1.391 . S
C1856 C1858 1.394 . S
C1856 H1872 0.931 . S
C1857 C1856 1.391 . S
C1857 C1861 1.376 . S
C1858 C1856 1.394 . S
C1858 C1859 1.369 . S
C1858 C1862 1.531 . S
C1859 C1858 1.369 . S
C1859 C1860 1.410 . S
C1859 C1867 1.503 . S
C1860 C1859 1.410 . S
C1860 C1861 1.392 . S
C1860 C1863 1.511 . S
C1861 C1857 1.376 . S
C1861 C1860 1.392 . S
C1861 H1873 0.929 . S
C1862 C1858 1.531 . S
C1862 H1874 0.960 . S
C1862 H1875 0.962 . S
C1862 H1876 0.960 . S
C1863 C1860 1.511 . S
C1863 H1877 0.961 . S
C1863 H1878 0.961 . S
C1863 H1879 0.961 . S
C1864 C1865 1.370 . S
C1864 C1866 1.363 . S
C1864 H1880 0.931 . S
C1865 C1864 1.370 . S
C1865 C1869 1.408 . S
C1866 C1864 1.363 . S
C1866 C1867 1.370 . S
C1866 C1870 1.524 . S
C1867 C1859 1.503 . S
C1867 C1866 1.370 . S
C1867 C1868 1.403 . S
C1868 C1867 1.403 . S
C1868 C1869 1.404 . S
C1868 C1871 1.539 . S
C1869 C1865 1.408 . S
C1869 C1868 1.404 . S
C1869 H1881 0.930 . S
C1870 C1866 1.524 . S
C1870 H1882 0.956 . S
C1870 H1883 0.961 . S
C1870 H1884 0.961 . S
C1871 C1868 1.539 . S
C1871 H1885 0.958 . S
C1871 H1886 0.961 . S
C1871 H1887 0.960 . S
H1872 C1856 0.931 . S
H1873 C1861 0.929 . S
H1874 C1862 0.960 . S
H1875 C1862 0.962 . S
H1876 C1862 0.960 . S
H1877 C1863 0.961 . S
H1878 C1863 0.961 . S
H1879 C1863 0.961 . S
H1880 C1864 0.931 . S
H1881 C1869 0.930 . S
H1882 C1870 0.956 . S
H1883 C1870 0.961 . S
H1884 C1870 0.961 . S
H1885 C1871 0.958 . S
H1886 C1871 0.961 . S
H1887 C1871 0.960 . S
C361 C177 1.548 . S
C353 C9 1.535 . S
C393 C182 1.195 . S
C385 C22 1.182 . S
C425 C183 1.191 . S
C417 C49 1.197 . S
C449 C61 1.198 . S
C457 C187 1.230 . S
C481 C81 1.211 . S
C489 C190 1.183 . S
C521 C191 1.204 . S
C513 C108 1.218 . S
C545 C122 1.248 . S
C553 C168 1.203 . S
C577 C148 1.547 . S
C585 C184 1.535 . S
C617 C222 2.049 . S
C609 C18 2.027 . S
C641 C39 1.353 . S
C649 C248 1.391 . S
C681 C200 2.045 . S
C673 C58 2.032 . S
C713 C255 1.148 . S
C705 C69 1.147 . S
C737 C89 1.200 . S
C745 C209 1.156 . S
C777 C251 1.175 . S
C769 C102 1.181 . S
C801 C139 1.372 . S
C809 C215 1.404 . S
C833 C142 1.244 . S
C841 C246 1.215 . S
C865 C1 1.209 . S
C873 C254 1.193 . S
C897 C98 1.359 . S
C905 C241 1.389 . S
C937 C219 2.050 . S
C929 C119 2.060 . S
C969 C247 1.159 . S
C961 C128 1.181 . S
C993 C159 2.063 . S
C1001 C214 2.048 . S
C1025 C41 1.195 . S
C1033 C232 1.180 . S
C1065 C223 1.407 . S
C1057 C78 1.365 . S
C1089 C28 1.159 . S
C1097 C216 1.167 . S
C1121 C149 1.527 . S
C1129 C278 1.495 . S
C1153 C82 1.186 . S
C1161 C273 1.159 . S
C1193 C287 1.131 . S
C1185 C109 1.192 . S
C1225 C264 1.198 . S
C1217 C121 1.168 . S
C1249 C21 1.189 . S
C1257 C280 1.153 . S
C1289 C279 1.163 . S
C1281 C48 1.167 . S
C1313 C62 1.167 . S
C1321 C283 1.197 . S
C1345 C8 1.525 . S
C1353 C286 1.470 . S
C1377 C158 2.040 . S
C1385 C312 2.091 . S
C1417 C328 1.400 . S
C1409 C99 1.371 . S
C1441 C118 2.072 . S
C1449 C310 2.068 . S
C1473 C129 1.173 . S
C1481 C343 1.145 . S
C1513 C319 1.155 . S
C1505 C29 1.175 . S
C1537 C42 1.253 . S
C1545 C337 1.188 . S
C1577 C315 1.410 . S
C1569 C79 1.394 . S
C1609 C350 1.199 . S
C1601 C2 1.271 . S
C1641 C342 1.220 . S
C1633 C141 1.262 . S
C1665 C38 1.374 . S
C1673 C347 1.397 . S
C1697 C59 2.046 . S
C1705 C318 2.066 . S
C1737 C351 1.164 . S
C1729 C68 1.204 . S
C1761 C19 2.041 . S
C1769 C305 2.089 . S
C1793 C101 1.228 . S
C1801 C344 1.212 . S
C1833 C296 1.408 . S
C1825 C138 1.421 . S
C1865 C311 1.159 . S
C1857 C88 1.157 . S
