# Generated by pormake.
# Topology gar, (4,6)-cn, num edge types: 1
# Building blocks:
#     Node 0, Type 0, BuildingBlock: QUQFOY_clean_sbu_3, # of connection points: 4
#     Node 1, Type 0, BuildingBlock: QUQFOY_clean_sbu_3, # of connection points: 4
#     Node 2, Type 0, BuildingBlock: QUQFOY_clean_sbu_3, # of connection points: 4
#     Node 3, Type 0, BuildingBlock: QUQFOY_clean_sbu_3, # of connection points: 4
#     Node 4, Type 0, BuildingBlock: QUQFOY_clean_sbu_3, # of connection points: 4
#     Node 5, Type 0, BuildingBlock: QUQFOY_clean_sbu_3, # of connection points: 4
#     Node 6, Type 0, BuildingBlock: QUQFOY_clean_sbu_3, # of connection points: 4
#     Node 7, Type 0, BuildingBlock: QUQFOY_clean_sbu_3, # of connection points: 4
#     Node 8, Type 0, BuildingBlock: QUQFOY_clean_sbu_3, # of connection points: 4
#     Node 9, Type 0, BuildingBlock: QUQFOY_clean_sbu_3, # of connection points: 4
#     Node 10, Type 0, BuildingBlock: QUQFOY_clean_sbu_3, # of connection points: 4
#     Node 11, Type 0, BuildingBlock: QUQFOY_clean_sbu_3, # of connection points: 4
#     Node 12, Type 0, BuildingBlock: QUQFOY_clean_sbu_3, # of connection points: 4
#     Node 13, Type 0, BuildingBlock: QUQFOY_clean_sbu_3, # of connection points: 4
#     Node 14, Type 0, BuildingBlock: QUQFOY_clean_sbu_3, # of connection points: 4
#     Node 15, Type 0, BuildingBlock: QUQFOY_clean_sbu_3, # of connection points: 4
#     Node 16, Type 0, BuildingBlock: QUQFOY_clean_sbu_3, # of connection points: 4
#     Node 17, Type 0, BuildingBlock: QUQFOY_clean_sbu_3, # of connection points: 4
#     Node 18, Type 0, BuildingBlock: QUQFOY_clean_sbu_3, # of connection points: 4
#     Node 19, Type 0, BuildingBlock: QUQFOY_clean_sbu_3, # of connection points: 4
#     Node 20, Type 0, BuildingBlock: QUQFOY_clean_sbu_3, # of connection points: 4
#     Node 21, Type 0, BuildingBlock: QUQFOY_clean_sbu_3, # of connection points: 4
#     Node 22, Type 0, BuildingBlock: QUQFOY_clean_sbu_3, # of connection points: 4
#     Node 23, Type 0, BuildingBlock: QUQFOY_clean_sbu_3, # of connection points: 4
#     Node 24, Type 1, BuildingBlock: PAMTUU_clean_sbu_0, # of connection points: 6
#     Node 25, Type 1, BuildingBlock: PAMTUU_clean_sbu_0, # of connection points: 6
#     Node 26, Type 1, BuildingBlock: PAMTUU_clean_sbu_0, # of connection points: 6
#     Node 27, Type 1, BuildingBlock: PAMTUU_clean_sbu_0, # of connection points: 6
#     Node 28, Type 1, BuildingBlock: PAMTUU_clean_sbu_0, # of connection points: 6
#     Node 29, Type 1, BuildingBlock: PAMTUU_clean_sbu_0, # of connection points: 6
#     Node 30, Type 1, BuildingBlock: PAMTUU_clean_sbu_0, # of connection points: 6
#     Node 31, Type 1, BuildingBlock: PAMTUU_clean_sbu_0, # of connection points: 6
#     Node 32, Type 1, BuildingBlock: PAMTUU_clean_sbu_0, # of connection points: 6
#     Node 33, Type 1, BuildingBlock: PAMTUU_clean_sbu_0, # of connection points: 6
#     Node 34, Type 1, BuildingBlock: PAMTUU_clean_sbu_0, # of connection points: 6
#     Node 35, Type 1, BuildingBlock: PAMTUU_clean_sbu_0, # of connection points: 6
#     Node 36, Type 1, BuildingBlock: PAMTUU_clean_sbu_0, # of connection points: 6
#     Node 37, Type 1, BuildingBlock: PAMTUU_clean_sbu_0, # of connection points: 6
#     Node 38, Type 1, BuildingBlock: PAMTUU_clean_sbu_0, # of connection points: 6
#     Node 39, Type 1, BuildingBlock: PAMTUU_clean_sbu_0, # of connection points: 6
#     Edge 40, Type (0, 1), BuildingBlock: KIFKEQ_clean_linker_1, # of connection points: 2
#     Edge 41, Type (0, 1), BuildingBlock: KIFKEQ_clean_linker_1, # of connection points: 2
#     Edge 42, Type (0, 1), BuildingBlock: KIFKEQ_clean_linker_1, # of connection points: 2
#     Edge 43, Type (0, 1), BuildingBlock: KIFKEQ_clean_linker_1, # of connection points: 2
#     Edge 44, Type (0, 1), BuildingBlock: KIFKEQ_clean_linker_1, # of connection points: 2
#     Edge 45, Type (0, 1), BuildingBlock: KIFKEQ_clean_linker_1, # of connection points: 2
#     Edge 46, Type (0, 1), BuildingBlock: KIFKEQ_clean_linker_1, # of connection points: 2
#     Edge 47, Type (0, 1), BuildingBlock: KIFKEQ_clean_linker_1, # of connection points: 2
#     Edge 48, Type (0, 1), BuildingBlock: KIFKEQ_clean_linker_1, # of connection points: 2
#     Edge 49, Type (0, 1), BuildingBlock: KIFKEQ_clean_linker_1, # of connection points: 2
#     Edge 50, Type (0, 1), BuildingBlock: KIFKEQ_clean_linker_1, # of connection points: 2
#     Edge 51, Type (0, 1), BuildingBlock: KIFKEQ_clean_linker_1, # of connection points: 2
#     Edge 52, Type (0, 1), BuildingBlock: KIFKEQ_clean_linker_1, # of connection points: 2
#     Edge 53, Type (0, 1), BuildingBlock: KIFKEQ_clean_linker_1, # of connection points: 2
#     Edge 54, Type (0, 1), BuildingBlock: KIFKEQ_clean_linker_1, # of connection points: 2
#     Edge 55, Type (0, 1), BuildingBlock: KIFKEQ_clean_linker_1, # of connection points: 2
#     Edge 56, Type (0, 1), BuildingBlock: KIFKEQ_clean_linker_1, # of connection points: 2
#     Edge 57, Type (0, 1), BuildingBlock: KIFKEQ_clean_linker_1, # of connection points: 2
#     Edge 58, Type (0, 1), BuildingBlock: KIFKEQ_clean_linker_1, # of connection points: 2
#     Edge 59, Type (0, 1), BuildingBlock: KIFKEQ_clean_linker_1, # of connection points: 2
#     Edge 60, Type (0, 1), BuildingBlock: KIFKEQ_clean_linker_1, # of connection points: 2
#     Edge 61, Type (0, 1), BuildingBlock: KIFKEQ_clean_linker_1, # of connection points: 2
#     Edge 62, Type (0, 1), BuildingBlock: KIFKEQ_clean_linker_1, # of connection points: 2
#     Edge 63, Type (0, 1), BuildingBlock: KIFKEQ_clean_linker_1, # of connection points: 2
#     Edge 64, Type (0, 1), BuildingBlock: KIFKEQ_clean_linker_1, # of connection points: 2
#     Edge 65, Type (0, 1), BuildingBlock: KIFKEQ_clean_linker_1, # of connection points: 2
#     Edge 66, Type (0, 1), BuildingBlock: KIFKEQ_clean_linker_1, # of connection points: 2
#     Edge 67, Type (0, 1), BuildingBlock: KIFKEQ_clean_linker_1, # of connection points: 2
#     Edge 68, Type (0, 1), BuildingBlock: KIFKEQ_clean_linker_1, # of connection points: 2
#     Edge 69, Type (0, 1), BuildingBlock: KIFKEQ_clean_linker_1, # of connection points: 2
#     Edge 70, Type (0, 1), BuildingBlock: KIFKEQ_clean_linker_1, # of connection points: 2
#     Edge 71, Type (0, 1), BuildingBlock: KIFKEQ_clean_linker_1, # of connection points: 2
#     Edge 72, Type (0, 1), BuildingBlock: KIFKEQ_clean_linker_1, # of connection points: 2
#     Edge 73, Type (0, 1), BuildingBlock: KIFKEQ_clean_linker_1, # of connection points: 2
#     Edge 74, Type (0, 1), BuildingBlock: KIFKEQ_clean_linker_1, # of connection points: 2
#     Edge 75, Type (0, 1), BuildingBlock: KIFKEQ_clean_linker_1, # of connection points: 2
#     Edge 76, Type (0, 1), BuildingBlock: KIFKEQ_clean_linker_1, # of connection points: 2
#     Edge 77, Type (0, 1), BuildingBlock: KIFKEQ_clean_linker_1, # of connection points: 2
#     Edge 78, Type (0, 1), BuildingBlock: KIFKEQ_clean_linker_1, # of connection points: 2
#     Edge 79, Type (0, 1), BuildingBlock: KIFKEQ_clean_linker_1, # of connection points: 2
#     Edge 80, Type (0, 1), BuildingBlock: KIFKEQ_clean_linker_1, # of connection points: 2
#     Edge 81, Type (0, 1), BuildingBlock: KIFKEQ_clean_linker_1, # of connection points: 2
#     Edge 82, Type (0, 1), BuildingBlock: KIFKEQ_clean_linker_1, # of connection points: 2
#     Edge 83, Type (0, 1), BuildingBlock: KIFKEQ_clean_linker_1, # of connection points: 2
#     Edge 84, Type (0, 1), BuildingBlock: KIFKEQ_clean_linker_1, # of connection points: 2
#     Edge 85, Type (0, 1), BuildingBlock: KIFKEQ_clean_linker_1, # of connection points: 2
#     Edge 86, Type (0, 1), BuildingBlock: KIFKEQ_clean_linker_1, # of connection points: 2
#     Edge 87, Type (0, 1), BuildingBlock: KIFKEQ_clean_linker_1, # of connection points: 2
#     Edge 88, Type (0, 1), BuildingBlock: KIFKEQ_clean_linker_1, # of connection points: 2
#     Edge 89, Type (0, 1), BuildingBlock: KIFKEQ_clean_linker_1, # of connection points: 2
#     Edge 90, Type (0, 1), BuildingBlock: KIFKEQ_clean_linker_1, # of connection points: 2
#     Edge 91, Type (0, 1), BuildingBlock: KIFKEQ_clean_linker_1, # of connection points: 2
#     Edge 92, Type (0, 1), BuildingBlock: KIFKEQ_clean_linker_1, # of connection points: 2
#     Edge 93, Type (0, 1), BuildingBlock: KIFKEQ_clean_linker_1, # of connection points: 2
#     Edge 94, Type (0, 1), BuildingBlock: KIFKEQ_clean_linker_1, # of connection points: 2
#     Edge 95, Type (0, 1), BuildingBlock: KIFKEQ_clean_linker_1, # of connection points: 2
#     Edge 96, Type (0, 1), BuildingBlock: KIFKEQ_clean_linker_1, # of connection points: 2
#     Edge 97, Type (0, 1), BuildingBlock: KIFKEQ_clean_linker_1, # of connection points: 2
#     Edge 98, Type (0, 1), BuildingBlock: KIFKEQ_clean_linker_1, # of connection points: 2
#     Edge 99, Type (0, 1), BuildingBlock: KIFKEQ_clean_linker_1, # of connection points: 2
#     Edge 100, Type (0, 1), BuildingBlock: KIFKEQ_clean_linker_1, # of connection points: 2
#     Edge 101, Type (0, 1), BuildingBlock: KIFKEQ_clean_linker_1, # of connection points: 2
#     Edge 102, Type (0, 1), BuildingBlock: KIFKEQ_clean_linker_1, # of connection points: 2
#     Edge 103, Type (0, 1), BuildingBlock: KIFKEQ_clean_linker_1, # of connection points: 2
#     Edge 104, Type (0, 1), BuildingBlock: KIFKEQ_clean_linker_1, # of connection points: 2
#     Edge 105, Type (0, 1), BuildingBlock: KIFKEQ_clean_linker_1, # of connection points: 2
#     Edge 106, Type (0, 1), BuildingBlock: KIFKEQ_clean_linker_1, # of connection points: 2
#     Edge 107, Type (0, 1), BuildingBlock: KIFKEQ_clean_linker_1, # of connection points: 2
#     Edge 108, Type (0, 1), BuildingBlock: KIFKEQ_clean_linker_1, # of connection points: 2
#     Edge 109, Type (0, 1), BuildingBlock: KIFKEQ_clean_linker_1, # of connection points: 2
#     Edge 110, Type (0, 1), BuildingBlock: KIFKEQ_clean_linker_1, # of connection points: 2
#     Edge 111, Type (0, 1), BuildingBlock: KIFKEQ_clean_linker_1, # of connection points: 2
#     Edge 112, Type (0, 1), BuildingBlock: KIFKEQ_clean_linker_1, # of connection points: 2
#     Edge 113, Type (0, 1), BuildingBlock: KIFKEQ_clean_linker_1, # of connection points: 2
#     Edge 114, Type (0, 1), BuildingBlock: KIFKEQ_clean_linker_1, # of connection points: 2
#     Edge 115, Type (0, 1), BuildingBlock: KIFKEQ_clean_linker_1, # of connection points: 2
#     Edge 116, Type (0, 1), BuildingBlock: KIFKEQ_clean_linker_1, # of connection points: 2
#     Edge 117, Type (0, 1), BuildingBlock: KIFKEQ_clean_linker_1, # of connection points: 2
#     Edge 118, Type (0, 1), BuildingBlock: KIFKEQ_clean_linker_1, # of connection points: 2
#     Edge 119, Type (0, 1), BuildingBlock: KIFKEQ_clean_linker_1, # of connection points: 2
#     Edge 120, Type (0, 1), BuildingBlock: KIFKEQ_clean_linker_1, # of connection points: 2
#     Edge 121, Type (0, 1), BuildingBlock: KIFKEQ_clean_linker_1, # of connection points: 2
#     Edge 122, Type (0, 1), BuildingBlock: KIFKEQ_clean_linker_1, # of connection points: 2
#     Edge 123, Type (0, 1), BuildingBlock: KIFKEQ_clean_linker_1, # of connection points: 2
#     Edge 124, Type (0, 1), BuildingBlock: KIFKEQ_clean_linker_1, # of connection points: 2
#     Edge 125, Type (0, 1), BuildingBlock: KIFKEQ_clean_linker_1, # of connection points: 2
#     Edge 126, Type (0, 1), BuildingBlock: KIFKEQ_clean_linker_1, # of connection points: 2
#     Edge 127, Type (0, 1), BuildingBlock: KIFKEQ_clean_linker_1, # of connection points: 2
#     Edge 128, Type (0, 1), BuildingBlock: KIFKEQ_clean_linker_1, # of connection points: 2
#     Edge 129, Type (0, 1), BuildingBlock: KIFKEQ_clean_linker_1, # of connection points: 2
#     Edge 130, Type (0, 1), BuildingBlock: KIFKEQ_clean_linker_1, # of connection points: 2
#     Edge 131, Type (0, 1), BuildingBlock: KIFKEQ_clean_linker_1, # of connection points: 2
#     Edge 132, Type (0, 1), BuildingBlock: KIFKEQ_clean_linker_1, # of connection points: 2
#     Edge 133, Type (0, 1), BuildingBlock: KIFKEQ_clean_linker_1, # of connection points: 2
#     Edge 134, Type (0, 1), BuildingBlock: KIFKEQ_clean_linker_1, # of connection points: 2
#     Edge 135, Type (0, 1), BuildingBlock: KIFKEQ_clean_linker_1, # of connection points: 2
# Relax obj value: 0.170
# Max RMSD: 0.329
# Mean RMSD: 0.158
data_MOF--net-gar--node1-QUQFOY_clean_sbu_3--node2-PAMTUU_clean_sbu_0--edge1-KIFKEQ_clean_linker_1
_symmetry_space_group_name_H-M    P1
_symmetry_Int_Tables_number       1
_symmetry_cell_setting            triclinic
loop_
_symmetry_equiv_pos_as_xyz
'x, y, z'
_cell_length_a     61.693325
_cell_length_b     58.396325
_cell_length_c     62.050023
_cell_angle_alpha  94.400663
_cell_angle_beta   93.477681
_cell_angle_gamma 105.58459
loop_
_atom_site_label
_atom_site_type_symbol
_atom_site_fract_x
_atom_site_fract_y
_atom_site_fract_z
_atom_type_partial_charge
C0 C 1.0052 0.28638 0.35411 0.0
O1 O 0.02117 0.30231 0.34776 0.0
Cd2 Cd 0.05476 0.30236 0.37101 0.0
O3 O 0.01137 0.27362 0.36837 0.0
Cd4 Cd 0.05612 0.27768 0.38814 0.0
C5 C 0.06144 0.3405 0.40933 0.0
O6 O 0.08354 0.28773 0.35374 0.0
O7 O 0.0995 0.28094 0.38282 0.0
O8 O 0.0446 0.23074 0.39325 0.0
C9 C 0.10157 0.28484 0.36305 0.0
O10 O 0.066 0.34268 0.38983 0.0
C11 C 0.05151 0.23135 0.41318 0.0
O12 O 0.05635 0.31886 0.4149 0.0
O13 O 0.05983 0.25268 0.42196 0.0
C14 C 0.99858 0.79079 0.69325 0.0
O15 O 0.0089 0.7769 0.70121 0.0
Cd16 Cd 0.04021 0.77826 0.67722 0.0
O17 O 0.00825 0.80219 0.67758 0.0
Cd18 Cd 0.05058 0.80403 0.65841 0.0
C19 C 0.04147 0.74101 0.6377 0.0
O20 O 0.07843 0.79846 0.69339 0.0
O21 O 0.09452 0.80885 0.66494 0.0
O22 O 0.05535 0.85027 0.65321 0.0
C23 C 0.09704 0.80385 0.68438 0.0
O24 O 0.03898 0.73934 0.65774 0.0
C25 C 0.05412 0.84962 0.63255 0.0
O26 O 0.0446 0.76221 0.6314 0.0
O27 O 0.05179 0.82862 0.62349 0.0
C28 C 0.50516 0.78442 0.85436 0.0
O29 O 0.52098 0.79729 0.84492 0.0
Cd30 Cd 0.55491 0.80024 0.86883 0.0
O31 O 0.51173 0.77456 0.87081 0.0
Cd32 Cd 0.55681 0.77665 0.88952 0.0
C33 C 0.56033 0.8384 0.9098 0.0
O34 O 0.58301 0.7809 0.85468 0.0
O35 O 0.60169 0.7879 0.88528 0.0
O36 O 0.5458 0.7297 0.89441 0.0
C37 C 0.60253 0.78474 0.86483 0.0
O38 O 0.56335 0.84009 0.88985 0.0
C39 C 0.55255 0.73024 0.91435 0.0
O40 O 0.55696 0.81718 0.91604 0.0
O41 O 0.56072 0.75155 0.92322 0.0
C42 C 0.49745 0.2895 0.19315 0.0
O43 O 0.50593 0.27303 0.19853 0.0
Cd44 Cd 0.53919 0.27662 0.1768 0.0
O45 O 0.50873 0.30316 0.17964 0.0
Cd46 Cd 0.54996 0.30304 0.15933 0.0
C47 C 0.54114 0.23961 0.13836 0.0
O48 O 0.57748 0.29636 0.19387 0.0
O49 O 0.59386 0.30912 0.16615 0.0
O50 O 0.55492 0.34918 0.15416 0.0
C51 C 0.59624 0.30295 0.1852 0.0
O52 O 0.53847 0.23781 0.15832 0.0
C53 C 0.55334 0.34847 0.1335 0.0
O54 O 0.54426 0.26089 0.13217 0.0
O55 O 0.55077 0.32745 0.1244 0.0
C56 C 0.06128 0.79397 0.1688 0.0
O57 O 0.07532 0.78501 0.17847 0.0
Cd58 Cd 0.1117 0.78455 0.16841 0.0
O59 O 0.0661 0.80448 0.15165 0.0
Cd60 Cd 0.09924 0.81557 0.12846 0.0
C61 C 0.09641 0.75591 0.11619 0.0
O62 O 0.12668 0.82382 0.15955 0.0
O63 O 0.14173 0.822 0.12961 0.0
O64 O 0.09065 0.8546 0.12791 0.0
C65 C 0.14449 0.82516 0.15017 0.0
O66 O 0.10494 0.7569 0.13559 0.0
C67 C 0.09064 0.8561 0.10761 0.0
O68 O 0.09078 0.77382 0.10926 0.0
O69 O 0.09482 0.83876 0.09648 0.0
C70 C 0.47274 0.76835 0.38138 0.0
O71 O 0.48831 0.7836 0.37362 0.0
Cd72 Cd 0.52656 0.79904 0.38668 0.0
O73 O 0.47682 0.75945 0.39899 0.0
Cd74 Cd 0.51323 0.76441 0.42438 0.0
C75 C 0.52309 0.82523 0.43789 0.0
O76 O 0.53708 0.76458 0.39479 0.0
O77 O 0.55572 0.77831 0.4254 0.0
O78 O 0.5079 0.72101 0.42535 0.0
C79 C 0.55606 0.77158 0.40553 0.0
O80 O 0.52915 0.82668 0.41868 0.0
C81 C 0.50966 0.72051 0.44576 0.0
O82 O 0.51467 0.80475 0.44465 0.0
O83 O 0.51148 0.74027 0.45691 0.0
C84 C 0.56445 0.2948 0.6665 0.0
O85 O 0.57819 0.28591 0.67674 0.0
Cd86 Cd 0.61393 0.28347 0.66678 0.0
O87 O 0.56954 0.30445 0.64896 0.0
Cd88 Cd 0.60275 0.31414 0.62544 0.0
C89 C 0.5972 0.25367 0.61472 0.0
O90 O 0.62997 0.32193 0.65657 0.0
O91 O 0.64519 0.31974 0.62675 0.0
O92 O 0.59517 0.35362 0.62511 0.0
C93 C 0.64778 0.32273 0.64733 0.0
O94 O 0.6045 0.25498 0.63457 0.0
C95 C 0.5946 0.35499 0.60479 0.0
O96 O 0.5939 0.2721 0.60653 0.0
O97 O 0.59817 0.33742 0.59348 0.0
C98 C 0.97232 0.27265 0.88777 0.0
O99 O 0.98517 0.28978 0.8793 0.0
Cd100 Cd 0.02425 0.30768 0.88813 0.0
O101 O 0.97981 0.26299 0.90345 0.0
Cd102 Cd 0.01831 0.26973 0.9256 0.0
C103 C 0.02249 0.32969 0.94123 0.0
O104 O 0.03902 0.2749 0.89356 0.0
O105 O 0.06026 0.28294 0.92338 0.0
O106 O 0.01588 0.22668 0.92552 0.0
C107 C 0.05878 0.2805 0.90281 0.0
O108 O 0.02522 0.33269 0.92138 0.0
C109 C 0.01768 0.22581 0.9459 0.0
O110 O 0.01917 0.30883 0.94783 0.0
O111 O 0.01852 0.2451 0.95738 0.0
C112 C 0.47194 0.04627 0.34012 0.0
O113 O 0.48177 0.04018 0.32411 0.0
Cd114 Cd 0.46452 0.02927 0.28785 0.0
O115 O 0.45152 0.04712 0.33777 0.0
Cd116 Cd 0.42096 0.04112 0.309 0.0
C117 C 0.41887 0.98317 0.29683 0.0
O118 O 0.44577 0.05947 0.28324 0.0
O119 O 0.4116 0.04386 0.27002 0.0
O120 O 0.4096 0.07295 0.32831 0.0
C121 C 0.43156 0.05526 0.26691 0.0
O122 O 0.43706 0.9899 0.2875 0.0
C123 C 0.3887 0.06191 0.32661 0.0
O124 O 0.41072 0.99824 0.30698 0.0
O125 O 0.383 0.04081 0.31727 0.0
C126 C 0.32405 0.16618 0.52804 0.0
O127 O 0.30753 0.15453 0.53755 0.0
Cd128 Cd 0.27239 0.16173 0.54266 0.0
O129 O 0.32317 0.18515 0.51921 0.0
Cd130 Cd 0.29276 0.20777 0.51287 0.0
C131 C 0.29003 0.21962 0.56915 0.0
O132 O 0.26331 0.17067 0.50777 0.0
O133 O 0.25021 0.20089 0.51159 0.0
O134 O 0.30443 0.20852 0.47478 0.0
C135 C 0.24614 0.1784 0.50817 0.0
O136 O 0.28004 0.19737 0.56807 0.0
C137 C 0.30219 0.22886 0.47102 0.0
O138 O 0.29831 0.22903 0.55227 0.0
O139 O 0.29673 0.24056 0.48702 0.0
C140 C 0.14274 0.04419 0.85915 0.0
O141 O 0.12995 0.05388 0.84845 0.0
Cd142 Cd 0.12699 0.0573 0.81006 0.0
O143 O 0.15744 0.03597 0.85012 0.0
Cd144 Cd 0.1717 0.03613 0.81401 0.0
C145 C 0.17867 0.09584 0.80845 0.0
O146 O 0.1348 0.0221 0.79452 0.0
O147 O 0.16271 0.02691 0.77467 0.0
O148 O 0.1868 1.00231 0.81996 0.0
C149 C 0.14153 0.0215 0.77569 0.0
O150 O 0.15741 0.09217 0.80506 0.0
C151 C 0.20689 0.0135 0.81673 0.0
O152 O 0.18715 0.07908 0.81324 0.0
O153 O 0.21036 0.03508 0.81262 0.0
C154 C 0.33485 0.96469 0.98512 0.0
O155 O 0.32431 0.97748 0.97556 0.0
Cd156 Cd 0.28402 0.96794 0.97327 0.0
O157 O 0.32414 0.9462 0.9936 0.0
Cd158 Cd 0.28575 0.9227 -0.00028 0.0
C159 C 0.27199 0.91257 0.94504 0.0
O160 O 0.27724 0.9595 0.00999 0.0
O161 O 0.24962 0.92821 0.01167 0.0
O162 O 0.30769 0.91461 0.0306 0.0
C163 C 0.25741 0.95071 0.01508 0.0
O164 O 0.27253 0.93451 0.945 0.0
C165 C 0.29616 0.89315 0.03118 0.0
O166 O 0.27644 0.90412 0.96255 0.0
O167 O 0.27948 0.88521 0.01705 0.0
C168 C 0.34471 0.41536 0.02178 0.0
O169 O 0.33088 0.42335 0.01069 0.0
Cd170 Cd 0.29193 0.40629 0.00268 0.0
O171 O 0.338 0.39562 0.03039 0.0
Cd172 Cd 0.29978 0.36446 0.03281 0.0
C173 C 0.29504 0.35298 0.97575 0.0
O174 O 0.28221 0.39628 0.03748 0.0
O175 O 0.25789 0.36235 0.03039 0.0
O176 O 0.3144 0.36466 0.0715 0.0
C177 C 0.26176 0.38451 0.03603 0.0
O178 O 0.28992 0.37271 0.9761 0.0
C179 C 0.30289 0.3439 0.07488 0.0
O180 O 0.30083 0.34535 0.99356 0.0
O181 O 0.29118 0.33142 0.0583 0.0
C182 C 0.83198 0.10159 0.05366 0.0
O183 O 0.82459 0.09289 0.07077 0.0
Cd184 Cd 0.79685 0.10514 0.09002 0.0
O185 O 0.82581 0.11892 0.0465 0.0
Cd186 Cd 0.80087 0.14403 0.05694 0.0
C187 C 0.82229 0.16315 0.10877 0.0
O188 O 0.76973 0.10997 0.06269 0.0
O189 O 0.76499 0.14483 0.07085 0.0
O190 O 0.79001 0.14536 0.01884 0.0
C191 C 0.75663 0.12238 0.06814 0.0
O192 O 0.81427 0.14167 0.11292 0.0
C193 C 0.79627 0.16789 0.01896 0.0
O194 O 0.82106 0.16888 0.08944 0.0
O195 O 0.80538 0.17967 0.03679 0.0
C196 C 0.09759 0.51712 0.26255 0.0
O197 O 0.09277 0.52382 0.24428 0.0
Cd198 Cd 0.11172 0.52101 0.2126 0.0
O199 O 0.11468 0.50898 0.26578 0.0
Cd200 Cd 0.14581 0.50176 0.24481 0.0
C201 C 0.16209 0.55988 0.23222 0.0
O202 O 0.11782 0.48271 0.2168 0.0
O203 O 0.15078 0.48386 0.20767 0.0
O204 O 0.15355 0.47636 0.27285 0.0
C205 C 0.12968 0.47724 0.20256 0.0
O206 O 0.14512 0.55597 0.21834 0.0
C207 C 0.17472 0.48264 0.27101 0.0
O208 O 0.16474 0.54359 0.2437 0.0
O209 O 0.18169 0.49698 0.25699 0.0
C210 C 0.8479 0.91842 0.53077 0.0
O211 O 0.83538 0.93008 0.52254 0.0
Cd212 Cd 0.79703 0.91462 0.51041 0.0
O213 O 0.83976 0.89686 0.53529 0.0
Cd214 Cd 0.80047 0.86723 0.53617 0.0
C215 C 0.79975 0.86223 0.47944 0.0
O216 O 0.78292 0.89874 0.54183 0.0
O217 O 0.75882 0.86544 0.53086 0.0
O218 O 0.81098 0.86869 0.57555 0.0
C219 C 0.76246 0.88725 0.53787 0.0
O220 O 0.79739 0.88327 0.48211 0.0
C221 C 0.80259 0.84689 0.57835 0.0
O222 O 0.80192 0.85086 0.49608 0.0
O223 O 0.79426 0.83319 0.56111 0.0
C224 C 0.97947 0.04175 0.2556 0.0
O225 O 0.9874 0.03491 0.23861 0.0
Cd226 Cd 0.96812 0.02907 0.20335 0.0
O227 O 0.96064 0.04698 0.2545 0.0
Cd228 Cd 0.93063 0.04989 0.22702 0.0
C229 C 0.91867 0.98988 0.21443 0.0
O230 O 0.95732 0.06557 0.20208 0.0
O231 O 0.92295 0.05741 0.18868 0.0
O232 O 0.92477 0.08159 0.25226 0.0
C233 C 0.94371 0.06564 0.18607 0.0
O234 O 0.93696 0.99258 0.20519 0.0
C235 C 0.90335 0.07445 0.24925 0.0
O236 O 0.91354 0.0077 0.22353 0.0
O237 O 0.89491 0.05641 0.23564 0.0
C238 C 0.32169 0.59982 0.55688 0.0
O239 O 0.30628 0.5914 0.56912 0.0
Cd240 Cd 0.27823 0.6089 0.58129 0.0
O241 O 0.32418 0.62043 0.5501 0.0
Cd242 Cd 0.30562 0.65346 0.55251 0.0
C243 C 0.31128 0.66243 0.60774 0.0
O244 O 0.27022 0.62422 0.54876 0.0
O245 O 0.26737 0.66015 0.55035 0.0
O246 O 0.31582 0.65944 0.51562 0.0
C247 C 0.25765 0.63798 0.54864 0.0
O248 O 0.29714 0.64203 0.60777 0.0
C249 C 0.31989 0.68203 0.518 0.0
O250 O 0.31814 0.67039 0.59006 0.0
O251 O 0.31899 0.69147 0.53694 0.0
C252 C 0.4815 0.54894 0.76011 0.0
O253 O 0.4905 0.54337 0.74332 0.0
Cd254 Cd 0.47248 0.5362 0.70758 0.0
O255 O 0.4619 0.55242 0.75861 0.0
Cd256 Cd 0.43185 0.55361 0.73021 0.0
C257 C 0.42387 0.49409 0.71693 0.0
O258 O 0.45844 0.57048 0.70578 0.0
O259 O 0.42424 0.56056 0.69166 0.0
O260 O 0.42338 0.58648 0.75178 0.0
C261 C 0.44498 0.56965 0.68941 0.0
O262 O 0.44313 0.49832 0.70933 0.0
C263 C 0.40234 0.57627 0.75117 0.0
O264 O 0.41658 0.51087 0.72519 0.0
O265 O 0.39524 0.5558 0.74066 0.0
C266 C 0.59871 0.01279 0.76281 0.0
O267 O 0.59293 0.02181 0.74613 0.0
Cd268 Cd 0.61044 0.02385 0.71303 0.0
O269 O 0.61617 0.00498 0.76383 0.0
Cd270 Cd 0.64728 1.00155 0.74141 0.0
C271 C 0.66163 0.06144 0.73221 0.0
O272 O 0.61936 0.98638 0.7129 0.0
O273 O 0.65192 0.98533 0.70357 0.0
O274 O 0.65611 0.97139 0.76356 0.0
C275 C 0.63093 0.98117 0.69825 0.0
O276 O 0.64314 0.05918 0.72086 0.0
C277 C 0.67683 0.98301 0.76732 0.0
O278 O 0.6657 0.04375 0.74068 0.0
O279 O 0.68339 1.00223 0.75839 0.0
C280 C 0.82294 0.66882 0.03473 0.0
O281 O 0.80614 0.6567 0.04356 0.0
Cd282 Cd 0.76964 0.66213 0.04476 0.0
O283 O 0.8214 0.6867 0.02456 0.0
Cd284 Cd 0.79019 0.7072 0.01616 0.0
C285 C 0.78558 0.71927 0.07188 0.0
O286 O 0.7598 0.67035 0.00952 0.0
O287 O 0.74846 0.70143 0.01678 0.0
O288 O 0.80128 0.70666 0.97803 0.0
C289 C 0.74334 0.67918 0.0111 0.0
O290 O 0.77512 0.69713 0.07047 0.0
C291 C 0.79987 0.72722 0.97402 0.0
O292 O 0.79496 0.72859 0.05541 0.0
O293 O 0.79508 0.73965 0.98991 0.0
C294 C 0.97484 0.5388 0.84583 0.0
O295 O 0.98469 0.53096 0.83068 0.0
Cd296 Cd 0.97226 0.52324 0.79323 0.0
O297 O 0.95593 0.54338 0.84206 0.0
Cd298 Cd 0.92939 0.5424 0.80999 0.0
C299 C 0.92065 0.48265 0.79572 0.0
O300 O 0.95971 0.55767 0.78866 0.0
O301 O 0.92735 0.54861 0.77068 0.0
O302 O 0.91859 0.57764 0.82409 0.0
C303 C 0.94857 0.55687 0.77078 0.0
O304 O 0.94069 0.48687 0.78989 0.0
C305 C 0.89756 0.5672 0.82235 0.0
O306 O 0.9133 0.49938 0.80409 0.0
O307 O 0.89162 0.54514 0.81572 0.0
C308 C 0.83536 0.45877 0.49233 0.0
O309 O 0.82461 0.47114 0.4824 0.0
Cd310 Cd 0.78442 0.46116 0.47702 0.0
O311 O 0.82497 0.4395 0.49989 0.0
Cd312 Cd 0.78654 0.41392 0.50342 0.0
C313 C 0.77543 0.40618 0.44803 0.0
O314 O 0.77607 0.44928 0.51209 0.0
O315 O 0.74894 0.41765 0.51391 0.0
O316 O 0.80477 0.40697 0.53697 0.0
C317 C 0.756 0.44028 0.51628 0.0
O318 O 0.77547 0.42803 0.4485 0.0
C319 C 0.79646 0.38448 0.5351 0.0
O320 O 0.77932 0.3971 0.4654 0.0
O321 O 0.78318 0.37537 0.5183 0.0
C322 C 0.64087 0.53003 0.35722 0.0
O323 O 0.62671 0.53752 0.34607 0.0
Cd324 Cd 0.63107 0.55333 0.31175 0.0
O325 O 0.65979 0.52952 0.35044 0.0
Cd326 Cd 0.67769 0.53862 0.31653 0.0
C327 C 0.68099 0.59736 0.32221 0.0
O328 O 0.64446 0.52526 0.29068 0.0
O329 O 0.67501 0.54465 0.27803 0.0
O330 O 0.69172 0.50373 0.31445 0.0
C331 C 0.6543 0.53346 0.27447 0.0
O332 O 0.65994 0.59178 0.3163 0.0
C333 C 0.71235 0.51541 0.31466 0.0
O334 O 0.69099 0.58132 0.32527 0.0
O335 O 0.71688 0.53803 0.31685 0.0
Tb336 Tb 0.07172 0.05674 0.04184 0.0
Tb337 Tb 0.02845 0.02229 0.01097 0.0
C338 C 0.02267 0.04967 0.05467 0.0
C339 C 0.12575 0.07222 0.0727 0.0
C340 C 0.16258 0.05235 0.07343 0.0
C341 C 0.16586 0.07679 0.07095 0.0
C342 C 0.14753 0.08663 0.07051 0.0
C343 C 0.12284 0.04841 0.07713 0.0
C344 C 0.14105 0.03857 0.07752 0.0
C345 C 0.10596 0.08021 0.06587 0.0
O346 O 0.0642 0.02134 0.05405 0.0
O347 O 0.04557 0.9974 0.02381 0.0
O348 O 0.05711 0.02882 0.99163 0.0
O349 O 0.08628 0.0374 0.01829 0.0
O350 O 0.99767 0.99526 0.00706 0.0
O351 O 0.01219 0.01225 0.97966 0.0
O352 O 0.02623 0.05888 0.00894 0.0
O353 O 0.06358 0.07892 0.01727 0.0
O354 O 0.0422 0.06521 0.05345 0.0
O355 O 0.01668 0.0292 0.04254 0.0
C356 C 0.05684 1.00015 0.04296 0.0
O357 O 0.1035 0.08194 0.04509 0.0
O358 O 0.08692 0.06934 0.07329 0.0
C359 C 0.07825 0.03107 -0.00191 0.0
C360 C 0.97313 0.00514 0.98142 0.0
C361 C 0.93284 0.01905 0.98008 0.0
C362 C 0.9322 0.99469 0.97911 0.0
C363 C 0.95226 0.9878 0.97992 0.0
C364 C 0.9737 0.02924 0.98064 0.0
C365 C 0.95382 0.03613 0.98001 0.0
C366 C 0.99414 0.99879 0.9868 0.0
C367 C 0.04323 0.07814 0.00887 0.0
H368 H 0.18233 0.08796 0.06811 0.0
H369 H 0.15012 0.105 0.06695 0.0
H370 H 0.10619 0.03681 0.07867 0.0
H371 H 0.13778 0.01966 0.07924 0.0
H372 H 0.9163 0.98106 0.97881 0.0
H373 H 0.95151 0.96911 0.98048 0.0
H374 H 0.98959 0.043 0.9818 0.0
H375 H 0.95516 0.05506 0.98114 0.0
Tb376 Tb 0.28442 0.77248 0.28791 0.0
Tb377 Tb 0.31063 0.76445 0.2447 0.0
C378 C 0.26741 0.78359 0.2421 0.0
C379 C 0.27183 0.76799 0.34389 0.0
C380 C 0.28664 0.75349 0.38319 0.0
C381 C 0.27823 0.77366 0.38318 0.0
C382 C 0.27092 0.78086 0.36366 0.0
C383 C 0.27979 0.74761 0.34386 0.0
C384 C 0.28698 0.74035 0.3633 0.0
C385 C 0.26751 0.77748 0.3233 0.0
O386 O 0.27759 0.73412 0.28027 0.0
O387 O 0.28099 0.73438 0.24389 0.0
O388 O 0.32539 0.74709 0.26952 0.0
O389 O 0.317 0.76815 0.2992 0.0
O390 O 0.30951 0.7477 0.21326 0.0
O391 O 0.3398 0.77313 0.22777 0.0
O392 O 0.32982 0.79739 0.26305 0.0
O393 O 0.30087 0.80772 0.27872 0.0
O394 O 0.26155 0.77492 0.26053 0.0
O395 O 0.28779 0.7857 0.23576 0.0
C396 C 0.27295 0.72344 0.26051 0.0
O397 O 0.28494 0.79301 0.3173 0.0
O398 O 0.25727 0.76181 0.30722 0.0
C399 C 0.32866 0.75465 0.29037 0.0
C400 C 0.32958 0.77495 0.19104 0.0
C401 C 0.32671 0.8001 0.15444 0.0
C402 C 0.33362 0.77896 0.15272 0.0
C403 C 0.33499 0.76645 0.17091 0.0
C404 C 0.32297 0.79614 0.19286 0.0
C405 C 0.32148 0.80855 0.17477 0.0
C406 C 0.32928 0.76114 0.20988 0.0
C407 C 0.32144 0.81345 0.27259 0.0
H408 H 0.27796 0.78433 0.39817 0.0
H409 H 0.26526 0.7969 0.36396 0.0
H410 H 0.28102 0.73764 0.32873 0.0
H411 H 0.29296 0.72451 0.36269 0.0
H412 H 0.33795 0.7721 0.13734 0.0
H413 H 0.34001 0.75003 0.16921 0.0
H414 H 0.31857 0.80292 0.20825 0.0
H415 H 0.31569 0.82448 0.17664 0.0
Tb416 Tb 0.52898 0.03471 0.53309 0.0
Tb417 Tb 0.58151 0.04291 0.52045 0.0
C418 C 0.56566 0.02376 0.56385 0.0
C419 C 0.47508 0.05007 0.54056 0.0
C420 C 0.44689 0.08129 0.53864 0.0
C421 C 0.45074 0.07122 0.55797 0.0
C422 C 0.46456 0.05574 0.55886 0.0
C423 C 0.47186 0.06064 0.5214 0.0
C424 C 0.45789 0.07598 0.52045 0.0
C425 C 0.48915 0.0331 0.54172 0.0
O426 O 0.5492 0.06923 0.54871 0.0
O427 O 0.57748 0.07899 0.52588 0.0
O428 O 0.5611 0.04216 0.49078 0.0
O429 O 0.53305 0.05542 0.50535 0.0
O430 O 0.61635 0.05562 0.5296 0.0
O431 O 0.60414 0.03726 0.49798 0.0
O432 O 0.56722 0.00435 0.51945 0.0
O433 O 0.52936 1.00157 0.51397 0.0
O434 O 0.54451 0.01591 0.55582 0.0
O435 O 0.58026 0.04009 0.55487 0.0
C436 C 0.5652 0.08529 0.5407 0.0
O437 O 0.49429 0.02435 0.52334 0.0
O438 O 0.50639 0.03896 0.55626 0.0
C439 C 0.54416 0.05154 0.48877 0.0
C440 C 0.63537 0.02861 0.5153 0.0
C441 C 0.66072 0.99527 0.5199 0.0
C442 C 0.66713 0.01369 0.50621 0.0
C443 C 0.65456 0.03019 0.50395 0.0
C444 C 0.62878 0.01024 0.52889 0.0
C445 C 0.64135 0.99376 0.5312 0.0
C446 C 0.62157 0.04527 0.51207 0.0
C447 C 0.54635 0.99186 0.51313 0.0
H448 H 0.443 0.0752 0.57247 0.0
H449 H 0.46692 0.04805 0.57388 0.0
H450 H 0.47988 0.05682 0.50702 0.0
H451 H 0.45522 0.08311 0.50522 0.0
H452 H 0.68172 0.01519 0.497 0.0
H453 H 0.65971 0.04405 0.49317 0.0
H454 H 0.61386 0.00861 0.53766 0.0
H455 H 0.63606 0.98003 0.54206 0.0
Tb456 Tb 0.32752 0.28839 0.77441 0.0
Tb457 Tb 0.28142 0.30649 0.76908 0.0
C458 C 0.28002 0.25557 0.78141 0.0
C459 C 0.38368 0.27998 0.76514 0.0
C460 C 0.42258 0.28797 0.74193 0.0
C461 C 0.42139 0.27606 0.7609 0.0
C462 C 0.40212 0.27211 0.77238 0.0
C463 C 0.38472 0.29194 0.74627 0.0
C464 C 0.40398 0.29584 0.73471 0.0
C465 C 0.36341 0.27539 0.77722 0.0
O466 O 0.32148 0.28967 0.73947 0.0
O467 O 0.28367 0.28767 0.73746 0.0
O468 O 0.3065 0.33316 0.75485 0.0
O469 O 0.33879 0.32622 0.77036 0.0
O470 O 0.24681 0.29753 0.75898 0.0
O471 O 0.26426 0.33279 0.774 0.0
O472 O 0.29703 0.31988 0.80192 0.0
O473 O 0.31753 0.29312 0.80763 0.0
O474 O 0.29896 0.25681 0.77249 0.0
O475 O 0.27323 0.27463 0.78592 0.0
C476 C 0.30191 0.28585 0.7281 0.0
O477 O 0.36047 0.29373 0.78881 0.0
O478 O 0.34474 0.26287 0.76629 0.0
C479 C 0.32844 0.33923 0.75953 0.0
C480 C 0.22678 0.31604 0.78243 0.0
C481 C 0.19146 0.30953 0.81023 0.0
C482 C 0.18731 0.31172 0.78802 0.0
C483 C 0.20482 0.31497 0.77428 0.0
C484 C 0.2311 0.31406 0.80461 0.0
C485 C 0.21361 0.31098 0.81842 0.0
C486 C 0.24469 0.31785 0.76748 0.0
C487 C 0.30752 0.30903 0.81522 0.0
H488 H 0.43525 0.26943 0.76673 0.0
H489 H 0.40157 0.26277 0.78685 0.0
H490 H 0.37061 0.2982 0.74047 0.0
H491 H 0.40442 0.30524 0.72029 0.0
H492 H 0.1705 0.31095 0.78126 0.0
H493 H 0.20115 0.31635 0.7572 0.0
H494 H 0.24791 0.31455 0.81118 0.0
H495 H 0.21731 0.3091 0.83537 0.0
Tb496 Tb 0.04833 0.05396 0.54336 0.0
Tb497 Tb 0.05255 0.02335 0.49953 0.0
C498 C 0.00746 0.01691 0.52049 0.0
C499 C 0.05244 0.06914 0.60117 0.0
C500 C 0.06445 0.05339 0.64074 0.0
C501 C 0.04679 0.06439 0.63911 0.0
C502 C 0.04078 0.07215 0.61939 0.0
C503 C 0.07033 0.05862 0.60289 0.0
C504 C 0.07635 0.05095 0.62249 0.0
C505 C 0.04436 0.07399 0.57975 0.0
O506 O 0.05004 0.01874 0.55462 0.0
O507 O 0.0615 1.00104 0.52473 0.0
O508 O 0.08429 0.0507 0.50468 0.0
O509 O 0.0846 0.06009 0.54118 0.0
O510 O 0.03436 1.00338 0.47174 0.0
O511 O 0.07019 0.00718 0.47779 0.0
O512 O 0.04497 0.05634 0.48772 0.0
O513 O 0.04931 0.08079 0.51947 0.0
O514 O 0.01458 0.0397 0.52693 0.0
O515 O 0.02176 0.00593 0.51337 0.0
C516 C 0.05658 1.00069 0.54532 0.0
O517 O 0.05995 0.0831 0.56715 0.0
O518 O 0.02873 0.05628 0.56952 0.0
C519 C 0.09478 0.06154 0.52314 0.0
C520 C 0.05491 0.00501 0.44157 0.0
C521 C 0.04845 0.01525 0.39862 0.0
C522 C 0.05708 0.03392 0.41515 0.0
C523 C 0.0602 0.02881 0.43657 0.0
C524 C 0.04807 0.98641 0.42489 0.0
C525 C 0.04488 0.99148 0.40353 0.0
C526 C 0.05235 0.99942 0.46399 0.0
C527 C 0.04688 0.07788 0.49793 0.0
H528 H 0.03724 0.06638 0.65287 0.0
H529 H 0.02666 0.07984 0.61821 0.0
H530 H 0.07933 0.05579 0.58891 0.0
H531 H 0.09032 0.043 0.62329 0.0
H532 H 0.05979 0.05237 0.41181 0.0
H533 H 0.0653 0.04337 0.44936 0.0
H534 H 0.04379 0.96796 0.42856 0.0
H535 H 0.03844 0.97681 0.391 0.0
Tb536 Tb 0.31096 0.81659 0.76499 0.0
Tb537 Tb 0.2864 0.76795 0.7846 0.0
C538 C 0.30896 0.76769 0.74051 0.0
C539 C 0.32781 0.8805 0.76107 0.0
C540 C 0.31415 0.91973 0.77869 0.0
C541 C 0.31036 0.91258 0.75629 0.0
C542 C 0.31719 0.89315 0.74755 0.0
C543 C 0.3332 0.88886 0.78315 0.0
C544 C 0.32646 0.90831 0.79185 0.0
C545 C 0.32988 0.85685 0.75293 0.0
O546 O 0.27411 0.81371 0.75755 0.0
O547 O 0.25827 0.77463 0.76337 0.0
O548 O 0.27592 0.79516 0.8035 0.0
O549 O 0.30494 0.82719 0.79786 0.0
O550 O 0.26691 0.73222 0.7791 0.0
O551 O 0.27855 0.74873 0.81163 0.0
O552 O 0.32194 0.77742 0.80038 0.0
O553 O 0.33971 0.80265 0.77656 0.0
O554 O 0.30783 0.78946 0.73845 0.0
O555 O 0.30521 0.75795 0.75873 0.0
C556 C 0.25613 0.79479 0.75596 0.0
O557 O 0.33958 0.84601 0.7665 0.0
O558 O 0.31163 0.84233 0.74289 0.0
C559 C 0.28784 0.81727 0.80862 0.0
C560 C 0.27977 0.70909 0.80334 0.0
C561 C 0.30076 0.67184 0.80325 0.0
C562 C 0.27727 0.6668 0.79845 0.0
C563 C 0.26686 0.68533 0.79848 0.0
C564 C 0.30302 0.71403 0.80919 0.0
C565 C 0.31339 0.6956 0.80923 0.0
C566 C 0.26975 0.72871 0.79947 0.0
C567 C 0.34102 0.78936 0.79278 0.0
H568 H 0.30078 0.92093 0.74573 0.0
H569 H 0.31285 0.88704 0.7305 0.0
H570 H 0.34149 0.87961 0.79405 0.0
H571 H 0.32996 0.9137 0.80909 0.0
H572 H 0.2671 0.64864 0.79393 0.0
H573 H 0.24892 0.68121 0.79378 0.0
H574 H 0.31341 0.73225 0.81274 0.0
H575 H 0.33156 0.70017 0.81264 0.0
Tb576 Tb 0.54445 0.02406 0.04668 0.0
Tb577 Tb 0.54958 0.05053 0.00331 0.0
C578 C 0.59086 0.05239 0.03481 0.0
C579 C 0.5249 0.00899 0.09944 0.0
C580 C 0.50044 0.02313 0.13237 0.0
C581 C 0.52402 0.02779 0.13553 0.0
C582 C 0.53612 0.02066 0.11925 0.0
C583 C 0.5012 1.00366 0.09656 0.0
C584 C 0.48909 0.01061 0.11292 0.0
C585 C 0.53814 0.00458 0.08133 0.0
O586 O 0.54774 0.06205 0.05871 0.0
O587 O 0.54178 0.07752 0.02668 0.0
O588 O 0.51671 0.02498 0.00061 0.0
O589 O 0.51179 0.02839 0.03635 0.0
O590 O 0.56855 0.06415 0.97801 0.0
O591 O 0.53456 0.06729 0.98031 0.0
O592 O 0.55737 0.01617 0.9934 0.0
O593 O 0.54346 0.99446 0.02128 0.0
O594 O 0.57963 0.03169 0.04044 0.0
O595 O 0.58063 0.06517 0.02372 0.0
C596 C 0.54433 0.07991 0.04817 0.0
O597 O 0.52671 0.9955 0.06283 0.0
O598 O 0.55591 0.02197 0.07883 0.0
C599 C 0.50332 0.02313 0.01623 0.0
C600 C 0.54526 0.05838 0.94598 0.0
C601 C 0.53886 0.03687 0.90339 0.0
C602 C 0.54374 0.06183 0.90739 0.0
C603 C 0.54706 0.07256 0.92866 0.0
C604 C 0.53885 0.0334 0.94199 0.0
C605 C 0.53582 0.02269 0.92079 0.0
C606 C 0.5514 0.06936 0.96819 0.0
C607 C 0.55126 0.99535 0.0018 0.0
H608 H 0.53311 0.03705 0.15057 0.0
H609 H 0.55435 0.02488 0.1219 0.0
H610 H 0.49199 0.99473 0.08147 0.0
H611 H 0.47092 0.00684 0.11011 0.0
H612 H 0.54643 0.07307 0.89415 0.0
H613 H 0.55191 0.09186 0.93159 0.0
H614 H 0.53714 0.02222 0.95527 0.0
H615 H 0.53208 1.00343 0.91801 0.0
Tb616 Tb 0.28938 0.26453 0.26681 0.0
Tb617 Tb 0.30768 0.31981 0.28294 0.0
C618 C 0.29218 0.30275 0.2331 0.0
C619 C 0.28511 0.20194 0.26474 0.0
C620 C 0.30252 0.16893 0.28563 0.0
C621 C 0.28128 0.16143 0.27368 0.0
C622 C 0.27256 0.17794 0.26334 0.0
C623 C 0.30629 0.20934 0.27652 0.0
C624 C 0.31482 0.19308 0.28699 0.0
C625 C 0.27562 0.22013 0.25624 0.0
O626 O 0.32528 0.27262 0.258 0.0
O627 O 0.33928 0.31189 0.27168 0.0
O628 O 0.30416 0.30126 0.31253 0.0
O629 O 0.30674 0.26497 0.29882 0.0
O630 O 0.30824 0.35524 0.27941 0.0
O631 O 0.32807 0.34662 0.30591 0.0
O632 O 0.27028 0.31252 0.28631 0.0
O633 O 0.2606 0.27183 0.28405 0.0
O634 O 0.28031 0.28216 0.23889 0.0
O635 O 0.30566 0.31868 0.24754 0.0
C636 C 0.34234 0.29244 0.26099 0.0
O637 O 0.26685 0.23135 0.27068 0.0
O638 O 0.2888 0.23499 0.24491 0.0
C639 C 0.30674 0.28013 0.31559 0.0
C640 C 0.31022 0.37723 0.31272 0.0
C641 C 0.28621 0.40777 0.33081 0.0
C642 C 0.30975 0.41604 0.32928 0.0
C643 C 0.32155 0.40098 0.31986 0.0
C644 C 0.28774 0.36804 0.31721 0.0
C645 C 0.27576 0.38313 0.32588 0.0
C646 C 0.32034 0.36313 0.29779 0.0
C647 C 0.25543 0.29205 0.28933 0.0
H648 H 0.2715 0.14288 0.27224 0.0
H649 H 0.25601 0.17208 0.25454 0.0
H650 H 0.3161 0.22788 0.27803 0.0
H651 H 0.33098 0.19958 0.29644 0.0
H652 H 0.31887 0.43451 0.33393 0.0
H653 H 0.3391 0.40826 0.31695 0.0
H654 H 0.27882 0.34959 0.31231 0.0
H655 H 0.25784 0.37555 0.3267 0.0
Tb656 Tb 0.54593 0.55249 0.04449 0.0
Tb657 Tb 0.55276 0.5225 0.00107 0.0
C658 C 0.50611 0.51531 0.01975 0.0
C659 C 0.55101 0.574 0.10193 0.0
C660 C 0.5709 0.56823 0.14244 0.0
C661 C 0.54731 0.56313 0.13881 0.0
C662 C 0.53745 0.5661 0.11871 0.0
C663 C 0.57463 0.57985 0.10583 0.0
C664 C 0.58446 0.57708 0.12591 0.0
C665 C 0.54043 0.57344 0.07993 0.0
O666 O 0.54833 0.51754 0.05599 0.0
O667 O 0.56045 0.49986 0.02641 0.0
O668 O 0.5847 0.54944 0.00841 0.0
O669 O 0.58236 0.55937 0.04453 0.0
O670 O 0.53603 0.50211 0.97285 0.0
O671 O 0.57195 0.50768 0.97994 0.0
O672 O 0.54548 0.55528 0.98866 0.0
O673 O 0.54765 0.57917 0.02034 0.0
O674 O 0.51284 0.53789 0.02704 0.0
O675 O 0.52085 0.50466 0.013 0.0
C676 C 0.55512 0.49955 0.04687 0.0
O677 O 0.55357 0.5838 0.06578 0.0
O678 O 0.52746 0.55271 0.07184 0.0
C679 C 0.59381 0.56041 0.02731 0.0
C680 C 0.55764 0.50614 0.94347 0.0
C681 C 0.55082 0.51862 0.90135 0.0
C682 C 0.54731 0.49452 0.90517 0.0
C683 C 0.55065 0.48833 0.92613 0.0
C684 C 0.56301 0.53028 0.93949 0.0
C685 C 0.55969 0.5365 0.9185 0.0
C686 C 0.55468 0.49949 0.96556 0.0
C687 C 0.54645 0.57655 -0.00117 0.0
H688 H 0.53651 0.55645 0.15136 0.0
H689 H 0.5192 0.56138 0.11601 0.0
H690 H 0.58556 0.58573 0.09314 0.0
H691 H 0.60267 0.58086 0.12817 0.0
H692 H 0.54073 0.48043 0.89214 0.0
H693 H 0.54628 0.46963 0.929 0.0
H694 H 0.56821 0.54425 0.9528 0.0
H695 H 0.5624 0.55519 0.91602 0.0
Tb696 Tb 0.8111 0.31597 0.26277 0.0
Tb697 Tb 0.78689 0.26704 0.28254 0.0
C698 C 0.80972 0.26688 0.23839 0.0
C699 C 0.82348 0.37808 0.24957 0.0
C700 C 0.81006 0.42004 0.25762 0.0
C701 C 0.83273 0.42028 0.26203 0.0
C702 C 0.83941 0.39942 0.25795 0.0
C703 C 0.80106 0.37813 0.24425 0.0
C704 C 0.79445 0.39892 0.24816 0.0
C705 C 0.82966 0.35547 0.24897 0.0
O706 O 0.77423 0.31293 0.25543 0.0
O707 O 0.75832 0.27405 0.26219 0.0
O708 O 0.77638 0.29372 0.30198 0.0
O709 O 0.80454 0.32636 0.29563 0.0
O710 O 0.76766 0.23118 0.27747 0.0
O711 O 0.7805 0.24766 0.30969 0.0
O712 O 0.82245 0.27755 0.29829 0.0
O713 O 0.84005 0.30233 0.2741 0.0
O714 O 0.80929 0.28887 0.23657 0.0
O715 O 0.80485 0.25662 0.25616 0.0
C716 C 0.75618 0.29411 0.2545 0.0
O717 O 0.83525 0.3494 0.26782 0.0
O718 O 0.81615 0.33742 0.2369 0.0
C719 C 0.78806 0.31594 0.30696 0.0
C720 C 0.78425 0.20957 0.3003 0.0
C721 C 0.80874 0.17548 0.30341 0.0
C722 C 0.78659 0.17073 0.3099 0.0
C723 C 0.77439 0.18775 0.30837 0.0
C724 C 0.80636 0.21438 0.29412 0.0
C725 C 0.81843 0.19757 0.29558 0.0
C726 C 0.77197 0.22758 0.29759 0.0
C727 C 0.84144 0.28925 0.29044 0.0
H728 H 0.84508 0.43636 0.26927 0.0
H729 H 0.85676 0.39966 0.26225 0.0
H730 H 0.78834 0.36186 0.23803 0.0
H731 H 0.77677 0.39801 0.24498 0.0
H732 H 0.77867 0.15387 0.31601 0.0
H733 H 0.75731 0.18379 0.31322 0.0
H734 H 0.81423 0.23105 0.28771 0.0
H735 H 0.83515 0.20167 0.28985 0.0
Tb736 Tb 0.04985 0.52847 0.5438 0.0
Tb737 Tb 0.04612 0.55279 0.49974 0.0
C738 C 0.09143 0.55949 0.52578 0.0
C739 C 0.04148 0.51537 0.59944 0.0
C740 C 0.02317 0.52903 0.63715 0.0
C741 C 0.04542 0.52701 0.63813 0.0
C742 C 0.05448 0.52018 0.6194 0.0
C743 C 0.01915 0.51702 0.59847 0.0
C744 C 0.01004 0.5236 0.61717 0.0
C745 C 0.05196 0.51125 0.57946 0.0
O746 O 0.05109 0.56599 0.55547 0.0
O747 O 0.03826 0.57867 0.52432 0.0
O748 O 0.01542 0.52487 0.50077 0.0
O749 O 0.01468 0.52784 0.5373 0.0
O750 O 0.06133 0.56801 0.47312 0.0
O751 O 0.02639 0.56621 0.47788 0.0
O752 O 0.05485 0.51906 0.48865 0.0
O753 O 0.04794 0.49852 0.5188 0.0
O754 O 0.08305 0.53823 0.53188 0.0
O755 O 0.07821 0.57092 0.51711 0.0
C756 C 0.04408 0.58234 0.5455 0.0
O757 O 0.03819 0.50023 0.56279 0.0
O758 O 0.06717 0.52977 0.57424 0.0
C759 C 1.00415 0.52189 0.51791 0.0
C760 C 0.03597 0.56115 0.44218 0.0
C761 C 0.02919 0.54525 0.39781 0.0
C762 C 0.02433 0.56652 0.40539 0.0
C763 C 0.02787 0.5745 0.42745 0.0
C764 C 0.03904 0.539 0.43498 0.0
C765 C 0.03583 0.53117 0.41297 0.0
C766 C 0.04241 0.57095 0.46476 0.0
C767 C 0.05221 0.49889 0.49814 0.0
H768 H 0.05605 0.53132 0.65324 0.0
H769 H 0.07185 0.51934 0.62037 0.0
H770 H 0.00883 0.51371 0.5832 0.0
H771 H 0.99272 0.52454 0.61593 0.0
H772 H 0.01874 0.57752 0.39419 0.0
H773 H 0.02507 0.59148 0.43288 0.0
H774 H 0.04501 0.5283 0.44623 0.0
H775 H 0.04002 0.51486 0.40782 0.0
Tb776 Tb 0.82348 0.78745 0.27781 0.0
Tb777 Tb 0.7773 0.80513 0.27191 0.0
C778 C 0.77629 0.75548 0.28761 0.0
C779 C 0.87898 0.77712 0.2667 0.0
C780 C 0.9164 0.78101 0.24154 0.0
C781 C 0.9007 0.75875 0.24276 0.0
C782 C 0.88233 0.75683 0.25527 0.0
C783 C 0.89441 0.79949 0.26527 0.0
C784 C 0.91293 0.80139 0.25286 0.0
C785 C 0.85936 0.77444 0.27987 0.0
O786 O 0.81663 0.78722 0.24273 0.0
O787 O 0.77871 0.7845 0.24102 0.0
O788 O 0.80213 0.82992 0.25572 0.0
O789 O 0.83405 0.82541 0.27383 0.0
O790 O 0.74274 0.79681 0.26205 0.0
O791 O 0.76088 0.83218 0.27638 0.0
O792 O 0.7933 0.81956 0.30446 0.0
O793 O 0.81464 0.79377 0.31117 0.0
O794 O 0.79516 0.75601 0.27873 0.0
O795 O 0.76902 0.77447 0.29019 0.0
C796 C 0.79687 0.7827 0.23154 0.0
O797 O 0.85707 0.79355 0.29077 0.0
O798 O 0.84012 0.76118 0.27055 0.0
C799 C 0.82393 0.83709 0.26117 0.0
C800 C 0.72402 0.81605 0.2862 0.0
C801 C 0.6899 0.81097 0.31527 0.0
C802 C 0.68954 0.82419 0.29723 0.0
C803 C 0.7064 0.82661 0.28278 0.0
C804 C 0.72492 0.80354 0.30451 0.0
C805 C 0.708 0.80092 0.31884 0.0
C806 C 0.74109 0.81739 0.27044 0.0
C807 C 0.80421 0.80952 0.31819 0.0
H808 H 0.90254 0.74271 0.23398 0.0
H809 H 0.87068 0.73939 0.25602 0.0
H810 H 0.89231 0.81552 0.27385 0.0
H811 H 0.92479 0.81878 0.25255 0.0
H812 H 0.67613 0.83258 0.29417 0.0
H813 H 0.70555 0.83649 0.26882 0.0
H814 H 0.7385 0.79537 0.30749 0.0
H815 H 0.70878 0.79037 0.33233 0.0
Tb816 Tb 0.78452 0.27239 0.78945 0.0
Tb817 Tb 0.8123 0.2624 0.74755 0.0
C818 C 0.76869 0.2807 0.74193 0.0
C819 C 0.76689 0.2662 0.84379 0.0
C820 C 0.77154 0.2453 0.88269 0.0
C821 C 0.75647 0.25949 0.88037 0.0
C822 C 0.7542 0.2699 0.86104 0.0
C823 C 0.78185 0.25204 0.84603 0.0
C824 C 0.78426 0.24184 0.86529 0.0
C825 C 0.76513 0.27717 0.82348 0.0
O826 O 0.77876 0.23397 0.78406 0.0
O827 O 0.78353 0.23164 0.74783 0.0
O828 O 0.82739 0.24811 0.77446 0.0
O829 O 0.81762 0.27077 0.80212 0.0
O830 O 0.8113 0.24425 0.7168 0.0
O831 O 0.84233 0.26816 0.73186 0.0
O832 O 0.82895 0.29828 0.762 0.0
O833 O 0.80022 0.30751 0.77963 0.0
O834 O 0.76263 0.27351 0.76084 0.0
O835 O 0.78903 0.28196 0.7358 0.0
C836 C 0.77512 0.22195 0.76487 0.0
O837 O 0.78374 0.29213 0.81899 0.0
O838 O 0.75562 0.26234 0.80664 0.0
C839 C 0.83004 0.25727 0.79484 0.0
C840 C 0.83427 0.26831 0.69405 0.0
C841 C 0.83186 0.29103 0.65589 0.0
C842 C 0.82744 0.26607 0.65487 0.0
C843 C 0.82875 0.25481 0.6738 0.0
C844 C 0.83934 0.29333 0.69503 0.0
C845 C 0.83831 0.30459 0.6761 0.0
C846 C 0.83188 0.256 0.71396 0.0
C847 C 0.81995 0.31387 0.77162 0.0
H848 H 0.74625 0.26232 0.89337 0.0
H849 H 0.74256 0.28078 0.85954 0.0
H850 H 0.79179 0.24898 0.83287 0.0
H851 H 0.79634 0.23145 0.86659 0.0
H852 H 0.82255 0.25524 0.63947 0.0
H853 H 0.82458 0.23549 0.67272 0.0
H854 H 0.84327 0.30416 0.71048 0.0
H855 H 0.84152 0.32384 0.67738 0.0
Tb856 Tb 0.79027 0.76195 0.76771 0.0
Tb857 Tb 0.81047 0.81639 0.78576 0.0
C858 C 0.79396 0.80088 0.73536 0.0
C859 C 0.77852 0.69682 0.76639 0.0
C860 C 0.79214 0.66183 0.78822 0.0
C861 C 0.79046 0.6605 0.7654 0.0
C862 C 0.78371 0.67786 0.75461 0.0
C863 C 0.77874 0.69742 0.78907 0.0
C864 C 0.78543 0.68001 0.79991 0.0
C865 C 0.77706 0.71776 0.75535 0.0
O866 O 0.82435 0.77296 0.75419 0.0
O867 O 0.84172 0.80583 0.77745 0.0
O868 O 0.80641 0.79821 0.81525 0.0
O869 O 0.80444 0.76043 0.80095 0.0
O870 O 0.8126 0.85181 0.78072 0.0
O871 O 0.83117 0.8435 0.80829 0.0
O872 O 0.7737 0.8098 0.79223 0.0
O873 O 0.76064 0.76936 0.78355 0.0
O874 O 0.78129 0.7804 0.74048 0.0
O875 O 0.80818 0.81556 0.75021 0.0
C876 C 0.84315 0.78963 0.76171 0.0
O877 O 0.76389 0.72998 0.76283 0.0
O878 O 0.79651 0.73165 0.75183 0.0
C879 C 0.80623 0.7761 0.8179 0.0
C880 C 0.81571 0.87636 0.81256 0.0
C881 C 0.79171 0.90913 0.82504 0.0
C882 C 0.81473 0.91716 0.82134 0.0
C883 C 0.82654 0.90085 0.81479 0.0
C884 C 0.79392 0.8682 0.8193 0.0
C885 C 0.78192 0.88444 0.82535 0.0
C886 C 0.82481 0.86017 0.79894 0.0
C887 C 0.75721 0.78959 0.79201 0.0
H888 H 0.79579 0.64697 0.75588 0.0
H889 H 0.78393 0.6773 0.73713 0.0
H890 H 0.77488 0.71201 0.79848 0.0
H891 H 0.78624 0.68136 0.81746 0.0
H892 H 0.82307 0.93606 0.82171 0.0
H893 H 0.84346 0.90744 0.80983 0.0
H894 H 0.78543 0.8493 0.8179 0.0
H895 H 0.76431 0.87742 0.82812 0.0
Tb896 Tb 0.56981 0.55394 0.53958 0.0
Tb897 Tb 0.52389 0.51879 0.51421 0.0
C898 C 0.52322 0.5478 0.55831 0.0
C899 C 0.62621 0.56932 0.56557 0.0
C900 C 0.66142 0.54714 0.56523 0.0
C901 C 0.66523 0.571 0.56038 0.0
C902 C 0.64768 0.58197 0.56046 0.0
C903 C 0.623 0.54631 0.57231 0.0
C904 C 0.64042 0.53532 0.57214 0.0
C905 C 0.60647 0.57782 0.55967 0.0
O906 O 0.5641 0.51951 0.5533 0.0
O907 O 0.54434 0.49538 0.52394 0.0
O908 O 0.54851 0.52589 0.49064 0.0
O909 O 0.58053 0.5334 0.51362 0.0
O910 O 0.49869 0.48625 0.51224 0.0
O911 O 0.49887 0.51094 0.4881 0.0
O912 O 0.52067 0.55516 0.51218 0.0
O913 O 0.55836 0.57532 0.51616 0.0
O914 O 0.54217 0.56316 0.55477 0.0
O915 O 0.51618 0.52683 0.54711 0.0
C916 C 0.5567 0.49825 0.54247 0.0
O917 O 0.602 0.57771 0.53884 0.0
O918 O 0.58829 0.56874 0.56926 0.0
C919 C 0.57003 0.52753 0.49414 0.0
C920 C 0.46396 0.49209 0.50009 0.0
C921 C 0.42266 0.50183 0.50722 0.0
C922 C 0.42756 0.4956 0.48607 0.0
C923 C 0.44813 0.49077 0.48254 0.0
C924 C 0.4585 0.4969 0.52128 0.0
C925 C 0.43805 0.50168 0.52481 0.0
C926 C 0.48717 0.49204 0.49626 0.0
C927 C 0.53727 0.5743 0.51003 0.0
H928 H 0.68138 0.58072 0.55537 0.0
H929 H 0.65047 0.5997 0.55513 0.0
H930 H 0.60658 0.53608 0.57623 0.0
H931 H 0.63677 0.51689 0.57578 0.0
H932 H 0.41591 0.49542 0.47224 0.0
H933 H 0.45215 0.48722 0.46607 0.0
H934 H 0.47052 0.49831 0.5351 0.0
H935 H 0.43505 0.50683 0.54126 0.0
Tb936 Tb 0.02536 0.53554 0.04198 0.0
Tb937 Tb 0.07868 0.54109 0.03274 0.0
C938 C 0.05975 0.52571 0.07525 0.0
C939 C 0.97157 0.55182 0.04674 0.0
C940 C 0.94514 0.5845 0.04368 0.0
C941 C 0.94211 0.56849 0.05981 0.0
C942 C 0.95515 0.55231 0.06128 0.0
C943 C 0.97485 0.56792 0.03071 0.0
C944 C 0.96166 0.58399 0.02911 0.0
C945 C 0.98515 0.53457 0.04859 0.0
O946 O 0.04485 0.57152 0.05526 0.0
O947 O 0.07637 0.57784 0.03589 0.0
O948 O 0.0598 0.53885 0.00168 0.0
O949 O 0.03185 0.55447 0.01342 0.0
O950 O 0.11199 0.54744 0.04654 0.0
O951 O 0.10412 0.53941 0.01208 0.0
O952 O 0.06287 0.50275 0.03169 0.0
O953 O 0.02589 0.50224 0.02325 0.0
O954 O 0.0393 0.51676 0.06587 0.0
O955 O 0.07383 0.54296 0.06692 0.0
C956 C 0.06278 0.58594 0.04816 0.0
O957 O 0.99114 0.52613 0.03049 0.0
O958 O 1.00171 0.54017 0.06385 0.0
C959 C 0.04335 0.54866 -0.00214 0.0
C960 C 0.13172 0.52346 0.02867 0.0
C961 C 0.15537 0.48843 0.03212 0.0
C962 C 0.16604 0.51264 0.03886 0.0
C963 C 0.15433 0.52995 0.03714 0.0
C964 C 0.12097 0.49934 0.02181 0.0
C965 C 0.13272 0.48199 0.02341 0.0
C966 C 0.11933 0.54181 0.02822 0.0
C967 C 0.04212 0.49138 0.02388 0.0
H968 H 0.92936 0.56816 0.07112 0.0
H969 H 0.95235 0.5401 0.07377 0.0
H970 H 0.98758 0.56806 0.0194 0.0
H971 H 0.96458 0.59621 0.01664 0.0
H972 H 0.18355 0.51826 0.04536 0.0
H973 H 0.16289 0.54842 0.04262 0.0
H974 H 0.10343 0.49386 0.01542 0.0
H975 H 0.12396 0.4635 0.01825 0.0
H976 H 0.03214 0.18967 0.92655 0.0
H977 H 0.00938 0.21218 0.98695 0.0
H978 H 0.03835 0.15451 0.94221 0.0
H979 H 0.01485 0.1763 0.00236 0.0
H980 H 1.00352 0.09091 0.00526 0.0
H981 H 0.99691 0.12672 0.99094 0.0
H982 H 0.06667 0.14992 0.97719 0.0
H983 H 0.07357 0.1146 0.99221 0.0
C984 C 0.02821 0.187 0.94311 0.0
C985 C 0.02021 0.20381 0.95546 0.0
C986 C 0.03189 0.16688 0.9521 0.0
C987 C 0.02711 0.16261 0.97352 0.0
C988 C 0.01863 0.17908 0.98579 0.0
C989 C 0.01553 0.19963 0.97697 0.0
C990 C 0.0175 0.10367 -0.00075 0.0
C991 C 0.03911 0.09982 -9e-05 0.0
C992 C 0.0137 0.12424 0.99115 0.0
C993 C 0.03126 0.14117 0.98295 0.0
C994 C 0.0528 0.13721 0.98338 0.0
C995 C 0.05675 0.11698 0.99202 0.0
H996 H 0.18036 0.81054 0.1353 0.0
H997 H 0.15523 0.83502 0.19363 0.0
H998 H 0.21106 0.80184 0.15719 0.0
H999 H 0.18604 0.82705 0.21538 0.0
H1000 H 0.22345 0.78084 0.24915 0.0
H1001 H 0.19571 0.79284 0.22651 0.0
H1002 H 0.2454 0.81668 0.18102 0.0
H1003 H 0.27316 0.80406 0.20353 0.0
C1004 C 0.18166 0.81454 0.15274 0.0
C1005 C 0.16521 0.8233 0.16271 0.0
C1006 C 0.19928 0.80957 0.16533 0.0
C1007 C 0.20091 0.81333 0.18817 0.0
C1008 C 0.18507 0.82328 0.19793 0.0
C1009 C 0.16747 0.82808 0.18541 0.0
C1010 C 0.22857 0.7887 0.23437 0.0
C1011 C 0.25065 0.79149 0.22828 0.0
C1012 C 0.21263 0.79577 0.22139 0.0
C1013 C 0.21824 0.80597 0.20192 0.0
C1014 C 0.24034 0.80874 0.19577 0.0
C1015 C 0.25633 0.80161 0.20878 0.0
H1016 H 0.55429 0.86716 0.4346 0.0
H1017 H 0.49957 0.83562 0.47257 0.0
H1018 H 0.55909 0.9058 0.45455 0.0
H1019 H 0.50439 0.87499 0.49278 0.0
H1020 H 0.50568 0.95794 0.50077 0.0
H1021 H 0.49978 0.91655 0.48527 0.0
H1022 H 0.57177 0.92614 0.49137 0.0
H1023 H 0.57772 0.96715 0.5067 0.0
C1024 C 0.5433 0.86842 0.44736 0.0
C1025 C 0.52651 0.84814 0.45192 0.0
C1026 C 0.54617 0.89068 0.45891 0.0
C1027 C 0.53219 0.89363 0.47535 0.0
C1028 C 0.5154 0.87338 0.48015 0.0
C1029 C 0.51275 0.85079 0.46871 0.0
C1030 C 0.52024 0.95117 0.49895 0.0
C1031 C 0.5422 0.96614 0.50486 0.0
C1032 C 0.51683 0.92736 0.4902 0.0
C1033 C 0.53529 0.91798 0.48691 0.0
C1034 C 0.55715 0.93278 0.49339 0.0
C1035 C 0.56055 0.95639 0.50226 0.0
H1036 H 0.53026 0.31355 0.65157 0.0
H1037 H 0.54938 0.27498 0.70294 0.0
H1038 H 0.4956 0.31396 0.66894 0.0
H1039 H 0.51517 0.27528 0.71986 0.0
H1040 H 0.46663 0.30206 0.75853 0.0
H1041 H 0.50029 0.30517 0.73918 0.0
H1042 H 0.45903 0.28608 0.67833 0.0
H1043 H 0.42513 0.2829 0.69779 0.0
C1044 C 0.52708 0.30509 0.66643 0.0
C1045 C 0.54275 0.29439 0.67589 0.0
C1046 C 0.50722 0.30528 0.67634 0.0
C1047 C 0.50281 0.29495 0.69595 0.0
C1048 C 0.51827 0.28388 0.70505 0.0
C1049 C 0.5379 0.28359 0.6952 0.0
C1050 C 0.46468 0.29849 0.74103 0.0
C1051 C 0.44315 0.29187 0.72976 0.0
C1052 C 0.48399 0.3003 0.72993 0.0
C1053 C 0.48232 0.29553 0.70723 0.0
C1054 C 0.46089 0.28996 0.6958 0.0
C1055 C 0.44148 0.28813 0.70696 0.0
H1056 H 0.0591 0.89756 0.64785 0.0
H1057 H 0.05113 0.85353 0.58758 0.0
H1058 H 0.06037 0.93246 0.62802 0.0
H1059 H 0.05189 0.88819 0.56755 0.0
H1060 H 0.06645 0.95749 0.53219 0.0
H1061 H 0.06636 0.92295 0.55221 0.0
H1062 H 0.0473 0.95841 0.60854 0.0
H1063 H 0.0479 0.99298 0.58855 0.0
C1064 C 0.05754 0.89508 0.6303 0.0
C1065 C 0.05503 0.87193 0.61979 0.0
C1066 C 0.05812 0.9155 0.61861 0.0
C1067 C 0.05623 0.91429 0.59551 0.0
C1068 C 0.05377 0.89101 0.58506 0.0
C1069 C 0.05318 0.8706 0.59677 0.0
C1070 C 0.06234 0.95816 0.5489 0.0
C1071 C 0.05729 0.97889 0.55829 0.0
C1072 C 0.06208 0.93783 0.56063 0.0
C1073 C 0.05675 0.93672 0.58264 0.0
C1074 C 0.05183 0.95764 0.592 0.0
C1075 C 0.05207 0.97792 0.58025 0.0
H1076 H 0.48948 0.7989 0.81646 0.0
H1077 H 0.46269 0.76648 0.8726 0.0
H1078 H 0.45212 0.79925 0.80262 0.0
H1079 H 0.42458 0.76736 0.85894 0.0
H1080 H 0.35249 0.76148 0.82486 0.0
H1081 H 0.38961 0.75903 0.83938 0.0
H1082 H 0.42148 0.81201 0.798 0.0
H1083 H 0.38458 0.81373 0.78329 0.0
C1084 C 0.47564 0.79176 0.82613 0.0
C1085 C 0.48015 0.7826 0.84599 0.0
C1086 C 0.45357 0.7922 0.81807 0.0
C1087 C 0.43401 0.78372 0.8293 0.0
C1088 C 0.43839 0.77416 0.84916 0.0
C1089 C 0.4607 0.7736 0.85723 0.0
C1090 C 0.36736 0.77262 0.8187 0.0
C1091 C 0.36462 0.78779 0.80246 0.0
C1092 C 0.38917 0.7713 0.82728 0.0
C1093 C 0.40986 0.7851 0.82026 0.0
C1094 C 0.4069 0.80039 0.80411 0.0
C1095 C 0.38517 0.8016 0.79552 0.0
H1096 H 0.53121 0.19305 0.14865 0.0
H1097 H 0.5508 0.23324 0.0943 0.0
H1098 H 0.53159 0.15655 0.12755 0.0
H1099 H 0.55179 0.19627 0.07291 0.0
H1100 H 0.53753 0.1216 0.0328 0.0
H1101 H 0.53656 0.15905 0.05286 0.0
H1102 H 0.5495 0.13058 0.11294 0.0
H1103 H 0.54985 0.09314 0.09286 0.0
C1104 C 0.53573 0.19432 0.1321 0.0
C1105 C 0.54096 0.21686 0.12362 0.0
C1106 C 0.53617 0.17293 0.1198 0.0
C1107 C 0.54201 0.17248 0.09806 0.0
C1108 C 0.54701 0.19505 0.08936 0.0
C1109 C 0.54652 0.21664 0.10179 0.0
C1110 C 0.5401 0.12316 0.05032 0.0
C1111 C 0.54367 0.10359 0.06085 0.0
C1112 C 0.5397 0.14508 0.06204 0.0
C1113 C 0.54281 0.14879 0.08504 0.0
C1114 C 0.54651 0.12914 0.09547 0.0
C1115 C 0.54689 0.10727 0.08377 0.0
H1116 H 0.11736 0.30591 0.32523 0.0
H1117 H 0.138 0.26649 0.37454 0.0
H1118 H 0.15291 0.30833 0.30824 0.0
H1119 H 0.17308 0.26813 0.35721 0.0
H1120 H 0.2263 0.25535 0.30888 0.0
H1121 H 0.19111 0.25395 0.32583 0.0
H1122 H 0.1956 0.32553 0.31037 0.0
H1123 H 0.23138 0.32721 0.29401 0.0
C1124 C 0.12926 0.29753 0.33256 0.0
C1125 C 0.12391 0.28591 0.35167 0.0
C1126 C 0.1501 0.29903 0.32269 0.0
C1127 C 0.16682 0.28843 0.33086 0.0
C1128 C 0.16125 0.27654 0.34981 0.0
C1129 C 0.14074 0.27563 0.36 0.0
C1130 C 0.22001 0.27097 0.30895 0.0
C1131 C 0.23254 0.29138 0.29954 0.0
C1132 C 0.19946 0.27019 0.31898 0.0
C1133 C 0.18951 0.28955 0.3199 0.0
C1134 C 0.20189 0.30991 0.31023 0.0
C1135 C 0.22283 0.31093 0.30069 0.0
H1136 H 0.92024 0.0507 0.14622 0.0
H1137 H 0.98614 0.08815 0.17733 0.0
H1138 H 0.93639 0.05031 0.11113 0.0
H1139 H 1.00221 0.0875 0.14265 0.0
H1140 H 0.98425 0.01971 0.06725 0.0
H1141 H 0.96198 0.02796 0.09653 0.0
H1142 H 1.00398 0.10079 0.10656 0.0
H1143 H 0.02655 0.09245 0.0777 0.0
C1144 C 0.93803 0.05931 0.14548 0.0
C1145 C 0.95202 0.06923 0.16448 0.0
C1146 C 0.94729 0.05893 0.12545 0.0
C1147 C 0.97059 0.06869 0.12416 0.0
C1148 C 0.98417 0.08003 0.14302 0.0
C1149 C 0.97499 0.08027 0.16294 0.0
C1150 C 0.98855 0.03756 0.07552 0.0
C1151 C 0.00747 0.05526 0.0705 0.0
C1152 C 0.97565 0.04235 0.09216 0.0
C1153 C 0.98139 0.06497 0.10399 0.0
C1154 C 0.9994 0.08308 0.09798 0.0
C1155 C 0.01235 0.07827 0.08146 0.0
H1156 H 0.32458 0.66709 0.4762 0.0
H1157 H 0.31929 0.72852 0.51684 0.0
H1158 H 0.32001 0.68737 0.44401 0.0
H1159 H 0.31477 0.74881 0.48458 0.0
H1160 H 0.2693 0.75401 0.42281 0.0
H1161 H 0.28236 0.74019 0.45597 0.0
H1162 H 0.3363 0.72227 0.42331 0.0
H1163 H 0.3236 0.73658 0.3902 0.0
C1164 C 0.323 0.68514 0.47828 0.0
C1165 C 0.32209 0.69611 0.49904 0.0
C1166 C 0.32043 0.69678 0.45984 0.0
C1167 C 0.31674 0.71955 0.46179 0.0
C1168 C 0.31726 0.73112 0.4826 0.0
C1169 C 0.32004 0.71957 0.50106 0.0
C1170 C 0.2842 0.74756 0.42277 0.0
C1171 C 0.29525 0.74621 0.40375 0.0
C1172 C 0.2917 0.73966 0.4418 0.0
C1173 C 0.31035 0.73013 0.44222 0.0
C1174 C 0.32174 0.72929 0.42339 0.0
C1175 C 0.31435 0.73736 0.4044 0.0
H1176 H 0.65326 0.98671 0.66121 0.0
H1177 H 0.58663 0.96762 0.68416 0.0
H1178 H 0.63673 0.99116 0.62549 0.0
H1179 H 0.57028 0.97289 0.64902 0.0
H1180 H 0.54521 0.98238 0.58143 0.0
H1181 H 0.56136 0.96426 0.61048 0.0
H1182 H 0.62175 0.0235 0.61639 0.0
H1183 H 0.60601 0.0411 0.58744 0.0
C1184 C 0.63508 0.98283 0.65846 0.0
C1185 C 0.62127 0.97742 0.67554 0.0
C1186 C 0.6256 0.98558 0.6381 0.0
C1187 C 0.60225 0.98304 0.63463 0.0
C1188 C 0.58829 0.97503 0.65109 0.0
C1189 C 0.59772 0.97218 0.67132 0.0
C1190 C 0.56188 0.99149 0.58905 0.0
C1191 C 0.57424 0.01324 0.58228 0.0
C1192 C 0.5712 0.98106 0.60554 0.0
C1193 C 0.59299 0.99226 0.61554 0.0
C1194 C 0.60522 0.01399 0.60866 0.0
C1195 C 0.596 0.0243 0.59224 0.0
H1196 H 0.26455 0.34794 0.94121 0.0
H1197 H 0.32647 0.33105 0.95977 0.0
H1198 H 0.26758 0.33571 0.90349 0.0
H1199 H 0.33016 0.31948 0.92147 0.0
H1200 H 0.32219 0.28691 0.84912 0.0
H1201 H 0.31852 0.29413 0.88802 0.0
H1202 H 0.28777 0.35042 0.8749 0.0
H1203 H 0.29078 0.34275 0.8364 0.0
C1204 C 0.27875 0.34126 0.93724 0.0
C1205 C 0.29519 0.34043 0.9537 0.0
C1206 C 0.28071 0.33455 0.9154 0.0
C1207 C 0.29947 0.32713 0.90893 0.0
C1208 C 0.31542 0.32506 0.92556 0.0
C1209 C 0.31327 0.33157 0.94764 0.0
C1210 C 0.31469 0.30088 0.85456 0.0
C1211 C 0.30674 0.31414 0.83934 0.0
C1212 C 0.31263 0.30509 0.87701 0.0
C1213 C 0.30252 0.3227 0.885 0.0
C1214 C 0.29508 0.33624 0.86969 0.0
C1215 C 0.29704 0.33198 0.84739 0.0
H1216 H 0.02265 0.03893 0.26407 0.0
H1217 H 0.96347 0.04509 0.29544 0.0
H1218 H 0.04085 0.03474 0.29907 0.0
H1219 H 0.98173 0.04079 0.3303 0.0
H1220 H 0.00755 0.99439 0.37717 0.0
H1221 H 0.99227 0.00392 0.34295 0.0
H1222 H 0.0548 0.05764 0.33763 0.0
H1223 H 0.07027 0.04805 0.37218 0.0
C1224 C 0.01364 0.03968 0.27845 0.0
C1225 C 0.99152 0.04208 0.27697 0.0
C1226 C 0.02413 0.03742 0.29845 0.0
C1227 C 0.01257 0.03724 0.31724 0.0
C1228 C 0.99086 0.04064 0.31594 0.0
C1229 C 0.98047 0.04318 0.29601 0.0
C1230 C 0.01816 0.00803 0.36858 0.0
C1231 C 0.04016 0.02034 0.37716 0.0
C1232 C 0.00931 0.01368 0.34917 0.0
C1233 C 0.02231 0.03163 0.33784 0.0
C1234 C 0.04448 0.04373 0.34615 0.0
C1235 C 0.05328 0.03828 0.36582 0.0
H1236 H 0.33617 0.70944 0.61426 0.0
H1237 H 0.30079 0.65037 0.64811 0.0
H1238 H 0.3411 0.73609 0.64757 0.0
H1239 H 0.30501 0.67693 0.6809 0.0
H1240 H 0.32167 0.7264 0.74086 0.0
H1241 H 0.32868 0.70199 0.70987 0.0
H1242 H 0.31559 0.75276 0.66716 0.0
H1243 H 0.30941 0.77756 0.69822 0.0
C1244 C 0.32976 0.70206 0.62884 0.0
C1245 C 0.3178 0.67785 0.62843 0.0
C1246 C 0.33243 0.71736 0.64788 0.0
C1247 C 0.32319 0.70873 0.66683 0.0
C1248 C 0.31254 0.68421 0.66671 0.0
C1249 C 0.30995 0.66896 0.64778 0.0
C1250 C 0.32051 0.73246 0.72487 0.0
C1251 C 0.31469 0.75374 0.72193 0.0
C1252 C 0.3245 0.71846 0.70711 0.0
C1253 C 0.32252 0.7253 0.686 0.0
C1254 C 0.31758 0.74709 0.6832 0.0
C1255 C 0.31381 0.76122 0.701 0.0
H1256 H 0.59103 0.979 0.79137 0.0
H1257 H 0.57545 0.04392 0.77582 0.0
H1258 H 0.56969 0.97826 0.82322 0.0
H1259 H 0.55559 0.04435 0.80833 0.0
H1260 H 0.51682 0.04132 0.86508 0.0
H1261 H 0.52566 0.02955 0.82871 0.0
H1262 H 0.57592 0.99881 0.85715 0.0
H1263 H 0.56593 0.00919 0.89296 0.0
C1264 C 0.58309 0.99316 0.79489 0.0
C1265 C 0.58506 0.01169 0.78143 0.0
C1266 C 0.5709 0.9928 0.81313 0.0
C1267 C 0.56107 0.01139 0.81858 0.0
C1268 C 0.56249 0.02947 0.80455 0.0
C1269 C 0.57414 0.02944 0.78603 0.0
C1270 C 0.52925 0.03142 0.86331 0.0
C1271 C 0.54078 0.02618 0.88162 0.0
C1272 C 0.5345 0.02485 0.84258 0.0
C1273 C 0.55183 0.0136 0.83992 0.0
C1274 C 0.56227 0.0071 0.85838 0.0
C1275 C 0.55665 0.01317 0.879 0.0
H1276 H 0.27232 0.30568 0.08987 0.0
H1277 H 0.33089 0.36405 0.11146 0.0
H1278 H 0.26853 0.2955 0.12722 0.0
H1279 H 0.32792 0.3534 0.1485 0.0
H1280 H 0.30722 0.34602 0.21664 0.0
H1281 H 0.30936 0.35475 0.17909 0.0
H1282 H 0.27972 0.27996 0.15807 0.0
H1283 H 0.27671 0.27149 0.19595 0.0
C1284 C 0.28467 0.31612 0.10251 0.0
C1285 C 0.30192 0.33576 0.09742 0.0
C1286 C 0.28254 0.31024 0.12413 0.0
C1287 C 0.2977 0.32367 0.14147 0.0
C1288 C 0.31537 0.34284 0.13609 0.0
C1289 C 0.31731 0.34886 0.11459 0.0
C1290 C 0.30095 0.33138 0.20406 0.0
C1291 C 0.29173 0.30799 0.20962 0.0
C1292 C 0.30244 0.33637 0.18226 0.0
C1293 C 0.29509 0.31813 0.16496 0.0
C1294 C 0.28545 0.29472 0.17056 0.0
C1295 C 0.28372 0.28978 0.19247 0.0
H1296 H 0.21591 0.93724 0.03111 0.0
H1297 H 0.27029 0.99915 0.02192 0.0
H1298 H 0.19527 0.96336 0.04786 0.0
H1299 H 0.24987 0.02507 0.03882 0.0
H1300 H 0.19101 0.06054 0.0412 0.0
H1301 H 0.21522 0.03653 0.02879 0.0
H1302 H 0.19761 0.99185 0.08092 0.0
H1303 H 0.17351 0.01624 0.09371 0.0
C1304 C 0.22345 0.95637 0.03271 0.0
C1305 C 0.24463 0.96615 0.0251 0.0
C1306 C 0.21177 0.9713 0.04247 0.0
C1307 C 0.22102 0.99624 0.04467 0.0
C1308 C 0.24225 0.00594 0.03718 0.0
C1309 C 0.25394 0.99106 0.02753 0.0
C1310 C 0.19281 0.04611 0.05049 0.0
C1311 C 0.18029 0.04032 0.06846 0.0
C1312 C 0.20659 0.03222 0.04326 0.0
C1313 C 0.20811 0.01218 0.05376 0.0
C1314 C 0.19643 0.00697 0.07231 0.0
C1315 C 0.18272 0.02098 0.07965 0.0
H1316 H 0.7161 0.68146 0.04367 0.0
H1317 H 0.72013 0.64075 0.98388 0.0
H1318 H 0.68127 0.65209 0.04987 0.0
H1319 H 0.68428 0.61239 0.98871 0.0
H1320 H 0.63021 0.55246 0.00863 0.0
H1321 H 0.66643 0.58118 0.00586 0.0
H1322 H 0.64391 0.6352 0.0428 0.0
H1323 H 0.60864 0.6056 0.0471 0.0
C1324 C 0.70907 0.66651 0.03152 0.0
C1325 C 0.72063 0.66339 0.01322 0.0
C1326 C 0.689 0.64958 0.035 0.0
C1327 C 0.67966 0.62942 0.01994 0.0
C1328 C 0.69102 0.62703 0.00117 0.0
C1329 C 0.71145 0.64354 -0.0019 0.0
C1330 C 0.63336 0.57037 0.01657 0.0
C1331 C 0.61679 0.57677 0.02826 0.0
C1332 C 0.65401 0.58709 0.01467 0.0
C1333 C 0.65831 0.61099 0.02368 0.0
C1334 C 0.64171 0.61709 0.03584 0.0
C1335 C 0.62136 0.60009 0.03834 0.0
H1336 H 0.75812 0.53502 0.31678 0.0
H1337 H 0.70587 0.46859 0.30108 0.0
H1338 H 0.78609 0.51587 0.30298 0.0
H1339 H 0.73368 0.4499 0.28707 0.0
H1340 H 0.7801 0.43865 0.23581 0.0
H1341 H 0.75887 0.4645 0.25173 0.0
H1342 H 0.79976 0.47356 0.31232 0.0
H1343 H 0.82068 0.44705 0.29671 0.0
C1344 C 0.75269 0.51631 0.31071 0.0
C1345 C 0.72981 0.50331 0.30984 0.0
C1346 C 0.76865 0.50547 0.30282 0.0
C1347 C 0.76177 0.48169 0.29371 0.0
C1348 C 0.73918 0.46842 0.29379 0.0
C1349 C 0.72335 0.47907 0.30193 0.0
C1350 C 0.78487 0.44653 0.25239 0.0
C1351 C 0.80174 0.44052 0.26514 0.0
C1352 C 0.77278 0.46129 0.26143 0.0
C1353 C 0.77761 0.47055 0.28324 0.0
C1354 C 0.79586 0.46652 0.29544 0.0
C1355 C 0.80785 0.45149 0.28645 0.0
H1356 H 0.86337 0.44095 0.51795 0.0
H1357 H 0.86344 0.49643 0.47555 0.0
H1358 H 0.90431 0.45616 0.52497 0.0
H1359 H 0.90424 0.5116 0.48275 0.0
H1360 H 0.97795 0.51238 0.4798 0.0
H1361 H 0.93725 0.49666 0.47413 0.0
H1362 H 0.93329 0.49338 0.54313 0.0
H1363 H 0.97446 0.50911 0.54897 0.0
C1364 C 0.8721 0.45633 0.51009 0.0
C1365 C 0.86018 0.46743 0.4961 0.0
C1366 C 0.89548 0.46512 0.51428 0.0
C1367 C 0.90736 0.48501 0.50441 0.0
C1368 C 0.89548 0.49607 0.49041 0.0
C1369 C 0.87212 0.48741 0.48633 0.0
C1370 C 0.9685 0.5083 0.49383 0.0
C1371 C 0.97942 0.51204 0.51487 0.0
C1372 C 0.94515 0.49941 0.49054 0.0
C1373 C 0.93217 0.49397 0.50819 0.0
C1374 C 0.943 0.49736 0.52925 0.0
C1375 C 0.96649 0.50644 0.53259 0.0
H1376 H 0.39578 0.10588 0.34847 0.0
H1377 H 0.34327 0.04673 0.3156 0.0
H1378 H 0.3709 0.13172 0.34512 0.0
H1379 H 0.31859 0.07278 0.31198 0.0
H1380 H 0.28117 0.13179 0.30835 0.0
H1381 H 0.29856 0.10455 0.32681 0.0
H1382 H 0.3633 0.14116 0.30599 0.0
H1383 H 0.34613 0.16743 0.28713 0.0
C1384 C 0.37867 0.09818 0.34125 0.0
C1385 C 0.37169 0.07457 0.3316 0.0
C1386 C 0.36444 0.11296 0.33938 0.0
C1387 C 0.34317 0.10431 0.32774 0.0
C1388 C 0.33499 0.07986 0.32092 0.0
C1389 C 0.34919 0.065 0.3229 0.0
C1390 C 0.29908 0.13386 0.30768 0.0
C1391 C 0.31234 0.1519 0.29648 0.0
C1392 C 0.30901 0.1185 0.31842 0.0
C1393 C 0.33232 0.12128 0.31832 0.0
C1394 C 0.34542 0.13919 0.307 0.0
C1395 C 0.33554 0.15418 0.2961 0.0
H1396 H 0.36985 0.18915 0.528 0.0
H1397 H 0.32209 0.11948 0.52456 0.0
H1398 H 0.40114 0.17031 0.53045 0.0
H1399 H 0.35269 0.10092 0.52639 0.0
H1400 H 0.40714 0.07533 0.55776 0.0
H1401 H 0.37968 0.09795 0.55453 0.0
H1402 H 0.42089 0.143 0.51198 0.0
H1403 H 0.44929 0.12095 0.51613 0.0
C1404 C 0.36605 0.16988 0.5274 0.0
C1405 C 0.34352 0.15585 0.52648 0.0
C1406 C 0.38391 0.15907 0.52882 0.0
C1407 C 0.37946 0.13409 0.5292 0.0
C1408 C 0.35686 0.12021 0.52693 0.0
C1409 C 0.33925 0.1309 0.52573 0.0
C1410 C 0.41073 0.09032 0.54804 0.0
C1411 C 0.43056 0.09615 0.5372 0.0
C1412 C 0.39472 0.10315 0.54592 0.0
C1413 C 0.39782 0.12211 0.53268 0.0
C1414 C 0.41793 0.12852 0.5223 0.0
C1415 C 0.43409 0.11566 0.52449 0.0
H1416 H 0.66696 0.63568 0.31072 0.0
H1417 H 0.7261 0.61566 0.3342 0.0
H1418 H 0.6907 0.67491 0.30488 0.0
H1419 H 0.74976 0.65512 0.32871 0.0
H1420 H 0.78419 0.71145 0.28393 0.0
H1421 H 0.76131 0.67457 0.29607 0.0
H1422 H 0.71575 0.71245 0.32174 0.0
H1423 H 0.73825 0.74915 0.30926 0.0
C1424 C 0.68495 0.63981 0.31511 0.0
C1425 C 0.69466 0.62243 0.32265 0.0
C1426 C 0.69856 0.66234 0.3118 0.0
C1427 C 0.72213 0.66795 0.31604 0.0
C1428 C 0.73169 0.6511 0.32487 0.0
C1429 C 0.71809 0.62857 0.32816 0.0
C1430 C 0.76934 0.71192 0.29222 0.0
C1431 C 0.76297 0.73318 0.29546 0.0
C1432 C 0.75634 0.69085 0.29935 0.0
C1433 C 0.73674 0.69065 0.30989 0.0
C1434 C 0.73061 0.712 0.31346 0.0
C1435 C 0.74357 0.73304 0.30632 0.0
H1436 H 0.87504 0.46848 0.79862 0.0
H1437 H 0.93187 0.44123 0.78509 0.0
H1438 H 0.84982 0.42824 0.79194 0.0
H1439 H 0.90679 0.40088 0.77919 0.0
H1440 H 0.8545 0.33523 0.74838 0.0
H1441 H 0.87809 0.3762 0.75384 0.0
H1442 H 0.83944 0.39063 0.80657 0.0
H1443 H 0.81527 0.34971 0.80052 0.0
C1444 C 0.88219 0.45387 0.79441 0.0
C1445 C 0.90547 0.45807 0.79232 0.0
C1446 C 0.86773 0.43076 0.79068 0.0
C1447 C 0.87623 0.41129 0.78495 0.0
C1448 C 0.89957 0.4155 0.78314 0.0
C1449 C 0.914 0.43863 0.78667 0.0
C1450 C 0.85095 0.34718 0.76106 0.0
C1451 C 0.8331 0.33923 0.77409 0.0
C1452 C 0.86459 0.37065 0.7643 0.0
C1453 C 0.86088 0.38668 0.78083 0.0
C1454 C 0.84266 0.37885 0.79355 0.0
C1455 C 0.82883 0.35538 0.79013 0.0
H1456 H 0.07989 0.89429 0.12811 0.0
H1457 H 0.09027 0.8655 0.06464 0.0
H1458 H 0.07156 0.92826 0.11251 0.0
H1459 H 0.08246 0.89996 0.04895 0.0
H1460 H 0.04566 0.95345 0.0248 0.0
H1461 H 0.05371 0.91895 0.03993 0.0
H1462 H 0.08776 0.96409 0.09715 0.0
H1463 H 0.07909 0.99831 0.08234 0.0
C1464 C 0.08054 0.89525 0.11079 0.0
C1465 C 0.08581 0.87703 0.0977 0.0
C1466 C 0.07589 0.91494 0.1018 0.0
C1467 C 0.07637 0.91718 0.07937 0.0
C1468 C 0.08161 0.89888 0.06623 0.0
C1469 C 0.08625 0.87912 0.07526 0.0
C1470 C 0.05481 0.95605 0.04065 0.0
C1471 C 0.06166 0.97886 0.05227 0.0
C1472 C 0.05961 0.9362 0.0493 0.0
C1473 C 0.07144 0.93847 0.06987 0.0
C1474 C 0.07833 0.96134 0.08144 0.0
C1475 C 0.07349 0.98115 0.07282 0.0
H1476 H 0.94848 0.2299 0.86562 0.0
H1477 H 0.94308 0.29946 0.88875 0.0
H1478 H 0.91193 0.22202 0.84404 0.0
H1479 H 0.90689 0.2918 0.86758 0.0
H1480 H 0.83594 0.26837 0.8387 0.0
H1481 H 0.86765 0.26762 0.86353 0.0
H1482 H 0.89784 0.23824 0.811 0.0
H1483 H 0.8657 0.23871 0.78591 0.0
C1484 C 0.93908 0.24312 0.86666 0.0
C1485 C 0.94832 0.26509 0.87918 0.0
C1486 C 0.91835 0.23879 0.85409 0.0
C1487 C 0.90642 0.25627 0.85402 0.0
C1488 C 0.91535 0.27776 0.86741 0.0
C1489 C 0.93608 0.28217 0.87963 0.0
C1490 C 0.84916 0.26149 0.83235 0.0
C1491 C 0.84832 0.2539 0.81013 0.0
C1492 C 0.86743 0.26111 0.84667 0.0
C1493 C 0.8855 0.25316 0.83928 0.0
C1494 C 0.88416 0.24436 0.8173 0.0
C1495 C 0.86578 0.24473 0.80287 0.0
H1496 H 0.5905 0.24229 0.56993 0.0
H1497 H 0.59241 0.21066 0.63049 0.0
H1498 H 0.58278 0.20227 0.55011 0.0
H1499 H 0.58479 0.17148 0.61096 0.0
H1500 H 0.5445 0.10313 0.573 0.0
H1501 H 0.55157 0.14411 0.58852 0.0
H1502 H 0.60228 0.16721 0.54396 0.0
H1503 H 0.59519 0.12565 0.52811 0.0
C1504 C 0.58922 0.22693 0.57901 0.0
C1505 C 0.59205 0.22983 0.60185 0.0
C1506 C 0.58496 0.20405 0.56766 0.0
C1507 C 0.58304 0.18364 0.57897 0.0
C1508 C 0.58588 0.1867 0.60172 0.0
C1509 C 0.59038 0.20933 0.61294 0.0
C1510 C 0.55717 0.1168 0.56634 0.0
C1511 C 0.56945 0.11086 0.54939 0.0
C1512 C 0.56122 0.1404 0.57532 0.0
C1513 C 0.57761 0.15897 0.56762 0.0
C1514 C 0.58947 0.15332 0.5502 0.0
C1515 C 0.58552 0.12949 0.54124 0.0
H1516 H 0.59809 0.80136 0.41956 0.0
H1517 H 0.56118 0.7524 0.3657 0.0
H1518 H 0.63107 0.81188 0.39848 0.0
H1519 H 0.59407 0.76212 0.34504 0.0
H1520 H 0.64477 0.80309 0.30368 0.0
H1521 H 0.61369 0.79433 0.3266 0.0
H1522 H 0.6606 0.79846 0.38233 0.0
H1523 H 0.692 0.80878 0.35953 0.0
C1524 C 0.59716 0.79258 0.40337 0.0
C1525 C 0.577 0.77624 0.39419 0.0
C1526 C 0.61604 0.79856 0.39129 0.0
C1527 C 0.61514 0.78815 0.36988 0.0
C1528 C 0.59522 0.77104 0.3612 0.0
C1529 C 0.57639 0.76528 0.37313 0.0
C1530 C 0.6486 0.80264 0.32088 0.0
C1531 C 0.67099 0.80664 0.32967 0.0
C1532 C 0.63067 0.79719 0.33402 0.0
C1533 C 0.63455 0.7953 0.35631 0.0
C1534 C 0.65696 0.79982 0.36526 0.0
C1535 C 0.67496 0.80547 0.35211 0.0
H1536 H 0.06581 0.22737 0.45628 0.0
H1537 H 0.03468 0.18239 0.39848 0.0
H1538 H 0.06476 0.1921 0.47542 0.0
H1539 H 0.0331 0.14686 0.41762 0.0
H1540 H 0.04407 0.0821 0.45268 0.0
H1541 H 0.04512 0.11718 0.433 0.0
H1542 H 0.05029 0.16001 0.49383 0.0
H1543 H 0.04969 0.12513 0.51324 0.0
C1544 C 0.05854 0.20997 0.44748 0.0
C1545 C 0.05032 0.20858 0.42541 0.0
C1546 C 0.05777 0.18921 0.45871 0.0
C1547 C 0.04872 0.16543 0.44872 0.0
C1548 C 0.04052 0.16413 0.42654 0.0
C1549 C 0.04129 0.18494 0.41532 0.0
C1550 C 0.04536 0.09893 0.46201 0.0
C1551 C 0.0467 0.0999 0.48503 0.0
C1552 C 0.0459 0.11953 0.45051 0.0
C1553 C 0.04789 0.14263 0.46119 0.0
C1554 C 0.04912 0.1434 0.48424 0.0
C1555 C 0.04858 0.12286 0.49569 0.0
H1556 H 0.64004 0.3218 0.17267 0.0
H1557 H 0.60704 0.2827 0.22298 0.0
H1558 H 0.67676 0.31997 0.18874 0.0
H1559 H 0.64378 0.28061 0.23906 0.0
H1560 H 0.71269 0.26237 0.25482 0.0
H1561 H 0.67587 0.26479 0.2394 0.0
H1562 H 0.70808 0.33183 0.21555 0.0
H1563 H 0.74481 0.32944 0.23115 0.0
C1564 C 0.64039 0.31286 0.18728 0.0
C1565 C 0.61971 0.3026 0.19622 0.0
C1566 C 0.6619 0.31182 0.19674 0.0
C1567 C 0.66431 0.30006 0.21565 0.0
C1568 C 0.64354 0.28972 0.22455 0.0
C1569 C 0.62204 0.29109 0.21526 0.0
C1570 C 0.71215 0.27776 0.24634 0.0
C1571 C 0.73263 0.29563 0.2446 0.0
C1572 C 0.69058 0.27926 0.2374 0.0
C1573 C 0.68794 0.29856 0.22576 0.0
C1574 C 0.7085 0.31637 0.22394 0.0
C1575 C 0.73002 0.31504 0.23316 0.0
H1576 H 0.55571 0.84535 0.95499 0.0
H1577 H 0.56297 0.88379 0.89824 0.0
H1578 H 0.55416 0.88171 0.97682 0.0
H1579 H 0.5606 0.91948 0.91941 0.0
H1580 H 0.56904 0.98928 0.96199 0.0
H1581 H 0.57205 0.95308 0.94165 0.0
H1582 H 0.53963 0.91118 0.991 0.0
H1583 H 0.53751 0.94776 0.01166 0.0
C1584 C 0.55698 0.86145 0.94701 0.0
C1585 C 0.55968 0.86095 0.92447 0.0
C1586 C 0.55591 0.88269 0.95966 0.0
C1587 C 0.55731 0.90468 0.95051 0.0
C1588 C 0.5599 0.90387 0.92792 0.0
C1589 C 0.56113 0.88284 0.91542 0.0
C1590 C 0.56256 0.97242 0.96868 0.0
C1591 C 0.55303 0.97218 0.98888 0.0
C1592 C 0.5641 0.95111 0.9567 0.0
C1593 C 0.556 0.92804 0.96399 0.0
C1594 C 0.54648 0.92792 0.98431 0.0
C1595 C 0.54509 0.9493 -0.00364 0.0
H1596 H 0.9854 0.78568 0.73516 0.0
H1597 H 0.9588 0.79978 0.67347 0.0
H1598 H 0.94999 0.78626 0.75078 0.0
H1599 H 0.92271 0.7994 0.68898 0.0
H1600 H 0.8514 0.77167 0.72042 0.0
H1601 H 0.88711 0.77347 0.70405 0.0
H1602 H 0.92418 0.81081 0.76309 0.0
H1603 H 0.88844 0.80983 0.77913 0.0
C1604 C 0.97212 0.78906 0.72471 0.0
C1605 C 0.976 0.79296 0.70272 0.0
C1606 C 0.95138 0.78939 0.73388 0.0
C1607 C 0.9325 0.79283 0.7216 0.0
C1608 C 0.93622 0.79654 0.69948 0.0
C1609 C 0.95736 0.79696 0.69043 0.0
C1610 C 0.86706 0.78039 0.7301 0.0
C1611 C 0.86612 0.79051 0.75154 0.0
C1612 C 0.88795 0.78155 0.72048 0.0
C1613 C 0.90951 0.7923 0.7318 0.0
C1614 C 0.90855 0.80218 0.75335 0.0
C1615 C 0.88764 0.80165 0.76274 0.0
H1616 H 0.13269 0.07608 0.88812 0.0
H1617 H 0.14629 0.00718 0.88202 0.0
H1618 H 0.12361 0.07054 0.9255 0.0
H1619 H 0.13631 1.00129 0.91934 0.0
H1620 H 0.06926 0.99974 0.96208 0.0
H1621 H 0.0918 1.00135 0.93087 0.0
H1622 H 0.14381 0.05982 0.96499 0.0
H1623 H 0.1216 0.05768 -0.00335 0.0
C1624 C 0.13403 0.05993 0.89493 0.0
C1625 C 0.13998 0.04197 0.88228 0.0
C1626 C 0.12907 0.05688 0.91629 0.0
C1627 C 0.12948 0.03559 0.92513 0.0
C1628 C 0.13618 0.01793 0.9128 0.0
C1629 C 0.14178 0.02128 0.89156 0.0
C1630 C 0.08584 0.01237 0.96315 0.0
C1631 C 0.09371 0.02871 0.98155 0.0
C1632 C 0.09875 0.01318 0.94542 0.0
C1633 C 0.11941 0.03069 0.94572 0.0
C1634 C 0.12796 0.04607 0.96461 0.0
C1635 C 0.11529 0.04484 0.98261 0.0
H1636 H 0.78665 0.3357 0.53325 0.0
H1637 H 0.81919 0.40022 0.57469 0.0
H1638 H 0.79673 0.31188 0.5609 0.0
H1639 H 0.82851 0.37658 0.60253 0.0
H1640 H 0.8598 0.33069 0.6418 0.0
H1641 H 0.85223 0.35216 0.61127 0.0
H1642 H 0.78744 0.30005 0.59591 0.0
H1643 H 0.79544 0.27829 0.62604 0.0
C1644 C 0.79584 0.34477 0.5483 0.0
C1645 C 0.80215 0.36982 0.55179 0.0
C1646 C 0.80155 0.33114 0.56419 0.0
C1647 C 0.81353 0.34229 0.58394 0.0
C1648 C 0.81972 0.36737 0.58737 0.0
C1649 C 0.8142 0.38095 0.57145 0.0
C1650 C 0.84405 0.32378 0.63174 0.0
C1651 C 0.8282 0.30288 0.63627 0.0
C1652 C 0.83963 0.33611 0.61433 0.0
C1653 C 0.8191 0.32799 0.60123 0.0
C1654 C 0.80353 0.30667 0.60545 0.0
C1655 C 0.80808 0.29421 0.62273 0.0
H1656 H 0.51746 0.05771 0.35028 0.0
H1657 H 0.45385 0.04786 0.37894 0.0
H1658 H 0.53732 0.06485 0.38636 0.0
H1659 H 0.4735 0.0539 0.41489 0.0
H1660 H 0.51376 0.07631 0.4784 0.0
H1661 H 0.49845 0.0804 0.44218 0.0
H1662 H 0.54141 0.04053 0.41419 0.0
H1663 H 0.55729 0.03738 0.45011 0.0
C1664 C 0.50774 0.05706 0.3643 0.0
C1665 C 0.48411 0.05196 0.36183 0.0
C1666 C 0.51909 0.06111 0.38495 0.0
C1667 C 0.50699 0.05976 0.40351 0.0
C1668 C 0.4834 0.05545 0.40098 0.0
C1669 C 0.4721 0.05175 0.38035 0.0
C1670 C 0.52015 0.06877 0.46446 0.0
C1671 C 0.53655 0.05633 0.46707 0.0
C1672 C 0.51131 0.07101 0.44373 0.0
C1673 C 0.51855 0.0606 0.4253 0.0
C1674 C 0.53567 0.04908 0.42798 0.0
C1675 C 0.54467 0.04709 0.44863 0.0
H1676 H 0.75482 0.71035 0.10174 0.0
H1677 H 0.81909 0.75871 0.09198 0.0
H1678 H 0.75776 0.72723 0.13904 0.0
H1679 H 0.82199 0.77618 0.12984 0.0
H1680 H 0.83085 0.7784 0.20585 0.0
H1681 H 0.82817 0.7665 0.16696 0.0
H1682 H 0.75669 0.76025 0.1632 0.0
H1683 H 0.75931 0.77173 0.20211 0.0
C1684 C 0.76952 0.72495 0.10746 0.0
C1685 C 0.78671 0.73308 0.09362 0.0
C1686 C 0.77115 0.7348 0.12902 0.0
C1687 C 0.79013 0.75318 0.13783 0.0
C1688 C 0.80717 0.76189 0.12385 0.0
C1689 C 0.80541 0.75209 0.102 0.0
C1690 C 0.81452 0.77453 0.19678 0.0
C1691 C 0.79525 0.77589 0.20743 0.0
C1692 C 0.81302 0.76787 0.17429 0.0
C1693 C 0.79219 0.76223 0.16162 0.0
C1694 C 0.77302 0.76403 0.17225 0.0
C1695 C 0.77452 0.77074 0.19471 0.0
H1696 H 0.09854 0.02604 0.77373 0.0
H1697 H 0.15022 0.01442 0.73366 0.0
H1698 H 0.07567 0.02993 0.74131 0.0
H1699 H 0.12738 0.01821 0.70139 0.0
H1700 H 0.0753 0.01165 0.64586 0.0
H1701 H 0.09038 0.99941 0.67898 0.0
H1702 H 0.08239 0.06233 0.71523 0.0
H1703 H 0.06771 0.07489 0.68205 0.0
C1704 C 0.10479 0.02383 0.75798 0.0
C1705 C 0.12622 0.02011 0.75617 0.0
C1706 C 0.09177 0.02619 0.73949 0.0
C1707 C 0.09983 0.02448 0.71891 0.0
C1708 C 0.12068 0.0194 0.71704 0.0
C1709 C 0.1338 0.01736 0.73551 0.0
C1710 C 0.07671 0.02285 0.66091 0.0
C1711 C 0.07071 0.04447 0.66129 0.0
C1712 C 0.08522 0.01576 0.67984 0.0
C1713 C 0.08768 0.03001 0.69958 0.0
C1714 C 0.08046 0.0509 0.70024 0.0
C1715 C 0.07208 0.0581 0.68125 0.0
H1716 H 0.77492 0.3592 0.44023 0.0
H1717 H 0.7706 0.42086 0.40762 0.0
H1718 H 0.77548 0.33732 0.40529 0.0
H1719 H 0.77092 0.39883 0.37273 0.0
H1720 H 0.75913 0.29871 0.33735 0.0
H1721 H 0.75287 0.32002 0.37071 0.0
H1722 H 0.7999 0.38442 0.35445 0.0
H1723 H 0.80602 0.36326 0.32096 0.0
C1724 C 0.77374 0.36798 0.42562 0.0
C1725 C 0.7729 0.39186 0.42678 0.0
C1726 C 0.77397 0.35539 0.40558 0.0
C1727 C 0.77343 0.36643 0.38627 0.0
C1728 C 0.7717 0.38998 0.38736 0.0
C1729 C 0.77137 0.40253 0.40737 0.0
C1730 C 0.76801 0.31747 0.34077 0.0
C1731 C 0.78319 0.32925 0.32652 0.0
C1732 C 0.76448 0.32963 0.35995 0.0
C1733 C 0.77594 0.35386 0.36524 0.0
C1734 C 0.79064 0.3658 0.35072 0.0
C1735 C 0.79427 0.35362 0.33159 0.0
H1736 H 0.47411 0.07504 0.25617 0.0
H1737 H 0.40647 0.03942 0.22804 0.0
H1738 H 0.4886 0.07075 0.2211 0.0
H1739 H 0.42097 0.03574 0.19254 0.0
H1740 H 0.462 0.99774 0.14829 0.0
H1741 H 0.44296 0.01034 0.1784 0.0
H1742 H 0.49098 0.08021 0.18434 0.0
H1743 H 0.5103 0.06729 0.15449 0.0
C1744 C 0.46224 0.06684 0.24235 0.0
C1745 C 0.43922 0.05715 0.24492 0.0
C1746 C 0.47054 0.06453 0.22216 0.0
C1747 C 0.45597 0.05261 0.20407 0.0
C1748 C 0.43266 0.04459 0.20629 0.0
C1749 C 0.42434 0.04684 0.22657 0.0
C1750 C 0.46824 0.01588 0.15585 0.0
C1751 C 0.48778 0.03144 0.14934 0.0
C1752 C 0.45726 0.02319 0.17299 0.0
C1753 C 0.46551 0.04627 0.18383 0.0
C1754 C 0.48443 0.06219 0.17655 0.0
C1755 C 0.49552 0.05481 0.15953 0.0
H1756 H 0.8147 0.70592 0.93894 0.0
H1757 H 0.7907 0.76676 0.95771 0.0
H1758 H 0.81749 0.71757 0.90213 0.0
H1759 H 0.79256 0.77805 0.92064 0.0
H1760 H 0.81403 0.80495 0.85632 0.0
H1761 H 0.8138 0.79394 0.89327 0.0
H1762 H 0.79914 0.71959 0.86893 0.0
H1763 H 0.80038 0.73091 0.83185 0.0
C1764 C 0.80998 0.72184 0.93524 0.0
C1765 C 0.80256 0.7354 0.95157 0.0
C1766 C 0.81136 0.72847 0.91387 0.0
C1767 C 0.80519 0.74884 0.90784 0.0
C1768 C 0.7979 0.76248 0.92432 0.0
C1769 C 0.79671 0.75594 0.94577 0.0
C1770 C 0.8109 0.78621 0.85874 0.0
C1771 C 0.8072 0.7689 0.84076 0.0
C1772 C 0.81053 0.77979 0.88018 0.0
C1773 C 0.80623 0.75571 0.88464 0.0
C1774 C 0.8028 0.73838 0.86659 0.0
C1775 C 0.80338 0.74486 0.84509 0.0
H1776 H 0.8573 0.07344 0.0681 0.0
H1777 H 0.83805 0.10285 0.01048 0.0
H1778 H 0.87811 0.05136 0.04682 0.0
H1779 H 0.8581 0.07984 0.98885 0.0
H1780 H 0.92047 0.0574 0.96549 0.0
H1781 H 0.89467 0.07715 0.98192 0.0
H1782 H 0.87255 0.01822 0.02083 0.0
H1783 H 0.89964 0.99952 0.00586 0.0
C1784 C 0.85749 0.07511 0.05084 0.0
C1785 C 0.84612 0.08988 0.04096 0.0
C1786 C 0.86915 0.06219 0.03855 0.0
C1787 C 0.86941 0.06342 0.016 0.0
C1788 C 0.85832 0.07854 0.00617 0.0
C1789 C 0.84689 0.09177 0.01856 0.0
C1790 C 0.90997 0.04857 0.97744 0.0
C1791 C 0.91265 0.02721 0.98479 0.0
C1792 C 0.89498 0.05979 0.98671 0.0
C1793 C 0.88205 0.04962 0.00321 0.0
C1794 C 0.88288 0.02695 0.00872 0.0
C1795 C 0.89814 0.01595 -0.00024 0.0
H1796 H 0.36093 0.46166 0.01389 0.0
H1797 H 0.3829 0.40223 0.03538 0.0
H1798 H 0.39973 0.48542 0.015 0.0
H1799 H 0.42233 0.42655 0.03683 0.0
H1800 H 0.48789 0.46768 0.00766 0.0
H1801 H 0.44958 0.44349 0.01082 0.0
H1802 H 0.43265 0.50566 0.03919 0.0
H1803 H 0.47099 0.53005 0.03574 0.0
C1804 C 0.37406 0.45365 0.01904 0.0
C1805 C 0.36871 0.42987 0.02438 0.0
C1806 C 0.39641 0.46746 0.01986 0.0
C1807 C 0.41421 0.45797 0.02601 0.0
C1808 C 0.40898 0.43433 0.03183 0.0
C1809 C 0.38642 0.42044 0.03114 0.0
C1810 C 0.47602 0.47627 0.01455 0.0
C1811 C 0.4825 0.50092 0.02126 0.0
C1812 C 0.45408 0.46228 0.01658 0.0
C1813 C 0.43801 0.47256 0.02531 0.0
C1814 C 0.44454 0.49719 0.03218 0.0
C1815 C 0.46652 0.5112 0.0302 0.0
H1816 H 0.4124 0.62011 0.77423 0.0
H1817 H 0.35685 0.55823 0.75231 0.0
H1818 H 0.38609 0.63987 0.78994 0.0
H1819 H 0.3306 0.57785 0.76834 0.0
H1820 H 0.29285 0.63737 0.7693 0.0
H1821 H 0.31649 0.61163 0.75948 0.0
H1822 H 0.3598 0.63874 0.8184 0.0
H1823 H 0.33599 0.66456 0.82832 0.0
C1824 C 0.39462 0.61064 0.77298 0.0
C1825 C 0.38667 0.58773 0.76186 0.0
C1826 C 0.37956 0.62186 0.78214 0.0
C1827 C 0.35627 0.6104 0.78036 0.0
C1828 C 0.34842 0.58721 0.76977 0.0
C1829 C 0.36347 0.57598 0.76063 0.0
C1830 C 0.30699 0.63733 0.78051 0.0
C1831 C 0.31264 0.65313 0.79952 0.0
C1832 C 0.3206 0.6226 0.77484 0.0
C1833 C 0.34015 0.62337 0.78805 0.0
C1834 C 0.34506 0.6381 0.80771 0.0
C1835 C 0.33141 0.65282 0.81341 0.0
H1836 H 0.23458 0.59759 0.5645 0.0
H1837 H 0.22575 0.65664 0.53048 0.0
H1838 H 0.19406 0.57948 0.56067 0.0
H1839 H 0.18516 0.63779 0.52519 0.0
H1840 H 0.11109 0.60704 0.53334 0.0
H1841 H 0.15108 0.6272 0.54108 0.0
H1842 H 0.16611 0.55885 0.53409 0.0
H1843 H 0.12591 0.53875 0.52777 0.0
C1844 C 0.22386 0.60662 0.55612 0.0
C1845 C 0.23311 0.62838 0.54768 0.0
C1846 C 0.20067 0.59615 0.55372 0.0
C1847 C 0.18632 0.60693 0.54229 0.0
C1848 C 0.19564 0.6291 0.53431 0.0
C1849 C 0.21886 0.63989 0.53722 0.0
C1850 C 0.12303 0.5964 0.53351 0.0
C1851 C 0.11559 0.57141 0.52998 0.0
C1852 C 0.14594 0.60794 0.53782 0.0
C1853 C 0.16188 0.5947 0.53821 0.0
C1854 C 0.15431 0.56961 0.53443 0.0
C1855 C 0.13133 0.55806 0.53063 0.0
H1856 H 0.671 0.93934 0.78317 0.0
H1857 H 0.71901 0.00858 0.78334 0.0
H1858 H 0.69954 0.92526 0.8032 0.0
H1859 H 0.74717 0.99476 0.8037 0.0
H1860 H 0.79573 0.94627 0.80009 0.0
H1861 H 0.7678 0.9668 0.79142 0.0
H1862 H 0.72496 0.92896 0.83714 0.0
H1863 H 0.75355 0.90852 0.84651 0.0
C1864 C 0.68749 0.95164 0.7878 0.0
C1865 C 0.69294 0.97487 0.7813 0.0
C1866 C 0.70376 0.94367 0.79944 0.0
C1867 C 0.72566 0.95887 0.80485 0.0
C1868 C 0.73056 0.98253 0.79946 0.0
C1869 C 0.71443 0.9904 0.78775 0.0
C1870 C 0.7809 0.94291 0.8091 0.0
C1871 C 0.77696 0.92551 0.82396 0.0
C1872 C 0.76471 0.95468 0.80397 0.0
C1873 C 0.74406 0.94931 0.81343 0.0
C1874 C 0.74061 0.93315 0.82935 0.0
C1875 C 0.75699 0.92148 0.8347 0.0
H1876 H 0.76526 0.93012 0.55921 0.0
H1877 H 0.72037 0.87422 0.51521 0.0
H1878 H 0.73949 0.95476 0.55557 0.0
H1879 H 0.69452 0.89937 0.51104 0.0
H1880 H 0.64588 0.94687 0.52314 0.0
H1881 H 0.66873 0.91915 0.52877 0.0
H1882 H 0.72935 0.9769 0.52756 0.0
H1883 H 0.70671 0.00462 0.52295 0.0
C1884 C 0.74977 0.92304 0.54879 0.0
C1885 C 0.74496 0.90032 0.53732 0.0
C1886 C 0.73505 0.93727 0.54658 0.0
C1887 C 0.71515 0.9293 0.53264 0.0
C1888 C 0.70971 0.90605 0.52192 0.0
C1889 C 0.72449 0.89164 0.52428 0.0
C1890 C 0.6641 0.95367 0.52429 0.0
C1891 C 0.67444 0.97804 0.52266 0.0
C1892 C 0.67718 0.93771 0.52728 0.0
C1893 C 0.70089 0.94579 0.52879 0.0
C1894 C 0.71115 0.97009 0.52686 0.0
C1895 C 0.69813 0.98598 0.52391 0.0
H1896 H 0.43858 0.45698 0.72957 0.0
H1897 H 0.3787 0.47615 0.70776 0.0
H1898 H 0.4154 0.41874 0.7386 0.0
H1899 H 0.35536 0.43718 0.71494 0.0
H1900 H 0.31815 0.38135 0.7563 0.0
H1901 H 0.34138 0.41751 0.74353 0.0
H1902 H 0.39232 0.38113 0.72966 0.0
H1903 H 0.36968 0.34573 0.74415 0.0
C1904 C 0.42044 0.45256 0.72601 0.0
C1905 C 0.41034 0.46939 0.71809 0.0
C1906 C 0.40706 0.43058 0.73113 0.0
C1907 C 0.3833 0.42478 0.72786 0.0
C1908 C 0.37346 0.44119 0.71844 0.0
C1909 C 0.38681 0.46341 0.71399 0.0
C1910 C 0.33437 0.38125 0.75057 0.0
C1911 C 0.34228 0.36096 0.7514 0.0
C1912 C 0.34766 0.40189 0.74297 0.0
C1913 C 0.36887 0.40245 0.73536 0.0
C1914 C 0.37642 0.38175 0.73578 0.0
C1915 C 0.3634 0.36136 0.74399 0.0
H1916 H 0.19849 0.57436 0.26218 0.0
H1917 H 0.16342 0.59942 0.21046 0.0
H1918 H 0.22542 0.61359 0.26897 0.0
H1919 H 0.19042 0.6389 0.2175 0.0
H1920 H 0.25748 0.69769 0.22141 0.0
H1921 H 0.23089 0.65825 0.21441 0.0
H1922 H 0.22621 0.6545 0.28328 0.0
H1923 H 0.25307 0.69402 0.29041 0.0
C1924 C 0.1965 0.58822 0.25222 0.0
C1925 C 0.17874 0.58371 0.23575 0.0
C1926 C 0.21188 0.61077 0.25625 0.0
C1927 C 0.20999 0.62936 0.24386 0.0
C1928 C 0.19241 0.62485 0.22722 0.0
C1929 C 0.1769 0.60227 0.22324 0.0
C1930 C 0.25089 0.68847 0.23512 0.0
C1931 C 0.25745 0.69903 0.25651 0.0
C1932 C 0.2355 0.66592 0.23105 0.0
C1933 C 0.22638 0.65332 0.24826 0.0
C1934 C 0.23311 0.66372 0.26968 0.0
C1935 C 0.24844 0.68638 0.27376 0.0
H1936 H 0.50395 0.70892 0.48793 0.0
H1937 H 0.52022 0.68205 0.42599 0.0
H1938 H 0.50937 0.67323 0.50378 0.0
H1939 H 0.52632 0.64711 0.44197 0.0
H1940 H 0.56508 0.60848 0.48887 0.0
H1941 H 0.55709 0.64318 0.47379 0.0
H1942 H 0.4904 0.62374 0.49621 0.0
H1943 H 0.49809 0.58842 0.51075 0.0
C1944 C 0.50856 0.69542 0.47768 0.0
C1945 C 0.51154 0.69841 0.45563 0.0
C1946 C 0.51164 0.67497 0.48675 0.0
C1947 C 0.51837 0.65736 0.47415 0.0
C1948 C 0.52124 0.66035 0.45214 0.0
C1949 C 0.51762 0.68038 0.44297 0.0
C1950 C 0.54869 0.61153 0.49059 0.0
C1951 C 0.53222 0.59552 0.50097 0.0
C1952 C 0.5441 0.63142 0.4819 0.0
C1953 C 0.52313 0.63628 0.48383 0.0
C1954 C 0.50675 0.62056 0.49454 0.0
C1955 C 0.51113 0.60025 0.50275 0.0
H1956 H 0.65842 0.33299 0.69073 0.0
H1957 H 0.68312 0.3067 0.63292 0.0
H1958 H 0.68868 0.32452 0.71286 0.0
H1959 H 0.71327 0.29747 0.65523 0.0
H1960 H 0.77494 0.29941 0.70254 0.0
H1961 H 0.74763 0.31181 0.67919 0.0
H1962 H 0.69739 0.29017 0.72465 0.0
H1963 H 0.72465 0.27844 0.74808 0.0
C1964 C 0.67044 0.32553 0.68271 0.0
C1965 C 0.66822 0.32041 0.66004 0.0
C1966 C 0.68773 0.32043 0.69545 0.0
C1967 C 0.70327 0.30982 0.68597 0.0
C1968 C 0.7017 0.30569 0.66316 0.0
C1969 C 0.6844 0.31097 0.65033 0.0
C1970 C 0.75807 0.29736 0.70758 0.0
C1971 C 0.75212 0.28802 0.72734 0.0
C1972 C 0.74235 0.30437 0.6941 0.0
C1973 C 0.72026 0.30225 0.70003 0.0
C1974 C 0.71433 0.29265 0.71968 0.0
C1975 C 0.73 0.28572 0.73313 0.0
H1976 H 0.03497 0.33956 0.98551 0.0
H1977 H 0.01073 0.36898 0.9302 0.0
H1978 H 0.03826 0.37729 0.00789 0.0
H1979 H 0.01385 0.40605 0.95225 0.0
H1980 H 1.00392 0.46362 -9e-05 0.0
H1981 H 0.99722 0.42308 0.98261 0.0
H1982 H 0.06244 0.42045 0.00987 0.0
H1983 H 0.06916 0.46101 0.02731 0.0
C1984 C 0.03005 0.35387 0.97821 0.0
C1985 C 0.02266 0.3512 0.95602 0.0
C1986 C 0.03209 0.37554 0.99096 0.0
C1987 C 0.02628 0.39478 0.9819 0.0
C1988 C 0.01823 0.39166 0.95991 0.0
C1989 C 0.01658 0.37034 0.94719 0.0
C1990 C 0.01677 0.45437 0.00246 0.0
C1991 C 0.03718 0.46582 0.0149 0.0
C1992 C 0.01295 0.43109 0.99245 0.0
C1993 C 0.02934 0.41845 -0.0053 0.0
C1994 C 0.04937 0.42951 0.00788 0.0
C1995 C 0.05328 0.4529 0.01775 0.0
H1996 H 0.02425 0.80688 0.15193 0.0
H1997 H 0.04886 0.7778 0.2074 0.0
H1998 H 0.98839 0.80354 0.16814 0.0
H1999 H 0.01374 0.77514 0.22363 0.0
H2000 H 0.94198 0.74939 0.23844 0.0
H2001 H 0.97541 0.75214 0.21908 0.0
H2002 H 0.97147 0.81991 0.19821 0.0
H2003 H 0.93701 0.81649 0.21668 0.0
C2004 C 0.02207 0.79986 0.16755 0.0
C2005 C 0.03941 0.79242 0.17823 0.0
C2006 C 1.00158 0.79806 0.1769 0.0
C2007 C 0.99805 0.78882 0.19711 0.0
C2008 C 0.01557 0.78178 0.20783 0.0
C2009 C 0.03586 0.78345 0.19851 0.0
C2010 C 0.9479 0.7647 0.22941 0.0
C2011 C 0.9367 0.78272 0.22919 0.0
C2012 C 0.96734 0.76644 0.21852 0.0
C2013 C 0.97634 0.78639 0.20726 0.0
C2014 C 0.96495 0.80424 0.20662 0.0
C2015 C 0.94535 0.80242 0.21747 0.0
H2016 H 0.55034 0.3525 0.08857 0.0
H2017 H 0.55803 0.39625 0.14899 0.0
H2018 H 0.55092 0.38725 0.06868 0.0
H2019 H 0.55905 0.4312 0.12928 0.0
H2020 H 0.54528 0.49122 0.08976 0.0
H2021 H 0.54485 0.45656 0.10965 0.0
H2022 H 0.56616 0.42242 0.05388 0.0
H2023 H 0.56614 0.457 0.03399 0.0
C2024 C 0.55229 0.36953 0.09782 0.0
C2025 C 0.55414 0.37078 0.12083 0.0
C2026 C 0.55276 0.38996 0.0862 0.0
C2027 C 0.55507 0.41315 0.09675 0.0
C2028 C 0.55693 0.41428 0.11984 0.0
C2029 C 0.5565 0.39385 0.13144 0.0
C2030 C 0.55 0.47644 0.08159 0.0
C2031 C 0.55583 0.47777 0.05983 0.0
C2032 C 0.54985 0.45613 0.09326 0.0
C2033 C 0.55545 0.43558 0.084 0.0
C2034 C 0.56135 0.43703 0.06219 0.0
C2035 C 0.56154 0.45738 0.05055 0.0
H2036 H 0.99059 0.3147 0.32608 0.0
H2037 H 0.96214 0.2548 0.36149 0.0
H2038 H 0.95336 0.31516 0.31221 0.0
H2039 H 0.92404 0.25457 0.3468 0.0
H2040 H 0.85313 0.26592 0.32594 0.0
H2041 H 0.8903 0.26421 0.341 0.0
H2042 H 0.92138 0.30646 0.29133 0.0
H2043 H 0.88454 0.3087 0.27706 0.0
C2044 C 0.97641 0.30121 0.33088 0.0
C2045 C 0.98041 0.28463 0.34518 0.0
C2046 C 0.95438 0.30135 0.32254 0.0
C2047 C 0.93434 0.28476 0.32764 0.0
C2048 C 0.93825 0.26802 0.34206 0.0
C2049 C 0.96055 0.26798 0.35059 0.0
C2050 C 0.86787 0.27503 0.31821 0.0
C2051 C 0.86499 0.28769 0.30005 0.0
C2052 C 0.88968 0.27393 0.32693 0.0
C2053 C 0.91017 0.28534 0.31805 0.0
C2054 C 0.90702 0.29768 0.29965 0.0
C2055 C 0.88531 0.29889 0.29107 0.0
H2056 H 0.04794 0.73449 0.59287 0.0
H2057 H 0.03456 0.69474 0.64849 0.0
H2058 H 0.04856 0.69771 0.57094 0.0
H2059 H 0.03474 0.65838 0.6269 0.0
H2060 H 0.05391 0.59668 0.5898 0.0
H2061 H 0.05356 0.63386 0.61037 0.0
H2062 H 0.0319 0.65969 0.55183 0.0
H2063 H 0.03271 0.62243 0.53119 0.0
C2064 C 0.04499 0.71802 0.60055 0.0
C2065 C 0.04123 0.71831 0.62286 0.0
C2066 C 0.04526 0.69655 0.58781 0.0
C2067 C 0.0419 0.67419 0.59669 0.0
C2068 C 0.03795 0.67467 0.61896 0.0
C2069 C 0.03763 0.69595 0.63156 0.0
C2070 C 0.04898 0.61014 0.58114 0.0
C2071 C 0.04326 0.6058 0.55847 0.0
C2072 C 0.04862 0.63184 0.59316 0.0
C2073 C 0.04254 0.65067 0.58329 0.0
C2074 C 0.03693 0.64633 0.56053 0.0
C2075 C 0.03723 0.62453 0.5485 0.0
H2076 H 0.64807 0.80374 0.88129 0.0
H2077 H 0.60971 0.76778 0.82242 0.0
H2078 H 0.68335 0.80541 0.86428 0.0
H2079 H 0.64503 0.76878 0.80553 0.0
H2080 H 0.71463 0.75508 0.78621 0.0
H2081 H 0.67904 0.7542 0.8024 0.0
H2082 H 0.71073 0.82221 0.83828 0.0
H2083 H 0.7461 0.82336 0.82159 0.0
C2084 C 0.64688 0.79604 0.86468 0.0
C2085 C 0.62508 0.78562 0.85369 0.0
C2086 C 0.66757 0.79709 0.85467 0.0
C2087 C 0.66812 0.78726 0.83302 0.0
C2088 C 0.64627 0.77658 0.82211 0.0
C2089 C 0.62556 0.77606 0.83196 0.0
C2090 C 0.71424 0.77009 0.79741 0.0
C2091 C 0.7342 0.78939 0.80203 0.0
C2092 C 0.69335 0.7696 0.80687 0.0
C2093 C 0.69094 0.78807 0.82218 0.0
C2094 C 0.711 0.80728 0.82693 0.0
C2095 C 0.73173 0.80804 0.81705 0.0
H2096 H 0.42205 0.55461 0.64933 0.0
H2097 H 0.48776 0.59163 0.68114 0.0
H2098 H 0.43881 0.55316 0.61467 0.0
H2099 H 0.50447 0.58978 0.6469 0.0
H2100 H 0.5298 0.59111 0.58161 0.0
H2101 H 0.50794 0.6013 0.61046 0.0
H2102 H 0.46346 0.52954 0.6016 0.0
H2103 H 0.48496 0.51948 0.57252 0.0
C2104 C 0.43995 0.56289 0.64883 0.0
C2105 C 0.45369 0.57291 0.66794 0.0
C2106 C 0.44956 0.56191 0.62905 0.0
C2107 C 0.473 0.57107 0.62811 0.0
C2108 C 0.48635 0.5827 0.64699 0.0
C2109 C 0.47679 0.58361 0.66668 0.0
C2110 C 0.51525 0.57755 0.58571 0.0
C2111 C 0.50931 0.55437 0.575 0.0
C2112 C 0.50272 0.58342 0.6022 0.0
C2113 C 0.48405 0.5662 0.60838 0.0
C2114 C 0.47756 0.54332 0.59704 0.0
C2115 C 0.49005 0.53747 0.58051 0.0
H2116 H 0.81203 0.21519 0.01237 0.0
H2117 H 0.77157 0.14711 0.9813 0.0
H2118 H 0.80556 0.23412 0.97969 0.0
H2119 H 0.76442 0.16602 0.94911 0.0
H2120 H 0.77673 0.20075 0.88671 0.0
H2121 H 0.78323 0.18295 0.91969 0.0
H2122 H 0.77737 0.2457 0.95799 0.0
H2123 H 0.7722 0.26419 0.92478 0.0
C2124 C 0.80167 0.20431 -0.00139 0.0
C2125 C 0.79247 0.17964 -0.00066 0.0
C2126 C 0.79781 0.21517 0.97994 0.0
C2127 C 0.78452 0.2016 0.9617 0.0
C2128 C 0.77511 0.17697 0.96265 0.0
C2129 C 0.77913 0.16612 0.98117 0.0
C2130 C 0.77707 0.21091 0.90214 0.0
C2131 C 0.7741 0.234 0.90305 0.0
C2132 C 0.78049 0.20054 0.92111 0.0
C2133 C 0.78079 0.21284 0.94156 0.0
C2134 C 0.77752 0.23582 0.94252 0.0
C2135 C 0.77423 0.2463 0.92348 0.0
H2136 H 0.15169 0.48689 0.16581 0.0
H2137 H 0.08573 0.4585 0.18819 0.0
H2138 H 0.13397 0.49306 0.13128 0.0
H2139 H 0.06808 0.46536 0.15416 0.0
H2140 H 0.0418 0.48124 0.08853 0.0
H2141 H 0.05951 0.46137 0.11508 0.0
H2142 H 0.11581 0.52476 0.12746 0.0
H2143 H 0.09848 0.54423 0.10103 0.0
C2144 C 0.13345 0.48115 0.16307 0.0
C2145 C 0.12005 0.47283 0.17983 0.0
C2146 C 0.12328 0.48492 0.14341 0.0
C2147 C 0.09964 0.48048 0.14034 0.0
C2148 C 0.0863 0.46914 0.15603 0.0
C2149 C 0.09644 0.46528 0.17559 0.0
C2150 C 0.05786 0.49091 0.09711 0.0
C2151 C 0.06869 0.51432 0.09282 0.0
C2152 C 0.06809 0.47947 0.11212 0.0
C2153 C 0.0893 0.4913 0.12302 0.0
C2154 C 0.09985 0.51482 0.11885 0.0
C2155 C 0.0897 0.52615 0.10394 0.0
H2156 H 0.79774 0.8848 0.44287 0.0
H2157 H 0.80401 0.81749 0.46288 0.0
H2158 H 0.7993 0.87118 0.40559 0.0
H2159 H 0.80501 0.80332 0.42453 0.0
H2160 H 0.82739 0.79657 0.35302 0.0
H2161 H 0.8262 0.80726 0.39192 0.0
H2162 H 0.77757 0.84595 0.3766 0.0
H2163 H 0.77925 0.83594 0.33821 0.0
C2164 C 0.79925 0.86686 0.43941 0.0
C2165 C 0.80056 0.8523 0.45633 0.0
C2166 C 0.79999 0.85892 0.41768 0.0
C2167 C 0.80192 0.8359 0.41158 0.0
C2168 C 0.80356 0.82121 0.42841 0.0
C2169 C 0.80285 0.82928 0.45048 0.0
C2170 C 0.81653 0.80746 0.35798 0.0
C2171 C 0.80373 0.81568 0.3422 0.0
C2172 C 0.8157 0.81345 0.3804 0.0
C2173 C 0.80201 0.82782 0.38776 0.0
C2174 C 0.78883 0.83542 0.37188 0.0
C2175 C 0.78974 0.82958 0.34963 0.0
H2176 H 0.52547 0.54936 0.7693 0.0
H2177 H 0.46422 0.54963 0.79961 0.0
H2178 H 0.54344 0.5447 0.80417 0.0
H2179 H 0.48233 0.54501 0.83447 0.0
H2180 H 0.50992 0.49823 0.87965 0.0
H2181 H 0.49429 0.5093 0.84634 0.0
H2182 H 0.55611 0.56479 0.84291 0.0
H2183 H 0.57196 0.55351 0.87646 0.0
C2184 C 0.51595 0.54878 0.78345 0.0
C2185 C 0.49331 0.54955 0.78166 0.0
C2186 C 0.52631 0.54626 0.80341 0.0
C2187 C 0.51417 0.54425 0.82189 0.0
C2188 C 0.49194 0.54623 0.82035 0.0
C2189 C 0.48163 0.54898 0.80043 0.0
C2190 C 0.5203 0.5126 0.87166 0.0
C2191 C 0.54225 0.52484 0.88046 0.0
C2192 C 0.51123 0.51917 0.85279 0.0
C2193 C 0.52393 0.53803 0.84222 0.0
C2194 C 0.546 0.55017 0.85082 0.0
C2195 C 0.55503 0.54376 0.86993 0.0
H2196 H 0.83879 0.15873 0.1495 0.0
H2197 H 0.82103 0.20947 0.10962 0.0
H2198 H 0.84131 0.18619 0.18174 0.0
H2199 H 0.82238 0.23642 0.14182 0.0
H2200 H 0.8307 0.28449 0.20321 0.0
H2201 H 0.84079 0.26207 0.17248 0.0
H2202 H 0.81313 0.19634 0.20118 0.0
H2203 H 0.80402 0.21883 0.2322 0.0
C2204 C 0.83585 0.17597 0.14761 0.0
C2205 C 0.82944 0.18186 0.12712 0.0
C2206 C 0.83704 0.19161 0.16609 0.0
C2207 C 0.83142 0.21325 0.16449 0.0
C2208 C 0.8269 0.21997 0.14374 0.0
C2209 C 0.8261 0.20449 0.12521 0.0
C2210 C 0.82692 0.26525 0.20298 0.0
C2211 C 0.81637 0.25339 0.22002 0.0
C2212 C 0.83269 0.25239 0.18535 0.0
C2213 C 0.82778 0.22736 0.18426 0.0
C2214 C 0.81763 0.21562 0.20159 0.0
C2215 C 0.81214 0.2285 0.21932 0.0
H2216 H 0.06588 0.54178 0.26421 0.0
H2217 H 0.09612 0.49625 0.30056 0.0
H2218 H 0.04276 0.54613 0.29395 0.0
H2219 H 0.07285 0.50061 0.33023 0.0
H2220 H 0.04453 0.57649 0.368 0.0
H2221 H 0.05584 0.56712 0.33242 0.0
H2222 H 0.03071 0.49178 0.33914 0.0
H2223 H 0.01831 0.50103 0.37463 0.0
C2224 C 0.06743 0.5325 0.27843 0.0
C2225 C 0.08299 0.51886 0.28018 0.0
C2226 C 0.05416 0.53497 0.29537 0.0
C2227 C 0.05598 0.52359 0.31421 0.0
C2228 C 0.07093 0.50927 0.31568 0.0
C2229 C 0.08442 0.50703 0.29884 0.0
C2230 C 0.04044 0.55791 0.36163 0.0
C2231 C 0.0308 0.5395 0.37438 0.0
C2232 C 0.04707 0.55257 0.34123 0.0
C2233 C 0.04442 0.52876 0.3333 0.0
C2234 C 0.03318 0.51029 0.34515 0.0
C2235 C 0.0262 0.51562 0.36545 0.0
H2236 H 0.78725 0.80103 0.59142 0.0
H2237 H 0.81485 0.87465 0.61694 0.0
H2238 H 0.78478 0.7893 0.62855 0.0
H2239 H 0.81155 0.86336 0.65356 0.0
H2240 H 0.82368 0.83747 0.71843 0.0
H2241 H 0.8261 0.84687 0.68119 0.0
H2242 H 0.76716 0.78795 0.66141 0.0
H2243 H 0.7654 0.77787 0.69904 0.0
C2244 C 0.79283 0.81474 0.60489 0.0
C2245 C 0.80151 0.83882 0.60092 0.0
C2246 C 0.79121 0.80804 0.62633 0.0
C2247 C 0.79809 0.82522 0.64456 0.0
C2248 C 0.80657 0.84928 0.64037 0.0
C2249 C 0.80836 0.85588 0.6191 0.0
C2250 C 0.81106 0.8265 0.70627 0.0
C2251 C 0.79419 0.80697 0.71211 0.0
C2252 C 0.81238 0.83202 0.68464 0.0
C2253 C 0.7967 0.81848 0.66779 0.0
C2254 C 0.77977 0.79883 0.67361 0.0
C2255 C 0.7786 0.79313 0.69536 0.0
H2256 H 0.71442 0.42739 0.53247 0.0
H2257 H 0.76659 0.48846 0.51724 0.0
H2258 H 0.69264 0.45422 0.54588 0.0
H2259 H 0.7451 0.51497 0.53071 0.0
H2260 H 0.68621 0.54943 0.53021 0.0
H2261 H 0.70918 0.52349 0.51902 0.0
H2262 H 0.69577 0.48673 0.57662 0.0
H2263 H 0.67298 0.51312 0.58819 0.0
C2264 C 0.72117 0.44646 0.53194 0.0
C2265 C 0.74213 0.45582 0.52376 0.0
C2266 C 0.70885 0.4618 0.53977 0.0
C2267 C 0.71724 0.48665 0.53933 0.0
C2268 C 0.73814 0.49589 0.53107 0.0
C2269 C 0.75045 0.48067 0.52341 0.0
C2270 C 0.68863 0.5363 0.54085 0.0
C2271 C 0.67785 0.53345 0.56017 0.0
C2272 C 0.70164 0.5213 0.53432 0.0
C2273 C 0.7041 0.50302 0.54689 0.0
C2274 C 0.69383 0.50047 0.56647 0.0
C2275 C 0.68091 0.51562 0.57311 0.0
H2276 H 0.23399 0.13019 0.49969 0.0
H2277 H 0.20751 0.18858 0.52131 0.0
H2278 H 0.19829 0.1018 0.50486 0.0
H2279 H 0.17138 0.1599 0.52633 0.0
H2280 H 0.11832 0.09827 0.55326 0.0
H2281 H 0.15481 0.12709 0.54984 0.0
H2282 H 0.15954 0.08989 0.48818 0.0
H2283 H 0.12353 0.06122 0.49162 0.0
C2284 C 0.22046 0.137 0.5054 0.0
C2285 C 0.2236 0.16169 0.50999 0.0
C2286 C 0.19995 0.12068 0.50834 0.0
C2287 C 0.18196 0.12854 0.51603 0.0
C2288 C 0.185 0.15326 0.5206 0.0
C2289 C 0.20559 0.1697 0.5175 0.0
C2290 C 0.12736 0.09606 0.53916 0.0
C2291 C 0.11803 0.07736 0.52277 0.0
C2292 C 0.14811 0.11273 0.53707 0.0
C2293 C 0.16005 0.11086 0.51868 0.0
C2294 C 0.15093 0.09178 0.50263 0.0
C2295 C 0.13021 0.07533 0.50461 0.0
H2296 H 0.20388 0.96657 0.82095 0.0
H2297 H 0.25121 0.03371 0.81124 0.0
H2298 H 0.23306 0.94621 0.81541 0.0
H2299 H 0.2805 0.01341 0.80611 0.0
H2300 H 0.31001 0.96138 0.76373 0.0
H2301 H 0.28621 0.98578 0.77684 0.0
H2302 H 0.26927 0.94134 0.82931 0.0
H2303 H 0.2923 0.91639 0.81571 0.0
C2304 C 0.22063 0.97704 0.81804 0.0
C2305 C 0.22519 1.00166 0.81627 0.0
C2306 C 0.23739 0.96541 0.815 0.0
C2307 C 0.25904 0.97822 0.81017 0.0
C2308 C 0.26389 1.00304 0.80948 0.0
C2309 C 0.24712 0.01465 0.8125 0.0
C2310 C 0.30138 0.95699 0.77817 0.0
C2311 C 0.30291 0.9369 0.78857 0.0
C2312 C 0.28793 0.97109 0.78583 0.0
C2313 C 0.27576 0.96536 0.80404 0.0
C2314 C 0.27824 0.94601 0.8151 0.0
C2315 C 0.29167 0.93191 0.80744 0.0
H2316 H 0.36373 1.00128 0.96743 0.0
H2317 H 0.36233 0.94494 0.00916 0.0
H2318 H 0.40476 0.01527 0.97446 0.0
H2319 H 0.40322 0.95891 0.01601 0.0
H2320 H 0.4709 0.01052 0.04446 0.0
H2321 H 0.43016 0.99575 0.03577 0.0
H2322 H 0.43941 1.00147 0.96775 0.0
H2323 H 0.48016 0.01637 0.97636 0.0
C2324 C 0.37216 0.99177 0.97793 0.0
C2325 C 0.35977 0.97208 0.98781 0.0
C2326 C 0.39563 0.99973 0.98188 0.0
C2327 C 0.40706 0.98826 -0.00409 0.0
C2328 C 0.39475 0.96827 0.00537 0.0
C2329 C 0.37135 0.96019 0.00131 0.0
C2330 C 0.46425 0.00868 0.02766 0.0
C2331 C 0.4787 0.01457 0.01109 0.0
C2332 C 0.44097 1.00009 0.02269 0.0
C2333 C 0.43172 0.99741 0.00109 0.0
C2334 C 0.44613 1.00353 0.98454 0.0
C2335 C 0.46943 0.01193 0.98948 0.0
H2336 H 0.852 0.54901 0.82287 0.0
H2337 H 0.90471 0.61552 0.82798 0.0
H2338 H 0.82352 0.57088 0.82063 0.0
H2339 H 0.87636 0.63732 0.82501 0.0
H2340 H 0.82257 0.67398 0.82397 0.0
H2341 H 0.8457 0.65015 0.83878 0.0
H2342 H 0.81153 0.59086 0.79188 0.0
H2343 H 0.78759 0.61422 0.77791 0.0
C2344 C 0.8575 0.56833 0.82387 0.0
C2345 C 0.88058 0.58055 0.82529 0.0
C2346 C 0.84118 0.58085 0.82246 0.0
C2347 C 0.84763 0.60582 0.82227 0.0
C2348 C 0.87074 0.61812 0.82528 0.0
C2349 C 0.88705 0.60561 0.82687 0.0
C2350 C 0.81944 0.65559 0.8173 0.0
C2351 C 0.80335 0.64607 0.79959 0.0
C2352 C 0.83293 0.64203 0.82562 0.0
C2353 C 0.83071 0.6187 0.81635 0.0
C2354 C 0.81363 0.60869 0.79957 0.0
C2355 C 0.80006 0.62219 0.79134 0.0
H2356 H 0.83513 0.64283 0.06518 0.0
H2357 H 0.85845 0.67716 0.00839 0.0
H2358 H 0.86692 0.62607 0.06693 0.0
H2359 H 0.89102 0.66036 0.01034 0.0
H2360 H 0.92458 0.59588 0.00701 0.0
H2361 H 0.89805 0.62031 0.00492 0.0
H2362 H 0.90719 0.63595 0.07456 0.0
H2363 H 0.93339 0.6114 0.07664 0.0
C2364 C 0.84725 0.64707 0.05314 0.0
C2365 C 0.84412 0.66128 0.03655 0.0
C2366 C 0.86568 0.63756 0.05428 0.0
C2367 C 0.88166 0.64187 0.03883 0.0
C2368 C 0.87894 0.65657 0.02244 0.0
C2369 C 0.86041 0.66635 0.0214 0.0
C2370 C 0.92119 0.60486 0.02183 0.0
C2371 C 0.93083 0.60135 0.04203 0.0
C2372 C 0.90603 0.61894 0.02062 0.0
C2373 C 0.90023 0.62988 0.03959 0.0
C2374 C 0.91085 0.62737 0.05965 0.0
C2375 C 0.92587 0.61325 0.06086 0.0
H2376 H 0.16692 0.13518 0.79628 0.0
H2377 H 0.22475 0.1104 0.81507 0.0
H2378 H 0.192 0.1738 0.79062 0.0
H2379 H 0.24978 0.14927 0.80983 0.0
H2380 H 0.28645 0.21139 0.77214 0.0
H2381 H 0.26218 0.17297 0.77978 0.0
H2382 H 0.21782 0.20886 0.81073 0.0
H2383 H 0.2417 0.24715 0.80274 0.0
C2384 C 0.18496 0.13802 0.79939 0.0
C2385 C 0.19383 0.11967 0.80606 0.0
C2386 C 0.19933 0.16021 0.79625 0.0
C2387 C 0.22286 0.16455 0.79976 0.0
C2388 C 0.23173 0.14633 0.80672 0.0
C2389 C 0.21737 0.12412 0.80984 0.0
C2390 C 0.27156 0.21108 0.78064 0.0
C2391 C 0.26595 0.2323 0.78671 0.0
C2392 C 0.25773 0.18909 0.78512 0.0
C2393 C 0.23806 0.18791 0.79579 0.0
C2394 C 0.23268 0.20917 0.80219 0.0
C2395 C 0.24645 0.23112 0.79768 0.0
H2396 H 0.42369 0.94729 0.26818 0.0
H2397 H 0.38496 0.96163 0.32083 0.0
H2398 H 0.40009 0.90621 0.26272 0.0
H2399 H 0.36189 0.92038 0.31589 0.0
H2400 H 0.30879 0.85385 0.28423 0.0
H2401 H 0.3331 0.89468 0.29077 0.0
H2402 H 0.39124 0.86924 0.27828 0.0
H2403 H 0.36693 0.82877 0.27099 0.0
C2404 C 0.41039 0.94156 0.27882 0.0
C2405 C 0.40612 0.95771 0.29485 0.0
C2406 C 0.39688 0.91799 0.27574 0.0
C2407 C 0.37899 0.91004 0.28879 0.0
C2408 C 0.3752 0.92605 0.30526 0.0
C2409 C 0.38855 0.94965 0.30819 0.0
C2410 C 0.32676 0.85704 0.28289 0.0
C2411 C 0.33592 0.83816 0.27697 0.0
C2412 C 0.34072 0.88039 0.28676 0.0
C2413 C 0.36414 0.88524 0.28502 0.0
C2414 C 0.37326 0.86623 0.27937 0.0
C2415 C 0.3593 0.84299 0.27528 0.0
H2416 H 0.58531 0.3937 0.62588 0.0
H2417 H 0.59243 0.36402 0.56171 0.0
H2418 H 0.57638 0.42758 0.6107 0.0
H2419 H 0.584 0.3984 0.54641 0.0
H2420 H 0.54544 0.45155 0.52434 0.0
H2421 H 0.55483 0.41736 0.53879 0.0
H2422 H 0.59157 0.46314 0.59461 0.0
H2423 H 0.58155 0.49703 0.58052 0.0
C2424 C 0.58514 0.39445 0.60849 0.0
C2425 C 0.58965 0.37599 0.59508 0.0
C2426 C 0.58014 0.41409 0.59973 0.0
C2427 C 0.57949 0.41605 0.57722 0.0
C2428 C 0.58403 0.39755 0.56377 0.0
C2429 C 0.58904 0.37783 0.57257 0.0
C2430 C 0.5555 0.45436 0.53972 0.0
C2431 C 0.56267 0.47724 0.5512 0.0
C2432 C 0.56107 0.43468 0.54797 0.0
C2433 C 0.574 0.43721 0.56799 0.0
C2434 C 0.5813 0.46018 0.57934 0.0
C2435 C 0.57569 0.47981 0.57113 0.0
H2436 H 0.43034 0.74718 0.39487 0.0
H2437 H 0.46408 0.77277 0.33885 0.0
H2438 H 0.39371 0.73848 0.3733 0.0
H2439 H 0.42819 0.76453 0.3178 0.0
H2440 H 0.36315 0.73614 0.27801 0.0
H2441 H 0.39626 0.73406 0.30063 0.0
H2442 H 0.36973 0.76117 0.35698 0.0
H2443 H 0.33649 0.76269 0.33456 0.0
C2444 C 0.43 0.75071 0.378 0.0
C2445 C 0.45021 0.76088 0.36873 0.0
C2446 C 0.40904 0.74585 0.36564 0.0
C2447 C 0.40791 0.75071 0.3437 0.0
C2448 C 0.42824 0.76012 0.33443 0.0
C2449 C 0.44894 0.76514 0.34671 0.0
C2450 C 0.36416 0.74123 0.29527 0.0
C2451 C 0.34726 0.74995 0.30431 0.0
C2452 C 0.38324 0.74019 0.30827 0.0
C2453 C 0.38593 0.74782 0.33065 0.0
C2454 C 0.36831 0.75507 0.33989 0.0
C2455 C 0.34928 0.75615 0.32691 0.0
H2456 H 0.06299 0.73558 0.08325 0.0
H2457 H 0.12125 0.72406 0.11808 0.0
H2458 H 0.05491 0.69532 0.06408 0.0
H2459 H 0.11343 0.68435 0.09891 0.0
H2460 H 0.10317 0.62047 0.04848 0.0
H2461 H 0.11179 0.66281 0.06172 0.0
H2462 H 0.04249 0.65298 0.07605 0.0
H2463 H 0.03389 0.6107 0.06302 0.0
C2464 C 0.07429 0.72468 0.08651 0.0
C2465 C 0.09272 0.73303 0.10224 0.0
C2466 C 0.06959 0.70157 0.07567 0.0
C2467 C 0.08352 0.68658 0.07998 0.0
C2468 C 0.10246 0.69543 0.09503 0.0
C2469 C 0.10687 0.7182 0.10611 0.0
C2470 C 0.08972 0.62737 0.05427 0.0
C2471 C 0.06788 0.61207 0.05483 0.0
C2472 C 0.09468 0.65163 0.06192 0.0
C2473 C 0.07783 0.66132 0.06997 0.0
C2474 C 0.05582 0.6462 0.06979 0.0
C2475 C 0.05095 0.62188 0.06249 0.0
H2476 H 0.10346 0.28893 0.91736 0.0
H2477 H 0.05934 0.28343 0.85931 0.0
H2478 H 0.136 0.29568 0.89561 0.0
H2479 H 0.09165 0.29087 0.83778 0.0
H2480 H 0.14942 0.27855 0.80169 0.0
H2481 H 0.11816 0.2716 0.82465 0.0
H2482 H 0.15937 0.32377 0.87428 0.0
H2483 H 0.19088 0.33036 0.85131 0.0
C2484 C 0.10074 0.28934 0.9 0.0
C2485 C 0.07881 0.2855 0.89005 0.0
C2486 C 0.11939 0.29333 0.88753 0.0
C2487 C 0.11649 0.29364 0.86486 0.0
C2488 C 0.09454 0.29022 0.85509 0.0
C2489 C 0.07597 0.28611 0.86748 0.0
C2490 C 0.15178 0.28864 0.81745 0.0
C2491 C 0.17258 0.30515 0.82459 0.0
C2492 C 0.13382 0.2847 0.83064 0.0
C2493 C 0.13609 0.29729 0.85129 0.0
C2494 C 0.15705 0.31357 0.85858 0.0
C2495 C 0.1751 0.3174 0.8454 0.0
H2496 H 0.56608 0.72615 0.95763 0.0
H2497 H 0.53622 0.68138 0.89933 0.0
H2498 H 0.56472 0.69077 0.97672 0.0
H2499 H 0.53437 0.64576 0.91841 0.0
H2500 H 0.54541 0.58114 0.95365 0.0
H2501 H 0.54685 0.61633 0.93401 0.0
H2502 H 0.5492 0.65847 -0.00529 0.0
H2503 H 0.5482 0.6235 0.01411 0.0
C2504 C 0.55904 0.70878 0.94871 0.0
C2505 C 0.55126 0.70746 0.92652 0.0
C2506 C 0.55809 0.68797 0.95991 0.0
C2507 C 0.5493 0.66424 0.94974 0.0
C2508 C 0.54157 0.66301 0.92745 0.0
C2509 C 0.54249 0.68386 0.91627 0.0
C2510 C 0.54617 0.59784 0.96296 0.0
C2511 C 0.54659 0.59861 0.98593 0.0
C2512 C 0.54692 0.61848 0.95148 0.0
C2513 C 0.54824 0.64141 0.96216 0.0
C2514 C 0.54858 0.64198 0.98517 0.0
C2515 C 0.5478 0.6214 -0.00341 0.0
H2516 H 0.10752 0.78482 0.72295 0.0
H2517 H 0.141 0.82138 0.67155 0.0
H2518 H 0.14405 0.78261 0.73948 0.0
H2519 H 0.17755 0.81952 0.68814 0.0
H2520 H 0.24525 0.82984 0.73184 0.0
H2521 H 0.20875 0.83224 0.71559 0.0
H2522 H 0.17584 0.76582 0.74009 0.0
H2523 H 0.21245 0.76334 0.75608 0.0
C2524 C 0.12259 0.79263 0.71507 0.0
C2525 C 0.12044 0.80345 0.69559 0.0
C2526 C 0.14396 0.79119 0.72464 0.0
C2527 C 0.1648 0.80083 0.71561 0.0
C2528 C 0.16261 0.81192 0.69624 0.0
C2529 C 0.14121 0.81297 0.68649 0.0
C2530 C 0.23036 0.81558 0.73386 0.0
C2531 C 0.23272 0.79632 0.74565 0.0
C2532 C 0.20898 0.81691 0.72426 0.0
C2533 C 0.18829 0.79929 0.72607 0.0
C2534 C 0.19067 0.78014 0.73807 0.0
C2535 C 0.21211 0.7786 0.74734 0.0
H2536 H 0.04428 0.3458 0.45039 0.0
H2537 H 0.07749 0.38778 0.40174 0.0
H2538 H 0.0418 0.38248 0.4711 0.0
H2539 H 0.07577 0.42412 0.42235 0.0
H2540 H 0.05717 0.48917 0.45393 0.0
H2541 H 0.05904 0.45216 0.434 0.0
H2542 H 0.05357 0.4177 0.49328 0.0
H2543 H 0.05095 0.45457 0.51291 0.0
C2544 C 0.05137 0.36276 0.44411 0.0
C2545 C 0.06115 0.36311 0.42403 0.0
C2546 C 0.04998 0.38423 0.45615 0.0
C2547 C 0.05835 0.40731 0.44884 0.0
C2548 C 0.06847 0.40741 0.42892 0.0
C2549 C 0.06971 0.3861 0.41694 0.0
C2550 C 0.05638 0.47379 0.46285 0.0
C2551 C 0.05392 0.47562 0.4854 0.0
C2552 C 0.05763 0.45213 0.45128 0.0
C2553 C 0.05666 0.43089 0.46152 0.0
C2554 C 0.05417 0.43286 0.48413 0.0
C2555 C 0.05281 0.45448 0.49567 0.0
H2556 H 0.47413 0.32616 0.19309 0.0
H2557 H 0.46764 0.2569 0.21536 0.0
H2558 H 0.43863 0.32745 0.20895 0.0
H2559 H 0.43256 0.25802 0.23084 0.0
H2560 H 0.35822 0.25455 0.24369 0.0
H2561 H 0.39358 0.25465 0.22775 0.0
H2562 H 0.41579 0.33131 0.23925 0.0
H2563 H 0.38028 0.33109 0.25543 0.0
C2564 C 0.46533 0.31106 0.20122 0.0
C2565 C 0.4747 0.29137 0.20249 0.0
C2566 C 0.44461 0.31182 0.21062 0.0
C2567 C 0.43159 0.29278 0.22158 0.0
C2568 C 0.44103 0.27316 0.22261 0.0
C2569 C 0.46175 0.27258 0.21359 0.0
C2570 C 0.37054 0.27159 0.24307 0.0
C2571 C 0.36551 0.29277 0.25144 0.0
C2572 C 0.39135 0.27168 0.23378 0.0
C2573 C 0.40869 0.293 0.23177 0.0
C2574 C 0.40355 0.31426 0.23996 0.0
C2575 C 0.38282 0.31413 0.24959 0.0
H2576 H 0.60583 0.49405 0.36584 0.0
H2577 H 0.66278 0.54973 0.3962 0.0
H2578 H 0.59125 0.48707 0.40112 0.0
H2579 H 0.64755 0.54405 0.43149 0.0
H2580 H 0.61472 0.52786 0.49379 0.0
H2581 H 0.63493 0.52202 0.46193 0.0
H2582 H 0.57325 0.51164 0.42079 0.0
H2583 H 0.55324 0.51659 0.45212 0.0
C2584 C 0.61539 0.50444 0.38023 0.0
C2585 C 0.63518 0.52251 0.37855 0.0
C2586 C 0.60703 0.50062 0.40038 0.0
C2587 C 0.61789 0.51548 0.41902 0.0
C2588 C 0.63879 0.53225 0.41749 0.0
C2589 C 0.64747 0.53561 0.39733 0.0
C2590 C 0.60551 0.52401 0.47791 0.0
C2591 C 0.58242 0.52282 0.47547 0.0
C2592 C 0.61707 0.5207 0.4597 0.0
C2593 C 0.60569 0.51616 0.43882 0.0
C2594 C 0.5825 0.51446 0.4366 0.0
C2595 C 0.57102 0.51763 0.45466 0.0
H2596 H 0.33412 0.90354 0.05897 0.0
H2597 H 0.27117 0.84943 0.0409 0.0
H2598 H 0.3432 0.88018 0.08727 0.0
H2599 H 0.27986 0.82636 0.06979 0.0
H2600 H 0.30978 0.78132 0.113 0.0
H2601 H 0.30398 0.80292 0.08198 0.0
H2602 H 0.33118 0.86988 0.12174 0.0
H2603 H 0.33811 0.8484 0.15225 0.0
C2604 C 0.32218 0.88666 0.06109 0.0
C2605 C 0.30186 0.87839 0.0478 0.0
C2606 C 0.32733 0.87331 0.0774 0.0
C2607 C 0.31219 0.85146 0.08096 0.0
C2608 C 0.29204 0.84296 0.06735 0.0
C2609 C 0.28697 0.85625 0.05088 0.0
C2610 C 0.31492 0.80066 0.11498 0.0
C2611 C 0.32433 0.81312 0.13515 0.0
C2612 C 0.31131 0.81304 0.09728 0.0
C2613 C 0.317 0.83815 0.09936 0.0
C2614 C 0.32682 0.85057 0.11942 0.0
C2615 C 0.33053 0.83822 0.13704 0.0
H2616 H 0.01908 0.54368 0.85781 0.0
H2617 H 0.95568 0.54362 0.8839 0.0
H2618 H 0.03752 0.54974 0.89431 0.0
H2619 H 0.97394 0.54868 0.92058 0.0
H2620 H 0.01574 0.57498 0.98392 0.0
H2621 H 1.00051 0.57548 0.94685 0.0
H2622 H 0.03833 0.52714 0.92422 0.0
H2623 H 0.05417 0.52743 0.96104 0.0
C2624 C 0.00905 0.54482 0.87139 0.0
C2625 C 0.98589 0.54299 0.86804 0.0
C2626 C 0.01961 0.54822 0.89231 0.0
C2627 C 0.00719 0.54953 0.91037 0.0
C2628 C 0.98408 0.5481 0.90701 0.0
C2629 C 0.97356 0.54501 0.88602 0.0
C2630 C 0.02102 0.56475 0.97095 0.0
C2631 C 0.03608 0.55111 0.97534 0.0
C2632 C 0.01217 0.56489 0.94975 0.0
C2633 C 0.01804 0.55119 0.9326 0.0
C2634 C 0.03368 0.53817 0.93699 0.0
C2635 C 0.04272 0.53826 0.95812 0.0
H2636 H 0.32304 0.26016 0.58823 0.0
H2637 H 0.26039 0.21012 0.59995 0.0
H2638 H 0.32623 0.27847 0.62588 0.0
H2639 H 0.26359 0.22791 0.63696 0.0
H2640 H 0.26432 0.27408 0.69871 0.0
H2641 H 0.26167 0.2618 0.65996 0.0
H2642 H 0.33342 0.26972 0.66357 0.0
H2643 H 0.33614 0.28235 0.70237 0.0
C2644 C 0.30979 0.25331 0.59863 0.0
C2645 C 0.29146 0.2336 0.59087 0.0
C2646 C 0.31171 0.26362 0.62035 0.0
C2647 C 0.29517 0.25476 0.63475 0.0
C2648 C 0.27657 0.2356 0.62657 0.0
C2649 C 0.27481 0.22523 0.60518 0.0
C2650 C 0.2796 0.27335 0.69132 0.0
C2651 C 0.30041 0.27911 0.70399 0.0
C2652 C 0.27808 0.26617 0.66895 0.0
C2653 C 0.2973 0.26452 0.65835 0.0
C2654 C 0.31823 0.27091 0.67091 0.0
C2655 C 0.31975 0.278 0.69333 0.0
H2656 H 0.6085 0.52033 0.26559 0.0
H2657 H 0.67105 0.5509 0.23763 0.0
H2658 H 0.58728 0.52829 0.23391 0.0
H2659 H 0.64986 0.55838 0.2058 0.0
H2660 H 0.60792 0.59634 0.16707 0.0
H2661 H 0.62754 0.58606 0.19861 0.0
H2662 H 0.57771 0.51753 0.19487 0.0
H2663 H 0.55797 0.52796 0.16338 0.0
C2664 C 0.61768 0.52836 0.25253 0.0
C2665 C 0.64142 0.5352 0.25416 0.0
C2666 C 0.60556 0.5329 0.23437 0.0
C2667 C 0.61695 0.54429 0.21753 0.0
C2668 C 0.64065 0.5501 0.21875 0.0
C2669 C 0.65276 0.54562 0.2369 0.0
C2670 C 0.60114 0.57913 0.17306 0.0
C2671 C 0.58148 0.56293 0.16279 0.0
C2672 C 0.61242 0.57317 0.19101 0.0
C2673 C 0.60432 0.55086 0.19902 0.0
C2674 C 0.58427 0.53491 0.18914 0.0
C2675 C 0.57294 0.54091 0.17118 0.0
H2676 H 0.26762 0.92599 0.90401 0.0
H2677 H 0.26961 0.86505 0.93874 0.0
H2678 H 0.26816 0.90267 0.86982 0.0
H2679 H 0.27044 0.84195 0.90461 0.0
H2680 H 0.25741 0.80121 0.83809 0.0
H2681 H 0.2494 0.8238 0.86988 0.0
H2682 H 0.29743 0.88736 0.8533 0.0
H2683 H 0.30527 0.86493 0.82138 0.0
C2684 C 0.26783 0.90753 0.90436 0.0
C2685 C 0.26878 0.89746 0.92416 0.0
C2686 C 0.2683 0.89424 0.88476 0.0
C2687 C 0.26959 0.87056 0.88454 0.0
C2688 C 0.2693 0.8601 0.90421 0.0
C2689 C 0.26892 0.8734 0.92381 0.0
C2690 C 0.26615 0.82005 0.84112 0.0
C2691 C 0.28215 0.83121 0.82731 0.0
C2692 C 0.2616 0.83295 0.85938 0.0
C2693 C 0.27284 0.85732 0.86415 0.0
C2694 C 0.28832 0.86866 0.84996 0.0
C2695 C 0.29297 0.85574 0.83177 0.0
H2696 H 0.99379 0.56922 0.76727 0.0
H2697 H 0.9295 0.54906 0.72889 0.0
H2698 H 0.01305 0.56609 0.73455 0.0
H2699 H 0.94898 0.546 0.69604 0.0
H2700 H 0.99598 0.55905 0.64043 0.0
H2701 H 0.97845 0.57 0.67246 0.0
H2702 H 0.01173 0.52831 0.71032 0.0
H2703 H 0.02871 0.51671 0.6783 0.0
C2704 C 0.98378 0.56451 0.7518 0.0
C2705 C 0.96009 0.55901 0.75063 0.0
C2706 C 0.99484 0.56266 0.73312 0.0
C2707 C 0.98243 0.5555 0.71292 0.0
C2708 C 0.95888 0.5516 0.71149 0.0
C2709 C 0.94776 0.55329 0.73025 0.0
C2710 C 0.99943 0.55208 0.65556 0.0
C2711 C 0.0136 0.53685 0.65681 0.0
C2712 C 0.98949 0.55847 0.67385 0.0
C2713 C 0.99382 0.55004 0.69376 0.0
C2714 C 0.0084 0.53532 0.69517 0.0
C2715 C 0.01814 0.52872 0.67686 0.0
H2716 H 0.31864 0.20958 0.43583 0.0
H2717 H 0.29106 0.26767 0.4552 0.0
H2718 H 0.32119 0.22209 0.3993 0.0
H2719 H 0.29263 0.27974 0.41838 0.0
H2720 H 0.31253 0.30856 0.35419 0.0
H2721 H 0.31285 0.29718 0.39109 0.0
H2722 H 0.30295 0.22364 0.36615 0.0
H2723 H 0.30362 0.23537 0.32924 0.0
C2724 C 0.31307 0.22508 0.43232 0.0
C2725 C 0.30473 0.2376 0.44875 0.0
C2726 C 0.31431 0.2322 0.4111 0.0
C2727 C 0.30703 0.25203 0.40529 0.0
C2728 C 0.29883 0.26465 0.42188 0.0
C2729 C 0.2978 0.25764 0.44318 0.0
C2730 C 0.31061 0.28995 0.35652 0.0
C2731 C 0.30814 0.27299 0.33844 0.0
C2732 C 0.31055 0.28329 0.3779 0.0
C2733 C 0.30777 0.2593 0.38218 0.0
C2734 C 0.30551 0.24236 0.364 0.0
C2735 C 0.30579 0.24909 0.34259 0.0
H2736 H 0.36048 0.61253 0.53615 0.0
H2737 H 0.31346 0.55194 0.559 0.0
H2738 H 0.38208 0.58627 0.52188 0.0
H2739 H 0.3344 0.52567 0.544 0.0
H2740 H 0.4076 0.53292 0.48368 0.0
H2741 H 0.381 0.55507 0.49408 0.0
H2742 H 0.36907 0.51654 0.55095 0.0
H2743 H 0.39453 0.49341 0.53981 0.0
C2744 C 0.35473 0.59362 0.53805 0.0
C2745 C 0.33542 0.58436 0.54888 0.0
C2746 C 0.36693 0.57852 0.52966 0.0
C2747 C 0.35988 0.55383 0.53171 0.0
C2748 C 0.34047 0.54462 0.54241 0.0
C2749 C 0.32847 0.55972 0.55102 0.0
C2750 C 0.39869 0.52859 0.49798 0.0
C2751 C 0.4033 0.51157 0.51105 0.0
C2752 C 0.38377 0.5416 0.50416 0.0
C2753 C 0.3733 0.53794 0.52357 0.0
C2754 C 0.37679 0.5198 0.53586 0.0
C2755 C 0.39153 0.50665 0.52958 0.0
H2756 H 0.88309 0.90208 0.51794 0.0
H2757 H 0.86723 0.96278 0.55031 0.0
H2758 H 0.92199 0.92596 0.51639 0.0
H2759 H 0.90627 0.98637 0.55022 0.0
H2760 H 0.96865 0.03131 0.52245 0.0
H2761 H 0.93077 0.00655 0.52708 0.0
H2762 H 0.9572 0.94554 0.53284 0.0
H2763 H 0.99446 0.96993 0.52685 0.0
C2764 C 0.88821 0.92029 0.52544 0.0
C2765 C 0.87227 0.93059 0.5343 0.0
C2766 C 0.91052 0.93411 0.52456 0.0
C2767 C 0.91744 0.95841 0.5329 0.0
C2768 C 0.90161 0.96807 0.543 0.0
C2769 C 0.87928 0.95444 0.5434 0.0
C2770 C 0.96624 0.01259 0.52466 0.0
C2771 C 0.98445 1.00254 0.52402 0.0
C2772 C 0.94455 0.99835 0.52753 0.0
C2773 C 0.94068 0.97382 0.53035 0.0
C2774 C 0.95918 0.96407 0.53021 0.0
C2775 C 0.98067 0.97816 0.52688 0.0
H2776 H 0.86003 0.07329 0.23716 0.0
H2777 H 0.91371 0.10232 0.28783 0.0
H2778 H 0.83637 0.09455 0.25518 0.0
H2779 H 0.88954 0.1225 0.30684 0.0
H2780 H 0.85381 0.18225 0.31394 0.0
H2781 H 0.87599 0.1553 0.30396 0.0
H2782 H 0.81465 0.09946 0.28342 0.0
H2783 H 0.79252 0.12733 0.29165 0.0
C2784 C 0.8666 0.08394 0.2524 0.0
C2785 C 0.88878 0.08647 0.26096 0.0
C2786 C 0.85292 0.09592 0.26295 0.0
C2787 C 0.86094 0.11034 0.28258 0.0
C2788 C 0.8829 0.11201 0.29156 0.0
C2789 C 0.89677 0.10042 0.28072 0.0
C2790 C 0.84503 0.16417 0.30739 0.0
C2791 C 0.82144 0.15719 0.30294 0.0
C2792 C 0.85778 0.14851 0.30192 0.0
C2793 C 0.84721 0.12525 0.29233 0.0
C2794 C 0.82343 0.11749 0.29008 0.0
C2795 C 0.81068 0.13335 0.29517 0.0
H2796 H 0.73407 0.07523 0.06016 0.0
H2797 H 0.72417 0.14477 0.07681 0.0
H2798 H 0.69336 0.05791 0.05494 0.0
H2799 H 0.68338 0.12729 0.07202 0.0
H2800 H 0.61872 0.09498 0.02665 0.0
H2801 H 0.65842 0.1115 0.03878 0.0
H2802 H 0.65731 0.04882 0.07194 0.0
H2803 H 0.61746 0.03196 0.05948 0.0
C2804 C 0.72319 0.08672 0.06313 0.0
C2805 C 0.73225 0.11141 0.06853 0.0
C2806 C 0.69988 0.07677 0.06026 0.0
C2807 C 0.68526 0.09134 0.06279 0.0
C2808 C 0.69432 0.11576 0.06957 0.0
C2809 C 0.71764 0.12572 0.07241 0.0
C2810 C 0.62689 0.08468 0.03654 0.0
C2811 C 0.61499 0.06211 0.04202 0.0
C2812 C 0.64958 0.09428 0.04368 0.0
C2813 C 0.66086 0.08153 0.05646 0.0
C2814 C 0.649 0.05897 0.06202 0.0
C2815 C 0.62623 0.04935 0.05488 0.0
H2816 H 0.16939 0.46384 0.31031 0.0
H2817 H 0.21679 0.48232 0.26181 0.0
H2818 H 0.19765 0.45137 0.33252 0.0
H2819 H 0.24424 0.46892 0.28296 0.0
H2820 H 0.2962 0.45473 0.32108 0.0
H2821 H 0.26962 0.47693 0.31318 0.0
H2822 H 0.21612 0.42133 0.3347 0.0
H2823 H 0.24337 0.4005 0.34566 0.0
C2824 C 0.18578 0.46506 0.30437 0.0
C2825 C 0.19094 0.47405 0.28438 0.0
C2826 C 0.20198 0.45797 0.31706 0.0
C2827 C 0.22349 0.45948 0.30981 0.0
C2828 C 0.2283 0.46827 0.28964 0.0
C2829 C 0.21237 0.47566 0.27725 0.0
C2830 C 0.2791 0.44748 0.32523 0.0
C2831 C 0.27194 0.42482 0.33295 0.0
C2832 C 0.26361 0.46017 0.32017 0.0
C2833 C 0.24043 0.45019 0.3219 0.0
C2834 C 0.23372 0.42933 0.33251 0.0
C2835 C 0.24943 0.41706 0.33841 0.0
H2836 H 0.21613 0.36736 0.02328 0.0
H2837 H 0.2672 0.43048 0.05134 0.0
H2838 H 0.18792 0.39015 0.02367 0.0
H2839 H 0.23949 0.45301 0.05147 0.0
H2840 H 0.1833 0.48431 0.06658 0.0
H2841 H 0.20652 0.4567 0.0691 0.0
H2842 H 0.17928 0.42342 0.00503 0.0
H2843 H 0.15582 0.45105 0.00258 0.0
C2844 C 0.22128 0.38598 0.02966 0.0
C2845 C 0.2439 0.39711 0.03724 0.0
C2846 C 0.20519 0.39906 0.02977 0.0
C2847 C 0.21142 0.4234 0.03769 0.0
C2848 C 0.23397 0.43425 0.0456 0.0
C2849 C 0.24994 0.42131 0.04536 0.0
C2850 C 0.18222 0.47109 0.05303 0.0
C2851 C 0.16797 0.47014 0.03424 0.0
C2852 C 0.19551 0.45522 0.05448 0.0
C2853 C 0.195 0.43802 0.03715 0.0
C2854 C 0.17997 0.43632 0.01873 0.0
C2855 C 0.16658 0.45221 0.01731 0.0
H2856 H 0.87507 0.97872 0.2244 0.0
H2857 H 0.9286 0.94678 0.20924 0.0
H2858 H 0.85209 0.94048 0.23324 0.0
H2859 H 0.90522 0.90807 0.21784 0.0
H2860 H 0.86972 0.85672 0.2672 0.0
H2861 H 0.89208 0.89193 0.25207 0.0
H2862 H 0.83163 0.90012 0.21843 0.0
H2863 H 0.80917 0.86528 0.23384 0.0
C2864 C 0.8818 0.9634 0.2226 0.0
C2865 C 0.90374 0.96581 0.21632 0.0
C2866 C 0.86854 0.94142 0.22754 0.0
C2867 C 0.8769 0.9213 0.22637 0.0
C2868 C 0.89846 0.92339 0.21914 0.0
C2869 C 0.91175 0.94546 0.21404 0.0
C2870 C 0.86118 0.86603 0.2566 0.0
C2871 C 0.83761 0.85837 0.25198 0.0
C2872 C 0.87404 0.88604 0.24772 0.0
C2873 C 0.8636 0.89878 0.23407 0.0
C2874 C 0.84011 0.89081 0.2291 0.0
C2875 C 0.82725 0.87084 0.23796 0.0
H2876 H 0.6545 0.10579 0.73331 0.0
H2877 H 0.70698 0.07001 0.74086 0.0
H2878 H 0.68267 0.14448 0.74268 0.0
H2879 H 0.73503 0.10863 0.74963 0.0
H2880 H 0.77616 0.18634 0.73442 0.0
H2881 H 0.7487 0.14717 0.72666 0.0
H2882 H 0.71142 0.16368 0.77955 0.0
H2883 H 0.73926 0.20276 0.78778 0.0
C2884 C 0.67204 0.10622 0.73673 0.0
C2885 C 0.67857 0.08493 0.73634 0.0
C2886 C 0.68806 0.12827 0.74225 0.0
C2887 C 0.7109 0.12937 0.74696 0.0
C2888 C 0.7175 0.10816 0.74608 0.0
C2889 C 0.70145 0.08613 0.74106 0.0
C2890 C 0.76226 0.18148 0.74457 0.0
C2891 C 0.75985 0.19751 0.76175 0.0
C2892 C 0.7466 0.15913 0.74011 0.0
C2893 C 0.72795 0.15262 0.75242 0.0
C2894 C 0.72563 0.16846 0.76977 0.0
C2895 C 0.74162 0.19065 0.77457 0.0
loop_
_geom_bond_atom_site_label_1
_geom_bond_atom_site_label_2
_geom_bond_distance
_geom_bond_site_symmetry_2
_ccdc_geom_bond_type
C0 O1 1.306 1_655 S
C0 O3 1.160 1_655 S
O1 C0 1.306 1_455 S
O1 Cd2 2.228 . S
Cd2 O1 2.228 . S
Cd2 O6 2.273 . S
Cd2 O10 2.277 . S
O3 C0 1.160 1_455 S
O3 Cd4 2.203 . S
Cd4 O3 2.203 . S
Cd4 O6 2.411 . S
Cd4 O7 2.333 . S
Cd4 O8 2.352 . S
Cd4 O12 2.277 . S
Cd4 O13 2.356 . S
C5 O10 1.209 . S
C5 O12 1.226 . S
O6 Cd2 2.273 . S
O6 Cd4 2.411 . S
O6 C9 1.320 . S
O7 Cd4 2.333 . S
O7 C9 1.214 . S
O8 Cd4 2.352 . S
O8 C11 1.258 . S
C9 O6 1.320 . S
C9 O7 1.214 . S
O10 Cd2 2.277 . S
O10 C5 1.209 . S
C11 O8 1.258 . S
C11 O13 1.282 . S
O12 Cd4 2.277 . S
O12 C5 1.226 . S
O13 Cd4 2.356 . S
O13 C11 1.282 . S
C14 O15 1.306 . S
C14 O17 1.160 . S
O15 C14 1.306 . S
O15 Cd16 2.228 . S
Cd16 O15 2.228 . S
Cd16 O20 2.273 . S
Cd16 O24 2.277 . S
O17 C14 1.160 . S
O17 Cd18 2.203 . S
Cd18 O17 2.203 . S
Cd18 O20 2.411 . S
Cd18 O21 2.333 . S
Cd18 O22 2.352 . S
Cd18 O26 2.277 . S
Cd18 O27 2.356 . S
C19 O24 1.209 . S
C19 O26 1.226 . S
O20 Cd16 2.273 . S
O20 Cd18 2.411 . S
O20 C23 1.320 . S
O21 Cd18 2.333 . S
O21 C23 1.214 . S
O22 Cd18 2.352 . S
O22 C25 1.258 . S
C23 O20 1.320 . S
C23 O21 1.214 . S
O24 Cd16 2.277 . S
O24 C19 1.209 . S
C25 O22 1.258 . S
C25 O27 1.282 . S
O26 Cd18 2.277 . S
O26 C19 1.226 . S
O27 Cd18 2.356 . S
O27 C25 1.282 . S
C28 O29 1.306 . S
C28 O31 1.160 . S
O29 C28 1.306 . S
O29 Cd30 2.228 . S
Cd30 O29 2.228 . S
Cd30 O34 2.273 . S
Cd30 O38 2.277 . S
O31 C28 1.160 . S
O31 Cd32 2.203 . S
Cd32 O31 2.203 . S
Cd32 O34 2.411 . S
Cd32 O35 2.333 . S
Cd32 O36 2.352 . S
Cd32 O40 2.277 . S
Cd32 O41 2.356 . S
C33 O38 1.209 . S
C33 O40 1.226 . S
O34 Cd30 2.273 . S
O34 Cd32 2.411 . S
O34 C37 1.320 . S
O35 Cd32 2.333 . S
O35 C37 1.214 . S
O36 Cd32 2.352 . S
O36 C39 1.258 . S
C37 O34 1.320 . S
C37 O35 1.214 . S
O38 Cd30 2.277 . S
O38 C33 1.209 . S
C39 O36 1.258 . S
C39 O41 1.282 . S
O40 Cd32 2.277 . S
O40 C33 1.226 . S
O41 Cd32 2.356 . S
O41 C39 1.282 . S
C42 O43 1.306 . S
C42 O45 1.160 . S
O43 C42 1.306 . S
O43 Cd44 2.228 . S
Cd44 O43 2.228 . S
Cd44 O48 2.273 . S
Cd44 O52 2.277 . S
O45 C42 1.160 . S
O45 Cd46 2.203 . S
Cd46 O45 2.203 . S
Cd46 O48 2.411 . S
Cd46 O49 2.333 . S
Cd46 O50 2.352 . S
Cd46 O54 2.277 . S
Cd46 O55 2.356 . S
C47 O52 1.209 . S
C47 O54 1.226 . S
O48 Cd44 2.273 . S
O48 Cd46 2.411 . S
O48 C51 1.320 . S
O49 Cd46 2.333 . S
O49 C51 1.214 . S
O50 Cd46 2.352 . S
O50 C53 1.258 . S
C51 O48 1.320 . S
C51 O49 1.214 . S
O52 Cd44 2.277 . S
O52 C47 1.209 . S
C53 O50 1.258 . S
C53 O55 1.282 . S
O54 Cd46 2.277 . S
O54 C47 1.226 . S
O55 Cd46 2.356 . S
O55 C53 1.282 . S
C56 O57 1.306 . S
C56 O59 1.160 . S
O57 C56 1.306 . S
O57 Cd58 2.228 . S
Cd58 O57 2.228 . S
Cd58 O62 2.273 . S
Cd58 O66 2.277 . S
O59 C56 1.160 . S
O59 Cd60 2.203 . S
Cd60 O59 2.203 . S
Cd60 O62 2.411 . S
Cd60 O63 2.333 . S
Cd60 O64 2.352 . S
Cd60 O68 2.277 . S
Cd60 O69 2.356 . S
C61 O66 1.209 . S
C61 O68 1.226 . S
O62 Cd58 2.273 . S
O62 Cd60 2.411 . S
O62 C65 1.320 . S
O63 Cd60 2.333 . S
O63 C65 1.214 . S
O64 Cd60 2.352 . S
O64 C67 1.258 . S
C65 O62 1.320 . S
C65 O63 1.214 . S
O66 Cd58 2.277 . S
O66 C61 1.209 . S
C67 O64 1.258 . S
C67 O69 1.282 . S
O68 Cd60 2.277 . S
O68 C61 1.226 . S
O69 Cd60 2.356 . S
O69 C67 1.282 . S
C70 O71 1.306 . S
C70 O73 1.160 . S
O71 C70 1.306 . S
O71 Cd72 2.228 . S
Cd72 O71 2.228 . S
Cd72 O76 2.273 . S
Cd72 O80 2.277 . S
O73 C70 1.160 . S
O73 Cd74 2.203 . S
Cd74 O73 2.203 . S
Cd74 O76 2.411 . S
Cd74 O77 2.333 . S
Cd74 O78 2.352 . S
Cd74 O82 2.277 . S
Cd74 O83 2.356 . S
C75 O80 1.209 . S
C75 O82 1.226 . S
O76 Cd72 2.273 . S
O76 Cd74 2.411 . S
O76 C79 1.320 . S
O77 Cd74 2.333 . S
O77 C79 1.214 . S
O78 Cd74 2.352 . S
O78 C81 1.258 . S
C79 O76 1.320 . S
C79 O77 1.214 . S
O80 Cd72 2.277 . S
O80 C75 1.209 . S
C81 O78 1.258 . S
C81 O83 1.282 . S
O82 Cd74 2.277 . S
O82 C75 1.226 . S
O83 Cd74 2.356 . S
O83 C81 1.282 . S
C84 O85 1.306 . S
C84 O87 1.160 . S
O85 C84 1.306 . S
O85 Cd86 2.228 . S
Cd86 O85 2.228 . S
Cd86 O90 2.273 . S
Cd86 O94 2.277 . S
O87 C84 1.160 . S
O87 Cd88 2.203 . S
Cd88 O87 2.203 . S
Cd88 O90 2.411 . S
Cd88 O91 2.333 . S
Cd88 O92 2.352 . S
Cd88 O96 2.277 . S
Cd88 O97 2.356 . S
C89 O94 1.209 . S
C89 O96 1.226 . S
O90 Cd86 2.273 . S
O90 Cd88 2.411 . S
O90 C93 1.320 . S
O91 Cd88 2.333 . S
O91 C93 1.214 . S
O92 Cd88 2.352 . S
O92 C95 1.258 . S
C93 O90 1.320 . S
C93 O91 1.214 . S
O94 Cd86 2.277 . S
O94 C89 1.209 . S
C95 O92 1.258 . S
C95 O97 1.282 . S
O96 Cd88 2.277 . S
O96 C89 1.226 . S
O97 Cd88 2.356 . S
O97 C95 1.282 . S
C98 O99 1.306 . S
C98 O101 1.160 . S
O99 C98 1.306 . S
O99 Cd100 2.228 1_655 S
Cd100 O99 2.228 1_455 S
Cd100 O104 2.273 . S
Cd100 O108 2.277 . S
O101 C98 1.160 . S
O101 Cd102 2.203 1_655 S
Cd102 O101 2.203 1_455 S
Cd102 O104 2.411 . S
Cd102 O105 2.333 . S
Cd102 O106 2.352 1_455 S
Cd102 O110 2.277 . S
Cd102 O111 2.356 . S
C103 O108 1.209 . S
C103 O110 1.226 . S
O104 Cd100 2.273 . S
O104 Cd102 2.411 . S
O104 C107 1.320 . S
O105 Cd102 2.333 . S
O105 C107 1.214 . S
O106 Cd102 2.352 1_655 S
O106 C109 1.258 . S
C107 O104 1.320 . S
C107 O105 1.214 . S
O108 Cd100 2.277 . S
O108 C103 1.209 . S
C109 O106 1.258 . S
C109 O111 1.282 1_655 S
O110 Cd102 2.277 . S
O110 C103 1.226 . S
O111 Cd102 2.356 . S
O111 C109 1.282 1_455 S
C112 O113 1.306 . S
C112 O115 1.160 . S
O113 C112 1.306 . S
O113 Cd114 2.228 . S
Cd114 O113 2.228 . S
Cd114 O118 2.273 . S
Cd114 O122 2.277 1_545 S
O115 C112 1.160 . S
O115 Cd116 2.203 . S
Cd116 O115 2.203 . S
Cd116 O118 2.411 . S
Cd116 O119 2.333 . S
Cd116 O120 2.352 . S
Cd116 O124 2.277 1_545 S
Cd116 O125 2.356 . S
C117 O122 1.209 . S
C117 O124 1.226 . S
O118 Cd114 2.273 . S
O118 Cd116 2.411 . S
O118 C121 1.320 . S
O119 Cd116 2.333 . S
O119 C121 1.214 . S
O120 Cd116 2.352 . S
O120 C123 1.258 . S
C121 O118 1.320 . S
C121 O119 1.214 . S
O122 Cd114 2.277 1_565 S
O122 C117 1.209 . S
C123 O120 1.258 . S
C123 O125 1.282 . S
O124 Cd116 2.277 1_565 S
O124 C117 1.226 . S
O125 Cd116 2.356 . S
O125 C123 1.282 . S
C126 O127 1.306 . S
C126 O129 1.160 . S
O127 C126 1.306 . S
O127 Cd128 2.228 . S
Cd128 O127 2.228 . S
Cd128 O132 2.273 . S
Cd128 O136 2.277 . S
O129 C126 1.160 . S
O129 Cd130 2.203 . S
Cd130 O129 2.203 . S
Cd130 O132 2.411 . S
Cd130 O133 2.333 . S
Cd130 O134 2.352 . S
Cd130 O138 2.277 . S
Cd130 O139 2.356 . S
C131 O136 1.209 . S
C131 O138 1.226 . S
O132 Cd128 2.273 . S
O132 Cd130 2.411 . S
O132 C135 1.320 . S
O133 Cd130 2.333 . S
O133 C135 1.214 . S
O134 Cd130 2.352 . S
O134 C137 1.258 . S
C135 O132 1.320 . S
C135 O133 1.214 . S
O136 Cd128 2.277 . S
O136 C131 1.209 . S
C137 O134 1.258 . S
C137 O139 1.282 . S
O138 Cd130 2.277 . S
O138 C131 1.226 . S
O139 Cd130 2.356 . S
O139 C137 1.282 . S
C140 O141 1.306 . S
C140 O143 1.160 . S
O141 C140 1.306 . S
O141 Cd142 2.228 . S
Cd142 O141 2.228 . S
Cd142 O146 2.273 . S
Cd142 O150 2.277 . S
O143 C140 1.160 . S
O143 Cd144 2.203 . S
Cd144 O143 2.203 . S
Cd144 O146 2.411 . S
Cd144 O147 2.333 . S
Cd144 O148 2.352 . S
Cd144 O152 2.277 . S
Cd144 O153 2.356 . S
C145 O150 1.209 . S
C145 O152 1.226 . S
O146 Cd142 2.273 . S
O146 Cd144 2.411 . S
O146 C149 1.320 . S
O147 Cd144 2.333 . S
O147 C149 1.214 . S
O148 Cd144 2.352 . S
O148 C151 1.258 . S
C149 O146 1.320 . S
C149 O147 1.214 . S
O150 Cd142 2.277 . S
O150 C145 1.209 . S
C151 O148 1.258 . S
C151 O153 1.282 . S
O152 Cd144 2.277 . S
O152 C145 1.226 . S
O153 Cd144 2.356 . S
O153 C151 1.282 . S
C154 O155 1.314 . S
C154 O157 1.154 1_556 S
O155 C154 1.314 . S
O155 Cd156 2.228 . S
Cd156 O155 2.228 . S
Cd156 O160 2.283 . S
Cd156 O164 2.277 . S
O157 C154 1.154 1_554 S
O157 Cd158 2.203 . S
Cd158 O157 2.203 . S
Cd158 O160 2.409 1_554 S
Cd158 O161 2.333 . S
Cd158 O162 2.352 . S
Cd158 O166 2.277 1_554 S
Cd158 O167 2.356 . S
C159 O164 1.209 . S
C159 O166 1.226 . S
O160 Cd156 2.283 . S
O160 Cd158 2.409 1_556 S
O160 C163 1.319 1_556 S
O161 Cd158 2.333 . S
O161 C163 1.213 . S
O162 Cd158 2.352 . S
O162 C165 1.258 . S
C163 O160 1.319 1_554 S
C163 O161 1.213 . S
O164 Cd156 2.277 . S
O164 C159 1.209 . S
C165 O162 1.258 . S
C165 O167 1.282 . S
O166 Cd158 2.277 1_556 S
O166 C159 1.226 . S
O167 Cd158 2.356 . S
O167 C165 1.282 . S
C168 O169 1.306 . S
C168 O171 1.160 . S
O169 C168 1.306 . S
O169 Cd170 2.228 . S
Cd170 O169 2.228 . S
Cd170 O174 2.273 . S
Cd170 O178 2.277 1_554 S
O171 C168 1.160 . S
O171 Cd172 2.203 . S
Cd172 O171 2.203 . S
Cd172 O174 2.411 . S
Cd172 O175 2.333 . S
Cd172 O176 2.352 . S
Cd172 O180 2.277 . S
Cd172 O181 2.356 . S
C173 O178 1.209 . S
C173 O180 1.226 1_556 S
O174 Cd170 2.273 . S
O174 Cd172 2.411 . S
O174 C177 1.320 . S
O175 Cd172 2.333 . S
O175 C177 1.214 . S
O176 Cd172 2.352 . S
O176 C179 1.258 . S
C177 O174 1.320 . S
C177 O175 1.214 . S
O178 Cd170 2.277 1_556 S
O178 C173 1.209 . S
C179 O176 1.258 . S
C179 O181 1.282 . S
O180 Cd172 2.277 . S
O180 C173 1.226 1_554 S
O181 Cd172 2.356 . S
O181 C179 1.282 . S
C182 O183 1.306 . S
C182 O185 1.160 . S
O183 C182 1.306 . S
O183 Cd184 2.228 . S
Cd184 O183 2.228 . S
Cd184 O188 2.273 . S
Cd184 O192 2.277 . S
O185 C182 1.160 . S
O185 Cd186 2.203 . S
Cd186 O185 2.203 . S
Cd186 O188 2.411 . S
Cd186 O189 2.333 . S
Cd186 O190 2.352 . S
Cd186 O194 2.277 . S
Cd186 O195 2.356 . S
C187 O192 1.209 . S
C187 O194 1.226 . S
O188 Cd184 2.273 . S
O188 Cd186 2.411 . S
O188 C191 1.320 . S
O189 Cd186 2.333 . S
O189 C191 1.214 . S
O190 Cd186 2.352 . S
O190 C193 1.258 . S
C191 O188 1.320 . S
C191 O189 1.214 . S
O192 Cd184 2.277 . S
O192 C187 1.209 . S
C193 O190 1.258 . S
C193 O195 1.282 . S
O194 Cd186 2.277 . S
O194 C187 1.226 . S
O195 Cd186 2.356 . S
O195 C193 1.282 . S
C196 O197 1.306 . S
C196 O199 1.160 . S
O197 C196 1.306 . S
O197 Cd198 2.228 . S
Cd198 O197 2.228 . S
Cd198 O202 2.273 . S
Cd198 O206 2.277 . S
O199 C196 1.160 . S
O199 Cd200 2.203 . S
Cd200 O199 2.203 . S
Cd200 O202 2.411 . S
Cd200 O203 2.333 . S
Cd200 O204 2.352 . S
Cd200 O208 2.277 . S
Cd200 O209 2.356 . S
C201 O206 1.209 . S
C201 O208 1.226 . S
O202 Cd198 2.273 . S
O202 Cd200 2.411 . S
O202 C205 1.320 . S
O203 Cd200 2.333 . S
O203 C205 1.214 . S
O204 Cd200 2.352 . S
O204 C207 1.258 . S
C205 O202 1.320 . S
C205 O203 1.214 . S
O206 Cd198 2.277 . S
O206 C201 1.209 . S
C207 O204 1.258 . S
C207 O209 1.282 . S
O208 Cd200 2.277 . S
O208 C201 1.226 . S
O209 Cd200 2.356 . S
O209 C207 1.282 . S
C210 O211 1.306 . S
C210 O213 1.160 . S
O211 C210 1.306 . S
O211 Cd212 2.228 . S
Cd212 O211 2.228 . S
Cd212 O216 2.273 . S
Cd212 O220 2.277 . S
O213 C210 1.160 . S
O213 Cd214 2.203 . S
Cd214 O213 2.203 . S
Cd214 O216 2.411 . S
Cd214 O217 2.333 . S
Cd214 O218 2.352 . S
Cd214 O222 2.277 . S
Cd214 O223 2.356 . S
C215 O220 1.209 . S
C215 O222 1.226 . S
O216 Cd212 2.273 . S
O216 Cd214 2.411 . S
O216 C219 1.320 . S
O217 Cd214 2.333 . S
O217 C219 1.214 . S
O218 Cd214 2.352 . S
O218 C221 1.258 . S
C219 O216 1.320 . S
C219 O217 1.214 . S
O220 Cd212 2.277 . S
O220 C215 1.209 . S
C221 O218 1.258 . S
C221 O223 1.282 . S
O222 Cd214 2.277 . S
O222 C215 1.226 . S
O223 Cd214 2.356 . S
O223 C221 1.282 . S
C224 O225 1.306 . S
C224 O227 1.160 . S
O225 C224 1.306 . S
O225 Cd226 2.228 1_545 S
Cd226 O225 2.228 1_565 S
Cd226 O230 2.273 1_565 S
Cd226 O234 2.277 . S
O227 C224 1.160 . S
O227 Cd228 2.203 . S
Cd228 O227 2.203 . S
Cd228 O230 2.411 . S
Cd228 O231 2.333 . S
Cd228 O232 2.352 . S
Cd228 O236 2.277 1_545 S
Cd228 O237 2.356 . S
C229 O234 1.209 . S
C229 O236 1.226 . S
O230 Cd226 2.273 1_545 S
O230 Cd228 2.411 . S
O230 C233 1.320 . S
O231 Cd228 2.333 . S
O231 C233 1.214 . S
O232 Cd228 2.352 . S
O232 C235 1.258 . S
C233 O230 1.320 . S
C233 O231 1.214 . S
O234 Cd226 2.277 . S
O234 C229 1.209 . S
C235 O232 1.258 . S
C235 O237 1.282 . S
O236 Cd228 2.277 1_565 S
O236 C229 1.226 . S
O237 Cd228 2.356 . S
O237 C235 1.282 . S
C238 O239 1.306 . S
C238 O241 1.160 . S
O239 C238 1.306 . S
O239 Cd240 2.228 . S
Cd240 O239 2.228 . S
Cd240 O244 2.273 . S
Cd240 O248 2.277 . S
O241 C238 1.160 . S
O241 Cd242 2.203 . S
Cd242 O241 2.203 . S
Cd242 O244 2.411 . S
Cd242 O245 2.333 . S
Cd242 O246 2.352 . S
Cd242 O250 2.277 . S
Cd242 O251 2.356 . S
C243 O248 1.209 . S
C243 O250 1.226 . S
O244 Cd240 2.273 . S
O244 Cd242 2.411 . S
O244 C247 1.320 . S
O245 Cd242 2.333 . S
O245 C247 1.214 . S
O246 Cd242 2.352 . S
O246 C249 1.258 . S
C247 O244 1.320 . S
C247 O245 1.214 . S
O248 Cd240 2.277 . S
O248 C243 1.209 . S
C249 O246 1.258 . S
C249 O251 1.282 . S
O250 Cd242 2.277 . S
O250 C243 1.226 . S
O251 Cd242 2.356 . S
O251 C249 1.282 . S
C252 O253 1.306 . S
C252 O255 1.160 . S
O253 C252 1.306 . S
O253 Cd254 2.228 . S
Cd254 O253 2.228 . S
Cd254 O258 2.273 . S
Cd254 O262 2.277 . S
O255 C252 1.160 . S
O255 Cd256 2.203 . S
Cd256 O255 2.203 . S
Cd256 O258 2.411 . S
Cd256 O259 2.333 . S
Cd256 O260 2.352 . S
Cd256 O264 2.277 . S
Cd256 O265 2.356 . S
C257 O262 1.209 . S
C257 O264 1.226 . S
O258 Cd254 2.273 . S
O258 Cd256 2.411 . S
O258 C261 1.320 . S
O259 Cd256 2.333 . S
O259 C261 1.214 . S
O260 Cd256 2.352 . S
O260 C263 1.258 . S
C261 O258 1.320 . S
C261 O259 1.214 . S
O262 Cd254 2.277 . S
O262 C257 1.209 . S
C263 O260 1.258 . S
C263 O265 1.282 . S
O264 Cd256 2.277 . S
O264 C257 1.226 . S
O265 Cd256 2.356 . S
O265 C263 1.282 . S
C266 O267 1.306 . S
C266 O269 1.160 . S
O267 C266 1.306 . S
O267 Cd268 2.228 . S
Cd268 O267 2.228 . S
Cd268 O272 2.273 . S
Cd268 O276 2.277 . S
O269 C266 1.160 . S
O269 Cd270 2.203 . S
Cd270 O269 2.203 . S
Cd270 O272 2.411 . S
Cd270 O273 2.333 . S
Cd270 O274 2.352 1_545 S
Cd270 O278 2.277 . S
Cd270 O279 2.356 . S
C271 O276 1.209 . S
C271 O278 1.226 . S
O272 Cd268 2.273 . S
O272 Cd270 2.411 . S
O272 C275 1.320 . S
O273 Cd270 2.333 . S
O273 C275 1.214 . S
O274 Cd270 2.352 1_565 S
O274 C277 1.258 . S
C275 O272 1.320 . S
C275 O273 1.214 . S
O276 Cd268 2.277 . S
O276 C271 1.209 . S
C277 O274 1.258 . S
C277 O279 1.282 1_565 S
O278 Cd270 2.277 . S
O278 C271 1.226 . S
O279 Cd270 2.356 . S
O279 C277 1.282 1_545 S
C280 O281 1.306 . S
C280 O283 1.160 . S
O281 C280 1.306 . S
O281 Cd282 2.228 . S
Cd282 O281 2.228 . S
Cd282 O286 2.273 . S
Cd282 O290 2.277 . S
O283 C280 1.160 . S
O283 Cd284 2.203 . S
Cd284 O283 2.203 . S
Cd284 O286 2.411 . S
Cd284 O287 2.333 . S
Cd284 O288 2.352 1_554 S
Cd284 O292 2.277 . S
Cd284 O293 2.356 . S
C285 O290 1.209 . S
C285 O292 1.226 . S
O286 Cd282 2.273 . S
O286 Cd284 2.411 . S
O286 C289 1.320 . S
O287 Cd284 2.333 . S
O287 C289 1.214 . S
O288 Cd284 2.352 1_556 S
O288 C291 1.258 . S
C289 O286 1.320 . S
C289 O287 1.214 . S
O290 Cd282 2.277 . S
O290 C285 1.209 . S
C291 O288 1.258 . S
C291 O293 1.282 1_556 S
O292 Cd284 2.277 . S
O292 C285 1.226 . S
O293 Cd284 2.356 . S
O293 C291 1.282 1_554 S
C294 O295 1.306 . S
C294 O297 1.160 . S
O295 C294 1.306 . S
O295 Cd296 2.228 . S
Cd296 O295 2.228 . S
Cd296 O300 2.273 . S
Cd296 O304 2.277 . S
O297 C294 1.160 . S
O297 Cd298 2.203 . S
Cd298 O297 2.203 . S
Cd298 O300 2.411 . S
Cd298 O301 2.333 . S
Cd298 O302 2.352 . S
Cd298 O306 2.277 . S
Cd298 O307 2.356 . S
C299 O304 1.209 . S
C299 O306 1.226 . S
O300 Cd296 2.273 . S
O300 Cd298 2.411 . S
O300 C303 1.320 . S
O301 Cd298 2.333 . S
O301 C303 1.214 . S
O302 Cd298 2.352 . S
O302 C305 1.258 . S
C303 O300 1.320 . S
C303 O301 1.214 . S
O304 Cd296 2.277 . S
O304 C299 1.209 . S
C305 O302 1.258 . S
C305 O307 1.282 . S
O306 Cd298 2.277 . S
O306 C299 1.226 . S
O307 Cd298 2.356 . S
O307 C305 1.282 . S
C308 O309 1.306 . S
C308 O311 1.160 . S
O309 C308 1.306 . S
O309 Cd310 2.228 . S
Cd310 O309 2.228 . S
Cd310 O314 2.273 . S
Cd310 O318 2.277 . S
O311 C308 1.160 . S
O311 Cd312 2.203 . S
Cd312 O311 2.203 . S
Cd312 O314 2.411 . S
Cd312 O315 2.333 . S
Cd312 O316 2.352 . S
Cd312 O320 2.277 . S
Cd312 O321 2.356 . S
C313 O318 1.209 . S
C313 O320 1.226 . S
O314 Cd310 2.273 . S
O314 Cd312 2.411 . S
O314 C317 1.320 . S
O315 Cd312 2.333 . S
O315 C317 1.214 . S
O316 Cd312 2.352 . S
O316 C319 1.258 . S
C317 O314 1.320 . S
C317 O315 1.214 . S
O318 Cd310 2.277 . S
O318 C313 1.209 . S
C319 O316 1.258 . S
C319 O321 1.282 . S
O320 Cd312 2.277 . S
O320 C313 1.226 . S
O321 Cd312 2.356 . S
O321 C319 1.282 . S
C322 O323 1.306 . S
C322 O325 1.160 . S
O323 C322 1.306 . S
O323 Cd324 2.228 . S
Cd324 O323 2.228 . S
Cd324 O328 2.273 . S
Cd324 O332 2.277 . S
O325 C322 1.160 . S
O325 Cd326 2.203 . S
Cd326 O325 2.203 . S
Cd326 O328 2.411 . S
Cd326 O329 2.333 . S
Cd326 O330 2.352 . S
Cd326 O334 2.277 . S
Cd326 O335 2.356 . S
C327 O332 1.209 . S
C327 O334 1.226 . S
O328 Cd324 2.273 . S
O328 Cd326 2.411 . S
O328 C331 1.320 . S
O329 Cd326 2.333 . S
O329 C331 1.214 . S
O330 Cd326 2.352 . S
O330 C333 1.258 . S
C331 O328 1.320 . S
C331 O329 1.214 . S
O332 Cd324 2.277 . S
O332 C327 1.209 . S
C333 O330 1.258 . S
C333 O335 1.282 . S
O334 Cd326 2.277 . S
O334 C327 1.226 . S
O335 Cd326 2.356 . S
O335 C333 1.282 . S
Tb336 C345 2.764 . S
Tb336 O346 2.325 . S
Tb336 O349 2.303 . S
Tb336 O353 2.322 . S
Tb336 O354 2.349 . S
Tb336 O357 2.415 . S
Tb336 O358 2.399 . S
Tb337 O347 2.322 1_545 S
Tb337 O348 2.349 1_554 S
Tb337 O350 2.415 1_455 S
Tb337 O351 2.399 1_454 S
Tb337 O352 2.325 . S
Tb337 O355 2.303 . S
Tb337 C366 2.764 1_455 S
C338 O354 1.261 . S
C338 O355 1.257 . S
C339 C342 1.358 . S
C339 C343 1.332 . S
C339 C345 1.504 . S
C340 C341 1.373 . S
C340 C344 1.308 . S
C341 C340 1.373 . S
C341 C342 1.429 . S
C341 H368 0.932 . S
C342 C339 1.358 . S
C342 C341 1.429 . S
C342 H369 0.930 . S
C343 C339 1.332 . S
C343 C344 1.394 . S
C343 H370 0.932 . S
C344 C340 1.308 . S
C344 C343 1.394 . S
C344 H371 0.929 . S
C345 Tb336 2.764 . S
C345 C339 1.504 . S
C345 O357 1.239 . S
C345 O358 1.263 . S
O346 Tb336 2.325 . S
O346 C356 1.236 1_545 S
O347 Tb337 2.322 1_565 S
O347 C356 1.257 . S
O348 Tb337 2.349 1_556 S
O348 C359 1.261 . S
O349 Tb336 2.303 . S
O349 C359 1.257 1_554 S
O350 Tb337 2.415 1_655 S
O350 C366 1.239 . S
O351 Tb337 2.399 1_656 S
O351 C366 1.263 1_556 S
O352 Tb337 2.325 . S
O352 C367 1.236 . S
O353 Tb336 2.322 . S
O353 C367 1.257 . S
O354 Tb336 2.349 . S
O354 C338 1.261 . S
O355 Tb337 2.303 . S
O355 C338 1.257 . S
C356 O346 1.236 1_565 S
C356 O347 1.257 . S
O357 Tb336 2.415 . S
O357 C345 1.239 . S
O358 Tb336 2.399 . S
O358 C345 1.263 . S
C359 O348 1.261 . S
C359 O349 1.257 1_556 S
C360 C363 1.358 1_554 S
C360 C364 1.332 . S
C360 C366 1.504 . S
C361 C362 1.343 1_554 S
C361 C365 1.343 . S
C362 C361 1.343 1_556 S
C362 C363 1.429 . S
C362 H372 0.932 . S
C363 C360 1.358 1_556 S
C363 C362 1.429 . S
C363 H373 0.930 . S
C364 C360 1.332 . S
C364 C365 1.394 . S
C364 H374 0.932 . S
C365 C361 1.343 . S
C365 C364 1.394 . S
C365 H375 0.929 . S
C366 Tb337 2.764 1_655 S
C366 O350 1.239 . S
C366 O351 1.263 1_554 S
C366 C360 1.504 . S
C367 O352 1.236 . S
C367 O353 1.257 . S
H368 C341 0.932 . S
H369 C342 0.930 . S
H370 C343 0.932 . S
H371 C344 0.929 . S
H372 C362 0.932 . S
H373 C363 0.930 . S
H374 C364 0.932 . S
H375 C365 0.929 . S
Tb376 C385 2.764 . S
Tb376 O386 2.325 . S
Tb376 O389 2.303 . S
Tb376 O393 2.322 . S
Tb376 O394 2.349 . S
Tb376 O397 2.415 . S
Tb376 O398 2.399 . S
Tb377 O387 2.322 . S
Tb377 O388 2.349 . S
Tb377 O390 2.415 . S
Tb377 O391 2.399 . S
Tb377 O392 2.325 . S
Tb377 O395 2.303 . S
Tb377 C406 2.764 . S
C378 O394 1.261 . S
C378 O395 1.257 . S
C379 C382 1.358 . S
C379 C383 1.332 . S
C379 C385 1.504 . S
C380 C381 1.373 . S
C380 C384 1.308 . S
C381 C380 1.373 . S
C381 C382 1.429 . S
C381 H408 0.932 . S
C382 C379 1.358 . S
C382 C381 1.429 . S
C382 H409 0.930 . S
C383 C379 1.332 . S
C383 C384 1.394 . S
C383 H410 0.932 . S
C384 C380 1.308 . S
C384 C383 1.394 . S
C384 H411 0.929 . S
C385 Tb376 2.764 . S
C385 C379 1.504 . S
C385 O397 1.239 . S
C385 O398 1.263 . S
O386 Tb376 2.325 . S
O386 C396 1.236 . S
O387 Tb377 2.322 . S
O387 C396 1.257 . S
O388 Tb377 2.349 . S
O388 C399 1.261 . S
O389 Tb376 2.303 . S
O389 C399 1.257 . S
O390 Tb377 2.415 . S
O390 C406 1.239 . S
O391 Tb377 2.399 . S
O391 C406 1.263 . S
O392 Tb377 2.325 . S
O392 C407 1.236 . S
O393 Tb376 2.322 . S
O393 C407 1.257 . S
O394 Tb376 2.349 . S
O394 C378 1.261 . S
O395 Tb377 2.303 . S
O395 C378 1.257 . S
C396 O386 1.236 . S
C396 O387 1.257 . S
O397 Tb376 2.415 . S
O397 C385 1.239 . S
O398 Tb376 2.399 . S
O398 C385 1.263 . S
C399 O388 1.261 . S
C399 O389 1.257 . S
C400 C403 1.358 . S
C400 C404 1.332 . S
C400 C406 1.504 . S
C401 C402 1.373 . S
C401 C405 1.308 . S
C402 C401 1.373 . S
C402 C403 1.429 . S
C402 H412 0.932 . S
C403 C400 1.358 . S
C403 C402 1.429 . S
C403 H413 0.930 . S
C404 C400 1.332 . S
C404 C405 1.394 . S
C404 H414 0.932 . S
C405 C401 1.308 . S
C405 C404 1.394 . S
C405 H415 0.929 . S
C406 Tb377 2.764 . S
C406 O390 1.239 . S
C406 O391 1.263 . S
C406 C400 1.504 . S
C407 O392 1.236 . S
C407 O393 1.257 . S
H408 C381 0.932 . S
H409 C382 0.930 . S
H410 C383 0.932 . S
H411 C384 0.929 . S
H412 C402 0.932 . S
H413 C403 0.930 . S
H414 C404 0.932 . S
H415 C405 0.929 . S
Tb416 C425 2.764 . S
Tb416 O426 2.325 . S
Tb416 O429 2.303 . S
Tb416 O433 2.322 1_545 S
Tb416 O434 2.349 . S
Tb416 O437 2.415 . S
Tb416 O438 2.399 . S
Tb417 O427 2.322 . S
Tb417 O428 2.349 . S
Tb417 O430 2.415 . S
Tb417 O431 2.399 . S
Tb417 O432 2.325 1_545 S
Tb417 O435 2.303 . S
Tb417 C446 2.764 . S
C418 O434 1.261 . S
C418 O435 1.257 . S
C419 C422 1.358 . S
C419 C423 1.332 . S
C419 C425 1.504 . S
C420 C421 1.373 . S
C420 C424 1.308 . S
C421 C420 1.373 . S
C421 C422 1.429 . S
C421 H448 0.932 . S
C422 C419 1.358 . S
C422 C421 1.429 . S
C422 H449 0.930 . S
C423 C419 1.332 . S
C423 C424 1.394 . S
C423 H450 0.932 . S
C424 C420 1.308 . S
C424 C423 1.394 . S
C424 H451 0.929 . S
C425 Tb416 2.764 . S
C425 C419 1.504 . S
C425 O437 1.239 . S
C425 O438 1.263 . S
O426 Tb416 2.325 . S
O426 C436 1.236 . S
O427 Tb417 2.322 . S
O427 C436 1.257 . S
O428 Tb417 2.349 . S
O428 C439 1.261 . S
O429 Tb416 2.303 . S
O429 C439 1.257 . S
O430 Tb417 2.415 . S
O430 C446 1.239 . S
O431 Tb417 2.399 . S
O431 C446 1.263 . S
O432 Tb417 2.325 1_565 S
O432 C447 1.236 . S
O433 Tb416 2.322 1_565 S
O433 C447 1.257 . S
O434 Tb416 2.349 . S
O434 C418 1.261 . S
O435 Tb417 2.303 . S
O435 C418 1.257 . S
C436 O426 1.236 . S
C436 O427 1.257 . S
O437 Tb416 2.415 . S
O437 C425 1.239 . S
O438 Tb416 2.399 . S
O438 C425 1.263 . S
C439 O428 1.261 . S
C439 O429 1.257 . S
C440 C443 1.358 1_565 S
C440 C444 1.340 . S
C440 C446 1.496 1_565 S
C441 C442 1.373 . S
C441 C445 1.308 . S
C442 C441 1.373 . S
C442 C443 1.429 1_565 S
C442 H452 0.932 . S
C443 C440 1.358 1_545 S
C443 C442 1.429 1_545 S
C443 H453 0.930 . S
C444 C440 1.340 . S
C444 C445 1.394 . S
C444 H454 0.932 . S
C445 C441 1.308 . S
C445 C444 1.394 . S
C445 H455 0.929 . S
C446 Tb417 2.764 . S
C446 O430 1.239 . S
C446 O431 1.263 . S
C446 C440 1.496 1_545 S
C447 O432 1.236 . S
C447 O433 1.257 . S
H448 C421 0.932 . S
H449 C422 0.930 . S
H450 C423 0.932 . S
H451 C424 0.929 . S
H452 C442 0.932 . S
H453 C443 0.930 . S
H454 C444 0.932 . S
H455 C445 0.929 . S
Tb456 C465 2.764 . S
Tb456 O466 2.325 . S
Tb456 O469 2.303 . S
Tb456 O473 2.322 . S
Tb456 O474 2.349 . S
Tb456 O477 2.415 . S
Tb456 O478 2.399 . S
Tb457 O467 2.322 . S
Tb457 O468 2.349 . S
Tb457 O470 2.415 . S
Tb457 O471 2.399 . S
Tb457 O472 2.325 . S
Tb457 O475 2.303 . S
Tb457 C486 2.764 . S
C458 O474 1.261 . S
C458 O475 1.257 . S
C459 C462 1.358 . S
C459 C463 1.332 . S
C459 C465 1.504 . S
C460 C461 1.373 . S
C460 C464 1.308 . S
C461 C460 1.373 . S
C461 C462 1.429 . S
C461 H488 0.932 . S
C462 C459 1.358 . S
C462 C461 1.429 . S
C462 H489 0.930 . S
C463 C459 1.332 . S
C463 C464 1.394 . S
C463 H490 0.932 . S
C464 C460 1.308 . S
C464 C463 1.394 . S
C464 H491 0.929 . S
C465 Tb456 2.764 . S
C465 C459 1.504 . S
C465 O477 1.239 . S
C465 O478 1.263 . S
O466 Tb456 2.325 . S
O466 C476 1.236 . S
O467 Tb457 2.322 . S
O467 C476 1.257 . S
O468 Tb457 2.349 . S
O468 C479 1.261 . S
O469 Tb456 2.303 . S
O469 C479 1.257 . S
O470 Tb457 2.415 . S
O470 C486 1.239 . S
O471 Tb457 2.399 . S
O471 C486 1.263 . S
O472 Tb457 2.325 . S
O472 C487 1.236 . S
O473 Tb456 2.322 . S
O473 C487 1.257 . S
O474 Tb456 2.349 . S
O474 C458 1.261 . S
O475 Tb457 2.303 . S
O475 C458 1.257 . S
C476 O466 1.236 . S
C476 O467 1.257 . S
O477 Tb456 2.415 . S
O477 C465 1.239 . S
O478 Tb456 2.399 . S
O478 C465 1.263 . S
C479 O468 1.261 . S
C479 O469 1.257 . S
C480 C483 1.358 . S
C480 C484 1.332 . S
C480 C486 1.504 . S
C481 C482 1.373 . S
C481 C485 1.308 . S
C482 C481 1.373 . S
C482 C483 1.429 . S
C482 H492 0.932 . S
C483 C480 1.358 . S
C483 C482 1.429 . S
C483 H493 0.930 . S
C484 C480 1.332 . S
C484 C485 1.394 . S
C484 H494 0.932 . S
C485 C481 1.308 . S
C485 C484 1.394 . S
C485 H495 0.929 . S
C486 Tb457 2.764 . S
C486 O470 1.239 . S
C486 O471 1.263 . S
C486 C480 1.504 . S
C487 O472 1.236 . S
C487 O473 1.257 . S
H488 C461 0.932 . S
H489 C462 0.930 . S
H490 C463 0.932 . S
H491 C464 0.929 . S
H492 C482 0.932 . S
H493 C483 0.930 . S
H494 C484 0.932 . S
H495 C485 0.929 . S
Tb496 C505 2.764 . S
Tb496 O506 2.325 . S
Tb496 O509 2.303 . S
Tb496 O513 2.322 . S
Tb496 O514 2.349 . S
Tb496 O517 2.415 . S
Tb496 O518 2.399 . S
Tb497 O507 2.322 1_545 S
Tb497 O508 2.349 . S
Tb497 O510 2.415 . S
Tb497 O511 2.399 . S
Tb497 O512 2.325 . S
Tb497 O515 2.303 . S
Tb497 C526 2.764 . S
C498 O514 1.261 . S
C498 O515 1.257 . S
C499 C502 1.358 . S
C499 C503 1.332 . S
C499 C505 1.504 . S
C500 C501 1.373 . S
C500 C504 1.308 . S
C501 C500 1.373 . S
C501 C502 1.429 . S
C501 H528 0.932 . S
C502 C499 1.358 . S
C502 C501 1.429 . S
C502 H529 0.930 . S
C503 C499 1.332 . S
C503 C504 1.394 . S
C503 H530 0.932 . S
C504 C500 1.308 . S
C504 C503 1.394 . S
C504 H531 0.929 . S
C505 Tb496 2.764 . S
C505 C499 1.504 . S
C505 O517 1.239 . S
C505 O518 1.263 . S
O506 Tb496 2.325 . S
O506 C516 1.236 1_545 S
O507 Tb497 2.322 1_565 S
O507 C516 1.257 . S
O508 Tb497 2.349 . S
O508 C519 1.261 . S
O509 Tb496 2.303 . S
O509 C519 1.257 . S
O510 Tb497 2.415 . S
O510 C526 1.239 . S
O511 Tb497 2.399 . S
O511 C526 1.263 . S
O512 Tb497 2.325 . S
O512 C527 1.236 . S
O513 Tb496 2.322 . S
O513 C527 1.257 . S
O514 Tb496 2.349 . S
O514 C498 1.261 . S
O515 Tb497 2.303 . S
O515 C498 1.257 . S
C516 O506 1.236 1_565 S
C516 O507 1.257 . S
O517 Tb496 2.415 . S
O517 C505 1.239 . S
O518 Tb496 2.399 . S
O518 C505 1.263 . S
C519 O508 1.261 . S
C519 O509 1.257 . S
C520 C523 1.358 . S
C520 C524 1.348 . S
C520 C526 1.504 . S
C521 C522 1.373 . S
C521 C525 1.308 1_455 S
C522 C521 1.373 . S
C522 C523 1.429 . S
C522 H532 0.932 . S
C523 C520 1.358 . S
C523 C522 1.429 . S
C523 H533 0.930 . S
C524 C520 1.348 . S
C524 C525 1.390 1_455 S
C524 H534 0.920 1_455 S
C525 C521 1.308 1_655 S
C525 C524 1.390 1_655 S
C525 H535 0.929 . S
C526 Tb497 2.764 . S
C526 O510 1.239 . S
C526 O511 1.263 . S
C526 C520 1.504 . S
C527 O512 1.236 . S
C527 O513 1.257 . S
H528 C501 0.932 . S
H529 C502 0.930 . S
H530 C503 0.932 . S
H531 C504 0.929 . S
H532 C522 0.932 . S
H533 C523 0.930 . S
H534 C524 0.920 1_655 S
H535 C525 0.929 . S
Tb536 C545 2.764 . S
Tb536 O546 2.325 . S
Tb536 O549 2.303 . S
Tb536 O553 2.322 . S
Tb536 O554 2.349 . S
Tb536 O557 2.415 . S
Tb536 O558 2.399 . S
Tb537 O547 2.322 . S
Tb537 O548 2.349 . S
Tb537 O550 2.415 . S
Tb537 O551 2.399 . S
Tb537 O552 2.325 . S
Tb537 O555 2.303 . S
Tb537 C566 2.764 . S
C538 O554 1.261 . S
C538 O555 1.257 . S
C539 C542 1.358 . S
C539 C543 1.332 . S
C539 C545 1.504 . S
C540 C541 1.373 . S
C540 C544 1.308 . S
C541 C540 1.373 . S
C541 C542 1.429 . S
C541 H568 0.932 . S
C542 C539 1.358 . S
C542 C541 1.429 . S
C542 H569 0.930 . S
C543 C539 1.332 . S
C543 C544 1.394 . S
C543 H570 0.932 . S
C544 C540 1.308 . S
C544 C543 1.394 . S
C544 H571 0.929 . S
C545 Tb536 2.764 . S
C545 C539 1.504 . S
C545 O557 1.239 . S
C545 O558 1.263 . S
O546 Tb536 2.325 . S
O546 C556 1.236 . S
O547 Tb537 2.322 . S
O547 C556 1.257 . S
O548 Tb537 2.349 . S
O548 C559 1.261 . S
O549 Tb536 2.303 . S
O549 C559 1.257 . S
O550 Tb537 2.415 . S
O550 C566 1.239 . S
O551 Tb537 2.399 . S
O551 C566 1.263 . S
O552 Tb537 2.325 . S
O552 C567 1.236 . S
O553 Tb536 2.322 . S
O553 C567 1.257 . S
O554 Tb536 2.349 . S
O554 C538 1.261 . S
O555 Tb537 2.303 . S
O555 C538 1.257 . S
C556 O546 1.236 . S
C556 O547 1.257 . S
O557 Tb536 2.415 . S
O557 C545 1.239 . S
O558 Tb536 2.399 . S
O558 C545 1.263 . S
C559 O548 1.261 . S
C559 O549 1.257 . S
C560 C563 1.358 . S
C560 C564 1.332 . S
C560 C566 1.504 . S
C561 C562 1.373 . S
C561 C565 1.308 . S
C562 C561 1.373 . S
C562 C563 1.429 . S
C562 H572 0.932 . S
C563 C560 1.358 . S
C563 C562 1.429 . S
C563 H573 0.930 . S
C564 C560 1.332 . S
C564 C565 1.394 . S
C564 H574 0.932 . S
C565 C561 1.308 . S
C565 C564 1.394 . S
C565 H575 0.929 . S
C566 Tb537 2.764 . S
C566 O550 1.239 . S
C566 O551 1.263 . S
C566 C560 1.504 . S
C567 O552 1.236 . S
C567 O553 1.257 . S
H568 C541 0.932 . S
H569 C542 0.930 . S
H570 C543 0.932 . S
H571 C544 0.929 . S
H572 C562 0.932 . S
H573 C563 0.930 . S
H574 C564 0.932 . S
H575 C565 0.929 . S
Tb576 C585 2.764 . S
Tb576 O586 2.325 . S
Tb576 O589 2.303 . S
Tb576 O593 2.322 1_545 S
Tb576 O594 2.349 . S
Tb576 O597 2.415 . S
Tb576 O598 2.399 . S
Tb577 O587 2.322 . S
Tb577 O588 2.349 . S
Tb577 O590 2.415 1_554 S
Tb577 O591 2.399 1_554 S
Tb577 O592 2.325 1_554 S
Tb577 O595 2.303 . S
Tb577 C606 2.764 1_554 S
C578 O594 1.261 . S
C578 O595 1.257 . S
C579 C582 1.358 . S
C579 C583 1.332 . S
C579 C585 1.504 . S
C580 C581 1.373 . S
C580 C584 1.308 . S
C581 C580 1.373 . S
C581 C582 1.429 . S
C581 H608 0.932 . S
C582 C579 1.358 . S
C582 C581 1.429 . S
C582 H609 0.930 . S
C583 C579 1.332 . S
C583 C584 1.394 . S
C583 H610 0.932 . S
C584 C580 1.308 . S
C584 C583 1.394 . S
C584 H611 0.929 . S
C585 Tb576 2.764 . S
C585 C579 1.504 . S
C585 O597 1.239 . S
C585 O598 1.263 . S
O586 Tb576 2.325 . S
O586 C596 1.236 . S
O587 Tb577 2.322 . S
O587 C596 1.257 . S
O588 Tb577 2.349 . S
O588 C599 1.261 . S
O589 Tb576 2.303 . S
O589 C599 1.257 . S
O590 Tb577 2.415 1_556 S
O590 C606 1.239 . S
O591 Tb577 2.399 1_556 S
O591 C606 1.263 . S
O592 Tb577 2.325 1_556 S
O592 C607 1.236 1_546 S
O593 Tb576 2.322 1_565 S
O593 C607 1.257 . S
O594 Tb576 2.349 . S
O594 C578 1.261 . S
O595 Tb577 2.303 . S
O595 C578 1.257 . S
C596 O586 1.236 . S
C596 O587 1.257 . S
O597 Tb576 2.415 . S
O597 C585 1.239 . S
O598 Tb576 2.399 . S
O598 C585 1.263 . S
C599 O588 1.261 . S
C599 O589 1.257 . S
C600 C603 1.358 . S
C600 C604 1.332 . S
C600 C606 1.504 . S
C601 C602 1.373 . S
C601 C605 1.308 . S
C602 C601 1.373 . S
C602 C603 1.429 . S
C602 H612 0.932 . S
C603 C600 1.358 . S
C603 C602 1.429 . S
C603 H613 0.930 . S
C604 C600 1.332 . S
C604 C605 1.394 . S
C604 H614 0.932 . S
C605 C601 1.308 . S
C605 C604 1.394 . S
C605 H615 0.929 . S
C606 Tb577 2.764 1_556 S
C606 O590 1.239 . S
C606 O591 1.263 . S
C606 C600 1.504 . S
C607 O592 1.236 1_564 S
C607 O593 1.257 . S
H608 C581 0.932 . S
H609 C582 0.930 . S
H610 C583 0.932 . S
H611 C584 0.929 . S
H612 C602 0.932 . S
H613 C603 0.930 . S
H614 C604 0.932 . S
H615 C605 0.929 . S
Tb616 C625 2.764 . S
Tb616 O626 2.325 . S
Tb616 O629 2.303 . S
Tb616 O633 2.322 . S
Tb616 O634 2.349 . S
Tb616 O637 2.415 . S
Tb616 O638 2.399 . S
Tb617 O627 2.322 . S
Tb617 O628 2.349 . S
Tb617 O630 2.415 . S
Tb617 O631 2.399 . S
Tb617 O632 2.325 . S
Tb617 O635 2.303 . S
Tb617 C646 2.764 . S
C618 O634 1.261 . S
C618 O635 1.257 . S
C619 C622 1.358 . S
C619 C623 1.332 . S
C619 C625 1.504 . S
C620 C621 1.373 . S
C620 C624 1.308 . S
C621 C620 1.373 . S
C621 C622 1.429 . S
C621 H648 0.932 . S
C622 C619 1.358 . S
C622 C621 1.429 . S
C622 H649 0.930 . S
C623 C619 1.332 . S
C623 C624 1.394 . S
C623 H650 0.932 . S
C624 C620 1.308 . S
C624 C623 1.394 . S
C624 H651 0.929 . S
C625 Tb616 2.764 . S
C625 C619 1.504 . S
C625 O637 1.239 . S
C625 O638 1.263 . S
O626 Tb616 2.325 . S
O626 C636 1.236 . S
O627 Tb617 2.322 . S
O627 C636 1.257 . S
O628 Tb617 2.349 . S
O628 C639 1.261 . S
O629 Tb616 2.303 . S
O629 C639 1.257 . S
O630 Tb617 2.415 . S
O630 C646 1.239 . S
O631 Tb617 2.399 . S
O631 C646 1.263 . S
O632 Tb617 2.325 . S
O632 C647 1.236 . S
O633 Tb616 2.322 . S
O633 C647 1.257 . S
O634 Tb616 2.349 . S
O634 C618 1.261 . S
O635 Tb617 2.303 . S
O635 C618 1.257 . S
C636 O626 1.236 . S
C636 O627 1.257 . S
O637 Tb616 2.415 . S
O637 C625 1.239 . S
O638 Tb616 2.399 . S
O638 C625 1.263 . S
C639 O628 1.261 . S
C639 O629 1.257 . S
C640 C643 1.358 . S
C640 C644 1.332 . S
C640 C646 1.504 . S
C641 C642 1.373 . S
C641 C645 1.308 . S
C642 C641 1.373 . S
C642 C643 1.429 . S
C642 H652 0.932 . S
C643 C640 1.358 . S
C643 C642 1.429 . S
C643 H653 0.930 . S
C644 C640 1.332 . S
C644 C645 1.394 . S
C644 H654 0.932 . S
C645 C641 1.308 . S
C645 C644 1.394 . S
C645 H655 0.929 . S
C646 Tb617 2.764 . S
C646 O630 1.239 . S
C646 O631 1.263 . S
C646 C640 1.504 . S
C647 O632 1.236 . S
C647 O633 1.257 . S
H648 C621 0.932 . S
H649 C622 0.930 . S
H650 C623 0.932 . S
H651 C624 0.929 . S
H652 C642 0.932 . S
H653 C643 0.930 . S
H654 C644 0.932 . S
H655 C645 0.929 . S
Tb656 C665 2.764 . S
Tb656 O666 2.325 . S
Tb656 O669 2.303 . S
Tb656 O673 2.322 . S
Tb656 O674 2.349 . S
Tb656 O677 2.415 . S
Tb656 O678 2.399 . S
Tb657 O667 2.360 . S
Tb657 O668 2.352 . S
Tb657 O670 2.382 1_554 S
Tb657 O671 2.351 1_554 S
Tb657 O672 2.321 . S
Tb657 O675 2.337 . S
Tb657 C686 2.718 1_554 S
C658 O674 1.261 . S
C658 O675 1.257 . S
C659 C662 1.358 . S
C659 C663 1.332 . S
C659 C665 1.504 . S
C660 C661 1.373 . S
C660 C664 1.308 . S
C661 C660 1.373 . S
C661 C662 1.429 . S
C661 H688 0.932 . S
C662 C659 1.358 . S
C662 C661 1.429 . S
C662 H689 0.930 . S
C663 C659 1.332 . S
C663 C664 1.394 . S
C663 H690 0.932 . S
C664 C660 1.308 . S
C664 C663 1.394 . S
C664 H691 0.929 . S
C665 Tb656 2.764 . S
C665 C659 1.504 . S
C665 O677 1.239 . S
C665 O678 1.263 . S
O666 Tb656 2.325 . S
O666 C676 1.236 . S
O667 Tb657 2.360 . S
O667 C676 1.257 . S
O668 Tb657 2.352 . S
O668 C679 1.261 . S
O669 Tb656 2.303 . S
O669 C679 1.257 . S
O670 Tb657 2.382 1_556 S
O670 C686 1.239 . S
O671 Tb657 2.351 1_556 S
O671 C686 1.263 . S
O672 Tb657 2.321 . S
O672 C687 1.241 . S
O673 Tb656 2.322 . S
O673 C687 1.257 . S
O674 Tb656 2.349 . S
O674 C658 1.261 . S
O675 Tb657 2.337 . S
O675 C658 1.257 . S
C676 O666 1.236 . S
C676 O667 1.257 . S
O677 Tb656 2.415 . S
O677 C665 1.239 . S
O678 Tb656 2.399 . S
O678 C665 1.263 . S
C679 O668 1.261 . S
C679 O669 1.257 . S
C680 C683 1.358 . S
C680 C684 1.332 . S
C680 C686 1.504 . S
C681 C682 1.373 . S
C681 C685 1.308 . S
C682 C681 1.373 . S
C682 C683 1.429 . S
C682 H692 0.932 . S
C683 C680 1.358 . S
C683 C682 1.429 . S
C683 H693 0.930 . S
C684 C680 1.332 . S
C684 C685 1.394 . S
C684 H694 0.932 . S
C685 C681 1.308 . S
C685 C684 1.394 . S
C685 H695 0.929 . S
C686 Tb657 2.718 1_556 S
C686 O670 1.239 . S
C686 O671 1.263 . S
C686 C680 1.504 . S
C687 O672 1.241 . S
C687 O673 1.257 . S
H688 C661 0.932 . S
H689 C662 0.930 . S
H690 C663 0.932 . S
H691 C664 0.929 . S
H692 C682 0.932 . S
H693 C683 0.930 . S
H694 C684 0.932 . S
H695 C685 0.929 . S
Tb696 C705 2.764 . S
Tb696 O706 2.325 . S
Tb696 O709 2.303 . S
Tb696 O713 2.322 . S
Tb696 O714 2.349 . S
Tb696 O717 2.415 . S
Tb696 O718 2.399 . S
Tb697 O707 2.322 . S
Tb697 O708 2.349 . S
Tb697 O710 2.415 . S
Tb697 O711 2.399 . S
Tb697 O712 2.325 . S
Tb697 O715 2.303 . S
Tb697 C726 2.764 . S
C698 O714 1.261 . S
C698 O715 1.257 . S
C699 C702 1.358 . S
C699 C703 1.332 . S
C699 C705 1.504 . S
C700 C701 1.373 . S
C700 C704 1.308 . S
C701 C700 1.373 . S
C701 C702 1.429 . S
C701 H728 0.932 . S
C702 C699 1.358 . S
C702 C701 1.429 . S
C702 H729 0.930 . S
C703 C699 1.332 . S
C703 C704 1.394 . S
C703 H730 0.932 . S
C704 C700 1.308 . S
C704 C703 1.394 . S
C704 H731 0.929 . S
C705 Tb696 2.764 . S
C705 C699 1.504 . S
C705 O717 1.239 . S
C705 O718 1.263 . S
O706 Tb696 2.325 . S
O706 C716 1.236 . S
O707 Tb697 2.322 . S
O707 C716 1.257 . S
O708 Tb697 2.349 . S
O708 C719 1.261 . S
O709 Tb696 2.303 . S
O709 C719 1.257 . S
O710 Tb697 2.415 . S
O710 C726 1.239 . S
O711 Tb697 2.399 . S
O711 C726 1.263 . S
O712 Tb697 2.325 . S
O712 C727 1.236 . S
O713 Tb696 2.322 . S
O713 C727 1.257 . S
O714 Tb696 2.349 . S
O714 C698 1.261 . S
O715 Tb697 2.303 . S
O715 C698 1.257 . S
C716 O706 1.236 . S
C716 O707 1.257 . S
O717 Tb696 2.415 . S
O717 C705 1.239 . S
O718 Tb696 2.399 . S
O718 C705 1.263 . S
C719 O708 1.261 . S
C719 O709 1.257 . S
C720 C723 1.358 . S
C720 C724 1.332 . S
C720 C726 1.504 . S
C721 C722 1.373 . S
C721 C725 1.308 . S
C722 C721 1.373 . S
C722 C723 1.429 . S
C722 H732 0.932 . S
C723 C720 1.358 . S
C723 C722 1.429 . S
C723 H733 0.930 . S
C724 C720 1.332 . S
C724 C725 1.394 . S
C724 H734 0.932 . S
C725 C721 1.308 . S
C725 C724 1.394 . S
C725 H735 0.929 . S
C726 Tb697 2.764 . S
C726 O710 1.239 . S
C726 O711 1.263 . S
C726 C720 1.504 . S
C727 O712 1.236 . S
C727 O713 1.257 . S
H728 C701 0.932 . S
H729 C702 0.930 . S
H730 C703 0.932 . S
H731 C704 0.929 . S
H732 C722 0.932 . S
H733 C723 0.930 . S
H734 C724 0.932 . S
H735 C725 0.929 . S
Tb736 C745 2.764 . S
Tb736 O746 2.325 . S
Tb736 O749 2.303 . S
Tb736 O753 2.322 . S
Tb736 O754 2.349 . S
Tb736 O757 2.415 . S
Tb736 O758 2.399 . S
Tb737 O747 2.322 . S
Tb737 O748 2.349 . S
Tb737 O750 2.415 . S
Tb737 O751 2.399 . S
Tb737 O752 2.325 . S
Tb737 O755 2.303 . S
Tb737 C766 2.764 . S
C738 O754 1.261 . S
C738 O755 1.257 . S
C739 C742 1.358 . S
C739 C743 1.332 . S
C739 C745 1.504 . S
C740 C741 1.373 . S
C740 C744 1.308 1_455 S
C741 C740 1.373 . S
C741 C742 1.429 . S
C741 H768 0.932 . S
C742 C739 1.358 . S
C742 C741 1.429 . S
C742 H769 0.930 . S
C743 C739 1.332 . S
C743 C744 1.394 1_455 S
C743 H770 0.932 1_455 S
C744 C740 1.308 1_655 S
C744 C743 1.394 1_655 S
C744 H771 0.929 . S
C745 Tb736 2.764 . S
C745 C739 1.504 . S
C745 O757 1.239 . S
C745 O758 1.263 . S
O746 Tb736 2.325 . S
O746 C756 1.236 . S
O747 Tb737 2.322 . S
O747 C756 1.257 . S
O748 Tb737 2.349 . S
O748 C759 1.256 1_455 S
O749 Tb736 2.303 . S
O749 C759 1.219 1_455 S
O750 Tb737 2.415 . S
O750 C766 1.239 . S
O751 Tb737 2.399 . S
O751 C766 1.263 . S
O752 Tb737 2.325 . S
O752 C767 1.236 . S
O753 Tb736 2.322 . S
O753 C767 1.257 . S
O754 Tb736 2.349 . S
O754 C738 1.261 . S
O755 Tb737 2.303 . S
O755 C738 1.257 . S
C756 O746 1.236 . S
C756 O747 1.257 . S
O757 Tb736 2.415 . S
O757 C745 1.239 . S
O758 Tb736 2.399 . S
O758 C745 1.263 . S
C759 O748 1.256 1_655 S
C759 O749 1.219 1_655 S
C760 C763 1.358 . S
C760 C764 1.332 . S
C760 C766 1.504 . S
C761 C762 1.373 . S
C761 C765 1.308 . S
C762 C761 1.373 . S
C762 C763 1.429 . S
C762 H772 0.932 . S
C763 C760 1.358 . S
C763 C762 1.429 . S
C763 H773 0.930 . S
C764 C760 1.332 . S
C764 C765 1.394 . S
C764 H774 0.932 . S
C765 C761 1.308 . S
C765 C764 1.394 . S
C765 H775 0.929 . S
C766 Tb737 2.764 . S
C766 O750 1.239 . S
C766 O751 1.263 . S
C766 C760 1.504 . S
C767 O752 1.236 . S
C767 O753 1.257 . S
H768 C741 0.932 . S
H769 C742 0.930 . S
H770 C743 0.932 1_655 S
H771 C744 0.929 . S
H772 C762 0.932 . S
H773 C763 0.930 . S
H774 C764 0.932 . S
H775 C765 0.929 . S
Tb776 C785 2.764 . S
Tb776 O786 2.325 . S
Tb776 O789 2.303 . S
Tb776 O793 2.322 . S
Tb776 O794 2.349 . S
Tb776 O797 2.415 . S
Tb776 O798 2.399 . S
Tb777 O787 2.322 . S
Tb777 O788 2.349 . S
Tb777 O790 2.415 . S
Tb777 O791 2.399 . S
Tb777 O792 2.325 . S
Tb777 O795 2.303 . S
Tb777 C806 2.764 . S
C778 O794 1.261 . S
C778 O795 1.257 . S
C779 C782 1.358 . S
C779 C783 1.332 . S
C779 C785 1.504 . S
C780 C781 1.373 . S
C780 C784 1.308 . S
C781 C780 1.373 . S
C781 C782 1.429 . S
C781 H808 0.932 . S
C782 C779 1.358 . S
C782 C781 1.429 . S
C782 H809 0.930 . S
C783 C779 1.332 . S
C783 C784 1.394 . S
C783 H810 0.932 . S
C784 C780 1.308 . S
C784 C783 1.394 . S
C784 H811 0.929 . S
C785 Tb776 2.764 . S
C785 C779 1.504 . S
C785 O797 1.239 . S
C785 O798 1.263 . S
O786 Tb776 2.325 . S
O786 C796 1.236 . S
O787 Tb777 2.322 . S
O787 C796 1.257 . S
O788 Tb777 2.349 . S
O788 C799 1.261 . S
O789 Tb776 2.303 . S
O789 C799 1.257 . S
O790 Tb777 2.415 . S
O790 C806 1.239 . S
O791 Tb777 2.399 . S
O791 C806 1.263 . S
O792 Tb777 2.325 . S
O792 C807 1.236 . S
O793 Tb776 2.322 . S
O793 C807 1.257 . S
O794 Tb776 2.349 . S
O794 C778 1.261 . S
O795 Tb777 2.303 . S
O795 C778 1.257 . S
C796 O786 1.236 . S
C796 O787 1.257 . S
O797 Tb776 2.415 . S
O797 C785 1.239 . S
O798 Tb776 2.399 . S
O798 C785 1.263 . S
C799 O788 1.261 . S
C799 O789 1.257 . S
C800 C803 1.358 . S
C800 C804 1.332 . S
C800 C806 1.504 . S
C801 C802 1.373 . S
C801 C805 1.308 . S
C802 C801 1.373 . S
C802 C803 1.429 . S
C802 H812 0.932 . S
C803 C800 1.358 . S
C803 C802 1.429 . S
C803 H813 0.930 . S
C804 C800 1.332 . S
C804 C805 1.394 . S
C804 H814 0.932 . S
C805 C801 1.308 . S
C805 C804 1.394 . S
C805 H815 0.929 . S
C806 Tb777 2.764 . S
C806 O790 1.239 . S
C806 O791 1.263 . S
C806 C800 1.504 . S
C807 O792 1.236 . S
C807 O793 1.257 . S
H808 C781 0.932 . S
H809 C782 0.930 . S
H810 C783 0.932 . S
H811 C784 0.929 . S
H812 C802 0.932 . S
H813 C803 0.930 . S
H814 C804 0.932 . S
H815 C805 0.929 . S
Tb816 C825 2.764 . S
Tb816 O826 2.325 . S
Tb816 O829 2.303 . S
Tb816 O833 2.322 . S
Tb816 O834 2.349 . S
Tb816 O837 2.415 . S
Tb816 O838 2.399 . S
Tb817 O827 2.322 . S
Tb817 O828 2.349 . S
Tb817 O830 2.415 . S
Tb817 O831 2.399 . S
Tb817 O832 2.325 . S
Tb817 O835 2.303 . S
Tb817 C846 2.764 . S
C818 O834 1.261 . S
C818 O835 1.257 . S
C819 C822 1.358 . S
C819 C823 1.332 . S
C819 C825 1.504 . S
C820 C821 1.373 . S
C820 C824 1.308 . S
C821 C820 1.373 . S
C821 C822 1.429 . S
C821 H848 0.932 . S
C822 C819 1.358 . S
C822 C821 1.429 . S
C822 H849 0.930 . S
C823 C819 1.332 . S
C823 C824 1.394 . S
C823 H850 0.932 . S
C824 C820 1.308 . S
C824 C823 1.394 . S
C824 H851 0.929 . S
C825 Tb816 2.764 . S
C825 C819 1.504 . S
C825 O837 1.239 . S
C825 O838 1.263 . S
O826 Tb816 2.325 . S
O826 C836 1.236 . S
O827 Tb817 2.322 . S
O827 C836 1.257 . S
O828 Tb817 2.349 . S
O828 C839 1.261 . S
O829 Tb816 2.303 . S
O829 C839 1.257 . S
O830 Tb817 2.415 . S
O830 C846 1.239 . S
O831 Tb817 2.399 . S
O831 C846 1.263 . S
O832 Tb817 2.325 . S
O832 C847 1.236 . S
O833 Tb816 2.322 . S
O833 C847 1.257 . S
O834 Tb816 2.349 . S
O834 C818 1.261 . S
O835 Tb817 2.303 . S
O835 C818 1.257 . S
C836 O826 1.236 . S
C836 O827 1.257 . S
O837 Tb816 2.415 . S
O837 C825 1.239 . S
O838 Tb816 2.399 . S
O838 C825 1.263 . S
C839 O828 1.261 . S
C839 O829 1.257 . S
C840 C843 1.358 . S
C840 C844 1.332 . S
C840 C846 1.504 . S
C841 C842 1.373 . S
C841 C845 1.308 . S
C842 C841 1.373 . S
C842 C843 1.429 . S
C842 H852 0.932 . S
C843 C840 1.358 . S
C843 C842 1.429 . S
C843 H853 0.930 . S
C844 C840 1.332 . S
C844 C845 1.394 . S
C844 H854 0.932 . S
C845 C841 1.308 . S
C845 C844 1.394 . S
C845 H855 0.929 . S
C846 Tb817 2.764 . S
C846 O830 1.239 . S
C846 O831 1.263 . S
C846 C840 1.504 . S
C847 O832 1.236 . S
C847 O833 1.257 . S
H848 C821 0.932 . S
H849 C822 0.930 . S
H850 C823 0.932 . S
H851 C824 0.929 . S
H852 C842 0.932 . S
H853 C843 0.930 . S
H854 C844 0.932 . S
H855 C845 0.929 . S
Tb856 C865 2.764 . S
Tb856 O866 2.325 . S
Tb856 O869 2.303 . S
Tb856 O873 2.322 . S
Tb856 O874 2.349 . S
Tb856 O877 2.415 . S
Tb856 O878 2.399 . S
Tb857 O867 2.322 . S
Tb857 O868 2.349 . S
Tb857 O870 2.415 . S
Tb857 O871 2.399 . S
Tb857 O872 2.325 . S
Tb857 O875 2.303 . S
Tb857 C886 2.764 . S
C858 O874 1.261 . S
C858 O875 1.257 . S
C859 C862 1.358 . S
C859 C863 1.332 . S
C859 C865 1.504 . S
C860 C861 1.373 . S
C860 C864 1.308 . S
C861 C860 1.373 . S
C861 C862 1.429 . S
C861 H888 0.932 . S
C862 C859 1.358 . S
C862 C861 1.429 . S
C862 H889 0.930 . S
C863 C859 1.332 . S
C863 C864 1.394 . S
C863 H890 0.932 . S
C864 C860 1.308 . S
C864 C863 1.394 . S
C864 H891 0.929 . S
C865 Tb856 2.764 . S
C865 C859 1.504 . S
C865 O877 1.239 . S
C865 O878 1.263 . S
O866 Tb856 2.325 . S
O866 C876 1.236 . S
O867 Tb857 2.322 . S
O867 C876 1.257 . S
O868 Tb857 2.349 . S
O868 C879 1.261 . S
O869 Tb856 2.303 . S
O869 C879 1.257 . S
O870 Tb857 2.415 . S
O870 C886 1.239 . S
O871 Tb857 2.399 . S
O871 C886 1.263 . S
O872 Tb857 2.325 . S
O872 C887 1.236 . S
O873 Tb856 2.322 . S
O873 C887 1.257 . S
O874 Tb856 2.349 . S
O874 C858 1.261 . S
O875 Tb857 2.303 . S
O875 C858 1.257 . S
C876 O866 1.236 . S
C876 O867 1.257 . S
O877 Tb856 2.415 . S
O877 C865 1.239 . S
O878 Tb856 2.399 . S
O878 C865 1.263 . S
C879 O868 1.261 . S
C879 O869 1.257 . S
C880 C883 1.358 . S
C880 C884 1.332 . S
C880 C886 1.504 . S
C881 C882 1.373 . S
C881 C885 1.308 . S
C882 C881 1.373 . S
C882 C883 1.429 . S
C882 H892 0.932 . S
C883 C880 1.358 . S
C883 C882 1.429 . S
C883 H893 0.930 . S
C884 C880 1.332 . S
C884 C885 1.394 . S
C884 H894 0.932 . S
C885 C881 1.308 . S
C885 C884 1.394 . S
C885 H895 0.929 . S
C886 Tb857 2.764 . S
C886 O870 1.239 . S
C886 O871 1.263 . S
C886 C880 1.504 . S
C887 O872 1.236 . S
C887 O873 1.257 . S
H888 C861 0.932 . S
H889 C862 0.930 . S
H890 C863 0.932 . S
H891 C864 0.929 . S
H892 C882 0.932 . S
H893 C883 0.930 . S
H894 C884 0.932 . S
H895 C885 0.929 . S
Tb896 C905 2.764 . S
Tb896 O906 2.325 . S
Tb896 O909 2.303 . S
Tb896 O913 2.322 . S
Tb896 O914 2.349 . S
Tb896 O917 2.415 . S
Tb896 O918 2.399 . S
Tb897 O907 2.322 . S
Tb897 O908 2.349 . S
Tb897 O910 2.415 . S
Tb897 O911 2.399 . S
Tb897 O912 2.325 . S
Tb897 O915 2.303 . S
Tb897 C926 2.764 . S
C898 O914 1.261 . S
C898 O915 1.257 . S
C899 C902 1.358 . S
C899 C903 1.332 . S
C899 C905 1.504 . S
C900 C901 1.373 . S
C900 C904 1.308 . S
C901 C900 1.373 . S
C901 C902 1.429 . S
C901 H928 0.932 . S
C902 C899 1.358 . S
C902 C901 1.429 . S
C902 H929 0.930 . S
C903 C899 1.332 . S
C903 C904 1.394 . S
C903 H930 0.932 . S
C904 C900 1.308 . S
C904 C903 1.394 . S
C904 H931 0.929 . S
C905 Tb896 2.764 . S
C905 C899 1.504 . S
C905 O917 1.239 . S
C905 O918 1.263 . S
O906 Tb896 2.325 . S
O906 C916 1.236 . S
O907 Tb897 2.322 . S
O907 C916 1.257 . S
O908 Tb897 2.349 . S
O908 C919 1.261 . S
O909 Tb896 2.303 . S
O909 C919 1.257 . S
O910 Tb897 2.415 . S
O910 C926 1.239 . S
O911 Tb897 2.399 . S
O911 C926 1.263 . S
O912 Tb897 2.325 . S
O912 C927 1.236 . S
O913 Tb896 2.322 . S
O913 C927 1.257 . S
O914 Tb896 2.349 . S
O914 C898 1.261 . S
O915 Tb897 2.303 . S
O915 C898 1.257 . S
C916 O906 1.236 . S
C916 O907 1.257 . S
O917 Tb896 2.415 . S
O917 C905 1.239 . S
O918 Tb896 2.399 . S
O918 C905 1.263 . S
C919 O908 1.261 . S
C919 O909 1.257 . S
C920 C923 1.358 . S
C920 C924 1.332 . S
C920 C926 1.504 . S
C921 C922 1.373 . S
C921 C925 1.308 . S
C922 C921 1.373 . S
C922 C923 1.429 . S
C922 H932 0.932 . S
C923 C920 1.358 . S
C923 C922 1.429 . S
C923 H933 0.930 . S
C924 C920 1.332 . S
C924 C925 1.394 . S
C924 H934 0.932 . S
C925 C921 1.308 . S
C925 C924 1.394 . S
C925 H935 0.929 . S
C926 Tb897 2.764 . S
C926 O910 1.239 . S
C926 O911 1.263 . S
C926 C920 1.504 . S
C927 O912 1.236 . S
C927 O913 1.257 . S
H928 C901 0.932 . S
H929 C902 0.930 . S
H930 C903 0.932 . S
H931 C904 0.929 . S
H932 C922 0.932 . S
H933 C923 0.930 . S
H934 C924 0.932 . S
H935 C925 0.929 . S
Tb936 C945 2.764 1_455 S
Tb936 O946 2.325 . S
Tb936 O949 2.303 . S
Tb936 O953 2.322 . S
Tb936 O954 2.349 . S
Tb936 O957 2.415 1_455 S
Tb936 O958 2.399 1_455 S
Tb937 O947 2.322 . S
Tb937 O948 2.349 1_554 S
Tb937 O950 2.415 . S
Tb937 O951 2.431 . S
Tb937 O952 2.325 . S
Tb937 O955 2.303 . S
Tb937 C966 2.764 . S
C938 O954 1.261 . S
C938 O955 1.257 . S
C939 C942 1.358 . S
C939 C943 1.332 . S
C939 C945 1.504 . S
C940 C941 1.373 . S
C940 C944 1.308 . S
C941 C940 1.373 . S
C941 C942 1.429 . S
C941 H968 0.932 . S
C942 C939 1.358 . S
C942 C941 1.429 . S
C942 H969 0.930 . S
C943 C939 1.332 . S
C943 C944 1.394 . S
C943 H970 0.932 . S
C944 C940 1.308 . S
C944 C943 1.394 . S
C944 H971 0.929 . S
C945 Tb936 2.764 1_655 S
C945 C939 1.504 . S
C945 O957 1.239 . S
C945 O958 1.263 . S
O946 Tb936 2.325 . S
O946 C956 1.236 . S
O947 Tb937 2.322 . S
O947 C956 1.257 . S
O948 Tb937 2.349 1_556 S
O948 C959 1.261 . S
O949 Tb936 2.303 . S
O949 C959 1.257 1_554 S
O950 Tb937 2.415 . S
O950 C966 1.239 . S
O951 Tb937 2.431 . S
O951 C966 1.305 . S
O952 Tb937 2.325 . S
O952 C967 1.236 . S
O953 Tb936 2.322 . S
O953 C967 1.257 . S
O954 Tb936 2.349 . S
O954 C938 1.261 . S
O955 Tb937 2.303 . S
O955 C938 1.257 . S
C956 O946 1.236 . S
C956 O947 1.257 . S
O957 Tb936 2.415 1_655 S
O957 C945 1.239 . S
O958 Tb936 2.399 1_655 S
O958 C945 1.263 . S
C959 O948 1.261 . S
C959 O949 1.257 1_556 S
C960 C963 1.358 1_554 S
C960 C964 1.332 . S
C960 C966 1.504 . S
C961 C962 1.373 1_554 S
C961 C965 1.308 . S
C962 C961 1.373 1_556 S
C962 C963 1.429 . S
C962 H972 0.932 . S
C963 C960 1.358 1_556 S
C963 C962 1.429 . S
C963 H973 0.930 . S
C964 C960 1.332 . S
C964 C965 1.394 . S
C964 H974 0.932 . S
C965 C961 1.308 . S
C965 C964 1.394 . S
C965 H975 0.929 . S
C966 Tb937 2.764 . S
C966 O950 1.239 . S
C966 O951 1.305 . S
C966 C960 1.504 . S
C967 O952 1.236 . S
C967 O953 1.257 . S
H968 C941 0.932 . S
H969 C942 0.930 . S
H970 C943 0.932 . S
H971 C944 0.929 . S
H972 C962 0.932 . S
H973 C963 0.930 . S
H974 C964 0.932 . S
H975 C965 0.929 . S
H976 C984 0.950 . S
H977 C989 0.950 . S
H978 C986 0.950 . S
H979 C988 0.950 1_554 S
H980 C990 0.950 . S
H981 C992 0.950 1_655 S
H982 C994 0.950 . S
H983 C995 0.950 1_556 S
C984 H976 0.950 . S
C984 C985 1.419 . S
C984 C986 1.391 . S
C985 C984 1.419 . S
C985 C989 1.377 1_455 S
C986 H978 0.950 . S
C986 C984 1.391 . S
C986 C987 1.400 . S
C987 C986 1.400 . S
C987 C988 1.398 1_455 S
C987 C993 1.491 . S
C988 H979 0.950 1_556 S
C988 C987 1.398 1_655 S
C988 C989 1.391 . S
C989 H977 0.950 . S
C989 C985 1.377 1_655 S
C989 C988 1.391 . S
C990 H980 0.950 . S
C990 C991 1.386 . S
C990 C992 1.391 . S
C991 C990 1.386 . S
C991 C995 1.393 . S
C992 H981 0.950 1_455 S
C992 C990 1.391 . S
C992 C993 1.400 1_554 S
C993 C987 1.491 . S
C993 C992 1.400 1_556 S
C993 C994 1.398 . S
C994 H982 0.950 . S
C994 C993 1.398 . S
C994 C995 1.391 1_556 S
C995 H983 0.950 1_554 S
C995 C991 1.393 . S
C995 C994 1.391 1_554 S
H996 C1004 0.950 . S
H997 C1009 0.950 . S
H998 C1006 0.950 . S
H999 C1008 0.950 . S
H1000 C1010 0.950 . S
H1001 C1012 0.950 . S
H1002 C1014 0.950 . S
H1003 C1015 0.950 . S
C1004 H996 0.950 . S
C1004 C1005 1.386 . S
C1004 C1006 1.391 . S
C1005 C1004 1.386 . S
C1005 C1009 1.393 . S
C1006 H998 0.950 . S
C1006 C1004 1.391 . S
C1006 C1007 1.400 . S
C1007 C1006 1.400 . S
C1007 C1008 1.398 . S
C1007 C1013 1.491 . S
C1008 H999 0.950 . S
C1008 C1007 1.398 . S
C1008 C1009 1.391 . S
C1009 H997 0.950 . S
C1009 C1005 1.393 . S
C1009 C1008 1.391 . S
C1010 H1000 0.950 . S
C1010 C1011 1.386 . S
C1010 C1012 1.391 . S
C1011 C1010 1.386 . S
C1011 C1015 1.393 . S
C1012 H1001 0.950 . S
C1012 C1010 1.391 . S
C1012 C1013 1.400 . S
C1013 C1007 1.491 . S
C1013 C1012 1.400 . S
C1013 C1014 1.398 . S
C1014 H1002 0.950 . S
C1014 C1013 1.398 . S
C1014 C1015 1.391 . S
C1015 H1003 0.950 . S
C1015 C1011 1.393 . S
C1015 C1014 1.391 . S
H1016 C1024 0.950 . S
H1017 C1029 0.950 . S
H1018 C1026 0.950 . S
H1019 C1028 0.950 . S
H1020 C1030 0.950 . S
H1021 C1032 0.950 . S
H1022 C1034 0.950 . S
H1023 C1035 0.950 . S
C1024 H1016 0.950 . S
C1024 C1025 1.386 . S
C1024 C1026 1.391 . S
C1025 C1024 1.386 . S
C1025 C1029 1.393 . S
C1026 H1018 0.950 . S
C1026 C1024 1.391 . S
C1026 C1027 1.400 . S
C1027 C1026 1.400 . S
C1027 C1028 1.398 . S
C1027 C1033 1.491 . S
C1028 H1019 0.950 . S
C1028 C1027 1.398 . S
C1028 C1029 1.391 . S
C1029 H1017 0.950 . S
C1029 C1025 1.393 . S
C1029 C1028 1.391 . S
C1030 H1020 0.950 . S
C1030 C1031 1.386 . S
C1030 C1032 1.391 . S
C1031 C1030 1.386 . S
C1031 C1035 1.393 . S
C1032 H1021 0.950 . S
C1032 C1030 1.391 . S
C1032 C1033 1.400 . S
C1033 C1027 1.491 . S
C1033 C1032 1.400 . S
C1033 C1034 1.398 . S
C1034 H1022 0.950 . S
C1034 C1033 1.398 . S
C1034 C1035 1.391 . S
C1035 H1023 0.950 . S
C1035 C1031 1.393 . S
C1035 C1034 1.391 . S
H1036 C1044 0.950 . S
H1037 C1049 0.950 . S
H1038 C1046 0.950 . S
H1039 C1048 0.950 . S
H1040 C1050 0.950 . S
H1041 C1052 0.950 . S
H1042 C1054 0.950 . S
H1043 C1055 0.950 . S
C1044 H1036 0.950 . S
C1044 C1045 1.386 . S
C1044 C1046 1.391 . S
C1045 C1044 1.386 . S
C1045 C1049 1.393 . S
C1046 H1038 0.950 . S
C1046 C1044 1.391 . S
C1046 C1047 1.400 . S
C1047 C1046 1.400 . S
C1047 C1048 1.398 . S
C1047 C1053 1.491 . S
C1048 H1039 0.950 . S
C1048 C1047 1.398 . S
C1048 C1049 1.391 . S
C1049 H1037 0.950 . S
C1049 C1045 1.393 . S
C1049 C1048 1.391 . S
C1050 H1040 0.950 . S
C1050 C1051 1.386 . S
C1050 C1052 1.391 . S
C1051 C1050 1.386 . S
C1051 C1055 1.393 . S
C1052 H1041 0.950 . S
C1052 C1050 1.391 . S
C1052 C1053 1.400 . S
C1053 C1047 1.491 . S
C1053 C1052 1.400 . S
C1053 C1054 1.398 . S
C1054 H1042 0.950 . S
C1054 C1053 1.398 . S
C1054 C1055 1.391 . S
C1055 H1043 0.950 . S
C1055 C1051 1.393 . S
C1055 C1054 1.391 . S
H1056 C1064 0.950 . S
H1057 C1069 0.950 . S
H1058 C1066 0.950 . S
H1059 C1068 0.950 . S
H1060 C1070 0.950 . S
H1061 C1072 0.950 . S
H1062 C1074 0.950 . S
H1063 C1075 0.950 . S
C1064 H1056 0.950 . S
C1064 C1065 1.386 . S
C1064 C1066 1.391 . S
C1065 C1064 1.386 . S
C1065 C1069 1.393 . S
C1066 H1058 0.950 . S
C1066 C1064 1.391 . S
C1066 C1067 1.400 . S
C1067 C1066 1.400 . S
C1067 C1068 1.398 . S
C1067 C1073 1.491 . S
C1068 H1059 0.950 . S
C1068 C1067 1.398 . S
C1068 C1069 1.391 . S
C1069 H1057 0.950 . S
C1069 C1065 1.393 . S
C1069 C1068 1.391 . S
C1070 H1060 0.950 . S
C1070 C1071 1.386 . S
C1070 C1072 1.391 . S
C1071 C1070 1.386 . S
C1071 C1075 1.393 . S
C1072 H1061 0.950 . S
C1072 C1070 1.391 . S
C1072 C1073 1.400 . S
C1073 C1067 1.491 . S
C1073 C1072 1.400 . S
C1073 C1074 1.398 . S
C1074 H1062 0.950 . S
C1074 C1073 1.398 . S
C1074 C1075 1.391 . S
C1075 H1063 0.950 . S
C1075 C1071 1.393 . S
C1075 C1074 1.391 . S
H1076 C1084 0.950 . S
H1077 C1089 0.950 . S
H1078 C1086 0.950 . S
H1079 C1088 0.950 . S
H1080 C1090 0.950 . S
H1081 C1092 0.950 . S
H1082 C1094 0.950 . S
H1083 C1095 0.950 . S
C1084 H1076 0.950 . S
C1084 C1085 1.386 . S
C1084 C1086 1.391 . S
C1085 C1084 1.386 . S
C1085 C1089 1.393 . S
C1086 H1078 0.950 . S
C1086 C1084 1.391 . S
C1086 C1087 1.400 . S
C1087 C1086 1.400 . S
C1087 C1088 1.398 . S
C1087 C1093 1.491 . S
C1088 H1079 0.950 . S
C1088 C1087 1.398 . S
C1088 C1089 1.391 . S
C1089 H1077 0.950 . S
C1089 C1085 1.393 . S
C1089 C1088 1.391 . S
C1090 H1080 0.950 . S
C1090 C1091 1.386 . S
C1090 C1092 1.391 . S
C1091 C1090 1.386 . S
C1091 C1095 1.393 . S
C1092 H1081 0.950 . S
C1092 C1090 1.391 . S
C1092 C1093 1.400 . S
C1093 C1087 1.491 . S
C1093 C1092 1.400 . S
C1093 C1094 1.398 . S
C1094 H1082 0.950 . S
C1094 C1093 1.398 . S
C1094 C1095 1.391 . S
C1095 H1083 0.950 . S
C1095 C1091 1.393 . S
C1095 C1094 1.391 . S
H1096 C1104 0.950 . S
H1097 C1109 0.950 . S
H1098 C1106 0.950 . S
H1099 C1108 0.950 . S
H1100 C1110 0.950 . S
H1101 C1112 0.950 . S
H1102 C1114 0.950 . S
H1103 C1115 0.950 . S
C1104 H1096 0.950 . S
C1104 C1105 1.386 . S
C1104 C1106 1.391 . S
C1105 C1104 1.386 . S
C1105 C1109 1.393 . S
C1106 H1098 0.950 . S
C1106 C1104 1.391 . S
C1106 C1107 1.400 . S
C1107 C1106 1.400 . S
C1107 C1108 1.398 . S
C1107 C1113 1.491 . S
C1108 H1099 0.950 . S
C1108 C1107 1.398 . S
C1108 C1109 1.391 . S
C1109 H1097 0.950 . S
C1109 C1105 1.393 . S
C1109 C1108 1.391 . S
C1110 H1100 0.950 . S
C1110 C1111 1.386 . S
C1110 C1112 1.391 . S
C1111 C1110 1.386 . S
C1111 C1115 1.393 . S
C1112 H1101 0.950 . S
C1112 C1110 1.391 . S
C1112 C1113 1.400 . S
C1113 C1107 1.491 . S
C1113 C1112 1.400 . S
C1113 C1114 1.398 . S
C1114 H1102 0.950 . S
C1114 C1113 1.398 . S
C1114 C1115 1.391 . S
C1115 H1103 0.950 . S
C1115 C1111 1.393 . S
C1115 C1114 1.391 . S
H1116 C1124 0.950 . S
H1117 C1129 0.950 . S
H1118 C1126 0.950 . S
H1119 C1128 0.950 . S
H1120 C1130 0.950 . S
H1121 C1132 0.950 . S
H1122 C1134 0.950 . S
H1123 C1135 0.950 . S
C1124 H1116 0.950 . S
C1124 C1125 1.386 . S
C1124 C1126 1.391 . S
C1125 C1124 1.386 . S
C1125 C1129 1.393 . S
C1126 H1118 0.950 . S
C1126 C1124 1.391 . S
C1126 C1127 1.400 . S
C1127 C1126 1.400 . S
C1127 C1128 1.398 . S
C1127 C1133 1.491 . S
C1128 H1119 0.950 . S
C1128 C1127 1.398 . S
C1128 C1129 1.391 . S
C1129 H1117 0.950 . S
C1129 C1125 1.393 . S
C1129 C1128 1.391 . S
C1130 H1120 0.950 . S
C1130 C1131 1.386 . S
C1130 C1132 1.391 . S
C1131 C1130 1.386 . S
C1131 C1135 1.393 . S
C1132 H1121 0.950 . S
C1132 C1130 1.391 . S
C1132 C1133 1.400 . S
C1133 C1127 1.491 . S
C1133 C1132 1.400 . S
C1133 C1134 1.398 . S
C1134 H1122 0.950 . S
C1134 C1133 1.398 . S
C1134 C1135 1.391 . S
C1135 H1123 0.950 . S
C1135 C1131 1.393 . S
C1135 C1134 1.391 . S
H1136 C1144 0.950 . S
H1137 C1149 0.950 . S
H1138 C1146 0.950 . S
H1139 C1148 0.984 . S
H1140 C1150 0.950 . S
H1141 C1152 0.950 1_565 S
H1142 C1154 0.950 . S
H1143 C1155 0.950 . S
C1144 H1136 0.950 . S
C1144 C1145 1.386 . S
C1144 C1146 1.391 . S
C1145 C1144 1.386 . S
C1145 C1149 1.393 1_545 S
C1146 H1138 0.950 . S
C1146 C1144 1.391 . S
C1146 C1147 1.400 . S
C1147 C1146 1.400 . S
C1147 C1148 1.361 1_545 S
C1147 C1153 1.491 . S
C1148 H1139 0.984 . S
C1148 C1147 1.361 1_565 S
C1148 C1149 1.396 . S
C1149 H1137 0.950 . S
C1149 C1145 1.393 1_565 S
C1149 C1148 1.396 . S
C1150 H1140 0.950 . S
C1150 C1151 1.386 . S
C1150 C1152 1.391 1_455 S
C1151 C1150 1.386 . S
C1151 C1155 1.393 . S
C1152 H1141 0.950 1_545 S
C1152 C1150 1.391 1_655 S
C1152 C1153 1.400 . S
C1153 C1147 1.491 . S
C1153 C1152 1.400 . S
C1153 C1154 1.398 1_655 S
C1154 H1142 0.950 . S
C1154 C1153 1.398 1_455 S
C1154 C1155 1.391 . S
C1155 H1143 0.950 . S
C1155 C1151 1.393 . S
C1155 C1154 1.391 . S
H1156 C1164 0.950 . S
H1157 C1169 0.950 . S
H1158 C1166 0.950 . S
H1159 C1168 0.950 . S
H1160 C1170 0.950 . S
H1161 C1172 0.950 . S
H1162 C1174 0.950 . S
H1163 C1175 0.950 . S
C1164 H1156 0.950 . S
C1164 C1165 1.386 . S
C1164 C1166 1.391 . S
C1165 C1164 1.386 . S
C1165 C1169 1.393 . S
C1166 H1158 0.950 . S
C1166 C1164 1.391 . S
C1166 C1167 1.400 . S
C1167 C1166 1.400 . S
C1167 C1168 1.398 . S
C1167 C1173 1.491 . S
C1168 H1159 0.950 . S
C1168 C1167 1.398 . S
C1168 C1169 1.391 . S
C1169 H1157 0.950 . S
C1169 C1165 1.393 . S
C1169 C1168 1.391 . S
C1170 H1160 0.950 . S
C1170 C1171 1.386 . S
C1170 C1172 1.391 . S
C1171 C1170 1.386 . S
C1171 C1175 1.393 . S
C1172 H1161 0.950 . S
C1172 C1170 1.391 . S
C1172 C1173 1.400 . S
C1173 C1167 1.491 . S
C1173 C1172 1.400 . S
C1173 C1174 1.398 . S
C1174 H1162 0.950 . S
C1174 C1173 1.398 . S
C1174 C1175 1.391 . S
C1175 H1163 0.950 . S
C1175 C1171 1.393 . S
C1175 C1174 1.391 . S
H1176 C1184 0.950 . S
H1177 C1189 0.950 . S
H1178 C1186 0.950 . S
H1179 C1188 0.950 . S
H1180 C1190 0.950 . S
H1181 C1192 0.950 . S
H1182 C1194 0.950 . S
H1183 C1195 0.950 . S
C1184 H1176 0.950 . S
C1184 C1185 1.386 . S
C1184 C1186 1.391 . S
C1185 C1184 1.386 . S
C1185 C1189 1.393 . S
C1186 H1178 0.950 . S
C1186 C1184 1.391 . S
C1186 C1187 1.400 . S
C1187 C1186 1.400 . S
C1187 C1188 1.398 . S
C1187 C1193 1.491 . S
C1188 H1179 0.950 . S
C1188 C1187 1.398 . S
C1188 C1189 1.391 . S
C1189 H1177 0.950 . S
C1189 C1185 1.393 . S
C1189 C1188 1.391 . S
C1190 H1180 0.950 . S
C1190 C1191 1.386 . S
C1190 C1192 1.391 . S
C1191 C1190 1.386 . S
C1191 C1195 1.393 . S
C1192 H1181 0.950 . S
C1192 C1190 1.391 . S
C1192 C1193 1.400 . S
C1193 C1187 1.491 . S
C1193 C1192 1.400 . S
C1193 C1194 1.398 . S
C1194 H1182 0.950 . S
C1194 C1193 1.398 . S
C1194 C1195 1.391 . S
C1195 H1183 0.950 . S
C1195 C1191 1.393 . S
C1195 C1194 1.391 . S
H1196 C1204 0.950 . S
H1197 C1209 0.950 . S
H1198 C1206 0.950 . S
H1199 C1208 0.950 . S
H1200 C1210 0.950 . S
H1201 C1212 0.950 . S
H1202 C1214 0.950 . S
H1203 C1215 0.950 . S
C1204 H1196 0.950 . S
C1204 C1205 1.386 . S
C1204 C1206 1.391 . S
C1205 C1204 1.386 . S
C1205 C1209 1.393 . S
C1206 H1198 0.950 . S
C1206 C1204 1.391 . S
C1206 C1207 1.400 . S
C1207 C1206 1.400 . S
C1207 C1208 1.398 . S
C1207 C1213 1.491 . S
C1208 H1199 0.950 . S
C1208 C1207 1.398 . S
C1208 C1209 1.391 . S
C1209 H1197 0.950 . S
C1209 C1205 1.393 . S
C1209 C1208 1.391 . S
C1210 H1200 0.950 . S
C1210 C1211 1.386 . S
C1210 C1212 1.391 . S
C1211 C1210 1.386 . S
C1211 C1215 1.393 . S
C1212 H1201 0.950 . S
C1212 C1210 1.391 . S
C1212 C1213 1.400 . S
C1213 C1207 1.491 . S
C1213 C1212 1.400 . S
C1213 C1214 1.398 . S
C1214 H1202 0.950 . S
C1214 C1213 1.398 . S
C1214 C1215 1.391 . S
C1215 H1203 0.950 . S
C1215 C1211 1.393 . S
C1215 C1214 1.391 . S
H1216 C1224 0.950 . S
H1217 C1229 0.950 . S
H1218 C1226 0.950 . S
H1219 C1228 0.950 . S
H1220 C1230 0.950 . S
H1221 C1232 0.950 . S
H1222 C1234 0.950 . S
H1223 C1235 0.931 1_455 S
C1224 H1216 0.950 . S
C1224 C1225 1.386 1_565 S
C1224 C1226 1.391 . S
C1225 C1224 1.386 1_545 S
C1225 C1229 1.393 . S
C1226 H1218 0.950 . S
C1226 C1224 1.391 . S
C1226 C1227 1.400 1_565 S
C1227 C1226 1.400 1_545 S
C1227 C1228 1.398 . S
C1227 C1233 1.491 . S
C1228 H1219 0.950 . S
C1228 C1227 1.398 . S
C1228 C1229 1.391 . S
C1229 H1217 0.950 . S
C1229 C1225 1.393 . S
C1229 C1228 1.391 . S
C1230 H1220 0.950 . S
C1230 C1231 1.386 1_655 S
C1230 C1232 1.391 . S
C1231 C1230 1.386 1_455 S
C1231 C1235 1.397 1_445 S
C1232 H1221 0.950 . S
C1232 C1230 1.391 . S
C1232 C1233 1.400 . S
C1233 C1227 1.491 . S
C1233 C1232 1.400 . S
C1233 C1234 1.398 1_545 S
C1234 H1222 0.950 . S
C1234 C1233 1.398 1_565 S
C1234 C1235 1.405 . S
C1235 H1223 0.931 1_655 S
C1235 C1231 1.397 1_665 S
C1235 C1234 1.405 . S
H1236 C1244 0.950 . S
H1237 C1249 0.950 . S
H1238 C1246 0.950 . S
H1239 C1248 0.950 . S
H1240 C1250 0.950 . S
H1241 C1252 0.950 . S
H1242 C1254 0.950 . S
H1243 C1255 0.950 . S
C1244 H1236 0.950 . S
C1244 C1245 1.386 . S
C1244 C1246 1.391 . S
C1245 C1244 1.386 . S
C1245 C1249 1.393 . S
C1246 H1238 0.950 . S
C1246 C1244 1.391 . S
C1246 C1247 1.400 . S
C1247 C1246 1.400 . S
C1247 C1248 1.398 . S
C1247 C1253 1.491 . S
C1248 H1239 0.950 . S
C1248 C1247 1.398 . S
C1248 C1249 1.391 . S
C1249 H1237 0.950 . S
C1249 C1245 1.393 . S
C1249 C1248 1.391 . S
C1250 H1240 0.950 . S
C1250 C1251 1.386 . S
C1250 C1252 1.391 . S
C1251 C1250 1.386 . S
C1251 C1255 1.393 . S
C1252 H1241 0.950 . S
C1252 C1250 1.391 . S
C1252 C1253 1.400 . S
C1253 C1247 1.491 . S
C1253 C1252 1.400 . S
C1253 C1254 1.398 . S
C1254 H1242 0.950 . S
C1254 C1253 1.398 . S
C1254 C1255 1.391 . S
C1255 H1243 0.950 . S
C1255 C1251 1.393 . S
C1255 C1254 1.391 . S
H1256 C1264 0.950 . S
H1257 C1269 0.950 . S
H1258 C1266 0.950 . S
H1259 C1268 0.950 . S
H1260 C1270 0.950 . S
H1261 C1272 0.950 . S
H1262 C1274 0.950 . S
H1263 C1275 0.950 . S
C1264 H1256 0.950 . S
C1264 C1265 1.386 . S
C1264 C1266 1.391 . S
C1265 C1264 1.386 . S
C1265 C1269 1.393 . S
C1266 H1258 0.950 . S
C1266 C1264 1.391 . S
C1266 C1267 1.400 . S
C1267 C1266 1.400 . S
C1267 C1268 1.398 . S
C1267 C1273 1.491 . S
C1268 H1259 0.950 . S
C1268 C1267 1.398 . S
C1268 C1269 1.391 . S
C1269 H1257 0.950 . S
C1269 C1265 1.393 . S
C1269 C1268 1.391 . S
C1270 H1260 0.950 . S
C1270 C1271 1.386 . S
C1270 C1272 1.391 . S
C1271 C1270 1.386 . S
C1271 C1275 1.393 . S
C1272 H1261 0.950 . S
C1272 C1270 1.391 . S
C1272 C1273 1.400 . S
C1273 C1267 1.491 . S
C1273 C1272 1.400 . S
C1273 C1274 1.398 . S
C1274 H1262 0.950 . S
C1274 C1273 1.398 . S
C1274 C1275 1.391 . S
C1275 H1263 0.950 . S
C1275 C1271 1.393 . S
C1275 C1274 1.391 . S
H1276 C1284 0.950 . S
H1277 C1289 0.950 . S
H1278 C1286 0.950 . S
H1279 C1288 0.950 . S
H1280 C1290 0.950 . S
H1281 C1292 0.950 . S
H1282 C1294 0.950 . S
H1283 C1295 0.950 . S
C1284 H1276 0.950 . S
C1284 C1285 1.386 . S
C1284 C1286 1.391 . S
C1285 C1284 1.386 . S
C1285 C1289 1.393 . S
C1286 H1278 0.950 . S
C1286 C1284 1.391 . S
C1286 C1287 1.400 . S
C1287 C1286 1.400 . S
C1287 C1288 1.398 . S
C1287 C1293 1.491 . S
C1288 H1279 0.950 . S
C1288 C1287 1.398 . S
C1288 C1289 1.391 . S
C1289 H1277 0.950 . S
C1289 C1285 1.393 . S
C1289 C1288 1.391 . S
C1290 H1280 0.950 . S
C1290 C1291 1.386 . S
C1290 C1292 1.391 . S
C1291 C1290 1.386 . S
C1291 C1295 1.393 . S
C1292 H1281 0.950 . S
C1292 C1290 1.391 . S
C1292 C1293 1.400 . S
C1293 C1287 1.491 . S
C1293 C1292 1.400 . S
C1293 C1294 1.398 . S
C1294 H1282 0.950 . S
C1294 C1293 1.398 . S
C1294 C1295 1.391 . S
C1295 H1283 0.950 . S
C1295 C1291 1.393 . S
C1295 C1294 1.391 . S
H1296 C1304 0.950 1_556 S
H1297 C1309 0.950 . S
H1298 C1306 0.950 . S
H1299 C1308 0.950 1_545 S
H1300 C1310 0.950 . S
H1301 C1312 0.950 . S
H1302 C1314 0.950 . S
H1303 C1315 0.950 . S
C1304 H1296 0.950 1_554 S
C1304 C1305 1.386 . S
C1304 C1306 1.391 . S
C1305 C1304 1.386 . S
C1305 C1309 1.393 . S
C1306 H1298 0.950 . S
C1306 C1304 1.391 . S
C1306 C1307 1.400 . S
C1307 C1306 1.400 . S
C1307 C1308 1.398 . S
C1307 C1313 1.491 . S
C1308 H1299 0.950 1_565 S
C1308 C1307 1.398 . S
C1308 C1309 1.391 . S
C1309 H1297 0.950 . S
C1309 C1305 1.393 . S
C1309 C1308 1.391 . S
C1310 H1300 0.950 . S
C1310 C1311 1.386 . S
C1310 C1312 1.391 . S
C1311 C1310 1.386 . S
C1311 C1315 1.393 1_545 S
C1312 H1301 0.950 . S
C1312 C1310 1.391 . S
C1312 C1313 1.400 1_545 S
C1313 C1307 1.491 . S
C1313 C1312 1.400 1_565 S
C1313 C1314 1.398 . S
C1314 H1302 0.950 . S
C1314 C1313 1.398 . S
C1314 C1315 1.391 . S
C1315 H1303 0.950 . S
C1315 C1311 1.393 1_565 S
C1315 C1314 1.391 . S
H1316 C1324 0.950 . S
H1317 C1329 0.950 . S
H1318 C1326 0.950 . S
H1319 C1328 0.950 . S
H1320 C1330 0.950 . S
H1321 C1332 0.950 . S
H1322 C1334 0.950 . S
H1323 C1335 0.950 . S
C1324 H1316 0.950 . S
C1324 C1325 1.386 . S
C1324 C1326 1.391 . S
C1325 C1324 1.386 . S
C1325 C1329 1.393 . S
C1326 H1318 0.950 . S
C1326 C1324 1.391 . S
C1326 C1327 1.400 . S
C1327 C1326 1.400 . S
C1327 C1328 1.398 . S
C1327 C1333 1.491 . S
C1328 H1319 0.950 . S
C1328 C1327 1.398 . S
C1328 C1329 1.391 . S
C1329 H1317 0.950 . S
C1329 C1325 1.393 . S
C1329 C1328 1.391 . S
C1330 H1320 0.950 . S
C1330 C1331 1.386 . S
C1330 C1332 1.391 . S
C1331 C1330 1.386 . S
C1331 C1335 1.393 . S
C1332 H1321 0.950 . S
C1332 C1330 1.391 . S
C1332 C1333 1.400 . S
C1333 C1327 1.491 . S
C1333 C1332 1.400 . S
C1333 C1334 1.398 . S
C1334 H1322 0.950 . S
C1334 C1333 1.398 . S
C1334 C1335 1.391 . S
C1335 H1323 0.950 . S
C1335 C1331 1.393 . S
C1335 C1334 1.391 . S
H1336 C1344 0.950 . S
H1337 C1349 0.950 . S
H1338 C1346 0.950 . S
H1339 C1348 0.950 . S
H1340 C1350 0.950 . S
H1341 C1352 0.950 . S
H1342 C1354 0.950 . S
H1343 C1355 0.950 . S
C1344 H1336 0.950 . S
C1344 C1345 1.386 . S
C1344 C1346 1.391 . S
C1345 C1344 1.386 . S
C1345 C1349 1.393 . S
C1346 H1338 0.950 . S
C1346 C1344 1.391 . S
C1346 C1347 1.400 . S
C1347 C1346 1.400 . S
C1347 C1348 1.398 . S
C1347 C1353 1.491 . S
C1348 H1339 0.950 . S
C1348 C1347 1.398 . S
C1348 C1349 1.391 . S
C1349 H1337 0.950 . S
C1349 C1345 1.393 . S
C1349 C1348 1.391 . S
C1350 H1340 0.950 . S
C1350 C1351 1.386 . S
C1350 C1352 1.391 . S
C1351 C1350 1.386 . S
C1351 C1355 1.393 . S
C1352 H1341 0.950 . S
C1352 C1350 1.391 . S
C1352 C1353 1.400 . S
C1353 C1347 1.491 . S
C1353 C1352 1.400 . S
C1353 C1354 1.398 . S
C1354 H1342 0.950 . S
C1354 C1353 1.398 . S
C1354 C1355 1.391 . S
C1355 H1343 0.950 . S
C1355 C1351 1.393 . S
C1355 C1354 1.391 . S
H1356 C1364 0.950 . S
H1357 C1369 0.950 . S
H1358 C1366 0.950 . S
H1359 C1368 0.950 . S
H1360 C1370 0.950 . S
H1361 C1372 0.950 . S
H1362 C1374 0.950 . S
H1363 C1375 0.950 . S
C1364 H1356 0.950 . S
C1364 C1365 1.386 . S
C1364 C1366 1.391 . S
C1365 C1364 1.386 . S
C1365 C1369 1.393 . S
C1366 H1358 0.950 . S
C1366 C1364 1.391 . S
C1366 C1367 1.400 . S
C1367 C1366 1.400 . S
C1367 C1368 1.398 . S
C1367 C1373 1.491 . S
C1368 H1359 0.950 . S
C1368 C1367 1.398 . S
C1368 C1369 1.391 . S
C1369 H1357 0.950 . S
C1369 C1365 1.393 . S
C1369 C1368 1.391 . S
C1370 H1360 0.950 . S
C1370 C1371 1.386 . S
C1370 C1372 1.391 . S
C1371 C1370 1.386 . S
C1371 C1375 1.393 . S
C1372 H1361 0.950 . S
C1372 C1370 1.391 . S
C1372 C1373 1.400 . S
C1373 C1367 1.491 . S
C1373 C1372 1.400 . S
C1373 C1374 1.398 . S
C1374 H1362 0.950 . S
C1374 C1373 1.398 . S
C1374 C1375 1.391 . S
C1375 H1363 0.950 . S
C1375 C1371 1.393 . S
C1375 C1374 1.391 . S
H1376 C1384 0.950 . S
H1377 C1389 0.950 . S
H1378 C1386 0.950 . S
H1379 C1388 0.950 . S
H1380 C1390 0.950 . S
H1381 C1392 0.950 . S
H1382 C1394 0.950 . S
H1383 C1395 0.950 . S
C1384 H1376 0.950 . S
C1384 C1385 1.386 . S
C1384 C1386 1.391 . S
C1385 C1384 1.386 . S
C1385 C1389 1.393 . S
C1386 H1378 0.950 . S
C1386 C1384 1.391 . S
C1386 C1387 1.400 . S
C1387 C1386 1.400 . S
C1387 C1388 1.398 . S
C1387 C1393 1.491 . S
C1388 H1379 0.950 . S
C1388 C1387 1.398 . S
C1388 C1389 1.391 . S
C1389 H1377 0.950 . S
C1389 C1385 1.393 . S
C1389 C1388 1.391 . S
C1390 H1380 0.950 . S
C1390 C1391 1.386 . S
C1390 C1392 1.391 . S
C1391 C1390 1.386 . S
C1391 C1395 1.393 . S
C1392 H1381 0.950 . S
C1392 C1390 1.391 . S
C1392 C1393 1.400 . S
C1393 C1387 1.491 . S
C1393 C1392 1.400 . S
C1393 C1394 1.398 . S
C1394 H1382 0.950 . S
C1394 C1393 1.398 . S
C1394 C1395 1.391 . S
C1395 H1383 0.950 . S
C1395 C1391 1.393 . S
C1395 C1394 1.391 . S
H1396 C1404 0.950 . S
H1397 C1409 0.950 . S
H1398 C1406 0.950 . S
H1399 C1408 0.950 . S
H1400 C1410 0.950 . S
H1401 C1412 0.950 . S
H1402 C1414 0.950 . S
H1403 C1415 0.950 . S
C1404 H1396 0.950 . S
C1404 C1405 1.386 . S
C1404 C1406 1.391 . S
C1405 C1404 1.386 . S
C1405 C1409 1.393 . S
C1406 H1398 0.950 . S
C1406 C1404 1.391 . S
C1406 C1407 1.400 . S
C1407 C1406 1.400 . S
C1407 C1408 1.398 . S
C1407 C1413 1.491 . S
C1408 H1399 0.950 . S
C1408 C1407 1.398 . S
C1408 C1409 1.391 . S
C1409 H1397 0.950 . S
C1409 C1405 1.393 . S
C1409 C1408 1.391 . S
C1410 H1400 0.950 . S
C1410 C1411 1.386 . S
C1410 C1412 1.391 . S
C1411 C1410 1.386 . S
C1411 C1415 1.393 . S
C1412 H1401 0.950 . S
C1412 C1410 1.391 . S
C1412 C1413 1.400 . S
C1413 C1407 1.491 . S
C1413 C1412 1.400 . S
C1413 C1414 1.398 . S
C1414 H1402 0.950 . S
C1414 C1413 1.398 . S
C1414 C1415 1.391 . S
C1415 H1403 0.950 . S
C1415 C1411 1.393 . S
C1415 C1414 1.391 . S
H1416 C1424 0.950 . S
H1417 C1429 0.950 . S
H1418 C1426 0.950 . S
H1419 C1428 0.950 . S
H1420 C1430 0.950 . S
H1421 C1432 0.950 . S
H1422 C1434 0.950 . S
H1423 C1435 0.950 . S
C1424 H1416 0.950 . S
C1424 C1425 1.386 . S
C1424 C1426 1.391 . S
C1425 C1424 1.386 . S
C1425 C1429 1.393 . S
C1426 H1418 0.950 . S
C1426 C1424 1.391 . S
C1426 C1427 1.400 . S
C1427 C1426 1.400 . S
C1427 C1428 1.398 . S
C1427 C1433 1.491 . S
C1428 H1419 0.950 . S
C1428 C1427 1.398 . S
C1428 C1429 1.391 . S
C1429 H1417 0.950 . S
C1429 C1425 1.393 . S
C1429 C1428 1.391 . S
C1430 H1420 0.950 . S
C1430 C1431 1.386 . S
C1430 C1432 1.391 . S
C1431 C1430 1.386 . S
C1431 C1435 1.393 . S
C1432 H1421 0.950 . S
C1432 C1430 1.391 . S
C1432 C1433 1.400 . S
C1433 C1427 1.491 . S
C1433 C1432 1.400 . S
C1433 C1434 1.398 . S
C1434 H1422 0.950 . S
C1434 C1433 1.398 . S
C1434 C1435 1.391 . S
C1435 H1423 0.950 . S
C1435 C1431 1.393 . S
C1435 C1434 1.391 . S
H1436 C1444 0.950 . S
H1437 C1449 0.950 . S
H1438 C1446 0.950 . S
H1439 C1448 0.950 . S
H1440 C1450 0.950 . S
H1441 C1452 0.950 . S
H1442 C1454 0.950 . S
H1443 C1455 0.950 . S
C1444 H1436 0.950 . S
C1444 C1445 1.386 . S
C1444 C1446 1.391 . S
C1445 C1444 1.386 . S
C1445 C1449 1.393 . S
C1446 H1438 0.950 . S
C1446 C1444 1.391 . S
C1446 C1447 1.400 . S
C1447 C1446 1.400 . S
C1447 C1448 1.398 . S
C1447 C1453 1.491 . S
C1448 H1439 0.950 . S
C1448 C1447 1.398 . S
C1448 C1449 1.391 . S
C1449 H1437 0.950 . S
C1449 C1445 1.393 . S
C1449 C1448 1.391 . S
C1450 H1440 0.950 . S
C1450 C1451 1.386 . S
C1450 C1452 1.391 . S
C1451 C1450 1.386 . S
C1451 C1455 1.393 . S
C1452 H1441 0.950 . S
C1452 C1450 1.391 . S
C1452 C1453 1.400 . S
C1453 C1447 1.491 . S
C1453 C1452 1.400 . S
C1453 C1454 1.398 . S
C1454 H1442 0.950 . S
C1454 C1453 1.398 . S
C1454 C1455 1.391 . S
C1455 H1443 0.950 . S
C1455 C1451 1.393 . S
C1455 C1454 1.391 . S
H1456 C1464 0.950 . S
H1457 C1469 0.950 . S
H1458 C1466 0.950 . S
H1459 C1468 0.950 . S
H1460 C1470 0.950 . S
H1461 C1472 0.950 . S
H1462 C1474 0.950 . S
H1463 C1475 0.950 . S
C1464 H1456 0.950 . S
C1464 C1465 1.386 . S
C1464 C1466 1.391 . S
C1465 C1464 1.386 . S
C1465 C1469 1.393 . S
C1466 H1458 0.950 . S
C1466 C1464 1.391 . S
C1466 C1467 1.400 . S
C1467 C1466 1.400 . S
C1467 C1468 1.398 . S
C1467 C1473 1.491 . S
C1468 H1459 0.950 . S
C1468 C1467 1.398 . S
C1468 C1469 1.391 . S
C1469 H1457 0.950 . S
C1469 C1465 1.393 . S
C1469 C1468 1.391 . S
C1470 H1460 0.950 . S
C1470 C1471 1.386 . S
C1470 C1472 1.391 . S
C1471 C1470 1.386 . S
C1471 C1475 1.393 . S
C1472 H1461 0.950 . S
C1472 C1470 1.391 . S
C1472 C1473 1.400 . S
C1473 C1467 1.491 . S
C1473 C1472 1.400 . S
C1473 C1474 1.398 . S
C1474 H1462 0.950 . S
C1474 C1473 1.398 . S
C1474 C1475 1.391 . S
C1475 H1463 0.950 . S
C1475 C1471 1.393 . S
C1475 C1474 1.391 . S
H1476 C1484 0.950 . S
H1477 C1489 0.950 . S
H1478 C1486 0.950 . S
H1479 C1488 0.950 . S
H1480 C1490 0.950 . S
H1481 C1492 0.950 . S
H1482 C1494 0.950 . S
H1483 C1495 0.950 . S
C1484 H1476 0.950 . S
C1484 C1485 1.386 . S
C1484 C1486 1.391 . S
C1485 C1484 1.386 . S
C1485 C1489 1.393 . S
C1486 H1478 0.950 . S
C1486 C1484 1.391 . S
C1486 C1487 1.400 . S
C1487 C1486 1.400 . S
C1487 C1488 1.398 . S
C1487 C1493 1.491 . S
C1488 H1479 0.950 . S
C1488 C1487 1.398 . S
C1488 C1489 1.391 . S
C1489 H1477 0.950 . S
C1489 C1485 1.393 . S
C1489 C1488 1.391 . S
C1490 H1480 0.950 . S
C1490 C1491 1.386 . S
C1490 C1492 1.391 . S
C1491 C1490 1.386 . S
C1491 C1495 1.393 . S
C1492 H1481 0.950 . S
C1492 C1490 1.391 . S
C1492 C1493 1.400 . S
C1493 C1487 1.491 . S
C1493 C1492 1.400 . S
C1493 C1494 1.398 . S
C1494 H1482 0.950 . S
C1494 C1493 1.398 . S
C1494 C1495 1.391 . S
C1495 H1483 0.950 . S
C1495 C1491 1.393 . S
C1495 C1494 1.391 . S
H1496 C1504 0.950 . S
H1497 C1509 0.950 . S
H1498 C1506 0.950 . S
H1499 C1508 0.950 . S
H1500 C1510 0.950 . S
H1501 C1512 0.950 . S
H1502 C1514 0.950 . S
H1503 C1515 0.950 . S
C1504 H1496 0.950 . S
C1504 C1505 1.386 . S
C1504 C1506 1.391 . S
C1505 C1504 1.386 . S
C1505 C1509 1.393 . S
C1506 H1498 0.950 . S
C1506 C1504 1.391 . S
C1506 C1507 1.400 . S
C1507 C1506 1.400 . S
C1507 C1508 1.398 . S
C1507 C1513 1.491 . S
C1508 H1499 0.950 . S
C1508 C1507 1.398 . S
C1508 C1509 1.391 . S
C1509 H1497 0.950 . S
C1509 C1505 1.393 . S
C1509 C1508 1.391 . S
C1510 H1500 0.950 . S
C1510 C1511 1.386 . S
C1510 C1512 1.391 . S
C1511 C1510 1.386 . S
C1511 C1515 1.393 . S
C1512 H1501 0.950 . S
C1512 C1510 1.391 . S
C1512 C1513 1.400 . S
C1513 C1507 1.491 . S
C1513 C1512 1.400 . S
C1513 C1514 1.398 . S
C1514 H1502 0.950 . S
C1514 C1513 1.398 . S
C1514 C1515 1.391 . S
C1515 H1503 0.950 . S
C1515 C1511 1.393 . S
C1515 C1514 1.391 . S
H1516 C1524 0.950 . S
H1517 C1529 0.950 . S
H1518 C1526 0.950 . S
H1519 C1528 0.950 . S
H1520 C1530 0.950 . S
H1521 C1532 0.950 . S
H1522 C1534 0.950 . S
H1523 C1535 0.950 . S
C1524 H1516 0.950 . S
C1524 C1525 1.386 . S
C1524 C1526 1.391 . S
C1525 C1524 1.386 . S
C1525 C1529 1.393 . S
C1526 H1518 0.950 . S
C1526 C1524 1.391 . S
C1526 C1527 1.400 . S
C1527 C1526 1.400 . S
C1527 C1528 1.398 . S
C1527 C1533 1.491 . S
C1528 H1519 0.950 . S
C1528 C1527 1.398 . S
C1528 C1529 1.391 . S
C1529 H1517 0.950 . S
C1529 C1525 1.393 . S
C1529 C1528 1.391 . S
C1530 H1520 0.950 . S
C1530 C1531 1.386 . S
C1530 C1532 1.391 . S
C1531 C1530 1.386 . S
C1531 C1535 1.393 . S
C1532 H1521 0.950 . S
C1532 C1530 1.391 . S
C1532 C1533 1.400 . S
C1533 C1527 1.491 . S
C1533 C1532 1.400 . S
C1533 C1534 1.398 . S
C1534 H1522 0.950 . S
C1534 C1533 1.398 . S
C1534 C1535 1.391 . S
C1535 H1523 0.950 . S
C1535 C1531 1.393 . S
C1535 C1534 1.391 . S
H1536 C1544 0.950 . S
H1537 C1549 0.950 . S
H1538 C1546 0.950 . S
H1539 C1548 0.950 . S
H1540 C1550 0.950 . S
H1541 C1552 0.950 . S
H1542 C1554 0.950 . S
H1543 C1555 0.950 . S
C1544 H1536 0.950 . S
C1544 C1545 1.386 . S
C1544 C1546 1.391 . S
C1545 C1544 1.386 . S
C1545 C1549 1.393 . S
C1546 H1538 0.950 . S
C1546 C1544 1.391 . S
C1546 C1547 1.400 . S
C1547 C1546 1.400 . S
C1547 C1548 1.398 . S
C1547 C1553 1.491 . S
C1548 H1539 0.950 . S
C1548 C1547 1.398 . S
C1548 C1549 1.391 . S
C1549 H1537 0.950 . S
C1549 C1545 1.393 . S
C1549 C1548 1.391 . S
C1550 H1540 0.950 . S
C1550 C1551 1.386 . S
C1550 C1552 1.391 . S
C1551 C1550 1.386 . S
C1551 C1555 1.393 . S
C1552 H1541 0.950 . S
C1552 C1550 1.391 . S
C1552 C1553 1.400 . S
C1553 C1547 1.491 . S
C1553 C1552 1.400 . S
C1553 C1554 1.398 . S
C1554 H1542 0.950 . S
C1554 C1553 1.398 . S
C1554 C1555 1.391 . S
C1555 H1543 0.950 . S
C1555 C1551 1.393 . S
C1555 C1554 1.391 . S
H1556 C1564 0.950 . S
H1557 C1569 0.950 . S
H1558 C1566 0.950 . S
H1559 C1568 0.950 . S
H1560 C1570 0.950 . S
H1561 C1572 0.950 . S
H1562 C1574 0.950 . S
H1563 C1575 0.950 . S
C1564 H1556 0.950 . S
C1564 C1565 1.386 . S
C1564 C1566 1.391 . S
C1565 C1564 1.386 . S
C1565 C1569 1.393 . S
C1566 H1558 0.950 . S
C1566 C1564 1.391 . S
C1566 C1567 1.400 . S
C1567 C1566 1.400 . S
C1567 C1568 1.398 . S
C1567 C1573 1.491 . S
C1568 H1559 0.950 . S
C1568 C1567 1.398 . S
C1568 C1569 1.391 . S
C1569 H1557 0.950 . S
C1569 C1565 1.393 . S
C1569 C1568 1.391 . S
C1570 H1560 0.950 . S
C1570 C1571 1.386 . S
C1570 C1572 1.391 . S
C1571 C1570 1.386 . S
C1571 C1575 1.393 . S
C1572 H1561 0.950 . S
C1572 C1570 1.391 . S
C1572 C1573 1.400 . S
C1573 C1567 1.491 . S
C1573 C1572 1.400 . S
C1573 C1574 1.398 . S
C1574 H1562 0.950 . S
C1574 C1573 1.398 . S
C1574 C1575 1.391 . S
C1575 H1563 0.950 . S
C1575 C1571 1.393 . S
C1575 C1574 1.391 . S
H1576 C1584 0.950 . S
H1577 C1589 0.950 . S
H1578 C1586 0.950 . S
H1579 C1588 0.950 . S
H1580 C1590 0.950 . S
H1581 C1592 0.950 . S
H1582 C1594 0.950 . S
H1583 C1595 0.950 1_554 S
C1584 H1576 0.950 . S
C1584 C1585 1.386 . S
C1584 C1586 1.391 . S
C1585 C1584 1.386 . S
C1585 C1589 1.393 . S
C1586 H1578 0.950 . S
C1586 C1584 1.391 . S
C1586 C1587 1.400 . S
C1587 C1586 1.400 . S
C1587 C1588 1.398 . S
C1587 C1593 1.491 . S
C1588 H1579 0.950 . S
C1588 C1587 1.398 . S
C1588 C1589 1.391 . S
C1589 H1577 0.950 . S
C1589 C1585 1.393 . S
C1589 C1588 1.391 . S
C1590 H1580 0.950 . S
C1590 C1591 1.386 . S
C1590 C1592 1.391 . S
C1591 C1590 1.386 . S
C1591 C1595 1.393 . S
C1592 H1581 0.950 . S
C1592 C1590 1.391 . S
C1592 C1593 1.400 . S
C1593 C1587 1.491 . S
C1593 C1592 1.400 . S
C1593 C1594 1.398 . S
C1594 H1582 0.950 . S
C1594 C1593 1.398 . S
C1594 C1595 1.391 . S
C1595 H1583 0.950 1_556 S
C1595 C1591 1.393 . S
C1595 C1594 1.391 . S
H1596 C1604 0.950 . S
H1597 C1609 0.950 . S
H1598 C1606 0.950 . S
H1599 C1608 0.950 . S
H1600 C1610 0.950 . S
H1601 C1612 0.950 . S
H1602 C1614 0.950 . S
H1603 C1615 0.950 . S
C1604 H1596 0.950 . S
C1604 C1605 1.386 . S
C1604 C1606 1.391 . S
C1605 C1604 1.386 . S
C1605 C1609 1.393 . S
C1606 H1598 0.950 . S
C1606 C1604 1.391 . S
C1606 C1607 1.400 . S
C1607 C1606 1.400 . S
C1607 C1608 1.398 . S
C1607 C1613 1.491 . S
C1608 H1599 0.950 . S
C1608 C1607 1.398 . S
C1608 C1609 1.391 . S
C1609 H1597 0.950 . S
C1609 C1605 1.393 . S
C1609 C1608 1.391 . S
C1610 H1600 0.950 . S
C1610 C1611 1.386 . S
C1610 C1612 1.391 . S
C1611 C1610 1.386 . S
C1611 C1615 1.393 . S
C1612 H1601 0.950 . S
C1612 C1610 1.391 . S
C1612 C1613 1.400 . S
C1613 C1607 1.491 . S
C1613 C1612 1.400 . S
C1613 C1614 1.398 . S
C1614 H1602 0.950 . S
C1614 C1613 1.398 . S
C1614 C1615 1.391 . S
C1615 H1603 0.950 . S
C1615 C1611 1.393 . S
C1615 C1614 1.391 . S
H1616 C1624 0.950 . S
H1617 C1629 0.950 . S
H1618 C1626 0.950 . S
H1619 C1628 0.950 . S
H1620 C1630 0.950 . S
H1621 C1632 0.950 . S
H1622 C1634 0.950 . S
H1623 C1635 0.950 . S
C1624 H1616 0.950 . S
C1624 C1625 1.386 . S
C1624 C1626 1.391 . S
C1625 C1624 1.386 . S
C1625 C1629 1.393 . S
C1626 H1618 0.950 . S
C1626 C1624 1.391 . S
C1626 C1627 1.400 . S
C1627 C1626 1.400 . S
C1627 C1628 1.398 . S
C1627 C1633 1.491 . S
C1628 H1619 0.950 . S
C1628 C1627 1.398 . S
C1628 C1629 1.391 . S
C1629 H1617 0.950 . S
C1629 C1625 1.393 . S
C1629 C1628 1.391 . S
C1630 H1620 0.950 . S
C1630 C1631 1.386 . S
C1630 C1632 1.391 . S
C1631 C1630 1.386 . S
C1631 C1635 1.393 . S
C1632 H1621 0.950 . S
C1632 C1630 1.391 . S
C1632 C1633 1.400 . S
C1633 C1627 1.491 . S
C1633 C1632 1.400 . S
C1633 C1634 1.398 . S
C1634 H1622 0.950 . S
C1634 C1633 1.398 . S
C1634 C1635 1.391 . S
C1635 H1623 0.950 . S
C1635 C1631 1.393 . S
C1635 C1634 1.391 . S
H1636 C1644 0.950 . S
H1637 C1649 0.950 . S
H1638 C1646 0.950 . S
H1639 C1648 0.950 . S
H1640 C1650 0.950 . S
H1641 C1652 0.950 . S
H1642 C1654 0.950 . S
H1643 C1655 0.950 . S
C1644 H1636 0.950 . S
C1644 C1645 1.386 . S
C1644 C1646 1.391 . S
C1645 C1644 1.386 . S
C1645 C1649 1.393 . S
C1646 H1638 0.950 . S
C1646 C1644 1.391 . S
C1646 C1647 1.400 . S
C1647 C1646 1.400 . S
C1647 C1648 1.398 . S
C1647 C1653 1.491 . S
C1648 H1639 0.950 . S
C1648 C1647 1.398 . S
C1648 C1649 1.391 . S
C1649 H1637 0.950 . S
C1649 C1645 1.393 . S
C1649 C1648 1.391 . S
C1650 H1640 0.950 . S
C1650 C1651 1.386 . S
C1650 C1652 1.391 . S
C1651 C1650 1.386 . S
C1651 C1655 1.393 . S
C1652 H1641 0.950 . S
C1652 C1650 1.391 . S
C1652 C1653 1.400 . S
C1653 C1647 1.491 . S
C1653 C1652 1.400 . S
C1653 C1654 1.398 . S
C1654 H1642 0.950 . S
C1654 C1653 1.398 . S
C1654 C1655 1.391 . S
C1655 H1643 0.950 . S
C1655 C1651 1.393 . S
C1655 C1654 1.391 . S
H1656 C1664 0.950 . S
H1657 C1669 0.950 . S
H1658 C1666 0.950 . S
H1659 C1668 0.950 . S
H1660 C1670 0.950 . S
H1661 C1672 0.950 . S
H1662 C1674 0.950 . S
H1663 C1675 0.950 . S
C1664 H1656 0.950 . S
C1664 C1665 1.386 . S
C1664 C1666 1.391 . S
C1665 C1664 1.386 . S
C1665 C1669 1.393 . S
C1666 H1658 0.950 . S
C1666 C1664 1.391 . S
C1666 C1667 1.400 . S
C1667 C1666 1.400 . S
C1667 C1668 1.398 . S
C1667 C1673 1.491 . S
C1668 H1659 0.950 . S
C1668 C1667 1.398 . S
C1668 C1669 1.391 . S
C1669 H1657 0.950 . S
C1669 C1665 1.393 . S
C1669 C1668 1.391 . S
C1670 H1660 0.950 . S
C1670 C1671 1.386 . S
C1670 C1672 1.391 . S
C1671 C1670 1.386 . S
C1671 C1675 1.393 . S
C1672 H1661 0.950 . S
C1672 C1670 1.391 . S
C1672 C1673 1.400 . S
C1673 C1667 1.491 . S
C1673 C1672 1.400 . S
C1673 C1674 1.398 . S
C1674 H1662 0.950 . S
C1674 C1673 1.398 . S
C1674 C1675 1.391 . S
C1675 H1663 0.950 . S
C1675 C1671 1.393 . S
C1675 C1674 1.391 . S
H1676 C1684 0.950 . S
H1677 C1689 0.950 . S
H1678 C1686 0.950 . S
H1679 C1688 0.950 . S
H1680 C1690 0.950 . S
H1681 C1692 0.950 . S
H1682 C1694 0.950 . S
H1683 C1695 0.950 . S
C1684 H1676 0.950 . S
C1684 C1685 1.386 . S
C1684 C1686 1.391 . S
C1685 C1684 1.386 . S
C1685 C1689 1.393 . S
C1686 H1678 0.950 . S
C1686 C1684 1.391 . S
C1686 C1687 1.400 . S
C1687 C1686 1.400 . S
C1687 C1688 1.398 . S
C1687 C1693 1.491 . S
C1688 H1679 0.950 . S
C1688 C1687 1.398 . S
C1688 C1689 1.391 . S
C1689 H1677 0.950 . S
C1689 C1685 1.393 . S
C1689 C1688 1.391 . S
C1690 H1680 0.950 . S
C1690 C1691 1.386 . S
C1690 C1692 1.391 . S
C1691 C1690 1.386 . S
C1691 C1695 1.393 . S
C1692 H1681 0.950 . S
C1692 C1690 1.391 . S
C1692 C1693 1.400 . S
C1693 C1687 1.491 . S
C1693 C1692 1.400 . S
C1693 C1694 1.398 . S
C1694 H1682 0.950 . S
C1694 C1693 1.398 . S
C1694 C1695 1.391 . S
C1695 H1683 0.950 . S
C1695 C1691 1.393 . S
C1695 C1694 1.391 . S
H1696 C1704 0.950 . S
H1697 C1709 0.950 . S
H1698 C1706 0.950 . S
H1699 C1708 0.950 . S
H1700 C1710 0.950 . S
H1701 C1712 0.950 . S
H1702 C1714 0.950 . S
H1703 C1715 0.950 . S
C1704 H1696 0.950 . S
C1704 C1705 1.386 . S
C1704 C1706 1.391 . S
C1705 C1704 1.386 . S
C1705 C1709 1.393 . S
C1706 H1698 0.950 . S
C1706 C1704 1.391 . S
C1706 C1707 1.400 . S
C1707 C1706 1.400 . S
C1707 C1708 1.398 . S
C1707 C1713 1.491 . S
C1708 H1699 0.950 . S
C1708 C1707 1.398 . S
C1708 C1709 1.391 . S
C1709 H1697 0.950 . S
C1709 C1705 1.393 . S
C1709 C1708 1.391 . S
C1710 H1700 0.950 . S
C1710 C1711 1.386 . S
C1710 C1712 1.391 . S
C1711 C1710 1.386 . S
C1711 C1715 1.393 . S
C1712 H1701 0.950 . S
C1712 C1710 1.391 . S
C1712 C1713 1.400 . S
C1713 C1707 1.491 . S
C1713 C1712 1.400 . S
C1713 C1714 1.398 . S
C1714 H1702 0.950 . S
C1714 C1713 1.398 . S
C1714 C1715 1.391 . S
C1715 H1703 0.950 . S
C1715 C1711 1.393 . S
C1715 C1714 1.391 . S
H1716 C1724 0.950 . S
H1717 C1729 0.950 . S
H1718 C1726 0.950 . S
H1719 C1728 0.950 . S
H1720 C1730 0.950 . S
H1721 C1732 0.950 . S
H1722 C1734 0.950 . S
H1723 C1735 0.950 . S
C1724 H1716 0.950 . S
C1724 C1725 1.386 . S
C1724 C1726 1.391 . S
C1725 C1724 1.386 . S
C1725 C1729 1.393 . S
C1726 H1718 0.950 . S
C1726 C1724 1.391 . S
C1726 C1727 1.400 . S
C1727 C1726 1.400 . S
C1727 C1728 1.398 . S
C1727 C1733 1.491 . S
C1728 H1719 0.950 . S
C1728 C1727 1.398 . S
C1728 C1729 1.391 . S
C1729 H1717 0.950 . S
C1729 C1725 1.393 . S
C1729 C1728 1.391 . S
C1730 H1720 0.950 . S
C1730 C1731 1.386 . S
C1730 C1732 1.391 . S
C1731 C1730 1.386 . S
C1731 C1735 1.393 . S
C1732 H1721 0.950 . S
C1732 C1730 1.391 . S
C1732 C1733 1.400 . S
C1733 C1727 1.491 . S
C1733 C1732 1.400 . S
C1733 C1734 1.398 . S
C1734 H1722 0.950 . S
C1734 C1733 1.398 . S
C1734 C1735 1.391 . S
C1735 H1723 0.950 . S
C1735 C1731 1.393 . S
C1735 C1734 1.391 . S
H1736 C1744 0.950 . S
H1737 C1749 0.950 . S
H1738 C1746 0.950 . S
H1739 C1748 0.950 . S
H1740 C1750 0.950 . S
H1741 C1752 0.950 . S
H1742 C1754 0.950 . S
H1743 C1755 0.950 . S
C1744 H1736 0.950 . S
C1744 C1745 1.386 . S
C1744 C1746 1.391 . S
C1745 C1744 1.386 . S
C1745 C1749 1.393 . S
C1746 H1738 0.950 . S
C1746 C1744 1.391 . S
C1746 C1747 1.400 . S
C1747 C1746 1.400 . S
C1747 C1748 1.398 . S
C1747 C1753 1.491 . S
C1748 H1739 0.950 . S
C1748 C1747 1.398 . S
C1748 C1749 1.391 . S
C1749 H1737 0.950 . S
C1749 C1745 1.393 . S
C1749 C1748 1.391 . S
C1750 H1740 0.950 . S
C1750 C1751 1.386 . S
C1750 C1752 1.391 . S
C1751 C1750 1.386 . S
C1751 C1755 1.393 . S
C1752 H1741 0.950 . S
C1752 C1750 1.391 . S
C1752 C1753 1.400 . S
C1753 C1747 1.491 . S
C1753 C1752 1.400 . S
C1753 C1754 1.398 . S
C1754 H1742 0.950 . S
C1754 C1753 1.398 . S
C1754 C1755 1.391 . S
C1755 H1743 0.950 . S
C1755 C1751 1.393 . S
C1755 C1754 1.391 . S
H1756 C1764 0.950 . S
H1757 C1769 0.950 . S
H1758 C1766 0.950 . S
H1759 C1768 0.950 . S
H1760 C1770 0.950 . S
H1761 C1772 0.950 . S
H1762 C1774 0.950 . S
H1763 C1775 0.950 . S
C1764 H1756 0.950 . S
C1764 C1765 1.386 . S
C1764 C1766 1.391 . S
C1765 C1764 1.386 . S
C1765 C1769 1.393 . S
C1766 H1758 0.950 . S
C1766 C1764 1.391 . S
C1766 C1767 1.400 . S
C1767 C1766 1.400 . S
C1767 C1768 1.398 . S
C1767 C1773 1.491 . S
C1768 H1759 0.950 . S
C1768 C1767 1.398 . S
C1768 C1769 1.391 . S
C1769 H1757 0.950 . S
C1769 C1765 1.393 . S
C1769 C1768 1.391 . S
C1770 H1760 0.950 . S
C1770 C1771 1.386 . S
C1770 C1772 1.391 . S
C1771 C1770 1.386 . S
C1771 C1775 1.393 . S
C1772 H1761 0.950 . S
C1772 C1770 1.391 . S
C1772 C1773 1.400 . S
C1773 C1767 1.491 . S
C1773 C1772 1.400 . S
C1773 C1774 1.398 . S
C1774 H1762 0.950 . S
C1774 C1773 1.398 . S
C1774 C1775 1.391 . S
C1775 H1763 0.950 . S
C1775 C1771 1.393 . S
C1775 C1774 1.391 . S
H1776 C1784 0.950 . S
H1777 C1789 0.950 . S
H1778 C1786 0.950 . S
H1779 C1788 0.950 . S
H1780 C1790 0.950 . S
H1781 C1792 0.950 1_556 S
H1782 C1794 0.950 . S
H1783 C1795 0.950 . S
C1784 H1776 0.950 . S
C1784 C1785 1.386 . S
C1784 C1786 1.391 . S
C1785 C1784 1.386 . S
C1785 C1789 1.393 . S
C1786 H1778 0.950 . S
C1786 C1784 1.391 . S
C1786 C1787 1.400 . S
C1787 C1786 1.400 . S
C1787 C1788 1.398 . S
C1787 C1793 1.491 . S
C1788 H1779 0.950 . S
C1788 C1787 1.398 . S
C1788 C1789 1.391 . S
C1789 H1777 0.950 . S
C1789 C1785 1.393 . S
C1789 C1788 1.391 . S
C1790 H1780 0.950 . S
C1790 C1791 1.386 1_556 S
C1790 C1792 1.391 1_556 S
C1791 C1790 1.386 1_554 S
C1791 C1795 1.393 . S
C1792 H1781 0.950 1_554 S
C1792 C1790 1.391 1_554 S
C1792 C1793 1.400 . S
C1793 C1787 1.491 . S
C1793 C1792 1.400 . S
C1793 C1794 1.398 . S
C1794 H1782 0.950 . S
C1794 C1793 1.398 . S
C1794 C1795 1.391 . S
C1795 H1783 0.950 . S
C1795 C1791 1.393 . S
C1795 C1794 1.391 . S
H1796 C1804 0.950 . S
H1797 C1809 0.950 . S
H1798 C1806 0.950 . S
H1799 C1808 0.950 . S
H1800 C1810 0.950 . S
H1801 C1812 0.950 . S
H1802 C1814 0.950 . S
H1803 C1815 0.950 . S
C1804 H1796 0.950 . S
C1804 C1805 1.386 . S
C1804 C1806 1.391 . S
C1805 C1804 1.386 . S
C1805 C1809 1.393 . S
C1806 H1798 0.950 . S
C1806 C1804 1.391 . S
C1806 C1807 1.400 . S
C1807 C1806 1.400 . S
C1807 C1808 1.398 . S
C1807 C1813 1.491 . S
C1808 H1799 0.950 . S
C1808 C1807 1.398 . S
C1808 C1809 1.391 . S
C1809 H1797 0.950 . S
C1809 C1805 1.393 . S
C1809 C1808 1.391 . S
C1810 H1800 0.950 . S
C1810 C1811 1.386 . S
C1810 C1812 1.391 . S
C1811 C1810 1.386 . S
C1811 C1815 1.393 . S
C1812 H1801 0.950 . S
C1812 C1810 1.391 . S
C1812 C1813 1.400 . S
C1813 C1807 1.491 . S
C1813 C1812 1.400 . S
C1813 C1814 1.398 . S
C1814 H1802 0.950 . S
C1814 C1813 1.398 . S
C1814 C1815 1.391 . S
C1815 H1803 0.950 . S
C1815 C1811 1.393 . S
C1815 C1814 1.391 . S
H1816 C1824 0.950 . S
H1817 C1829 0.950 . S
H1818 C1826 0.950 . S
H1819 C1828 0.950 . S
H1820 C1830 0.950 . S
H1821 C1832 0.950 . S
H1822 C1834 0.950 . S
H1823 C1835 0.950 . S
C1824 H1816 0.950 . S
C1824 C1825 1.386 . S
C1824 C1826 1.391 . S
C1825 C1824 1.386 . S
C1825 C1829 1.393 . S
C1826 H1818 0.950 . S
C1826 C1824 1.391 . S
C1826 C1827 1.400 . S
C1827 C1826 1.400 . S
C1827 C1828 1.398 . S
C1827 C1833 1.491 . S
C1828 H1819 0.950 . S
C1828 C1827 1.398 . S
C1828 C1829 1.391 . S
C1829 H1817 0.950 . S
C1829 C1825 1.393 . S
C1829 C1828 1.391 . S
C1830 H1820 0.950 . S
C1830 C1831 1.386 . S
C1830 C1832 1.391 . S
C1831 C1830 1.386 . S
C1831 C1835 1.393 . S
C1832 H1821 0.950 . S
C1832 C1830 1.391 . S
C1832 C1833 1.400 . S
C1833 C1827 1.491 . S
C1833 C1832 1.400 . S
C1833 C1834 1.398 . S
C1834 H1822 0.950 . S
C1834 C1833 1.398 . S
C1834 C1835 1.391 . S
C1835 H1823 0.950 . S
C1835 C1831 1.393 . S
C1835 C1834 1.391 . S
H1836 C1844 0.950 . S
H1837 C1849 0.950 . S
H1838 C1846 0.950 . S
H1839 C1848 0.950 . S
H1840 C1850 0.950 . S
H1841 C1852 0.950 . S
H1842 C1854 0.950 . S
H1843 C1855 0.950 . S
C1844 H1836 0.950 . S
C1844 C1845 1.386 . S
C1844 C1846 1.391 . S
C1845 C1844 1.386 . S
C1845 C1849 1.393 . S
C1846 H1838 0.950 . S
C1846 C1844 1.391 . S
C1846 C1847 1.400 . S
C1847 C1846 1.400 . S
C1847 C1848 1.398 . S
C1847 C1853 1.491 . S
C1848 H1839 0.950 . S
C1848 C1847 1.398 . S
C1848 C1849 1.391 . S
C1849 H1837 0.950 . S
C1849 C1845 1.393 . S
C1849 C1848 1.391 . S
C1850 H1840 0.950 . S
C1850 C1851 1.386 . S
C1850 C1852 1.391 . S
C1851 C1850 1.386 . S
C1851 C1855 1.393 . S
C1852 H1841 0.950 . S
C1852 C1850 1.391 . S
C1852 C1853 1.400 . S
C1853 C1847 1.491 . S
C1853 C1852 1.400 . S
C1853 C1854 1.398 . S
C1854 H1842 0.950 . S
C1854 C1853 1.398 . S
C1854 C1855 1.391 . S
C1855 H1843 0.950 . S
C1855 C1851 1.393 . S
C1855 C1854 1.391 . S
H1856 C1864 0.950 . S
H1857 C1869 0.950 1_545 S
H1858 C1866 0.950 . S
H1859 C1868 0.950 . S
H1860 C1870 0.950 . S
H1861 C1872 0.950 . S
H1862 C1874 0.950 . S
H1863 C1875 0.950 . S
C1864 H1856 0.950 . S
C1864 C1865 1.386 . S
C1864 C1866 1.391 . S
C1865 C1864 1.386 . S
C1865 C1869 1.393 . S
C1866 H1858 0.950 . S
C1866 C1864 1.391 . S
C1866 C1867 1.400 . S
C1867 C1866 1.400 . S
C1867 C1868 1.398 . S
C1867 C1873 1.491 . S
C1868 H1859 0.950 . S
C1868 C1867 1.398 . S
C1868 C1869 1.391 . S
C1869 H1857 0.950 1_565 S
C1869 C1865 1.393 . S
C1869 C1868 1.391 . S
C1870 H1860 0.950 . S
C1870 C1871 1.386 . S
C1870 C1872 1.391 . S
C1871 C1870 1.386 . S
C1871 C1875 1.393 . S
C1872 H1861 0.950 . S
C1872 C1870 1.391 . S
C1872 C1873 1.400 . S
C1873 C1867 1.491 . S
C1873 C1872 1.400 . S
C1873 C1874 1.398 . S
C1874 H1862 0.950 . S
C1874 C1873 1.398 . S
C1874 C1875 1.391 . S
C1875 H1863 0.950 . S
C1875 C1871 1.393 . S
C1875 C1874 1.391 . S
H1876 C1884 0.950 . S
H1877 C1889 0.950 . S
H1878 C1886 0.950 . S
H1879 C1888 0.950 . S
H1880 C1890 0.950 . S
H1881 C1892 0.950 . S
H1882 C1894 0.950 . S
H1883 C1895 0.950 . S
C1884 H1876 0.950 . S
C1884 C1885 1.386 . S
C1884 C1886 1.391 . S
C1885 C1884 1.386 . S
C1885 C1889 1.393 . S
C1886 H1878 0.950 . S
C1886 C1884 1.391 . S
C1886 C1887 1.400 . S
C1887 C1886 1.400 . S
C1887 C1888 1.398 . S
C1887 C1893 1.491 . S
C1888 H1879 0.950 . S
C1888 C1887 1.398 . S
C1888 C1889 1.391 . S
C1889 H1877 0.950 . S
C1889 C1885 1.393 . S
C1889 C1888 1.391 . S
C1890 H1880 0.950 . S
C1890 C1891 1.386 . S
C1890 C1892 1.391 . S
C1891 C1890 1.386 . S
C1891 C1895 1.393 . S
C1892 H1881 0.950 . S
C1892 C1890 1.391 . S
C1892 C1893 1.400 . S
C1893 C1887 1.491 . S
C1893 C1892 1.400 . S
C1893 C1894 1.398 . S
C1894 H1882 0.950 . S
C1894 C1893 1.398 . S
C1894 C1895 1.391 . S
C1895 H1883 0.950 . S
C1895 C1891 1.393 . S
C1895 C1894 1.391 . S
H1896 C1904 0.950 . S
H1897 C1909 0.950 . S
H1898 C1906 0.950 . S
H1899 C1908 0.950 . S
H1900 C1910 0.950 . S
H1901 C1912 0.950 . S
H1902 C1914 0.950 . S
H1903 C1915 0.950 . S
C1904 H1896 0.950 . S
C1904 C1905 1.386 . S
C1904 C1906 1.391 . S
C1905 C1904 1.386 . S
C1905 C1909 1.393 . S
C1906 H1898 0.950 . S
C1906 C1904 1.391 . S
C1906 C1907 1.400 . S
C1907 C1906 1.400 . S
C1907 C1908 1.398 . S
C1907 C1913 1.491 . S
C1908 H1899 0.950 . S
C1908 C1907 1.398 . S
C1908 C1909 1.391 . S
C1909 H1897 0.950 . S
C1909 C1905 1.393 . S
C1909 C1908 1.391 . S
C1910 H1900 0.950 . S
C1910 C1911 1.386 . S
C1910 C1912 1.391 . S
C1911 C1910 1.386 . S
C1911 C1915 1.393 . S
C1912 H1901 0.950 . S
C1912 C1910 1.391 . S
C1912 C1913 1.400 . S
C1913 C1907 1.491 . S
C1913 C1912 1.400 . S
C1913 C1914 1.398 . S
C1914 H1902 0.950 . S
C1914 C1913 1.398 . S
C1914 C1915 1.391 . S
C1915 H1903 0.950 . S
C1915 C1911 1.393 . S
C1915 C1914 1.391 . S
H1916 C1924 0.950 . S
H1917 C1929 0.950 . S
H1918 C1926 0.950 . S
H1919 C1928 0.950 . S
H1920 C1930 0.950 . S
H1921 C1932 0.950 . S
H1922 C1934 0.950 . S
H1923 C1935 0.950 . S
C1924 H1916 0.950 . S
C1924 C1925 1.386 . S
C1924 C1926 1.391 . S
C1925 C1924 1.386 . S
C1925 C1929 1.393 . S
C1926 H1918 0.950 . S
C1926 C1924 1.391 . S
C1926 C1927 1.400 . S
C1927 C1926 1.400 . S
C1927 C1928 1.398 . S
C1927 C1933 1.491 . S
C1928 H1919 0.950 . S
C1928 C1927 1.398 . S
C1928 C1929 1.391 . S
C1929 H1917 0.950 . S
C1929 C1925 1.393 . S
C1929 C1928 1.391 . S
C1930 H1920 0.950 . S
C1930 C1931 1.386 . S
C1930 C1932 1.391 . S
C1931 C1930 1.386 . S
C1931 C1935 1.393 . S
C1932 H1921 0.950 . S
C1932 C1930 1.391 . S
C1932 C1933 1.400 . S
C1933 C1927 1.491 . S
C1933 C1932 1.400 . S
C1933 C1934 1.398 . S
C1934 H1922 0.950 . S
C1934 C1933 1.398 . S
C1934 C1935 1.391 . S
C1935 H1923 0.950 . S
C1935 C1931 1.393 . S
C1935 C1934 1.391 . S
H1936 C1944 0.950 . S
H1937 C1949 0.950 . S
H1938 C1946 0.950 . S
H1939 C1948 0.950 . S
H1940 C1950 0.950 . S
H1941 C1952 0.950 . S
H1942 C1954 0.950 . S
H1943 C1955 0.950 . S
C1944 H1936 0.950 . S
C1944 C1945 1.386 . S
C1944 C1946 1.391 . S
C1945 C1944 1.386 . S
C1945 C1949 1.393 . S
C1946 H1938 0.950 . S
C1946 C1944 1.391 . S
C1946 C1947 1.400 . S
C1947 C1946 1.400 . S
C1947 C1948 1.398 . S
C1947 C1953 1.491 . S
C1948 H1939 0.950 . S
C1948 C1947 1.398 . S
C1948 C1949 1.391 . S
C1949 H1937 0.950 . S
C1949 C1945 1.393 . S
C1949 C1948 1.391 . S
C1950 H1940 0.950 . S
C1950 C1951 1.386 . S
C1950 C1952 1.391 . S
C1951 C1950 1.386 . S
C1951 C1955 1.393 . S
C1952 H1941 0.950 . S
C1952 C1950 1.391 . S
C1952 C1953 1.400 . S
C1953 C1947 1.491 . S
C1953 C1952 1.400 . S
C1953 C1954 1.398 . S
C1954 H1942 0.950 . S
C1954 C1953 1.398 . S
C1954 C1955 1.391 . S
C1955 H1943 0.950 . S
C1955 C1951 1.393 . S
C1955 C1954 1.391 . S
H1956 C1964 0.950 . S
H1957 C1969 0.950 . S
H1958 C1966 0.950 . S
H1959 C1968 0.950 . S
H1960 C1970 0.950 . S
H1961 C1972 0.950 . S
H1962 C1974 0.950 . S
H1963 C1975 0.950 . S
C1964 H1956 0.950 . S
C1964 C1965 1.386 . S
C1964 C1966 1.391 . S
C1965 C1964 1.386 . S
C1965 C1969 1.393 . S
C1966 H1958 0.950 . S
C1966 C1964 1.391 . S
C1966 C1967 1.400 . S
C1967 C1966 1.400 . S
C1967 C1968 1.398 . S
C1967 C1973 1.491 . S
C1968 H1959 0.950 . S
C1968 C1967 1.398 . S
C1968 C1969 1.391 . S
C1969 H1957 0.950 . S
C1969 C1965 1.393 . S
C1969 C1968 1.391 . S
C1970 H1960 0.950 . S
C1970 C1971 1.386 . S
C1970 C1972 1.391 . S
C1971 C1970 1.386 . S
C1971 C1975 1.393 . S
C1972 H1961 0.950 . S
C1972 C1970 1.391 . S
C1972 C1973 1.400 . S
C1973 C1967 1.491 . S
C1973 C1972 1.400 . S
C1973 C1974 1.398 . S
C1974 H1962 0.950 . S
C1974 C1973 1.398 . S
C1974 C1975 1.391 . S
C1975 H1963 0.950 . S
C1975 C1971 1.393 . S
C1975 C1974 1.391 . S
H1976 C1984 0.950 . S
H1977 C1989 0.950 1_655 S
H1978 C1986 0.950 1_554 S
H1979 C1988 0.953 . S
H1980 C1990 0.950 . S
H1981 C1992 0.950 . S
H1982 C1994 0.950 . S
H1983 C1995 0.950 . S
C1984 H1976 0.950 . S
C1984 C1985 1.386 . S
C1984 C1986 1.391 . S
C1985 C1984 1.386 . S
C1985 C1989 1.393 . S
C1986 H1978 0.950 1_556 S
C1986 C1984 1.391 . S
C1986 C1987 1.400 . S
C1987 C1986 1.400 . S
C1987 C1988 1.398 . S
C1987 C1993 1.491 . S
C1988 H1979 0.953 . S
C1988 C1987 1.398 . S
C1988 C1989 1.391 . S
C1989 H1977 0.950 1_455 S
C1989 C1985 1.393 . S
C1989 C1988 1.391 . S
C1990 H1980 0.950 . S
C1990 C1991 1.386 1_556 S
C1990 C1992 1.391 . S
C1991 C1990 1.386 1_554 S
C1991 C1995 1.393 . S
C1992 H1981 0.950 . S
C1992 C1990 1.391 . S
C1992 C1993 1.400 . S
C1993 C1987 1.491 . S
C1993 C1992 1.400 . S
C1993 C1994 1.398 1_556 S
C1994 H1982 0.950 . S
C1994 C1993 1.398 1_554 S
C1994 C1995 1.391 . S
C1995 H1983 0.950 . S
C1995 C1991 1.393 . S
C1995 C1994 1.391 . S
H1996 C2004 0.950 . S
H1997 C2009 0.950 . S
H1998 C2006 0.950 . S
H1999 C2008 0.950 . S
H2000 C2010 0.950 . S
H2001 C2012 0.950 . S
H2002 C2014 0.950 . S
H2003 C2015 0.950 . S
C2004 H1996 0.950 . S
C2004 C2005 1.386 . S
C2004 C2006 1.391 1_455 S
C2005 C2004 1.386 . S
C2005 C2009 1.393 . S
C2006 H1998 0.950 . S
C2006 C2004 1.391 1_655 S
C2006 C2007 1.400 . S
C2007 C2006 1.400 . S
C2007 C2008 1.398 1_655 S
C2007 C2013 1.491 . S
C2008 H1999 0.950 . S
C2008 C2007 1.398 1_455 S
C2008 C2009 1.391 . S
C2009 H1997 0.950 . S
C2009 C2005 1.393 . S
C2009 C2008 1.391 . S
C2010 H2000 0.950 . S
C2010 C2011 1.386 . S
C2010 C2012 1.391 . S
C2011 C2010 1.386 . S
C2011 C2015 1.393 . S
C2012 H2001 0.950 . S
C2012 C2010 1.391 . S
C2012 C2013 1.400 . S
C2013 C2007 1.491 . S
C2013 C2012 1.400 . S
C2013 C2014 1.398 . S
C2014 H2002 0.950 . S
C2014 C2013 1.398 . S
C2014 C2015 1.391 . S
C2015 H2003 0.950 . S
C2015 C2011 1.393 . S
C2015 C2014 1.391 . S
H2016 C2024 0.950 . S
H2017 C2029 0.950 . S
H2018 C2026 0.950 . S
H2019 C2028 0.950 . S
H2020 C2030 0.950 . S
H2021 C2032 0.950 . S
H2022 C2034 0.950 . S
H2023 C2035 0.950 . S
C2024 H2016 0.950 . S
C2024 C2025 1.386 . S
C2024 C2026 1.391 . S
C2025 C2024 1.386 . S
C2025 C2029 1.393 . S
C2026 H2018 0.950 . S
C2026 C2024 1.391 . S
C2026 C2027 1.400 . S
C2027 C2026 1.400 . S
C2027 C2028 1.398 . S
C2027 C2033 1.491 . S
C2028 H2019 0.950 . S
C2028 C2027 1.398 . S
C2028 C2029 1.391 . S
C2029 H2017 0.950 . S
C2029 C2025 1.393 . S
C2029 C2028 1.391 . S
C2030 H2020 0.950 . S
C2030 C2031 1.386 . S
C2030 C2032 1.391 . S
C2031 C2030 1.386 . S
C2031 C2035 1.393 . S
C2032 H2021 0.950 . S
C2032 C2030 1.391 . S
C2032 C2033 1.400 . S
C2033 C2027 1.491 . S
C2033 C2032 1.400 . S
C2033 C2034 1.398 . S
C2034 H2022 0.950 . S
C2034 C2033 1.398 . S
C2034 C2035 1.391 . S
C2035 H2023 0.950 . S
C2035 C2031 1.393 . S
C2035 C2034 1.391 . S
H2036 C2044 0.950 . S
H2037 C2049 0.950 . S
H2038 C2046 0.950 . S
H2039 C2048 0.950 . S
H2040 C2050 0.950 . S
H2041 C2052 0.950 . S
H2042 C2054 0.950 . S
H2043 C2055 0.950 . S
C2044 H2036 0.950 . S
C2044 C2045 1.386 . S
C2044 C2046 1.391 . S
C2045 C2044 1.386 . S
C2045 C2049 1.393 . S
C2046 H2038 0.950 . S
C2046 C2044 1.391 . S
C2046 C2047 1.400 . S
C2047 C2046 1.400 . S
C2047 C2048 1.398 . S
C2047 C2053 1.491 . S
C2048 H2039 0.950 . S
C2048 C2047 1.398 . S
C2048 C2049 1.391 . S
C2049 H2037 0.950 . S
C2049 C2045 1.393 . S
C2049 C2048 1.391 . S
C2050 H2040 0.950 . S
C2050 C2051 1.386 . S
C2050 C2052 1.391 . S
C2051 C2050 1.386 . S
C2051 C2055 1.393 . S
C2052 H2041 0.950 . S
C2052 C2050 1.391 . S
C2052 C2053 1.400 . S
C2053 C2047 1.491 . S
C2053 C2052 1.400 . S
C2053 C2054 1.398 . S
C2054 H2042 0.950 . S
C2054 C2053 1.398 . S
C2054 C2055 1.391 . S
C2055 H2043 0.950 . S
C2055 C2051 1.393 . S
C2055 C2054 1.391 . S
H2056 C2064 0.950 . S
H2057 C2069 0.950 . S
H2058 C2066 0.950 . S
H2059 C2068 0.950 . S
H2060 C2070 0.950 . S
H2061 C2072 0.950 . S
H2062 C2074 0.950 . S
H2063 C2075 0.950 . S
C2064 H2056 0.950 . S
C2064 C2065 1.386 . S
C2064 C2066 1.391 . S
C2065 C2064 1.386 . S
C2065 C2069 1.393 . S
C2066 H2058 0.950 . S
C2066 C2064 1.391 . S
C2066 C2067 1.400 . S
C2067 C2066 1.400 . S
C2067 C2068 1.398 . S
C2067 C2073 1.491 . S
C2068 H2059 0.950 . S
C2068 C2067 1.398 . S
C2068 C2069 1.391 . S
C2069 H2057 0.950 . S
C2069 C2065 1.393 . S
C2069 C2068 1.391 . S
C2070 H2060 0.950 . S
C2070 C2071 1.386 . S
C2070 C2072 1.391 . S
C2071 C2070 1.386 . S
C2071 C2075 1.393 . S
C2072 H2061 0.950 . S
C2072 C2070 1.391 . S
C2072 C2073 1.400 . S
C2073 C2067 1.491 . S
C2073 C2072 1.400 . S
C2073 C2074 1.398 . S
C2074 H2062 0.950 . S
C2074 C2073 1.398 . S
C2074 C2075 1.391 . S
C2075 H2063 0.950 . S
C2075 C2071 1.393 . S
C2075 C2074 1.391 . S
H2076 C2084 0.950 . S
H2077 C2089 0.950 . S
H2078 C2086 0.950 . S
H2079 C2088 0.950 . S
H2080 C2090 0.950 . S
H2081 C2092 0.950 . S
H2082 C2094 0.950 . S
H2083 C2095 0.950 . S
C2084 H2076 0.950 . S
C2084 C2085 1.386 . S
C2084 C2086 1.391 . S
C2085 C2084 1.386 . S
C2085 C2089 1.393 . S
C2086 H2078 0.950 . S
C2086 C2084 1.391 . S
C2086 C2087 1.400 . S
C2087 C2086 1.400 . S
C2087 C2088 1.398 . S
C2087 C2093 1.491 . S
C2088 H2079 0.950 . S
C2088 C2087 1.398 . S
C2088 C2089 1.391 . S
C2089 H2077 0.950 . S
C2089 C2085 1.393 . S
C2089 C2088 1.391 . S
C2090 H2080 0.950 . S
C2090 C2091 1.386 . S
C2090 C2092 1.391 . S
C2091 C2090 1.386 . S
C2091 C2095 1.393 . S
C2092 H2081 0.950 . S
C2092 C2090 1.391 . S
C2092 C2093 1.400 . S
C2093 C2087 1.491 . S
C2093 C2092 1.400 . S
C2093 C2094 1.398 . S
C2094 H2082 0.950 . S
C2094 C2093 1.398 . S
C2094 C2095 1.391 . S
C2095 H2083 0.950 . S
C2095 C2091 1.393 . S
C2095 C2094 1.391 . S
H2096 C2104 0.950 . S
H2097 C2109 0.950 . S
H2098 C2106 0.950 . S
H2099 C2108 0.950 . S
H2100 C2110 0.950 . S
H2101 C2112 0.950 . S
H2102 C2114 0.950 . S
H2103 C2115 0.950 . S
C2104 H2096 0.950 . S
C2104 C2105 1.386 . S
C2104 C2106 1.391 . S
C2105 C2104 1.386 . S
C2105 C2109 1.393 . S
C2106 H2098 0.950 . S
C2106 C2104 1.391 . S
C2106 C2107 1.400 . S
C2107 C2106 1.400 . S
C2107 C2108 1.398 . S
C2107 C2113 1.491 . S
C2108 H2099 0.950 . S
C2108 C2107 1.398 . S
C2108 C2109 1.391 . S
C2109 H2097 0.950 . S
C2109 C2105 1.393 . S
C2109 C2108 1.391 . S
C2110 H2100 0.950 . S
C2110 C2111 1.386 . S
C2110 C2112 1.391 . S
C2111 C2110 1.386 . S
C2111 C2115 1.393 . S
C2112 H2101 0.950 . S
C2112 C2110 1.391 . S
C2112 C2113 1.400 . S
C2113 C2107 1.491 . S
C2113 C2112 1.400 . S
C2113 C2114 1.398 . S
C2114 H2102 0.950 . S
C2114 C2113 1.398 . S
C2114 C2115 1.391 . S
C2115 H2103 0.950 . S
C2115 C2111 1.393 . S
C2115 C2114 1.391 . S
H2116 C2124 0.935 1_554 S
H2117 C2129 0.950 . S
H2118 C2126 0.950 . S
H2119 C2128 0.950 . S
H2120 C2130 0.950 . S
H2121 C2132 0.950 . S
H2122 C2134 0.950 . S
H2123 C2135 0.950 . S
C2124 H2116 0.935 1_556 S
C2124 C2125 1.372 1_556 S
C2124 C2126 1.421 . S
C2125 C2124 1.372 1_554 S
C2125 C2129 1.393 1_554 S
C2126 H2118 0.950 . S
C2126 C2124 1.421 . S
C2126 C2127 1.400 . S
C2127 C2126 1.400 . S
C2127 C2128 1.398 . S
C2127 C2133 1.491 . S
C2128 H2119 0.950 . S
C2128 C2127 1.398 . S
C2128 C2129 1.391 . S
C2129 H2117 0.950 . S
C2129 C2125 1.393 1_556 S
C2129 C2128 1.391 . S
C2130 H2120 0.950 . S
C2130 C2131 1.386 . S
C2130 C2132 1.391 . S
C2131 C2130 1.386 . S
C2131 C2135 1.393 . S
C2132 H2121 0.950 . S
C2132 C2130 1.391 . S
C2132 C2133 1.400 . S
C2133 C2127 1.491 . S
C2133 C2132 1.400 . S
C2133 C2134 1.398 . S
C2134 H2122 0.950 . S
C2134 C2133 1.398 . S
C2134 C2135 1.391 . S
C2135 H2123 0.950 . S
C2135 C2131 1.393 . S
C2135 C2134 1.391 . S
H2136 C2144 0.950 . S
H2137 C2149 0.950 . S
H2138 C2146 0.950 . S
H2139 C2148 0.950 . S
H2140 C2150 0.950 . S
H2141 C2152 0.950 . S
H2142 C2154 0.950 . S
H2143 C2155 0.950 . S
C2144 H2136 0.950 . S
C2144 C2145 1.386 . S
C2144 C2146 1.391 . S
C2145 C2144 1.386 . S
C2145 C2149 1.393 . S
C2146 H2138 0.950 . S
C2146 C2144 1.391 . S
C2146 C2147 1.400 . S
C2147 C2146 1.400 . S
C2147 C2148 1.398 . S
C2147 C2153 1.491 . S
C2148 H2139 0.950 . S
C2148 C2147 1.398 . S
C2148 C2149 1.391 . S
C2149 H2137 0.950 . S
C2149 C2145 1.393 . S
C2149 C2148 1.391 . S
C2150 H2140 0.950 . S
C2150 C2151 1.386 . S
C2150 C2152 1.391 . S
C2151 C2150 1.386 . S
C2151 C2155 1.393 . S
C2152 H2141 0.950 . S
C2152 C2150 1.391 . S
C2152 C2153 1.400 . S
C2153 C2147 1.491 . S
C2153 C2152 1.400 . S
C2153 C2154 1.398 . S
C2154 H2142 0.950 . S
C2154 C2153 1.398 . S
C2154 C2155 1.391 . S
C2155 H2143 0.950 . S
C2155 C2151 1.393 . S
C2155 C2154 1.391 . S
H2156 C2164 0.950 . S
H2157 C2169 0.950 . S
H2158 C2166 0.950 . S
H2159 C2168 0.950 . S
H2160 C2170 0.950 . S
H2161 C2172 0.950 . S
H2162 C2174 0.950 . S
H2163 C2175 0.950 . S
C2164 H2156 0.950 . S
C2164 C2165 1.386 . S
C2164 C2166 1.391 . S
C2165 C2164 1.386 . S
C2165 C2169 1.393 . S
C2166 H2158 0.950 . S
C2166 C2164 1.391 . S
C2166 C2167 1.400 . S
C2167 C2166 1.400 . S
C2167 C2168 1.398 . S
C2167 C2173 1.491 . S
C2168 H2159 0.950 . S
C2168 C2167 1.398 . S
C2168 C2169 1.391 . S
C2169 H2157 0.950 . S
C2169 C2165 1.393 . S
C2169 C2168 1.391 . S
C2170 H2160 0.950 . S
C2170 C2171 1.386 . S
C2170 C2172 1.391 . S
C2171 C2170 1.386 . S
C2171 C2175 1.393 . S
C2172 H2161 0.950 . S
C2172 C2170 1.391 . S
C2172 C2173 1.400 . S
C2173 C2167 1.491 . S
C2173 C2172 1.400 . S
C2173 C2174 1.398 . S
C2174 H2162 0.950 . S
C2174 C2173 1.398 . S
C2174 C2175 1.391 . S
C2175 H2163 0.950 . S
C2175 C2171 1.393 . S
C2175 C2174 1.391 . S
H2176 C2184 0.950 . S
H2177 C2189 0.950 . S
H2178 C2186 0.950 . S
H2179 C2188 0.950 . S
H2180 C2190 0.950 . S
H2181 C2192 0.950 . S
H2182 C2194 0.950 . S
H2183 C2195 0.950 . S
C2184 H2176 0.950 . S
C2184 C2185 1.386 . S
C2184 C2186 1.391 . S
C2185 C2184 1.386 . S
C2185 C2189 1.393 . S
C2186 H2178 0.950 . S
C2186 C2184 1.391 . S
C2186 C2187 1.400 . S
C2187 C2186 1.400 . S
C2187 C2188 1.398 . S
C2187 C2193 1.491 . S
C2188 H2179 0.950 . S
C2188 C2187 1.398 . S
C2188 C2189 1.391 . S
C2189 H2177 0.950 . S
C2189 C2185 1.393 . S
C2189 C2188 1.391 . S
C2190 H2180 0.950 . S
C2190 C2191 1.386 . S
C2190 C2192 1.391 . S
C2191 C2190 1.386 . S
C2191 C2195 1.393 . S
C2192 H2181 0.950 . S
C2192 C2190 1.391 . S
C2192 C2193 1.400 . S
C2193 C2187 1.491 . S
C2193 C2192 1.400 . S
C2193 C2194 1.398 . S
C2194 H2182 0.950 . S
C2194 C2193 1.398 . S
C2194 C2195 1.391 . S
C2195 H2183 0.950 . S
C2195 C2191 1.393 . S
C2195 C2194 1.391 . S
H2196 C2204 0.950 . S
H2197 C2209 0.950 . S
H2198 C2206 0.950 . S
H2199 C2208 0.950 . S
H2200 C2210 0.950 . S
H2201 C2212 0.950 . S
H2202 C2214 0.950 . S
H2203 C2215 0.950 . S
C2204 H2196 0.950 . S
C2204 C2205 1.386 . S
C2204 C2206 1.391 . S
C2205 C2204 1.386 . S
C2205 C2209 1.393 . S
C2206 H2198 0.950 . S
C2206 C2204 1.391 . S
C2206 C2207 1.400 . S
C2207 C2206 1.400 . S
C2207 C2208 1.398 . S
C2207 C2213 1.491 . S
C2208 H2199 0.950 . S
C2208 C2207 1.398 . S
C2208 C2209 1.391 . S
C2209 H2197 0.950 . S
C2209 C2205 1.393 . S
C2209 C2208 1.391 . S
C2210 H2200 0.950 . S
C2210 C2211 1.386 . S
C2210 C2212 1.391 . S
C2211 C2210 1.386 . S
C2211 C2215 1.393 . S
C2212 H2201 0.950 . S
C2212 C2210 1.391 . S
C2212 C2213 1.400 . S
C2213 C2207 1.491 . S
C2213 C2212 1.400 . S
C2213 C2214 1.398 . S
C2214 H2202 0.950 . S
C2214 C2213 1.398 . S
C2214 C2215 1.391 . S
C2215 H2203 0.950 . S
C2215 C2211 1.393 . S
C2215 C2214 1.391 . S
H2216 C2224 0.950 . S
H2217 C2229 0.950 . S
H2218 C2226 0.950 . S
H2219 C2228 0.950 . S
H2220 C2230 0.950 . S
H2221 C2232 0.950 . S
H2222 C2234 0.950 . S
H2223 C2235 0.950 . S
C2224 H2216 0.950 . S
C2224 C2225 1.386 . S
C2224 C2226 1.391 . S
C2225 C2224 1.386 . S
C2225 C2229 1.393 . S
C2226 H2218 0.950 . S
C2226 C2224 1.391 . S
C2226 C2227 1.400 . S
C2227 C2226 1.400 . S
C2227 C2228 1.398 . S
C2227 C2233 1.491 . S
C2228 H2219 0.950 . S
C2228 C2227 1.398 . S
C2228 C2229 1.391 . S
C2229 H2217 0.950 . S
C2229 C2225 1.393 . S
C2229 C2228 1.391 . S
C2230 H2220 0.950 . S
C2230 C2231 1.386 . S
C2230 C2232 1.391 . S
C2231 C2230 1.386 . S
C2231 C2235 1.393 . S
C2232 H2221 0.950 . S
C2232 C2230 1.391 . S
C2232 C2233 1.400 . S
C2233 C2227 1.491 . S
C2233 C2232 1.400 . S
C2233 C2234 1.398 . S
C2234 H2222 0.950 . S
C2234 C2233 1.398 . S
C2234 C2235 1.391 . S
C2235 H2223 0.950 . S
C2235 C2231 1.393 . S
C2235 C2234 1.391 . S
H2236 C2244 0.950 . S
H2237 C2249 0.950 . S
H2238 C2246 0.950 . S
H2239 C2248 0.950 . S
H2240 C2250 0.950 . S
H2241 C2252 0.950 . S
H2242 C2254 0.950 . S
H2243 C2255 0.950 . S
C2244 H2236 0.950 . S
C2244 C2245 1.386 . S
C2244 C2246 1.391 . S
C2245 C2244 1.386 . S
C2245 C2249 1.393 . S
C2246 H2238 0.950 . S
C2246 C2244 1.391 . S
C2246 C2247 1.400 . S
C2247 C2246 1.400 . S
C2247 C2248 1.398 . S
C2247 C2253 1.491 . S
C2248 H2239 0.950 . S
C2248 C2247 1.398 . S
C2248 C2249 1.391 . S
C2249 H2237 0.950 . S
C2249 C2245 1.393 . S
C2249 C2248 1.391 . S
C2250 H2240 0.950 . S
C2250 C2251 1.386 . S
C2250 C2252 1.391 . S
C2251 C2250 1.386 . S
C2251 C2255 1.393 . S
C2252 H2241 0.950 . S
C2252 C2250 1.391 . S
C2252 C2253 1.400 . S
C2253 C2247 1.491 . S
C2253 C2252 1.400 . S
C2253 C2254 1.398 . S
C2254 H2242 0.950 . S
C2254 C2253 1.398 . S
C2254 C2255 1.391 . S
C2255 H2243 0.950 . S
C2255 C2251 1.393 . S
C2255 C2254 1.391 . S
H2256 C2264 0.950 . S
H2257 C2269 0.950 . S
H2258 C2266 0.950 . S
H2259 C2268 0.950 . S
H2260 C2270 0.950 . S
H2261 C2272 0.950 . S
H2262 C2274 0.950 . S
H2263 C2275 0.950 . S
C2264 H2256 0.950 . S
C2264 C2265 1.386 . S
C2264 C2266 1.391 . S
C2265 C2264 1.386 . S
C2265 C2269 1.393 . S
C2266 H2258 0.950 . S
C2266 C2264 1.391 . S
C2266 C2267 1.400 . S
C2267 C2266 1.400 . S
C2267 C2268 1.398 . S
C2267 C2273 1.491 . S
C2268 H2259 0.950 . S
C2268 C2267 1.398 . S
C2268 C2269 1.391 . S
C2269 H2257 0.950 . S
C2269 C2265 1.393 . S
C2269 C2268 1.391 . S
C2270 H2260 0.950 . S
C2270 C2271 1.386 . S
C2270 C2272 1.391 . S
C2271 C2270 1.386 . S
C2271 C2275 1.393 . S
C2272 H2261 0.950 . S
C2272 C2270 1.391 . S
C2272 C2273 1.400 . S
C2273 C2267 1.491 . S
C2273 C2272 1.400 . S
C2273 C2274 1.398 . S
C2274 H2262 0.950 . S
C2274 C2273 1.398 . S
C2274 C2275 1.391 . S
C2275 H2263 0.950 . S
C2275 C2271 1.393 . S
C2275 C2274 1.391 . S
H2276 C2284 0.950 . S
H2277 C2289 0.950 . S
H2278 C2286 0.950 . S
H2279 C2288 0.950 . S
H2280 C2290 0.950 . S
H2281 C2292 0.950 . S
H2282 C2294 0.950 . S
H2283 C2295 0.950 . S
C2284 H2276 0.950 . S
C2284 C2285 1.386 . S
C2284 C2286 1.391 . S
C2285 C2284 1.386 . S
C2285 C2289 1.393 . S
C2286 H2278 0.950 . S
C2286 C2284 1.391 . S
C2286 C2287 1.400 . S
C2287 C2286 1.400 . S
C2287 C2288 1.398 . S
C2287 C2293 1.491 . S
C2288 H2279 0.950 . S
C2288 C2287 1.398 . S
C2288 C2289 1.391 . S
C2289 H2277 0.950 . S
C2289 C2285 1.393 . S
C2289 C2288 1.391 . S
C2290 H2280 0.950 . S
C2290 C2291 1.386 . S
C2290 C2292 1.391 . S
C2291 C2290 1.386 . S
C2291 C2295 1.393 . S
C2292 H2281 0.950 . S
C2292 C2290 1.391 . S
C2292 C2293 1.400 . S
C2293 C2287 1.491 . S
C2293 C2292 1.400 . S
C2293 C2294 1.398 . S
C2294 H2282 0.950 . S
C2294 C2293 1.398 . S
C2294 C2295 1.391 . S
C2295 H2283 0.950 . S
C2295 C2291 1.393 . S
C2295 C2294 1.391 . S
H2296 C2304 0.950 . S
H2297 C2309 0.950 1_545 S
H2298 C2306 0.950 . S
H2299 C2308 0.950 . S
H2300 C2310 0.950 . S
H2301 C2312 0.950 . S
H2302 C2314 0.950 . S
H2303 C2315 0.950 . S
C2304 H2296 0.950 . S
C2304 C2305 1.399 . S
C2304 C2306 1.391 . S
C2305 C2304 1.399 . S
C2305 C2309 1.407 . S
C2306 H2298 0.950 . S
C2306 C2304 1.391 . S
C2306 C2307 1.400 . S
C2307 C2306 1.400 . S
C2307 C2308 1.398 . S
C2307 C2313 1.491 . S
C2308 H2299 0.950 . S
C2308 C2307 1.398 . S
C2308 C2309 1.391 . S
C2309 H2297 0.950 1_565 S
C2309 C2305 1.407 . S
C2309 C2308 1.391 . S
C2310 H2300 0.950 . S
C2310 C2311 1.386 . S
C2310 C2312 1.391 . S
C2311 C2310 1.386 . S
C2311 C2315 1.393 . S
C2312 H2301 0.950 . S
C2312 C2310 1.391 . S
C2312 C2313 1.400 . S
C2313 C2307 1.491 . S
C2313 C2312 1.400 . S
C2313 C2314 1.398 . S
C2314 H2302 0.950 . S
C2314 C2313 1.398 . S
C2314 C2315 1.391 . S
C2315 H2303 0.950 . S
C2315 C2311 1.393 . S
C2315 C2314 1.391 . S
H2316 C2324 0.950 . S
H2317 C2329 0.950 . S
H2318 C2326 0.950 . S
H2319 C2328 0.950 . S
H2320 C2330 0.950 . S
H2321 C2332 0.950 . S
H2322 C2334 0.950 1_556 S
H2323 C2335 0.950 1_556 S
C2324 H2316 0.950 . S
C2324 C2325 1.383 1_556 S
C2324 C2326 1.391 . S
C2325 C2324 1.383 1_554 S
C2325 C2329 1.395 . S
C2326 H2318 0.950 . S
C2326 C2324 1.391 . S
C2326 C2327 1.400 1_556 S
C2327 C2326 1.400 1_554 S
C2327 C2328 1.398 . S
C2327 C2333 1.491 . S
C2328 H2319 0.950 . S
C2328 C2327 1.398 . S
C2328 C2329 1.391 . S
C2329 H2317 0.950 . S
C2329 C2325 1.395 . S
C2329 C2328 1.391 . S
C2330 H2320 0.950 . S
C2330 C2331 1.386 . S
C2330 C2332 1.391 . S
C2331 C2330 1.386 . S
C2331 C2335 1.393 . S
C2332 H2321 0.950 . S
C2332 C2330 1.391 . S
C2332 C2333 1.400 1_545 S
C2333 C2327 1.491 . S
C2333 C2332 1.400 1_565 S
C2333 C2334 1.399 . S
C2334 H2322 0.950 1_554 S
C2334 C2333 1.399 . S
C2334 C2335 1.391 1_565 S
C2335 H2323 0.950 1_554 S
C2335 C2331 1.393 . S
C2335 C2334 1.391 1_545 S
H2336 C2344 0.950 . S
H2337 C2349 0.950 . S
H2338 C2346 0.950 . S
H2339 C2348 0.950 . S
H2340 C2350 0.950 . S
H2341 C2352 0.950 . S
H2342 C2354 0.950 . S
H2343 C2355 0.950 . S
C2344 H2336 0.950 . S
C2344 C2345 1.386 . S
C2344 C2346 1.391 . S
C2345 C2344 1.386 . S
C2345 C2349 1.393 . S
C2346 H2338 0.950 . S
C2346 C2344 1.391 . S
C2346 C2347 1.400 . S
C2347 C2346 1.400 . S
C2347 C2348 1.398 . S
C2347 C2353 1.491 . S
C2348 H2339 0.950 . S
C2348 C2347 1.398 . S
C2348 C2349 1.391 . S
C2349 H2337 0.950 . S
C2349 C2345 1.393 . S
C2349 C2348 1.391 . S
C2350 H2340 0.950 . S
C2350 C2351 1.386 . S
C2350 C2352 1.391 . S
C2351 C2350 1.386 . S
C2351 C2355 1.393 . S
C2352 H2341 0.950 . S
C2352 C2350 1.391 . S
C2352 C2353 1.400 . S
C2353 C2347 1.491 . S
C2353 C2352 1.400 . S
C2353 C2354 1.398 . S
C2354 H2342 0.950 . S
C2354 C2353 1.398 . S
C2354 C2355 1.391 . S
C2355 H2343 0.950 . S
C2355 C2351 1.393 . S
C2355 C2354 1.391 . S
H2356 C2364 0.950 . S
H2357 C2369 0.950 . S
H2358 C2366 0.950 . S
H2359 C2368 0.950 . S
H2360 C2370 0.950 . S
H2361 C2372 0.950 . S
H2362 C2374 0.950 . S
H2363 C2375 0.950 . S
C2364 H2356 0.950 . S
C2364 C2365 1.386 . S
C2364 C2366 1.391 . S
C2365 C2364 1.386 . S
C2365 C2369 1.393 . S
C2366 H2358 0.950 . S
C2366 C2364 1.391 . S
C2366 C2367 1.400 . S
C2367 C2366 1.400 . S
C2367 C2368 1.398 . S
C2367 C2373 1.491 . S
C2368 H2359 0.950 . S
C2368 C2367 1.398 . S
C2368 C2369 1.391 . S
C2369 H2357 0.950 . S
C2369 C2365 1.393 . S
C2369 C2368 1.391 . S
C2370 H2360 0.950 . S
C2370 C2371 1.386 . S
C2370 C2372 1.391 . S
C2371 C2370 1.386 . S
C2371 C2375 1.393 . S
C2372 H2361 0.950 . S
C2372 C2370 1.391 . S
C2372 C2373 1.400 . S
C2373 C2367 1.491 . S
C2373 C2372 1.400 . S
C2373 C2374 1.398 . S
C2374 H2362 0.950 . S
C2374 C2373 1.398 . S
C2374 C2375 1.391 . S
C2375 H2363 0.950 . S
C2375 C2371 1.393 . S
C2375 C2374 1.391 . S
H2376 C2384 0.950 . S
H2377 C2389 0.950 . S
H2378 C2386 0.950 . S
H2379 C2388 0.950 . S
H2380 C2390 0.950 . S
H2381 C2392 0.950 . S
H2382 C2394 0.950 . S
H2383 C2395 0.950 . S
C2384 H2376 0.950 . S
C2384 C2385 1.386 . S
C2384 C2386 1.391 . S
C2385 C2384 1.386 . S
C2385 C2389 1.393 . S
C2386 H2378 0.950 . S
C2386 C2384 1.391 . S
C2386 C2387 1.400 . S
C2387 C2386 1.400 . S
C2387 C2388 1.398 . S
C2387 C2393 1.491 . S
C2388 H2379 0.950 . S
C2388 C2387 1.398 . S
C2388 C2389 1.391 . S
C2389 H2377 0.950 . S
C2389 C2385 1.393 . S
C2389 C2388 1.391 . S
C2390 H2380 0.950 . S
C2390 C2391 1.386 . S
C2390 C2392 1.391 . S
C2391 C2390 1.386 . S
C2391 C2395 1.393 . S
C2392 H2381 0.950 . S
C2392 C2390 1.391 . S
C2392 C2393 1.400 . S
C2393 C2387 1.491 . S
C2393 C2392 1.400 . S
C2393 C2394 1.398 . S
C2394 H2382 0.950 . S
C2394 C2393 1.398 . S
C2394 C2395 1.391 . S
C2395 H2383 0.950 . S
C2395 C2391 1.393 . S
C2395 C2394 1.391 . S
H2396 C2404 0.950 . S
H2397 C2409 0.950 . S
H2398 C2406 0.950 . S
H2399 C2408 0.950 . S
H2400 C2410 0.950 . S
H2401 C2412 0.950 . S
H2402 C2414 0.950 . S
H2403 C2415 0.950 . S
C2404 H2396 0.950 . S
C2404 C2405 1.386 . S
C2404 C2406 1.391 . S
C2405 C2404 1.386 . S
C2405 C2409 1.393 . S
C2406 H2398 0.950 . S
C2406 C2404 1.391 . S
C2406 C2407 1.400 . S
C2407 C2406 1.400 . S
C2407 C2408 1.398 . S
C2407 C2413 1.491 . S
C2408 H2399 0.950 . S
C2408 C2407 1.398 . S
C2408 C2409 1.391 . S
C2409 H2397 0.950 . S
C2409 C2405 1.393 . S
C2409 C2408 1.391 . S
C2410 H2400 0.950 . S
C2410 C2411 1.386 . S
C2410 C2412 1.391 . S
C2411 C2410 1.386 . S
C2411 C2415 1.393 . S
C2412 H2401 0.950 . S
C2412 C2410 1.391 . S
C2412 C2413 1.400 . S
C2413 C2407 1.491 . S
C2413 C2412 1.400 . S
C2413 C2414 1.398 . S
C2414 H2402 0.950 . S
C2414 C2413 1.398 . S
C2414 C2415 1.391 . S
C2415 H2403 0.950 . S
C2415 C2411 1.393 . S
C2415 C2414 1.391 . S
H2416 C2424 0.950 . S
H2417 C2429 0.950 . S
H2418 C2426 0.950 . S
H2419 C2428 0.950 . S
H2420 C2430 0.950 . S
H2421 C2432 0.950 . S
H2422 C2434 0.950 . S
H2423 C2435 0.950 . S
C2424 H2416 0.950 . S
C2424 C2425 1.386 . S
C2424 C2426 1.391 . S
C2425 C2424 1.386 . S
C2425 C2429 1.393 . S
C2426 H2418 0.950 . S
C2426 C2424 1.391 . S
C2426 C2427 1.400 . S
C2427 C2426 1.400 . S
C2427 C2428 1.398 . S
C2427 C2433 1.491 . S
C2428 H2419 0.950 . S
C2428 C2427 1.398 . S
C2428 C2429 1.391 . S
C2429 H2417 0.950 . S
C2429 C2425 1.393 . S
C2429 C2428 1.391 . S
C2430 H2420 0.950 . S
C2430 C2431 1.386 . S
C2430 C2432 1.391 . S
C2431 C2430 1.386 . S
C2431 C2435 1.393 . S
C2432 H2421 0.950 . S
C2432 C2430 1.391 . S
C2432 C2433 1.400 . S
C2433 C2427 1.491 . S
C2433 C2432 1.400 . S
C2433 C2434 1.398 . S
C2434 H2422 0.950 . S
C2434 C2433 1.398 . S
C2434 C2435 1.391 . S
C2435 H2423 0.950 . S
C2435 C2431 1.393 . S
C2435 C2434 1.391 . S
H2436 C2444 0.950 . S
H2437 C2449 0.950 . S
H2438 C2446 0.950 . S
H2439 C2448 0.950 . S
H2440 C2450 0.950 . S
H2441 C2452 0.950 . S
H2442 C2454 0.950 . S
H2443 C2455 0.950 . S
C2444 H2436 0.950 . S
C2444 C2445 1.386 . S
C2444 C2446 1.391 . S
C2445 C2444 1.386 . S
C2445 C2449 1.393 . S
C2446 H2438 0.950 . S
C2446 C2444 1.391 . S
C2446 C2447 1.400 . S
C2447 C2446 1.400 . S
C2447 C2448 1.398 . S
C2447 C2453 1.491 . S
C2448 H2439 0.950 . S
C2448 C2447 1.398 . S
C2448 C2449 1.391 . S
C2449 H2437 0.950 . S
C2449 C2445 1.393 . S
C2449 C2448 1.391 . S
C2450 H2440 0.950 . S
C2450 C2451 1.386 . S
C2450 C2452 1.391 . S
C2451 C2450 1.386 . S
C2451 C2455 1.393 . S
C2452 H2441 0.950 . S
C2452 C2450 1.391 . S
C2452 C2453 1.400 . S
C2453 C2447 1.491 . S
C2453 C2452 1.400 . S
C2453 C2454 1.398 . S
C2454 H2442 0.950 . S
C2454 C2453 1.398 . S
C2454 C2455 1.391 . S
C2455 H2443 0.950 . S
C2455 C2451 1.393 . S
C2455 C2454 1.391 . S
H2456 C2464 0.950 . S
H2457 C2469 0.950 . S
H2458 C2466 0.950 . S
H2459 C2468 0.950 . S
H2460 C2470 0.950 . S
H2461 C2472 0.950 . S
H2462 C2474 0.950 . S
H2463 C2475 0.950 . S
C2464 H2456 0.950 . S
C2464 C2465 1.386 . S
C2464 C2466 1.391 . S
C2465 C2464 1.386 . S
C2465 C2469 1.393 . S
C2466 H2458 0.950 . S
C2466 C2464 1.391 . S
C2466 C2467 1.400 . S
C2467 C2466 1.400 . S
C2467 C2468 1.398 . S
C2467 C2473 1.491 . S
C2468 H2459 0.950 . S
C2468 C2467 1.398 . S
C2468 C2469 1.391 . S
C2469 H2457 0.950 . S
C2469 C2465 1.393 . S
C2469 C2468 1.391 . S
C2470 H2460 0.950 . S
C2470 C2471 1.386 . S
C2470 C2472 1.391 . S
C2471 C2470 1.386 . S
C2471 C2475 1.393 . S
C2472 H2461 0.950 . S
C2472 C2470 1.391 . S
C2472 C2473 1.400 . S
C2473 C2467 1.491 . S
C2473 C2472 1.400 . S
C2473 C2474 1.398 . S
C2474 H2462 0.950 . S
C2474 C2473 1.398 . S
C2474 C2475 1.391 . S
C2475 H2463 0.950 . S
C2475 C2471 1.393 . S
C2475 C2474 1.391 . S
H2476 C2484 0.950 . S
H2477 C2489 0.950 . S
H2478 C2486 0.950 . S
H2479 C2488 0.950 . S
H2480 C2490 0.950 . S
H2481 C2492 0.950 . S
H2482 C2494 0.950 . S
H2483 C2495 0.950 . S
C2484 H2476 0.950 . S
C2484 C2485 1.386 . S
C2484 C2486 1.391 . S
C2485 C2484 1.386 . S
C2485 C2489 1.393 . S
C2486 H2478 0.950 . S
C2486 C2484 1.391 . S
C2486 C2487 1.400 . S
C2487 C2486 1.400 . S
C2487 C2488 1.398 . S
C2487 C2493 1.491 . S
C2488 H2479 0.950 . S
C2488 C2487 1.398 . S
C2488 C2489 1.391 . S
C2489 H2477 0.950 . S
C2489 C2485 1.393 . S
C2489 C2488 1.391 . S
C2490 H2480 0.950 . S
C2490 C2491 1.386 . S
C2490 C2492 1.391 . S
C2491 C2490 1.386 . S
C2491 C2495 1.393 . S
C2492 H2481 0.950 . S
C2492 C2490 1.391 . S
C2492 C2493 1.400 . S
C2493 C2487 1.491 . S
C2493 C2492 1.400 . S
C2493 C2494 1.398 . S
C2494 H2482 0.950 . S
C2494 C2493 1.398 . S
C2494 C2495 1.391 . S
C2495 H2483 0.950 . S
C2495 C2491 1.393 . S
C2495 C2494 1.391 . S
H2496 C2504 0.950 . S
H2497 C2509 0.950 . S
H2498 C2506 0.950 . S
H2499 C2508 0.950 . S
H2500 C2510 0.950 . S
H2501 C2512 0.950 . S
H2502 C2514 0.950 . S
H2503 C2515 0.950 1_554 S
C2504 H2496 0.950 . S
C2504 C2505 1.386 . S
C2504 C2506 1.391 . S
C2505 C2504 1.386 . S
C2505 C2509 1.393 . S
C2506 H2498 0.950 . S
C2506 C2504 1.391 . S
C2506 C2507 1.400 . S
C2507 C2506 1.400 . S
C2507 C2508 1.398 . S
C2507 C2513 1.491 . S
C2508 H2499 0.950 . S
C2508 C2507 1.398 . S
C2508 C2509 1.391 . S
C2509 H2497 0.950 . S
C2509 C2505 1.393 . S
C2509 C2508 1.391 . S
C2510 H2500 0.950 . S
C2510 C2511 1.386 . S
C2510 C2512 1.391 . S
C2511 C2510 1.386 . S
C2511 C2515 1.393 . S
C2512 H2501 0.950 . S
C2512 C2510 1.391 . S
C2512 C2513 1.400 . S
C2513 C2507 1.491 . S
C2513 C2512 1.400 . S
C2513 C2514 1.398 . S
C2514 H2502 0.950 . S
C2514 C2513 1.398 . S
C2514 C2515 1.391 . S
C2515 H2503 0.950 1_556 S
C2515 C2511 1.393 . S
C2515 C2514 1.391 . S
H2516 C2524 0.950 . S
H2517 C2529 0.950 . S
H2518 C2526 0.950 . S
H2519 C2528 0.950 . S
H2520 C2530 0.950 . S
H2521 C2532 0.950 . S
H2522 C2534 0.950 . S
H2523 C2535 0.950 . S
C2524 H2516 0.950 . S
C2524 C2525 1.386 . S
C2524 C2526 1.391 . S
C2525 C2524 1.386 . S
C2525 C2529 1.393 . S
C2526 H2518 0.950 . S
C2526 C2524 1.391 . S
C2526 C2527 1.400 . S
C2527 C2526 1.400 . S
C2527 C2528 1.398 . S
C2527 C2533 1.491 . S
C2528 H2519 0.950 . S
C2528 C2527 1.398 . S
C2528 C2529 1.391 . S
C2529 H2517 0.950 . S
C2529 C2525 1.393 . S
C2529 C2528 1.391 . S
C2530 H2520 0.950 . S
C2530 C2531 1.386 . S
C2530 C2532 1.391 . S
C2531 C2530 1.386 . S
C2531 C2535 1.393 . S
C2532 H2521 0.950 . S
C2532 C2530 1.391 . S
C2532 C2533 1.400 . S
C2533 C2527 1.491 . S
C2533 C2532 1.400 . S
C2533 C2534 1.398 . S
C2534 H2522 0.950 . S
C2534 C2533 1.398 . S
C2534 C2535 1.391 . S
C2535 H2523 0.950 . S
C2535 C2531 1.393 . S
C2535 C2534 1.391 . S
H2536 C2544 0.950 . S
H2537 C2549 0.950 . S
H2538 C2546 0.950 . S
H2539 C2548 0.950 . S
H2540 C2550 0.950 . S
H2541 C2552 0.950 . S
H2542 C2554 0.950 . S
H2543 C2555 0.950 . S
C2544 H2536 0.950 . S
C2544 C2545 1.386 . S
C2544 C2546 1.391 . S
C2545 C2544 1.386 . S
C2545 C2549 1.393 . S
C2546 H2538 0.950 . S
C2546 C2544 1.391 . S
C2546 C2547 1.400 . S
C2547 C2546 1.400 . S
C2547 C2548 1.398 . S
C2547 C2553 1.491 . S
C2548 H2539 0.950 . S
C2548 C2547 1.398 . S
C2548 C2549 1.391 . S
C2549 H2537 0.950 . S
C2549 C2545 1.393 . S
C2549 C2548 1.391 . S
C2550 H2540 0.950 . S
C2550 C2551 1.386 . S
C2550 C2552 1.391 . S
C2551 C2550 1.386 . S
C2551 C2555 1.393 . S
C2552 H2541 0.950 . S
C2552 C2550 1.391 . S
C2552 C2553 1.400 . S
C2553 C2547 1.491 . S
C2553 C2552 1.400 . S
C2553 C2554 1.398 . S
C2554 H2542 0.950 . S
C2554 C2553 1.398 . S
C2554 C2555 1.391 . S
C2555 H2543 0.950 . S
C2555 C2551 1.393 . S
C2555 C2554 1.391 . S
H2556 C2564 0.950 . S
H2557 C2569 0.950 . S
H2558 C2566 0.950 . S
H2559 C2568 0.950 . S
H2560 C2570 0.950 . S
H2561 C2572 0.950 . S
H2562 C2574 0.950 . S
H2563 C2575 0.950 . S
C2564 H2556 0.950 . S
C2564 C2565 1.386 . S
C2564 C2566 1.391 . S
C2565 C2564 1.386 . S
C2565 C2569 1.393 . S
C2566 H2558 0.950 . S
C2566 C2564 1.391 . S
C2566 C2567 1.400 . S
C2567 C2566 1.400 . S
C2567 C2568 1.398 . S
C2567 C2573 1.491 . S
C2568 H2559 0.950 . S
C2568 C2567 1.398 . S
C2568 C2569 1.391 . S
C2569 H2557 0.950 . S
C2569 C2565 1.393 . S
C2569 C2568 1.391 . S
C2570 H2560 0.950 . S
C2570 C2571 1.386 . S
C2570 C2572 1.391 . S
C2571 C2570 1.386 . S
C2571 C2575 1.393 . S
C2572 H2561 0.950 . S
C2572 C2570 1.391 . S
C2572 C2573 1.400 . S
C2573 C2567 1.491 . S
C2573 C2572 1.400 . S
C2573 C2574 1.398 . S
C2574 H2562 0.950 . S
C2574 C2573 1.398 . S
C2574 C2575 1.391 . S
C2575 H2563 0.950 . S
C2575 C2571 1.393 . S
C2575 C2574 1.391 . S
H2576 C2584 0.950 . S
H2577 C2589 0.950 . S
H2578 C2586 0.950 . S
H2579 C2588 0.950 . S
H2580 C2590 0.950 . S
H2581 C2592 0.950 . S
H2582 C2594 0.950 . S
H2583 C2595 0.950 . S
C2584 H2576 0.950 . S
C2584 C2585 1.386 . S
C2584 C2586 1.391 . S
C2585 C2584 1.386 . S
C2585 C2589 1.393 . S
C2586 H2578 0.950 . S
C2586 C2584 1.391 . S
C2586 C2587 1.400 . S
C2587 C2586 1.400 . S
C2587 C2588 1.398 . S
C2587 C2593 1.491 . S
C2588 H2579 0.950 . S
C2588 C2587 1.398 . S
C2588 C2589 1.391 . S
C2589 H2577 0.950 . S
C2589 C2585 1.393 . S
C2589 C2588 1.391 . S
C2590 H2580 0.950 . S
C2590 C2591 1.386 . S
C2590 C2592 1.391 . S
C2591 C2590 1.386 . S
C2591 C2595 1.393 . S
C2592 H2581 0.950 . S
C2592 C2590 1.391 . S
C2592 C2593 1.400 . S
C2593 C2587 1.491 . S
C2593 C2592 1.400 . S
C2593 C2594 1.398 . S
C2594 H2582 0.950 . S
C2594 C2593 1.398 . S
C2594 C2595 1.391 . S
C2595 H2583 0.950 . S
C2595 C2591 1.393 . S
C2595 C2594 1.391 . S
H2596 C2604 0.950 . S
H2597 C2609 0.950 . S
H2598 C2606 0.950 . S
H2599 C2608 0.950 . S
H2600 C2610 0.950 . S
H2601 C2612 0.950 . S
H2602 C2614 0.950 . S
H2603 C2615 0.950 . S
C2604 H2596 0.950 . S
C2604 C2605 1.386 . S
C2604 C2606 1.391 . S
C2605 C2604 1.386 . S
C2605 C2609 1.393 . S
C2606 H2598 0.950 . S
C2606 C2604 1.391 . S
C2606 C2607 1.400 . S
C2607 C2606 1.400 . S
C2607 C2608 1.398 . S
C2607 C2613 1.491 . S
C2608 H2599 0.950 . S
C2608 C2607 1.398 . S
C2608 C2609 1.391 . S
C2609 H2597 0.950 . S
C2609 C2605 1.393 . S
C2609 C2608 1.391 . S
C2610 H2600 0.950 . S
C2610 C2611 1.386 . S
C2610 C2612 1.391 . S
C2611 C2610 1.386 . S
C2611 C2615 1.393 . S
C2612 H2601 0.950 . S
C2612 C2610 1.391 . S
C2612 C2613 1.400 . S
C2613 C2607 1.491 . S
C2613 C2612 1.400 . S
C2613 C2614 1.398 . S
C2614 H2602 0.950 . S
C2614 C2613 1.398 . S
C2614 C2615 1.391 . S
C2615 H2603 0.950 . S
C2615 C2611 1.393 . S
C2615 C2614 1.391 . S
H2616 C2624 0.950 . S
H2617 C2629 0.950 . S
H2618 C2626 0.950 . S
H2619 C2628 0.950 1_455 S
H2620 C2630 0.950 . S
H2621 C2632 0.950 . S
H2622 C2634 0.950 . S
H2623 C2635 0.950 1_655 S
C2624 H2616 0.950 . S
C2624 C2625 1.386 . S
C2624 C2626 1.391 . S
C2625 C2624 1.386 . S
C2625 C2629 1.393 . S
C2626 H2618 0.950 . S
C2626 C2624 1.391 . S
C2626 C2627 1.400 . S
C2627 C2626 1.400 . S
C2627 C2628 1.398 . S
C2627 C2633 1.473 1_655 S
C2628 H2619 0.950 1_655 S
C2628 C2627 1.398 . S
C2628 C2629 1.391 . S
C2629 H2617 0.950 . S
C2629 C2625 1.393 . S
C2629 C2628 1.391 . S
C2630 H2620 0.950 . S
C2630 C2631 1.386 . S
C2630 C2632 1.391 . S
C2631 C2630 1.386 . S
C2631 C2635 1.393 . S
C2632 H2621 0.950 . S
C2632 C2630 1.391 . S
C2632 C2633 1.433 . S
C2633 C2627 1.473 1_455 S
C2633 C2632 1.433 . S
C2633 C2634 1.385 1_455 S
C2634 H2622 0.950 . S
C2634 C2633 1.385 1_655 S
C2634 C2635 1.391 1_655 S
C2635 H2623 0.950 1_455 S
C2635 C2631 1.393 . S
C2635 C2634 1.391 1_455 S
H2636 C2644 0.950 . S
H2637 C2649 0.950 . S
H2638 C2646 0.950 . S
H2639 C2648 0.950 . S
H2640 C2650 0.950 . S
H2641 C2652 0.950 . S
H2642 C2654 0.950 . S
H2643 C2655 0.950 . S
C2644 H2636 0.950 . S
C2644 C2645 1.386 . S
C2644 C2646 1.391 . S
C2645 C2644 1.386 . S
C2645 C2649 1.393 . S
C2646 H2638 0.950 . S
C2646 C2644 1.391 . S
C2646 C2647 1.400 . S
C2647 C2646 1.400 . S
C2647 C2648 1.398 . S
C2647 C2653 1.491 . S
C2648 H2639 0.950 . S
C2648 C2647 1.398 . S
C2648 C2649 1.391 . S
C2649 H2637 0.950 . S
C2649 C2645 1.393 . S
C2649 C2648 1.391 . S
C2650 H2640 0.950 . S
C2650 C2651 1.386 . S
C2650 C2652 1.391 . S
C2651 C2650 1.386 . S
C2651 C2655 1.393 . S
C2652 H2641 0.950 . S
C2652 C2650 1.391 . S
C2652 C2653 1.400 . S
C2653 C2647 1.491 . S
C2653 C2652 1.400 . S
C2653 C2654 1.398 . S
C2654 H2642 0.950 . S
C2654 C2653 1.398 . S
C2654 C2655 1.391 . S
C2655 H2643 0.950 . S
C2655 C2651 1.393 . S
C2655 C2654 1.391 . S
H2656 C2664 0.950 . S
H2657 C2669 0.950 . S
H2658 C2666 0.950 . S
H2659 C2668 0.950 . S
H2660 C2670 0.950 . S
H2661 C2672 0.950 . S
H2662 C2674 0.950 . S
H2663 C2675 0.950 . S
C2664 H2656 0.950 . S
C2664 C2665 1.386 . S
C2664 C2666 1.391 . S
C2665 C2664 1.386 . S
C2665 C2669 1.393 . S
C2666 H2658 0.950 . S
C2666 C2664 1.391 . S
C2666 C2667 1.400 . S
C2667 C2666 1.400 . S
C2667 C2668 1.398 . S
C2667 C2673 1.491 . S
C2668 H2659 0.950 . S
C2668 C2667 1.398 . S
C2668 C2669 1.391 . S
C2669 H2657 0.950 . S
C2669 C2665 1.393 . S
C2669 C2668 1.391 . S
C2670 H2660 0.950 . S
C2670 C2671 1.386 . S
C2670 C2672 1.391 . S
C2671 C2670 1.386 . S
C2671 C2675 1.393 . S
C2672 H2661 0.950 . S
C2672 C2670 1.391 . S
C2672 C2673 1.400 . S
C2673 C2667 1.491 . S
C2673 C2672 1.400 . S
C2673 C2674 1.398 . S
C2674 H2662 0.950 . S
C2674 C2673 1.398 . S
C2674 C2675 1.391 . S
C2675 H2663 0.950 . S
C2675 C2671 1.393 . S
C2675 C2674 1.391 . S
H2676 C2684 0.950 . S
H2677 C2689 0.950 . S
H2678 C2686 0.950 . S
H2679 C2688 0.950 . S
H2680 C2690 0.950 . S
H2681 C2692 0.950 . S
H2682 C2694 0.950 . S
H2683 C2695 0.950 . S
C2684 H2676 0.950 . S
C2684 C2685 1.386 . S
C2684 C2686 1.391 . S
C2685 C2684 1.386 . S
C2685 C2689 1.393 . S
C2686 H2678 0.950 . S
C2686 C2684 1.391 . S
C2686 C2687 1.400 . S
C2687 C2686 1.400 . S
C2687 C2688 1.398 . S
C2687 C2693 1.491 . S
C2688 H2679 0.950 . S
C2688 C2687 1.398 . S
C2688 C2689 1.391 . S
C2689 H2677 0.950 . S
C2689 C2685 1.393 . S
C2689 C2688 1.391 . S
C2690 H2680 0.950 . S
C2690 C2691 1.386 . S
C2690 C2692 1.391 . S
C2691 C2690 1.386 . S
C2691 C2695 1.393 . S
C2692 H2681 0.950 . S
C2692 C2690 1.391 . S
C2692 C2693 1.400 . S
C2693 C2687 1.491 . S
C2693 C2692 1.400 . S
C2693 C2694 1.398 . S
C2694 H2682 0.950 . S
C2694 C2693 1.398 . S
C2694 C2695 1.391 . S
C2695 H2683 0.950 . S
C2695 C2691 1.393 . S
C2695 C2694 1.391 . S
H2696 C2704 0.950 . S
H2697 C2709 0.950 . S
H2698 C2706 0.950 . S
H2699 C2708 0.950 . S
H2700 C2710 0.950 . S
H2701 C2712 0.950 . S
H2702 C2714 0.950 . S
H2703 C2715 0.950 . S
C2704 H2696 0.950 . S
C2704 C2705 1.386 . S
C2704 C2706 1.391 . S
C2705 C2704 1.386 . S
C2705 C2709 1.393 . S
C2706 H2698 0.950 . S
C2706 C2704 1.391 . S
C2706 C2707 1.400 . S
C2707 C2706 1.400 . S
C2707 C2708 1.398 . S
C2707 C2713 1.491 . S
C2708 H2699 0.950 . S
C2708 C2707 1.398 . S
C2708 C2709 1.391 . S
C2709 H2697 0.950 . S
C2709 C2705 1.393 . S
C2709 C2708 1.391 . S
C2710 H2700 0.950 . S
C2710 C2711 1.386 1_655 S
C2710 C2712 1.391 . S
C2711 C2710 1.386 1_455 S
C2711 C2715 1.393 . S
C2712 H2701 0.950 . S
C2712 C2710 1.391 . S
C2712 C2713 1.400 . S
C2713 C2707 1.491 . S
C2713 C2712 1.400 . S
C2713 C2714 1.398 1_655 S
C2714 H2702 0.950 . S
C2714 C2713 1.398 1_455 S
C2714 C2715 1.391 . S
C2715 H2703 0.950 . S
C2715 C2711 1.393 . S
C2715 C2714 1.391 . S
H2716 C2724 0.950 . S
H2717 C2729 0.950 . S
H2718 C2726 0.950 . S
H2719 C2728 0.950 . S
H2720 C2730 0.950 . S
H2721 C2732 0.950 . S
H2722 C2734 0.950 . S
H2723 C2735 0.950 . S
C2724 H2716 0.950 . S
C2724 C2725 1.386 . S
C2724 C2726 1.391 . S
C2725 C2724 1.386 . S
C2725 C2729 1.393 . S
C2726 H2718 0.950 . S
C2726 C2724 1.391 . S
C2726 C2727 1.400 . S
C2727 C2726 1.400 . S
C2727 C2728 1.398 . S
C2727 C2733 1.491 . S
C2728 H2719 0.950 . S
C2728 C2727 1.398 . S
C2728 C2729 1.391 . S
C2729 H2717 0.950 . S
C2729 C2725 1.393 . S
C2729 C2728 1.391 . S
C2730 H2720 0.950 . S
C2730 C2731 1.386 . S
C2730 C2732 1.391 . S
C2731 C2730 1.386 . S
C2731 C2735 1.393 . S
C2732 H2721 0.950 . S
C2732 C2730 1.391 . S
C2732 C2733 1.400 . S
C2733 C2727 1.491 . S
C2733 C2732 1.400 . S
C2733 C2734 1.398 . S
C2734 H2722 0.950 . S
C2734 C2733 1.398 . S
C2734 C2735 1.391 . S
C2735 H2723 0.950 . S
C2735 C2731 1.393 . S
C2735 C2734 1.391 . S
H2736 C2744 0.950 . S
H2737 C2749 0.950 . S
H2738 C2746 0.950 . S
H2739 C2748 0.950 . S
H2740 C2750 0.950 . S
H2741 C2752 0.950 . S
H2742 C2754 0.950 . S
H2743 C2755 0.950 . S
C2744 H2736 0.950 . S
C2744 C2745 1.386 . S
C2744 C2746 1.391 . S
C2745 C2744 1.386 . S
C2745 C2749 1.393 . S
C2746 H2738 0.950 . S
C2746 C2744 1.391 . S
C2746 C2747 1.400 . S
C2747 C2746 1.400 . S
C2747 C2748 1.398 . S
C2747 C2753 1.491 . S
C2748 H2739 0.950 . S
C2748 C2747 1.398 . S
C2748 C2749 1.391 . S
C2749 H2737 0.950 . S
C2749 C2745 1.393 . S
C2749 C2748 1.391 . S
C2750 H2740 0.950 . S
C2750 C2751 1.386 . S
C2750 C2752 1.391 . S
C2751 C2750 1.386 . S
C2751 C2755 1.393 . S
C2752 H2741 0.950 . S
C2752 C2750 1.391 . S
C2752 C2753 1.400 . S
C2753 C2747 1.491 . S
C2753 C2752 1.400 . S
C2753 C2754 1.398 . S
C2754 H2742 0.950 . S
C2754 C2753 1.398 . S
C2754 C2755 1.391 . S
C2755 H2743 0.950 . S
C2755 C2751 1.393 . S
C2755 C2754 1.391 . S
H2756 C2764 0.950 . S
H2757 C2769 0.950 . S
H2758 C2766 0.950 . S
H2759 C2768 0.950 . S
H2760 C2770 0.950 . S
H2761 C2772 0.950 . S
H2762 C2774 0.950 . S
H2763 C2775 0.950 . S
C2764 H2756 0.950 . S
C2764 C2765 1.386 . S
C2764 C2766 1.391 . S
C2765 C2764 1.386 . S
C2765 C2769 1.393 . S
C2766 H2758 0.950 . S
C2766 C2764 1.391 . S
C2766 C2767 1.400 . S
C2767 C2766 1.400 . S
C2767 C2768 1.398 . S
C2767 C2773 1.491 . S
C2768 H2759 0.950 . S
C2768 C2767 1.398 . S
C2768 C2769 1.391 . S
C2769 H2757 0.950 . S
C2769 C2765 1.393 . S
C2769 C2768 1.391 . S
C2770 H2760 0.950 . S
C2770 C2771 1.386 1_545 S
C2770 C2772 1.391 1_545 S
C2771 C2770 1.386 1_565 S
C2771 C2775 1.393 . S
C2772 H2761 0.950 . S
C2772 C2770 1.391 1_565 S
C2772 C2773 1.400 . S
C2773 C2767 1.491 . S
C2773 C2772 1.400 . S
C2773 C2774 1.398 . S
C2774 H2762 0.950 . S
C2774 C2773 1.398 . S
C2774 C2775 1.391 . S
C2775 H2763 0.950 . S
C2775 C2771 1.393 . S
C2775 C2774 1.391 . S
H2776 C2784 0.950 . S
H2777 C2789 0.950 . S
H2778 C2786 0.950 . S
H2779 C2788 0.950 . S
H2780 C2790 0.950 . S
H2781 C2792 0.950 . S
H2782 C2794 0.950 . S
H2783 C2795 0.950 . S
C2784 H2776 0.950 . S
C2784 C2785 1.386 . S
C2784 C2786 1.391 . S
C2785 C2784 1.386 . S
C2785 C2789 1.393 . S
C2786 H2778 0.950 . S
C2786 C2784 1.391 . S
C2786 C2787 1.400 . S
C2787 C2786 1.400 . S
C2787 C2788 1.398 . S
C2787 C2793 1.491 . S
C2788 H2779 0.950 . S
C2788 C2787 1.398 . S
C2788 C2789 1.391 . S
C2789 H2777 0.950 . S
C2789 C2785 1.393 . S
C2789 C2788 1.391 . S
C2790 H2780 0.950 . S
C2790 C2791 1.386 . S
C2790 C2792 1.391 . S
C2791 C2790 1.386 . S
C2791 C2795 1.393 . S
C2792 H2781 0.950 . S
C2792 C2790 1.391 . S
C2792 C2793 1.400 . S
C2793 C2787 1.491 . S
C2793 C2792 1.400 . S
C2793 C2794 1.398 . S
C2794 H2782 0.950 . S
C2794 C2793 1.398 . S
C2794 C2795 1.391 . S
C2795 H2783 0.950 . S
C2795 C2791 1.393 . S
C2795 C2794 1.391 . S
H2796 C2804 0.950 . S
H2797 C2809 0.950 . S
H2798 C2806 0.950 . S
H2799 C2808 0.950 . S
H2800 C2810 0.950 . S
H2801 C2812 0.950 . S
H2802 C2814 0.950 . S
H2803 C2815 0.950 . S
C2804 H2796 0.950 . S
C2804 C2805 1.386 . S
C2804 C2806 1.391 . S
C2805 C2804 1.386 . S
C2805 C2809 1.393 . S
C2806 H2798 0.950 . S
C2806 C2804 1.391 . S
C2806 C2807 1.400 . S
C2807 C2806 1.400 . S
C2807 C2808 1.398 . S
C2807 C2813 1.491 . S
C2808 H2799 0.950 . S
C2808 C2807 1.398 . S
C2808 C2809 1.391 . S
C2809 H2797 0.950 . S
C2809 C2805 1.393 . S
C2809 C2808 1.391 . S
C2810 H2800 0.950 . S
C2810 C2811 1.386 . S
C2810 C2812 1.391 . S
C2811 C2810 1.386 . S
C2811 C2815 1.393 . S
C2812 H2801 0.950 . S
C2812 C2810 1.391 . S
C2812 C2813 1.400 . S
C2813 C2807 1.491 . S
C2813 C2812 1.400 . S
C2813 C2814 1.398 . S
C2814 H2802 0.950 . S
C2814 C2813 1.398 . S
C2814 C2815 1.391 . S
C2815 H2803 0.950 . S
C2815 C2811 1.393 . S
C2815 C2814 1.391 . S
H2816 C2824 0.950 . S
H2817 C2829 0.950 . S
H2818 C2826 0.950 . S
H2819 C2828 0.950 . S
H2820 C2830 0.950 . S
H2821 C2832 0.950 . S
H2822 C2834 0.950 . S
H2823 C2835 0.950 . S
C2824 H2816 0.950 . S
C2824 C2825 1.386 . S
C2824 C2826 1.391 . S
C2825 C2824 1.386 . S
C2825 C2829 1.393 . S
C2826 H2818 0.950 . S
C2826 C2824 1.391 . S
C2826 C2827 1.400 . S
C2827 C2826 1.400 . S
C2827 C2828 1.398 . S
C2827 C2833 1.491 . S
C2828 H2819 0.950 . S
C2828 C2827 1.398 . S
C2828 C2829 1.391 . S
C2829 H2817 0.950 . S
C2829 C2825 1.393 . S
C2829 C2828 1.391 . S
C2830 H2820 0.950 . S
C2830 C2831 1.386 . S
C2830 C2832 1.391 . S
C2831 C2830 1.386 . S
C2831 C2835 1.393 . S
C2832 H2821 0.950 . S
C2832 C2830 1.391 . S
C2832 C2833 1.400 . S
C2833 C2827 1.491 . S
C2833 C2832 1.400 . S
C2833 C2834 1.398 . S
C2834 H2822 0.950 . S
C2834 C2833 1.398 . S
C2834 C2835 1.391 . S
C2835 H2823 0.950 . S
C2835 C2831 1.393 . S
C2835 C2834 1.391 . S
H2836 C2844 0.950 . S
H2837 C2849 0.950 . S
H2838 C2846 0.950 . S
H2839 C2848 0.950 . S
H2840 C2850 0.969 . S
H2841 C2852 0.950 1_556 S
H2842 C2854 0.950 . S
H2843 C2855 0.950 . S
C2844 H2836 0.950 . S
C2844 C2845 1.386 . S
C2844 C2846 1.391 . S
C2845 C2844 1.386 . S
C2845 C2849 1.393 . S
C2846 H2838 0.950 . S
C2846 C2844 1.391 . S
C2846 C2847 1.400 . S
C2847 C2846 1.400 . S
C2847 C2848 1.398 . S
C2847 C2853 1.491 . S
C2848 H2839 0.950 . S
C2848 C2847 1.398 . S
C2848 C2849 1.391 . S
C2849 H2837 0.950 . S
C2849 C2845 1.393 . S
C2849 C2848 1.391 . S
C2850 H2840 0.969 . S
C2850 C2851 1.373 1_556 S
C2850 C2852 1.385 1_556 S
C2851 C2850 1.373 1_554 S
C2851 C2855 1.393 . S
C2852 H2841 0.950 1_554 S
C2852 C2850 1.385 1_554 S
C2852 C2853 1.400 . S
C2853 C2847 1.491 . S
C2853 C2852 1.400 . S
C2853 C2854 1.398 . S
C2854 H2842 0.950 . S
C2854 C2853 1.398 . S
C2854 C2855 1.391 . S
C2855 H2843 0.950 . S
C2855 C2851 1.393 . S
C2855 C2854 1.391 . S
H2856 C2864 0.950 . S
H2857 C2869 0.950 . S
H2858 C2866 0.950 . S
H2859 C2868 0.950 . S
H2860 C2870 0.950 . S
H2861 C2872 0.950 . S
H2862 C2874 0.950 . S
H2863 C2875 0.950 . S
C2864 H2856 0.950 . S
C2864 C2865 1.386 . S
C2864 C2866 1.391 . S
C2865 C2864 1.386 . S
C2865 C2869 1.393 . S
C2866 H2858 0.950 . S
C2866 C2864 1.391 . S
C2866 C2867 1.400 . S
C2867 C2866 1.400 . S
C2867 C2868 1.398 . S
C2867 C2873 1.491 . S
C2868 H2859 0.950 . S
C2868 C2867 1.398 . S
C2868 C2869 1.391 . S
C2869 H2857 0.950 . S
C2869 C2865 1.393 . S
C2869 C2868 1.391 . S
C2870 H2860 0.950 . S
C2870 C2871 1.386 . S
C2870 C2872 1.391 . S
C2871 C2870 1.386 . S
C2871 C2875 1.393 . S
C2872 H2861 0.950 . S
C2872 C2870 1.391 . S
C2872 C2873 1.400 . S
C2873 C2867 1.491 . S
C2873 C2872 1.400 . S
C2873 C2874 1.398 . S
C2874 H2862 0.950 . S
C2874 C2873 1.398 . S
C2874 C2875 1.391 . S
C2875 H2863 0.950 . S
C2875 C2871 1.393 . S
C2875 C2874 1.391 . S
H2876 C2884 0.950 . S
H2877 C2889 0.950 . S
H2878 C2886 0.950 . S
H2879 C2888 0.950 . S
H2880 C2890 0.950 . S
H2881 C2892 0.950 . S
H2882 C2894 0.950 . S
H2883 C2895 0.950 . S
C2884 H2876 0.950 . S
C2884 C2885 1.386 . S
C2884 C2886 1.391 . S
C2885 C2884 1.386 . S
C2885 C2889 1.393 . S
C2886 H2878 0.950 . S
C2886 C2884 1.391 . S
C2886 C2887 1.400 . S
C2887 C2886 1.400 . S
C2887 C2888 1.398 . S
C2887 C2893 1.491 . S
C2888 H2879 0.950 . S
C2888 C2887 1.398 . S
C2888 C2889 1.391 . S
C2889 H2877 0.950 . S
C2889 C2885 1.393 . S
C2889 C2888 1.391 . S
C2890 H2880 0.950 . S
C2890 C2891 1.386 . S
C2890 C2892 1.391 . S
C2891 C2890 1.386 . S
C2891 C2895 1.393 . S
C2892 H2881 0.950 . S
C2892 C2890 1.391 . S
C2892 C2893 1.400 . S
C2893 C2887 1.491 . S
C2893 C2892 1.400 . S
C2893 C2894 1.398 . S
C2894 H2882 0.950 . S
C2894 C2893 1.398 . S
C2894 C2895 1.391 . S
C2895 H2883 0.950 . S
C2895 C2891 1.393 . S
C2895 C2894 1.391 . S
C985 C109 2.107 1_455 S
C991 C367 2.098 . S
C1005 C65 1.816 . S
C1011 C378 1.823 . S
C1025 C75 1.694 . S
C1031 C447 1.655 . S
C1051 C460 1.210 . S
C1045 C84 1.223 . S
C1065 C25 2.523 . S
C1071 C516 2.498 . S
C1091 C567 2.073 . S
C1085 C28 2.089 . S
C1111 C596 2.415 . S
C1105 C47 2.431 . S
C1125 C9 2.489 . S
C1131 C647 2.438 . S
C1151 C338 1.350 . S
C1145 C233 1.349 . S
C1165 C249 0.927 . S
C1171 C380 0.905 . S
C1191 C418 1.078 . S
C1185 C275 1.098 . S
C1211 C487 1.673 . S
C1205 C173 1.665 . S
C1225 C224 0.652 . S
C1231 C521 0.645 . S
C1251 C538 1.465 . S
C1245 C243 1.462 . S
C1271 C601 0.395 . S
C1265 C266 0.372 . S
C1291 C618 2.024 . S
C1285 C179 2.053 . S
C1311 C340 1.665 . S
C1305 C163 1.735 . S
C1325 C289 1.620 . S
C1331 C679 1.578 . S
C1351 C700 1.429 . S
C1345 C333 1.476 . S
C1371 C759 0.430 . S
C1365 C308 0.309 . S
C1385 C123 1.051 . S
C1391 C620 1.040 . S
C1405 C126 1.417 . S
C1411 C420 1.407 . S
C1425 C327 0.968 . S
C1431 C778 0.973 . S
C1451 C847 1.015 . S
C1445 C299 1.044 . S
C1471 C356 2.115 . S
C1465 C67 2.151 . S
C1491 C839 1.854 . S
C1485 C98 1.817 . S
C1505 C89 1.718 . S
C1511 C436 1.693 . S
C1525 C79 1.268 . S
C1531 C801 1.253 . S
C1551 C527 2.533 . S
C1545 C11 2.554 . S
C1565 C51 2.131 . S
C1571 C716 2.082 . S
C1591 C607 2.467 1_556 S
C1585 C33 2.486 . S
C1611 C876 2.437 . S
C1605 C14 2.493 1_655 S
C1631 C359 1.325 . S
C1625 C140 1.312 . S
C1651 C841 0.894 . S
C1645 C319 0.929 . S
C1665 C112 1.121 . S
C1671 C439 1.109 . S
C1685 C285 1.701 . S
C1691 C796 1.709 . S
C1705 C149 0.664 . S
C1711 C500 0.686 . S
C1731 C719 1.500 . S
C1725 C313 1.494 . S
C1745 C121 0.445 . S
C1751 C580 0.446 . S
C1765 C291 2.097 . S
C1771 C879 2.059 . S
C1785 C182 1.741 . S
C1791 C361 1.644 . S
C1805 C168 1.618 . S
C1811 C658 1.597 . S
C1825 C263 1.484 . S
C1831 C561 1.424 . S
C1845 C247 0.392 . S
C1851 C738 0.455 . S
C1871 C881 1.039 . S
C1865 C277 1.052 . S
C1885 C219 1.467 . S
C1891 C441 1.426 . S
C1911 C479 1.013 . S
C1905 C257 0.989 . S
C1931 C396 1.031 . S
C1925 C201 1.051 . S
C1945 C81 2.131 . S
C1951 C927 2.118 . S
C1971 C818 1.824 . S
C1965 C93 1.819 . S
C1985 C103 1.695 . S
C1991 C967 1.663 . S
C2005 C56 1.216 . S
C2011 C780 1.203 . S
C2025 C53 2.515 . S
C2031 C676 2.500 . S
C2051 C727 2.075 . S
C2045 C0 2.089 . S
C2071 C756 2.420 . S
C2065 C19 2.427 . S
C2091 C887 2.433 . S
C2085 C37 2.483 . S
C2111 C898 1.342 . S
C2105 C261 1.343 . S
C2125 C193 0.934 . S
C2131 C820 0.918 . S
C2151 C938 1.076 . S
C2145 C205 1.096 . S
C2171 C807 1.674 . S
C2165 C215 1.665 . S
C2191 C681 0.674 . S
C2185 C252 0.662 . S
C2205 C187 1.452 . S
C2211 C698 1.456 . S
C2231 C761 0.424 . S
C2225 C196 0.405 . S
C2245 C221 2.052 . S
C2251 C858 2.024 . S
C2271 C900 1.661 . S
C2265 C317 1.736 . S
C2285 C135 1.622 . S
C2291 C519 1.562 . S
C2311 C540 1.406 . S
C2305 C151 1.423 1_565 S
C2331 C599 0.404 . S
C2325 C154 0.298 1_554 S
C2351 C860 1.070 . S
C2345 C305 1.080 . S
C2365 C280 1.422 . S
C2371 C940 1.417 . S
C2391 C458 0.973 . S
C2385 C145 0.968 . S
C2411 C407 1.021 . S
C2405 C117 1.050 . S
C2425 C95 2.150 . S
C2431 C916 2.114 . S
C2451 C399 1.859 . S
C2445 C70 1.800 . S
C2465 C61 1.719 . S
C2471 C956 1.681 . S
C2485 C107 1.268 . S
C2491 C481 1.240 . S
C2505 C39 2.557 . S
C2511 C687 2.532 1_556 S
C2531 C556 2.092 . S
C2525 C23 2.125 . S
C2545 C5 2.482 . S
C2551 C767 2.469 . S
C2565 C42 2.493 . S
C2571 C636 2.438 . S
C2591 C919 1.309 . S
C2585 C322 1.314 . S
C2605 C165 0.943 . S
C2611 C401 0.934 . S
C2631 C959 1.124 . S
C2625 C294 1.108 . S
C2645 C131 1.702 . S
C2651 C476 1.703 . S
C2665 C331 0.670 . S
C2671 C660 0.658 . S
C2691 C559 1.501 . S
C2685 C159 1.495 . S
C2705 C303 0.438 . S
C2711 C740 0.463 . S
C2731 C639 2.063 . S
C2725 C137 2.096 . S
C2751 C921 1.637 . S
C2745 C238 1.742 . S
C2771 C498 1.575 1_665 S
C2765 C210 1.603 . S
C2785 C235 1.470 . S
C2791 C721 1.405 . S
C2811 C578 0.460 . S
C2805 C191 0.403 . S
C2825 C207 1.068 . S
C2831 C641 1.056 . S
C2845 C177 1.466 . S
C2851 C961 1.427 . S
C2871 C799 1.014 . S
C2865 C229 1.014 . S
C2891 C836 1.010 . S
C2885 C271 1.039 . S
