# Generated by pormake.
# Topology ssa, (4,4)-cn, num edge types: 1
# Building blocks:
#     Node 0, Type 0, BuildingBlock: NAWXER_clean_sbu_0, # of connection points: 4
#     Node 1, Type 0, BuildingBlock: NAWXER_clean_sbu_0, # of connection points: 4
#     Node 2, Type 0, BuildingBlock: NAWXER_clean_sbu_0, # of connection points: 4
#     Node 3, Type 0, BuildingBlock: NAWXER_clean_sbu_0, # of connection points: 4
#     Node 4, Type 0, BuildingBlock: NAWXER_clean_sbu_0, # of connection points: 4
#     Node 5, Type 0, BuildingBlock: NAWXER_clean_sbu_0, # of connection points: 4
#     Node 6, Type 1, BuildingBlock: MUDLON_clean_sbu_0, # of connection points: 4
#     Node 7, Type 1, BuildingBlock: MUDLON_clean_sbu_0, # of connection points: 4
#     Node 8, Type 1, BuildingBlock: MUDLON_clean_sbu_0, # of connection points: 4
#     Node 9, Type 1, BuildingBlock: MUDLON_clean_sbu_0, # of connection points: 4
#     Node 10, Type 1, BuildingBlock: MUDLON_clean_sbu_0, # of connection points: 4
#     Node 11, Type 1, BuildingBlock: MUDLON_clean_sbu_0, # of connection points: 4
#     Edge 12, Type (0, 1), BuildingBlock: XIVTED_clean_linker_0, # of connection points: 2
#     Edge 13, Type (0, 1), BuildingBlock: XIVTED_clean_linker_0, # of connection points: 2
#     Edge 14, Type (0, 1), BuildingBlock: XIVTED_clean_linker_0, # of connection points: 2
#     Edge 15, Type (0, 1), BuildingBlock: XIVTED_clean_linker_0, # of connection points: 2
#     Edge 16, Type (0, 1), BuildingBlock: XIVTED_clean_linker_0, # of connection points: 2
#     Edge 17, Type (0, 1), BuildingBlock: XIVTED_clean_linker_0, # of connection points: 2
#     Edge 18, Type (0, 1), BuildingBlock: XIVTED_clean_linker_0, # of connection points: 2
#     Edge 19, Type (0, 1), BuildingBlock: XIVTED_clean_linker_0, # of connection points: 2
#     Edge 20, Type (0, 1), BuildingBlock: XIVTED_clean_linker_0, # of connection points: 2
#     Edge 21, Type (0, 1), BuildingBlock: XIVTED_clean_linker_0, # of connection points: 2
#     Edge 22, Type (0, 1), BuildingBlock: XIVTED_clean_linker_0, # of connection points: 2
#     Edge 23, Type (0, 1), BuildingBlock: XIVTED_clean_linker_0, # of connection points: 2
#     Edge 24, Type (0, 1), BuildingBlock: XIVTED_clean_linker_0, # of connection points: 2
#     Edge 25, Type (0, 1), BuildingBlock: XIVTED_clean_linker_0, # of connection points: 2
#     Edge 26, Type (0, 1), BuildingBlock: XIVTED_clean_linker_0, # of connection points: 2
#     Edge 27, Type (0, 1), BuildingBlock: XIVTED_clean_linker_0, # of connection points: 2
#     Edge 28, Type (0, 1), BuildingBlock: XIVTED_clean_linker_0, # of connection points: 2
#     Edge 29, Type (0, 1), BuildingBlock: XIVTED_clean_linker_0, # of connection points: 2
#     Edge 30, Type (0, 1), BuildingBlock: XIVTED_clean_linker_0, # of connection points: 2
#     Edge 31, Type (0, 1), BuildingBlock: XIVTED_clean_linker_0, # of connection points: 2
#     Edge 32, Type (0, 1), BuildingBlock: XIVTED_clean_linker_0, # of connection points: 2
#     Edge 33, Type (0, 1), BuildingBlock: XIVTED_clean_linker_0, # of connection points: 2
#     Edge 34, Type (0, 1), BuildingBlock: XIVTED_clean_linker_0, # of connection points: 2
#     Edge 35, Type (0, 1), BuildingBlock: XIVTED_clean_linker_0, # of connection points: 2
# Relax obj value: 0.034
# Max RMSD: 0.048
# Mean RMSD: 0.037
data_MOF--net-ssa--node1-NAWXER_clean_sbu_0--node2-MUDLON_clean_sbu_0--edge1-XIVTED_clean_linker_0
_symmetry_space_group_name_H-M    P1
_symmetry_Int_Tables_number       1
_symmetry_cell_setting            triclinic
loop_
_symmetry_equiv_pos_as_xyz
'x, y, z'
_cell_length_a     42.650334
_cell_length_b     42.687269
_cell_length_c     39.559136
_cell_angle_alpha  89.858774
_cell_angle_beta   89.633851
_cell_angle_gamma 120.00634
loop_
_atom_site_label
_atom_site_type_symbol
_atom_site_fract_x
_atom_site_fract_y
_atom_site_fract_z
_atom_type_partial_charge
C0 C 0.0568 0.55722 0.05278 0.0
C1 C 0.00614 0.45158 0.97793 0.0
O2 O 0.0296 0.52609 0.05868 0.0
Zn3 Zn 0.02992 0.50397 0.01569 0.0
O4 O 0.0726 0.56374 0.02385 0.0
Zn5 Zn 0.06912 0.53555 0.97796 0.0
O6 O 0.05766 0.56072 0.94404 0.0
O7 O 0.01242 0.52936 0.97963 0.0
O8 O 0.03295 0.47985 0.96466 0.0
O9 O 0.99584 0.45322 0.0078 0.0
O10 O 0.08059 0.50534 0.01874 0.0
O11 O 0.11681 0.54036 0.97774 0.0
C12 C 0.02522 0.54975 0.95342 0.0
C13 C 0.11135 0.5204 1.00353 0.0
C14 C 0.49033 0.98578 0.58576 0.0
C15 C 0.52663 0.90484 0.53459 0.0
O16 O 0.48306 0.95494 0.59713 0.0
Zn17 Zn 0.50745 0.94384 0.56137 0.0
O18 O 0.50847 0.99789 0.55822 0.0
Zn19 Zn 0.53502 0.9829 0.52151 0.0
O20 O 0.5087 0.9792 0.47992 0.0
O21 O 0.47553 0.93725 0.51764 0.0
O22 O 0.53845 0.93497 0.51886 0.0
O23 O 0.50709 0.8981 0.56103 0.0
O24 O 0.56274 0.98307 0.57137 0.0
O25 O 0.58531 0.02073 0.52801 0.0
C26 C 0.47873 0.95154 0.48838 0.0
C27 C 0.58922 0.01099 0.55741 0.0
C28 C 0.50115 0.42612 1.00257 0.0
C29 C 0.52791 0.52761 0.07761 0.0
O30 O 0.48923 0.44671 0.9924 0.0
Zn31 Zn 0.48717 0.49315 0.00784 0.0
O32 O 0.51603 0.43155 0.0314 0.0
Zn33 Zn 0.51391 0.47503 0.0431 0.0
O34 O 0.45879 0.45642 0.0549 0.0
O35 O 0.43563 0.47705 0.01732 0.0
O36 O 0.53541 0.50286 0.0843 0.0
O37 O 0.51101 0.52619 0.05055 0.0
O38 O 0.51603 0.5272 0.9714 0.0
O39 O 0.54804 0.51271 1.00508 0.0
C40 C 0.43204 0.45937 0.04447 0.0
C41 C 0.54642 0.53049 0.97963 0.0
C42 C 0.00819 0.60831 0.46798 0.0
C43 C 0.95081 0.49584 0.53395 0.0
O44 O 0.02813 0.60685 0.49133 0.0
Zn45 Zn 0.02674 0.57003 0.52888 0.0
O46 O 0.97715 0.581 0.46237 0.0
Zn47 Zn 0.97885 0.55065 0.4983 0.0
O48 O 0.98091 0.58132 0.5417 0.0
O49 O 0.03077 0.59711 0.57049 0.0
O50 O 0.93682 0.50361 0.50935 0.0
O51 O 0.9835 0.51799 0.54245 0.0
O52 O 0.06496 0.56038 0.51305 0.0
O53 O 0.0186 0.53883 0.47845 0.0
C54 C 1.0012 0.59736 0.567 0.0
C55 C 0.05007 0.54398 0.48581 0.0
C56 C 0.51884 0.96321 0.04275 0.0
C57 C 0.46154 0.01043 0.96512 0.0
O58 O 0.52417 0.9945 0.0512 0.0
Zn59 Zn 0.51131 0.034 0.03229 0.0
O60 O 0.50173 0.9489 0.01571 0.0
Zn61 Zn 0.49078 0.98638 1.00179 0.0
O62 O 0.54098 0.03046 0.98487 0.0
O63 O 0.55761 0.07637 0.0195 0.0
O64 O 0.46137 0.98062 0.96195 0.0
O65 O 0.47875 0.03147 0.9897 0.0
O66 O 0.48207 0.03644 0.06916 0.0
O67 O 0.45505 0.98532 0.04048 0.0
C68 C 0.56334 0.06326 0.99287 0.0
C69 C 0.45434 0.0056 0.06396 0.0
C70 C 0.56915 0.54274 0.56916 0.0
C71 C 0.46947 0.51991 0.49479 0.0
O72 O 0.54565 0.55246 0.57325 0.0
Zn73 Zn 0.51847 0.53042 0.53301 0.0
O74 O 0.56818 0.52499 0.5427 0.0
Zn75 Zn 0.53459 0.50264 0.49904 0.0
O76 O 0.5676 0.52813 0.46165 0.0
O77 O 0.55505 0.56322 0.49298 0.0
O78 O 0.48852 0.50652 0.48358 0.0
O79 O 0.47635 0.53476 0.52366 0.0
O80 O 0.49708 0.47419 0.54521 0.0
O81 O 0.51639 0.45115 0.50606 0.0
C82 C 0.57123 0.5591 0.46736 0.0
C83 C 0.49879 0.44716 0.53334 0.0
Mg84 Mg 0.25235 0.49869 0.27061 0.0
C85 C 0.22185 0.50121 0.20842 0.0
O86 O 0.20297 0.46841 0.2212 0.0
C87 C 0.30043 0.53542 0.33036 0.0
O88 O 0.27005 0.53186 0.34243 0.0
C89 C 0.18693 0.49803 0.30314 0.0
O90 O 0.19021 0.51658 0.2755 0.0
O91 O 0.20734 0.48438 0.30682 0.0
O92 O 0.24639 0.52575 0.22652 0.0
O93 O 0.25752 0.45717 0.2421 0.0
C94 C 0.28785 0.45816 0.24053 0.0
O95 O 0.31287 0.47762 0.26265 0.0
O96 O 0.30181 0.5275 0.2996 0.0
Mg97 Mg 0.78965 0.25068 0.76145 0.0
C98 C 0.76397 0.17454 0.72771 0.0
O99 O 0.76306 0.16164 0.75812 0.0
C100 C 0.83395 0.25959 0.82395 0.0
O101 O 0.8015 0.23697 0.83593 0.0
C102 C 0.71605 0.20571 0.79511 0.0
O103 O 0.70989 0.18746 0.76691 0.0
O104 O 0.74547 0.23562 0.79788 0.0
O105 O 0.77493 0.20805 0.72395 0.0
O106 O 0.80449 0.29688 0.72819 0.0
C107 C 0.83203 0.30239 0.71078 0.0
O108 O 0.84626 0.28182 0.71673 0.0
O109 O 0.83767 0.26708 0.79247 0.0
Mg110 Mg 0.55892 0.76911 0.26753 0.0
C111 C 0.57871 0.81505 0.20092 0.0
O112 O 0.58704 0.79122 0.18952 0.0
C113 C 0.58595 0.72795 0.30048 0.0
O114 O 0.55058 0.71069 0.30393 0.0
C115 C 0.56561 0.79638 0.33604 0.0
O116 O 0.59908 0.80902 0.32542 0.0
O117 O 0.5399 0.77815 0.31566 0.0
O118 O 0.56933 0.81339 0.23185 0.0
O119 O 0.52225 0.71706 0.24541 0.0
C120 C 0.51098 0.71245 0.21525 0.0
O121 O 0.51264 0.73986 0.19855 0.0
O122 O 0.60141 0.75789 0.2842 0.0
Mg123 Mg 0.80692 0.61029 0.78748 0.0
C124 C 0.73337 0.56474 0.75818 0.0
O125 O 0.72438 0.56724 0.78946 0.0
C126 C 0.8487 0.57464 0.80612 0.0
O127 O 0.8561 0.58073 0.77368 0.0
C128 C 0.77633 0.62579 0.85028 0.0
O129 O 0.79657 0.61428 0.86435 0.0
O130 O 0.77896 0.6314 0.81851 0.0
O131 O 0.76655 0.57695 0.75085 0.0
O132 O 0.85585 0.64607 0.75837 0.0
C133 C 0.85371 0.64848 0.72651 0.0
O134 O 0.82168 0.63695 0.71315 0.0
O135 O 0.82518 0.58113 0.81903 0.0
Mg136 Mg 0.22553 0.81231 0.26709 0.0
C137 C 0.18335 0.73693 0.23848 0.0
O138 O 0.16796 0.73156 0.26843 0.0
C139 C 0.26834 0.81551 0.33149 0.0
O140 O 0.23637 0.79226 0.34403 0.0
C141 C 0.17243 0.80862 0.32309 0.0
O142 O 0.20084 0.83609 0.33678 0.0
O143 O 0.17579 0.7967 0.29475 0.0
O144 O 0.21065 0.76779 0.23164 0.0
O145 O 0.24581 0.86182 0.23809 0.0
C146 C 0.24066 0.86113 0.20647 0.0
O147 O 0.21775 0.83024 0.19237 0.0
O148 O 0.27094 0.82529 0.30072 0.0
Mg149 Mg 0.45315 0.21475 0.76367 0.0
C150 C 0.46482 0.17661 0.70759 0.0
O151 O 0.43956 0.18286 0.6963 0.0
C152 C 0.48771 0.2482 0.83097 0.0
O153 O 0.47338 0.21403 0.83978 0.0
C154 C 0.40368 0.1379 0.78852 0.0
O155 O 0.40865 0.13016 0.75757 0.0
O156 O 0.413 0.17055 0.79547 0.0
O157 O 0.47863 0.18896 0.73635 0.0
O158 O 0.43893 0.2432 0.72546 0.0
C159 C 0.46552 0.26224 0.70556 0.0
O160 O 0.49613 0.26257 0.71048 0.0
O161 O 0.48644 0.25611 0.80013 0.0
H162 H 0.11411 0.46077 0.02167 0.0
H163 H 0.24173 0.56576 0.17519 0.0
H164 H 0.17362 0.57708 0.02676 0.0
H165 H 0.18872 0.4503 0.16049 0.0
H166 H 0.2258 0.57252 0.11692 0.0
H167 H 0.15134 0.45804 0.06677 0.0
C168 C 0.13607 0.48577 0.03152 0.0
C169 C 0.14113 0.51914 0.0205 0.0
C170 C 0.21814 0.5458 0.12642 0.0
C171 C 0.18242 0.51645 0.07356 0.0
C172 C 0.22709 0.54197 0.15965 0.0
C173 C 0.21572 0.50738 0.17293 0.0
C174 C 0.19792 0.51481 0.10657 0.0
C175 C 0.19722 0.47745 0.15166 0.0
C176 C 0.15708 0.48431 0.05758 0.0
C177 C 0.16936 0.55085 0.03442 0.0
N178 N 0.18868 0.48184 0.11978 0.0
N179 N 0.18845 0.54876 0.06092 0.0
H180 H 0.61074 0.99064 0.61405 0.0
H181 H 0.75967 0.19249 0.66194 0.0
H182 H 0.6427 0.08198 0.54733 0.0
H183 H 0.72734 0.10013 0.72748 0.0
H184 H 0.72316 0.15183 0.61686 0.0
H185 H 0.65919 0.02929 0.6524 0.0
C186 C 0.62828 0.01879 0.60721 0.0
C187 C 0.62235 0.03313 0.57751 0.0
C188 C 0.72437 0.1404 0.64095 0.0
C189 C 0.67789 0.07788 0.6218 0.0
C190 C 0.74529 0.16361 0.66678 0.0
C191 C 0.74633 0.1498 0.69881 0.0
C192 C 0.70414 0.10299 0.6471 0.0
C193 C 0.72724 0.1121 0.70335 0.0
C194 C 0.65597 0.0409 0.62922 0.0
C195 C 0.6462 0.06976 0.56993 0.0
N196 N 0.70667 0.0901 0.67795 0.0
N197 N 0.67262 0.09098 0.59216 0.0
H198 H 0.55012 0.59677 0.06119 0.0
H199 H 0.50841 0.65154 0.24136 0.0
H200 H 0.51887 0.5242 0.14672 0.0
H201 H 0.50852 0.70253 0.14688 0.0
H202 H 0.51706 0.60701 0.20994 0.0
H203 H 0.54432 0.64054 0.09599 0.0
C204 C 0.54292 0.59051 0.08766 0.0
C205 C 0.53495 0.55692 0.10119 0.0
C206 C 0.51479 0.62773 0.19617 0.0
C207 C 0.52701 0.6064 0.14095 0.0
C208 C 0.50955 0.653 0.214 0.0
C209 C 0.50791 0.68099 0.19672 0.0
C210 C 0.51879 0.63077 0.16091 0.0
C211 C 0.50964 0.68154 0.16132 0.0
C212 C 0.53911 0.61527 0.10739 0.0
C213 C 0.52561 0.55001 0.13554 0.0
N214 N 0.51541 0.6571 0.14466 0.0
N215 N 0.52146 0.57448 0.1543 0.0
H216 H 0.01664 0.61099 0.63518 0.0
H217 H 0.86145 0.66277 0.65877 0.0
H218 H 0.9569 0.62427 0.55425 0.0
H219 H 0.91522 0.64613 0.74313 0.0
H220 H 0.90443 0.65914 0.62043 0.0
H221 H 0.98758 0.63305 0.67525 0.0
C222 C 0.99796 0.61912 0.62578 0.0
C223 C 0.98881 0.61533 0.59141 0.0
C224 C 0.90724 0.65672 0.64735 0.0
C225 C 0.95559 0.64049 0.63684 0.0
C226 C 0.88273 0.65899 0.6693 0.0
C227 C 0.88439 0.65437 0.70422 0.0
C228 C 0.9335 0.64925 0.66021 0.0
C229 C 0.91278 0.64972 0.71637 0.0
C230 C 0.98128 0.63157 0.64863 0.0
C231 C 0.96437 0.62618 0.58059 0.0
N232 N 0.93584 0.64667 0.69436 0.0
N233 N 0.94853 0.63795 0.60315 0.0
H234 H 0.38648 0.95868 0.04311 0.0
H235 H 0.29964 0.92475 0.22676 0.0
H236 H 0.44492 0.02296 0.12904 0.0
H237 H 0.24193 0.86727 0.13757 0.0
H238 H 0.34972 0.96768 0.19083 0.0
H239 H 0.33089 0.93163 0.07631 0.0
C240 C 0.38755 0.96723 0.06905 0.0
C241 C 0.42047 0.99261 0.08357 0.0
C242 C 0.32582 0.94607 0.1791 0.0
C243 C 0.35663 0.96138 0.12204 0.0
C244 C 0.2971 0.92157 0.19959 0.0
C245 C 0.2668 0.89185 0.18518 0.0
C246 C 0.32423 0.94072 0.14402 0.0
C247 C 0.26495 0.88937 0.14985 0.0
C248 C 0.35569 0.95187 0.08799 0.0
C249 C 0.42011 1.00324 0.11702 0.0
N250 N 0.29351 0.91311 0.13055 0.0
N251 N 0.38871 0.98708 0.13539 0.0
H252 H 0.45409 0.42724 0.58908 0.0
H253 H 0.50439 0.28007 0.64717 0.0
H254 H 0.51206 0.39087 0.52556 0.0
H255 H 0.42165 0.29247 0.69821 0.0
H256 H 0.50587 0.31954 0.60187 0.0
H257 H 0.43968 0.37724 0.62826 0.0
C258 C 0.46331 0.40842 0.58304 0.0
C259 C 0.48459 0.41351 0.55399 0.0
C260 C 0.48706 0.31343 0.62272 0.0
C261 C 0.46858 0.35644 0.59919 0.0
C262 C 0.48629 0.29095 0.64873 0.0
C263 C 0.46303 0.28315 0.67668 0.0
C264 C 0.46491 0.32901 0.62476 0.0
C265 C 0.43997 0.29777 0.67712 0.0
C266 C 0.45505 0.37986 0.60549 0.0
C267 C 0.49566 0.38814 0.54757 0.0
N268 N 0.44187 0.32047 0.65178 0.0
N269 N 0.48798 0.3611 0.5702 0.0
H270 H 0.47523 0.83743 0.51512 0.0
H271 H 0.61547 0.83034 0.38528 0.0
H272 H 0.59027 0.9115 0.51431 0.0
H273 H 0.5006 0.77884 0.36692 0.0
H274 H 0.60559 0.84676 0.44155 0.0
H275 H 0.48363 0.80201 0.47071 0.0
C276 C 0.50239 0.84522 0.50666 0.0
C277 C 0.53219 0.87718 0.5183 0.0
C278 C 0.58247 0.83161 0.42535 0.0
C279 C 0.54188 0.83767 0.46739 0.0
C280 C 0.58807 0.82231 0.3931 0.0
C281 C 0.55887 0.80382 0.37103 0.0
C282 C 0.54742 0.82248 0.43577 0.0
C283 C 0.52393 0.79357 0.38293 0.0
C284 C 0.50711 0.82539 0.48102 0.0
C285 C 0.56672 0.88685 0.50599 0.0
N286 N 0.51919 0.80341 0.41444 0.0
N287 N 0.57059 0.86739 0.48094 0.0
H288 H 0.55549 0.55402 0.91295 0.0
H289 H 0.76827 0.6247 0.91875 0.0
H290 H 0.61504 0.55975 1.00268 0.0
H291 H 0.71329 0.62058 0.82628 0.0
H292 H 0.71322 0.60926 0.95047 0.0
H293 H 0.61323 0.58575 0.88128 0.0
C294 C 0.58065 0.56244 0.92608 0.0
C295 C 0.58038 0.5538 0.96041 0.0
C296 C 0.71315 0.61211 0.92327 0.0
C297 C 0.64629 0.58993 0.92453 0.0
C298 C 0.74474 0.62111 0.90513 0.0
C299 C 0.74541 0.62365 0.86977 0.0
C300 C 0.68155 0.60502 0.90601 0.0
C301 C 0.71403 0.61885 0.85354 0.0
C302 C 0.61357 0.58042 0.90801 0.0
C303 C 0.6138 0.56529 0.97615 0.0
N304 N 0.68319 0.6092 0.87173 0.0
N305 N 0.64516 0.58244 0.95811 0.0
H306 H 0.05516 0.67635 0.48861 0.0
H307 H 0.10839 0.75144 0.30186 0.0
H308 H 0.99457 0.61663 0.40158 0.0
H309 H 0.16109 0.81363 0.39072 0.0
H310 H 0.05997 0.70627 0.33765 0.0
H311 H 0.08725 0.73045 0.45361 0.0
C312 C 0.04831 0.67479 0.4621 0.0
C313 C 0.02263 0.64188 0.44778 0.0
C314 C 0.08173 0.73011 0.34929 0.0
C315 C 0.05974 0.70373 0.40731 0.0
C316 C 0.10943 0.75601 0.32886 0.0
C317 C 0.13928 0.78606 0.34339 0.0
C318 C 0.08404 0.73412 0.38454 0.0
C319 C 0.13888 0.79072 0.37843 0.0
C320 C 0.0666 0.70575 0.44211 0.0
C321 C 0.01437 0.64148 0.4135 0.0
N322 N 0.11206 0.76468 0.39785 0.0
N323 N 0.03342 0.67184 0.39421 0.0
H324 H 0.43534 0.98337 0.90163 0.0
H325 H 0.40232 0.14773 0.8571 0.0
H326 H 0.44665 0.06509 0.9724 0.0
H327 H 0.39534 0.07005 0.78347 0.0
H328 H 0.40844 0.11144 0.90158 0.0
H329 H 0.41165 0.00885 0.85989 0.0
C330 C 0.43244 0.00632 0.90854 0.0
C331 C 0.44345 0.02235 0.94044 0.0
C332 C 0.40506 0.10202 0.87575 0.0
C333 C 0.4164 0.05164 0.89291 0.0
C334 C 0.40133 0.12268 0.8503 0.0
C335 C 0.39881 0.1123 0.81633 0.0
C336 C 0.40648 0.07076 0.86726 0.0
C337 C 0.39755 0.07939 0.80923 0.0
C338 C 0.41897 0.02091 0.88471 0.0
C339 C 0.43901 0.05208 0.948 0.0
N340 N 0.40193 0.06011 0.83436 0.0
N341 N 0.42613 0.06584 0.92442 0.0
H342 H 0.42252 0.54494 0.509 0.0
H343 H 0.36135 0.53155 0.31619 0.0
H344 H 0.45687 0.50041 0.42853 0.0
H345 H 0.30497 0.54922 0.39838 0.0
H346 H 0.40279 0.52901 0.35684 0.0
H347 H 0.38361 0.55321 0.46879 0.0
C348 C 0.42165 0.53661 0.48302 0.0
C349 C 0.44291 0.52182 0.47219 0.0
C350 C 0.38149 0.53368 0.36598 0.0
C351 C 0.39917 0.53193 0.42605 0.0
C352 C 0.35797 0.53545 0.34273 0.0
C353 C 0.32938 0.54026 0.35388 0.0
C354 C 0.37657 0.53693 0.40067 0.0
C355 C 0.32648 0.54521 0.38865 0.0
C356 C 0.39959 0.5415 0.46008 0.0
C357 C 0.44087 0.51173 0.43815 0.0
N358 N 0.34963 0.54319 0.41086 0.0
N359 N 0.4196 0.51716 0.41633 0.0
H360 H 0.02043 0.44038 0.91289 0.0
H361 H 0.83279 0.25516 0.89311 0.0
H362 H 0.94443 0.38782 0.99495 0.0
H363 H 0.90285 0.31482 0.80927 0.0
H364 H 0.87805 0.29793 0.93208 0.0
H365 H 0.9824 0.3895 0.87643 0.0
C366 C 0.99595 0.41795 0.92343 0.0
C367 C 0.98551 0.41864 0.95707 0.0
C368 C 0.88373 0.30144 0.90519 0.0
C369 C 0.94158 0.36013 0.91513 0.0
C370 C 0.85793 0.27691 0.88284 0.0
C371 C 0.86378 0.28155 0.84773 0.0
C372 C 0.91573 0.33093 0.89243 0.0
C373 C 0.897 0.31024 0.83608 0.0
C374 C 0.97418 0.38889 0.90249 0.0
C375 C 0.95352 0.38862 0.96919 0.0
N376 N 0.92153 0.33401 0.85833 0.0
N377 N 0.93256 0.36076 0.94817 0.0
H378 H 0.03657 0.57726 0.88893 0.0
H379 H 0.84154 0.55997 0.87424 0.0
H380 H 0.95782 0.5377 0.97024 0.0
H381 H 0.91029 0.5739 0.78823 0.0
H382 H 0.88516 0.55547 0.91088 0.0
H383 H 0.99265 0.58195 0.85293 0.0
C384 C 0.01024 0.57 0.89935 0.0
C385 C 1.00084 0.557 0.93262 0.0
C386 C 0.89054 0.55927 0.88395 0.0
C387 C 0.95036 0.56194 0.89149 0.0
C388 C 0.86558 0.56169 0.86301 0.0
C389 C 0.87225 0.56732 0.82811 0.0
C390 C 0.92256 0.5629 0.86993 0.0
C391 C 0.90395 0.56947 0.81496 0.0
C392 C 0.98506 0.57238 0.8787 0.0
C393 C 0.96619 0.54775 0.9447 0.0
N394 N 0.92803 0.56753 0.83591 0.0
N395 N 0.94221 0.55036 0.92414 0.0
H396 H 0.47654 0.9664 0.42058 0.0
H397 H 0.27238 0.80303 0.3989 0.0
H398 H 0.41076 0.89549 0.50154 0.0
H399 H 0.33701 0.8705 0.31567 0.0
H400 H 0.32345 0.8369 0.43655 0.0
H401 H 0.42603 0.93279 0.38159 0.0
C402 C 0.45148 0.94403 0.43023 0.0
C403 C 0.44801 0.93383 0.46445 0.0
C404 C 0.32658 0.84427 0.41002 0.0
C405 C 0.39024 0.89505 0.41995 0.0
C406 C 0.29739 0.82478 0.38844 0.0
C407 C 0.30027 0.83384 0.35399 0.0
C408 C 0.35907 0.87323 0.39723 0.0
C409 C 0.33348 0.86246 0.34202 0.0
C410 C 0.42271 0.92472 0.40793 0.0
C411 C 0.41487 0.90442 0.47543 0.0
N412 N 0.36149 0.88119 0.36359 0.0
N413 N 0.38746 0.88614 0.45332 0.0
H414 H 0.48641 0.42089 0.93552 0.0
H415 H 0.49158 0.24118 0.89978 0.0
H416 H 0.51558 0.37046 0.01454 0.0
H417 H 0.5059 0.31896 0.8225 0.0
H418 H 0.49788 0.28504 0.94306 0.0
H419 H 0.48869 0.3797 0.89485 0.0
C420 C 0.49306 0.40094 0.94448 0.0
C421 C 0.50066 0.39912 0.97869 0.0
C422 C 0.50014 0.29257 0.91662 0.0
C423 C 0.50351 0.3516 0.93166 0.0
C424 C 0.49662 0.26763 0.89187 0.0
C425 C 0.49784 0.27622 0.85736 0.0
C426 C 0.50437 0.32607 0.90673 0.0
C427 C 0.50451 0.31094 0.84869 0.0
C428 C 0.49469 0.37758 0.92104 0.0
C429 C 0.50944 0.37277 0.98846 0.0
N430 N 0.507 0.33431 0.87316 0.0
N431 N 0.51039 0.34979 0.96505 0.0
H432 H 0.11496 0.54436 0.49291 0.0
H433 H 0.12677 0.50446 0.2979 0.0
H434 H 0.02872 0.51775 0.42213 0.0
H435 H 0.19385 0.49246 0.37194 0.0
H436 H 0.09229 0.51194 0.34351 0.0
H437 H 0.14634 0.52832 0.44974 0.0
C438 C 0.10251 0.53499 0.46847 0.0
C439 C 0.06911 0.53256 0.46125 0.0
C440 C 0.11429 0.5073 0.34992 0.0
C441 C 0.10506 0.51453 0.41167 0.0
C442 C 0.134 0.50298 0.32382 0.0
C443 C 0.16319 0.49769 0.33104 0.0
C444 C 0.12417 0.50714 0.38372 0.0
C445 C 0.17134 0.49616 0.36521 0.0
C446 C 0.1204 0.52575 0.44388 0.0
C447 C 0.05435 0.52016 0.42905 0.0
N448 N 0.15225 0.50134 0.39029 0.0
N449 N 0.07249 0.51199 0.40553 0.0
H450 H 0.58615 0.0406 0.93881 0.0
H451 H 0.7195 0.23448 0.85838 0.0
H452 H 0.60515 0.13797 0.98946 0.0
H453 H 0.66076 0.1361 0.80112 0.0
H454 H 0.68558 0.20145 0.90939 0.0
H455 H 0.62387 0.07707 0.89187 0.0
C456 C 0.59867 0.06976 0.94032 0.0
C457 C 0.59208 0.08617 0.96807 0.0
C458 C 0.68007 0.18733 0.88553 0.0
C459 C 0.63524 0.12826 0.91381 0.0
C460 C 0.69925 0.20613 0.85641 0.0
C461 C 0.69299 0.18807 0.82533 0.0
C462 C 0.65503 0.15015 0.8836 0.0
C463 C 0.66655 0.15127 0.82437 0.0
C464 C 0.62002 0.09056 0.9133 0.0
C465 C 0.60945 0.12417 0.96858 0.0
N466 N 0.64889 0.13355 0.85304 0.0
N467 N 0.6301 0.14401 0.94166 0.0
H468 H 0.59657 0.63107 0.47782 0.0
H469 H 0.59056 0.66893 0.2842 0.0
H470 H 0.58724 0.55597 0.40041 0.0
H471 H 0.62103 0.75083 0.36022 0.0
H472 H 0.60033 0.63122 0.32462 0.0
H473 H 0.61564 0.67845 0.43489 0.0
C474 C 0.59918 0.62469 0.45184 0.0
C475 C 0.58983 0.58932 0.44268 0.0
C476 C 0.60613 0.65793 0.33226 0.0
C477 C 0.61112 0.6435 0.39308 0.0
C478 C 0.60102 0.67965 0.309 0.0
C479 C 0.60569 0.71324 0.31878 0.0
C480 C 0.61486 0.66946 0.36589 0.0
C481 C 0.61792 0.72539 0.35155 0.0
C482 C 0.61013 0.65183 0.42727 0.0
C483 C 0.59402 0.58278 0.40863 0.0
N484 N 0.62137 0.70321 0.37417 0.0
N485 N 0.60365 0.6094 0.385 0.0
H486 H 0.48215 0.98872 0.65452 0.0
H487 H 0.45515 0.16066 0.64091 0.0
H488 H 0.47955 0.03858 0.56038 0.0
H489 H 0.4885 0.1322 0.73325 0.0
H490 H 0.4584 0.11204 0.61199 0.0
H491 H 0.47707 0.03611 0.68521 0.0
C492 C 0.4798 0.00919 0.64036 0.0
C493 C 0.48127 0.00982 0.60491 0.0
C494 C 0.4653 0.11652 0.63852 0.0
C495 C 0.47596 0.06398 0.63958 0.0
C496 C 0.46358 0.14437 0.655 0.0
C497 C 0.47177 0.15054 0.68943 0.0
C498 C 0.47484 0.09425 0.65666 0.0
C499 C 0.48239 0.12854 0.70654 0.0
C500 C 0.47737 0.03641 0.65783 0.0
C501 C 0.47865 0.03719 0.58773 0.0
N502 N 0.48335 0.10108 0.69001 0.0
N503 N 0.47617 0.06314 0.6052 0.0
H504 H 0.41421 0.41395 0.09866 0.0
H505 H 0.26496 0.45591 0.1753 0.0
H506 H 0.37825 0.47792 0.04438 0.0
H507 H 0.33706 0.43534 0.23502 0.0
H508 H 0.29297 0.44844 0.12362 0.0
H509 H 0.37197 0.40529 0.14429 0.0
C510 C 0.3969 0.42562 0.09593 0.0
C511 C 0.40026 0.44715 0.06764 0.0
C512 C 0.30212 0.4449 0.14807 0.0
C513 C 0.35165 0.43733 0.12039 0.0
C514 C 0.28593 0.44877 0.17757 0.0
C515 C 0.29866 0.44613 0.20958 0.0
C516 C 0.33072 0.43765 0.15062 0.0
C517 C 0.32638 0.43756 0.21094 0.0
C518 C 0.37287 0.42076 0.12219 0.0
C519 C 0.37671 0.46121 0.06566 0.0
N520 N 0.34146 0.43369 0.18197 0.0
N521 N 0.35368 0.45642 0.09189 0.0
H522 H 0.87745 0.45883 0.54778 0.0
H523 H 0.89588 0.32525 0.67799 0.0
H524 H 0.97669 0.45913 0.56885 0.0
H525 H 0.80423 0.34218 0.68107 0.0
H526 H 0.92185 0.3687 0.63206 0.0
H527 H 0.84606 0.41011 0.59008 0.0
C528 C 0.89241 0.44817 0.56079 0.0
C529 C 0.92971 0.46299 0.55488 0.0
C530 C 0.89607 0.36308 0.6427 0.0
C531 C 0.8943 0.40788 0.60312 0.0
C532 C 0.88114 0.33817 0.66904 0.0
C533 C 0.84783 0.3301 0.6836 0.0
C534 C 0.87765 0.38022 0.63039 0.0
C535 C 0.83011 0.34782 0.67074 0.0
C536 C 0.87462 0.42072 0.58512 0.0
C537 C 0.94797 0.44861 0.57271 0.0
N538 N 0.84524 0.37209 0.64475 0.0
N539 N 0.93014 0.42199 0.59596 0.0
H540 H 0.54364 0.98002 0.1077 0.0
H541 H 0.57891 0.81362 0.13154 0.0
H542 H 0.52179 0.9012 0.02988 0.0
H543 H 0.56852 0.87251 0.21524 0.0
H544 H 0.56668 0.85076 0.09251 0.0
H545 H 0.5611 0.94614 0.14568 0.0
C546 C 0.54273 0.95572 0.09845 0.0
C547 C 0.5311 0.94349 0.06541 0.0
C548 C 0.56727 0.85569 0.1194 0.0
C549 C 0.55133 0.9045 0.10903 0.0
C550 C 0.57449 0.83463 0.14176 0.0
C551 C 0.57475 0.83983 0.17688 0.0
C552 C 0.56062 0.88256 0.13205 0.0
C553 C 0.56855 0.86741 0.18846 0.0
C554 C 0.5526 0.9363 0.12027 0.0
C555 C 0.53042 0.91166 0.05508 0.0
N556 N 0.56178 0.88769 0.16616 0.0
N557 N 0.54044 0.89336 0.07674 0.0
H558 H 0.62913 0.53552 0.56454 0.0
H559 H 0.66438 0.55311 0.76337 0.0
H560 H 0.56786 0.56116 0.63527 0.0
H561 H 0.74231 0.5574 0.69051 0.0
H562 H 0.62465 0.54818 0.71705 0.0
H563 H 0.668 0.53777 0.61066 0.0
C564 C 0.62405 0.54196 0.58973 0.0
C565 C 0.59523 0.54824 0.59607 0.0
C566 C 0.65036 0.54999 0.71123 0.0
C567 C 0.63922 0.55018 0.64903 0.0
C568 C 0.67294 0.55246 0.73767 0.0
C569 C 0.70684 0.55585 0.73081 0.0
C570 C 0.6616 0.55063 0.6777 0.0
C571 C 0.71647 0.55496 0.69697 0.0
C572 C 0.64619 0.54312 0.61604 0.0
C573 C 0.58989 0.55638 0.62921 0.0
N574 N 0.694 0.55257 0.67165 0.0
N575 N 0.61153 0.55685 0.65451 0.0
H576 H 0.11366 0.62628 0.0469 0.0
H577 H 0.12462 0.66876 0.24498 0.0
H578 H 0.03811 0.55104 0.1204 0.0
H579 H 0.20143 0.74181 0.17102 0.0
H580 H 0.09252 0.6254 0.20006 0.0
H581 H 0.14489 0.66931 0.09201 0.0
C582 C 0.10335 0.61887 0.07251 0.0
C583 C 0.07309 0.58484 0.07977 0.0
C584 C 0.11647 0.65083 0.19366 0.0
C585 C 0.10928 0.63421 0.1319 0.0
C586 C 0.13496 0.67561 0.21934 0.0
C587 C 0.16587 0.70909 0.21184 0.0
C588 C 0.12882 0.65951 0.16009 0.0
C589 C 0.17784 0.71636 0.17808 0.0
C590 C 0.12139 0.64349 0.09834 0.0
C591 C 0.0612 0.57693 0.11354 0.0
N592 N 0.15923 0.69187 0.1535 0.0
N593 N 0.0794 0.60136 0.13835 0.0
loop_
_geom_bond_atom_site_label_1
_geom_bond_atom_site_label_2
_geom_bond_distance
_geom_bond_site_symmetry_2
_ccdc_geom_bond_type
C0 O2 1.247 . S
C0 O4 1.258 . S
C1 O8 1.247 1_655 S
C1 O9 1.258 . S
O2 C0 1.247 . S
O2 Zn3 2.028 1_455 S
Zn3 O2 2.028 1_655 S
Zn3 O7 2.035 1_554 S
Zn3 O9 2.035 1_554 S
Zn3 O10 2.028 1_655 S
O4 C0 1.258 . S
O4 Zn5 2.035 1_554 S
Zn5 O4 2.035 1_556 S
Zn5 O6 2.028 . S
Zn5 O8 2.028 . S
Zn5 O11 2.035 1_556 S
O6 Zn5 2.028 . S
O6 C12 1.247 1_455 S
O7 Zn3 2.035 1_556 S
O7 C12 1.258 . S
O8 C1 1.247 1_455 S
O8 Zn5 2.028 . S
O9 C1 1.258 . S
O9 Zn3 2.035 1_556 S
O10 Zn3 2.028 1_455 S
O10 C13 1.247 . S
O11 Zn5 2.035 1_554 S
O11 C13 1.258 . S
C12 O6 1.247 1_655 S
C12 O7 1.258 . S
C13 O10 1.247 . S
C13 O11 1.258 . S
C14 O16 1.247 . S
C14 O18 1.258 . S
C15 O22 1.247 1_565 S
C15 O23 1.258 . S
O16 C14 1.247 . S
O16 Zn17 2.028 1_545 S
Zn17 O16 2.028 1_565 S
Zn17 O21 2.035 . S
Zn17 O23 2.035 . S
Zn17 O24 2.028 1_565 S
O18 C14 1.258 . S
O18 Zn19 2.035 . S
Zn19 O18 2.035 . S
Zn19 O20 2.028 . S
Zn19 O22 2.028 . S
Zn19 O25 2.035 . S
O20 Zn19 2.028 . S
O20 C26 1.247 1_545 S
O21 Zn17 2.035 . S
O21 C26 1.258 . S
O22 C15 1.247 1_545 S
O22 Zn19 2.028 . S
O23 C15 1.258 . S
O23 Zn17 2.035 . S
O24 Zn17 2.028 1_545 S
O24 C27 1.247 . S
O25 Zn19 2.035 . S
O25 C27 1.258 . S
C26 O20 1.247 1_565 S
C26 O21 1.258 . S
C27 O24 1.247 . S
C27 O25 1.258 . S
C28 O30 1.247 . S
C28 O32 1.258 . S
C29 O36 1.247 . S
C29 O37 1.258 . S
O30 C28 1.247 . S
O30 Zn31 2.028 . S
Zn31 O30 2.028 . S
Zn31 O35 2.035 1_556 S
Zn31 O37 2.035 1_556 S
Zn31 O38 2.028 . S
O32 C28 1.258 . S
O32 Zn33 2.035 1_556 S
Zn33 O32 2.035 1_554 S
Zn33 O34 2.028 . S
Zn33 O36 2.028 . S
Zn33 O39 2.035 1_554 S
O34 Zn33 2.028 . S
O34 C40 1.247 . S
O35 Zn31 2.035 1_554 S
O35 C40 1.258 . S
O36 C29 1.247 . S
O36 Zn33 2.028 . S
O37 C29 1.258 . S
O37 Zn31 2.035 1_554 S
O38 Zn31 2.028 . S
O38 C41 1.247 . S
O39 Zn33 2.035 1_556 S
O39 C41 1.258 . S
C40 O34 1.247 . S
C40 O35 1.258 . S
C41 O38 1.247 . S
C41 O39 1.258 . S
C42 O44 1.247 . S
C42 O46 1.246 1_455 S
C43 O50 1.247 . S
C43 O51 1.258 1_655 S
O44 C42 1.247 . S
O44 Zn45 2.028 . S
Zn45 O44 2.028 . S
Zn45 O49 2.035 . S
Zn45 O51 2.035 . S
Zn45 O52 2.028 . S
O46 C42 1.246 1_655 S
O46 Zn47 2.038 . S
Zn47 O46 2.038 . S
Zn47 O48 2.028 . S
Zn47 O50 2.028 . S
Zn47 O53 2.050 . S
O48 Zn47 2.028 . S
O48 C54 1.247 . S
O49 Zn45 2.035 . S
O49 C54 1.258 1_455 S
O50 C43 1.247 . S
O50 Zn47 2.028 . S
O51 C43 1.258 1_455 S
O51 Zn45 2.035 . S
O52 Zn45 2.028 . S
O52 C55 1.247 . S
O53 Zn47 2.050 . S
O53 C55 1.240 1_655 S
C54 O48 1.247 . S
C54 O49 1.258 1_655 S
C55 O52 1.247 . S
C55 O53 1.240 1_455 S
C56 O58 1.247 1_565 S
C56 O60 1.258 . S
C57 O64 1.247 . S
C57 O65 1.258 . S
O58 C56 1.247 1_545 S
O58 Zn59 2.028 . S
Zn59 O58 2.028 . S
Zn59 O63 2.035 1_554 S
Zn59 O65 2.035 1_554 S
Zn59 O66 2.028 . S
O60 C56 1.258 . S
O60 Zn61 2.035 1_554 S
Zn61 O60 2.035 1_556 S
Zn61 O62 2.028 1_565 S
Zn61 O64 2.028 1_565 S
Zn61 O67 2.035 1_556 S
O62 Zn61 2.028 1_545 S
O62 C68 1.247 . S
O63 Zn59 2.035 1_556 S
O63 C68 1.258 . S
O64 C57 1.247 . S
O64 Zn61 2.028 1_545 S
O65 C57 1.258 . S
O65 Zn59 2.035 1_556 S
O66 Zn59 2.028 . S
O66 C69 1.247 1_545 S
O67 Zn61 2.035 1_554 S
O67 C69 1.258 . S
C68 O62 1.247 . S
C68 O63 1.258 . S
C69 O66 1.247 1_565 S
C69 O67 1.258 . S
C70 O72 1.247 . S
C70 O74 1.258 . S
C71 O78 1.247 . S
C71 O79 1.258 . S
O72 C70 1.247 . S
O72 Zn73 2.028 . S
Zn73 O72 2.028 . S
Zn73 O77 2.035 . S
Zn73 O79 2.035 . S
Zn73 O80 2.028 . S
O74 C70 1.258 . S
O74 Zn75 2.035 . S
Zn75 O74 2.035 . S
Zn75 O76 2.028 . S
Zn75 O78 2.028 . S
Zn75 O81 2.035 . S
O76 Zn75 2.028 . S
O76 C82 1.247 . S
O77 Zn73 2.035 . S
O77 C82 1.258 . S
O78 C71 1.247 . S
O78 Zn75 2.028 . S
O79 C71 1.258 . S
O79 Zn73 2.035 . S
O80 Zn73 2.028 . S
O80 C83 1.247 . S
O81 Zn75 2.035 . S
O81 C83 1.258 . S
C82 O76 1.247 . S
C82 O77 1.258 . S
C83 O80 1.247 . S
C83 O81 1.258 . S
Mg84 O91 2.141 . S
Mg84 O92 2.048 . S
Mg84 O93 2.048 . S
Mg84 O96 2.141 . S
C85 O86 1.313 . S
C85 O92 1.195 . S
O86 C85 1.313 . S
C87 O88 1.245 . S
C87 O96 1.289 . S
O88 C87 1.245 . S
C89 O90 1.245 . S
C89 O91 1.289 . S
O90 C89 1.245 . S
O91 Mg84 2.141 . S
O91 C89 1.289 . S
O92 Mg84 2.048 . S
O92 C85 1.195 . S
O93 Mg84 2.048 . S
O93 C94 1.195 . S
C94 O93 1.195 . S
C94 O95 1.313 . S
O95 C94 1.313 . S
O96 Mg84 2.141 . S
O96 C87 1.289 . S
Mg97 O104 2.141 . S
Mg97 O105 2.048 . S
Mg97 O106 2.048 . S
Mg97 O109 2.141 . S
C98 O99 1.313 . S
C98 O105 1.195 . S
O99 C98 1.313 . S
C100 O101 1.245 . S
C100 O109 1.289 . S
O101 C100 1.245 . S
C102 O103 1.245 . S
C102 O104 1.289 . S
O103 C102 1.245 . S
O104 Mg97 2.141 . S
O104 C102 1.289 . S
O105 Mg97 2.048 . S
O105 C98 1.195 . S
O106 Mg97 2.048 . S
O106 C107 1.195 . S
C107 O106 1.195 . S
C107 O108 1.313 . S
O108 C107 1.313 . S
O109 Mg97 2.141 . S
O109 C100 1.289 . S
Mg110 O117 2.141 . S
Mg110 O118 2.048 . S
Mg110 O119 2.048 . S
Mg110 O122 2.141 . S
C111 O112 1.313 . S
C111 O118 1.195 . S
O112 C111 1.313 . S
C113 O114 1.245 . S
C113 O122 1.289 . S
O114 C113 1.245 . S
C115 O116 1.245 . S
C115 O117 1.289 . S
O116 C115 1.245 . S
O117 Mg110 2.141 . S
O117 C115 1.289 . S
O118 Mg110 2.048 . S
O118 C111 1.195 . S
O119 Mg110 2.048 . S
O119 C120 1.195 . S
C120 O119 1.195 . S
C120 O121 1.313 . S
O121 C120 1.313 . S
O122 Mg110 2.141 . S
O122 C113 1.289 . S
Mg123 O130 2.141 . S
Mg123 O131 2.048 . S
Mg123 O132 2.048 . S
Mg123 O135 2.141 . S
C124 O125 1.313 . S
C124 O131 1.195 . S
O125 C124 1.313 . S
C126 O127 1.245 . S
C126 O135 1.289 . S
O127 C126 1.245 . S
C128 O129 1.245 . S
C128 O130 1.289 . S
O129 C128 1.245 . S
O130 Mg123 2.141 . S
O130 C128 1.289 . S
O131 Mg123 2.048 . S
O131 C124 1.195 . S
O132 Mg123 2.048 . S
O132 C133 1.195 . S
C133 O132 1.195 . S
C133 O134 1.313 . S
O134 C133 1.313 . S
O135 Mg123 2.141 . S
O135 C126 1.289 . S
Mg136 O143 2.141 . S
Mg136 O144 2.048 . S
Mg136 O145 2.048 . S
Mg136 O148 2.141 . S
C137 O138 1.313 . S
C137 O144 1.195 . S
O138 C137 1.313 . S
C139 O140 1.245 . S
C139 O148 1.289 . S
O140 C139 1.245 . S
C141 O142 1.245 . S
C141 O143 1.289 . S
O142 C141 1.245 . S
O143 Mg136 2.141 . S
O143 C141 1.289 . S
O144 Mg136 2.048 . S
O144 C137 1.195 . S
O145 Mg136 2.048 . S
O145 C146 1.195 . S
C146 O145 1.195 . S
C146 O147 1.313 . S
O147 C146 1.313 . S
O148 Mg136 2.141 . S
O148 C139 1.289 . S
Mg149 O156 2.141 . S
Mg149 O157 2.048 . S
Mg149 O158 2.048 . S
Mg149 O161 2.141 . S
C150 O151 1.313 . S
C150 O157 1.195 . S
O151 C150 1.313 . S
C152 O153 1.245 . S
C152 O161 1.289 . S
O153 C152 1.245 . S
C154 O155 1.245 . S
C154 O156 1.289 . S
O155 C154 1.245 . S
O156 Mg149 2.141 . S
O156 C154 1.289 . S
O157 Mg149 2.048 . S
O157 C150 1.195 . S
O158 Mg149 2.048 . S
O158 C159 1.195 . S
C159 O158 1.195 . S
C159 O160 1.313 . S
O160 C159 1.313 . S
O161 Mg149 2.141 . S
O161 C152 1.289 . S
H162 C168 0.930 . S
H163 C172 0.930 . S
H164 C177 0.929 . S
H165 C175 0.929 . S
H166 C170 0.929 . S
H167 C176 0.929 . S
C168 H162 0.930 . S
C168 C169 1.367 . S
C168 C176 1.378 . S
C169 C168 1.367 . S
C169 C177 1.433 . S
C170 H166 0.929 . S
C170 C172 1.378 . S
C170 C174 1.350 . S
C171 C174 1.463 . S
C171 C176 1.350 . S
C171 N179 1.427 . S
C172 H163 0.930 . S
C172 C170 1.378 . S
C172 C173 1.367 . S
C173 C172 1.367 . S
C173 C175 1.433 . S
C174 C170 1.350 . S
C174 C171 1.463 . S
C174 N178 1.427 . S
C175 H165 0.929 . S
C175 C173 1.433 . S
C175 N178 1.384 . S
C176 H167 0.929 . S
C176 C168 1.378 . S
C176 C171 1.350 . S
C177 H164 0.929 . S
C177 C169 1.433 . S
C177 N179 1.384 . S
N178 C174 1.427 . S
N178 C175 1.384 . S
N179 C171 1.427 . S
N179 C177 1.384 . S
H180 C186 0.930 . S
H181 C190 0.930 . S
H182 C195 0.929 . S
H183 C193 0.929 . S
H184 C188 0.929 . S
H185 C194 0.929 . S
C186 H180 0.930 . S
C186 C187 1.367 . S
C186 C194 1.378 . S
C187 C186 1.367 . S
C187 C195 1.433 . S
C188 H184 0.929 . S
C188 C190 1.378 . S
C188 C192 1.350 . S
C189 C192 1.463 . S
C189 C194 1.350 . S
C189 N197 1.427 . S
C190 H181 0.930 . S
C190 C188 1.378 . S
C190 C191 1.367 . S
C191 C190 1.367 . S
C191 C193 1.433 . S
C192 C188 1.350 . S
C192 C189 1.463 . S
C192 N196 1.427 . S
C193 H183 0.929 . S
C193 C191 1.433 . S
C193 N196 1.384 . S
C194 H185 0.929 . S
C194 C186 1.378 . S
C194 C189 1.350 . S
C195 H182 0.929 . S
C195 C187 1.433 . S
C195 N197 1.384 . S
N196 C192 1.427 . S
N196 C193 1.384 . S
N197 C189 1.427 . S
N197 C195 1.384 . S
H198 C204 0.930 . S
H199 C208 0.930 . S
H200 C213 0.929 . S
H201 C211 0.929 . S
H202 C206 0.929 . S
H203 C212 0.929 . S
C204 H198 0.930 . S
C204 C205 1.367 . S
C204 C212 1.378 . S
C205 C204 1.367 . S
C205 C213 1.433 . S
C206 H202 0.929 . S
C206 C208 1.378 . S
C206 C210 1.350 . S
C207 C210 1.463 . S
C207 C212 1.350 . S
C207 N215 1.427 . S
C208 H199 0.930 . S
C208 C206 1.378 . S
C208 C209 1.367 . S
C209 C208 1.367 . S
C209 C211 1.433 . S
C210 C206 1.350 . S
C210 C207 1.463 . S
C210 N214 1.427 . S
C211 H201 0.929 . S
C211 C209 1.433 . S
C211 N214 1.384 . S
C212 H203 0.929 . S
C212 C204 1.378 . S
C212 C207 1.350 . S
C213 H200 0.929 . S
C213 C205 1.433 . S
C213 N215 1.384 . S
N214 C210 1.427 . S
N214 C211 1.384 . S
N215 C207 1.427 . S
N215 C213 1.384 . S
H216 C222 0.930 . S
H217 C226 0.930 . S
H218 C231 0.929 . S
H219 C229 0.929 . S
H220 C224 0.929 . S
H221 C230 0.929 . S
C222 H216 0.930 . S
C222 C223 1.367 . S
C222 C230 1.378 . S
C223 C222 1.367 . S
C223 C231 1.433 . S
C224 H220 0.929 . S
C224 C226 1.378 . S
C224 C228 1.350 . S
C225 C228 1.463 . S
C225 C230 1.350 . S
C225 N233 1.427 . S
C226 H217 0.930 . S
C226 C224 1.378 . S
C226 C227 1.367 . S
C227 C226 1.367 . S
C227 C229 1.433 . S
C228 C224 1.350 . S
C228 C225 1.463 . S
C228 N232 1.427 . S
C229 H219 0.929 . S
C229 C227 1.433 . S
C229 N232 1.384 . S
C230 H221 0.929 . S
C230 C222 1.378 . S
C230 C225 1.350 . S
C231 H218 0.929 . S
C231 C223 1.433 . S
C231 N233 1.384 . S
N232 C228 1.427 . S
N232 C229 1.384 . S
N233 C225 1.427 . S
N233 C231 1.384 . S
H234 C240 0.930 . S
H235 C244 0.930 . S
H236 C249 0.929 1_545 S
H237 C247 0.929 . S
H238 C242 0.929 . S
H239 C248 0.929 . S
C240 H234 0.930 . S
C240 C241 1.367 . S
C240 C248 1.378 . S
C241 C240 1.367 . S
C241 C249 1.433 . S
C242 H238 0.929 . S
C242 C244 1.378 . S
C242 C246 1.350 . S
C243 C246 1.463 . S
C243 C248 1.350 . S
C243 N251 1.427 . S
C244 H235 0.930 . S
C244 C242 1.378 . S
C244 C245 1.367 . S
C245 C244 1.367 . S
C245 C247 1.433 . S
C246 C242 1.350 . S
C246 C243 1.463 . S
C246 N250 1.427 . S
C247 H237 0.929 . S
C247 C245 1.433 . S
C247 N250 1.384 . S
C248 H239 0.929 . S
C248 C240 1.378 . S
C248 C243 1.350 . S
C249 H236 0.929 1_565 S
C249 C241 1.433 . S
C249 N251 1.384 . S
N250 C246 1.427 . S
N250 C247 1.384 . S
N251 C243 1.427 . S
N251 C249 1.384 . S
H252 C258 0.930 . S
H253 C262 0.930 . S
H254 C267 0.929 . S
H255 C265 0.929 . S
H256 C260 0.929 . S
H257 C266 0.929 . S
C258 H252 0.930 . S
C258 C259 1.367 . S
C258 C266 1.378 . S
C259 C258 1.367 . S
C259 C267 1.433 . S
C260 H256 0.929 . S
C260 C262 1.378 . S
C260 C264 1.350 . S
C261 C264 1.463 . S
C261 C266 1.350 . S
C261 N269 1.427 . S
C262 H253 0.930 . S
C262 C260 1.378 . S
C262 C263 1.367 . S
C263 C262 1.367 . S
C263 C265 1.433 . S
C264 C260 1.350 . S
C264 C261 1.463 . S
C264 N268 1.427 . S
C265 H255 0.929 . S
C265 C263 1.433 . S
C265 N268 1.384 . S
C266 H257 0.929 . S
C266 C258 1.378 . S
C266 C261 1.350 . S
C267 H254 0.929 . S
C267 C259 1.433 . S
C267 N269 1.384 . S
N268 C264 1.427 . S
N268 C265 1.384 . S
N269 C261 1.427 . S
N269 C267 1.384 . S
H270 C276 0.930 . S
H271 C280 0.930 . S
H272 C285 0.929 . S
H273 C283 0.929 . S
H274 C278 0.929 . S
H275 C284 0.929 . S
C276 H270 0.930 . S
C276 C277 1.367 . S
C276 C284 1.378 . S
C277 C276 1.367 . S
C277 C285 1.433 . S
C278 H274 0.929 . S
C278 C280 1.378 . S
C278 C282 1.350 . S
C279 C282 1.463 . S
C279 C284 1.350 . S
C279 N287 1.427 . S
C280 H271 0.930 . S
C280 C278 1.378 . S
C280 C281 1.367 . S
C281 C280 1.367 . S
C281 C283 1.433 . S
C282 C278 1.350 . S
C282 C279 1.463 . S
C282 N286 1.427 . S
C283 H273 0.929 . S
C283 C281 1.433 . S
C283 N286 1.384 . S
C284 H275 0.929 . S
C284 C276 1.378 . S
C284 C279 1.350 . S
C285 H272 0.929 . S
C285 C277 1.433 . S
C285 N287 1.384 . S
N286 C282 1.427 . S
N286 C283 1.384 . S
N287 C279 1.427 . S
N287 C285 1.384 . S
H288 C294 0.930 . S
H289 C298 0.930 . S
H290 C303 0.929 . S
H291 C301 0.929 . S
H292 C296 0.929 . S
H293 C302 0.929 . S
C294 H288 0.930 . S
C294 C295 1.367 . S
C294 C302 1.378 . S
C295 C294 1.367 . S
C295 C303 1.433 . S
C296 H292 0.929 . S
C296 C298 1.378 . S
C296 C300 1.350 . S
C297 C300 1.463 . S
C297 C302 1.350 . S
C297 N305 1.427 . S
C298 H289 0.930 . S
C298 C296 1.378 . S
C298 C299 1.367 . S
C299 C298 1.367 . S
C299 C301 1.433 . S
C300 C296 1.350 . S
C300 C297 1.463 . S
C300 N304 1.427 . S
C301 H291 0.929 . S
C301 C299 1.433 . S
C301 N304 1.384 . S
C302 H293 0.929 . S
C302 C294 1.378 . S
C302 C297 1.350 . S
C303 H290 0.929 . S
C303 C295 1.433 . S
C303 N305 1.384 . S
N304 C300 1.427 . S
N304 C301 1.384 . S
N305 C297 1.427 . S
N305 C303 1.384 . S
H306 C312 0.930 . S
H307 C316 0.930 . S
H308 C321 0.929 . S
H309 C319 0.929 . S
H310 C314 0.929 . S
H311 C320 0.929 . S
C312 H306 0.930 . S
C312 C313 1.367 . S
C312 C320 1.378 . S
C313 C312 1.367 . S
C313 C321 1.433 . S
C314 H310 0.929 . S
C314 C316 1.378 . S
C314 C318 1.350 . S
C315 C318 1.463 . S
C315 C320 1.350 . S
C315 N323 1.427 . S
C316 H307 0.930 . S
C316 C314 1.378 . S
C316 C317 1.367 . S
C317 C316 1.367 . S
C317 C319 1.433 . S
C318 C314 1.350 . S
C318 C315 1.463 . S
C318 N322 1.427 . S
C319 H309 0.929 . S
C319 C317 1.433 . S
C319 N322 1.384 . S
C320 H311 0.929 . S
C320 C312 1.378 . S
C320 C315 1.350 . S
C321 H308 0.929 . S
C321 C313 1.433 . S
C321 N323 1.384 . S
N322 C318 1.427 . S
N322 C319 1.384 . S
N323 C315 1.427 . S
N323 C321 1.384 . S
H324 C330 0.930 . S
H325 C334 0.930 . S
H326 C339 0.929 . S
H327 C337 0.929 . S
H328 C332 0.929 . S
H329 C338 0.929 . S
C330 H324 0.930 . S
C330 C331 1.367 . S
C330 C338 1.378 . S
C331 C330 1.367 . S
C331 C339 1.433 . S
C332 H328 0.929 . S
C332 C334 1.378 . S
C332 C336 1.350 . S
C333 C336 1.463 . S
C333 C338 1.350 . S
C333 N341 1.427 . S
C334 H325 0.930 . S
C334 C332 1.378 . S
C334 C335 1.367 . S
C335 C334 1.367 . S
C335 C337 1.433 . S
C336 C332 1.350 . S
C336 C333 1.463 . S
C336 N340 1.427 . S
C337 H327 0.929 . S
C337 C335 1.433 . S
C337 N340 1.384 . S
C338 H329 0.929 . S
C338 C330 1.378 . S
C338 C333 1.350 . S
C339 H326 0.929 . S
C339 C331 1.433 . S
C339 N341 1.384 . S
N340 C336 1.427 . S
N340 C337 1.384 . S
N341 C333 1.427 . S
N341 C339 1.384 . S
H342 C348 0.930 . S
H343 C352 0.930 . S
H344 C357 0.929 . S
H345 C355 0.929 . S
H346 C350 0.929 . S
H347 C356 0.929 . S
C348 H342 0.930 . S
C348 C349 1.367 . S
C348 C356 1.378 . S
C349 C348 1.367 . S
C349 C357 1.433 . S
C350 H346 0.929 . S
C350 C352 1.378 . S
C350 C354 1.350 . S
C351 C354 1.463 . S
C351 C356 1.350 . S
C351 N359 1.427 . S
C352 H343 0.930 . S
C352 C350 1.378 . S
C352 C353 1.367 . S
C353 C352 1.367 . S
C353 C355 1.433 . S
C354 C350 1.350 . S
C354 C351 1.463 . S
C354 N358 1.427 . S
C355 H345 0.929 . S
C355 C353 1.433 . S
C355 N358 1.384 . S
C356 H347 0.929 . S
C356 C348 1.378 . S
C356 C351 1.350 . S
C357 H344 0.929 . S
C357 C349 1.433 . S
C357 N359 1.384 . S
N358 C354 1.427 . S
N358 C355 1.384 . S
N359 C351 1.427 . S
N359 C357 1.384 . S
H360 C366 0.930 . S
H361 C370 0.930 . S
H362 C375 0.929 . S
H363 C373 0.929 . S
H364 C368 0.929 . S
H365 C374 0.929 . S
C366 H360 0.930 . S
C366 C367 1.367 . S
C366 C374 1.378 . S
C367 C366 1.367 . S
C367 C375 1.433 . S
C368 H364 0.929 . S
C368 C370 1.378 . S
C368 C372 1.350 . S
C369 C372 1.463 . S
C369 C374 1.350 . S
C369 N377 1.427 . S
C370 H361 0.930 . S
C370 C368 1.378 . S
C370 C371 1.367 . S
C371 C370 1.367 . S
C371 C373 1.433 . S
C372 C368 1.350 . S
C372 C369 1.463 . S
C372 N376 1.427 . S
C373 H363 0.929 . S
C373 C371 1.433 . S
C373 N376 1.384 . S
C374 H365 0.929 . S
C374 C366 1.378 . S
C374 C369 1.350 . S
C375 H362 0.929 . S
C375 C367 1.433 . S
C375 N377 1.384 . S
N376 C372 1.427 . S
N376 C373 1.384 . S
N377 C369 1.427 . S
N377 C375 1.384 . S
H378 C384 0.930 . S
H379 C388 0.930 . S
H380 C393 0.929 . S
H381 C391 0.929 . S
H382 C386 0.929 . S
H383 C392 0.929 . S
C384 H378 0.930 . S
C384 C385 1.367 . S
C384 C392 1.378 . S
C385 C384 1.367 . S
C385 C393 1.433 . S
C386 H382 0.929 . S
C386 C388 1.378 . S
C386 C390 1.350 . S
C387 C390 1.463 . S
C387 C392 1.350 . S
C387 N395 1.427 . S
C388 H379 0.930 . S
C388 C386 1.378 . S
C388 C389 1.367 . S
C389 C388 1.367 . S
C389 C391 1.433 . S
C390 C386 1.350 . S
C390 C387 1.463 . S
C390 N394 1.427 . S
C391 H381 0.929 . S
C391 C389 1.433 . S
C391 N394 1.384 . S
C392 H383 0.929 . S
C392 C384 1.378 . S
C392 C387 1.350 . S
C393 H380 0.929 . S
C393 C385 1.433 . S
C393 N395 1.384 . S
N394 C390 1.427 . S
N394 C391 1.384 . S
N395 C387 1.427 . S
N395 C393 1.384 . S
H396 C402 0.930 1_545 S
H397 C406 0.930 . S
H398 C411 0.929 . S
H399 C409 0.929 . S
H400 C404 0.929 . S
H401 C410 0.929 . S
C402 H396 0.930 1_565 S
C402 C403 1.367 . S
C402 C410 1.378 . S
C403 C402 1.367 . S
C403 C411 1.433 . S
C404 H400 0.929 . S
C404 C406 1.378 . S
C404 C408 1.350 . S
C405 C408 1.463 . S
C405 C410 1.350 . S
C405 N413 1.427 . S
C406 H397 0.930 . S
C406 C404 1.378 . S
C406 C407 1.367 . S
C407 C406 1.367 . S
C407 C409 1.433 . S
C408 C404 1.350 . S
C408 C405 1.463 . S
C408 N412 1.427 . S
C409 H399 0.929 . S
C409 C407 1.433 . S
C409 N412 1.384 . S
C410 H401 0.929 . S
C410 C402 1.378 . S
C410 C405 1.350 . S
C411 H398 0.929 . S
C411 C403 1.433 . S
C411 N413 1.384 . S
N412 C408 1.427 . S
N412 C409 1.384 . S
N413 C405 1.427 . S
N413 C411 1.384 . S
H414 C420 0.930 . S
H415 C424 0.930 . S
H416 C429 0.929 . S
H417 C427 0.929 . S
H418 C422 0.929 . S
H419 C428 0.929 . S
C420 H414 0.930 . S
C420 C421 1.367 . S
C420 C428 1.378 . S
C421 C420 1.367 . S
C421 C429 1.433 . S
C422 H418 0.929 . S
C422 C424 1.378 . S
C422 C426 1.350 . S
C423 C426 1.463 . S
C423 C428 1.350 . S
C423 N431 1.427 . S
C424 H415 0.930 . S
C424 C422 1.378 . S
C424 C425 1.367 . S
C425 C424 1.367 . S
C425 C427 1.433 . S
C426 C422 1.350 . S
C426 C423 1.463 . S
C426 N430 1.427 . S
C427 H417 0.929 . S
C427 C425 1.433 . S
C427 N430 1.384 . S
C428 H419 0.929 . S
C428 C420 1.378 . S
C428 C423 1.350 . S
C429 H416 0.929 . S
C429 C421 1.433 . S
C429 N431 1.384 . S
N430 C426 1.427 . S
N430 C427 1.384 . S
N431 C423 1.427 . S
N431 C429 1.384 . S
H432 C438 0.930 . S
H433 C442 0.930 . S
H434 C447 0.929 . S
H435 C445 0.929 . S
H436 C440 0.929 . S
H437 C446 0.929 . S
C438 H432 0.930 . S
C438 C439 1.367 . S
C438 C446 1.378 . S
C439 C438 1.367 . S
C439 C447 1.433 . S
C440 H436 0.929 . S
C440 C442 1.378 . S
C440 C444 1.350 . S
C441 C444 1.463 . S
C441 C446 1.350 . S
C441 N449 1.427 . S
C442 H433 0.930 . S
C442 C440 1.378 . S
C442 C443 1.367 . S
C443 C442 1.367 . S
C443 C445 1.433 . S
C444 C440 1.350 . S
C444 C441 1.463 . S
C444 N448 1.427 . S
C445 H435 0.929 . S
C445 C443 1.433 . S
C445 N448 1.384 . S
C446 H437 0.929 . S
C446 C438 1.378 . S
C446 C441 1.350 . S
C447 H434 0.929 . S
C447 C439 1.433 . S
C447 N449 1.384 . S
N448 C444 1.427 . S
N448 C445 1.384 . S
N449 C441 1.427 . S
N449 C447 1.384 . S
H450 C456 0.930 . S
H451 C460 0.930 . S
H452 C465 0.929 . S
H453 C463 0.929 . S
H454 C458 0.929 . S
H455 C464 0.929 . S
C456 H450 0.930 . S
C456 C457 1.367 . S
C456 C464 1.378 . S
C457 C456 1.367 . S
C457 C465 1.433 . S
C458 H454 0.929 . S
C458 C460 1.378 . S
C458 C462 1.350 . S
C459 C462 1.463 . S
C459 C464 1.350 . S
C459 N467 1.427 . S
C460 H451 0.930 . S
C460 C458 1.378 . S
C460 C461 1.367 . S
C461 C460 1.367 . S
C461 C463 1.433 . S
C462 C458 1.350 . S
C462 C459 1.463 . S
C462 N466 1.427 . S
C463 H453 0.929 . S
C463 C461 1.433 . S
C463 N466 1.384 . S
C464 H455 0.929 . S
C464 C456 1.378 . S
C464 C459 1.350 . S
C465 H452 0.929 . S
C465 C457 1.433 . S
C465 N467 1.384 . S
N466 C462 1.427 . S
N466 C463 1.384 . S
N467 C459 1.427 . S
N467 C465 1.384 . S
H468 C474 0.930 . S
H469 C478 0.930 . S
H470 C483 0.929 . S
H471 C481 0.929 . S
H472 C476 0.929 . S
H473 C482 0.929 . S
C474 H468 0.930 . S
C474 C475 1.367 . S
C474 C482 1.378 . S
C475 C474 1.367 . S
C475 C483 1.433 . S
C476 H472 0.929 . S
C476 C478 1.378 . S
C476 C480 1.350 . S
C477 C480 1.463 . S
C477 C482 1.350 . S
C477 N485 1.427 . S
C478 H469 0.930 . S
C478 C476 1.378 . S
C478 C479 1.367 . S
C479 C478 1.367 . S
C479 C481 1.433 . S
C480 C476 1.350 . S
C480 C477 1.463 . S
C480 N484 1.427 . S
C481 H471 0.929 . S
C481 C479 1.433 . S
C481 N484 1.384 . S
C482 H473 0.929 . S
C482 C474 1.378 . S
C482 C477 1.350 . S
C483 H470 0.929 . S
C483 C475 1.433 . S
C483 N485 1.384 . S
N484 C480 1.427 . S
N484 C481 1.384 . S
N485 C477 1.427 . S
N485 C483 1.384 . S
H486 C492 0.930 . S
H487 C496 0.930 . S
H488 C501 0.929 . S
H489 C499 0.929 . S
H490 C494 0.929 . S
H491 C500 0.929 . S
C492 H486 0.930 . S
C492 C493 1.367 . S
C492 C500 1.378 . S
C493 C492 1.367 . S
C493 C501 1.433 . S
C494 H490 0.929 . S
C494 C496 1.378 . S
C494 C498 1.350 . S
C495 C498 1.463 . S
C495 C500 1.350 . S
C495 N503 1.427 . S
C496 H487 0.930 . S
C496 C494 1.378 . S
C496 C497 1.367 . S
C497 C496 1.367 . S
C497 C499 1.433 . S
C498 C494 1.350 . S
C498 C495 1.463 . S
C498 N502 1.427 . S
C499 H489 0.929 . S
C499 C497 1.433 . S
C499 N502 1.384 . S
C500 H491 0.929 . S
C500 C492 1.378 . S
C500 C495 1.350 . S
C501 H488 0.929 . S
C501 C493 1.433 . S
C501 N503 1.384 . S
N502 C498 1.427 . S
N502 C499 1.384 . S
N503 C495 1.427 . S
N503 C501 1.384 . S
H504 C510 0.930 . S
H505 C514 0.930 . S
H506 C519 0.929 . S
H507 C517 0.929 . S
H508 C512 0.929 . S
H509 C518 0.929 . S
C510 H504 0.930 . S
C510 C511 1.367 . S
C510 C518 1.378 . S
C511 C510 1.367 . S
C511 C519 1.433 . S
C512 H508 0.929 . S
C512 C514 1.378 . S
C512 C516 1.350 . S
C513 C516 1.463 . S
C513 C518 1.350 . S
C513 N521 1.427 . S
C514 H505 0.930 . S
C514 C512 1.378 . S
C514 C515 1.367 . S
C515 C514 1.367 . S
C515 C517 1.433 . S
C516 C512 1.350 . S
C516 C513 1.463 . S
C516 N520 1.427 . S
C517 H507 0.929 . S
C517 C515 1.433 . S
C517 N520 1.384 . S
C518 H509 0.929 . S
C518 C510 1.378 . S
C518 C513 1.350 . S
C519 H506 0.929 . S
C519 C511 1.433 . S
C519 N521 1.384 . S
N520 C516 1.427 . S
N520 C517 1.384 . S
N521 C513 1.427 . S
N521 C519 1.384 . S
H522 C528 0.930 . S
H523 C532 0.930 . S
H524 C537 0.929 . S
H525 C535 0.929 . S
H526 C530 0.929 . S
H527 C536 0.929 . S
C528 H522 0.930 . S
C528 C529 1.367 . S
C528 C536 1.378 . S
C529 C528 1.367 . S
C529 C537 1.433 . S
C530 H526 0.929 . S
C530 C532 1.378 . S
C530 C534 1.350 . S
C531 C534 1.463 . S
C531 C536 1.350 . S
C531 N539 1.427 . S
C532 H523 0.930 . S
C532 C530 1.378 . S
C532 C533 1.367 . S
C533 C532 1.367 . S
C533 C535 1.433 . S
C534 C530 1.350 . S
C534 C531 1.463 . S
C534 N538 1.427 . S
C535 H525 0.929 . S
C535 C533 1.433 . S
C535 N538 1.384 . S
C536 H527 0.929 . S
C536 C528 1.378 . S
C536 C531 1.350 . S
C537 H524 0.929 . S
C537 C529 1.433 . S
C537 N539 1.384 . S
N538 C534 1.427 . S
N538 C535 1.384 . S
N539 C531 1.427 . S
N539 C537 1.384 . S
H540 C546 0.930 . S
H541 C550 0.930 . S
H542 C555 0.929 . S
H543 C553 0.929 . S
H544 C548 0.929 . S
H545 C554 0.929 . S
C546 H540 0.930 . S
C546 C547 1.367 . S
C546 C554 1.378 . S
C547 C546 1.367 . S
C547 C555 1.433 . S
C548 H544 0.929 . S
C548 C550 1.378 . S
C548 C552 1.350 . S
C549 C552 1.463 . S
C549 C554 1.350 . S
C549 N557 1.427 . S
C550 H541 0.930 . S
C550 C548 1.378 . S
C550 C551 1.367 . S
C551 C550 1.367 . S
C551 C553 1.433 . S
C552 C548 1.350 . S
C552 C549 1.463 . S
C552 N556 1.427 . S
C553 H543 0.929 . S
C553 C551 1.433 . S
C553 N556 1.384 . S
C554 H545 0.929 . S
C554 C546 1.378 . S
C554 C549 1.350 . S
C555 H542 0.929 . S
C555 C547 1.433 . S
C555 N557 1.384 . S
N556 C552 1.427 . S
N556 C553 1.384 . S
N557 C549 1.427 . S
N557 C555 1.384 . S
H558 C564 0.930 . S
H559 C568 0.930 . S
H560 C573 0.929 . S
H561 C571 0.929 . S
H562 C566 0.929 . S
H563 C572 0.929 . S
C564 H558 0.930 . S
C564 C565 1.367 . S
C564 C572 1.378 . S
C565 C564 1.367 . S
C565 C573 1.433 . S
C566 H562 0.929 . S
C566 C568 1.378 . S
C566 C570 1.350 . S
C567 C570 1.463 . S
C567 C572 1.350 . S
C567 N575 1.427 . S
C568 H559 0.930 . S
C568 C566 1.378 . S
C568 C569 1.367 . S
C569 C568 1.367 . S
C569 C571 1.433 . S
C570 C566 1.350 . S
C570 C567 1.463 . S
C570 N574 1.427 . S
C571 H561 0.929 . S
C571 C569 1.433 . S
C571 N574 1.384 . S
C572 H563 0.929 . S
C572 C564 1.378 . S
C572 C567 1.350 . S
C573 H560 0.929 . S
C573 C565 1.433 . S
C573 N575 1.384 . S
N574 C570 1.427 . S
N574 C571 1.384 . S
N575 C567 1.427 . S
N575 C573 1.384 . S
H576 C582 0.930 . S
H577 C586 0.930 . S
H578 C591 0.929 . S
H579 C589 0.929 . S
H580 C584 0.929 . S
H581 C590 0.929 . S
C582 H576 0.930 . S
C582 C583 1.367 . S
C582 C590 1.378 . S
C583 C582 1.367 . S
C583 C591 1.433 . S
C584 H580 0.929 . S
C584 C586 1.378 . S
C584 C588 1.350 . S
C585 C588 1.463 . S
C585 C590 1.350 . S
C585 N593 1.427 . S
C586 H577 0.930 . S
C586 C584 1.378 . S
C586 C587 1.367 . S
C587 C586 1.367 . S
C587 C589 1.433 . S
C588 C584 1.350 . S
C588 C585 1.463 . S
C588 N592 1.427 . S
C589 H579 0.929 . S
C589 C587 1.433 . S
C589 N592 1.384 . S
C590 H581 0.929 . S
C590 C582 1.378 . S
C590 C585 1.350 . S
C591 H578 0.929 . S
C591 C583 1.433 . S
C591 N593 1.384 . S
N592 C588 1.427 . S
N592 C589 1.384 . S
N593 C585 1.427 . S
N593 C591 1.384 . S
C169 C13 1.683 . S
C173 C85 1.672 . S
C187 C27 1.684 . S
C191 C98 1.673 . S
C209 C120 1.614 . S
C205 C29 1.686 . S
C227 C133 1.616 . S
C223 C54 1.687 . S
C245 C146 1.616 . S
C241 C69 1.686 . S
C263 C159 1.611 . S
C259 C83 1.685 . S
C277 C15 1.679 . S
C281 C115 1.589 . S
C295 C41 1.682 . S
C299 C128 1.599 . S
C317 C141 1.595 . S
C313 C42 1.680 . S
C335 C154 1.583 . S
C331 C57 1.678 . S
C349 C71 1.678 . S
C353 C87 1.674 . S
C371 C100 1.677 . S
C367 C1 1.681 . S
C389 C126 1.596 . S
C385 C12 1.681 . S
C403 C26 1.679 . S
C407 C139 1.585 . S
C425 C152 1.584 . S
C421 C28 1.678 . S
C439 C55 1.682 . S
C443 C89 1.678 . S
C457 C68 1.679 . S
C461 C102 1.675 . S
C475 C82 1.678 . S
C479 C113 1.583 . S
C493 C14 1.684 . S
C497 C150 1.609 . S
C515 C94 1.674 . S
C511 C40 1.684 . S
C529 C43 1.687 . S
C533 C107 1.679 . S
C547 C56 1.684 . S
C551 C111 1.608 . S
C565 C70 1.684 . S
C569 C124 1.608 . S
C583 C0 1.684 . S
C587 C137 1.608 . S
