# Generated by pormake.
# Topology ant, (3,6)-cn, num edge types: 1
# Building blocks:
#     Node 0, Type 0, BuildingBlock: OLANEW_clean_sbu_2, # of connection points: 3
#     Node 1, Type 0, BuildingBlock: OLANEW_clean_sbu_2, # of connection points: 3
#     Node 2, Type 0, BuildingBlock: OLANEW_clean_sbu_2, # of connection points: 3
#     Node 3, Type 0, BuildingBlock: OLANEW_clean_sbu_2, # of connection points: 3
#     Node 4, Type 0, BuildingBlock: OLANEW_clean_sbu_2, # of connection points: 3
#     Node 5, Type 0, BuildingBlock: OLANEW_clean_sbu_2, # of connection points: 3
#     Node 6, Type 0, BuildingBlock: OLANEW_clean_sbu_2, # of connection points: 3
#     Node 7, Type 0, BuildingBlock: OLANEW_clean_sbu_2, # of connection points: 3
#     Node 8, Type 1, BuildingBlock: MIDCAF_clean_sbu_0, # of connection points: 6
#     Node 9, Type 1, BuildingBlock: MIDCAF_clean_sbu_0, # of connection points: 6
#     Node 10, Type 1, BuildingBlock: MIDCAF_clean_sbu_0, # of connection points: 6
#     Node 11, Type 1, BuildingBlock: MIDCAF_clean_sbu_0, # of connection points: 6
#     Edge 12, Type (0, 1), BuildingBlock: MIFKUJ_clean_linker_0, # of connection points: 2
#     Edge 13, Type (0, 1), BuildingBlock: MIFKUJ_clean_linker_0, # of connection points: 2
#     Edge 14, Type (0, 1), BuildingBlock: MIFKUJ_clean_linker_0, # of connection points: 2
#     Edge 15, Type (0, 1), BuildingBlock: MIFKUJ_clean_linker_0, # of connection points: 2
#     Edge 16, Type (0, 1), BuildingBlock: MIFKUJ_clean_linker_0, # of connection points: 2
#     Edge 17, Type (0, 1), BuildingBlock: MIFKUJ_clean_linker_0, # of connection points: 2
#     Edge 18, Type (0, 1), BuildingBlock: MIFKUJ_clean_linker_0, # of connection points: 2
#     Edge 19, Type (0, 1), BuildingBlock: MIFKUJ_clean_linker_0, # of connection points: 2
#     Edge 20, Type (0, 1), BuildingBlock: MIFKUJ_clean_linker_0, # of connection points: 2
#     Edge 21, Type (0, 1), BuildingBlock: MIFKUJ_clean_linker_0, # of connection points: 2
#     Edge 22, Type (0, 1), BuildingBlock: MIFKUJ_clean_linker_0, # of connection points: 2
#     Edge 23, Type (0, 1), BuildingBlock: MIFKUJ_clean_linker_0, # of connection points: 2
#     Edge 24, Type (0, 1), BuildingBlock: MIFKUJ_clean_linker_0, # of connection points: 2
#     Edge 25, Type (0, 1), BuildingBlock: MIFKUJ_clean_linker_0, # of connection points: 2
#     Edge 26, Type (0, 1), BuildingBlock: MIFKUJ_clean_linker_0, # of connection points: 2
#     Edge 27, Type (0, 1), BuildingBlock: MIFKUJ_clean_linker_0, # of connection points: 2
#     Edge 28, Type (0, 1), BuildingBlock: MIFKUJ_clean_linker_0, # of connection points: 2
#     Edge 29, Type (0, 1), BuildingBlock: MIFKUJ_clean_linker_0, # of connection points: 2
#     Edge 30, Type (0, 1), BuildingBlock: MIFKUJ_clean_linker_0, # of connection points: 2
#     Edge 31, Type (0, 1), BuildingBlock: MIFKUJ_clean_linker_0, # of connection points: 2
#     Edge 32, Type (0, 1), BuildingBlock: MIFKUJ_clean_linker_0, # of connection points: 2
#     Edge 33, Type (0, 1), BuildingBlock: MIFKUJ_clean_linker_0, # of connection points: 2
#     Edge 34, Type (0, 1), BuildingBlock: MIFKUJ_clean_linker_0, # of connection points: 2
#     Edge 35, Type (0, 1), BuildingBlock: MIFKUJ_clean_linker_0, # of connection points: 2
# Relax obj value: 0.058
# Max RMSD: 0.137
# Mean RMSD: 0.096
data_MOF--net-ant--node1-OLANEW_clean_sbu_2--node2-MIDCAF_clean_sbu_0--edge1-MIFKUJ_clean_linker_0
_symmetry_space_group_name_H-M    P1
_symmetry_Int_Tables_number       1
_symmetry_cell_setting            triclinic
loop_
_symmetry_equiv_pos_as_xyz
'x, y, z'
_cell_length_a     40.123922
_cell_length_b     40.023645
_cell_length_c     94.297662
_cell_angle_alpha  93.012964
_cell_angle_beta   93.872672
_cell_angle_gamma 89.995424
loop_
_atom_site_label
_atom_site_type_symbol
_atom_site_fract_x
_atom_site_fract_y
_atom_site_fract_z
_atom_type_partial_charge
O0 O 0.29141 0.16675 0.04109 0.0
Cd1 Cd 0.33362 0.16192 0.06094 0.0
O2 O 0.29603 0.2215 0.04306 0.0
Cd3 Cd 0.28032 0.27219 0.03776 0.0
O4 O 0.26211 0.32373 0.0367 0.0
C5 C 0.23747 0.33216 0.04389 0.0
O6 O 0.22375 0.30954 0.05128 0.0
C7 C 0.28286 0.19531 0.03681 0.0
C8 C 0.33359 0.09867 0.07216 0.0
O9 O 0.31494 0.12223 0.07683 0.0
O10 O 0.3524 0.105 0.06217 0.0
O11 O 0.10112 0.81723 0.28871 0.0
Cd12 Cd 0.10295 0.82322 0.3147 0.0
O13 O 0.0463 0.81694 0.28495 0.0
Cd14 Cd 0.03297 0.81844 0.30699 0.0
O15 O 0.9907 0.80934 0.31968 0.0
C16 C 0.97634 0.781 0.31769 0.0
O17 O 0.98907 0.75832 0.30905 0.0
C18 C 0.07517 0.81596 0.28018 0.0
C19 C 0.16803 0.81189 0.32595 0.0
O20 O 0.14677 0.78795 0.32384 0.0
O21 O 0.1584 0.84138 0.32295 0.0
O22 O 0.68867 0.66856 0.55734 0.0
Cd23 Cd 0.7009 0.68138 0.58284 0.0
O24 O 0.71665 0.71025 0.54915 0.0
Cd25 Cd 0.72008 0.74378 0.56827 0.0
O26 O 0.71179 0.79622 0.57526 0.0
C27 C 0.71412 0.81782 0.56593 0.0
O28 O 0.72222 0.80766 0.55314 0.0
C29 C 0.7004 0.68295 0.54704 0.0
C30 C 0.71838 0.62192 0.59595 0.0
O31 O 0.68781 0.63069 0.59385 0.0
O32 O 0.74096 0.64157 0.59213 0.0
O33 O 0.58939 0.31179 0.8065 0.0
Cd34 Cd 0.59287 0.32345 0.83226 0.0
O35 O 0.56222 0.35795 0.80164 0.0
Cd36 Cd 0.54602 0.36321 0.82324 0.0
O37 O 0.50394 0.35315 0.83591 0.0
C38 C 0.49235 0.32349 0.83507 0.0
O39 O 0.50764 0.30031 0.82757 0.0
C40 C 0.57766 0.33192 0.79745 0.0
C41 C 0.66012 0.32149 0.8421 0.0
O42 O 0.64156 0.29534 0.84171 0.0
O43 O 0.64668 0.34883 0.83814 0.0
O44 O 0.98109 0.78254 0.9538 0.0
Cd45 Cd 0.95174 0.82393 0.93954 0.0
O46 O 0.95161 0.7412 0.94316 0.0
Cd47 Cd 0.93895 0.68873 0.93765 0.0
O48 O 0.93264 0.63874 0.92738 0.0
C49 C 0.91249 0.61689 0.93115 0.0
O50 O 0.89411 0.62409 0.94191 0.0
C51 C 0.97441 0.75144 0.95239 0.0
C52 C 0.99006 0.88135 0.93697 0.0
O53 O 0.97154 0.87891 0.94742 0.0
O54 O 0.99066 0.85655 0.92782 0.0
O55 O 0.69945 0.79818 0.20054 0.0
Cd56 Cd 0.70218 0.80946 0.17544 0.0
O57 O 0.66469 0.75611 0.19511 0.0
Cd58 Cd 0.64675 0.7717 0.17404 0.0
O59 O 0.60057 0.7798 0.16084 0.0
C60 C 0.57624 0.79178 0.16743 0.0
O61 O 0.58113 0.79992 0.1811 0.0
C62 C 0.68384 0.77272 0.2042 0.0
C63 C 0.76777 0.80132 0.16744 0.0
O64 O 0.75655 0.8303 0.17106 0.0
O65 O 0.74793 0.77623 0.16748 0.0
O66 O 0.50413 0.23668 0.46803 0.0
Cd67 Cd 0.47856 0.2681 0.44865 0.0
O68 O 0.47668 0.1926 0.45882 0.0
Cd69 Cd 0.46478 0.13935 0.45602 0.0
O70 O 0.461 0.08801 0.44713 0.0
C71 C 0.44152 0.08084 0.4362 0.0
O72 O 0.42263 0.10444 0.43078 0.0
C73 C 0.49707 0.2058 0.46842 0.0
C74 C 0.51115 0.32808 0.44452 0.0
O75 O 0.48655 0.32739 0.4525 0.0
O76 O 0.52067 0.30035 0.4387 0.0
O77 O 0.22295 0.41326 0.71619 0.0
Cd78 Cd 0.23842 0.43022 0.69304 0.0
O79 O 0.18104 0.38815 0.70401 0.0
Cd80 Cd 0.13364 0.36107 0.70093 0.0
O81 O 0.08415 0.34285 0.69321 0.0
C82 C 0.05842 0.35893 0.69674 0.0
O83 O 0.06221 0.38557 0.70546 0.0
C84 C 0.19688 0.3952 0.71592 0.0
C85 C 0.29855 0.402 0.68542 0.0
O86 O 0.29759 0.43164 0.69124 0.0
O87 O 0.27108 0.38561 0.68327 0.0
Zn88 Zn 0.18666 0.68107 0.12203 0.0
Zn89 Zn 0.13444 0.77754 0.09196 0.0
Zn90 Zn 0.16239 0.72976 0.10657 0.0
C91 C 0.13709 0.72035 0.07369 0.0
C92 C 0.19697 0.80069 0.10147 0.0
O93 O 0.13651 0.72994 0.12654 0.0
O94 O 0.16222 0.6917 0.13934 0.0
C95 C 0.1639 0.65053 0.09639 0.0
O96 O 0.14639 0.70713 0.08545 0.0
O97 O 0.1329 0.75158 0.07332 0.0
O98 O 0.16951 0.81156 0.09633 0.0
O99 O 0.19972 0.77015 0.1051 0.0
O100 O 0.17201 0.64267 0.10894 0.0
O101 O 0.16076 0.68158 0.09352 0.0
O102 O 0.21516 0.74368 0.11225 0.0
O103 O 0.23394 0.69732 0.12175 0.0
C104 C 0.23942 0.72625 0.11762 0.0
O105 O 0.1161 0.74672 0.11659 0.0
O106 O 0.09277 0.78268 0.10194 0.0
C107 C 0.14089 0.71478 0.13825 0.0
C108 C 0.0917 0.76619 0.11294 0.0
Zn109 Zn 0.55262 0.65835 0.3537 0.0
Zn110 Zn 0.60961 0.75208 0.39015 0.0
Zn111 Zn 0.57984 0.70564 0.37221 0.0
C112 C 0.54565 0.77514 0.38288 0.0
C113 C 0.64973 0.74448 0.36755 0.0
O114 O 0.5781 0.65733 0.38292 0.0
O115 O 0.55645 0.62069 0.3664 0.0
C116 C 0.50416 0.70838 0.35825 0.0
O117 O 0.54411 0.74736 0.37529 0.0
O118 O 0.57163 0.7832 0.39057 0.0
O119 O 0.64751 0.76262 0.3788 0.0
O120 O 0.62692 0.72255 0.36362 0.0
O121 O 0.50818 0.68031 0.35184 0.0
O122 O 0.52842 0.72234 0.36608 0.0
O123 O 0.60838 0.70296 0.35294 0.0
O124 O 0.58451 0.66298 0.33862 0.0
C125 C 0.6065 0.68554 0.34102 0.0
O126 O 0.59314 0.68168 0.39244 0.0
O127 O 0.61836 0.7223 0.40605 0.0
C128 C 0.56821 0.62738 0.37898 0.0
C129 C 0.60825 0.69243 0.4043 0.0
Zn130 Zn 0.64412 0.27236 0.60692 0.0
Zn131 Zn 0.68626 0.18774 0.64598 0.0
Zn132 Zn 0.66515 0.23131 0.62673 0.0
C133 C 0.73781 0.2342 0.64308 0.0
C134 C 0.67151 0.14967 0.62109 0.0
O135 O 0.61891 0.25449 0.63363 0.0
O136 O 0.60526 0.29027 0.61709 0.0
C137 C 0.70678 0.2955 0.61663 0.0
O138 O 0.71544 0.24728 0.63466 0.0
O139 O 0.73214 0.20733 0.64896 0.0
O140 O 0.67947 0.14611 0.63409 0.0
O141 O 0.66618 0.17921 0.61651 0.0
O142 O 0.68427 0.30043 0.60699 0.0
O143 O 0.70385 0.27133 0.62502 0.0
O144 O 0.65244 0.20124 0.60665 0.0
O145 O 0.63625 0.23865 0.59111 0.0
C146 C 0.64164 0.20865 0.59402 0.0
O147 O 0.63322 0.23646 0.64489 0.0
O148 O 0.65321 0.19996 0.66009 0.0
C149 C 0.59937 0.27711 0.62856 0.0
C150 C 0.63271 0.2228 0.65695 0.0
Zn151 Zn 0.06344 0.21138 0.85697 0.0
Zn152 Zn 0.10722 0.30954 0.8919 0.0
Zn153 Zn 0.08413 0.25969 0.87576 0.0
C154 C 0.10253 0.25348 0.90868 0.0
C155 C 0.04556 0.32961 0.8825 0.0
O156 O 0.11256 0.26249 0.8564 0.0
O157 O 0.08932 0.22472 0.84088 0.0
C158 C 0.08442 0.18087 0.88179 0.0
O159 O 0.09723 0.23809 0.8964 0.0
O160 O 0.10465 0.28503 0.90971 0.0
O161 O 0.07256 0.34294 0.88756 0.0
O162 O 0.04464 0.29838 0.87836 0.0
O163 O 0.07841 0.17366 0.86866 0.0
O164 O 0.08594 0.21172 0.88647 0.0
O165 O 0.03198 0.27133 0.86931 0.0
O166 O 0.01529 0.225 0.85701 0.0
C167 C 0.00876 0.25354 0.8625 0.0
O168 O 0.13212 0.27661 0.86812 0.0
O169 O 0.15166 0.31466 0.88442 0.0
C170 C 0.10973 0.24855 0.84372 0.0
C171 C 0.15567 0.29652 0.87332 0.0
H172 H 0.25943 0.38538 0.02976 0.0
H173 H 0.24103 0.44365 0.03202 0.0
H174 H 0.17009 0.41635 0.06185 0.0
H175 H 0.18761 0.35815 0.05935 0.0
H176 H 0.14319 0.46128 0.04494 0.0
H177 H 0.24895 0.44965 0.0726 0.0
H178 H 0.30881 0.43593 0.07595 0.0
H179 H 0.33181 0.50777 0.04575 0.0
H180 H 0.27198 0.52163 0.04211 0.0
H181 H 0.13586 0.58959 0.09814 0.0
H182 H 0.14121 0.5407 0.08187 0.0
H183 H 0.19187 0.60082 0.05329 0.0
H184 H 0.186 0.65027 0.06957 0.0
H185 H 0.22871 0.54532 0.06302 0.0
H186 H 0.12327 0.56605 0.04054 0.0
H187 H 0.06346 0.5804 0.03815 0.0
H188 H 0.03953 0.49271 0.05983 0.0
H189 H 0.09922 0.47788 0.06234 0.0
C190 C 0.23974 0.39177 0.03672 0.0
C191 C 0.22526 0.36715 0.0445 0.0
C192 C 0.22926 0.4251 0.03801 0.0
C193 C 0.20447 0.43453 0.04726 0.0
C194 C 0.18922 0.40976 0.05464 0.0
C195 C 0.19945 0.37646 0.05326 0.0
C196 C 0.19566 0.47028 0.05007 0.0
C197 C 0.16187 0.47966 0.04891 0.0
C198 C 0.22011 0.49468 0.05477 0.0
C199 C 0.25601 0.48633 0.05694 0.0
C200 C 0.26676 0.46232 0.06659 0.0
C201 C 0.30067 0.45456 0.06856 0.0
C202 C 0.32409 0.47088 0.06103 0.0
C203 C 0.31364 0.49508 0.05155 0.0
C204 C 0.27974 0.5029 0.04953 0.0
C205 C 0.14721 0.5926 0.08818 0.0
C206 C 0.16057 0.62359 0.08509 0.0
C207 C 0.15017 0.56469 0.07886 0.0
C208 C 0.16698 0.56711 0.06639 0.0
C209 C 0.17873 0.59849 0.06286 0.0
C210 C 0.17522 0.62668 0.0721 0.0
C211 C 0.17617 0.53592 0.0584 0.0
C212 C 0.21007 0.52728 0.05865 0.0
C213 C 0.15179 0.5122 0.05301 0.0
C214 C 0.11578 0.52094 0.05164 0.0
C215 C 0.10525 0.54995 0.04485 0.0
C216 C 0.07137 0.55815 0.04347 0.0
C217 C 0.04771 0.53755 0.04889 0.0
C218 C 0.05789 0.50864 0.05564 0.0
C219 C 0.09176 0.50026 0.05699 0.0
H220 H 0.02149 0.54394 0.04782 0.0
H221 H 0.35033 0.46485 0.06256 0.0
H222 H 0.94055 0.72264 0.31623 0.0
H223 H 0.8845 0.714 0.32407 0.0
H224 H 0.88199 0.81696 0.33999 0.0
H225 H 0.93828 0.82562 0.33246 0.0
H226 H 0.85624 0.77647 0.35806 0.0
H227 H 0.84691 0.78905 0.30745 0.0
H228 H 0.85996 0.77367 0.28281 0.0
H229 H 0.81363 0.67771 0.28539 0.0
H230 H 0.80183 0.69179 0.31031 0.0
H231 H 0.68612 0.80063 0.36497 0.0
H232 H 0.74061 0.80468 0.35508 0.0
H233 H 0.73674 0.69934 0.34276 0.0
H234 H 0.68206 0.69512 0.35275 0.0
H235 H 0.76533 0.73778 0.32267 0.0
H236 H 0.77755 0.72238 0.3728 0.0
H237 H 0.76691 0.73449 0.398 0.0
H238 H 0.80708 0.83347 0.3961 0.0
H239 H 0.81748 0.82212 0.37081 0.0
C240 C 0.92821 0.74337 0.32152 0.0
C241 C 0.94379 0.7749 0.32363 0.0
C242 C 0.89609 0.73842 0.32593 0.0
C243 C 0.8788 0.76501 0.33236 0.0
C244 C 0.8948 0.79613 0.33497 0.0
C245 C 0.92699 0.80105 0.33066 0.0
C246 C 0.84379 0.76077 0.33615 0.0
C247 C 0.83635 0.76835 0.35027 0.0
C248 C 0.81794 0.74927 0.32605 0.0
C249 C 0.82401 0.74128 0.31087 0.0
C250 C 0.83989 0.76448 0.30285 0.0
C251 C 0.8472 0.75593 0.28884 0.0
C252 C 0.83782 0.72465 0.28257 0.0
C253 C 0.82106 0.70186 0.29029 0.0
C254 C 0.81423 0.71004 0.30439 0.0
C255 C 0.69665 0.77844 0.35995 0.0
C256 C 0.6799 0.74757 0.3596 0.0
C257 C 0.72774 0.78078 0.35431 0.0
C258 C 0.74289 0.7522 0.3484 0.0
C259 C 0.72545 0.72167 0.3473 0.0
C260 C 0.69422 0.71931 0.35296 0.0
C261 C 0.77797 0.75387 0.3445 0.0
C262 C 0.78535 0.7458 0.33041 0.0
C263 C 0.80392 0.76468 0.35462 0.0
C264 C 0.79801 0.77149 0.36987 0.0
C265 C 0.78389 0.74681 0.37773 0.0
C266 C 0.77793 0.75353 0.39203 0.0
C267 C 0.78624 0.78476 0.39864 0.0
C268 C 0.80062 0.80931 0.39096 0.0
C269 C 0.80657 0.80274 0.37665 0.0
H270 H 0.78161 0.78992 0.40972 0.0
H271 H 0.84333 0.71818 0.27169 0.0
H272 H 0.6772 0.56879 0.59844 0.0
H273 H 0.69169 0.5143 0.60733 0.0
H274 H 0.79366 0.54709 0.61673 0.0
H275 H 0.77948 0.60144 0.60713 0.0
H276 H 0.7959 0.48808 0.60617 0.0
H277 H 0.73789 0.53491 0.6439 0.0
H278 H 0.69357 0.56504 0.65613 0.0
H279 H 0.62246 0.4893 0.64066 0.0
H280 H 0.66621 0.45895 0.62815 0.0
H281 H 0.72836 0.32652 0.64196 0.0
H282 H 0.75319 0.38242 0.64493 0.0
H283 H 0.76297 0.38199 0.59961 0.0
H284 H 0.74038 0.32561 0.59691 0.0
H285 H 0.71958 0.42968 0.63594 0.0
H286 H 0.80464 0.43744 0.58819 0.0
H287 H 0.85593 0.41129 0.57978 0.0
H288 H 0.88493 0.38374 0.62223 0.0
H289 H 0.83338 0.40886 0.63082 0.0
C290 C 0.70267 0.56455 0.60251 0.0
C291 C 0.72715 0.58951 0.60214 0.0
C292 C 0.71092 0.53337 0.6077 0.0
C293 C 0.74367 0.5266 0.61304 0.0
C294 C 0.76819 0.55161 0.61275 0.0
C295 C 0.76004 0.58271 0.60729 0.0
C296 C 0.75221 0.49286 0.61823 0.0
C297 C 0.77941 0.47543 0.61281 0.0
C298 C 0.73191 0.47663 0.62751 0.0
C299 C 0.70537 0.4947 0.63504 0.0
C300 C 0.71276 0.52477 0.64303 0.0
C301 C 0.68774 0.54188 0.65003 0.0
C302 C 0.65522 0.52911 0.64917 0.0
C303 C 0.64767 0.49916 0.64133 0.0
C304 C 0.67259 0.48195 0.6343 0.0
C305 C 0.73828 0.33734 0.63285 0.0
C306 C 0.73285 0.32155 0.61925 0.0
C307 C 0.75189 0.36968 0.63448 0.0
C308 C 0.75977 0.3869 0.62249 0.0
C309 C 0.75775 0.36948 0.60912 0.0
C310 C 0.74459 0.33711 0.60754 0.0
C311 C 0.76207 0.4242 0.62317 0.0
C312 C 0.73674 0.44246 0.62964 0.0
C313 C 0.78497 0.44152 0.61541 0.0
C314 C 0.81511 0.42493 0.61012 0.0
C315 C 0.8219 0.42566 0.59571 0.0
C316 C 0.85093 0.41087 0.5909 0.0
C317 C 0.8736 0.39575 0.60046 0.0
C318 C 0.86724 0.39529 0.61483 0.0
C319 C 0.83794 0.40946 0.61964 0.0
H320 H 0.89614 0.38445 0.59673 0.0
H321 H 0.63588 0.5424 0.65459 0.0
H322 H 0.69531 0.26735 0.85122 0.0
H323 H 0.7554 0.26336 0.85679 0.0
H324 H 0.76709 0.36741 0.84828 0.0
H325 H 0.70684 0.37154 0.84251 0.0
H326 H 0.81216 0.32962 0.83526 0.0
H327 H 0.77649 0.34252 0.88227 0.0
H328 H 0.74284 0.33159 0.90248 0.0
H329 H 0.77878 0.23055 0.90256 0.0
H330 H 0.8123 0.24071 0.88222 0.0
H331 H 0.98605 0.31657 0.85757 0.0
H332 H 0.92782 0.33576 0.85649 0.0
H333 H 0.89498 0.23543 0.86314 0.0
H334 H 0.95305 0.2167 0.8648 0.0
H335 H 0.86212 0.28081 0.87905 0.0
H336 H 0.89131 0.26671 0.82991 0.0
H337 H 0.92499 0.27789 0.80972 0.0
H338 H 0.90126 0.38239 0.81408 0.0
H339 H 0.86775 0.37186 0.83441 0.0
C340 C 0.71056 0.28951 0.85066 0.0
C341 C 0.69625 0.31977 0.84642 0.0
C342 C 0.74494 0.28723 0.85392 0.0
C343 C 0.76574 0.31519 0.8531 0.0
C344 C 0.75151 0.34555 0.84902 0.0
C345 C 0.71706 0.34787 0.84577 0.0
C346 C 0.80248 0.31199 0.85581 0.0
C347 C 0.82315 0.3196 0.84497 0.0
C348 C 0.81685 0.29859 0.8684 0.0
C349 C 0.79674 0.29233 0.88065 0.0
C350 C 0.77703 0.31789 0.88653 0.0
C351 C 0.75801 0.31184 0.89802 0.0
C352 C 0.75863 0.28038 0.90378 0.0
C353 C 0.77832 0.25491 0.89808 0.0
C354 C 0.79737 0.26081 0.88658 0.0
C355 C 0.96635 0.2989 0.85909 0.0
C356 C 0.97394 0.26539 0.86156 0.0
C357 C 0.93313 0.30973 0.8583 0.0
C358 C 0.90702 0.28699 0.85971 0.0
C359 C 0.9147 0.25346 0.86212 0.0
C360 C 0.94783 0.24273 0.86296 0.0
C361 C 0.87152 0.29749 0.85835 0.0
C362 C 0.85112 0.29132 0.86945 0.0
C363 C 0.85742 0.31227 0.84603 0.0
C364 C 0.87734 0.31856 0.83376 0.0
C365 C 0.89347 0.2921 0.82662 0.0
C366 C 0.9125 0.29831 0.81514 0.0
C367 C 0.91534 0.33085 0.81065 0.0
C368 C 0.89908 0.35722 0.81759 0.0
C369 C 0.88005 0.35114 0.82908 0.0
H370 H 0.93009 0.33561 0.80177 0.0
H371 H 0.74389 0.27575 0.91268 0.0
H372 H 0.94401 0.59603 0.90756 0.0
H373 H 0.94547 0.53986 0.89647 0.0
H374 H 0.87908 0.50509 0.92672 0.0
H375 H 0.87779 0.56157 0.93808 0.0
H376 H 0.93224 0.46608 0.92538 0.0
H377 H 0.85253 0.5053 0.8913 0.0
H378 H 0.82589 0.54397 0.8745 0.0
H379 H 0.9102 0.53566 0.84884 0.0
H380 H 0.93762 0.49736 0.86558 0.0
H381 H 0.98511 0.31482 0.89231 0.0
H382 H 0.94035 0.35507 0.8971 0.0
H383 H 0.99467 0.43141 0.87753 0.0
H384 H 0.03896 0.39146 0.87275 0.0
H385 H 0.92621 0.43947 0.87328 0.0
H386 H 0.01061 0.41842 0.91242 0.0
H387 H 0.03919 0.38106 0.92932 0.0
H388 H 0.94505 0.35617 0.94527 0.0
H389 H 0.91592 0.39313 0.92832 0.0
C390 C 0.92935 0.5766 0.91178 0.0
C391 C 0.91095 0.58327 0.92377 0.0
C392 C 0.92992 0.54449 0.90532 0.0
C393 C 0.91196 0.5183 0.91061 0.0
C394 C 0.8929 0.52498 0.92238 0.0
C395 C 0.89224 0.55725 0.92887 0.0
C396 C 0.91653 0.48357 0.90475 0.0
C397 C 0.92979 0.45989 0.91402 0.0
C398 C 0.91352 0.47542 0.88992 0.0
C399 C 0.89717 0.49844 0.87974 0.0
C400 C 0.8655 0.51186 0.88212 0.0
C401 C 0.85024 0.53371 0.8726 0.0
C402 C 0.86635 0.54227 0.86061 0.0
C403 C 0.89774 0.52897 0.85812 0.0
C404 C 0.91312 0.50712 0.86761 0.0
C405 C 0.98673 0.33991 0.88862 0.0
C406 C 0.01533 0.35029 0.88223 0.0
C407 C 0.96128 0.36283 0.89136 0.0
C408 C 0.96442 0.39632 0.88781 0.0
C409 C 0.99166 0.40571 0.88031 0.0
C410 C 0.01704 0.38297 0.87766 0.0
C411 C 0.94329 0.42307 0.89387 0.0
C412 C 0.92709 0.44524 0.88467 0.0
C413 C 0.94359 0.42996 0.90875 0.0
C414 C 0.9611 0.40815 0.91903 0.0
C415 C 0.99604 0.40483 0.91949 0.0
C416 C 0.01232 0.38375 0.92907 0.0
C417 C 0.99393 0.36617 0.93833 0.0
C418 C 0.95924 0.36974 0.93806 0.0
C419 C 0.94283 0.39073 0.92848 0.0
H420 H 0.00657 0.34985 0.94574 0.0
H421 H 0.85449 0.55919 0.85325 0.0
H422 H 0.80368 0.74332 0.1656 0.0
H423 H 0.86094 0.73624 0.15838 0.0
H424 H 0.86736 0.84206 0.15246 0.0
H425 H 0.81042 0.8495 0.15992 0.0
H426 H 0.88616 0.7988 0.12889 0.0
H427 H 0.90846 0.81556 0.17976 0.0
H428 H 0.90185 0.80335 0.20478 0.0
H429 H 0.93637 0.70301 0.19674 0.0
H430 H 0.94294 0.71457 0.17164 0.0
H431 H 0.05293 0.82103 0.11634 0.0
H432 H 5e-05 0.82534 0.12761 0.0
H433 H 0.00918 0.72272 0.13921 0.0
H434 H 0.06285 0.71853 0.12813 0.0
H435 H 0.98195 0.76063 0.15998 0.0
H436 H 0.96097 0.74206 0.10986 0.0
H437 H 0.96634 0.75139 0.08448 0.0
H438 H 0.92711 0.85061 0.0903 0.0
H439 H 0.92195 0.84206 0.11578 0.0
C440 C 0.81734 0.76511 0.16282 0.0
C441 C 0.80252 0.79697 0.1633 0.0
C442 C 0.85007 0.76102 0.15876 0.0
C443 C 0.86837 0.78865 0.15495 0.0
C444 C 0.85364 0.82046 0.1554 0.0
C445 C 0.82115 0.82465 0.15968 0.0
C446 C 0.90235 0.78426 0.14988 0.0
C447 C 0.90721 0.79087 0.13573 0.0
C448 C 0.92944 0.77269 0.15868 0.0
C449 C 0.92579 0.7658 0.17379 0.0
C450 C 0.91438 0.79081 0.1833 0.0
C451 C 0.91073 0.78404 0.19751 0.0
C452 C 0.91857 0.75239 0.20234 0.0
C453 C 0.93025 0.7275 0.19299 0.0
C454 C 0.93401 0.73417 0.17878 0.0
C455 C 0.04386 0.79947 0.12142 0.0
C456 C 0.06183 0.76935 0.12126 0.0
C457 C 0.01359 0.80193 0.12783 0.0
C458 C 0.00022 0.77412 0.13395 0.0
C459 C 0.01892 0.74445 0.13447 0.0
C460 C 0.04954 0.74206 0.12815 0.0
C461 C 0.96594 0.7758 0.13902 0.0
C462 C 0.96092 0.76851 0.15312 0.0
C463 C 0.93846 0.78629 0.13011 0.0
C464 C 0.94135 0.79151 0.11476 0.0
C465 C 0.95371 0.76596 0.10575 0.0
C466 C 0.95669 0.7711 0.09134 0.0
C467 C 0.94714 0.8016 0.08579 0.0
C468 C 0.93452 0.82701 0.09462 0.0
C469 C 0.93154 0.82202 0.10905 0.0
H470 H 0.94946 0.80553 0.07463 0.0
H471 H 0.91563 0.7472 0.21333 0.0
H472 H 0.56819 0.33726 0.43087 0.0
H473 H 0.59079 0.38998 0.42364 0.0
H474 H 0.51145 0.44383 0.4434 0.0
H475 H 0.48943 0.3914 0.45104 0.0
H476 H 0.56298 0.42853 0.40573 0.0
H477 H 0.53113 0.52316 0.45203 0.0
H478 H 0.53057 0.52388 0.47818 0.0
H479 H 0.60525 0.44708 0.47955 0.0
H480 H 0.6065 0.44608 0.45342 0.0
H481 H 0.51994 0.58165 0.3811 0.0
H482 H 0.52158 0.53314 0.39572 0.0
H483 H 0.61909 0.56304 0.41409 0.0
H484 H 0.61774 0.61169 0.39909 0.0
H485 H 0.57469 0.53644 0.43411 0.0
H486 H 0.61995 0.50605 0.38987 0.0
H487 H 0.62234 0.50389 0.36378 0.0
H488 H 0.52921 0.45033 0.35892 0.0
H489 H 0.52599 0.45263 0.38499 0.0
C490 C 0.55592 0.3604 0.4339 0.0
C491 C 0.52691 0.36013 0.44146 0.0
C492 C 0.56888 0.39054 0.42976 0.0
C493 C 0.55302 0.421 0.43304 0.0
C494 C 0.52464 0.42083 0.44099 0.0
C495 C 0.51188 0.39074 0.44527 0.0
C496 C 0.56369 0.45233 0.4268 0.0
C497 C 0.566 0.45196 0.41202 0.0
C498 C 0.56834 0.48295 0.43497 0.0
C499 C 0.56869 0.48437 0.45074 0.0
C500 C 0.54761 0.5066 0.45791 0.0
C501 C 0.54709 0.50696 0.47273 0.0
C502 C 0.56769 0.48536 0.4805 0.0
C503 C 0.58914 0.46363 0.4735 0.0
C504 C 0.58972 0.46311 0.45868 0.0
C505 C 0.54158 0.57812 0.38837 0.0
C506 C 0.56861 0.60053 0.3891 0.0
C507 C 0.54246 0.55047 0.39673 0.0
C508 C 0.57055 0.54439 0.40588 0.0
C509 C 0.59712 0.56745 0.40713 0.0
C510 C 0.59623 0.59532 0.39869 0.0
C511 C 0.57258 0.51241 0.41311 0.0
C512 C 0.5725 0.51274 0.42798 0.0
C513 C 0.57068 0.48152 0.40508 0.0
C514 C 0.57267 0.47965 0.38939 0.0
C515 C 0.59988 0.49398 0.38324 0.0
C516 C 0.6014 0.49272 0.36845 0.0
C517 C 0.57593 0.47701 0.3597 0.0
C518 C 0.54893 0.46247 0.36572 0.0
C519 C 0.54727 0.46371 0.3805 0.0
H520 H 0.57714 0.47607 0.34825 0.0
H521 H 0.5671 0.48552 0.49196 0.0
H522 H 0.99829 0.38663 0.70267 0.0
H523 H 0.94285 0.3698 0.69242 0.0
H524 H 0.98689 0.29128 0.66682 0.0
H525 H 0.04247 0.30811 0.6769 0.0
H526 H 0.93755 0.32484 0.65158 0.0
H527 H 0.95264 0.27335 0.69662 0.0
H528 H 0.96542 0.27321 0.72257 0.0
H529 H 0.88232 0.33831 0.72943 0.0
H530 H 0.86943 0.33935 0.70349 0.0
H531 H 0.79906 0.21503 0.63543 0.0
H532 H 0.85291 0.24074 0.6438 0.0
H533 H 0.80143 0.31641 0.66819 0.0
H534 H 0.74774 0.29014 0.66006 0.0
H535 H 0.85304 0.2887 0.68373 0.0
H536 H 0.83349 0.33325 0.63812 0.0
H537 H 0.82019 0.32985 0.61222 0.0
H538 H 0.91166 0.27722 0.60599 0.0
H539 H 0.9249 0.27881 0.63192 0.0
C540 C 0.99622 0.36581 0.69484 0.0
C541 C 0.02479 0.34859 0.69066 0.0
C542 C 0.96451 0.35624 0.68899 0.0
C543 C 0.96077 0.3292 0.67891 0.0
C544 C 0.98926 0.31229 0.67455 0.0
C545 C 0.02097 0.3218 0.68041 0.0
C546 C 0.92708 0.31764 0.67332 0.0
C547 C 0.91911 0.31666 0.65856 0.0
C548 C 0.90287 0.30771 0.6825 0.0
C549 C 0.9103 0.30673 0.69811 0.0
C550 C 0.93725 0.28785 0.70366 0.0
C551 C 0.9445 0.28758 0.71836 0.0
C552 C 0.92475 0.3058 0.72764 0.0
C553 C 0.89764 0.32426 0.72223 0.0
C554 C 0.89035 0.3247 0.70753 0.0
C555 C 0.79943 0.23747 0.64239 0.0
C556 C 0.76959 0.25141 0.64681 0.0
C557 C 0.83003 0.25209 0.64717 0.0
C558 C 0.83109 0.28071 0.65649 0.0
C559 C 0.80112 0.29451 0.66093 0.0
C560 C 0.77056 0.27986 0.65614 0.0
C561 C 0.86355 0.29552 0.66196 0.0
C562 C 0.8713 0.29715 0.67671 0.0
C563 C 0.88751 0.30591 0.65274 0.0
C564 C 0.88005 0.30581 0.63706 0.0
C565 C 0.8506 0.32048 0.63128 0.0
C566 C 0.84297 0.31875 0.61658 0.0
C567 C 0.865 0.30326 0.60747 0.0
C568 C 0.89461 0.28923 0.61306 0.0
C569 C 0.90213 0.2904 0.62778 0.0
H570 H 0.85918 0.30225 0.59608 0.0
H571 H 0.9304 0.30557 0.73902 0.0
H572 H 0.31278 0.33607 0.67956 0.0
H573 H 0.36522 0.31254 0.67153 0.0
H574 H 0.40788 0.41161 0.67286 0.0
H575 H 0.35598 0.43524 0.68118 0.0
H576 H 0.41162 0.3698 0.64626 0.0
H577 H 0.42785 0.36592 0.69731 0.0
H578 H 0.41225 0.34803 0.7205 0.0
H579 H 0.42986 0.24556 0.70746 0.0
H580 H 0.44302 0.26254 0.68372 0.0
H581 H 0.57711 0.34063 0.63191 0.0
H582 H 0.52743 0.35995 0.64345 0.0
H583 H 0.50555 0.2585 0.65338 0.0
H584 H 0.5564 0.23935 0.64236 0.0
H585 H 0.48962 0.29854 0.67438 0.0
H586 H 0.46564 0.2963 0.62424 0.0
H587 H 0.47419 0.30792 0.59932 0.0
H588 H 0.46753 0.41345 0.60947 0.0
H589 H 0.45939 0.40248 0.63451 0.0
C590 C 0.33342 0.35279 0.67822 0.0
C591 C 0.33033 0.38749 0.681 0.0
C592 C 0.36331 0.33931 0.67368 0.0
C593 C 0.39031 0.36039 0.67166 0.0
C594 C 0.38726 0.395 0.6744 0.0
C595 C 0.35767 0.40841 0.67919 0.0
C596 C 0.42144 0.3467 0.66619 0.0
C597 C 0.42889 0.35451 0.65245 0.0
C598 C 0.44309 0.3256 0.67413 0.0
C599 C 0.43583 0.31552 0.68856 0.0
C600 C 0.42773 0.33949 0.69922 0.0
C601 C 0.41928 0.32949 0.7125 0.0
C602 C 0.42019 0.29569 0.71549 0.0
C603 C 0.42915 0.27175 0.70513 0.0
C604 C 0.43679 0.28154 0.6917 0.0
C605 C 0.56175 0.32253 0.63663 0.0
C606 C 0.57025 0.28852 0.63616 0.0
C607 C 0.53333 0.33353 0.64318 0.0
C608 C 0.5122 0.31057 0.64895 0.0
C609 C 0.52132 0.27666 0.64892 0.0
C610 C 0.55024 0.26572 0.6426 0.0
C611 C 0.48005 0.32198 0.65446 0.0
C612 C 0.47233 0.31372 0.66816 0.0
C613 C 0.45745 0.34183 0.64635 0.0
C614 C 0.4622 0.34857 0.63128 0.0
C615 C 0.46622 0.322 0.62118 0.0
C616 C 0.47097 0.32847 0.60703 0.0
C617 C 0.47148 0.36141 0.60282 0.0
C618 C 0.46717 0.38795 0.61275 0.0
C619 C 0.46245 0.38162 0.62692 0.0
H620 H 0.47516 0.36637 0.59186 0.0
H621 H 0.41401 0.28807 0.72584 0.0
H622 H 0.51897 0.81195 0.17936 0.0
H623 H 0.4619 0.80825 0.16866 0.0
H624 H 0.49866 0.77109 0.12892 0.0
H625 H 0.55611 0.77472 0.13955 0.0
H626 H 0.44427 0.81616 0.12545 0.0
H627 H 0.47386 0.71642 0.15016 0.0
H628 H 0.49455 0.68534 0.17087 0.0
H629 H 0.41611 0.72673 0.19509 0.0
H630 H 0.39524 0.75843 0.17457 0.0
H631 H 0.29588 0.69058 0.11447 0.0
H632 H 0.35355 0.70904 0.11988 0.0
H633 H 0.31951 0.80916 0.12982 0.0
H634 H 0.2613 0.7904 0.12487 0.0
H635 H 0.37257 0.7355 0.14765 0.0
H636 H 0.39477 0.85962 0.12071 0.0
H637 H 0.37922 0.88792 0.09862 0.0
H638 H 0.35695 0.79296 0.07673 0.0
H639 H 0.37223 0.7641 0.09869 0.0
C640 C 0.51507 0.80341 0.16828 0.0
C641 C 0.54214 0.79325 0.16036 0.0
C642 C 0.48238 0.80135 0.16218 0.0
C643 C 0.47604 0.7891 0.14805 0.0
C644 C 0.50305 0.78065 0.13985 0.0
C645 C 0.53584 0.78259 0.14597 0.0
C646 C 0.44124 0.78224 0.14228 0.0
C647 C 0.4284 0.79873 0.13033 0.0
C648 C 0.4208 0.75921 0.14858 0.0
C649 C 0.43322 0.74006 0.16089 0.0
C650 C 0.4612 0.7191 0.15994 0.0
C651 C 0.47293 0.70134 0.17163 0.0
C652 C 0.45672 0.70414 0.1843 0.0
C653 C 0.42868 0.72464 0.18528 0.0
C654 C 0.41688 0.74249 0.17363 0.0
C655 C 0.30066 0.71667 0.11759 0.0
C656 C 0.27411 0.73917 0.11908 0.0
C657 C 0.33363 0.72722 0.12061 0.0
C658 C 0.34084 0.76052 0.12514 0.0
C659 C 0.31451 0.7835 0.12609 0.0
C660 C 0.28131 0.77282 0.12318 0.0
C661 C 0.37528 0.76945 0.13077 0.0
C662 C 0.3881 0.75335 0.14283 0.0
C663 C 0.39561 0.79262 0.12445 0.0
C664 C 0.3842 0.80974 0.11143 0.0
C665 C 0.38641 0.84478 0.1112 0.0
C666 C 0.37774 0.86092 0.09869 0.0
C667 C 0.36735 0.84224 0.08626 0.0
C668 C 0.36509 0.8074 0.08637 0.0
C669 C 0.37343 0.79116 0.09889 0.0
H670 H 0.36074 0.85476 0.07657 0.0
H671 H 0.46583 0.69036 0.19334 0.0
H672 H 0.46128 0.2627 0.83533 0.0
H673 H 0.40548 0.25129 0.84287 0.0
H674 H 0.39411 0.35578 0.85523 0.0
H675 H 0.4501 0.36728 0.848 0.0
H676 H 0.3688 0.31762 0.87416 0.0
H677 H 0.36031 0.32137 0.82286 0.0
H678 H 0.37307 0.30466 0.79827 0.0
H679 H 0.3425 0.20389 0.80437 0.0
H680 H 0.32992 0.21996 0.82907 0.0
H681 H 0.19947 0.34825 0.87362 0.0
H682 H 0.25765 0.34581 0.86766 0.0
H683 H 0.24551 0.24134 0.85448 0.0
H684 H 0.18654 0.24424 0.85979 0.0
H685 H 0.28494 0.26736 0.83824 0.0
H686 H 0.28389 0.26748 0.88791 0.0
H687 H 0.26889 0.28486 0.91211 0.0
H688 H 0.31588 0.38025 0.9088 0.0
H689 H 0.33075 0.36366 0.88448 0.0
C690 C 0.44705 0.28321 0.8398 0.0
C691 C 0.46004 0.31597 0.84096 0.0
C692 C 0.41508 0.27665 0.84404 0.0
C693 C 0.39537 0.30278 0.84938 0.0
C694 C 0.40883 0.33524 0.8511 0.0
C695 C 0.44085 0.34179 0.84694 0.0
C696 C 0.36028 0.29679 0.85271 0.0
C697 C 0.35032 0.3072 0.86621 0.0
C698 C 0.33649 0.28162 0.84259 0.0
C699 C 0.34471 0.27173 0.82787 0.0
C700 C 0.35671 0.29556 0.81901 0.0
C701 C 0.36379 0.28623 0.80504 0.0
C702 C 0.35874 0.2532 0.79978 0.0
C703 C 0.34651 0.22944 0.80847 0.0
C704 C 0.33941 0.23864 0.82246 0.0
C705 C 0.20908 0.32492 0.86922 0.0
C706 C 0.18866 0.29635 0.8673 0.0
C707 C 0.24245 0.3234 0.86599 0.0
C708 C 0.25642 0.29301 0.8612 0.0
C709 C 0.23549 0.26493 0.8584 0.0
C710 C 0.20177 0.26664 0.86135 0.0
C711 C 0.29283 0.29096 0.85919 0.0
C712 C 0.30329 0.27814 0.84612 0.0
C713 C 0.31699 0.30424 0.86964 0.0
C714 C 0.30826 0.31437 0.88431 0.0
C715 C 0.29085 0.29225 0.8923 0.0
C716 C 0.28238 0.30196 0.90605 0.0
C717 C 0.29138 0.33366 0.91198 0.0
C718 C 0.30892 0.3557 0.90419 0.0
C719 C 0.31742 0.34614 0.89042 0.0
H720 H 0.28481 0.34113 0.92263 0.0
H721 H 0.3642 0.24604 0.78896 0.0
H722 H 0.19572 0.75206 0.33287 0.0
H723 H 0.25361 0.74092 0.34078 0.0
H724 H 0.2773 0.84575 0.33927 0.0
H725 H 0.21933 0.85708 0.33111 0.0
H726 H 0.32345 0.80828 0.32708 0.0
H727 H 0.27254 0.81029 0.37103 0.0
H728 H 0.2314 0.79668 0.38813 0.0
H729 H 0.25906 0.6931 0.3845 0.0
H730 H 0.30007 0.706 0.36721 0.0
H731 H 0.48794 0.77463 0.35662 0.0
H732 H 0.43172 0.79894 0.35435 0.0
H733 H 0.38898 0.6998 0.35339 0.0
H734 H 0.4448 0.67603 0.35657 0.0
H735 H 0.35393 0.74259 0.36918 0.0
H736 H 0.39944 0.74152 0.32243 0.0
H737 H 0.44146 0.7567 0.30592 0.0
H738 H 0.42454 0.86097 0.31596 0.0
H739 H 0.38268 0.84635 0.33265 0.0
C740 C 0.21314 0.77283 0.3343 0.0
C741 C 0.20286 0.80548 0.33137 0.0
C742 C 0.24624 0.76644 0.3389 0.0
C743 C 0.26975 0.79256 0.34078 0.0
C744 C 0.25958 0.82523 0.33792 0.0
C745 C 0.22642 0.83166 0.3333 0.0
C746 C 0.30515 0.78532 0.34522 0.0
C747 C 0.33016 0.79443 0.33643 0.0
C748 C 0.31397 0.76704 0.35736 0.0
C749 C 0.28922 0.75909 0.36772 0.0
C750 C 0.26965 0.78456 0.37377 0.0
C751 C 0.2464 0.77698 0.38352 0.0
C752 C 0.24257 0.74404 0.38737 0.0
C753 C 0.26204 0.71861 0.3815 0.0
C754 C 0.28533 0.72605 0.37174 0.0
C755 C 0.46646 0.75837 0.35647 0.0
C756 C 0.47066 0.72368 0.35713 0.0
C757 C 0.43439 0.77209 0.35487 0.0
C758 C 0.40608 0.75113 0.35358 0.0
C759 C 0.41037 0.71649 0.35441 0.0
C760 C 0.44229 0.70291 0.35612 0.0
C761 C 0.37193 0.76461 0.35079 0.0
C762 C 0.34717 0.75669 0.3599 0.0
C763 C 0.36336 0.7841 0.339 0.0
C764 C 0.38815 0.79285 0.32884 0.0
C765 C 0.40481 0.76767 0.32115 0.0
C766 C 0.42858 0.77617 0.31177 0.0
C767 C 0.43571 0.80978 0.30991 0.0
C768 C 0.41901 0.83495 0.31741 0.0
C769 C 0.39524 0.82658 0.32682 0.0
H770 H 0.45414 0.81631 0.30265 0.0
H771 H 0.22455 0.73822 0.39493 0.0
H772 H 0.69024 0.84686 0.5902 0.0
H773 H 0.67743 0.90593 0.5951 0.0
H774 H 0.70849 0.92907 0.55382 0.0
H775 H 0.72151 0.87009 0.54885 0.0
H776 H 0.73395 0.97346 0.57441 0.0
H777 H 0.62679 0.92902 0.55927 0.0
H778 H 0.57922 0.88984 0.55856 0.0
H779 H 0.56461 0.91627 0.60242 0.0
H780 H 0.61241 0.95527 0.60346 0.0
H781 H 0.68575 0.14124 0.59292 0.0
H782 H 0.68555 0.08832 0.57844 0.0
H783 H 0.65261 0.03619 0.61394 0.0
H784 H 0.65105 0.08878 0.62798 0.0
H785 H 0.6237 0.00951 0.59043 0.0
H786 H 0.73742 0.04554 0.60634 0.0
H787 H 0.7854 0.08431 0.60716 0.0
H788 H 0.7876 0.07307 0.56169 0.0
H789 H 0.73951 0.03436 0.56063 0.0
C790 C 0.69437 0.86449 0.58216 0.0
C791 C 0.70686 0.85369 0.56913 0.0
C792 C 0.68683 0.89824 0.58494 0.0
C793 C 0.69159 0.92189 0.57475 0.0
C794 C 0.70448 0.91127 0.56181 0.0
C795 C 0.71187 0.8775 0.55899 0.0
C796 C 0.6839 0.95778 0.57782 0.0
C797 C 0.70964 0.98147 0.57765 0.0
C798 C 0.65221 0.96828 0.58204 0.0
C799 C 0.62335 0.94492 0.58146 0.0
C800 C 0.6136 0.9263 0.5688 0.0
C801 C 0.58656 0.90415 0.56833 0.0
C802 C 0.56894 0.90053 0.58044 0.0
C803 C 0.57829 0.9191 0.59305 0.0
C804 C 0.60533 0.94127 0.59357 0.0
C805 C 0.67735 0.11862 0.59739 0.0
C806 C 0.66816 0.11917 0.61152 0.0
C807 C 0.67768 0.08831 0.5892 0.0
C808 C 0.6695 0.05808 0.59516 0.0
C809 C 0.65899 0.05904 0.60906 0.0
C810 C 0.65835 0.08916 0.61713 0.0
C811 C 0.6742 0.02489 0.58768 0.0
C812 C 0.64782 0.00164 0.58693 0.0
C813 C 0.70534 0.01476 0.58267 0.0
C814 C 0.73454 0.03758 0.58338 0.0
C815 C 0.74802 0.05153 0.59652 0.0
C816 C 0.77526 0.07343 0.59703 0.0
C817 C 0.78944 0.08128 0.58448 0.0
C818 C 0.77652 0.06708 0.5714 0.0
C819 C 0.74928 0.04517 0.57083 0.0
H820 H 0.81052 0.09826 0.58489 0.0
H821 H 0.54802 0.88336 0.58006 0.0
H822 H 0.37178 0.04404 0.06534 0.0
H823 H 0.36686 0.98732 0.07357 0.0
H824 H 0.28788 0.02022 0.09981 0.0
H825 H 0.29314 0.0769 0.09192 0.0
H826 H 0.32752 0.97601 0.11329 0.0
H827 H 0.27224 0.98388 0.06554 0.0
H828 H 0.27153 0.99386 0.03992 0.0
H829 H 0.34583 0.91786 0.03448 0.0
H830 H 0.34721 0.90773 0.06012 0.0
H831 H 0.1982 0.86209 0.1145 0.0
H832 H 0.24029 0.90547 0.11308 0.0
H833 H 0.3006 0.8357 0.08964 0.0
H834 H 0.25841 0.79199 0.09121 0.0
H835 H 0.29056 0.88988 0.0758 0.0
H836 H 0.32818 0.87007 0.12263 0.0
H837 H 0.32634 0.85958 0.14805 0.0
H838 H 0.28331 0.95648 0.15577 0.0
H839 H 0.28467 0.96753 0.13037 0.0
C840 C 0.35362 0.03925 0.07299 0.0
C841 C 0.33257 0.06491 0.07786 0.0
C842 C 0.35086 0.00682 0.07768 0.0
C843 C 0.32675 -0.00059 0.08719 0.0
C844 C 0.30674 0.02533 0.0925 0.0
C845 C 0.30962 0.05772 0.0879 0.0
C846 C 0.31999 0.96445 0.09077 0.0
C847 C 0.31944 0.95706 0.10514 0.0
C848 C 0.31099 0.93924 0.08011 0.0
C849 C 0.31017 0.94539 0.06474 0.0
C850 C 0.2886 0.9695 0.05888 0.0
C851 C 0.28804 0.97515 0.04437 0.0
C852 C 0.30872 0.9566 0.03558 0.0
C853 C 0.32991 0.93228 0.0413 0.0
C854 C 0.33059 0.92657 0.05582 0.0
C855 C 0.22105 0.8558 0.10947 0.0
C856 C 0.22541 0.82384 0.10307 0.0
C857 C 0.24522 0.8805 0.10874 0.0
C858 C 0.2741 0.87377 0.10148 0.0
C859 C 0.27901 0.84132 0.09554 0.0
C860 C 0.25491 0.8164 0.09642 0.0
C861 C 0.29597 0.90202 0.09838 0.0
C862 C 0.29959 0.9082 0.08406 0.0
C863 C 0.30759 0.92608 0.10913 0.0
C864 C 0.30675 0.91969 0.12452 0.0
C865 C 0.31835 0.88918 0.12972 0.0
C866 C 0.31734 0.8831 0.14414 0.0
C867 C 0.30474 0.90735 0.15352 0.0
C868 C 0.29316 0.93775 0.1485 0.0
C869 C 0.29416 0.94397 0.13408 0.0
H870 H 0.30392 0.90258 0.16469 0.0
H871 H 0.30825 0.96099 0.02435 0.0
H872 H 0.48073 0.02804 0.44374 0.0
H873 H 0.48694 0.97482 0.43037 0.0
H874 H 0.41165 0.00417 0.39866 0.0
H875 H 0.40508 0.05768 0.41203 0.0
H876 H 0.40681 0.93635 0.40489 0.0
H877 H 0.48818 0.01289 0.3911 0.0
H878 H 0.53299 0.05523 0.39479 0.0
H879 H 0.59601 0.98497 0.4166 0.0
H880 H 0.55138 0.94234 0.41323 0.0
H881 H 0.5378 0.82371 0.3643 0.0
H882 H 0.50547 0.87506 0.3677 0.0
H883 H 0.46377 0.83499 0.40428 0.0
H884 H 0.49563 0.78341 0.40063 0.0
H885 H 0.52139 0.9127 0.39037 0.0
H886 H 0.39577 0.87541 0.41293 0.0
H887 H 0.34906 0.83592 0.40695 0.0
H888 H 0.37176 0.83191 0.36306 0.0
H889 H 0.41887 0.87074 0.36878 0.0
C890 C 0.46517 0.02312 0.43402 0.0
C891 C 0.44266 0.04727 0.42888 0.0
C892 C 0.4688 0.99269 0.42638 0.0
C893 C 0.45007 0.98581 0.41345 0.0
C894 C 0.42637 0.00909 0.40861 0.0
C895 C 0.42276 0.03967 0.41624 0.0
C896 C 0.45703 0.9552 0.40465 0.0
C897 C 0.43178 0.93112 0.40163 0.0
C898 C 0.48931 0.94899 0.39999 0.0
C899 C 0.51633 0.9745 0.402 0.0
C900 C 0.5115 0.00654 0.39678 0.0
C901 C 0.53689 0.03058 0.3988 0.0
C902 C 0.56731 0.02281 0.40595 0.0
C903 C 0.57243 0.99096 0.41107 0.0
C904 C 0.5471 0.96683 0.40909 0.0
C905 C 0.52043 0.82537 0.37262 0.0
C906 C 0.51867 0.79971 0.38211 0.0
C907 C 0.50211 0.85469 0.37461 0.0
C908 C 0.48226 0.85897 0.38627 0.0
C909 C 0.47844 0.83212 0.39507 0.0
C910 C 0.49665 0.80267 0.39301 0.0
C911 C 0.47148 0.89301 0.39098 0.0
C912 C 0.49619 0.9179 0.39335 0.0
C913 C 0.43859 0.90009 0.39473 0.0
C914 C 0.41095 0.87584 0.39131 0.0
C915 C 0.39084 0.86597 0.40201 0.0
C916 C 0.36439 0.84356 0.39867 0.0
C917 C 0.35761 0.83116 0.38465 0.0
C918 C 0.37731 0.84106 0.37394 0.0
C919 C 0.404 0.86315 0.37724 0.0
H920 H 0.33699 0.81404 0.38209 0.0
H921 H 0.58693 0.04146 0.4075 0.0
H922 H 0.99618 0.93714 0.95509 0.0
H923 H 0.0233 0.9902 0.95095 0.0
H924 H 0.05323 0.94917 0.91056 0.0
H925 H 0.02689 0.89593 0.91474 0.0
H926 H 0.10163 0.98933 0.92367 0.0
H927 H 0.9809 0.99522 0.91321 0.0
H928 H 0.92225 0.99221 0.91942 0.0
H929 H 0.94152 0.06834 0.95279 0.0
H930 H 0.00042 0.07149 0.94686 0.0
H931 H 0.10332 0.1169 0.8757 0.0
H932 H 0.09792 0.06897 0.89022 0.0
H933 H 0.06559 0.13411 0.92456 0.0
H934 H 0.06864 0.18189 0.90958 0.0
H935 H 0.02466 0.08593 0.92022 0.0
H936 H 0.14163 0.09133 0.92502 0.0
H937 H 0.19997 0.09447 0.9188 0.0
H938 H 0.19004 0.99894 0.89599 0.0
H939 H 0.13142 0.99521 0.90196 0.0
C940 C 0.0089 0.93928 0.9454 0.0
C941 C 0.00901 0.91244 0.93516 0.0
C942 C 0.02438 0.96963 0.94306 0.0
C943 C 0.03988 0.97382 0.93035 0.0
C944 C 0.04143 0.94654 0.92044 0.0
C945 C 0.02616 0.91614 0.92281 0.0
C946 C 0.05194 0.00718 0.9267 0.0
C947 C 0.0849 0.01052 0.92281 0.0
C948 C 0.03043 0.03517 0.92619 0.0
C949 C 0.99508 0.03328 0.92972 0.0
C950 C 0.97266 0.01113 0.92194 0.0
C951 C 0.93938 0.00943 0.9254 0.0
C952 C 0.9282 0.02999 0.93653 0.0
C953 C 0.95024 0.05237 0.9442 0.0
C954 C 0.98356 0.05413 0.94079 0.0
C955 C 0.09566 0.12111 0.88645 0.0
C956 C 0.08694 0.15328 0.8916 0.0
C957 C 0.0929 0.09368 0.89482 0.0
C958 C 0.08187 0.09785 0.90861 0.0
C959 C 0.07449 0.13023 0.91401 0.0
C960 C 0.07674 0.15766 0.90552 0.0
C961 C 0.07419 0.06799 0.91655 0.0
C962 C 0.04193 0.06521 0.92129 0.0
C963 C 0.0965 0.04063 0.9178 0.0
C964 C 0.13189 0.04289 0.91405 0.0
C965 C 0.15174 0.0709 0.91869 0.0
C966 C 0.18494 0.07283 0.91518 0.0
C967 C 0.19874 0.04689 0.90702 0.0
C968 C 0.17934 0.01898 0.90235 0.0
C969 C 0.14611 0.01691 0.90583 0.0
H970 H 0.22446 0.04844 0.90431 0.0
H971 H 0.90242 0.02864 0.93918 0.0
H972 H 0.28565 0.23575 0.01474 0.0
H973 H 0.24589 0.23897 0.99412 0.0
H974 H 0.18399 0.16434 0.01101 0.0
H975 H 0.22509 0.15972 0.03128 0.0
H976 H 0.18196 0.15191 0.98496 0.0
H977 H 0.16335 0.25224 0.01159 0.0
H978 H 0.17469 0.3057 0.02528 0.0
H979 H 0.21609 0.34635 0.98905 0.0
H980 H 0.2052 0.29307 0.97516 0.0
H981 H 0.07388 0.26724 0.93334 0.0
H982 H 0.09182 0.24758 0.95669 0.0
H983 H 0.16233 0.18102 0.9373 0.0
H984 H 0.14357 0.2002 0.91376 0.0
H985 H 0.14986 0.26246 0.96717 0.0
H986 H 0.186 0.11856 0.96223 0.0
H987 H 0.16025 0.06474 0.95362 0.0
H988 H 0.0635 0.11058 0.95116 0.0
H989 H 0.08837 0.16444 0.9602 0.0
C990 C 0.26337 0.22031 0.0141 0.0
C991 C 0.25807 0.19791 0.02467 0.0
C992 C 0.24054 0.22221 0.00233 0.0
C993 C 0.21133 0.20254 0.00111 0.0
C994 C 0.20618 0.17989 0.01167 0.0
C995 C 0.22955 0.17736 0.02328 0.0
C996 C 0.18673 0.20531 0.98866 0.0
C997 C 0.17488 0.17605 0.98104 0.0
C998 C 0.17603 0.23677 0.98392 0.0
C999 C 0.18362 0.26857 0.99236 0.0
C1000 C 0.17515 0.27247 0.00658 0.0
C1001 C 0.18143 0.30277 0.01437 0.0
C1002 C 0.19611 0.32938 0.00804 0.0
C1003 C 0.20469 0.32571 0.99393 0.0
C1004 C 0.19841 0.2955 0.98609 0.0
C1005 C 0.09241 0.24759 0.93403 0.0
C1006 C 0.10757 0.23536 0.92184 0.0
C1007 C 0.10267 0.23637 0.94737 0.0
C1008 C 0.12877 0.21316 0.94882 0.0
C1009 C 0.14202 0.19879 0.93648 0.0
C1010 C 0.13141 0.2098 0.92304 0.0
C1011 C 0.146 0.20903 0.96308 0.0
C1012 C 0.15665 0.23817 0.97105 0.0
C1013 C 0.15399 0.17744 0.96845 0.0
C1014 C 0.13923 0.1458 0.9618 0.0
C1015 C 0.15924 0.11726 0.95984 0.0
C1016 C 0.14474 0.08665 0.95498 0.0
C1017 C 0.11025 0.08424 0.95192 0.0
C1018 C 0.09022 0.11252 0.95355 0.0
C1019 C 0.10454 0.14314 0.95852 0.0
H1020 H 0.09905 0.06046 0.9483 0.0
H1021 H 0.20069 0.3529 0.01402 0.0
H1022 H 0.02517 0.81635 0.25898 0.0
H1023 H 0.02967 0.80418 0.23354 0.0
H1024 H 0.13627 0.79254 0.24072 0.0
H1025 H 0.13212 0.8053 0.26616 0.0
H1026 H 0.1221 0.82404 0.21696 0.0
H1027 H 0.08495 0.72474 0.23756 0.0
H1028 H 0.0483 0.69133 0.25134 0.0
H1029 H 0.96482 0.71121 0.22216 0.0
H1030 H 0.00091 0.74523 0.20826 0.0
H1031 H 0.13069 0.67943 0.16146 0.0
H1032 H 0.1113 0.70088 0.18414 0.0
H1033 H 0.09187 0.79688 0.16653 0.0
H1034 H 0.11316 0.77612 0.14407 0.0
H1035 H 0.0577 0.7268 0.19468 0.0
H1036 H 0.11504 0.85778 0.19166 0.0
H1037 H 0.1583 0.88586 0.17909 0.0
H1038 H 0.21225 0.79353 0.17516 0.0
H1039 H 0.16955 0.76506 0.18785 0.0
C1040 C 0.04965 0.81152 0.25515 0.0
C1041 C 0.07828 0.81149 0.26463 0.0
C1042 C 0.05213 0.8045 0.24059 0.0
C1043 C 0.08322 0.79699 0.23526 0.0
C1044 C 0.11201 0.79826 0.24461 0.0
C1045 C 0.10958 0.80545 0.25916 0.0
C1046 C 0.08566 0.78609 0.22009 0.0
C1047 C 0.10779 0.80299 0.21205 0.0
C1048 C 0.06734 0.75831 0.21374 0.0
C1049 C 0.04553 0.73783 0.22198 0.0
C1050 C 0.05871 0.72221 0.23414 0.0
C1051 C 0.03805 0.70315 0.24195 0.0
C1052 C 0.00422 0.69928 0.23763 0.0
C1053 C 0.99101 0.71436 0.22547 0.0
C1054 C 0.01154 0.73351 0.21762 0.0
C1055 C 0.12185 0.70498 0.16235 0.0
C1056 C 0.12342 0.72605 0.15095 0.0
C1057 C 0.11054 0.71715 0.17529 0.0
C1058 C 0.10058 0.75062 0.1771 0.0
C1059 C 0.09988 0.77108 0.16543 0.0
C1060 C 0.11165 0.75903 0.15252 0.0
C1061 C 0.09432 0.76463 0.19156 0.0
C1062 C 0.07145 0.74833 0.19949 0.0
C1063 C 0.11279 0.79228 0.19796 0.0
C1064 C 0.13891 0.80926 0.19054 0.0
C1065 C 0.1362 0.84353 0.18814 0.0
C1066 C 0.16061 0.8595 0.181 0.0
C1067 C 0.18794 0.84146 0.17628 0.0
C1068 C 0.19101 0.80745 0.17877 0.0
C1069 C 0.16671 0.79139 0.18593 0.0
H1070 H 0.20677 0.85385 0.17073 0.0
H1071 H 0.98825 0.68451 0.24369 0.0
H1072 H 0.64258 0.65397 0.53567 0.0
H1073 H 0.62702 0.64112 0.51048 0.0
H1074 H 0.72653 0.66764 0.50011 0.0
H1075 H 0.74119 0.68286 0.52519 0.0
H1076 H 0.68614 0.6983 0.48439 0.0
H1077 H 0.69039 0.58116 0.49529 0.0
H1078 H 0.67673 0.53309 0.50923 0.0
H1079 H 0.57206 0.54983 0.49979 0.0
H1080 H 0.58513 0.59747 0.48553 0.0
H1081 H 0.66808 0.66784 0.41291 0.0
H1082 H 0.68358 0.64791 0.43652 0.0
H1083 H 0.58018 0.65091 0.4464 0.0
H1084 H 0.56454 0.66999 0.4225 0.0
H1085 H 0.62171 0.60136 0.46184 0.0
H1086 H 0.61816 0.71942 0.45202 0.0
H1087 H 0.6316 0.76733 0.43798 0.0
H1088 H 0.7364 0.74937 0.44645 0.0
H1089 H 0.72352 0.70095 0.46034 0.0
C1090 C 0.66127 0.65638 0.52801 0.0
C1091 C 0.69301 0.66954 0.53231 0.0
C1092 C 0.65245 0.64875 0.51359 0.0
C1093 C 0.67565 0.65303 0.50329 0.0
C1094 C 0.70807 0.66426 0.50779 0.0
C1095 C 0.71651 0.67288 0.52211 0.0
C1096 C 0.66524 0.6499 0.48781 0.0
C1097 C 0.67276 0.67664 0.47949 0.0
C1098 C 0.64659 0.62236 0.48136 0.0
C1099 C 0.63873 0.59291 0.48941 0.0
C1100 C 0.66447 0.57446 0.49615 0.0
C1101 C 0.65683 0.54722 0.50405 0.0
C1102 C 0.62354 0.53833 0.50535 0.0
C1103 C 0.59783 0.55655 0.49867 0.0
C1104 C 0.60534 0.58351 0.4906 0.0
C1105 C 0.64856 0.66262 0.41989 0.0
C1106 C 0.61523 0.67042 0.41605 0.0
C1107 C 0.65738 0.65124 0.43334 0.0
C1108 C 0.63308 0.64855 0.44326 0.0
C1109 C 0.59925 0.65278 0.43887 0.0
C1110 C 0.59035 0.66376 0.42528 0.0
C1111 C 0.6437 0.64918 0.45862 0.0
C1112 C 0.63574 0.62249 0.46684 0.0
C1113 C 0.66211 0.67673 0.46508 0.0
C1114 C 0.66988 0.70642 0.4571 0.0
C1115 C 0.64406 0.7256 0.45082 0.0
C1116 C 0.65157 0.75283 0.44289 0.0
C1117 C 0.68484 0.76134 0.4413 0.0
C1118 C 0.71065 0.74272 0.44768 0.0
C1119 C 0.70326 0.71539 0.45558 0.0
H1120 H 0.69061 0.78241 0.43514 0.0
H1121 H 0.61765 0.51735 0.51154 0.0
H1122 H 0.56609 0.37362 0.77552 0.0
H1123 H 0.56943 0.3599 0.75007 0.0
H1124 H 0.5979 0.25887 0.75919 0.0
H1125 H 0.59586 0.27273 0.7846 0.0
H1126 H 0.63486 0.28087 0.73999 0.0
H1127 H 0.51541 0.28037 0.74631 0.0
H1128 H 0.46507 0.30776 0.75504 0.0
H1129 H 0.47685 0.38813 0.72734 0.0
H1130 H 0.52729 0.36118 0.71846 0.0
H1131 H 0.60612 0.1887 0.67757 0.0
H1132 H 0.58649 0.21287 0.69981 0.0
H1133 H 0.59358 0.31175 0.6842 0.0
H1134 H 0.61401 0.28775 0.66199 0.0
H1135 H 0.53793 0.29693 0.70537 0.0
H1136 H 0.65737 0.29669 0.69897 0.0
H1137 H 0.70865 0.26977 0.69099 0.0
H1138 H 0.69723 0.19116 0.71959 0.0
H1139 H 0.64547 0.21732 0.72753 0.0
C1140 C 0.57318 0.34852 0.77209 0.0
C1141 C 0.58066 0.32424 0.78207 0.0
C1142 C 0.57487 0.34066 0.75753 0.0
C1143 C 0.58335 0.30818 0.75268 0.0
C1144 C 0.59125 0.28408 0.76266 0.0
C1145 C 0.59006 0.29205 0.7772 0.0
C1146 C 0.58435 0.29901 0.73726 0.0
C1147 C 0.61354 0.28426 0.73249 0.0
C1148 C 0.55688 0.30412 0.72733 0.0
C1149 C 0.52524 0.31898 0.73184 0.0
C1150 C 0.50719 0.30386 0.74207 0.0
C1151 C 0.47872 0.31934 0.74707 0.0
C1152 C 0.46803 0.34987 0.74188 0.0
C1153 C 0.48538 0.36465 0.73146 0.0
C1154 C 0.51378 0.34919 0.72637 0.0
C1155 C 0.60231 0.21549 0.67866 0.0
C1156 C 0.61167 0.23636 0.66809 0.0
C1157 C 0.59092 0.22923 0.69132 0.0
C1158 C 0.58888 0.26404 0.69363 0.0
C1159 C 0.59476 0.2848 0.68253 0.0
C1160 C 0.60636 0.27103 0.66984 0.0
C1161 C 0.58811 0.27825 0.70837 0.0
C1162 C 0.55918 0.2939 0.71294 0.0
C1163 C 0.61583 0.27406 0.71819 0.0
C1164 C 0.64742 0.25877 0.71373 0.0
C1165 C 0.66567 0.27353 0.70347 0.0
C1166 C 0.69482 0.25843 0.69897 0.0
C1167 C 0.70615 0.22873 0.70476 0.0
C1168 C 0.6884 0.21415 0.7151 0.0
C1169 C 0.65917 0.2291 0.71961 0.0
H1170 H 0.72872 0.21707 0.70125 0.0
H1171 H 0.44608 0.36191 0.74582 0.0
H1172 H 0.95192 0.69386 0.96326 0.0
H1173 H 0.98115 0.66076 0.98135 0.0
H1174 H 0.06746 0.72495 0.98108 0.0
H1175 H 0.03877 0.75745 0.96284 0.0
H1176 H 0.08564 0.65941 0.98547 0.0
H1177 H 0.00567 0.74305 0.00343 0.0
H1178 H 0.94881 0.76585 0.00503 0.0
H1179 H 0.91468 0.67154 0.01839 0.0
H1180 H 0.97133 0.64813 0.01672 0.0
H1181 H 0.15544 0.7318 0.04742 0.0
H1182 H 0.13044 0.70746 0.02499 0.0
H1183 H 0.07314 0.63946 0.04786 0.0
H1184 H 0.09896 0.66363 0.07049 0.0
H1185 H 0.03396 0.67886 0.0315 0.0
H1186 H 0.12102 0.60613 0.02294 0.0
H1187 H 0.17889 0.58552 0.02277 0.0
H1188 H 0.20073 0.65743 0.99243 0.0
H1189 H 0.14319 0.67891 0.99267 0.0
C1190 C 0.97757 0.70006 0.96665 0.0
C1191 C 0.99315 0.72815 0.96159 0.0
C1192 C 0.99416 0.68128 0.97707 0.0
C1193 C 0.02643 0.69049 0.98262 0.0
C1194 C 0.04267 0.71723 0.97691 0.0
C1195 C 0.02613 0.73599 0.96657 0.0
C1196 C 0.04178 0.67611 0.99569 0.0
C1197 C 0.07433 0.66323 0.99555 0.0
C1198 C 0.02643 0.67968 0.00876 0.0
C1199 C 0.9925 0.69375 0.00976 0.0
C1200 C 0.98595 0.72715 0.00662 0.0
C1201 C 0.9538 0.74018 0.00755 0.0
C1202 C 0.92812 0.72012 0.01176 0.0
C1203 C 0.93457 0.68701 0.01509 0.0
C1204 C 0.96667 0.67385 0.01415 0.0
C1205 C 0.13853 0.71075 0.04762 0.0
C1206 C 0.12896 0.69961 0.06059 0.0
C1207 C 0.12436 0.69666 0.0348 0.0
C1208 C 0.09997 0.67148 0.03471 0.0
C1209 C 0.09214 0.65861 0.04768 0.0
C1210 C 0.10688 0.67237 0.06057 0.0
C1211 C 0.07872 0.66423 0.02142 0.0
C1212 C 0.04494 0.67321 0.02145 0.0
C1213 C 0.09299 0.65699 0.00829 0.0
C1214 C 0.12768 0.64411 0.00785 0.0
C1215 C 0.13823 0.61765 0.0163 0.0
C1216 C 0.17098 0.60582 0.01619 0.0
C1217 C 0.19348 0.62015 0.00758 0.0
C1218 C 0.18324 0.64631 0.99907 0.0
C1219 C 0.1505 0.65828 0.99917 0.0
H1220 H 0.21885 0.61098 0.0075 0.0
H1221 H 0.90324 0.73025 0.01248 0.0
H1222 H 0.69763 0.81284 0.22828 0.0
H1223 H 0.69468 0.79749 0.25297 0.0
H1224 H 0.67394 0.69507 0.23838 0.0
H1225 H 0.67519 0.71068 0.21376 0.0
H1226 H 0.63094 0.71423 0.25583 0.0
H1227 H 0.75047 0.72508 0.25608 0.0
H1228 H 0.80186 0.75592 0.25206 0.0
H1229 H 0.77922 0.83034 0.28442 0.0
H1230 H 0.7271 0.80056 0.28832 0.0
H1231 H 0.62962 0.6424 0.32077 0.0
H1232 H 0.65536 0.65677 0.29911 0.0
H1233 H 0.65606 0.76103 0.31323 0.0
H1234 H 0.63008 0.74679 0.33492 0.0
H1235 H 0.71224 0.74134 0.29686 0.0
H1236 H 0.59167 0.73612 0.29432 0.0
H1237 H 0.53746 0.70952 0.29756 0.0
H1238 H 0.56216 0.62679 0.26937 0.0
H1239 H 0.61677 0.6527 0.26614 0.0
C1240 C 0.69293 0.78697 0.23039 0.0
C1241 C 0.68643 0.76297 0.21912 0.0
C1242 C 0.69141 0.77818 0.24451 0.0
C1243 C 0.68433 0.74502 0.24759 0.0
C1244 C 0.67931 0.72082 0.2363 0.0
C1245 C 0.68007 0.72974 0.22223 0.0
C1246 C 0.67914 0.73585 0.26237 0.0
C1247 C 0.64914 0.71964 0.2647 0.0
C1248 C 0.70227 0.74394 0.27411 0.0
C1249 C 0.73456 0.76083 0.27233 0.0
C1250 C 0.75628 0.74817 0.26226 0.0
C1251 C 0.78546 0.76556 0.25995 0.0
C1252 C 0.79356 0.7953 0.26785 0.0
C1253 C 0.77274 0.80747 0.27822 0.0
C1254 C 0.74334 0.79036 0.28047 0.0
C1255 C 0.63604 0.66828 0.31942 0.0
C1256 C 0.62783 0.69349 0.32949 0.0
C1257 C 0.65088 0.67643 0.30709 0.0
C1258 C 0.65729 0.70998 0.30453 0.0
C1259 C 0.65147 0.73498 0.31505 0.0
C1260 C 0.63661 0.72681 0.32743 0.0
C1261 C 0.66455 0.7192 0.29004 0.0
C1262 C 0.69453 0.73561 0.28785 0.0
C1263 C 0.64142 0.71157 0.27834 0.0
C1264 C 0.60841 0.69616 0.28011 0.0
C1265 C 0.58563 0.71214 0.28889 0.0
C1266 C 0.55482 0.69721 0.29072 0.0
C1267 C 0.5464 0.66644 0.28371 0.0
C1268 C 0.56874 0.65059 0.27482 0.0
C1269 C 0.59961 0.6654 0.27298 0.0
H1270 H 0.52254 0.65491 0.28513 0.0
H1271 H 0.81619 0.8087 0.26606 0.0
H1272 H 0.46982 0.15421 0.48181 0.0
H1273 H 0.49412 0.12654 0.50268 0.0
H1274 H 0.5835 0.18609 0.50189 0.0
H1275 H 0.55946 0.2136 0.48107 0.0
H1276 H 0.59619 0.11876 0.50993 0.0
H1277 H 0.52254 0.21502 0.52086 0.0
H1278 H 0.46773 0.24308 0.51947 0.0
H1279 H 0.42286 0.15846 0.53703 0.0
H1280 H 0.47742 0.12979 0.53836 0.0
H1281 H 0.6662 0.20482 0.5682 0.0
H1282 H 0.64198 0.17381 0.54713 0.0
H1283 H 0.5736 0.12487 0.57285 0.0
H1284 H 0.59845 0.15608 0.59416 0.0
H1285 H 0.54116 0.15952 0.55307 0.0
H1286 H 0.62128 0.07634 0.55147 0.0
H1287 H 0.67651 0.04967 0.55387 0.0
H1288 H 0.70949 0.10581 0.51983 0.0
H1289 H 0.6546 0.13324 0.51732 0.0
C1290 C 0.49506 0.16057 0.48581 0.0
C1291 C 0.51284 0.18596 0.4798 0.0
C1292 C 0.50885 0.14483 0.49775 0.0
C1293 C 0.54065 0.15421 0.5038 0.0
C1294 C 0.55908 0.17823 0.49731 0.0
C1295 C 0.5452 0.19417 0.48551 0.0
C1296 C 0.55305 0.14326 0.51797 0.0
C1297 C 0.58414 0.12721 0.51942 0.0
C1298 C 0.53649 0.15287 0.5303 0.0
C1299 C 0.50384 0.17013 0.52953 0.0
C1300 C 0.50091 0.20234 0.52432 0.0
C1301 C 0.46992 0.21836 0.52356 0.0
C1302 C 0.4418 0.20251 0.52811 0.0
C1303 C 0.44464 0.17066 0.53347 0.0
C1304 C 0.47557 0.15452 0.53423 0.0
C1305 C 0.647 0.18635 0.56942 0.0
C1306 C 0.63404 0.18276 0.58268 0.0
C1307 C 0.63324 0.16842 0.55739 0.0
C1308 C 0.60593 0.1469 0.55837 0.0
C1309 C 0.59475 0.1412 0.57186 0.0
C1310 C 0.60894 0.15891 0.584 0.0
C1311 C 0.58549 0.13691 0.54513 0.0
C1312 C 0.55274 0.14922 0.54374 0.0
C1313 C 0.60046 0.12349 0.53292 0.0
C1314 C 0.63362 0.10685 0.53418 0.0
C1315 C 0.64031 0.08314 0.54451 0.0
C1316 C 0.6716 0.06787 0.5459 0.0
C1317 C 0.69651 0.07605 0.53701 0.0
C1318 C 0.69013 0.09945 0.52669 0.0
C1319 C 0.65886 0.1148 0.52524 0.0
H1320 H 0.72074 0.06424 0.53809 0.0
H1321 H 0.41784 0.21496 0.52752 0.0
H1322 H 0.16876 0.33462 0.71973 0.0
H1323 H 0.15388 0.31235 0.74208 0.0
H1324 H 0.18514 0.40505 0.76456 0.0
H1325 H 0.20108 0.42693 0.74221 0.0
H1326 H 0.20934 0.35677 0.77835 0.0
H1327 H 0.1002 0.37975 0.75825 0.0
H1328 H 0.05368 0.37851 0.73974 0.0
H1329 H 0.04861 0.27149 0.74052 0.0
H1330 H 0.09553 0.27199 0.75884 0.0
H1331 H 0.13837 0.3107 0.84291 0.0
H1332 H 0.15566 0.33738 0.82188 0.0
H1333 H 0.13587 0.24573 0.79658 0.0
H1334 H 0.11844 0.21893 0.81753 0.0
H1335 H 0.10347 0.29753 0.78499 0.0
H1336 H 0.22486 0.27798 0.7983 0.0
H1337 H 0.27618 0.28082 0.81419 0.0
H1338 H 0.25513 0.38314 0.82649 0.0
H1339 H 0.20434 0.38117 0.8101 0.0
C1340 C 0.17171 0.3505 0.72939 0.0
C1341 C 0.18556 0.38268 0.72923 0.0
C1342 C 0.16321 0.33776 0.74219 0.0
C1343 C 0.16777 0.35721 0.75503 0.0
C1344 C 0.18127 0.38957 0.75481 0.0
C1345 C 0.19031 0.40208 0.74205 0.0
C1346 C 0.16061 0.343 0.76877 0.0
C1347 C 0.18585 0.34443 0.77985 0.0
C1348 C 0.13026 0.32628 0.77073 0.0
C1349 C 0.10162 0.3259 0.75986 0.0
C1350 C 0.08933 0.35592 0.75441 0.0
C1351 C 0.06287 0.35535 0.74395 0.0
C1352 C 0.04825 0.32494 0.73893 0.0
C1353 C 0.05999 0.29503 0.7444 0.0
C1354 C 0.0865 0.29545 0.75484 0.0
C1355 C 0.13876 0.29585 0.833 0.0
C1356 C 0.12696 0.26265 0.83193 0.0
C1357 C 0.14861 0.31121 0.82093 0.0
C1358 C 0.14701 0.2936 0.80761 0.0
C1359 C 0.13712 0.25989 0.80672 0.0
C1360 C 0.12726 0.24456 0.81874 0.0
C1361 C 0.15242 0.31096 0.79439 0.0
C1362 C 0.12675 0.31021 0.78346 0.0
C1363 C 0.18209 0.32869 0.79257 0.0
C1364 C 0.21075 0.32925 0.80321 0.0
C1365 C 0.23105 0.30091 0.80454 0.0
C1366 C 0.26015 0.30247 0.81355 0.0
C1367 C 0.26878 0.33207 0.8215 0.0
C1368 C 0.24836 0.36022 0.82038 0.0
C1369 C 0.21958 0.35898 0.81115 0.0
H1370 H 0.29141 0.33339 0.82842 0.0
H1371 H 0.0278 0.32455 0.73082 0.0
loop_
_geom_bond_atom_site_label_1
_geom_bond_atom_site_label_2
_geom_bond_distance
_geom_bond_site_symmetry_2
_ccdc_geom_bond_type
O0 Cd1 2.300 . S
O0 C7 1.275 . S
Cd1 O0 2.300 . S
Cd1 O9 2.381 . S
Cd1 O10 2.378 . S
O2 Cd3 2.385 . S
O2 C7 1.255 . S
Cd3 O2 2.385 . S
Cd3 O4 2.317 . S
O4 Cd3 2.317 . S
O4 C5 1.232 . S
C5 O4 1.232 . S
C5 O6 1.218 . S
O6 C5 1.218 . S
C7 O0 1.275 . S
C7 O2 1.255 . S
C8 O9 1.258 . S
C8 O10 1.256 . S
O9 Cd1 2.381 . S
O9 C8 1.258 . S
O10 Cd1 2.378 . S
O10 C8 1.256 . S
O11 Cd12 2.300 . S
O11 C18 1.275 . S
Cd12 O11 2.300 . S
Cd12 O20 2.381 . S
Cd12 O21 2.378 . S
O13 Cd14 2.385 . S
O13 C18 1.255 . S
Cd14 O13 2.385 . S
Cd14 O15 2.317 . S
O15 Cd14 2.317 . S
O15 C16 1.232 . S
C16 O15 1.232 . S
C16 O17 1.218 . S
O17 C16 1.218 . S
C18 O11 1.275 . S
C18 O13 1.255 . S
C19 O20 1.258 . S
C19 O21 1.256 . S
O20 Cd12 2.381 . S
O20 C19 1.258 . S
O21 Cd12 2.378 . S
O21 C19 1.256 . S
O22 Cd23 2.300 . S
O22 C29 1.275 . S
Cd23 O22 2.300 . S
Cd23 O31 2.381 . S
Cd23 O32 2.378 . S
O24 Cd25 2.385 . S
O24 C29 1.255 . S
Cd25 O24 2.385 . S
Cd25 O26 2.317 . S
O26 Cd25 2.317 . S
O26 C27 1.232 . S
C27 O26 1.232 . S
C27 O28 1.218 . S
O28 C27 1.218 . S
C29 O22 1.275 . S
C29 O24 1.255 . S
C30 O31 1.258 . S
C30 O32 1.256 . S
O31 Cd23 2.381 . S
O31 C30 1.258 . S
O32 Cd23 2.378 . S
O32 C30 1.256 . S
O33 Cd34 2.300 . S
O33 C40 1.275 . S
Cd34 O33 2.300 . S
Cd34 O42 2.381 . S
Cd34 O43 2.378 . S
O35 Cd36 2.385 . S
O35 C40 1.255 . S
Cd36 O35 2.385 . S
Cd36 O37 2.317 . S
O37 Cd36 2.317 . S
O37 C38 1.232 . S
C38 O37 1.232 . S
C38 O39 1.218 . S
O39 C38 1.218 . S
C40 O33 1.275 . S
C40 O35 1.255 . S
C41 O42 1.258 . S
C41 O43 1.256 . S
O42 Cd34 2.381 . S
O42 C41 1.258 . S
O43 Cd34 2.378 . S
O43 C41 1.256 . S
O44 Cd45 2.300 . S
O44 C51 1.275 . S
Cd45 O44 2.300 . S
Cd45 O53 2.381 . S
Cd45 O54 2.378 . S
O46 Cd47 2.385 . S
O46 C51 1.255 . S
Cd47 O46 2.385 . S
Cd47 O48 2.317 . S
O48 Cd47 2.317 . S
O48 C49 1.232 . S
C49 O48 1.232 . S
C49 O50 1.218 . S
O50 C49 1.218 . S
C51 O44 1.275 . S
C51 O46 1.255 . S
C52 O53 1.258 . S
C52 O54 1.256 . S
O53 Cd45 2.381 . S
O53 C52 1.258 . S
O54 Cd45 2.378 . S
O54 C52 1.256 . S
O55 Cd56 2.300 . S
O55 C62 1.275 . S
Cd56 O55 2.300 . S
Cd56 O64 2.381 . S
Cd56 O65 2.378 . S
O57 Cd58 2.385 . S
O57 C62 1.255 . S
Cd58 O57 2.385 . S
Cd58 O59 2.317 . S
O59 Cd58 2.317 . S
O59 C60 1.232 . S
C60 O59 1.232 . S
C60 O61 1.218 . S
O61 C60 1.218 . S
C62 O55 1.275 . S
C62 O57 1.255 . S
C63 O64 1.258 . S
C63 O65 1.256 . S
O64 Cd56 2.381 . S
O64 C63 1.258 . S
O65 Cd56 2.378 . S
O65 C63 1.256 . S
O66 Cd67 2.300 . S
O66 C73 1.275 . S
Cd67 O66 2.300 . S
Cd67 O75 2.381 . S
Cd67 O76 2.378 . S
O68 Cd69 2.385 . S
O68 C73 1.255 . S
Cd69 O68 2.385 . S
Cd69 O70 2.317 . S
O70 Cd69 2.317 . S
O70 C71 1.232 . S
C71 O70 1.232 . S
C71 O72 1.218 . S
O72 C71 1.218 . S
C73 O66 1.275 . S
C73 O68 1.255 . S
C74 O75 1.258 . S
C74 O76 1.256 . S
O75 Cd67 2.381 . S
O75 C74 1.258 . S
O76 Cd67 2.378 . S
O76 C74 1.256 . S
O77 Cd78 2.300 . S
O77 C84 1.275 . S
Cd78 O77 2.300 . S
Cd78 O86 2.381 . S
Cd78 O87 2.378 . S
O79 Cd80 2.385 . S
O79 C84 1.255 . S
Cd80 O79 2.385 . S
Cd80 O81 2.317 . S
O81 Cd80 2.317 . S
O81 C82 1.232 . S
C82 O81 1.232 . S
C82 O83 1.218 . S
O83 C82 1.218 . S
C84 O77 1.275 . S
C84 O79 1.255 . S
C85 O86 1.258 . S
C85 O87 1.256 . S
O86 Cd78 2.381 . S
O86 C85 1.258 . S
O87 Cd78 2.378 . S
O87 C85 1.256 . S
Zn88 O94 1.920 . S
Zn88 O100 1.898 . S
Zn88 O103 1.905 . S
Zn89 O97 1.905 . S
Zn89 O98 1.898 . S
Zn89 O106 1.920 . S
Zn90 O93 2.080 . S
Zn90 O96 2.114 . S
Zn90 O99 2.120 . S
Zn90 O101 2.120 . S
Zn90 O102 2.114 . S
Zn90 O105 2.080 . S
C91 O96 1.166 . S
C91 O97 1.182 . S
C92 O98 1.167 . S
C92 O99 1.299 . S
O93 Zn90 2.080 . S
O93 C107 1.305 . S
O94 Zn88 1.920 . S
O94 C107 1.234 . S
C95 O100 1.167 . S
C95 O101 1.299 . S
O96 Zn90 2.114 . S
O96 C91 1.166 . S
O97 Zn89 1.905 . S
O97 C91 1.182 . S
O98 Zn89 1.898 . S
O98 C92 1.167 . S
O99 Zn90 2.120 . S
O99 C92 1.299 . S
O100 Zn88 1.898 . S
O100 C95 1.167 . S
O101 Zn90 2.120 . S
O101 C95 1.299 . S
O102 Zn90 2.114 . S
O102 C104 1.166 . S
O103 Zn88 1.905 . S
O103 C104 1.182 . S
C104 O102 1.166 . S
C104 O103 1.182 . S
O105 Zn90 2.080 . S
O105 C108 1.305 . S
O106 Zn89 1.920 . S
O106 C108 1.234 . S
C107 O93 1.305 . S
C107 O94 1.234 . S
C108 O105 1.305 . S
C108 O106 1.234 . S
Zn109 O115 1.920 . S
Zn109 O121 1.898 . S
Zn109 O124 1.905 . S
Zn110 O118 1.905 . S
Zn110 O119 1.898 . S
Zn110 O127 1.920 . S
Zn111 O114 2.080 . S
Zn111 O117 2.114 . S
Zn111 O120 2.120 . S
Zn111 O122 2.120 . S
Zn111 O123 2.114 . S
Zn111 O126 2.080 . S
C112 O117 1.166 . S
C112 O118 1.182 . S
C113 O119 1.167 . S
C113 O120 1.299 . S
O114 Zn111 2.080 . S
O114 C128 1.305 . S
O115 Zn109 1.920 . S
O115 C128 1.234 . S
C116 O121 1.167 . S
C116 O122 1.299 . S
O117 Zn111 2.114 . S
O117 C112 1.166 . S
O118 Zn110 1.905 . S
O118 C112 1.182 . S
O119 Zn110 1.898 . S
O119 C113 1.167 . S
O120 Zn111 2.120 . S
O120 C113 1.299 . S
O121 Zn109 1.898 . S
O121 C116 1.167 . S
O122 Zn111 2.120 . S
O122 C116 1.299 . S
O123 Zn111 2.114 . S
O123 C125 1.166 . S
O124 Zn109 1.905 . S
O124 C125 1.182 . S
C125 O123 1.166 . S
C125 O124 1.182 . S
O126 Zn111 2.080 . S
O126 C129 1.305 . S
O127 Zn110 1.920 . S
O127 C129 1.234 . S
C128 O114 1.305 . S
C128 O115 1.234 . S
C129 O126 1.305 . S
C129 O127 1.234 . S
Zn130 O136 1.920 . S
Zn130 O142 1.898 . S
Zn130 O145 1.905 . S
Zn131 O139 1.905 . S
Zn131 O140 1.898 . S
Zn131 O148 1.920 . S
Zn132 O135 2.080 . S
Zn132 O138 2.114 . S
Zn132 O141 2.120 . S
Zn132 O143 2.120 . S
Zn132 O144 2.114 . S
Zn132 O147 2.080 . S
C133 O138 1.166 . S
C133 O139 1.182 . S
C134 O140 1.167 . S
C134 O141 1.299 . S
O135 Zn132 2.080 . S
O135 C149 1.305 . S
O136 Zn130 1.920 . S
O136 C149 1.234 . S
C137 O142 1.167 . S
C137 O143 1.299 . S
O138 Zn132 2.114 . S
O138 C133 1.166 . S
O139 Zn131 1.905 . S
O139 C133 1.182 . S
O140 Zn131 1.898 . S
O140 C134 1.167 . S
O141 Zn132 2.120 . S
O141 C134 1.299 . S
O142 Zn130 1.898 . S
O142 C137 1.167 . S
O143 Zn132 2.120 . S
O143 C137 1.299 . S
O144 Zn132 2.114 . S
O144 C146 1.166 . S
O145 Zn130 1.905 . S
O145 C146 1.182 . S
C146 O144 1.166 . S
C146 O145 1.182 . S
O147 Zn132 2.080 . S
O147 C150 1.305 . S
O148 Zn131 1.920 . S
O148 C150 1.234 . S
C149 O135 1.305 . S
C149 O136 1.234 . S
C150 O147 1.305 . S
C150 O148 1.234 . S
Zn151 O157 1.920 . S
Zn151 O163 1.898 . S
Zn151 O166 1.905 . S
Zn152 O160 1.905 . S
Zn152 O161 1.898 . S
Zn152 O169 1.920 . S
Zn153 O156 2.080 . S
Zn153 O159 2.114 . S
Zn153 O162 2.120 . S
Zn153 O164 2.120 . S
Zn153 O165 2.114 . S
Zn153 O168 2.080 . S
C154 O159 1.166 . S
C154 O160 1.182 . S
C155 O161 1.167 . S
C155 O162 1.299 . S
O156 Zn153 2.080 . S
O156 C170 1.305 . S
O157 Zn151 1.920 . S
O157 C170 1.234 . S
C158 O163 1.167 . S
C158 O164 1.299 . S
O159 Zn153 2.114 . S
O159 C154 1.166 . S
O160 Zn152 1.905 . S
O160 C154 1.182 . S
O161 Zn152 1.898 . S
O161 C155 1.167 . S
O162 Zn153 2.120 . S
O162 C155 1.299 . S
O163 Zn151 1.898 . S
O163 C158 1.167 . S
O164 Zn153 2.120 . S
O164 C158 1.299 . S
O165 Zn153 2.114 . S
O165 C167 1.166 . S
O166 Zn151 1.905 . S
O166 C167 1.182 . S
C167 O165 1.166 . S
C167 O166 1.182 . S
O168 Zn153 2.080 . S
O168 C171 1.305 . S
O169 Zn152 1.920 . S
O169 C171 1.234 . S
C170 O156 1.305 . S
C170 O157 1.234 . S
C171 O168 1.305 . S
C171 O169 1.234 . S
H172 C190 0.951 . S
H173 C192 0.951 . S
H174 C194 0.950 . S
H175 C195 0.950 . S
H176 C197 0.950 . S
H177 C200 0.950 . S
H178 C201 0.950 . S
H179 C203 0.950 . S
H180 C204 0.950 . S
H181 C205 0.951 . S
H182 C207 0.951 . S
H183 C209 0.950 . S
H184 C210 0.950 . S
H185 C212 0.950 . S
H186 C215 0.950 . S
H187 C216 0.950 . S
H188 C218 0.950 . S
H189 C219 0.950 . S
C190 H172 0.951 . S
C190 C191 1.366 . S
C190 C192 1.388 . S
C191 C190 1.366 . S
C191 C195 1.385 . S
C192 H173 0.951 . S
C192 C190 1.388 . S
C192 C193 1.366 . S
C193 C192 1.366 . S
C193 C194 1.414 . S
C193 C196 1.499 . S
C194 H174 0.950 . S
C194 C193 1.414 . S
C194 C195 1.374 . S
C195 H175 0.950 . S
C195 C191 1.385 . S
C195 C194 1.374 . S
C196 C193 1.499 . S
C196 C197 1.373 . S
C196 C198 1.389 . S
C197 H176 0.950 . S
C197 C196 1.373 . S
C197 C213 1.377 . S
C198 C196 1.389 . S
C198 C199 1.524 . S
C198 C212 1.377 . S
C199 C198 1.524 . S
C199 C200 1.397 . S
C199 C204 1.363 . S
C200 H177 0.950 . S
C200 C199 1.397 . S
C200 C201 1.334 . S
C201 H178 0.950 . S
C201 C200 1.334 . S
C201 C202 1.287 . S
C202 C201 1.287 . S
C202 C203 1.524 . S
C202 H221 0.913 . S
C203 H179 0.950 . S
C203 C202 1.524 . S
C203 C204 1.415 . S
C204 H180 0.950 . S
C204 C199 1.363 . S
C204 C203 1.415 . S
C205 H181 0.951 . S
C205 C206 1.366 . S
C205 C207 1.388 . S
C206 C205 1.366 . S
C206 C210 1.385 . S
C207 H182 0.951 . S
C207 C205 1.388 . S
C207 C208 1.366 . S
C208 C207 1.366 . S
C208 C209 1.414 . S
C208 C211 1.499 . S
C209 H183 0.950 . S
C209 C208 1.414 . S
C209 C210 1.374 . S
C210 H184 0.950 . S
C210 C206 1.385 . S
C210 C209 1.374 . S
C211 C208 1.499 . S
C211 C212 1.373 . S
C211 C213 1.389 . S
C212 H185 0.950 . S
C212 C198 1.377 . S
C212 C211 1.373 . S
C213 C197 1.377 . S
C213 C211 1.389 . S
C213 C214 1.524 . S
C214 C213 1.524 . S
C214 C215 1.397 . S
C214 C219 1.363 . S
C215 H186 0.950 . S
C215 C214 1.397 . S
C215 C216 1.334 . S
C216 H187 0.950 . S
C216 C215 1.334 . S
C216 C217 1.287 . S
C217 C216 1.287 . S
C217 C218 1.524 . S
C217 H220 0.999 . S
C218 H188 0.950 . S
C218 C217 1.524 . S
C218 C219 1.415 . S
C219 H189 0.950 . S
C219 C214 1.363 . S
C219 C218 1.415 . S
H220 C217 0.999 . S
H221 C202 0.913 . S
H222 C240 0.951 . S
H223 C242 0.951 . S
H224 C244 0.950 . S
H225 C245 0.950 . S
H226 C247 0.950 . S
H227 C250 0.950 . S
H228 C251 0.950 . S
H229 C253 0.950 . S
H230 C254 0.950 . S
H231 C255 0.951 . S
H232 C257 0.951 . S
H233 C259 0.950 . S
H234 C260 0.950 . S
H235 C262 0.950 . S
H236 C265 0.950 . S
H237 C266 0.950 . S
H238 C268 0.950 . S
H239 C269 0.950 . S
C240 H222 0.951 . S
C240 C241 1.366 . S
C240 C242 1.388 . S
C241 C240 1.366 . S
C241 C245 1.385 . S
C242 H223 0.951 . S
C242 C240 1.388 . S
C242 C243 1.366 . S
C243 C242 1.366 . S
C243 C244 1.414 . S
C243 C246 1.499 . S
C244 H224 0.950 . S
C244 C243 1.414 . S
C244 C245 1.374 . S
C245 H225 0.950 . S
C245 C241 1.385 . S
C245 C244 1.374 . S
C246 C243 1.499 . S
C246 C247 1.373 . S
C246 C248 1.389 . S
C247 H226 0.950 . S
C247 C246 1.373 . S
C247 C263 1.377 . S
C248 C246 1.389 . S
C248 C249 1.524 . S
C248 C262 1.377 . S
C249 C248 1.524 . S
C249 C250 1.397 . S
C249 C254 1.363 . S
C250 H227 0.950 . S
C250 C249 1.397 . S
C250 C251 1.334 . S
C251 H228 0.950 . S
C251 C250 1.334 . S
C251 C252 1.287 . S
C252 C251 1.287 . S
C252 C253 1.524 . S
C252 H271 0.913 . S
C253 H229 0.950 . S
C253 C252 1.524 . S
C253 C254 1.415 . S
C254 H230 0.950 . S
C254 C249 1.363 . S
C254 C253 1.415 . S
C255 H231 0.951 . S
C255 C256 1.366 . S
C255 C257 1.388 . S
C256 C255 1.366 . S
C256 C260 1.385 . S
C257 H232 0.951 . S
C257 C255 1.388 . S
C257 C258 1.366 . S
C258 C257 1.366 . S
C258 C259 1.414 . S
C258 C261 1.499 . S
C259 H233 0.950 . S
C259 C258 1.414 . S
C259 C260 1.374 . S
C260 H234 0.950 . S
C260 C256 1.385 . S
C260 C259 1.374 . S
C261 C258 1.499 . S
C261 C262 1.373 . S
C261 C263 1.389 . S
C262 H235 0.950 . S
C262 C248 1.377 . S
C262 C261 1.373 . S
C263 C247 1.377 . S
C263 C261 1.389 . S
C263 C264 1.524 . S
C264 C263 1.524 . S
C264 C265 1.397 . S
C264 C269 1.363 . S
C265 H236 0.950 . S
C265 C264 1.397 . S
C265 C266 1.334 . S
C266 H237 0.950 . S
C266 C265 1.334 . S
C266 C267 1.287 . S
C267 C266 1.287 . S
C267 C268 1.524 . S
C267 H270 0.999 . S
C268 H238 0.950 . S
C268 C267 1.524 . S
C268 C269 1.415 . S
C269 H239 0.950 . S
C269 C264 1.363 . S
C269 C268 1.415 . S
H270 C267 0.999 . S
H271 C252 0.913 . S
H272 C290 0.951 . S
H273 C292 0.951 . S
H274 C294 0.950 . S
H275 C295 0.950 . S
H276 C297 0.950 . S
H277 C300 0.950 . S
H278 C301 0.950 . S
H279 C303 0.950 . S
H280 C304 0.950 . S
H281 C305 0.951 . S
H282 C307 0.951 . S
H283 C309 0.950 . S
H284 C310 0.950 . S
H285 C312 0.950 . S
H286 C315 0.950 . S
H287 C316 0.950 . S
H288 C318 0.950 . S
H289 C319 0.950 . S
C290 H272 0.951 . S
C290 C291 1.366 . S
C290 C292 1.388 . S
C291 C290 1.366 . S
C291 C295 1.385 . S
C292 H273 0.951 . S
C292 C290 1.388 . S
C292 C293 1.366 . S
C293 C292 1.366 . S
C293 C294 1.414 . S
C293 C296 1.499 . S
C294 H274 0.950 . S
C294 C293 1.414 . S
C294 C295 1.374 . S
C295 H275 0.950 . S
C295 C291 1.385 . S
C295 C294 1.374 . S
C296 C293 1.499 . S
C296 C297 1.373 . S
C296 C298 1.389 . S
C297 H276 0.950 . S
C297 C296 1.373 . S
C297 C313 1.377 . S
C298 C296 1.389 . S
C298 C299 1.524 . S
C298 C312 1.377 . S
C299 C298 1.524 . S
C299 C300 1.397 . S
C299 C304 1.363 . S
C300 H277 0.950 . S
C300 C299 1.397 . S
C300 C301 1.334 . S
C301 H278 0.950 . S
C301 C300 1.334 . S
C301 C302 1.287 . S
C302 C301 1.287 . S
C302 C303 1.524 . S
C302 H321 0.913 . S
C303 H279 0.950 . S
C303 C302 1.524 . S
C303 C304 1.415 . S
C304 H280 0.950 . S
C304 C299 1.363 . S
C304 C303 1.415 . S
C305 H281 0.951 . S
C305 C306 1.366 . S
C305 C307 1.388 . S
C306 C305 1.366 . S
C306 C310 1.385 . S
C307 H282 0.951 . S
C307 C305 1.388 . S
C307 C308 1.366 . S
C308 C307 1.366 . S
C308 C309 1.414 . S
C308 C311 1.499 . S
C309 H283 0.950 . S
C309 C308 1.414 . S
C309 C310 1.374 . S
C310 H284 0.950 . S
C310 C306 1.385 . S
C310 C309 1.374 . S
C311 C308 1.499 . S
C311 C312 1.373 . S
C311 C313 1.389 . S
C312 H285 0.950 . S
C312 C298 1.377 . S
C312 C311 1.373 . S
C313 C297 1.377 . S
C313 C311 1.389 . S
C313 C314 1.524 . S
C314 C313 1.524 . S
C314 C315 1.397 . S
C314 C319 1.363 . S
C315 H286 0.950 . S
C315 C314 1.397 . S
C315 C316 1.334 . S
C316 H287 0.950 . S
C316 C315 1.334 . S
C316 C317 1.287 . S
C317 C316 1.287 . S
C317 C318 1.524 . S
C317 H320 0.999 . S
C318 H288 0.950 . S
C318 C317 1.524 . S
C318 C319 1.415 . S
C319 H289 0.950 . S
C319 C314 1.363 . S
C319 C318 1.415 . S
H320 C317 0.999 . S
H321 C302 0.913 . S
H322 C340 0.951 . S
H323 C342 0.951 . S
H324 C344 0.950 . S
H325 C345 0.950 . S
H326 C347 0.950 . S
H327 C350 0.950 . S
H328 C351 0.950 . S
H329 C353 0.950 . S
H330 C354 0.950 . S
H331 C355 0.951 . S
H332 C357 0.951 . S
H333 C359 0.950 . S
H334 C360 0.950 1_455 S
H335 C362 0.950 . S
H336 C365 0.950 . S
H337 C366 0.950 . S
H338 C368 0.950 . S
H339 C369 0.950 . S
C340 H322 0.951 . S
C340 C341 1.366 . S
C340 C342 1.388 . S
C341 C340 1.366 . S
C341 C345 1.385 . S
C342 H323 0.951 . S
C342 C340 1.388 . S
C342 C343 1.366 . S
C343 C342 1.366 . S
C343 C344 1.414 . S
C343 C346 1.499 . S
C344 H324 0.950 . S
C344 C343 1.414 . S
C344 C345 1.374 . S
C345 H325 0.950 . S
C345 C341 1.385 . S
C345 C344 1.374 . S
C346 C343 1.499 . S
C346 C347 1.373 . S
C346 C348 1.389 . S
C347 H326 0.950 . S
C347 C346 1.373 . S
C347 C363 1.377 . S
C348 C346 1.389 . S
C348 C349 1.524 . S
C348 C362 1.377 . S
C349 C348 1.524 . S
C349 C350 1.397 . S
C349 C354 1.363 . S
C350 H327 0.950 . S
C350 C349 1.397 . S
C350 C351 1.334 . S
C351 H328 0.950 . S
C351 C350 1.334 . S
C351 C352 1.287 . S
C352 C351 1.287 . S
C352 C353 1.524 . S
C352 H371 0.913 . S
C353 H329 0.950 . S
C353 C352 1.524 . S
C353 C354 1.415 . S
C354 H330 0.950 . S
C354 C349 1.363 . S
C354 C353 1.415 . S
C355 H331 0.951 . S
C355 C356 1.366 . S
C355 C357 1.388 1_455 S
C356 C355 1.366 . S
C356 C360 1.385 1_455 S
C357 H332 0.951 . S
C357 C355 1.388 1_655 S
C357 C358 1.366 . S
C358 C357 1.366 . S
C358 C359 1.414 . S
C358 C361 1.499 . S
C359 H333 0.950 . S
C359 C358 1.414 . S
C359 C360 1.374 . S
C360 H334 0.950 1_655 S
C360 C356 1.385 1_655 S
C360 C359 1.374 . S
C361 C358 1.499 . S
C361 C362 1.373 . S
C361 C363 1.389 . S
C362 H335 0.950 . S
C362 C348 1.377 . S
C362 C361 1.373 . S
C363 C347 1.377 . S
C363 C361 1.389 . S
C363 C364 1.524 . S
C364 C363 1.524 . S
C364 C365 1.397 . S
C364 C369 1.363 . S
C365 H336 0.950 . S
C365 C364 1.397 . S
C365 C366 1.334 . S
C366 H337 0.950 . S
C366 C365 1.334 . S
C366 C367 1.287 . S
C367 C366 1.287 . S
C367 C368 1.524 . S
C367 H370 0.999 . S
C368 H338 0.950 . S
C368 C367 1.524 . S
C368 C369 1.415 . S
C369 H339 0.950 . S
C369 C364 1.363 . S
C369 C368 1.415 . S
H370 C367 0.999 . S
H371 C352 0.913 . S
H372 C390 0.951 . S
H373 C392 0.951 . S
H374 C394 0.950 . S
H375 C395 0.940 1_655 S
H376 C397 0.950 . S
H377 C400 0.950 . S
H378 C401 0.950 . S
H379 C403 0.950 . S
H380 C404 0.950 . S
H381 C405 0.951 . S
H382 C407 0.951 . S
H383 C409 0.950 . S
H384 C410 0.950 . S
H385 C412 0.950 . S
H386 C415 0.950 . S
H387 C416 0.950 . S
H388 C418 0.950 1_655 S
H389 C419 0.950 . S
C390 H372 0.951 . S
C390 C391 1.366 . S
C390 C392 1.388 . S
C391 C390 1.366 . S
C391 C395 1.385 . S
C392 H373 0.951 . S
C392 C390 1.388 . S
C392 C393 1.366 . S
C393 C392 1.366 . S
C393 C394 1.414 . S
C393 C396 1.499 . S
C394 H374 0.950 . S
C394 C393 1.414 . S
C394 C395 1.374 . S
C395 H375 0.940 1_455 S
C395 C391 1.385 . S
C395 C394 1.374 . S
C396 C393 1.499 . S
C396 C397 1.373 . S
C396 C398 1.389 . S
C397 H376 0.950 . S
C397 C396 1.373 . S
C397 C413 1.377 . S
C398 C396 1.389 . S
C398 C399 1.524 . S
C398 C412 1.377 . S
C399 C398 1.524 . S
C399 C400 1.397 . S
C399 C404 1.363 . S
C400 H377 0.950 . S
C400 C399 1.397 . S
C400 C401 1.334 . S
C401 H378 0.950 . S
C401 C400 1.334 . S
C401 C402 1.287 . S
C402 C401 1.287 . S
C402 C403 1.524 . S
C402 H421 0.913 . S
C403 H379 0.950 . S
C403 C402 1.524 . S
C403 C404 1.415 . S
C404 H380 0.950 . S
C404 C399 1.363 . S
C404 C403 1.415 . S
C405 H381 0.951 . S
C405 C406 1.366 . S
C405 C407 1.388 . S
C406 C405 1.366 . S
C406 C410 1.385 . S
C407 H382 0.951 . S
C407 C405 1.388 . S
C407 C408 1.366 . S
C408 C407 1.366 . S
C408 C409 1.414 . S
C408 C411 1.499 . S
C409 H383 0.950 . S
C409 C408 1.414 . S
C409 C410 1.374 . S
C410 H384 0.950 . S
C410 C406 1.385 . S
C410 C409 1.374 . S
C411 C408 1.499 . S
C411 C412 1.373 . S
C411 C413 1.389 . S
C412 H385 0.950 . S
C412 C398 1.377 . S
C412 C411 1.373 . S
C413 C397 1.377 . S
C413 C411 1.389 . S
C413 C414 1.524 . S
C414 C413 1.524 . S
C414 C415 1.397 . S
C414 C419 1.363 . S
C415 H386 0.950 . S
C415 C414 1.397 . S
C415 C416 1.334 . S
C416 H387 0.950 . S
C416 C415 1.334 . S
C416 C417 1.287 . S
C417 C416 1.287 . S
C417 C418 1.524 . S
C417 H420 0.999 . S
C418 H388 0.950 1_455 S
C418 C417 1.524 . S
C418 C419 1.415 . S
C419 H389 0.950 . S
C419 C414 1.363 . S
C419 C418 1.415 . S
H420 C417 0.999 . S
H421 C402 0.913 . S
H422 C440 0.951 . S
H423 C442 0.951 . S
H424 C444 0.950 . S
H425 C445 0.950 . S
H426 C447 0.950 . S
H427 C450 0.950 . S
H428 C451 0.950 . S
H429 C453 0.950 . S
H430 C454 0.950 . S
H431 C455 0.951 . S
H432 C457 0.951 . S
H433 C459 0.950 . S
H434 C460 0.950 . S
H435 C462 0.950 . S
H436 C465 0.950 . S
H437 C466 0.950 . S
H438 C468 0.950 . S
H439 C469 0.950 . S
C440 H422 0.951 . S
C440 C441 1.366 . S
C440 C442 1.388 . S
C441 C440 1.366 . S
C441 C445 1.385 . S
C442 H423 0.951 . S
C442 C440 1.388 . S
C442 C443 1.366 . S
C443 C442 1.366 . S
C443 C444 1.414 . S
C443 C446 1.499 . S
C444 H424 0.950 . S
C444 C443 1.414 . S
C444 C445 1.374 . S
C445 H425 0.950 . S
C445 C441 1.385 . S
C445 C444 1.374 . S
C446 C443 1.499 . S
C446 C447 1.373 . S
C446 C448 1.389 . S
C447 H426 0.950 . S
C447 C446 1.373 . S
C447 C463 1.377 . S
C448 C446 1.389 . S
C448 C449 1.524 . S
C448 C462 1.377 . S
C449 C448 1.524 . S
C449 C450 1.397 . S
C449 C454 1.363 . S
C450 H427 0.950 . S
C450 C449 1.397 . S
C450 C451 1.334 . S
C451 H428 0.950 . S
C451 C450 1.334 . S
C451 C452 1.287 . S
C452 C451 1.287 . S
C452 C453 1.524 . S
C452 H471 0.913 . S
C453 H429 0.950 . S
C453 C452 1.524 . S
C453 C454 1.415 . S
C454 H430 0.950 . S
C454 C449 1.363 . S
C454 C453 1.415 . S
C455 H431 0.951 . S
C455 C456 1.366 . S
C455 C457 1.388 1_455 S
C456 C455 1.366 . S
C456 C460 1.385 . S
C457 H432 0.951 . S
C457 C455 1.388 1_655 S
C457 C458 1.366 . S
C458 C457 1.366 . S
C458 C459 1.414 . S
C458 C461 1.499 . S
C459 H433 0.950 . S
C459 C458 1.414 . S
C459 C460 1.374 1_655 S
C460 H434 0.950 . S
C460 C456 1.385 . S
C460 C459 1.374 1_455 S
C461 C458 1.499 . S
C461 C462 1.373 . S
C461 C463 1.389 . S
C462 H435 0.950 . S
C462 C448 1.377 . S
C462 C461 1.373 . S
C463 C447 1.377 . S
C463 C461 1.389 . S
C463 C464 1.524 . S
C464 C463 1.524 . S
C464 C465 1.397 . S
C464 C469 1.363 . S
C465 H436 0.950 . S
C465 C464 1.397 . S
C465 C466 1.334 . S
C466 H437 0.950 . S
C466 C465 1.334 . S
C466 C467 1.287 . S
C467 C466 1.287 . S
C467 C468 1.524 . S
C467 H470 0.999 . S
C468 H438 0.950 . S
C468 C467 1.524 . S
C468 C469 1.415 . S
C469 H439 0.950 . S
C469 C464 1.363 . S
C469 C468 1.415 . S
H470 C467 0.999 . S
H471 C452 0.913 . S
H472 C490 0.951 . S
H473 C492 0.951 . S
H474 C494 0.950 . S
H475 C495 0.950 . S
H476 C497 0.950 . S
H477 C500 0.950 . S
H478 C501 0.950 . S
H479 C503 0.950 . S
H480 C504 0.950 . S
H481 C505 0.951 . S
H482 C507 0.951 . S
H483 C509 0.950 . S
H484 C510 0.950 . S
H485 C512 0.950 . S
H486 C515 0.950 . S
H487 C516 0.950 . S
H488 C518 0.950 . S
H489 C519 0.950 . S
C490 H472 0.951 . S
C490 C491 1.366 . S
C490 C492 1.388 . S
C491 C490 1.366 . S
C491 C495 1.385 . S
C492 H473 0.951 . S
C492 C490 1.388 . S
C492 C493 1.366 . S
C493 C492 1.366 . S
C493 C494 1.414 . S
C493 C496 1.499 . S
C494 H474 0.950 . S
C494 C493 1.414 . S
C494 C495 1.374 . S
C495 H475 0.950 . S
C495 C491 1.385 . S
C495 C494 1.374 . S
C496 C493 1.499 . S
C496 C497 1.373 . S
C496 C498 1.389 . S
C497 H476 0.950 . S
C497 C496 1.373 . S
C497 C513 1.377 . S
C498 C496 1.389 . S
C498 C499 1.524 . S
C498 C512 1.377 . S
C499 C498 1.524 . S
C499 C500 1.397 . S
C499 C504 1.363 . S
C500 H477 0.950 . S
C500 C499 1.397 . S
C500 C501 1.334 . S
C501 H478 0.950 . S
C501 C500 1.334 . S
C501 C502 1.287 . S
C502 C501 1.287 . S
C502 C503 1.524 . S
C502 H521 0.913 . S
C503 H479 0.950 . S
C503 C502 1.524 . S
C503 C504 1.415 . S
C504 H480 0.950 . S
C504 C499 1.363 . S
C504 C503 1.415 . S
C505 H481 0.951 . S
C505 C506 1.366 . S
C505 C507 1.388 . S
C506 C505 1.366 . S
C506 C510 1.385 . S
C507 H482 0.951 . S
C507 C505 1.388 . S
C507 C508 1.366 . S
C508 C507 1.366 . S
C508 C509 1.414 . S
C508 C511 1.499 . S
C509 H483 0.950 . S
C509 C508 1.414 . S
C509 C510 1.374 . S
C510 H484 0.950 . S
C510 C506 1.385 . S
C510 C509 1.374 . S
C511 C508 1.499 . S
C511 C512 1.373 . S
C511 C513 1.389 . S
C512 H485 0.950 . S
C512 C498 1.377 . S
C512 C511 1.373 . S
C513 C497 1.377 . S
C513 C511 1.389 . S
C513 C514 1.524 . S
C514 C513 1.524 . S
C514 C515 1.397 . S
C514 C519 1.363 . S
C515 H486 0.950 . S
C515 C514 1.397 . S
C515 C516 1.334 . S
C516 H487 0.950 . S
C516 C515 1.334 . S
C516 C517 1.287 . S
C517 C516 1.287 . S
C517 C518 1.524 . S
C517 H520 0.999 . S
C518 H488 0.950 . S
C518 C517 1.524 . S
C518 C519 1.415 . S
C519 H489 0.950 . S
C519 C514 1.363 . S
C519 C518 1.415 . S
H520 C517 0.999 . S
H521 C502 0.913 . S
H522 C540 0.951 1_455 S
H523 C542 0.951 . S
H524 C544 0.950 . S
H525 C545 0.950 . S
H526 C547 0.950 . S
H527 C550 0.950 . S
H528 C551 0.950 . S
H529 C553 0.950 . S
H530 C554 0.950 . S
H531 C555 0.951 . S
H532 C557 0.951 . S
H533 C559 0.950 . S
H534 C560 0.950 . S
H535 C562 0.950 . S
H536 C565 0.950 . S
H537 C566 0.950 . S
H538 C568 0.950 . S
H539 C569 0.950 . S
C540 H522 0.951 1_655 S
C540 C541 1.366 1_655 S
C540 C542 1.388 . S
C541 C540 1.366 1_455 S
C541 C545 1.385 . S
C542 H523 0.951 . S
C542 C540 1.388 . S
C542 C543 1.366 . S
C543 C542 1.366 . S
C543 C544 1.414 . S
C543 C546 1.499 . S
C544 H524 0.950 . S
C544 C543 1.414 . S
C544 C545 1.374 1_655 S
C545 H525 0.950 . S
C545 C541 1.385 . S
C545 C544 1.374 1_455 S
C546 C543 1.499 . S
C546 C547 1.373 . S
C546 C548 1.389 . S
C547 H526 0.950 . S
C547 C546 1.373 . S
C547 C563 1.377 . S
C548 C546 1.389 . S
C548 C549 1.524 . S
C548 C562 1.377 . S
C549 C548 1.524 . S
C549 C550 1.397 . S
C549 C554 1.363 . S
C550 H527 0.950 . S
C550 C549 1.397 . S
C550 C551 1.334 . S
C551 H528 0.950 . S
C551 C550 1.334 . S
C551 C552 1.287 . S
C552 C551 1.287 . S
C552 C553 1.524 . S
C552 H571 0.913 . S
C553 H529 0.950 . S
C553 C552 1.524 . S
C553 C554 1.415 . S
C554 H530 0.950 . S
C554 C549 1.363 . S
C554 C553 1.415 . S
C555 H531 0.951 . S
C555 C556 1.366 . S
C555 C557 1.388 . S
C556 C555 1.366 . S
C556 C560 1.385 . S
C557 H532 0.951 . S
C557 C555 1.388 . S
C557 C558 1.366 . S
C558 C557 1.366 . S
C558 C559 1.414 . S
C558 C561 1.499 . S
C559 H533 0.950 . S
C559 C558 1.414 . S
C559 C560 1.374 . S
C560 H534 0.950 . S
C560 C556 1.385 . S
C560 C559 1.374 . S
C561 C558 1.499 . S
C561 C562 1.373 . S
C561 C563 1.389 . S
C562 H535 0.950 . S
C562 C548 1.377 . S
C562 C561 1.373 . S
C563 C547 1.377 . S
C563 C561 1.389 . S
C563 C564 1.524 . S
C564 C563 1.524 . S
C564 C565 1.397 . S
C564 C569 1.363 . S
C565 H536 0.950 . S
C565 C564 1.397 . S
C565 C566 1.334 . S
C566 H537 0.950 . S
C566 C565 1.334 . S
C566 C567 1.287 . S
C567 C566 1.287 . S
C567 C568 1.524 . S
C567 H570 0.999 . S
C568 H538 0.950 . S
C568 C567 1.524 . S
C568 C569 1.415 . S
C569 H539 0.950 . S
C569 C564 1.363 . S
C569 C568 1.415 . S
H570 C567 0.999 . S
H571 C552 0.913 . S
H572 C590 0.951 . S
H573 C592 0.951 . S
H574 C594 0.950 . S
H575 C595 0.950 . S
H576 C597 0.950 . S
H577 C600 0.950 . S
H578 C601 0.950 . S
H579 C603 0.950 . S
H580 C604 0.950 . S
H581 C605 0.951 . S
H582 C607 0.951 . S
H583 C609 0.950 . S
H584 C610 0.950 . S
H585 C612 0.950 . S
H586 C615 0.950 . S
H587 C616 0.950 . S
H588 C618 0.950 . S
H589 C619 0.950 . S
C590 H572 0.951 . S
C590 C591 1.366 . S
C590 C592 1.388 . S
C591 C590 1.366 . S
C591 C595 1.385 . S
C592 H573 0.951 . S
C592 C590 1.388 . S
C592 C593 1.366 . S
C593 C592 1.366 . S
C593 C594 1.414 . S
C593 C596 1.499 . S
C594 H574 0.950 . S
C594 C593 1.414 . S
C594 C595 1.374 . S
C595 H575 0.950 . S
C595 C591 1.385 . S
C595 C594 1.374 . S
C596 C593 1.499 . S
C596 C597 1.373 . S
C596 C598 1.389 . S
C597 H576 0.950 . S
C597 C596 1.373 . S
C597 C613 1.377 . S
C598 C596 1.389 . S
C598 C599 1.524 . S
C598 C612 1.377 . S
C599 C598 1.524 . S
C599 C600 1.397 . S
C599 C604 1.363 . S
C600 H577 0.950 . S
C600 C599 1.397 . S
C600 C601 1.334 . S
C601 H578 0.950 . S
C601 C600 1.334 . S
C601 C602 1.287 . S
C602 C601 1.287 . S
C602 C603 1.524 . S
C602 H621 0.913 . S
C603 H579 0.950 . S
C603 C602 1.524 . S
C603 C604 1.415 . S
C604 H580 0.950 . S
C604 C599 1.363 . S
C604 C603 1.415 . S
C605 H581 0.951 . S
C605 C606 1.366 . S
C605 C607 1.388 . S
C606 C605 1.366 . S
C606 C610 1.385 . S
C607 H582 0.951 . S
C607 C605 1.388 . S
C607 C608 1.366 . S
C608 C607 1.366 . S
C608 C609 1.414 . S
C608 C611 1.499 . S
C609 H583 0.950 . S
C609 C608 1.414 . S
C609 C610 1.374 . S
C610 H584 0.950 . S
C610 C606 1.385 . S
C610 C609 1.374 . S
C611 C608 1.499 . S
C611 C612 1.373 . S
C611 C613 1.389 . S
C612 H585 0.950 . S
C612 C598 1.377 . S
C612 C611 1.373 . S
C613 C597 1.377 . S
C613 C611 1.389 . S
C613 C614 1.524 . S
C614 C613 1.524 . S
C614 C615 1.397 . S
C614 C619 1.363 . S
C615 H586 0.950 . S
C615 C614 1.397 . S
C615 C616 1.334 . S
C616 H587 0.950 . S
C616 C615 1.334 . S
C616 C617 1.287 . S
C617 C616 1.287 . S
C617 C618 1.524 . S
C617 H620 0.999 . S
C618 H588 0.950 . S
C618 C617 1.524 . S
C618 C619 1.415 . S
C619 H589 0.950 . S
C619 C614 1.363 . S
C619 C618 1.415 . S
H620 C617 0.999 . S
H621 C602 0.913 . S
H622 C640 0.951 . S
H623 C642 0.951 . S
H624 C644 0.950 . S
H625 C645 0.950 . S
H626 C647 0.950 . S
H627 C650 0.950 . S
H628 C651 0.950 . S
H629 C653 0.950 . S
H630 C654 0.950 . S
H631 C655 0.951 . S
H632 C657 0.951 . S
H633 C659 0.950 . S
H634 C660 0.950 . S
H635 C662 0.950 . S
H636 C665 0.950 . S
H637 C666 0.950 . S
H638 C668 0.950 . S
H639 C669 0.950 . S
C640 H622 0.951 . S
C640 C641 1.366 . S
C640 C642 1.388 . S
C641 C640 1.366 . S
C641 C645 1.385 . S
C642 H623 0.951 . S
C642 C640 1.388 . S
C642 C643 1.366 . S
C643 C642 1.366 . S
C643 C644 1.414 . S
C643 C646 1.499 . S
C644 H624 0.950 . S
C644 C643 1.414 . S
C644 C645 1.374 . S
C645 H625 0.950 . S
C645 C641 1.385 . S
C645 C644 1.374 . S
C646 C643 1.499 . S
C646 C647 1.373 . S
C646 C648 1.389 . S
C647 H626 0.950 . S
C647 C646 1.373 . S
C647 C663 1.377 . S
C648 C646 1.389 . S
C648 C649 1.524 . S
C648 C662 1.377 . S
C649 C648 1.524 . S
C649 C650 1.397 . S
C649 C654 1.363 . S
C650 H627 0.950 . S
C650 C649 1.397 . S
C650 C651 1.334 . S
C651 H628 0.950 . S
C651 C650 1.334 . S
C651 C652 1.287 . S
C652 C651 1.287 . S
C652 C653 1.524 . S
C652 H671 0.913 . S
C653 H629 0.950 . S
C653 C652 1.524 . S
C653 C654 1.415 . S
C654 H630 0.950 . S
C654 C649 1.363 . S
C654 C653 1.415 . S
C655 H631 0.951 . S
C655 C656 1.366 . S
C655 C657 1.388 . S
C656 C655 1.366 . S
C656 C660 1.385 . S
C657 H632 0.951 . S
C657 C655 1.388 . S
C657 C658 1.366 . S
C658 C657 1.366 . S
C658 C659 1.414 . S
C658 C661 1.499 . S
C659 H633 0.950 . S
C659 C658 1.414 . S
C659 C660 1.374 . S
C660 H634 0.950 . S
C660 C656 1.385 . S
C660 C659 1.374 . S
C661 C658 1.499 . S
C661 C662 1.373 . S
C661 C663 1.389 . S
C662 H635 0.950 . S
C662 C648 1.377 . S
C662 C661 1.373 . S
C663 C647 1.377 . S
C663 C661 1.389 . S
C663 C664 1.524 . S
C664 C663 1.524 . S
C664 C665 1.397 . S
C664 C669 1.363 . S
C665 H636 0.950 . S
C665 C664 1.397 . S
C665 C666 1.334 . S
C666 H637 0.950 . S
C666 C665 1.334 . S
C666 C667 1.287 . S
C667 C666 1.287 . S
C667 C668 1.524 . S
C667 H670 0.999 . S
C668 H638 0.950 . S
C668 C667 1.524 . S
C668 C669 1.415 . S
C669 H639 0.950 . S
C669 C664 1.363 . S
C669 C668 1.415 . S
H670 C667 0.999 . S
H671 C652 0.913 . S
H672 C690 0.951 . S
H673 C692 0.951 . S
H674 C694 0.950 . S
H675 C695 0.950 . S
H676 C697 0.950 . S
H677 C700 0.950 . S
H678 C701 0.950 . S
H679 C703 0.950 . S
H680 C704 0.950 . S
H681 C705 0.951 . S
H682 C707 0.951 . S
H683 C709 0.950 . S
H684 C710 0.950 . S
H685 C712 0.950 . S
H686 C715 0.950 . S
H687 C716 0.950 . S
H688 C718 0.950 . S
H689 C719 0.950 . S
C690 H672 0.951 . S
C690 C691 1.366 . S
C690 C692 1.388 . S
C691 C690 1.366 . S
C691 C695 1.385 . S
C692 H673 0.951 . S
C692 C690 1.388 . S
C692 C693 1.366 . S
C693 C692 1.366 . S
C693 C694 1.414 . S
C693 C696 1.499 . S
C694 H674 0.950 . S
C694 C693 1.414 . S
C694 C695 1.374 . S
C695 H675 0.950 . S
C695 C691 1.385 . S
C695 C694 1.374 . S
C696 C693 1.499 . S
C696 C697 1.373 . S
C696 C698 1.389 . S
C697 H676 0.950 . S
C697 C696 1.373 . S
C697 C713 1.377 . S
C698 C696 1.389 . S
C698 C699 1.524 . S
C698 C712 1.377 . S
C699 C698 1.524 . S
C699 C700 1.397 . S
C699 C704 1.363 . S
C700 H677 0.950 . S
C700 C699 1.397 . S
C700 C701 1.334 . S
C701 H678 0.950 . S
C701 C700 1.334 . S
C701 C702 1.287 . S
C702 C701 1.287 . S
C702 C703 1.524 . S
C702 H721 0.913 . S
C703 H679 0.950 . S
C703 C702 1.524 . S
C703 C704 1.415 . S
C704 H680 0.950 . S
C704 C699 1.363 . S
C704 C703 1.415 . S
C705 H681 0.951 . S
C705 C706 1.366 . S
C705 C707 1.388 . S
C706 C705 1.366 . S
C706 C710 1.385 . S
C707 H682 0.951 . S
C707 C705 1.388 . S
C707 C708 1.366 . S
C708 C707 1.366 . S
C708 C709 1.414 . S
C708 C711 1.499 . S
C709 H683 0.950 . S
C709 C708 1.414 . S
C709 C710 1.374 . S
C710 H684 0.950 . S
C710 C706 1.385 . S
C710 C709 1.374 . S
C711 C708 1.499 . S
C711 C712 1.373 . S
C711 C713 1.389 . S
C712 H685 0.950 . S
C712 C698 1.377 . S
C712 C711 1.373 . S
C713 C697 1.377 . S
C713 C711 1.389 . S
C713 C714 1.524 . S
C714 C713 1.524 . S
C714 C715 1.397 . S
C714 C719 1.363 . S
C715 H686 0.950 . S
C715 C714 1.397 . S
C715 C716 1.334 . S
C716 H687 0.950 . S
C716 C715 1.334 . S
C716 C717 1.287 . S
C717 C716 1.287 . S
C717 C718 1.524 . S
C717 H720 0.999 . S
C718 H688 0.950 . S
C718 C717 1.524 . S
C718 C719 1.415 . S
C719 H689 0.950 . S
C719 C714 1.363 . S
C719 C718 1.415 . S
H720 C717 0.999 . S
H721 C702 0.913 . S
H722 C740 0.951 . S
H723 C742 0.951 . S
H724 C744 0.950 . S
H725 C745 0.950 . S
H726 C747 0.950 . S
H727 C750 0.950 . S
H728 C751 0.950 . S
H729 C753 0.950 . S
H730 C754 0.950 . S
H731 C755 0.951 . S
H732 C757 0.951 . S
H733 C759 0.950 . S
H734 C760 0.950 . S
H735 C762 0.950 . S
H736 C765 0.950 . S
H737 C766 0.950 . S
H738 C768 0.950 . S
H739 C769 0.950 . S
C740 H722 0.951 . S
C740 C741 1.366 . S
C740 C742 1.388 . S
C741 C740 1.366 . S
C741 C745 1.385 . S
C742 H723 0.951 . S
C742 C740 1.388 . S
C742 C743 1.366 . S
C743 C742 1.366 . S
C743 C744 1.414 . S
C743 C746 1.499 . S
C744 H724 0.950 . S
C744 C743 1.414 . S
C744 C745 1.374 . S
C745 H725 0.950 . S
C745 C741 1.385 . S
C745 C744 1.374 . S
C746 C743 1.499 . S
C746 C747 1.373 . S
C746 C748 1.389 . S
C747 H726 0.950 . S
C747 C746 1.373 . S
C747 C763 1.377 . S
C748 C746 1.389 . S
C748 C749 1.524 . S
C748 C762 1.377 . S
C749 C748 1.524 . S
C749 C750 1.397 . S
C749 C754 1.363 . S
C750 H727 0.950 . S
C750 C749 1.397 . S
C750 C751 1.334 . S
C751 H728 0.950 . S
C751 C750 1.334 . S
C751 C752 1.287 . S
C752 C751 1.287 . S
C752 C753 1.524 . S
C752 H771 0.913 . S
C753 H729 0.950 . S
C753 C752 1.524 . S
C753 C754 1.415 . S
C754 H730 0.950 . S
C754 C749 1.363 . S
C754 C753 1.415 . S
C755 H731 0.951 . S
C755 C756 1.366 . S
C755 C757 1.388 . S
C756 C755 1.366 . S
C756 C760 1.385 . S
C757 H732 0.951 . S
C757 C755 1.388 . S
C757 C758 1.366 . S
C758 C757 1.366 . S
C758 C759 1.414 . S
C758 C761 1.499 . S
C759 H733 0.950 . S
C759 C758 1.414 . S
C759 C760 1.374 . S
C760 H734 0.950 . S
C760 C756 1.385 . S
C760 C759 1.374 . S
C761 C758 1.499 . S
C761 C762 1.373 . S
C761 C763 1.389 . S
C762 H735 0.950 . S
C762 C748 1.377 . S
C762 C761 1.373 . S
C763 C747 1.377 . S
C763 C761 1.389 . S
C763 C764 1.524 . S
C764 C763 1.524 . S
C764 C765 1.397 . S
C764 C769 1.363 . S
C765 H736 0.950 . S
C765 C764 1.397 . S
C765 C766 1.334 . S
C766 H737 0.950 . S
C766 C765 1.334 . S
C766 C767 1.287 . S
C767 C766 1.287 . S
C767 C768 1.524 . S
C767 H770 0.999 . S
C768 H738 0.950 . S
C768 C767 1.524 . S
C768 C769 1.415 . S
C769 H739 0.950 . S
C769 C764 1.363 . S
C769 C768 1.415 . S
H770 C767 0.999 . S
H771 C752 0.913 . S
H772 C790 0.951 . S
H773 C792 0.951 . S
H774 C794 0.950 . S
H775 C795 0.950 . S
H776 C797 0.950 . S
H777 C800 0.950 . S
H778 C801 0.950 . S
H779 C803 0.950 . S
H780 C804 0.950 . S
H781 C805 0.951 . S
H782 C807 0.951 . S
H783 C809 0.950 . S
H784 C810 0.950 . S
H785 C812 0.950 . S
H786 C815 0.950 . S
H787 C816 0.950 . S
H788 C818 0.950 . S
H789 C819 0.950 . S
C790 H772 0.951 . S
C790 C791 1.366 . S
C790 C792 1.388 . S
C791 C790 1.366 . S
C791 C795 1.385 . S
C792 H773 0.951 . S
C792 C790 1.388 . S
C792 C793 1.366 . S
C793 C792 1.366 . S
C793 C794 1.414 . S
C793 C796 1.499 . S
C794 H774 0.950 . S
C794 C793 1.414 . S
C794 C795 1.374 . S
C795 H775 0.950 . S
C795 C791 1.385 . S
C795 C794 1.374 . S
C796 C793 1.499 . S
C796 C797 1.373 . S
C796 C798 1.389 . S
C797 H776 0.950 . S
C797 C796 1.373 . S
C797 C813 1.375 1_565 S
C798 C796 1.389 . S
C798 C799 1.524 . S
C798 C812 1.377 . S
C799 C798 1.524 . S
C799 C800 1.397 . S
C799 C804 1.363 . S
C800 H777 0.950 . S
C800 C799 1.397 . S
C800 C801 1.334 . S
C801 H778 0.950 . S
C801 C800 1.334 . S
C801 C802 1.287 . S
C802 C801 1.287 . S
C802 C803 1.524 . S
C802 H821 0.913 . S
C803 H779 0.950 . S
C803 C802 1.524 . S
C803 C804 1.415 . S
C804 H780 0.950 . S
C804 C799 1.363 . S
C804 C803 1.415 . S
C805 H781 0.951 . S
C805 C806 1.366 . S
C805 C807 1.388 . S
C806 C805 1.366 . S
C806 C810 1.385 . S
C807 H782 0.951 . S
C807 C805 1.388 . S
C807 C808 1.366 . S
C808 C807 1.366 . S
C808 C809 1.414 . S
C808 C811 1.499 . S
C809 H783 0.950 . S
C809 C808 1.414 . S
C809 C810 1.374 . S
C810 H784 0.950 . S
C810 C806 1.385 . S
C810 C809 1.374 . S
C811 C808 1.499 . S
C811 C812 1.373 1_545 S
C811 C813 1.390 . S
C812 H785 0.950 . S
C812 C798 1.377 . S
C812 C811 1.373 1_565 S
C813 C797 1.375 1_545 S
C813 C811 1.390 . S
C813 C814 1.525 . S
C814 C813 1.525 . S
C814 C815 1.397 . S
C814 C819 1.363 . S
C815 H786 0.950 . S
C815 C814 1.397 . S
C815 C816 1.334 . S
C816 H787 0.950 . S
C816 C815 1.334 . S
C816 C817 1.287 . S
C817 C816 1.287 . S
C817 C818 1.524 . S
C817 H820 0.999 . S
C818 H788 0.950 . S
C818 C817 1.524 . S
C818 C819 1.415 . S
C819 H789 0.950 . S
C819 C814 1.363 . S
C819 C818 1.415 . S
H820 C817 0.999 . S
H821 C802 0.913 . S
H822 C840 0.951 . S
H823 C842 0.951 . S
H824 C844 0.950 . S
H825 C845 0.950 . S
H826 C847 0.950 1_545 S
H827 C850 0.950 . S
H828 C851 0.950 . S
H829 C853 0.950 . S
H830 C854 0.950 . S
H831 C855 0.951 . S
H832 C857 0.951 . S
H833 C859 0.950 . S
H834 C860 0.950 . S
H835 C862 0.950 . S
H836 C865 0.950 . S
H837 C866 0.950 . S
H838 C868 0.950 . S
H839 C869 0.950 . S
C840 H822 0.951 . S
C840 C841 1.366 . S
C840 C842 1.388 . S
C841 C840 1.366 . S
C841 C845 1.385 . S
C842 H823 0.951 . S
C842 C840 1.388 . S
C842 C843 1.366 . S
C843 C842 1.366 . S
C843 C844 1.414 . S
C843 C846 1.499 . S
C844 H824 0.950 . S
C844 C843 1.414 . S
C844 C845 1.374 . S
C845 H825 0.950 . S
C845 C841 1.385 . S
C845 C844 1.374 . S
C846 C843 1.499 . S
C846 C847 1.373 1_545 S
C846 C848 1.389 1_545 S
C847 H826 0.950 1_565 S
C847 C846 1.373 1_565 S
C847 C863 1.377 . S
C848 C846 1.389 1_565 S
C848 C849 1.524 . S
C848 C862 1.377 . S
C849 C848 1.524 . S
C849 C850 1.397 1_565 S
C849 C854 1.363 . S
C850 H827 0.950 . S
C850 C849 1.397 1_545 S
C850 C851 1.334 . S
C851 H828 0.950 . S
C851 C850 1.334 . S
C851 C852 1.287 . S
C852 C851 1.287 . S
C852 C853 1.524 1_545 S
C852 H871 0.913 . S
C853 H829 0.950 . S
C853 C852 1.524 1_565 S
C853 C854 1.415 . S
C854 H830 0.950 . S
C854 C849 1.363 . S
C854 C853 1.415 . S
C855 H831 0.951 . S
C855 C856 1.366 . S
C855 C857 1.388 . S
C856 C855 1.366 . S
C856 C860 1.385 . S
C857 H832 0.951 . S
C857 C855 1.388 . S
C857 C858 1.366 . S
C858 C857 1.366 . S
C858 C859 1.414 . S
C858 C861 1.499 . S
C859 H833 0.950 . S
C859 C858 1.414 . S
C859 C860 1.374 . S
C860 H834 0.950 . S
C860 C856 1.385 . S
C860 C859 1.374 . S
C861 C858 1.499 . S
C861 C862 1.373 . S
C861 C863 1.389 . S
C862 H835 0.950 . S
C862 C848 1.377 . S
C862 C861 1.373 . S
C863 C847 1.377 . S
C863 C861 1.389 . S
C863 C864 1.524 . S
C864 C863 1.524 . S
C864 C865 1.397 . S
C864 C869 1.363 . S
C865 H836 0.950 . S
C865 C864 1.397 . S
C865 C866 1.334 . S
C866 H837 0.950 . S
C866 C865 1.334 . S
C866 C867 1.287 . S
C867 C866 1.287 . S
C867 C868 1.524 . S
C867 H870 0.999 . S
C868 H838 0.950 . S
C868 C867 1.524 . S
C868 C869 1.415 . S
C869 H839 0.950 . S
C869 C864 1.363 . S
C869 C868 1.415 . S
H870 C867 0.999 . S
H871 C852 0.913 . S
H872 C890 0.951 . S
H873 C892 0.951 . S
H874 C894 0.950 . S
H875 C895 0.950 . S
H876 C897 0.950 . S
H877 C900 0.950 . S
H878 C901 0.950 . S
H879 C903 0.950 . S
H880 C904 0.950 . S
H881 C905 0.951 . S
H882 C907 0.951 . S
H883 C909 0.950 . S
H884 C910 0.950 . S
H885 C912 0.950 . S
H886 C915 0.950 . S
H887 C916 0.950 . S
H888 C918 0.950 . S
H889 C919 0.950 . S
C890 H872 0.951 . S
C890 C891 1.366 . S
C890 C892 1.388 . S
C891 C890 1.366 . S
C891 C895 1.385 . S
C892 H873 0.951 . S
C892 C890 1.388 . S
C892 C893 1.366 . S
C893 C892 1.366 . S
C893 C894 1.414 . S
C893 C896 1.499 . S
C894 H874 0.950 . S
C894 C893 1.414 . S
C894 C895 1.374 . S
C895 H875 0.950 . S
C895 C891 1.385 . S
C895 C894 1.374 . S
C896 C893 1.499 . S
C896 C897 1.373 . S
C896 C898 1.389 . S
C897 H876 0.950 . S
C897 C896 1.373 . S
C897 C913 1.377 1_545 S
C898 C896 1.389 . S
C898 C899 1.524 . S
C898 C912 1.377 1_545 S
C899 C898 1.524 . S
C899 C900 1.397 . S
C899 C904 1.363 . S
C900 H877 0.950 . S
C900 C899 1.397 . S
C900 C901 1.334 . S
C901 H878 0.950 . S
C901 C900 1.334 . S
C901 C902 1.287 . S
C902 C901 1.287 . S
C902 C903 1.524 . S
C902 H921 0.913 . S
C903 H879 0.950 . S
C903 C902 1.524 . S
C903 C904 1.415 . S
C904 H880 0.950 . S
C904 C899 1.363 . S
C904 C903 1.415 . S
C905 H881 0.951 . S
C905 C906 1.366 . S
C905 C907 1.388 . S
C906 C905 1.366 . S
C906 C910 1.385 . S
C907 H882 0.951 . S
C907 C905 1.388 . S
C907 C908 1.366 . S
C908 C907 1.366 . S
C908 C909 1.414 . S
C908 C911 1.499 . S
C909 H883 0.950 . S
C909 C908 1.414 . S
C909 C910 1.374 . S
C910 H884 0.950 . S
C910 C906 1.385 . S
C910 C909 1.374 . S
C911 C908 1.499 . S
C911 C912 1.373 . S
C911 C913 1.389 . S
C912 H885 0.950 . S
C912 C898 1.377 1_565 S
C912 C911 1.373 . S
C913 C897 1.377 1_565 S
C913 C911 1.389 . S
C913 C914 1.524 . S
C914 C913 1.524 . S
C914 C915 1.397 . S
C914 C919 1.363 . S
C915 H886 0.950 . S
C915 C914 1.397 . S
C915 C916 1.334 . S
C916 H887 0.950 . S
C916 C915 1.334 . S
C916 C917 1.287 . S
C917 C916 1.287 . S
C917 C918 1.524 . S
C917 H920 0.999 . S
C918 H888 0.950 . S
C918 C917 1.524 . S
C918 C919 1.415 . S
C919 H889 0.950 . S
C919 C914 1.363 . S
C919 C918 1.415 . S
H920 C917 0.999 . S
H921 C902 0.913 . S
H922 C940 0.951 . S
H923 C942 0.951 . S
H924 C944 0.950 . S
H925 C945 0.950 . S
H926 C947 0.950 . S
H927 C950 0.950 . S
H928 C951 0.950 . S
H929 C953 0.950 . S
H930 C954 0.950 . S
H931 C955 0.951 . S
H932 C957 0.951 . S
H933 C959 0.950 . S
H934 C960 0.950 . S
H935 C962 0.950 . S
H936 C965 0.950 . S
H937 C966 0.950 . S
H938 C968 0.962 . S
H939 C969 0.950 1_565 S
C940 H922 0.951 . S
C940 C941 1.366 . S
C940 C942 1.388 . S
C941 C940 1.366 . S
C941 C945 1.385 . S
C942 H923 0.951 . S
C942 C940 1.388 . S
C942 C943 1.366 . S
C943 C942 1.366 . S
C943 C944 1.414 . S
C943 C946 1.499 . S
C944 H924 0.950 . S
C944 C943 1.414 . S
C944 C945 1.374 . S
C945 H925 0.950 . S
C945 C941 1.385 . S
C945 C944 1.374 . S
C946 C943 1.499 . S
C946 C947 1.373 . S
C946 C948 1.389 1_565 S
C947 H926 0.950 . S
C947 C946 1.373 . S
C947 C963 1.377 1_565 S
C948 C946 1.389 1_545 S
C948 C949 1.529 . S
C948 C962 1.377 . S
C949 C948 1.529 . S
C949 C950 1.382 1_445 S
C949 C954 1.375 . S
C950 H927 0.950 . S
C950 C949 1.382 1_665 S
C950 C951 1.334 . S
C951 H928 0.950 . S
C951 C950 1.334 . S
C951 C952 1.287 . S
C952 C951 1.287 . S
C952 C953 1.524 1_565 S
C952 H971 0.913 . S
C953 H929 0.950 . S
C953 C952 1.524 1_545 S
C953 C954 1.415 1_655 S
C954 H930 0.950 . S
C954 C949 1.375 . S
C954 C953 1.415 1_455 S
C955 H931 0.951 . S
C955 C956 1.366 . S
C955 C957 1.388 . S
C956 C955 1.366 . S
C956 C960 1.385 . S
C957 H932 0.951 . S
C957 C955 1.388 . S
C957 C958 1.366 . S
C958 C957 1.366 . S
C958 C959 1.414 . S
C958 C961 1.499 . S
C959 H933 0.950 . S
C959 C958 1.414 . S
C959 C960 1.374 . S
C960 H934 0.950 . S
C960 C956 1.385 . S
C960 C959 1.374 . S
C961 C958 1.499 . S
C961 C962 1.373 . S
C961 C963 1.389 . S
C962 H935 0.950 . S
C962 C948 1.377 . S
C962 C961 1.373 . S
C963 C947 1.377 1_545 S
C963 C961 1.389 . S
C963 C964 1.524 . S
C964 C963 1.524 . S
C964 C965 1.397 . S
C964 C969 1.363 . S
C965 H936 0.950 . S
C965 C964 1.397 . S
C965 C966 1.334 . S
C966 H937 0.950 . S
C966 C965 1.334 . S
C966 C967 1.287 . S
C967 C966 1.287 . S
C967 C968 1.524 . S
C967 H970 0.999 . S
C968 H938 0.962 . S
C968 C967 1.524 . S
C968 C969 1.415 . S
C969 H939 0.950 1_545 S
C969 C964 1.363 . S
C969 C968 1.415 . S
H970 C967 0.999 . S
H971 C952 0.913 . S
H972 C990 0.951 . S
H973 C992 0.951 . S
H974 C994 0.950 . S
H975 C995 0.950 . S
H976 C997 0.950 . S
H977 C1000 0.950 . S
H978 C1001 0.950 . S
H979 C1003 0.950 . S
H980 C1004 0.950 . S
H981 C1005 0.951 . S
H982 C1007 0.951 . S
H983 C1009 0.950 . S
H984 C1010 0.950 . S
H985 C1012 0.950 . S
H986 C1015 0.950 . S
H987 C1016 0.950 . S
H988 C1018 0.950 . S
H989 C1019 0.950 . S
C990 H972 0.951 . S
C990 C991 1.366 . S
C990 C992 1.388 . S
C991 C990 1.366 . S
C991 C995 1.385 . S
C992 H973 0.951 . S
C992 C990 1.388 . S
C992 C993 1.366 . S
C993 C992 1.366 . S
C993 C994 1.414 . S
C993 C996 1.499 1_554 S
C994 H974 0.950 . S
C994 C993 1.414 . S
C994 C995 1.374 . S
C995 H975 0.950 . S
C995 C991 1.385 . S
C995 C994 1.374 . S
C996 C993 1.499 1_556 S
C996 C997 1.373 . S
C996 C998 1.389 . S
C997 H976 0.950 . S
C997 C996 1.373 . S
C997 C1013 1.377 . S
C998 C996 1.389 . S
C998 C999 1.524 . S
C998 C1012 1.377 . S
C999 C998 1.524 . S
C999 C1000 1.397 1_556 S
C999 C1004 1.363 . S
C1000 H977 0.950 . S
C1000 C999 1.397 1_554 S
C1000 C1001 1.334 . S
C1001 H978 0.950 . S
C1001 C1000 1.334 . S
C1001 C1002 1.287 . S
C1002 C1001 1.287 . S
C1002 C1003 1.524 1_554 S
C1002 H1021 0.913 . S
C1003 H979 0.950 . S
C1003 C1002 1.524 1_556 S
C1003 C1004 1.415 . S
C1004 H980 0.950 . S
C1004 C999 1.363 . S
C1004 C1003 1.415 . S
C1005 H981 0.951 . S
C1005 C1006 1.366 . S
C1005 C1007 1.388 . S
C1006 C1005 1.366 . S
C1006 C1010 1.385 . S
C1007 H982 0.951 . S
C1007 C1005 1.388 . S
C1007 C1008 1.366 . S
C1008 C1007 1.366 . S
C1008 C1009 1.414 . S
C1008 C1011 1.499 . S
C1009 H983 0.950 . S
C1009 C1008 1.414 . S
C1009 C1010 1.374 . S
C1010 H984 0.950 . S
C1010 C1006 1.385 . S
C1010 C1009 1.374 . S
C1011 C1008 1.499 . S
C1011 C1012 1.373 . S
C1011 C1013 1.389 . S
C1012 H985 0.950 . S
C1012 C998 1.377 . S
C1012 C1011 1.373 . S
C1013 C997 1.377 . S
C1013 C1011 1.389 . S
C1013 C1014 1.524 . S
C1014 C1013 1.524 . S
C1014 C1015 1.397 . S
C1014 C1019 1.363 . S
C1015 H986 0.950 . S
C1015 C1014 1.397 . S
C1015 C1016 1.334 . S
C1016 H987 0.950 . S
C1016 C1015 1.334 . S
C1016 C1017 1.287 . S
C1017 C1016 1.287 . S
C1017 C1018 1.524 . S
C1017 H1020 0.999 . S
C1018 H988 0.950 . S
C1018 C1017 1.524 . S
C1018 C1019 1.415 . S
C1019 H989 0.950 . S
C1019 C1014 1.363 . S
C1019 C1018 1.415 . S
H1020 C1017 0.999 . S
H1021 C1002 0.913 . S
H1022 C1040 0.951 . S
H1023 C1042 0.951 . S
H1024 C1044 0.950 . S
H1025 C1045 0.950 . S
H1026 C1047 0.950 . S
H1027 C1050 0.950 . S
H1028 C1051 0.950 . S
H1029 C1053 0.950 . S
H1030 C1054 0.950 . S
H1031 C1055 0.951 . S
H1032 C1057 0.951 . S
H1033 C1059 0.950 . S
H1034 C1060 0.950 . S
H1035 C1062 0.950 . S
H1036 C1065 0.950 . S
H1037 C1066 0.950 . S
H1038 C1068 0.950 . S
H1039 C1069 0.950 . S
C1040 H1022 0.951 . S
C1040 C1041 1.366 . S
C1040 C1042 1.388 . S
C1041 C1040 1.366 . S
C1041 C1045 1.385 . S
C1042 H1023 0.951 . S
C1042 C1040 1.388 . S
C1042 C1043 1.366 . S
C1043 C1042 1.366 . S
C1043 C1044 1.414 . S
C1043 C1046 1.499 . S
C1044 H1024 0.950 . S
C1044 C1043 1.414 . S
C1044 C1045 1.374 . S
C1045 H1025 0.950 . S
C1045 C1041 1.385 . S
C1045 C1044 1.374 . S
C1046 C1043 1.499 . S
C1046 C1047 1.373 . S
C1046 C1048 1.389 . S
C1047 H1026 0.950 . S
C1047 C1046 1.373 . S
C1047 C1063 1.377 . S
C1048 C1046 1.389 . S
C1048 C1049 1.524 . S
C1048 C1062 1.377 . S
C1049 C1048 1.524 . S
C1049 C1050 1.397 . S
C1049 C1054 1.363 . S
C1050 H1027 0.950 . S
C1050 C1049 1.397 . S
C1050 C1051 1.334 . S
C1051 H1028 0.950 . S
C1051 C1050 1.334 . S
C1051 C1052 1.287 . S
C1052 C1051 1.287 . S
C1052 C1053 1.524 1_455 S
C1052 H1071 0.913 1_455 S
C1053 H1029 0.950 . S
C1053 C1052 1.524 1_655 S
C1053 C1054 1.415 1_655 S
C1054 H1030 0.950 . S
C1054 C1049 1.363 . S
C1054 C1053 1.415 1_455 S
C1055 H1031 0.951 . S
C1055 C1056 1.366 . S
C1055 C1057 1.388 . S
C1056 C1055 1.366 . S
C1056 C1060 1.385 . S
C1057 H1032 0.951 . S
C1057 C1055 1.388 . S
C1057 C1058 1.366 . S
C1058 C1057 1.366 . S
C1058 C1059 1.414 . S
C1058 C1061 1.499 . S
C1059 H1033 0.950 . S
C1059 C1058 1.414 . S
C1059 C1060 1.374 . S
C1060 H1034 0.950 . S
C1060 C1056 1.385 . S
C1060 C1059 1.374 . S
C1061 C1058 1.499 . S
C1061 C1062 1.373 . S
C1061 C1063 1.389 . S
C1062 H1035 0.950 . S
C1062 C1048 1.377 . S
C1062 C1061 1.373 . S
C1063 C1047 1.377 . S
C1063 C1061 1.389 . S
C1063 C1064 1.524 . S
C1064 C1063 1.524 . S
C1064 C1065 1.397 . S
C1064 C1069 1.363 . S
C1065 H1036 0.950 . S
C1065 C1064 1.397 . S
C1065 C1066 1.334 . S
C1066 H1037 0.950 . S
C1066 C1065 1.334 . S
C1066 C1067 1.287 . S
C1067 C1066 1.287 . S
C1067 C1068 1.524 . S
C1067 H1070 0.999 . S
C1068 H1038 0.950 . S
C1068 C1067 1.524 . S
C1068 C1069 1.415 . S
C1069 H1039 0.950 . S
C1069 C1064 1.363 . S
C1069 C1068 1.415 . S
H1070 C1067 0.999 . S
H1071 C1052 0.913 1_655 S
H1072 C1090 0.951 . S
H1073 C1092 0.951 . S
H1074 C1094 0.950 . S
H1075 C1095 0.950 . S
H1076 C1097 0.950 . S
H1077 C1100 0.950 . S
H1078 C1101 0.950 . S
H1079 C1103 0.950 . S
H1080 C1104 0.950 . S
H1081 C1105 0.951 . S
H1082 C1107 0.951 . S
H1083 C1109 0.950 . S
H1084 C1110 0.950 . S
H1085 C1112 0.950 . S
H1086 C1115 0.950 . S
H1087 C1116 0.950 . S
H1088 C1118 0.950 . S
H1089 C1119 0.950 . S
C1090 H1072 0.951 . S
C1090 C1091 1.366 . S
C1090 C1092 1.388 . S
C1091 C1090 1.366 . S
C1091 C1095 1.385 . S
C1092 H1073 0.951 . S
C1092 C1090 1.388 . S
C1092 C1093 1.366 . S
C1093 C1092 1.366 . S
C1093 C1094 1.414 . S
C1093 C1096 1.499 . S
C1094 H1074 0.950 . S
C1094 C1093 1.414 . S
C1094 C1095 1.374 . S
C1095 H1075 0.950 . S
C1095 C1091 1.385 . S
C1095 C1094 1.374 . S
C1096 C1093 1.499 . S
C1096 C1097 1.373 . S
C1096 C1098 1.389 . S
C1097 H1076 0.950 . S
C1097 C1096 1.373 . S
C1097 C1113 1.377 . S
C1098 C1096 1.389 . S
C1098 C1099 1.524 . S
C1098 C1112 1.377 . S
C1099 C1098 1.524 . S
C1099 C1100 1.397 . S
C1099 C1104 1.363 . S
C1100 H1077 0.950 . S
C1100 C1099 1.397 . S
C1100 C1101 1.334 . S
C1101 H1078 0.950 . S
C1101 C1100 1.334 . S
C1101 C1102 1.287 . S
C1102 C1101 1.287 . S
C1102 C1103 1.524 . S
C1102 H1121 0.913 . S
C1103 H1079 0.950 . S
C1103 C1102 1.524 . S
C1103 C1104 1.415 . S
C1104 H1080 0.950 . S
C1104 C1099 1.363 . S
C1104 C1103 1.415 . S
C1105 H1081 0.951 . S
C1105 C1106 1.366 . S
C1105 C1107 1.388 . S
C1106 C1105 1.366 . S
C1106 C1110 1.385 . S
C1107 H1082 0.951 . S
C1107 C1105 1.388 . S
C1107 C1108 1.366 . S
C1108 C1107 1.366 . S
C1108 C1109 1.414 . S
C1108 C1111 1.499 . S
C1109 H1083 0.950 . S
C1109 C1108 1.414 . S
C1109 C1110 1.374 . S
C1110 H1084 0.950 . S
C1110 C1106 1.385 . S
C1110 C1109 1.374 . S
C1111 C1108 1.499 . S
C1111 C1112 1.373 . S
C1111 C1113 1.389 . S
C1112 H1085 0.950 . S
C1112 C1098 1.377 . S
C1112 C1111 1.373 . S
C1113 C1097 1.377 . S
C1113 C1111 1.389 . S
C1113 C1114 1.524 . S
C1114 C1113 1.524 . S
C1114 C1115 1.397 . S
C1114 C1119 1.363 . S
C1115 H1086 0.950 . S
C1115 C1114 1.397 . S
C1115 C1116 1.334 . S
C1116 H1087 0.950 . S
C1116 C1115 1.334 . S
C1116 C1117 1.287 . S
C1117 C1116 1.287 . S
C1117 C1118 1.524 . S
C1117 H1120 0.999 . S
C1118 H1088 0.950 . S
C1118 C1117 1.524 . S
C1118 C1119 1.415 . S
C1119 H1089 0.950 . S
C1119 C1114 1.363 . S
C1119 C1118 1.415 . S
H1120 C1117 0.999 . S
H1121 C1102 0.913 . S
H1122 C1140 0.951 . S
H1123 C1142 0.951 . S
H1124 C1144 0.950 . S
H1125 C1145 0.950 . S
H1126 C1147 0.950 . S
H1127 C1150 0.950 . S
H1128 C1151 0.950 . S
H1129 C1153 0.950 . S
H1130 C1154 0.950 . S
H1131 C1155 0.951 . S
H1132 C1157 0.951 . S
H1133 C1159 0.950 . S
H1134 C1160 0.950 . S
H1135 C1162 0.950 . S
H1136 C1165 0.950 . S
H1137 C1166 0.950 . S
H1138 C1168 0.950 . S
H1139 C1169 0.950 . S
C1140 H1122 0.951 . S
C1140 C1141 1.366 . S
C1140 C1142 1.388 . S
C1141 C1140 1.366 . S
C1141 C1145 1.385 . S
C1142 H1123 0.951 . S
C1142 C1140 1.388 . S
C1142 C1143 1.366 . S
C1143 C1142 1.366 . S
C1143 C1144 1.414 . S
C1143 C1146 1.499 . S
C1144 H1124 0.950 . S
C1144 C1143 1.414 . S
C1144 C1145 1.374 . S
C1145 H1125 0.950 . S
C1145 C1141 1.385 . S
C1145 C1144 1.374 . S
C1146 C1143 1.499 . S
C1146 C1147 1.373 . S
C1146 C1148 1.389 . S
C1147 H1126 0.950 . S
C1147 C1146 1.373 . S
C1147 C1163 1.377 . S
C1148 C1146 1.389 . S
C1148 C1149 1.524 . S
C1148 C1162 1.377 . S
C1149 C1148 1.524 . S
C1149 C1150 1.397 . S
C1149 C1154 1.363 . S
C1150 H1127 0.950 . S
C1150 C1149 1.397 . S
C1150 C1151 1.334 . S
C1151 H1128 0.950 . S
C1151 C1150 1.334 . S
C1151 C1152 1.287 . S
C1152 C1151 1.287 . S
C1152 C1153 1.524 . S
C1152 H1171 0.913 . S
C1153 H1129 0.950 . S
C1153 C1152 1.524 . S
C1153 C1154 1.415 . S
C1154 H1130 0.950 . S
C1154 C1149 1.363 . S
C1154 C1153 1.415 . S
C1155 H1131 0.951 . S
C1155 C1156 1.366 . S
C1155 C1157 1.388 . S
C1156 C1155 1.366 . S
C1156 C1160 1.385 . S
C1157 H1132 0.951 . S
C1157 C1155 1.388 . S
C1157 C1158 1.366 . S
C1158 C1157 1.366 . S
C1158 C1159 1.414 . S
C1158 C1161 1.499 . S
C1159 H1133 0.950 . S
C1159 C1158 1.414 . S
C1159 C1160 1.374 . S
C1160 H1134 0.950 . S
C1160 C1156 1.385 . S
C1160 C1159 1.374 . S
C1161 C1158 1.499 . S
C1161 C1162 1.373 . S
C1161 C1163 1.389 . S
C1162 H1135 0.950 . S
C1162 C1148 1.377 . S
C1162 C1161 1.373 . S
C1163 C1147 1.377 . S
C1163 C1161 1.389 . S
C1163 C1164 1.524 . S
C1164 C1163 1.524 . S
C1164 C1165 1.397 . S
C1164 C1169 1.363 . S
C1165 H1136 0.950 . S
C1165 C1164 1.397 . S
C1165 C1166 1.334 . S
C1166 H1137 0.950 . S
C1166 C1165 1.334 . S
C1166 C1167 1.287 . S
C1167 C1166 1.287 . S
C1167 C1168 1.524 . S
C1167 H1170 0.999 . S
C1168 H1138 0.950 . S
C1168 C1167 1.524 . S
C1168 C1169 1.415 . S
C1169 H1139 0.950 . S
C1169 C1164 1.363 . S
C1169 C1168 1.415 . S
H1170 C1167 0.999 . S
H1171 C1152 0.913 . S
H1172 C1190 0.951 . S
H1173 C1192 0.951 . S
H1174 C1194 0.950 . S
H1175 C1195 0.950 . S
H1176 C1197 0.950 . S
H1177 C1200 0.950 1_455 S
H1178 C1201 0.994 . S
H1179 C1203 0.950 . S
H1180 C1204 0.950 . S
H1181 C1205 0.951 . S
H1182 C1207 0.951 . S
H1183 C1209 0.950 . S
H1184 C1210 0.950 . S
H1185 C1212 0.950 . S
H1186 C1215 0.950 . S
H1187 C1216 0.950 . S
H1188 C1218 0.950 . S
H1189 C1219 0.950 . S
C1190 H1172 0.951 . S
C1190 C1191 1.366 . S
C1190 C1192 1.388 . S
C1191 C1190 1.366 . S
C1191 C1195 1.385 . S
C1192 H1173 0.951 . S
C1192 C1190 1.388 . S
C1192 C1193 1.366 . S
C1193 C1192 1.366 . S
C1193 C1194 1.414 . S
C1193 C1196 1.499 1_556 S
C1194 H1174 0.950 . S
C1194 C1193 1.414 . S
C1194 C1195 1.374 . S
C1195 H1175 0.950 . S
C1195 C1191 1.385 . S
C1195 C1194 1.374 . S
C1196 C1193 1.499 1_554 S
C1196 C1197 1.373 . S
C1196 C1198 1.389 . S
C1197 H1176 0.950 . S
C1197 C1196 1.373 . S
C1197 C1213 1.377 . S
C1198 C1196 1.389 . S
C1198 C1199 1.524 . S
C1198 C1212 1.377 . S
C1199 C1198 1.524 . S
C1199 C1200 1.397 1_455 S
C1199 C1204 1.363 1_455 S
C1200 H1177 0.950 1_655 S
C1200 C1199 1.397 1_655 S
C1200 C1201 1.319 1_554 S
C1201 H1178 0.994 . S
C1201 C1200 1.319 1_556 S
C1201 C1202 1.264 1_556 S
C1202 C1201 1.264 1_554 S
C1202 C1203 1.524 . S
C1202 H1221 0.905 1_554 S
C1203 H1179 0.950 . S
C1203 C1202 1.524 . S
C1203 C1204 1.415 . S
C1204 H1180 0.950 . S
C1204 C1199 1.363 1_655 S
C1204 C1203 1.415 . S
C1205 H1181 0.951 . S
C1205 C1206 1.366 . S
C1205 C1207 1.388 . S
C1206 C1205 1.366 . S
C1206 C1210 1.385 . S
C1207 H1182 0.951 . S
C1207 C1205 1.388 . S
C1207 C1208 1.366 . S
C1208 C1207 1.366 . S
C1208 C1209 1.414 . S
C1208 C1211 1.499 . S
C1209 H1183 0.950 . S
C1209 C1208 1.414 . S
C1209 C1210 1.374 . S
C1210 H1184 0.950 . S
C1210 C1206 1.385 . S
C1210 C1209 1.374 . S
C1211 C1208 1.499 . S
C1211 C1212 1.373 . S
C1211 C1213 1.389 . S
C1212 H1185 0.950 . S
C1212 C1198 1.377 . S
C1212 C1211 1.373 . S
C1213 C1197 1.377 . S
C1213 C1211 1.389 . S
C1213 C1214 1.524 . S
C1214 C1213 1.524 . S
C1214 C1215 1.397 . S
C1214 C1219 1.363 . S
C1215 H1186 0.950 . S
C1215 C1214 1.397 . S
C1215 C1216 1.334 . S
C1216 H1187 0.950 . S
C1216 C1215 1.334 . S
C1216 C1217 1.287 . S
C1217 C1216 1.287 . S
C1217 C1218 1.524 . S
C1217 H1220 0.999 . S
C1218 H1188 0.950 . S
C1218 C1217 1.524 . S
C1218 C1219 1.415 . S
C1219 H1189 0.950 . S
C1219 C1214 1.363 . S
C1219 C1218 1.415 . S
H1220 C1217 0.999 . S
H1221 C1202 0.905 1_556 S
H1222 C1240 0.951 . S
H1223 C1242 0.951 . S
H1224 C1244 0.950 . S
H1225 C1245 0.950 . S
H1226 C1247 0.950 . S
H1227 C1250 0.950 . S
H1228 C1251 0.950 . S
H1229 C1253 0.950 . S
H1230 C1254 0.950 . S
H1231 C1255 0.951 . S
H1232 C1257 0.951 . S
H1233 C1259 0.950 . S
H1234 C1260 0.950 . S
H1235 C1262 0.950 . S
H1236 C1265 0.950 . S
H1237 C1266 0.950 . S
H1238 C1268 0.950 . S
H1239 C1269 0.950 . S
C1240 H1222 0.951 . S
C1240 C1241 1.366 . S
C1240 C1242 1.388 . S
C1241 C1240 1.366 . S
C1241 C1245 1.385 . S
C1242 H1223 0.951 . S
C1242 C1240 1.388 . S
C1242 C1243 1.366 . S
C1243 C1242 1.366 . S
C1243 C1244 1.414 . S
C1243 C1246 1.499 . S
C1244 H1224 0.950 . S
C1244 C1243 1.414 . S
C1244 C1245 1.374 . S
C1245 H1225 0.950 . S
C1245 C1241 1.385 . S
C1245 C1244 1.374 . S
C1246 C1243 1.499 . S
C1246 C1247 1.373 . S
C1246 C1248 1.389 . S
C1247 H1226 0.950 . S
C1247 C1246 1.373 . S
C1247 C1263 1.377 . S
C1248 C1246 1.389 . S
C1248 C1249 1.524 . S
C1248 C1262 1.377 . S
C1249 C1248 1.524 . S
C1249 C1250 1.397 . S
C1249 C1254 1.363 . S
C1250 H1227 0.950 . S
C1250 C1249 1.397 . S
C1250 C1251 1.334 . S
C1251 H1228 0.950 . S
C1251 C1250 1.334 . S
C1251 C1252 1.287 . S
C1252 C1251 1.287 . S
C1252 C1253 1.524 . S
C1252 H1271 0.913 . S
C1253 H1229 0.950 . S
C1253 C1252 1.524 . S
C1253 C1254 1.415 . S
C1254 H1230 0.950 . S
C1254 C1249 1.363 . S
C1254 C1253 1.415 . S
C1255 H1231 0.951 . S
C1255 C1256 1.366 . S
C1255 C1257 1.388 . S
C1256 C1255 1.366 . S
C1256 C1260 1.385 . S
C1257 H1232 0.951 . S
C1257 C1255 1.388 . S
C1257 C1258 1.366 . S
C1258 C1257 1.366 . S
C1258 C1259 1.414 . S
C1258 C1261 1.499 . S
C1259 H1233 0.950 . S
C1259 C1258 1.414 . S
C1259 C1260 1.374 . S
C1260 H1234 0.950 . S
C1260 C1256 1.385 . S
C1260 C1259 1.374 . S
C1261 C1258 1.499 . S
C1261 C1262 1.373 . S
C1261 C1263 1.389 . S
C1262 H1235 0.950 . S
C1262 C1248 1.377 . S
C1262 C1261 1.373 . S
C1263 C1247 1.377 . S
C1263 C1261 1.389 . S
C1263 C1264 1.524 . S
C1264 C1263 1.524 . S
C1264 C1265 1.397 . S
C1264 C1269 1.363 . S
C1265 H1236 0.950 . S
C1265 C1264 1.397 . S
C1265 C1266 1.334 . S
C1266 H1237 0.950 . S
C1266 C1265 1.334 . S
C1266 C1267 1.287 . S
C1267 C1266 1.287 . S
C1267 C1268 1.524 . S
C1267 H1270 0.999 . S
C1268 H1238 0.950 . S
C1268 C1267 1.524 . S
C1268 C1269 1.415 . S
C1269 H1239 0.950 . S
C1269 C1264 1.363 . S
C1269 C1268 1.415 . S
H1270 C1267 0.999 . S
H1271 C1252 0.913 . S
H1272 C1290 0.951 . S
H1273 C1292 0.951 . S
H1274 C1294 0.950 . S
H1275 C1295 0.950 . S
H1276 C1297 0.950 . S
H1277 C1300 0.950 . S
H1278 C1301 0.950 . S
H1279 C1303 0.950 . S
H1280 C1304 0.950 . S
H1281 C1305 0.951 . S
H1282 C1307 0.951 . S
H1283 C1309 0.950 . S
H1284 C1310 0.950 . S
H1285 C1312 0.950 . S
H1286 C1315 0.950 . S
H1287 C1316 0.950 . S
H1288 C1318 0.950 . S
H1289 C1319 0.950 . S
C1290 H1272 0.951 . S
C1290 C1291 1.366 . S
C1290 C1292 1.388 . S
C1291 C1290 1.366 . S
C1291 C1295 1.385 . S
C1292 H1273 0.951 . S
C1292 C1290 1.388 . S
C1292 C1293 1.366 . S
C1293 C1292 1.366 . S
C1293 C1294 1.414 . S
C1293 C1296 1.499 . S
C1294 H1274 0.950 . S
C1294 C1293 1.414 . S
C1294 C1295 1.374 . S
C1295 H1275 0.950 . S
C1295 C1291 1.385 . S
C1295 C1294 1.374 . S
C1296 C1293 1.499 . S
C1296 C1297 1.373 . S
C1296 C1298 1.389 . S
C1297 H1276 0.950 . S
C1297 C1296 1.373 . S
C1297 C1313 1.377 . S
C1298 C1296 1.389 . S
C1298 C1299 1.524 . S
C1298 C1312 1.377 . S
C1299 C1298 1.524 . S
C1299 C1300 1.397 . S
C1299 C1304 1.363 . S
C1300 H1277 0.950 . S
C1300 C1299 1.397 . S
C1300 C1301 1.334 . S
C1301 H1278 0.950 . S
C1301 C1300 1.334 . S
C1301 C1302 1.287 . S
C1302 C1301 1.287 . S
C1302 C1303 1.524 . S
C1302 H1321 0.913 . S
C1303 H1279 0.950 . S
C1303 C1302 1.524 . S
C1303 C1304 1.415 . S
C1304 H1280 0.950 . S
C1304 C1299 1.363 . S
C1304 C1303 1.415 . S
C1305 H1281 0.951 . S
C1305 C1306 1.366 . S
C1305 C1307 1.388 . S
C1306 C1305 1.366 . S
C1306 C1310 1.385 . S
C1307 H1282 0.951 . S
C1307 C1305 1.388 . S
C1307 C1308 1.366 . S
C1308 C1307 1.366 . S
C1308 C1309 1.414 . S
C1308 C1311 1.499 . S
C1309 H1283 0.950 . S
C1309 C1308 1.414 . S
C1309 C1310 1.374 . S
C1310 H1284 0.950 . S
C1310 C1306 1.385 . S
C1310 C1309 1.374 . S
C1311 C1308 1.499 . S
C1311 C1312 1.373 . S
C1311 C1313 1.389 . S
C1312 H1285 0.950 . S
C1312 C1298 1.377 . S
C1312 C1311 1.373 . S
C1313 C1297 1.377 . S
C1313 C1311 1.389 . S
C1313 C1314 1.524 . S
C1314 C1313 1.524 . S
C1314 C1315 1.397 . S
C1314 C1319 1.363 . S
C1315 H1286 0.950 . S
C1315 C1314 1.397 . S
C1315 C1316 1.334 . S
C1316 H1287 0.950 . S
C1316 C1315 1.334 . S
C1316 C1317 1.287 . S
C1317 C1316 1.287 . S
C1317 C1318 1.524 . S
C1317 H1320 0.999 . S
C1318 H1288 0.950 . S
C1318 C1317 1.524 . S
C1318 C1319 1.415 . S
C1319 H1289 0.950 . S
C1319 C1314 1.363 . S
C1319 C1318 1.415 . S
H1320 C1317 0.999 . S
H1321 C1302 0.913 . S
H1322 C1340 0.951 . S
H1323 C1342 0.951 . S
H1324 C1344 0.950 . S
H1325 C1345 0.950 . S
H1326 C1347 0.950 . S
H1327 C1350 0.950 . S
H1328 C1351 0.950 . S
H1329 C1353 0.950 . S
H1330 C1354 0.950 . S
H1331 C1355 0.951 . S
H1332 C1357 0.951 . S
H1333 C1359 0.950 . S
H1334 C1360 0.950 . S
H1335 C1362 0.950 . S
H1336 C1365 0.950 . S
H1337 C1366 0.950 . S
H1338 C1368 0.950 . S
H1339 C1369 0.950 . S
C1340 H1322 0.951 . S
C1340 C1341 1.366 . S
C1340 C1342 1.388 . S
C1341 C1340 1.366 . S
C1341 C1345 1.385 . S
C1342 H1323 0.951 . S
C1342 C1340 1.388 . S
C1342 C1343 1.366 . S
C1343 C1342 1.366 . S
C1343 C1344 1.414 . S
C1343 C1346 1.499 . S
C1344 H1324 0.950 . S
C1344 C1343 1.414 . S
C1344 C1345 1.374 . S
C1345 H1325 0.950 . S
C1345 C1341 1.385 . S
C1345 C1344 1.374 . S
C1346 C1343 1.499 . S
C1346 C1347 1.373 . S
C1346 C1348 1.389 . S
C1347 H1326 0.950 . S
C1347 C1346 1.373 . S
C1347 C1363 1.377 . S
C1348 C1346 1.389 . S
C1348 C1349 1.524 . S
C1348 C1362 1.377 . S
C1349 C1348 1.524 . S
C1349 C1350 1.397 . S
C1349 C1354 1.363 . S
C1350 H1327 0.950 . S
C1350 C1349 1.397 . S
C1350 C1351 1.334 . S
C1351 H1328 0.950 . S
C1351 C1350 1.334 . S
C1351 C1352 1.287 . S
C1352 C1351 1.287 . S
C1352 C1353 1.524 . S
C1352 H1371 0.913 . S
C1353 H1329 0.950 . S
C1353 C1352 1.524 . S
C1353 C1354 1.415 . S
C1354 H1330 0.950 . S
C1354 C1349 1.363 . S
C1354 C1353 1.415 . S
C1355 H1331 0.951 . S
C1355 C1356 1.366 . S
C1355 C1357 1.388 . S
C1356 C1355 1.366 . S
C1356 C1360 1.385 . S
C1357 H1332 0.951 . S
C1357 C1355 1.388 . S
C1357 C1358 1.366 . S
C1358 C1357 1.366 . S
C1358 C1359 1.414 . S
C1358 C1361 1.499 . S
C1359 H1333 0.950 . S
C1359 C1358 1.414 . S
C1359 C1360 1.374 . S
C1360 H1334 0.950 . S
C1360 C1356 1.385 . S
C1360 C1359 1.374 . S
C1361 C1358 1.499 . S
C1361 C1362 1.373 . S
C1361 C1363 1.389 . S
C1362 H1335 0.950 . S
C1362 C1348 1.377 . S
C1362 C1361 1.373 . S
C1363 C1347 1.377 . S
C1363 C1361 1.389 . S
C1363 C1364 1.524 . S
C1364 C1363 1.524 . S
C1364 C1365 1.397 . S
C1364 C1369 1.363 . S
C1365 H1336 0.950 . S
C1365 C1364 1.397 . S
C1365 C1366 1.334 . S
C1366 H1337 0.950 . S
C1366 C1365 1.334 . S
C1366 C1367 1.287 . S
C1367 C1366 1.287 . S
C1367 C1368 1.524 . S
C1367 H1370 0.999 . S
C1368 H1338 0.950 . S
C1368 C1367 1.524 . S
C1368 C1369 1.415 . S
C1369 H1339 0.950 . S
C1369 C1364 1.363 . S
C1369 C1368 1.415 . S
H1370 C1367 0.999 . S
H1371 C1352 0.913 . S
C206 C95 1.491 . S
C191 C5 1.481 . S
C256 C113 1.522 . S
C241 C16 1.437 1_655 S
C291 C30 1.391 . S
C306 C137 1.271 . S
C356 C167 1.138 . S
C341 C41 1.244 . S
C406 C155 1.242 . S
C391 C49 1.103 . S
C441 C63 1.225 . S
C456 C108 1.158 . S
C491 C74 1.624 . S
C506 C128 1.531 . S
C541 C82 1.408 . S
C556 C133 1.479 . S
C591 C85 1.215 . S
C606 C149 1.149 . S
C641 C60 1.412 . S
C656 C104 1.478 . S
C706 C171 1.533 . S
C691 C38 1.434 . S
C756 C116 1.135 . S
C741 C19 1.249 . S
C791 C27 1.476 . S
C806 C134 1.488 . S
C841 C8 1.404 . S
C856 C92 1.282 . S
C906 C112 1.232 . S
C891 C71 1.094 . S
C956 C158 1.532 . S
C941 C52 1.632 . S
C1006 C154 1.338 . S
C991 C7 1.452 . S
C1056 C107 1.400 . S
C1041 C18 1.443 . S
C1091 C29 1.432 . S
C1106 C129 1.316 . S
C1141 C40 1.463 . S
C1156 C150 1.422 . S
C1206 C91 1.324 . S
C1191 C51 1.453 . S
C1241 C62 1.421 . S
C1256 C125 1.375 . S
C1306 C146 1.342 . S
C1291 C73 1.475 . S
C1356 C170 1.347 . S
C1341 C84 1.397 . S
