# Generated by pormake.
# Topology nia, (6,6)-cn, num edge types: 1
# Building blocks:
#     Node 0, Type 0, BuildingBlock: PAMTUU_clean_sbu_0, # of connection points: 6
#     Node 1, Type 0, BuildingBlock: PAMTUU_clean_sbu_0, # of connection points: 6
#     Node 2, Type 1, BuildingBlock: MIDCAF_clean_sbu_0, # of connection points: 6
#     Node 3, Type 1, BuildingBlock: MIDCAF_clean_sbu_0, # of connection points: 6
#     Edge 4, Type (0, 1), BuildingBlock: AJUNOK_clean_linker_0, # of connection points: 2
#     Edge 5, Type (0, 1), BuildingBlock: AJUNOK_clean_linker_0, # of connection points: 2
#     Edge 6, Type (0, 1), BuildingBlock: AJUNOK_clean_linker_0, # of connection points: 2
#     Edge 7, Type (0, 1), BuildingBlock: AJUNOK_clean_linker_0, # of connection points: 2
#     Edge 8, Type (0, 1), BuildingBlock: AJUNOK_clean_linker_0, # of connection points: 2
#     Edge 9, Type (0, 1), BuildingBlock: AJUNOK_clean_linker_0, # of connection points: 2
#     Edge 10, Type (0, 1), BuildingBlock: AJUNOK_clean_linker_0, # of connection points: 2
#     Edge 11, Type (0, 1), BuildingBlock: AJUNOK_clean_linker_0, # of connection points: 2
#     Edge 12, Type (0, 1), BuildingBlock: AJUNOK_clean_linker_0, # of connection points: 2
#     Edge 13, Type (0, 1), BuildingBlock: AJUNOK_clean_linker_0, # of connection points: 2
#     Edge 14, Type (0, 1), BuildingBlock: AJUNOK_clean_linker_0, # of connection points: 2
#     Edge 15, Type (0, 1), BuildingBlock: AJUNOK_clean_linker_0, # of connection points: 2
# Relax obj value: 0.352
# Max RMSD: 0.280
# Mean RMSD: 0.258
data_MOF--net-nia--node1-PAMTUU_clean_sbu_0--node2-MIDCAF_clean_sbu_0--edge1-AJUNOK_clean_linker_0
_symmetry_space_group_name_H-M    P1
_symmetry_Int_Tables_number       1
_symmetry_cell_setting            triclinic
loop_
_symmetry_equiv_pos_as_xyz
'x, y, z'
_cell_length_a     19.215588
_cell_length_b     23.033804
_cell_length_c     25.608184
_cell_angle_alpha  61.401735
_cell_angle_beta   107.25131
_cell_angle_gamma 129.22089
loop_
_atom_site_label
_atom_site_type_symbol
_atom_site_fract_x
_atom_site_fract_y
_atom_site_fract_z
_atom_type_partial_charge
Tb0 Tb 0.96815 0.91065 1.04322 0.0
Tb1 Tb 0.10082 0.02405 0.1222 0.0
C2 C 0.17012 0.04725 1.01183 0.0
C3 C 0.88118 0.78943 0.95313 0.0
C4 C 0.8848 0.70137 0.9079 0.0
C5 C 0.86544 0.75819 0.87029 0.0
C6 C 0.86395 0.80211 0.89275 0.0
C7 C 0.90293 0.73441 0.99025 0.0
C8 C 0.90444 0.69065 0.96793 0.0
C9 C 0.87479 0.83289 0.97683 0.0
O10 O 0.01788 0.84389 0.11577 0.0
O11 O 0.14189 0.94696 0.14408 0.0
O12 O 0.97567 0.92724 0.1735 0.0
O13 O 0.8783 0.87722 0.10314 0.0
O14 O 0.20046 0.14095 0.12131 0.0
O15 O 0.15451 0.03499 0.20425 0.0
O16 O 0.00885 0.05662 0.0791 0.0
O17 O 0.96687 0.01779 1.00119 0.0
O18 O 0.10379 -0.02784 1.01854 0.0
O19 O 0.16837 0.0835 1.03801 0.0
C20 C 0.09484 0.87403 0.14413 0.0
O21 O 0.86111 0.80068 1.03407 0.0
O22 O 0.935 0.91161 0.95705 0.0
C23 C 0.89405 0.88317 0.15458 0.0
C24 C 0.19258 0.15495 0.20476 0.0
C25 C 0.18911 0.23955 0.25391 0.0
C26 C 0.18358 0.16798 0.29114 0.0
C27 C 0.18499 0.12585 0.26663 0.0
C28 C 0.19551 0.22527 0.16772 0.0
C29 C 0.1935 0.2668 0.19201 0.0
C30 C 0.20145 0.11436 0.1792 0.0
C31 C 0.9714 0.05732 1.02722 0.0
H32 H 0.8495 0.76719 0.82395 0.0
H33 H 0.8475 0.84473 0.86329 0.0
H34 H 0.91618 0.72341 1.03692 0.0
H35 H 0.91694 0.64558 0.99846 0.0
H36 H 0.1794 0.14535 0.33898 0.0
H37 H 0.1815 0.07124 0.29595 0.0
H38 H 0.20143 0.24963 0.11987 0.0
H39 H 0.19894 0.32237 0.16223 0.0
Tb40 Tb 0.10163 -0.0217 0.54897 0.0
Tb41 Tb 0.96464 -0.04229 0.61991 0.0
C42 C 0.11143 0.12675 0.53451 0.0
C43 C 0.20409 0.9538 0.46379 0.0
C44 C 0.21726 0.87317 0.41629 0.0
C45 C 0.2491 -0.04471 0.38377 0.0
C46 C 0.24379 -0.00451 0.40784 0.0
C47 C 0.16725 0.87055 0.49488 0.0
C48 C 0.17434 0.83073 0.47148 0.0
C49 C 0.20471 -0.00079 0.48936 0.0
O50 O 0.18368 0.02898 0.61505 0.0
O51 O 0.07789 -0.02394 0.68035 0.0
O52 O 0.91301 0.83638 0.63441 0.0
O53 O 0.03878 0.85558 0.61863 0.0
O54 O 0.87503 -0.01668 0.61441 0.0
O55 O 0.89018 0.89943 0.69644 0.0
O56 O 0.91444 -0.03693 0.53009 0.0
O57 O 0.96913 0.90861 0.51504 0.0
O58 O 0.11027 0.09054 0.50702 0.0
O59 O 0.07142 0.08643 0.58587 0.0
C60 C 0.16099 0.01254 0.66659 0.0
O61 O 0.14982 0.02013 0.46564 0.0
O62 O 0.20587 -0.02698 0.54723 0.0
C63 C 0.95727 0.80771 0.64071 0.0
C64 C 0.84337 -0.03084 0.7034 0.0
C65 C 0.82355 0.03616 0.76061 0.0
C66 C 0.90309 0.04225 0.76728 0.0
C67 C 0.91297 0.00877 0.73882 0.0
C68 C 0.76393 -0.0379 0.69755 0.0
C69 C 0.75424 -0.00438 0.72549 0.0
C70 C 0.85126 0.93652 0.67017 0.0
C71 C 0.91071 0.9248 0.50315 0.0
H72 H 0.28026 -0.01091 0.34046 0.0
H73 H 0.27249 0.05977 0.3833 0.0
H74 H 0.13548 0.83692 0.53798 0.0
H75 H 0.14948 0.76755 0.49779 0.0
H76 H 0.95786 0.07396 0.79358 0.0
H77 H 0.97506 0.01496 0.7436 0.0
H78 H 0.70991 0.93224 0.67 0.0
H79 H 0.69355 -0.00753 0.71758 0.0
Zn80 Zn 0.37374 0.67677 0.22081 0.0
Zn81 Zn 0.39217 0.6239 0.44179 0.0
Zn82 Zn 0.39692 0.65631 0.33086 0.0
C83 C 0.57295 0.74434 0.4014 0.0
C84 C 0.31587 0.47737 0.44296 0.0
O85 O 0.32221 0.71293 0.28116 0.0
O86 O 0.31472 0.73184 0.18698 0.0
C87 C 0.55947 0.7491 0.24628 0.0
O88 O 0.5403 0.7305 0.35359 0.0
O89 O 0.52232 0.70764 0.44468 0.0
O90 O 0.34595 0.50864 0.48056 0.0
O91 O 0.32636 0.52266 0.38677 0.0
O92 O 0.50206 0.73505 0.2056 0.0
O93 O 0.53559 0.72869 0.29776 0.0
O94 O 0.3244 0.53622 0.32672 0.0
O95 O 0.29613 0.56212 0.2309 0.0
C96 C 0.2896 0.51211 0.28346 0.0
O97 O 0.33578 0.70598 0.34101 0.0
O98 O 0.31263 0.65235 0.4379 0.0
C99 C 0.29582 0.73645 0.22732 0.0
C100 C 0.30545 0.69561 0.38571 0.0
Zn101 Zn 0.6994 0.26012 0.95218 0.0
Zn102 Zn 0.68465 0.31305 0.72865 0.0
Zn103 Zn 0.67146 0.27461 0.84196 0.0
C104 C 0.76777 0.45793 0.73186 0.0
C105 C 0.49824 0.19705 0.76713 0.0
O106 O 0.74221 0.2149 0.89245 0.0
O107 O 0.74979 0.19733 0.98633 0.0
C108 C 0.78688 0.42294 0.88782 0.0
O109 O 0.74383 0.40818 0.78657 0.0
O110 O 0.74828 0.43196 0.69247 0.0
O111 O 0.55134 0.23773 0.72415 0.0
O112 O 0.5287 0.20357 0.81754 0.0
O113 O 0.78451 0.37576 0.94082 0.0
O114 O 0.74613 0.39499 0.8466 0.0
O115 O 0.53441 0.2039 0.87463 0.0
O116 O 0.57132 0.20857 0.96379 0.0
C117 C 0.5126 0.18962 0.92455 0.0
O118 O 0.72916 0.22133 0.83281 0.0
O119 O 0.75188 0.27134 0.73622 0.0
C120 C 0.76638 0.18989 0.94671 0.0
C121 C 0.75693 0.22776 0.78893 0.0
C122 C 0.2143 0.85859 0.20717 0.0
C123 C 0.13696 0.82963 0.17182 0.0
C124 C 0.26421 0.82666 0.22664 0.0
C125 C 0.23833 0.7641 0.21215 0.0
H126 H 0.23871 0.90848 0.21827 0.0
H127 H 0.32588 0.85394 0.25047 0.0
S128 S 0.03909 0.66222 0.1248 0.0
N129 N 0.03519 0.73114 0.12602 0.0
N130 N 0.12886 0.67107 0.16319 0.0
C131 C 0.15978 0.73235 0.1789 0.0
C132 C 0.10881 0.76472 0.15896 0.0
C133 C 0.30516 0.03638 0.71207 0.0
C134 C 0.2353 0.04245 0.70785 0.0
C135 C 0.38741 0.08122 0.73727 0.0
C136 C 0.4036 0.13457 0.75881 0.0
H137 H 0.29807 0.00033 0.69249 0.0
H138 H 0.44111 0.07832 0.73617 0.0
S139 S 0.23952 0.16576 0.76443 0.0
N140 N 0.184 0.0993 0.733 0.0
N141 N 0.34084 0.18601 0.77907 0.0
C142 C 0.3324 0.13681 0.75914 0.0
C143 C 0.24745 0.08988 0.73404 0.0
C144 C 0.14789 0.32344 0.25201 0.0
C145 C 0.19805 0.29116 0.27783 0.0
C146 C 0.17334 0.39123 0.25883 0.0
C147 C 0.24908 0.42839 0.2923 0.0
H148 H 0.09279 0.30008 0.22254 0.0
H149 H 0.13715 0.41813 0.23444 0.0
S150 S 0.39381 0.35902 0.37713 0.0
N151 N 0.31987 0.29477 0.34447 0.0
N152 N 0.36747 0.42251 0.35744 0.0
C153 C 0.29421 0.39175 0.32339 0.0
C154 C 0.26843 0.32265 0.31631 0.0
C155 C 0.88204 0.16328 0.76984 0.0
C156 C 0.81514 0.07944 0.7838 0.0
C157 C 0.86557 0.21077 0.77633 0.0
C158 C 0.78232 0.17563 0.79768 0.0
H159 H 0.9447 0.19365 0.74932 0.0
H160 H 0.91612 0.27608 0.76118 0.0
S161 S 0.58899 -0.04209 0.84658 0.0
N162 N 0.66648 -0.03804 0.82637 0.0
N163 N 0.63419 0.05228 0.83545 0.0
C164 C 0.71716 0.09136 0.81523 0.0
C165 C 0.73418 0.04285 0.80946 0.0
C166 C 0.73327 0.77339 0.18246 0.0
C167 C 0.81466 0.84251 0.18948 0.0
C168 C 0.65259 0.74158 0.20453 0.0
C169 C 0.64928 0.77732 0.23464 0.0
H170 H 0.73113 0.74527 0.15755 0.0
H171 H 0.59132 0.68999 0.19589 0.0
S172 S 0.84412 -0.04501 0.26968 0.0
N173 N 0.88828 0.9425 0.23286 0.0
N174 N 0.73499 0.88224 0.2741 0.0
C175 C 0.73052 0.84325 0.24556 0.0
C176 C 0.81367 0.87596 0.22301 0.0
C177 C 0.95337 0.68371 0.67464 0.0
C178 C 0.90974 0.71782 0.66868 0.0
C179 C 0.90752 0.59899 0.69685 0.0
C180 C 0.81693 0.54568 0.71421 0.0
H181 H 0.02287 0.72255 0.66098 0.0
H182 H 0.94269 0.57499 0.69959 0.0
S183 S 0.67054 0.60138 0.70762 0.0
N184 N 0.76925 0.68935 0.68328 0.0
N185 N 0.68416 0.5308 0.7233 0.0
C186 C 0.77255 0.57804 0.7093 0.0
C187 C 0.81879 0.66401 0.6871 0.0
C188 C 0.16953 0.75166 0.40256 0.0
C189 C 0.23582 0.83337 0.39611 0.0
C190 C 0.19049 0.70806 0.39462 0.0
C191 C 0.2778 0.74534 0.37874 0.0
H192 H 0.102 0.72008 0.41654 0.0
H193 H 0.13931 0.64393 0.40361 0.0
S194 S 0.47488 -0.04243 0.35417 0.0
N195 N 0.39227 0.94984 0.37132 0.0
N196 N 0.43012 0.86795 0.35502 0.0
C197 C 0.34339 0.82771 0.36908 0.0
C198 C 0.32266 0.87195 0.37775 0.0
C199 C 0.33144 0.16135 0.9841 0.0
C200 C 0.25293 0.08855 0.97997 0.0
C201 C 0.41397 0.19513 0.9631 0.0
C202 C 0.42161 0.15827 0.93646 0.0
H203 H 0.33038 0.19085 1.00616 0.0
H204 H 0.47318 0.24955 0.9695 0.0
S205 S 0.23588 -0.02803 0.90879 0.0
N206 N 0.18712 -0.01569 0.94211 0.0
N207 N 0.34359 0.04833 0.90339 0.0
C208 C 0.34341 0.08837 0.92863 0.0
C209 C 0.25875 0.0534 0.95022 0.0
C210 C 0.14211 0.2587 0.45611 0.0
C211 C 0.16592 0.21589 0.50971 0.0
C212 C 0.1913 0.34379 0.43436 0.0
C213 C 0.26735 0.38845 0.46451 0.0
H214 H 0.08366 0.22607 0.43197 0.0
H215 H 0.16825 0.37449 0.39466 0.0
S216 S 0.35962 0.30346 0.60496 0.0
N217 N 0.27037 0.22303 0.59173 0.0
N218 N 0.36547 0.3831 0.54971 0.0
C219 C 0.29259 0.34584 0.51755 0.0
C220 C 0.24139 0.25943 0.54027 0.0
C221 C 0.84482 0.0641 0.96929 0.0
C222 C 0.92563 0.09782 1.00042 0.0
C223 C 0.79338 0.09439 0.95152 0.0
C224 C 0.82237 0.16068 0.96252 0.0
H225 H 0.81867 0.01127 0.96147 0.0
H226 H 0.72852 0.06322 0.93197 0.0
S227 S 0.031 0.27338 1.03949 0.0
N228 N 0.03314 0.2025 1.04012 0.0
N229 N 0.93775 0.26068 1.0048 0.0
C230 C 0.90398 0.19619 0.99217 0.0
C231 C 0.95555 0.16473 1.01123 0.0
C232 C 0.81081 0.82747 0.452 0.0
C233 C 0.83398 0.89187 0.46361 0.0
C234 C 0.72905 0.78441 0.42489 0.0
C235 C 0.66871 0.80523 0.40774 0.0
H236 H 0.85291 0.80628 0.46767 0.0
H237 H 0.70998 0.73084 0.42158 0.0
S238 S 0.70355 -0.02299 0.41798 0.0
N239 N 0.7945 -0.01923 0.44795 0.0
N240 N 0.64124 0.89945 0.39737 0.0
C241 C 0.6945 0.87369 0.41407 0.0
C242 C 0.77716 0.91725 0.44184 0.0
C243 C 0.7914 0.6 0.86106 0.0
C244 C 0.87289 0.6452 0.88755 0.0
C245 C 0.76739 0.53143 0.85603 0.0
C246 C 0.82453 0.50672 0.87643 0.0
H247 H 0.74242 0.61321 0.84895 0.0
H248 H 0.70039 0.49338 0.84117 0.0
S249 S 0.05162 0.61236 0.9392 0.0
N250 N 0.01599 0.66704 0.92662 0.0
N251 N 0.96988 0.5373 0.91756 0.0
C252 C 0.90919 0.55521 0.89818 0.0
C253 C 0.93381 0.62501 0.90335 0.0
loop_
_geom_bond_atom_site_label_1
_geom_bond_atom_site_label_2
_geom_bond_distance
_geom_bond_site_symmetry_2
_ccdc_geom_bond_type
Tb0 C9 2.764 . S
Tb0 O10 2.325 1_656 S
Tb0 O13 2.303 1_556 S
Tb0 O17 2.322 1_565 S
Tb0 O18 2.349 1_665 S
Tb0 O21 2.415 . S
Tb0 O22 2.399 . S
Tb1 O11 2.322 1_545 S
Tb1 O12 2.349 1_445 S
Tb1 O14 2.415 . S
Tb1 O15 2.399 . S
Tb1 O16 2.325 . S
Tb1 O19 2.303 1_554 S
Tb1 C30 2.764 . S
C2 O18 1.261 . S
C2 O19 1.257 . S
C3 C6 1.358 . S
C3 C7 1.332 . S
C3 C9 1.504 . S
C4 C5 1.373 . S
C4 C8 1.308 . S
C5 C4 1.373 . S
C5 C6 1.429 . S
C5 H32 0.932 . S
C6 C3 1.358 . S
C6 C5 1.429 . S
C6 H33 0.930 . S
C7 C3 1.332 . S
C7 C8 1.394 . S
C7 H34 0.932 1_556 S
C8 C4 1.308 . S
C8 C7 1.394 . S
C8 H35 0.929 1_556 S
C9 Tb0 2.764 . S
C9 C3 1.504 . S
C9 O21 1.239 . S
C9 O22 1.263 . S
O10 Tb0 2.325 1_454 S
O10 C20 1.236 . S
O11 Tb1 2.322 1_565 S
O11 C20 1.257 . S
O12 Tb1 2.349 1_665 S
O12 C23 1.261 . S
O13 Tb0 2.303 1_554 S
O13 C23 1.257 . S
O14 Tb1 2.415 . S
O14 C30 1.239 . S
O15 Tb1 2.399 . S
O15 C30 1.263 . S
O16 Tb1 2.325 . S
O16 C31 1.236 1_454 S
O17 Tb0 2.322 1_545 S
O17 C31 1.257 . S
O18 Tb0 2.349 1_445 S
O18 C2 1.261 . S
O19 Tb1 2.303 1_556 S
O19 C2 1.257 . S
C20 O10 1.236 . S
C20 O11 1.257 . S
O21 Tb0 2.415 . S
O21 C9 1.239 . S
O22 Tb0 2.399 . S
O22 C9 1.263 . S
C23 O12 1.261 . S
C23 O13 1.257 . S
C24 C27 1.358 . S
C24 C28 1.332 . S
C24 C30 1.504 . S
C25 C26 1.373 . S
C25 C29 1.308 . S
C26 C25 1.373 . S
C26 C27 1.429 . S
C26 H36 0.932 . S
C27 C24 1.358 . S
C27 C26 1.429 . S
C27 H37 0.930 . S
C28 C24 1.332 . S
C28 C29 1.394 . S
C28 H38 0.932 . S
C29 C25 1.308 . S
C29 C28 1.394 . S
C29 H39 0.929 . S
C30 Tb1 2.764 . S
C30 O14 1.239 . S
C30 O15 1.263 . S
C30 C24 1.504 . S
C31 O16 1.236 1_656 S
C31 O17 1.257 . S
H32 C5 0.932 . S
H33 C6 0.930 . S
H34 C7 0.932 1_554 S
H35 C8 0.929 1_554 S
H36 C26 0.932 . S
H37 C27 0.930 . S
H38 C28 0.932 . S
H39 C29 0.929 . S
Tb40 C49 2.754 1_545 S
Tb40 O50 2.328 . S
Tb40 O53 2.310 1_545 S
Tb40 O57 2.329 1_445 S
Tb40 O58 2.360 . S
Tb40 O61 2.403 1_545 S
Tb40 O62 2.393 . S
Tb41 O51 2.322 1_655 S
Tb41 O52 2.349 1_545 S
Tb41 O54 2.415 . S
Tb41 O55 2.399 . S
Tb41 O56 2.325 1_545 S
Tb41 O59 2.303 1_655 S
Tb41 C70 2.764 . S
C42 O58 1.261 . S
C42 O59 1.257 . S
C43 C46 1.359 1_565 S
C43 C47 1.332 . S
C43 C49 1.504 . S
C44 C45 1.373 . S
C44 C48 1.308 . S
C45 C44 1.373 . S
C45 C46 1.414 1_565 S
C45 H72 0.932 1_565 S
C46 C43 1.359 1_545 S
C46 C45 1.414 1_545 S
C46 H73 0.945 . S
C47 C43 1.332 . S
C47 C48 1.394 . S
C47 H74 0.932 . S
C48 C44 1.308 . S
C48 C47 1.394 . S
C48 H75 0.929 . S
C49 Tb40 2.754 1_565 S
C49 C43 1.504 . S
C49 O61 1.239 . S
C49 O62 1.263 1_565 S
O50 Tb40 2.328 . S
O50 C60 1.236 . S
O51 Tb41 2.322 1_455 S
O51 C60 1.257 . S
O52 Tb41 2.349 1_565 S
O52 C63 1.261 . S
O53 Tb40 2.310 1_565 S
O53 C63 1.252 1_455 S
O54 Tb41 2.415 . S
O54 C70 1.239 . S
O55 Tb41 2.399 . S
O55 C70 1.263 . S
O56 Tb41 2.325 1_565 S
O56 C71 1.236 . S
O57 Tb40 2.329 1_665 S
O57 C71 1.257 . S
O58 Tb40 2.360 . S
O58 C42 1.261 . S
O59 Tb41 2.303 1_455 S
O59 C42 1.257 . S
C60 O50 1.236 . S
C60 O51 1.257 . S
O61 Tb40 2.403 1_565 S
O61 C49 1.239 . S
O62 Tb40 2.393 . S
O62 C49 1.263 1_545 S
C63 O52 1.261 . S
C63 O53 1.252 1_655 S
C64 C67 1.358 . S
C64 C68 1.332 . S
C64 C70 1.504 . S
C65 C66 1.373 . S
C65 C69 1.308 . S
C66 C65 1.373 . S
C66 C67 1.429 . S
C66 H76 0.932 . S
C67 C64 1.358 . S
C67 C66 1.429 . S
C67 H77 0.930 1_545 S
C68 C64 1.332 . S
C68 C69 1.394 . S
C68 H78 0.932 . S
C69 C65 1.308 . S
C69 C68 1.394 . S
C69 H79 0.929 . S
C70 Tb41 2.764 . S
C70 O54 1.239 . S
C70 O55 1.263 . S
C70 C64 1.504 . S
C71 O56 1.236 . S
C71 O57 1.257 . S
H72 C45 0.932 1_545 S
H73 C46 0.945 . S
H74 C47 0.932 . S
H75 C48 0.929 . S
H76 C66 0.932 . S
H77 C67 0.930 1_565 S
H78 C68 0.932 . S
H79 C69 0.929 . S
Zn80 O86 1.920 . S
Zn80 O92 1.898 . S
Zn80 O95 1.905 . S
Zn81 O89 1.905 . S
Zn81 O90 1.898 . S
Zn81 O98 1.920 . S
Zn82 O85 2.080 . S
Zn82 O88 2.114 . S
Zn82 O91 2.120 . S
Zn82 O93 2.120 . S
Zn82 O94 2.114 . S
Zn82 O97 2.080 . S
C83 O88 1.166 . S
C83 O89 1.182 . S
C84 O90 1.167 . S
C84 O91 1.299 . S
O85 Zn82 2.080 . S
O85 C99 1.305 . S
O86 Zn80 1.920 . S
O86 C99 1.234 . S
C87 O92 1.167 . S
C87 O93 1.299 . S
O88 Zn82 2.114 . S
O88 C83 1.166 . S
O89 Zn81 1.905 . S
O89 C83 1.182 . S
O90 Zn81 1.898 . S
O90 C84 1.167 . S
O91 Zn82 2.120 . S
O91 C84 1.299 . S
O92 Zn80 1.898 . S
O92 C87 1.167 . S
O93 Zn82 2.120 . S
O93 C87 1.299 . S
O94 Zn82 2.114 . S
O94 C96 1.166 . S
O95 Zn80 1.905 . S
O95 C96 1.182 . S
C96 O94 1.166 . S
C96 O95 1.182 . S
O97 Zn82 2.080 . S
O97 C100 1.305 . S
O98 Zn81 1.920 . S
O98 C100 1.234 . S
C99 O85 1.305 . S
C99 O86 1.234 . S
C100 O97 1.305 . S
C100 O98 1.234 . S
Zn101 O107 1.920 . S
Zn101 O113 1.898 . S
Zn101 O116 1.905 . S
Zn102 O110 1.905 . S
Zn102 O111 1.898 . S
Zn102 O119 1.920 . S
Zn103 O106 2.080 . S
Zn103 O109 2.114 . S
Zn103 O112 2.120 . S
Zn103 O114 2.120 . S
Zn103 O115 2.114 . S
Zn103 O118 2.080 . S
C104 O109 1.166 . S
C104 O110 1.182 . S
C105 O111 1.167 . S
C105 O112 1.299 . S
O106 Zn103 2.080 . S
O106 C120 1.305 . S
O107 Zn101 1.920 . S
O107 C120 1.234 . S
C108 O113 1.167 . S
C108 O114 1.299 . S
O109 Zn103 2.114 . S
O109 C104 1.166 . S
O110 Zn102 1.905 . S
O110 C104 1.182 . S
O111 Zn102 1.898 . S
O111 C105 1.167 . S
O112 Zn103 2.120 . S
O112 C105 1.299 . S
O113 Zn101 1.898 . S
O113 C108 1.167 . S
O114 Zn103 2.120 . S
O114 C108 1.299 . S
O115 Zn103 2.114 . S
O115 C117 1.166 . S
O116 Zn101 1.905 . S
O116 C117 1.182 . S
C117 O115 1.166 . S
C117 O116 1.182 . S
O118 Zn103 2.080 . S
O118 C121 1.305 . S
O119 Zn102 1.920 . S
O119 C121 1.234 . S
C120 O106 1.305 . S
C120 O107 1.234 . S
C121 O118 1.305 . S
C121 O119 1.234 . S
C122 C123 1.369 . S
C122 C124 1.419 . S
C122 H126 0.930 . S
C123 C122 1.369 . S
C123 C132 1.429 . S
C124 C122 1.419 . S
C124 C125 1.363 . S
C124 H127 0.929 . S
C125 C124 1.363 . S
C125 C131 1.428 . S
H126 C122 0.930 . S
H127 C124 0.929 . S
S128 N129 1.613 . S
S128 N130 1.610 . S
N129 S128 1.613 . S
N129 C132 1.350 . S
N130 S128 1.610 . S
N130 C131 1.351 . S
C131 C125 1.428 . S
C131 N130 1.351 . S
C131 C132 1.434 . S
C132 C123 1.429 . S
C132 N129 1.350 . S
C132 C131 1.434 . S
C133 C134 1.369 . S
C133 C135 1.419 . S
C133 H137 0.930 . S
C134 C133 1.369 . S
C134 C143 1.429 . S
C135 C133 1.419 . S
C135 C136 1.363 . S
C135 H138 0.929 . S
C136 C135 1.363 . S
C136 C142 1.428 . S
H137 C133 0.930 . S
H138 C135 0.929 . S
S139 N140 1.613 . S
S139 N141 1.610 . S
N140 S139 1.613 . S
N140 C143 1.350 . S
N141 S139 1.610 . S
N141 C142 1.351 . S
C142 C136 1.428 . S
C142 N141 1.351 . S
C142 C143 1.434 . S
C143 C134 1.429 . S
C143 N140 1.350 . S
C143 C142 1.434 . S
C144 C145 1.369 . S
C144 C146 1.419 . S
C144 H148 0.930 . S
C145 C144 1.369 . S
C145 C154 1.429 . S
C146 C144 1.419 . S
C146 C147 1.363 . S
C146 H149 0.929 . S
C147 C146 1.363 . S
C147 C153 1.428 . S
H148 C144 0.930 . S
H149 C146 0.929 . S
S150 N151 1.613 . S
S150 N152 1.610 . S
N151 S150 1.613 . S
N151 C154 1.350 . S
N152 S150 1.610 . S
N152 C153 1.351 . S
C153 C147 1.428 . S
C153 N152 1.351 . S
C153 C154 1.434 . S
C154 C145 1.429 . S
C154 N151 1.350 . S
C154 C153 1.434 . S
C155 C156 1.369 . S
C155 C157 1.419 . S
C155 H159 0.930 . S
C156 C155 1.369 . S
C156 C165 1.429 . S
C157 C155 1.419 . S
C157 C158 1.363 . S
C157 H160 0.929 . S
C158 C157 1.363 . S
C158 C164 1.428 . S
H159 C155 0.930 . S
H160 C157 0.929 . S
S161 N162 1.613 . S
S161 N163 1.610 . S
N162 S161 1.613 . S
N162 C165 1.350 . S
N163 S161 1.610 . S
N163 C164 1.351 . S
C164 C158 1.428 . S
C164 N163 1.351 . S
C164 C165 1.434 . S
C165 C156 1.429 . S
C165 N162 1.350 . S
C165 C164 1.434 . S
C166 C167 1.369 . S
C166 C168 1.419 . S
C166 H170 0.930 . S
C167 C166 1.369 . S
C167 C176 1.429 . S
C168 C166 1.419 . S
C168 C169 1.363 . S
C168 H171 0.929 . S
C169 C168 1.363 . S
C169 C175 1.428 . S
H170 C166 0.930 . S
H171 C168 0.929 . S
S172 N173 1.613 . S
S172 N174 1.610 . S
N173 S172 1.613 . S
N173 C176 1.350 . S
N174 S172 1.610 . S
N174 C175 1.351 . S
C175 C169 1.428 . S
C175 N174 1.351 . S
C175 C176 1.434 . S
C176 C167 1.429 . S
C176 N173 1.350 . S
C176 C175 1.434 . S
C177 C178 1.369 . S
C177 C179 1.419 . S
C177 H181 0.930 . S
C178 C177 1.369 . S
C178 C187 1.429 . S
C179 C177 1.419 . S
C179 C180 1.363 . S
C179 H182 0.929 . S
C180 C179 1.363 . S
C180 C186 1.428 . S
H181 C177 0.930 . S
H182 C179 0.929 . S
S183 N184 1.613 . S
S183 N185 1.610 . S
N184 S183 1.613 . S
N184 C187 1.350 . S
N185 S183 1.610 . S
N185 C186 1.351 . S
C186 C180 1.428 . S
C186 N185 1.351 . S
C186 C187 1.434 . S
C187 C178 1.429 . S
C187 N184 1.350 . S
C187 C186 1.434 . S
C188 C189 1.369 . S
C188 C190 1.419 . S
C188 H192 0.930 . S
C189 C188 1.369 . S
C189 C198 1.429 . S
C190 C188 1.419 . S
C190 C191 1.363 . S
C190 H193 0.929 . S
C191 C190 1.363 . S
C191 C197 1.428 . S
H192 C188 0.930 . S
H193 C190 0.929 . S
S194 N195 1.613 . S
S194 N196 1.610 . S
N195 S194 1.613 . S
N195 C198 1.350 . S
N196 S194 1.610 . S
N196 C197 1.351 . S
C197 C191 1.428 . S
C197 N196 1.351 . S
C197 C198 1.434 . S
C198 C189 1.429 . S
C198 N195 1.350 . S
C198 C197 1.434 . S
C199 C200 1.369 . S
C199 C201 1.419 . S
C199 H203 0.930 . S
C200 C199 1.369 . S
C200 C209 1.429 . S
C201 C199 1.419 . S
C201 C202 1.363 . S
C201 H204 0.929 . S
C202 C201 1.363 . S
C202 C208 1.428 . S
H203 C199 0.930 . S
H204 C201 0.929 . S
S205 N206 1.613 . S
S205 N207 1.610 . S
N206 S205 1.613 . S
N206 C209 1.350 . S
N207 S205 1.610 . S
N207 C208 1.351 . S
C208 C202 1.428 . S
C208 N207 1.351 . S
C208 C209 1.434 . S
C209 C200 1.429 . S
C209 N206 1.350 . S
C209 C208 1.434 . S
C210 C211 1.369 . S
C210 C212 1.419 . S
C210 H214 0.930 . S
C211 C210 1.369 . S
C211 C220 1.429 . S
C212 C210 1.419 . S
C212 C213 1.363 . S
C212 H215 0.929 . S
C213 C212 1.363 . S
C213 C219 1.428 . S
H214 C210 0.930 . S
H215 C212 0.929 . S
S216 N217 1.613 . S
S216 N218 1.610 . S
N217 S216 1.613 . S
N217 C220 1.350 . S
N218 S216 1.610 . S
N218 C219 1.351 . S
C219 C213 1.428 . S
C219 N218 1.351 . S
C219 C220 1.434 . S
C220 C211 1.429 . S
C220 N217 1.350 . S
C220 C219 1.434 . S
C221 C222 1.369 . S
C221 C223 1.419 . S
C221 H225 0.930 . S
C222 C221 1.369 . S
C222 C231 1.429 . S
C223 C221 1.419 . S
C223 C224 1.363 . S
C223 H226 0.929 . S
C224 C223 1.363 . S
C224 C230 1.428 . S
H225 C221 0.930 . S
H226 C223 0.929 . S
S227 N228 1.613 . S
S227 N229 1.610 . S
N228 S227 1.613 . S
N228 C231 1.350 . S
N229 S227 1.610 . S
N229 C230 1.351 . S
C230 C224 1.428 . S
C230 N229 1.351 . S
C230 C231 1.434 . S
C231 C222 1.429 . S
C231 N228 1.350 . S
C231 C230 1.434 . S
C232 C233 1.369 . S
C232 C234 1.419 . S
C232 H236 0.930 . S
C233 C232 1.369 . S
C233 C242 1.429 . S
C234 C232 1.419 . S
C234 C235 1.363 . S
C234 H237 0.929 . S
C235 C234 1.363 . S
C235 C241 1.428 . S
H236 C232 0.930 . S
H237 C234 0.929 . S
S238 N239 1.613 . S
S238 N240 1.610 . S
N239 S238 1.613 . S
N239 C242 1.350 . S
N240 S238 1.610 . S
N240 C241 1.351 . S
C241 C235 1.428 . S
C241 N240 1.351 . S
C241 C242 1.434 . S
C242 C233 1.429 . S
C242 N239 1.350 . S
C242 C241 1.434 . S
C243 C244 1.369 . S
C243 C245 1.419 . S
C243 H247 0.930 . S
C244 C243 1.369 . S
C244 C253 1.429 . S
C245 C243 1.419 . S
C245 C246 1.363 . S
C245 H248 0.929 . S
C246 C245 1.363 . S
C246 C252 1.428 . S
H247 C243 0.930 . S
H248 C245 0.929 . S
S249 N250 1.613 1_455 S
S249 N251 1.610 1_455 S
N250 S249 1.613 1_655 S
N250 C253 1.350 . S
N251 S249 1.610 1_655 S
N251 C252 1.351 . S
C252 C246 1.428 . S
C252 N251 1.351 . S
C252 C253 1.434 . S
C253 C244 1.429 . S
C253 N250 1.350 . S
C253 C252 1.434 . S
C123 C20 1.980 . S
C125 C99 1.946 . S
C134 C60 1.388 . S
C136 C105 1.285 . S
C145 C25 1.076 . S
C147 C96 0.942 . S
C156 C65 1.523 . S
C158 C121 1.299 . S
C167 C23 2.051 . S
C169 C87 1.973 . S
C180 C104 2.306 . S
C178 C63 2.330 . S
C189 C44 1.312 . S
C191 C100 1.163 . S
C202 C117 1.651 . S
C200 C2 1.696 . S
C213 C84 2.078 . S
C211 C42 2.142 . S
C224 C120 2.206 . S
C222 C31 2.252 . S
C235 C83 1.628 . S
C233 C71 1.764 . S
C246 C108 0.940 . S
C244 C4 1.091 . S
