# Generated by pormake.
# Topology gar, (4,6)-cn, num edge types: 1
# Building blocks:
#     Node 0, Type 0, BuildingBlock: AZAVOO_clean_sbu_0, # of connection points: 4
#     Node 1, Type 0, BuildingBlock: AZAVOO_clean_sbu_0, # of connection points: 4
#     Node 2, Type 0, BuildingBlock: AZAVOO_clean_sbu_0, # of connection points: 4
#     Node 3, Type 0, BuildingBlock: AZAVOO_clean_sbu_0, # of connection points: 4
#     Node 4, Type 0, BuildingBlock: AZAVOO_clean_sbu_0, # of connection points: 4
#     Node 5, Type 0, BuildingBlock: AZAVOO_clean_sbu_0, # of connection points: 4
#     Node 6, Type 0, BuildingBlock: AZAVOO_clean_sbu_0, # of connection points: 4
#     Node 7, Type 0, BuildingBlock: AZAVOO_clean_sbu_0, # of connection points: 4
#     Node 8, Type 0, BuildingBlock: AZAVOO_clean_sbu_0, # of connection points: 4
#     Node 9, Type 0, BuildingBlock: AZAVOO_clean_sbu_0, # of connection points: 4
#     Node 10, Type 0, BuildingBlock: AZAVOO_clean_sbu_0, # of connection points: 4
#     Node 11, Type 0, BuildingBlock: AZAVOO_clean_sbu_0, # of connection points: 4
#     Node 12, Type 0, BuildingBlock: AZAVOO_clean_sbu_0, # of connection points: 4
#     Node 13, Type 0, BuildingBlock: AZAVOO_clean_sbu_0, # of connection points: 4
#     Node 14, Type 0, BuildingBlock: AZAVOO_clean_sbu_0, # of connection points: 4
#     Node 15, Type 0, BuildingBlock: AZAVOO_clean_sbu_0, # of connection points: 4
#     Node 16, Type 0, BuildingBlock: AZAVOO_clean_sbu_0, # of connection points: 4
#     Node 17, Type 0, BuildingBlock: AZAVOO_clean_sbu_0, # of connection points: 4
#     Node 18, Type 0, BuildingBlock: AZAVOO_clean_sbu_0, # of connection points: 4
#     Node 19, Type 0, BuildingBlock: AZAVOO_clean_sbu_0, # of connection points: 4
#     Node 20, Type 0, BuildingBlock: AZAVOO_clean_sbu_0, # of connection points: 4
#     Node 21, Type 0, BuildingBlock: AZAVOO_clean_sbu_0, # of connection points: 4
#     Node 22, Type 0, BuildingBlock: AZAVOO_clean_sbu_0, # of connection points: 4
#     Node 23, Type 0, BuildingBlock: AZAVOO_clean_sbu_0, # of connection points: 4
#     Node 24, Type 1, BuildingBlock: INOVEN_clean_sbu_0, # of connection points: 6
#     Node 25, Type 1, BuildingBlock: INOVEN_clean_sbu_0, # of connection points: 6
#     Node 26, Type 1, BuildingBlock: INOVEN_clean_sbu_0, # of connection points: 6
#     Node 27, Type 1, BuildingBlock: INOVEN_clean_sbu_0, # of connection points: 6
#     Node 28, Type 1, BuildingBlock: INOVEN_clean_sbu_0, # of connection points: 6
#     Node 29, Type 1, BuildingBlock: INOVEN_clean_sbu_0, # of connection points: 6
#     Node 30, Type 1, BuildingBlock: INOVEN_clean_sbu_0, # of connection points: 6
#     Node 31, Type 1, BuildingBlock: INOVEN_clean_sbu_0, # of connection points: 6
#     Node 32, Type 1, BuildingBlock: INOVEN_clean_sbu_0, # of connection points: 6
#     Node 33, Type 1, BuildingBlock: INOVEN_clean_sbu_0, # of connection points: 6
#     Node 34, Type 1, BuildingBlock: INOVEN_clean_sbu_0, # of connection points: 6
#     Node 35, Type 1, BuildingBlock: INOVEN_clean_sbu_0, # of connection points: 6
#     Node 36, Type 1, BuildingBlock: INOVEN_clean_sbu_0, # of connection points: 6
#     Node 37, Type 1, BuildingBlock: INOVEN_clean_sbu_0, # of connection points: 6
#     Node 38, Type 1, BuildingBlock: INOVEN_clean_sbu_0, # of connection points: 6
#     Node 39, Type 1, BuildingBlock: INOVEN_clean_sbu_0, # of connection points: 6
#     Edge 40, Type (0, 1), BuildingBlock: TEMPAE_clean_linker_10, # of connection points: 2
#     Edge 41, Type (0, 1), BuildingBlock: TEMPAE_clean_linker_10, # of connection points: 2
#     Edge 42, Type (0, 1), BuildingBlock: TEMPAE_clean_linker_10, # of connection points: 2
#     Edge 43, Type (0, 1), BuildingBlock: TEMPAE_clean_linker_10, # of connection points: 2
#     Edge 44, Type (0, 1), BuildingBlock: TEMPAE_clean_linker_10, # of connection points: 2
#     Edge 45, Type (0, 1), BuildingBlock: TEMPAE_clean_linker_10, # of connection points: 2
#     Edge 46, Type (0, 1), BuildingBlock: TEMPAE_clean_linker_10, # of connection points: 2
#     Edge 47, Type (0, 1), BuildingBlock: TEMPAE_clean_linker_10, # of connection points: 2
#     Edge 48, Type (0, 1), BuildingBlock: TEMPAE_clean_linker_10, # of connection points: 2
#     Edge 49, Type (0, 1), BuildingBlock: TEMPAE_clean_linker_10, # of connection points: 2
#     Edge 50, Type (0, 1), BuildingBlock: TEMPAE_clean_linker_10, # of connection points: 2
#     Edge 51, Type (0, 1), BuildingBlock: TEMPAE_clean_linker_10, # of connection points: 2
#     Edge 52, Type (0, 1), BuildingBlock: TEMPAE_clean_linker_10, # of connection points: 2
#     Edge 53, Type (0, 1), BuildingBlock: TEMPAE_clean_linker_10, # of connection points: 2
#     Edge 54, Type (0, 1), BuildingBlock: TEMPAE_clean_linker_10, # of connection points: 2
#     Edge 55, Type (0, 1), BuildingBlock: TEMPAE_clean_linker_10, # of connection points: 2
#     Edge 56, Type (0, 1), BuildingBlock: TEMPAE_clean_linker_10, # of connection points: 2
#     Edge 57, Type (0, 1), BuildingBlock: TEMPAE_clean_linker_10, # of connection points: 2
#     Edge 58, Type (0, 1), BuildingBlock: TEMPAE_clean_linker_10, # of connection points: 2
#     Edge 59, Type (0, 1), BuildingBlock: TEMPAE_clean_linker_10, # of connection points: 2
#     Edge 60, Type (0, 1), BuildingBlock: TEMPAE_clean_linker_10, # of connection points: 2
#     Edge 61, Type (0, 1), BuildingBlock: TEMPAE_clean_linker_10, # of connection points: 2
#     Edge 62, Type (0, 1), BuildingBlock: TEMPAE_clean_linker_10, # of connection points: 2
#     Edge 63, Type (0, 1), BuildingBlock: TEMPAE_clean_linker_10, # of connection points: 2
#     Edge 64, Type (0, 1), BuildingBlock: TEMPAE_clean_linker_10, # of connection points: 2
#     Edge 65, Type (0, 1), BuildingBlock: TEMPAE_clean_linker_10, # of connection points: 2
#     Edge 66, Type (0, 1), BuildingBlock: TEMPAE_clean_linker_10, # of connection points: 2
#     Edge 67, Type (0, 1), BuildingBlock: TEMPAE_clean_linker_10, # of connection points: 2
#     Edge 68, Type (0, 1), BuildingBlock: TEMPAE_clean_linker_10, # of connection points: 2
#     Edge 69, Type (0, 1), BuildingBlock: TEMPAE_clean_linker_10, # of connection points: 2
#     Edge 70, Type (0, 1), BuildingBlock: TEMPAE_clean_linker_10, # of connection points: 2
#     Edge 71, Type (0, 1), BuildingBlock: TEMPAE_clean_linker_10, # of connection points: 2
#     Edge 72, Type (0, 1), BuildingBlock: TEMPAE_clean_linker_10, # of connection points: 2
#     Edge 73, Type (0, 1), BuildingBlock: TEMPAE_clean_linker_10, # of connection points: 2
#     Edge 74, Type (0, 1), BuildingBlock: TEMPAE_clean_linker_10, # of connection points: 2
#     Edge 75, Type (0, 1), BuildingBlock: TEMPAE_clean_linker_10, # of connection points: 2
#     Edge 76, Type (0, 1), BuildingBlock: TEMPAE_clean_linker_10, # of connection points: 2
#     Edge 77, Type (0, 1), BuildingBlock: TEMPAE_clean_linker_10, # of connection points: 2
#     Edge 78, Type (0, 1), BuildingBlock: TEMPAE_clean_linker_10, # of connection points: 2
#     Edge 79, Type (0, 1), BuildingBlock: TEMPAE_clean_linker_10, # of connection points: 2
#     Edge 80, Type (0, 1), BuildingBlock: TEMPAE_clean_linker_10, # of connection points: 2
#     Edge 81, Type (0, 1), BuildingBlock: TEMPAE_clean_linker_10, # of connection points: 2
#     Edge 82, Type (0, 1), BuildingBlock: TEMPAE_clean_linker_10, # of connection points: 2
#     Edge 83, Type (0, 1), BuildingBlock: TEMPAE_clean_linker_10, # of connection points: 2
#     Edge 84, Type (0, 1), BuildingBlock: TEMPAE_clean_linker_10, # of connection points: 2
#     Edge 85, Type (0, 1), BuildingBlock: TEMPAE_clean_linker_10, # of connection points: 2
#     Edge 86, Type (0, 1), BuildingBlock: TEMPAE_clean_linker_10, # of connection points: 2
#     Edge 87, Type (0, 1), BuildingBlock: TEMPAE_clean_linker_10, # of connection points: 2
#     Edge 88, Type (0, 1), BuildingBlock: TEMPAE_clean_linker_10, # of connection points: 2
#     Edge 89, Type (0, 1), BuildingBlock: TEMPAE_clean_linker_10, # of connection points: 2
#     Edge 90, Type (0, 1), BuildingBlock: TEMPAE_clean_linker_10, # of connection points: 2
#     Edge 91, Type (0, 1), BuildingBlock: TEMPAE_clean_linker_10, # of connection points: 2
#     Edge 92, Type (0, 1), BuildingBlock: TEMPAE_clean_linker_10, # of connection points: 2
#     Edge 93, Type (0, 1), BuildingBlock: TEMPAE_clean_linker_10, # of connection points: 2
#     Edge 94, Type (0, 1), BuildingBlock: TEMPAE_clean_linker_10, # of connection points: 2
#     Edge 95, Type (0, 1), BuildingBlock: TEMPAE_clean_linker_10, # of connection points: 2
#     Edge 96, Type (0, 1), BuildingBlock: TEMPAE_clean_linker_10, # of connection points: 2
#     Edge 97, Type (0, 1), BuildingBlock: TEMPAE_clean_linker_10, # of connection points: 2
#     Edge 98, Type (0, 1), BuildingBlock: TEMPAE_clean_linker_10, # of connection points: 2
#     Edge 99, Type (0, 1), BuildingBlock: TEMPAE_clean_linker_10, # of connection points: 2
#     Edge 100, Type (0, 1), BuildingBlock: TEMPAE_clean_linker_10, # of connection points: 2
#     Edge 101, Type (0, 1), BuildingBlock: TEMPAE_clean_linker_10, # of connection points: 2
#     Edge 102, Type (0, 1), BuildingBlock: TEMPAE_clean_linker_10, # of connection points: 2
#     Edge 103, Type (0, 1), BuildingBlock: TEMPAE_clean_linker_10, # of connection points: 2
#     Edge 104, Type (0, 1), BuildingBlock: TEMPAE_clean_linker_10, # of connection points: 2
#     Edge 105, Type (0, 1), BuildingBlock: TEMPAE_clean_linker_10, # of connection points: 2
#     Edge 106, Type (0, 1), BuildingBlock: TEMPAE_clean_linker_10, # of connection points: 2
#     Edge 107, Type (0, 1), BuildingBlock: TEMPAE_clean_linker_10, # of connection points: 2
#     Edge 108, Type (0, 1), BuildingBlock: TEMPAE_clean_linker_10, # of connection points: 2
#     Edge 109, Type (0, 1), BuildingBlock: TEMPAE_clean_linker_10, # of connection points: 2
#     Edge 110, Type (0, 1), BuildingBlock: TEMPAE_clean_linker_10, # of connection points: 2
#     Edge 111, Type (0, 1), BuildingBlock: TEMPAE_clean_linker_10, # of connection points: 2
#     Edge 112, Type (0, 1), BuildingBlock: TEMPAE_clean_linker_10, # of connection points: 2
#     Edge 113, Type (0, 1), BuildingBlock: TEMPAE_clean_linker_10, # of connection points: 2
#     Edge 114, Type (0, 1), BuildingBlock: TEMPAE_clean_linker_10, # of connection points: 2
#     Edge 115, Type (0, 1), BuildingBlock: TEMPAE_clean_linker_10, # of connection points: 2
#     Edge 116, Type (0, 1), BuildingBlock: TEMPAE_clean_linker_10, # of connection points: 2
#     Edge 117, Type (0, 1), BuildingBlock: TEMPAE_clean_linker_10, # of connection points: 2
#     Edge 118, Type (0, 1), BuildingBlock: TEMPAE_clean_linker_10, # of connection points: 2
#     Edge 119, Type (0, 1), BuildingBlock: TEMPAE_clean_linker_10, # of connection points: 2
#     Edge 120, Type (0, 1), BuildingBlock: TEMPAE_clean_linker_10, # of connection points: 2
#     Edge 121, Type (0, 1), BuildingBlock: TEMPAE_clean_linker_10, # of connection points: 2
#     Edge 122, Type (0, 1), BuildingBlock: TEMPAE_clean_linker_10, # of connection points: 2
#     Edge 123, Type (0, 1), BuildingBlock: TEMPAE_clean_linker_10, # of connection points: 2
#     Edge 124, Type (0, 1), BuildingBlock: TEMPAE_clean_linker_10, # of connection points: 2
#     Edge 125, Type (0, 1), BuildingBlock: TEMPAE_clean_linker_10, # of connection points: 2
#     Edge 126, Type (0, 1), BuildingBlock: TEMPAE_clean_linker_10, # of connection points: 2
#     Edge 127, Type (0, 1), BuildingBlock: TEMPAE_clean_linker_10, # of connection points: 2
#     Edge 128, Type (0, 1), BuildingBlock: TEMPAE_clean_linker_10, # of connection points: 2
#     Edge 129, Type (0, 1), BuildingBlock: TEMPAE_clean_linker_10, # of connection points: 2
#     Edge 130, Type (0, 1), BuildingBlock: TEMPAE_clean_linker_10, # of connection points: 2
#     Edge 131, Type (0, 1), BuildingBlock: TEMPAE_clean_linker_10, # of connection points: 2
#     Edge 132, Type (0, 1), BuildingBlock: TEMPAE_clean_linker_10, # of connection points: 2
#     Edge 133, Type (0, 1), BuildingBlock: TEMPAE_clean_linker_10, # of connection points: 2
#     Edge 134, Type (0, 1), BuildingBlock: TEMPAE_clean_linker_10, # of connection points: 2
#     Edge 135, Type (0, 1), BuildingBlock: TEMPAE_clean_linker_10, # of connection points: 2
# Relax obj value: 0.211
# Max RMSD: 0.305
# Mean RMSD: 0.195
data_MOF--net-gar--node1-AZAVOO_clean_sbu_0--node2-INOVEN_clean_sbu_0--edge1-TEMPAE_clean_linker_10
_symmetry_space_group_name_H-M    P1
_symmetry_Int_Tables_number       1
_symmetry_cell_setting            triclinic
loop_
_symmetry_equiv_pos_as_xyz
'x, y, z'
_cell_length_a     64.099702
_cell_length_b     56.931768
_cell_length_c     58.058032
_cell_angle_alpha  102.24697
_cell_angle_beta   94.991713
_cell_angle_gamma 104.78952
loop_
_atom_site_label
_atom_site_type_symbol
_atom_site_fract_x
_atom_site_fract_y
_atom_site_fract_z
_atom_type_partial_charge
Mg0 Mg 0.10421 0.32155 0.37132 0.0
O1 O 0.11709 0.3628 0.39437 0.0
O2 O 0.08396 0.34437 0.39548 0.0
Mg3 Mg 0.05014 0.32498 0.39758 0.0
C4 C 0.09987 0.36362 0.40311 0.0
C5 C 0.14512 0.33461 0.35203 0.0
O6 O 0.13465 0.35035 0.34693 0.0
O7 O 0.10296 0.30405 0.40347 0.0
O8 O 0.06878 0.30156 0.41256 0.0
O9 O 0.08896 0.33114 0.339 0.0
O10 O 0.07227 0.32334 0.36941 0.0
C11 C 0.08709 0.29649 0.41465 0.0
C12 C 0.07119 0.32673 0.34831 0.0
O13 O 0.13753 0.32053 0.36531 0.0
Mg14 Mg 0.99438 0.76115 0.66522 0.0
O15 O 0.99632 0.72533 0.64137 0.0
O16 O 0.96698 0.70945 0.61337 0.0
Mg17 Mg 0.94706 0.7379 0.61951 0.0
C18 C 0.98509 0.7085 0.62352 0.0
C19 C 0.03335 0.75061 0.68739 0.0
O20 O 0.01841 0.7293 0.6852 0.0
O21 O 0.00473 0.78041 0.63742 0.0
O22 O 0.97458 0.76831 0.61029 0.0
O23 O 0.97669 0.74083 0.68814 0.0
O24 O 0.9613 0.75139 0.65755 0.0
C25 C 0.99443 0.78109 0.61805 0.0
C26 C 0.9592 0.74131 0.67547 0.0
O27 O 0.02837 0.76845 0.68071 0.0
Mg28 Mg 0.60276 0.80758 0.87205 0.0
O29 O 0.60231 0.84745 0.89266 0.0
O30 O 0.56706 0.84515 0.89398 0.0
Mg31 Mg 0.55525 0.80705 0.90086 0.0
C32 C 0.58702 0.85778 0.89687 0.0
C33 C 0.64239 0.83596 0.85413 0.0
O34 O 0.62709 0.84421 0.84483 0.0
O35 O 0.61214 0.79621 0.90604 0.0
O36 O 0.58955 0.81604 0.91975 0.0
O37 O 0.58419 0.81171 0.84004 0.0
O38 O 0.56823 0.79502 0.86755 0.0
C39 C 0.59958 0.79986 0.92126 0.0
C40 C 0.56654 0.80287 0.84837 0.0
O41 O 0.63772 0.82181 0.8682 0.0
Mg42 Mg 0.49618 0.25808 0.16184 0.0
O43 O 0.49698 0.22224 0.13746 0.0
O44 O 0.46741 0.20846 0.11004 0.0
Mg45 Mg 0.44737 0.23654 0.11953 0.0
C46 C 0.48547 0.20633 0.11915 0.0
C47 C 0.53556 0.26831 0.19653 0.0
O48 O 0.52019 0.2683 0.21008 0.0
O49 O 0.50473 0.2783 0.13425 0.0
O50 O 0.47329 0.26818 0.10958 0.0
O51 O 0.48055 0.23696 0.18522 0.0
O52 O 0.46256 0.24934 0.15771 0.0
C53 C 0.49341 0.2804 0.11623 0.0
C54 C 0.46231 0.23886 0.17545 0.0
O55 O 0.53089 0.26491 0.17426 0.0
Mg56 Mg 0.09114 0.82157 0.13164 0.0
O57 O 0.08598 0.7856 0.10193 0.0
O58 O 0.05282 0.7765 0.08093 0.0
Mg59 Mg 0.03471 0.80427 0.09619 0.0
C60 C 0.071 0.77175 0.08493 0.0
C61 C 0.13375 0.81657 0.16294 0.0
O62 O 0.11802 0.81239 0.1759 0.0
O63 O 0.09406 0.84858 0.10383 0.0
O64 O 0.05873 0.83641 0.0881 0.0
O65 O 0.07267 0.79921 0.15627 0.0
O66 O 0.05597 0.81336 0.13037 0.0
C67 C 0.07789 0.85089 0.09027 0.0
C68 C 0.05452 0.80115 0.14654 0.0
O69 O 0.12908 0.8221 0.14304 0.0
Mg70 Mg 0.51027 0.75542 0.40233 0.0
O71 O 0.51631 0.79284 0.43028 0.0
O72 O 0.48783 0.78813 0.4502 0.0
Mg73 Mg 0.46311 0.74958 0.43417 0.0
C74 C 0.50606 0.80131 0.44658 0.0
C75 C 0.55844 0.78638 0.39606 0.0
O76 O 0.5505 0.80568 0.40096 0.0
O77 O 0.51798 0.73537 0.4315 0.0
O78 O 0.4867 0.72805 0.44656 0.0
O79 O 0.49253 0.76924 0.37491 0.0
O80 O 0.47588 0.75021 0.40017 0.0
C81 C 0.50575 0.7252 0.44504 0.0
C82 C 0.47464 0.76146 0.38322 0.0
O83 O 0.54638 0.7647 0.39583 0.0
Mg84 Mg 0.58992 0.32439 0.63412 0.0
O85 O 0.58365 0.28719 0.60559 0.0
O86 O 0.55006 0.27801 0.58556 0.0
Mg87 Mg 0.5337 0.30829 0.59903 0.0
C88 C 0.56799 0.27271 0.58963 0.0
C89 C 0.6302 0.31142 0.66112 0.0
O90 O 0.61281 0.30021 0.66919 0.0
O91 O 0.59371 0.34994 0.60529 0.0
O92 O 0.55873 0.33793 0.5881 0.0
O93 O 0.57051 0.30283 0.65862 0.0
O94 O 0.55537 0.3186 0.63288 0.0
C95 C 0.57826 0.35158 0.59025 0.0
C96 C 0.55299 0.30604 0.64871 0.0
O97 O 0.62733 0.32391 0.64558 0.0
Mg98 Mg 0.01136 0.25698 0.90001 0.0
O99 O 0.01648 0.29296 0.9288 0.0
O100 O 0.98772 0.28803 0.94819 0.0
Mg101 Mg 0.96393 0.24913 0.93085 0.0
C102 C 0.00603 0.30129 0.94485 0.0
C103 C 0.0552 0.2861 0.88588 0.0
O104 O 0.04159 0.29697 0.87725 0.0
O105 O 0.01868 0.23502 0.92742 0.0
O106 O 0.98767 0.22741 0.94291 0.0
O107 O 0.99482 0.27369 0.87475 0.0
O108 O 0.97666 0.25093 0.89661 0.0
C109 C 0.00669 0.22466 0.94098 0.0
C110 C 0.97641 0.26484 0.88167 0.0
O111 O 0.04789 0.26895 0.89645 0.0
Mg112 Mg 0.45812 0.05367 0.29557 0.0
O113 O 0.43231 0.01628 0.27831 0.0
O114 O 0.41254 0.01244 0.30824 0.0
Mg115 Mg 0.42539 0.04243 0.34239 0.0
C116 C 0.41598 1.00502 0.28691 0.0
C117 C 0.4795 0.04752 0.25151 0.0
O118 O 0.49647 0.05798 0.2424 0.0
O119 O 0.43176 0.07102 0.29085 0.0
O120 O 0.41245 0.06636 0.32076 0.0
O121 O 0.48066 0.0342 0.30709 0.0
O122 O 0.45555 0.0456 0.32738 0.0
C123 C 0.41611 0.07395 0.30197 0.0
C124 C 0.47009 0.03361 0.32508 0.0
O125 O 0.46936 0.06165 0.2624 0.0
Mg126 Mg 0.28665 0.18162 0.49415 0.0
O127 O 0.29197 0.21129 0.5295 0.0
O128 O 0.32611 0.23596 0.53605 0.0
Mg129 Mg 0.34346 0.2228 0.50459 0.0
C130 C 0.30737 0.22943 0.54251 0.0
C131 C 0.23766 0.146 0.48811 0.0
O132 O 0.24708 0.13078 0.4755 0.0
O133 O 0.28557 0.20994 0.46963 0.0
O134 O 0.32125 0.23022 0.4754 0.0
O135 O 0.30127 0.15744 0.51367 0.0
O136 O 0.3208 0.18497 0.49696 0.0
C137 C 0.3019 0.22555 0.46454 0.0
C138 C 0.32014 0.16855 0.5091 0.0
O139 O 0.24889 0.16873 0.49717 0.0
Mg140 Mg 0.16027 1.00519 0.77244 0.0
O141 O 0.18499 0.04661 0.77487 0.0
O142 O 0.20911 0.05568 0.80734 0.0
Mg143 Mg 0.19895 0.02204 0.82645 0.0
C144 C 0.20179 0.06198 0.789 0.0
C145 C 0.12976 0.01223 0.72526 0.0
O146 O 0.11944 0.01914 0.74295 0.0
O147 O 0.18536 0.97664 0.7657 0.0
O148 O 0.2072 0.98771 0.80056 0.0
O149 O 0.13663 0.0214 0.7966 0.0
O150 O 0.16217 0.00937 0.8129 0.0
C151 C 0.20077 0.97298 0.77966 0.0
C152 C 0.14552 0.01808 0.81599 0.0
O153 O 0.14663 1.00466 0.73043 0.0
Mg154 Mg 0.31636 0.93835 0.02065 0.0
O155 O 0.31992 0.9154 0.98402 0.0
O156 O 0.35201 0.90624 0.98731 0.0
Mg157 Mg 0.35739 0.90616 0.02594 0.0
C158 C 0.33482 0.90688 0.97482 0.0
C159 C 0.2874 0.96552 0.02403 0.0
O160 O 0.30502 0.97519 0.04007 0.0
O161 O 0.29752 0.90428 0.03233 0.0
O162 O 0.32106 0.8879 0.01639 0.0
O163 O 0.34068 0.9705 0.01545 0.0
O164 O 0.34873 0.94206 0.0329 0.0
C165 C 0.30876 0.88897 0.03215 0.0
C166 C 0.35515 0.96181 0.02496 0.0
O167 O 0.28597 0.94598 0.00794 0.0
Mg168 Mg 0.31779 0.39614 0.04308 0.0
O169 O 0.31225 0.36659 0.00721 0.0
O170 O 0.33952 0.34902 0.00826 0.0
Mg171 Mg 0.3628 0.36735 0.04391 0.0
C172 C 0.32223 0.3513 0.99733 0.0
C173 C 0.2791 0.41125 0.01868 0.0
O174 O 0.29538 0.41986 0.00769 0.0
O175 O 0.30779 0.36717 0.06687 0.0
O176 O 0.33834 0.35516 0.06896 0.0
O177 O 0.33933 0.42432 0.02627 0.0
O178 O 0.35236 0.40172 0.04687 0.0
C179 C 0.31997 0.35555 0.07579 0.0
C180 C 0.35603 0.41816 0.03449 0.0
O181 O 0.28249 0.39965 0.03457 0.0
Mg182 Mg 0.77068 0.11899 0.02206 0.0
O183 O 0.78062 0.14644 0.05827 0.0
O184 O 0.81324 0.17285 0.05852 0.0
Mg185 Mg 0.82638 0.16045 0.02415 0.0
C186 C 0.79641 0.16569 0.06825 0.0
C187 C 0.74071 0.08771 0.97613 0.0
O188 O 0.73437 0.07499 0.95385 0.0
O189 O 0.76515 0.15027 0.00577 0.0
O190 O 0.79963 0.17094 0.00429 0.0
O191 O 0.79016 0.09229 0.03176 0.0
O192 O 0.80302 0.12383 0.01687 0.0
C193 C 0.77907 0.16701 0.99915 0.0
C194 C 0.80591 0.10492 0.02327 0.0
O195 O 0.76058 0.09318 0.98513 0.0
Mg196 Mg 0.15093 0.52886 0.24468 0.0
O197 O 0.1742 0.56598 0.24556 0.0
O198 O 0.19158 0.58308 0.28295 0.0
Mg199 Mg 0.1786 0.55738 0.3062 0.0
C200 C 0.18765 0.58361 0.26124 0.0
C201 C 0.12889 0.51895 0.19684 0.0
O202 O 0.11373 0.51524 0.21055 0.0
O203 O 0.1791 0.51279 0.24699 0.0
O204 O 0.19489 0.53168 0.28463 0.0
O205 O 0.12611 0.54936 0.25261 0.0
O206 O 0.14884 0.54252 0.27991 0.0
C207 C 0.19435 0.51761 0.26429 0.0
C208 C 0.13503 0.55416 0.27452 0.0
O209 O 0.14832 0.52107 0.20511 0.0
Mg210 Mg 0.81683 0.8975 0.54088 0.0
O211 O 0.81286 0.86828 0.50555 0.0
O212 O 0.83925 0.84957 0.50744 0.0
Mg213 Mg 0.86185 0.86892 0.54354 0.0
C214 C 0.82246 0.85244 0.49609 0.0
C215 C 0.77415 0.9165 0.53916 0.0
O216 O 0.78571 0.93269 0.55848 0.0
O217 O 0.80609 0.86852 0.56449 0.0
O218 O 0.83697 0.8574 0.56846 0.0
O219 O 0.83857 0.92657 0.52557 0.0
O220 O 0.85146 0.90343 0.54562 0.0
C221 C 0.81829 0.85763 0.57449 0.0
C222 C 0.85529 0.92043 0.53381 0.0
O223 O 0.7818 0.89925 0.52869 0.0
Mg224 Mg 0.94156 0.06888 0.26389 0.0
O225 O 0.91562 0.0269 0.25959 0.0
O226 O 0.89726 0.03017 0.29073 0.0
Mg227 Mg 0.91186 0.06986 0.31691 0.0
C228 C 0.90112 0.01691 0.27167 0.0
C229 C 0.97011 0.06597 0.21387 0.0
O230 O 0.98735 0.07439 0.23041 0.0
O231 O 0.91595 0.09671 0.2615 0.0
O232 O 0.90091 0.09635 0.29465 0.0
O233 O 0.96832 0.05795 0.28716 0.0
O234 O 0.94386 0.0723 0.30358 0.0
C235 C 0.90345 0.10493 0.27604 0.0
C236 C 0.96042 0.06372 0.30655 0.0
O237 O 0.95091 0.06217 0.2209 0.0
Mg238 Mg 0.27014 0.61477 0.5243 0.0
O239 O 0.27993 0.64429 0.55945 0.0
O240 O 0.3093 0.67368 0.55583 0.0
Mg241 Mg 0.32017 0.662 0.51983 0.0
C242 C 0.29441 0.66523 0.5676 0.0
C243 C 0.2407 0.58099 0.47797 0.0
O244 O 0.23539 0.56698 0.45607 0.0
O245 O 0.25792 0.64173 0.50714 0.0
O246 O 0.28919 0.66751 0.50214 0.0
O247 O 0.2937 0.59335 0.53488 0.0
O248 O 0.30191 0.62307 0.51629 0.0
C249 C 0.26839 0.65997 0.49945 0.0
C250 C 0.30763 0.60642 0.52462 0.0
O251 O 0.26018 0.58662 0.48835 0.0
Mg252 Mg 0.44186 0.56894 0.76356 0.0
O253 O 0.41597 0.52707 0.75926 0.0
O254 O 0.3979 0.53077 0.79061 0.0
Mg255 Mg 0.41261 0.57022 0.81687 0.0
C256 C 0.40152 0.51735 0.77152 0.0
C257 C 0.47144 0.57054 0.71608 0.0
O258 O 0.48666 0.58376 0.73411 0.0
O259 O 0.41578 0.59587 0.76043 0.0
O260 O 0.40162 0.59609 0.79417 0.0
O261 O 0.46869 0.55805 0.78655 0.0
O262 O 0.44418 0.57243 0.80302 0.0
C263 C 0.40359 0.60423 0.77526 0.0
C264 C 0.46074 0.56386 0.80591 0.0
O265 O 0.4519 0.56215 0.72119 0.0
Mg266 Mg 0.65234 0.02451 0.74127 0.0
O267 O 0.67518 0.06313 0.75396 0.0
O268 O 0.68385 0.07626 0.79358 0.0
Mg269 Mg 0.67084 0.04053 0.80556 0.0
C270 C 0.6848 0.07982 0.77271 0.0
C271 C 0.63486 0.02363 0.69453 0.0
O272 O 0.61916 0.01337 0.70545 0.0
O273 O 0.68199 0.01107 0.74264 0.0
O274 O 0.69319 0.02541 0.78199 0.0
O275 O 0.62567 0.04105 0.75099 0.0
O276 O 0.64483 0.02589 0.77499 0.0
C277 C 0.69618 0.01588 0.76102 0.0
C278 C 0.631 0.03816 0.77197 0.0
O279 O 0.65443 0.0288 0.70417 0.0
Mg280 Mg 0.78573 0.67909 0.99103 0.0
O281 O 0.78944 0.70779 0.02713 0.0
O282 O 0.82356 0.73282 0.03459 0.0
Mg283 Mg 0.84266 0.72026 0.00471 0.0
C284 C 0.8046 0.72603 0.04052 0.0
C285 C 0.74062 0.64983 1.00271 0.0
O286 O 0.75527 0.64391 0.01585 0.0
O287 O 0.78584 0.70834 0.96751 0.0
O288 O 0.82168 0.72777 0.97443 0.0
O289 O 0.79858 0.6532 0.00974 0.0
O290 O 0.81991 0.68269 0.99675 0.0
C291 C 0.80268 0.72348 0.96282 0.0
C292 C 0.81808 0.66512 0.0077 0.0
O293 O 0.74741 0.66511 0.98986 0.0
Mg294 Mg 0.95922 0.55781 0.80159 0.0
O295 O 0.93655 0.51775 0.79066 0.0
O296 O 0.91641 0.51099 0.81944 0.0
Mg297 Mg 0.92159 0.54854 0.84487 0.0
C298 C 0.9228 0.50346 0.79974 0.0
C299 C 0.97037 0.52874 0.7591 0.0
O300 O 0.97501 0.51782 0.77588 0.0
O301 O 0.93198 0.57055 0.78916 0.0
O302 O 0.90771 0.56219 0.81388 0.0
O303 O 0.98187 0.54462 0.82109 0.0
O304 O 0.95512 0.55838 0.83636 0.0
C305 C 0.91342 0.5696 0.79549 0.0
C306 C 0.96922 0.54581 0.83726 0.0
O307 O 0.96724 0.55021 0.76483 0.0
Mg308 Mg 0.82269 0.45 0.51472 0.0
O309 O 0.82011 0.4204 0.48068 0.0
O310 O 0.85157 0.41005 0.4834 0.0
Mg311 Mg 0.87339 0.4318 0.51759 0.0
C312 C 0.83289 0.40795 0.47237 0.0
C313 C 0.7882 0.46778 0.52477 0.0
O314 O 0.80651 0.48073 0.53893 0.0
O315 O 0.81552 0.4205 0.53531 0.0
O316 O 0.8482 0.4132 0.53751 0.0
O317 O 0.83881 0.48014 0.49805 0.0
O318 O 0.85531 0.45939 0.51866 0.0
C319 C 0.82887 0.40959 0.54257 0.0
C320 C 0.85639 0.47534 0.5059 0.0
O321 O 0.78817 0.44903 0.50846 0.0
Mg322 Mg 0.65915 0.50489 0.27176 0.0
O323 O 0.68326 0.54649 0.27358 0.0
O324 O 0.71 0.5552 0.30357 0.0
Mg325 Mg 0.69985 0.52275 0.32421 0.0
C326 C 0.70121 0.56137 0.28595 0.0
C327 C 0.62712 0.51016 0.22458 0.0
O328 O 0.61605 0.51552 0.24202 0.0
O329 O 0.68416 0.47631 0.26439 0.0
O330 O 0.70747 0.48816 0.29827 0.0
O331 O 0.63532 0.51946 0.29687 0.0
O332 O 0.66254 0.50963 0.31243 0.0
C333 C 0.70021 0.47301 0.27769 0.0
C334 C 0.64535 0.51717 0.31611 0.0
O335 O 0.64478 0.50411 0.22994 0.0
Gd336 Gd 0.02977 0.02556 0.99705 0.0
Gd337 Gd 0.07102 0.05425 0.02531 0.0
C338 C 0.04487 0.0856 0.00366 0.0
C339 C 0.98816 0.0096 0.98171 0.0
C340 C 0.97006 0.0212 0.98373 0.0
C341 C 0.9543 0.01678 0.96377 0.0
C342 C 0.96918 0.03808 0.00485 0.0
C343 C 0.93625 0.04483 0.98647 0.0
C344 C 0.95237 0.0496 0.00628 0.0
C345 C 0.93761 0.02855 0.96507 0.0
C346 C 0.05944 0.0256 0.96418 0.0
C347 C 0.05654 0.99369 0.01955 0.0
C348 C 0.1122 0.07003 0.04059 0.0
C349 C 0.12824 0.05623 0.04268 0.0
C350 C 0.1448 0.06499 0.06227 0.0
C351 C 0.12641 0.03361 0.02607 0.0
C352 C 0.15903 0.0301 0.04755 0.0
C353 C 0.14179 0.02057 0.02853 0.0
C354 C 0.16009 0.05192 0.06478 0.0
C355 C 0.0386 0.05473 0.05427 0.0
O356 O 0.02825 0.06584 1.00199 0.0
O357 O 0.06473 0.08493 0.00997 0.0
O358 O 1.00262 0.01895 0.96924 0.0
O359 O 0.99704 1.00538 1.00103 0.0
O360 O 0.03918 0.01265 0.96015 0.0
O361 O 0.06366 0.03607 0.98655 0.0
O362 O 0.07182 0.01527 0.02702 0.0
O363 O 0.03774 0.99214 0.00708 0.0
O364 O 0.09758 0.06708 0.05477 0.0
O365 O 0.10399 0.06896 0.0189 0.0
O366 O 0.05558 0.07333 0.05492 0.0
O367 O 0.03946 0.03619 0.03749 0.0
H368 H 0.955 1.00433 0.94709 0.0
H369 H 0.9815 0.04237 0.02026 0.0
H370 H 0.95178 0.06183 0.02311 0.0
H371 H 0.92578 0.02487 0.94931 0.0
H372 H 0.14607 0.08212 0.07542 0.0
H373 H 0.11341 0.0263 0.01101 0.0
H374 H 0.14087 1.00387 0.01494 0.0
H375 H 0.17329 0.05939 0.07964 0.0
Gd376 Gd 0.32154 0.78278 0.24422 0.0
Gd377 Gd 0.29693 0.79433 0.28896 0.0
C378 C 0.32355 0.83906 0.27018 0.0
C379 C 0.33761 0.7797 0.20521 0.0
C380 C 0.34188 0.797 0.18988 0.0
C381 C 0.36327 0.8057 0.18529 0.0
C382 C 0.32603 0.80841 0.18373 0.0
C383 C 0.35302 0.83751 0.16882 0.0
C384 C 0.33147 0.82823 0.173 0.0
C385 C 0.36887 0.82597 0.17497 0.0
C386 C 0.3461 0.78187 0.28523 0.0
C387 C 0.29087 0.73799 0.25807 0.0
C388 C 0.28405 0.7968 0.32993 0.0
C389 C 0.27739 0.77846 0.34399 0.0
C390 C 0.26158 0.78105 0.35879 0.0
C391 C 0.28524 0.75733 0.3413 0.0
C392 C 0.26322 0.74295 0.37023 0.0
C393 C 0.27825 0.73971 0.35444 0.0
C394 C 0.2545 0.76337 0.37184 0.0
C395 C 0.27126 0.79557 0.24897 0.0
O396 O 0.32315 0.82293 0.25008 0.0
O397 O 0.31746 0.8326 0.28965 0.0
O398 O 0.34948 0.78886 0.22623 0.0
O399 O 0.31713 0.76834 0.2059 0.0
O400 O 0.35159 0.77771 0.26431 0.0
O401 O 0.32761 0.78582 0.28288 0.0
O402 O 0.29078 0.7527 0.27896 0.0
O403 O 0.29969 0.74557 0.24048 0.0
O404 O 0.27088 0.79241 0.31011 0.0
O405 O 0.30476 0.8035 0.3275 0.0
O406 O 0.26696 0.8004 0.27048 0.0
O407 O 0.28983 0.79104 0.2498 0.0
H408 H 0.37582 0.79744 0.19058 0.0
H409 H 0.30956 0.80243 0.18766 0.0
H410 H 0.31859 0.83603 0.16775 0.0
H411 H 0.38556 0.83269 0.172 0.0
H412 H 0.25492 0.79691 0.36046 0.0
H413 H 0.29693 0.75463 0.3293 0.0
H414 H 0.28499 0.7239 0.35277 0.0
H415 H 0.24297 0.76628 0.38398 0.0
Gd416 Gd 0.57312 0.04161 0.51397 0.0
Gd417 Gd 0.52367 0.03772 0.51735 0.0
C418 C 0.5376 0.98715 0.50845 0.0
C419 C 0.61205 0.03612 0.51717 0.0
C420 C 0.62331 0.01638 0.51037 0.0
C421 C 0.6369 0.01785 0.49267 0.0
C422 C 0.62219 0.99727 0.52255 0.0
C423 C 0.64964 0.98327 0.5011 0.0
C424 C 0.63514 0.98082 0.51786 0.0
C425 C 0.64994 1.00154 0.48812 0.0
C426 C 0.54703 0.03627 0.47376 0.0
C427 C 0.5602 0.09253 0.52433 0.0
C428 C 0.48476 0.04308 0.51169 0.0
C429 C 0.47308 0.06263 0.51782 0.0
C430 C 0.46225 0.06426 0.53792 0.0
C431 C 0.47098 0.07837 0.50257 0.0
C432 C 0.44628 0.09555 0.52645 0.0
C433 C 0.45782 0.09464 0.50686 0.0
C434 C 0.44912 0.08054 0.54223 0.0
C435 C 0.54919 0.04262 0.55776 0.0
O436 O 0.55803 1.00129 0.51542 0.0
O437 O 0.52131 0.99681 0.50411 0.0
O438 O 0.60356 0.04381 0.49981 0.0
O439 O 0.60002 0.03471 0.53428 0.0
O440 O 0.56724 0.0496 0.47778 0.0
O441 O 0.54233 0.02555 0.48994 0.0
O442 O 0.53947 0.07887 0.51906 0.0
O443 O 0.57654 0.08256 0.52673 0.0
O444 O 0.49208 0.03454 0.52911 0.0
O445 O 0.49804 0.04542 0.49579 0.0
O446 O 0.52885 0.02942 0.55339 0.0
O447 O 0.55426 0.05335 0.54159 0.0
H448 H 0.63811 0.03229 0.48293 0.0
H449 H 0.61192 0.99555 0.53631 0.0
H450 H 0.63472 0.96707 0.5283 0.0
H451 H 0.66085 1.00376 0.475 0.0
H452 H 0.4634 0.05241 0.55004 0.0
H453 H 0.47892 0.07756 0.48682 0.0
H454 H 0.4559 0.10564 0.49414 0.0
H455 H 0.4408 0.08097 0.5577 0.0
Gd456 Gd 0.28059 0.2942 0.76704 0.0
Gd457 Gd 0.32485 0.27885 0.76848 0.0
C458 C 0.30821 0.29759 0.81803 0.0
C459 C 0.2413 0.29693 0.77083 0.0
C460 C 0.22675 0.29776 0.78927 0.0
C461 C 0.21972 0.31932 0.79629 0.0
C462 C 0.21941 0.27756 0.79965 0.0
C463 C 0.19683 0.29974 0.82215 0.0
C464 C 0.20452 0.27852 0.81587 0.0
C465 C 0.20502 0.32037 0.81265 0.0
C466 C 0.31503 0.33539 0.76636 0.0
C467 C 0.29624 0.27426 0.71727 0.0
C468 C 0.36513 0.27969 0.76468 0.0
C469 C 0.37972 0.27796 0.74612 0.0
C470 C 0.38616 0.25596 0.73889 0.0
C471 C 0.38887 0.29866 0.737 0.0
C472 C 0.41202 0.27621 0.7158 0.0
C473 C 0.40484 0.29779 0.72206 0.0
C474 C 0.40201 0.25504 0.72379 0.0
C475 C 0.29125 0.23711 0.76983 0.0
O476 O 0.28926 0.29576 0.80579 0.0
O477 O 0.32538 0.2945 0.80782 0.0
O478 O 0.25823 0.31645 0.77446 0.0
O479 O 0.2457 0.27581 0.76205 0.0
O480 O 0.29475 0.33507 0.76541 0.0
O481 O 0.3155 0.3133 0.76724 0.0
O482 O 0.31444 0.27328 0.72918 0.0
O483 O 0.28017 0.2805 0.72764 0.0
O484 O 0.34983 0.2594 0.76434 0.0
O485 O 0.35867 0.29995 0.77027 0.0
O486 O 0.31179 0.23845 0.77043 0.0
O487 O 0.28959 0.25897 0.76883 0.0
H488 H 0.22521 0.3352 0.78864 0.0
H489 H 0.22477 0.26083 0.79488 0.0
H490 H 0.19859 0.26244 0.82312 0.0
H491 H 0.19925 0.33686 0.81696 0.0
H492 H 0.37951 0.23971 0.74566 0.0
H493 H 0.38428 0.31587 0.74203 0.0
H494 H 0.4121 0.31431 0.71595 0.0
H495 H 0.40728 0.23821 0.7194 0.0
Gd496 Gd 0.04293 0.06197 0.52827 0.0
Gd497 Gd 0.04774 0.01166 0.50394 0.0
C498 C 0.02932 0.041 0.46847 0.0
C499 C 0.04221 0.10783 0.53894 0.0
C500 C 0.04283 0.12459 0.5231 0.0
C501 C 0.03485 0.14546 0.52878 0.0
C502 C 0.05086 0.11904 0.50151 0.0
C503 C 0.04505 0.15649 0.49235 0.0
C504 C 0.05157 0.13458 0.48604 0.0
C505 C 0.03608 0.16151 0.5135 0.0
C506 C 0.00998 0.02259 0.53092 0.0
C507 C 0.06466 0.03367 0.56207 0.0
C508 C 0.04021 0.96401 0.49498 0.0
C509 C 0.04453 0.94852 0.51113 0.0
C510 C 0.05668 0.93157 0.50464 0.0
C511 C 0.03704 0.95098 0.53339 0.0
C512 C 0.05148 0.91755 0.54093 0.0
C513 C 0.04052 0.93559 0.54818 0.0
C514 C 0.0601 0.91612 0.51943 0.0
C515 C 0.08671 0.04665 0.50618 0.0
O516 O 0.03284 0.05951 0.48813 0.0
O517 O 0.03353 0.01959 0.46985 0.0
O518 O 0.02451 0.0891 0.53446 0.0
O519 O 0.0601 0.1011 0.54233 0.0
O520 O 0.0188 0.04193 0.54857 0.0
O521 O 0.01925 0.02514 0.51284 0.0
O522 O 0.05703 0.01378 0.54377 0.0
O523 O 0.06331 0.05597 0.55973 0.0
O524 O 0.05739 0.97833 0.4892 0.0
O525 O 0.02512 0.97524 0.49979 0.0
O526 O 0.08283 0.02294 0.49663 0.0
O527 O 0.06964 0.05036 0.5137 0.0
H528 H 0.02827 0.14967 0.54525 0.0
H529 H 0.05717 0.10304 0.49683 0.0
H530 H 0.05815 0.13005 0.46961 0.0
H531 H 0.03105 0.1784 0.51878 0.0
H532 H 0.063 0.9298 0.48784 0.0
H533 H 0.02796 0.96427 0.53913 0.0
H534 H 0.03347 0.93674 0.56456 0.0
H535 H 0.06859 0.90224 0.5136 0.0
Gd536 Gd 0.3211 0.80586 0.77032 0.0
Gd537 Gd 0.28044 0.76597 0.76803 0.0
C538 C 0.32462 0.74763 0.77226 0.0
C539 C 0.35987 0.83529 0.78306 0.0
C540 C 0.3811 0.83007 0.7861 0.0
C541 C 0.39571 0.83501 0.76992 0.0
C542 C 0.38659 0.8191 0.80449 0.0
C543 C 0.42109 0.81887 0.79081 0.0
C544 C 0.40642 0.81347 0.80674 0.0
C545 C 0.41564 0.82951 0.77231 0.0
C546 C 0.30251 0.77856 0.72638 0.0
C547 C 0.27705 0.82482 0.76703 0.0
C548 C 0.24284 0.73438 0.75419 0.0
C549 C 0.22126 0.73797 0.75075 0.0
C550 C 0.21444 0.75405 0.76851 0.0
C551 C 0.20889 0.72846 0.72805 0.0
C552 C 0.18367 0.75205 0.74035 0.0
C553 C 0.19022 0.73552 0.72283 0.0
C554 C 0.19562 0.76095 0.76334 0.0
C555 C 0.29876 0.79233 0.81204 0.0
O556 O 0.33478 0.77229 0.77664 0.0
O557 O 0.30302 0.74025 0.76658 0.0
O558 O 0.34981 0.82939 0.7611 0.0
O559 O 0.34684 0.82921 0.79835 0.0
O560 O 0.31124 0.80263 0.73099 0.0
O561 O 0.30487 0.77073 0.74473 0.0
O562 O 0.26676 0.80009 0.76275 0.0
O563 O 0.29874 0.83211 0.77232 0.0
O564 O 0.25267 0.74018 0.77624 0.0
O565 O 0.25545 0.74266 0.73936 0.0
O566 O 0.28941 0.76838 0.80713 0.0
O567 O 0.2968 0.80073 0.79396 0.0
H568 H 0.39173 0.84318 0.75546 0.0
H569 H 0.37565 0.8149 0.8172 0.0
H570 H 0.41058 0.80554 0.82132 0.0
H571 H 0.42689 0.83374 0.75988 0.0
H572 H 0.22399 0.76199 0.78607 0.0
H573 H 0.21416 0.71634 0.7141 0.0
H574 H 0.18091 0.72808 0.7051 0.0
H575 H 0.19069 0.77365 0.77706 0.0
Gd576 Gd 0.56191 0.03485 0.04735 0.0
Gd577 Gd 0.55277 0.03918 0.99377 0.0
C578 C 0.51264 0.01711 0.01639 0.0
C579 C 0.55608 0.0245 0.08748 0.0
C580 C 0.53625 0.01082 0.09519 0.0
C581 C 0.53601 0.98884 0.10262 0.0
C582 C 0.51723 0.01866 0.09419 0.0
C583 C 0.49979 0.98602 0.11289 0.0
C584 C 0.49893 0.00598 0.10247 0.0
C585 C 0.51785 0.97647 0.11142 0.0
C586 C 0.57212 1.0023 0.01297 0.0
C587 C 0.60027 0.0666 0.02812 0.0
C588 C 0.55712 0.03408 0.95001 0.0
C589 C 0.57171 0.05151 0.93922 0.0
C590 C 0.5704 0.07616 0.94143 0.0
C591 C 0.58886 0.04435 0.92911 0.0
C592 C 0.60219 0.08554 0.92167 0.0
C593 C 0.60407 0.06126 0.92056 0.0
C594 C 0.58549 0.09301 0.93259 0.0
C595 C 0.54821 0.07959 0.02485 0.0
O596 O 0.52563 0.02466 0.03712 0.0
O597 O 0.51982 0.01657 0.99579 0.0
O598 O 0.56334 0.01063 0.07095 0.0
O599 O 0.55694 0.04681 0.08398 0.0
O600 O 0.58415 0.0124 0.03357 0.0
O601 O 0.55514 0.00951 0.0116 0.0
O602 O 0.5886 0.05649 0.00663 0.0
O603 O 0.59251 0.06445 0.04819 0.0
O604 O 0.54072 0.04112 0.95847 0.0
O605 O 0.56734 0.02414 0.96417 0.0
O606 O 0.54543 0.07696 1.00192 0.0
O607 O 0.55386 0.06128 0.02906 0.0
H608 H 0.55033 0.98204 0.10284 0.0
H609 H 0.51688 0.03537 0.08831 0.0
H610 H 0.48527 0.0139 0.10382 0.0
H611 H 0.51899 0.96133 0.11961 0.0
H612 H 0.55764 0.0824 0.94976 0.0
H613 H 0.59044 0.02561 0.92772 0.0
H614 H 0.61648 0.05475 0.91173 0.0
H615 H 0.5836 0.11152 0.93334 0.0
Gd616 Gd 0.3209 0.31984 0.28377 0.0
Gd617 Gd 0.29843 0.26509 0.26155 0.0
C618 C 0.26788 0.29892 0.27242 0.0
C619 C 0.33135 0.36774 0.29951 0.0
C620 C 0.31786 0.38466 0.29895 0.0
C621 C 0.32332 0.40806 0.31521 0.0
C622 C 0.29843 0.3765 0.28287 0.0
C623 C 0.29083 0.41579 0.29757 0.0
C624 C 0.28465 0.39153 0.28277 0.0
C625 C 0.30992 0.42381 0.31435 0.0
C626 C 0.31793 0.29002 0.31475 0.0
C627 C 0.35061 0.28717 0.26587 0.0
C628 C 0.28878 0.21781 0.25713 0.0
C629 C 0.30249 0.20105 0.25079 0.0
C630 C 0.296 0.18151 0.23006 0.0
C631 C 0.32257 0.20495 0.26504 0.0
C632 C 0.32809 0.16837 0.23948 0.0
C633 C 0.33526 0.18872 0.25938 0.0
C634 C 0.3087 0.16508 0.22451 0.0
C635 C 0.30394 0.2879 0.22471 0.0
O636 O 0.28561 0.31783 0.2758 0.0
O637 O 0.26824 0.27548 0.26797 0.0
O638 O 0.32545 0.35222 0.3129 0.0
O639 O 0.3352 0.35683 0.27873 0.0
O640 O 0.33546 0.30712 0.31397 0.0
O641 O 0.30312 0.28879 0.29824 0.0
O642 O 0.33412 0.2682 0.26669 0.0
O643 O 0.34894 0.31007 0.26899 0.0
O644 O 0.28237 0.22747 0.2402 0.0
O645 O 0.2952 0.23397 0.27782 0.0
O646 O 0.29503 0.26427 0.22231 0.0
O647 O 0.30976 0.29846 0.24671 0.0
H648 H 0.33813 0.41434 0.32802 0.0
H649 H 0.29416 0.35885 0.26978 0.0
H650 H 0.26972 0.38474 0.27007 0.0
H651 H 0.31492 0.44251 0.32595 0.0
H652 H 0.28081 0.1785 0.21861 0.0
H653 H 0.32825 0.22007 0.28099 0.0
H654 H 0.3499 0.19102 0.27149 0.0
H655 H 0.30288 0.14913 0.2093 0.0
Gd656 Gd 0.54345 0.55991 0.02567 0.0
Gd657 Gd 0.54861 0.51286 1.00281 0.0
C658 C 0.52939 0.54022 0.96677 0.0
C659 C 0.54331 0.60608 0.03601 0.0
C660 C 0.54339 0.62341 0.02058 0.0
C661 C 0.52756 0.63644 0.02093 0.0
C662 C 0.55839 0.62591 0.00439 0.0
C663 C 0.54271 0.65575 0.99029 0.0
C664 C 0.55816 0.64208 0.98955 0.0
C665 C 0.52714 0.65243 0.00582 0.0
C666 C 0.50914 0.5214 0.02807 0.0
C667 C 0.56287 0.53279 0.06151 0.0
C668 C 0.54916 0.46684 0.99384 0.0
C669 C 0.55007 0.45052 0.01016 0.0
C670 C 0.56375 0.43479 0.00721 0.0
C671 C 0.53807 0.45128 0.02935 0.0
C672 C 0.55176 0.41892 0.04083 0.0
C673 C 0.5389 0.43551 0.04458 0.0
C674 C 0.56448 0.41892 0.02238 0.0
C675 C 0.58287 0.55114 1.00003 0.0
O676 O 0.53537 0.55944 0.98587 0.0
O677 O 0.53153 0.51819 0.96888 0.0
O678 O 0.52553 0.58762 0.03246 0.0
O679 O 0.56105 0.59905 0.03885 0.0
O680 O 0.51789 0.54111 0.04533 0.0
O681 O 0.51862 0.52328 0.01005 0.0
O682 O 0.55608 0.5134 0.04268 0.0
O683 O 0.56141 0.55494 0.05915 0.0
O684 O 0.56671 0.48534 0.99616 0.0
O685 O 0.53118 0.47348 0.99127 0.0
O686 O 0.57377 0.53148 0.98282 0.0
O687 O 0.57354 0.54949 0.01826 0.0
H688 H 0.51555 0.63427 0.03292 0.0
H689 H 0.57049 0.61562 1.00333 0.0
H690 H 0.57061 0.64447 0.97809 0.0
H691 H 0.51483 0.66242 0.00651 0.0
H692 H 0.57346 0.43438 0.99284 0.0
H693 H 0.52773 0.46367 0.03232 0.0
H694 H 0.52871 0.43539 0.05853 0.0
H695 H 0.5743 0.40597 0.0192 0.0
Gd696 Gd 0.82046 0.30665 0.26735 0.0
Gd697 Gd 0.78078 0.26707 0.26654 0.0
C698 C 0.82493 0.24903 0.27052 0.0
C699 C 0.85868 0.33719 0.2789 0.0
C700 C 0.87976 0.33263 0.28449 0.0
C701 C 0.89493 0.33525 0.26856 0.0
C702 C 0.88439 0.32419 0.30493 0.0
C703 C 0.91958 0.32268 0.29411 0.0
C704 C 0.90425 0.31933 0.30973 0.0
C705 C 0.91472 0.33014 0.27328 0.0
C706 C 0.80065 0.28041 0.22365 0.0
C707 C 0.77637 0.3251 0.26406 0.0
C708 C 0.74283 0.23579 0.25603 0.0
C709 C 0.7213 0.23957 0.25151 0.0
C710 C 0.70774 0.23931 0.26925 0.0
C711 C 0.71472 0.24513 0.23003 0.0
C712 C 0.68128 0.24944 0.24387 0.0
C713 C 0.6948 0.25001 0.22626 0.0
C714 C 0.68781 0.24441 0.26549 0.0
C715 C 0.80016 0.29421 0.30997 0.0
O716 O 0.8348 0.27377 0.27473 0.0
O717 O 0.80336 0.24136 0.26479 0.0
O718 O 0.84934 0.32809 0.25668 0.0
O719 O 0.84516 0.33368 0.29432 0.0
O720 O 0.80948 0.30447 0.22876 0.0
O721 O 0.80367 0.27175 0.24141 0.0
O722 O 0.76637 0.30039 0.26042 0.0
O723 O 0.79804 0.33266 0.26893 0.0
O724 O 0.75285 0.24475 0.27799 0.0
O725 O 0.7556 0.24026 0.24011 0.0
O726 O 0.7923 0.27003 0.30525 0.0
O727 O 0.79704 0.30218 0.29189 0.0
H728 H 0.89153 0.34139 0.25256 0.0
H729 H 0.87282 0.32148 0.31733 0.0
H730 H 0.90785 0.31346 0.32585 0.0
H731 H 0.92656 0.33297 0.26118 0.0
H732 H 0.71259 0.23525 0.28599 0.0
H733 H 0.7249 0.24578 0.2161 0.0
H734 H 0.68981 0.254 0.20952 0.0
H735 H 0.67728 0.24382 0.27911 0.0
Gd736 Gd 0.06072 0.53957 0.5498 0.0
Gd737 Gd 0.05285 0.54148 0.49944 0.0
C738 C 0.01395 0.51036 0.51633 0.0
C739 C 0.05326 0.53603 0.59147 0.0
C740 C 0.03439 0.51827 0.597 0.0
C741 C 0.03517 0.494 0.59779 0.0
C742 C 0.01487 0.52477 0.59986 0.0
C743 C 0.99893 0.48493 0.60879 0.0
C744 C 0.9972 0.50812 0.60555 0.0
C745 C 0.01749 0.47737 0.60344 0.0
C746 C 0.07203 0.50413 0.51961 0.0
C747 C 0.10071 0.56806 0.53061 0.0
C748 C 0.05422 0.54473 0.45636 0.0
C749 C 0.07064 0.56082 0.44649 0.0
C750 C 0.06427 0.57605 0.43293 0.0
C751 C 0.09277 0.56183 0.45121 0.0
C752 C 0.10135 0.58977 0.42526 0.0
C753 C 0.10804 0.57623 0.44057 0.0
C754 C 0.0796 0.59061 0.42246 0.0
C755 C 0.04055 0.57579 0.53014 0.0
O756 O 0.02426 0.52281 0.53784 0.0
O757 O 0.02404 0.51018 0.49769 0.0
O758 O 0.0674 0.5262 0.58106 0.0
O759 O 0.04885 0.55354 0.58218 0.0
O760 O 0.08287 0.51526 0.54065 0.0
O761 O 0.05519 0.51107 0.51606 0.0
O762 O 0.08904 0.55672 0.5095 0.0
O763 O 0.09239 0.56775 0.55056 0.0
O764 O 0.04328 0.55646 0.47031 0.0
O765 O 0.06028 0.52748 0.46458 0.0
O766 O 0.02911 0.56305 0.50983 0.0
O767 O 0.05814 0.57015 0.53341 0.0
H768 H 0.04975 0.48814 0.59501 0.0
H769 H 0.01351 0.54307 0.59869 0.0
H770 H 0.98314 0.51449 0.60992 0.0
H771 H 0.01918 0.45964 0.60612 0.0
H772 H 0.04732 0.5759 0.42968 0.0
H773 H 0.09818 0.55072 0.46222 0.0
H774 H 0.12468 0.57511 0.44262 0.0
H775 H 0.07401 0.60065 0.41041 0.0
Gd776 Gd 0.7798 0.79257 0.26574 0.0
Gd777 Gd 0.82525 0.77819 0.26745 0.0
C778 C 0.80815 0.79741 0.3169 0.0
C779 C 0.73953 0.79153 0.26914 0.0
C780 C 0.72577 0.79564 0.28808 0.0
C781 C 0.71516 0.81449 0.28906 0.0
C782 C 0.72212 0.78045 0.3044 0.0
C783 C 0.69575 0.8013 0.32051 0.0
C784 C 0.70728 0.78329 0.32049 0.0
C785 C 0.70039 0.81733 0.30508 0.0
C786 C 0.81421 0.83461 0.267 0.0
C787 C 0.79633 0.77291 0.21611 0.0
C788 C 0.86586 0.78019 0.26409 0.0
C789 C 0.88088 0.77752 0.24611 0.0
C790 C 0.89283 0.75997 0.24599 0.0
C791 C 0.88479 0.79329 0.23035 0.0
C792 C 0.91359 0.77528 0.21615 0.0
C793 C 0.90091 0.79215 0.21554 0.0
C794 C 0.90892 0.75882 0.23123 0.0
C795 C 0.79111 0.73649 0.26836 0.0
O796 O 0.78922 0.79586 0.30471 0.0
O797 O 0.82529 0.79395 0.30673 0.0
O798 O 0.75421 0.81126 0.26693 0.0
O799 O 0.74644 0.77149 0.26604 0.0
O800 O 0.79388 0.83424 0.26674 0.0
O801 O 0.81477 0.8123 0.26701 0.0
O802 O 0.81458 0.77206 0.22811 0.0
O803 O 0.78014 0.77905 0.22639 0.0
O804 O 0.85123 0.75992 0.26526 0.0
O805 O 0.85847 0.79989 0.26741 0.0
O806 O 0.81171 0.73763 0.27026 0.0
O807 O 0.79029 0.7584 0.26679 0.0
H808 H 0.71782 0.82663 0.27689 0.0
H809 H 0.73021 0.7659 0.3043 0.0
H810 H 0.70408 0.77062 0.33211 0.0
H811 H 0.69213 0.8317 0.30496 0.0
H812 H 0.89023 0.74761 0.25796 0.0
H813 H 0.87579 0.80693 0.22982 0.0
H814 H 0.90366 0.8048 0.20386 0.0
H815 H 0.91836 0.74574 0.23248 0.0
Gd816 Gd 0.81591 0.28088 0.74828 0.0
Gd817 Gd 0.79758 0.29468 0.7873 0.0
C818 C 0.82498 0.33777 0.76941 0.0
C819 C 0.83714 0.27922 0.71264 0.0
C820 C 0.84122 0.29667 0.69743 0.0
C821 C 0.86266 0.30756 0.69415 0.0
C822 C 0.82422 0.30571 0.68963 0.0
C823 C 0.84993 0.33651 0.67547 0.0
C824 C 0.8285 0.32523 0.67855 0.0
C825 C 0.86703 0.32744 0.68312 0.0
C826 C 0.83901 0.27589 0.78803 0.0
C827 C 0.78567 0.23709 0.75921 0.0
C828 C 0.78145 0.29622 0.82668 0.0
C829 C 0.7716 0.27709 0.83896 0.0
C830 C 0.75405 0.2799 0.85098 0.0
C831 C 0.77945 0.25617 0.83897 0.0
C832 C 0.75462 0.24354 0.86621 0.0
C833 C 0.77098 0.23945 0.85255 0.0
C834 C 0.7456 0.26323 0.86452 0.0
C835 C 0.77305 0.30105 0.74953 0.0
O836 O 0.81875 0.32067 0.74938 0.0
O837 O 0.82102 0.3319 0.78958 0.0
O838 O 0.84649 0.28914 0.73459 0.0
O839 O 0.81692 0.26587 0.71099 0.0
O840 O 0.83192 0.25877 0.76843 0.0
O841 O 0.832 0.29449 0.78657 0.0
O842 O 0.78983 0.25273 0.78028 0.0
O843 O 0.79154 0.24459 0.74055 0.0
O844 O 0.77023 0.2954 0.80661 0.0
O845 O 0.80231 0.30038 0.82572 0.0
O846 O 0.77958 0.3168 0.77014 0.0
O847 O 0.78096 0.28241 0.74899 0.0
H848 H 0.87603 0.30117 0.70074 0.0
H849 H 0.80763 0.29812 0.69254 0.0
H850 H 0.81486 0.33128 0.67213 0.0
H851 H 0.88364 0.33581 0.68077 0.0
H852 H 0.74746 0.29557 0.85065 0.0
H853 H 0.79269 0.25333 0.82933 0.0
H854 H 0.77825 0.22444 0.85372 0.0
H855 H 0.73288 0.26656 0.87481 0.0
Gd856 Gd 0.81785 0.82015 0.78385 0.0
Gd857 Gd 0.79295 0.76705 0.75911 0.0
C858 C 0.76514 0.80362 0.7724 0.0
C859 C 0.829 0.86734 0.80286 0.0
C860 C 0.81686 0.88527 0.80045 0.0
C861 C 0.81773 0.90506 0.81988 0.0
C862 C 0.80245 0.88098 0.77941 0.0
C863 C 0.79157 0.91764 0.79629 0.0
C864 C 0.78984 0.89708 0.77737 0.0
C865 C 0.80507 0.92133 0.81779 0.0
C866 C 0.81444 0.78791 0.81266 0.0
C867 C 0.84494 0.78613 0.76321 0.0
C868 C 0.78066 0.71899 0.75049 0.0
C869 C 0.79464 0.70233 0.75044 0.0
C870 C 0.78923 0.6792 0.73376 0.0
C871 C 0.81464 0.71066 0.7657 0.0
C872 C 0.82299 0.67206 0.74896 0.0
C873 C 0.82891 0.69595 0.76457 0.0
C874 C 0.80325 0.66398 0.73316 0.0
C875 C 0.79862 0.79233 0.72409 0.0
O876 O 0.78354 0.82131 0.77447 0.0
O877 O 0.76418 0.77973 0.76755 0.0
O878 O 0.81962 0.85069 0.81386 0.0
O879 O 0.83618 0.8577 0.78362 0.0
O880 O 0.83212 0.80493 0.81228 0.0
O881 O 0.79951 0.78823 0.79702 0.0
O882 O 0.82812 0.76853 0.76572 0.0
O883 O 0.84471 0.80957 0.76691 0.0
O884 O 0.78251 0.73095 0.73364 0.0
O885 O 0.78051 0.73342 0.77119 0.0
O886 O 0.78795 0.76909 0.72078 0.0
O887 O 0.80531 0.80169 0.74618 0.0
H888 H 0.82828 0.90802 0.83647 0.0
H889 H 0.80105 0.8653 0.76448 0.0
H890 H 0.77926 0.89403 0.76075 0.0
H891 H 0.80643 0.93724 0.83248 0.0
H892 H 0.77408 0.67281 0.72148 0.0
H893 H 0.81929 0.72853 0.77863 0.0
H894 H 0.84431 0.70298 0.77647 0.0
H895 H 0.79827 0.6456 0.721 0.0
Gd896 Gd 0.5288 0.52477 0.49558 0.0
Gd897 Gd 0.57098 0.55353 0.52742 0.0
C898 C 0.54503 0.58576 0.50512 0.0
C899 C 0.48755 0.50917 0.47937 0.0
C900 C 0.46978 0.52113 0.48175 0.0
C901 C 0.45243 0.51437 0.46301 0.0
C902 C 0.47079 0.54062 0.50162 0.0
C903 C 0.43644 0.54529 0.48455 0.0
C904 C 0.45421 0.55254 0.50305 0.0
C905 C 0.43592 0.52633 0.46436 0.0
C906 C 0.56094 0.5249 0.46575 0.0
C907 C 0.55487 0.49317 0.5202 0.0
C908 C 0.61176 0.57049 0.54382 0.0
C909 C 0.62807 0.55688 0.544 0.0
C910 C 0.64503 0.56449 0.56317 0.0
C911 C 0.62537 0.53461 0.52656 0.0
C912 C 0.65792 0.52924 0.54619 0.0
C913 C 0.64032 0.52082 0.52765 0.0
C914 C 0.66003 0.55076 0.56421 0.0
C915 C 0.53939 0.55292 0.55733 0.0
O916 O 0.52879 0.56502 0.49803 0.0
O917 O 0.56407 0.58614 0.51581 0.0
O918 O 0.5023 0.51893 0.46737 0.0
O919 O 0.49597 0.50414 0.4985 0.0
O920 O 0.54044 0.51302 0.45979 0.0
O921 O 0.5637 0.53494 0.48829 0.0
O922 O 0.57144 0.51363 0.52567 0.0
O923 O 0.53559 0.49285 0.50971 0.0
O924 O 0.5969 0.56417 0.55705 0.0
O925 O 0.60375 0.57232 0.52294 0.0
O926 O 0.55993 0.5642 0.56334 0.0
O927 O 0.53616 0.54295 0.53475 0.0
H928 H 0.45171 0.49985 0.44725 0.0
H929 H 0.48434 0.54656 0.51606 0.0
H930 H 0.45503 0.56697 0.5189 0.0
H931 H 0.42269 0.52068 0.44961 0.0
H932 H 0.6468 0.58117 0.57714 0.0
H933 H 0.61193 0.52811 0.51196 0.0
H934 H 0.63878 0.50437 0.51349 0.0
H935 H 0.67376 0.55743 0.57848 0.0
Gd936 Gd 0.07381 0.54047 0.01372 0.0
Gd937 Gd 0.02453 0.53838 0.01847 0.0
C938 C 0.03744 0.48697 0.01019 0.0
C939 C 0.11253 0.53425 0.01669 0.0
C940 C 0.12358 0.51401 0.01177 0.0
C941 C 0.13205 0.50864 0.99025 0.0
C942 C 0.12781 0.5017 0.0295 0.0
C943 C 0.15018 0.48097 0.00526 0.0
C944 C 0.14101 0.48544 0.0263 0.0
C945 C 0.14513 0.49218 0.98699 0.0
C946 C 0.04668 0.53347 0.97379 0.0
C947 C 0.06161 0.59203 0.02254 0.0
C948 C 0.9855 0.54352 0.01303 0.0
C949 C 0.97324 0.5626 0.01833 0.0
C950 C 0.96622 0.56864 0.04061 0.0
C951 C 0.96662 0.57319 1.0002 0.0
C952 C 0.94539 0.59446 0.02601 0.0
C953 C 0.95293 0.58884 0.00396 0.0
C954 C 0.95257 0.58443 0.04442 0.0
C955 C 0.05065 0.54368 0.05852 0.0
O956 O 0.05814 0.50061 0.01619 0.0
O957 O 0.02138 0.49719 0.00653 0.0
O958 O 0.10338 0.53993 0.99835 0.0
O959 O 0.10127 0.53518 0.03454 0.0
O960 O 0.06699 0.54637 0.97669 0.0
O961 O 0.04246 0.52445 0.99109 0.0
O962 O 0.04073 0.57892 0.0188 0.0
O963 O 0.07785 0.58175 0.0242 0.0
O964 O 0.9933 0.53596 0.0309 0.0
O965 O 0.99854 0.5455 0.99686 0.0
O966 O 0.03001 0.53171 0.05497 0.0
O967 O 0.05581 0.55362 0.0418 0.0
H968 H 0.12934 0.51796 0.97629 0.0
H969 H 0.12172 0.50543 0.04634 0.0
H970 H 0.14483 0.47715 0.04071 0.0
H971 H 0.1523 0.4893 0.97076 0.0
H972 H 0.97084 0.56073 0.05499 0.0
H973 H 0.97143 0.5687 0.98273 0.0
H974 H 0.94755 0.59566 0.98911 0.0
H975 H 0.94745 0.58851 0.06176 0.0
C976 C 1.00317 0.18061 0.94303 0.0
C977 C 0.01365 0.20616 0.95215 0.0
C978 C 0.0096 0.16232 0.95254 0.0
C979 C 0.02647 0.16971 0.97231 0.0
C980 C 0.0369 0.19565 0.98191 0.0
C981 C 0.03066 0.21355 0.97139 0.0
C982 C 0.99838 0.135 0.94123 0.0
C983 C 0.05458 0.20454 1.0033 0.0
C984 C 0.02459 0.1182 0.00562 0.0
C985 C 0.04128 0.10841 0.99742 0.0
C986 C 0.02066 0.13929 0.99894 0.0
C987 C 0.03294 0.15007 0.98268 0.0
C988 C 0.05006 0.14038 0.97467 0.0
C989 C 0.05429 0.12004 0.98254 0.0
C990 C 1.00311 0.1498 0.00903 0.0
C991 C 0.06313 0.15053 0.95675 0.0
H992 H 0.99012 0.17488 0.92805 0.0
H993 H 0.03882 0.23333 0.97845 0.0
H994 H 0.01067 0.12475 0.93686 0.0
H995 H 0.98896 0.12641 0.95395 0.0
H996 H 0.98703 0.1323 0.92469 0.0
H997 H 0.05829 0.22501 0.01108 0.0
H998 H 0.04974 0.19449 0.01728 0.0
H999 H 0.06974 0.20049 0.998 0.0
H1000 H 0.01471 0.10947 0.01741 0.0
H1001 H 0.06717 0.11242 0.9761 0.0
H1002 H 0.98914 0.14604 0.99479 0.0
H1003 H 0.00944 0.17043 0.01589 0.0
H1004 H 0.99704 0.14149 0.02369 0.0
H1005 H 0.0523 0.14632 0.93952 0.0
H1006 H 0.07689 0.14227 0.95366 0.0
H1007 H 0.06976 0.17116 0.96273 0.0
C1008 C 0.1733 0.81441 0.15893 0.0
C1009 C 0.15592 0.81403 0.17229 0.0
C1010 C 0.19341 0.811 0.16831 0.0
C1011 C 0.19659 0.80709 0.19169 0.0
C1012 C 0.17909 0.80676 0.20513 0.0
C1013 C 0.15935 0.81021 0.19542 0.0
C1014 C 0.2113 0.81135 0.15307 0.0
C1015 C 0.18122 0.80307 0.23014 0.0
C1016 C 0.24021 0.77737 0.21437 0.0
C1017 C 0.25639 0.79827 0.22869 0.0
C1018 C 0.22138 0.77995 0.20129 0.0
C1019 C 0.21816 0.80405 0.20259 0.0
C1020 C 0.23485 0.82519 0.21647 0.0
C1021 C 0.25346 0.82203 0.22923 0.0
C1022 C 0.2042 0.75667 0.18726 0.0
C1023 C 0.23244 0.85125 0.2191 0.0
H1024 H 0.17115 0.81714 0.14106 0.0
H1025 H 0.14641 0.80989 0.20628 0.0
H1026 H 0.22652 0.82569 0.16259 0.0
H1027 H 0.21487 0.79295 0.14973 0.0
H1028 H 0.20688 0.81537 0.13568 0.0
H1029 H 0.16555 0.80071 0.23742 0.0
H1030 H 0.18703 0.78639 0.23061 0.0
H1031 H 0.1935 0.81954 0.24206 0.0
H1032 H 0.24153 0.75882 0.21461 0.0
H1033 H 0.26523 0.83829 0.24096 0.0
H1034 H 0.2 0.75829 0.16882 0.0
H1035 H 0.18909 0.7546 0.19556 0.0
H1036 H 0.20959 0.73949 0.18648 0.0
H1037 H 0.22989 0.85511 0.20128 0.0
H1038 H 0.24693 0.86584 0.23 0.0
H1039 H 0.21786 0.85279 0.22765 0.0
C1040 C 0.50101 0.8388 0.47459 0.0
C1041 C 0.51415 0.82811 0.4599 0.0
C1042 C 0.50655 0.8647 0.48443 0.0
C1043 C 0.52577 0.88045 0.47965 0.0
C1044 C 0.53988 0.86972 0.46615 0.0
C1045 C 0.5339 0.84367 0.4564 0.0
C1046 C 0.49115 0.87536 0.49889 0.0
C1047 C 0.56085 0.88587 0.46124 0.0
C1048 C 0.52192 0.94587 0.47958 0.0
C1049 C 0.53391 0.95983 0.50172 0.0
C1050 C 0.5201 0.92025 0.47176 0.0
C1051 C 0.52978 0.90814 0.48688 0.0
C1052 C 0.54189 0.92226 0.50933 0.0
C1053 C 0.54408 0.94807 0.51632 0.0
C1054 C 0.50791 0.90616 0.44725 0.0
C1055 C 0.55203 0.9101 0.52627 0.0
H1056 H 0.48582 0.82706 0.47763 0.0
H1057 H 0.54436 0.83563 0.44541 0.0
H1058 H 0.50021 0.88824 0.51596 0.0
H1059 H 0.48354 0.88643 0.48892 0.0
H1060 H 0.47795 0.86053 0.50286 0.0
H1061 H 0.56997 0.87469 0.4503 0.0
H1062 H 0.5573 0.89976 0.4518 0.0
H1063 H 0.5715 0.89654 0.47829 0.0
H1064 H 0.51453 0.95516 0.46805 0.0
H1065 H 0.55351 0.95904 0.53337 0.0
H1066 H 0.49342 0.89131 0.44879 0.0
H1067 H 0.5185 0.89681 0.4368 0.0
H1068 H 0.50239 0.9186 0.4372 0.0
H1069 H 0.539 0.89916 0.53434 0.0
H1070 H 0.56402 0.92416 0.54088 0.0
H1071 H 0.5603 0.8969 0.51675 0.0
C1072 C 0.51316 0.30312 0.6455 0.0
C1073 C 0.53083 0.29565 0.65457 0.0
C1074 C 0.49246 0.29572 0.6523 0.0
C1075 C 0.48926 0.28084 0.66904 0.0
C1076 C 0.50658 0.27186 0.67711 0.0
C1077 C 0.52719 0.2794 0.66982 0.0
C1078 C 0.47442 0.30531 0.64275 0.0
C1079 C 0.50359 0.25523 0.69432 0.0
C1080 C 0.45047 0.29665 0.71185 0.0
C1081 C 0.43144 0.27682 0.70328 0.0
C1082 C 0.46936 0.29767 0.70114 0.0
C1083 C 0.46932 0.27853 0.68103 0.0
C1084 C 0.45014 0.25834 0.6722 0.0
C1085 C 0.43146 0.25763 0.68357 0.0
C1086 C 0.48942 0.31943 0.71135 0.0
C1087 C 0.44904 0.23791 0.6504 0.0
H1088 H 0.51564 0.31579 0.63384 0.0
H1089 H 0.54059 0.27318 0.67662 0.0
H1090 H 0.45886 0.29014 0.63746 0.0
H1091 H 0.47184 0.32032 0.65691 0.0
H1092 H 0.47832 0.31308 0.62712 0.0
H1093 H 0.51818 0.24869 0.69794 0.0
H1094 H 0.50024 0.26555 0.71142 0.0
H1095 H 0.48928 0.23864 0.68708 0.0
H1096 H 0.45069 0.31129 0.72731 0.0
H1097 H 0.41675 0.24229 0.67681 0.0
H1098 H 0.49365 0.33039 0.69788 0.0
H1099 H 0.50352 0.31243 0.71585 0.0
H1100 H 0.48708 0.3322 0.72764 0.0
H1101 H 0.44699 0.24506 0.63424 0.0
H1102 H 0.43507 0.22116 0.64889 0.0
H1103 H 0.46434 0.23218 0.65058 0.0
C1104 C 0.99562 0.81846 0.60297 0.0
C1105 C 0.00529 0.79982 0.60617 0.0
C1106 C 0.00701 0.83879 0.59492 0.0
C1107 C 0.02821 0.83984 0.58921 0.0
C1108 C 0.03811 0.82105 0.59259 0.0
C1109 C 0.02659 0.80137 0.6015 0.0
C1110 C 0.99619 0.85891 0.59217 0.0
C1111 C 0.06072 0.82172 0.58676 0.0
C1112 C 0.03912 0.87281 0.54024 0.0
C1113 C 0.04992 0.89725 0.55319 0.0
C1114 C 0.03315 0.85353 0.55177 0.0
C1115 C 0.03852 0.85884 0.57681 0.0
C1116 C 0.05102 0.88308 0.58984 0.0
C1117 C 0.05625 0.90228 0.57785 0.0
C1118 C 0.01958 0.82797 0.53735 0.0
C1119 C 0.05759 0.88913 0.6165 0.0
H1120 H 0.97942 0.81753 0.60755 0.0
H1121 H 0.03413 0.78712 0.60475 0.0
H1122 H 0.00708 0.87763 0.60166 0.0
H1123 H 0.99316 0.85884 0.57304 0.0
H1124 H 0.98041 0.85624 0.59922 0.0
H1125 H 0.06537 0.80467 0.58877 0.0
H1126 H 0.06182 0.82356 0.56822 0.0
H1127 H 0.07277 0.83835 0.59875 0.0
H1128 H 0.03396 0.86912 0.52121 0.0
H1129 H 0.06461 0.92129 0.58777 0.0
H1130 H 1.00288 0.82409 0.54221 0.0
H1131 H 0.02672 0.81323 0.54141 0.0
H1132 H 0.01825 0.8265 0.51786 0.0
H1133 H 0.04349 0.89185 0.62546 0.0
H1134 H 0.07129 0.90655 0.62289 0.0
H1135 H 0.06248 0.87355 0.62199 0.0
C1136 C 0.54156 0.80392 0.81352 0.0
C1137 C 0.54544 0.80447 0.83776 0.0
C1138 C 0.52144 0.80543 0.80334 0.0
C1139 C 0.50544 0.80867 0.81807 0.0
C1140 C 0.50956 0.81 0.84266 0.0
C1141 C 0.52924 0.80707 0.85198 0.0
C1142 C 0.5172 0.80332 0.7769 0.0
C1143 C 0.49325 0.81444 0.85924 0.0
C1144 C 0.46106 0.83643 0.8 0.0
C1145 C 0.44285 0.81547 0.79491 0.0
C1146 C 0.4818 0.83436 0.80689 0.0
C1147 C 0.48423 0.81061 0.80801 0.0
C1148 C 0.46594 0.78917 0.80194 0.0
C1149 C 0.44528 0.79194 0.79573 0.0
C1150 C 0.50076 0.8578 0.81459 0.0
C1151 C 0.4681 0.76356 0.80285 0.0
H1152 H 0.55405 0.80177 0.80245 0.0
H1153 H 0.53188 0.80742 0.87056 0.0
H1154 H 0.50219 0.78794 0.76872 0.0
H1155 H 0.51439 0.82087 0.77368 0.0
H1156 H 0.53099 0.79966 0.76777 0.0
H1157 H 0.50069 0.81971 0.87829 0.0
H1158 H 0.48627 0.8295 0.85573 0.0
H1159 H 0.47959 0.79712 0.85626 0.0
H1160 H 0.45887 0.85465 0.79974 0.0
H1161 H 0.43099 0.77585 0.79186 0.0
H1162 H 0.51466 0.85545 0.80512 0.0
H1163 H 0.50648 0.86133 0.83394 0.0
H1164 H 0.49631 0.87454 0.81125 0.0
H1165 H 0.48116 0.75938 0.79271 0.0
H1166 H 0.45264 0.74855 0.79547 0.0
H1167 H 0.47287 0.76317 0.82156 0.0
C1168 C 0.48183 0.16675 0.08826 0.0
C1169 C 0.49417 0.18574 0.10776 0.0
C1170 C 0.49073 0.14827 0.07645 0.0
C1171 C 0.51247 0.14894 0.08428 0.0
C1172 C 0.52476 0.16755 0.1044 0.0
C1173 C 0.51545 0.18566 0.11594 0.0
C1174 C 0.47709 0.12846 0.05517 0.0
C1175 C 0.54811 0.16908 0.11306 0.0
C1176 C 0.5319 0.09184 0.06132 0.0
C1177 C 0.54132 0.09808 0.04178 0.0
C1178 C 0.52245 0.10827 0.07551 0.0
C1179 C 0.52299 0.13156 0.07019 0.0
C1180 C 0.5333 0.13824 0.05098 0.0
C1181 C 0.54205 0.1212 0.03678 0.0
C1182 C 0.51132 0.10043 0.09564 0.0
C1183 C 0.53456 0.16308 0.045 0.0
H1184 H 0.46536 0.16656 0.08195 0.0
H1185 H 0.52517 0.20022 0.13101 0.0
H1186 H 0.48477 0.13015 0.03897 0.0
H1187 H 0.47632 0.10954 0.05783 0.0
H1188 H 0.46019 0.12995 0.05193 0.0
H1189 H 0.55463 0.18299 0.1304 0.0
H1190 H 0.54947 0.15055 0.11504 0.0
H1191 H 0.55855 0.17454 0.09971 0.0
H1192 H 0.53103 0.07369 0.06484 0.0
H1193 H 0.54928 0.12583 0.02152 0.0
H1194 H 0.49375 0.09934 0.09232 0.0
H1195 H 0.51844 0.11461 0.11265 0.0
H1196 H 0.51278 0.08194 0.09775 0.0
H1197 H 0.51791 0.16389 0.03896 0.0
H1198 H 0.54469 0.16616 0.03074 0.0
H1199 H 0.54152 0.17869 0.06105 0.0
C1200 C 0.17111 0.30993 0.34142 0.0
C1201 C 0.16265 0.32977 0.33884 0.0
C1202 C 0.18652 0.30367 0.3276 0.0
C1203 C 0.19365 0.31777 0.31104 0.0
C1204 C 0.18506 0.33764 0.30813 0.0
C1205 C 0.16961 0.34347 0.32217 0.0
C1206 C 0.19577 0.28265 0.33144 0.0
C1207 C 0.1925 0.35294 0.2905 0.0
C1208 C 0.25131 0.32372 0.30072 0.0
C1209 C 0.24848 0.30501 0.27984 0.0
C1210 C 0.23346 0.3281 0.31093 0.0
C1211 C 0.2123 0.31403 0.29934 0.0
C1212 C 0.20923 0.29581 0.2776 0.0
C1213 C 0.22758 0.29103 0.26829 0.0
C1214 C 0.23734 0.347 0.33463 0.0
C1215 C 0.18672 0.28103 0.26467 0.0
H1216 H 0.16563 0.29916 0.35417 0.0
H1217 H 0.16293 0.35868 0.31999 0.0
H1218 H 0.1953 0.26952 0.31418 0.0
H1219 H 0.21312 0.2905 0.33978 0.0
H1220 H 0.18677 0.27189 0.34315 0.0
H1221 H 0.18367 0.36729 0.2899 0.0
H1222 H 0.21023 0.36256 0.29524 0.0
H1223 H 0.18996 0.34042 0.2724 0.0
H1224 H 0.26761 0.33405 0.30989 0.0
H1225 H 0.22565 0.27643 0.25221 0.0
H1226 H 0.23024 0.33761 0.34821 0.0
H1227 H 0.22914 0.36167 0.33311 0.0
H1228 H 0.25497 0.35624 0.34117 0.0
H1229 H 0.17865 0.26802 0.27508 0.0
H1230 H 0.18722 0.2699 0.24662 0.0
H1231 H 0.17648 0.29378 0.26291 0.0
C1232 C 0.97961 0.03927 0.17642 0.0
C1233 C 0.97447 0.0613 0.18761 0.0
C1234 C 0.98869 0.03667 0.1545 0.0
C1235 C 0.99361 0.05669 0.14274 0.0
C1236 C 0.98827 0.07892 0.15388 0.0
C1237 C 0.97912 0.08096 0.17578 0.0
C1238 C 0.99398 0.01257 0.1445 0.0
C1239 C 0.99277 0.1011 0.14292 0.0
C1240 C 0.03881 0.0624 0.10028 0.0
C1241 C 0.02709 0.05303 0.07676 0.0
C1242 C 0.02839 0.06299 0.12133 0.0
C1243 C 0.00518 0.05492 0.11981 0.0
C1244 C 0.99332 0.04543 0.09613 0.0
C1245 C 0.00422 0.04418 0.07538 0.0
C1246 C 0.04238 0.07253 0.1455 0.0
C1247 C 0.96878 0.03682 0.09252 0.0
H1248 H 0.97725 0.02412 0.18537 0.0
H1249 H 0.97632 0.09856 0.18419 0.0
H1250 H 0.98809 0.0059 0.12507 0.0
H1251 H 0.01195 0.01589 0.14707 0.0
H1252 H 0.98666 0.99758 0.15333 0.0
H1253 H 0.98796 0.11709 0.15336 0.0
H1254 H 0.01041 0.10741 0.14164 0.0
H1255 H 0.98375 0.09557 0.12453 0.0
H1256 H 0.05643 0.06931 0.10234 0.0
H1257 H 0.99459 0.03694 0.05785 0.0
H1258 H 0.03883 0.05803 0.15585 0.0
H1259 H 0.03838 0.08922 0.15571 0.0
H1260 H 0.06008 0.07763 0.14425 0.0
H1261 H 0.96329 0.02018 0.09987 0.0
H1262 H 0.96164 0.03187 0.0734 0.0
H1263 H 0.96232 0.05174 0.10234 0.0
C1264 C 0.25151 0.65345 0.45855 0.0
C1265 C 0.2568 0.66854 0.48178 0.0
C1266 C 0.24816 0.66378 0.43925 0.0
C1267 C 0.24939 0.68954 0.44364 0.0
C1268 C 0.25214 0.70407 0.46733 0.0
C1269 C 0.25636 0.69346 0.48627 0.0
C1270 C 0.24618 0.64797 0.41429 0.0
C1271 C 0.25279 0.73139 0.47256 0.0
C1272 C 0.27682 0.7244 0.40111 0.0
C1273 C 0.25901 0.72724 0.38738 0.0
C1274 C 0.27379 0.71208 0.41943 0.0
C1275 C 0.25235 0.70223 0.424 0.0
C1276 C 0.23421 0.70456 0.4099 0.0
C1277 C 0.23777 0.71719 0.39168 0.0
C1278 C 0.29362 0.71016 0.43423 0.0
C1279 C 0.2112 0.694 0.41427 0.0
H1280 H 0.25235 0.63424 0.45533 0.0
H1281 H 0.26072 0.705 0.50437 0.0
H1282 H 0.23321 0.65083 0.40217 0.0
H1283 H 0.26177 0.65373 0.40728 0.0
H1284 H 0.24257 0.62771 0.4138 0.0
H1285 H 0.25304 0.73934 0.49183 0.0
H1286 H 0.26758 0.74229 0.46691 0.0
H1287 H 0.23841 0.73382 0.46227 0.0
H1288 H 0.29325 0.73266 0.39807 0.0
H1289 H 0.22403 0.71944 0.38096 0.0
H1290 H 0.29221 0.69029 0.43408 0.0
H1291 H 0.29472 0.72039 0.45303 0.0
H1292 H 0.30905 0.71806 0.4277 0.0
H1293 H 0.20722 0.67331 0.41078 0.0
H1294 H 0.19898 0.69884 0.40276 0.0
H1295 H 0.20969 0.7011 0.43321 0.0
C1296 C 0.63724 0.02937 0.65362 0.0
C1297 C 0.62941 0.03461 0.67527 0.0
C1298 C 0.62807 0.03551 0.63373 0.0
C1299 C 0.61119 0.04736 0.6362 0.0
C1300 C 0.60549 0.05561 0.65885 0.0
C1301 C 0.61455 0.0488 0.67819 0.0
C1302 C 0.6346 0.02685 0.60971 0.0
C1303 C 0.5879 0.06883 0.66222 0.0
C1304 C 0.58363 0.06429 0.58477 0.0
C1305 C 0.56494 0.04382 0.57774 0.0
C1306 C 0.5993 0.06564 0.60361 0.0
C1307 C 0.59613 0.04578 0.61508 0.0
C1308 C 0.57743 0.02479 0.60759 0.0
C1309 C 0.56184 0.02422 0.58904 0.0
C1310 C 0.61871 0.08856 0.6117 0.0
C1311 C 0.57369 1.00313 0.61941 0.0
H1312 H 0.64911 0.01877 0.6518 0.0
H1313 H 0.60912 0.05339 0.69534 0.0
H1314 H 0.62143 0.01051 0.59888 0.0
H1315 H 0.63678 0.0418 0.59987 0.0
H1316 H 0.64993 0.02123 0.61134 0.0
H1317 H 0.58913 0.07896 0.68111 0.0
H1318 H 0.58874 0.08235 0.65087 0.0
H1319 H 0.57167 0.05478 0.65698 0.0
H1320 H 0.5858 0.07944 0.5758 0.0
H1321 H 0.54743 0.00832 0.58315 0.0
H1322 H 0.63409 0.08308 0.6132 0.0
H1323 H 0.61752 0.09921 0.62967 0.0
H1324 H 0.61973 0.10117 0.59938 0.0
H1325 H 0.58807 0.99567 0.61951 0.0
H1326 H 0.55903 0.98761 0.61031 0.0
H1327 H 0.57152 0.00965 0.63822 0.0
C1328 C 0.3258 0.32101 0.96035 0.0
C1329 C 0.31574 0.33879 0.97131 0.0
C1330 C 0.32293 0.31232 0.93537 0.0
C1331 C 0.3099 0.32177 0.92078 0.0
C1332 C 0.29866 0.33859 0.93169 0.0
C1333 C 0.30159 0.34676 0.95677 0.0
C1334 C 0.33464 0.29377 0.92455 0.0
C1335 C 0.28422 0.34876 0.91685 0.0
C1336 C 0.32594 0.32304 0.85903 0.0
C1337 C 0.30957 0.30294 0.8443 0.0
C1338 C 0.32582 0.32973 0.88383 0.0
C1339 C 0.30939 0.31544 0.89424 0.0
C1340 C 0.29298 0.29488 0.87932 0.0
C1341 C 0.29313 0.28912 0.85454 0.0
C1342 C 0.34306 0.35244 0.89886 0.0
C1343 C 0.27551 0.27856 0.88944 0.0
H1344 H 0.33658 0.31446 0.97127 0.0
H1345 H 0.2936 0.36037 0.9649 0.0
H1346 H 0.3231 0.27785 0.91118 0.0
H1347 H 0.3475 0.30294 0.91513 0.0
H1348 H 0.34239 0.28633 0.93819 0.0
H1349 H 0.27692 0.36204 0.92798 0.0
H1350 H 0.29377 0.3585 0.90486 0.0
H1351 H 0.27083 0.33313 0.90538 0.0
H1352 H 0.33836 0.33408 0.85106 0.0
H1353 H 0.28041 0.27359 0.84309 0.0
H1354 H 0.35286 0.34687 0.91235 0.0
H1355 H 0.33517 0.36594 0.90865 0.0
H1356 H 0.35423 0.36207 0.88802 0.0
H1357 H 0.28281 0.2665 0.89837 0.0
H1358 H 0.26196 0.26626 0.87537 0.0
H1359 H 0.26867 0.29003 0.90303 0.0
C1360 C 0.95771 0.05423 0.34822 0.0
C1361 C 0.97032 0.06049 0.33048 0.0
C1362 C 0.9671 0.0505 0.37003 0.0
C1363 C 0.99005 0.05403 0.37537 0.0
C1364 C 1.00287 0.06094 0.35771 0.0
C1365 C 0.99295 0.06348 0.33567 0.0
C1366 C 0.95229 0.04239 0.38739 0.0
C1367 C 0.0273 0.06567 0.36199 0.0
C1368 C 0.01632 0.06735 0.44212 0.0
C1369 C 0.01983 0.04437 0.44439 0.0
C1370 C 0.00708 0.07074 0.42016 0.0
C1371 C 1.00054 0.05068 0.39921 0.0
C1372 C 0.00423 0.02748 0.40131 0.0
C1373 C 0.0137 0.02466 0.42349 0.0
C1374 C 0.00453 0.09617 0.41937 0.0
C1375 C 0.99782 1.00527 0.38007 0.0
H1376 H 0.94028 0.05158 0.3448 0.0
H1377 H 1.00317 0.06839 0.32253 0.0
H1378 H 0.95474 0.02503 0.39153 0.0
H1379 H 0.95645 0.05703 0.40437 0.0
H1380 H 0.9348 0.03887 0.38038 0.0
H1381 H 0.03541 0.07491 0.3488 0.0
H1382 H 0.03425 0.07759 0.38016 0.0
H1383 H 0.03125 0.04762 0.3607 0.0
H1384 H 0.02084 0.08296 0.45767 0.0
H1385 H 0.01609 0.0067 0.42444 0.0
H1386 H 0.98708 0.09473 0.41432 0.0
H1387 H 0.01349 0.10318 0.40555 0.0
H1388 H 0.01072 0.1101 0.43676 0.0
H1389 H 0.97987 0.99963 0.37467 0.0
H1390 H 1.00273 0.98895 0.38386 0.0
H1391 H 0.00541 0.01034 0.3647 0.0
C1392 C 0.2729 0.67873 0.59922 0.0
C1393 C 0.29298 0.68117 0.59066 0.0
C1394 C 0.27114 0.69479 0.62046 0.0
C1395 C 0.29 0.71331 0.63355 0.0
C1396 C 0.31028 0.71582 0.62499 0.0
C1397 C 0.31147 0.69985 0.60353 0.0
C1398 C 0.24917 0.69206 0.6288 0.0
C1399 C 0.33088 0.73492 0.63885 0.0
C1400 C 0.29146 0.76984 0.68234 0.0
C1401 C 0.29636 0.76146 0.70256 0.0
C1402 C 0.28748 0.75359 0.65955 0.0
C1403 C 0.28923 0.7289 0.65718 0.0
C1404 C 0.29317 0.72012 0.6777 0.0
C1405 C 0.29632 0.73642 0.70015 0.0
C1406 C 0.2824 0.76315 0.638 0.0
C1407 C 0.29544 0.69403 0.67597 0.0
H1408 H 0.25846 0.66459 0.58906 0.0
H1409 H 0.32699 0.70178 0.59697 0.0
H1410 H 0.24989 0.68832 0.64679 0.0
H1411 H 0.24467 0.70983 0.63028 0.0
H1412 H 0.2361 0.67669 0.6165 0.0
H1413 H 0.34514 0.7351 0.62924 0.0
H1414 H 0.32857 0.75395 0.64251 0.0
H1415 H 0.33465 0.73074 0.65632 0.0
H1416 H 0.29109 0.78909 0.68433 0.0
H1417 H 0.29988 0.72981 0.71583 0.0
H1418 H 0.26826 0.74943 0.62569 0.0
H1419 H 0.29655 0.76546 0.62814 0.0
H1420 H 0.27872 0.78145 0.64297 0.0
H1421 H 0.28042 0.67986 0.66579 0.0
H1422 H 0.29851 0.6902 0.69376 0.0
H1423 H 0.30915 0.69151 0.66619 0.0
C1424 C 0.62032 0.04277 0.81141 0.0
C1425 C 0.62699 0.05398 0.79319 0.0
C1426 C 0.62155 0.05725 0.83429 0.0
C1427 C 0.63006 0.08369 0.839 0.0
C1428 C 0.63729 0.09511 0.82066 0.0
C1429 C 0.63533 0.08003 0.79768 0.0
C1430 C 0.61372 0.04406 0.8533 0.0
C1431 C 0.64784 0.12295 0.82557 0.0
C1432 C 0.60121 0.10441 0.88762 0.0
C1433 C 0.61392 0.09982 0.90611 0.0
C1434 C 0.60817 0.10357 0.86544 0.0
C1435 C 0.62849 0.09884 0.86238 0.0
C1436 C 0.64336 0.10036 0.8825 0.0
C1437 C 0.63575 0.10062 0.90441 0.0
C1438 C 0.59186 0.10218 0.84443 0.0
C1439 C 0.66571 0.09696 0.88011 0.0
H1440 H 0.61473 0.02249 0.80782 0.0
H1441 H 0.64155 0.08839 0.78362 0.0
H1442 H 0.62708 0.04851 0.86837 0.0
H1443 H 0.60006 0.05051 0.86031 0.0
H1444 H 0.60801 0.02337 0.84649 0.0
H1445 H 0.65147 0.12906 0.80904 0.0
H1446 H 0.63724 0.13356 0.83443 0.0
H1447 H 0.66336 0.128 0.83795 0.0
H1448 H 0.58442 0.10425 0.88906 0.0
H1449 H 0.64579 0.09785 0.91907 0.0
H1450 H 0.58429 0.08224 0.83495 0.0
H1451 H 0.59991 0.11197 0.8316 0.0
H1452 H 0.57864 0.11043 0.85012 0.0
H1453 H 0.66458 0.07669 0.87614 0.0
H1454 H 0.67716 0.10627 0.89698 0.0
H1455 H 0.67247 0.10455 0.8654 0.0
C1456 C 0.29467 0.33252 0.10071 0.0
C1457 C 0.31542 0.34613 0.09766 0.0
C1458 C 0.2916 0.32308 0.12134 0.0
C1459 C 0.30949 0.32814 0.13978 0.0
C1460 C 0.33024 0.34247 0.13689 0.0
C1461 C 0.33294 0.35094 0.11597 0.0
C1462 C 0.26925 0.30753 0.12332 0.0
C1463 C 0.34985 0.34849 0.15578 0.0
C1464 C 0.30301 0.32282 0.20406 0.0
C1465 C 0.30646 0.29942 0.20387 0.0
C1466 C 0.30298 0.33192 0.18312 0.0
C1467 C 0.30717 0.3177 0.16162 0.0
C1468 C 0.31097 0.29423 0.16161 0.0
C1469 C 0.31019 0.28528 0.18248 0.0
C1470 C 0.29829 0.35669 0.18393 0.0
C1471 C 0.31588 0.27844 0.13949 0.0
H1472 H 0.28102 0.32864 0.08673 0.0
H1473 H 0.34901 0.36169 0.11402 0.0
H1474 H 0.27023 0.28986 0.12794 0.0
H1475 H 0.2626 0.31799 0.13788 0.0
H1476 H 0.25768 0.30282 0.10652 0.0
H1477 H 0.36461 0.36096 0.15149 0.0
H1478 H 0.34636 0.35772 0.17327 0.0
H1479 H 0.35351 0.33092 0.15771 0.0
H1480 H 0.2996 0.33361 0.22033 0.0
H1481 H 0.31268 0.26707 0.1821 0.0
H1482 H 0.28416 0.35412 0.17023 0.0
H1483 H 0.3125 0.36998 0.17964 0.0
H1484 H 0.29465 0.36517 0.20165 0.0
H1485 H 0.30167 0.27277 0.12515 0.0
H1486 H 0.31962 0.26129 0.14271 0.0
H1487 H 0.32999 0.28946 0.13288 0.0
C1488 C 0.26491 0.9829 0.051 0.0
C1489 C 0.26853 0.97465 0.02764 0.0
C1490 C 0.24668 0.99115 0.05538 0.0
C1491 C 0.23219 0.99156 0.03583 0.0
C1492 C 0.23598 0.98364 0.01215 0.0
C1493 C 0.2541 0.97479 0.00828 0.0
C1494 C 0.2428 0.99893 0.08083 0.0
C1495 C 0.2212 0.98502 0.99105 0.0
C1496 C 0.17513 0.99426 0.0437 0.0
C1497 C 0.17781 0.01999 0.04706 0.0
C1498 C 0.19298 0.98466 0.04055 0.0
C1499 C 0.2135 1.00126 0.04026 0.0
C1500 C 0.21628 0.02726 0.04405 0.0
C1501 C 0.19834 0.03634 0.04759 0.0
C1502 C 0.1899 0.95687 0.03712 0.0
C1503 C 0.23804 0.0454 0.04381 0.0
H1504 H 0.27609 0.98235 0.06589 0.0
H1505 H 0.25725 0.9685 0.99028 0.0
H1506 H 0.23917 0.01729 0.08432 0.0
H1507 H 0.2284 0.98496 0.08393 0.0
H1508 H 0.25702 1.00026 0.09392 0.0
H1509 H 0.22639 0.97785 0.9738 0.0
H1510 H 0.20419 0.97405 0.99103 0.0
H1511 H 0.22111 1.00474 0.99242 0.0
H1512 H 0.15912 0.98176 0.04329 0.0
H1513 H 0.20018 0.05619 0.04979 0.0
H1514 H 0.20173 0.95348 0.05028 0.0
H1515 H 0.1932 0.94882 0.01913 0.0
H1516 H 0.17313 0.94673 0.03907 0.0
H1517 H 0.2504 0.04462 0.05803 0.0
H1518 H 0.23718 0.06502 0.04656 0.0
H1519 H 0.24387 0.04006 0.02654 0.0
C1520 C 0.70016 0.64038 0.98703 0.0
C1521 C 0.71685 0.63787 1.00289 0.0
C1522 C 0.67798 0.62773 0.9868 0.0
C1523 C 0.67221 0.61221 1.0028 0.0
C1524 C 0.68898 0.6101 0.01913 0.0
C1525 C 0.71089 0.62282 0.01895 0.0
C1526 C 0.66068 0.63073 0.96921 0.0
C1527 C 0.68393 0.59366 0.03637 0.0
C1528 C 0.61347 0.59116 0.01621 0.0
C1529 C 0.60547 0.56724 1.00072 0.0
C1530 C 0.63485 0.60629 0.01662 0.0
C1531 C 0.6489 0.59706 1.00171 0.0
C1532 C 0.64094 0.5727 0.98638 0.0
C1533 C 0.61934 0.55837 0.98579 0.0
C1534 C 0.64244 0.63216 0.03306 0.0
C1535 C 0.65536 0.56157 0.97075 0.0
H1536 H 0.70444 0.65187 0.97454 0.0
H1537 H 0.72347 0.62064 0.03137 0.0
H1538 H 0.65171 0.61223 0.95729 0.0
H1539 H 0.64861 0.63812 0.97887 0.0
H1540 H 0.66764 0.64356 0.95809 0.0
H1541 H 0.69839 0.59612 0.04962 0.0
H1542 H 0.67062 0.59775 0.04609 0.0
H1543 H 0.67823 0.57373 0.02634 0.0
H1544 H 0.6029 0.59818 0.02778 0.0
H1545 H 0.61345 0.53981 0.97393 0.0
H1546 H 0.6477 0.64628 0.02262 0.0
H1547 H 0.65679 0.63362 0.04599 0.0
H1548 H 0.62948 0.63688 0.04311 0.0
H1549 H 0.66018 0.57294 0.95774 0.0
H1550 H 0.64715 0.54193 0.96078 0.0
H1551 H 0.67055 0.56194 0.98173 0.0
C1552 C 0.69785 0.42495 0.26761 0.0
C1553 C 0.71019 0.45031 0.27091 0.0
C1554 C 0.70761 0.40441 0.26569 0.0
C1555 C 0.73069 0.40816 0.26648 0.0
C1556 C 0.74306 0.43359 0.26885 0.0
C1557 C 0.733 0.45385 0.2716 0.0
C1558 C 0.69304 0.37847 0.26366 0.0
C1559 C 0.76726 0.43954 0.26822 0.0
C1560 C 0.76192 0.36156 0.2859 0.0
C1561 C 0.76346 0.3452 0.26439 0.0
C1562 C 0.7512 0.38113 0.28676 0.0
C1563 C 0.74186 0.38609 0.26557 0.0
C1564 C 0.74374 0.36984 0.24372 0.0
C1565 C 0.75398 0.34987 0.24343 0.0
C1566 C 0.74974 0.39655 0.31078 0.0
C1567 C 0.73499 0.37344 0.22018 0.0
H1568 H 0.68041 0.42115 0.26758 0.0
H1569 H 0.74327 0.47285 0.27435 0.0
H1570 H 0.69523 0.36532 0.24761 0.0
H1571 H 0.69773 0.37169 0.27937 0.0
H1572 H 0.67553 0.37791 0.26259 0.0
H1573 H 0.77485 0.45976 0.26971 0.0
H1574 H 0.77544 0.43394 0.28293 0.0
H1575 H 0.77031 0.42858 0.25124 0.0
H1576 H 0.76908 0.35897 0.30244 0.0
H1577 H 0.75498 0.33816 0.22646 0.0
H1578 H 0.73242 0.39558 0.31234 0.0
H1579 H 0.75856 0.41649 0.31263 0.0
H1580 H 0.75673 0.39014 0.3257 0.0
H1581 H 0.7172 0.36405 0.21605 0.0
H1582 H 0.74282 0.36511 0.20543 0.0
H1583 H 0.7375 0.39359 0.22074 0.0
C1584 C 0.88582 0.46691 0.48579 0.0
C1585 C 0.87714 0.48483 0.49862 0.0
C1586 C 0.90817 0.47001 0.48901 0.0
C1587 C 0.92199 0.49266 0.50363 0.0
C1588 C 0.91339 0.51217 0.51435 0.0
C1589 C 0.89076 0.50776 0.51209 0.0
C1590 C 0.91677 0.44835 0.47837 0.0
C1591 C 0.92798 0.53712 0.52891 0.0
C1592 C 0.97852 0.49482 0.52972 0.0
C1593 C 0.99029 0.50255 0.51222 0.0
C1594 C 0.95594 0.491 0.52704 0.0
C1595 C 0.94551 0.49612 0.50689 0.0
C1596 C 0.95741 0.50392 0.48925 0.0
C1597 C 0.97967 0.50648 0.49187 0.0
C1598 C 0.94336 0.48176 0.54573 0.0
C1599 C 0.94676 0.51027 0.46799 0.0
H1600 H 0.87496 0.44925 0.47543 0.0
H1601 H 0.88375 0.52128 0.52233 0.0
H1602 H 0.92827 0.45382 0.46599 0.0
H1603 H 0.92594 0.44322 0.49274 0.0
H1604 H 0.9035 0.43152 0.46853 0.0
H1605 H 0.91852 0.54974 0.53703 0.0
H1606 H 0.93901 0.53446 0.54333 0.0
H1607 H 0.93843 0.54646 0.51734 0.0
H1608 H 0.98699 0.49203 0.54549 0.0
H1609 H 0.98897 0.51301 0.47859 0.0
H1610 H 0.93026 0.46427 0.53727 0.0
H1611 H 0.93536 0.4958 0.5542 0.0
H1612 H 0.95398 0.47805 0.5599 0.0
H1613 H 0.9348 0.49326 0.45649 0.0
H1614 H 0.95881 0.51815 0.45701 0.0
H1615 H 0.93767 0.52407 0.47403 0.0
C1616 C 0.39654 0.10585 0.30181 0.0
C1617 C 0.40027 0.08352 0.29052 0.0
C1618 C 0.38362 0.11682 0.28939 0.0
C1619 C 0.37402 0.10461 0.26547 0.0
C1620 C 0.37703 0.08138 0.25442 0.0
C1621 C 0.39046 0.0712 0.26709 0.0
C1622 C 0.38076 0.14175 0.30162 0.0
C1623 C 0.36692 0.0678 0.22904 0.0
C1624 C 0.32712 0.12769 0.24714 0.0
C1625 C 0.33792 0.14783 0.23843 0.0
C1626 C 0.33839 0.11197 0.25442 0.0
C1627 C 0.36077 0.11642 0.25234 0.0
C1628 C 0.3711 0.13497 0.241 0.0
C1629 C 0.35955 0.15093 0.23451 0.0
C1630 C 0.32701 0.09239 0.26658 0.0
C1631 C 0.39479 0.1394 0.23777 0.0
H1632 H 0.40448 0.11518 0.3199 0.0
H1633 H 0.39359 0.05378 0.2586 0.0
H1634 H 0.38753 0.15606 0.29186 0.0
H1635 H 0.36315 0.14032 0.30144 0.0
H1636 H 0.38905 0.14839 0.32039 0.0
H1637 H 0.36684 0.0478 0.22513 0.0
H1638 H 0.34993 0.06874 0.22525 0.0
H1639 H 0.3765 0.07687 0.21668 0.0
H1640 H 0.31043 0.12576 0.25042 0.0
H1641 H 0.36774 0.16663 0.22778 0.0
H1642 H 0.33366 0.09812 0.28586 0.0
H1643 H 0.33005 0.07415 0.25914 0.0
H1644 H 0.30911 0.08977 0.2647 0.0
H1645 H 0.40527 0.14835 0.25528 0.0
H1646 H 0.39932 0.15177 0.22547 0.0
H1647 H 0.39835 0.12137 0.23071 0.0
C1648 C 0.34649 0.14505 0.49658 0.0
C1649 C 0.33985 0.16066 0.51473 0.0
C1650 C 0.36521 0.13718 0.50084 0.0
C1651 C 0.37788 0.14541 0.52381 0.0
C1652 C 0.37159 0.16193 0.54209 0.0
C1653 C 0.35253 0.1693 0.53735 0.0
C1654 C 0.37118 0.11959 0.48081 0.0
C1655 C 0.38503 0.17187 0.56655 0.0
C1656 C 0.40968 0.1002 0.53578 0.0
C1657 C 0.42999 0.11038 0.52919 0.0
C1658 C 0.39311 0.11231 0.53565 0.0
C1659 C 0.39676 0.13524 0.52867 0.0
C1660 C 0.41767 0.14646 0.52346 0.0
C1661 C 0.43396 0.13387 0.52367 0.0
C1662 C 0.37121 0.09977 0.54162 0.0
C1663 C 0.42256 0.17109 0.51638 0.0
H1664 H 0.33681 0.13873 0.479 0.0
H1665 H 0.34762 0.18189 0.55121 0.0
H1666 H 0.38811 0.12772 0.47786 0.0
H1667 H 0.37057 0.10163 0.48567 0.0
H1668 H 0.36005 0.11557 0.46381 0.0
H1669 H 0.37744 0.18358 0.57911 0.0
H1670 H 0.38728 0.15617 0.57407 0.0
H1671 H 0.4015 0.18334 0.5652 0.0
H1672 H 0.40624 0.08203 0.5399 0.0
H1673 H 0.44971 0.14223 0.51902 0.0
H1674 H 0.35887 0.09337 0.52531 0.0
H1675 H 0.36575 0.11324 0.55481 0.0
H1676 H 0.37159 0.08335 0.54895 0.0
H1677 H 0.41578 0.16777 0.49735 0.0
H1678 H 0.4404 0.18012 0.51862 0.0
H1679 H 0.41485 0.18423 0.52701 0.0
C1680 C 0.7303 0.59119 0.26911 0.0
C1681 C 0.71173 0.587 0.28077 0.0
C1682 C 0.74108 0.61534 0.2657 0.0
C1683 C 0.73394 0.63688 0.27474 0.0
C1684 C 0.71497 0.63261 0.28625 0.0
C1685 C 0.70419 0.60812 0.28888 0.0
C1686 C 0.76047 0.6178 0.25253 0.0
C1687 C 0.7062 0.65418 0.2963 0.0
C1688 C 0.77819 0.70202 0.28996 0.0
C1689 C 0.77372 0.71347 0.27147 0.0
C1690 C 0.76518 0.67811 0.29152 0.0
C1691 C 0.74708 0.66378 0.27371 0.0
C1692 C 0.74225 0.67529 0.25498 0.0
C1693 C 0.75537 0.69968 0.25415 0.0
C1694 C 0.77125 0.6679 0.31228 0.0
C1695 C 0.72391 0.66127 0.23487 0.0
H1696 H 0.73658 0.57545 0.26264 0.0
H1697 H 0.69001 0.60565 0.29798 0.0
H1698 H 0.75923 0.62904 0.23927 0.0
H1699 H 0.77561 0.62777 0.26532 0.0
H1700 H 0.76196 0.59928 0.24318 0.0
H1701 H 0.69211 0.64847 0.30575 0.0
H1702 H 0.71923 0.6693 0.30888 0.0
H1703 H 0.70093 0.66215 0.28169 0.0
H1704 H 0.79243 0.71176 0.30328 0.0
H1705 H 0.75187 0.70734 0.23916 0.0
H1706 H 0.77681 0.65108 0.30579 0.0
H1707 H 0.75676 0.66202 0.32109 0.0
H1708 H 0.78444 0.68182 0.32573 0.0
H1709 H 0.72917 0.64671 0.22277 0.0
H1710 H 0.71933 0.67386 0.22436 0.0
H1711 H 0.70928 0.6516 0.24164 0.0
C1712 C 0.90374 0.4686 0.76475 0.0
C1713 C 0.91487 0.47689 0.78812 0.0
C1714 C 0.89121 0.44358 0.7562 0.0
C1715 C 0.89018 0.42721 0.77157 0.0
C1716 C 0.90398 0.43485 0.79375 0.0
C1717 C 0.91608 0.45983 0.80187 0.0
C1718 C 0.87744 0.43547 0.73193 0.0
C1719 C 0.90405 0.41746 0.81012 0.0
C1720 C 0.83744 0.38405 0.77869 0.0
C1721 C 0.84059 0.36094 0.7689 0.0
C1722 C 0.85279 0.40604 0.77762 0.0
C1723 C 0.87187 0.40444 0.76736 0.0
C1724 C 0.87464 0.38094 0.75684 0.0
C1725 C 0.85871 0.35938 0.75748 0.0
C1726 C 0.84902 0.43097 0.7882 0.0
C1727 C 0.89454 0.37844 0.74546 0.0
H1728 H 0.90333 0.48196 0.75401 0.0
H1729 H 0.92537 0.46642 0.81967 0.0
H1730 H 0.87582 0.4156 0.72335 0.0
H1731 H 0.86081 0.43726 0.73388 0.0
H1732 H 0.88442 0.44733 0.72 0.0
H1733 H 0.91766 0.42543 0.82526 0.0
H1734 H 0.88844 0.41395 0.81747 0.0
H1735 H 0.90545 0.39914 0.80016 0.0
H1736 H 0.82302 0.38486 0.78697 0.0
H1737 H 0.86074 0.34117 0.74968 0.0
H1738 H 0.8502 0.44241 0.77484 0.0
H1739 H 0.8618 0.44147 0.8037 0.0
H1740 H 0.83279 0.42884 0.7942 0.0
H1741 H 0.89391 0.38466 0.72863 0.0
H1742 H 0.8955 0.3588 0.74125 0.0
H1743 H 0.90971 0.3905 0.75727 0.0
C1744 C 0.09289 0.88111 0.06454 0.0
C1745 C 0.07857 0.87323 0.08016 0.0
C1746 C 0.08983 0.89937 0.05221 0.0
C1747 C 0.07214 0.91005 0.0556 0.0
C1748 C 0.05781 0.90209 0.07138 0.0
C1749 C 0.06127 0.88413 0.08338 0.0
C1750 C 0.10534 0.90706 0.03531 0.0
C1751 C 0.03859 0.91245 0.07557 0.0
C1752 C 0.07555 0.97596 0.04822 0.0
C1753 C 0.06066 0.97166 0.02749 0.0
C1754 C 0.0798 0.95617 0.05698 0.0
C1755 C 0.06935 0.93103 0.04455 0.0
C1756 C 0.05452 0.92644 0.02328 0.0
C1757 C 0.05016 0.94677 0.01517 0.0
C1758 C 0.09495 0.96227 0.08018 0.0
C1759 C 0.04341 0.90006 0.00895 0.0
H1760 H 0.10592 0.87244 0.06134 0.0
H1761 H 0.04989 0.87807 0.09516 0.0
H1762 H 0.09614 0.9069 0.01814 0.0
H1763 H 0.11574 0.92649 0.04304 0.0
H1764 H 0.11609 0.8946 0.03175 0.0
H1765 H 0.02903 0.90445 0.08855 0.0
H1766 H 0.04433 0.93311 0.08232 0.0
H1767 H 0.02753 0.90833 0.05854 0.0
H1768 H 0.08358 0.99505 0.05816 0.0
H1769 H 0.03873 0.94318 0.99907 0.0
H1770 H 0.10836 0.95338 0.07762 0.0
H1771 H 0.08589 0.95456 0.09362 0.0
H1772 H 0.10219 0.98275 0.08746 0.0
H1773 H 0.05583 0.89149 1.00142 0.0
H1774 H 0.03101 0.89946 0.99405 0.0
H1775 H 0.03537 0.88836 0.02047 0.0
C1776 C 0.93564 0.26008 0.87817 0.0
C1777 C 0.95612 0.27018 0.8719 0.0
C1778 C 0.91639 0.26342 0.86707 0.0
C1779 C 0.91747 0.2769 0.84902 0.0
C1780 C 0.93824 0.28802 0.84343 0.0
C1781 C 0.95716 0.28466 0.85495 0.0
C1782 C 0.89475 0.25168 0.87406 0.0
C1783 C 0.94046 0.30269 0.82452 0.0
C1784 C 0.86861 0.25709 0.79933 0.0
C1785 C 0.85861 0.27649 0.80458 0.0
C1786 C 0.8876 0.25718 0.81355 0.0
C1787 C 0.89694 0.27694 0.83409 0.0
C1788 C 0.88692 0.29663 0.83967 0.0
C1789 C 0.86796 0.29623 0.82483 0.0
C1790 C 0.89789 0.23616 0.8063 0.0
C1791 C 0.89603 0.31795 0.86148 0.0
H1792 H 0.93454 0.24904 0.89133 0.0
H1793 H 0.97284 0.29283 0.85005 0.0
H1794 H 0.88509 0.2654 0.87712 0.0
H1795 H 0.88522 0.23566 0.85931 0.0
H1796 H 0.89675 0.24478 0.8904 0.0
H1797 H 0.95776 0.31057 0.82253 0.0
H1798 H 0.9316 0.29042 0.80709 0.0
H1799 H 0.93296 0.31831 0.82896 0.0
H1800 H 0.86176 0.24181 0.78369 0.0
H1801 H 0.86045 0.31134 0.82909 0.0
H1802 H 0.89837 0.22614 0.82068 0.0
H1803 H 0.91499 0.2439 0.80363 0.0
H1804 H 0.88892 0.22241 0.78961 0.0
H1805 H 0.89297 0.31094 0.87766 0.0
H1806 H 0.88843 0.33346 0.8616 0.0
H1807 H 0.91395 0.32549 0.86267 0.0
C1808 C 0.58837 0.24015 0.58183 0.0
C1809 C 0.5695 0.24764 0.57724 0.0
C1810 C 0.58884 0.21542 0.57246 0.0
C1811 C 0.57 0.19781 0.55821 0.0
C1812 C 0.55116 0.20543 0.55288 0.0
C1813 C 0.55118 0.23023 0.56233 0.0
C1814 C 0.6092 0.2079 0.5785 0.0
C1815 C 0.53057 0.18706 0.53817 0.0
C1816 C 0.57259 0.13608 0.51938 0.0
C1817 C 0.56441 0.11957 0.53324 0.0
C1818 C 0.57501 0.16184 0.52752 0.0
C1819 C 0.56933 0.17101 0.55009 0.0
C1820 C 0.56164 0.15425 0.56436 0.0
C1821 C 0.55922 0.12866 0.55567 0.0
C1822 C 0.58289 0.1791 0.51169 0.0
C1823 C 0.55567 0.16322 0.58863 0.0
H1824 H 0.60261 0.25339 0.5933 0.0
H1825 H 0.53645 0.23567 0.55868 0.0
H1826 H 0.60568 0.19378 0.58924 0.0
H1827 H 0.6145 0.19906 0.56195 0.0
H1828 H 0.62286 0.2241 0.58871 0.0
H1829 H 0.518 0.19639 0.53387 0.0
H1830 H 0.53425 0.17673 0.52127 0.0
H1831 H 0.52359 0.17303 0.54814 0.0
H1832 H 0.5765 0.12876 0.50198 0.0
H1833 H 0.55303 0.11562 0.56632 0.0
H1834 H 0.59708 0.19483 0.52149 0.0
H1835 H 0.56979 0.18734 0.50653 0.0
H1836 H 0.58766 0.16924 0.49522 0.0
H1837 H 0.57048 0.1756 0.60085 0.0
H1838 H 0.54836 0.14748 0.59659 0.0
H1839 H 0.54391 0.17439 0.58747 0.0
C1840 C 0.59502 0.8137 0.39235 0.0
C1841 C 0.58068 0.78964 0.38913 0.0
C1842 C 0.6154 0.81718 0.38423 0.0
C1843 C 0.62148 0.79615 0.37213 0.0
C1844 C 0.60742 0.77178 0.3696 0.0
C1845 C 0.58732 0.76882 0.37828 0.0
C1846 C 0.62998 0.84348 0.38775 0.0
C1847 C 0.61324 0.74884 0.35685 0.0
C1848 C 0.65757 0.80334 0.32397 0.0
C1849 C 0.67749 0.80184 0.33475 0.0
C1850 C 0.63951 0.80215 0.33617 0.0
C1851 C 0.64129 0.79953 0.35993 0.0
C1852 C 0.66156 0.79882 0.37126 0.0
C1853 C 0.67939 0.7998 0.35849 0.0
C1854 C 0.61826 0.80287 0.32329 0.0
C1855 C 0.66439 0.79699 0.39684 0.0
H1856 H 0.59019 0.82993 0.40092 0.0
H1857 H 0.57645 0.75016 0.37578 0.0
H1858 H 0.64729 0.84442 0.393 0.0
H1859 H 0.62881 0.84929 0.37073 0.0
H1860 H 0.62522 0.8571 0.40153 0.0
H1861 H 0.60067 0.7312 0.35651 0.0
H1862 H 0.61517 0.74973 0.33821 0.0
H1863 H 0.62909 0.74823 0.36567 0.0
H1864 H 0.65584 0.80459 0.30557 0.0
H1865 H 0.69481 0.79898 0.36706 0.0
H1866 H 0.61269 0.81838 0.33341 0.0
H1867 H 0.60547 0.78515 0.32206 0.0
H1868 H 0.61968 0.80544 0.30499 0.0
H1869 H 0.66138 0.81353 0.40857 0.0
H1870 H 0.681 0.79603 0.40293 0.0
H1871 H 0.65224 0.78016 0.39907 0.0
C1872 C 0.08931 0.27993 0.45016 0.0
C1873 C 0.08687 0.27585 0.42542 0.0
C1874 C 0.08191 0.25996 0.46061 0.0
C1875 C 0.07136 0.23588 0.44573 0.0
C1876 C 0.06918 0.23174 0.42068 0.0
C1877 C 0.07732 0.25186 0.4108 0.0
C1878 C 0.08471 0.26472 0.48744 0.0
C1879 C 0.05719 0.20649 0.40437 0.0
C1880 C 0.07143 0.18121 0.47189 0.0
C1881 C 0.05062 0.17557 0.47868 0.0
C1882 C 0.07812 0.20054 0.46067 0.0
C1883 C 0.06372 0.21468 0.45638 0.0
C1884 C 0.04244 0.20878 0.46256 0.0
C1885 C 0.03612 0.18919 0.4738 0.0
C1886 C 0.10079 0.2062 0.45387 0.0
C1887 C 0.02665 0.22349 0.4579 0.0
H1888 H 0.096 0.29883 0.46119 0.0
H1889 H 0.07466 0.24926 0.39159 0.0
H1890 H 0.06852 0.25988 0.49341 0.0
H1891 H 0.09402 0.25254 0.49336 0.0
H1892 H 0.0934 0.28455 0.49636 0.0
H1893 H 0.05855 0.20602 0.38534 0.0
H1894 H 0.06352 0.19153 0.40926 0.0
H1895 H 0.03964 0.20205 0.40636 0.0
H1896 H 0.08283 0.17102 0.47608 0.0
H1897 H 0.01999 0.18467 0.47896 0.0
H1898 H 0.11024 0.22563 0.46322 0.0
H1899 H 0.0998 0.20491 0.43444 0.0
H1900 H 0.10989 0.19317 0.45832 0.0
H1901 H 0.03218 0.24239 0.47025 0.0
H1902 H 0.00985 0.21422 0.46056 0.0
H1903 H 0.02615 0.22608 0.43947 0.0
C1904 C 0.575 0.2778 0.19548 0.0
C1905 C 0.55709 0.26794 0.20608 0.0
C1906 C 0.59538 0.27495 0.2024 0.0
C1907 C 0.59745 0.2615 0.2199 0.0
C1908 C 0.57936 0.25141 0.23059 0.0
C1909 C 0.55931 0.2552 0.22381 0.0
C1910 C 0.61452 0.28588 0.19073 0.0
C1911 C 0.58108 0.23626 0.24876 0.0
C1912 C 0.64509 0.23471 0.21976 0.0
C1913 C 0.65961 0.25215 0.23869 0.0
C1914 C 0.62442 0.23718 0.21374 0.0
C1915 C 0.61862 0.25785 0.22687 0.0
C1916 C 0.63323 0.27544 0.24617 0.0
C1917 C 0.65372 0.27224 0.25204 0.0
C1918 C 0.60895 0.21789 0.19328 0.0
C1919 C 0.62739 0.29786 0.26009 0.0
H1920 H 0.57298 0.28749 0.1816 0.0
H1921 H 0.54518 0.24718 0.23153 0.0
H1922 H 0.62809 0.29856 0.20451 0.0
H1923 H 0.62068 0.27069 0.18097 0.0
H1924 H 0.61016 0.29654 0.17798 0.0
H1925 H 0.56483 0.22681 0.25272 0.0
H1926 H 0.58944 0.2218 0.24239 0.0
H1927 H 0.59099 0.24875 0.26558 0.0
H1928 H 0.64998 0.21915 0.20972 0.0
H1929 H 0.66532 0.28567 0.26658 0.0
H1930 H 0.60534 0.22682 0.17877 0.0
H1931 H 0.59324 0.21004 0.19925 0.0
H1932 H 0.61574 0.20225 0.18588 0.0
H1933 H 0.6242 0.30968 0.24802 0.0
H1934 H 0.64054 0.30953 0.27487 0.0
H1935 H 0.6122 0.29164 0.26765 0.0
C1936 C 0.6004 0.90453 0.90708 0.0
C1937 C 0.59225 0.88213 0.91371 0.0
C1938 C 0.60062 0.92741 0.92231 0.0
C1939 C 0.59221 0.92728 0.94409 0.0
C1940 C 0.58521 0.90466 0.95125 0.0
C1941 C 0.58557 0.8824 0.93602 0.0
C1942 C 0.60865 0.95143 0.91462 0.0
C1943 C 0.57567 0.90356 0.97407 0.0
C1944 C 0.59906 0.98207 0.996 0.0
C1945 C 0.57827 0.98569 0.99354 0.0
C1946 C 0.6046 0.96439 0.97882 0.0
C1947 C 0.58891 0.95015 0.95884 0.0
C1948 C 0.56833 0.95486 0.95556 0.0
C1949 C 0.56321 0.97261 0.97309 0.0
C1950 C 0.62655 0.95958 0.98303 0.0
C1951 C 0.55122 0.93997 0.93438 0.0
H1952 H 0.60549 0.90405 0.88971 0.0
H1953 H 0.57932 0.86484 0.94094 0.0
H1954 H 0.59464 0.9586 0.91022 0.0
H1955 H 0.62 0.96599 0.92936 0.0
H1956 H 0.61708 0.94875 0.89875 0.0
H1957 H 0.57301 0.88482 0.97798 0.0
H1958 H 0.5865 0.91773 0.98943 0.0
H1959 H 0.55972 0.90782 0.97254 0.0
H1960 H 0.61077 0.99243 0.01178 0.0
H1961 H 0.54717 0.9756 0.97121 0.0
H1962 H 0.63405 0.95797 0.96647 0.0
H1963 H 0.62438 0.94155 0.98825 0.0
H1964 H 0.63796 0.97461 0.9974 0.0
H1965 H 0.55798 0.94121 0.91759 0.0
H1966 H 0.53637 0.94664 0.93407 0.0
H1967 H 0.54637 0.91991 0.93475 0.0
C1968 C 0.92262 0.74762 0.67626 0.0
C1969 C 0.93926 0.73931 0.68621 0.0
C1970 C 0.90768 0.75506 0.69012 0.0
C1971 C 0.9094 0.75368 0.7142 0.0
C1972 C 0.92494 0.74333 0.72373 0.0
C1973 C 0.93952 0.73577 0.70939 0.0
C1974 C 0.8909 0.76572 0.67943 0.0
C1975 C 0.92688 0.74146 0.74938 0.0
C1976 C 0.88293 0.79532 0.7537 0.0
C1977 C 0.8629 0.77814 0.75348 0.0
C1978 C 0.89886 0.78742 0.74166 0.0
C1979 C 0.89417 0.76203 0.72906 0.0
C1980 C 0.87426 0.74461 0.72942 0.0
C1981 C 0.85891 0.75289 0.74174 0.0
C1982 C 0.92032 0.80623 0.74178 0.0
C1983 C 0.86865 0.71749 0.71576 0.0
H1984 H 0.92229 0.75018 0.65826 0.0
H1985 H 0.95224 0.72905 0.71703 0.0
H1986 H 0.87431 0.75601 0.68223 0.0
H1987 H 0.89423 0.78582 0.68846 0.0
H1988 H 0.89097 0.76406 0.66002 0.0
H1989 H 0.9409 0.73453 0.75443 0.0
H1990 H 0.92886 0.76006 0.76148 0.0
H1991 H 0.91172 0.72857 0.75234 0.0
H1992 H 0.88594 0.81484 0.7628 0.0
H1993 H 0.84325 0.73963 0.74104 0.0
H1994 H 0.92188 0.80855 0.72346 0.0
H1995 H 0.9341 0.79934 0.74766 0.0
H1996 H 0.92186 0.82484 0.75369 0.0
H1997 H 0.8683 0.71639 0.69641 0.0
H1998 H 0.85255 0.70628 0.71855 0.0
H1999 H 0.88129 0.70879 0.72122 0.0
C2000 C 0.14396 0.01801 0.86114 0.0
C2001 C 0.1346 0.02063 0.83914 0.0
C2002 C 0.13312 0.01942 0.88198 0.0
C2003 C 0.11185 0.02321 0.88161 0.0
C2004 C 0.10232 0.02568 0.85937 0.0
C2005 C 0.11362 0.02459 0.839 0.0
C2006 C 0.14448 0.01645 0.90455 0.0
C2007 C 0.07992 0.02961 0.85696 0.0
C2008 C 0.07262 1.00289 0.9272 0.0
C2009 C 0.07482 0.02515 0.94484 0.0
C2010 C 0.08476 1.00191 0.90751 0.0
C2011 C 0.09943 0.02391 0.9039 0.0
C2012 C 0.10153 0.04657 0.92153 0.0
C2013 C 0.08976 0.04685 0.94164 0.0
C2014 C 0.0815 0.97702 0.89016 0.0
C2015 C 0.1159 0.07096 0.91879 0.0
H2016 H 0.15991 0.01477 0.86217 0.0
H2017 H 0.10563 0.02651 0.82255 0.0
H2018 H 0.14531 0.03255 0.91956 0.0
H2019 H 0.13495 0.9993 0.90913 0.0
H2020 H 0.16129 0.01509 0.90289 0.0
H2021 H 0.07359 0.02865 0.83825 0.0
H2022 H 0.06819 0.01537 0.86342 0.0
H2023 H 0.08057 0.04825 0.86818 0.0
H2024 H 0.06115 0.98585 0.92877 0.0
H2025 H 0.09159 0.06444 0.95436 0.0
H2026 H 0.09748 0.97325 0.88816 0.0
H2027 H 0.07409 0.97753 0.87234 0.0
H2028 H 0.07079 0.9613 0.89587 0.0
H2029 H 0.13309 0.07029 0.91987 0.0
H2030 H 0.11492 0.08723 0.93268 0.0
H2031 H 0.11113 0.07385 0.90099 0.0
C2032 C 0.83983 0.4198 0.58469 0.0
C2033 C 0.82663 0.40241 0.56475 0.0
C2034 C 0.84637 0.41212 0.60455 0.0
C2035 C 0.83767 0.38696 0.60515 0.0
C2036 C 0.82232 0.3698 0.58599 0.0
C2037 C 0.81743 0.37765 0.5654 0.0
C2038 C 0.86415 0.43026 0.62362 0.0
C2039 C 0.81153 0.34323 0.58705 0.0
C2040 C 0.86442 0.35337 0.64234 0.0
C2041 C 0.8533 0.35586 0.66201 0.0
C2042 C 0.86079 0.36528 0.62432 0.0
C2043 C 0.84491 0.37862 0.6258 0.0
C2044 C 0.83543 0.38325 0.64674 0.0
C2045 C 0.84079 0.37286 0.66525 0.0
C2046 C 0.87257 0.36188 0.60293 0.0
C2047 C 0.81854 0.39761 0.64925 0.0
H2048 H 0.8471 0.4389 0.58359 0.0
H2049 H 0.8074 0.36439 0.54965 0.0
H2050 H 0.85857 0.4324 0.64126 0.0
H2051 H 0.87851 0.42282 0.62484 0.0
H2052 H 0.86948 0.44909 0.61994 0.0
H2053 H 0.8015 0.33181 0.56983 0.0
H2054 H 0.82382 0.33385 0.59196 0.0
H2055 H 0.80083 0.34357 0.60109 0.0
H2056 H 0.87444 0.34055 0.64001 0.0
H2057 H 0.83306 0.3756 0.68113 0.0
H2058 H 0.87759 0.37961 0.59714 0.0
H2059 H 0.86151 0.34754 0.58783 0.0
H2060 H 0.88727 0.35561 0.60678 0.0
H2061 H 0.82686 0.41782 0.65662 0.0
H2062 H 0.80739 0.39148 0.6618 0.0
H2063 H 0.80851 0.39538 0.63195 0.0
C2064 C 0.46195 0.01632 0.36008 0.0
C2065 C 0.47583 0.02137 0.34333 0.0
C2066 C 0.46992 0.01188 0.38139 0.0
C2067 C 0.49216 0.01282 0.38563 0.0
C2068 C 0.50524 0.01422 0.36729 0.0
C2069 C 0.49676 0.0183 0.34609 0.0
C2070 C 0.4553 0.00942 0.40028 0.0
C2071 C 0.52906 0.01503 0.37124 0.0
C2072 C 0.52757 0.04961 0.44301 0.0
C2073 C 0.53237 0.03041 0.4518 0.0
C2074 C 0.51262 0.04389 0.42232 0.0
C2075 C 0.50321 0.01842 0.41007 0.0
C2076 C 0.5074 0.99898 0.41957 0.0
C2077 C 0.52185 1.0053 0.44072 0.0
C2078 C 0.50769 0.06506 0.41304 0.0
C2079 C 0.49739 0.97175 0.40696 0.0
H2080 H 0.44539 0.01752 0.35737 0.0
H2081 H 0.50731 0.02164 0.33281 0.0
H2082 H 0.46001 0.99822 0.41223 0.0
H2083 H 0.45659 0.02835 0.41134 0.0
H2084 H 0.43796 1.00064 0.3921 0.0
H2085 H 0.53595 0.01263 0.35426 0.0
H2086 H 0.53851 0.03342 0.38307 0.0
H2087 H 0.53137 1.00026 0.38012 0.0
H2088 H 0.53533 0.06896 0.45242 0.0
H2089 H 0.52549 0.99066 0.44823 0.0
H2090 H 0.48979 0.06188 0.40919 0.0
H2091 H 0.51437 0.0658 0.39613 0.0
H2092 H 0.51482 0.08353 0.42592 0.0
H2093 H 0.47934 0.9674 0.40416 0.0
H2094 H 0.50217 0.95896 0.4171 0.0
H2095 H 0.50251 0.96787 0.38909 0.0
C2096 C 0.81864 0.75448 0.08154 0.0
C2097 C 0.80113 0.73746 0.06506 0.0
C2098 C 0.81666 0.76229 0.10574 0.0
C2099 C 0.79669 0.75291 0.11382 0.0
C2100 C 0.77858 0.73695 0.09708 0.0
C2101 C 0.781 0.72943 0.07296 0.0
C2102 C 0.83639 0.77949 0.12286 0.0
C2103 C 0.75693 0.72674 0.10487 0.0
C2104 C 0.80131 0.74665 0.17797 0.0
C2105 C 0.79453 0.76691 0.18978 0.0
C2106 C 0.8015 0.74159 0.15324 0.0
C2107 C 0.7954 0.75766 0.13999 0.0
C2108 C 0.78854 0.77823 0.15187 0.0
C2109 C 0.78788 0.7824 0.1766 0.0
C2110 C 0.80855 0.7192 0.14136 0.0
C2111 C 0.78278 0.79641 0.13868 0.0
H2112 H 0.83429 0.76095 0.0758 0.0
H2113 H 0.76729 0.71644 0.06048 0.0
H2114 H 0.83182 0.79435 0.13534 0.0
H2115 H 0.84325 0.76857 0.13367 0.0
H2116 H 0.84936 0.78846 0.11341 0.0
H2117 H 0.7441 0.71567 0.08955 0.0
H2118 H 0.75881 0.71458 0.11707 0.0
H2119 H 0.75135 0.7423 0.1149 0.0
H2120 H 0.8065 0.7347 0.18816 0.0
H2121 H 0.78306 0.79838 0.18581 0.0
H2122 H 0.82372 0.72553 0.13381 0.0
H2123 H 0.79584 0.70708 0.12638 0.0
H2124 H 0.81161 0.70779 0.15394 0.0
H2125 H 0.79769 0.80704 0.13301 0.0
H2126 H 0.77579 0.80998 0.14988 0.0
H2127 H 0.77094 0.78627 0.12232 0.0
C2128 C 0.10412 0.0257 0.69783 0.0
C2129 C 0.12127 0.01448 0.70035 0.0
C2130 C 0.09536 0.02861 0.67558 0.0
C2131 C 0.1035 0.02007 0.65434 0.0
C2132 C 0.12071 0.00854 0.65653 0.0
C2133 C 0.12937 0.00599 0.67924 0.0
C2134 C 0.07705 0.04081 0.67488 0.0
C2135 C 0.1302 0.99908 0.63476 0.0
C2136 C 0.06708 0.00804 0.59307 0.0
C2137 C 0.07461 0.03044 0.58575 0.0
C2138 C 0.07612 1.00448 0.61498 0.0
C2139 C 0.09395 0.02333 0.63019 0.0
C2140 C 0.10184 0.04586 0.62265 0.0
C2141 C 0.09195 0.04928 0.60104 0.0
C2142 C 0.06626 0.98046 0.62198 0.0
C2143 C 0.1209 0.06654 0.6375 0.0
H2144 H 0.09737 0.03249 0.71354 0.0
H2145 H 0.14246 0.99725 0.68037 0.0
H2146 H 0.08163 0.05716 0.66695 0.0
H2147 H 0.06229 0.02735 0.66338 0.0
H2148 H 0.07284 0.04721 0.69286 0.0
H2149 H 0.14244 0.9892 0.63873 0.0
H2150 H 0.11706 0.98612 0.62065 0.0
H2151 H 0.13813 0.01507 0.62745 0.0
H2152 H 0.05366 0.9933 0.58178 0.0
H2153 H 0.0982 0.06664 0.59583 0.0
H2154 H 0.06065 0.98472 0.63955 0.0
H2155 H 0.07876 0.97038 0.62387 0.0
H2156 H 0.0522 0.96784 0.60873 0.0
H2157 H 0.11608 0.07482 0.65458 0.0
H2158 H 0.12673 0.08166 0.62827 0.0
H2159 H 0.13463 0.05891 0.64189 0.0
C2160 C 0.80583 0.37659 0.43999 0.0
C2161 C 0.82703 0.3921 0.44826 0.0
C2162 C 0.80088 0.36032 0.41727 0.0
C2163 C 0.8175 0.36025 0.40274 0.0
C2164 C 0.8387 0.37665 0.41077 0.0
C2165 C 0.84326 0.39228 0.43362 0.0
C2166 C 0.77812 0.3429 0.40899 0.0
C2167 C 0.85654 0.37769 0.3953 0.0
C2168 C 0.81189 0.30288 0.35353 0.0
C2169 C 0.80493 0.31075 0.33379 0.0
C2170 C 0.81617 0.31899 0.3763 0.0
C2171 C 0.81282 0.34301 0.37904 0.0
C2172 C 0.80569 0.35093 0.35909 0.0
C2173 C 0.80204 0.33473 0.3366 0.0
C2174 C 0.82446 0.31049 0.39736 0.0
C2175 C 0.80171 0.37635 0.36147 0.0
H2176 H 0.7934 0.37665 0.45151 0.0
H2177 H 0.85955 0.4048 0.44007 0.0
H2178 H 0.77134 0.34528 0.39166 0.0
H2179 H 0.7787 0.32319 0.40612 0.0
H2180 H 0.76686 0.34613 0.42205 0.0
H2181 H 0.87234 0.39101 0.40469 0.0
H2182 H 0.85896 0.35885 0.38939 0.0
H2183 H 0.85173 0.38354 0.37905 0.0
H2184 H 0.81424 0.28436 0.35112 0.0
H2185 H 0.79652 0.34072 0.32122 0.0
H2186 H 0.81317 0.31105 0.41077 0.0
H2187 H 0.8406 0.32344 0.4061 0.0
H2188 H 0.82616 0.29121 0.39214 0.0
H2189 H 0.78817 0.37754 0.37193 0.0
H2190 H 0.79741 0.38008 0.34389 0.0
H2191 H 0.81639 0.39138 0.37127 0.0
C2192 C 0.48039 1.00349 0.24006 0.0
C2193 C 0.46827 0.02085 0.24109 0.0
C2194 C 0.47712 0.98418 0.21938 0.0
C2195 C 0.4626 0.98389 0.19948 0.0
C2196 C 0.44633 0.99644 0.20334 0.0
C2197 C 0.44931 0.01503 0.22453 0.0
C2198 C 0.49272 0.96834 0.21692 0.0
C2199 C 0.42908 0.99472 0.18322 0.0
C2200 C 0.49443 1.00501 0.1524 0.0
C2201 C 0.48829 0.98393 0.13347 0.0
C2202 C 0.48626 1.00492 0.17365 0.0
C2203 C 0.47118 0.98291 0.17637 0.0
C2204 C 0.46485 0.96116 0.15717 0.0
C2205 C 0.47381 0.96181 0.13584 0.0
C2206 C 0.49438 0.02874 0.19306 0.0
C2207 C 0.44937 0.93706 0.15916 0.0
H2208 H 0.49445 0.00722 0.2535 0.0
H2209 H 0.43925 0.02782 0.22583 0.0
H2210 H 0.48538 0.9504 0.20338 0.0
H2211 H 0.50775 0.97863 0.21118 0.0
H2212 H 0.49743 0.96438 0.23426 0.0
H2213 H 0.41484 0.99998 0.19009 0.0
H2214 H 0.43605 0.00784 0.17236 0.0
H2215 H 0.4235 0.97553 0.17142 0.0
H2216 H 0.50632 0.02174 0.15072 0.0
H2217 H 0.46961 0.94523 0.12122 0.0
H2218 H 0.50343 0.02516 0.20846 0.0
H2219 H 0.48041 0.03553 0.19843 0.0
H2220 H 0.50571 0.04409 0.18745 0.0
H2221 H 0.45901 0.92515 0.16501 0.0
H2222 H 0.43952 0.92652 0.14159 0.0
H2223 H 0.43819 0.94021 0.1723 0.0
C2224 C 0.81844 0.73211 0.9267 0.0
C2225 C 0.80171 0.73301 0.94073 0.0
C2226 C 0.81886 0.74085 0.9058 0.0
C2227 C 0.80254 0.75173 0.89886 0.0
C2228 C 0.78567 0.75303 0.91306 0.0
C2229 C 0.78517 0.74315 0.93355 0.0
C2230 C 0.83697 0.73849 0.89122 0.0
C2231 C 0.76835 0.76521 0.90683 0.0
C2232 C 0.82085 0.79416 0.85709 0.0
C2233 C 0.81022 0.77898 0.83466 0.0
C2234 C 0.81742 0.78618 0.87819 0.0
C2235 C 0.80364 0.76195 0.87694 0.0
C2236 C 0.79269 0.74667 0.85431 0.0
C2237 C 0.79578 0.75557 0.83357 0.0
C2238 C 0.82886 0.80359 0.90183 0.0
C2239 C 0.77858 0.72038 0.85182 0.0
H2240 H 0.83121 0.72412 0.93192 0.0
H2241 H 0.77226 0.74404 0.9443 0.0
H2242 H 0.8302 0.73022 0.8721 0.0
H2243 H 0.84816 0.75731 0.89263 0.0
H2244 H 0.84668 0.72671 0.89726 0.0
H2245 H 0.75796 0.76745 0.92104 0.0
H2246 H 0.77599 0.78392 0.90381 0.0
H2247 H 0.75775 0.75369 0.89003 0.0
H2248 H 0.83179 0.8125 0.8582 0.0
H2249 H 0.78748 0.74378 0.8164 0.0
H2250 H 0.8417 0.79631 0.90939 0.0
H2251 H 0.81713 0.80456 0.91474 0.0
H2252 H 0.83663 0.82283 0.90012 0.0
H2253 H 0.78892 0.70874 0.85678 0.0
H2254 H 0.76997 0.71152 0.83336 0.0
H2255 H 0.76631 0.72032 0.86415 0.0
C2256 C 0.83393 0.08255 0.03048 0.0
C2257 C 0.82533 0.09697 0.01771 0.0
C2258 C 0.8524 0.07512 0.02427 0.0
C2259 C 0.8619 0.08179 0.00454 0.0
C2260 C 0.85297 0.09605 0.99142 0.0
C2261 C 0.83491 0.10361 0.99829 0.0
C2262 C 0.86182 0.06025 0.03885 0.0
C2263 C 0.86185 0.10267 0.96962 0.0
C2264 C 0.92038 0.07998 1.00261 0.0
C2265 C 0.91747 0.05566 0.98867 0.0
C2266 C 0.90242 0.0891 0.00726 0.0
C2267 C 0.88111 0.0736 0.99759 0.0
C2268 C 0.87813 0.04984 0.98211 0.0
C2269 C 0.89632 0.04103 0.97804 0.0
C2270 C 0.90615 0.11504 0.02301 0.0
C2271 C 0.85566 0.03331 0.97057 0.0
H2272 H 0.82643 0.0774 0.0454 0.0
H2273 H 0.82791 0.11428 0.98797 0.0
H2274 H 0.86169 0.04197 0.02731 0.0
H2275 H 0.87908 0.07047 0.04636 0.0
H2276 H 0.85264 0.05675 0.05373 0.0
H2277 H 0.85616 0.11806 0.96466 0.0
H2278 H 0.87994 0.10831 0.97236 0.0
H2279 H 0.85615 0.08598 0.95435 0.0
H2280 H 0.93669 0.09175 0.01026 0.0
H2281 H 0.89383 0.02222 0.96728 0.0
H2282 H 0.89846 0.11375 0.03927 0.0
H2283 H 0.89832 0.12633 0.01357 0.0
H2284 H 0.92377 0.12509 0.02845 0.0
H2285 H 0.84651 0.02652 0.98436 0.0
H2286 H 0.85634 0.01683 0.95674 0.0
H2287 H 0.84632 0.04406 0.96222 0.0
C2288 C 0.39602 0.43569 0.0496 0.0
C2289 C 0.37863 0.43058 0.03115 0.0
C2290 C 0.41723 0.44955 0.04798 0.0
C2291 C 0.42147 0.45792 0.02707 0.0
C2292 C 0.40411 0.45182 0.00793 0.0
C2293 C 0.38285 0.43863 0.01037 0.0
C2294 C 0.43494 0.45604 0.06909 0.0
C2295 C 0.40794 0.45951 0.98499 0.0
C2296 C 0.47026 0.51563 0.03503 0.0
C2297 C 0.48659 0.50512 0.02675 0.0
C2298 C 0.44888 0.50059 0.03432 0.0
C2299 C 0.44375 0.4742 0.02589 0.0
C2300 C 0.46022 0.46352 0.01742 0.0
C2301 C 0.4813 0.47913 0.0176 0.0
C2302 C 0.43182 0.51297 0.04288 0.0
C2303 C 0.4558 0.43553 0.00887 0.0
H2304 H 0.39284 0.42973 0.0658 0.0
H2305 H 0.36951 0.43455 0.99597 0.0
H2306 H 0.44951 0.45065 0.06343 0.0
H2307 H 0.44006 0.4766 0.07669 0.0
H2308 H 0.42948 0.44668 0.08334 0.0
H2309 H 0.39287 0.45304 0.97167 0.0
H2310 H 0.41411 0.4802 0.98859 0.0
H2311 H 0.42061 0.45164 0.97715 0.0
H2312 H 0.47417 0.53575 0.04185 0.0
H2313 H 0.49386 0.47092 0.01126 0.0
H2314 H 0.42619 0.50669 0.05869 0.0
H2315 H 0.41738 0.50732 0.02882 0.0
H2316 H 0.43805 0.53373 0.04774 0.0
H2317 H 0.4534 0.42686 0.0242 0.0
H2318 H 0.46944 0.4303 1.00052 0.0
H2319 H 0.44059 0.42749 0.99582 0.0
C2320 C 0.39635 0.64069 0.75651 0.0
C2321 C 0.392 0.62499 0.77254 0.0
C2322 C 0.3864 0.66079 0.75603 0.0
C2323 C 0.37141 0.66632 0.77196 0.0
C2324 C 0.36704 0.65053 0.7881 0.0
C2325 C 0.37706 0.63065 0.78814 0.0
C2326 C 0.39219 0.67646 0.73839 0.0
C2327 C 0.35157 0.65463 0.8057 0.0
C2328 C 0.35835 0.73228 0.78504 0.0
C2329 C 0.33725 0.72738 0.77214 0.0
C2330 C 0.3694 0.71313 0.78524 0.0
C2331 C 0.35996 0.68779 0.77159 0.0
C2332 C 0.33886 0.68297 0.7582 0.0
C2333 C 0.32794 0.70223 0.75888 0.0
C2334 C 0.39129 0.72007 0.8006 0.0
C2335 C 0.32769 0.65717 0.74268 0.0
H2336 H 0.40788 0.63757 0.74443 0.0
H2337 H 0.37312 0.6194 0.80089 0.0
H2338 H 0.37714 0.6774 0.72808 0.0
H2339 H 0.40133 0.69588 0.74808 0.0
H2340 H 0.40237 0.66899 0.72579 0.0
H2341 H 0.35171 0.64325 0.81904 0.0
H2342 H 0.35583 0.67468 0.81526 0.0
H2343 H 0.33472 0.6495 0.79605 0.0
H2344 H 0.36617 0.75118 0.79556 0.0
H2345 H 0.3119 0.69751 0.7485 0.0
H2346 H 0.40394 0.71734 0.78925 0.0
H2347 H 0.39087 0.7076 0.81299 0.0
H2348 H 0.39618 0.73983 0.81118 0.0
H2349 H 0.338 0.65209 0.72911 0.0
H2350 H 0.31139 0.65589 0.7334 0.0
H2351 H 0.32571 0.64312 0.75355 0.0
C2352 C 0.22397 0.58983 0.51482 0.0
C2353 C 0.22401 0.58948 0.4906 0.0
C2354 C 0.20654 0.59437 0.52625 0.0
C2355 C 0.18843 0.59744 0.51282 0.0
C2356 C 0.18949 0.59987 0.48916 0.0
C2357 C 0.20726 0.59562 0.47818 0.0
C2358 C 0.20641 0.59314 0.55194 0.0
C2359 C 0.17079 0.60434 0.47474 0.0
C2360 C 0.13373 0.55811 0.51987 0.0
C2361 C 0.12421 0.5761 0.53099 0.0
C2362 C 0.15484 0.565 0.51455 0.0
C2363 C 0.1668 0.59066 0.52065 0.0
C2364 C 0.15755 0.60893 0.53291 0.0
C2365 C 0.13616 0.60133 0.53805 0.0
C2366 C 0.16383 0.54479 0.50125 0.0
C2367 C 0.16963 0.63644 0.54023 0.0
H2368 H 0.23673 0.58478 0.52445 0.0
H2369 H 0.20758 0.59597 0.45961 0.0
H2370 H 0.1991 0.60734 0.56156 0.0
H2371 H 0.19633 0.57439 0.5527 0.0
H2372 H 0.22314 0.59624 0.56124 0.0
H2373 H 0.17524 0.60914 0.4579 0.0
H2374 H 0.15688 0.58712 0.47029 0.0
H2375 H 0.16527 0.61966 0.48534 0.0
H2376 H 0.12417 0.53861 0.51432 0.0
H2377 H 0.12847 0.61516 0.5464 0.0
H2378 H 0.17929 0.5449 0.51152 0.0
H2379 H 0.16745 0.54839 0.48377 0.0
H2380 H 0.15228 0.52577 0.49799 0.0
H2381 H 0.17467 0.64197 0.55984 0.0
H2382 H 0.15866 0.6477 0.53597 0.0
H2383 H 0.18438 0.64131 0.5316 0.0
C2384 C 0.71361 0.98338 0.74561 0.0
C2385 C 0.7156 0.00742 0.75913 0.0
C2386 C 0.7291 0.97113 0.7505 0.0
C2387 C 0.74693 0.98376 0.76886 0.0
C2388 C 0.75048 0.00924 0.7802 0.0
C2389 C 0.7346 0.0209 0.77513 0.0
C2390 C 0.72484 0.94384 0.73814 0.0
C2391 C 0.7697 0.02328 0.79942 0.0
C2392 C 0.76405 0.94099 0.80309 0.0
C2393 C 0.78165 0.93685 0.79195 0.0
C2394 C 0.753 0.95726 0.79636 0.0
C2395 C 0.76004 0.96935 0.77826 0.0
C2396 C 0.7785 0.96607 0.76793 0.0
C2397 C 0.7891 0.94968 0.7749 0.0
C2398 C 0.73328 0.96063 0.80773 0.0
C2399 C 0.78628 0.97871 0.74861 0.0
H2400 H 0.69883 0.97318 0.73319 0.0
H2401 H 0.7361 0.03979 0.78517 0.0
H2402 H 0.74013 0.93951 0.73366 0.0
H2403 H 0.71809 0.93216 0.75029 0.0
H2404 H 0.71289 0.93838 0.72154 0.0
H2405 H 0.77122 0.04365 0.80462 0.0
H2406 H 0.76776 0.01572 0.81547 0.0
H2407 H 0.78508 0.02066 0.7934 0.0
H2408 H 0.75846 0.93077 0.81622 0.0
H2409 H 0.80287 0.94622 0.76651 0.0
H2410 H 0.71843 0.95302 0.79412 0.0
H2411 H 0.73501 0.98083 0.81487 0.0
H2412 H 0.7308 0.95101 0.82246 0.0
H2413 H 0.77426 0.97047 0.73208 0.0
H2414 H 0.80239 0.97648 0.74455 0.0
H2415 H 0.78754 0.99898 0.75386 0.0
C2416 C 0.7474 0.91642 0.50456 0.0
C2417 C 0.75315 0.91966 0.52918 0.0
C2418 C 0.72911 0.92311 0.49557 0.0
C2419 C 0.71614 0.93284 0.51158 0.0
C2420 C 0.72112 0.93442 0.53623 0.0
C2421 C 0.73968 0.92819 0.54472 0.0
C2422 C 0.72455 0.92111 0.46918 0.0
C2423 C 0.70739 0.9439 0.55389 0.0
C2424 C 0.68844 0.98232 0.50247 0.0
C2425 C 0.6663 0.96914 0.49945 0.0
C2426 C 0.70483 0.97028 0.50471 0.0
C2427 C 0.69903 0.94427 0.50357 0.0
C2428 C 0.67666 0.93046 0.49851 0.0
C2429 C 0.66053 0.94313 0.49688 0.0
C2430 C 0.72839 0.98582 0.50998 0.0
C2431 C 0.66981 0.90249 0.4957 0.0
H2432 H 0.75783 0.90995 0.49245 0.0
H2433 H 0.74392 0.93045 0.56371 0.0
H2434 H 0.70676 0.91527 0.46272 0.0
H2435 H 0.73149 0.93972 0.46563 0.0
H2436 H 0.73211 0.90764 0.45873 0.0
H2437 H 0.71265 0.9426 0.57221 0.0
H2438 H 0.70847 0.96376 0.55431 0.0
H2439 H 0.69 0.93299 0.54835 0.0
H2440 H 0.693 1.00243 0.5045 0.0
H2441 H 0.64341 0.9328 0.49408 0.0
H2442 H 0.73813 0.9772 0.49763 0.0
H2443 H 0.73531 0.98645 0.52837 0.0
H2444 H 0.73028 1.00534 0.5084 0.0
H2445 H 0.67781 0.89338 0.4816 0.0
H2446 H 0.65185 0.89434 0.49094 0.0
H2447 H 0.67521 0.89799 0.51251 0.0
C2448 C 0.36768 0.48065 0.7683 0.0
C2449 C 0.38988 0.48918 0.76581 0.0
C2450 C 0.35708 0.45501 0.76701 0.0
C2451 C 0.36884 0.4367 0.76417 0.0
C2452 C 0.3913 0.44517 0.76159 0.0
C2453 C 0.40133 0.47088 0.76209 0.0
C2454 C 0.33316 0.44765 0.76929 0.0
C2455 C 0.40502 0.42712 0.75894 0.0
C2456 C 0.34396 0.37666 0.78646 0.0
C2457 C 0.33299 0.3586 0.76543 0.0
C2458 C 0.35623 0.40141 0.78622 0.0
C2459 C 0.35768 0.40915 0.76444 0.0
C2460 C 0.34712 0.39071 0.74311 0.0
C2461 C 0.3349 0.36615 0.74389 0.0
C2462 C 0.36699 0.4197 0.8096 0.0
C2463 C 0.34765 0.3973 0.71932 0.0
H2464 H 0.35851 0.49429 0.7716 0.0
H2465 H 0.41855 0.47689 0.76077 0.0
H2466 H 0.32421 0.43089 0.75497 0.0
H2467 H 0.33114 0.44267 0.78659 0.0
H2468 H 0.32558 0.46299 0.76839 0.0
H2469 H 0.42254 0.43668 0.75943 0.0
H2470 H 0.40348 0.41702 0.77337 0.0
H2471 H 0.39907 0.41288 0.74176 0.0
H2472 H 0.34209 0.3718 0.80339 0.0
H2473 H 0.32596 0.35305 0.72752 0.0
H2474 H 0.35896 0.43495 0.81309 0.0
H2475 H 0.3844 0.42847 0.80873 0.0
H2476 H 0.36606 0.41065 0.82479 0.0
H2477 H 0.33772 0.4105 0.7182 0.0
H2478 H 0.3411 0.38052 0.7042 0.0
H2479 H 0.36457 0.40686 0.71738 0.0
C2480 C 0.20677 0.60578 0.23373 0.0
C2481 C 0.19763 0.60653 0.25472 0.0
C2482 C 0.21964 0.6278 0.22965 0.0
C2483 C 0.22268 0.65049 0.24683 0.0
C2484 C 0.21107 0.65162 0.2664 0.0
C2485 C 0.19882 0.62933 0.27036 0.0
C2486 C 0.23181 0.62646 0.20851 0.0
C2487 C 0.21321 0.67598 0.28428 0.0
C2488 C 0.27818 0.6959 0.26416 0.0
C2489 C 0.2755 0.71383 0.25219 0.0
C2490 C 0.2612 0.67425 0.26141 0.0
C2491 C 0.24115 0.67165 0.24727 0.0
C2492 C 0.2386 0.68992 0.2351 0.0
C2493 C 0.25626 0.71064 0.23718 0.0
C2494 C 0.2643 0.65494 0.27468 0.0
C2495 C 0.21718 0.68833 0.22085 0.0
H2496 H 0.20524 0.58792 0.22154 0.0
H2497 H 0.19087 0.62962 0.28614 0.0
H2498 H 0.23045 0.64136 0.19937 0.0
H2499 H 0.2494 0.62962 0.21477 0.0
H2500 H 0.22565 0.60801 0.19543 0.0
H2501 H 0.20044 0.67405 0.29608 0.0
H2502 H 0.22941 0.68221 0.29562 0.0
H2503 H 0.2121 0.69088 0.275 0.0
H2504 H 0.29322 0.69914 0.27601 0.0
H2505 H 0.25457 0.72525 0.22842 0.0
H2506 H 0.25863 0.63587 0.26264 0.0
H2507 H 0.25443 0.65524 0.28946 0.0
H2508 H 0.28163 0.65849 0.28237 0.0
H2509 H 0.21541 0.67586 0.20289 0.0
H2510 H 0.2164 0.707 0.21854 0.0
H2511 H 0.2031 0.6805 0.22946 0.0
C2512 C 0.53445 0.71203 0.46787 0.0
C2513 C 0.51274 0.70743 0.45745 0.0
C2514 C 0.54103 0.69446 0.47858 0.0
C2515 C 0.52581 0.67119 0.47779 0.0
C2516 C 0.50384 0.66665 0.46748 0.0
C2517 C 0.49753 0.68496 0.45791 0.0
C2518 C 0.56432 0.70064 0.49042 0.0
C2519 C 0.48706 0.64209 0.46594 0.0
C2520 C 0.54508 0.61291 0.47677 0.0
C2521 C 0.54198 0.60883 0.49931 0.0
C2522 C 0.54068 0.63364 0.46994 0.0
C2523 C 0.53292 0.65077 0.48605 0.0
C2524 C 0.53039 0.64703 0.50919 0.0
C2525 C 0.53496 0.62607 0.51554 0.0
C2526 C 0.54352 0.63665 0.44509 0.0
C2527 C 0.52279 0.66507 0.52723 0.0
H2528 H 0.54626 0.72945 0.46781 0.0
H2529 H 0.48075 0.68121 0.44981 0.0
H2530 H 0.56484 0.69594 0.50803 0.0
H2531 H 0.57315 0.68927 0.4793 0.0
H2532 H 0.5731 0.72075 0.49298 0.0
H2533 H 0.47092 0.64098 0.45638 0.0
H2534 H 0.49271 0.62626 0.45657 0.0
H2535 H 0.48496 0.63959 0.48412 0.0
H2536 H 0.55055 0.59952 0.46428 0.0
H2537 H 0.53267 0.62288 0.53303 0.0
H2538 H 0.55476 0.65528 0.44591 0.0
H2539 H 0.52757 0.63563 0.4352 0.0
H2540 H 0.5501 0.62203 0.4349 0.0
H2541 H 0.53558 0.68331 0.53267 0.0
H2542 H 0.51942 0.65812 0.5434 0.0
H2543 H 0.50781 0.66857 0.51936 0.0
C2544 C 0.67237 0.32284 0.66664 0.0
C2545 C 0.65215 0.30892 0.67089 0.0
C2546 C 0.69251 0.32076 0.67739 0.0
C2547 C 0.69274 0.3043 0.69277 0.0
C2548 C 0.67237 0.28986 0.69658 0.0
C2549 C 0.65265 0.29235 0.68578 0.0
C2550 C 0.71367 0.33652 0.67258 0.0
C2551 C 0.67125 0.27229 0.71291 0.0
C2552 C 0.74438 0.28469 0.7116 0.0
C2553 C 0.75287 0.30137 0.73401 0.0
C2554 C 0.72527 0.28572 0.69774 0.0
C2555 C 0.71397 0.30359 0.70646 0.0
C2556 C 0.72243 0.32016 0.72919 0.0
C2557 C 0.74163 0.31905 0.74234 0.0
C2558 C 0.71708 0.26758 0.67373 0.0
C2559 C 0.711 0.33908 0.73991 0.0
H2560 H 0.67251 0.33571 0.65529 0.0
H2561 H 0.63741 0.28128 0.6894 0.0
H2562 H 0.72327 0.34911 0.68953 0.0
H2563 H 0.72362 0.32426 0.66505 0.0
H2564 H 0.71102 0.34808 0.66002 0.0
H2565 H 0.65444 0.26003 0.7117 0.0
H2566 H 0.68225 0.26028 0.70867 0.0
H2567 H 0.67679 0.28338 0.73161 0.0
H2568 H 0.7527 0.2709 0.70484 0.0
H2569 H 0.74769 0.33204 0.75961 0.0
H2570 H 0.71648 0.27807 0.65973 0.0
H2571 H 0.7002 0.25602 0.67339 0.0
H2572 H 0.72755 0.25494 0.66925 0.0
H2573 H 0.71071 0.3523 0.72842 0.0
H2574 H 0.71906 0.35 0.75813 0.0
H2575 H 0.69381 0.32948 0.74083 0.0
C2576 C 0.03006 0.34487 0.94956 0.0
C2577 C 0.01386 0.32817 0.95768 0.0
C2578 C 0.03511 0.37087 0.95888 0.0
C2579 C 0.02401 0.38037 0.9771 0.0
C2580 C 0.00853 0.3636 0.98627 0.0
C2581 C 1.00356 0.33773 0.97638 0.0
C2582 C 0.05168 0.38816 0.94855 0.0
C2583 C 0.99652 0.37307 0.00586 0.0
C2584 C 0.0468 0.44777 0.01323 0.0
C2585 C 0.03304 0.45953 1.00297 0.0
C2586 C 0.04408 0.42199 0.00503 0.0
C2587 C 0.02754 0.40783 0.98572 0.0
C2588 C 0.0138 0.41975 0.97505 0.0
C2589 C 0.01651 0.44541 0.98405 0.0
C2590 C 0.0589 0.40995 0.01703 0.0
C2591 C 0.99658 0.40553 0.95376 0.0
H2592 H 0.03815 0.33774 0.93512 0.0
H2593 H 0.99111 0.32504 0.98288 0.0
H2594 H 0.04436 0.40175 0.94218 0.0
H2595 H 0.06571 0.39912 0.96254 0.0
H2596 H 0.0579 0.37782 0.93347 0.0
H2597 H 0.98643 0.35764 0.01247 0.0
H2598 H 0.00826 0.38646 0.02105 0.0
H2599 H 0.98567 0.3833 0.99912 0.0
H2600 H 0.05973 0.45877 0.02771 0.0
H2601 H 0.00619 0.45458 0.97567 0.0
H2602 H 0.06845 0.40193 0.00403 0.0
H2603 H 0.04904 0.3943 0.02351 0.0
H2604 H 0.07046 0.42346 0.03233 0.0
H2605 H 0.00442 0.39775 0.93877 0.0
H2606 H 0.98714 0.41753 0.94766 0.0
H2607 H 0.98507 0.38949 0.95814 0.0
C2608 C 0.01337 0.7858 0.13881 0.0
C2609 C 0.03304 0.79102 0.15422 0.0
C2610 C 0.99299 0.78013 0.14681 0.0
C2611 C 0.99209 0.77984 0.17102 0.0
C2612 C 0.01176 0.78353 0.18634 0.0
C2613 C 0.03195 0.78893 0.17775 0.0
C2614 C 0.97255 0.77573 0.12956 0.0
C2615 C 0.01153 0.78287 0.21215 0.0
C2616 C 0.94612 0.79897 0.20073 0.0
C2617 C 0.93258 0.77597 0.20257 0.0
C2618 C 0.9651 0.8003 0.18997 0.0
C2619 C 0.971 0.77813 0.18088 0.0
C2620 C 0.95707 0.75475 0.18191 0.0
C2621 C 0.93805 0.75394 0.19264 0.0
C2622 C 0.97918 0.82561 0.18888 0.0
C2623 C 0.96223 0.73055 0.17171 0.0
H2624 H 0.01373 0.78647 0.12047 0.0
H2625 H 0.04696 0.79279 0.18982 0.0
H2626 H 0.95947 0.75964 0.13166 0.0
H2627 H 0.96643 0.7925 0.13333 0.0
H2628 H 0.97555 0.77214 0.11074 0.0
H2629 H 0.02804 0.78524 0.22159 0.0
H2630 H 0.00501 0.798 0.22141 0.0
H2631 H 1.00055 0.7648 0.21345 0.0
H2632 H 0.94233 0.81617 0.20847 0.0
H2633 H 0.92751 0.73599 0.19336 0.0
H2634 H 0.98127 0.8258 0.17014 0.0
H2635 H 0.99566 0.82934 0.19903 0.0
H2636 H 0.97215 0.84103 0.19626 0.0
H2637 H 0.96053 0.72711 0.15201 0.0
H2638 H 0.9512 0.71426 0.17631 0.0
H2639 H 0.97935 0.73175 0.17827 0.0
C2640 C 0.49466 0.31941 0.10386 0.0
C2641 C 0.50376 0.29976 0.1047 0.0
C2642 C 0.50596 0.34014 0.09624 0.0
C2643 C 0.52639 0.3406 0.08853 0.0
C2644 C 0.53577 0.32085 0.08968 0.0
C2645 C 0.52443 0.30076 0.09819 0.0
C2646 C 0.49585 0.36134 0.09603 0.0
C2647 C 0.55762 0.3209 0.08182 0.0
C2648 C 0.53547 0.37483 0.04007 0.0
C2649 C 0.54842 0.39843 0.05288 0.0
C2650 C 0.52911 0.35545 0.05141 0.0
C2651 C 0.53612 0.35986 0.07611 0.0
C2652 C 0.55038 0.38331 0.0889 0.0
C2653 C 0.55616 0.40261 0.0771 0.0
C2654 C 0.5139 0.33068 0.0372 0.0
C2655 C 0.55861 0.38845 0.11515 0.0
H2656 H 0.47905 0.31891 0.10991 0.0
H2657 H 0.53163 0.28575 0.09968 0.0
H2658 H 0.50776 0.37951 0.10525 0.0
H2659 H 0.49137 0.36208 0.07735 0.0
H2660 H 0.48098 0.35921 0.10482 0.0
H2661 H 0.56193 0.30331 0.08243 0.0
H2662 H 0.55762 0.3234 0.06337 0.0
H2663 H 0.57052 0.33689 0.09354 0.0
H2664 H 0.52947 0.37192 0.02133 0.0
H2665 H 0.56631 0.42099 0.08681 0.0
H2666 H 0.49792 0.32751 0.04382 0.0
H2667 H 0.52067 0.3151 0.03954 0.0
H2668 H 0.51104 0.32989 0.01787 0.0
H2669 H 0.54565 0.39239 0.12556 0.0
H2670 H 0.57326 0.40491 0.1209 0.0
H2671 H 0.56269 0.37198 0.1196 0.0
C2672 C 0.03223 0.30667 0.34069 0.0
C2673 C 0.04987 0.32442 0.33603 0.0
C2674 C 0.01096 0.30567 0.33265 0.0
C2675 C 0.00743 0.32269 0.31935 0.0
C2676 C 0.02519 0.34005 0.3137 0.0
C2677 C 0.04651 0.34066 0.32213 0.0
C2678 C 0.99235 0.28701 0.3391 0.0
C2679 C 0.02161 0.35866 0.29984 0.0
C2680 C 0.95117 0.30668 0.28507 0.0
C2681 C 0.94159 0.32136 0.30087 0.0
C2682 C 0.9729 0.30716 0.29077 0.0
C2683 C 0.98502 0.32295 0.3125 0.0
C2684 C 0.97531 0.33766 0.32859 0.0
C2685 C 0.95352 0.33653 0.32259 0.0
C2686 C 0.98287 0.29077 0.27371 0.0
C2687 C 0.98777 0.35426 0.35221 0.0
H2688 H 0.0351 0.29392 0.3513 0.0
H2689 H 0.06035 0.35445 0.31888 0.0
H2690 H 0.98169 0.29684 0.34887 0.0
H2691 H 0.98215 0.27404 0.32265 0.0
H2692 H 0.99817 0.27576 0.35037 0.0
H2693 H 0.0371 0.3696 0.29546 0.0
H2694 H 0.01024 0.34886 0.28305 0.0
H2695 H 0.01396 0.37188 0.31046 0.0
H2696 H 0.94166 0.29493 0.26834 0.0
H2697 H 0.94592 0.34799 0.33458 0.0
H2698 H 0.98809 0.27728 0.28251 0.0
H2699 H 0.99767 0.30242 0.26871 0.0
H2700 H 0.97132 0.28009 0.25723 0.0
H2701 H 0.99139 0.34247 0.36413 0.0
H2702 H 0.97846 0.36653 0.36131 0.0
H2703 H 1.0036 0.3662 0.34968 0.0
C2704 C 0.0151 0.69532 0.60591 0.0
C2705 C 0.99462 0.6887 0.61321 0.0
C2706 C 0.02428 0.67691 0.59483 0.0
C2707 C 0.01296 0.6514 0.59187 0.0
C2708 C 0.99302 0.6447 0.60089 0.0
C2709 C 0.98376 0.66353 0.61102 0.0
C2710 C 0.04528 0.68476 0.5849 0.0
C2711 C 0.98129 0.61766 0.59929 0.0
C2712 C 0.01787 0.60486 0.53734 0.0
C2713 C 0.03421 0.59545 0.54614 0.0
C2714 C 0.01121 0.62347 0.55204 0.0
C2715 C 0.02032 0.63187 0.57644 0.0
C2716 C 0.03657 0.62205 0.58558 0.0
C2717 C 0.04391 0.60454 0.57001 0.0
C2718 C 0.99458 0.63432 0.54136 0.0
C2719 C 0.04627 0.62994 0.61162 0.0
H2720 H 0.02347 0.71495 0.60796 0.0
H2721 H 0.96816 0.65866 0.61732 0.0
H2722 H 0.05712 0.67515 0.59053 0.0
H2723 H 0.04188 0.67921 0.56512 0.0
H2724 H 0.05299 0.7053 0.59064 0.0
H2725 H 0.9675 0.61581 0.60975 0.0
H2726 H 0.97479 0.60773 0.58043 0.0
H2727 H 0.99285 0.60813 0.60588 0.0
H2728 H 0.01057 0.598 0.51875 0.0
H2729 H 0.05694 0.59768 0.57663 0.0
H2730 H 1.00094 0.65502 0.54533 0.0
H2731 H 0.97941 0.62988 0.54938 0.0
H2732 H 0.99034 0.62693 0.52173 0.0
H2733 H 0.05964 0.64758 0.61498 0.0
H2734 H 0.05327 0.61556 0.6169 0.0
H2735 H 0.03392 0.63332 0.6232 0.0
C2736 C 0.66481 0.84478 0.8225 0.0
C2737 C 0.66273 0.83743 0.84394 0.0
C2738 C 0.68182 0.84116 0.80992 0.0
C2739 C 0.69703 0.83021 0.81921 0.0
C2740 C 0.69589 0.82427 0.84158 0.0
C2741 C 0.67869 0.82801 0.85375 0.0
C2742 C 0.68276 0.84764 0.78604 0.0
C2743 C 0.7123 0.8131 0.8522 0.0
C2744 C 0.72604 0.79383 0.77757 0.0
C2745 C 0.74642 0.81138 0.78052 0.0
C2746 C 0.70947 0.79999 0.7896 0.0
C2747 C 0.71371 0.82406 0.80509 0.0
C2748 C 0.73404 0.84204 0.80758 0.0
C2749 C 0.75003 0.8356 0.79489 0.0
C2750 C 0.68777 0.78048 0.78649 0.0
C2751 C 0.73923 0.86775 0.82427 0.0
H2752 H 0.65251 0.85206 0.81486 0.0
H2753 H 0.67724 0.82254 0.87046 0.0
H2754 H 0.69929 0.85938 0.78531 0.0
H2755 H 0.67944 0.8302 0.77174 0.0
H2756 H 0.67069 0.85778 0.78219 0.0
H2757 H 0.70928 0.81003 0.87003 0.0
H2758 H 0.71172 0.79487 0.84023 0.0
H2759 H 0.72905 0.82562 0.8539 0.0
H2760 H 0.72329 0.77507 0.76654 0.0
H2761 H 0.76586 0.84919 0.79749 0.0
H2762 H 0.67434 0.78807 0.78096 0.0
H2763 H 0.68498 0.77565 0.80372 0.0
H2764 H 0.68687 0.76305 0.77301 0.0
H2765 H 0.72913 0.87869 0.81745 0.0
H2766 H 0.7567 0.87837 0.82614 0.0
H2767 H 0.73525 0.86624 0.84221 0.0
C2768 C 0.4655 0.54959 0.66992 0.0
C2769 C 0.47848 0.56635 0.69081 0.0
C2770 C 0.47338 0.54589 0.64724 0.0
C2771 C 0.49492 0.55915 0.64456 0.0
C2772 C 0.50795 0.5761 0.66557 0.0
C2773 C 0.49976 0.57937 0.68783 0.0
C2774 C 0.45864 0.52729 0.62602 0.0
C2775 C 0.5308 0.59119 0.66464 0.0
C2776 C 0.52605 0.53595 0.5926 0.0
C2777 C 0.52401 0.55076 0.57627 0.0
C2778 C 0.51621 0.53776 0.61393 0.0
C2779 C 0.50402 0.55535 0.62026 0.0
C2780 C 0.50192 0.57039 0.6038 0.0
C2781 C 0.51178 0.56798 0.58242 0.0
C2782 C 0.51972 0.52139 0.63034 0.0
C2783 C 0.48986 0.58994 0.60926 0.0
H2784 H 0.44919 0.53905 0.67126 0.0
H2785 H 0.5104 0.59251 0.70323 0.0
H2786 H 0.45717 0.53632 0.61102 0.0
H2787 H 0.46589 0.51173 0.61992 0.0
H2788 H 0.44207 0.51937 0.63014 0.0
H2789 H 0.53974 0.60185 0.68261 0.0
H2790 H 0.54029 0.5788 0.65623 0.0
H2791 H 0.53008 0.60466 0.65351 0.0
H2792 H 0.53615 0.52332 0.58908 0.0
H2793 H 0.51071 0.58052 0.57097 0.0
H2794 H 0.50385 0.51142 0.63468 0.0
H2795 H 0.52983 0.53319 0.64734 0.0
H2796 H 0.52801 0.50737 0.62242 0.0
H2797 H 0.47282 0.58094 0.61126 0.0
H2798 H 0.48957 0.60034 0.59512 0.0
H2799 H 0.49765 0.60352 0.62644 0.0
C2800 C 0.74977 0.17958 0.97742 0.0
C2801 C 0.77163 0.17958 0.98173 0.0
C2802 C 0.74266 0.18939 0.95893 0.0
C2803 C 0.75768 0.19861 0.94424 0.0
C2804 C 0.77974 0.19876 0.94869 0.0
C2805 C 0.78647 0.18958 0.96755 0.0
C2806 C 0.71913 0.18951 0.95485 0.0
C2807 C 0.79632 0.20837 0.93338 0.0
C2808 C 0.74552 0.20483 0.88165 0.0
C2809 C 0.75036 0.23091 0.88567 0.0
C2810 C 0.74546 0.19356 0.90093 0.0
C2811 C 0.75098 0.20892 0.92446 0.0
C2812 C 0.75455 0.23508 0.92851 0.0
C2813 C 0.75402 0.24574 0.90901 0.0
C2814 C 0.74142 0.16553 0.89613 0.0
C2815 C 0.76103 0.25209 0.95332 0.0
H2816 H 0.73826 0.17177 0.98831 0.0
H2817 H 0.80336 0.18941 0.97055 0.0
H2818 H 0.71808 0.20839 0.9537 0.0
H2819 H 0.71091 0.17631 0.93762 0.0
H2820 H 0.71011 0.18395 0.96924 0.0
H2821 H 0.8126 0.20602 0.93869 0.0
H2822 H 0.79065 0.19833 0.9144 0.0
H2823 H 0.79823 0.22856 0.93472 0.0
H2824 H 0.74267 0.19344 0.86355 0.0
H2825 H 0.75811 0.26595 0.91207 0.0
H2826 H 0.73048 0.15773 0.90813 0.0
H2827 H 0.75712 0.16116 0.8998 0.0
H2828 H 0.73407 0.15599 0.87736 0.0
H2829 H 0.74987 0.24498 0.96542 0.0
H2830 H 0.76094 0.27162 0.95353 0.0
H2831 H 0.77773 0.25239 0.96058 0.0
C2832 C 0.13112 0.52027 0.15467 0.0
C2833 C 0.12492 0.52923 0.17655 0.0
C2834 C 0.1241 0.52762 0.13451 0.0
C2835 C 0.11109 0.54444 0.1369 0.0
C2836 C 0.10763 0.55619 0.15965 0.0
C2837 C 0.11436 0.54809 0.17929 0.0
C2838 C 0.12829 0.51514 0.11039 0.0
C2839 C 0.09441 0.57482 0.16298 0.0
C2840 C 0.08692 0.5615 0.08336 0.0
C2841 C 0.06626 0.54409 0.07834 0.0
C2842 C 0.10209 0.56183 0.10232 0.0
C2843 C 0.09625 0.54415 0.11608 0.0
C2844 C 0.0754 0.52639 0.11081 0.0
C2845 C 0.06057 0.52672 0.09199 0.0
C2846 C 0.12394 0.58142 0.10799 0.0
C2847 C 0.06859 0.50721 0.12521 0.0
H2848 H 0.13995 0.50624 0.153 0.0
H2849 H 0.11049 0.55573 0.19664 0.0
H2850 H 0.11318 0.50063 0.10081 0.0
H2851 H 0.13264 0.52889 0.09938 0.0
H2852 H 0.14155 0.506 0.11192 0.0
H2853 H 0.09834 0.58696 0.18139 0.0
H2854 H 0.0972 0.58687 0.15019 0.0
H2855 H 0.07679 0.56454 0.15979 0.0
H2856 H 0.09111 0.57502 0.07267 0.0
H2857 H 0.04457 0.51323 0.08784 0.0
H2858 H 0.13736 0.57268 0.11012 0.0
H2859 H 0.1248 0.5949 0.12516 0.0
H2860 H 0.12673 0.59199 0.09398 0.0
H2861 H 0.08058 0.49625 0.12575 0.0
H2862 H 0.05222 0.49397 0.11781 0.0
H2863 H 0.06815 0.51682 0.14383 0.0
C2864 C 0.82417 0.82026 0.45954 0.0
C2865 C 0.81603 0.83998 0.47011 0.0
C2866 C 0.82111 0.81111 0.43458 0.0
C2867 C 0.81012 0.82232 0.41969 0.0
C2868 C 0.80084 0.8413 0.43025 0.0
C2869 C 0.80369 0.84969 0.45526 0.0
C2870 C 0.83032 0.79002 0.4241 0.0
C2871 C 0.78864 0.85349 0.41511 0.0
C2872 C 0.82735 0.82081 0.3581 0.0
C2873 C 0.8095 0.80284 0.3432 0.0
C2874 C 0.82751 0.82758 0.38294 0.0
C2875 C 0.80975 0.81548 0.39321 0.0
C2876 C 0.79185 0.79697 0.37815 0.0
C2877 C 0.79187 0.79111 0.35337 0.0
C2878 C 0.84645 0.84819 0.39816 0.0
C2879 C 0.77285 0.78288 0.38808 0.0
H2880 H 0.83347 0.81236 0.47075 0.0
H2881 H 0.79718 0.86483 0.46311 0.0
H2882 H 0.81774 0.77524 0.41068 0.0
H2883 H 0.84412 0.79716 0.4148 0.0
H2884 H 0.83628 0.78147 0.43792 0.0
H2885 H 0.78274 0.86832 0.42602 0.0
H2886 H 0.79937 0.86191 0.40324 0.0
H2887 H 0.77439 0.83919 0.40352 0.0
H2888 H 0.84081 0.83021 0.35024 0.0
H2889 H 0.77805 0.77712 0.34185 0.0
H2890 H 0.85467 0.84091 0.41154 0.0
H2891 H 0.84039 0.86342 0.40808 0.0
H2892 H 0.85867 0.85626 0.38745 0.0
H2893 H 0.77782 0.76855 0.39582 0.0
H2894 H 0.75847 0.77319 0.37407 0.0
H2895 H 0.76788 0.79549 0.40253 0.0
C2896 C 0.45769 0.54917 0.84501 0.0
C2897 C 0.47055 0.56069 0.82976 0.0
C2898 C 0.46715 0.5452 0.86662 0.0
C2899 C 0.49017 0.55381 0.8743 0.0
C2900 C 0.50312 0.56601 0.85919 0.0
C2901 C 0.49334 0.56871 0.83719 0.0
C2902 C 0.4524 0.53141 0.88121 0.0
C2903 C 0.52753 0.5762 0.86615 0.0
C2904 C 0.51288 0.5651 0.94171 0.0
C2905 C 0.51982 0.5437 0.9429 0.0
C2906 C 0.50333 0.5685 0.91994 0.0
C2907 C 0.50059 0.55031 0.89801 0.0
C2908 C 0.50802 0.52889 0.899 0.0
C2909 C 0.51717 0.52574 0.92113 0.0
C2910 C 0.49619 0.59184 0.92048 0.0
C2911 C 0.5062 0.50904 0.87653 0.0
H2912 H 0.44016 0.54255 0.83968 0.0
H2913 H 0.50366 0.57766 0.82588 0.0
H2914 H 0.45772 0.51496 0.88388 0.0
H2915 H 0.45359 0.5438 0.89911 0.0
H2916 H 0.43507 0.52484 0.87264 0.0
H2917 H 0.53499 0.58839 0.8547 0.0
H2918 H 0.53174 0.58713 0.885 0.0
H2919 H 0.53493 0.56042 0.86454 0.0
H2920 H 0.51466 0.5793 0.95805 0.0
H2921 H 0.52243 0.50914 0.92131 0.0
H2922 H 0.47847 0.58667 0.91377 0.0
H2923 H 0.50489 0.60242 0.9085 0.0
H2924 H 0.49938 0.60434 0.93869 0.0
H2925 H 0.48874 0.49977 0.86928 0.0
H2926 H 0.51417 0.49457 0.87963 0.0
H2927 H 0.51377 0.51767 0.86273 0.0
C2928 C 0.81239 0.19494 0.10764 0.0
C2929 C 0.79407 0.18189 0.09058 0.0
C2930 C 0.81056 0.21153 0.12839 0.0
C2931 C 0.79001 0.2156 0.13171 0.0
C2932 C 0.77149 0.20278 0.11432 0.0
C2933 C 0.7737 0.18577 0.09402 0.0
C2934 C 0.83055 0.22439 0.14695 0.0
C2935 C 0.74952 0.20731 0.11703 0.0
C2936 C 0.78682 0.23827 0.19652 0.0
C2937 C 0.79378 0.26427 0.19948 0.0
C2938 C 0.78381 0.22206 0.17404 0.0
C2939 C 0.78796 0.23221 0.15416 0.0
C2940 C 0.7932 0.25845 0.15673 0.0
C2941 C 0.7961 0.27429 0.17954 0.0
C2942 C 0.77797 0.19416 0.17196 0.0
C2943 C 0.79736 0.26985 0.13578 0.0
H2944 H 0.82812 0.19195 0.10484 0.0
H2945 H 0.75962 0.17605 0.08047 0.0
H2946 H 0.83355 0.24501 0.15076 0.0
H2947 H 0.82783 0.21875 0.16385 0.0
H2948 H 0.84541 0.21972 0.14126 0.0
H2949 H 0.7366 0.1952 0.10221 0.0
H2950 H 0.74454 0.20388 0.13412 0.0
H2951 H 0.75062 0.22719 0.11752 0.0
H2952 H 0.78489 0.23049 0.21196 0.0
H2953 H 0.80128 0.29443 0.18186 0.0
H2954 H 0.79224 0.18722 0.16785 0.0
H2955 H 0.76441 0.18412 0.15716 0.0
H2956 H 0.77311 0.18929 0.18865 0.0
H2957 H 0.81359 0.26898 0.13103 0.0
H2958 H 0.79719 0.28977 0.13985 0.0
H2959 H 0.78499 0.25924 0.11996 0.0
C2960 C 0.14922 0.5916 0.30783 0.0
C2961 C 0.13133 0.57406 0.29267 0.0
C2962 C 0.14696 0.60441 0.33021 0.0
C2963 C 0.12608 0.59956 0.33705 0.0
C2964 C 0.10741 0.58596 0.31994 0.0
C2965 C 0.1103 0.57295 0.29768 0.0
C2966 C 0.16731 0.61883 0.34781 0.0
C2967 C 0.08472 0.58149 0.32648 0.0
C2968 C 0.12106 0.57727 0.39286 0.0
C2969 C 0.11457 0.5964 0.40712 0.0
C2970 C 0.12594 0.57875 0.3703 0.0
C2971 C 0.12463 0.60019 0.36219 0.0
C2972 C 0.12052 0.62078 0.37752 0.0
C2973 C 0.11548 0.61862 0.40007 0.0
C2974 C 0.13047 0.55631 0.35449 0.0
C2975 C 0.12018 0.6443 0.36966 0.0
H2976 H 0.16529 0.59373 0.30342 0.0
H2977 H 0.09639 0.5599 0.28551 0.0
H2978 H 0.16433 0.63408 0.36132 0.0
H2979 H 0.17264 0.60588 0.35731 0.0
H2980 H 0.18088 0.62692 0.33862 0.0
H2981 H 0.07215 0.57574 0.31038 0.0
H2982 H 0.08176 0.56627 0.33603 0.0
H2983 H 0.08286 0.59855 0.33849 0.0
H2984 H 0.1201 0.55995 0.39826 0.0
H2985 H 0.11062 0.63341 0.41142 0.0
H2986 H 0.14586 0.56213 0.34717 0.0
H2987 H 0.11707 0.5476 0.33924 0.0
H2988 H 0.13185 0.54176 0.36416 0.0
H2989 H 0.13696 0.65429 0.36768 0.0
H2990 H 0.11399 0.65722 0.38266 0.0
H2991 H 0.10991 0.63969 0.35202 0.0
C2992 C 0.83027 0.85631 0.61617 0.0
C2993 C 0.81336 0.84925 0.59677 0.0
C2994 C 0.8273 0.84857 0.63743 0.0
C2995 C 0.80697 0.8327 0.63955 0.0
C2996 C 0.78966 0.82553 0.62007 0.0
C2997 C 0.79293 0.83424 0.59909 0.0
C2998 C 0.84625 0.85697 0.65749 0.0
C2999 C 0.76776 0.8084 0.6213 0.0
C3000 C 0.80859 0.7912 0.6834 0.0
C3001 C 0.80259 0.80443 0.70384 0.0
C3002 C 0.81001 0.80012 0.66254 0.0
C3003 C 0.80457 0.82257 0.66157 0.0
C3004 C 0.79827 0.83593 0.68217 0.0
C3005 C 0.79768 0.82692 0.70316 0.0
C3006 C 0.81727 0.78538 0.64147 0.0
C3007 C 0.79195 0.85964 0.68197 0.0
H3008 H 0.84606 0.86815 0.61475 0.0
H3009 H 0.77975 0.82865 0.58427 0.0
H3010 H 0.84126 0.86554 0.67435 0.0
H3011 H 0.85146 0.84052 0.66034 0.0
H3012 H 0.86049 0.87076 0.6538 0.0
H3013 H 0.75663 0.80272 0.60408 0.0
H3014 H 0.7698 0.79129 0.62636 0.0
H3015 H 0.75997 0.81802 0.63529 0.0
H3016 H 0.81219 0.77365 0.68372 0.0
H3017 H 0.79251 0.83691 0.71867 0.0
H3018 H 0.83211 0.79727 0.63678 0.0
H3019 H 0.80438 0.77968 0.62571 0.0
H3020 H 0.82096 0.76833 0.64504 0.0
H3021 H 0.80636 0.87443 0.68016 0.0
H3022 H 0.78554 0.86659 0.69848 0.0
H3023 H 0.77934 0.8564 0.66639 0.0
C3024 C 0.7672 0.49036 0.55005 0.0
C3025 C 0.76836 0.47518 0.52813 0.0
C3026 C 0.74868 0.4983 0.55367 0.0
C3027 C 0.73114 0.49091 0.53477 0.0
C3028 C 0.73222 0.47563 0.51253 0.0
C3029 C 0.75089 0.46769 0.50951 0.0
C3030 C 0.7479 0.51446 0.57769 0.0
C3031 C 0.71397 0.46832 0.49182 0.0
C3032 C 0.6758 0.49575 0.54846 0.0
C3033 C 0.6764 0.51902 0.54394 0.0
C3034 C 0.6938 0.48631 0.54576 0.0
C3035 C 0.71214 0.5004 0.53787 0.0
C3036 C 0.71254 0.52381 0.5331 0.0
C3037 C 0.69461 0.53294 0.5364 0.0
C3038 C 0.69334 0.46148 0.55139 0.0
C3039 C 0.7319 0.53924 0.52464 0.0
H3040 H 0.78076 0.49598 0.56447 0.0
H3041 H 0.75204 0.45617 0.49248 0.0
H3042 H 0.7428 0.53121 0.57566 0.0
H3043 H 0.73564 0.50362 0.58667 0.0
H3044 H 0.76392 0.52083 0.58945 0.0
H3045 H 0.71718 0.45575 0.47593 0.0
H3046 H 0.69838 0.45877 0.49702 0.0
H3047 H 0.71177 0.48539 0.48679 0.0
H3048 H 0.66145 0.4852 0.55423 0.0
H3049 H 0.69462 0.55089 0.53281 0.0
H3050 H 0.70733 0.46396 0.56523 0.0
H3051 H 0.69513 0.44808 0.53527 0.0
H3052 H 0.67799 0.45315 0.55782 0.0
H3053 H 0.74651 0.54469 0.53843 0.0
H3054 H 0.72903 0.55654 0.52075 0.0
H3055 H 0.73568 0.52801 0.50828 0.0
C3056 C 0.20037 0.11543 0.4752 0.0
C3057 C 0.21462 0.13577 0.49227 0.0
C3058 C 0.17929 0.10358 0.47921 0.0
C3059 C 0.17211 0.11164 0.5012 0.0
C3060 C 0.18635 0.13238 0.51852 0.0
C3061 C 0.20726 0.14437 0.51375 0.0
C3062 C 0.16479 0.08201 0.45992 0.0
C3063 C 0.18002 0.14113 0.54261 0.0
C3064 C 0.11024 0.08831 0.50218 0.0
C3065 C 0.10837 0.06542 0.50837 0.0
C3066 C 0.13088 0.10405 0.50059 0.0
C3067 C 0.15026 0.09725 0.50616 0.0
C3068 C 0.14837 0.07497 0.5141 0.0
C3069 C 0.12756 0.05915 0.51453 0.0
C3070 C 0.13183 0.12727 0.49168 0.0
C3071 C 0.16834 0.06725 0.5213 0.0
H3072 H 0.2058 0.10857 0.45856 0.0
H3073 H 0.21822 0.15975 0.52728 0.0
H3074 H 0.16163 0.06453 0.46623 0.0
H3075 H 0.14879 0.08549 0.45571 0.0
H3076 H 0.17214 0.07897 0.44329 0.0
H3077 H 0.19124 0.15946 0.55273 0.0
H3078 H 0.16312 0.14277 0.54078 0.0
H3079 H 0.18049 0.12708 0.55315 0.0
H3080 H 0.0955 0.09322 0.49723 0.0
H3081 H 0.12628 0.04157 0.5195 0.0
H3082 H 0.13795 0.12523 0.47427 0.0
H3083 H 0.14343 0.14385 0.50422 0.0
H3084 H 0.11561 0.13082 0.48939 0.0
H3085 H 0.17527 0.06043 0.50518 0.0
H3086 H 0.16451 0.05208 0.53088 0.0
H3087 H 0.1811 0.08348 0.53293 0.0
C3088 C 0.23296 0.95312 0.771 0.0
C3089 C 0.21061 0.95009 0.77332 0.0
C3090 C 0.24306 0.93287 0.76867 0.0
C3091 C 0.23132 0.90807 0.76962 0.0
C3092 C 0.20875 0.90493 0.77206 0.0
C3093 C 0.1989 0.92537 0.77366 0.0
C3094 C 0.26662 0.93814 0.76499 0.0
C3095 C 0.19496 0.87998 0.77426 0.0
C3096 C 0.2521 0.84767 0.7471 0.0
C3097 C 0.26435 0.84521 0.76758 0.0
C3098 C 0.24185 0.86765 0.74737 0.0
C3099 C 0.24264 0.88609 0.76883 0.0
C3100 C 0.25463 0.88327 0.78963 0.0
C3101 C 0.26547 0.86377 0.78864 0.0
C3102 C 0.23049 0.86933 0.7242 0.0
C3103 C 0.25602 0.90098 0.81339 0.0
H3104 H 0.24283 0.9717 0.77113 0.0
H3105 H 0.18196 0.92211 0.77623 0.0
H3106 H 0.27641 0.93392 0.77947 0.0
H3107 H 0.26798 0.92572 0.74798 0.0
H3108 H 0.2738 0.95792 0.76446 0.0
H3109 H 0.1774 0.87916 0.77342 0.0
H3110 H 0.19674 0.86456 0.75998 0.0
H3111 H 0.20066 0.87661 0.79155 0.0
H3112 H 0.25101 0.83425 0.73042 0.0
H3113 H 0.27477 0.8629 0.80479 0.0
H3114 H 0.23749 0.8881 0.72098 0.0
H3115 H 0.21293 0.86716 0.72518 0.0
H3116 H 0.232 0.85482 0.7088 0.0
H3117 H 0.26634 0.91988 0.8135 0.0
H3118 H 0.26311 0.89475 0.82838 0.0
H3119 H 0.23955 0.90268 0.81646 0.0
C3120 C 0.38515 0.99663 0.01985 0.0
C3121 C 0.37825 0.9732 0.0251 0.0
C3122 C 0.40711 0.00712 0.01876 0.0
C3123 C 0.42204 0.99338 0.02238 0.0
C3124 C 0.41527 0.97011 0.0284 0.0
C3125 C 0.39339 0.96045 0.03005 0.0
C3126 C 0.41424 0.03259 0.01344 0.0
C3127 C 0.43105 0.95524 0.03281 0.0
C3128 C 0.47408 1.0001 0.99644 0.0
C3129 C 0.48925 0.01214 0.01704 0.0
C3130 C 0.45176 0.99544 0.99755 0.0
C3131 C 0.44487 1.00291 0.01976 0.0
C3132 C 0.46012 0.0164 0.04021 0.0
C3133 C 0.48218 0.02093 0.03854 0.0
C3134 C 0.43556 0.98138 0.97538 0.0
C3135 C 0.45332 0.02486 0.06417 0.0
H3136 H 0.37342 0.00674 0.01655 0.0
H3137 H 0.38816 0.94267 0.0347 0.0
H3138 H 0.42883 0.04474 0.02616 0.0
H3139 H 0.41886 0.03052 0.9953 0.0
H3140 H 0.40114 0.04216 0.01436 0.0
H3141 H 0.42273 0.9367 0.03579 0.0
H3142 H 0.43998 0.95219 0.01741 0.0
H3143 H 0.44332 0.96587 0.04871 0.0
H3144 H 0.47958 0.99387 0.97967 0.0
H3145 H 0.49387 0.03136 0.05421 0.0
H3146 H 0.42322 0.9915 0.97269 0.0
H3147 H 0.42672 0.96266 0.97751 0.0
H3148 H 0.44356 0.97882 0.95917 0.0
H3149 H 0.46667 0.03984 0.07653 0.0
H3150 H 0.44899 0.00872 0.07244 0.0
H3151 H 0.43877 0.03184 0.06231 0.0
C3152 C 0.87644 0.57005 0.77921 0.0
C3153 C 0.8991 0.57976 0.78215 0.0
C3154 C 0.86298 0.58169 0.76836 0.0
C3155 C 0.87266 0.60382 0.76131 0.0
C3156 C 0.89555 0.61263 0.76289 0.0
C3157 C 0.90851 0.60019 0.77304 0.0
C3158 C 0.83852 0.57144 0.76595 0.0
C3159 C 0.90651 0.63676 0.75655 0.0
C3160 C 0.83958 0.63819 0.73144 0.0
C3161 C 0.83614 0.65473 0.75141 0.0
C3162 C 0.8511 0.62088 0.73427 0.0
C3163 C 0.85951 0.62065 0.75751 0.0
C3164 C 0.85631 0.6375 0.77765 0.0
C3165 C 0.84438 0.65405 0.77433 0.0
C3166 C 0.85419 0.6028 0.7126 0.0
C3167 C 0.86539 0.63804 0.80279 0.0
H3168 H 0.86933 0.55381 0.78582 0.0
H3169 H 0.92613 0.60759 0.77535 0.0
H3170 H 0.83191 0.58448 0.77827 0.0
H3171 H 0.83089 0.56985 0.74758 0.0
H3172 H 0.83365 0.55277 0.77005 0.0
H3173 H 0.92396 0.63855 0.75491 0.0
H3174 H 0.89813 0.63821 0.73961 0.0
H3175 H 0.90569 0.65282 0.77077 0.0
H3176 H 0.83328 0.63879 0.7137 0.0
H3177 H 0.84121 0.66626 0.78986 0.0
H3178 H 0.84664 0.58329 0.71365 0.0
H3179 H 0.87181 0.60487 0.71206 0.0
H3180 H 0.84684 0.60564 0.69572 0.0
H3181 H 0.85744 0.62018 0.80723 0.0
H3182 H 0.86276 0.65366 0.81625 0.0
H3183 H 0.88316 0.64002 0.80432 0.0
C3184 C 0.85412 0.67196 0.03279 0.0
C3185 C 0.83719 0.6568 0.0147 0.0
C3186 C 0.87266 0.66403 0.03851 0.0
C3187 C 0.87472 0.64106 0.02494 0.0
C3188 C 0.8576 0.62595 0.00651 0.0
C3189 C 0.83892 0.63379 1.00197 0.0
C3190 C 0.89003 0.68039 0.05886 0.0
C3191 C 0.85918 0.60165 0.99117 0.0
C3192 C 0.92956 0.62852 0.01712 0.0
C3193 C 0.92909 0.60934 0.02903 0.0
C3194 C 0.9126 0.64006 0.01676 0.0
C3195 C 0.89484 0.63279 0.02909 0.0
C3196 C 0.89517 0.61505 0.04284 0.0
C3197 C 0.91208 0.60334 0.04243 0.0
C3198 C 0.91308 0.65899 1.00199 0.0
C3199 C 0.87716 0.60775 0.05727 0.0
H3200 H 0.85277 0.68985 0.04258 0.0
H3201 H 0.82589 0.62226 0.98781 0.0
H3202 H 0.89666 0.66893 0.06922 0.0
H3203 H 0.90372 0.69139 0.05169 0.0
H3204 H 0.88364 0.69377 0.07112 0.0
H3205 H 0.84512 0.59294 0.97662 0.0
H3206 H 0.87443 0.60494 0.98311 0.0
H3207 H 0.85984 0.58816 1.00228 0.0
H3208 H 0.94293 0.63407 0.00741 0.0
H3209 H 0.91136 0.58868 0.0518 0.0
H3210 H 0.9114 0.67665 0.01305 0.0
H3211 H 0.89905 0.65172 0.98731 0.0
H3212 H 0.92839 0.6633 0.99413 0.0
H3213 H 0.87475 0.62478 0.06883 0.0
H3214 H 0.88068 0.59538 0.06864 0.0
H3215 H 0.86157 0.59782 0.0452 0.0
C3216 C 0.20792 0.09532 0.76359 0.0
C3217 C 0.2127 0.08819 0.78495 0.0
C3218 C 0.21827 0.11961 0.76008 0.0
C3219 C 0.23392 0.1382 0.77833 0.0
C3220 C 0.23838 0.13125 0.80004 0.0
C3221 C 0.22805 0.10682 0.80297 0.0
C3222 C 0.21274 0.12516 0.73641 0.0
C3223 C 0.25434 0.1498 0.82046 0.0
C3224 C 0.28063 0.18988 0.76414 0.0
C3225 C 0.2744 0.2123 0.77005 0.0
C3226 C 0.26751 0.16621 0.76595 0.0
C3227 C 0.24705 0.1638 0.77431 0.0
C3228 C 0.24024 0.18625 0.77985 0.0
C3229 C 0.25373 0.20992 0.77754 0.0
C3230 C 0.27597 0.14364 0.75927 0.0
C3231 C 0.21863 0.18535 0.78848 0.0
H3232 H 0.19622 0.08171 0.7493 0.0
H3233 H 0.23205 0.10237 0.81974 0.0
H3234 H 0.20903 0.14347 0.7391 0.0
H3235 H 0.22702 0.1265 0.72675 0.0
H3236 H 0.19858 0.11043 0.72506 0.0
H3237 H 0.25577 0.14226 0.83648 0.0
H3238 H 0.2707 0.15513 0.81496 0.0
H3239 H 0.24913 0.16715 0.82532 0.0
H3240 H 0.29631 0.19079 0.75817 0.0
H3241 H 0.24834 0.22663 0.78232 0.0
H3242 H 0.26377 0.12854 0.74574 0.0
H3243 H 0.27854 0.13622 0.77516 0.0
H3244 H 0.29161 0.14802 0.75203 0.0
H3245 H 0.20523 0.17433 0.77377 0.0
H3246 H 0.21652 0.20434 0.79465 0.0
H3247 H 0.21703 0.17577 0.80328 0.0
C3248 C 0.37807 0.9798 0.27575 0.0
C3249 C 0.39985 0.98255 0.27245 0.0
C3250 C 0.36329 0.95615 0.271 0.0
C3251 C 0.37046 0.93505 0.26188 0.0
C3252 C 0.39144 0.93802 0.25491 0.0
C3253 C 0.4062 0.96205 0.26055 0.0
C3254 C 0.34121 0.95368 0.27912 0.0
C3255 C 0.39895 0.91567 0.24394 0.0
C3256 C 0.34898 0.8805 0.28857 0.0
C3257 C 0.3326 0.86512 0.27027 0.0
C3258 C 0.36178 0.90326 0.28578 0.0
C3259 C 0.35772 0.91054 0.26427 0.0
C3260 C 0.34058 0.89536 0.24616 0.0
C3261 C 0.32808 0.87277 0.24948 0.0
C3262 C 0.38 0.91915 0.30552 0.0
C3263 C 0.33577 0.90263 0.22316 0.0
H3264 H 0.37323 0.99595 0.28458 0.0
H3265 H 0.42305 0.96439 0.2578 0.0
H3266 H 0.32813 0.93991 0.26553 0.0
H3267 H 0.34119 0.94678 0.29563 0.0
H3268 H 0.33719 0.97185 0.28299 0.0
H3269 H 0.41448 0.92128 0.23675 0.0
H3270 H 0.40146 0.90524 0.25758 0.0
H3271 H 0.3863 0.90263 0.22936 0.0
H3272 H 0.3526 0.87406 0.30436 0.0
H3273 H 0.3153 0.86051 0.23537 0.0
H3274 H 0.37807 0.93825 0.31129 0.0
H3275 H 0.39593 0.92106 0.29892 0.0
H3276 H 0.38049 0.91102 0.32129 0.0
H3277 H 0.32996 0.9196 0.22673 0.0
H3278 H 0.32309 0.8875 0.21014 0.0
H3279 H 0.35086 0.90726 0.21501 0.0
C3280 C 0.5665 0.36635 0.55496 0.0
C3281 C 0.58078 0.37148 0.57646 0.0
C3282 C 0.56286 0.38552 0.54464 0.0
C3283 C 0.57396 0.41085 0.55572 0.0
C3284 C 0.58947 0.41618 0.57659 0.0
C3285 C 0.59264 0.39651 0.58675 0.0
C3286 C 0.54631 0.37863 0.52239 0.0
C3287 C 0.60175 0.44284 0.58906 0.0
C3288 C 0.57558 0.4612 0.52041 0.0
C3289 C 0.55828 0.47059 0.52737 0.0
C3290 C 0.58055 0.44153 0.52904 0.0
C3291 C 0.5686 0.43162 0.54597 0.0
C3292 C 0.55112 0.44123 0.55313 0.0
C3293 C 0.54596 0.46023 0.54346 0.0
C3294 C 0.59871 0.43143 0.52009 0.0
C3295 C 0.53804 0.43172 0.57132 0.0
H3296 H 0.55709 0.34716 0.54681 0.0
H3297 H 0.60329 0.40091 0.60357 0.0
H3298 H 0.53277 0.38706 0.52606 0.0
H3299 H 0.55398 0.38628 0.50814 0.0
H3300 H 0.5393 0.35804 0.51565 0.0
H3301 H 0.61504 0.44387 0.60319 0.0
H3302 H 0.60889 0.45319 0.57612 0.0
H3303 H 0.59026 0.45249 0.59734 0.0
H3304 H 0.58527 0.46928 0.50813 0.0
H3305 H 0.53285 0.46774 0.54927 0.0
H3306 H 0.59235 0.411 0.51201 0.0
H3307 H 0.61161 0.43406 0.53519 0.0
H3308 H 0.60616 0.44072 0.5066 0.0
H3309 H 0.52865 0.41183 0.56389 0.0
H3310 H 0.52643 0.44267 0.5767 0.0
H3311 H 0.5491 0.43255 0.58746 0.0
C3312 C 0.44714 0.7552 0.34765 0.0
C3313 C 0.45368 0.76416 0.37233 0.0
C3314 C 0.42797 0.75817 0.33627 0.0
C3315 C 0.41527 0.7715 0.34965 0.0
C3316 C 0.42188 0.78069 0.37469 0.0
C3317 C 0.44072 0.77646 0.3858 0.0
C3318 C 0.42165 0.74745 0.30972 0.0
C3319 C 0.4094 0.79567 0.38964 0.0
C3320 C 0.38203 0.80024 0.31131 0.0
C3321 C 0.36108 0.78328 0.30696 0.0
C3322 C 0.39933 0.79755 0.32637 0.0
C3323 C 0.39597 0.77692 0.33704 0.0
C3324 C 0.37457 0.7603 0.33351 0.0
C3325 C 0.35741 0.76372 0.31861 0.0
C3326 C 0.42161 0.81601 0.32965 0.0
C3327 C 0.37017 0.73765 0.34382 0.0
H3328 H 0.45707 0.74563 0.33716 0.0
H3329 H 0.4458 0.78364 0.40486 0.0
H3330 H 0.40395 0.7376 0.30522 0.0
H3331 H 0.42498 0.76286 0.30045 0.0
H3332 H 0.43092 0.73414 0.3027 0.0
H3333 H 0.41704 0.80242 0.40863 0.0
H3334 H 0.40849 0.81208 0.38255 0.0
H3335 H 0.39242 0.78406 0.38863 0.0
H3336 H 0.38521 0.81497 0.30182 0.0
H3337 H 0.34155 0.74997 0.31464 0.0
H3338 H 0.43276 0.80677 0.32014 0.0
H3339 H 0.42871 0.82247 0.3488 0.0
H3340 H 0.42104 0.8326 0.32268 0.0
H3341 H 0.378 0.72394 0.3343 0.0
H3342 H 0.35242 0.72837 0.34212 0.0
H3343 H 0.37736 0.74288 0.3629 0.0
C3344 C 0.05622 0.73126 0.05407 0.0
C3345 C 0.07348 0.7477 0.07121 0.0
C3346 C 0.05645 0.70671 0.04394 0.0
C3347 C 0.07442 0.69838 0.051 0.0
C3348 C 0.09259 0.71533 0.06694 0.0
C3349 C 0.09192 0.73983 0.07687 0.0
C3350 C 0.03671 0.6892 0.02702 0.0
C3351 C 0.1121 0.7071 0.07471 0.0
C3352 C 0.05941 0.62971 0.05096 0.0
C3353 C 0.06643 0.61928 0.03007 0.0
C3354 C 0.06271 0.65557 0.05839 0.0
C3355 C 0.07284 0.67126 0.04421 0.0
C3356 C 0.08023 0.66075 0.02316 0.0
C3357 C 0.07715 0.63473 0.01645 0.0
C3358 C 0.05485 0.666 0.08112 0.0
C3359 C 0.0905 0.6768 0.00727 0.0
H3360 H 0.04193 0.73711 0.04936 0.0
H3361 H 0.10542 0.7524 0.08992 0.0
H3362 H 0.04169 0.67788 0.01158 0.0
H3363 H 0.02717 0.67601 0.0364 0.0
H3364 H 0.02586 0.69946 0.02029 0.0
H3365 H 0.12567 0.72303 0.08553 0.0
H3366 H 0.10724 0.69323 0.0855 0.0
H3367 H 0.11814 0.69776 0.05895 0.0
H3368 H 0.05125 0.61751 0.06147 0.0
H3369 H 0.08242 0.6264 1.00021 0.0
H3370 H 0.04151 0.67428 0.07693 0.0
H3371 H 0.06827 0.68116 0.09309 0.0
H3372 H 0.04868 0.65143 0.09086 0.0
H3373 H 0.07793 0.6837 0.9986 0.0
H3374 H 0.09761 0.6663 0.99314 0.0
H3375 H 0.10347 0.69346 0.01789 0.0
C3376 C 0.0846 0.30638 0.86486 0.0
C3377 C 0.07827 0.29241 0.88156 0.0
C3378 C 0.10564 0.31033 0.85852 0.0
C3379 C 0.12088 0.3003 0.86934 0.0
C3380 C 0.11513 0.28776 0.88747 0.0
C3381 C 0.09382 0.28373 0.89322 0.0
C3382 C 0.11103 0.32381 0.83909 0.0
C3383 C 0.13128 0.27781 0.90016 0.0
C3384 C 0.15969 0.27895 0.82944 0.0
C3385 C 0.1785 0.29928 0.83622 0.0
C3386 C 0.14111 0.27897 0.84047 0.0
C3387 C 0.14137 0.29966 0.85914 0.0
C3388 C 0.16064 0.3199 0.86679 0.0
C3389 C 0.17891 0.31963 0.85497 0.0
C3390 C 0.12086 0.25717 0.83148 0.0
C3391 C 0.16181 0.34214 0.88686 0.0
H3392 H 0.07279 0.31337 0.85588 0.0
H3393 H 0.08922 0.27335 0.9065 0.0
H3394 H 0.12698 0.33829 0.84459 0.0
H3395 H 0.11236 0.31022 0.82286 0.0
H3396 H 0.09839 0.33291 0.83442 0.0
H3397 H 0.12473 0.26973 0.91474 0.0
H3398 H 0.13571 0.26312 0.88729 0.0
H3399 H 0.14651 0.29308 0.90775 0.0
H3400 H 0.15918 0.2634 0.81471 0.0
H3401 H 0.19346 0.3354 0.86028 0.0
H3402 H 0.10728 0.26388 0.82472 0.0
H3403 H 0.11571 0.24858 0.84626 0.0
H3404 H 0.1234 0.24248 0.81693 0.0
H3405 H 0.15303 0.35443 0.88028 0.0
H3406 H 0.17893 0.35338 0.89395 0.0
H3407 H 0.15384 0.33608 0.90167 0.0
C3408 C 0.60055 0.77035 0.94671 0.0
C3409 C 0.58887 0.77828 0.92995 0.0
C3410 C 0.5903 0.74982 0.9553 0.0
C3411 C 0.56794 0.73729 0.94688 0.0
C3412 C 0.55618 0.74517 0.92977 0.0
C3413 C 0.56696 0.76538 0.92122 0.0
C3414 C 0.6034 0.74144 0.97324 0.0
C3415 C 0.5322 0.73271 0.92079 0.0
C3416 C 0.55096 0.6713 0.95406 0.0
C3417 C 0.54449 0.67519 0.9767 0.0
C3418 C 0.55763 0.69128 0.94344 0.0
C3419 C 0.5572 0.71542 0.95554 0.0
C3420 C 0.54842 0.71894 0.97708 0.0
C3421 C 0.54242 0.69879 0.98762 0.0
C3422 C 0.56647 0.68691 0.92009 0.0
C3423 C 0.5468 0.74431 0.98981 0.0
H3424 H 0.61759 0.78025 0.95311 0.0
H3425 H 0.55826 0.77061 0.90733 0.0
H3426 H 0.59591 0.74219 0.98981 0.0
H3427 H 0.60324 0.72171 0.966 0.0
H3428 H 0.62062 0.75322 0.97788 0.0
H3429 H 0.52661 0.73806 0.9045 0.0
H3430 H 0.52846 0.71202 0.91684 0.0
H3431 H 0.52257 0.73849 0.93484 0.0
H3432 H 0.55187 0.65288 0.9452 0.0
H3433 H 0.53743 0.70199 0.0051 0.0
H3434 H 0.5841 0.69708 0.92293 0.0
H3435 H 0.55812 0.6944 0.90699 0.0
H3436 H 0.56446 0.66673 0.9123 0.0
H3437 H 0.56334 0.75657 0.998 0.0
H3438 H 0.5364 0.74301 0.00409 0.0
H3439 H 0.53999 0.75344 0.97706 0.0
C3440 C 0.0642 0.73275 0.69172 0.0
C3441 C 0.05601 0.7535 0.69585 0.0
C3442 C 0.08627 0.73566 0.69851 0.0
C3443 C 0.09996 0.75975 0.71031 0.0
C3444 C 0.09175 0.78077 0.71443 0.0
C3445 C 0.06975 0.7774 0.70689 0.0
C3446 C 0.0948 0.71295 0.69343 0.0
C3447 C 0.10612 0.80661 0.72702 0.0
C3448 C 0.14771 0.75594 0.74959 0.0
C3449 C 0.1637 0.75884 0.73472 0.0
C3450 C 0.12703 0.75779 0.74237 0.0
C3451 C 0.12253 0.76248 0.71979 0.0
C3452 C 0.13908 0.76728 0.70547 0.0
C3453 C 0.15967 0.76548 0.71323 0.0
C3454 C 0.10962 0.75295 0.75811 0.0
C3455 C 0.13468 0.77212 0.68117 0.0
H3456 H 0.05346 0.71439 0.68275 0.0
H3457 H 0.0632 0.7934 0.7099 0.0
H3458 H 0.1101 0.71713 0.68557 0.0
H3459 H 0.09861 0.70776 0.71035 0.0
H3460 H 0.08277 0.69655 0.68103 0.0
H3461 H 0.09696 0.8209 0.72911 0.0
H3462 H 0.11359 0.80644 0.74494 0.0
H3463 H 0.11965 0.81233 0.71688 0.0
H3464 H 0.15094 0.75072 0.76617 0.0
H3465 H 0.17233 0.76807 0.702 0.0
H3466 H 0.09754 0.73456 0.74998 0.0
H3467 H 0.10073 0.76745 0.75971 0.0
H3468 H 0.11652 0.75271 0.77626 0.0
H3469 H 0.12659 0.75402 0.66812 0.0
H3470 H 0.15 0.78106 0.67501 0.0
H3471 H 0.12359 0.78422 0.68111 0.0
C3472 C 0.07939 0.38217 0.43247 0.0
C3473 C 0.0979 0.38501 0.42101 0.0
C3474 C 0.07633 0.40218 0.44896 0.0
C3475 C 0.09212 0.42569 0.45389 0.0
C3476 C 0.111 0.42875 0.4426 0.0
C3477 C 0.11379 0.40817 0.42631 0.0
C3478 C 0.05593 0.39814 0.46064 0.0
C3479 C 0.12786 0.45385 0.44729 0.0
C3480 C 0.06869 0.47817 0.47878 0.0
C3481 C 0.07763 0.48448 0.50285 0.0
C3482 C 0.07473 0.4604 0.46226 0.0
C3483 C 0.08842 0.44709 0.47053 0.0
C3484 C 0.09674 0.45259 0.49504 0.0
C3485 C 0.09178 0.4719 0.51088 0.0
C3486 C 0.06615 0.45561 0.43611 0.0
C3487 C 0.10989 0.43728 0.50464 0.0
H3488 H 0.06715 0.36423 0.42857 0.0
H3489 H 0.12808 0.41033 0.41739 0.0
H3490 H 0.05977 0.40719 0.48 0.0
H3491 H 0.04434 0.40671 0.45259 0.0
H3492 H 0.04756 0.37794 0.45825 0.0
H3493 H 0.14139 0.45319 0.43666 0.0
H3494 H 0.12006 0.46801 0.44298 0.0
H3495 H 0.13484 0.46031 0.46646 0.0
H3496 H 0.05698 0.48707 0.47282 0.0
H3497 H 0.09827 0.47647 0.52966 0.0
H3498 H 0.05374 0.43714 0.43011 0.0
H3499 H 0.07955 0.45512 0.42529 0.0
H3500 H 0.05853 0.47016 0.43242 0.0
H3501 H 0.09969 0.4176 0.50132 0.0
H3502 H 0.11569 0.44452 0.52409 0.0
H3503 H 0.1242 0.43704 0.49525 0.0
C3504 C 0.42401 0.23771 0.18019 0.0
C3505 C 0.44521 0.23996 0.19035 0.0
C3506 C 0.40914 0.24477 0.19456 0.0
C3507 C 0.4162 0.25526 0.21926 0.0
C3508 C 0.43733 0.25678 0.22968 0.0
C3509 C 0.45146 0.24852 0.21513 0.0
C3510 C 0.38624 0.24196 0.18323 0.0
C3511 C 0.4453 0.26814 0.25597 0.0
C3512 C 0.38451 0.29777 0.24803 0.0
C3513 C 0.37034 0.28152 0.25853 0.0
C3514 C 0.40031 0.28976 0.2359 0.0
C3515 C 0.40157 0.26502 0.23426 0.0
C3516 C 0.38845 0.24935 0.24643 0.0
C3517 C 0.37309 0.25795 0.25865 0.0
C3518 C 0.41485 0.30726 0.22388 0.0
C3519 C 0.38904 0.22273 0.24491 0.0
H3520 H 0.41934 0.23126 0.16101 0.0
H3521 H 0.468 0.25066 0.22305 0.0
H3522 H 0.37415 0.23288 0.19352 0.0
H3523 H 0.38407 0.26072 0.18345 0.0
H3524 H 0.38262 0.23071 0.16447 0.0
H3525 H 0.46259 0.26879 0.26107 0.0
H3526 H 0.44374 0.28749 0.26086 0.0
H3527 H 0.43507 0.25712 0.26662 0.0
H3528 H 0.38246 0.3161 0.24807 0.0
H3529 H 0.36238 0.24556 0.26718 0.0
H3530 H 0.41065 0.30018 0.20425 0.0
H3531 H 0.43218 0.308 0.22872 0.0
H3532 H 0.41318 0.32658 0.2288 0.0
H3533 H 0.37769 0.21043 0.22889 0.0
H3534 H 0.38364 0.21636 0.26077 0.0
H3535 H 0.40549 0.22029 0.24323 0.0
C3536 C 0.61177 0.50804 0.33821 0.0
C3537 C 0.63458 0.5183 0.33938 0.0
C3538 C 0.60087 0.50865 0.3589 0.0
C3539 C 0.61237 0.52106 0.38234 0.0
C3540 C 0.6354 0.53178 0.38363 0.0
C3541 C 0.6461 0.52981 0.36267 0.0
C3542 C 0.57674 0.4958 0.35532 0.0
C3543 C 0.64889 0.54589 0.40742 0.0
C3544 C 0.57833 0.54336 0.43242 0.0
C3545 C 0.57711 0.52634 0.44721 0.0
C3546 C 0.58977 0.54216 0.41208 0.0
C3547 C 0.60045 0.5231 0.4051 0.0
C3548 C 0.59897 0.50563 0.41982 0.0
C3549 C 0.5875 0.50737 0.44015 0.0
C3550 C 0.58982 0.56116 0.39754 0.0
C3551 C 0.60851 0.48394 0.4133 0.0
H3552 H 0.60221 0.4989 0.3208 0.0
H3553 H 0.66355 0.53809 0.36453 0.0
H3554 H 0.57232 0.48639 0.36983 0.0
H3555 H 0.56759 0.50993 0.35548 0.0
H3556 H 0.57133 0.48166 0.33799 0.0
H3557 H 0.66596 0.55519 0.40572 0.0
H3558 H 0.64144 0.5603 0.41637 0.0
H3559 H 0.64912 0.53281 0.41908 0.0
H3560 H 0.56971 0.55747 0.43639 0.0
H3561 H 0.58605 0.49313 0.45016 0.0
H3562 H 0.57943 0.55185 0.38004 0.0
H3563 H 0.60659 0.56922 0.39405 0.0
H3564 H 0.58348 0.57661 0.4065 0.0
H3565 H 0.59873 0.47074 0.39671 0.0
H3566 H 0.60854 0.47365 0.42755 0.0
H3567 H 0.62546 0.49047 0.40966 0.0
C3568 C 0.31372 0.86397 0.06059 0.0
C3569 C 0.31791 0.88725 0.05527 0.0
C3570 C 0.32451 0.86121 0.08134 0.0
C3571 C 0.34077 0.88214 0.09616 0.0
C3572 C 0.34555 0.90556 0.09032 0.0
C3573 C 0.33337 0.90805 0.07032 0.0
C3574 C 0.31844 0.83561 0.08658 0.0
C3575 C 0.3642 0.92747 0.10432 0.0
C3576 C 0.34605 0.87498 0.15824 0.0
C3577 C 0.35781 0.85721 0.15561 0.0
C3578 C 0.34176 0.88551 0.13944 0.0
C3579 C 0.35129 0.87977 0.11868 0.0
C3580 C 0.36711 0.86642 0.11826 0.0
C3581 C 0.36988 0.85468 0.13668 0.0
C3582 C 0.32437 0.8992 0.14037 0.0
C3583 C 0.37854 0.86134 0.0969 0.0
H3584 H 0.30202 0.8479 0.04851 0.0
H3585 H 0.33647 0.92606 0.06606 0.0
H3586 H 0.32383 0.83573 0.10527 0.0
H3587 H 0.30046 0.82726 0.08261 0.0
H3588 H 0.3258 0.82309 0.07461 0.0
H3589 H 0.36414 0.9451 0.09903 0.0
H3590 H 0.36386 0.9305 0.12376 0.0
H3591 H 0.37985 0.92332 0.10105 0.0
H3592 H 0.33769 0.87791 0.17354 0.0
H3593 H 0.37952 0.84147 0.13473 0.0
H3594 H 0.30998 0.88809 0.12684 0.0
H3595 H 0.33044 0.91757 0.13609 0.0
H3596 H 0.3189 0.90238 0.15813 0.0
H3597 H 0.36804 0.84458 0.08355 0.0
H3598 H 0.39426 0.85754 0.10193 0.0
H3599 H 0.38169 0.87739 0.08841 0.0
C3600 C 0.9599 0.53548 0.87523 0.0
C3601 C 0.96968 0.53091 0.85477 0.0
C3602 C 0.96566 0.52658 0.89477 0.0
C3603 C 0.9819 0.51381 0.89347 0.0
C3604 C 0.98805 0.50469 0.87129 0.0
C3605 C 0.98174 0.51343 0.85195 0.0
C3606 C 0.95762 0.53508 0.91789 0.0
C3607 C 0.0048 0.4902 0.86908 0.0
C3608 C 0.03189 0.54548 0.93903 0.0
C3609 C 0.03055 0.52834 0.95302 0.0
C3610 C 0.01556 0.54122 0.91994 0.0
C3611 C 0.99793 0.51892 0.91471 0.0
C3612 C 0.99665 0.50146 0.92882 0.0
C3613 C 0.013 0.50657 0.9481 0.0
C3614 C 0.01734 0.56057 0.90538 0.0
C3615 C 0.97814 0.47761 0.9237 0.0
H3616 H 0.94968 0.54807 0.87704 0.0
H3617 H 0.98819 0.50861 0.83547 0.0
H3618 H 0.9585 0.52257 0.92997 0.0
H3619 H 0.9679 0.55423 0.92709 0.0
H3620 H 0.94052 0.53589 0.9145 0.0
H3621 H 1.0036 0.47939 0.85044 0.0
H3622 H 0.02138 0.50356 0.87433 0.0
H3623 H 1.00299 0.47717 0.88097 0.0
H3624 H 0.04542 0.56241 0.94334 0.0
H3625 H 0.01217 0.49338 0.95921 0.0
H3626 H 1.00257 0.56734 0.90527 0.0
H3627 H 0.01859 0.55215 0.88667 0.0
H3628 H 0.03181 0.57704 0.91244 0.0
H3629 H 0.96274 0.48222 0.92718 0.0
H3630 H 0.98101 0.46484 0.93492 0.0
H3631 H 0.97572 0.46749 0.90468 0.0
C3632 C 0.32229 0.25477 0.58451 0.0
C3633 C 0.30423 0.24084 0.56713 0.0
C3634 C 0.31995 0.26212 0.60866 0.0
C3635 C 0.29903 0.25552 0.61569 0.0
C3636 C 0.2806 0.24273 0.59808 0.0
C3637 C 0.28341 0.23551 0.57409 0.0
C3638 C 0.34008 0.27571 0.62679 0.0
C3639 C 0.25799 0.23561 0.60475 0.0
C3640 C 0.29833 0.24645 0.67877 0.0
C3641 C 0.29447 0.26854 0.69102 0.0
C3642 C 0.29912 0.24169 0.65415 0.0
C3643 C 0.29672 0.25988 0.64158 0.0
C3644 C 0.29269 0.28223 0.65392 0.0
C3645 C 0.29132 0.28615 0.67848 0.0
C3646 C 0.30298 0.21739 0.64171 0.0
C3647 C 0.2908 0.30247 0.64144 0.0
H3648 H 0.33847 0.25896 0.57948 0.0
H3649 H 0.26931 0.22493 0.56086 0.0
H3650 H 0.33724 0.2917 0.63953 0.0
H3651 H 0.34396 0.26275 0.63723 0.0
H3652 H 0.35449 0.28281 0.61828 0.0
H3653 H 0.24522 0.22679 0.58887 0.0
H3654 H 0.25718 0.22229 0.61632 0.0
H3655 H 0.25427 0.25242 0.6151 0.0
H3656 H 0.30089 0.23293 0.68855 0.0
H3657 H 0.2888 0.30349 0.68811 0.0
H3658 H 0.31881 0.22128 0.63484 0.0
H3659 H 0.29005 0.20761 0.62619 0.0
H3660 H 0.30322 0.20462 0.65373 0.0
H3661 H 0.30682 0.31077 0.63632 0.0
H3662 H 0.28572 0.31766 0.65291 0.0
H3663 H 0.27889 0.2945 0.62481 0.0
C3664 C 0.59831 0.51781 0.19599 0.0
C3665 C 0.61847 0.51223 0.19967 0.0
C3666 C 0.58959 0.521 0.17384 0.0
C3667 C 0.60097 0.51864 0.15392 0.0
C3668 C 0.62126 0.5128 0.15727 0.0
C3669 C 0.6297 0.50971 0.17982 0.0
C3670 C 0.56794 0.5269 0.17179 0.0
C3671 C 0.63433 0.51021 0.137 0.0
C3672 C 0.56847 0.50552 0.0902 0.0
C3673 C 0.57242 0.52938 0.08532 0.0
C3674 C 0.57745 0.50183 0.11208 0.0
C3675 C 0.59153 0.52229 0.1299 0.0
C3676 C 0.59571 0.54644 0.12498 0.0
C3677 C 0.58602 0.5497 0.10319 0.0
C3678 C 0.57165 0.47579 0.11611 0.0
C3679 C 0.61044 0.56908 0.1429 0.0
H3680 H 0.58908 0.51986 0.2107 0.0
H3681 H 0.64523 0.50556 0.18191 0.0
H3682 H 0.56971 0.54456 0.16598 0.0
H3683 H 0.55594 0.51182 0.15804 0.0
H3684 H 0.56123 0.52883 0.18889 0.0
H3685 H 0.64887 0.50393 0.1415 0.0
H3686 H 0.62401 0.49665 0.12091 0.0
H3687 H 0.63981 0.52853 0.13236 0.0
H3688 H 0.55799 0.48954 0.07693 0.0
H3689 H 0.58947 0.56829 0.09999 0.0
H3690 H 0.56486 0.47581 0.13305 0.0
H3691 H 0.58656 0.46941 0.11773 0.0
H3692 H 0.55951 0.46213 0.10139 0.0
H3693 H 0.60268 0.57287 0.15911 0.0
H3694 H 0.61391 0.58608 0.13576 0.0
H3695 H 0.62613 0.5655 0.1484 0.0
C3696 C 0.34677 0.88446 0.93915 0.0
C3697 C 0.33034 0.89297 0.94971 0.0
C3698 C 0.34196 0.86739 0.91695 0.0
C3699 C 0.32028 0.85897 0.90499 0.0
C3700 C 0.30373 0.86806 0.91512 0.0
C3701 C 0.30898 0.88507 0.93742 0.0
C3702 C 0.36 0.85816 0.90642 0.0
C3703 C 0.28041 0.85932 0.90268 0.0
C3704 C 0.31207 0.83475 0.83849 0.0
C3705 C 0.30529 0.80881 0.836 0.0
C3706 C 0.31698 0.85127 0.86093 0.0
C3707 C 0.31515 0.84152 0.8813 0.0
C3708 C 0.30857 0.81531 0.879 0.0
C3709 C 0.30372 0.79914 0.8562 0.0
C3710 C 0.32381 0.87915 0.86281 0.0
C3711 C 0.30663 0.80444 0.90055 0.0
H3712 H 0.36332 0.89057 0.94855 0.0
H3713 H 0.29616 0.89135 0.9456 0.0
H3714 H 0.35533 0.83739 0.90168 0.0
H3715 H 0.36264 0.86434 0.88976 0.0
H3716 H 0.37566 0.86521 0.91885 0.0
H3717 H 0.26965 0.86886 0.91267 0.0
H3718 H 0.2797 0.86278 0.88457 0.0
H3719 H 0.27386 0.83883 0.90053 0.0
H3720 H 0.31321 0.84225 0.82282 0.0
H3721 H 0.29845 0.77905 0.85416 0.0
H3722 H 0.34019 0.88782 0.87366 0.0
H3723 H 0.31226 0.88799 0.87201 0.0
H3724 H 0.32435 0.88359 0.8451 0.0
H3725 H 0.32295 0.80931 0.91139 0.0
H3726 H 0.29985 0.78373 0.89557 0.0
H3727 H 0.296 0.81261 0.912 0.0
C3728 C 0.95868 0.48786 0.72929 0.0
C3729 C 0.96405 0.51409 0.73443 0.0
C3730 C 0.95441 0.47379 0.7057 0.0
C3731 C 0.95669 0.48648 0.68728 0.0
C3732 C 0.95865 0.51251 0.69229 0.0
C3733 C 0.96239 0.52609 0.716 0.0
C3734 C 0.95001 0.44575 0.70069 0.0
C3735 C 0.95967 0.52659 0.6729 0.0
C3736 C 0.99823 0.47724 0.64827 0.0
C3737 C 0.98642 0.47445 0.62601 0.0
C3738 C 0.98818 0.47884 0.66855 0.0
C3739 C 0.96538 0.47583 0.66611 0.0
C3740 C 0.95278 0.46864 0.64321 0.0
C3741 C 0.96362 0.46881 0.6232 0.0
C3742 C 1.00263 0.48742 0.69259 0.0
C3743 C 0.92819 0.46223 0.64003 0.0
H3744 H 0.95851 0.47833 0.74361 0.0
H3745 H 0.9654 0.54626 0.72006 0.0
H3746 H 0.94041 0.43649 0.68274 0.0
H3747 H 0.9657 0.44087 0.70137 0.0
H3748 H 0.94106 0.43825 0.71432 0.0
H3749 H 0.9593 0.54623 0.67969 0.0
H3750 H 0.97493 0.52691 0.66512 0.0
H3751 H 0.94574 0.51713 0.65838 0.0
H3752 H 0.0159 0.48173 0.65034 0.0
H3753 H 0.95455 0.46627 0.60578 0.0
H3754 H 0.9974 0.47403 0.7037 0.0
H3755 H 1.00144 0.50598 0.70221 0.0
H3756 H 0.02009 0.48919 0.69103 0.0
H3757 H 0.9217 0.44357 0.64369 0.0
H3758 H 0.92112 0.46145 0.62163 0.0
H3759 H 0.92247 0.47575 0.65284 0.0
C3760 C 0.28963 0.25198 0.43873 0.0
C3761 C 0.3003 0.234 0.44197 0.0
C3762 C 0.29134 0.26213 0.41843 0.0
C3763 C 0.30369 0.25381 0.40079 0.0
C3764 C 0.31416 0.23538 0.40399 0.0
C3765 C 0.31248 0.22596 0.42448 0.0
C3766 C 0.28043 0.28224 0.41614 0.0
C3767 C 0.32772 0.22604 0.38604 0.0
C3768 C 0.29513 0.26174 0.33691 0.0
C3769 C 0.31381 0.28094 0.33673 0.0
C3770 C 0.29135 0.25315 0.35772 0.0
C3771 C 0.30627 0.26445 0.37917 0.0
C3772 C 0.32478 0.28445 0.37922 0.0
C3773 C 0.32842 0.29222 0.35805 0.0
C3774 C 0.27171 0.23144 0.35657 0.0
C3775 C 0.34082 0.29774 0.40168 0.0
H3776 H 0.28066 0.25875 0.45244 0.0
H3777 H 0.3211 0.2124 0.42709 0.0
H3778 H 0.29258 0.29909 0.41393 0.0
H3779 H 0.26791 0.27553 0.39998 0.0
H3780 H 0.27248 0.28773 0.43188 0.0
H3781 H 0.3335 0.21039 0.3902 0.0
H3782 H 0.31813 0.21961 0.36789 0.0
H3783 H 0.34218 0.24154 0.3857 0.0
H3784 H 0.2836 0.25313 0.32066 0.0
H3785 H 0.3427 0.30742 0.35828 0.0
H3786 H 0.2617 0.23674 0.37037 0.0
H3787 H 0.27713 0.21546 0.36041 0.0
H3788 H 0.2613 0.22512 0.33885 0.0
H3789 H 0.33244 0.30697 0.41529 0.0
H3790 H 0.35489 0.31218 0.39855 0.0
H3791 H 0.34714 0.28413 0.40923 0.0
C3792 C 0.33916 0.58995 0.53366 0.0
C3793 C 0.32759 0.60001 0.51871 0.0
C3794 C 0.35746 0.58255 0.5269 0.0
C3795 C 0.36369 0.58454 0.50437 0.0
C3796 C 0.35189 0.5946 0.48919 0.0
C3797 C 0.33413 0.60251 0.49671 0.0
C3798 C 0.37002 0.57239 0.54372 0.0
C3799 C 0.35727 0.59599 0.4646 0.0
C3800 C 0.42123 0.58183 0.49701 0.0
C3801 C 0.41778 0.55618 0.48705 0.0
C3802 C 0.40362 0.59161 0.50178 0.0
C3803 C 0.38216 0.5753 0.49654 0.0
C3804 C 0.37848 0.54975 0.48517 0.0
C3805 C 0.39634 0.54047 0.48069 0.0
C3806 C 0.40797 0.61918 0.5131 0.0
C3807 C 0.35575 0.53193 0.4787 0.0
H3808 H 0.33397 0.58798 0.5506 0.0
H3809 H 0.32479 0.60977 0.48488 0.0
H3810 H 0.36969 0.5529 0.53517 0.0
H3811 H 0.38736 0.58374 0.54777 0.0
H3812 H 0.3633 0.5725 0.56073 0.0
H3813 H 0.34915 0.60826 0.45693 0.0
H3814 H 0.37513 0.60299 0.4649 0.0
H3815 H 0.35166 0.57692 0.45256 0.0
H3816 H 0.43773 0.59419 0.50142 0.0
H3817 H 0.39352 0.52062 0.4731 0.0
H3818 H 0.40306 0.62166 0.53113 0.0
H3819 H 0.39801 0.62758 0.50244 0.0
H3820 H 0.42543 0.62963 0.51473 0.0
H3821 H 0.34916 0.52884 0.49521 0.0
H3822 H 0.35548 0.51348 0.46731 0.0
H3823 H 0.34465 0.54 0.46917 0.0
C3824 C 0.88262 0.95725 0.52619 0.0
C3825 C 0.87795 0.9334 0.53088 0.0
C3826 C 0.90417 0.97089 0.52549 0.0
C3827 C 0.92159 0.96024 0.5289 0.0
C3828 C 0.91687 0.93581 0.53287 0.0
C3829 C 0.89522 0.92287 0.53414 0.0
C3830 C 0.90832 0.99699 0.52162 0.0
C3831 C 0.93478 0.92351 0.53631 0.0
C3832 C 0.97567 0.98952 0.50877 0.0
C3833 C 0.98803 1.0051 0.53028 0.0
C3834 C 0.95419 0.97458 0.50807 0.0
C3835 C 0.94478 0.97511 0.52936 0.0
C3836 C 0.95742 0.99042 0.55115 0.0
C3837 C 0.97877 1.00517 0.55132 0.0
C3838 C 0.94142 0.95849 0.48446 0.0
C3839 C 0.94818 0.9918 0.57429 0.0
H3840 H 0.86946 0.96568 0.52384 0.0
H3841 H 0.89187 0.90449 0.53777 0.0
H3842 H 0.92049 0.01054 0.53634 0.0
H3843 H 0.91521 0.99768 0.50483 0.0
H3844 H 0.89322 1.00314 0.5206 0.0
H3845 H 0.92825 0.90359 0.53678 0.0
H3846 H 0.94485 0.92443 0.52175 0.0
H3847 H 0.94571 0.93371 0.55331 0.0
H3848 H 0.98262 0.98941 0.49239 0.0
H3849 H 0.98814 0.01715 0.56803 0.0
H3850 H 0.92672 0.96457 0.48021 0.0
H3851 H 0.93569 0.93869 0.48553 0.0
H3852 H 0.95121 0.95945 0.46964 0.0
H3853 H 0.93427 1.00003 0.5735 0.0
H3854 H 0.96049 1.00335 0.5899 0.0
H3855 H 0.94182 0.97275 0.5771 0.0
C3856 C 0.87502 0.12967 0.28643 0.0
C3857 C 0.89212 0.12597 0.27325 0.0
C3858 C 0.86508 0.14969 0.28637 0.0
C3859 C 0.8719 0.16781 0.27286 0.0
C3860 C 0.8893 0.16446 0.25964 0.0
C3861 C 0.89895 0.14404 0.25991 0.0
C3862 C 0.84707 0.15143 0.30115 0.0
C3863 C 0.89816 0.18295 0.24535 0.0
C3864 C 0.83018 0.2046 0.25571 0.0
C3865 C 0.8378 0.22898 0.27109 0.0
C3866 C 0.84119 0.18544 0.2557 0.0
C3867 C 0.86047 0.18937 0.2721 0.0
C3868 C 0.86809 0.21387 0.28803 0.0
C3869 C 0.85715 0.23307 0.28707 0.0
C3870 C 0.83202 0.16064 0.23776 0.0
C3871 C 0.88757 0.21971 0.30693 0.0
H3872 H 0.86922 0.11666 0.29719 0.0
H3873 H 0.9123 0.14265 0.24997 0.0
H3874 H 0.85043 0.1707 0.31251 0.0
H3875 H 0.83144 0.14739 0.28924 0.0
H3876 H 0.84503 0.13805 0.31276 0.0
H3877 H 0.91036 0.17732 0.23458 0.0
H3878 H 0.88465 0.18496 0.23329 0.0
H3879 H 0.90602 0.20162 0.25757 0.0
H3880 H 0.81547 0.20044 0.2431 0.0
H3881 H 0.86352 0.25124 0.29951 0.0
H3882 H 0.82666 0.14556 0.24712 0.0
H3883 H 0.84488 0.15614 0.22744 0.0
H3884 H 0.81793 0.16054 0.22514 0.0
H3885 H 0.88311 0.20883 0.32041 0.0
H3886 H 0.89331 0.23993 0.31612 0.0
H3887 H 0.90122 0.214 0.2991 0.0
C3888 C 0.72428 0.09009 0.01349 0.0
C3889 C 0.72474 0.09486 0.9908 0.0
C3890 C 0.70671 0.09224 0.02577 0.0
C3891 C 0.68939 0.09924 0.01494 0.0
C3892 C 0.69132 0.10731 0.99357 0.0
C3893 C 0.70883 0.10453 0.98144 0.0
C3894 C 0.7054 0.08419 0.04886 0.0
C3895 C 0.67366 0.11619 0.98218 0.0
C3896 C 0.63275 0.05882 0.01325 0.0
C3897 C 0.62378 0.07487 0.02833 0.0
C3898 C 0.65432 0.06641 0.00962 0.0
C3899 C 0.66733 0.09087 0.02138 0.0
C3900 C 0.65864 0.10689 0.0376 0.0
C3901 C 0.63677 0.09851 0.04109 0.0
C3902 C 0.66278 0.04845 0.99231 0.0
C3903 C 0.6721 0.13278 0.0511 0.0
H3904 H 0.73673 0.08277 0.0208 0.0
H3905 H 0.70958 0.10886 0.96417 0.0
H3906 H 0.69874 0.09679 0.06162 0.0
H3907 H 0.69418 0.06498 0.04535 0.0
H3908 H 0.72162 0.08406 0.05723 0.0
H3909 H 0.67955 0.12652 0.9687 0.0
H3910 H 0.65969 0.09978 0.97318 0.0
H3911 H 0.66762 0.12853 0.99589 0.0
H3912 H 0.62258 0.04035 0.00369 0.0
H3913 H 0.62965 0.11074 0.05288 0.0
H3914 H 0.6778 0.04576 1.00102 0.0
H3915 H 0.66698 0.05627 0.97681 0.0
H3916 H 0.65065 0.02979 0.98553 0.0
H3917 H 0.68022 0.13158 0.06832 0.0
H3918 H 0.66165 0.14554 0.05515 0.0
H3919 H 0.68492 0.14113 0.0412 0.0
C3920 C 0.23192 0.51484 0.26638 0.0
C3921 C 0.20956 0.5029 0.26299 0.0
C3922 C 0.24689 0.50231 0.27237 0.0
C3923 C 0.23891 0.47792 0.27571 0.0
C3924 C 0.21629 0.46575 0.27179 0.0
C3925 C 0.20181 0.47835 0.26495 0.0
C3926 C 0.27104 0.5153 0.27586 0.0
C3927 C 0.2073 0.44005 0.27608 0.0
C3928 C 0.27305 0.43356 0.26904 0.0
C3929 C 0.27884 0.43334 0.2928 0.0
C3930 C 0.26049 0.44863 0.26333 0.0
C3931 C 0.25412 0.46429 0.28193 0.0
C3932 C 0.26069 0.46515 0.30608 0.0
C3933 C 0.27309 0.44946 0.3113 0.0
C3934 C 0.25329 0.447 0.23739 0.0
C3935 C 0.25428 0.48219 0.32622 0.0
H3936 H 0.23755 0.53418 0.2653 0.0
H3937 H 0.18436 0.46979 0.26302 0.0
H3938 H 0.27843 0.51711 0.29438 0.0
H3939 H 0.27924 0.50392 0.26381 0.0
H3940 H 0.27446 0.53425 0.27233 0.0
H3941 H 0.18932 0.43279 0.2708 0.0
H3942 H 0.21501 0.42652 0.26607 0.0
H3943 H 0.21117 0.44093 0.29531 0.0
H3944 H 0.2781 0.42158 0.25477 0.0
H3945 H 0.27779 0.44932 0.32966 0.0
H3946 H 0.25791 0.46589 0.23382 0.0
H3947 H 0.23525 0.43969 0.23317 0.0
H3948 H 0.26051 0.43453 0.22515 0.0
H3949 H 0.2621 0.502 0.32636 0.0
H3950 H 0.25927 0.47908 0.34389 0.0
H3951 H 0.23637 0.47932 0.32362 0.0
C3952 C 0.25467 0.42836 0.99479 0.0
C3953 C 0.25779 0.41663 0.01331 0.0
C3954 C 0.23574 0.43594 0.99061 0.0
C3955 C 0.21939 0.4319 0.00538 0.0
C3956 C 0.22184 0.41885 0.02327 0.0
C3957 C 0.24098 0.41138 0.02705 0.0
C3958 C 0.23394 0.44964 0.97125 0.0
C3959 C 0.20458 0.41373 0.03909 0.0
C3960 C 0.18769 0.4801 0.01873 0.0
C3961 C 0.1676 0.46806 0.0042 0.0
C3962 C 0.20466 0.46868 0.0188 0.0
C3963 C 0.20138 0.44424 0.00434 0.0
C3964 C 0.18108 0.432 0.98935 0.0
C3965 C 0.16445 0.4442 0.98927 0.0
C3966 C 0.22614 0.48283 0.03451 0.0
C3967 C 0.17695 0.4061 0.97345 0.0
H3968 H 0.26736 0.43232 0.98383 0.0
H3969 H 0.24306 0.40215 0.04125 0.0
H3970 H 0.21725 0.44304 0.96099 0.0
H3971 H 0.23723 0.46994 0.97948 0.0
H3972 H 0.24578 0.44726 0.95867 0.0
H3973 H 0.20825 0.40226 0.05132 0.0
H3974 H 0.2032 0.4317 0.04991 0.0
H3975 H 0.18846 0.40384 0.02802 0.0
H3976 H 0.19014 0.49867 0.03005 0.0
H3977 H 0.14891 0.43497 0.97791 0.0
H3978 H 0.2396 0.48441 0.02362 0.0
H3979 H 0.22956 0.47245 0.04787 0.0
H3980 H 0.22627 0.50198 0.04406 0.0
H3981 H 0.18779 0.40673 0.95956 0.0
H3982 H 0.15976 0.39827 0.96449 0.0
H3983 H 0.18087 0.39319 0.98394 0.0
C3984 C 0.86708 0.97908 0.26324 0.0
C3985 C 0.89 0.98858 0.26598 0.0
C3986 C 0.85642 0.95339 0.262 0.0
C3987 C 0.86862 0.93616 0.26477 0.0
C3988 C 0.89183 0.9457 0.26759 0.0
C3989 C 0.90205 0.97129 0.2678 0.0
C3990 C 0.83183 0.94486 0.25826 0.0
C3991 C 0.90605 0.92901 0.27121 0.0
C3992 C 0.83851 0.87852 0.28784 0.0
C3993 C 0.83222 0.85841 0.26733 0.0
C3994 C 0.85098 0.90313 0.28744 0.0
C3995 C 0.85713 0.90886 0.26579 0.0
C3996 C 0.85116 0.88847 0.24506 0.0
C3997 C 0.83893 0.8639 0.24607 0.0
C3998 C 0.85703 0.92334 0.31032 0.0
C3999 C 0.85657 0.89288 0.22131 0.0
H4000 H 0.85733 0.99195 0.26234 0.0
H4001 H 0.91971 0.97813 0.27066 0.0
H4002 H 0.82568 0.9269 0.2445 0.0
H4003 H 0.82607 0.94159 0.27508 0.0
H4004 H 0.82459 0.95893 0.2527 0.0
H4005 H 0.92364 0.93949 0.27562 0.0
H4006 H 0.90131 0.91981 0.28577 0.0
H4007 H 0.9037 0.91398 0.25475 0.0
H4008 H 0.833 0.87519 0.3043 0.0
H4009 H 0.83362 0.84918 0.22978 0.0
H4010 H 0.84818 0.93754 0.30916 0.0
H4011 H 0.87476 0.93307 0.31315 0.0
H4012 H 0.85303 0.91579 0.32603 0.0
H4013 H 0.84658 0.90437 0.2153 0.0
H4014 H 0.8533 0.87507 0.20747 0.0
H4015 H 0.87395 0.90349 0.2229 0.0
C4016 C 0.70341 0.12544 0.78632 0.0
C4017 C 0.69962 0.10262 0.76958 0.0
C4018 C 0.71815 0.14694 0.78326 0.0
C4019 C 0.7295 0.14501 0.7634 0.0
C4020 C 0.72596 0.12196 0.7467 0.0
C4021 C 0.71078 0.10102 0.74984 0.0
C4022 C 0.72144 0.17168 0.80103 0.0
C4023 C 0.73852 0.11935 0.72585 0.0
C4024 C 0.7523 0.20366 0.74368 0.0
C4025 C 0.77315 0.21175 0.75675 0.0
C4026 C 0.7378 0.18157 0.74548 0.0
C4027 C 0.74501 0.16721 0.75991 0.0
C4028 C 0.76677 0.1745 0.77161 0.0
C4029 C 0.78059 0.19726 0.77032 0.0
C4030 C 0.7145 0.17453 0.73328 0.0
C4031 C 0.77511 0.15902 0.7864 0.0
H4032 H 0.69467 0.12647 0.80151 0.0
H4033 H 0.70809 0.08316 0.73716 0.0
H4034 H 0.73884 0.1796 0.80913 0.0
H4035 H 0.71712 0.18535 0.79177 0.0
H4036 H 0.71138 0.16986 0.81554 0.0
H4037 H 0.73377 0.09991 0.71453 0.0
H4038 H 0.7358 0.13207 0.71457 0.0
H4039 H 0.75627 0.1249 0.7325 0.0
H4040 H 0.74689 0.21551 0.73349 0.0
H4041 H 0.79693 0.20408 0.78036 0.0
H4042 H 0.70338 0.17471 0.7469 0.0
H4043 H 0.70987 0.15528 0.72168 0.0
H4044 H 0.71186 0.18757 0.72228 0.0
H4045 H 0.76842 0.16105 0.80347 0.0
H4046 H 0.79321 0.16503 0.79054 0.0
H4047 H 0.76969 0.13887 0.77704 0.0
loop_
_geom_bond_atom_site_label_1
_geom_bond_atom_site_label_2
_geom_bond_distance
_geom_bond_site_symmetry_2
_ccdc_geom_bond_type
Mg0 O1 2.028 . S
Mg0 O7 1.986 . S
Mg0 O9 2.114 . S
Mg0 O10 2.251 . S
Mg0 O13 2.010 . S
O1 Mg0 2.028 . S
O1 C4 1.250 . S
O2 Mg3 2.028 . S
O2 C4 1.248 . S
Mg3 O2 2.028 . S
Mg3 O8 2.032 . S
Mg3 O10 2.079 . S
C4 O1 1.250 . S
C4 O2 1.248 . S
C5 O6 1.264 . S
C5 O13 1.249 . S
O6 C5 1.264 . S
O7 Mg0 1.986 . S
O7 C11 1.246 . S
O8 Mg3 2.032 . S
O8 C11 1.259 . S
O9 Mg0 2.114 . S
O9 C12 1.252 . S
O10 Mg0 2.251 . S
O10 Mg3 2.079 . S
O10 C12 1.273 . S
C11 O7 1.246 . S
C11 O8 1.259 . S
C12 O9 1.252 . S
C12 O10 1.273 . S
O13 Mg0 2.010 . S
O13 C5 1.249 . S
Mg14 O15 2.028 . S
Mg14 O21 1.986 . S
Mg14 O23 2.114 1_455 S
Mg14 O24 2.251 1_455 S
Mg14 O27 2.010 . S
O15 Mg14 2.028 . S
O15 C18 1.250 1_455 S
O16 Mg17 2.028 . S
O16 C18 1.248 . S
Mg17 O16 2.028 . S
Mg17 O22 2.032 . S
Mg17 O24 2.079 . S
C18 O15 1.250 1_655 S
C18 O16 1.248 . S
C19 O20 1.264 . S
C19 O27 1.249 . S
O20 C19 1.264 . S
O21 Mg14 1.986 . S
O21 C25 1.246 1_455 S
O22 Mg17 2.032 . S
O22 C25 1.259 . S
O23 Mg14 2.114 1_655 S
O23 C26 1.252 . S
O24 Mg14 2.251 1_655 S
O24 Mg17 2.079 . S
O24 C26 1.273 . S
C25 O21 1.246 1_655 S
C25 O22 1.259 . S
C26 O23 1.252 . S
C26 O24 1.273 . S
O27 Mg14 2.010 . S
O27 C19 1.249 . S
Mg28 O29 2.028 . S
Mg28 O35 1.986 . S
Mg28 O37 2.114 . S
Mg28 O38 2.251 . S
Mg28 O41 2.010 . S
O29 Mg28 2.028 . S
O29 C32 1.250 . S
O30 Mg31 2.028 . S
O30 C32 1.248 . S
Mg31 O30 2.028 . S
Mg31 O36 2.032 . S
Mg31 O38 2.079 . S
C32 O29 1.250 . S
C32 O30 1.248 . S
C33 O34 1.264 . S
C33 O41 1.249 . S
O34 C33 1.264 . S
O35 Mg28 1.986 . S
O35 C39 1.246 . S
O36 Mg31 2.032 . S
O36 C39 1.259 . S
O37 Mg28 2.114 . S
O37 C40 1.252 . S
O38 Mg28 2.251 . S
O38 Mg31 2.079 . S
O38 C40 1.273 . S
C39 O35 1.246 . S
C39 O36 1.259 . S
C40 O37 1.252 . S
C40 O38 1.273 . S
O41 Mg28 2.010 . S
O41 C33 1.249 . S
Mg42 O43 2.028 . S
Mg42 O49 1.986 . S
Mg42 O51 2.114 . S
Mg42 O52 2.251 . S
Mg42 O55 2.010 . S
O43 Mg42 2.028 . S
O43 C46 1.250 . S
O44 Mg45 2.028 . S
O44 C46 1.248 . S
Mg45 O44 2.028 . S
Mg45 O50 2.032 . S
Mg45 O52 2.079 . S
C46 O43 1.250 . S
C46 O44 1.248 . S
C47 O48 1.264 . S
C47 O55 1.249 . S
O48 C47 1.264 . S
O49 Mg42 1.986 . S
O49 C53 1.246 . S
O50 Mg45 2.032 . S
O50 C53 1.259 . S
O51 Mg42 2.114 . S
O51 C54 1.252 . S
O52 Mg42 2.251 . S
O52 Mg45 2.079 . S
O52 C54 1.273 . S
C53 O49 1.246 . S
C53 O50 1.259 . S
C54 O51 1.252 . S
C54 O52 1.273 . S
O55 Mg42 2.010 . S
O55 C47 1.249 . S
Mg56 O57 2.028 . S
Mg56 O63 1.986 . S
Mg56 O65 2.114 . S
Mg56 O66 2.251 . S
Mg56 O69 2.010 . S
O57 Mg56 2.028 . S
O57 C60 1.250 . S
O58 Mg59 2.028 . S
O58 C60 1.248 . S
Mg59 O58 2.028 . S
Mg59 O64 2.032 . S
Mg59 O66 2.079 . S
C60 O57 1.250 . S
C60 O58 1.248 . S
C61 O62 1.264 . S
C61 O69 1.249 . S
O62 C61 1.264 . S
O63 Mg56 1.986 . S
O63 C67 1.246 . S
O64 Mg59 2.032 . S
O64 C67 1.259 . S
O65 Mg56 2.114 . S
O65 C68 1.252 . S
O66 Mg56 2.251 . S
O66 Mg59 2.079 . S
O66 C68 1.273 . S
C67 O63 1.246 . S
C67 O64 1.259 . S
C68 O65 1.252 . S
C68 O66 1.273 . S
O69 Mg56 2.010 . S
O69 C61 1.249 . S
Mg70 O71 2.028 . S
Mg70 O77 1.986 . S
Mg70 O79 2.114 . S
Mg70 O80 2.251 . S
Mg70 O83 2.010 . S
O71 Mg70 2.028 . S
O71 C74 1.250 . S
O72 Mg73 2.028 . S
O72 C74 1.248 . S
Mg73 O72 2.028 . S
Mg73 O78 2.032 . S
Mg73 O80 2.079 . S
C74 O71 1.250 . S
C74 O72 1.248 . S
C75 O76 1.264 . S
C75 O83 1.249 . S
O76 C75 1.264 . S
O77 Mg70 1.986 . S
O77 C81 1.246 . S
O78 Mg73 2.032 . S
O78 C81 1.259 . S
O79 Mg70 2.114 . S
O79 C82 1.252 . S
O80 Mg70 2.251 . S
O80 Mg73 2.079 . S
O80 C82 1.273 . S
C81 O77 1.246 . S
C81 O78 1.259 . S
C82 O79 1.252 . S
C82 O80 1.273 . S
O83 Mg70 2.010 . S
O83 C75 1.249 . S
Mg84 O85 2.028 . S
Mg84 O91 1.986 . S
Mg84 O93 2.114 . S
Mg84 O94 2.251 . S
Mg84 O97 2.010 . S
O85 Mg84 2.028 . S
O85 C88 1.250 . S
O86 Mg87 2.028 . S
O86 C88 1.248 . S
Mg87 O86 2.028 . S
Mg87 O92 2.032 . S
Mg87 O94 2.079 . S
C88 O85 1.250 . S
C88 O86 1.248 . S
C89 O90 1.264 . S
C89 O97 1.249 . S
O90 C89 1.264 . S
O91 Mg84 1.986 . S
O91 C95 1.246 . S
O92 Mg87 2.032 . S
O92 C95 1.259 . S
O93 Mg84 2.114 . S
O93 C96 1.252 . S
O94 Mg84 2.251 . S
O94 Mg87 2.079 . S
O94 C96 1.273 . S
C95 O91 1.246 . S
C95 O92 1.259 . S
C96 O93 1.252 . S
C96 O94 1.273 . S
O97 Mg84 2.010 . S
O97 C89 1.249 . S
Mg98 O99 2.028 . S
Mg98 O105 1.986 . S
Mg98 O107 2.114 1_455 S
Mg98 O108 2.251 1_455 S
Mg98 O111 2.010 . S
O99 Mg98 2.028 . S
O99 C102 1.250 . S
O100 Mg101 2.013 1_455 S
O100 C102 1.273 . S
Mg101 O100 2.013 1_655 S
Mg101 O106 2.032 . S
Mg101 O108 2.079 . S
C102 O99 1.250 . S
C102 O100 1.273 . S
C103 O104 1.264 . S
C103 O111 1.249 . S
O104 C103 1.264 . S
O105 Mg98 1.986 . S
O105 C109 1.246 . S
O106 Mg101 2.032 . S
O106 C109 1.259 1_655 S
O107 Mg98 2.114 1_655 S
O107 C110 1.252 . S
O108 Mg98 2.251 1_655 S
O108 Mg101 2.079 . S
O108 C110 1.273 . S
C109 O105 1.246 . S
C109 O106 1.259 1_455 S
C110 O107 1.252 . S
C110 O108 1.273 . S
O111 Mg98 2.010 . S
O111 C103 1.249 . S
Mg112 O113 2.028 1_545 S
Mg112 O119 1.986 . S
Mg112 O121 2.114 . S
Mg112 O122 2.251 . S
Mg112 O125 2.010 . S
O113 Mg112 2.028 1_565 S
O113 C116 1.250 . S
O114 Mg115 2.028 1_565 S
O114 C116 1.248 . S
Mg115 O114 2.028 1_545 S
Mg115 O120 2.032 . S
Mg115 O122 2.079 . S
C116 O113 1.250 . S
C116 O114 1.248 . S
C117 O118 1.264 . S
C117 O125 1.249 . S
O118 C117 1.264 . S
O119 Mg112 1.986 . S
O119 C123 1.246 . S
O120 Mg115 2.032 . S
O120 C123 1.259 . S
O121 Mg112 2.114 . S
O121 C124 1.252 . S
O122 Mg112 2.251 . S
O122 Mg115 2.079 . S
O122 C124 1.273 . S
C123 O119 1.246 . S
C123 O120 1.259 . S
C124 O121 1.252 . S
C124 O122 1.273 . S
O125 Mg112 2.010 . S
O125 C117 1.249 . S
Mg126 O127 2.028 . S
Mg126 O133 1.986 . S
Mg126 O135 2.114 . S
Mg126 O136 2.251 . S
Mg126 O139 2.010 . S
O127 Mg126 2.028 . S
O127 C130 1.250 . S
O128 Mg129 2.028 . S
O128 C130 1.248 . S
Mg129 O128 2.028 . S
Mg129 O134 2.032 . S
Mg129 O136 2.079 . S
C130 O127 1.250 . S
C130 O128 1.248 . S
C131 O132 1.264 . S
C131 O139 1.249 . S
O132 C131 1.264 . S
O133 Mg126 1.986 . S
O133 C137 1.246 . S
O134 Mg129 2.032 . S
O134 C137 1.259 . S
O135 Mg126 2.114 . S
O135 C138 1.252 . S
O136 Mg126 2.251 . S
O136 Mg129 2.079 . S
O136 C138 1.273 . S
C137 O133 1.246 . S
C137 O134 1.259 . S
C138 O135 1.252 . S
C138 O136 1.273 . S
O139 Mg126 2.010 . S
O139 C131 1.249 . S
Mg140 O141 2.028 1_565 S
Mg140 O147 1.986 . S
Mg140 O149 2.114 1_565 S
Mg140 O150 2.249 . S
Mg140 O153 2.010 . S
O141 Mg140 2.028 1_545 S
O141 C144 1.250 . S
O142 Mg143 2.028 . S
O142 C144 1.248 . S
Mg143 O142 2.028 . S
Mg143 O148 2.032 1_545 S
Mg143 O150 2.080 1_545 S
C144 O141 1.250 . S
C144 O142 1.248 . S
C145 O146 1.264 . S
C145 O153 1.249 . S
O146 C145 1.264 . S
O147 Mg140 1.986 . S
O147 C151 1.246 . S
O148 Mg143 2.032 1_565 S
O148 C151 1.259 . S
O149 Mg140 2.114 1_545 S
O149 C152 1.252 . S
O150 Mg140 2.249 . S
O150 Mg143 2.080 1_565 S
O150 C152 1.257 1_565 S
C151 O147 1.246 . S
C151 O148 1.259 . S
C152 O149 1.252 . S
C152 O150 1.257 1_545 S
O153 Mg140 2.010 . S
O153 C145 1.249 . S
Mg154 O155 2.028 1_554 S
Mg154 O161 1.986 . S
Mg154 O163 2.114 . S
Mg154 O164 2.251 . S
Mg154 O167 2.010 . S
O155 Mg154 2.028 1_556 S
O155 C158 1.250 . S
O156 Mg157 2.028 1_556 S
O156 C158 1.248 . S
Mg157 O156 2.028 1_554 S
Mg157 O162 2.032 . S
Mg157 O164 2.079 . S
C158 O155 1.250 . S
C158 O156 1.248 . S
C159 O160 1.264 . S
C159 O167 1.249 . S
O160 C159 1.264 . S
O161 Mg154 1.986 . S
O161 C165 1.246 . S
O162 Mg157 2.032 . S
O162 C165 1.259 . S
O163 Mg154 2.114 . S
O163 C166 1.252 . S
O164 Mg154 2.251 . S
O164 Mg157 2.079 . S
O164 C166 1.273 . S
C165 O161 1.246 . S
C165 O162 1.259 . S
C166 O163 1.252 . S
C166 O164 1.273 . S
O167 Mg154 2.010 . S
O167 C159 1.249 . S
Mg168 O169 2.028 1_554 S
Mg168 O175 1.986 . S
Mg168 O177 2.114 . S
Mg168 O178 2.251 . S
Mg168 O181 2.010 . S
O169 Mg168 2.028 1_556 S
O169 C172 1.250 . S
O170 Mg171 2.028 1_556 S
O170 C172 1.248 . S
Mg171 O170 2.028 1_554 S
Mg171 O176 2.032 . S
Mg171 O178 2.079 . S
C172 O169 1.250 . S
C172 O170 1.248 . S
C173 O174 1.264 . S
C173 O181 1.249 . S
O174 C173 1.264 . S
O175 Mg168 1.986 . S
O175 C179 1.246 . S
O176 Mg171 2.032 . S
O176 C179 1.259 . S
O177 Mg168 2.114 . S
O177 C180 1.252 . S
O178 Mg168 2.251 . S
O178 Mg171 2.079 . S
O178 C180 1.273 . S
C179 O175 1.246 . S
C179 O176 1.259 . S
C180 O177 1.252 . S
C180 O178 1.273 . S
O181 Mg168 2.010 . S
O181 C173 1.249 . S
Mg182 O183 2.028 . S
Mg182 O189 1.986 1_554 S
Mg182 O191 2.114 . S
Mg182 O192 2.251 . S
Mg182 O195 2.010 . S
O183 Mg182 2.028 . S
O183 C186 1.250 . S
O184 Mg185 2.028 . S
O184 C186 1.248 . S
Mg185 O184 2.028 . S
Mg185 O190 2.032 1_554 S
Mg185 O192 2.079 . S
C186 O183 1.250 . S
C186 O184 1.248 . S
C187 O188 1.264 1_554 S
C187 O195 1.250 . S
O188 C187 1.264 1_556 S
O189 Mg182 1.986 1_556 S
O189 C193 1.246 . S
O190 Mg185 2.032 1_556 S
O190 C193 1.259 . S
O191 Mg182 2.114 . S
O191 C194 1.252 . S
O192 Mg182 2.251 . S
O192 Mg185 2.079 . S
O192 C194 1.273 . S
C193 O189 1.246 . S
C193 O190 1.259 . S
C194 O191 1.252 . S
C194 O192 1.273 . S
O195 Mg182 2.010 . S
O195 C187 1.250 . S
Mg196 O197 2.028 . S
Mg196 O203 1.986 . S
Mg196 O205 2.114 . S
Mg196 O206 2.251 . S
Mg196 O209 2.010 . S
O197 Mg196 2.028 . S
O197 C200 1.250 . S
O198 Mg199 2.028 . S
O198 C200 1.248 . S
Mg199 O198 2.028 . S
Mg199 O204 2.032 . S
Mg199 O206 2.079 . S
C200 O197 1.250 . S
C200 O198 1.248 . S
C201 O202 1.264 . S
C201 O209 1.249 . S
O202 C201 1.264 . S
O203 Mg196 1.986 . S
O203 C207 1.246 . S
O204 Mg199 2.032 . S
O204 C207 1.259 . S
O205 Mg196 2.114 . S
O205 C208 1.252 . S
O206 Mg196 2.251 . S
O206 Mg199 2.079 . S
O206 C208 1.273 . S
C207 O203 1.246 . S
C207 O204 1.259 . S
C208 O205 1.252 . S
C208 O206 1.273 . S
O209 Mg196 2.010 . S
O209 C201 1.249 . S
Mg210 O211 2.028 . S
Mg210 O217 1.986 . S
Mg210 O219 2.114 . S
Mg210 O220 2.251 . S
Mg210 O223 2.010 . S
O211 Mg210 2.028 . S
O211 C214 1.250 . S
O212 Mg213 2.028 . S
O212 C214 1.248 . S
Mg213 O212 2.028 . S
Mg213 O218 2.032 . S
Mg213 O220 2.079 . S
C214 O211 1.250 . S
C214 O212 1.248 . S
C215 O216 1.264 . S
C215 O223 1.249 . S
O216 C215 1.264 . S
O217 Mg210 1.986 . S
O217 C221 1.246 . S
O218 Mg213 2.032 . S
O218 C221 1.259 . S
O219 Mg210 2.114 . S
O219 C222 1.252 . S
O220 Mg210 2.251 . S
O220 Mg213 2.079 . S
O220 C222 1.273 . S
C221 O217 1.246 . S
C221 O218 1.259 . S
C222 O219 1.252 . S
C222 O220 1.273 . S
O223 Mg210 2.010 . S
O223 C215 1.249 . S
Mg224 O225 2.028 . S
Mg224 O231 1.986 . S
Mg224 O233 2.114 . S
Mg224 O234 2.251 . S
Mg224 O237 2.010 . S
O225 Mg224 2.028 . S
O225 C228 1.250 . S
O226 Mg227 2.028 . S
O226 C228 1.248 . S
Mg227 O226 2.028 . S
Mg227 O232 2.032 . S
Mg227 O234 2.079 . S
C228 O225 1.250 . S
C228 O226 1.248 . S
C229 O230 1.264 . S
C229 O237 1.249 . S
O230 C229 1.264 . S
O231 Mg224 1.986 . S
O231 C235 1.246 . S
O232 Mg227 2.032 . S
O232 C235 1.259 . S
O233 Mg224 2.114 . S
O233 C236 1.252 . S
O234 Mg224 2.251 . S
O234 Mg227 2.079 . S
O234 C236 1.273 . S
C235 O231 1.246 . S
C235 O232 1.259 . S
C236 O233 1.252 . S
C236 O234 1.273 . S
O237 Mg224 2.010 . S
O237 C229 1.249 . S
Mg238 O239 2.028 . S
Mg238 O245 1.986 . S
Mg238 O247 2.114 . S
Mg238 O248 2.251 . S
Mg238 O251 2.010 . S
O239 Mg238 2.028 . S
O239 C242 1.250 . S
O240 Mg241 2.028 . S
O240 C242 1.248 . S
Mg241 O240 2.028 . S
Mg241 O246 2.032 . S
Mg241 O248 2.079 . S
C242 O239 1.250 . S
C242 O240 1.248 . S
C243 O244 1.264 . S
C243 O251 1.249 . S
O244 C243 1.264 . S
O245 Mg238 1.986 . S
O245 C249 1.246 . S
O246 Mg241 2.032 . S
O246 C249 1.259 . S
O247 Mg238 2.114 . S
O247 C250 1.252 . S
O248 Mg238 2.251 . S
O248 Mg241 2.079 . S
O248 C250 1.273 . S
C249 O245 1.246 . S
C249 O246 1.259 . S
C250 O247 1.252 . S
C250 O248 1.273 . S
O251 Mg238 2.010 . S
O251 C243 1.249 . S
Mg252 O253 2.028 . S
Mg252 O259 1.986 . S
Mg252 O261 2.114 . S
Mg252 O262 2.251 . S
Mg252 O265 2.010 . S
O253 Mg252 2.028 . S
O253 C256 1.250 . S
O254 Mg255 2.028 . S
O254 C256 1.248 . S
Mg255 O254 2.028 . S
Mg255 O260 2.032 . S
Mg255 O262 2.079 . S
C256 O253 1.250 . S
C256 O254 1.248 . S
C257 O258 1.264 . S
C257 O265 1.249 . S
O258 C257 1.264 . S
O259 Mg252 1.986 . S
O259 C263 1.246 . S
O260 Mg255 2.032 . S
O260 C263 1.259 . S
O261 Mg252 2.114 . S
O261 C264 1.252 . S
O262 Mg252 2.251 . S
O262 Mg255 2.079 . S
O262 C264 1.273 . S
C263 O259 1.246 . S
C263 O260 1.259 . S
C264 O261 1.252 . S
C264 O262 1.273 . S
O265 Mg252 2.010 . S
O265 C257 1.249 . S
Mg266 O267 2.028 . S
Mg266 O273 1.986 . S
Mg266 O275 2.114 . S
Mg266 O276 2.251 . S
Mg266 O279 2.010 . S
O267 Mg266 2.028 . S
O267 C270 1.250 . S
O268 Mg269 2.028 . S
O268 C270 1.248 . S
Mg269 O268 2.028 . S
Mg269 O274 2.032 . S
Mg269 O276 2.079 . S
C270 O267 1.250 . S
C270 O268 1.248 . S
C271 O272 1.264 . S
C271 O279 1.249 . S
O272 C271 1.264 . S
O273 Mg266 1.986 . S
O273 C277 1.246 . S
O274 Mg269 2.032 . S
O274 C277 1.259 . S
O275 Mg266 2.114 . S
O275 C278 1.252 . S
O276 Mg266 2.251 . S
O276 Mg269 2.079 . S
O276 C278 1.273 . S
C277 O273 1.246 . S
C277 O274 1.259 . S
C278 O275 1.252 . S
C278 O276 1.273 . S
O279 Mg266 2.010 . S
O279 C271 1.249 . S
Mg280 O281 2.028 1_556 S
Mg280 O287 1.986 . S
Mg280 O289 2.114 1_556 S
Mg280 O290 2.251 1_556 S
Mg280 O293 2.010 . S
O281 Mg280 2.028 1_554 S
O281 C284 1.250 . S
O282 Mg283 2.028 . S
O282 C284 1.248 . S
Mg283 O282 2.028 . S
Mg283 O288 2.032 1_554 S
Mg283 O290 2.079 . S
C284 O281 1.250 . S
C284 O282 1.248 . S
C285 O286 1.264 . S
C285 O293 1.249 . S
O286 C285 1.264 . S
O287 Mg280 1.986 . S
O287 C291 1.246 . S
O288 Mg283 2.032 1_556 S
O288 C291 1.259 . S
O289 Mg280 2.114 1_554 S
O289 C292 1.252 . S
O290 Mg280 2.251 1_554 S
O290 Mg283 2.079 . S
O290 C292 1.273 . S
C291 O287 1.246 . S
C291 O288 1.259 . S
C292 O289 1.252 . S
C292 O290 1.273 . S
O293 Mg280 2.010 . S
O293 C285 1.249 . S
Mg294 O295 2.028 . S
Mg294 O301 1.986 . S
Mg294 O303 2.114 . S
Mg294 O304 2.251 . S
Mg294 O307 2.010 . S
O295 Mg294 2.028 . S
O295 C298 1.250 . S
O296 Mg297 2.028 . S
O296 C298 1.248 . S
Mg297 O296 2.028 . S
Mg297 O302 2.032 . S
Mg297 O304 2.079 . S
C298 O295 1.250 . S
C298 O296 1.248 . S
C299 O300 1.264 . S
C299 O307 1.249 . S
O300 C299 1.264 . S
O301 Mg294 1.986 . S
O301 C305 1.246 . S
O302 Mg297 2.032 . S
O302 C305 1.259 . S
O303 Mg294 2.114 . S
O303 C306 1.252 . S
O304 Mg294 2.251 . S
O304 Mg297 2.079 . S
O304 C306 1.273 . S
C305 O301 1.246 . S
C305 O302 1.259 . S
C306 O303 1.252 . S
C306 O304 1.273 . S
O307 Mg294 2.010 . S
O307 C299 1.249 . S
Mg308 O309 2.028 . S
Mg308 O315 1.986 . S
Mg308 O317 2.114 . S
Mg308 O318 2.251 . S
Mg308 O321 2.010 . S
O309 Mg308 2.028 . S
O309 C312 1.250 . S
O310 Mg311 2.028 . S
O310 C312 1.248 . S
Mg311 O310 2.028 . S
Mg311 O316 2.032 . S
Mg311 O318 2.079 . S
C312 O309 1.250 . S
C312 O310 1.248 . S
C313 O314 1.264 . S
C313 O321 1.249 . S
O314 C313 1.264 . S
O315 Mg308 1.986 . S
O315 C319 1.246 . S
O316 Mg311 2.032 . S
O316 C319 1.259 . S
O317 Mg308 2.114 . S
O317 C320 1.252 . S
O318 Mg308 2.251 . S
O318 Mg311 2.079 . S
O318 C320 1.273 . S
C319 O315 1.246 . S
C319 O316 1.259 . S
C320 O317 1.252 . S
C320 O318 1.273 . S
O321 Mg308 2.010 . S
O321 C313 1.249 . S
Mg322 O323 2.028 . S
Mg322 O329 1.986 . S
Mg322 O331 2.114 . S
Mg322 O332 2.251 . S
Mg322 O335 2.010 . S
O323 Mg322 2.028 . S
O323 C326 1.250 . S
O324 Mg325 2.028 . S
O324 C326 1.248 . S
Mg325 O324 2.028 . S
Mg325 O330 2.032 . S
Mg325 O332 2.079 . S
C326 O323 1.250 . S
C326 O324 1.248 . S
C327 O328 1.264 . S
C327 O335 1.249 . S
O328 C327 1.264 . S
O329 Mg322 1.986 . S
O329 C333 1.246 . S
O330 Mg325 2.032 . S
O330 C333 1.259 . S
O331 Mg322 2.114 . S
O331 C334 1.252 . S
O332 Mg322 2.251 . S
O332 Mg325 2.079 . S
O332 C334 1.273 . S
C333 O329 1.246 . S
C333 O330 1.259 . S
C334 O331 1.252 . S
C334 O332 1.273 . S
O335 Mg322 2.010 . S
O335 C327 1.249 . S
Gd336 C339 2.818 1_455 S
Gd336 O356 2.377 . S
Gd336 O358 2.448 1_455 S
Gd336 O359 2.506 1_456 S
Gd336 O360 2.435 . S
Gd336 O361 2.717 . S
Gd336 O363 2.395 1_546 S
Gd336 O367 2.327 1_556 S
Gd337 C348 2.818 . S
Gd337 O357 2.395 . S
Gd337 O361 2.327 1_554 S
Gd337 O362 2.377 . S
Gd337 O364 2.448 . S
Gd337 O365 2.506 . S
Gd337 O366 2.435 . S
Gd337 O367 2.717 . S
C338 O356 1.240 1_554 S
C338 O357 1.240 . S
C339 Gd336 2.818 1_655 S
C339 C340 1.510 . S
C339 O358 1.249 . S
C339 O359 1.252 1_556 S
C340 C339 1.510 . S
C340 C341 1.404 . S
C340 C342 1.377 . S
C341 C340 1.404 . S
C341 C345 1.389 . S
C341 H368 0.930 . S
C342 C340 1.377 . S
C342 C344 1.383 . S
C342 H369 0.896 1_556 S
C343 C344 1.359 . S
C343 C345 1.364 . S
C344 C342 1.383 . S
C344 C343 1.359 . S
C344 H370 0.931 1_556 S
C345 C341 1.389 . S
C345 C343 1.364 . S
C345 H371 0.931 . S
C346 O360 1.256 . S
C346 O361 1.257 . S
C347 O362 1.240 1_565 S
C347 O363 1.240 . S
C348 Gd337 2.818 . S
C348 C349 1.510 . S
C348 O364 1.249 . S
C348 O365 1.252 . S
C349 C348 1.510 . S
C349 C350 1.404 . S
C349 C351 1.352 . S
C350 C349 1.404 . S
C350 C354 1.389 . S
C350 H372 0.930 . S
C351 C349 1.352 . S
C351 C353 1.374 1_545 S
C351 H373 0.932 1_545 S
C352 C353 1.359 1_545 S
C352 C354 1.364 . S
C353 C351 1.374 1_565 S
C353 C352 1.359 1_565 S
C353 H374 0.931 . S
C354 C350 1.389 . S
C354 C352 1.364 . S
C354 H375 0.931 . S
C355 O366 1.256 . S
C355 O367 1.257 . S
O356 Gd336 2.377 . S
O356 C338 1.240 1_556 S
O357 Gd337 2.395 . S
O357 C338 1.240 . S
O358 Gd336 2.448 1_655 S
O358 C339 1.249 . S
O359 Gd336 2.506 1_654 S
O359 C339 1.252 1_554 S
O360 Gd336 2.435 . S
O360 C346 1.256 . S
O361 Gd336 2.717 . S
O361 Gd337 2.327 1_556 S
O361 C346 1.257 . S
O362 Gd337 2.377 . S
O362 C347 1.240 1_545 S
O363 Gd336 2.395 1_564 S
O363 C347 1.240 . S
O364 Gd337 2.448 . S
O364 C348 1.249 . S
O365 Gd337 2.506 . S
O365 C348 1.252 . S
O366 Gd337 2.435 . S
O366 C355 1.256 . S
O367 Gd336 2.327 1_554 S
O367 Gd337 2.717 . S
O367 C355 1.257 . S
H368 C341 0.930 . S
H369 C342 0.896 1_554 S
H370 C344 0.931 1_554 S
H371 C345 0.931 . S
H372 C350 0.930 . S
H373 C351 0.932 1_565 S
H374 C353 0.931 . S
H375 C354 0.931 . S
Gd376 C379 2.818 . S
Gd376 O396 2.377 . S
Gd376 O398 2.448 . S
Gd376 O399 2.506 . S
Gd376 O400 2.435 . S
Gd376 O401 2.717 . S
Gd376 O403 2.395 . S
Gd376 O407 2.327 . S
Gd377 C388 2.818 . S
Gd377 O397 2.395 . S
Gd377 O401 2.327 . S
Gd377 O402 2.377 . S
Gd377 O404 2.448 . S
Gd377 O405 2.506 . S
Gd377 O406 2.435 . S
Gd377 O407 2.717 . S
C378 O396 1.240 . S
C378 O397 1.240 . S
C379 Gd376 2.818 . S
C379 C380 1.510 . S
C379 O398 1.249 . S
C379 O399 1.252 . S
C380 C379 1.510 . S
C380 C381 1.404 . S
C380 C382 1.352 . S
C381 C380 1.404 . S
C381 C385 1.389 . S
C381 H408 0.930 . S
C382 C380 1.352 . S
C382 C384 1.374 . S
C382 H409 0.931 . S
C383 C384 1.359 . S
C383 C385 1.364 . S
C384 C382 1.374 . S
C384 C383 1.359 . S
C384 H410 0.931 . S
C385 C381 1.389 . S
C385 C383 1.364 . S
C385 H411 0.931 . S
C386 O400 1.256 . S
C386 O401 1.257 . S
C387 O402 1.240 . S
C387 O403 1.240 . S
C388 Gd377 2.818 . S
C388 C389 1.510 . S
C388 O404 1.249 . S
C388 O405 1.252 . S
C389 C388 1.510 . S
C389 C390 1.404 . S
C389 C391 1.352 . S
C390 C389 1.404 . S
C390 C394 1.389 . S
C390 H412 0.930 . S
C391 C389 1.352 . S
C391 C393 1.374 . S
C391 H413 0.931 . S
C392 C393 1.359 . S
C392 C394 1.364 . S
C393 C391 1.374 . S
C393 C392 1.359 . S
C393 H414 0.931 . S
C394 C390 1.389 . S
C394 C392 1.364 . S
C394 H415 0.931 . S
C395 O406 1.256 . S
C395 O407 1.257 . S
O396 Gd376 2.377 . S
O396 C378 1.240 . S
O397 Gd377 2.395 . S
O397 C378 1.240 . S
O398 Gd376 2.448 . S
O398 C379 1.249 . S
O399 Gd376 2.506 . S
O399 C379 1.252 . S
O400 Gd376 2.435 . S
O400 C386 1.256 . S
O401 Gd376 2.717 . S
O401 Gd377 2.327 . S
O401 C386 1.257 . S
O402 Gd377 2.377 . S
O402 C387 1.240 . S
O403 Gd376 2.395 . S
O403 C387 1.240 . S
O404 Gd377 2.448 . S
O404 C388 1.249 . S
O405 Gd377 2.506 . S
O405 C388 1.252 . S
O406 Gd377 2.435 . S
O406 C395 1.256 . S
O407 Gd376 2.327 . S
O407 Gd377 2.717 . S
O407 C395 1.257 . S
H408 C381 0.930 . S
H409 C382 0.931 . S
H410 C384 0.931 . S
H411 C385 0.931 . S
H412 C390 0.930 . S
H413 C391 0.931 . S
H414 C393 0.931 . S
H415 C394 0.931 . S
Gd416 C419 2.818 . S
Gd416 O436 2.377 1_545 S
Gd416 O438 2.448 . S
Gd416 O439 2.506 . S
Gd416 O440 2.435 . S
Gd416 O441 2.717 . S
Gd416 O443 2.395 . S
Gd416 O447 2.327 . S
Gd417 C428 2.818 . S
Gd417 O437 2.395 1_545 S
Gd417 O441 2.327 . S
Gd417 O442 2.377 . S
Gd417 O444 2.448 . S
Gd417 O445 2.506 . S
Gd417 O446 2.435 . S
Gd417 O447 2.717 . S
C418 O436 1.240 . S
C418 O437 1.240 . S
C419 Gd416 2.818 . S
C419 C420 1.510 1_545 S
C419 O438 1.249 . S
C419 O439 1.252 . S
C420 C419 1.510 1_565 S
C420 C421 1.404 . S
C420 C422 1.352 . S
C421 C420 1.404 . S
C421 C425 1.389 . S
C421 H448 0.899 1_565 S
C422 C420 1.352 . S
C422 C424 1.374 . S
C422 H449 0.931 . S
C423 C424 1.359 . S
C423 C425 1.364 . S
C424 C422 1.374 . S
C424 C423 1.359 . S
C424 H450 0.931 . S
C425 C421 1.389 . S
C425 C423 1.364 . S
C425 H451 0.931 . S
C426 O440 1.256 . S
C426 O441 1.257 . S
C427 O442 1.240 . S
C427 O443 1.240 . S
C428 Gd417 2.818 . S
C428 C429 1.510 . S
C428 O444 1.249 . S
C428 O445 1.252 . S
C429 C428 1.510 . S
C429 C430 1.404 . S
C429 C431 1.352 . S
C430 C429 1.404 . S
C430 C434 1.389 . S
C430 H452 0.930 . S
C431 C429 1.352 . S
C431 C433 1.374 . S
C431 H453 0.931 . S
C432 C433 1.359 . S
C432 C434 1.364 . S
C433 C431 1.374 . S
C433 C432 1.359 . S
C433 H454 0.931 . S
C434 C430 1.389 . S
C434 C432 1.364 . S
C434 H455 0.931 . S
C435 O446 1.256 . S
C435 O447 1.257 . S
O436 Gd416 2.377 1_565 S
O436 C418 1.240 . S
O437 Gd417 2.395 1_565 S
O437 C418 1.240 . S
O438 Gd416 2.448 . S
O438 C419 1.249 . S
O439 Gd416 2.506 . S
O439 C419 1.252 . S
O440 Gd416 2.435 . S
O440 C426 1.256 . S
O441 Gd416 2.717 . S
O441 Gd417 2.327 . S
O441 C426 1.257 . S
O442 Gd417 2.377 . S
O442 C427 1.240 . S
O443 Gd416 2.395 . S
O443 C427 1.240 . S
O444 Gd417 2.448 . S
O444 C428 1.249 . S
O445 Gd417 2.506 . S
O445 C428 1.252 . S
O446 Gd417 2.435 . S
O446 C435 1.256 . S
O447 Gd416 2.327 . S
O447 Gd417 2.717 . S
O447 C435 1.257 . S
H448 C421 0.899 1_545 S
H449 C422 0.931 . S
H450 C424 0.931 . S
H451 C425 0.931 . S
H452 C430 0.930 . S
H453 C431 0.931 . S
H454 C433 0.931 . S
H455 C434 0.931 . S
Gd456 C459 2.818 . S
Gd456 O476 2.377 . S
Gd456 O478 2.448 . S
Gd456 O479 2.506 . S
Gd456 O480 2.435 . S
Gd456 O481 2.717 . S
Gd456 O483 2.395 . S
Gd456 O487 2.327 . S
Gd457 C468 2.818 . S
Gd457 O477 2.395 . S
Gd457 O481 2.327 . S
Gd457 O482 2.377 . S
Gd457 O484 2.448 . S
Gd457 O485 2.506 . S
Gd457 O486 2.435 . S
Gd457 O487 2.717 . S
C458 O476 1.240 . S
C458 O477 1.240 . S
C459 Gd456 2.818 . S
C459 C460 1.510 . S
C459 O478 1.249 . S
C459 O479 1.252 . S
C460 C459 1.510 . S
C460 C461 1.404 . S
C460 C462 1.352 . S
C461 C460 1.404 . S
C461 C465 1.389 . S
C461 H488 0.930 . S
C462 C460 1.352 . S
C462 C464 1.374 . S
C462 H489 0.931 . S
C463 C464 1.359 . S
C463 C465 1.364 . S
C464 C462 1.374 . S
C464 C463 1.359 . S
C464 H490 0.931 . S
C465 C461 1.389 . S
C465 C463 1.364 . S
C465 H491 0.931 . S
C466 O480 1.256 . S
C466 O481 1.257 . S
C467 O482 1.240 . S
C467 O483 1.240 . S
C468 Gd457 2.818 . S
C468 C469 1.510 . S
C468 O484 1.249 . S
C468 O485 1.252 . S
C469 C468 1.510 . S
C469 C470 1.404 . S
C469 C471 1.352 . S
C470 C469 1.404 . S
C470 C474 1.389 . S
C470 H492 0.930 . S
C471 C469 1.352 . S
C471 C473 1.374 . S
C471 H493 0.931 . S
C472 C473 1.359 . S
C472 C474 1.364 . S
C473 C471 1.374 . S
C473 C472 1.359 . S
C473 H494 0.931 . S
C474 C470 1.389 . S
C474 C472 1.364 . S
C474 H495 0.931 . S
C475 O486 1.256 . S
C475 O487 1.257 . S
O476 Gd456 2.377 . S
O476 C458 1.240 . S
O477 Gd457 2.395 . S
O477 C458 1.240 . S
O478 Gd456 2.448 . S
O478 C459 1.249 . S
O479 Gd456 2.506 . S
O479 C459 1.252 . S
O480 Gd456 2.435 . S
O480 C466 1.256 . S
O481 Gd456 2.717 . S
O481 Gd457 2.327 . S
O481 C466 1.257 . S
O482 Gd457 2.377 . S
O482 C467 1.240 . S
O483 Gd456 2.395 . S
O483 C467 1.240 . S
O484 Gd457 2.448 . S
O484 C468 1.249 . S
O485 Gd457 2.506 . S
O485 C468 1.252 . S
O486 Gd457 2.435 . S
O486 C475 1.256 . S
O487 Gd456 2.327 . S
O487 Gd457 2.717 . S
O487 C475 1.257 . S
H488 C461 0.930 . S
H489 C462 0.931 . S
H490 C464 0.931 . S
H491 C465 0.931 . S
H492 C470 0.930 . S
H493 C471 0.931 . S
H494 C473 0.931 . S
H495 C474 0.931 . S
Gd496 C499 2.818 . S
Gd496 O516 2.377 . S
Gd496 O518 2.448 . S
Gd496 O519 2.506 . S
Gd496 O520 2.435 . S
Gd496 O521 2.717 . S
Gd496 O523 2.395 . S
Gd496 O527 2.327 . S
Gd497 C508 2.818 . S
Gd497 O517 2.395 1_565 S
Gd497 O521 2.327 1_565 S
Gd497 O522 2.377 1_565 S
Gd497 O524 2.448 . S
Gd497 O525 2.506 . S
Gd497 O526 2.435 1_565 S
Gd497 O527 2.717 1_565 S
C498 O516 1.240 . S
C498 O517 1.240 . S
C499 Gd496 2.818 . S
C499 C500 1.510 . S
C499 O518 1.249 . S
C499 O519 1.252 . S
C500 C499 1.510 . S
C500 C501 1.404 . S
C500 C502 1.352 . S
C501 C500 1.404 . S
C501 C505 1.389 . S
C501 H528 0.930 . S
C502 C500 1.352 . S
C502 C504 1.374 . S
C502 H529 0.931 . S
C503 C504 1.359 . S
C503 C505 1.364 . S
C504 C502 1.374 . S
C504 C503 1.359 . S
C504 H530 0.931 . S
C505 C501 1.389 . S
C505 C503 1.364 . S
C505 H531 0.931 . S
C506 O520 1.256 . S
C506 O521 1.257 . S
C507 O522 1.240 . S
C507 O523 1.240 . S
C508 Gd497 2.818 . S
C508 C509 1.510 . S
C508 O524 1.249 . S
C508 O525 1.252 . S
C509 C508 1.510 . S
C509 C510 1.404 . S
C509 C511 1.352 . S
C510 C509 1.404 . S
C510 C514 1.389 . S
C510 H532 0.930 . S
C511 C509 1.352 . S
C511 C513 1.374 . S
C511 H533 0.931 . S
C512 C513 1.359 . S
C512 C514 1.364 . S
C513 C511 1.374 . S
C513 C512 1.359 . S
C513 H534 0.931 . S
C514 C510 1.389 . S
C514 C512 1.364 . S
C514 H535 0.931 . S
C515 O526 1.256 . S
C515 O527 1.257 . S
O516 Gd496 2.377 . S
O516 C498 1.240 . S
O517 Gd497 2.395 1_545 S
O517 C498 1.240 . S
O518 Gd496 2.448 . S
O518 C499 1.249 . S
O519 Gd496 2.506 . S
O519 C499 1.252 . S
O520 Gd496 2.435 . S
O520 C506 1.256 . S
O521 Gd496 2.717 . S
O521 Gd497 2.327 1_545 S
O521 C506 1.257 . S
O522 Gd497 2.377 1_545 S
O522 C507 1.240 . S
O523 Gd496 2.395 . S
O523 C507 1.240 . S
O524 Gd497 2.448 . S
O524 C508 1.249 . S
O525 Gd497 2.506 . S
O525 C508 1.252 . S
O526 Gd497 2.435 1_545 S
O526 C515 1.256 . S
O527 Gd496 2.327 . S
O527 Gd497 2.717 1_545 S
O527 C515 1.257 . S
H528 C501 0.930 . S
H529 C502 0.931 . S
H530 C504 0.931 . S
H531 C505 0.931 . S
H532 C510 0.930 . S
H533 C511 0.931 . S
H534 C513 0.931 . S
H535 C514 0.931 . S
Gd536 C539 2.818 . S
Gd536 O556 2.377 . S
Gd536 O558 2.448 . S
Gd536 O559 2.506 . S
Gd536 O560 2.435 . S
Gd536 O561 2.717 . S
Gd536 O563 2.395 . S
Gd536 O567 2.327 . S
Gd537 C548 2.818 . S
Gd537 O557 2.395 . S
Gd537 O561 2.327 . S
Gd537 O562 2.377 . S
Gd537 O564 2.448 . S
Gd537 O565 2.506 . S
Gd537 O566 2.435 . S
Gd537 O567 2.717 . S
C538 O556 1.240 . S
C538 O557 1.240 . S
C539 Gd536 2.818 . S
C539 C540 1.510 . S
C539 O558 1.249 . S
C539 O559 1.252 . S
C540 C539 1.510 . S
C540 C541 1.404 . S
C540 C542 1.352 . S
C541 C540 1.404 . S
C541 C545 1.389 . S
C541 H568 0.930 . S
C542 C540 1.352 . S
C542 C544 1.374 . S
C542 H569 0.931 . S
C543 C544 1.359 . S
C543 C545 1.364 . S
C544 C542 1.374 . S
C544 C543 1.359 . S
C544 H570 0.931 . S
C545 C541 1.389 . S
C545 C543 1.364 . S
C545 H571 0.931 . S
C546 O560 1.256 . S
C546 O561 1.257 . S
C547 O562 1.240 . S
C547 O563 1.240 . S
C548 Gd537 2.818 . S
C548 C549 1.510 . S
C548 O564 1.249 . S
C548 O565 1.252 . S
C549 C548 1.510 . S
C549 C550 1.404 . S
C549 C551 1.352 . S
C550 C549 1.404 . S
C550 C554 1.389 . S
C550 H572 0.930 . S
C551 C549 1.352 . S
C551 C553 1.374 . S
C551 H573 0.931 . S
C552 C553 1.359 . S
C552 C554 1.364 . S
C553 C551 1.374 . S
C553 C552 1.359 . S
C553 H574 0.931 . S
C554 C550 1.389 . S
C554 C552 1.364 . S
C554 H575 0.931 . S
C555 O566 1.256 . S
C555 O567 1.257 . S
O556 Gd536 2.377 . S
O556 C538 1.240 . S
O557 Gd537 2.395 . S
O557 C538 1.240 . S
O558 Gd536 2.448 . S
O558 C539 1.249 . S
O559 Gd536 2.506 . S
O559 C539 1.252 . S
O560 Gd536 2.435 . S
O560 C546 1.256 . S
O561 Gd536 2.717 . S
O561 Gd537 2.327 . S
O561 C546 1.257 . S
O562 Gd537 2.377 . S
O562 C547 1.240 . S
O563 Gd536 2.395 . S
O563 C547 1.240 . S
O564 Gd537 2.448 . S
O564 C548 1.249 . S
O565 Gd537 2.506 . S
O565 C548 1.252 . S
O566 Gd537 2.435 . S
O566 C555 1.256 . S
O567 Gd536 2.327 . S
O567 Gd537 2.717 . S
O567 C555 1.257 . S
H568 C541 0.930 . S
H569 C542 0.931 . S
H570 C544 0.931 . S
H571 C545 0.931 . S
H572 C550 0.930 . S
H573 C551 0.931 . S
H574 C553 0.931 . S
H575 C554 0.931 . S
Gd576 C579 2.818 . S
Gd576 O596 2.377 . S
Gd576 O598 2.448 1_545 S
Gd576 O599 2.506 . S
Gd576 O600 2.435 1_545 S
Gd576 O601 2.717 1_554 S
Gd576 O603 2.395 . S
Gd576 O607 2.327 . S
Gd577 C588 2.818 . S
Gd577 O597 2.395 . S
Gd577 O601 2.327 . S
Gd577 O602 2.390 . S
Gd577 O604 2.448 . S
Gd577 O605 2.506 . S
Gd577 O606 2.435 1_556 S
Gd577 O607 2.717 1_556 S
C578 O596 1.240 . S
C578 O597 1.240 1_554 S
C579 Gd576 2.818 . S
C579 C580 1.510 1_545 S
C579 O598 1.249 1_545 S
C579 O599 1.252 . S
C580 C579 1.510 1_565 S
C580 C581 1.404 . S
C580 C582 1.352 1_565 S
C581 C580 1.404 . S
C581 C585 1.389 . S
C581 H608 0.930 . S
C582 C580 1.352 1_545 S
C582 C584 1.374 . S
C582 H609 0.931 . S
C583 C584 1.359 1_565 S
C583 C585 1.364 . S
C584 C582 1.374 . S
C584 C583 1.359 1_545 S
C584 H610 0.931 . S
C585 C581 1.389 . S
C585 C583 1.364 . S
C585 H611 0.931 . S
C586 O600 1.256 1_556 S
C586 O601 1.257 1_565 S
C587 O602 1.213 1_554 S
C587 O603 1.240 . S
C588 Gd577 2.818 . S
C588 C589 1.510 . S
C588 O604 1.249 . S
C588 O605 1.252 . S
C589 C588 1.510 . S
C589 C590 1.404 . S
C589 C591 1.352 . S
C590 C589 1.404 . S
C590 C594 1.389 . S
C590 H612 0.930 . S
C591 C589 1.352 . S
C591 C593 1.374 . S
C591 H613 0.931 . S
C592 C593 1.359 . S
C592 C594 1.364 . S
C593 C591 1.374 . S
C593 C592 1.359 . S
C593 H614 0.931 . S
C594 C590 1.389 . S
C594 C592 1.364 . S
C594 H615 0.931 . S
C595 O606 1.256 . S
C595 O607 1.257 . S
O596 Gd576 2.377 . S
O596 C578 1.240 . S
O597 Gd577 2.395 . S
O597 C578 1.240 1_556 S
O598 Gd576 2.448 1_565 S
O598 C579 1.249 1_565 S
O599 Gd576 2.506 . S
O599 C579 1.252 . S
O600 Gd576 2.435 1_565 S
O600 C586 1.256 1_554 S
O601 Gd576 2.717 1_556 S
O601 Gd577 2.327 . S
O601 C586 1.257 1_545 S
O602 Gd577 2.390 . S
O602 C587 1.213 1_556 S
O603 Gd576 2.395 . S
O603 C587 1.240 . S
O604 Gd577 2.448 . S
O604 C588 1.249 . S
O605 Gd577 2.506 . S
O605 C588 1.252 . S
O606 Gd577 2.435 1_554 S
O606 C595 1.256 . S
O607 Gd576 2.327 . S
O607 Gd577 2.717 1_554 S
O607 C595 1.257 . S
H608 C581 0.930 . S
H609 C582 0.931 . S
H610 C584 0.931 . S
H611 C585 0.931 . S
H612 C590 0.930 . S
H613 C591 0.931 . S
H614 C593 0.931 . S
H615 C594 0.931 . S
Gd616 C619 2.818 . S
Gd616 O636 2.377 . S
Gd616 O638 2.448 . S
Gd616 O639 2.506 . S
Gd616 O640 2.435 . S
Gd616 O641 2.717 . S
Gd616 O643 2.395 . S
Gd616 O647 2.327 . S
Gd617 C628 2.818 . S
Gd617 O637 2.395 . S
Gd617 O641 2.327 . S
Gd617 O642 2.377 . S
Gd617 O644 2.448 . S
Gd617 O645 2.506 . S
Gd617 O646 2.435 . S
Gd617 O647 2.717 . S
C618 O636 1.240 . S
C618 O637 1.240 . S
C619 Gd616 2.818 . S
C619 C620 1.510 . S
C619 O638 1.249 . S
C619 O639 1.252 . S
C620 C619 1.510 . S
C620 C621 1.404 . S
C620 C622 1.352 . S
C621 C620 1.404 . S
C621 C625 1.389 . S
C621 H648 0.930 . S
C622 C620 1.352 . S
C622 C624 1.374 . S
C622 H649 0.931 . S
C623 C624 1.359 . S
C623 C625 1.364 . S
C624 C622 1.374 . S
C624 C623 1.359 . S
C624 H650 0.931 . S
C625 C621 1.389 . S
C625 C623 1.364 . S
C625 H651 0.931 . S
C626 O640 1.256 . S
C626 O641 1.257 . S
C627 O642 1.240 . S
C627 O643 1.240 . S
C628 Gd617 2.818 . S
C628 C629 1.510 . S
C628 O644 1.249 . S
C628 O645 1.252 . S
C629 C628 1.510 . S
C629 C630 1.404 . S
C629 C631 1.352 . S
C630 C629 1.404 . S
C630 C634 1.389 . S
C630 H652 0.930 . S
C631 C629 1.352 . S
C631 C633 1.374 . S
C631 H653 0.931 . S
C632 C633 1.359 . S
C632 C634 1.364 . S
C633 C631 1.374 . S
C633 C632 1.359 . S
C633 H654 0.931 . S
C634 C630 1.389 . S
C634 C632 1.364 . S
C634 H655 0.931 . S
C635 O646 1.256 . S
C635 O647 1.257 . S
O636 Gd616 2.377 . S
O636 C618 1.240 . S
O637 Gd617 2.395 . S
O637 C618 1.240 . S
O638 Gd616 2.448 . S
O638 C619 1.249 . S
O639 Gd616 2.506 . S
O639 C619 1.252 . S
O640 Gd616 2.435 . S
O640 C626 1.256 . S
O641 Gd616 2.717 . S
O641 Gd617 2.327 . S
O641 C626 1.257 . S
O642 Gd617 2.377 . S
O642 C627 1.240 . S
O643 Gd616 2.395 . S
O643 C627 1.240 . S
O644 Gd617 2.448 . S
O644 C628 1.249 . S
O645 Gd617 2.506 . S
O645 C628 1.252 . S
O646 Gd617 2.435 . S
O646 C635 1.256 . S
O647 Gd616 2.327 . S
O647 Gd617 2.717 . S
O647 C635 1.257 . S
H648 C621 0.930 . S
H649 C622 0.931 . S
H650 C624 0.931 . S
H651 C625 0.931 . S
H652 C630 0.930 . S
H653 C631 0.931 . S
H654 C633 0.931 . S
H655 C634 0.931 . S
Gd656 C659 2.818 . S
Gd656 O676 2.377 1_554 S
Gd656 O678 2.448 . S
Gd656 O679 2.506 . S
Gd656 O680 2.435 . S
Gd656 O681 2.717 . S
Gd656 O683 2.395 . S
Gd656 O687 2.327 . S
Gd657 C668 2.840 . S
Gd657 O677 2.365 1_554 S
Gd657 O681 2.341 . S
Gd657 O682 2.409 . S
Gd657 O684 2.461 . S
Gd657 O685 2.531 . S
Gd657 O686 2.428 . S
Gd657 O687 2.714 . S
C658 O676 1.240 . S
C658 O677 1.240 . S
C659 Gd656 2.818 . S
C659 C660 1.510 1_554 S
C659 O678 1.249 . S
C659 O679 1.252 . S
C660 C659 1.510 1_556 S
C660 C661 1.404 . S
C660 C662 1.352 . S
C661 C660 1.404 . S
C661 C665 1.389 . S
C661 H688 0.930 1_556 S
C662 C660 1.352 . S
C662 C664 1.374 . S
C662 H689 0.931 . S
C663 C664 1.359 . S
C663 C665 1.364 . S
C664 C662 1.374 . S
C664 C663 1.359 . S
C664 H690 0.931 . S
C665 C661 1.389 . S
C665 C663 1.364 . S
C665 H691 0.931 . S
C666 O680 1.256 . S
C666 O681 1.257 . S
C667 O682 1.240 . S
C667 O683 1.240 . S
C668 Gd657 2.840 . S
C668 C669 1.510 . S
C668 O684 1.249 . S
C668 O685 1.252 . S
C669 C668 1.510 . S
C669 C670 1.404 . S
C669 C671 1.352 . S
C670 C669 1.404 . S
C670 C674 1.389 . S
C670 H692 0.930 . S
C671 C669 1.352 . S
C671 C673 1.374 . S
C671 H693 0.931 . S
C672 C673 1.359 . S
C672 C674 1.364 . S
C673 C671 1.374 . S
C673 C672 1.359 . S
C673 H694 0.931 . S
C674 C670 1.389 . S
C674 C672 1.364 . S
C674 H695 0.931 . S
C675 O686 1.256 . S
C675 O687 1.257 . S
O676 Gd656 2.377 1_556 S
O676 C658 1.240 . S
O677 Gd657 2.365 1_556 S
O677 C658 1.240 . S
O678 Gd656 2.448 . S
O678 C659 1.249 . S
O679 Gd656 2.506 . S
O679 C659 1.252 . S
O680 Gd656 2.435 . S
O680 C666 1.256 . S
O681 Gd656 2.717 . S
O681 Gd657 2.341 . S
O681 C666 1.257 . S
O682 Gd657 2.409 . S
O682 C667 1.240 . S
O683 Gd656 2.395 . S
O683 C667 1.240 . S
O684 Gd657 2.461 . S
O684 C668 1.249 . S
O685 Gd657 2.531 . S
O685 C668 1.252 . S
O686 Gd657 2.428 . S
O686 C675 1.256 . S
O687 Gd656 2.327 . S
O687 Gd657 2.714 . S
O687 C675 1.257 . S
H688 C661 0.930 1_554 S
H689 C662 0.931 . S
H690 C664 0.931 . S
H691 C665 0.931 . S
H692 C670 0.930 . S
H693 C671 0.931 . S
H694 C673 0.931 . S
H695 C674 0.931 . S
Gd696 C699 2.818 . S
Gd696 O716 2.377 . S
Gd696 O718 2.448 . S
Gd696 O719 2.506 . S
Gd696 O720 2.435 . S
Gd696 O721 2.717 . S
Gd696 O723 2.395 . S
Gd696 O727 2.327 . S
Gd697 C708 2.818 . S
Gd697 O717 2.395 . S
Gd697 O721 2.327 . S
Gd697 O722 2.377 . S
Gd697 O724 2.448 . S
Gd697 O725 2.506 . S
Gd697 O726 2.435 . S
Gd697 O727 2.717 . S
C698 O716 1.240 . S
C698 O717 1.240 . S
C699 Gd696 2.818 . S
C699 C700 1.510 . S
C699 O718 1.249 . S
C699 O719 1.252 . S
C700 C699 1.510 . S
C700 C701 1.404 . S
C700 C702 1.352 . S
C701 C700 1.404 . S
C701 C705 1.389 . S
C701 H728 0.930 . S
C702 C700 1.352 . S
C702 C704 1.374 . S
C702 H729 0.931 . S
C703 C704 1.359 . S
C703 C705 1.364 . S
C704 C702 1.374 . S
C704 C703 1.359 . S
C704 H730 0.931 . S
C705 C701 1.389 . S
C705 C703 1.364 . S
C705 H731 0.931 . S
C706 O720 1.256 . S
C706 O721 1.257 . S
C707 O722 1.240 . S
C707 O723 1.240 . S
C708 Gd697 2.818 . S
C708 C709 1.510 . S
C708 O724 1.249 . S
C708 O725 1.252 . S
C709 C708 1.510 . S
C709 C710 1.404 . S
C709 C711 1.352 . S
C710 C709 1.404 . S
C710 C714 1.389 . S
C710 H732 0.930 . S
C711 C709 1.352 . S
C711 C713 1.374 . S
C711 H733 0.931 . S
C712 C713 1.359 . S
C712 C714 1.364 . S
C713 C711 1.374 . S
C713 C712 1.359 . S
C713 H734 0.931 . S
C714 C710 1.389 . S
C714 C712 1.364 . S
C714 H735 0.931 . S
C715 O726 1.256 . S
C715 O727 1.257 . S
O716 Gd696 2.377 . S
O716 C698 1.240 . S
O717 Gd697 2.395 . S
O717 C698 1.240 . S
O718 Gd696 2.448 . S
O718 C699 1.249 . S
O719 Gd696 2.506 . S
O719 C699 1.252 . S
O720 Gd696 2.435 . S
O720 C706 1.256 . S
O721 Gd696 2.717 . S
O721 Gd697 2.327 . S
O721 C706 1.257 . S
O722 Gd697 2.377 . S
O722 C707 1.240 . S
O723 Gd696 2.395 . S
O723 C707 1.240 . S
O724 Gd697 2.448 . S
O724 C708 1.249 . S
O725 Gd697 2.506 . S
O725 C708 1.252 . S
O726 Gd697 2.435 . S
O726 C715 1.256 . S
O727 Gd696 2.327 . S
O727 Gd697 2.717 . S
O727 C715 1.257 . S
H728 C701 0.930 . S
H729 C702 0.931 . S
H730 C704 0.931 . S
H731 C705 0.931 . S
H732 C710 0.930 . S
H733 C711 0.931 . S
H734 C713 0.931 . S
H735 C714 0.931 . S
Gd736 C739 2.818 . S
Gd736 O756 2.377 . S
Gd736 O758 2.448 . S
Gd736 O759 2.506 . S
Gd736 O760 2.435 . S
Gd736 O761 2.717 . S
Gd736 O763 2.395 . S
Gd736 O767 2.327 . S
Gd737 C748 2.818 . S
Gd737 O757 2.395 . S
Gd737 O761 2.327 . S
Gd737 O762 2.377 . S
Gd737 O764 2.448 . S
Gd737 O765 2.506 . S
Gd737 O766 2.435 . S
Gd737 O767 2.717 . S
C738 O756 1.240 . S
C738 O757 1.240 . S
C739 Gd736 2.818 . S
C739 C740 1.510 . S
C739 O758 1.249 . S
C739 O759 1.252 . S
C740 C739 1.510 . S
C740 C741 1.404 . S
C740 C742 1.357 . S
C741 C740 1.404 . S
C741 C745 1.389 . S
C741 H768 0.930 . S
C742 C740 1.357 . S
C742 C744 1.370 1_455 S
C742 H769 0.919 1_455 S
C743 C744 1.359 . S
C743 C745 1.364 1_655 S
C744 C742 1.370 1_655 S
C744 C743 1.359 . S
C744 H770 0.931 . S
C745 C741 1.389 . S
C745 C743 1.364 1_455 S
C745 H771 0.931 . S
C746 O760 1.256 . S
C746 O761 1.257 . S
C747 O762 1.240 . S
C747 O763 1.240 . S
C748 Gd737 2.818 . S
C748 C749 1.510 . S
C748 O764 1.249 . S
C748 O765 1.252 . S
C749 C748 1.510 . S
C749 C750 1.404 . S
C749 C751 1.352 . S
C750 C749 1.404 . S
C750 C754 1.389 . S
C750 H772 0.930 . S
C751 C749 1.352 . S
C751 C753 1.374 . S
C751 H773 0.931 . S
C752 C753 1.359 . S
C752 C754 1.364 . S
C753 C751 1.374 . S
C753 C752 1.359 . S
C753 H774 0.931 . S
C754 C750 1.389 . S
C754 C752 1.364 . S
C754 H775 0.931 . S
C755 O766 1.256 . S
C755 O767 1.257 . S
O756 Gd736 2.377 . S
O756 C738 1.240 . S
O757 Gd737 2.395 . S
O757 C738 1.240 . S
O758 Gd736 2.448 . S
O758 C739 1.249 . S
O759 Gd736 2.506 . S
O759 C739 1.252 . S
O760 Gd736 2.435 . S
O760 C746 1.256 . S
O761 Gd736 2.717 . S
O761 Gd737 2.327 . S
O761 C746 1.257 . S
O762 Gd737 2.377 . S
O762 C747 1.240 . S
O763 Gd736 2.395 . S
O763 C747 1.240 . S
O764 Gd737 2.448 . S
O764 C748 1.249 . S
O765 Gd737 2.506 . S
O765 C748 1.252 . S
O766 Gd737 2.435 . S
O766 C755 1.256 . S
O767 Gd736 2.327 . S
O767 Gd737 2.717 . S
O767 C755 1.257 . S
H768 C741 0.930 . S
H769 C742 0.919 1_655 S
H770 C744 0.931 . S
H771 C745 0.931 . S
H772 C750 0.930 . S
H773 C751 0.931 . S
H774 C753 0.931 . S
H775 C754 0.931 . S
Gd776 C779 2.818 . S
Gd776 O796 2.377 . S
Gd776 O798 2.448 . S
Gd776 O799 2.506 . S
Gd776 O800 2.435 . S
Gd776 O801 2.717 . S
Gd776 O803 2.395 . S
Gd776 O807 2.327 . S
Gd777 C788 2.818 . S
Gd777 O797 2.395 . S
Gd777 O801 2.327 . S
Gd777 O802 2.377 . S
Gd777 O804 2.448 . S
Gd777 O805 2.506 . S
Gd777 O806 2.435 . S
Gd777 O807 2.717 . S
C778 O796 1.240 . S
C778 O797 1.240 . S
C779 Gd776 2.818 . S
C779 C780 1.510 . S
C779 O798 1.249 . S
C779 O799 1.252 . S
C780 C779 1.510 . S
C780 C781 1.404 . S
C780 C782 1.352 . S
C781 C780 1.404 . S
C781 C785 1.389 . S
C781 H808 0.930 . S
C782 C780 1.352 . S
C782 C784 1.374 . S
C782 H809 0.931 . S
C783 C784 1.359 . S
C783 C785 1.364 . S
C784 C782 1.374 . S
C784 C783 1.359 . S
C784 H810 0.931 . S
C785 C781 1.389 . S
C785 C783 1.364 . S
C785 H811 0.931 . S
C786 O800 1.256 . S
C786 O801 1.257 . S
C787 O802 1.240 . S
C787 O803 1.240 . S
C788 Gd777 2.818 . S
C788 C789 1.510 . S
C788 O804 1.249 . S
C788 O805 1.252 . S
C789 C788 1.510 . S
C789 C790 1.404 . S
C789 C791 1.352 . S
C790 C789 1.404 . S
C790 C794 1.389 . S
C790 H812 0.930 . S
C791 C789 1.352 . S
C791 C793 1.374 . S
C791 H813 0.931 . S
C792 C793 1.359 . S
C792 C794 1.364 . S
C793 C791 1.374 . S
C793 C792 1.359 . S
C793 H814 0.931 . S
C794 C790 1.389 . S
C794 C792 1.364 . S
C794 H815 0.931 . S
C795 O806 1.256 . S
C795 O807 1.257 . S
O796 Gd776 2.377 . S
O796 C778 1.240 . S
O797 Gd777 2.395 . S
O797 C778 1.240 . S
O798 Gd776 2.448 . S
O798 C779 1.249 . S
O799 Gd776 2.506 . S
O799 C779 1.252 . S
O800 Gd776 2.435 . S
O800 C786 1.256 . S
O801 Gd776 2.717 . S
O801 Gd777 2.327 . S
O801 C786 1.257 . S
O802 Gd777 2.377 . S
O802 C787 1.240 . S
O803 Gd776 2.395 . S
O803 C787 1.240 . S
O804 Gd777 2.448 . S
O804 C788 1.249 . S
O805 Gd777 2.506 . S
O805 C788 1.252 . S
O806 Gd777 2.435 . S
O806 C795 1.256 . S
O807 Gd776 2.327 . S
O807 Gd777 2.717 . S
O807 C795 1.257 . S
H808 C781 0.930 . S
H809 C782 0.931 . S
H810 C784 0.931 . S
H811 C785 0.931 . S
H812 C790 0.930 . S
H813 C791 0.931 . S
H814 C793 0.931 . S
H815 C794 0.931 . S
Gd816 C819 2.818 . S
Gd816 O836 2.377 . S
Gd816 O838 2.448 . S
Gd816 O839 2.506 . S
Gd816 O840 2.435 . S
Gd816 O841 2.717 . S
Gd816 O843 2.395 . S
Gd816 O847 2.327 . S
Gd817 C828 2.818 . S
Gd817 O837 2.395 . S
Gd817 O841 2.327 . S
Gd817 O842 2.377 . S
Gd817 O844 2.448 . S
Gd817 O845 2.506 . S
Gd817 O846 2.435 . S
Gd817 O847 2.717 . S
C818 O836 1.240 . S
C818 O837 1.240 . S
C819 Gd816 2.818 . S
C819 C820 1.510 . S
C819 O838 1.249 . S
C819 O839 1.252 . S
C820 C819 1.510 . S
C820 C821 1.404 . S
C820 C822 1.352 . S
C821 C820 1.404 . S
C821 C825 1.389 . S
C821 H848 0.930 . S
C822 C820 1.352 . S
C822 C824 1.374 . S
C822 H849 0.931 . S
C823 C824 1.359 . S
C823 C825 1.364 . S
C824 C822 1.374 . S
C824 C823 1.359 . S
C824 H850 0.931 . S
C825 C821 1.389 . S
C825 C823 1.364 . S
C825 H851 0.931 . S
C826 O840 1.256 . S
C826 O841 1.257 . S
C827 O842 1.240 . S
C827 O843 1.240 . S
C828 Gd817 2.818 . S
C828 C829 1.510 . S
C828 O844 1.249 . S
C828 O845 1.252 . S
C829 C828 1.510 . S
C829 C830 1.404 . S
C829 C831 1.352 . S
C830 C829 1.404 . S
C830 C834 1.389 . S
C830 H852 0.930 . S
C831 C829 1.352 . S
C831 C833 1.374 . S
C831 H853 0.931 . S
C832 C833 1.359 . S
C832 C834 1.364 . S
C833 C831 1.374 . S
C833 C832 1.359 . S
C833 H854 0.931 . S
C834 C830 1.389 . S
C834 C832 1.364 . S
C834 H855 0.931 . S
C835 O846 1.256 . S
C835 O847 1.257 . S
O836 Gd816 2.377 . S
O836 C818 1.240 . S
O837 Gd817 2.395 . S
O837 C818 1.240 . S
O838 Gd816 2.448 . S
O838 C819 1.249 . S
O839 Gd816 2.506 . S
O839 C819 1.252 . S
O840 Gd816 2.435 . S
O840 C826 1.256 . S
O841 Gd816 2.717 . S
O841 Gd817 2.327 . S
O841 C826 1.257 . S
O842 Gd817 2.377 . S
O842 C827 1.240 . S
O843 Gd816 2.395 . S
O843 C827 1.240 . S
O844 Gd817 2.448 . S
O844 C828 1.249 . S
O845 Gd817 2.506 . S
O845 C828 1.252 . S
O846 Gd817 2.435 . S
O846 C835 1.256 . S
O847 Gd816 2.327 . S
O847 Gd817 2.717 . S
O847 C835 1.257 . S
H848 C821 0.930 . S
H849 C822 0.931 . S
H850 C824 0.931 . S
H851 C825 0.931 . S
H852 C830 0.930 . S
H853 C831 0.931 . S
H854 C833 0.931 . S
H855 C834 0.931 . S
Gd856 C859 2.818 . S
Gd856 O876 2.377 . S
Gd856 O878 2.448 . S
Gd856 O879 2.506 . S
Gd856 O880 2.435 . S
Gd856 O881 2.717 . S
Gd856 O883 2.395 . S
Gd856 O887 2.327 . S
Gd857 C868 2.818 . S
Gd857 O877 2.395 . S
Gd857 O881 2.327 . S
Gd857 O882 2.377 . S
Gd857 O884 2.448 . S
Gd857 O885 2.506 . S
Gd857 O886 2.435 . S
Gd857 O887 2.717 . S
C858 O876 1.240 . S
C858 O877 1.240 . S
C859 Gd856 2.818 . S
C859 C860 1.510 . S
C859 O878 1.249 . S
C859 O879 1.252 . S
C860 C859 1.510 . S
C860 C861 1.404 . S
C860 C862 1.352 . S
C861 C860 1.404 . S
C861 C865 1.389 . S
C861 H888 0.930 . S
C862 C860 1.352 . S
C862 C864 1.374 . S
C862 H889 0.931 . S
C863 C864 1.359 . S
C863 C865 1.364 . S
C864 C862 1.374 . S
C864 C863 1.359 . S
C864 H890 0.931 . S
C865 C861 1.389 . S
C865 C863 1.364 . S
C865 H891 0.931 . S
C866 O880 1.256 . S
C866 O881 1.257 . S
C867 O882 1.240 . S
C867 O883 1.240 . S
C868 Gd857 2.818 . S
C868 C869 1.510 . S
C868 O884 1.249 . S
C868 O885 1.252 . S
C869 C868 1.510 . S
C869 C870 1.404 . S
C869 C871 1.352 . S
C870 C869 1.404 . S
C870 C874 1.389 . S
C870 H892 0.930 . S
C871 C869 1.352 . S
C871 C873 1.374 . S
C871 H893 0.931 . S
C872 C873 1.359 . S
C872 C874 1.364 . S
C873 C871 1.374 . S
C873 C872 1.359 . S
C873 H894 0.931 . S
C874 C870 1.389 . S
C874 C872 1.364 . S
C874 H895 0.931 . S
C875 O886 1.256 . S
C875 O887 1.257 . S
O876 Gd856 2.377 . S
O876 C858 1.240 . S
O877 Gd857 2.395 . S
O877 C858 1.240 . S
O878 Gd856 2.448 . S
O878 C859 1.249 . S
O879 Gd856 2.506 . S
O879 C859 1.252 . S
O880 Gd856 2.435 . S
O880 C866 1.256 . S
O881 Gd856 2.717 . S
O881 Gd857 2.327 . S
O881 C866 1.257 . S
O882 Gd857 2.377 . S
O882 C867 1.240 . S
O883 Gd856 2.395 . S
O883 C867 1.240 . S
O884 Gd857 2.448 . S
O884 C868 1.249 . S
O885 Gd857 2.506 . S
O885 C868 1.252 . S
O886 Gd857 2.435 . S
O886 C875 1.256 . S
O887 Gd856 2.327 . S
O887 Gd857 2.717 . S
O887 C875 1.257 . S
H888 C861 0.930 . S
H889 C862 0.931 . S
H890 C864 0.931 . S
H891 C865 0.931 . S
H892 C870 0.930 . S
H893 C871 0.931 . S
H894 C873 0.931 . S
H895 C874 0.931 . S
Gd896 C899 2.818 . S
Gd896 O916 2.377 . S
Gd896 O918 2.448 . S
Gd896 O919 2.506 . S
Gd896 O920 2.435 . S
Gd896 O921 2.717 . S
Gd896 O923 2.395 . S
Gd896 O927 2.327 . S
Gd897 C908 2.818 . S
Gd897 O917 2.395 . S
Gd897 O921 2.327 . S
Gd897 O922 2.377 . S
Gd897 O924 2.448 . S
Gd897 O925 2.506 . S
Gd897 O926 2.435 . S
Gd897 O927 2.717 . S
C898 O916 1.240 . S
C898 O917 1.240 . S
C899 Gd896 2.818 . S
C899 C900 1.510 . S
C899 O918 1.249 . S
C899 O919 1.252 . S
C900 C899 1.510 . S
C900 C901 1.404 . S
C900 C902 1.352 . S
C901 C900 1.404 . S
C901 C905 1.389 . S
C901 H928 0.930 . S
C902 C900 1.352 . S
C902 C904 1.374 . S
C902 H929 0.931 . S
C903 C904 1.359 . S
C903 C905 1.364 . S
C904 C902 1.374 . S
C904 C903 1.359 . S
C904 H930 0.931 . S
C905 C901 1.389 . S
C905 C903 1.364 . S
C905 H931 0.931 . S
C906 O920 1.256 . S
C906 O921 1.257 . S
C907 O922 1.240 . S
C907 O923 1.240 . S
C908 Gd897 2.818 . S
C908 C909 1.510 . S
C908 O924 1.249 . S
C908 O925 1.252 . S
C909 C908 1.510 . S
C909 C910 1.404 . S
C909 C911 1.352 . S
C910 C909 1.404 . S
C910 C914 1.389 . S
C910 H932 0.930 . S
C911 C909 1.352 . S
C911 C913 1.374 . S
C911 H933 0.931 . S
C912 C913 1.359 . S
C912 C914 1.364 . S
C913 C911 1.374 . S
C913 C912 1.359 . S
C913 H934 0.931 . S
C914 C910 1.389 . S
C914 C912 1.364 . S
C914 H935 0.931 . S
C915 O926 1.256 . S
C915 O927 1.257 . S
O916 Gd896 2.377 . S
O916 C898 1.240 . S
O917 Gd897 2.395 . S
O917 C898 1.240 . S
O918 Gd896 2.448 . S
O918 C899 1.249 . S
O919 Gd896 2.506 . S
O919 C899 1.252 . S
O920 Gd896 2.435 . S
O920 C906 1.256 . S
O921 Gd896 2.717 . S
O921 Gd897 2.327 . S
O921 C906 1.257 . S
O922 Gd897 2.377 . S
O922 C907 1.240 . S
O923 Gd896 2.395 . S
O923 C907 1.240 . S
O924 Gd897 2.448 . S
O924 C908 1.249 . S
O925 Gd897 2.506 . S
O925 C908 1.252 . S
O926 Gd897 2.435 . S
O926 C915 1.256 . S
O927 Gd896 2.327 . S
O927 Gd897 2.717 . S
O927 C915 1.257 . S
H928 C901 0.930 . S
H929 C902 0.931 . S
H930 C904 0.931 . S
H931 C905 0.931 . S
H932 C910 0.930 . S
H933 C911 0.931 . S
H934 C913 0.931 . S
H935 C914 0.931 . S
Gd936 C939 2.818 1_554 S
Gd936 O956 2.377 1_554 S
Gd936 O958 2.448 1_554 S
Gd936 O959 2.506 . S
Gd936 O960 2.435 1_554 S
Gd936 O961 2.717 1_554 S
Gd936 O963 2.395 . S
Gd936 O967 2.327 . S
Gd937 C948 2.818 1_455 S
Gd937 O957 2.395 . S
Gd937 O961 2.327 1_554 S
Gd937 O962 2.377 . S
Gd937 O964 2.448 1_455 S
Gd937 O965 2.506 1_455 S
Gd937 O966 2.435 . S
Gd937 O967 2.717 . S
C938 O956 1.235 1_554 S
C938 O957 1.244 . S
C939 Gd936 2.818 1_556 S
C939 C940 1.510 . S
C939 O958 1.249 . S
C939 O959 1.252 1_556 S
C940 C939 1.510 . S
C940 C941 1.404 . S
C940 C942 1.352 1_556 S
C941 C940 1.404 . S
C941 C945 1.389 . S
C941 H968 0.930 . S
C942 C940 1.352 1_554 S
C942 C944 1.378 . S
C942 H969 0.931 . S
C943 C944 1.324 1_556 S
C943 C945 1.364 . S
C944 C942 1.378 . S
C944 C943 1.324 1_554 S
C944 H970 0.961 . S
C945 C941 1.389 . S
C945 C943 1.364 . S
C945 H971 0.931 . S
C946 O960 1.256 . S
C946 O961 1.257 . S
C947 O962 1.240 . S
C947 O963 1.240 . S
C948 Gd937 2.818 1_655 S
C948 C949 1.510 . S
C948 O964 1.249 . S
C948 O965 1.252 . S
C949 C948 1.510 . S
C949 C950 1.404 . S
C949 C951 1.352 . S
C950 C949 1.404 . S
C950 C954 1.389 . S
C950 H972 0.930 . S
C951 C949 1.352 . S
C951 C953 1.374 . S
C951 H973 0.931 . S
C952 C953 1.359 . S
C952 C954 1.364 . S
C953 C951 1.374 . S
C953 C952 1.359 . S
C953 H974 0.931 . S
C954 C950 1.389 . S
C954 C952 1.364 . S
C954 H975 0.931 . S
C955 O966 1.256 . S
C955 O967 1.257 . S
O956 Gd936 2.377 1_556 S
O956 C938 1.235 1_556 S
O957 Gd937 2.395 . S
O957 C938 1.244 . S
O958 Gd936 2.448 1_556 S
O958 C939 1.249 . S
O959 Gd936 2.506 . S
O959 C939 1.252 1_554 S
O960 Gd936 2.435 1_556 S
O960 C946 1.256 . S
O961 Gd936 2.717 1_556 S
O961 Gd937 2.327 1_556 S
O961 C946 1.257 . S
O962 Gd937 2.377 . S
O962 C947 1.240 . S
O963 Gd936 2.395 . S
O963 C947 1.240 . S
O964 Gd937 2.448 1_655 S
O964 C948 1.249 . S
O965 Gd937 2.506 1_655 S
O965 C948 1.252 . S
O966 Gd937 2.435 . S
O966 C955 1.256 . S
O967 Gd936 2.327 . S
O967 Gd937 2.717 . S
O967 C955 1.257 . S
H968 C941 0.930 . S
H969 C942 0.931 . S
H970 C944 0.961 . S
H971 C945 0.931 . S
H972 C950 0.930 . S
H973 C951 0.931 . S
H974 C953 0.931 . S
H975 C954 0.931 . S
C976 C977 1.391 . S
C976 C978 1.394 . S
C976 H992 0.931 1_455 S
C977 C976 1.391 . S
C977 C981 1.376 . S
C978 C976 1.394 . S
C978 C979 1.369 . S
C978 C982 1.531 1_455 S
C979 C978 1.369 . S
C979 C980 1.410 . S
C979 C987 1.503 . S
C980 C979 1.410 . S
C980 C981 1.392 . S
C980 C983 1.511 1_556 S
C981 C977 1.376 . S
C981 C980 1.392 . S
C981 H993 0.929 . S
C982 C978 1.531 1_655 S
C982 H994 0.960 1_655 S
C982 H995 0.962 . S
C982 H996 0.960 . S
C983 C980 1.511 1_554 S
C983 H997 0.961 . S
C983 H998 0.961 . S
C983 H999 0.961 1_554 S
C984 C985 1.370 1_554 S
C984 C986 1.363 1_554 S
C984 H1000 0.931 . S
C985 C984 1.370 1_556 S
C985 C989 1.408 . S
C986 C984 1.363 1_556 S
C986 C987 1.370 . S
C986 C990 1.524 1_556 S
C987 C979 1.503 . S
C987 C986 1.370 . S
C987 C988 1.403 . S
C988 C987 1.403 . S
C988 C989 1.404 . S
C988 C991 1.539 . S
C989 C985 1.408 . S
C989 C988 1.404 . S
C989 H1001 0.930 . S
C990 C986 1.524 1_554 S
C990 H1002 0.956 1_454 S
C990 H1003 0.961 . S
C990 H1004 0.961 1_455 S
C991 C988 1.539 . S
C991 H1005 0.958 . S
C991 H1006 0.961 . S
C991 H1007 0.960 . S
H992 C976 0.931 1_655 S
H993 C981 0.929 . S
H994 C982 0.960 1_455 S
H995 C982 0.962 . S
H996 C982 0.960 . S
H997 C983 0.961 . S
H998 C983 0.961 . S
H999 C983 0.961 1_556 S
H1000 C984 0.931 . S
H1001 C989 0.930 . S
H1002 C990 0.956 1_656 S
H1003 C990 0.961 . S
H1004 C990 0.961 1_655 S
H1005 C991 0.958 . S
H1006 C991 0.961 . S
H1007 C991 0.960 . S
C1008 C1009 1.391 . S
C1008 C1010 1.394 . S
C1008 H1024 0.931 . S
C1009 C1008 1.391 . S
C1009 C1013 1.376 . S
C1010 C1008 1.394 . S
C1010 C1011 1.369 . S
C1010 C1014 1.531 . S
C1011 C1010 1.369 . S
C1011 C1012 1.410 . S
C1011 C1019 1.503 . S
C1012 C1011 1.410 . S
C1012 C1013 1.392 . S
C1012 C1015 1.511 . S
C1013 C1009 1.376 . S
C1013 C1012 1.392 . S
C1013 H1025 0.929 . S
C1014 C1010 1.531 . S
C1014 H1026 0.960 . S
C1014 H1027 0.962 . S
C1014 H1028 0.960 . S
C1015 C1012 1.511 . S
C1015 H1029 0.961 . S
C1015 H1030 0.961 . S
C1015 H1031 0.961 . S
C1016 C1017 1.370 . S
C1016 C1018 1.363 . S
C1016 H1032 0.931 . S
C1017 C1016 1.370 . S
C1017 C1021 1.408 . S
C1018 C1016 1.363 . S
C1018 C1019 1.370 . S
C1018 C1022 1.524 . S
C1019 C1011 1.503 . S
C1019 C1018 1.370 . S
C1019 C1020 1.403 . S
C1020 C1019 1.403 . S
C1020 C1021 1.404 . S
C1020 C1023 1.539 . S
C1021 C1017 1.408 . S
C1021 C1020 1.404 . S
C1021 H1033 0.930 . S
C1022 C1018 1.524 . S
C1022 H1034 0.956 . S
C1022 H1035 0.961 . S
C1022 H1036 0.961 . S
C1023 C1020 1.539 . S
C1023 H1037 0.958 . S
C1023 H1038 0.961 . S
C1023 H1039 0.960 . S
H1024 C1008 0.931 . S
H1025 C1013 0.929 . S
H1026 C1014 0.960 . S
H1027 C1014 0.962 . S
H1028 C1014 0.960 . S
H1029 C1015 0.961 . S
H1030 C1015 0.961 . S
H1031 C1015 0.961 . S
H1032 C1016 0.931 . S
H1033 C1021 0.930 . S
H1034 C1022 0.956 . S
H1035 C1022 0.961 . S
H1036 C1022 0.961 . S
H1037 C1023 0.958 . S
H1038 C1023 0.961 . S
H1039 C1023 0.960 . S
C1040 C1041 1.391 . S
C1040 C1042 1.394 . S
C1040 H1056 0.931 . S
C1041 C1040 1.391 . S
C1041 C1045 1.376 . S
C1042 C1040 1.394 . S
C1042 C1043 1.369 . S
C1042 C1046 1.531 . S
C1043 C1042 1.369 . S
C1043 C1044 1.410 . S
C1043 C1051 1.503 . S
C1044 C1043 1.410 . S
C1044 C1045 1.392 . S
C1044 C1047 1.511 . S
C1045 C1041 1.376 . S
C1045 C1044 1.392 . S
C1045 H1057 0.929 . S
C1046 C1042 1.531 . S
C1046 H1058 0.960 . S
C1046 H1059 0.962 . S
C1046 H1060 0.960 . S
C1047 C1044 1.511 . S
C1047 H1061 0.961 . S
C1047 H1062 0.961 . S
C1047 H1063 0.961 . S
C1048 C1049 1.370 . S
C1048 C1050 1.363 . S
C1048 H1064 0.931 . S
C1049 C1048 1.370 . S
C1049 C1053 1.408 . S
C1050 C1048 1.363 . S
C1050 C1051 1.370 . S
C1050 C1054 1.524 . S
C1051 C1043 1.503 . S
C1051 C1050 1.370 . S
C1051 C1052 1.403 . S
C1052 C1051 1.403 . S
C1052 C1053 1.404 . S
C1052 C1055 1.539 . S
C1053 C1049 1.408 . S
C1053 C1052 1.404 . S
C1053 H1065 0.930 . S
C1054 C1050 1.524 . S
C1054 H1066 0.956 . S
C1054 H1067 0.961 . S
C1054 H1068 0.961 . S
C1055 C1052 1.539 . S
C1055 H1069 0.958 . S
C1055 H1070 0.961 . S
C1055 H1071 0.960 . S
H1056 C1040 0.931 . S
H1057 C1045 0.929 . S
H1058 C1046 0.960 . S
H1059 C1046 0.962 . S
H1060 C1046 0.960 . S
H1061 C1047 0.961 . S
H1062 C1047 0.961 . S
H1063 C1047 0.961 . S
H1064 C1048 0.931 . S
H1065 C1053 0.930 . S
H1066 C1054 0.956 . S
H1067 C1054 0.961 . S
H1068 C1054 0.961 . S
H1069 C1055 0.958 . S
H1070 C1055 0.961 . S
H1071 C1055 0.960 . S
C1072 C1073 1.391 . S
C1072 C1074 1.394 . S
C1072 H1088 0.931 . S
C1073 C1072 1.391 . S
C1073 C1077 1.376 . S
C1074 C1072 1.394 . S
C1074 C1075 1.369 . S
C1074 C1078 1.531 . S
C1075 C1074 1.369 . S
C1075 C1076 1.410 . S
C1075 C1083 1.503 . S
C1076 C1075 1.410 . S
C1076 C1077 1.392 . S
C1076 C1079 1.511 . S
C1077 C1073 1.376 . S
C1077 C1076 1.392 . S
C1077 H1089 0.929 . S
C1078 C1074 1.531 . S
C1078 H1090 0.960 . S
C1078 H1091 0.962 . S
C1078 H1092 0.960 . S
C1079 C1076 1.511 . S
C1079 H1093 0.961 . S
C1079 H1094 0.961 . S
C1079 H1095 0.961 . S
C1080 C1081 1.370 . S
C1080 C1082 1.363 . S
C1080 H1096 0.931 . S
C1081 C1080 1.370 . S
C1081 C1085 1.408 . S
C1082 C1080 1.363 . S
C1082 C1083 1.370 . S
C1082 C1086 1.524 . S
C1083 C1075 1.503 . S
C1083 C1082 1.370 . S
C1083 C1084 1.403 . S
C1084 C1083 1.403 . S
C1084 C1085 1.404 . S
C1084 C1087 1.539 . S
C1085 C1081 1.408 . S
C1085 C1084 1.404 . S
C1085 H1097 0.930 . S
C1086 C1082 1.524 . S
C1086 H1098 0.956 . S
C1086 H1099 0.961 . S
C1086 H1100 0.961 . S
C1087 C1084 1.539 . S
C1087 H1101 0.958 . S
C1087 H1102 0.961 . S
C1087 H1103 0.960 . S
H1088 C1072 0.931 . S
H1089 C1077 0.929 . S
H1090 C1078 0.960 . S
H1091 C1078 0.962 . S
H1092 C1078 0.960 . S
H1093 C1079 0.961 . S
H1094 C1079 0.961 . S
H1095 C1079 0.961 . S
H1096 C1080 0.931 . S
H1097 C1085 0.930 . S
H1098 C1086 0.956 . S
H1099 C1086 0.961 . S
H1100 C1086 0.961 . S
H1101 C1087 0.958 . S
H1102 C1087 0.961 . S
H1103 C1087 0.960 . S
C1104 C1105 1.391 1_655 S
C1104 C1106 1.394 1_655 S
C1104 H1120 0.931 . S
C1105 C1104 1.391 1_455 S
C1105 C1109 1.376 . S
C1106 C1104 1.394 1_455 S
C1106 C1107 1.369 . S
C1106 C1110 1.531 1_455 S
C1107 C1106 1.369 . S
C1107 C1108 1.410 . S
C1107 C1115 1.503 . S
C1108 C1107 1.410 . S
C1108 C1109 1.392 . S
C1108 C1111 1.511 . S
C1109 C1105 1.376 . S
C1109 C1108 1.392 . S
C1109 H1121 0.929 . S
C1110 C1106 1.531 1_655 S
C1110 H1122 0.960 1_655 S
C1110 H1123 0.962 . S
C1110 H1124 0.960 . S
C1111 C1108 1.511 . S
C1111 H1125 0.961 . S
C1111 H1126 0.961 . S
C1111 H1127 0.961 . S
C1112 C1113 1.370 . S
C1112 C1114 1.363 . S
C1112 H1128 0.931 . S
C1113 C1112 1.370 . S
C1113 C1117 1.408 . S
C1114 C1112 1.363 . S
C1114 C1115 1.370 . S
C1114 C1118 1.524 . S
C1115 C1107 1.503 . S
C1115 C1114 1.370 . S
C1115 C1116 1.403 . S
C1116 C1115 1.403 . S
C1116 C1117 1.404 . S
C1116 C1119 1.539 . S
C1117 C1113 1.408 . S
C1117 C1116 1.404 . S
C1117 H1129 0.930 . S
C1118 C1114 1.524 . S
C1118 H1130 0.956 1_455 S
C1118 H1131 0.961 . S
C1118 H1132 0.961 . S
C1119 C1116 1.539 . S
C1119 H1133 0.958 . S
C1119 H1134 0.961 . S
C1119 H1135 0.960 . S
H1120 C1104 0.931 . S
H1121 C1109 0.929 . S
H1122 C1110 0.960 1_455 S
H1123 C1110 0.962 . S
H1124 C1110 0.960 . S
H1125 C1111 0.961 . S
H1126 C1111 0.961 . S
H1127 C1111 0.961 . S
H1128 C1112 0.931 . S
H1129 C1117 0.930 . S
H1130 C1118 0.956 1_655 S
H1131 C1118 0.961 . S
H1132 C1118 0.961 . S
H1133 C1119 0.958 . S
H1134 C1119 0.961 . S
H1135 C1119 0.960 . S
C1136 C1137 1.391 . S
C1136 C1138 1.394 . S
C1136 H1152 0.931 . S
C1137 C1136 1.391 . S
C1137 C1141 1.376 . S
C1138 C1136 1.394 . S
C1138 C1139 1.369 . S
C1138 C1142 1.531 . S
C1139 C1138 1.369 . S
C1139 C1140 1.410 . S
C1139 C1147 1.503 . S
C1140 C1139 1.410 . S
C1140 C1141 1.392 . S
C1140 C1143 1.511 . S
C1141 C1137 1.376 . S
C1141 C1140 1.392 . S
C1141 H1153 0.929 . S
C1142 C1138 1.531 . S
C1142 H1154 0.960 . S
C1142 H1155 0.962 . S
C1142 H1156 0.960 . S
C1143 C1140 1.511 . S
C1143 H1157 0.961 . S
C1143 H1158 0.961 . S
C1143 H1159 0.961 . S
C1144 C1145 1.370 . S
C1144 C1146 1.363 . S
C1144 H1160 0.931 . S
C1145 C1144 1.370 . S
C1145 C1149 1.408 . S
C1146 C1144 1.363 . S
C1146 C1147 1.370 . S
C1146 C1150 1.524 . S
C1147 C1139 1.503 . S
C1147 C1146 1.370 . S
C1147 C1148 1.403 . S
C1148 C1147 1.403 . S
C1148 C1149 1.404 . S
C1148 C1151 1.539 . S
C1149 C1145 1.408 . S
C1149 C1148 1.404 . S
C1149 H1161 0.930 . S
C1150 C1146 1.524 . S
C1150 H1162 0.956 . S
C1150 H1163 0.961 . S
C1150 H1164 0.961 . S
C1151 C1148 1.539 . S
C1151 H1165 0.958 . S
C1151 H1166 0.961 . S
C1151 H1167 0.960 . S
H1152 C1136 0.931 . S
H1153 C1141 0.929 . S
H1154 C1142 0.960 . S
H1155 C1142 0.962 . S
H1156 C1142 0.960 . S
H1157 C1143 0.961 . S
H1158 C1143 0.961 . S
H1159 C1143 0.961 . S
H1160 C1144 0.931 . S
H1161 C1149 0.930 . S
H1162 C1150 0.956 . S
H1163 C1150 0.961 . S
H1164 C1150 0.961 . S
H1165 C1151 0.958 . S
H1166 C1151 0.961 . S
H1167 C1151 0.960 . S
C1168 C1169 1.391 . S
C1168 C1170 1.394 . S
C1168 H1184 0.931 . S
C1169 C1168 1.391 . S
C1169 C1173 1.376 . S
C1170 C1168 1.394 . S
C1170 C1171 1.369 . S
C1170 C1174 1.531 . S
C1171 C1170 1.369 . S
C1171 C1172 1.410 . S
C1171 C1179 1.503 . S
C1172 C1171 1.410 . S
C1172 C1173 1.392 . S
C1172 C1175 1.511 . S
C1173 C1169 1.376 . S
C1173 C1172 1.392 . S
C1173 H1185 0.929 . S
C1174 C1170 1.531 . S
C1174 H1186 0.960 . S
C1174 H1187 0.962 . S
C1174 H1188 0.960 . S
C1175 C1172 1.511 . S
C1175 H1189 0.961 . S
C1175 H1190 0.961 . S
C1175 H1191 0.961 . S
C1176 C1177 1.370 . S
C1176 C1178 1.363 . S
C1176 H1192 0.931 . S
C1177 C1176 1.370 . S
C1177 C1181 1.408 . S
C1178 C1176 1.363 . S
C1178 C1179 1.370 . S
C1178 C1182 1.524 . S
C1179 C1171 1.503 . S
C1179 C1178 1.370 . S
C1179 C1180 1.403 . S
C1180 C1179 1.403 . S
C1180 C1181 1.404 . S
C1180 C1183 1.539 . S
C1181 C1177 1.408 . S
C1181 C1180 1.404 . S
C1181 H1193 0.930 . S
C1182 C1178 1.524 . S
C1182 H1194 0.956 . S
C1182 H1195 0.961 . S
C1182 H1196 0.961 . S
C1183 C1180 1.539 . S
C1183 H1197 0.958 . S
C1183 H1198 0.961 . S
C1183 H1199 0.960 . S
H1184 C1168 0.931 . S
H1185 C1173 0.929 . S
H1186 C1174 0.960 . S
H1187 C1174 0.962 . S
H1188 C1174 0.960 . S
H1189 C1175 0.961 . S
H1190 C1175 0.961 . S
H1191 C1175 0.961 . S
H1192 C1176 0.931 . S
H1193 C1181 0.930 . S
H1194 C1182 0.956 . S
H1195 C1182 0.961 . S
H1196 C1182 0.961 . S
H1197 C1183 0.958 . S
H1198 C1183 0.961 . S
H1199 C1183 0.960 . S
C1200 C1201 1.391 . S
C1200 C1202 1.394 . S
C1200 H1216 0.931 . S
C1201 C1200 1.391 . S
C1201 C1205 1.376 . S
C1202 C1200 1.394 . S
C1202 C1203 1.369 . S
C1202 C1206 1.531 . S
C1203 C1202 1.369 . S
C1203 C1204 1.410 . S
C1203 C1211 1.503 . S
C1204 C1203 1.410 . S
C1204 C1205 1.392 . S
C1204 C1207 1.511 . S
C1205 C1201 1.376 . S
C1205 C1204 1.392 . S
C1205 H1217 0.929 . S
C1206 C1202 1.531 . S
C1206 H1218 0.960 . S
C1206 H1219 0.962 . S
C1206 H1220 0.960 . S
C1207 C1204 1.511 . S
C1207 H1221 0.961 . S
C1207 H1222 0.961 . S
C1207 H1223 0.961 . S
C1208 C1209 1.370 . S
C1208 C1210 1.363 . S
C1208 H1224 0.931 . S
C1209 C1208 1.370 . S
C1209 C1213 1.408 . S
C1210 C1208 1.363 . S
C1210 C1211 1.370 . S
C1210 C1214 1.524 . S
C1211 C1203 1.503 . S
C1211 C1210 1.370 . S
C1211 C1212 1.403 . S
C1212 C1211 1.403 . S
C1212 C1213 1.404 . S
C1212 C1215 1.539 . S
C1213 C1209 1.408 . S
C1213 C1212 1.404 . S
C1213 H1225 0.930 . S
C1214 C1210 1.524 . S
C1214 H1226 0.956 . S
C1214 H1227 0.961 . S
C1214 H1228 0.961 . S
C1215 C1212 1.539 . S
C1215 H1229 0.958 . S
C1215 H1230 0.961 . S
C1215 H1231 0.960 . S
H1216 C1200 0.931 . S
H1217 C1205 0.929 . S
H1218 C1206 0.960 . S
H1219 C1206 0.962 . S
H1220 C1206 0.960 . S
H1221 C1207 0.961 . S
H1222 C1207 0.961 . S
H1223 C1207 0.961 . S
H1224 C1208 0.931 . S
H1225 C1213 0.930 . S
H1226 C1214 0.956 . S
H1227 C1214 0.961 . S
H1228 C1214 0.961 . S
H1229 C1215 0.958 . S
H1230 C1215 0.961 . S
H1231 C1215 0.960 . S
C1232 C1233 1.391 . S
C1232 C1234 1.394 . S
C1232 H1248 0.931 . S
C1233 C1232 1.391 . S
C1233 C1237 1.376 . S
C1234 C1232 1.394 . S
C1234 C1235 1.369 . S
C1234 C1238 1.531 . S
C1235 C1234 1.369 . S
C1235 C1236 1.410 . S
C1235 C1243 1.503 1_655 S
C1236 C1235 1.410 . S
C1236 C1237 1.392 . S
C1236 C1239 1.511 . S
C1237 C1233 1.376 . S
C1237 C1236 1.392 . S
C1237 H1249 0.929 . S
C1238 C1234 1.531 . S
C1238 H1250 0.960 . S
C1238 H1251 0.962 1_655 S
C1238 H1252 0.960 1_545 S
C1239 C1236 1.511 . S
C1239 H1253 0.961 . S
C1239 H1254 0.961 1_655 S
C1239 H1255 0.961 . S
C1240 C1241 1.370 . S
C1240 C1242 1.363 . S
C1240 H1256 0.931 . S
C1241 C1240 1.370 . S
C1241 C1245 1.404 . S
C1242 C1240 1.363 . S
C1242 C1243 1.370 . S
C1242 C1246 1.524 . S
C1243 C1235 1.503 1_455 S
C1243 C1242 1.370 . S
C1243 C1244 1.403 1_455 S
C1244 C1243 1.403 1_655 S
C1244 C1245 1.406 1_655 S
C1244 C1247 1.539 . S
C1245 C1241 1.404 . S
C1245 C1244 1.406 1_455 S
C1245 H1257 0.932 1_455 S
C1246 C1242 1.524 . S
C1246 H1258 0.956 . S
C1246 H1259 0.961 . S
C1246 H1260 0.961 . S
C1247 C1244 1.539 . S
C1247 H1261 0.958 . S
C1247 H1262 0.961 . S
C1247 H1263 0.960 . S
H1248 C1232 0.931 . S
H1249 C1237 0.929 . S
H1250 C1238 0.960 . S
H1251 C1238 0.962 1_455 S
H1252 C1238 0.960 1_565 S
H1253 C1239 0.961 . S
H1254 C1239 0.961 1_455 S
H1255 C1239 0.961 . S
H1256 C1240 0.931 . S
H1257 C1245 0.932 1_655 S
H1258 C1246 0.956 . S
H1259 C1246 0.961 . S
H1260 C1246 0.961 . S
H1261 C1247 0.958 . S
H1262 C1247 0.961 . S
H1263 C1247 0.960 . S
C1264 C1265 1.391 . S
C1264 C1266 1.394 . S
C1264 H1280 0.931 . S
C1265 C1264 1.391 . S
C1265 C1269 1.376 . S
C1266 C1264 1.394 . S
C1266 C1267 1.369 . S
C1266 C1270 1.531 . S
C1267 C1266 1.369 . S
C1267 C1268 1.410 . S
C1267 C1275 1.503 . S
C1268 C1267 1.410 . S
C1268 C1269 1.392 . S
C1268 C1271 1.511 . S
C1269 C1265 1.376 . S
C1269 C1268 1.392 . S
C1269 H1281 0.929 . S
C1270 C1266 1.531 . S
C1270 H1282 0.960 . S
C1270 H1283 0.962 . S
C1270 H1284 0.960 . S
C1271 C1268 1.511 . S
C1271 H1285 0.961 . S
C1271 H1286 0.961 . S
C1271 H1287 0.961 . S
C1272 C1273 1.370 . S
C1272 C1274 1.363 . S
C1272 H1288 0.931 . S
C1273 C1272 1.370 . S
C1273 C1277 1.408 . S
C1274 C1272 1.363 . S
C1274 C1275 1.370 . S
C1274 C1278 1.524 . S
C1275 C1267 1.503 . S
C1275 C1274 1.370 . S
C1275 C1276 1.403 . S
C1276 C1275 1.403 . S
C1276 C1277 1.404 . S
C1276 C1279 1.539 . S
C1277 C1273 1.408 . S
C1277 C1276 1.404 . S
C1277 H1289 0.930 . S
C1278 C1274 1.524 . S
C1278 H1290 0.956 . S
C1278 H1291 0.961 . S
C1278 H1292 0.961 . S
C1279 C1276 1.539 . S
C1279 H1293 0.958 . S
C1279 H1294 0.961 . S
C1279 H1295 0.960 . S
H1280 C1264 0.931 . S
H1281 C1269 0.929 . S
H1282 C1270 0.960 . S
H1283 C1270 0.962 . S
H1284 C1270 0.960 . S
H1285 C1271 0.961 . S
H1286 C1271 0.961 . S
H1287 C1271 0.961 . S
H1288 C1272 0.931 . S
H1289 C1277 0.930 . S
H1290 C1278 0.956 . S
H1291 C1278 0.961 . S
H1292 C1278 0.961 . S
H1293 C1279 0.958 . S
H1294 C1279 0.961 . S
H1295 C1279 0.960 . S
C1296 C1297 1.391 . S
C1296 C1298 1.394 . S
C1296 H1312 0.931 . S
C1297 C1296 1.391 . S
C1297 C1301 1.376 . S
C1298 C1296 1.394 . S
C1298 C1299 1.369 . S
C1298 C1302 1.531 . S
C1299 C1298 1.369 . S
C1299 C1300 1.410 . S
C1299 C1307 1.503 . S
C1300 C1299 1.410 . S
C1300 C1301 1.392 . S
C1300 C1303 1.511 . S
C1301 C1297 1.376 . S
C1301 C1300 1.392 . S
C1301 H1313 0.929 . S
C1302 C1298 1.531 . S
C1302 H1314 0.960 . S
C1302 H1315 0.962 . S
C1302 H1316 0.960 . S
C1303 C1300 1.511 . S
C1303 H1317 0.961 . S
C1303 H1318 0.961 . S
C1303 H1319 0.961 . S
C1304 C1305 1.370 . S
C1304 C1306 1.363 . S
C1304 H1320 0.931 . S
C1305 C1304 1.370 . S
C1305 C1309 1.408 . S
C1306 C1304 1.363 . S
C1306 C1307 1.370 . S
C1306 C1310 1.524 . S
C1307 C1299 1.503 . S
C1307 C1306 1.370 . S
C1307 C1308 1.403 . S
C1308 C1307 1.403 . S
C1308 C1309 1.404 . S
C1308 C1311 1.539 1_545 S
C1309 C1305 1.408 . S
C1309 C1308 1.404 . S
C1309 H1321 0.930 . S
C1310 C1306 1.524 . S
C1310 H1322 0.956 . S
C1310 H1323 0.961 . S
C1310 H1324 0.961 . S
C1311 C1308 1.539 1_565 S
C1311 H1325 0.958 . S
C1311 H1326 0.961 . S
C1311 H1327 0.960 1_565 S
H1312 C1296 0.931 . S
H1313 C1301 0.929 . S
H1314 C1302 0.960 . S
H1315 C1302 0.962 . S
H1316 C1302 0.960 . S
H1317 C1303 0.961 . S
H1318 C1303 0.961 . S
H1319 C1303 0.961 . S
H1320 C1304 0.931 . S
H1321 C1309 0.930 . S
H1322 C1310 0.956 . S
H1323 C1310 0.961 . S
H1324 C1310 0.961 . S
H1325 C1311 0.958 . S
H1326 C1311 0.961 . S
H1327 C1311 0.960 1_545 S
C1328 C1329 1.391 . S
C1328 C1330 1.394 . S
C1328 H1344 0.931 . S
C1329 C1328 1.391 . S
C1329 C1333 1.376 . S
C1330 C1328 1.394 . S
C1330 C1331 1.369 . S
C1330 C1334 1.531 . S
C1331 C1330 1.369 . S
C1331 C1332 1.410 . S
C1331 C1339 1.503 . S
C1332 C1331 1.410 . S
C1332 C1333 1.392 . S
C1332 C1335 1.511 . S
C1333 C1329 1.376 . S
C1333 C1332 1.392 . S
C1333 H1345 0.929 . S
C1334 C1330 1.531 . S
C1334 H1346 0.960 . S
C1334 H1347 0.962 . S
C1334 H1348 0.960 . S
C1335 C1332 1.511 . S
C1335 H1349 0.961 . S
C1335 H1350 0.961 . S
C1335 H1351 0.961 . S
C1336 C1337 1.370 . S
C1336 C1338 1.363 . S
C1336 H1352 0.931 . S
C1337 C1336 1.370 . S
C1337 C1341 1.408 . S
C1338 C1336 1.363 . S
C1338 C1339 1.370 . S
C1338 C1342 1.524 . S
C1339 C1331 1.503 . S
C1339 C1338 1.370 . S
C1339 C1340 1.403 . S
C1340 C1339 1.403 . S
C1340 C1341 1.404 . S
C1340 C1343 1.539 . S
C1341 C1337 1.408 . S
C1341 C1340 1.404 . S
C1341 H1353 0.930 . S
C1342 C1338 1.524 . S
C1342 H1354 0.956 . S
C1342 H1355 0.961 . S
C1342 H1356 0.961 . S
C1343 C1340 1.539 . S
C1343 H1357 0.958 . S
C1343 H1358 0.961 . S
C1343 H1359 0.960 . S
H1344 C1328 0.931 . S
H1345 C1333 0.929 . S
H1346 C1334 0.960 . S
H1347 C1334 0.962 . S
H1348 C1334 0.960 . S
H1349 C1335 0.961 . S
H1350 C1335 0.961 . S
H1351 C1335 0.961 . S
H1352 C1336 0.931 . S
H1353 C1341 0.930 . S
H1354 C1342 0.956 . S
H1355 C1342 0.961 . S
H1356 C1342 0.961 . S
H1357 C1343 0.958 . S
H1358 C1343 0.961 . S
H1359 C1343 0.960 . S
C1360 C1361 1.391 . S
C1360 C1362 1.394 . S
C1360 H1376 0.931 . S
C1361 C1360 1.391 . S
C1361 C1365 1.432 . S
C1362 C1360 1.394 . S
C1362 C1363 1.369 . S
C1362 C1366 1.531 . S
C1363 C1362 1.369 . S
C1363 C1364 1.410 1_655 S
C1363 C1371 1.503 1_655 S
C1364 C1363 1.410 1_455 S
C1364 C1365 1.369 1_455 S
C1364 C1367 1.511 . S
C1365 C1361 1.432 . S
C1365 C1364 1.369 1_655 S
C1365 H1377 0.898 1_655 S
C1366 C1362 1.531 . S
C1366 H1378 0.960 . S
C1366 H1379 0.962 . S
C1366 H1380 0.960 . S
C1367 C1364 1.511 . S
C1367 H1381 0.961 . S
C1367 H1382 0.961 . S
C1367 H1383 0.961 . S
C1368 C1369 1.370 . S
C1368 C1370 1.363 . S
C1368 H1384 0.931 . S
C1369 C1368 1.370 . S
C1369 C1373 1.408 . S
C1370 C1368 1.363 . S
C1370 C1371 1.370 . S
C1370 C1374 1.524 . S
C1371 C1363 1.503 1_455 S
C1371 C1370 1.370 . S
C1371 C1372 1.403 . S
C1372 C1371 1.403 . S
C1372 C1373 1.404 . S
C1372 C1375 1.539 . S
C1373 C1369 1.408 . S
C1373 C1372 1.404 . S
C1373 H1385 0.930 . S
C1374 C1370 1.524 . S
C1374 H1386 0.956 1_455 S
C1374 H1387 0.961 . S
C1374 H1388 0.961 . S
C1375 C1372 1.539 . S
C1375 H1389 0.958 1_445 S
C1375 H1390 0.961 1_545 S
C1375 H1391 0.960 . S
H1376 C1360 0.931 . S
H1377 C1365 0.898 1_455 S
H1378 C1366 0.960 . S
H1379 C1366 0.962 . S
H1380 C1366 0.960 . S
H1381 C1367 0.961 . S
H1382 C1367 0.961 . S
H1383 C1367 0.961 . S
H1384 C1368 0.931 . S
H1385 C1373 0.930 . S
H1386 C1374 0.956 1_655 S
H1387 C1374 0.961 . S
H1388 C1374 0.961 . S
H1389 C1375 0.958 1_665 S
H1390 C1375 0.961 1_565 S
H1391 C1375 0.960 . S
C1392 C1393 1.391 . S
C1392 C1394 1.394 . S
C1392 H1408 0.931 . S
C1393 C1392 1.391 . S
C1393 C1397 1.376 . S
C1394 C1392 1.394 . S
C1394 C1395 1.369 . S
C1394 C1398 1.531 . S
C1395 C1394 1.369 . S
C1395 C1396 1.410 . S
C1395 C1403 1.503 . S
C1396 C1395 1.410 . S
C1396 C1397 1.392 . S
C1396 C1399 1.511 . S
C1397 C1393 1.376 . S
C1397 C1396 1.392 . S
C1397 H1409 0.929 . S
C1398 C1394 1.531 . S
C1398 H1410 0.960 . S
C1398 H1411 0.962 . S
C1398 H1412 0.960 . S
C1399 C1396 1.511 . S
C1399 H1413 0.961 . S
C1399 H1414 0.961 . S
C1399 H1415 0.961 . S
C1400 C1401 1.370 . S
C1400 C1402 1.363 . S
C1400 H1416 0.931 . S
C1401 C1400 1.370 . S
C1401 C1405 1.408 . S
C1402 C1400 1.363 . S
C1402 C1403 1.370 . S
C1402 C1406 1.524 . S
C1403 C1395 1.503 . S
C1403 C1402 1.370 . S
C1403 C1404 1.403 . S
C1404 C1403 1.403 . S
C1404 C1405 1.404 . S
C1404 C1407 1.539 . S
C1405 C1401 1.408 . S
C1405 C1404 1.404 . S
C1405 H1417 0.930 . S
C1406 C1402 1.524 . S
C1406 H1418 0.956 . S
C1406 H1419 0.961 . S
C1406 H1420 0.961 . S
C1407 C1404 1.539 . S
C1407 H1421 0.958 . S
C1407 H1422 0.961 . S
C1407 H1423 0.960 . S
H1408 C1392 0.931 . S
H1409 C1397 0.929 . S
H1410 C1398 0.960 . S
H1411 C1398 0.962 . S
H1412 C1398 0.960 . S
H1413 C1399 0.961 . S
H1414 C1399 0.961 . S
H1415 C1399 0.961 . S
H1416 C1400 0.931 . S
H1417 C1405 0.930 . S
H1418 C1406 0.956 . S
H1419 C1406 0.961 . S
H1420 C1406 0.961 . S
H1421 C1407 0.958 . S
H1422 C1407 0.961 . S
H1423 C1407 0.960 . S
C1424 C1425 1.391 . S
C1424 C1426 1.394 . S
C1424 H1440 0.931 . S
C1425 C1424 1.391 . S
C1425 C1429 1.376 . S
C1426 C1424 1.394 . S
C1426 C1427 1.369 . S
C1426 C1430 1.531 . S
C1427 C1426 1.369 . S
C1427 C1428 1.410 . S
C1427 C1435 1.503 . S
C1428 C1427 1.410 . S
C1428 C1429 1.392 . S
C1428 C1431 1.511 . S
C1429 C1425 1.376 . S
C1429 C1428 1.392 . S
C1429 H1441 0.929 . S
C1430 C1426 1.531 . S
C1430 H1442 0.960 . S
C1430 H1443 0.962 . S
C1430 H1444 0.960 . S
C1431 C1428 1.511 . S
C1431 H1445 0.961 . S
C1431 H1446 0.961 . S
C1431 H1447 0.961 . S
C1432 C1433 1.370 . S
C1432 C1434 1.363 . S
C1432 H1448 0.931 . S
C1433 C1432 1.370 . S
C1433 C1437 1.408 . S
C1434 C1432 1.363 . S
C1434 C1435 1.370 . S
C1434 C1438 1.524 . S
C1435 C1427 1.503 . S
C1435 C1434 1.370 . S
C1435 C1436 1.403 . S
C1436 C1435 1.403 . S
C1436 C1437 1.404 . S
C1436 C1439 1.539 . S
C1437 C1433 1.408 . S
C1437 C1436 1.404 . S
C1437 H1449 0.930 . S
C1438 C1434 1.524 . S
C1438 H1450 0.956 . S
C1438 H1451 0.961 . S
C1438 H1452 0.961 . S
C1439 C1436 1.539 . S
C1439 H1453 0.958 . S
C1439 H1454 0.961 . S
C1439 H1455 0.960 . S
H1440 C1424 0.931 . S
H1441 C1429 0.929 . S
H1442 C1430 0.960 . S
H1443 C1430 0.962 . S
H1444 C1430 0.960 . S
H1445 C1431 0.961 . S
H1446 C1431 0.961 . S
H1447 C1431 0.961 . S
H1448 C1432 0.931 . S
H1449 C1437 0.930 . S
H1450 C1438 0.956 . S
H1451 C1438 0.961 . S
H1452 C1438 0.961 . S
H1453 C1439 0.958 . S
H1454 C1439 0.961 . S
H1455 C1439 0.960 . S
C1456 C1457 1.391 . S
C1456 C1458 1.394 . S
C1456 H1472 0.931 . S
C1457 C1456 1.391 . S
C1457 C1461 1.376 . S
C1458 C1456 1.394 . S
C1458 C1459 1.369 . S
C1458 C1462 1.531 . S
C1459 C1458 1.369 . S
C1459 C1460 1.410 . S
C1459 C1467 1.503 . S
C1460 C1459 1.410 . S
C1460 C1461 1.392 . S
C1460 C1463 1.511 . S
C1461 C1457 1.376 . S
C1461 C1460 1.392 . S
C1461 H1473 0.929 . S
C1462 C1458 1.531 . S
C1462 H1474 0.960 . S
C1462 H1475 0.962 . S
C1462 H1476 0.960 . S
C1463 C1460 1.511 . S
C1463 H1477 0.961 . S
C1463 H1478 0.961 . S
C1463 H1479 0.961 . S
C1464 C1465 1.370 . S
C1464 C1466 1.363 . S
C1464 H1480 0.931 . S
C1465 C1464 1.370 . S
C1465 C1469 1.408 . S
C1466 C1464 1.363 . S
C1466 C1467 1.370 . S
C1466 C1470 1.524 . S
C1467 C1459 1.503 . S
C1467 C1466 1.370 . S
C1467 C1468 1.403 . S
C1468 C1467 1.403 . S
C1468 C1469 1.404 . S
C1468 C1471 1.539 . S
C1469 C1465 1.408 . S
C1469 C1468 1.404 . S
C1469 H1481 0.930 . S
C1470 C1466 1.524 . S
C1470 H1482 0.956 . S
C1470 H1483 0.961 . S
C1470 H1484 0.961 . S
C1471 C1468 1.539 . S
C1471 H1485 0.958 . S
C1471 H1486 0.961 . S
C1471 H1487 0.960 . S
H1472 C1456 0.931 . S
H1473 C1461 0.929 . S
H1474 C1462 0.960 . S
H1475 C1462 0.962 . S
H1476 C1462 0.960 . S
H1477 C1463 0.961 . S
H1478 C1463 0.961 . S
H1479 C1463 0.961 . S
H1480 C1464 0.931 . S
H1481 C1469 0.930 . S
H1482 C1470 0.956 . S
H1483 C1470 0.961 . S
H1484 C1470 0.961 . S
H1485 C1471 0.958 . S
H1486 C1471 0.961 . S
H1487 C1471 0.960 . S
C1488 C1489 1.391 . S
C1488 C1490 1.394 . S
C1488 H1504 0.931 . S
C1489 C1488 1.391 . S
C1489 C1493 1.376 1_554 S
C1490 C1488 1.394 . S
C1490 C1491 1.369 . S
C1490 C1494 1.531 . S
C1491 C1490 1.369 . S
C1491 C1492 1.410 . S
C1491 C1499 1.503 . S
C1492 C1491 1.410 . S
C1492 C1493 1.392 1_554 S
C1492 C1495 1.511 1_554 S
C1493 C1489 1.376 1_556 S
C1493 C1492 1.392 1_556 S
C1493 H1505 0.929 . S
C1494 C1490 1.531 . S
C1494 H1506 0.960 1_565 S
C1494 H1507 0.962 . S
C1494 H1508 0.960 . S
C1495 C1492 1.511 1_556 S
C1495 H1509 0.961 . S
C1495 H1510 0.961 . S
C1495 H1511 0.961 . S
C1496 C1497 1.419 . S
C1496 C1498 1.363 . S
C1496 H1512 0.931 . S
C1497 C1496 1.419 . S
C1497 C1501 1.378 1_565 S
C1498 C1496 1.363 . S
C1498 C1499 1.370 . S
C1498 C1502 1.524 . S
C1499 C1491 1.503 . S
C1499 C1498 1.370 . S
C1499 C1500 1.403 1_565 S
C1500 C1499 1.403 1_545 S
C1500 C1501 1.404 . S
C1500 C1503 1.539 . S
C1501 C1497 1.378 1_545 S
C1501 C1500 1.404 . S
C1501 H1513 0.930 . S
C1502 C1498 1.524 . S
C1502 H1514 0.956 . S
C1502 H1515 0.961 . S
C1502 H1516 0.961 . S
C1503 C1500 1.539 . S
C1503 H1517 0.958 . S
C1503 H1518 0.961 . S
C1503 H1519 0.960 . S
H1504 C1488 0.931 . S
H1505 C1493 0.929 . S
H1506 C1494 0.960 1_545 S
H1507 C1494 0.962 . S
H1508 C1494 0.960 . S
H1509 C1495 0.961 . S
H1510 C1495 0.961 . S
H1511 C1495 0.961 . S
H1512 C1496 0.931 . S
H1513 C1501 0.930 . S
H1514 C1502 0.956 . S
H1515 C1502 0.961 . S
H1516 C1502 0.961 . S
H1517 C1503 0.958 . S
H1518 C1503 0.961 . S
H1519 C1503 0.960 . S
C1520 C1521 1.384 1_556 S
C1520 C1522 1.394 . S
C1520 H1536 0.931 . S
C1521 C1520 1.384 1_554 S
C1521 C1525 1.385 . S
C1522 C1520 1.394 . S
C1522 C1523 1.369 . S
C1522 C1526 1.531 . S
C1523 C1522 1.369 . S
C1523 C1524 1.410 1_556 S
C1523 C1531 1.495 1_556 S
C1524 C1523 1.410 1_554 S
C1524 C1525 1.392 . S
C1524 C1527 1.511 . S
C1525 C1521 1.385 . S
C1525 C1524 1.392 . S
C1525 H1537 0.929 . S
C1526 C1522 1.531 . S
C1526 H1538 0.960 . S
C1526 H1539 0.962 . S
C1526 H1540 0.960 . S
C1527 C1524 1.511 . S
C1527 H1541 0.961 . S
C1527 H1542 0.961 . S
C1527 H1543 0.961 . S
C1528 C1529 1.370 . S
C1528 C1530 1.363 . S
C1528 H1544 0.931 . S
C1529 C1528 1.370 . S
C1529 C1533 1.408 1_554 S
C1530 C1528 1.363 . S
C1530 C1531 1.388 . S
C1530 C1534 1.524 . S
C1531 C1523 1.495 1_554 S
C1531 C1530 1.388 . S
C1531 C1532 1.393 1_554 S
C1532 C1531 1.393 1_556 S
C1532 C1533 1.404 . S
C1532 C1535 1.539 . S
C1533 C1529 1.408 1_556 S
C1533 C1532 1.404 . S
C1533 H1545 0.930 . S
C1534 C1530 1.524 . S
C1534 H1546 0.956 . S
C1534 H1547 0.961 . S
C1534 H1548 0.961 . S
C1535 C1532 1.539 . S
C1535 H1549 0.958 . S
C1535 H1550 0.961 . S
C1535 H1551 0.960 . S
H1536 C1520 0.931 . S
H1537 C1525 0.929 . S
H1538 C1526 0.960 . S
H1539 C1526 0.962 . S
H1540 C1526 0.960 . S
H1541 C1527 0.961 . S
H1542 C1527 0.961 . S
H1543 C1527 0.961 . S
H1544 C1528 0.931 . S
H1545 C1533 0.930 . S
H1546 C1534 0.956 . S
H1547 C1534 0.961 . S
H1548 C1534 0.961 . S
H1549 C1535 0.958 . S
H1550 C1535 0.961 . S
H1551 C1535 0.960 . S
C1552 C1553 1.391 . S
C1552 C1554 1.394 . S
C1552 H1568 0.931 . S
C1553 C1552 1.391 . S
C1553 C1557 1.376 . S
C1554 C1552 1.394 . S
C1554 C1555 1.369 . S
C1554 C1558 1.531 . S
C1555 C1554 1.369 . S
C1555 C1556 1.410 . S
C1555 C1563 1.503 . S
C1556 C1555 1.410 . S
C1556 C1557 1.392 . S
C1556 C1559 1.511 . S
C1557 C1553 1.376 . S
C1557 C1556 1.392 . S
C1557 H1569 0.929 . S
C1558 C1554 1.531 . S
C1558 H1570 0.960 . S
C1558 H1571 0.962 . S
C1558 H1572 0.960 . S
C1559 C1556 1.511 . S
C1559 H1573 0.961 . S
C1559 H1574 0.961 . S
C1559 H1575 0.961 . S
C1560 C1561 1.370 . S
C1560 C1562 1.363 . S
C1560 H1576 0.931 . S
C1561 C1560 1.370 . S
C1561 C1565 1.408 . S
C1562 C1560 1.363 . S
C1562 C1563 1.370 . S
C1562 C1566 1.524 . S
C1563 C1555 1.503 . S
C1563 C1562 1.370 . S
C1563 C1564 1.403 . S
C1564 C1563 1.403 . S
C1564 C1565 1.404 . S
C1564 C1567 1.539 . S
C1565 C1561 1.408 . S
C1565 C1564 1.404 . S
C1565 H1577 0.930 . S
C1566 C1562 1.524 . S
C1566 H1578 0.956 . S
C1566 H1579 0.961 . S
C1566 H1580 0.961 . S
C1567 C1564 1.539 . S
C1567 H1581 0.958 . S
C1567 H1582 0.961 . S
C1567 H1583 0.960 . S
H1568 C1552 0.931 . S
H1569 C1557 0.929 . S
H1570 C1558 0.960 . S
H1571 C1558 0.962 . S
H1572 C1558 0.960 . S
H1573 C1559 0.961 . S
H1574 C1559 0.961 . S
H1575 C1559 0.961 . S
H1576 C1560 0.931 . S
H1577 C1565 0.930 . S
H1578 C1566 0.956 . S
H1579 C1566 0.961 . S
H1580 C1566 0.961 . S
H1581 C1567 0.958 . S
H1582 C1567 0.961 . S
H1583 C1567 0.960 . S
C1584 C1585 1.391 . S
C1584 C1586 1.394 . S
C1584 H1600 0.931 . S
C1585 C1584 1.391 . S
C1585 C1589 1.376 . S
C1586 C1584 1.394 . S
C1586 C1587 1.369 . S
C1586 C1590 1.531 . S
C1587 C1586 1.369 . S
C1587 C1588 1.410 . S
C1587 C1595 1.503 . S
C1588 C1587 1.410 . S
C1588 C1589 1.392 . S
C1588 C1591 1.511 . S
C1589 C1585 1.376 . S
C1589 C1588 1.392 . S
C1589 H1601 0.929 . S
C1590 C1586 1.531 . S
C1590 H1602 0.960 . S
C1590 H1603 0.962 . S
C1590 H1604 0.960 . S
C1591 C1588 1.511 . S
C1591 H1605 0.961 . S
C1591 H1606 0.961 . S
C1591 H1607 0.961 . S
C1592 C1593 1.370 . S
C1592 C1594 1.363 . S
C1592 H1608 0.931 . S
C1593 C1592 1.370 . S
C1593 C1597 1.408 . S
C1594 C1592 1.363 . S
C1594 C1595 1.370 . S
C1594 C1598 1.524 . S
C1595 C1587 1.503 . S
C1595 C1594 1.370 . S
C1595 C1596 1.403 . S
C1596 C1595 1.403 . S
C1596 C1597 1.404 . S
C1596 C1599 1.539 . S
C1597 C1593 1.408 . S
C1597 C1596 1.404 . S
C1597 H1609 0.930 . S
C1598 C1594 1.524 . S
C1598 H1610 0.956 . S
C1598 H1611 0.961 . S
C1598 H1612 0.961 . S
C1599 C1596 1.539 . S
C1599 H1613 0.958 . S
C1599 H1614 0.961 . S
C1599 H1615 0.960 . S
H1600 C1584 0.931 . S
H1601 C1589 0.929 . S
H1602 C1590 0.960 . S
H1603 C1590 0.962 . S
H1604 C1590 0.960 . S
H1605 C1591 0.961 . S
H1606 C1591 0.961 . S
H1607 C1591 0.961 . S
H1608 C1592 0.931 . S
H1609 C1597 0.930 . S
H1610 C1598 0.956 . S
H1611 C1598 0.961 . S
H1612 C1598 0.961 . S
H1613 C1599 0.958 . S
H1614 C1599 0.961 . S
H1615 C1599 0.960 . S
C1616 C1617 1.391 . S
C1616 C1618 1.394 . S
C1616 H1632 0.931 . S
C1617 C1616 1.391 . S
C1617 C1621 1.376 . S
C1618 C1616 1.394 . S
C1618 C1619 1.369 . S
C1618 C1622 1.531 . S
C1619 C1618 1.369 . S
C1619 C1620 1.410 . S
C1619 C1627 1.503 . S
C1620 C1619 1.410 . S
C1620 C1621 1.392 . S
C1620 C1623 1.511 . S
C1621 C1617 1.376 . S
C1621 C1620 1.392 . S
C1621 H1633 0.929 . S
C1622 C1618 1.531 . S
C1622 H1634 0.960 . S
C1622 H1635 0.962 . S
C1622 H1636 0.960 . S
C1623 C1620 1.511 . S
C1623 H1637 0.961 . S
C1623 H1638 0.961 . S
C1623 H1639 0.961 . S
C1624 C1625 1.370 . S
C1624 C1626 1.363 . S
C1624 H1640 0.931 . S
C1625 C1624 1.370 . S
C1625 C1629 1.408 . S
C1626 C1624 1.363 . S
C1626 C1627 1.370 . S
C1626 C1630 1.524 . S
C1627 C1619 1.503 . S
C1627 C1626 1.370 . S
C1627 C1628 1.403 . S
C1628 C1627 1.403 . S
C1628 C1629 1.404 . S
C1628 C1631 1.539 . S
C1629 C1625 1.408 . S
C1629 C1628 1.404 . S
C1629 H1641 0.930 . S
C1630 C1626 1.524 . S
C1630 H1642 0.956 . S
C1630 H1643 0.961 . S
C1630 H1644 0.961 . S
C1631 C1628 1.539 . S
C1631 H1645 0.958 . S
C1631 H1646 0.961 . S
C1631 H1647 0.960 . S
H1632 C1616 0.931 . S
H1633 C1621 0.929 . S
H1634 C1622 0.960 . S
H1635 C1622 0.962 . S
H1636 C1622 0.960 . S
H1637 C1623 0.961 . S
H1638 C1623 0.961 . S
H1639 C1623 0.961 . S
H1640 C1624 0.931 . S
H1641 C1629 0.930 . S
H1642 C1630 0.956 . S
H1643 C1630 0.961 . S
H1644 C1630 0.961 . S
H1645 C1631 0.958 . S
H1646 C1631 0.961 . S
H1647 C1631 0.960 . S
C1648 C1649 1.391 . S
C1648 C1650 1.394 . S
C1648 H1664 0.931 . S
C1649 C1648 1.391 . S
C1649 C1653 1.376 . S
C1650 C1648 1.394 . S
C1650 C1651 1.369 . S
C1650 C1654 1.531 . S
C1651 C1650 1.369 . S
C1651 C1652 1.410 . S
C1651 C1659 1.503 . S
C1652 C1651 1.410 . S
C1652 C1653 1.392 . S
C1652 C1655 1.511 . S
C1653 C1649 1.376 . S
C1653 C1652 1.392 . S
C1653 H1665 0.929 . S
C1654 C1650 1.531 . S
C1654 H1666 0.960 . S
C1654 H1667 0.962 . S
C1654 H1668 0.960 . S
C1655 C1652 1.511 . S
C1655 H1669 0.961 . S
C1655 H1670 0.961 . S
C1655 H1671 0.961 . S
C1656 C1657 1.370 . S
C1656 C1658 1.363 . S
C1656 H1672 0.931 . S
C1657 C1656 1.370 . S
C1657 C1661 1.408 . S
C1658 C1656 1.363 . S
C1658 C1659 1.370 . S
C1658 C1662 1.524 . S
C1659 C1651 1.503 . S
C1659 C1658 1.370 . S
C1659 C1660 1.403 . S
C1660 C1659 1.403 . S
C1660 C1661 1.404 . S
C1660 C1663 1.539 . S
C1661 C1657 1.408 . S
C1661 C1660 1.404 . S
C1661 H1673 0.930 . S
C1662 C1658 1.524 . S
C1662 H1674 0.956 . S
C1662 H1675 0.961 . S
C1662 H1676 0.961 . S
C1663 C1660 1.539 . S
C1663 H1677 0.958 . S
C1663 H1678 0.961 . S
C1663 H1679 0.960 . S
H1664 C1648 0.931 . S
H1665 C1653 0.929 . S
H1666 C1654 0.960 . S
H1667 C1654 0.962 . S
H1668 C1654 0.960 . S
H1669 C1655 0.961 . S
H1670 C1655 0.961 . S
H1671 C1655 0.961 . S
H1672 C1656 0.931 . S
H1673 C1661 0.930 . S
H1674 C1662 0.956 . S
H1675 C1662 0.961 . S
H1676 C1662 0.961 . S
H1677 C1663 0.958 . S
H1678 C1663 0.961 . S
H1679 C1663 0.960 . S
C1680 C1681 1.391 . S
C1680 C1682 1.394 . S
C1680 H1696 0.931 . S
C1681 C1680 1.391 . S
C1681 C1685 1.376 . S
C1682 C1680 1.394 . S
C1682 C1683 1.369 . S
C1682 C1686 1.531 . S
C1683 C1682 1.369 . S
C1683 C1684 1.410 . S
C1683 C1691 1.503 . S
C1684 C1683 1.410 . S
C1684 C1685 1.392 . S
C1684 C1687 1.511 . S
C1685 C1681 1.376 . S
C1685 C1684 1.392 . S
C1685 H1697 0.929 . S
C1686 C1682 1.531 . S
C1686 H1698 0.960 . S
C1686 H1699 0.962 . S
C1686 H1700 0.960 . S
C1687 C1684 1.511 . S
C1687 H1701 0.961 . S
C1687 H1702 0.961 . S
C1687 H1703 0.961 . S
C1688 C1689 1.370 . S
C1688 C1690 1.363 . S
C1688 H1704 0.931 . S
C1689 C1688 1.370 . S
C1689 C1693 1.408 . S
C1690 C1688 1.363 . S
C1690 C1691 1.370 . S
C1690 C1694 1.524 . S
C1691 C1683 1.503 . S
C1691 C1690 1.370 . S
C1691 C1692 1.403 . S
C1692 C1691 1.403 . S
C1692 C1693 1.404 . S
C1692 C1695 1.539 . S
C1693 C1689 1.408 . S
C1693 C1692 1.404 . S
C1693 H1705 0.930 . S
C1694 C1690 1.524 . S
C1694 H1706 0.956 . S
C1694 H1707 0.961 . S
C1694 H1708 0.961 . S
C1695 C1692 1.539 . S
C1695 H1709 0.958 . S
C1695 H1710 0.961 . S
C1695 H1711 0.960 . S
H1696 C1680 0.931 . S
H1697 C1685 0.929 . S
H1698 C1686 0.960 . S
H1699 C1686 0.962 . S
H1700 C1686 0.960 . S
H1701 C1687 0.961 . S
H1702 C1687 0.961 . S
H1703 C1687 0.961 . S
H1704 C1688 0.931 . S
H1705 C1693 0.930 . S
H1706 C1694 0.956 . S
H1707 C1694 0.961 . S
H1708 C1694 0.961 . S
H1709 C1695 0.958 . S
H1710 C1695 0.961 . S
H1711 C1695 0.960 . S
C1712 C1713 1.391 . S
C1712 C1714 1.394 . S
C1712 H1728 0.931 . S
C1713 C1712 1.391 . S
C1713 C1717 1.376 . S
C1714 C1712 1.394 . S
C1714 C1715 1.369 . S
C1714 C1718 1.531 . S
C1715 C1714 1.369 . S
C1715 C1716 1.410 . S
C1715 C1723 1.503 . S
C1716 C1715 1.410 . S
C1716 C1717 1.392 . S
C1716 C1719 1.511 . S
C1717 C1713 1.376 . S
C1717 C1716 1.392 . S
C1717 H1729 0.929 . S
C1718 C1714 1.531 . S
C1718 H1730 0.960 . S
C1718 H1731 0.962 . S
C1718 H1732 0.960 . S
C1719 C1716 1.511 . S
C1719 H1733 0.961 . S
C1719 H1734 0.961 . S
C1719 H1735 0.961 . S
C1720 C1721 1.370 . S
C1720 C1722 1.363 . S
C1720 H1736 0.931 . S
C1721 C1720 1.370 . S
C1721 C1725 1.408 . S
C1722 C1720 1.363 . S
C1722 C1723 1.370 . S
C1722 C1726 1.524 . S
C1723 C1715 1.503 . S
C1723 C1722 1.370 . S
C1723 C1724 1.403 . S
C1724 C1723 1.403 . S
C1724 C1725 1.404 . S
C1724 C1727 1.539 . S
C1725 C1721 1.408 . S
C1725 C1724 1.404 . S
C1725 H1737 0.930 . S
C1726 C1722 1.524 . S
C1726 H1738 0.956 . S
C1726 H1739 0.961 . S
C1726 H1740 0.961 . S
C1727 C1724 1.539 . S
C1727 H1741 0.958 . S
C1727 H1742 0.961 . S
C1727 H1743 0.960 . S
H1728 C1712 0.931 . S
H1729 C1717 0.929 . S
H1730 C1718 0.960 . S
H1731 C1718 0.962 . S
H1732 C1718 0.960 . S
H1733 C1719 0.961 . S
H1734 C1719 0.961 . S
H1735 C1719 0.961 . S
H1736 C1720 0.931 . S
H1737 C1725 0.930 . S
H1738 C1726 0.956 . S
H1739 C1726 0.961 . S
H1740 C1726 0.961 . S
H1741 C1727 0.958 . S
H1742 C1727 0.961 . S
H1743 C1727 0.960 . S
C1744 C1745 1.391 . S
C1744 C1746 1.394 . S
C1744 H1760 0.931 . S
C1745 C1744 1.391 . S
C1745 C1749 1.376 . S
C1746 C1744 1.394 . S
C1746 C1747 1.369 . S
C1746 C1750 1.531 . S
C1747 C1746 1.369 . S
C1747 C1748 1.410 . S
C1747 C1755 1.503 . S
C1748 C1747 1.410 . S
C1748 C1749 1.392 . S
C1748 C1751 1.511 . S
C1749 C1745 1.376 . S
C1749 C1748 1.392 . S
C1749 H1761 0.929 . S
C1750 C1746 1.531 . S
C1750 H1762 0.960 . S
C1750 H1763 0.962 . S
C1750 H1764 0.960 . S
C1751 C1748 1.511 . S
C1751 H1765 0.961 . S
C1751 H1766 0.961 . S
C1751 H1767 0.961 . S
C1752 C1753 1.370 . S
C1752 C1754 1.363 . S
C1752 H1768 0.931 . S
C1753 C1752 1.370 . S
C1753 C1757 1.408 . S
C1754 C1752 1.363 . S
C1754 C1755 1.370 . S
C1754 C1758 1.524 . S
C1755 C1747 1.503 . S
C1755 C1754 1.370 . S
C1755 C1756 1.403 . S
C1756 C1755 1.403 . S
C1756 C1757 1.404 . S
C1756 C1759 1.539 1_554 S
C1757 C1753 1.408 . S
C1757 C1756 1.404 . S
C1757 H1769 0.930 1_554 S
C1758 C1754 1.524 . S
C1758 H1770 0.956 . S
C1758 H1771 0.961 . S
C1758 H1772 0.961 . S
C1759 C1756 1.539 1_556 S
C1759 H1773 0.958 . S
C1759 H1774 0.961 . S
C1759 H1775 0.960 1_556 S
H1760 C1744 0.931 . S
H1761 C1749 0.929 . S
H1762 C1750 0.960 . S
H1763 C1750 0.962 . S
H1764 C1750 0.960 . S
H1765 C1751 0.961 . S
H1766 C1751 0.961 . S
H1767 C1751 0.961 . S
H1768 C1752 0.931 . S
H1769 C1757 0.930 1_556 S
H1770 C1758 0.956 . S
H1771 C1758 0.961 . S
H1772 C1758 0.961 . S
H1773 C1759 0.958 . S
H1774 C1759 0.961 . S
H1775 C1759 0.960 1_554 S
C1776 C1777 1.391 . S
C1776 C1778 1.394 . S
C1776 H1792 0.931 . S
C1777 C1776 1.391 . S
C1777 C1781 1.376 . S
C1778 C1776 1.394 . S
C1778 C1779 1.369 . S
C1778 C1782 1.531 . S
C1779 C1778 1.369 . S
C1779 C1780 1.410 . S
C1779 C1787 1.503 . S
C1780 C1779 1.410 . S
C1780 C1781 1.392 . S
C1780 C1783 1.511 . S
C1781 C1777 1.376 . S
C1781 C1780 1.392 . S
C1781 H1793 0.929 . S
C1782 C1778 1.531 . S
C1782 H1794 0.960 . S
C1782 H1795 0.962 . S
C1782 H1796 0.960 . S
C1783 C1780 1.511 . S
C1783 H1797 0.961 . S
C1783 H1798 0.961 . S
C1783 H1799 0.961 . S
C1784 C1785 1.370 . S
C1784 C1786 1.363 . S
C1784 H1800 0.931 . S
C1785 C1784 1.370 . S
C1785 C1789 1.408 . S
C1786 C1784 1.363 . S
C1786 C1787 1.370 . S
C1786 C1790 1.524 . S
C1787 C1779 1.503 . S
C1787 C1786 1.370 . S
C1787 C1788 1.403 . S
C1788 C1787 1.403 . S
C1788 C1789 1.404 . S
C1788 C1791 1.539 . S
C1789 C1785 1.408 . S
C1789 C1788 1.404 . S
C1789 H1801 0.930 . S
C1790 C1786 1.524 . S
C1790 H1802 0.956 . S
C1790 H1803 0.961 . S
C1790 H1804 0.961 . S
C1791 C1788 1.539 . S
C1791 H1805 0.958 . S
C1791 H1806 0.961 . S
C1791 H1807 0.960 . S
H1792 C1776 0.931 . S
H1793 C1781 0.929 . S
H1794 C1782 0.960 . S
H1795 C1782 0.962 . S
H1796 C1782 0.960 . S
H1797 C1783 0.961 . S
H1798 C1783 0.961 . S
H1799 C1783 0.961 . S
H1800 C1784 0.931 . S
H1801 C1789 0.930 . S
H1802 C1790 0.956 . S
H1803 C1790 0.961 . S
H1804 C1790 0.961 . S
H1805 C1791 0.958 . S
H1806 C1791 0.961 . S
H1807 C1791 0.960 . S
C1808 C1809 1.391 . S
C1808 C1810 1.394 . S
C1808 H1824 0.931 . S
C1809 C1808 1.391 . S
C1809 C1813 1.376 . S
C1810 C1808 1.394 . S
C1810 C1811 1.369 . S
C1810 C1814 1.531 . S
C1811 C1810 1.369 . S
C1811 C1812 1.410 . S
C1811 C1819 1.503 . S
C1812 C1811 1.410 . S
C1812 C1813 1.392 . S
C1812 C1815 1.511 . S
C1813 C1809 1.376 . S
C1813 C1812 1.392 . S
C1813 H1825 0.929 . S
C1814 C1810 1.531 . S
C1814 H1826 0.960 . S
C1814 H1827 0.962 . S
C1814 H1828 0.960 . S
C1815 C1812 1.511 . S
C1815 H1829 0.961 . S
C1815 H1830 0.961 . S
C1815 H1831 0.961 . S
C1816 C1817 1.370 . S
C1816 C1818 1.363 . S
C1816 H1832 0.931 . S
C1817 C1816 1.370 . S
C1817 C1821 1.408 . S
C1818 C1816 1.363 . S
C1818 C1819 1.370 . S
C1818 C1822 1.524 . S
C1819 C1811 1.503 . S
C1819 C1818 1.370 . S
C1819 C1820 1.403 . S
C1820 C1819 1.403 . S
C1820 C1821 1.404 . S
C1820 C1823 1.539 . S
C1821 C1817 1.408 . S
C1821 C1820 1.404 . S
C1821 H1833 0.930 . S
C1822 C1818 1.524 . S
C1822 H1834 0.956 . S
C1822 H1835 0.961 . S
C1822 H1836 0.961 . S
C1823 C1820 1.539 . S
C1823 H1837 0.958 . S
C1823 H1838 0.961 . S
C1823 H1839 0.960 . S
H1824 C1808 0.931 . S
H1825 C1813 0.929 . S
H1826 C1814 0.960 . S
H1827 C1814 0.962 . S
H1828 C1814 0.960 . S
H1829 C1815 0.961 . S
H1830 C1815 0.961 . S
H1831 C1815 0.961 . S
H1832 C1816 0.931 . S
H1833 C1821 0.930 . S
H1834 C1822 0.956 . S
H1835 C1822 0.961 . S
H1836 C1822 0.961 . S
H1837 C1823 0.958 . S
H1838 C1823 0.961 . S
H1839 C1823 0.960 . S
C1840 C1841 1.391 . S
C1840 C1842 1.394 . S
C1840 H1856 0.931 . S
C1841 C1840 1.391 . S
C1841 C1845 1.376 . S
C1842 C1840 1.394 . S
C1842 C1843 1.369 . S
C1842 C1846 1.531 . S
C1843 C1842 1.369 . S
C1843 C1844 1.410 . S
C1843 C1851 1.503 . S
C1844 C1843 1.410 . S
C1844 C1845 1.392 . S
C1844 C1847 1.511 . S
C1845 C1841 1.376 . S
C1845 C1844 1.392 . S
C1845 H1857 0.929 . S
C1846 C1842 1.531 . S
C1846 H1858 0.960 . S
C1846 H1859 0.962 . S
C1846 H1860 0.960 . S
C1847 C1844 1.511 . S
C1847 H1861 0.961 . S
C1847 H1862 0.961 . S
C1847 H1863 0.961 . S
C1848 C1849 1.370 . S
C1848 C1850 1.363 . S
C1848 H1864 0.931 . S
C1849 C1848 1.370 . S
C1849 C1853 1.408 . S
C1850 C1848 1.363 . S
C1850 C1851 1.370 . S
C1850 C1854 1.524 . S
C1851 C1843 1.503 . S
C1851 C1850 1.370 . S
C1851 C1852 1.403 . S
C1852 C1851 1.403 . S
C1852 C1853 1.404 . S
C1852 C1855 1.539 . S
C1853 C1849 1.408 . S
C1853 C1852 1.404 . S
C1853 H1865 0.930 . S
C1854 C1850 1.524 . S
C1854 H1866 0.956 . S
C1854 H1867 0.961 . S
C1854 H1868 0.961 . S
C1855 C1852 1.539 . S
C1855 H1869 0.958 . S
C1855 H1870 0.961 . S
C1855 H1871 0.960 . S
H1856 C1840 0.931 . S
H1857 C1845 0.929 . S
H1858 C1846 0.960 . S
H1859 C1846 0.962 . S
H1860 C1846 0.960 . S
H1861 C1847 0.961 . S
H1862 C1847 0.961 . S
H1863 C1847 0.961 . S
H1864 C1848 0.931 . S
H1865 C1853 0.930 . S
H1866 C1854 0.956 . S
H1867 C1854 0.961 . S
H1868 C1854 0.961 . S
H1869 C1855 0.958 . S
H1870 C1855 0.961 . S
H1871 C1855 0.960 . S
C1872 C1873 1.391 . S
C1872 C1874 1.394 . S
C1872 H1888 0.931 . S
C1873 C1872 1.391 . S
C1873 C1877 1.376 . S
C1874 C1872 1.394 . S
C1874 C1875 1.369 . S
C1874 C1878 1.531 . S
C1875 C1874 1.369 . S
C1875 C1876 1.410 . S
C1875 C1883 1.503 . S
C1876 C1875 1.410 . S
C1876 C1877 1.392 . S
C1876 C1879 1.511 . S
C1877 C1873 1.376 . S
C1877 C1876 1.392 . S
C1877 H1889 0.929 . S
C1878 C1874 1.531 . S
C1878 H1890 0.960 . S
C1878 H1891 0.962 . S
C1878 H1892 0.960 . S
C1879 C1876 1.511 . S
C1879 H1893 0.961 . S
C1879 H1894 0.961 . S
C1879 H1895 0.961 . S
C1880 C1881 1.370 . S
C1880 C1882 1.363 . S
C1880 H1896 0.931 . S
C1881 C1880 1.370 . S
C1881 C1885 1.408 . S
C1882 C1880 1.363 . S
C1882 C1883 1.370 . S
C1882 C1886 1.524 . S
C1883 C1875 1.503 . S
C1883 C1882 1.370 . S
C1883 C1884 1.403 . S
C1884 C1883 1.403 . S
C1884 C1885 1.404 . S
C1884 C1887 1.539 . S
C1885 C1881 1.408 . S
C1885 C1884 1.404 . S
C1885 H1897 0.930 . S
C1886 C1882 1.524 . S
C1886 H1898 0.956 . S
C1886 H1899 0.961 . S
C1886 H1900 0.961 . S
C1887 C1884 1.539 . S
C1887 H1901 0.958 . S
C1887 H1902 0.961 . S
C1887 H1903 0.960 . S
H1888 C1872 0.931 . S
H1889 C1877 0.929 . S
H1890 C1878 0.960 . S
H1891 C1878 0.962 . S
H1892 C1878 0.960 . S
H1893 C1879 0.961 . S
H1894 C1879 0.961 . S
H1895 C1879 0.961 . S
H1896 C1880 0.931 . S
H1897 C1885 0.930 . S
H1898 C1886 0.956 . S
H1899 C1886 0.961 . S
H1900 C1886 0.961 . S
H1901 C1887 0.958 . S
H1902 C1887 0.961 . S
H1903 C1887 0.960 . S
C1904 C1905 1.391 . S
C1904 C1906 1.394 . S
C1904 H1920 0.931 . S
C1905 C1904 1.391 . S
C1905 C1909 1.376 . S
C1906 C1904 1.394 . S
C1906 C1907 1.369 . S
C1906 C1910 1.531 . S
C1907 C1906 1.369 . S
C1907 C1908 1.410 . S
C1907 C1915 1.503 . S
C1908 C1907 1.410 . S
C1908 C1909 1.392 . S
C1908 C1911 1.511 . S
C1909 C1905 1.376 . S
C1909 C1908 1.392 . S
C1909 H1921 0.929 . S
C1910 C1906 1.531 . S
C1910 H1922 0.960 . S
C1910 H1923 0.962 . S
C1910 H1924 0.960 . S
C1911 C1908 1.511 . S
C1911 H1925 0.961 . S
C1911 H1926 0.961 . S
C1911 H1927 0.961 . S
C1912 C1913 1.370 . S
C1912 C1914 1.363 . S
C1912 H1928 0.931 . S
C1913 C1912 1.370 . S
C1913 C1917 1.408 . S
C1914 C1912 1.363 . S
C1914 C1915 1.370 . S
C1914 C1918 1.524 . S
C1915 C1907 1.503 . S
C1915 C1914 1.370 . S
C1915 C1916 1.403 . S
C1916 C1915 1.403 . S
C1916 C1917 1.404 . S
C1916 C1919 1.539 . S
C1917 C1913 1.408 . S
C1917 C1916 1.404 . S
C1917 H1929 0.930 . S
C1918 C1914 1.524 . S
C1918 H1930 0.956 . S
C1918 H1931 0.961 . S
C1918 H1932 0.961 . S
C1919 C1916 1.539 . S
C1919 H1933 0.958 . S
C1919 H1934 0.961 . S
C1919 H1935 0.960 . S
H1920 C1904 0.931 . S
H1921 C1909 0.929 . S
H1922 C1910 0.960 . S
H1923 C1910 0.962 . S
H1924 C1910 0.960 . S
H1925 C1911 0.961 . S
H1926 C1911 0.961 . S
H1927 C1911 0.961 . S
H1928 C1912 0.931 . S
H1929 C1917 0.930 . S
H1930 C1918 0.956 . S
H1931 C1918 0.961 . S
H1932 C1918 0.961 . S
H1933 C1919 0.958 . S
H1934 C1919 0.961 . S
H1935 C1919 0.960 . S
C1936 C1937 1.391 . S
C1936 C1938 1.394 . S
C1936 H1952 0.931 . S
C1937 C1936 1.391 . S
C1937 C1941 1.376 . S
C1938 C1936 1.394 . S
C1938 C1939 1.369 . S
C1938 C1942 1.531 . S
C1939 C1938 1.369 . S
C1939 C1940 1.410 . S
C1939 C1947 1.503 . S
C1940 C1939 1.410 . S
C1940 C1941 1.392 . S
C1940 C1943 1.511 . S
C1941 C1937 1.376 . S
C1941 C1940 1.392 . S
C1941 H1953 0.929 . S
C1942 C1938 1.531 . S
C1942 H1954 0.960 . S
C1942 H1955 0.962 . S
C1942 H1956 0.960 . S
C1943 C1940 1.511 . S
C1943 H1957 0.961 . S
C1943 H1958 0.961 . S
C1943 H1959 0.961 . S
C1944 C1945 1.370 . S
C1944 C1946 1.363 . S
C1944 H1960 0.931 1_556 S
C1945 C1944 1.370 . S
C1945 C1949 1.408 . S
C1946 C1944 1.363 . S
C1946 C1947 1.370 . S
C1946 C1950 1.524 . S
C1947 C1939 1.503 . S
C1947 C1946 1.370 . S
C1947 C1948 1.403 . S
C1948 C1947 1.403 . S
C1948 C1949 1.404 . S
C1948 C1951 1.539 . S
C1949 C1945 1.408 . S
C1949 C1948 1.404 . S
C1949 H1961 0.930 . S
C1950 C1946 1.524 . S
C1950 H1962 0.956 . S
C1950 H1963 0.961 . S
C1950 H1964 0.999 . S
C1951 C1948 1.539 . S
C1951 H1965 0.958 . S
C1951 H1966 0.961 . S
C1951 H1967 0.960 . S
H1952 C1936 0.931 . S
H1953 C1941 0.929 . S
H1954 C1942 0.960 . S
H1955 C1942 0.962 . S
H1956 C1942 0.960 . S
H1957 C1943 0.961 . S
H1958 C1943 0.961 . S
H1959 C1943 0.961 . S
H1960 C1944 0.931 1_554 S
H1961 C1949 0.930 . S
H1962 C1950 0.956 . S
H1963 C1950 0.961 . S
H1964 C1950 0.999 . S
H1965 C1951 0.958 . S
H1966 C1951 0.961 . S
H1967 C1951 0.960 . S
C1968 C1969 1.391 . S
C1968 C1970 1.394 . S
C1968 H1984 0.931 . S
C1969 C1968 1.391 . S
C1969 C1973 1.376 . S
C1970 C1968 1.394 . S
C1970 C1971 1.369 . S
C1970 C1974 1.531 . S
C1971 C1970 1.369 . S
C1971 C1972 1.410 . S
C1971 C1979 1.503 . S
C1972 C1971 1.410 . S
C1972 C1973 1.392 . S
C1972 C1975 1.511 . S
C1973 C1969 1.376 . S
C1973 C1972 1.392 . S
C1973 H1985 0.929 . S
C1974 C1970 1.531 . S
C1974 H1986 0.960 . S
C1974 H1987 0.962 . S
C1974 H1988 0.960 . S
C1975 C1972 1.511 . S
C1975 H1989 0.961 . S
C1975 H1990 0.961 . S
C1975 H1991 0.961 . S
C1976 C1977 1.370 . S
C1976 C1978 1.363 . S
C1976 H1992 0.931 . S
C1977 C1976 1.370 . S
C1977 C1981 1.408 . S
C1978 C1976 1.363 . S
C1978 C1979 1.370 . S
C1978 C1982 1.524 . S
C1979 C1971 1.503 . S
C1979 C1978 1.370 . S
C1979 C1980 1.403 . S
C1980 C1979 1.403 . S
C1980 C1981 1.404 . S
C1980 C1983 1.539 . S
C1981 C1977 1.408 . S
C1981 C1980 1.404 . S
C1981 H1993 0.930 . S
C1982 C1978 1.524 . S
C1982 H1994 0.956 . S
C1982 H1995 0.961 . S
C1982 H1996 0.961 . S
C1983 C1980 1.539 . S
C1983 H1997 0.958 . S
C1983 H1998 0.961 . S
C1983 H1999 0.960 . S
H1984 C1968 0.931 . S
H1985 C1973 0.929 . S
H1986 C1974 0.960 . S
H1987 C1974 0.962 . S
H1988 C1974 0.960 . S
H1989 C1975 0.961 . S
H1990 C1975 0.961 . S
H1991 C1975 0.961 . S
H1992 C1976 0.931 . S
H1993 C1981 0.930 . S
H1994 C1982 0.956 . S
H1995 C1982 0.961 . S
H1996 C1982 0.961 . S
H1997 C1983 0.958 . S
H1998 C1983 0.961 . S
H1999 C1983 0.960 . S
C2000 C2001 1.391 . S
C2000 C2002 1.394 . S
C2000 H2016 0.931 . S
C2001 C2000 1.391 . S
C2001 C2005 1.376 . S
C2002 C2000 1.394 . S
C2002 C2003 1.369 . S
C2002 C2006 1.531 . S
C2003 C2002 1.369 . S
C2003 C2004 1.410 . S
C2003 C2011 1.503 . S
C2004 C2003 1.410 . S
C2004 C2005 1.392 . S
C2004 C2007 1.511 . S
C2005 C2001 1.376 . S
C2005 C2004 1.392 . S
C2005 H2017 0.929 . S
C2006 C2002 1.531 . S
C2006 H2018 0.960 . S
C2006 H2019 0.962 1_545 S
C2006 H2020 0.960 . S
C2007 C2004 1.511 . S
C2007 H2021 0.961 . S
C2007 H2022 0.961 . S
C2007 H2023 0.961 . S
C2008 C2009 1.370 1_565 S
C2008 C2010 1.363 . S
C2008 H2024 0.931 . S
C2009 C2008 1.370 1_545 S
C2009 C2013 1.408 . S
C2010 C2008 1.363 . S
C2010 C2011 1.370 1_565 S
C2010 C2014 1.524 . S
C2011 C2003 1.503 . S
C2011 C2010 1.370 1_545 S
C2011 C2012 1.403 . S
C2012 C2011 1.403 . S
C2012 C2013 1.404 . S
C2012 C2015 1.539 . S
C2013 C2009 1.408 . S
C2013 C2012 1.404 . S
C2013 H2025 0.930 . S
C2014 C2010 1.524 . S
C2014 H2026 0.956 . S
C2014 H2027 0.961 . S
C2014 H2028 0.961 . S
C2015 C2012 1.539 . S
C2015 H2029 0.958 . S
C2015 H2030 0.961 . S
C2015 H2031 0.960 . S
H2016 C2000 0.931 . S
H2017 C2005 0.929 . S
H2018 C2006 0.960 . S
H2019 C2006 0.962 1_565 S
H2020 C2006 0.960 . S
H2021 C2007 0.961 . S
H2022 C2007 0.961 . S
H2023 C2007 0.961 . S
H2024 C2008 0.931 . S
H2025 C2013 0.930 . S
H2026 C2014 0.956 . S
H2027 C2014 0.961 . S
H2028 C2014 0.961 . S
H2029 C2015 0.958 . S
H2030 C2015 0.961 . S
H2031 C2015 0.960 . S
C2032 C2033 1.391 . S
C2032 C2034 1.394 . S
C2032 H2048 0.931 . S
C2033 C2032 1.391 . S
C2033 C2037 1.376 . S
C2034 C2032 1.394 . S
C2034 C2035 1.369 . S
C2034 C2038 1.531 . S
C2035 C2034 1.369 . S
C2035 C2036 1.410 . S
C2035 C2043 1.503 . S
C2036 C2035 1.410 . S
C2036 C2037 1.392 . S
C2036 C2039 1.511 . S
C2037 C2033 1.376 . S
C2037 C2036 1.392 . S
C2037 H2049 0.929 . S
C2038 C2034 1.531 . S
C2038 H2050 0.960 . S
C2038 H2051 0.962 . S
C2038 H2052 0.960 . S
C2039 C2036 1.511 . S
C2039 H2053 0.961 . S
C2039 H2054 0.961 . S
C2039 H2055 0.961 . S
C2040 C2041 1.370 . S
C2040 C2042 1.363 . S
C2040 H2056 0.931 . S
C2041 C2040 1.370 . S
C2041 C2045 1.408 . S
C2042 C2040 1.363 . S
C2042 C2043 1.370 . S
C2042 C2046 1.524 . S
C2043 C2035 1.503 . S
C2043 C2042 1.370 . S
C2043 C2044 1.403 . S
C2044 C2043 1.403 . S
C2044 C2045 1.404 . S
C2044 C2047 1.539 . S
C2045 C2041 1.408 . S
C2045 C2044 1.404 . S
C2045 H2057 0.930 . S
C2046 C2042 1.524 . S
C2046 H2058 0.956 . S
C2046 H2059 0.961 . S
C2046 H2060 0.961 . S
C2047 C2044 1.539 . S
C2047 H2061 0.958 . S
C2047 H2062 0.961 . S
C2047 H2063 0.960 . S
H2048 C2032 0.931 . S
H2049 C2037 0.929 . S
H2050 C2038 0.960 . S
H2051 C2038 0.962 . S
H2052 C2038 0.960 . S
H2053 C2039 0.961 . S
H2054 C2039 0.961 . S
H2055 C2039 0.961 . S
H2056 C2040 0.931 . S
H2057 C2045 0.930 . S
H2058 C2046 0.956 . S
H2059 C2046 0.961 . S
H2060 C2046 0.961 . S
H2061 C2047 0.958 . S
H2062 C2047 0.961 . S
H2063 C2047 0.960 . S
C2064 C2065 1.391 . S
C2064 C2066 1.394 . S
C2064 H2080 0.931 . S
C2065 C2064 1.391 . S
C2065 C2069 1.376 . S
C2066 C2064 1.394 . S
C2066 C2067 1.369 . S
C2066 C2070 1.531 . S
C2067 C2066 1.369 . S
C2067 C2068 1.410 . S
C2067 C2075 1.503 . S
C2068 C2067 1.410 . S
C2068 C2069 1.392 . S
C2068 C2071 1.511 . S
C2069 C2065 1.376 . S
C2069 C2068 1.392 . S
C2069 H2081 0.929 . S
C2070 C2066 1.531 . S
C2070 H2082 0.953 1_545 S
C2070 H2083 0.962 . S
C2070 H2084 0.960 1_545 S
C2071 C2068 1.511 . S
C2071 H2085 0.961 . S
C2071 H2086 0.961 . S
C2071 H2087 0.961 . S
C2072 C2073 1.370 . S
C2072 C2074 1.363 . S
C2072 H2088 0.931 . S
C2073 C2072 1.370 . S
C2073 C2077 1.408 . S
C2074 C2072 1.363 . S
C2074 C2075 1.370 . S
C2074 C2078 1.524 . S
C2075 C2067 1.503 . S
C2075 C2074 1.370 . S
C2075 C2076 1.428 . S
C2076 C2075 1.428 . S
C2076 C2077 1.400 . S
C2076 C2079 1.518 1_545 S
C2077 C2073 1.408 . S
C2077 C2076 1.400 . S
C2077 H2089 0.930 1_545 S
C2078 C2074 1.524 . S
C2078 H2090 0.956 . S
C2078 H2091 0.961 . S
C2078 H2092 0.961 . S
C2079 C2076 1.518 1_565 S
C2079 H2093 0.958 . S
C2079 H2094 0.961 . S
C2079 H2095 0.960 . S
H2080 C2064 0.931 . S
H2081 C2069 0.929 . S
H2082 C2070 0.953 1_565 S
H2083 C2070 0.962 . S
H2084 C2070 0.960 1_565 S
H2085 C2071 0.961 . S
H2086 C2071 0.961 . S
H2087 C2071 0.961 . S
H2088 C2072 0.931 . S
H2089 C2077 0.930 1_565 S
H2090 C2078 0.956 . S
H2091 C2078 0.961 . S
H2092 C2078 0.961 . S
H2093 C2079 0.958 . S
H2094 C2079 0.961 . S
H2095 C2079 0.960 . S
C2096 C2097 1.391 . S
C2096 C2098 1.394 . S
C2096 H2112 0.931 . S
C2097 C2096 1.391 . S
C2097 C2101 1.376 . S
C2098 C2096 1.394 . S
C2098 C2099 1.369 . S
C2098 C2102 1.531 . S
C2099 C2098 1.369 . S
C2099 C2100 1.410 . S
C2099 C2107 1.503 . S
C2100 C2099 1.410 . S
C2100 C2101 1.392 . S
C2100 C2103 1.511 . S
C2101 C2097 1.376 . S
C2101 C2100 1.392 . S
C2101 H2113 0.929 . S
C2102 C2098 1.531 . S
C2102 H2114 0.960 . S
C2102 H2115 0.962 . S
C2102 H2116 0.960 . S
C2103 C2100 1.511 . S
C2103 H2117 0.961 . S
C2103 H2118 0.961 . S
C2103 H2119 0.961 . S
C2104 C2105 1.370 . S
C2104 C2106 1.363 . S
C2104 H2120 0.931 . S
C2105 C2104 1.370 . S
C2105 C2109 1.408 . S
C2106 C2104 1.363 . S
C2106 C2107 1.370 . S
C2106 C2110 1.524 . S
C2107 C2099 1.503 . S
C2107 C2106 1.370 . S
C2107 C2108 1.403 . S
C2108 C2107 1.403 . S
C2108 C2109 1.404 . S
C2108 C2111 1.539 . S
C2109 C2105 1.408 . S
C2109 C2108 1.404 . S
C2109 H2121 0.930 . S
C2110 C2106 1.524 . S
C2110 H2122 0.956 . S
C2110 H2123 0.961 . S
C2110 H2124 0.961 . S
C2111 C2108 1.539 . S
C2111 H2125 0.958 . S
C2111 H2126 0.961 . S
C2111 H2127 0.960 . S
H2112 C2096 0.931 . S
H2113 C2101 0.929 . S
H2114 C2102 0.960 . S
H2115 C2102 0.962 . S
H2116 C2102 0.960 . S
H2117 C2103 0.961 . S
H2118 C2103 0.961 . S
H2119 C2103 0.961 . S
H2120 C2104 0.931 . S
H2121 C2109 0.930 . S
H2122 C2110 0.956 . S
H2123 C2110 0.961 . S
H2124 C2110 0.961 . S
H2125 C2111 0.958 . S
H2126 C2111 0.961 . S
H2127 C2111 0.960 . S
C2128 C2129 1.365 1_545 S
C2128 C2130 1.394 . S
C2128 H2144 0.931 . S
C2129 C2128 1.365 1_565 S
C2129 C2133 1.382 . S
C2130 C2128 1.394 . S
C2130 C2131 1.369 . S
C2130 C2134 1.531 . S
C2131 C2130 1.369 . S
C2131 C2132 1.377 1_545 S
C2131 C2139 1.503 . S
C2132 C2131 1.377 1_565 S
C2132 C2133 1.418 . S
C2132 C2135 1.520 . S
C2133 C2129 1.382 . S
C2133 C2132 1.418 . S
C2133 H2145 0.929 . S
C2134 C2130 1.531 . S
C2134 H2146 0.960 . S
C2134 H2147 0.962 . S
C2134 H2148 0.960 . S
C2135 C2132 1.520 . S
C2135 H2149 0.961 . S
C2135 H2150 0.961 . S
C2135 H2151 0.961 1_565 S
C2136 C2137 1.370 . S
C2136 C2138 1.361 . S
C2136 H2152 0.931 1_545 S
C2137 C2136 1.370 . S
C2137 C2141 1.408 . S
C2138 C2136 1.361 . S
C2138 C2139 1.369 . S
C2138 C2142 1.528 1_545 S
C2139 C2131 1.503 . S
C2139 C2138 1.369 . S
C2139 C2140 1.403 . S
C2140 C2139 1.403 . S
C2140 C2141 1.404 . S
C2140 C2143 1.539 . S
C2141 C2137 1.408 . S
C2141 C2140 1.404 . S
C2141 H2153 0.930 . S
C2142 C2138 1.528 1_565 S
C2142 H2154 0.956 . S
C2142 H2155 0.961 . S
C2142 H2156 0.961 . S
C2143 C2140 1.539 . S
C2143 H2157 0.958 . S
C2143 H2158 0.961 . S
C2143 H2159 0.960 . S
H2144 C2128 0.931 . S
H2145 C2133 0.929 . S
H2146 C2134 0.960 . S
H2147 C2134 0.962 . S
H2148 C2134 0.960 . S
H2149 C2135 0.961 . S
H2150 C2135 0.961 . S
H2151 C2135 0.961 1_545 S
H2152 C2136 0.931 1_565 S
H2153 C2141 0.930 . S
H2154 C2142 0.956 . S
H2155 C2142 0.961 . S
H2156 C2142 0.961 . S
H2157 C2143 0.958 . S
H2158 C2143 0.961 . S
H2159 C2143 0.960 . S
C2160 C2161 1.391 . S
C2160 C2162 1.394 . S
C2160 H2176 0.931 . S
C2161 C2160 1.391 . S
C2161 C2165 1.376 . S
C2162 C2160 1.394 . S
C2162 C2163 1.369 . S
C2162 C2166 1.531 . S
C2163 C2162 1.369 . S
C2163 C2164 1.410 . S
C2163 C2171 1.503 . S
C2164 C2163 1.410 . S
C2164 C2165 1.392 . S
C2164 C2167 1.511 . S
C2165 C2161 1.376 . S
C2165 C2164 1.392 . S
C2165 H2177 0.929 . S
C2166 C2162 1.531 . S
C2166 H2178 0.960 . S
C2166 H2179 0.962 . S
C2166 H2180 0.960 . S
C2167 C2164 1.511 . S
C2167 H2181 0.961 . S
C2167 H2182 0.961 . S
C2167 H2183 0.961 . S
C2168 C2169 1.370 . S
C2168 C2170 1.363 . S
C2168 H2184 0.931 . S
C2169 C2168 1.370 . S
C2169 C2173 1.408 . S
C2170 C2168 1.363 . S
C2170 C2171 1.370 . S
C2170 C2174 1.524 . S
C2171 C2163 1.503 . S
C2171 C2170 1.370 . S
C2171 C2172 1.403 . S
C2172 C2171 1.403 . S
C2172 C2173 1.404 . S
C2172 C2175 1.539 . S
C2173 C2169 1.408 . S
C2173 C2172 1.404 . S
C2173 H2185 0.930 . S
C2174 C2170 1.524 . S
C2174 H2186 0.956 . S
C2174 H2187 0.961 . S
C2174 H2188 0.961 . S
C2175 C2172 1.539 . S
C2175 H2189 0.958 . S
C2175 H2190 0.961 . S
C2175 H2191 0.960 . S
H2176 C2160 0.931 . S
H2177 C2165 0.929 . S
H2178 C2166 0.960 . S
H2179 C2166 0.962 . S
H2180 C2166 0.960 . S
H2181 C2167 0.961 . S
H2182 C2167 0.961 . S
H2183 C2167 0.961 . S
H2184 C2168 0.931 . S
H2185 C2173 0.930 . S
H2186 C2174 0.956 . S
H2187 C2174 0.961 . S
H2188 C2174 0.961 . S
H2189 C2175 0.958 . S
H2190 C2175 0.961 . S
H2191 C2175 0.960 . S
C2192 C2193 1.391 . S
C2192 C2194 1.394 . S
C2192 H2208 0.931 . S
C2193 C2192 1.391 . S
C2193 C2197 1.377 1_565 S
C2194 C2192 1.394 . S
C2194 C2195 1.369 . S
C2194 C2198 1.531 . S
C2195 C2194 1.369 . S
C2195 C2196 1.410 . S
C2195 C2203 1.503 . S
C2196 C2195 1.410 . S
C2196 C2197 1.392 1_565 S
C2196 C2199 1.511 . S
C2197 C2193 1.377 1_545 S
C2197 C2196 1.392 1_545 S
C2197 H2209 0.928 . S
C2198 C2194 1.531 . S
C2198 H2210 0.960 . S
C2198 H2211 0.962 . S
C2198 H2212 0.960 . S
C2199 C2196 1.511 . S
C2199 H2213 0.961 1_565 S
C2199 H2214 0.961 1_565 S
C2199 H2215 0.961 . S
C2200 C2201 1.404 . S
C2200 C2202 1.363 1_565 S
C2200 H2216 0.898 1_565 S
C2201 C2200 1.404 . S
C2201 C2205 1.408 . S
C2202 C2200 1.363 1_545 S
C2202 C2203 1.370 1_545 S
C2202 C2206 1.524 . S
C2203 C2195 1.503 . S
C2203 C2202 1.370 1_565 S
C2203 C2204 1.403 . S
C2204 C2203 1.403 . S
C2204 C2205 1.404 . S
C2204 C2207 1.539 . S
C2205 C2201 1.408 . S
C2205 C2204 1.404 . S
C2205 H2217 0.930 . S
C2206 C2202 1.524 . S
C2206 H2218 0.956 . S
C2206 H2219 0.961 . S
C2206 H2220 0.961 . S
C2207 C2204 1.539 . S
C2207 H2221 0.958 . S
C2207 H2222 0.961 . S
C2207 H2223 0.960 . S
H2208 C2192 0.931 . S
H2209 C2197 0.928 . S
H2210 C2198 0.960 . S
H2211 C2198 0.962 . S
H2212 C2198 0.960 . S
H2213 C2199 0.961 1_545 S
H2214 C2199 0.961 1_545 S
H2215 C2199 0.961 . S
H2216 C2200 0.898 1_545 S
H2217 C2205 0.930 . S
H2218 C2206 0.956 . S
H2219 C2206 0.961 . S
H2220 C2206 0.961 . S
H2221 C2207 0.958 . S
H2222 C2207 0.961 . S
H2223 C2207 0.960 . S
C2224 C2225 1.391 . S
C2224 C2226 1.394 . S
C2224 H2240 0.931 . S
C2225 C2224 1.391 . S
C2225 C2229 1.376 . S
C2226 C2224 1.394 . S
C2226 C2227 1.369 . S
C2226 C2230 1.531 . S
C2227 C2226 1.369 . S
C2227 C2228 1.410 . S
C2227 C2235 1.503 . S
C2228 C2227 1.410 . S
C2228 C2229 1.392 . S
C2228 C2231 1.511 . S
C2229 C2225 1.376 . S
C2229 C2228 1.392 . S
C2229 H2241 0.929 . S
C2230 C2226 1.531 . S
C2230 H2242 0.960 . S
C2230 H2243 0.962 . S
C2230 H2244 0.960 . S
C2231 C2228 1.511 . S
C2231 H2245 0.961 . S
C2231 H2246 0.961 . S
C2231 H2247 0.961 . S
C2232 C2233 1.370 . S
C2232 C2234 1.363 . S
C2232 H2248 0.931 . S
C2233 C2232 1.370 . S
C2233 C2237 1.408 . S
C2234 C2232 1.363 . S
C2234 C2235 1.370 . S
C2234 C2238 1.524 . S
C2235 C2227 1.503 . S
C2235 C2234 1.370 . S
C2235 C2236 1.403 . S
C2236 C2235 1.403 . S
C2236 C2237 1.404 . S
C2236 C2239 1.539 . S
C2237 C2233 1.408 . S
C2237 C2236 1.404 . S
C2237 H2249 0.930 . S
C2238 C2234 1.524 . S
C2238 H2250 0.956 . S
C2238 H2251 0.961 . S
C2238 H2252 0.961 . S
C2239 C2236 1.539 . S
C2239 H2253 0.958 . S
C2239 H2254 0.961 . S
C2239 H2255 0.960 . S
H2240 C2224 0.931 . S
H2241 C2229 0.929 . S
H2242 C2230 0.960 . S
H2243 C2230 0.962 . S
H2244 C2230 0.960 . S
H2245 C2231 0.961 . S
H2246 C2231 0.961 . S
H2247 C2231 0.961 . S
H2248 C2232 0.931 . S
H2249 C2237 0.930 . S
H2250 C2238 0.956 . S
H2251 C2238 0.961 . S
H2252 C2238 0.961 . S
H2253 C2239 0.958 . S
H2254 C2239 0.961 . S
H2255 C2239 0.960 . S
C2256 C2257 1.391 . S
C2256 C2258 1.394 . S
C2256 H2272 0.931 . S
C2257 C2256 1.391 . S
C2257 C2261 1.376 1_554 S
C2258 C2256 1.394 . S
C2258 C2259 1.369 1_554 S
C2258 C2262 1.531 . S
C2259 C2258 1.369 1_556 S
C2259 C2260 1.410 . S
C2259 C2267 1.503 . S
C2260 C2259 1.410 . S
C2260 C2261 1.392 . S
C2260 C2263 1.511 . S
C2261 C2257 1.376 1_556 S
C2261 C2260 1.392 . S
C2261 H2273 0.929 . S
C2262 C2258 1.531 . S
C2262 H2274 0.960 . S
C2262 H2275 0.962 . S
C2262 H2276 0.960 . S
C2263 C2260 1.511 . S
C2263 H2277 0.961 . S
C2263 H2278 0.961 . S
C2263 H2279 0.961 . S
C2264 C2265 1.370 . S
C2264 C2266 1.363 . S
C2264 H2280 0.931 . S
C2265 C2264 1.370 . S
C2265 C2269 1.408 . S
C2266 C2264 1.363 . S
C2266 C2267 1.370 . S
C2266 C2270 1.524 1_556 S
C2267 C2259 1.503 . S
C2267 C2266 1.370 . S
C2267 C2268 1.403 . S
C2268 C2267 1.403 . S
C2268 C2269 1.404 . S
C2268 C2271 1.539 . S
C2269 C2265 1.408 . S
C2269 C2268 1.404 . S
C2269 H2281 0.930 . S
C2270 C2266 1.524 1_554 S
C2270 H2282 0.956 . S
C2270 H2283 0.961 . S
C2270 H2284 0.961 . S
C2271 C2268 1.539 . S
C2271 H2285 0.958 . S
C2271 H2286 0.961 . S
C2271 H2287 0.960 . S
H2272 C2256 0.931 . S
H2273 C2261 0.929 . S
H2274 C2262 0.960 . S
H2275 C2262 0.962 . S
H2276 C2262 0.960 . S
H2277 C2263 0.961 . S
H2278 C2263 0.961 . S
H2279 C2263 0.961 . S
H2280 C2264 0.931 . S
H2281 C2269 0.930 . S
H2282 C2270 0.956 . S
H2283 C2270 0.961 . S
H2284 C2270 0.961 . S
H2285 C2271 0.958 . S
H2286 C2271 0.961 . S
H2287 C2271 0.960 . S
C2288 C2289 1.391 . S
C2288 C2290 1.394 . S
C2288 H2304 0.931 . S
C2289 C2288 1.391 . S
C2289 C2293 1.376 . S
C2290 C2288 1.394 . S
C2290 C2291 1.369 . S
C2290 C2294 1.531 . S
C2291 C2290 1.369 . S
C2291 C2292 1.410 . S
C2291 C2299 1.503 . S
C2292 C2291 1.410 . S
C2292 C2293 1.392 . S
C2292 C2295 1.511 1_554 S
C2293 C2289 1.376 . S
C2293 C2292 1.392 . S
C2293 H2305 0.929 1_554 S
C2294 C2290 1.531 . S
C2294 H2306 0.960 . S
C2294 H2307 0.962 . S
C2294 H2308 0.960 . S
C2295 C2292 1.511 1_556 S
C2295 H2309 0.961 . S
C2295 H2310 0.961 . S
C2295 H2311 0.961 . S
C2296 C2297 1.370 . S
C2296 C2298 1.363 . S
C2296 H2312 0.931 . S
C2297 C2296 1.370 . S
C2297 C2301 1.408 . S
C2298 C2296 1.363 . S
C2298 C2299 1.370 . S
C2298 C2302 1.524 . S
C2299 C2291 1.503 . S
C2299 C2298 1.370 . S
C2299 C2300 1.403 . S
C2300 C2299 1.403 . S
C2300 C2301 1.404 . S
C2300 C2303 1.539 . S
C2301 C2297 1.408 . S
C2301 C2300 1.404 . S
C2301 H2313 0.930 . S
C2302 C2298 1.524 . S
C2302 H2314 0.956 . S
C2302 H2315 0.961 . S
C2302 H2316 0.961 . S
C2303 C2300 1.539 . S
C2303 H2317 0.958 . S
C2303 H2318 0.962 1_554 S
C2303 H2319 0.960 . S
H2304 C2288 0.931 . S
H2305 C2293 0.929 1_556 S
H2306 C2294 0.960 . S
H2307 C2294 0.962 . S
H2308 C2294 0.960 . S
H2309 C2295 0.961 . S
H2310 C2295 0.961 . S
H2311 C2295 0.961 . S
H2312 C2296 0.931 . S
H2313 C2301 0.930 . S
H2314 C2302 0.956 . S
H2315 C2302 0.961 . S
H2316 C2302 0.961 . S
H2317 C2303 0.958 . S
H2318 C2303 0.962 1_556 S
H2319 C2303 0.960 . S
C2320 C2321 1.391 . S
C2320 C2322 1.394 . S
C2320 H2336 0.931 . S
C2321 C2320 1.391 . S
C2321 C2325 1.376 . S
C2322 C2320 1.394 . S
C2322 C2323 1.369 . S
C2322 C2326 1.531 . S
C2323 C2322 1.369 . S
C2323 C2324 1.410 . S
C2323 C2331 1.503 . S
C2324 C2323 1.410 . S
C2324 C2325 1.392 . S
C2324 C2327 1.511 . S
C2325 C2321 1.376 . S
C2325 C2324 1.392 . S
C2325 H2337 0.929 . S
C2326 C2322 1.531 . S
C2326 H2338 0.960 . S
C2326 H2339 0.962 . S
C2326 H2340 0.960 . S
C2327 C2324 1.511 . S
C2327 H2341 0.961 . S
C2327 H2342 0.961 . S
C2327 H2343 0.961 . S
C2328 C2329 1.370 . S
C2328 C2330 1.363 . S
C2328 H2344 0.931 . S
C2329 C2328 1.370 . S
C2329 C2333 1.408 . S
C2330 C2328 1.363 . S
C2330 C2331 1.370 . S
C2330 C2334 1.524 . S
C2331 C2323 1.503 . S
C2331 C2330 1.370 . S
C2331 C2332 1.403 . S
C2332 C2331 1.403 . S
C2332 C2333 1.404 . S
C2332 C2335 1.539 . S
C2333 C2329 1.408 . S
C2333 C2332 1.404 . S
C2333 H2345 0.930 . S
C2334 C2330 1.524 . S
C2334 H2346 0.956 . S
C2334 H2347 0.961 . S
C2334 H2348 0.961 . S
C2335 C2332 1.539 . S
C2335 H2349 0.958 . S
C2335 H2350 0.961 . S
C2335 H2351 0.960 . S
H2336 C2320 0.931 . S
H2337 C2325 0.929 . S
H2338 C2326 0.960 . S
H2339 C2326 0.962 . S
H2340 C2326 0.960 . S
H2341 C2327 0.961 . S
H2342 C2327 0.961 . S
H2343 C2327 0.961 . S
H2344 C2328 0.931 . S
H2345 C2333 0.930 . S
H2346 C2334 0.956 . S
H2347 C2334 0.961 . S
H2348 C2334 0.961 . S
H2349 C2335 0.958 . S
H2350 C2335 0.961 . S
H2351 C2335 0.960 . S
C2352 C2353 1.391 . S
C2352 C2354 1.394 . S
C2352 H2368 0.931 . S
C2353 C2352 1.391 . S
C2353 C2357 1.376 . S
C2354 C2352 1.394 . S
C2354 C2355 1.369 . S
C2354 C2358 1.531 . S
C2355 C2354 1.369 . S
C2355 C2356 1.410 . S
C2355 C2363 1.503 . S
C2356 C2355 1.410 . S
C2356 C2357 1.392 . S
C2356 C2359 1.511 . S
C2357 C2353 1.376 . S
C2357 C2356 1.392 . S
C2357 H2369 0.929 . S
C2358 C2354 1.531 . S
C2358 H2370 0.960 . S
C2358 H2371 0.962 . S
C2358 H2372 0.960 . S
C2359 C2356 1.511 . S
C2359 H2373 0.961 . S
C2359 H2374 0.961 . S
C2359 H2375 0.961 . S
C2360 C2361 1.370 . S
C2360 C2362 1.363 . S
C2360 H2376 0.931 . S
C2361 C2360 1.370 . S
C2361 C2365 1.408 . S
C2362 C2360 1.363 . S
C2362 C2363 1.370 . S
C2362 C2366 1.524 . S
C2363 C2355 1.503 . S
C2363 C2362 1.370 . S
C2363 C2364 1.403 . S
C2364 C2363 1.403 . S
C2364 C2365 1.404 . S
C2364 C2367 1.539 . S
C2365 C2361 1.408 . S
C2365 C2364 1.404 . S
C2365 H2377 0.930 . S
C2366 C2362 1.524 . S
C2366 H2378 0.956 . S
C2366 H2379 0.961 . S
C2366 H2380 0.961 . S
C2367 C2364 1.539 . S
C2367 H2381 0.958 . S
C2367 H2382 0.961 . S
C2367 H2383 0.960 . S
H2368 C2352 0.931 . S
H2369 C2357 0.929 . S
H2370 C2358 0.960 . S
H2371 C2358 0.962 . S
H2372 C2358 0.960 . S
H2373 C2359 0.961 . S
H2374 C2359 0.961 . S
H2375 C2359 0.961 . S
H2376 C2360 0.931 . S
H2377 C2365 0.930 . S
H2378 C2366 0.956 . S
H2379 C2366 0.961 . S
H2380 C2366 0.961 . S
H2381 C2367 0.958 . S
H2382 C2367 0.961 . S
H2383 C2367 0.960 . S
C2384 C2385 1.391 1_565 S
C2384 C2386 1.394 . S
C2384 H2400 0.931 . S
C2385 C2384 1.391 1_545 S
C2385 C2389 1.376 . S
C2386 C2384 1.394 . S
C2386 C2387 1.369 . S
C2386 C2390 1.531 . S
C2387 C2386 1.369 . S
C2387 C2388 1.410 1_565 S
C2387 C2395 1.503 . S
C2388 C2387 1.410 1_545 S
C2388 C2389 1.392 . S
C2388 C2391 1.511 . S
C2389 C2385 1.376 . S
C2389 C2388 1.392 . S
C2389 H2401 0.929 . S
C2390 C2386 1.531 . S
C2390 H2402 0.960 . S
C2390 H2403 0.962 . S
C2390 H2404 0.960 . S
C2391 C2388 1.511 . S
C2391 H2405 0.961 . S
C2391 H2406 0.961 . S
C2391 H2407 0.961 . S
C2392 C2393 1.370 . S
C2392 C2394 1.363 . S
C2392 H2408 0.931 . S
C2393 C2392 1.370 . S
C2393 C2397 1.408 . S
C2394 C2392 1.363 . S
C2394 C2395 1.370 . S
C2394 C2398 1.524 . S
C2395 C2387 1.503 . S
C2395 C2394 1.370 . S
C2395 C2396 1.403 . S
C2396 C2395 1.403 . S
C2396 C2397 1.404 . S
C2396 C2399 1.539 . S
C2397 C2393 1.408 . S
C2397 C2396 1.404 . S
C2397 H2409 0.930 . S
C2398 C2394 1.524 . S
C2398 H2410 0.956 . S
C2398 H2411 0.961 . S
C2398 H2412 0.961 . S
C2399 C2396 1.539 . S
C2399 H2413 0.958 . S
C2399 H2414 0.961 . S
C2399 H2415 0.960 . S
H2400 C2384 0.931 . S
H2401 C2389 0.929 . S
H2402 C2390 0.960 . S
H2403 C2390 0.962 . S
H2404 C2390 0.960 . S
H2405 C2391 0.961 . S
H2406 C2391 0.961 . S
H2407 C2391 0.961 . S
H2408 C2392 0.931 . S
H2409 C2397 0.930 . S
H2410 C2398 0.956 . S
H2411 C2398 0.961 . S
H2412 C2398 0.961 . S
H2413 C2399 0.958 . S
H2414 C2399 0.961 . S
H2415 C2399 0.960 . S
C2416 C2417 1.391 . S
C2416 C2418 1.394 . S
C2416 H2432 0.931 . S
C2417 C2416 1.391 . S
C2417 C2421 1.376 . S
C2418 C2416 1.394 . S
C2418 C2419 1.369 . S
C2418 C2422 1.531 . S
C2419 C2418 1.369 . S
C2419 C2420 1.410 . S
C2419 C2427 1.503 . S
C2420 C2419 1.410 . S
C2420 C2421 1.392 . S
C2420 C2423 1.511 . S
C2421 C2417 1.376 . S
C2421 C2420 1.392 . S
C2421 H2433 0.929 . S
C2422 C2418 1.531 . S
C2422 H2434 0.960 . S
C2422 H2435 0.962 . S
C2422 H2436 0.960 . S
C2423 C2420 1.511 . S
C2423 H2437 0.961 . S
C2423 H2438 0.961 . S
C2423 H2439 0.961 . S
C2424 C2425 1.370 . S
C2424 C2426 1.363 . S
C2424 H2440 0.931 . S
C2425 C2424 1.370 . S
C2425 C2429 1.408 . S
C2426 C2424 1.363 . S
C2426 C2427 1.370 . S
C2426 C2430 1.524 . S
C2427 C2419 1.503 . S
C2427 C2426 1.370 . S
C2427 C2428 1.403 . S
C2428 C2427 1.403 . S
C2428 C2429 1.404 . S
C2428 C2431 1.539 . S
C2429 C2425 1.408 . S
C2429 C2428 1.404 . S
C2429 H2441 0.930 . S
C2430 C2426 1.524 . S
C2430 H2442 0.956 . S
C2430 H2443 0.961 . S
C2430 H2444 0.961 . S
C2431 C2428 1.539 . S
C2431 H2445 0.958 . S
C2431 H2446 0.961 . S
C2431 H2447 0.960 . S
H2432 C2416 0.931 . S
H2433 C2421 0.929 . S
H2434 C2422 0.960 . S
H2435 C2422 0.962 . S
H2436 C2422 0.960 . S
H2437 C2423 0.961 . S
H2438 C2423 0.961 . S
H2439 C2423 0.961 . S
H2440 C2424 0.931 . S
H2441 C2429 0.930 . S
H2442 C2430 0.956 . S
H2443 C2430 0.961 . S
H2444 C2430 0.961 . S
H2445 C2431 0.958 . S
H2446 C2431 0.961 . S
H2447 C2431 0.960 . S
C2448 C2449 1.391 . S
C2448 C2450 1.394 . S
C2448 H2464 0.931 . S
C2449 C2448 1.391 . S
C2449 C2453 1.376 . S
C2450 C2448 1.394 . S
C2450 C2451 1.369 . S
C2450 C2454 1.531 . S
C2451 C2450 1.369 . S
C2451 C2452 1.410 . S
C2451 C2459 1.503 . S
C2452 C2451 1.410 . S
C2452 C2453 1.392 . S
C2452 C2455 1.511 . S
C2453 C2449 1.376 . S
C2453 C2452 1.392 . S
C2453 H2465 0.929 . S
C2454 C2450 1.531 . S
C2454 H2466 0.960 . S
C2454 H2467 0.962 . S
C2454 H2468 0.960 . S
C2455 C2452 1.511 . S
C2455 H2469 0.961 . S
C2455 H2470 0.961 . S
C2455 H2471 0.961 . S
C2456 C2457 1.370 . S
C2456 C2458 1.363 . S
C2456 H2472 0.931 . S
C2457 C2456 1.370 . S
C2457 C2461 1.408 . S
C2458 C2456 1.363 . S
C2458 C2459 1.370 . S
C2458 C2462 1.524 . S
C2459 C2451 1.503 . S
C2459 C2458 1.370 . S
C2459 C2460 1.403 . S
C2460 C2459 1.403 . S
C2460 C2461 1.404 . S
C2460 C2463 1.539 . S
C2461 C2457 1.408 . S
C2461 C2460 1.404 . S
C2461 H2473 0.930 . S
C2462 C2458 1.524 . S
C2462 H2474 0.956 . S
C2462 H2475 0.961 . S
C2462 H2476 0.961 . S
C2463 C2460 1.539 . S
C2463 H2477 0.958 . S
C2463 H2478 0.961 . S
C2463 H2479 0.960 . S
H2464 C2448 0.931 . S
H2465 C2453 0.929 . S
H2466 C2454 0.960 . S
H2467 C2454 0.962 . S
H2468 C2454 0.960 . S
H2469 C2455 0.961 . S
H2470 C2455 0.961 . S
H2471 C2455 0.961 . S
H2472 C2456 0.931 . S
H2473 C2461 0.930 . S
H2474 C2462 0.956 . S
H2475 C2462 0.961 . S
H2476 C2462 0.961 . S
H2477 C2463 0.958 . S
H2478 C2463 0.961 . S
H2479 C2463 0.960 . S
C2480 C2481 1.391 . S
C2480 C2482 1.394 . S
C2480 H2496 0.931 . S
C2481 C2480 1.391 . S
C2481 C2485 1.376 . S
C2482 C2480 1.394 . S
C2482 C2483 1.369 . S
C2482 C2486 1.531 . S
C2483 C2482 1.369 . S
C2483 C2484 1.410 . S
C2483 C2491 1.503 . S
C2484 C2483 1.410 . S
C2484 C2485 1.392 . S
C2484 C2487 1.511 . S
C2485 C2481 1.376 . S
C2485 C2484 1.392 . S
C2485 H2497 0.929 . S
C2486 C2482 1.531 . S
C2486 H2498 0.960 . S
C2486 H2499 0.962 . S
C2486 H2500 0.960 . S
C2487 C2484 1.511 . S
C2487 H2501 0.961 . S
C2487 H2502 0.961 . S
C2487 H2503 0.961 . S
C2488 C2489 1.370 . S
C2488 C2490 1.363 . S
C2488 H2504 0.931 . S
C2489 C2488 1.370 . S
C2489 C2493 1.408 . S
C2490 C2488 1.363 . S
C2490 C2491 1.370 . S
C2490 C2494 1.524 . S
C2491 C2483 1.503 . S
C2491 C2490 1.370 . S
C2491 C2492 1.403 . S
C2492 C2491 1.403 . S
C2492 C2493 1.404 . S
C2492 C2495 1.539 . S
C2493 C2489 1.408 . S
C2493 C2492 1.404 . S
C2493 H2505 0.930 . S
C2494 C2490 1.524 . S
C2494 H2506 0.956 . S
C2494 H2507 0.961 . S
C2494 H2508 0.961 . S
C2495 C2492 1.539 . S
C2495 H2509 0.958 . S
C2495 H2510 0.961 . S
C2495 H2511 0.960 . S
H2496 C2480 0.931 . S
H2497 C2485 0.929 . S
H2498 C2486 0.960 . S
H2499 C2486 0.962 . S
H2500 C2486 0.960 . S
H2501 C2487 0.961 . S
H2502 C2487 0.961 . S
H2503 C2487 0.961 . S
H2504 C2488 0.931 . S
H2505 C2493 0.930 . S
H2506 C2494 0.956 . S
H2507 C2494 0.961 . S
H2508 C2494 0.961 . S
H2509 C2495 0.958 . S
H2510 C2495 0.961 . S
H2511 C2495 0.960 . S
C2512 C2513 1.391 . S
C2512 C2514 1.394 . S
C2512 H2528 0.931 . S
C2513 C2512 1.391 . S
C2513 C2517 1.376 . S
C2514 C2512 1.394 . S
C2514 C2515 1.369 . S
C2514 C2518 1.531 . S
C2515 C2514 1.369 . S
C2515 C2516 1.410 . S
C2515 C2523 1.503 . S
C2516 C2515 1.410 . S
C2516 C2517 1.392 . S
C2516 C2519 1.511 . S
C2517 C2513 1.376 . S
C2517 C2516 1.392 . S
C2517 H2529 0.929 . S
C2518 C2514 1.531 . S
C2518 H2530 0.960 . S
C2518 H2531 0.962 . S
C2518 H2532 0.960 . S
C2519 C2516 1.511 . S
C2519 H2533 0.961 . S
C2519 H2534 0.961 . S
C2519 H2535 0.961 . S
C2520 C2521 1.370 . S
C2520 C2522 1.363 . S
C2520 H2536 0.931 . S
C2521 C2520 1.370 . S
C2521 C2525 1.408 . S
C2522 C2520 1.363 . S
C2522 C2523 1.370 . S
C2522 C2526 1.524 . S
C2523 C2515 1.503 . S
C2523 C2522 1.370 . S
C2523 C2524 1.403 . S
C2524 C2523 1.403 . S
C2524 C2525 1.404 . S
C2524 C2527 1.539 . S
C2525 C2521 1.408 . S
C2525 C2524 1.404 . S
C2525 H2537 0.930 . S
C2526 C2522 1.524 . S
C2526 H2538 0.956 . S
C2526 H2539 0.961 . S
C2526 H2540 0.961 . S
C2527 C2524 1.539 . S
C2527 H2541 0.958 . S
C2527 H2542 0.961 . S
C2527 H2543 0.960 . S
H2528 C2512 0.931 . S
H2529 C2517 0.929 . S
H2530 C2518 0.960 . S
H2531 C2518 0.962 . S
H2532 C2518 0.960 . S
H2533 C2519 0.961 . S
H2534 C2519 0.961 . S
H2535 C2519 0.961 . S
H2536 C2520 0.931 . S
H2537 C2525 0.930 . S
H2538 C2526 0.956 . S
H2539 C2526 0.961 . S
H2540 C2526 0.961 . S
H2541 C2527 0.958 . S
H2542 C2527 0.961 . S
H2543 C2527 0.960 . S
C2544 C2545 1.391 . S
C2544 C2546 1.394 . S
C2544 H2560 0.931 . S
C2545 C2544 1.391 . S
C2545 C2549 1.376 . S
C2546 C2544 1.394 . S
C2546 C2547 1.369 . S
C2546 C2550 1.531 . S
C2547 C2546 1.369 . S
C2547 C2548 1.410 . S
C2547 C2555 1.503 . S
C2548 C2547 1.410 . S
C2548 C2549 1.392 . S
C2548 C2551 1.511 . S
C2549 C2545 1.376 . S
C2549 C2548 1.392 . S
C2549 H2561 0.929 . S
C2550 C2546 1.531 . S
C2550 H2562 0.960 . S
C2550 H2563 0.962 . S
C2550 H2564 0.960 . S
C2551 C2548 1.511 . S
C2551 H2565 0.961 . S
C2551 H2566 0.961 . S
C2551 H2567 0.961 . S
C2552 C2553 1.370 . S
C2552 C2554 1.363 . S
C2552 H2568 0.931 . S
C2553 C2552 1.370 . S
C2553 C2557 1.408 . S
C2554 C2552 1.363 . S
C2554 C2555 1.370 . S
C2554 C2558 1.524 . S
C2555 C2547 1.503 . S
C2555 C2554 1.370 . S
C2555 C2556 1.403 . S
C2556 C2555 1.403 . S
C2556 C2557 1.404 . S
C2556 C2559 1.539 . S
C2557 C2553 1.408 . S
C2557 C2556 1.404 . S
C2557 H2569 0.930 . S
C2558 C2554 1.524 . S
C2558 H2570 0.956 . S
C2558 H2571 0.961 . S
C2558 H2572 0.961 . S
C2559 C2556 1.539 . S
C2559 H2573 0.958 . S
C2559 H2574 0.961 . S
C2559 H2575 0.960 . S
H2560 C2544 0.931 . S
H2561 C2549 0.929 . S
H2562 C2550 0.960 . S
H2563 C2550 0.962 . S
H2564 C2550 0.960 . S
H2565 C2551 0.961 . S
H2566 C2551 0.961 . S
H2567 C2551 0.961 . S
H2568 C2552 0.931 . S
H2569 C2557 0.930 . S
H2570 C2558 0.956 . S
H2571 C2558 0.961 . S
H2572 C2558 0.961 . S
H2573 C2559 0.958 . S
H2574 C2559 0.961 . S
H2575 C2559 0.960 . S
C2576 C2577 1.391 . S
C2576 C2578 1.394 . S
C2576 H2592 0.931 . S
C2577 C2576 1.391 . S
C2577 C2581 1.376 . S
C2578 C2576 1.394 . S
C2578 C2579 1.369 . S
C2578 C2582 1.531 . S
C2579 C2578 1.369 . S
C2579 C2580 1.410 . S
C2579 C2587 1.503 . S
C2580 C2579 1.410 . S
C2580 C2581 1.392 . S
C2580 C2583 1.511 1_455 S
C2581 C2577 1.376 . S
C2581 C2580 1.392 . S
C2581 H2593 0.929 . S
C2582 C2578 1.531 . S
C2582 H2594 0.960 . S
C2582 H2595 0.962 . S
C2582 H2596 0.960 . S
C2583 C2580 1.511 1_655 S
C2583 H2597 0.961 1_556 S
C2583 H2598 0.961 1_656 S
C2583 H2599 0.961 . S
C2584 C2585 1.370 1_554 S
C2584 C2586 1.363 1_554 S
C2584 H2600 0.931 . S
C2585 C2584 1.370 1_556 S
C2585 C2589 1.408 . S
C2586 C2584 1.363 1_556 S
C2586 C2587 1.370 . S
C2586 C2590 1.524 1_556 S
C2587 C2579 1.503 . S
C2587 C2586 1.370 . S
C2587 C2588 1.403 . S
C2588 C2587 1.403 . S
C2588 C2589 1.404 . S
C2588 C2591 1.539 . S
C2589 C2585 1.408 . S
C2589 C2588 1.404 . S
C2589 H2601 0.930 . S
C2590 C2586 1.524 1_554 S
C2590 H2602 0.953 . S
C2590 H2603 0.961 . S
C2590 H2604 0.961 . S
C2591 C2588 1.539 . S
C2591 H2605 0.958 . S
C2591 H2606 0.961 1_455 S
C2591 H2607 0.960 1_455 S
H2592 C2576 0.931 . S
H2593 C2581 0.929 . S
H2594 C2582 0.960 . S
H2595 C2582 0.962 . S
H2596 C2582 0.960 . S
H2597 C2583 0.961 1_554 S
H2598 C2583 0.961 1_454 S
H2599 C2583 0.961 . S
H2600 C2584 0.931 . S
H2601 C2589 0.930 . S
H2602 C2590 0.953 . S
H2603 C2590 0.961 . S
H2604 C2590 0.961 . S
H2605 C2591 0.958 . S
H2606 C2591 0.961 1_655 S
H2607 C2591 0.960 1_655 S
C2608 C2609 1.391 . S
C2608 C2610 1.394 1_455 S
C2608 H2624 0.931 . S
C2609 C2608 1.391 . S
C2609 C2613 1.376 . S
C2610 C2608 1.394 1_655 S
C2610 C2611 1.369 . S
C2610 C2614 1.531 . S
C2611 C2610 1.369 . S
C2611 C2612 1.410 1_655 S
C2611 C2619 1.503 . S
C2612 C2611 1.410 1_455 S
C2612 C2613 1.392 . S
C2612 C2615 1.511 . S
C2613 C2609 1.376 . S
C2613 C2612 1.392 . S
C2613 H2625 0.929 . S
C2614 C2610 1.531 . S
C2614 H2626 0.960 . S
C2614 H2627 0.962 . S
C2614 H2628 0.960 . S
C2615 C2612 1.511 . S
C2615 H2629 0.961 . S
C2615 H2630 0.961 1_455 S
C2615 H2631 0.961 . S
C2616 C2617 1.370 . S
C2616 C2618 1.363 . S
C2616 H2632 0.931 . S
C2617 C2616 1.370 . S
C2617 C2621 1.408 . S
C2618 C2616 1.363 . S
C2618 C2619 1.370 . S
C2618 C2622 1.524 . S
C2619 C2611 1.503 . S
C2619 C2618 1.370 . S
C2619 C2620 1.403 . S
C2620 C2619 1.403 . S
C2620 C2621 1.404 . S
C2620 C2623 1.539 . S
C2621 C2617 1.408 . S
C2621 C2620 1.404 . S
C2621 H2633 0.930 . S
C2622 C2618 1.524 . S
C2622 H2634 0.956 . S
C2622 H2635 0.961 . S
C2622 H2636 0.961 . S
C2623 C2620 1.539 . S
C2623 H2637 0.958 . S
C2623 H2638 0.961 . S
C2623 H2639 0.960 . S
H2624 C2608 0.931 . S
H2625 C2613 0.929 . S
H2626 C2614 0.960 . S
H2627 C2614 0.962 . S
H2628 C2614 0.960 . S
H2629 C2615 0.961 . S
H2630 C2615 0.961 1_655 S
H2631 C2615 0.961 . S
H2632 C2616 0.931 . S
H2633 C2621 0.930 . S
H2634 C2622 0.956 . S
H2635 C2622 0.961 . S
H2636 C2622 0.961 . S
H2637 C2623 0.958 . S
H2638 C2623 0.961 . S
H2639 C2623 0.960 . S
C2640 C2641 1.391 . S
C2640 C2642 1.394 . S
C2640 H2656 0.931 . S
C2641 C2640 1.391 . S
C2641 C2645 1.376 . S
C2642 C2640 1.394 . S
C2642 C2643 1.369 . S
C2642 C2646 1.531 . S
C2643 C2642 1.369 . S
C2643 C2644 1.410 . S
C2643 C2651 1.503 . S
C2644 C2643 1.410 . S
C2644 C2645 1.392 . S
C2644 C2647 1.511 . S
C2645 C2641 1.376 . S
C2645 C2644 1.392 . S
C2645 H2657 0.929 . S
C2646 C2642 1.531 . S
C2646 H2658 0.960 . S
C2646 H2659 0.962 . S
C2646 H2660 0.960 . S
C2647 C2644 1.511 . S
C2647 H2661 0.961 . S
C2647 H2662 0.961 . S
C2647 H2663 0.961 . S
C2648 C2649 1.370 . S
C2648 C2650 1.363 . S
C2648 H2664 0.931 . S
C2649 C2648 1.370 . S
C2649 C2653 1.408 . S
C2650 C2648 1.363 . S
C2650 C2651 1.370 . S
C2650 C2654 1.524 . S
C2651 C2643 1.503 . S
C2651 C2650 1.370 . S
C2651 C2652 1.403 . S
C2652 C2651 1.403 . S
C2652 C2653 1.404 . S
C2652 C2655 1.539 . S
C2653 C2649 1.408 . S
C2653 C2652 1.404 . S
C2653 H2665 0.930 . S
C2654 C2650 1.524 . S
C2654 H2666 0.956 . S
C2654 H2667 0.961 . S
C2654 H2668 0.961 . S
C2655 C2652 1.539 . S
C2655 H2669 0.958 . S
C2655 H2670 0.961 . S
C2655 H2671 0.960 . S
H2656 C2640 0.931 . S
H2657 C2645 0.929 . S
H2658 C2646 0.960 . S
H2659 C2646 0.962 . S
H2660 C2646 0.960 . S
H2661 C2647 0.961 . S
H2662 C2647 0.961 . S
H2663 C2647 0.961 . S
H2664 C2648 0.931 . S
H2665 C2653 0.930 . S
H2666 C2654 0.956 . S
H2667 C2654 0.961 . S
H2668 C2654 0.961 . S
H2669 C2655 0.958 . S
H2670 C2655 0.961 . S
H2671 C2655 0.960 . S
C2672 C2673 1.391 . S
C2672 C2674 1.394 . S
C2672 H2688 0.931 . S
C2673 C2672 1.391 . S
C2673 C2677 1.376 . S
C2674 C2672 1.394 . S
C2674 C2675 1.369 . S
C2674 C2678 1.531 1_455 S
C2675 C2674 1.369 . S
C2675 C2676 1.410 . S
C2675 C2683 1.503 1_455 S
C2676 C2675 1.410 . S
C2676 C2677 1.392 . S
C2676 C2679 1.511 . S
C2677 C2673 1.376 . S
C2677 C2676 1.392 . S
C2677 H2689 0.929 . S
C2678 C2674 1.531 1_655 S
C2678 H2690 0.960 . S
C2678 H2691 0.962 . S
C2678 H2692 0.977 . S
C2679 C2676 1.511 . S
C2679 H2693 0.961 . S
C2679 H2694 0.961 . S
C2679 H2695 0.961 . S
C2680 C2681 1.370 . S
C2680 C2682 1.363 . S
C2680 H2696 0.931 . S
C2681 C2680 1.370 . S
C2681 C2685 1.408 . S
C2682 C2680 1.363 . S
C2682 C2683 1.370 . S
C2682 C2686 1.524 . S
C2683 C2675 1.503 1_655 S
C2683 C2682 1.370 . S
C2683 C2684 1.403 . S
C2684 C2683 1.403 . S
C2684 C2685 1.404 . S
C2684 C2687 1.539 . S
C2685 C2681 1.408 . S
C2685 C2684 1.404 . S
C2685 H2697 0.930 . S
C2686 C2682 1.524 . S
C2686 H2698 0.956 . S
C2686 H2699 0.961 1_655 S
C2686 H2700 0.961 . S
C2687 C2684 1.539 . S
C2687 H2701 0.958 . S
C2687 H2702 0.961 . S
C2687 H2703 0.960 . S
H2688 C2672 0.931 . S
H2689 C2677 0.929 . S
H2690 C2678 0.960 . S
H2691 C2678 0.962 . S
H2692 C2678 0.977 . S
H2693 C2679 0.961 . S
H2694 C2679 0.961 . S
H2695 C2679 0.961 . S
H2696 C2680 0.931 . S
H2697 C2685 0.930 . S
H2698 C2686 0.956 . S
H2699 C2686 0.961 1_455 S
H2700 C2686 0.961 . S
H2701 C2687 0.958 . S
H2702 C2687 0.961 . S
H2703 C2687 0.960 . S
C2704 C2705 1.391 1_455 S
C2704 C2706 1.394 . S
C2704 H2720 0.931 . S
C2705 C2704 1.391 1_655 S
C2705 C2709 1.376 . S
C2706 C2704 1.394 . S
C2706 C2707 1.369 . S
C2706 C2710 1.531 . S
C2707 C2706 1.369 . S
C2707 C2708 1.410 1_455 S
C2707 C2715 1.503 . S
C2708 C2707 1.410 1_655 S
C2708 C2709 1.392 . S
C2708 C2711 1.511 . S
C2709 C2705 1.376 . S
C2709 C2708 1.392 . S
C2709 H2721 0.929 . S
C2710 C2706 1.531 . S
C2710 H2722 0.960 . S
C2710 H2723 0.962 . S
C2710 H2724 0.960 . S
C2711 C2708 1.511 . S
C2711 H2725 0.961 . S
C2711 H2726 0.961 . S
C2711 H2727 0.961 . S
C2712 C2713 1.370 . S
C2712 C2714 1.363 . S
C2712 H2728 0.931 . S
C2713 C2712 1.370 . S
C2713 C2717 1.408 . S
C2714 C2712 1.363 . S
C2714 C2715 1.370 . S
C2714 C2718 1.524 1_455 S
C2715 C2707 1.503 . S
C2715 C2714 1.370 . S
C2715 C2716 1.403 . S
C2716 C2715 1.403 . S
C2716 C2717 1.404 . S
C2716 C2719 1.539 . S
C2717 C2713 1.408 . S
C2717 C2716 1.404 . S
C2717 H2729 0.930 . S
C2718 C2714 1.524 1_655 S
C2718 H2730 0.956 1_655 S
C2718 H2731 0.961 . S
C2718 H2732 0.961 . S
C2719 C2716 1.539 . S
C2719 H2733 0.958 . S
C2719 H2734 0.961 . S
C2719 H2735 0.960 . S
H2720 C2704 0.931 . S
H2721 C2709 0.929 . S
H2722 C2710 0.960 . S
H2723 C2710 0.962 . S
H2724 C2710 0.960 . S
H2725 C2711 0.961 . S
H2726 C2711 0.961 . S
H2727 C2711 0.961 . S
H2728 C2712 0.931 . S
H2729 C2717 0.930 . S
H2730 C2718 0.956 1_455 S
H2731 C2718 0.961 . S
H2732 C2718 0.961 . S
H2733 C2719 0.958 . S
H2734 C2719 0.961 . S
H2735 C2719 0.960 . S
C2736 C2737 1.391 . S
C2736 C2738 1.394 . S
C2736 H2752 0.931 . S
C2737 C2736 1.391 . S
C2737 C2741 1.376 . S
C2738 C2736 1.394 . S
C2738 C2739 1.369 . S
C2738 C2742 1.531 . S
C2739 C2738 1.369 . S
C2739 C2740 1.410 . S
C2739 C2747 1.503 . S
C2740 C2739 1.410 . S
C2740 C2741 1.392 . S
C2740 C2743 1.511 . S
C2741 C2737 1.376 . S
C2741 C2740 1.392 . S
C2741 H2753 0.929 . S
C2742 C2738 1.531 . S
C2742 H2754 0.960 . S
C2742 H2755 0.962 . S
C2742 H2756 0.960 . S
C2743 C2740 1.511 . S
C2743 H2757 0.961 . S
C2743 H2758 0.961 . S
C2743 H2759 0.961 . S
C2744 C2745 1.370 . S
C2744 C2746 1.363 . S
C2744 H2760 0.931 . S
C2745 C2744 1.370 . S
C2745 C2749 1.408 . S
C2746 C2744 1.363 . S
C2746 C2747 1.370 . S
C2746 C2750 1.524 . S
C2747 C2739 1.503 . S
C2747 C2746 1.370 . S
C2747 C2748 1.403 . S
C2748 C2747 1.403 . S
C2748 C2749 1.404 . S
C2748 C2751 1.539 . S
C2749 C2745 1.408 . S
C2749 C2748 1.404 . S
C2749 H2761 0.930 . S
C2750 C2746 1.524 . S
C2750 H2762 0.956 . S
C2750 H2763 0.961 . S
C2750 H2764 0.961 . S
C2751 C2748 1.539 . S
C2751 H2765 0.958 . S
C2751 H2766 0.961 . S
C2751 H2767 0.960 . S
H2752 C2736 0.931 . S
H2753 C2741 0.929 . S
H2754 C2742 0.960 . S
H2755 C2742 0.962 . S
H2756 C2742 0.960 . S
H2757 C2743 0.961 . S
H2758 C2743 0.961 . S
H2759 C2743 0.961 . S
H2760 C2744 0.931 . S
H2761 C2749 0.930 . S
H2762 C2750 0.956 . S
H2763 C2750 0.961 . S
H2764 C2750 0.961 . S
H2765 C2751 0.958 . S
H2766 C2751 0.961 . S
H2767 C2751 0.960 . S
C2768 C2769 1.391 . S
C2768 C2770 1.394 . S
C2768 H2784 0.931 . S
C2769 C2768 1.391 . S
C2769 C2773 1.376 . S
C2770 C2768 1.394 . S
C2770 C2771 1.369 . S
C2770 C2774 1.531 . S
C2771 C2770 1.369 . S
C2771 C2772 1.410 . S
C2771 C2779 1.503 . S
C2772 C2771 1.410 . S
C2772 C2773 1.392 . S
C2772 C2775 1.511 . S
C2773 C2769 1.376 . S
C2773 C2772 1.392 . S
C2773 H2785 0.929 . S
C2774 C2770 1.531 . S
C2774 H2786 0.960 . S
C2774 H2787 0.962 . S
C2774 H2788 0.960 . S
C2775 C2772 1.511 . S
C2775 H2789 0.961 . S
C2775 H2790 0.961 . S
C2775 H2791 0.961 . S
C2776 C2777 1.370 . S
C2776 C2778 1.363 . S
C2776 H2792 0.931 . S
C2777 C2776 1.370 . S
C2777 C2781 1.408 . S
C2778 C2776 1.363 . S
C2778 C2779 1.370 . S
C2778 C2782 1.524 . S
C2779 C2771 1.503 . S
C2779 C2778 1.370 . S
C2779 C2780 1.403 . S
C2780 C2779 1.403 . S
C2780 C2781 1.404 . S
C2780 C2783 1.539 . S
C2781 C2777 1.408 . S
C2781 C2780 1.404 . S
C2781 H2793 0.930 . S
C2782 C2778 1.524 . S
C2782 H2794 0.956 . S
C2782 H2795 0.961 . S
C2782 H2796 0.961 . S
C2783 C2780 1.539 . S
C2783 H2797 0.958 . S
C2783 H2798 0.961 . S
C2783 H2799 0.960 . S
H2784 C2768 0.931 . S
H2785 C2773 0.929 . S
H2786 C2774 0.960 . S
H2787 C2774 0.962 . S
H2788 C2774 0.960 . S
H2789 C2775 0.961 . S
H2790 C2775 0.961 . S
H2791 C2775 0.961 . S
H2792 C2776 0.931 . S
H2793 C2781 0.930 . S
H2794 C2782 0.956 . S
H2795 C2782 0.961 . S
H2796 C2782 0.961 . S
H2797 C2783 0.958 . S
H2798 C2783 0.961 . S
H2799 C2783 0.960 . S
C2800 C2801 1.391 . S
C2800 C2802 1.394 . S
C2800 H2816 0.931 . S
C2801 C2800 1.391 . S
C2801 C2805 1.376 . S
C2802 C2800 1.394 . S
C2802 C2803 1.369 . S
C2802 C2806 1.531 . S
C2803 C2802 1.369 . S
C2803 C2804 1.410 . S
C2803 C2811 1.503 . S
C2804 C2803 1.410 . S
C2804 C2805 1.392 . S
C2804 C2807 1.511 . S
C2805 C2801 1.376 . S
C2805 C2804 1.392 . S
C2805 H2817 0.929 . S
C2806 C2802 1.531 . S
C2806 H2818 0.960 . S
C2806 H2819 0.962 . S
C2806 H2820 0.960 . S
C2807 C2804 1.511 . S
C2807 H2821 0.961 . S
C2807 H2822 0.961 . S
C2807 H2823 0.961 . S
C2808 C2809 1.370 . S
C2808 C2810 1.363 . S
C2808 H2824 0.931 . S
C2809 C2808 1.370 . S
C2809 C2813 1.408 . S
C2810 C2808 1.363 . S
C2810 C2811 1.370 . S
C2810 C2814 1.524 . S
C2811 C2803 1.503 . S
C2811 C2810 1.370 . S
C2811 C2812 1.403 . S
C2812 C2811 1.403 . S
C2812 C2813 1.404 . S
C2812 C2815 1.539 . S
C2813 C2809 1.408 . S
C2813 C2812 1.404 . S
C2813 H2825 0.930 . S
C2814 C2810 1.524 . S
C2814 H2826 0.956 . S
C2814 H2827 0.961 . S
C2814 H2828 0.961 . S
C2815 C2812 1.539 . S
C2815 H2829 0.958 . S
C2815 H2830 0.961 . S
C2815 H2831 0.960 . S
H2816 C2800 0.931 . S
H2817 C2805 0.929 . S
H2818 C2806 0.960 . S
H2819 C2806 0.962 . S
H2820 C2806 0.960 . S
H2821 C2807 0.961 . S
H2822 C2807 0.961 . S
H2823 C2807 0.961 . S
H2824 C2808 0.931 . S
H2825 C2813 0.930 . S
H2826 C2814 0.956 . S
H2827 C2814 0.961 . S
H2828 C2814 0.961 . S
H2829 C2815 0.958 . S
H2830 C2815 0.961 . S
H2831 C2815 0.960 . S
C2832 C2833 1.391 . S
C2832 C2834 1.394 . S
C2832 H2848 0.931 . S
C2833 C2832 1.391 . S
C2833 C2837 1.376 . S
C2834 C2832 1.394 . S
C2834 C2835 1.369 . S
C2834 C2838 1.531 . S
C2835 C2834 1.369 . S
C2835 C2836 1.410 . S
C2835 C2843 1.503 . S
C2836 C2835 1.410 . S
C2836 C2837 1.392 . S
C2836 C2839 1.511 . S
C2837 C2833 1.376 . S
C2837 C2836 1.392 . S
C2837 H2849 0.929 . S
C2838 C2834 1.531 . S
C2838 H2850 0.960 . S
C2838 H2851 0.962 . S
C2838 H2852 0.960 . S
C2839 C2836 1.511 . S
C2839 H2853 0.961 . S
C2839 H2854 0.961 . S
C2839 H2855 0.961 . S
C2840 C2841 1.370 . S
C2840 C2842 1.363 . S
C2840 H2856 0.931 . S
C2841 C2840 1.370 . S
C2841 C2845 1.408 . S
C2842 C2840 1.363 . S
C2842 C2843 1.370 . S
C2842 C2846 1.524 . S
C2843 C2835 1.503 . S
C2843 C2842 1.370 . S
C2843 C2844 1.403 . S
C2844 C2843 1.403 . S
C2844 C2845 1.404 . S
C2844 C2847 1.539 . S
C2845 C2841 1.408 . S
C2845 C2844 1.404 . S
C2845 H2857 0.930 . S
C2846 C2842 1.524 . S
C2846 H2858 0.956 . S
C2846 H2859 0.961 . S
C2846 H2860 0.961 . S
C2847 C2844 1.539 . S
C2847 H2861 0.958 . S
C2847 H2862 0.961 . S
C2847 H2863 0.960 . S
H2848 C2832 0.931 . S
H2849 C2837 0.929 . S
H2850 C2838 0.960 . S
H2851 C2838 0.962 . S
H2852 C2838 0.960 . S
H2853 C2839 0.961 . S
H2854 C2839 0.961 . S
H2855 C2839 0.961 . S
H2856 C2840 0.931 . S
H2857 C2845 0.930 . S
H2858 C2846 0.956 . S
H2859 C2846 0.961 . S
H2860 C2846 0.961 . S
H2861 C2847 0.958 . S
H2862 C2847 0.961 . S
H2863 C2847 0.960 . S
C2864 C2865 1.391 . S
C2864 C2866 1.394 . S
C2864 H2880 0.931 . S
C2865 C2864 1.391 . S
C2865 C2869 1.376 . S
C2866 C2864 1.394 . S
C2866 C2867 1.369 . S
C2866 C2870 1.531 . S
C2867 C2866 1.369 . S
C2867 C2868 1.410 . S
C2867 C2875 1.503 . S
C2868 C2867 1.410 . S
C2868 C2869 1.392 . S
C2868 C2871 1.511 . S
C2869 C2865 1.376 . S
C2869 C2868 1.392 . S
C2869 H2881 0.929 . S
C2870 C2866 1.531 . S
C2870 H2882 0.960 . S
C2870 H2883 0.962 . S
C2870 H2884 0.960 . S
C2871 C2868 1.511 . S
C2871 H2885 0.961 . S
C2871 H2886 0.961 . S
C2871 H2887 0.961 . S
C2872 C2873 1.370 . S
C2872 C2874 1.363 . S
C2872 H2888 0.931 . S
C2873 C2872 1.370 . S
C2873 C2877 1.408 . S
C2874 C2872 1.363 . S
C2874 C2875 1.370 . S
C2874 C2878 1.524 . S
C2875 C2867 1.503 . S
C2875 C2874 1.370 . S
C2875 C2876 1.403 . S
C2876 C2875 1.403 . S
C2876 C2877 1.404 . S
C2876 C2879 1.539 . S
C2877 C2873 1.408 . S
C2877 C2876 1.404 . S
C2877 H2889 0.930 . S
C2878 C2874 1.524 . S
C2878 H2890 0.956 . S
C2878 H2891 0.961 . S
C2878 H2892 0.961 . S
C2879 C2876 1.539 . S
C2879 H2893 0.958 . S
C2879 H2894 0.961 . S
C2879 H2895 0.960 . S
H2880 C2864 0.931 . S
H2881 C2869 0.929 . S
H2882 C2870 0.960 . S
H2883 C2870 0.962 . S
H2884 C2870 0.960 . S
H2885 C2871 0.961 . S
H2886 C2871 0.961 . S
H2887 C2871 0.961 . S
H2888 C2872 0.931 . S
H2889 C2877 0.930 . S
H2890 C2878 0.956 . S
H2891 C2878 0.961 . S
H2892 C2878 0.961 . S
H2893 C2879 0.958 . S
H2894 C2879 0.961 . S
H2895 C2879 0.960 . S
C2896 C2897 1.391 . S
C2896 C2898 1.394 . S
C2896 H2912 0.931 . S
C2897 C2896 1.391 . S
C2897 C2901 1.376 . S
C2898 C2896 1.394 . S
C2898 C2899 1.369 . S
C2898 C2902 1.531 . S
C2899 C2898 1.369 . S
C2899 C2900 1.410 . S
C2899 C2907 1.503 . S
C2900 C2899 1.410 . S
C2900 C2901 1.392 . S
C2900 C2903 1.511 . S
C2901 C2897 1.376 . S
C2901 C2900 1.392 . S
C2901 H2913 0.929 . S
C2902 C2898 1.531 . S
C2902 H2914 0.960 . S
C2902 H2915 0.962 . S
C2902 H2916 0.960 . S
C2903 C2900 1.511 . S
C2903 H2917 0.961 . S
C2903 H2918 0.961 . S
C2903 H2919 0.961 . S
C2904 C2905 1.370 . S
C2904 C2906 1.363 . S
C2904 H2920 0.931 . S
C2905 C2904 1.370 . S
C2905 C2909 1.408 . S
C2906 C2904 1.363 . S
C2906 C2907 1.370 . S
C2906 C2910 1.524 . S
C2907 C2899 1.503 . S
C2907 C2906 1.370 . S
C2907 C2908 1.403 . S
C2908 C2907 1.403 . S
C2908 C2909 1.404 . S
C2908 C2911 1.539 . S
C2909 C2905 1.408 . S
C2909 C2908 1.404 . S
C2909 H2921 0.930 . S
C2910 C2906 1.524 . S
C2910 H2922 0.956 . S
C2910 H2923 0.961 . S
C2910 H2924 0.961 . S
C2911 C2908 1.539 . S
C2911 H2925 0.958 . S
C2911 H2926 0.961 . S
C2911 H2927 0.960 . S
H2912 C2896 0.931 . S
H2913 C2901 0.929 . S
H2914 C2902 0.960 . S
H2915 C2902 0.962 . S
H2916 C2902 0.960 . S
H2917 C2903 0.961 . S
H2918 C2903 0.961 . S
H2919 C2903 0.961 . S
H2920 C2904 0.931 . S
H2921 C2909 0.930 . S
H2922 C2910 0.956 . S
H2923 C2910 0.961 . S
H2924 C2910 0.961 . S
H2925 C2911 0.958 . S
H2926 C2911 0.961 . S
H2927 C2911 0.960 . S
C2928 C2929 1.391 . S
C2928 C2930 1.394 . S
C2928 H2944 0.931 . S
C2929 C2928 1.391 . S
C2929 C2933 1.376 . S
C2930 C2928 1.394 . S
C2930 C2931 1.369 . S
C2930 C2934 1.531 . S
C2931 C2930 1.369 . S
C2931 C2932 1.410 . S
C2931 C2939 1.503 . S
C2932 C2931 1.410 . S
C2932 C2933 1.392 . S
C2932 C2935 1.511 . S
C2933 C2929 1.376 . S
C2933 C2932 1.392 . S
C2933 H2945 0.929 . S
C2934 C2930 1.531 . S
C2934 H2946 0.960 . S
C2934 H2947 0.962 . S
C2934 H2948 0.960 . S
C2935 C2932 1.511 . S
C2935 H2949 0.961 . S
C2935 H2950 0.961 . S
C2935 H2951 0.961 . S
C2936 C2937 1.370 . S
C2936 C2938 1.363 . S
C2936 H2952 0.931 . S
C2937 C2936 1.370 . S
C2937 C2941 1.408 . S
C2938 C2936 1.363 . S
C2938 C2939 1.370 . S
C2938 C2942 1.524 . S
C2939 C2931 1.503 . S
C2939 C2938 1.370 . S
C2939 C2940 1.403 . S
C2940 C2939 1.403 . S
C2940 C2941 1.404 . S
C2940 C2943 1.539 . S
C2941 C2937 1.408 . S
C2941 C2940 1.404 . S
C2941 H2953 0.930 . S
C2942 C2938 1.524 . S
C2942 H2954 0.956 . S
C2942 H2955 0.961 . S
C2942 H2956 0.961 . S
C2943 C2940 1.539 . S
C2943 H2957 0.958 . S
C2943 H2958 0.961 . S
C2943 H2959 0.960 . S
H2944 C2928 0.931 . S
H2945 C2933 0.929 . S
H2946 C2934 0.960 . S
H2947 C2934 0.962 . S
H2948 C2934 0.960 . S
H2949 C2935 0.961 . S
H2950 C2935 0.961 . S
H2951 C2935 0.961 . S
H2952 C2936 0.931 . S
H2953 C2941 0.930 . S
H2954 C2942 0.956 . S
H2955 C2942 0.961 . S
H2956 C2942 0.961 . S
H2957 C2943 0.958 . S
H2958 C2943 0.961 . S
H2959 C2943 0.960 . S
C2960 C2961 1.391 . S
C2960 C2962 1.394 . S
C2960 H2976 0.931 . S
C2961 C2960 1.391 . S
C2961 C2965 1.376 . S
C2962 C2960 1.394 . S
C2962 C2963 1.369 . S
C2962 C2966 1.531 . S
C2963 C2962 1.369 . S
C2963 C2964 1.410 . S
C2963 C2971 1.503 . S
C2964 C2963 1.410 . S
C2964 C2965 1.392 . S
C2964 C2967 1.511 . S
C2965 C2961 1.376 . S
C2965 C2964 1.392 . S
C2965 H2977 0.929 . S
C2966 C2962 1.531 . S
C2966 H2978 0.960 . S
C2966 H2979 0.962 . S
C2966 H2980 0.960 . S
C2967 C2964 1.511 . S
C2967 H2981 0.961 . S
C2967 H2982 0.961 . S
C2967 H2983 0.961 . S
C2968 C2969 1.370 . S
C2968 C2970 1.363 . S
C2968 H2984 0.931 . S
C2969 C2968 1.370 . S
C2969 C2973 1.408 . S
C2970 C2968 1.363 . S
C2970 C2971 1.370 . S
C2970 C2974 1.524 . S
C2971 C2963 1.503 . S
C2971 C2970 1.370 . S
C2971 C2972 1.403 . S
C2972 C2971 1.403 . S
C2972 C2973 1.404 . S
C2972 C2975 1.539 . S
C2973 C2969 1.408 . S
C2973 C2972 1.404 . S
C2973 H2985 0.930 . S
C2974 C2970 1.524 . S
C2974 H2986 0.956 . S
C2974 H2987 0.961 . S
C2974 H2988 0.961 . S
C2975 C2972 1.539 . S
C2975 H2989 0.958 . S
C2975 H2990 0.961 . S
C2975 H2991 0.960 . S
H2976 C2960 0.931 . S
H2977 C2965 0.929 . S
H2978 C2966 0.960 . S
H2979 C2966 0.962 . S
H2980 C2966 0.960 . S
H2981 C2967 0.961 . S
H2982 C2967 0.961 . S
H2983 C2967 0.961 . S
H2984 C2968 0.931 . S
H2985 C2973 0.930 . S
H2986 C2974 0.956 . S
H2987 C2974 0.961 . S
H2988 C2974 0.961 . S
H2989 C2975 0.958 . S
H2990 C2975 0.961 . S
H2991 C2975 0.960 . S
C2992 C2993 1.391 . S
C2992 C2994 1.394 . S
C2992 H3008 0.931 . S
C2993 C2992 1.391 . S
C2993 C2997 1.376 . S
C2994 C2992 1.394 . S
C2994 C2995 1.369 . S
C2994 C2998 1.531 . S
C2995 C2994 1.369 . S
C2995 C2996 1.410 . S
C2995 C3003 1.503 . S
C2996 C2995 1.410 . S
C2996 C2997 1.392 . S
C2996 C2999 1.511 . S
C2997 C2993 1.376 . S
C2997 C2996 1.392 . S
C2997 H3009 0.929 . S
C2998 C2994 1.531 . S
C2998 H3010 0.960 . S
C2998 H3011 0.962 . S
C2998 H3012 0.960 . S
C2999 C2996 1.511 . S
C2999 H3013 0.961 . S
C2999 H3014 0.961 . S
C2999 H3015 0.961 . S
C3000 C3001 1.370 . S
C3000 C3002 1.363 . S
C3000 H3016 0.931 . S
C3001 C3000 1.370 . S
C3001 C3005 1.408 . S
C3002 C3000 1.363 . S
C3002 C3003 1.370 . S
C3002 C3006 1.524 . S
C3003 C2995 1.503 . S
C3003 C3002 1.370 . S
C3003 C3004 1.403 . S
C3004 C3003 1.403 . S
C3004 C3005 1.404 . S
C3004 C3007 1.539 . S
C3005 C3001 1.408 . S
C3005 C3004 1.404 . S
C3005 H3017 0.930 . S
C3006 C3002 1.524 . S
C3006 H3018 0.956 . S
C3006 H3019 0.961 . S
C3006 H3020 0.961 . S
C3007 C3004 1.539 . S
C3007 H3021 0.958 . S
C3007 H3022 0.961 . S
C3007 H3023 0.960 . S
H3008 C2992 0.931 . S
H3009 C2997 0.929 . S
H3010 C2998 0.960 . S
H3011 C2998 0.962 . S
H3012 C2998 0.960 . S
H3013 C2999 0.961 . S
H3014 C2999 0.961 . S
H3015 C2999 0.961 . S
H3016 C3000 0.931 . S
H3017 C3005 0.930 . S
H3018 C3006 0.956 . S
H3019 C3006 0.961 . S
H3020 C3006 0.961 . S
H3021 C3007 0.958 . S
H3022 C3007 0.961 . S
H3023 C3007 0.960 . S
C3024 C3025 1.391 . S
C3024 C3026 1.394 . S
C3024 H3040 0.931 . S
C3025 C3024 1.391 . S
C3025 C3029 1.376 . S
C3026 C3024 1.394 . S
C3026 C3027 1.369 . S
C3026 C3030 1.531 . S
C3027 C3026 1.369 . S
C3027 C3028 1.410 . S
C3027 C3035 1.503 . S
C3028 C3027 1.410 . S
C3028 C3029 1.392 . S
C3028 C3031 1.511 . S
C3029 C3025 1.376 . S
C3029 C3028 1.392 . S
C3029 H3041 0.929 . S
C3030 C3026 1.531 . S
C3030 H3042 0.960 . S
C3030 H3043 0.962 . S
C3030 H3044 0.960 . S
C3031 C3028 1.511 . S
C3031 H3045 0.961 . S
C3031 H3046 0.961 . S
C3031 H3047 0.961 . S
C3032 C3033 1.370 . S
C3032 C3034 1.363 . S
C3032 H3048 0.931 . S
C3033 C3032 1.370 . S
C3033 C3037 1.408 . S
C3034 C3032 1.363 . S
C3034 C3035 1.370 . S
C3034 C3038 1.524 . S
C3035 C3027 1.503 . S
C3035 C3034 1.370 . S
C3035 C3036 1.403 . S
C3036 C3035 1.403 . S
C3036 C3037 1.404 . S
C3036 C3039 1.539 . S
C3037 C3033 1.408 . S
C3037 C3036 1.404 . S
C3037 H3049 0.930 . S
C3038 C3034 1.524 . S
C3038 H3050 0.956 . S
C3038 H3051 0.961 . S
C3038 H3052 0.961 . S
C3039 C3036 1.539 . S
C3039 H3053 0.958 . S
C3039 H3054 0.961 . S
C3039 H3055 0.960 . S
H3040 C3024 0.931 . S
H3041 C3029 0.929 . S
H3042 C3030 0.960 . S
H3043 C3030 0.962 . S
H3044 C3030 0.960 . S
H3045 C3031 0.961 . S
H3046 C3031 0.961 . S
H3047 C3031 0.961 . S
H3048 C3032 0.931 . S
H3049 C3037 0.930 . S
H3050 C3038 0.956 . S
H3051 C3038 0.961 . S
H3052 C3038 0.961 . S
H3053 C3039 0.958 . S
H3054 C3039 0.961 . S
H3055 C3039 0.960 . S
C3056 C3057 1.391 . S
C3056 C3058 1.394 . S
C3056 H3072 0.931 . S
C3057 C3056 1.391 . S
C3057 C3061 1.376 . S
C3058 C3056 1.394 . S
C3058 C3059 1.369 . S
C3058 C3062 1.531 . S
C3059 C3058 1.369 . S
C3059 C3060 1.410 . S
C3059 C3067 1.503 . S
C3060 C3059 1.410 . S
C3060 C3061 1.392 . S
C3060 C3063 1.511 . S
C3061 C3057 1.376 . S
C3061 C3060 1.392 . S
C3061 H3073 0.929 . S
C3062 C3058 1.531 . S
C3062 H3074 0.960 . S
C3062 H3075 0.962 . S
C3062 H3076 0.960 . S
C3063 C3060 1.511 . S
C3063 H3077 0.961 . S
C3063 H3078 0.961 . S
C3063 H3079 0.961 . S
C3064 C3065 1.370 . S
C3064 C3066 1.363 . S
C3064 H3080 0.931 . S
C3065 C3064 1.370 . S
C3065 C3069 1.408 . S
C3066 C3064 1.363 . S
C3066 C3067 1.370 . S
C3066 C3070 1.524 . S
C3067 C3059 1.503 . S
C3067 C3066 1.370 . S
C3067 C3068 1.403 . S
C3068 C3067 1.403 . S
C3068 C3069 1.404 . S
C3068 C3071 1.539 . S
C3069 C3065 1.408 . S
C3069 C3068 1.404 . S
C3069 H3081 0.930 . S
C3070 C3066 1.524 . S
C3070 H3082 0.956 . S
C3070 H3083 0.961 . S
C3070 H3084 0.961 . S
C3071 C3068 1.539 . S
C3071 H3085 0.958 . S
C3071 H3086 0.961 . S
C3071 H3087 0.960 . S
H3072 C3056 0.931 . S
H3073 C3061 0.929 . S
H3074 C3062 0.960 . S
H3075 C3062 0.962 . S
H3076 C3062 0.960 . S
H3077 C3063 0.961 . S
H3078 C3063 0.961 . S
H3079 C3063 0.961 . S
H3080 C3064 0.931 . S
H3081 C3069 0.930 . S
H3082 C3070 0.956 . S
H3083 C3070 0.961 . S
H3084 C3070 0.961 . S
H3085 C3071 0.958 . S
H3086 C3071 0.961 . S
H3087 C3071 0.960 . S
C3088 C3089 1.391 . S
C3088 C3090 1.394 . S
C3088 H3104 0.931 . S
C3089 C3088 1.391 . S
C3089 C3093 1.376 . S
C3090 C3088 1.394 . S
C3090 C3091 1.369 . S
C3090 C3094 1.531 . S
C3091 C3090 1.369 . S
C3091 C3092 1.410 . S
C3091 C3099 1.503 . S
C3092 C3091 1.410 . S
C3092 C3093 1.392 . S
C3092 C3095 1.511 . S
C3093 C3089 1.376 . S
C3093 C3092 1.392 . S
C3093 H3105 0.929 . S
C3094 C3090 1.531 . S
C3094 H3106 0.960 . S
C3094 H3107 0.962 . S
C3094 H3108 0.960 . S
C3095 C3092 1.511 . S
C3095 H3109 0.961 . S
C3095 H3110 0.961 . S
C3095 H3111 0.961 . S
C3096 C3097 1.370 . S
C3096 C3098 1.363 . S
C3096 H3112 0.931 . S
C3097 C3096 1.370 . S
C3097 C3101 1.408 . S
C3098 C3096 1.363 . S
C3098 C3099 1.370 . S
C3098 C3102 1.524 . S
C3099 C3091 1.503 . S
C3099 C3098 1.370 . S
C3099 C3100 1.403 . S
C3100 C3099 1.403 . S
C3100 C3101 1.404 . S
C3100 C3103 1.539 . S
C3101 C3097 1.408 . S
C3101 C3100 1.404 . S
C3101 H3113 0.930 . S
C3102 C3098 1.524 . S
C3102 H3114 0.956 . S
C3102 H3115 0.961 . S
C3102 H3116 0.961 . S
C3103 C3100 1.539 . S
C3103 H3117 0.958 . S
C3103 H3118 0.961 . S
C3103 H3119 0.960 . S
H3104 C3088 0.931 . S
H3105 C3093 0.929 . S
H3106 C3094 0.960 . S
H3107 C3094 0.962 . S
H3108 C3094 0.960 . S
H3109 C3095 0.961 . S
H3110 C3095 0.961 . S
H3111 C3095 0.961 . S
H3112 C3096 0.931 . S
H3113 C3101 0.930 . S
H3114 C3102 0.956 . S
H3115 C3102 0.961 . S
H3116 C3102 0.961 . S
H3117 C3103 0.958 . S
H3118 C3103 0.961 . S
H3119 C3103 0.960 . S
C3120 C3121 1.391 . S
C3120 C3122 1.394 . S
C3120 H3136 0.931 1_565 S
C3121 C3120 1.391 . S
C3121 C3125 1.376 . S
C3122 C3120 1.394 . S
C3122 C3123 1.371 . S
C3122 C3126 1.529 1_565 S
C3123 C3122 1.371 . S
C3123 C3124 1.410 . S
C3123 C3131 1.503 . S
C3124 C3123 1.410 . S
C3124 C3125 1.392 . S
C3124 C3127 1.511 . S
C3125 C3121 1.376 . S
C3125 C3124 1.392 . S
C3125 H3137 0.929 . S
C3126 C3122 1.529 1_545 S
C3126 H3138 0.960 . S
C3126 H3139 0.962 . S
C3126 H3140 0.960 . S
C3127 C3124 1.511 . S
C3127 H3141 0.961 . S
C3127 H3142 0.961 . S
C3127 H3143 0.961 . S
C3128 C3129 1.370 1_566 S
C3128 C3130 1.363 . S
C3128 H3144 0.931 . S
C3129 C3128 1.370 1_544 S
C3129 C3133 1.408 . S
C3130 C3128 1.363 . S
C3130 C3131 1.370 1_556 S
C3130 C3134 1.524 . S
C3131 C3123 1.503 . S
C3131 C3130 1.370 1_554 S
C3131 C3132 1.403 . S
C3132 C3131 1.403 . S
C3132 C3133 1.404 1_565 S
C3132 C3135 1.540 1_565 S
C3133 C3129 1.408 . S
C3133 C3132 1.404 1_545 S
C3133 H3145 0.930 . S
C3134 C3130 1.524 . S
C3134 H3146 0.956 . S
C3134 H3147 0.961 . S
C3134 H3148 0.961 . S
C3135 C3132 1.540 1_545 S
C3135 H3149 0.958 . S
C3135 H3150 0.961 1_545 S
C3135 H3151 0.960 1_545 S
H3136 C3120 0.931 1_545 S
H3137 C3125 0.929 . S
H3138 C3126 0.960 . S
H3139 C3126 0.962 . S
H3140 C3126 0.960 . S
H3141 C3127 0.961 . S
H3142 C3127 0.961 . S
H3143 C3127 0.961 . S
H3144 C3128 0.931 . S
H3145 C3133 0.930 . S
H3146 C3134 0.956 . S
H3147 C3134 0.961 . S
H3148 C3134 0.961 . S
H3149 C3135 0.958 . S
H3150 C3135 0.961 1_565 S
H3151 C3135 0.960 1_565 S
C3152 C3153 1.391 . S
C3152 C3154 1.394 . S
C3152 H3168 0.931 . S
C3153 C3152 1.391 . S
C3153 C3157 1.376 . S
C3154 C3152 1.394 . S
C3154 C3155 1.369 . S
C3154 C3158 1.531 . S
C3155 C3154 1.369 . S
C3155 C3156 1.410 . S
C3155 C3163 1.503 . S
C3156 C3155 1.410 . S
C3156 C3157 1.392 . S
C3156 C3159 1.511 . S
C3157 C3153 1.376 . S
C3157 C3156 1.392 . S
C3157 H3169 0.929 . S
C3158 C3154 1.531 . S
C3158 H3170 0.960 . S
C3158 H3171 0.962 . S
C3158 H3172 0.960 . S
C3159 C3156 1.511 . S
C3159 H3173 0.961 . S
C3159 H3174 0.961 . S
C3159 H3175 0.961 . S
C3160 C3161 1.370 . S
C3160 C3162 1.363 . S
C3160 H3176 0.931 . S
C3161 C3160 1.370 . S
C3161 C3165 1.408 . S
C3162 C3160 1.363 . S
C3162 C3163 1.370 . S
C3162 C3166 1.524 . S
C3163 C3155 1.503 . S
C3163 C3162 1.370 . S
C3163 C3164 1.403 . S
C3164 C3163 1.403 . S
C3164 C3165 1.404 . S
C3164 C3167 1.539 . S
C3165 C3161 1.408 . S
C3165 C3164 1.404 . S
C3165 H3177 0.930 . S
C3166 C3162 1.524 . S
C3166 H3178 0.956 . S
C3166 H3179 0.961 . S
C3166 H3180 0.961 . S
C3167 C3164 1.539 . S
C3167 H3181 0.958 . S
C3167 H3182 0.961 . S
C3167 H3183 0.960 . S
H3168 C3152 0.931 . S
H3169 C3157 0.929 . S
H3170 C3158 0.960 . S
H3171 C3158 0.962 . S
H3172 C3158 0.960 . S
H3173 C3159 0.961 . S
H3174 C3159 0.961 . S
H3175 C3159 0.961 . S
H3176 C3160 0.931 . S
H3177 C3165 0.930 . S
H3178 C3166 0.956 . S
H3179 C3166 0.961 . S
H3180 C3166 0.961 . S
H3181 C3167 0.958 . S
H3182 C3167 0.961 . S
H3183 C3167 0.960 . S
C3184 C3185 1.391 . S
C3184 C3186 1.394 . S
C3184 H3200 0.931 . S
C3185 C3184 1.391 . S
C3185 C3189 1.367 1_554 S
C3186 C3184 1.394 . S
C3186 C3187 1.369 . S
C3186 C3190 1.531 . S
C3187 C3186 1.369 . S
C3187 C3188 1.410 . S
C3187 C3195 1.503 . S
C3188 C3187 1.410 . S
C3188 C3189 1.383 1_554 S
C3188 C3191 1.511 1_554 S
C3189 C3185 1.367 1_556 S
C3189 C3188 1.383 1_556 S
C3189 H3201 0.948 . S
C3190 C3186 1.531 . S
C3190 H3202 0.960 . S
C3190 H3203 0.962 . S
C3190 H3204 0.960 . S
C3191 C3188 1.511 1_556 S
C3191 H3205 0.961 . S
C3191 H3206 0.961 . S
C3191 H3207 0.980 . S
C3192 C3193 1.370 . S
C3192 C3194 1.363 . S
C3192 H3208 0.931 . S
C3193 C3192 1.370 . S
C3193 C3197 1.408 . S
C3194 C3192 1.363 . S
C3194 C3195 1.370 . S
C3194 C3198 1.524 . S
C3195 C3187 1.503 . S
C3195 C3194 1.370 . S
C3195 C3196 1.403 . S
C3196 C3195 1.403 . S
C3196 C3197 1.404 . S
C3196 C3199 1.539 . S
C3197 C3193 1.408 . S
C3197 C3196 1.404 . S
C3197 H3209 0.930 . S
C3198 C3194 1.524 . S
C3198 H3210 0.956 . S
C3198 H3211 0.961 1_554 S
C3198 H3212 0.961 1_554 S
C3199 C3196 1.539 . S
C3199 H3213 0.958 . S
C3199 H3214 0.961 . S
C3199 H3215 0.960 . S
H3200 C3184 0.931 . S
H3201 C3189 0.948 . S
H3202 C3190 0.960 . S
H3203 C3190 0.962 . S
H3204 C3190 0.960 . S
H3205 C3191 0.961 . S
H3206 C3191 0.961 . S
H3207 C3191 0.980 . S
H3208 C3192 0.931 . S
H3209 C3197 0.930 . S
H3210 C3198 0.956 . S
H3211 C3198 0.961 1_556 S
H3212 C3198 0.961 1_556 S
H3213 C3199 0.958 . S
H3214 C3199 0.961 . S
H3215 C3199 0.960 . S
C3216 C3217 1.391 . S
C3216 C3218 1.394 . S
C3216 H3232 0.931 . S
C3217 C3216 1.391 . S
C3217 C3221 1.376 . S
C3218 C3216 1.394 . S
C3218 C3219 1.369 . S
C3218 C3222 1.531 . S
C3219 C3218 1.369 . S
C3219 C3220 1.410 . S
C3219 C3227 1.503 . S
C3220 C3219 1.410 . S
C3220 C3221 1.392 . S
C3220 C3223 1.511 . S
C3221 C3217 1.376 . S
C3221 C3220 1.392 . S
C3221 H3233 0.929 . S
C3222 C3218 1.531 . S
C3222 H3234 0.960 . S
C3222 H3235 0.962 . S
C3222 H3236 0.960 . S
C3223 C3220 1.511 . S
C3223 H3237 0.961 . S
C3223 H3238 0.961 . S
C3223 H3239 0.961 . S
C3224 C3225 1.370 . S
C3224 C3226 1.363 . S
C3224 H3240 0.931 . S
C3225 C3224 1.370 . S
C3225 C3229 1.408 . S
C3226 C3224 1.363 . S
C3226 C3227 1.370 . S
C3226 C3230 1.524 . S
C3227 C3219 1.503 . S
C3227 C3226 1.370 . S
C3227 C3228 1.403 . S
C3228 C3227 1.403 . S
C3228 C3229 1.404 . S
C3228 C3231 1.539 . S
C3229 C3225 1.408 . S
C3229 C3228 1.404 . S
C3229 H3241 0.930 . S
C3230 C3226 1.524 . S
C3230 H3242 0.956 . S
C3230 H3243 0.961 . S
C3230 H3244 0.961 . S
C3231 C3228 1.539 . S
C3231 H3245 0.958 . S
C3231 H3246 0.961 . S
C3231 H3247 0.960 . S
H3232 C3216 0.931 . S
H3233 C3221 0.929 . S
H3234 C3222 0.960 . S
H3235 C3222 0.962 . S
H3236 C3222 0.960 . S
H3237 C3223 0.961 . S
H3238 C3223 0.961 . S
H3239 C3223 0.961 . S
H3240 C3224 0.931 . S
H3241 C3229 0.930 . S
H3242 C3230 0.956 . S
H3243 C3230 0.961 . S
H3244 C3230 0.961 . S
H3245 C3231 0.958 . S
H3246 C3231 0.961 . S
H3247 C3231 0.960 . S
C3248 C3249 1.391 . S
C3248 C3250 1.394 . S
C3248 H3264 0.931 . S
C3249 C3248 1.391 . S
C3249 C3253 1.376 . S
C3250 C3248 1.394 . S
C3250 C3251 1.369 . S
C3250 C3254 1.531 . S
C3251 C3250 1.369 . S
C3251 C3252 1.410 . S
C3251 C3259 1.503 . S
C3252 C3251 1.410 . S
C3252 C3253 1.392 . S
C3252 C3255 1.511 . S
C3253 C3249 1.376 . S
C3253 C3252 1.392 . S
C3253 H3265 0.929 . S
C3254 C3250 1.531 . S
C3254 H3266 0.960 . S
C3254 H3267 0.962 . S
C3254 H3268 0.960 . S
C3255 C3252 1.511 . S
C3255 H3269 0.961 . S
C3255 H3270 0.961 . S
C3255 H3271 0.961 . S
C3256 C3257 1.370 . S
C3256 C3258 1.363 . S
C3256 H3272 0.931 . S
C3257 C3256 1.370 . S
C3257 C3261 1.408 . S
C3258 C3256 1.363 . S
C3258 C3259 1.370 . S
C3258 C3262 1.524 . S
C3259 C3251 1.503 . S
C3259 C3258 1.370 . S
C3259 C3260 1.403 . S
C3260 C3259 1.403 . S
C3260 C3261 1.404 . S
C3260 C3263 1.539 . S
C3261 C3257 1.408 . S
C3261 C3260 1.404 . S
C3261 H3273 0.930 . S
C3262 C3258 1.524 . S
C3262 H3274 0.956 . S
C3262 H3275 0.961 . S
C3262 H3276 0.961 . S
C3263 C3260 1.539 . S
C3263 H3277 0.958 . S
C3263 H3278 0.961 . S
C3263 H3279 0.960 . S
H3264 C3248 0.931 . S
H3265 C3253 0.929 . S
H3266 C3254 0.960 . S
H3267 C3254 0.962 . S
H3268 C3254 0.960 . S
H3269 C3255 0.961 . S
H3270 C3255 0.961 . S
H3271 C3255 0.961 . S
H3272 C3256 0.931 . S
H3273 C3261 0.930 . S
H3274 C3262 0.956 . S
H3275 C3262 0.961 . S
H3276 C3262 0.961 . S
H3277 C3263 0.958 . S
H3278 C3263 0.961 . S
H3279 C3263 0.960 . S
C3280 C3281 1.391 . S
C3280 C3282 1.394 . S
C3280 H3296 0.931 . S
C3281 C3280 1.391 . S
C3281 C3285 1.376 . S
C3282 C3280 1.394 . S
C3282 C3283 1.369 . S
C3282 C3286 1.531 . S
C3283 C3282 1.369 . S
C3283 C3284 1.410 . S
C3283 C3291 1.503 . S
C3284 C3283 1.410 . S
C3284 C3285 1.392 . S
C3284 C3287 1.511 . S
C3285 C3281 1.376 . S
C3285 C3284 1.392 . S
C3285 H3297 0.929 . S
C3286 C3282 1.531 . S
C3286 H3298 0.960 . S
C3286 H3299 0.962 . S
C3286 H3300 0.960 . S
C3287 C3284 1.511 . S
C3287 H3301 0.961 . S
C3287 H3302 0.961 . S
C3287 H3303 0.961 . S
C3288 C3289 1.370 . S
C3288 C3290 1.363 . S
C3288 H3304 0.931 . S
C3289 C3288 1.370 . S
C3289 C3293 1.408 . S
C3290 C3288 1.363 . S
C3290 C3291 1.370 . S
C3290 C3294 1.524 . S
C3291 C3283 1.503 . S
C3291 C3290 1.370 . S
C3291 C3292 1.403 . S
C3292 C3291 1.403 . S
C3292 C3293 1.404 . S
C3292 C3295 1.539 . S
C3293 C3289 1.408 . S
C3293 C3292 1.404 . S
C3293 H3305 0.930 . S
C3294 C3290 1.524 . S
C3294 H3306 0.956 . S
C3294 H3307 0.961 . S
C3294 H3308 0.961 . S
C3295 C3292 1.539 . S
C3295 H3309 0.958 . S
C3295 H3310 0.961 . S
C3295 H3311 0.960 . S
H3296 C3280 0.931 . S
H3297 C3285 0.929 . S
H3298 C3286 0.960 . S
H3299 C3286 0.962 . S
H3300 C3286 0.960 . S
H3301 C3287 0.961 . S
H3302 C3287 0.961 . S
H3303 C3287 0.961 . S
H3304 C3288 0.931 . S
H3305 C3293 0.930 . S
H3306 C3294 0.956 . S
H3307 C3294 0.961 . S
H3308 C3294 0.961 . S
H3309 C3295 0.958 . S
H3310 C3295 0.961 . S
H3311 C3295 0.960 . S
C3312 C3313 1.391 . S
C3312 C3314 1.394 . S
C3312 H3328 0.931 . S
C3313 C3312 1.391 . S
C3313 C3317 1.376 . S
C3314 C3312 1.394 . S
C3314 C3315 1.369 . S
C3314 C3318 1.531 . S
C3315 C3314 1.369 . S
C3315 C3316 1.410 . S
C3315 C3323 1.503 . S
C3316 C3315 1.410 . S
C3316 C3317 1.392 . S
C3316 C3319 1.511 . S
C3317 C3313 1.376 . S
C3317 C3316 1.392 . S
C3317 H3329 0.929 . S
C3318 C3314 1.531 . S
C3318 H3330 0.960 . S
C3318 H3331 0.962 . S
C3318 H3332 0.960 . S
C3319 C3316 1.511 . S
C3319 H3333 0.961 . S
C3319 H3334 0.961 . S
C3319 H3335 0.961 . S
C3320 C3321 1.370 . S
C3320 C3322 1.363 . S
C3320 H3336 0.931 . S
C3321 C3320 1.370 . S
C3321 C3325 1.408 . S
C3322 C3320 1.363 . S
C3322 C3323 1.370 . S
C3322 C3326 1.524 . S
C3323 C3315 1.503 . S
C3323 C3322 1.370 . S
C3323 C3324 1.403 . S
C3324 C3323 1.403 . S
C3324 C3325 1.404 . S
C3324 C3327 1.539 . S
C3325 C3321 1.408 . S
C3325 C3324 1.404 . S
C3325 H3337 0.930 . S
C3326 C3322 1.524 . S
C3326 H3338 0.956 . S
C3326 H3339 0.961 . S
C3326 H3340 0.961 . S
C3327 C3324 1.539 . S
C3327 H3341 0.958 . S
C3327 H3342 0.961 . S
C3327 H3343 0.960 . S
H3328 C3312 0.931 . S
H3329 C3317 0.929 . S
H3330 C3318 0.960 . S
H3331 C3318 0.962 . S
H3332 C3318 0.960 . S
H3333 C3319 0.961 . S
H3334 C3319 0.961 . S
H3335 C3319 0.961 . S
H3336 C3320 0.931 . S
H3337 C3325 0.930 . S
H3338 C3326 0.956 . S
H3339 C3326 0.961 . S
H3340 C3326 0.961 . S
H3341 C3327 0.958 . S
H3342 C3327 0.961 . S
H3343 C3327 0.960 . S
C3344 C3345 1.391 . S
C3344 C3346 1.394 . S
C3344 H3360 0.931 . S
C3345 C3344 1.391 . S
C3345 C3349 1.376 . S
C3346 C3344 1.394 . S
C3346 C3347 1.369 . S
C3346 C3350 1.531 . S
C3347 C3346 1.369 . S
C3347 C3348 1.410 . S
C3347 C3355 1.503 . S
C3348 C3347 1.410 . S
C3348 C3349 1.392 . S
C3348 C3351 1.511 . S
C3349 C3345 1.376 . S
C3349 C3348 1.392 . S
C3349 H3361 0.929 . S
C3350 C3346 1.531 . S
C3350 H3362 0.960 . S
C3350 H3363 0.962 . S
C3350 H3364 0.960 . S
C3351 C3348 1.511 . S
C3351 H3365 0.961 . S
C3351 H3366 0.961 . S
C3351 H3367 0.961 . S
C3352 C3353 1.370 . S
C3352 C3354 1.363 . S
C3352 H3368 0.931 . S
C3353 C3352 1.370 . S
C3353 C3357 1.408 . S
C3354 C3352 1.363 . S
C3354 C3355 1.370 . S
C3354 C3358 1.524 . S
C3355 C3347 1.503 . S
C3355 C3354 1.370 . S
C3355 C3356 1.403 . S
C3356 C3355 1.403 . S
C3356 C3357 1.404 . S
C3356 C3359 1.539 . S
C3357 C3353 1.408 . S
C3357 C3356 1.404 . S
C3357 H3369 0.930 1_554 S
C3358 C3354 1.524 . S
C3358 H3370 0.956 . S
C3358 H3371 0.961 . S
C3358 H3372 0.961 . S
C3359 C3356 1.539 . S
C3359 H3373 0.958 1_554 S
C3359 H3374 0.961 1_554 S
C3359 H3375 0.960 . S
H3360 C3344 0.931 . S
H3361 C3349 0.929 . S
H3362 C3350 0.960 . S
H3363 C3350 0.962 . S
H3364 C3350 0.960 . S
H3365 C3351 0.961 . S
H3366 C3351 0.961 . S
H3367 C3351 0.961 . S
H3368 C3352 0.931 . S
H3369 C3357 0.930 1_556 S
H3370 C3358 0.956 . S
H3371 C3358 0.961 . S
H3372 C3358 0.961 . S
H3373 C3359 0.958 1_556 S
H3374 C3359 0.961 1_556 S
H3375 C3359 0.960 . S
C3376 C3377 1.391 . S
C3376 C3378 1.394 . S
C3376 H3392 0.931 . S
C3377 C3376 1.391 . S
C3377 C3381 1.376 . S
C3378 C3376 1.394 . S
C3378 C3379 1.369 . S
C3378 C3382 1.531 . S
C3379 C3378 1.369 . S
C3379 C3380 1.410 . S
C3379 C3387 1.503 . S
C3380 C3379 1.410 . S
C3380 C3381 1.392 . S
C3380 C3383 1.511 . S
C3381 C3377 1.376 . S
C3381 C3380 1.392 . S
C3381 H3393 0.929 . S
C3382 C3378 1.531 . S
C3382 H3394 0.960 . S
C3382 H3395 0.962 . S
C3382 H3396 0.960 . S
C3383 C3380 1.511 . S
C3383 H3397 0.961 . S
C3383 H3398 0.961 . S
C3383 H3399 0.961 . S
C3384 C3385 1.370 . S
C3384 C3386 1.363 . S
C3384 H3400 0.931 . S
C3385 C3384 1.370 . S
C3385 C3389 1.408 . S
C3386 C3384 1.363 . S
C3386 C3387 1.370 . S
C3386 C3390 1.524 . S
C3387 C3379 1.503 . S
C3387 C3386 1.370 . S
C3387 C3388 1.403 . S
C3388 C3387 1.403 . S
C3388 C3389 1.404 . S
C3388 C3391 1.539 . S
C3389 C3385 1.408 . S
C3389 C3388 1.404 . S
C3389 H3401 0.930 . S
C3390 C3386 1.524 . S
C3390 H3402 0.956 . S
C3390 H3403 0.961 . S
C3390 H3404 0.961 . S
C3391 C3388 1.539 . S
C3391 H3405 0.958 . S
C3391 H3406 0.961 . S
C3391 H3407 0.960 . S
H3392 C3376 0.931 . S
H3393 C3381 0.929 . S
H3394 C3382 0.960 . S
H3395 C3382 0.962 . S
H3396 C3382 0.960 . S
H3397 C3383 0.961 . S
H3398 C3383 0.961 . S
H3399 C3383 0.961 . S
H3400 C3384 0.931 . S
H3401 C3389 0.930 . S
H3402 C3390 0.956 . S
H3403 C3390 0.961 . S
H3404 C3390 0.961 . S
H3405 C3391 0.958 . S
H3406 C3391 0.961 . S
H3407 C3391 0.960 . S
C3408 C3409 1.391 . S
C3408 C3410 1.394 . S
C3408 H3424 0.931 . S
C3409 C3408 1.391 . S
C3409 C3413 1.376 . S
C3410 C3408 1.394 . S
C3410 C3411 1.369 . S
C3410 C3414 1.531 . S
C3411 C3410 1.369 . S
C3411 C3412 1.410 . S
C3411 C3419 1.503 . S
C3412 C3411 1.410 . S
C3412 C3413 1.392 . S
C3412 C3415 1.511 . S
C3413 C3409 1.376 . S
C3413 C3412 1.392 . S
C3413 H3425 0.929 . S
C3414 C3410 1.531 . S
C3414 H3426 0.960 . S
C3414 H3427 0.962 . S
C3414 H3428 0.960 . S
C3415 C3412 1.511 . S
C3415 H3429 0.961 . S
C3415 H3430 0.961 . S
C3415 H3431 0.961 . S
C3416 C3417 1.370 . S
C3416 C3418 1.363 . S
C3416 H3432 0.931 . S
C3417 C3416 1.370 . S
C3417 C3421 1.408 . S
C3418 C3416 1.363 . S
C3418 C3419 1.370 . S
C3418 C3422 1.524 . S
C3419 C3411 1.503 . S
C3419 C3418 1.370 . S
C3419 C3420 1.403 . S
C3420 C3419 1.403 . S
C3420 C3421 1.404 . S
C3420 C3423 1.539 . S
C3421 C3417 1.408 . S
C3421 C3420 1.404 . S
C3421 H3433 0.930 . S
C3422 C3418 1.524 . S
C3422 H3434 0.956 . S
C3422 H3435 0.961 . S
C3422 H3436 0.961 . S
C3423 C3420 1.539 . S
C3423 H3437 0.958 . S
C3423 H3438 0.961 . S
C3423 H3439 0.960 . S
H3424 C3408 0.931 . S
H3425 C3413 0.929 . S
H3426 C3414 0.960 . S
H3427 C3414 0.962 . S
H3428 C3414 0.960 . S
H3429 C3415 0.961 . S
H3430 C3415 0.961 . S
H3431 C3415 0.961 . S
H3432 C3416 0.931 . S
H3433 C3421 0.930 . S
H3434 C3422 0.956 . S
H3435 C3422 0.961 . S
H3436 C3422 0.961 . S
H3437 C3423 0.958 . S
H3438 C3423 0.961 . S
H3439 C3423 0.960 . S
C3440 C3441 1.391 . S
C3440 C3442 1.394 . S
C3440 H3456 0.931 . S
C3441 C3440 1.391 . S
C3441 C3445 1.376 . S
C3442 C3440 1.394 . S
C3442 C3443 1.369 . S
C3442 C3446 1.531 . S
C3443 C3442 1.369 . S
C3443 C3444 1.410 . S
C3443 C3451 1.503 . S
C3444 C3443 1.410 . S
C3444 C3445 1.392 . S
C3444 C3447 1.511 . S
C3445 C3441 1.376 . S
C3445 C3444 1.392 . S
C3445 H3457 0.929 . S
C3446 C3442 1.531 . S
C3446 H3458 0.960 . S
C3446 H3459 0.962 . S
C3446 H3460 0.960 . S
C3447 C3444 1.511 . S
C3447 H3461 0.961 . S
C3447 H3462 0.961 . S
C3447 H3463 0.961 . S
C3448 C3449 1.370 . S
C3448 C3450 1.363 . S
C3448 H3464 0.931 . S
C3449 C3448 1.370 . S
C3449 C3453 1.408 . S
C3450 C3448 1.363 . S
C3450 C3451 1.370 . S
C3450 C3454 1.524 . S
C3451 C3443 1.503 . S
C3451 C3450 1.370 . S
C3451 C3452 1.403 . S
C3452 C3451 1.403 . S
C3452 C3453 1.404 . S
C3452 C3455 1.539 . S
C3453 C3449 1.408 . S
C3453 C3452 1.404 . S
C3453 H3465 0.930 . S
C3454 C3450 1.524 . S
C3454 H3466 0.956 . S
C3454 H3467 0.961 . S
C3454 H3468 0.961 . S
C3455 C3452 1.539 . S
C3455 H3469 0.958 . S
C3455 H3470 0.961 . S
C3455 H3471 0.960 . S
H3456 C3440 0.931 . S
H3457 C3445 0.929 . S
H3458 C3446 0.960 . S
H3459 C3446 0.962 . S
H3460 C3446 0.960 . S
H3461 C3447 0.961 . S
H3462 C3447 0.961 . S
H3463 C3447 0.961 . S
H3464 C3448 0.931 . S
H3465 C3453 0.930 . S
H3466 C3454 0.956 . S
H3467 C3454 0.961 . S
H3468 C3454 0.961 . S
H3469 C3455 0.958 . S
H3470 C3455 0.961 . S
H3471 C3455 0.960 . S
C3472 C3473 1.391 . S
C3472 C3474 1.394 . S
C3472 H3488 0.931 . S
C3473 C3472 1.391 . S
C3473 C3477 1.376 . S
C3474 C3472 1.394 . S
C3474 C3475 1.369 . S
C3474 C3478 1.531 . S
C3475 C3474 1.369 . S
C3475 C3476 1.410 . S
C3475 C3483 1.503 . S
C3476 C3475 1.410 . S
C3476 C3477 1.392 . S
C3476 C3479 1.511 . S
C3477 C3473 1.376 . S
C3477 C3476 1.392 . S
C3477 H3489 0.929 . S
C3478 C3474 1.531 . S
C3478 H3490 0.960 . S
C3478 H3491 0.962 . S
C3478 H3492 0.960 . S
C3479 C3476 1.511 . S
C3479 H3493 0.961 . S
C3479 H3494 0.961 . S
C3479 H3495 0.961 . S
C3480 C3481 1.370 . S
C3480 C3482 1.363 . S
C3480 H3496 0.931 . S
C3481 C3480 1.370 . S
C3481 C3485 1.408 . S
C3482 C3480 1.363 . S
C3482 C3483 1.370 . S
C3482 C3486 1.524 . S
C3483 C3475 1.503 . S
C3483 C3482 1.370 . S
C3483 C3484 1.403 . S
C3484 C3483 1.403 . S
C3484 C3485 1.404 . S
C3484 C3487 1.539 . S
C3485 C3481 1.408 . S
C3485 C3484 1.404 . S
C3485 H3497 0.930 . S
C3486 C3482 1.524 . S
C3486 H3498 0.956 . S
C3486 H3499 0.961 . S
C3486 H3500 0.961 . S
C3487 C3484 1.539 . S
C3487 H3501 0.958 . S
C3487 H3502 0.961 . S
C3487 H3503 0.960 . S
H3488 C3472 0.931 . S
H3489 C3477 0.929 . S
H3490 C3478 0.960 . S
H3491 C3478 0.962 . S
H3492 C3478 0.960 . S
H3493 C3479 0.961 . S
H3494 C3479 0.961 . S
H3495 C3479 0.961 . S
H3496 C3480 0.931 . S
H3497 C3485 0.930 . S
H3498 C3486 0.956 . S
H3499 C3486 0.961 . S
H3500 C3486 0.961 . S
H3501 C3487 0.958 . S
H3502 C3487 0.961 . S
H3503 C3487 0.960 . S
C3504 C3505 1.391 . S
C3504 C3506 1.394 . S
C3504 H3520 0.931 . S
C3505 C3504 1.391 . S
C3505 C3509 1.376 . S
C3506 C3504 1.394 . S
C3506 C3507 1.369 . S
C3506 C3510 1.531 . S
C3507 C3506 1.369 . S
C3507 C3508 1.410 . S
C3507 C3515 1.503 . S
C3508 C3507 1.410 . S
C3508 C3509 1.392 . S
C3508 C3511 1.511 . S
C3509 C3505 1.376 . S
C3509 C3508 1.392 . S
C3509 H3521 0.929 . S
C3510 C3506 1.531 . S
C3510 H3522 0.960 . S
C3510 H3523 0.962 . S
C3510 H3524 0.960 . S
C3511 C3508 1.511 . S
C3511 H3525 0.961 . S
C3511 H3526 0.961 . S
C3511 H3527 0.961 . S
C3512 C3513 1.370 . S
C3512 C3514 1.363 . S
C3512 H3528 0.931 . S
C3513 C3512 1.370 . S
C3513 C3517 1.408 . S
C3514 C3512 1.363 . S
C3514 C3515 1.370 . S
C3514 C3518 1.524 . S
C3515 C3507 1.503 . S
C3515 C3514 1.370 . S
C3515 C3516 1.403 . S
C3516 C3515 1.403 . S
C3516 C3517 1.404 . S
C3516 C3519 1.539 . S
C3517 C3513 1.408 . S
C3517 C3516 1.404 . S
C3517 H3529 0.930 . S
C3518 C3514 1.524 . S
C3518 H3530 0.956 . S
C3518 H3531 0.961 . S
C3518 H3532 0.961 . S
C3519 C3516 1.539 . S
C3519 H3533 0.958 . S
C3519 H3534 0.961 . S
C3519 H3535 0.960 . S
H3520 C3504 0.931 . S
H3521 C3509 0.929 . S
H3522 C3510 0.960 . S
H3523 C3510 0.962 . S
H3524 C3510 0.960 . S
H3525 C3511 0.961 . S
H3526 C3511 0.961 . S
H3527 C3511 0.961 . S
H3528 C3512 0.931 . S
H3529 C3517 0.930 . S
H3530 C3518 0.956 . S
H3531 C3518 0.961 . S
H3532 C3518 0.961 . S
H3533 C3519 0.958 . S
H3534 C3519 0.961 . S
H3535 C3519 0.960 . S
C3536 C3537 1.391 . S
C3536 C3538 1.394 . S
C3536 H3552 0.931 . S
C3537 C3536 1.391 . S
C3537 C3541 1.376 . S
C3538 C3536 1.394 . S
C3538 C3539 1.369 . S
C3538 C3542 1.531 . S
C3539 C3538 1.369 . S
C3539 C3540 1.410 . S
C3539 C3547 1.503 . S
C3540 C3539 1.410 . S
C3540 C3541 1.392 . S
C3540 C3543 1.511 . S
C3541 C3537 1.376 . S
C3541 C3540 1.392 . S
C3541 H3553 0.929 . S
C3542 C3538 1.531 . S
C3542 H3554 0.960 . S
C3542 H3555 0.962 . S
C3542 H3556 0.960 . S
C3543 C3540 1.511 . S
C3543 H3557 0.961 . S
C3543 H3558 0.961 . S
C3543 H3559 0.961 . S
C3544 C3545 1.370 . S
C3544 C3546 1.363 . S
C3544 H3560 0.931 . S
C3545 C3544 1.370 . S
C3545 C3549 1.408 . S
C3546 C3544 1.363 . S
C3546 C3547 1.370 . S
C3546 C3550 1.524 . S
C3547 C3539 1.503 . S
C3547 C3546 1.370 . S
C3547 C3548 1.403 . S
C3548 C3547 1.403 . S
C3548 C3549 1.404 . S
C3548 C3551 1.539 . S
C3549 C3545 1.408 . S
C3549 C3548 1.404 . S
C3549 H3561 0.930 . S
C3550 C3546 1.524 . S
C3550 H3562 0.956 . S
C3550 H3563 0.961 . S
C3550 H3564 0.961 . S
C3551 C3548 1.539 . S
C3551 H3565 0.958 . S
C3551 H3566 0.961 . S
C3551 H3567 0.960 . S
H3552 C3536 0.931 . S
H3553 C3541 0.929 . S
H3554 C3542 0.960 . S
H3555 C3542 0.962 . S
H3556 C3542 0.960 . S
H3557 C3543 0.961 . S
H3558 C3543 0.961 . S
H3559 C3543 0.961 . S
H3560 C3544 0.931 . S
H3561 C3549 0.930 . S
H3562 C3550 0.956 . S
H3563 C3550 0.961 . S
H3564 C3550 0.961 . S
H3565 C3551 0.958 . S
H3566 C3551 0.961 . S
H3567 C3551 0.960 . S
C3568 C3569 1.391 . S
C3568 C3570 1.394 . S
C3568 H3584 0.931 . S
C3569 C3568 1.391 . S
C3569 C3573 1.376 . S
C3570 C3568 1.394 . S
C3570 C3571 1.369 . S
C3570 C3574 1.531 . S
C3571 C3570 1.369 . S
C3571 C3572 1.410 . S
C3571 C3579 1.503 . S
C3572 C3571 1.410 . S
C3572 C3573 1.392 . S
C3572 C3575 1.511 . S
C3573 C3569 1.376 . S
C3573 C3572 1.392 . S
C3573 H3585 0.929 . S
C3574 C3570 1.531 . S
C3574 H3586 0.960 . S
C3574 H3587 0.962 . S
C3574 H3588 0.960 . S
C3575 C3572 1.511 . S
C3575 H3589 0.961 . S
C3575 H3590 0.961 . S
C3575 H3591 0.961 . S
C3576 C3577 1.370 . S
C3576 C3578 1.363 . S
C3576 H3592 0.931 . S
C3577 C3576 1.370 . S
C3577 C3581 1.408 . S
C3578 C3576 1.363 . S
C3578 C3579 1.370 . S
C3578 C3582 1.524 . S
C3579 C3571 1.503 . S
C3579 C3578 1.370 . S
C3579 C3580 1.403 . S
C3580 C3579 1.403 . S
C3580 C3581 1.404 . S
C3580 C3583 1.539 . S
C3581 C3577 1.408 . S
C3581 C3580 1.404 . S
C3581 H3593 0.930 . S
C3582 C3578 1.524 . S
C3582 H3594 0.956 . S
C3582 H3595 0.961 . S
C3582 H3596 0.961 . S
C3583 C3580 1.539 . S
C3583 H3597 0.958 . S
C3583 H3598 0.961 . S
C3583 H3599 0.960 . S
H3584 C3568 0.931 . S
H3585 C3573 0.929 . S
H3586 C3574 0.960 . S
H3587 C3574 0.962 . S
H3588 C3574 0.960 . S
H3589 C3575 0.961 . S
H3590 C3575 0.961 . S
H3591 C3575 0.961 . S
H3592 C3576 0.931 . S
H3593 C3581 0.930 . S
H3594 C3582 0.956 . S
H3595 C3582 0.961 . S
H3596 C3582 0.961 . S
H3597 C3583 0.958 . S
H3598 C3583 0.961 . S
H3599 C3583 0.960 . S
C3600 C3601 1.391 . S
C3600 C3602 1.394 . S
C3600 H3616 0.931 . S
C3601 C3600 1.391 . S
C3601 C3605 1.376 . S
C3602 C3600 1.394 . S
C3602 C3603 1.369 . S
C3602 C3606 1.531 . S
C3603 C3602 1.369 . S
C3603 C3604 1.410 . S
C3603 C3611 1.503 . S
C3604 C3603 1.410 . S
C3604 C3605 1.392 . S
C3604 C3607 1.511 1_655 S
C3605 C3601 1.376 . S
C3605 C3604 1.392 . S
C3605 H3617 0.929 . S
C3606 C3602 1.531 . S
C3606 H3618 0.960 . S
C3606 H3619 0.962 . S
C3606 H3620 0.960 . S
C3607 C3604 1.511 1_455 S
C3607 H3621 0.961 . S
C3607 H3622 0.961 . S
C3607 H3623 0.961 . S
C3608 C3609 1.370 . S
C3608 C3610 1.363 . S
C3608 H3624 0.931 . S
C3609 C3608 1.370 . S
C3609 C3613 1.408 . S
C3610 C3608 1.363 . S
C3610 C3611 1.370 1_455 S
C3610 C3614 1.524 . S
C3611 C3603 1.503 . S
C3611 C3610 1.370 1_655 S
C3611 C3612 1.403 . S
C3612 C3611 1.403 . S
C3612 C3613 1.404 1_655 S
C3612 C3615 1.539 . S
C3613 C3609 1.408 . S
C3613 C3612 1.404 1_455 S
C3613 H3625 0.930 . S
C3614 C3610 1.524 . S
C3614 H3626 0.956 . S
C3614 H3627 0.961 . S
C3614 H3628 0.961 . S
C3615 C3612 1.539 . S
C3615 H3629 0.958 . S
C3615 H3630 0.961 . S
C3615 H3631 0.960 . S
H3616 C3600 0.931 . S
H3617 C3605 0.929 . S
H3618 C3606 0.960 . S
H3619 C3606 0.962 . S
H3620 C3606 0.960 . S
H3621 C3607 0.961 . S
H3622 C3607 0.961 . S
H3623 C3607 0.961 . S
H3624 C3608 0.931 . S
H3625 C3613 0.930 . S
H3626 C3614 0.956 . S
H3627 C3614 0.961 . S
H3628 C3614 0.961 . S
H3629 C3615 0.958 . S
H3630 C3615 0.961 . S
H3631 C3615 0.960 . S
C3632 C3633 1.391 . S
C3632 C3634 1.394 . S
C3632 H3648 0.931 . S
C3633 C3632 1.391 . S
C3633 C3637 1.376 . S
C3634 C3632 1.394 . S
C3634 C3635 1.369 . S
C3634 C3638 1.531 . S
C3635 C3634 1.369 . S
C3635 C3636 1.410 . S
C3635 C3643 1.503 . S
C3636 C3635 1.410 . S
C3636 C3637 1.392 . S
C3636 C3639 1.511 . S
C3637 C3633 1.376 . S
C3637 C3636 1.392 . S
C3637 H3649 0.929 . S
C3638 C3634 1.531 . S
C3638 H3650 0.960 . S
C3638 H3651 0.962 . S
C3638 H3652 0.960 . S
C3639 C3636 1.511 . S
C3639 H3653 0.961 . S
C3639 H3654 0.961 . S
C3639 H3655 0.961 . S
C3640 C3641 1.370 . S
C3640 C3642 1.363 . S
C3640 H3656 0.931 . S
C3641 C3640 1.370 . S
C3641 C3645 1.408 . S
C3642 C3640 1.363 . S
C3642 C3643 1.370 . S
C3642 C3646 1.524 . S
C3643 C3635 1.503 . S
C3643 C3642 1.370 . S
C3643 C3644 1.403 . S
C3644 C3643 1.403 . S
C3644 C3645 1.404 . S
C3644 C3647 1.539 . S
C3645 C3641 1.408 . S
C3645 C3644 1.404 . S
C3645 H3657 0.930 . S
C3646 C3642 1.524 . S
C3646 H3658 0.956 . S
C3646 H3659 0.961 . S
C3646 H3660 0.961 . S
C3647 C3644 1.539 . S
C3647 H3661 0.958 . S
C3647 H3662 0.961 . S
C3647 H3663 0.960 . S
H3648 C3632 0.931 . S
H3649 C3637 0.929 . S
H3650 C3638 0.960 . S
H3651 C3638 0.962 . S
H3652 C3638 0.960 . S
H3653 C3639 0.961 . S
H3654 C3639 0.961 . S
H3655 C3639 0.961 . S
H3656 C3640 0.931 . S
H3657 C3645 0.930 . S
H3658 C3646 0.956 . S
H3659 C3646 0.961 . S
H3660 C3646 0.961 . S
H3661 C3647 0.958 . S
H3662 C3647 0.961 . S
H3663 C3647 0.960 . S
C3664 C3665 1.391 . S
C3664 C3666 1.394 . S
C3664 H3680 0.931 . S
C3665 C3664 1.391 . S
C3665 C3669 1.376 . S
C3666 C3664 1.394 . S
C3666 C3667 1.369 . S
C3666 C3670 1.531 . S
C3667 C3666 1.369 . S
C3667 C3668 1.410 . S
C3667 C3675 1.503 . S
C3668 C3667 1.410 . S
C3668 C3669 1.392 . S
C3668 C3671 1.511 . S
C3669 C3665 1.376 . S
C3669 C3668 1.392 . S
C3669 H3681 0.929 . S
C3670 C3666 1.531 . S
C3670 H3682 0.960 . S
C3670 H3683 0.962 . S
C3670 H3684 0.960 . S
C3671 C3668 1.511 . S
C3671 H3685 0.961 . S
C3671 H3686 0.961 . S
C3671 H3687 0.961 . S
C3672 C3673 1.370 . S
C3672 C3674 1.363 . S
C3672 H3688 0.931 . S
C3673 C3672 1.370 . S
C3673 C3677 1.408 . S
C3674 C3672 1.363 . S
C3674 C3675 1.370 . S
C3674 C3678 1.524 . S
C3675 C3667 1.503 . S
C3675 C3674 1.370 . S
C3675 C3676 1.403 . S
C3676 C3675 1.403 . S
C3676 C3677 1.404 . S
C3676 C3679 1.539 . S
C3677 C3673 1.408 . S
C3677 C3676 1.404 . S
C3677 H3689 0.930 . S
C3678 C3674 1.524 . S
C3678 H3690 0.956 . S
C3678 H3691 0.961 . S
C3678 H3692 0.961 . S
C3679 C3676 1.539 . S
C3679 H3693 0.958 . S
C3679 H3694 0.961 . S
C3679 H3695 0.960 . S
H3680 C3664 0.931 . S
H3681 C3669 0.929 . S
H3682 C3670 0.960 . S
H3683 C3670 0.962 . S
H3684 C3670 0.960 . S
H3685 C3671 0.961 . S
H3686 C3671 0.961 . S
H3687 C3671 0.961 . S
H3688 C3672 0.931 . S
H3689 C3677 0.930 . S
H3690 C3678 0.956 . S
H3691 C3678 0.961 . S
H3692 C3678 0.961 . S
H3693 C3679 0.958 . S
H3694 C3679 0.961 . S
H3695 C3679 0.960 . S
C3696 C3697 1.391 . S
C3696 C3698 1.394 . S
C3696 H3712 0.931 . S
C3697 C3696 1.391 . S
C3697 C3701 1.376 . S
C3698 C3696 1.394 . S
C3698 C3699 1.369 . S
C3698 C3702 1.531 . S
C3699 C3698 1.369 . S
C3699 C3700 1.410 . S
C3699 C3707 1.503 . S
C3700 C3699 1.410 . S
C3700 C3701 1.392 . S
C3700 C3703 1.511 . S
C3701 C3697 1.376 . S
C3701 C3700 1.392 . S
C3701 H3713 0.929 . S
C3702 C3698 1.531 . S
C3702 H3714 0.960 . S
C3702 H3715 0.962 . S
C3702 H3716 0.960 . S
C3703 C3700 1.511 . S
C3703 H3717 0.961 . S
C3703 H3718 0.961 . S
C3703 H3719 0.961 . S
C3704 C3705 1.370 . S
C3704 C3706 1.363 . S
C3704 H3720 0.931 . S
C3705 C3704 1.370 . S
C3705 C3709 1.408 . S
C3706 C3704 1.363 . S
C3706 C3707 1.370 . S
C3706 C3710 1.524 . S
C3707 C3699 1.503 . S
C3707 C3706 1.370 . S
C3707 C3708 1.403 . S
C3708 C3707 1.403 . S
C3708 C3709 1.404 . S
C3708 C3711 1.539 . S
C3709 C3705 1.408 . S
C3709 C3708 1.404 . S
C3709 H3721 0.930 . S
C3710 C3706 1.524 . S
C3710 H3722 0.956 . S
C3710 H3723 0.961 . S
C3710 H3724 0.961 . S
C3711 C3708 1.539 . S
C3711 H3725 0.958 . S
C3711 H3726 0.961 . S
C3711 H3727 0.960 . S
H3712 C3696 0.931 . S
H3713 C3701 0.929 . S
H3714 C3702 0.960 . S
H3715 C3702 0.962 . S
H3716 C3702 0.960 . S
H3717 C3703 0.961 . S
H3718 C3703 0.961 . S
H3719 C3703 0.961 . S
H3720 C3704 0.931 . S
H3721 C3709 0.930 . S
H3722 C3710 0.956 . S
H3723 C3710 0.961 . S
H3724 C3710 0.961 . S
H3725 C3711 0.958 . S
H3726 C3711 0.961 . S
H3727 C3711 0.960 . S
C3728 C3729 1.391 . S
C3728 C3730 1.394 . S
C3728 H3744 0.931 . S
C3729 C3728 1.391 . S
C3729 C3733 1.376 . S
C3730 C3728 1.394 . S
C3730 C3731 1.369 . S
C3730 C3734 1.531 . S
C3731 C3730 1.369 . S
C3731 C3732 1.410 . S
C3731 C3739 1.503 . S
C3732 C3731 1.410 . S
C3732 C3733 1.392 . S
C3732 C3735 1.511 . S
C3733 C3729 1.376 . S
C3733 C3732 1.392 . S
C3733 H3745 0.929 . S
C3734 C3730 1.531 . S
C3734 H3746 0.960 . S
C3734 H3747 0.962 . S
C3734 H3748 0.960 . S
C3735 C3732 1.511 . S
C3735 H3749 0.961 . S
C3735 H3750 0.961 . S
C3735 H3751 0.961 . S
C3736 C3737 1.372 . S
C3736 C3738 1.365 . S
C3736 H3752 0.927 1_655 S
C3737 C3736 1.372 . S
C3737 C3741 1.408 . S
C3738 C3736 1.365 . S
C3738 C3739 1.370 . S
C3738 C3742 1.524 1_655 S
C3739 C3731 1.503 . S
C3739 C3738 1.370 . S
C3739 C3740 1.403 . S
C3740 C3739 1.403 . S
C3740 C3741 1.404 . S
C3740 C3743 1.539 . S
C3741 C3737 1.408 . S
C3741 C3740 1.404 . S
C3741 H3753 0.930 . S
C3742 C3738 1.524 1_455 S
C3742 H3754 0.956 . S
C3742 H3755 0.961 . S
C3742 H3756 0.961 . S
C3743 C3740 1.539 . S
C3743 H3757 0.958 . S
C3743 H3758 0.961 . S
C3743 H3759 0.960 . S
H3744 C3728 0.931 . S
H3745 C3733 0.929 . S
H3746 C3734 0.960 . S
H3747 C3734 0.962 . S
H3748 C3734 0.960 . S
H3749 C3735 0.961 . S
H3750 C3735 0.961 . S
H3751 C3735 0.961 . S
H3752 C3736 0.927 1_455 S
H3753 C3741 0.930 . S
H3754 C3742 0.956 . S
H3755 C3742 0.961 . S
H3756 C3742 0.961 . S
H3757 C3743 0.958 . S
H3758 C3743 0.961 . S
H3759 C3743 0.960 . S
C3760 C3761 1.391 . S
C3760 C3762 1.394 . S
C3760 H3776 0.931 . S
C3761 C3760 1.391 . S
C3761 C3765 1.376 . S
C3762 C3760 1.394 . S
C3762 C3763 1.369 . S
C3762 C3766 1.531 . S
C3763 C3762 1.369 . S
C3763 C3764 1.410 . S
C3763 C3771 1.503 . S
C3764 C3763 1.410 . S
C3764 C3765 1.392 . S
C3764 C3767 1.511 . S
C3765 C3761 1.376 . S
C3765 C3764 1.392 . S
C3765 H3777 0.929 . S
C3766 C3762 1.531 . S
C3766 H3778 0.960 . S
C3766 H3779 0.962 . S
C3766 H3780 0.960 . S
C3767 C3764 1.511 . S
C3767 H3781 0.961 . S
C3767 H3782 0.961 . S
C3767 H3783 0.961 . S
C3768 C3769 1.370 . S
C3768 C3770 1.363 . S
C3768 H3784 0.931 . S
C3769 C3768 1.370 . S
C3769 C3773 1.408 . S
C3770 C3768 1.363 . S
C3770 C3771 1.370 . S
C3770 C3774 1.524 . S
C3771 C3763 1.503 . S
C3771 C3770 1.370 . S
C3771 C3772 1.403 . S
C3772 C3771 1.403 . S
C3772 C3773 1.404 . S
C3772 C3775 1.539 . S
C3773 C3769 1.408 . S
C3773 C3772 1.404 . S
C3773 H3785 0.930 . S
C3774 C3770 1.524 . S
C3774 H3786 0.956 . S
C3774 H3787 0.961 . S
C3774 H3788 0.961 . S
C3775 C3772 1.539 . S
C3775 H3789 0.958 . S
C3775 H3790 0.961 . S
C3775 H3791 0.960 . S
H3776 C3760 0.931 . S
H3777 C3765 0.929 . S
H3778 C3766 0.960 . S
H3779 C3766 0.962 . S
H3780 C3766 0.960 . S
H3781 C3767 0.961 . S
H3782 C3767 0.961 . S
H3783 C3767 0.961 . S
H3784 C3768 0.931 . S
H3785 C3773 0.930 . S
H3786 C3774 0.956 . S
H3787 C3774 0.961 . S
H3788 C3774 0.961 . S
H3789 C3775 0.958 . S
H3790 C3775 0.961 . S
H3791 C3775 0.960 . S
C3792 C3793 1.391 . S
C3792 C3794 1.394 . S
C3792 H3808 0.931 . S
C3793 C3792 1.391 . S
C3793 C3797 1.376 . S
C3794 C3792 1.394 . S
C3794 C3795 1.369 . S
C3794 C3798 1.531 . S
C3795 C3794 1.369 . S
C3795 C3796 1.410 . S
C3795 C3803 1.503 . S
C3796 C3795 1.410 . S
C3796 C3797 1.392 . S
C3796 C3799 1.511 . S
C3797 C3793 1.376 . S
C3797 C3796 1.392 . S
C3797 H3809 0.929 . S
C3798 C3794 1.531 . S
C3798 H3810 0.960 . S
C3798 H3811 0.962 . S
C3798 H3812 0.960 . S
C3799 C3796 1.511 . S
C3799 H3813 0.961 . S
C3799 H3814 0.961 . S
C3799 H3815 0.961 . S
C3800 C3801 1.370 . S
C3800 C3802 1.363 . S
C3800 H3816 0.931 . S
C3801 C3800 1.370 . S
C3801 C3805 1.408 . S
C3802 C3800 1.363 . S
C3802 C3803 1.370 . S
C3802 C3806 1.524 . S
C3803 C3795 1.503 . S
C3803 C3802 1.370 . S
C3803 C3804 1.403 . S
C3804 C3803 1.403 . S
C3804 C3805 1.404 . S
C3804 C3807 1.539 . S
C3805 C3801 1.408 . S
C3805 C3804 1.404 . S
C3805 H3817 0.930 . S
C3806 C3802 1.524 . S
C3806 H3818 0.956 . S
C3806 H3819 0.961 . S
C3806 H3820 0.961 . S
C3807 C3804 1.539 . S
C3807 H3821 0.958 . S
C3807 H3822 0.961 . S
C3807 H3823 0.960 . S
H3808 C3792 0.931 . S
H3809 C3797 0.929 . S
H3810 C3798 0.960 . S
H3811 C3798 0.962 . S
H3812 C3798 0.960 . S
H3813 C3799 0.961 . S
H3814 C3799 0.961 . S
H3815 C3799 0.961 . S
H3816 C3800 0.931 . S
H3817 C3805 0.930 . S
H3818 C3806 0.956 . S
H3819 C3806 0.961 . S
H3820 C3806 0.961 . S
H3821 C3807 0.958 . S
H3822 C3807 0.961 . S
H3823 C3807 0.960 . S
C3824 C3825 1.391 . S
C3824 C3826 1.394 . S
C3824 H3840 0.931 . S
C3825 C3824 1.391 . S
C3825 C3829 1.376 . S
C3826 C3824 1.394 . S
C3826 C3827 1.369 . S
C3826 C3830 1.531 . S
C3827 C3826 1.369 . S
C3827 C3828 1.410 . S
C3827 C3835 1.503 . S
C3828 C3827 1.410 . S
C3828 C3829 1.392 . S
C3828 C3831 1.511 . S
C3829 C3825 1.376 . S
C3829 C3828 1.392 . S
C3829 H3841 0.929 . S
C3830 C3826 1.531 . S
C3830 H3842 0.956 1_565 S
C3830 H3843 0.962 . S
C3830 H3844 0.960 . S
C3831 C3828 1.511 . S
C3831 H3845 0.961 . S
C3831 H3846 0.961 . S
C3831 H3847 0.961 . S
C3832 C3833 1.375 . S
C3832 C3834 1.363 . S
C3832 H3848 0.931 . S
C3833 C3832 1.375 . S
C3833 C3837 1.410 1_565 S
C3834 C3832 1.363 . S
C3834 C3835 1.370 . S
C3834 C3838 1.524 . S
C3835 C3827 1.503 . S
C3835 C3834 1.370 . S
C3835 C3836 1.403 . S
C3836 C3835 1.403 . S
C3836 C3837 1.404 1_565 S
C3836 C3839 1.539 . S
C3837 C3833 1.410 1_545 S
C3837 C3836 1.404 1_545 S
C3837 H3849 0.930 . S
C3838 C3834 1.524 . S
C3838 H3850 0.956 . S
C3838 H3851 0.961 . S
C3838 H3852 0.961 . S
C3839 C3836 1.539 . S
C3839 H3853 0.951 1_565 S
C3839 H3854 0.961 . S
C3839 H3855 0.960 . S
H3840 C3824 0.931 . S
H3841 C3829 0.929 . S
H3842 C3830 0.956 1_545 S
H3843 C3830 0.962 . S
H3844 C3830 0.960 . S
H3845 C3831 0.961 . S
H3846 C3831 0.961 . S
H3847 C3831 0.961 . S
H3848 C3832 0.931 . S
H3849 C3837 0.930 . S
H3850 C3838 0.956 . S
H3851 C3838 0.961 . S
H3852 C3838 0.961 . S
H3853 C3839 0.951 1_545 S
H3854 C3839 0.961 . S
H3855 C3839 0.960 . S
C3856 C3857 1.391 . S
C3856 C3858 1.394 . S
C3856 H3872 0.931 . S
C3857 C3856 1.391 . S
C3857 C3861 1.376 . S
C3858 C3856 1.394 . S
C3858 C3859 1.369 . S
C3858 C3862 1.531 . S
C3859 C3858 1.369 . S
C3859 C3860 1.410 . S
C3859 C3867 1.503 . S
C3860 C3859 1.410 . S
C3860 C3861 1.392 . S
C3860 C3863 1.511 . S
C3861 C3857 1.376 . S
C3861 C3860 1.392 . S
C3861 H3873 0.929 . S
C3862 C3858 1.531 . S
C3862 H3874 0.960 . S
C3862 H3875 0.962 . S
C3862 H3876 0.960 . S
C3863 C3860 1.511 . S
C3863 H3877 0.961 . S
C3863 H3878 0.961 . S
C3863 H3879 0.961 . S
C3864 C3865 1.370 . S
C3864 C3866 1.363 . S
C3864 H3880 0.931 . S
C3865 C3864 1.370 . S
C3865 C3869 1.408 . S
C3866 C3864 1.363 . S
C3866 C3867 1.370 . S
C3866 C3870 1.524 . S
C3867 C3859 1.503 . S
C3867 C3866 1.370 . S
C3867 C3868 1.403 . S
C3868 C3867 1.403 . S
C3868 C3869 1.404 . S
C3868 C3871 1.539 . S
C3869 C3865 1.408 . S
C3869 C3868 1.404 . S
C3869 H3881 0.930 . S
C3870 C3866 1.524 . S
C3870 H3882 0.956 . S
C3870 H3883 0.961 . S
C3870 H3884 0.961 . S
C3871 C3868 1.539 . S
C3871 H3885 0.958 . S
C3871 H3886 0.961 . S
C3871 H3887 0.960 . S
H3872 C3856 0.931 . S
H3873 C3861 0.929 . S
H3874 C3862 0.960 . S
H3875 C3862 0.962 . S
H3876 C3862 0.960 . S
H3877 C3863 0.961 . S
H3878 C3863 0.961 . S
H3879 C3863 0.961 . S
H3880 C3864 0.931 . S
H3881 C3869 0.930 . S
H3882 C3870 0.956 . S
H3883 C3870 0.961 . S
H3884 C3870 0.961 . S
H3885 C3871 0.958 . S
H3886 C3871 0.961 . S
H3887 C3871 0.960 . S
C3888 C3889 1.391 . S
C3888 C3890 1.394 . S
C3888 H3904 0.931 . S
C3889 C3888 1.391 . S
C3889 C3893 1.376 1_554 S
C3890 C3888 1.394 . S
C3890 C3891 1.369 . S
C3890 C3894 1.531 . S
C3891 C3890 1.369 . S
C3891 C3892 1.410 1_554 S
C3891 C3899 1.503 . S
C3892 C3891 1.410 1_556 S
C3892 C3893 1.392 . S
C3892 C3895 1.511 . S
C3893 C3889 1.376 1_556 S
C3893 C3892 1.392 . S
C3893 H3905 0.929 . S
C3894 C3890 1.531 . S
C3894 H3906 0.960 . S
C3894 H3907 0.962 . S
C3894 H3908 0.960 . S
C3895 C3892 1.511 . S
C3895 H3909 0.961 . S
C3895 H3910 0.961 . S
C3895 H3911 0.961 . S
C3896 C3897 1.370 1_556 S
C3896 C3898 1.359 . S
C3896 H3912 0.931 . S
C3897 C3896 1.370 1_554 S
C3897 C3901 1.408 . S
C3898 C3896 1.359 . S
C3898 C3899 1.360 1_556 S
C3898 C3902 1.539 . S
C3899 C3891 1.503 . S
C3899 C3898 1.360 1_554 S
C3899 C3900 1.403 . S
C3900 C3899 1.403 . S
C3900 C3901 1.404 . S
C3900 C3903 1.539 . S
C3901 C3897 1.408 . S
C3901 C3900 1.404 . S
C3901 H3913 0.930 . S
C3902 C3898 1.539 . S
C3902 H3914 0.956 . S
C3902 H3915 0.961 . S
C3902 H3916 0.961 . S
C3903 C3900 1.539 . S
C3903 H3917 0.958 . S
C3903 H3918 0.961 . S
C3903 H3919 0.960 . S
H3904 C3888 0.931 . S
H3905 C3893 0.929 . S
H3906 C3894 0.960 . S
H3907 C3894 0.962 . S
H3908 C3894 0.960 . S
H3909 C3895 0.961 . S
H3910 C3895 0.961 . S
H3911 C3895 0.961 . S
H3912 C3896 0.931 . S
H3913 C3901 0.930 . S
H3914 C3902 0.956 . S
H3915 C3902 0.961 . S
H3916 C3902 0.961 . S
H3917 C3903 0.958 . S
H3918 C3903 0.961 . S
H3919 C3903 0.960 . S
C3920 C3921 1.391 . S
C3920 C3922 1.394 . S
C3920 H3936 0.931 . S
C3921 C3920 1.391 . S
C3921 C3925 1.376 . S
C3922 C3920 1.394 . S
C3922 C3923 1.369 . S
C3922 C3926 1.531 . S
C3923 C3922 1.369 . S
C3923 C3924 1.410 . S
C3923 C3931 1.503 . S
C3924 C3923 1.410 . S
C3924 C3925 1.392 . S
C3924 C3927 1.511 . S
C3925 C3921 1.376 . S
C3925 C3924 1.392 . S
C3925 H3937 0.929 . S
C3926 C3922 1.531 . S
C3926 H3938 0.960 . S
C3926 H3939 0.962 . S
C3926 H3940 0.960 . S
C3927 C3924 1.511 . S
C3927 H3941 0.961 . S
C3927 H3942 0.961 . S
C3927 H3943 0.961 . S
C3928 C3929 1.370 . S
C3928 C3930 1.363 . S
C3928 H3944 0.931 . S
C3929 C3928 1.370 . S
C3929 C3933 1.408 . S
C3930 C3928 1.363 . S
C3930 C3931 1.370 . S
C3930 C3934 1.524 . S
C3931 C3923 1.503 . S
C3931 C3930 1.370 . S
C3931 C3932 1.403 . S
C3932 C3931 1.403 . S
C3932 C3933 1.404 . S
C3932 C3935 1.539 . S
C3933 C3929 1.408 . S
C3933 C3932 1.404 . S
C3933 H3945 0.930 . S
C3934 C3930 1.524 . S
C3934 H3946 0.956 . S
C3934 H3947 0.961 . S
C3934 H3948 0.961 . S
C3935 C3932 1.539 . S
C3935 H3949 0.958 . S
C3935 H3950 0.961 . S
C3935 H3951 0.960 . S
H3936 C3920 0.931 . S
H3937 C3925 0.929 . S
H3938 C3926 0.960 . S
H3939 C3926 0.962 . S
H3940 C3926 0.960 . S
H3941 C3927 0.961 . S
H3942 C3927 0.961 . S
H3943 C3927 0.961 . S
H3944 C3928 0.931 . S
H3945 C3933 0.930 . S
H3946 C3934 0.956 . S
H3947 C3934 0.961 . S
H3948 C3934 0.961 . S
H3949 C3935 0.958 . S
H3950 C3935 0.961 . S
H3951 C3935 0.960 . S
C3952 C3953 1.391 1_556 S
C3952 C3954 1.394 . S
C3952 H3968 0.931 . S
C3953 C3952 1.391 1_554 S
C3953 C3957 1.376 . S
C3954 C3952 1.394 . S
C3954 C3955 1.369 . S
C3954 C3958 1.531 . S
C3955 C3954 1.369 . S
C3955 C3956 1.410 1_556 S
C3955 C3963 1.503 . S
C3956 C3955 1.410 1_554 S
C3956 C3957 1.392 . S
C3956 C3959 1.511 . S
C3957 C3953 1.376 . S
C3957 C3956 1.392 . S
C3957 H3969 0.929 . S
C3958 C3954 1.531 . S
C3958 H3970 0.960 . S
C3958 H3971 0.962 . S
C3958 H3972 0.960 . S
C3959 C3956 1.511 . S
C3959 H3973 0.961 . S
C3959 H3974 0.961 . S
C3959 H3975 0.961 . S
C3960 C3961 1.370 . S
C3960 C3962 1.363 1_556 S
C3960 H3976 0.931 1_556 S
C3961 C3960 1.370 . S
C3961 C3965 1.408 . S
C3962 C3960 1.363 1_554 S
C3962 C3963 1.370 1_554 S
C3962 C3966 1.524 . S
C3963 C3955 1.503 . S
C3963 C3962 1.370 1_556 S
C3963 C3964 1.403 . S
C3964 C3963 1.403 . S
C3964 C3965 1.404 . S
C3964 C3967 1.539 . S
C3965 C3961 1.408 . S
C3965 C3964 1.404 . S
C3965 H3977 0.930 . S
C3966 C3962 1.524 . S
C3966 H3978 0.956 . S
C3966 H3979 0.961 . S
C3966 H3980 0.961 . S
C3967 C3964 1.539 . S
C3967 H3981 0.958 . S
C3967 H3982 0.961 . S
C3967 H3983 0.960 . S
H3968 C3952 0.931 . S
H3969 C3957 0.929 . S
H3970 C3958 0.960 . S
H3971 C3958 0.962 . S
H3972 C3958 0.960 . S
H3973 C3959 0.961 . S
H3974 C3959 0.961 . S
H3975 C3959 0.961 . S
H3976 C3960 0.931 1_554 S
H3977 C3965 0.930 . S
H3978 C3966 0.956 . S
H3979 C3966 0.961 . S
H3980 C3966 0.961 . S
H3981 C3967 0.958 . S
H3982 C3967 0.961 . S
H3983 C3967 0.960 . S
C3984 C3985 1.391 . S
C3984 C3986 1.394 . S
C3984 H4000 0.931 . S
C3985 C3984 1.391 . S
C3985 C3989 1.376 . S
C3986 C3984 1.394 . S
C3986 C3987 1.369 . S
C3986 C3990 1.531 . S
C3987 C3986 1.369 . S
C3987 C3988 1.410 . S
C3987 C3995 1.503 . S
C3988 C3987 1.410 . S
C3988 C3989 1.392 . S
C3988 C3991 1.511 . S
C3989 C3985 1.376 . S
C3989 C3988 1.392 . S
C3989 H4001 0.929 . S
C3990 C3986 1.531 . S
C3990 H4002 0.960 . S
C3990 H4003 0.962 . S
C3990 H4004 0.960 . S
C3991 C3988 1.511 . S
C3991 H4005 0.961 . S
C3991 H4006 0.961 . S
C3991 H4007 0.961 . S
C3992 C3993 1.370 . S
C3992 C3994 1.363 . S
C3992 H4008 0.931 . S
C3993 C3992 1.370 . S
C3993 C3997 1.408 . S
C3994 C3992 1.363 . S
C3994 C3995 1.370 . S
C3994 C3998 1.524 . S
C3995 C3987 1.503 . S
C3995 C3994 1.370 . S
C3995 C3996 1.403 . S
C3996 C3995 1.403 . S
C3996 C3997 1.404 . S
C3996 C3999 1.539 . S
C3997 C3993 1.408 . S
C3997 C3996 1.404 . S
C3997 H4009 0.930 . S
C3998 C3994 1.524 . S
C3998 H4010 0.956 . S
C3998 H4011 0.961 . S
C3998 H4012 0.961 . S
C3999 C3996 1.539 . S
C3999 H4013 0.958 . S
C3999 H4014 0.961 . S
C3999 H4015 0.960 . S
H4000 C3984 0.931 . S
H4001 C3989 0.929 . S
H4002 C3990 0.960 . S
H4003 C3990 0.962 . S
H4004 C3990 0.960 . S
H4005 C3991 0.961 . S
H4006 C3991 0.961 . S
H4007 C3991 0.961 . S
H4008 C3992 0.931 . S
H4009 C3997 0.930 . S
H4010 C3998 0.956 . S
H4011 C3998 0.961 . S
H4012 C3998 0.961 . S
H4013 C3999 0.958 . S
H4014 C3999 0.961 . S
H4015 C3999 0.960 . S
C4016 C4017 1.391 . S
C4016 C4018 1.394 . S
C4016 H4032 0.931 . S
C4017 C4016 1.391 . S
C4017 C4021 1.376 . S
C4018 C4016 1.394 . S
C4018 C4019 1.369 . S
C4018 C4022 1.531 . S
C4019 C4018 1.369 . S
C4019 C4020 1.410 . S
C4019 C4027 1.503 . S
C4020 C4019 1.410 . S
C4020 C4021 1.392 . S
C4020 C4023 1.511 . S
C4021 C4017 1.376 . S
C4021 C4020 1.392 . S
C4021 H4033 0.929 . S
C4022 C4018 1.531 . S
C4022 H4034 0.960 . S
C4022 H4035 0.962 . S
C4022 H4036 0.960 . S
C4023 C4020 1.511 . S
C4023 H4037 0.961 . S
C4023 H4038 0.961 . S
C4023 H4039 0.961 . S
C4024 C4025 1.370 . S
C4024 C4026 1.363 . S
C4024 H4040 0.931 . S
C4025 C4024 1.370 . S
C4025 C4029 1.408 . S
C4026 C4024 1.363 . S
C4026 C4027 1.370 . S
C4026 C4030 1.524 . S
C4027 C4019 1.503 . S
C4027 C4026 1.370 . S
C4027 C4028 1.403 . S
C4028 C4027 1.403 . S
C4028 C4029 1.404 . S
C4028 C4031 1.539 . S
C4029 C4025 1.408 . S
C4029 C4028 1.404 . S
C4029 H4041 0.930 . S
C4030 C4026 1.524 . S
C4030 H4042 0.956 . S
C4030 H4043 0.961 . S
C4030 H4044 0.961 . S
C4031 C4028 1.539 . S
C4031 H4045 0.958 . S
C4031 H4046 0.961 . S
C4031 H4047 0.960 . S
H4032 C4016 0.931 . S
H4033 C4021 0.929 . S
H4034 C4022 0.960 . S
H4035 C4022 0.962 . S
H4036 C4022 0.960 . S
H4037 C4023 0.961 . S
H4038 C4023 0.961 . S
H4039 C4023 0.961 . S
H4040 C4024 0.931 . S
H4041 C4029 0.930 . S
H4042 C4030 0.956 . S
H4043 C4030 0.961 . S
H4044 C4030 0.961 . S
H4045 C4031 0.958 . S
H4046 C4031 0.961 . S
H4047 C4031 0.960 . S
C977 C109 2.146 . S
C985 C338 2.126 1_556 S
C1009 C61 1.813 . S
C1017 C395 2.079 . S
C1041 C74 1.220 . S
C1049 C418 1.229 . S
C1081 C472 1.414 . S
C1073 C96 1.416 . S
C1105 C25 1.239 1_455 S
C1113 C512 1.191 . S
C1145 C543 0.442 . S
C1137 C40 0.456 . S
C1177 C595 1.361 . S
C1169 C46 1.351 . S
C1201 C5 1.266 . S
C1209 C618 1.703 . S
C1241 C355 2.325 . S
C1233 C229 2.057 . S
C1265 C249 0.433 . S
C1273 C392 0.549 . S
C1305 C435 1.147 . S
C1297 C271 0.912 . S
C1337 C458 1.503 . S
C1329 C172 1.475 . S
C1361 C236 1.824 . S
C1369 C498 1.851 . S
C1401 C546 1.598 . S
C1393 C242 1.595 . S
C1433 C592 0.344 . S
C1425 C278 0.195 . S
C1465 C635 2.061 . S
C1457 C179 2.086 . S
C1497 C352 1.392 1_565 S
C1489 C159 1.131 . S
C1521 C285 1.602 1_554 S
C1529 C675 1.873 . S
C1561 C707 2.519 . S
C1553 C333 2.530 . S
C1593 C738 0.579 1_655 S
C1585 C320 0.604 . S
C1617 C123 1.375 . S
C1625 C632 1.320 . S
C1649 C138 1.568 . S
C1657 C432 1.529 . S
C1681 C326 2.352 . S
C1689 C795 2.340 . S
C1721 C818 0.506 . S
C1713 C298 0.602 . S
C1753 C347 2.125 . S
C1745 C67 2.065 . S
C1785 C826 2.017 . S
C1777 C110 2.007 . S
C1809 C88 1.180 . S
C1817 C427 1.200 . S
C1841 C75 1.185 . S
C1849 C783 1.321 . S
C1881 C503 1.223 . S
C1873 C11 1.148 . S
C1905 C47 0.525 . S
C1913 C712 0.445 . S
C1945 C586 1.205 . S
C1937 C32 1.034 . S
C1977 C867 1.758 . S
C1969 C26 1.817 . S
C2009 C346 2.428 . S
C2001 C152 2.441 . S
C2041 C823 0.502 . S
C2033 C319 0.604 . S
C2065 C124 1.127 . S
C2073 C426 1.113 . S
C2097 C284 1.506 . S
C2105 C787 1.511 . S
C2129 C145 1.784 . S
C2137 C507 1.839 . S
C2169 C715 1.493 . S
C2161 C312 1.508 . S
C2193 C117 0.792 1_565 S
C2201 C583 0.403 . S
C2225 C291 1.986 . S
C2233 C866 1.994 . S
C2257 C194 1.506 . S
C2265 C343 1.479 . S
C2289 C180 1.847 . S
C2297 C666 1.849 . S
C2321 C263 2.401 . S
C2329 C538 2.381 . S
C2353 C243 0.718 . S
C2361 C747 0.518 . S
C2393 C863 1.375 . S
C2385 C277 1.391 . S
C2417 C215 1.427 . S
C2425 C423 1.509 . S
C2457 C466 2.237 . S
C2449 C256 2.208 . S
C2489 C387 0.588 . S
C2481 C200 0.673 . S
C2513 C81 2.151 . S
C2521 C898 2.135 . S
C2553 C835 2.076 . S
C2545 C89 1.807 . S
C2577 C102 1.170 . S
C2585 C938 1.213 1_556 S
C2609 C68 1.419 . S
C2617 C792 1.413 . S
C2641 C53 1.239 . S
C2649 C672 1.192 . S
C2681 C703 0.434 . S
C2673 C12 0.414 . S
C2713 C755 1.372 . S
C2705 C18 1.371 . S
C2745 C858 1.687 . S
C2737 C33 1.387 . S
C2777 C915 2.323 . S
C2769 C257 2.014 . S
C2801 C193 0.410 . S
C2809 C832 0.497 . S
C2841 C955 1.146 . S
C2833 C201 0.915 . S
C2873 C778 1.503 . S
C2865 C214 1.477 . S
C2905 C658 1.852 . S
C2897 C264 1.828 . S
C2929 C186 1.587 . S
C2937 C706 1.600 . S
C2969 C752 0.370 . S
C2961 C208 0.247 . S
C2993 C221 2.085 . S
C3001 C875 2.074 . S
C3033 C912 1.411 . S
C3025 C313 1.160 . S
C3057 C131 1.646 . S
C3065 C515 1.873 . S
C3097 C547 2.507 . S
C3089 C151 2.507 . S
C3129 C578 0.590 . S
C3121 C166 0.614 . S
C3161 C872 1.293 . S
C3153 C305 1.390 . S
C3185 C292 1.556 . S
C3193 C952 1.536 . S
C3225 C475 2.341 . S
C3217 C144 2.343 . S
C3257 C378 0.548 . S
C3249 C116 0.592 . S
C3281 C95 2.054 . S
C3289 C907 2.116 . S
C3321 C386 2.020 . S
C3313 C82 2.021 . S
C3345 C60 1.214 . S
C3353 C947 1.209 . S
C3377 C103 1.231 . S
C3385 C463 1.330 . S
C3409 C39 1.170 . S
C3417 C663 1.218 . S
C3449 C552 0.405 . S
C3441 C19 0.679 . S
C3473 C4 1.087 . S
C3481 C746 1.185 . S
C3505 C54 1.812 . S
C3513 C627 1.765 . S
C3545 C906 2.432 . S
C3537 C334 2.439 . S
C3569 C165 0.434 . S
C3577 C383 0.581 . S
C3609 C946 1.118 . S
C3601 C306 1.126 . S
C3633 C130 1.503 . S
C3641 C467 1.511 . S
C3665 C327 1.757 . S
C3673 C667 1.842 . S
C3705 C555 1.493 . S
C3697 C158 1.485 . S
C3729 C299 0.751 . S
C3737 C743 0.371 . S
C3769 C626 1.993 . S
C3761 C137 1.974 . S
C3801 C903 1.476 . S
C3793 C250 1.513 . S
C3833 C506 1.837 1_665 S
C3825 C222 1.852 . S
C3857 C235 2.396 . S
C3865 C698 2.390 . S
C3897 C587 0.515 . S
C3889 C187 0.738 . S
C3921 C207 1.314 . S
C3929 C623 1.400 . S
C3953 C173 1.440 . S
C3961 C943 1.514 . S
C3993 C786 2.238 . S
C3985 C228 2.208 1_565 S
C4025 C827 0.645 . S
C4017 C270 0.552 . S
