# Generated by pormake.
# Topology tsx, (6,3)-cn, num edge types: 1
# Building blocks:
#     Node 0, Type 0, BuildingBlock: FUNLAD_clean_sbu_0, # of connection points: 6
#     Node 1, Type 0, BuildingBlock: FUNLAD_clean_sbu_0, # of connection points: 6
#     Node 2, Type 1, BuildingBlock: WUSLED_clean_sbu_0, # of connection points: 3
#     Node 3, Type 1, BuildingBlock: WUSLED_clean_sbu_0, # of connection points: 3
#     Node 4, Type 1, BuildingBlock: WUSLED_clean_sbu_0, # of connection points: 3
#     Node 5, Type 1, BuildingBlock: WUSLED_clean_sbu_0, # of connection points: 3
#     Edge 6, Type (0, 1), BuildingBlock: OJICUG_clean_linker_0, # of connection points: 2
#     Edge 7, Type (0, 1), BuildingBlock: OJICUG_clean_linker_0, # of connection points: 2
#     Edge 8, Type (0, 1), BuildingBlock: OJICUG_clean_linker_0, # of connection points: 2
#     Edge 9, Type (0, 1), BuildingBlock: OJICUG_clean_linker_0, # of connection points: 2
#     Edge 10, Type (0, 1), BuildingBlock: OJICUG_clean_linker_0, # of connection points: 2
#     Edge 11, Type (0, 1), BuildingBlock: OJICUG_clean_linker_0, # of connection points: 2
#     Edge 12, Type (0, 1), BuildingBlock: OJICUG_clean_linker_0, # of connection points: 2
#     Edge 13, Type (0, 1), BuildingBlock: OJICUG_clean_linker_0, # of connection points: 2
#     Edge 14, Type (0, 1), BuildingBlock: OJICUG_clean_linker_0, # of connection points: 2
#     Edge 15, Type (0, 1), BuildingBlock: OJICUG_clean_linker_0, # of connection points: 2
#     Edge 16, Type (0, 1), BuildingBlock: OJICUG_clean_linker_0, # of connection points: 2
#     Edge 17, Type (0, 1), BuildingBlock: OJICUG_clean_linker_0, # of connection points: 2
# Relax obj value: 0.156
# Max RMSD: 0.151
# Mean RMSD: 0.079
data_MOF--net-tsx--node1-FUNLAD_clean_sbu_0--node2-WUSLED_clean_sbu_0--edge1-OJICUG_clean_linker_0
_symmetry_space_group_name_H-M    P1
_symmetry_Int_Tables_number       1
_symmetry_cell_setting            triclinic
loop_
_symmetry_equiv_pos_as_xyz
'x, y, z'
_cell_length_a     20.378073
_cell_length_b     21.627799
_cell_length_c     41.884809
_cell_angle_alpha  91.049302
_cell_angle_beta   91.876914
_cell_angle_gamma 89.965148
loop_
_atom_site_label
_atom_site_type_symbol
_atom_site_fract_x
_atom_site_fract_y
_atom_site_fract_z
_atom_type_partial_charge
C0 C 0.90909 0.91759 0.02124 0.0
N1 N 0.00187 0.01052 0.09948 0.0
C2 C 0.94638 0.99378 0.11447 0.0
C3 C 0.94566 0.99229 0.14782 0.0
C4 C 0.00198 0.0098 0.16584 0.0
C5 C 0.05826 0.02735 0.14992 0.0
C6 C 0.05746 0.02654 0.11658 0.0
Zn7 Zn 0.00204 0.0122 0.05037 0.0
C8 C 0.09708 0.92207 0.02397 0.0
N9 N 3e-05 0.01216 0.94792 0.0
C10 C 0.94379 1.0022 0.93006 0.0
C11 C 0.05799 0.02326 0.93371 0.0
C12 C 0.06079 0.02537 0.90049 0.0
C13 C 0.00386 0.01437 0.88173 0.0
C14 C 0.94482 1.00227 0.89668 0.0
Zn15 Zn -0.00099 0.01054 0.99709 0.0
O16 O 0.93573 0.93733 0.04732 0.0
C17 C 0.90392 0.1005 0.0238 0.0
O18 O 0.9236 0.94245 0.99517 0.0
H19 H 0.10254 0.02986 0.94805 0.0
H20 H 0.90233 0.98196 0.10062 0.0
H21 H 0.89807 0.99383 0.94163 0.0
O22 O 0.92297 0.07669 0.05004 0.0
O23 O 0.92861 0.08181 0.99782 0.0
H24 H 0.10139 0.03891 0.10442 0.0
O25 O 0.07457 0.0786 0.99986 0.0
O26 O 0.06912 0.0868 0.05191 0.0
O27 O 0.06948 0.93872 0.99784 0.0
O28 O 0.08108 0.94784 0.05012 0.0
C29 C 0.09356 0.10423 0.02606 0.0
H30 H 0.90114 0.97914 0.1594 0.0
H31 H 0.10261 0.04103 0.16317 0.0
H32 H 0.10727 0.03391 0.88953 0.0
H33 H 0.90013 0.99299 0.88269 0.0
C34 C 0.40732 0.41891 0.52088 0.0
N35 N 0.5017 0.51037 0.5993 0.0
C36 C 0.44589 0.49456 0.61429 0.0
C37 C 0.44516 0.49295 0.64764 0.0
C38 C 0.50187 0.50927 0.66563 0.0
C39 C 0.55847 0.52594 0.64977 0.0
C40 C 0.55762 0.52533 0.61641 0.0
Zn41 Zn 0.50162 0.51218 0.55014 0.0
C42 C 0.59543 0.42107 0.52327 0.0
N43 N 0.4998 0.5127 0.44768 0.0
C44 C 0.44369 0.50185 0.42986 0.0
C45 C 0.55755 0.52452 0.43342 0.0
C46 C 0.56023 0.52661 0.40022 0.0
C47 C 0.5035 0.5145 0.3815 0.0
C48 C 0.44471 0.50157 0.3965 0.0
Zn49 Zn 0.49893 0.51095 0.49682 0.0
O50 O 0.43383 0.43809 0.5471 0.0
C51 C 0.40475 0.60153 0.52353 0.0
O52 O 0.42277 0.44355 0.49491 0.0
H53 H 0.6021 0.53162 0.44769 0.0
H54 H 0.40159 0.48362 0.60045 0.0
H55 H 0.3981 0.493 0.44144 0.0
O56 O 0.42376 0.57807 0.54989 0.0
O57 O 0.42925 0.58222 0.49764 0.0
H58 H 0.60174 0.5371 0.60424 0.0
O59 O 0.57518 0.57814 0.49954 0.0
O60 O 0.57022 0.58624 0.55164 0.0
O61 O 0.56859 0.43927 0.49727 0.0
O62 O 0.57924 0.4461 0.5496 0.0
C63 C 0.59462 0.60343 0.52573 0.0
H64 H 0.40043 0.4806 0.65926 0.0
H65 H 0.60293 0.53902 0.66309 0.0
H66 H 0.60655 0.53577 0.38924 0.0
H67 H 0.40016 0.4915 0.38255 0.0
C68 C 0.88985 0.13732 0.51091 0.0
C69 C 0.8749 0.17621 0.48532 0.0
C70 C 0.79255 0.22898 0.51686 0.0
C71 C 0.82678 0.22184 0.48832 0.0
C72 C 0.80856 0.19023 0.54255 0.0
C73 C 0.85685 0.14479 0.53955 0.0
U74 U -0.00049 0.02408 0.46405 0.0
O75 O 0.09617 0.98876 0.47977 0.0
O76 O 0.01204 0.9237 0.47259 0.0
C77 C 0.07371 0.93203 0.4818 0.0
C78 C 0.93736 0.08687 0.508 0.0
C79 C 0.11665 0.88195 0.49328 0.0
C80 C 0.2015 0.84339 0.53008 0.0
C81 C 0.15869 0.89063 0.52029 0.0
C82 C 0.15888 0.77808 0.48656 0.0
C83 C 0.20338 0.78761 0.5125 0.0
C84 C 0.11549 0.82469 0.47719 0.0
C85 C -0.01383 0.04171 0.36998 0.0
C86 C 0.03094 0.98585 0.32467 0.0
C87 C 0.95484 0.07054 0.31594 0.0
C88 C 0.95021 0.07898 0.34879 0.0
C89 C -0.00457 0.02429 0.30349 0.0
C90 C 0.02656 0.9947 0.35791 0.0
C91 C 0.97735 0.05344 0.40421 0.0
O92 O 0.91433 0.03608 0.49419 0.0
O93 O -0.00382 0.10169 0.49872 0.0
O94 O 0.02705 0.07592 0.42161 0.0
O95 O 0.94112 0.01395 0.41928 0.0
H96 H 0.89996 0.17091 0.46302 0.0
H97 H 0.81646 0.25163 0.46827 0.0
H98 H 0.7828 0.19402 0.56471 0.0
H99 H 0.86774 0.11475 0.55947 0.0
H100 H 0.23555 0.85169 0.55011 0.0
H101 H 0.15944 0.93428 0.53333 0.0
H102 H 0.15954 0.73524 0.47275 0.0
H103 H 0.08282 0.81683 0.4566 0.0
H104 H 0.06269 0.94994 0.31552 0.0
H105 H 0.92641 0.10022 0.30017 0.0
H106 H 0.91822 0.11497 0.35772 0.0
H107 H 0.05438 0.96521 0.37401 0.0
C108 C 0.90281 0.87483 0.53647 0.0
C109 C 0.88431 0.84237 0.56337 0.0
C110 C 0.80236 0.78547 0.53088 0.0
C111 C 0.83443 0.798 0.56059 0.0
C112 C 0.82229 0.81717 0.50386 0.0
C113 C 0.87192 0.86169 0.50671 0.0
U114 U 0.0149 0.99335 0.58232 0.0
O115 O 0.02852 0.0913 0.57008 0.0
O116 O 0.11274 0.02567 0.56852 0.0
C117 C 0.09024 0.0817 0.56335 0.0
C118 C 0.95098 0.9252 0.539 0.0
C119 C 0.13272 0.13177 0.55304 0.0
C120 C 0.19442 0.18172 0.51188 0.0
C121 C 0.15158 0.13508 0.52114 0.0
C122 C 0.19913 0.22182 0.56635 0.0
C123 C 0.21958 0.22458 0.53469 0.0
C124 C 0.15576 0.17602 0.57541 0.0
C125 C 0.00234 0.98287 0.67702 0.0
C126 C 0.04868 0.03524 0.7245 0.0
C127 C 0.96734 0.9546 0.72949 0.0
C128 C 0.96367 0.94702 0.69648 0.0
C129 C 0.01023 0.9982 0.74406 0.0
C130 C 0.04488 0.02749 0.69102 0.0
C131 C -0.00551 0.97135 0.64245 0.0
O132 O 0.92875 0.97758 0.55061 0.0
O133 O 0.00997 0.91131 0.5503 0.0
O134 O 0.04328 0.9463 0.62698 0.0
O135 O 0.95879 0.0103 0.62558 0.0
H136 H 0.90759 0.8521 0.58654 0.0
H137 H 0.82069 0.77362 0.58171 0.0
H138 H 0.79822 0.80886 0.48074 0.0
H139 H 0.88521 0.88686 0.48574 0.0
H140 H 0.20967 0.18293 0.48736 0.0
H141 H 0.13392 0.10125 0.50355 0.0
H142 H 0.21768 0.25473 0.58424 0.0
H143 H 0.14147 0.17427 0.60007 0.0
H144 H 0.0822 0.06927 0.73507 0.0
H145 H 0.93591 0.92639 0.74366 0.0
H146 H 0.93009 0.91282 0.68604 0.0
H147 H 0.07491 0.05588 0.67625 0.0
C148 C 0.3882 0.63657 1.01091 0.0
C149 C 0.36274 0.667 0.98398 0.0
C150 C 0.2916 0.72857 0.01778 0.0
C151 C 0.31464 0.71259 0.9874 0.0
C152 C 0.31798 0.69848 0.04472 0.0
C153 C 0.36571 0.65258 0.04125 0.0
U154 U 0.49858 0.52323 0.96415 0.0
O155 O 0.59567 0.48882 0.97988 0.0
O156 O 0.51229 0.42293 0.97275 0.0
C157 C 0.57403 0.43178 0.98172 0.0
C158 C 0.43581 0.58608 1.00795 0.0
C159 C 0.61752 0.38212 0.99331 0.0
C160 C 0.69973 0.34297 0.03138 0.0
C161 C 0.65634 0.38974 0.0215 0.0
C162 C 0.66468 0.28043 0.98534 0.0
C163 C 0.70544 0.28878 1.01275 0.0
C164 C 0.62063 0.32647 0.97588 0.0
C165 C 0.48544 0.54095 0.86998 0.0
C166 C 0.53288 0.48802 0.82443 0.0
C167 C 0.45151 0.56838 0.81607 0.0
C168 C 0.44698 0.57635 0.84894 0.0
C169 C 0.49482 0.52466 0.80334 0.0
C170 C 0.52838 0.49627 0.85771 0.0
C171 C 0.47666 0.55231 0.90426 0.0
O172 O 0.41307 0.53522 0.99408 0.0
O173 O 0.49465 0.60106 0.99876 0.0
O174 O 0.52609 0.57512 0.92172 0.0
O175 O 0.4406 0.5126 0.91928 0.0
H176 H 0.37953 0.65503 0.96038 0.0
H177 H 0.29558 0.7356 0.96629 0.0
H178 H 0.30077 0.70957 0.06834 0.0
H179 H 0.38458 0.62904 0.06225 0.0
H180 H 0.73103 0.35038 0.05252 0.0
H181 H 0.65403 0.43218 0.03548 0.0
H182 H 0.66862 0.23896 0.97062 0.0
H183 H 0.59074 0.31952 0.95425 0.0
H184 H 0.56675 0.454 0.8152 0.0
H185 H 0.42072 0.59645 0.80052 0.0
H186 H 0.41302 0.61051 0.85801 0.0
H187 H 0.55817 0.46817 0.87369 0.0
C188 C 0.40364 0.37435 0.03617 0.0
C189 C 0.39283 0.33502 0.06167 0.0
C190 C 0.30335 0.28476 0.03101 0.0
C191 C 0.3432 0.29038 0.05906 0.0
C192 C 0.31572 0.32342 1.00527 0.0
C193 C 0.36542 0.36782 1.00789 0.0
U194 U 0.51469 0.49352 0.08215 0.0
O195 O 0.52663 0.59181 0.07018 0.0
O196 O 0.61174 0.52723 0.0681 0.0
C197 C 0.58839 0.58307 0.06326 0.0
C198 C 0.45147 0.42494 0.03885 0.0
C199 C 0.62988 0.63355 0.05269 0.0
C200 C 0.69673 0.68038 1.01253 0.0
C201 C 0.65349 0.63389 0.02154 0.0
C202 C 0.69144 0.72668 0.06554 0.0
C203 C 0.71748 0.72607 0.03488 0.0
C204 C 0.64778 0.68098 0.07432 0.0
C205 C 0.50208 0.4829 0.17677 0.0
C206 C 0.55016 0.53332 0.2244 0.0
C207 C 0.46479 0.45635 0.22906 0.0
C208 C 0.46135 0.44883 0.19606 0.0
C209 C 0.50968 0.49795 0.24382 0.0
C210 C 0.54646 0.52575 0.19092 0.0
C211 C 0.49464 0.47118 0.14223 0.0
O212 O 0.42871 0.47712 0.05042 0.0
O213 O 0.5106 0.4115 0.05013 0.0
O214 O 0.54398 0.44699 0.12682 0.0
O215 O 0.45816 0.50946 0.12534 0.0
H216 H 0.42191 0.33951 0.08371 0.0
H217 H 0.33573 0.26053 0.07909 0.0
H218 H 0.2857 0.32074 0.98347 0.0
H219 H 0.37303 0.39815 0.98802 0.0
H220 H 0.71608 0.67908 0.98873 0.0
H221 H 0.63948 0.59774 1.00446 0.0
H222 H 0.7062 0.76192 0.08304 0.0
H223 H 0.62963 0.68157 0.09835 0.0
H224 H 0.58525 0.56582 0.23506 0.0
H225 H 0.4316 0.42963 0.24303 0.0
H226 H 0.42637 0.41603 0.1855 0.0
H227 H 0.57808 0.55278 0.17626 0.0
C228 C 0.18279 0.16219 0.99965 0.0
C229 C 0.14492 0.15252 0.02658 0.0
H230 H 0.26342 0.21056 0.98008 0.0
C231 C 0.15784 0.18824 0.0544 0.0
H232 H 0.17399 0.13537 0.97783 0.0
C233 C 0.20856 0.23164 0.05558 0.0
C234 C 0.24794 0.24003 0.02906 0.0
H235 H 0.12893 0.18249 0.07539 0.0
H236 H 0.21689 0.25873 0.07733 0.0
C237 C 0.23392 0.20539 1.00091 0.0
C238 C 0.20019 0.87209 0.04511 0.0
C239 C 0.14543 0.87138 0.02386 0.0
H240 H 0.29031 0.82755 0.0595 0.0
C241 C 0.13706 0.82172 1.00207 0.0
H242 H 0.20753 0.90993 0.06216 0.0
C243 C 0.18366 0.77449 1.00081 0.0
C244 C 0.2399 0.7763 0.02109 0.0
H245 H 0.09441 0.81945 0.98595 0.0
H246 H 0.17605 0.73674 0.98373 0.0
C247 C 0.24728 0.825 0.04365 0.0
C248 C 0.86974 0.82267 0.04662 0.0
C249 C 0.86325 0.865 0.02177 0.0
H250 H 0.82947 0.74453 0.06944 0.0
C251 C 0.81189 0.85743 0.99875 0.0
H252 H 0.90972 0.8265 0.06425 0.0
C253 C 0.76531 0.81029 1.00189 0.0
C254 C 0.77014 0.77034 0.02796 0.0
H255 H 0.80622 0.88937 0.97923 0.0
H256 H 0.72421 0.80679 0.98488 0.0
C257 C 0.82395 0.77571 0.04957 0.0
C258 C 0.8546 0.19226 0.99761 0.0
C259 C 0.85548 0.15129 0.0232 0.0
H260 H 0.80693 0.26867 0.97499 0.0
C261 C 0.8097 0.1593 0.04741 0.0
H262 H 0.89011 0.18816 0.97899 0.0
C263 C 0.76173 0.20581 0.04503 0.0
C264 C 0.75961 0.24473 0.01853 0.0
H265 H 0.80966 0.12849 0.06751 0.0
H266 H 0.72515 0.20995 0.06314 0.0
C267 C 0.80734 0.23852 0.99537 0.0
C268 C 0.64858 0.69718 0.5503 0.0
C269 C 0.64584 0.65166 0.526 0.0
H270 H 0.6993 0.77614 0.57033 0.0
C271 C 0.69311 0.65202 0.5023 0.0
H272 H 0.61202 0.69861 0.56851 0.0
C273 C 0.74359 0.69594 0.50355 0.0
C274 C 0.74734 0.74052 0.5284 0.0
H275 H 0.69211 0.61732 0.48329 0.0
H276 H 0.78058 0.69405 0.48556 0.0
C277 C 0.69858 0.74137 0.55138 0.0
C278 C 0.64947 0.33347 0.49485 0.0
C279 C 0.64406 0.37038 0.52258 0.0
H280 H 0.69909 0.25906 0.47166 0.0
C281 C 0.6855 0.35836 0.54923 0.0
H282 H 0.61733 0.34067 0.47413 0.0
C283 C 0.73315 0.31183 0.54766 0.0
C284 C 0.73989 0.27621 0.51948 0.0
H285 H 0.68217 0.38581 0.57101 0.0
H286 H 0.76584 0.30495 0.56819 0.0
C287 C 0.69655 0.2868 0.49338 0.0
C288 C 0.37459 0.31817 0.54234 0.0
C289 C 0.36185 0.36611 0.52096 0.0
H290 H 0.34001 0.23464 0.56245 0.0
C291 C 0.30491 0.36376 0.50107 0.0
H292 H 0.41885 0.31832 0.55741 0.0
C293 C 0.25926 0.31579 0.50415 0.0
C294 C 0.27076 0.26972 0.52692 0.0
H295 H 0.29436 0.40031 0.48432 0.0
H296 H 0.21391 0.31622 0.48992 0.0
C297 C 0.32974 0.27027 0.54513 0.0
C298 C 0.31609 0.66572 0.54871 0.0
C299 C 0.35542 0.65161 0.5225 0.0
H300 H 0.23613 0.72067 0.56621 0.0
C301 C 0.34691 0.68553 0.49443 0.0
H302 H 0.32195 0.64054 0.57074 0.0
C303 C 0.2986 0.73068 0.49198 0.0
C304 C 0.25748 0.74312 0.51746 0.0
H305 H 0.37717 0.6768 0.47405 0.0
H306 H 0.29262 0.75548 0.46982 0.0
C307 C 0.26729 0.71143 0.5462 0.0
C308 C 0.01686 0.06772 0.2175 0.0
C309 C 0.00164 0.01218 0.20113 0.0
H310 H 0.02682 0.11472 0.26282 0.0
C311 C -0.01351 0.9595 0.21862 0.0
H312 H 0.02833 0.10897 0.20448 0.0
C313 C -0.0131 0.96243 0.2521 0.0
C314 C 0.00099 0.01845 0.2684 0.0
H315 H 0.97476 0.91614 0.20639 0.0
H316 H 0.97448 0.92155 0.26519 0.0
C317 C 0.016 0.07096 0.25078 0.0
C318 C 0.01073 0.06537 0.82872 0.0
C319 C 0.00729 0.01132 0.84666 0.0
H320 H 0.01421 0.10383 0.78187 0.0
C321 C 0.00869 0.95359 0.83108 0.0
H322 H 0.01006 0.11036 0.84051 0.0
C323 C 0.01234 0.94972 0.79792 0.0
C324 C 0.0137 1.00358 0.77954 0.0
H325 H 0.00706 0.91144 0.84462 0.0
H326 H 0.0135 0.90433 0.78659 0.0
C327 C 0.01375 0.06156 0.79533 0.0
C328 C 0.49724 0.458 0.7187 0.0
C329 C 0.50129 0.51209 0.70083 0.0
H330 H 0.49342 0.41933 0.76553 0.0
C331 C 0.50534 0.56958 0.7167 0.0
H332 H 0.49427 0.41318 0.70676 0.0
C333 C 0.50443 0.5732 0.74997 0.0
C334 C 0.50015 0.51931 0.76811 0.0
H335 H 0.50847 0.61179 0.70328 0.0
H336 H 0.50706 0.61835 0.76157 0.0
C337 C 0.49731 0.46151 0.75218 0.0
C338 C 0.50265 0.45364 0.33076 0.0
C339 C 0.5069 0.5112 0.34644 0.0
H340 H 0.50355 0.40412 0.28628 0.0
C341 C 0.516 0.56471 0.32863 0.0
H342 H 0.49679 0.41177 0.3442 0.0
C343 C 0.51872 0.56073 0.29525 0.0
C344 C 0.51308 0.50302 0.27933 0.0
H345 H 0.51975 0.60955 0.34051 0.0
H346 H 0.52341 0.60283 0.28191 0.0
C347 C 0.50641 0.44948 0.29762 0.0
loop_
_geom_bond_atom_site_label_1
_geom_bond_atom_site_label_2
_geom_bond_distance
_geom_bond_site_symmetry_2
_ccdc_geom_bond_type
C0 O16 1.251 . S
C0 O18 1.254 1_554 S
N1 C2 1.333 1_445 S
N1 C6 1.307 . S
N1 Zn7 2.020 . S
C2 N1 1.333 1_665 S
C2 C3 1.379 . S
C2 H20 0.952 . S
C3 C2 1.379 . S
C3 C4 1.390 1_665 S
C3 H30 0.949 . S
C4 C3 1.390 1_445 S
C4 C5 1.357 . S
C5 C4 1.357 . S
C5 C6 1.370 . S
C5 H31 0.950 . S
C6 N1 1.307 . S
C6 C5 1.370 . S
C6 H24 0.948 . S
Zn7 N1 2.020 . S
Zn7 O16 2.039 1_445 S
Zn7 O22 2.034 1_455 S
Zn7 O26 2.025 . S
Zn7 O28 2.024 1_545 S
C8 O27 1.246 1_554 S
C8 O28 1.249 . S
N9 C10 1.304 1_445 S
N9 C11 1.339 . S
N9 Zn15 2.020 . S
C10 N9 1.304 1_665 S
C10 C14 1.370 . S
C10 H21 0.948 . S
C11 N9 1.339 . S
C11 C12 1.379 . S
C11 H19 0.952 . S
C12 C11 1.379 . S
C12 C13 1.390 . S
C12 H32 0.949 . S
C13 C12 1.390 . S
C13 C14 1.357 1_445 S
C14 C10 1.370 . S
C14 C13 1.357 1_665 S
C14 H33 0.950 . S
Zn15 N9 2.020 . S
Zn15 O18 2.025 1_445 S
Zn15 O23 2.024 1_455 S
Zn15 O25 2.039 . S
Zn15 O27 2.034 1_545 S
O16 C0 1.251 . S
O16 Zn7 2.039 1_665 S
C17 O22 1.246 . S
C17 O23 1.249 1_554 S
O18 C0 1.254 1_556 S
O18 Zn15 2.025 1_665 S
H19 C11 0.952 . S
H20 C2 0.952 . S
H21 C10 0.948 . S
O22 Zn7 2.034 1_655 S
O22 C17 1.246 . S
O23 Zn15 2.024 1_655 S
O23 C17 1.249 1_556 S
H24 C6 0.948 . S
O25 Zn15 2.039 . S
O25 C29 1.251 1_556 S
O26 Zn7 2.025 . S
O26 C29 1.254 . S
O27 C8 1.246 1_556 S
O27 Zn15 2.034 1_565 S
O28 Zn7 2.024 1_565 S
O28 C8 1.249 . S
C29 O25 1.251 1_554 S
C29 O26 1.254 . S
H30 C3 0.949 . S
H31 C5 0.950 . S
H32 C12 0.949 . S
H33 C14 0.950 . S
C34 O50 1.251 . S
C34 O52 1.254 . S
N35 C36 1.333 . S
N35 C40 1.307 . S
N35 Zn41 2.020 . S
C36 N35 1.333 . S
C36 C37 1.379 . S
C36 H54 0.952 . S
C37 C36 1.379 . S
C37 C38 1.390 . S
C37 H64 0.949 . S
C38 C37 1.390 . S
C38 C39 1.357 . S
C39 C38 1.357 . S
C39 C40 1.370 . S
C39 H65 0.950 . S
C40 N35 1.307 . S
C40 C39 1.370 . S
C40 H58 0.948 . S
Zn41 N35 2.020 . S
Zn41 O50 2.039 . S
Zn41 O56 2.034 . S
Zn41 O60 2.025 . S
Zn41 O62 2.024 . S
C42 O61 1.246 . S
C42 O62 1.249 . S
N43 C44 1.307 . S
N43 C45 1.333 . S
N43 Zn49 2.020 . S
C44 N43 1.307 . S
C44 C48 1.370 . S
C44 H55 0.948 . S
C45 N43 1.333 . S
C45 C46 1.379 . S
C45 H53 0.952 . S
C46 C45 1.379 . S
C46 C47 1.390 . S
C46 H66 0.949 . S
C47 C46 1.390 . S
C47 C48 1.357 . S
C48 C44 1.370 . S
C48 C47 1.357 . S
C48 H67 0.950 . S
Zn49 N43 2.020 . S
Zn49 O52 2.025 . S
Zn49 O57 2.024 . S
Zn49 O59 2.039 . S
Zn49 O61 2.034 . S
O50 C34 1.251 . S
O50 Zn41 2.039 . S
C51 O56 1.246 . S
C51 O57 1.249 . S
O52 C34 1.254 . S
O52 Zn49 2.025 . S
H53 C45 0.952 . S
H54 C36 0.952 . S
H55 C44 0.948 . S
O56 Zn41 2.034 . S
O56 C51 1.246 . S
O57 Zn49 2.024 . S
O57 C51 1.249 . S
H58 C40 0.948 . S
O59 Zn49 2.039 . S
O59 C63 1.251 . S
O60 Zn41 2.025 . S
O60 C63 1.254 . S
O61 C42 1.246 . S
O61 Zn49 2.034 . S
O62 Zn41 2.024 . S
O62 C42 1.249 . S
C63 O59 1.251 . S
C63 O60 1.254 . S
H64 C37 0.949 . S
H65 C39 0.950 . S
H66 C46 0.949 . S
H67 C48 0.950 . S
C68 C69 1.264 . S
C68 C73 1.479 . S
C68 C78 1.465 . S
C69 C68 1.264 . S
C69 C71 1.339 . S
C69 H96 0.931 . S
C70 C71 1.395 . S
C70 C72 1.320 . S
C71 C69 1.339 . S
C71 C70 1.395 . S
C71 H97 0.929 . S
C72 C70 1.320 . S
C72 C73 1.405 . S
C72 H98 0.930 . S
C73 C68 1.479 . S
C73 C72 1.405 . S
C73 H99 0.931 . S
U74 O75 2.454 1_545 S
U74 O76 2.458 1_545 S
U74 C77 2.984 1_545 S
U74 C78 2.847 1_455 S
U74 C91 2.882 . S
U74 O92 2.441 1_455 S
U74 O93 2.420 1_455 S
U74 O94 2.455 1_545 S
U74 O95 2.449 . S
O75 U74 2.454 1_565 S
O75 C77 1.353 . S
O76 U74 2.458 1_565 S
O76 C77 1.286 . S
C77 U74 2.984 1_565 S
C77 O75 1.353 . S
C77 O76 1.286 . S
C77 C79 1.363 . S
C78 C68 1.465 . S
C78 U74 2.847 1_655 S
C78 O92 1.249 . S
C78 O93 1.202 . S
C79 C77 1.363 . S
C79 C81 1.408 . S
C79 C84 1.342 . S
C80 C81 1.310 . S
C80 C83 1.461 . S
C80 H100 0.932 . S
C81 C79 1.408 . S
C81 C80 1.310 . S
C81 H101 0.930 . S
C82 C83 1.474 . S
C82 C84 1.285 . S
C82 H102 0.929 . S
C83 C80 1.461 . S
C83 C82 1.474 . S
C84 C79 1.342 . S
C84 C82 1.285 . S
C84 H103 0.930 . S
C85 C88 1.424 1_455 S
C85 C90 1.245 1_545 S
C85 C91 1.428 . S
C86 C89 1.260 1_565 S
C86 C90 1.477 . S
C86 H104 0.932 . S
C87 C88 1.384 . S
C87 C89 1.479 1_655 S
C87 H105 0.929 . S
C88 C85 1.424 1_655 S
C88 C87 1.384 . S
C88 H106 0.928 . S
C89 C86 1.260 1_545 S
C89 C87 1.479 1_455 S
C90 C85 1.245 1_565 S
C90 C86 1.477 . S
C90 H107 0.932 . S
C91 U74 2.882 . S
C91 C85 1.428 . S
C91 O94 1.301 1_545 S
C91 O95 1.282 . S
O92 U74 2.441 1_655 S
O92 C78 1.249 . S
O93 U74 2.420 1_655 S
O93 C78 1.202 . S
O94 U74 2.455 1_565 S
O94 C91 1.301 1_565 S
O95 U74 2.449 . S
O95 C91 1.282 . S
H96 C69 0.931 . S
H97 C71 0.929 . S
H98 C72 0.930 . S
H99 C73 0.931 . S
H100 C80 0.932 . S
H101 C81 0.930 . S
H102 C82 0.929 . S
H103 C84 0.930 . S
H104 C86 0.932 . S
H105 C87 0.929 . S
H106 C88 0.928 . S
H107 C90 0.932 . S
C108 C109 1.264 . S
C108 C113 1.479 . S
C108 C118 1.465 . S
C109 C108 1.264 . S
C109 C111 1.339 . S
C109 H136 0.931 . S
C110 C111 1.395 . S
C110 C112 1.320 . S
C111 C109 1.339 . S
C111 C110 1.395 . S
C111 H137 0.929 . S
C112 C110 1.320 . S
C112 C113 1.405 . S
C112 H138 0.930 . S
C113 C108 1.479 . S
C113 C112 1.405 . S
C113 H139 0.931 . S
U114 O115 2.454 1_565 S
U114 O116 2.458 1_565 S
U114 C117 2.984 1_565 S
U114 C118 2.847 1_455 S
U114 C131 2.882 . S
U114 O132 2.441 1_455 S
U114 O133 2.420 1_455 S
U114 O134 2.455 1_565 S
U114 O135 2.449 . S
O115 U114 2.454 1_545 S
O115 C117 1.353 . S
O116 U114 2.458 1_545 S
O116 C117 1.286 . S
C117 U114 2.984 1_545 S
C117 O115 1.353 . S
C117 O116 1.286 . S
C117 C119 1.363 . S
C118 C108 1.465 . S
C118 U114 2.847 1_655 S
C118 O132 1.249 . S
C118 O133 1.202 . S
C119 C117 1.363 . S
C119 C121 1.408 . S
C119 C124 1.342 . S
C120 C121 1.310 . S
C120 C123 1.461 . S
C120 H140 0.932 . S
C121 C119 1.408 . S
C121 C120 1.310 . S
C121 H141 0.930 . S
C122 C123 1.474 . S
C122 C124 1.285 . S
C122 H142 0.929 . S
C123 C120 1.461 . S
C123 C122 1.474 . S
C124 C119 1.342 . S
C124 C122 1.285 . S
C124 H143 0.930 . S
C125 C128 1.424 1_455 S
C125 C130 1.245 1_565 S
C125 C131 1.428 . S
C126 C129 1.260 1_545 S
C126 C130 1.477 . S
C126 H144 0.932 . S
C127 C128 1.384 . S
C127 C129 1.479 1_655 S
C127 H145 0.929 . S
C128 C125 1.424 1_655 S
C128 C127 1.384 . S
C128 H146 0.928 . S
C129 C126 1.260 1_565 S
C129 C127 1.479 1_455 S
C130 C125 1.245 1_545 S
C130 C126 1.477 . S
C130 H147 0.932 . S
C131 U114 2.882 . S
C131 C125 1.428 . S
C131 O134 1.301 1_565 S
C131 O135 1.282 . S
O132 U114 2.441 1_655 S
O132 C118 1.249 . S
O133 U114 2.420 1_655 S
O133 C118 1.202 . S
O134 U114 2.455 1_545 S
O134 C131 1.301 1_545 S
O135 U114 2.449 . S
O135 C131 1.282 . S
H136 C109 0.931 . S
H137 C111 0.929 . S
H138 C112 0.930 . S
H139 C113 0.931 . S
H140 C120 0.932 . S
H141 C121 0.930 . S
H142 C122 0.929 . S
H143 C124 0.930 . S
H144 C126 0.932 . S
H145 C127 0.929 . S
H146 C128 0.928 . S
H147 C130 0.932 . S
C148 C149 1.264 . S
C148 C153 1.479 1_556 S
C148 C158 1.465 . S
C149 C148 1.264 . S
C149 C151 1.339 . S
C149 H176 0.931 . S
C150 C151 1.395 1_554 S
C150 C152 1.320 . S
C151 C149 1.339 . S
C151 C150 1.395 1_556 S
C151 H177 0.929 . S
C152 C150 1.320 . S
C152 C153 1.405 . S
C152 H178 0.930 . S
C153 C148 1.479 1_554 S
C153 C152 1.405 . S
C153 H179 0.931 . S
U154 O155 2.454 . S
U154 O156 2.458 . S
U154 C157 2.984 . S
U154 C158 2.847 . S
U154 C171 2.882 . S
U154 O172 2.441 . S
U154 O173 2.420 . S
U154 O174 2.455 . S
U154 O175 2.449 . S
O155 U154 2.454 . S
O155 C157 1.353 . S
O156 U154 2.458 . S
O156 C157 1.286 . S
C157 U154 2.984 . S
C157 O155 1.353 . S
C157 O156 1.286 . S
C157 C159 1.363 . S
C158 C148 1.465 . S
C158 U154 2.847 . S
C158 O172 1.249 . S
C158 O173 1.202 . S
C159 C157 1.363 . S
C159 C161 1.408 1_556 S
C159 C164 1.342 . S
C160 C161 1.310 . S
C160 C163 1.461 . S
C160 H180 0.932 . S
C161 C159 1.408 1_554 S
C161 C160 1.310 . S
C161 H181 0.930 . S
C162 C163 1.474 1_556 S
C162 C164 1.285 . S
C162 H182 0.929 . S
C163 C160 1.461 . S
C163 C162 1.474 1_554 S
C164 C159 1.342 . S
C164 C162 1.285 . S
C164 H183 0.930 . S
C165 C168 1.424 . S
C165 C170 1.245 . S
C165 C171 1.428 . S
C166 C169 1.260 . S
C166 C170 1.477 . S
C166 H184 0.932 . S
C167 C168 1.384 . S
C167 C169 1.479 . S
C167 H185 0.929 . S
C168 C165 1.424 . S
C168 C167 1.384 . S
C168 H186 0.928 . S
C169 C166 1.260 . S
C169 C167 1.479 . S
C170 C165 1.245 . S
C170 C166 1.477 . S
C170 H187 0.932 . S
C171 U154 2.882 . S
C171 C165 1.428 . S
C171 O174 1.301 . S
C171 O175 1.282 . S
O172 U154 2.441 . S
O172 C158 1.249 . S
O173 U154 2.420 . S
O173 C158 1.202 . S
O174 U154 2.455 . S
O174 C171 1.301 . S
O175 U154 2.449 . S
O175 C171 1.282 . S
H176 C149 0.931 . S
H177 C151 0.929 . S
H178 C152 0.930 . S
H179 C153 0.931 . S
H180 C160 0.932 . S
H181 C161 0.930 . S
H182 C162 0.929 . S
H183 C164 0.930 . S
H184 C166 0.932 . S
H185 C167 0.929 . S
H186 C168 0.928 . S
H187 C170 0.932 . S
C188 C189 1.264 . S
C188 C193 1.479 1_554 S
C188 C198 1.465 . S
C189 C188 1.264 . S
C189 C191 1.339 . S
C189 H216 0.931 . S
C190 C191 1.395 1_556 S
C190 C192 1.320 . S
C191 C189 1.339 . S
C191 C190 1.395 1_554 S
C191 H217 0.929 . S
C192 C190 1.320 . S
C192 C193 1.405 . S
C192 H218 0.930 . S
C193 C188 1.479 1_556 S
C193 C192 1.405 . S
C193 H219 0.931 . S
U194 O195 2.454 . S
U194 O196 2.458 . S
U194 C197 2.984 . S
U194 C198 2.847 . S
U194 C211 2.882 . S
U194 O212 2.441 . S
U194 O213 2.420 . S
U194 O214 2.455 . S
U194 O215 2.449 . S
O195 U194 2.454 . S
O195 C197 1.353 . S
O196 U194 2.458 . S
O196 C197 1.286 . S
C197 U194 2.984 . S
C197 O195 1.353 . S
C197 O196 1.286 . S
C197 C199 1.363 . S
C198 C188 1.465 . S
C198 U194 2.847 . S
C198 O212 1.249 . S
C198 O213 1.202 . S
C199 C197 1.363 . S
C199 C201 1.408 1_554 S
C199 C204 1.342 . S
C200 C201 1.310 . S
C200 C203 1.461 . S
C200 H220 0.932 . S
C201 C199 1.408 1_556 S
C201 C200 1.310 . S
C201 H221 0.930 . S
C202 C203 1.474 1_554 S
C202 C204 1.285 . S
C202 H222 0.929 . S
C203 C200 1.461 . S
C203 C202 1.474 1_556 S
C204 C199 1.342 . S
C204 C202 1.285 . S
C204 H223 0.930 . S
C205 C208 1.424 . S
C205 C210 1.245 . S
C205 C211 1.428 . S
C206 C209 1.260 . S
C206 C210 1.477 . S
C206 H224 0.932 . S
C207 C208 1.384 . S
C207 C209 1.479 . S
C207 H225 0.929 . S
C208 C205 1.424 . S
C208 C207 1.384 . S
C208 H226 0.928 . S
C209 C206 1.260 . S
C209 C207 1.479 . S
C210 C205 1.245 . S
C210 C206 1.477 . S
C210 H227 0.932 . S
C211 U194 2.882 . S
C211 C205 1.428 . S
C211 O214 1.301 . S
C211 O215 1.282 . S
O212 U194 2.441 . S
O212 C198 1.249 . S
O213 U194 2.420 . S
O213 C198 1.202 . S
O214 U194 2.455 . S
O214 C211 1.301 . S
O215 U194 2.449 . S
O215 C211 1.282 . S
H216 C189 0.931 . S
H217 C191 0.929 . S
H218 C192 0.930 . S
H219 C193 0.931 . S
H220 C200 0.932 . S
H221 C201 0.930 . S
H222 C202 0.929 . S
H223 C204 0.930 . S
H224 C206 0.932 . S
H225 C207 0.929 . S
H226 C208 0.928 . S
H227 C210 0.932 . S
C228 C229 1.387 1_556 S
C228 H232 0.950 . S
C228 C237 1.390 . S
C229 C228 1.387 1_554 S
C229 C231 1.387 . S
H230 C237 0.950 . S
C231 C229 1.387 . S
C231 C233 1.390 . S
C231 H235 0.950 . S
H232 C228 0.950 . S
C233 C231 1.390 . S
C233 C234 1.387 1_554 S
C233 H236 0.950 . S
C234 C233 1.387 1_556 S
C234 C237 1.387 . S
H235 C231 0.950 . S
H236 C233 0.950 . S
C237 C228 1.390 . S
C237 H230 0.950 . S
C237 C234 1.387 . S
C238 C239 1.387 . S
C238 H242 0.950 . S
C238 C247 1.390 . S
C239 C238 1.387 . S
C239 C241 1.387 1_554 S
H240 C247 0.950 . S
C241 C239 1.387 1_556 S
C241 C243 1.390 1_556 S
C241 H245 0.950 . S
H242 C238 0.950 . S
C243 C241 1.390 1_554 S
C243 C244 1.387 . S
C243 H246 0.950 1_554 S
C244 C243 1.387 . S
C244 C247 1.387 . S
H245 C241 0.950 . S
H246 C243 0.950 1_556 S
C247 C238 1.390 . S
C247 H240 0.950 . S
C247 C244 1.387 . S
C248 C249 1.387 . S
C248 H252 0.950 . S
C248 C257 1.390 . S
C249 C248 1.387 . S
C249 C251 1.387 1_554 S
H250 C257 0.950 . S
C251 C249 1.387 1_556 S
C251 C253 1.390 . S
C251 H255 0.950 . S
H252 C248 0.950 . S
C253 C251 1.390 . S
C253 C254 1.387 . S
C253 H256 0.950 . S
C254 C253 1.387 . S
C254 C257 1.387 1_556 S
H255 C251 0.950 . S
H256 C253 0.950 . S
C257 C248 1.390 . S
C257 H250 0.950 . S
C257 C254 1.387 1_554 S
C258 C259 1.387 1_556 S
C258 H262 0.950 . S
C258 C267 1.390 . S
C259 C258 1.387 1_554 S
C259 C261 1.387 . S
H260 C267 0.950 . S
C261 C259 1.387 . S
C261 C263 1.390 . S
C261 H265 0.950 . S
H262 C258 0.950 . S
C263 C261 1.390 . S
C263 C264 1.387 . S
C263 H266 0.950 . S
C264 C263 1.387 . S
C264 C267 1.387 1_554 S
H265 C261 0.950 . S
H266 C263 0.950 . S
C267 C258 1.390 . S
C267 H260 0.950 . S
C267 C264 1.387 1_556 S
C268 C269 1.387 . S
C268 H272 0.950 . S
C268 C277 1.390 . S
C269 C268 1.387 . S
C269 C271 1.387 . S
H270 C277 0.950 . S
C271 C269 1.387 . S
C271 C273 1.390 . S
C271 H275 0.950 . S
H272 C268 0.950 . S
C273 C271 1.390 . S
C273 C274 1.387 . S
C273 H276 0.950 . S
C274 C273 1.387 . S
C274 C277 1.387 . S
H275 C271 0.950 . S
H276 C273 0.950 . S
C277 C268 1.390 . S
C277 H270 0.950 . S
C277 C274 1.387 . S
C278 C279 1.387 . S
C278 H282 0.950 . S
C278 C287 1.390 . S
C279 C278 1.387 . S
C279 C281 1.387 . S
H280 C287 0.950 . S
C281 C279 1.387 . S
C281 C283 1.390 . S
C281 H285 0.950 . S
H282 C278 0.950 . S
C283 C281 1.390 . S
C283 C284 1.387 . S
C283 H286 0.950 . S
C284 C283 1.387 . S
C284 C287 1.387 . S
H285 C281 0.950 . S
H286 C283 0.950 . S
C287 C278 1.390 . S
C287 H280 0.950 . S
C287 C284 1.387 . S
C288 C289 1.387 . S
C288 H292 0.950 . S
C288 C297 1.390 . S
C289 C288 1.387 . S
C289 C291 1.387 . S
H290 C297 0.950 . S
C291 C289 1.387 . S
C291 C293 1.390 . S
C291 H295 0.950 . S
H292 C288 0.950 . S
C293 C291 1.390 . S
C293 C294 1.387 . S
C293 H296 0.950 . S
C294 C293 1.387 . S
C294 C297 1.387 . S
H295 C291 0.950 . S
H296 C293 0.950 . S
C297 C288 1.390 . S
C297 H290 0.950 . S
C297 C294 1.387 . S
C298 C299 1.387 . S
C298 H302 0.950 . S
C298 C307 1.390 . S
C299 C298 1.387 . S
C299 C301 1.387 . S
H300 C307 0.950 . S
C301 C299 1.387 . S
C301 C303 1.390 . S
C301 H305 0.950 . S
H302 C298 0.950 . S
C303 C301 1.390 . S
C303 C304 1.387 . S
C303 H306 0.950 . S
C304 C303 1.387 . S
C304 C307 1.387 . S
H305 C301 0.950 . S
H306 C303 0.950 . S
C307 C298 1.390 . S
C307 H300 0.950 . S
C307 C304 1.387 . S
C308 C309 1.387 . S
C308 H312 0.950 . S
C308 C317 1.390 . S
C309 C308 1.387 . S
C309 C311 1.387 1_445 S
H310 C317 0.950 . S
C311 C309 1.387 1_665 S
C311 C313 1.390 . S
C311 H315 0.950 . S
H312 C308 0.950 . S
C313 C311 1.390 . S
C313 C314 1.387 1_565 S
C313 H316 0.950 . S
C314 C313 1.387 1_545 S
C314 C317 1.387 1_655 S
H315 C311 0.950 . S
H316 C313 0.950 . S
C317 C308 1.390 . S
C317 H310 0.950 . S
C317 C314 1.387 1_455 S
C318 C319 1.387 . S
C318 H322 0.950 . S
C318 C327 1.390 . S
C319 C318 1.387 . S
C319 C321 1.387 1_545 S
H320 C327 0.950 . S
C321 C319 1.387 1_565 S
C321 C323 1.390 . S
C321 H325 0.950 . S
H322 C318 0.950 . S
C323 C321 1.390 . S
C323 C324 1.387 1_565 S
C323 H326 0.950 . S
C324 C323 1.387 1_545 S
C324 C327 1.387 . S
H325 C321 0.950 . S
H326 C323 0.950 . S
C327 C318 1.390 . S
C327 H320 0.950 . S
C327 C324 1.387 . S
C328 C329 1.387 . S
C328 H332 0.950 . S
C328 C337 1.390 . S
C329 C328 1.387 . S
C329 C331 1.387 . S
H330 C337 0.950 . S
C331 C329 1.387 . S
C331 C333 1.390 . S
C331 H335 0.950 . S
H332 C328 0.950 . S
C333 C331 1.390 . S
C333 C334 1.387 . S
C333 H336 0.950 . S
C334 C333 1.387 . S
C334 C337 1.387 . S
H335 C331 0.950 . S
H336 C333 0.950 . S
C337 C328 1.390 . S
C337 H330 0.950 . S
C337 C334 1.387 . S
C338 C339 1.387 . S
C338 H342 0.950 . S
C338 C347 1.390 . S
C339 C338 1.387 . S
C339 C341 1.387 . S
H340 C347 0.950 . S
C341 C339 1.387 . S
C341 C343 1.390 . S
C341 H345 0.950 . S
H342 C338 0.950 . S
C343 C341 1.390 . S
C343 C344 1.387 . S
C343 H346 0.950 . S
C344 C343 1.387 . S
C344 C347 1.387 . S
H345 C341 0.950 . S
H346 C343 0.950 . S
C347 C338 1.390 . S
C347 H340 0.950 . S
C347 C344 1.387 . S
C234 C190 1.639 . S
C229 C29 1.716 . S
C239 C8 1.673 . S
C244 C150 1.604 . S
C249 C0 1.666 . S
C254 C203 1.576 . S
C259 C17 1.710 . S
C264 C163 1.604 . S
C269 C63 1.716 . S
C274 C110 1.637 . S
C279 C42 1.673 . S
C284 C70 1.603 . S
C294 C123 1.575 . S
C289 C34 1.666 . S
C304 C83 1.605 . S
C299 C51 1.708 . S
C309 C4 1.491 . S
C314 C89 1.478 1_655 S
C319 C13 1.488 . S
C324 C129 1.479 1_545 S
C334 C169 1.477 . S
C329 C38 1.491 . S
C339 C47 1.488 . S
C344 C209 1.480 . S
