# Generated by pormake.
# Topology pth, (4,4)-cn, num edge types: 1
# Building blocks:
#     Node 0, Type 0, BuildingBlock: QUQFOY_clean_sbu_1, # of connection points: 4
#     Node 1, Type 0, BuildingBlock: QUQFOY_clean_sbu_1, # of connection points: 4
#     Node 2, Type 0, BuildingBlock: QUQFOY_clean_sbu_1, # of connection points: 4
#     Node 3, Type 1, BuildingBlock: KOZSID_clean_sbu_0, # of connection points: 4
#     Node 4, Type 1, BuildingBlock: KOZSID_clean_sbu_0, # of connection points: 4
#     Node 5, Type 1, BuildingBlock: KOZSID_clean_sbu_0, # of connection points: 4
#     Edge 6, Type (0, 1), BuildingBlock: FUNLAD_clean_linker_1, # of connection points: 2
#     Edge 7, Type (0, 1), BuildingBlock: FUNLAD_clean_linker_1, # of connection points: 2
#     Edge 8, Type (0, 1), BuildingBlock: FUNLAD_clean_linker_1, # of connection points: 2
#     Edge 9, Type (0, 1), BuildingBlock: FUNLAD_clean_linker_1, # of connection points: 2
#     Edge 10, Type (0, 1), BuildingBlock: FUNLAD_clean_linker_1, # of connection points: 2
#     Edge 11, Type (0, 1), BuildingBlock: FUNLAD_clean_linker_1, # of connection points: 2
#     Edge 12, Type (0, 1), BuildingBlock: FUNLAD_clean_linker_1, # of connection points: 2
#     Edge 13, Type (0, 1), BuildingBlock: FUNLAD_clean_linker_1, # of connection points: 2
#     Edge 14, Type (0, 1), BuildingBlock: FUNLAD_clean_linker_1, # of connection points: 2
#     Edge 15, Type (0, 1), BuildingBlock: FUNLAD_clean_linker_1, # of connection points: 2
#     Edge 16, Type (0, 1), BuildingBlock: FUNLAD_clean_linker_1, # of connection points: 2
#     Edge 17, Type (0, 1), BuildingBlock: FUNLAD_clean_linker_1, # of connection points: 2
# Relax obj value: 0.022
# Max RMSD: 0.125
# Mean RMSD: 0.072
data_MOF--net-pth--node1-QUQFOY_clean_sbu_1--node2-KOZSID_clean_sbu_0--edge1-FUNLAD_clean_linker_1
_symmetry_space_group_name_H-M    P1
_symmetry_Int_Tables_number       1
_symmetry_cell_setting            triclinic
loop_
_symmetry_equiv_pos_as_xyz
'x, y, z'
_cell_length_a     26.587567
_cell_length_b     28.98394
_cell_length_c     64.636761
_cell_angle_alpha  87.602795
_cell_angle_beta   87.520168
_cell_angle_gamma 120.26195
loop_
_atom_site_label
_atom_site_type_symbol
_atom_site_fract_x
_atom_site_fract_y
_atom_site_fract_z
_atom_type_partial_charge
O0 O 0.12037 0.1276 0.03277 0.0
Cd1 Cd 0.04769 0.07626 0.05223 0.0
Cd2 Cd 0.11036 0.02608 0.05801 0.0
O3 O 0.17783 0.10312 0.0472 0.0
O4 O 0.01463 0.12042 0.06287 0.0
O5 O 0.05666 0.08736 0.0827 0.0
C6 C 0.03366 0.11723 0.08063 0.0
C7 C 0.1233 0.97405 0.08398 0.0
C8 C 0.17118 0.13541 0.03522 0.0
C9 C 1.00131 0.97225 0.03384 0.0
O10 O 0.05072 0.978 0.03748 0.0
O11 O 0.98643 1.00472 0.04055 0.0
O12 O 0.14975 0.98486 0.06575 0.0
O13 O 0.09188 0.99542 0.08812 0.0
O14 O 0.99632 0.08951 0.39834 0.0
Cd15 Cd 0.07036 0.12196 0.37802 0.0
Cd16 Cd 0.04141 0.01469 0.38015 0.0
O17 O 0.96698 1.00347 0.39709 0.0
O18 O 0.08294 0.19332 0.36711 0.0
O19 O 0.06178 0.12663 0.34719 0.0
C20 C 0.07161 0.17463 0.34906 0.0
C21 C 0.03554 0.96167 0.35267 0.0
C22 C 0.95947 0.04056 0.40367 0.0
C23 C 0.15466 0.09614 0.39762 0.0
O24 O 0.1176 0.04723 0.39547 0.0
O25 O 0.14638 0.13324 0.39051 0.0
O26 O 0.0285 0.94359 0.37179 0.0
O27 O 0.04413 0.00937 0.34904 0.0
O28 O 0.99954 0.03969 0.70012 0.0
Cd29 Cd 0.03612 1.00375 0.7174 0.0
Cd30 Cd 0.12534 0.11331 0.71702 0.0
O31 O 0.06396 0.12537 0.70255 0.0
O32 O 0.9697 0.92808 0.72281 0.0
O33 O 0.00935 0.98139 0.74802 0.0
C34 C 0.97001 0.93555 0.7423 0.0
C35 C 0.17281 0.16097 0.7455 0.0
C36 C 0.01632 0.08894 0.69618 0.0
C37 C 0.15366 0.03734 0.69527 0.0
O38 O 0.16925 0.08539 0.69891 0.0
O39 O 0.104 0.99868 0.70237 0.0
O40 O 0.18711 0.18328 0.72683 0.0
O41 O 0.13034 0.11194 0.74815 0.0
C42 C 0.0999 0.63705 0.17788 0.0
C43 C 0.15016 0.66745 0.16477 0.0
C44 C 0.19314 0.66152 0.17302 0.0
C45 C 0.16629 0.62629 0.19011 0.0
N46 N 0.10854 0.60809 0.19288 0.0
Co47 Co 0.0518 0.55122 0.21418 0.0
N48 N 0.11608 0.54943 0.22874 0.0
C49 C 0.17398 0.58007 0.22327 0.0
C50 C 0.20826 0.57183 0.2363 0.0
C51 C 0.17018 0.53295 0.25082 0.0
C52 C 0.114 0.51911 0.24579 0.0
N53 N 0.99487 0.49382 0.23534 0.0
C54 C 1.00377 0.46727 0.25132 0.0
C55 C 0.9522 0.43503 0.26353 0.0
C56 C 0.9088 0.43754 0.25399 0.0
C57 C 0.9363 0.47268 0.23696 0.0
N58 N 0.98785 0.55416 0.19978 0.0
C59 C 0.92979 0.52295 0.20468 0.0
C60 C 0.89646 0.53439 0.19228 0.0
C61 C 0.93555 0.57664 0.17907 0.0
C62 C 0.99102 0.58909 0.18432 0.0
N63 N 0.0456 0.49409 0.19617 0.0
C64 C 0.03459 0.41166 0.17108 0.0
C65 C 0.98566 0.41222 0.17943 0.0
C66 C 0.99198 0.45287 0.19189 0.0
C67 C 0.08954 0.45333 0.17556 0.0
C68 C 0.09393 0.49361 0.18805 0.0
N69 N 0.05763 0.60785 0.23211 0.0
C70 C 0.0115 0.64426 0.25391 0.0
C71 C 0.06558 0.68874 0.25725 0.0
C72 C 0.11558 0.69176 0.24781 0.0
C73 C 0.1107 0.65159 0.23523 0.0
C74 C 0.00861 0.60483 0.24142 0.0
H75 H 0.15036 0.65675 0.22807 0.0
H76 H 0.96607 0.57225 0.23953 0.0
H77 H 0.95251 0.44955 0.198 0.0
H78 H 0.13697 0.52372 0.19094 0.0
C79 C 0.19471 0.61363 0.205 0.0
C80 C 0.04526 0.63758 0.17606 0.0
C81 C 0.06034 0.47261 0.25579 0.0
C82 C 0.90838 0.48671 0.22222 0.0
H83 H 0.15576 0.69237 0.15093 0.0
H84 H 0.23882 0.68168 0.16755 0.0
H85 H 0.25537 0.59061 0.23502 0.0
H86 H 0.18331 0.51594 0.26316 0.0
H87 H 0.94645 0.41274 0.27806 0.0
H88 H 0.86278 0.41668 0.25903 0.0
H89 H 0.84937 0.51577 0.19331 0.0
H90 H 0.92394 0.59679 0.16743 0.0
H91 H 0.94211 0.38087 0.17651 0.0
H92 H 0.12929 0.45577 0.16933 0.0
H93 H 0.97132 0.63884 0.26123 0.0
H94 H 0.15847 0.72533 0.25 0.0
C95 C 0.47853 0.01937 0.58452 0.0
C96 C 0.44237 0.96989 0.59535 0.0
C97 C 0.445 0.93226 0.58419 0.0
C98 C 0.48404 0.96058 0.56765 0.0
N99 N 0.50748 0.01423 0.56769 0.0
Co100 Co 0.5722 0.06984 0.54785 0.0
N101 N 0.57477 0.0139 0.53121 0.0
C102 C 0.53816 0.96037 0.53416 0.0
C103 C 0.54573 0.93192 0.51924 0.0
C104 C 0.59076 0.96936 0.50614 0.0
C105 C 0.60987 0.01875 0.51429 0.0
N106 N 0.63692 0.12534 0.52797 0.0
C107 C 0.66625 0.12007 0.51128 0.0
C108 C 0.70711 0.17009 0.50167 0.0
C109 C 0.70406 0.2076 0.51276 0.0
C110 C 0.66188 0.17905 0.52842 0.0
N111 N 0.56962 0.12572 0.56456 0.0
C112 C 0.60404 0.17939 0.56085 0.0
C113 C 0.59379 0.2083 0.57483 0.0
C114 C 0.54967 0.17109 0.58824 0.0
C115 C 0.53517 0.12085 0.58172 0.0
N116 N 0.63106 0.06953 0.5659 0.0
C117 C 0.71181 0.06856 0.59291 0.0
C118 C 0.71732 0.11683 0.58506 0.0
C119 C 0.67696 0.11633 0.57168 0.0
C120 C 0.66591 0.02107 0.5865 0.0
C121 C 0.62667 0.02241 0.5731 0.0
N122 N 0.51331 0.07019 0.52977 0.0
C123 C 0.48031 0.11808 0.50773 0.0
C124 C 0.43225 0.07003 0.5026 0.0
C125 C 0.42493 0.02238 0.51184 0.0
C126 C 0.46526 0.02331 0.52527 0.0
C127 C 0.51971 0.11717 0.52124 0.0
H128 H 0.45645 0.98547 0.53185 0.0
H129 H 0.55493 0.15509 0.52456 0.0
H130 H 0.6839 0.15438 0.56619 0.0
H131 H 0.59316 0.98469 0.56875 0.0
C132 C 0.49843 0.93783 0.55153 0.0
C133 C 0.48511 0.07019 0.59104 0.0
C134 C 0.66072 0.06924 0.50529 0.0
C135 C 0.64538 0.20165 0.54397 0.0
H136 H 0.41688 0.96128 0.60995 0.0
H137 H 0.42143 0.88934 0.58778 0.0
H138 H 0.52139 0.88905 0.51801 0.0
H139 H 0.60707 0.96073 0.49211 0.0
H140 H 0.73728 0.17957 0.48829 0.0
H141 H 0.73021 0.25071 0.5099 0.0
H142 H 0.61532 0.25144 0.57507 0.0
H143 H 0.53019 0.1809 0.60105 0.0
H144 H 0.7523 0.15517 0.58899 0.0
H145 H 0.6601 0.98265 0.59187 0.0
H146 H 0.48802 0.15655 0.50161 0.0
H147 H 0.38799 0.98412 0.50869 0.0
C148 C 0.68537 0.61853 0.86657 0.0
C149 C 0.73167 0.61314 0.85872 0.0
C150 C 0.72498 0.56721 0.86799 0.0
C151 C 0.67488 0.54654 0.88068 0.0
N152 N 0.64852 0.57604 0.88 0.0
Co153 Co 0.57329 0.55794 0.89572 0.0
N154 N 0.56764 0.49349 0.91101 0.0
C155 C 0.60771 0.4779 0.90966 0.0
C156 C 0.59287 0.43231 0.92168 0.0
C157 C 0.53986 0.41746 0.93131 0.0
C158 C 0.52483 0.45479 0.92441 0.0
N159 N 0.49675 0.53843 0.91099 0.0
C160 C 0.46002 0.49564 0.92442 0.0
C161 C 0.40786 0.49473 0.92887 0.0
C162 C 0.41264 0.53908 0.91875 0.0
C163 C 0.46646 0.56392 0.90818 0.0
N164 N 0.58041 0.62378 0.88092 0.0
C165 C 0.54322 0.64226 0.88399 0.0
C166 C 0.56195 0.69145 0.87419 0.0
C167 C 0.61453 0.70568 0.86431 0.0
C168 C 0.62447 0.6634 0.86803 0.0
N169 N 0.52869 0.51294 0.87307 0.0
C170 C 0.45789 0.44509 0.84318 0.0
C171 C 0.45601 0.49068 0.848 0.0
C172 C 0.49106 0.52351 0.86284 0.0
C173 C 0.49758 0.43499 0.85309 0.0
C174 C 0.53255 0.46937 0.86775 0.0
N175 N 0.61751 0.60327 0.91829 0.0
C176 C 0.63096 0.6697 0.94239 0.0
C177 C 0.68579 0.67813 0.94677 0.0
C178 C 0.70469 0.64619 0.93733 0.0
C179 C 0.66992 0.60908 0.92335 0.0
C180 C 0.59792 0.63258 0.92835 0.0
H181 H 0.68667 0.58605 0.91658 0.0
H182 H 0.55701 0.62914 0.92564 0.0
H183 H 0.48636 0.557 0.86584 0.0
H184 H 0.56221 0.45973 0.87462 0.0
C185 C 0.65516 0.50288 0.89503 0.0
C186 C 0.67804 0.66412 0.86034 0.0
C187 C 0.47065 0.45273 0.93183 0.0
C188 C 0.49073 0.61222 0.8961 0.0
H189 H 0.76719 0.6396 0.84752 0.0
H190 H 0.75408 0.5515 0.86611 0.0
H191 H 0.6169 0.41139 0.92282 0.0
H192 H 0.51514 0.38262 0.94205 0.0
H193 H 0.36913 0.46432 0.9378 0.0
H194 H 0.38025 0.55124 0.91878 0.0
H195 H 0.54066 0.71492 0.87465 0.0
H196 H 0.64282 0.74405 0.85611 0.0
H197 H 0.42666 0.50069 0.84053 0.0
H198 H 0.50252 0.40131 0.84948 0.0
H199 H 0.6138 0.69265 0.9495 0.0
H200 H 0.74598 0.64957 0.94043 0.0
H201 H 0.05162 0.14659 0.1121 0.0
C202 C 0.03426 0.15045 0.09763 0.0
H203 H 0.00558 0.19453 0.08005 0.0
H204 H 0.99214 0.26967 0.17566 0.0
H205 H 0.91918 0.17681 0.18509 0.0
H206 H 0.89584 0.10773 0.16022 0.0
H207 H 0.94607 0.13089 0.12587 0.0
C208 C 0.02011 0.18881 0.0949 0.0
C209 C 0.03272 0.23019 0.11021 0.0
C210 C 1.00165 0.21636 0.13004 0.0
C211 C 0.01338 0.25674 0.14412 0.0
C212 C 0.98353 0.24116 0.1641 0.0
C213 C 0.94176 0.1879 0.16977 0.0
C214 C 0.92875 0.14897 0.15579 0.0
C215 C 0.95815 0.16279 0.13614 0.0
H216 H 0.98289 0.34454 0.1516 0.0
C217 C 0.02574 0.36792 0.15749 0.0
H218 H 0.10968 0.37654 0.15797 0.0
H219 H 0.10212 0.27085 0.07391 0.0
H220 H 0.17307 0.36399 0.06416 0.0
H221 H 0.19041 0.4341 0.08794 0.0
H222 H 0.13708 0.41145 0.12169 0.0
C223 C 0.0663 0.35452 0.15248 0.0
C224 C 0.05465 0.31135 0.13812 0.0
C225 C 0.08582 0.32508 0.11834 0.0
C226 C 0.07503 0.28462 0.10445 0.0
C227 C 0.10761 0.29982 0.08494 0.0
C228 C 0.14872 0.3532 0.07916 0.0
C229 C 0.15854 0.39265 0.09256 0.0
C230 C 0.12764 0.37903 0.11192 0.0
H231 H 0.87569 0.98459 0.42174 0.0
C232 C 0.90829 0.0266 0.41825 0.0
H233 H 0.93625 0.10621 0.42516 0.0
H234 H 0.66046 1.00472 0.45751 0.0
H235 H 0.64083 0.99228 0.42126 0.0
H236 H 0.71851 0.00735 0.39489 0.0
H237 H 0.81616 0.03448 0.40463 0.0
C238 C 0.90254 0.0643 0.42784 0.0
C239 C 0.8539 0.05093 0.44382 0.0
C240 C 0.79712 0.03552 0.43785 0.0
C241 C 0.75254 0.02792 0.45303 0.0
C242 C 0.69612 0.01189 0.44663 0.0
C243 C 0.68423 1.00448 0.42586 0.0
C244 C 0.72794 0.01289 0.41102 0.0
C245 C 0.78381 0.02833 0.41684 0.0
H246 H 0.72952 0.1055 0.48024 0.0
C247 C 0.70338 0.07034 0.49075 0.0
H248 H 0.70334 0.99891 0.50221 0.0
H249 H 0.95704 0.07841 0.4607 0.0
H250 H 0.9768 0.09149 0.49695 0.0
H251 H 0.89999 0.07941 0.52312 0.0
H252 H 0.80289 0.05416 0.51323 0.0
C253 C 0.71909 0.0308 0.48995 0.0
C254 C 0.7649 0.03634 0.47414 0.0
C255 C 0.8213 0.05064 0.48016 0.0
C256 C 0.8658 0.05809 0.46501 0.0
C257 C 0.92182 0.07276 0.47151 0.0
C258 C 0.93372 0.08026 0.49227 0.0
C259 C 0.89045 0.0734 0.50702 0.0
C260 C 0.83485 0.05881 0.50113 0.0
H261 H 0.89055 0.85744 0.75054 0.0
C262 C 0.92428 0.89301 0.75706 0.0
H263 H 0.95353 0.93324 0.78429 0.0
H264 H 0.71092 0.81936 0.83647 0.0
H265 H 0.7342 0.91169 0.83321 0.0
H266 H 0.8191 0.97927 0.81063 0.0
H267 H 0.88143 0.955 0.79137 0.0
C268 C 0.92112 0.89712 0.77769 0.0
C269 C 0.87009 0.85564 0.79163 0.0
C270 C 0.83349 0.87024 0.80269 0.0
C271 C 0.78379 0.83097 0.81549 0.0
C272 C 0.74875 0.84719 0.82646 0.0
C273 C 0.76165 0.90016 0.82471 0.0
C274 C 0.80947 0.9382 0.81202 0.0
C275 C 0.84503 0.92368 0.80108 0.0
H276 H 0.76887 0.71688 0.84997 0.0
C277 C 0.72465 0.70822 0.84805 0.0
H278 H 0.67507 0.7258 0.82648 0.0
H279 H 0.93524 0.8147 0.77552 0.0
H280 H 0.90854 0.72132 0.77711 0.0
H281 H 0.81624 0.65181 0.79571 0.0
H282 H 0.75107 0.6755 0.81333 0.0
C283 C 0.71813 0.73585 0.8309 0.0
C284 C 0.77 0.77678 0.81714 0.0
C285 C 0.80575 0.76191 0.80563 0.0
C286 C 0.85693 0.80158 0.79358 0.0
C287 C 0.89423 0.78597 0.78385 0.0
C288 C 0.87968 0.73252 0.78479 0.0
C289 C 0.8279 0.69343 0.79535 0.0
C290 C 0.79116 0.70769 0.80562 0.0
H291 H 0.15849 0.9235 0.09474 0.0
C292 C 0.12648 0.93514 0.09871 0.0
H293 H 0.05491 0.91977 0.11927 0.0
H294 H 0.07363 0.69739 0.12655 0.0
H295 H 0.04954 0.68893 0.09074 0.0
H296 H 0.03816 0.75817 0.07163 0.0
H297 H 0.05258 0.83703 0.08808 0.0
C298 C 0.08736 0.90885 0.11505 0.0
C299 C 0.08611 0.86323 0.12746 0.0
C300 C 0.07385 0.81553 0.11803 0.0
C301 C 0.07645 0.77374 0.12951 0.0
C302 C 0.06898 0.72892 0.11906 0.0
C303 C 0.0556 0.72372 0.09839 0.0
C304 C 0.0495 0.76282 0.0876 0.0
C305 C 0.05844 0.80821 0.09721 0.0
H306 H 1.0018 0.67672 0.1623 0.0
C307 C 0.04323 0.682 0.16657 0.0
H308 H 0.13122 0.74614 0.17044 0.0
H309 H 0.10859 0.94731 0.15068 0.0
H310 H 0.12544 0.95292 0.18733 0.0
H311 H 0.12386 0.87833 0.20776 0.0
H312 H 0.10596 0.79782 0.19168 0.0
C313 C 0.09114 0.73457 0.16301 0.0
C314 C 0.08724 0.77781 0.15089 0.0
C315 C 0.09686 0.82442 0.16055 0.0
C316 C 0.09665 0.86717 0.14883 0.0
C317 C 0.10756 0.91348 0.15887 0.0
C318 C 0.11736 0.91725 0.1799 0.0
C319 C 0.11657 0.87529 0.1914 0.0
C320 C 0.10645 0.82935 0.18194 0.0
H321 H 0.23792 0.1521 0.41086 0.0
C322 C 0.20622 0.11005 0.40962 0.0
H323 H 0.17965 0.03027 0.41973 0.0
H324 H 0.45422 0.13924 0.44239 0.0
H325 H 0.47856 0.15689 0.40523 0.0
H326 H 0.40322 0.14169 0.38108 0.0
H327 H 0.30304 0.10889 0.39393 0.0
C328 C 0.21263 0.07231 0.42008 0.0
C329 C 0.25975 0.08579 0.43455 0.0
C330 C 0.31826 0.10532 0.42683 0.0
C331 C 0.36174 0.11382 0.4408 0.0
C332 C 0.41955 0.13245 0.43256 0.0
C333 C 0.43412 0.1426 0.41124 0.0
C334 C 0.3917 0.13406 0.39764 0.0
C335 C 0.33436 0.11541 0.40524 0.0
H336 H 0.35062 0.02787 0.48651 0.0
C337 C 0.38834 0.06719 0.48819 0.0
H338 H 0.42995 0.1491 0.47725 0.0
H339 H 0.15247 0.05008 0.45462 0.0
H340 H 0.12859 0.03511 0.49182 0.0
H341 H 0.20441 0.05271 0.51606 0.0
H342 H 0.30436 0.08479 0.50327 0.0
C343 C 0.39216 0.10936 0.47698 0.0
C344 C 0.34669 0.10246 0.46251 0.0
C345 C 0.28856 0.08483 0.47027 0.0
C346 C 0.24502 0.0758 0.45628 0.0
C347 C 0.18724 0.05751 0.4645 0.0
C348 C 0.17294 0.04895 0.48584 0.0
C349 C 0.21561 0.05879 0.49948 0.0
C350 C 0.27281 0.07677 0.4919 0.0
H351 H 0.19104 0.16916 0.77871 0.0
C352 C 0.20509 0.18985 0.76332 0.0
H353 H 0.26787 0.2596 0.74541 0.0
H354 H 0.30435 0.34968 0.8399 0.0
H355 H 0.20514 0.33232 0.83982 0.0
H356 H 0.14373 0.28677 0.81136 0.0
H357 H 0.18073 0.25738 0.78301 0.0
C358 C 0.25223 0.23966 0.76089 0.0
C359 C 0.28864 0.26718 0.77841 0.0
C360 C 0.26701 0.28571 0.79457 0.0
C361 C 0.30345 0.31424 0.81055 0.0
C362 C 0.27958 0.32986 0.82696 0.0
C363 C 0.22251 0.31981 0.82719 0.0
C364 C 0.18787 0.294 0.8112 0.0
C365 C 0.2096 0.2771 0.79505 0.0
H366 H 0.40098 0.42821 0.8171 0.0
C367 C 0.41894 0.41058 0.82747 0.0
H368 H 0.41849 0.3391 0.83616 0.0
H369 H 0.34336 0.23547 0.75047 0.0
H370 H 0.44326 0.25452 0.75017 0.0
H371 H 0.50732 0.30675 0.77703 0.0
H372 H 0.47184 0.34009 0.80442 0.0
C373 C 0.40209 0.35852 0.82603 0.0
C374 C 0.36237 0.32623 0.80994 0.0
C375 C 0.38366 0.30707 0.79394 0.0
C376 C 0.34687 0.27755 0.77824 0.0
C377 C 0.36951 0.25873 0.76259 0.0
C378 C 0.42676 0.26923 0.76226 0.0
C379 C 0.4628 0.29857 0.7774 0.0
C380 C 0.4418 0.3174 0.79307 0.0
H381 H 0.9972 0.14643 0.67967 0.0
C382 C 0.98162 0.10414 0.68311 0.0
H383 H 0.91905 0.02494 0.67727 0.0
H384 H 0.77388 0.14323 0.64771 0.0
H385 H 0.77238 0.16452 0.68352 0.0
H386 H 0.82918 0.14732 0.7087 0.0
H387 H 0.88808 0.10898 0.69823 0.0
C388 C 0.93345 0.0672 0.67458 0.0
C389 C 0.90216 0.08165 0.65925 0.0
C390 C 0.86791 0.10418 0.66562 0.0
C391 C 0.83458 0.1136 0.65109 0.0
C392 C 0.80025 0.13549 0.658 0.0
C393 C 0.79883 0.14776 0.67854 0.0
C394 C 0.83085 0.13811 0.69272 0.0
C395 C 0.86477 0.11632 0.68646 0.0
H396 H 0.74478 0.0255 0.61197 0.0
C397 C 0.75239 0.06522 0.60744 0.0
H398 H 0.80589 0.14776 0.61216 0.0
H399 H 0.96484 0.04019 0.64163 0.0
H400 H 0.9684 0.0211 0.60562 0.0
H401 H 0.91285 0.03967 0.58031 0.0
H402 H 0.85298 0.0769 0.59089 0.0
C403 C 0.79737 0.1074 0.61542 0.0
C404 C 0.83485 0.0999 0.63027 0.0
C405 C 0.87076 0.07915 0.62374 0.0
C406 C 0.90377 0.06943 0.63828 0.0
C407 C 0.93869 0.04817 0.63132 0.0
C408 C 0.94137 0.03724 0.61065 0.0
C409 C 0.91004 0.04762 0.59641 0.0
C410 C 0.87537 0.06859 0.60275 0.0
H411 H 0.97894 0.90163 0.0163 0.0
C412 C 0.9624 0.9269 0.02166 0.0
H413 H 0.89176 0.94085 0.02154 0.0
H414 H 0.79543 0.81867 0.94009 0.0
H415 H 0.82878 0.91048 0.92792 0.0
H416 H 0.88241 0.9845 0.95029 0.0
H417 H 0.90319 0.96721 0.98499 0.0
C418 C 0.90859 0.91525 0.01695 0.0
C419 C 0.87273 0.86959 1.00397 0.0
C420 C 0.85987 0.88009 0.98383 0.0
C421 C 0.82842 0.83722 0.97093 0.0
C422 C 0.81806 0.84939 0.95068 0.0
C423 C 0.83723 0.90199 0.94344 0.0
C424 C 0.86747 0.94368 0.95603 0.0
C425 C 0.87898 0.93314 0.97595 0.0
H426 H 0.69998 0.74079 0.96816 0.0
C427 C 0.72088 0.72088 0.96092 0.0
H428 H 0.80034 0.72015 0.95811 0.0
H429 H 0.88263 0.83385 0.04264 0.0
H430 H 0.84909 0.74197 0.05478 0.0
H431 H 0.79741 0.66827 0.03207 0.0
H432 H 0.77849 0.686 0.99709 0.0
C433 C 0.77699 0.73847 0.96465 0.0
C434 C 0.80912 0.78359 0.97825 0.0
C435 C 0.82122 0.77297 0.99848 0.0
C436 C 0.85226 0.81576 0.01144 0.0
C437 C 0.86118 0.80333 0.03188 0.0
C438 C 0.84169 0.75064 0.03912 0.0
C439 C 0.8125 0.70913 0.02635 0.0
C440 C 0.80205 0.71988 0.00629 0.0
H441 H 0.02953 0.94136 0.31982 0.0
C442 C 0.03436 0.92909 0.33537 0.0
H443 H 0.04534 0.87388 0.35398 0.0
H444 H 0.94601 0.67643 0.3009 0.0
H445 H 0.87589 0.64346 0.3308 0.0
H446 H 0.87767 0.70475 0.35647 0.0
H447 H 0.94993 0.79931 0.35251 0.0
C448 C 0.04081 0.88605 0.33836 0.0
C449 C 0.03732 0.85076 0.32145 0.0
C450 C 0.99386 0.79557 0.32366 0.0
C451 C 0.99189 0.76035 0.30855 0.0
C452 C 0.94894 0.70524 0.31161 0.0
C453 C 0.90844 0.68566 0.32876 0.0
C454 C 0.90952 0.72014 0.34323 0.0
C455 C 0.95151 0.7744 0.3408 0.0
H456 H 0.11191 0.75278 0.27866 0.0
C457 C 0.07125 0.73069 0.27123 0.0
H458 H 0.98821 0.72168 0.26753 0.0
H459 H 0.1312 0.95242 0.31329 0.0
H460 H 0.19756 0.98628 0.28235 0.0
H461 H 0.1875 0.92723 0.25448 0.0
H462 H 0.112 0.83351 0.25769 0.0
C463 C 0.02882 0.74253 0.27502 0.0
C464 C 0.03264 0.78024 0.2909 0.0
C465 C 0.0751 0.83569 0.28834 0.0
C466 C 0.0786 0.87061 0.3039 0.0
C467 C 0.12437 0.92474 0.30157 0.0
C468 C 0.16317 0.94465 0.28393 0.0
C469 C 0.15769 0.91135 0.26828 0.0
C470 C 0.11433 0.8575 0.27038 0.0
H471 H 0.17875 0.98459 0.67951 0.0
C472 C 0.19217 0.02611 0.68171 0.0
H473 H 0.25315 0.10707 0.67241 0.0
H474 H 0.411 1.00022 0.64272 0.0
H475 H 0.41196 0.97947 0.67939 0.0
H476 H 0.35165 0.99369 0.70553 0.0
H477 H 0.28967 0.02834 0.69516 0.0
C478 C 0.24091 0.06548 0.67111 0.0
C479 C 0.27584 0.0544 0.65545 0.0
C480 C 0.31232 0.03458 0.66179 0.0
C481 C 0.34803 0.02731 0.6467 0.0
C482 C 0.38354 0.00701 0.65349 0.0
C483 C 0.38447 0.99491 0.6745 0.0
C484 C 0.35045 1.00285 0.68921 0.0
C485 C 0.31486 0.02258 0.68304 0.0
H486 H 0.46027 0.1065 0.61522 0.0
C487 C 0.44562 0.07177 0.60629 0.0
H488 H 0.36481 1.00259 0.5988 0.0
H489 H 0.21057 0.09222 0.63787 0.0
H490 H 0.21079 0.11405 0.60121 0.0
H491 H 0.27338 0.10232 0.57521 0.0
H492 H 0.33619 0.06864 0.5857 0.0
C493 C 0.38579 0.03366 0.60948 0.0
C494 C 0.34766 0.04026 0.62532 0.0
C495 C 0.31092 0.05968 0.61898 0.0
C496 C 0.27518 0.0669 0.63403 0.0
C497 C 0.23906 0.08649 0.62717 0.0
C498 C 0.23863 0.09906 0.60616 0.0
C499 C 0.27383 0.0924 0.59151 0.0
C500 C 0.30962 0.07296 0.59775 0.0
H501 H 0.26396 0.20026 0.0322 0.0
C502 C 0.2229 0.18385 0.02491 0.0
H503 H 0.17805 0.1908 1.00012 0.0
H504 H 0.3172 0.43076 0.97 0.0
H505 H 0.22271 0.41739 0.98115 0.0
H506 H 0.14865 0.33364 1.00069 0.0
H507 H 0.16844 0.2624 0.00879 0.0
C508 C 0.2196 0.20805 0.00714 0.0
C509 C 0.26819 0.2609 0.99748 0.0
C510 C 0.2569 0.30332 0.99338 0.0
C511 C 0.30038 0.35242 0.98256 0.0
C512 C 0.28649 0.39286 0.97816 0.0
C513 C 0.23224 0.38581 0.98457 0.0
C514 C 0.19053 0.33866 0.99554 0.0
C515 C 0.20246 0.29788 0.99997 0.0
H516 H 0.42253 0.36835 0.94135 0.0
C517 C 0.42818 0.40708 0.94455 0.0
H518 H 0.40942 0.44846 0.96788 0.0
H519 H 0.30441 0.18717 0.99987 0.0
H520 H 0.40348 0.20555 0.99356 0.0
H521 H 0.4834 0.29656 0.98183 0.0
H522 H 0.46363 0.36885 0.97528 0.0
C523 C 0.3997 0.40957 0.96303 0.0
C524 C 0.35621 0.36013 0.97638 0.0
C525 C 0.36939 0.31996 0.98258 0.0
C526 C 0.32454 0.26918 0.99176 0.0
C527 C 0.33753 0.22771 0.99472 0.0
C528 C 0.39421 0.23756 0.99092 0.0
C529 C 0.4391 0.28865 0.98415 0.0
C530 C 0.42707 0.32954 0.98009 0.0
H531 H 0.05682 0.18812 0.31641 0.0
C532 C 0.06683 0.20591 0.33124 0.0
H533 H 0.0778 0.27034 0.34836 0.0
H534 H 0.1141 0.38232 0.2531 0.0
H535 H 0.20215 0.3771 0.24913 0.0
H536 H 0.22548 0.32951 0.27612 0.0
H537 H 0.16027 0.28592 0.30707 0.0
C538 C 0.07052 0.25359 0.33331 0.0
C539 C 0.05662 0.28153 0.31644 0.0
C540 C 0.09604 0.30827 0.29874 0.0
C541 C 0.08395 0.33804 0.28362 0.0
C542 C 0.12257 0.36168 0.26557 0.0
C543 C 0.17299 0.35849 0.26299 0.0
C544 C 0.18602 0.33153 0.27815 0.0
C545 C 0.14813 0.30657 0.29583 0.0
H546 H 0.10482 0.44774 0.27699 0.0
C547 C 0.0649 0.4349 0.26937 0.0
H548 H 0.98495 0.36197 0.26376 0.0
H549 H 0.96951 0.23155 0.34753 0.0
H550 H 0.88066 0.23544 0.35126 0.0
H551 H 0.86015 0.28757 0.32535 0.0
H552 H 0.92827 0.33598 0.29564 0.0
C553 C 0.02403 0.37955 0.27222 0.0
C554 C 0.03361 0.34302 0.28662 0.0
C555 C 0.9927 0.3138 0.30377 0.0
C556 C 1.00446 0.28354 0.31873 0.0
C557 C 0.9631 0.25549 0.33581 0.0
C558 C 0.91178 0.25721 0.33812 0.0
C559 C 0.90025 0.28657 0.32354 0.0
C560 C 0.94 0.31451 0.30656 0.0
loop_
_geom_bond_atom_site_label_1
_geom_bond_atom_site_label_2
_geom_bond_distance
_geom_bond_site_symmetry_2
_ccdc_geom_bond_type
O0 Cd1 2.223 . S
O0 C8 1.315 . S
Cd1 O0 2.223 . S
Cd1 O4 2.297 . S
Cd1 O5 2.439 . S
Cd1 O11 2.240 . S
Cd2 O3 2.240 . S
Cd2 O10 2.223 1_545 S
Cd2 O12 2.297 1_545 S
Cd2 O13 2.439 1_545 S
O3 Cd2 2.240 . S
O3 C8 1.279 . S
O4 Cd1 2.297 . S
O4 C6 1.247 . S
O5 Cd1 2.439 . S
O5 C6 1.208 . S
C6 O4 1.247 . S
C6 O5 1.208 . S
C7 O12 1.247 . S
C7 O13 1.208 . S
C8 O0 1.315 . S
C8 O3 1.279 . S
C9 O10 1.315 . S
C9 O11 1.279 1_565 S
O10 Cd2 2.223 1_565 S
O10 C9 1.315 . S
O11 Cd1 2.240 . S
O11 C9 1.279 1_545 S
O12 Cd2 2.297 1_565 S
O12 C7 1.247 . S
O13 Cd2 2.439 1_565 S
O13 C7 1.208 . S
O14 Cd15 2.223 . S
O14 C22 1.315 1_455 S
Cd15 O14 2.223 . S
Cd15 O18 2.297 . S
Cd15 O19 2.439 . S
Cd15 O25 2.240 . S
Cd16 O17 2.240 1_565 S
Cd16 O24 2.223 1_665 S
Cd16 O26 2.297 1_655 S
Cd16 O27 2.439 1_665 S
O17 Cd16 2.240 1_545 S
O17 C22 1.279 . S
O18 Cd15 2.297 . S
O18 C20 1.247 . S
O19 Cd15 2.439 . S
O19 C20 1.208 . S
C20 O18 1.247 . S
C20 O19 1.208 . S
C21 O26 1.247 . S
C21 O27 1.208 1_565 S
C22 O14 1.315 1_655 S
C22 O17 1.279 . S
C23 O24 1.315 . S
C23 O25 1.279 . S
O24 Cd16 2.223 1_445 S
O24 C23 1.315 . S
O25 Cd15 2.240 . S
O25 C23 1.279 . S
O26 Cd16 2.297 1_455 S
O26 C21 1.247 . S
O27 Cd16 2.439 1_445 S
O27 C21 1.208 1_545 S
O28 Cd29 2.223 1_655 S
O28 C36 1.315 1_565 S
Cd29 O28 2.223 1_455 S
Cd29 O32 2.297 1_455 S
Cd29 O33 2.439 1_455 S
Cd29 O39 2.240 1_565 S
Cd30 O31 2.240 . S
Cd30 O38 2.223 . S
Cd30 O40 2.297 . S
Cd30 O41 2.439 . S
O31 Cd30 2.240 . S
O31 C36 1.279 1_455 S
O32 Cd29 2.297 1_655 S
O32 C34 1.247 . S
O33 Cd29 2.439 1_655 S
O33 C34 1.209 . S
C34 O32 1.247 . S
C34 O33 1.209 . S
C35 O40 1.247 . S
C35 O41 1.208 . S
C36 O28 1.315 1_545 S
C36 O31 1.279 1_655 S
C37 O38 1.315 . S
C37 O39 1.279 . S
O38 Cd30 2.223 . S
O38 C37 1.315 . S
O39 Cd29 2.240 1_545 S
O39 C37 1.279 . S
O40 Cd30 2.297 . S
O40 C35 1.247 . S
O41 Cd30 2.439 . S
O41 C35 1.208 . S
C42 C43 1.443 . S
C42 N46 1.376 . S
C42 C80 1.389 . S
C43 C42 1.443 . S
C43 C44 1.340 . S
C43 H83 0.951 . S
C44 C43 1.340 . S
C44 C45 1.439 . S
C44 H84 0.950 . S
C45 C44 1.439 . S
C45 N46 1.374 . S
C45 C79 1.395 . S
N46 C42 1.376 . S
N46 C45 1.374 . S
N46 Co47 2.008 . S
Co47 N46 2.008 . S
Co47 N48 1.995 . S
Co47 N53 2.008 1_455 S
Co47 N58 1.995 1_455 S
Co47 N63 2.282 . S
Co47 N69 2.282 . S
N48 Co47 1.995 . S
N48 C49 1.376 . S
N48 C52 1.383 . S
C49 N48 1.376 . S
C49 C50 1.446 . S
C49 C79 1.391 . S
C50 C49 1.446 . S
C50 C51 1.339 . S
C50 H85 0.949 . S
C51 C50 1.339 . S
C51 C52 1.439 . S
C51 H86 0.950 . S
C52 N48 1.383 . S
C52 C51 1.439 . S
C52 C81 1.392 . S
N53 Co47 2.008 1_655 S
N53 C54 1.376 . S
N53 C57 1.374 . S
C54 N53 1.376 . S
C54 C55 1.443 . S
C54 C81 1.389 1_655 S
C55 C54 1.443 . S
C55 C56 1.340 . S
C55 H87 0.951 . S
C56 C55 1.340 . S
C56 C57 1.439 . S
C56 H88 0.950 . S
C57 N53 1.374 . S
C57 C56 1.439 . S
C57 C82 1.395 . S
N58 Co47 1.995 1_655 S
N58 C59 1.376 . S
N58 C62 1.383 . S
C59 N58 1.376 . S
C59 C60 1.446 . S
C59 C82 1.391 . S
C60 C59 1.446 . S
C60 C61 1.339 . S
C60 H89 0.949 . S
C61 C60 1.339 . S
C61 C62 1.439 . S
C61 H90 0.950 . S
C62 N58 1.383 . S
C62 C61 1.439 . S
C62 C80 1.392 1_655 S
N63 Co47 2.282 . S
N63 C66 1.332 . S
N63 C68 1.332 . S
C64 C65 1.386 . S
C64 C67 1.388 . S
C65 C64 1.386 . S
C65 C66 1.382 . S
C65 H91 0.950 1_455 S
C66 N63 1.332 . S
C66 C65 1.382 . S
C66 H77 0.952 1_455 S
C67 C64 1.388 . S
C67 C68 1.382 . S
C67 H92 0.950 . S
C68 N63 1.332 . S
C68 C67 1.382 . S
C68 H78 0.948 . S
N69 Co47 2.282 . S
N69 C73 1.332 . S
N69 C74 1.332 1_455 S
C70 C71 1.388 1_655 S
C70 C74 1.382 . S
C70 H93 0.950 . S
C71 C70 1.388 1_455 S
C71 C72 1.386 . S
C72 C71 1.386 . S
C72 C73 1.382 . S
C72 H94 0.950 . S
C73 N69 1.332 . S
C73 C72 1.382 . S
C73 H75 0.952 . S
C74 N69 1.332 1_655 S
C74 C70 1.382 . S
C74 H76 0.948 . S
H75 C73 0.952 . S
H76 C74 0.948 . S
H77 C66 0.952 1_655 S
H78 C68 0.948 . S
C79 C45 1.395 . S
C79 C49 1.391 . S
C80 C42 1.389 . S
C80 C62 1.392 1_455 S
C81 C52 1.392 . S
C81 C54 1.389 1_455 S
C82 C57 1.395 . S
C82 C59 1.391 . S
H83 C43 0.951 . S
H84 C44 0.950 . S
H85 C50 0.949 . S
H86 C51 0.950 . S
H87 C55 0.951 . S
H88 C56 0.950 . S
H89 C60 0.949 . S
H90 C61 0.950 . S
H91 C65 0.950 1_655 S
H92 C67 0.950 . S
H93 C70 0.950 . S
H94 C72 0.950 . S
C95 C96 1.443 1_545 S
C95 N99 1.376 . S
C95 C133 1.389 . S
C96 C95 1.443 1_565 S
C96 C97 1.340 . S
C96 H136 0.951 . S
C97 C96 1.340 . S
C97 C98 1.439 . S
C97 H137 0.950 . S
C98 C97 1.439 . S
C98 N99 1.374 1_565 S
C98 C132 1.395 . S
N99 C95 1.376 . S
N99 C98 1.374 1_545 S
N99 Co100 2.008 . S
Co100 N99 2.008 . S
Co100 N101 1.995 . S
Co100 N106 2.008 . S
Co100 N111 1.995 . S
Co100 N116 2.282 . S
Co100 N122 2.282 . S
N101 Co100 1.995 . S
N101 C102 1.376 1_545 S
N101 C105 1.383 . S
C102 N101 1.376 1_565 S
C102 C103 1.446 . S
C102 C132 1.391 . S
C103 C102 1.446 . S
C103 C104 1.339 . S
C103 H138 0.949 . S
C104 C103 1.339 . S
C104 C105 1.439 1_565 S
C104 H139 0.950 . S
C105 N101 1.383 . S
C105 C104 1.439 1_545 S
C105 C134 1.392 . S
N106 Co100 2.008 . S
N106 C107 1.376 . S
N106 C110 1.374 . S
C107 N106 1.376 . S
C107 C108 1.443 . S
C107 C134 1.389 . S
C108 C107 1.443 . S
C108 C109 1.340 . S
C108 H140 0.951 . S
C109 C108 1.340 . S
C109 C110 1.439 . S
C109 H141 0.950 . S
C110 N106 1.374 . S
C110 C109 1.439 . S
C110 C135 1.395 . S
N111 Co100 1.995 . S
N111 C112 1.376 . S
N111 C115 1.383 . S
C112 N111 1.376 . S
C112 C113 1.446 . S
C112 C135 1.391 . S
C113 C112 1.446 . S
C113 C114 1.339 . S
C113 H142 0.949 . S
C114 C113 1.339 . S
C114 C115 1.439 . S
C114 H143 0.950 . S
C115 N111 1.383 . S
C115 C114 1.439 . S
C115 C133 1.392 . S
N116 Co100 2.282 . S
N116 C119 1.332 . S
N116 C121 1.332 . S
C117 C118 1.386 . S
C117 C120 1.388 . S
C118 C117 1.386 . S
C118 C119 1.382 . S
C118 H144 0.950 . S
C119 N116 1.332 . S
C119 C118 1.382 . S
C119 H130 0.952 . S
C120 C117 1.388 . S
C120 C121 1.382 . S
C120 H145 0.950 1_545 S
C121 N116 1.332 . S
C121 C120 1.382 . S
C121 H131 0.948 1_545 S
N122 Co100 2.282 . S
N122 C126 1.332 . S
N122 C127 1.332 . S
C123 C124 1.388 . S
C123 C127 1.382 . S
C123 H146 0.950 . S
C124 C123 1.388 . S
C124 C125 1.386 . S
C125 C124 1.386 . S
C125 C126 1.382 . S
C125 H147 0.950 1_545 S
C126 N122 1.332 . S
C126 C125 1.382 . S
C126 H128 0.955 . S
C127 N122 1.332 . S
C127 C123 1.382 . S
C127 H129 0.948 . S
H128 C126 0.955 . S
H129 C127 0.948 . S
H130 C119 0.952 . S
H131 C121 0.948 1_565 S
C132 C98 1.395 . S
C132 C102 1.391 . S
C133 C95 1.389 . S
C133 C115 1.392 . S
C134 C105 1.392 . S
C134 C107 1.389 . S
C135 C110 1.395 . S
C135 C112 1.391 . S
H136 C96 0.951 . S
H137 C97 0.950 . S
H138 C103 0.949 . S
H139 C104 0.950 . S
H140 C108 0.951 . S
H141 C109 0.950 . S
H142 C113 0.949 . S
H143 C114 0.950 . S
H144 C118 0.950 . S
H145 C120 0.950 1_565 S
H146 C123 0.950 . S
H147 C125 0.950 1_565 S
C148 C149 1.443 . S
C148 N152 1.376 . S
C148 C186 1.389 . S
C149 C148 1.443 . S
C149 C150 1.340 . S
C149 H189 0.951 . S
C150 C149 1.340 . S
C150 C151 1.439 . S
C150 H190 0.950 . S
C151 C150 1.439 . S
C151 N152 1.374 . S
C151 C185 1.395 . S
N152 C148 1.376 . S
N152 C151 1.374 . S
N152 Co153 2.008 . S
Co153 N152 2.008 . S
Co153 N154 1.995 . S
Co153 N159 2.008 . S
Co153 N164 1.995 . S
Co153 N169 2.282 . S
Co153 N175 2.282 . S
N154 Co153 1.995 . S
N154 C155 1.376 . S
N154 C158 1.383 . S
C155 N154 1.376 . S
C155 C156 1.446 . S
C155 C185 1.391 . S
C156 C155 1.446 . S
C156 C157 1.339 . S
C156 H191 0.949 . S
C157 C156 1.339 . S
C157 C158 1.439 . S
C157 H192 0.950 . S
C158 N154 1.383 . S
C158 C157 1.439 . S
C158 C187 1.392 . S
N159 Co153 2.008 . S
N159 C160 1.376 . S
N159 C163 1.374 . S
C160 N159 1.376 . S
C160 C161 1.443 . S
C160 C187 1.389 . S
C161 C160 1.443 . S
C161 C162 1.340 . S
C161 H193 0.951 . S
C162 C161 1.340 . S
C162 C163 1.439 . S
C162 H194 0.950 . S
C163 N159 1.374 . S
C163 C162 1.439 . S
C163 C188 1.395 . S
N164 Co153 1.995 . S
N164 C165 1.376 . S
N164 C168 1.383 . S
C165 N164 1.376 . S
C165 C166 1.446 . S
C165 C188 1.391 . S
C166 C165 1.446 . S
C166 C167 1.339 . S
C166 H195 0.949 . S
C167 C166 1.339 . S
C167 C168 1.439 . S
C167 H196 0.950 . S
C168 N164 1.383 . S
C168 C167 1.439 . S
C168 C186 1.392 . S
N169 Co153 2.282 . S
N169 C172 1.332 . S
N169 C174 1.332 . S
C170 C171 1.386 . S
C170 C173 1.388 . S
C171 C170 1.386 . S
C171 C172 1.382 . S
C171 H197 0.950 . S
C172 N169 1.332 . S
C172 C171 1.382 . S
C172 H183 0.952 . S
C173 C170 1.388 . S
C173 C174 1.382 . S
C173 H198 0.950 . S
C174 N169 1.332 . S
C174 C173 1.382 . S
C174 H184 0.948 . S
N175 Co153 2.282 . S
N175 C179 1.332 . S
N175 C180 1.332 . S
C176 C177 1.388 . S
C176 C180 1.382 . S
C176 H199 0.950 . S
C177 C176 1.388 . S
C177 C178 1.386 . S
C178 C177 1.386 . S
C178 C179 1.382 . S
C178 H200 0.950 . S
C179 N175 1.332 . S
C179 C178 1.382 . S
C179 H181 0.952 . S
C180 N175 1.332 . S
C180 C176 1.382 . S
C180 H182 0.948 . S
H181 C179 0.952 . S
H182 C180 0.948 . S
H183 C172 0.952 . S
H184 C174 0.948 . S
C185 C151 1.395 . S
C185 C155 1.391 . S
C186 C148 1.389 . S
C186 C168 1.392 . S
C187 C158 1.392 . S
C187 C160 1.389 . S
C188 C163 1.395 . S
C188 C165 1.391 . S
H189 C149 0.951 . S
H190 C150 0.950 . S
H191 C156 0.949 . S
H192 C157 0.950 . S
H193 C161 0.951 . S
H194 C162 0.950 . S
H195 C166 0.949 . S
H196 C167 0.950 . S
H197 C171 0.950 . S
H198 C173 0.950 . S
H199 C176 0.950 . S
H200 C178 0.950 . S
H201 C202 0.951 . S
C202 H201 0.951 . S
C202 C208 1.265 . S
H203 C208 0.950 1_655 S
H204 C212 0.949 . S
H205 C213 0.950 1_655 S
H206 C214 0.951 . S
H207 C215 0.951 . S
C208 C202 1.265 . S
C208 H203 0.950 1_455 S
C208 C209 1.478 . S
C209 C208 1.478 . S
C209 C210 1.397 . S
C209 C226 1.394 . S
C210 C209 1.397 . S
C210 C211 1.438 . S
C210 C215 1.429 . S
C211 C210 1.438 . S
C211 C212 1.428 . S
C211 C224 1.394 . S
C212 H204 0.949 . S
C212 C211 1.428 . S
C212 C213 1.345 . S
C213 H205 0.950 1_455 S
C213 C212 1.345 . S
C213 C214 1.424 1_455 S
C214 H206 0.951 . S
C214 C213 1.424 1_655 S
C214 C215 1.347 1_655 S
C215 H207 0.951 . S
C215 C210 1.429 . S
C215 C214 1.347 1_455 S
H216 C217 0.951 . S
C217 H216 0.951 . S
C217 C223 1.265 . S
H218 C223 0.950 . S
H219 C227 0.949 . S
H220 C228 0.950 . S
H221 C229 0.951 . S
H222 C230 0.951 . S
C223 C217 1.265 . S
C223 H218 0.950 . S
C223 C224 1.478 . S
C224 C211 1.394 . S
C224 C223 1.478 . S
C224 C225 1.397 . S
C225 C224 1.397 . S
C225 C226 1.438 . S
C225 C230 1.429 . S
C226 C209 1.394 . S
C226 C225 1.438 . S
C226 C227 1.428 . S
C227 H219 0.949 . S
C227 C226 1.428 . S
C227 C228 1.345 . S
C228 H220 0.950 . S
C228 C227 1.345 . S
C228 C229 1.424 . S
C229 H221 0.951 . S
C229 C228 1.424 . S
C229 C230 1.347 . S
C230 H222 0.951 . S
C230 C225 1.429 . S
C230 C229 1.347 . S
H231 C232 0.951 . S
C232 H231 0.951 . S
C232 C238 1.265 . S
H233 C238 0.950 . S
H234 C242 0.949 . S
H235 C243 0.950 . S
H236 C244 0.951 . S
H237 C245 0.951 . S
C238 C232 1.265 . S
C238 H233 0.950 . S
C238 C239 1.478 . S
C239 C238 1.478 . S
C239 C240 1.397 . S
C239 C256 1.394 . S
C240 C239 1.397 . S
C240 C241 1.438 . S
C240 C245 1.429 1_545 S
C241 C240 1.438 . S
C241 C242 1.428 1_545 S
C241 C254 1.394 . S
C242 H234 0.949 . S
C242 C241 1.428 1_565 S
C242 C243 1.345 . S
C243 H235 0.950 . S
C243 C242 1.345 . S
C243 C244 1.424 . S
C244 H236 0.951 . S
C244 C243 1.424 . S
C244 C245 1.347 . S
C245 H237 0.951 . S
C245 C240 1.429 1_565 S
C245 C244 1.347 . S
H246 C247 0.951 . S
C247 H246 0.951 . S
C247 C253 1.265 . S
H248 C253 0.950 . S
H249 C257 0.949 . S
H250 C258 0.960 . S
H251 C259 0.951 . S
H252 C260 0.951 . S
C253 C247 1.265 . S
C253 H248 0.950 . S
C253 C254 1.478 . S
C254 C241 1.394 . S
C254 C253 1.478 . S
C254 C255 1.397 . S
C255 C254 1.397 . S
C255 C256 1.438 . S
C255 C260 1.429 . S
C256 C239 1.394 . S
C256 C255 1.438 . S
C256 C257 1.428 . S
C257 H249 0.949 . S
C257 C256 1.428 . S
C257 C258 1.345 . S
C258 H250 0.960 . S
C258 C257 1.345 . S
C258 C259 1.424 . S
C259 H251 0.951 . S
C259 C258 1.424 . S
C259 C260 1.347 . S
C260 H252 0.951 . S
C260 C255 1.429 . S
C260 C259 1.347 . S
H261 C262 0.951 . S
C262 H261 0.951 . S
C262 C268 1.265 . S
H263 C268 0.950 . S
H264 C272 0.949 . S
H265 C273 0.950 . S
H266 C274 0.951 . S
H267 C275 0.951 . S
C268 C262 1.265 . S
C268 H263 0.950 . S
C268 C269 1.478 . S
C269 C268 1.478 . S
C269 C270 1.397 . S
C269 C286 1.394 . S
C270 C269 1.397 . S
C270 C271 1.438 . S
C270 C275 1.429 . S
C271 C270 1.438 . S
C271 C272 1.428 . S
C271 C284 1.394 . S
C272 H264 0.949 . S
C272 C271 1.428 . S
C272 C273 1.345 . S
C273 H265 0.950 . S
C273 C272 1.345 . S
C273 C274 1.424 . S
C274 H266 0.951 . S
C274 C273 1.424 . S
C274 C275 1.347 . S
C275 H267 0.951 . S
C275 C270 1.429 . S
C275 C274 1.347 . S
H276 C277 0.951 . S
C277 H276 0.951 . S
C277 C283 1.265 . S
H278 C283 0.950 . S
H279 C287 0.949 . S
H280 C288 0.950 . S
H281 C289 0.951 . S
H282 C290 0.951 . S
C283 C277 1.265 . S
C283 H278 0.950 . S
C283 C284 1.478 . S
C284 C271 1.394 . S
C284 C283 1.478 . S
C284 C285 1.397 . S
C285 C284 1.397 . S
C285 C286 1.438 . S
C285 C290 1.429 . S
C286 C269 1.394 . S
C286 C285 1.438 . S
C286 C287 1.428 . S
C287 H279 0.949 . S
C287 C286 1.428 . S
C287 C288 1.345 . S
C288 H280 0.950 . S
C288 C287 1.345 . S
C288 C289 1.424 . S
C289 H281 0.951 . S
C289 C288 1.424 . S
C289 C290 1.347 . S
C290 H282 0.951 . S
C290 C285 1.429 . S
C290 C289 1.347 . S
H291 C292 0.951 . S
C292 H291 0.951 . S
C292 C298 1.265 . S
H293 C298 0.950 1_655 S
H294 C302 0.949 . S
H295 C303 0.950 . S
H296 C304 0.951 . S
H297 C305 0.951 . S
C298 C292 1.265 . S
C298 H293 0.950 1_455 S
C298 C299 1.478 . S
C299 C298 1.478 . S
C299 C300 1.397 . S
C299 C316 1.394 . S
C300 C299 1.397 . S
C300 C301 1.438 . S
C300 C305 1.429 . S
C301 C300 1.438 . S
C301 C302 1.428 . S
C301 C314 1.394 . S
C302 H294 0.949 . S
C302 C301 1.428 . S
C302 C303 1.345 . S
C303 H295 0.950 . S
C303 C302 1.345 . S
C303 C304 1.424 . S
C304 H296 0.951 . S
C304 C303 1.424 . S
C304 C305 1.347 . S
C305 H297 0.951 . S
C305 C300 1.429 . S
C305 C304 1.347 . S
H306 C307 0.951 . S
C307 H306 0.951 . S
C307 C313 1.265 . S
H308 C313 0.950 . S
H309 C317 0.949 . S
H310 C318 0.950 . S
H311 C319 0.951 . S
H312 C320 0.951 . S
C313 C307 1.265 . S
C313 H308 0.950 . S
C313 C314 1.478 . S
C314 C301 1.394 . S
C314 C313 1.478 . S
C314 C315 1.397 . S
C315 C314 1.397 . S
C315 C316 1.438 . S
C315 C320 1.429 . S
C316 C299 1.394 . S
C316 C315 1.438 . S
C316 C317 1.428 . S
C317 H309 0.949 . S
C317 C316 1.428 . S
C317 C318 1.345 . S
C318 H310 0.950 . S
C318 C317 1.345 . S
C318 C319 1.424 . S
C319 H311 0.951 . S
C319 C318 1.424 . S
C319 C320 1.347 . S
C320 H312 0.951 . S
C320 C315 1.429 . S
C320 C319 1.347 . S
H321 C322 0.951 . S
C322 H321 0.951 . S
C322 C328 1.265 . S
H323 C328 0.950 . S
H324 C332 0.949 . S
H325 C333 0.950 . S
H326 C334 0.951 . S
H327 C335 0.951 . S
C328 C322 1.265 . S
C328 H323 0.950 . S
C328 C329 1.478 . S
C329 C328 1.478 . S
C329 C330 1.397 . S
C329 C346 1.394 . S
C330 C329 1.397 . S
C330 C331 1.438 . S
C330 C335 1.429 . S
C331 C330 1.438 . S
C331 C332 1.428 . S
C331 C344 1.394 . S
C332 H324 0.949 . S
C332 C331 1.428 . S
C332 C333 1.345 . S
C333 H325 0.950 . S
C333 C332 1.345 . S
C333 C334 1.424 . S
C334 H326 0.951 . S
C334 C333 1.424 . S
C334 C335 1.347 . S
C335 H327 0.951 . S
C335 C330 1.429 . S
C335 C334 1.347 . S
H336 C337 0.951 . S
C337 H336 0.951 . S
C337 C343 1.265 . S
H338 C343 0.950 . S
H339 C347 0.949 . S
H340 C348 0.950 1_565 S
H341 C349 0.951 1_565 S
H342 C350 0.951 . S
C343 C337 1.265 . S
C343 H338 0.950 . S
C343 C344 1.478 . S
C344 C331 1.394 . S
C344 C343 1.478 . S
C344 C345 1.397 . S
C345 C344 1.397 . S
C345 C346 1.438 . S
C345 C350 1.429 . S
C346 C329 1.394 . S
C346 C345 1.438 . S
C346 C347 1.428 . S
C347 H339 0.949 . S
C347 C346 1.428 . S
C347 C348 1.345 . S
C348 H340 0.950 1_545 S
C348 C347 1.345 . S
C348 C349 1.423 . S
C349 H341 0.951 1_545 S
C349 C348 1.423 . S
C349 C350 1.347 . S
C350 H342 0.951 . S
C350 C345 1.429 . S
C350 C349 1.347 . S
H351 C352 0.951 . S
C352 H351 0.951 . S
C352 C358 1.265 . S
H353 C358 0.950 . S
H354 C362 0.949 . S
H355 C363 0.950 . S
H356 C364 0.951 . S
H357 C365 0.951 . S
C358 C352 1.265 . S
C358 H353 0.950 . S
C358 C359 1.478 . S
C359 C358 1.478 . S
C359 C360 1.397 . S
C359 C376 1.394 . S
C360 C359 1.397 . S
C360 C361 1.438 . S
C360 C365 1.429 . S
C361 C360 1.438 . S
C361 C362 1.428 . S
C361 C374 1.394 . S
C362 H354 0.949 . S
C362 C361 1.428 . S
C362 C363 1.345 . S
C363 H355 0.950 . S
C363 C362 1.345 . S
C363 C364 1.424 . S
C364 H356 0.951 . S
C364 C363 1.424 . S
C364 C365 1.347 . S
C365 H357 0.951 . S
C365 C360 1.429 . S
C365 C364 1.347 . S
H366 C367 0.951 . S
C367 H366 0.951 . S
C367 C373 1.265 . S
H368 C373 0.950 . S
H369 C377 0.949 . S
H370 C378 0.950 . S
H371 C379 0.951 . S
H372 C380 0.951 . S
C373 C367 1.265 . S
C373 H368 0.950 . S
C373 C374 1.478 . S
C374 C361 1.394 . S
C374 C373 1.478 . S
C374 C375 1.397 . S
C375 C374 1.397 . S
C375 C376 1.438 . S
C375 C380 1.429 . S
C376 C359 1.394 . S
C376 C375 1.438 . S
C376 C377 1.428 . S
C377 H369 0.949 . S
C377 C376 1.428 . S
C377 C378 1.345 . S
C378 H370 0.950 . S
C378 C377 1.345 . S
C378 C379 1.424 . S
C379 H371 0.951 . S
C379 C378 1.424 . S
C379 C380 1.347 . S
C380 H372 0.951 . S
C380 C375 1.429 . S
C380 C379 1.347 . S
H381 C382 0.951 . S
C382 H381 0.951 . S
C382 C388 1.265 . S
H383 C388 0.950 . S
H384 C392 0.949 . S
H385 C393 0.950 . S
H386 C394 0.951 . S
H387 C395 0.951 . S
C388 C382 1.265 . S
C388 H383 0.950 . S
C388 C389 1.478 . S
C389 C388 1.478 . S
C389 C390 1.397 . S
C389 C406 1.394 . S
C390 C389 1.397 . S
C390 C391 1.438 . S
C390 C395 1.429 . S
C391 C390 1.438 . S
C391 C392 1.428 . S
C391 C404 1.394 . S
C392 H384 0.949 . S
C392 C391 1.428 . S
C392 C393 1.345 . S
C393 H385 0.950 . S
C393 C392 1.345 . S
C393 C394 1.424 . S
C394 H386 0.951 . S
C394 C393 1.424 . S
C394 C395 1.347 . S
C395 H387 0.951 . S
C395 C390 1.429 . S
C395 C394 1.347 . S
H396 C397 0.951 . S
C397 H396 0.951 . S
C397 C403 1.265 . S
H398 C403 0.950 . S
H399 C407 0.949 . S
H400 C408 0.950 . S
H401 C409 0.951 . S
H402 C410 0.951 . S
C403 C397 1.265 . S
C403 H398 0.950 . S
C403 C404 1.478 . S
C404 C391 1.394 . S
C404 C403 1.478 . S
C404 C405 1.397 . S
C405 C404 1.397 . S
C405 C406 1.438 . S
C405 C410 1.429 1_545 S
C406 C389 1.394 . S
C406 C405 1.438 . S
C406 C407 1.428 1_545 S
C407 H399 0.949 . S
C407 C406 1.428 1_565 S
C407 C408 1.345 . S
C408 H400 0.950 . S
C408 C407 1.345 . S
C408 C409 1.424 . S
C409 H401 0.951 . S
C409 C408 1.424 . S
C409 C410 1.347 . S
C410 H402 0.951 . S
C410 C405 1.429 1_565 S
C410 C409 1.347 . S
H411 C412 0.951 . S
C412 H411 0.951 . S
C412 C418 1.265 1_554 S
H413 C418 0.959 . S
H414 C422 0.949 . S
H415 C423 0.950 . S
H416 C424 0.951 . S
H417 C425 0.951 . S
C418 C412 1.265 1_556 S
C418 H413 0.959 . S
C418 C419 1.478 . S
C419 C418 1.478 . S
C419 C420 1.397 . S
C419 C436 1.394 . S
C420 C419 1.397 . S
C420 C421 1.438 . S
C420 C425 1.429 . S
C421 C420 1.438 . S
C421 C422 1.428 . S
C421 C434 1.394 . S
C422 H414 0.949 . S
C422 C421 1.428 . S
C422 C423 1.345 . S
C423 H415 0.950 . S
C423 C422 1.345 . S
C423 C424 1.424 . S
C424 H416 0.951 . S
C424 C423 1.424 . S
C424 C425 1.347 . S
C425 H417 0.951 . S
C425 C420 1.429 . S
C425 C424 1.347 . S
H426 C427 0.951 . S
C427 H426 0.951 . S
C427 C433 1.265 . S
H428 C433 0.950 . S
H429 C437 0.949 . S
H430 C438 0.950 . S
H431 C439 0.951 . S
H432 C440 0.951 . S
C433 C427 1.265 . S
C433 H428 0.950 . S
C433 C434 1.478 . S
C434 C421 1.394 . S
C434 C433 1.478 . S
C434 C435 1.397 . S
C435 C434 1.397 . S
C435 C436 1.438 . S
C435 C440 1.429 . S
C436 C419 1.394 . S
C436 C435 1.438 . S
C436 C437 1.428 1_556 S
C437 H429 0.949 . S
C437 C436 1.428 1_554 S
C437 C438 1.345 . S
C438 H430 0.950 . S
C438 C437 1.345 . S
C438 C439 1.424 . S
C439 H431 0.951 . S
C439 C438 1.424 . S
C439 C440 1.347 1_554 S
C440 H432 0.951 . S
C440 C435 1.429 . S
C440 C439 1.347 1_556 S
H441 C442 0.951 . S
C442 H441 0.951 . S
C442 C448 1.265 . S
H443 C448 0.950 . S
H444 C452 0.949 . S
H445 C453 0.950 . S
H446 C454 0.951 . S
H447 C455 0.951 . S
C448 C442 1.265 . S
C448 H443 0.950 . S
C448 C449 1.478 . S
C449 C448 1.478 . S
C449 C450 1.397 . S
C449 C466 1.394 . S
C450 C449 1.397 . S
C450 C451 1.438 . S
C450 C455 1.429 . S
C451 C450 1.438 . S
C451 C452 1.428 . S
C451 C464 1.394 . S
C452 H444 0.949 . S
C452 C451 1.428 . S
C452 C453 1.345 . S
C453 H445 0.950 . S
C453 C452 1.345 . S
C453 C454 1.424 . S
C454 H446 0.951 . S
C454 C453 1.424 . S
C454 C455 1.347 . S
C455 H447 0.951 . S
C455 C450 1.429 . S
C455 C454 1.347 . S
H456 C457 0.951 . S
C457 H456 0.951 . S
C457 C463 1.265 . S
H458 C463 0.950 1_655 S
H459 C467 0.949 . S
H460 C468 0.950 . S
H461 C469 0.951 . S
H462 C470 0.951 . S
C463 C457 1.265 . S
C463 H458 0.950 1_455 S
C463 C464 1.478 . S
C464 C451 1.394 . S
C464 C463 1.478 . S
C464 C465 1.397 . S
C465 C464 1.397 . S
C465 C466 1.438 . S
C465 C470 1.429 . S
C466 C449 1.394 . S
C466 C465 1.438 . S
C466 C467 1.428 . S
C467 H459 0.949 . S
C467 C466 1.428 . S
C467 C468 1.345 . S
C468 H460 0.950 . S
C468 C467 1.345 . S
C468 C469 1.424 . S
C469 H461 0.951 . S
C469 C468 1.424 . S
C469 C470 1.347 . S
C470 H462 0.951 . S
C470 C465 1.429 . S
C470 C469 1.347 . S
H471 C472 0.951 . S
C472 H471 0.951 . S
C472 C478 1.265 . S
H473 C478 0.950 . S
H474 C482 0.949 . S
H475 C483 0.950 . S
H476 C484 0.951 . S
H477 C485 0.951 . S
C478 C472 1.265 . S
C478 H473 0.950 . S
C478 C479 1.478 . S
C479 C478 1.478 . S
C479 C480 1.397 . S
C479 C496 1.394 . S
C480 C479 1.397 . S
C480 C481 1.438 . S
C480 C485 1.429 1_545 S
C481 C480 1.438 . S
C481 C482 1.428 1_545 S
C481 C494 1.394 . S
C482 H474 0.949 . S
C482 C481 1.428 1_565 S
C482 C483 1.345 . S
C483 H475 0.950 . S
C483 C482 1.345 . S
C483 C484 1.424 . S
C484 H476 0.951 . S
C484 C483 1.424 . S
C484 C485 1.347 . S
C485 H477 0.951 . S
C485 C480 1.429 1_565 S
C485 C484 1.347 . S
H486 C487 0.951 . S
C487 H486 0.951 . S
C487 C493 1.265 . S
H488 C493 0.950 . S
H489 C497 0.949 . S
H490 C498 0.950 . S
H491 C499 0.951 . S
H492 C500 0.951 . S
C493 C487 1.265 . S
C493 H488 0.950 . S
C493 C494 1.478 . S
C494 C481 1.394 . S
C494 C493 1.478 . S
C494 C495 1.397 . S
C495 C494 1.397 . S
C495 C496 1.438 . S
C495 C500 1.429 . S
C496 C479 1.394 . S
C496 C495 1.438 . S
C496 C497 1.428 . S
C497 H489 0.949 . S
C497 C496 1.428 . S
C497 C498 1.345 . S
C498 H490 0.950 . S
C498 C497 1.345 . S
C498 C499 1.424 . S
C499 H491 0.951 . S
C499 C498 1.424 . S
C499 C500 1.347 . S
C500 H492 0.951 . S
C500 C495 1.429 . S
C500 C499 1.347 . S
H501 C502 0.951 . S
C502 H501 0.951 . S
C502 C508 1.265 1_554 S
H503 C508 0.950 . S
H504 C512 0.949 . S
H505 C513 0.950 . S
H506 C514 0.951 . S
H507 C515 0.951 . S
C508 C502 1.265 1_556 S
C508 H503 0.950 . S
C508 C509 1.478 . S
C509 C508 1.478 . S
C509 C510 1.397 . S
C509 C526 1.394 . S
C510 C509 1.397 . S
C510 C511 1.438 . S
C510 C515 1.429 . S
C511 C510 1.438 . S
C511 C512 1.428 . S
C511 C524 1.394 . S
C512 H504 0.949 . S
C512 C511 1.428 . S
C512 C513 1.345 . S
C513 H505 0.950 . S
C513 C512 1.345 . S
C513 C514 1.424 . S
C514 H506 0.951 . S
C514 C513 1.424 . S
C514 C515 1.347 . S
C515 H507 0.951 . S
C515 C510 1.429 . S
C515 C514 1.347 . S
H516 C517 0.951 . S
C517 H516 0.951 . S
C517 C523 1.265 . S
H518 C523 0.950 . S
H519 C527 0.951 1_554 S
H520 C528 0.950 1_554 S
H521 C529 0.951 . S
H522 C530 0.951 . S
C523 C517 1.265 . S
C523 H518 0.950 . S
C523 C524 1.478 . S
C524 C511 1.394 . S
C524 C523 1.478 . S
C524 C525 1.397 . S
C525 C524 1.397 . S
C525 C526 1.438 . S
C525 C530 1.429 . S
C526 C509 1.394 . S
C526 C525 1.438 . S
C526 C527 1.428 . S
C527 H519 0.951 1_556 S
C527 C526 1.428 . S
C527 C528 1.345 . S
C528 H520 0.950 1_556 S
C528 C527 1.345 . S
C528 C529 1.424 . S
C529 H521 0.951 . S
C529 C528 1.424 . S
C529 C530 1.347 . S
C530 H522 0.951 . S
C530 C525 1.429 . S
C530 C529 1.347 . S
H531 C532 0.951 1_655 S
C532 H531 0.951 1_455 S
C532 C538 1.265 . S
H533 C538 0.950 . S
H534 C542 0.949 . S
H535 C543 0.950 . S
H536 C544 0.951 . S
H537 C545 0.951 . S
C538 C532 1.265 . S
C538 H533 0.950 . S
C538 C539 1.478 . S
C539 C538 1.478 . S
C539 C540 1.397 . S
C539 C556 1.398 . S
C540 C539 1.397 . S
C540 C541 1.438 . S
C540 C545 1.429 . S
C541 C540 1.438 . S
C541 C542 1.428 . S
C541 C554 1.394 . S
C542 H534 0.949 . S
C542 C541 1.428 . S
C542 C543 1.345 . S
C543 H535 0.950 . S
C543 C542 1.345 . S
C543 C544 1.424 . S
C544 H536 0.951 . S
C544 C543 1.424 . S
C544 C545 1.347 . S
C545 H537 0.951 . S
C545 C540 1.429 . S
C545 C544 1.347 . S
H546 C547 0.951 . S
C547 H546 0.951 . S
C547 C553 1.265 . S
H548 C553 0.950 1_655 S
H549 C557 0.949 . S
H550 C558 0.950 . S
H551 C559 0.951 . S
H552 C560 0.951 . S
C553 C547 1.265 . S
C553 H548 0.950 1_455 S
C553 C554 1.478 . S
C554 C541 1.394 . S
C554 C553 1.478 . S
C554 C555 1.397 1_455 S
C555 C554 1.397 1_655 S
C555 C556 1.436 1_655 S
C555 C560 1.429 . S
C556 C539 1.398 . S
C556 C555 1.436 1_455 S
C556 C557 1.426 1_455 S
C557 H549 0.949 . S
C557 C556 1.426 1_655 S
C557 C558 1.345 . S
C558 H550 0.950 . S
C558 C557 1.345 . S
C558 C559 1.424 . S
C559 H551 0.951 . S
C559 C558 1.424 . S
C559 C560 1.347 . S
C560 H552 0.951 . S
C560 C555 1.429 . S
C560 C559 1.347 . S
C217 C64 1.477 . S
C202 C6 1.472 . S
C232 C22 1.578 . S
C247 C134 1.580 . S
C262 C34 1.216 . S
C277 C186 1.276 . S
C292 C7 1.436 . S
C307 C80 1.477 . S
C337 C124 1.575 . S
C322 C23 1.585 . S
C352 C35 1.287 . S
C367 C170 1.262 . S
C397 C117 1.573 . S
C382 C36 1.573 . S
C412 C9 1.732 1_655 S
C427 C177 1.792 . S
C457 C71 1.468 . S
C442 C21 1.433 . S
C487 C133 1.580 . S
C472 C37 1.581 . S
C517 C187 1.828 . S
C502 C8 1.774 . S
C532 C20 1.479 . S
C547 C81 1.468 . S
