# Generated by pormake.
# Topology gar, (4,6)-cn, num edge types: 1
# Building blocks:
#     Node 0, Type 0, BuildingBlock: KUFVIS_clean_sbu_0, # of connection points: 4
#     Node 1, Type 0, BuildingBlock: KUFVIS_clean_sbu_0, # of connection points: 4
#     Node 2, Type 0, BuildingBlock: KUFVIS_clean_sbu_0, # of connection points: 4
#     Node 3, Type 0, BuildingBlock: KUFVIS_clean_sbu_0, # of connection points: 4
#     Node 4, Type 0, BuildingBlock: KUFVIS_clean_sbu_0, # of connection points: 4
#     Node 5, Type 0, BuildingBlock: KUFVIS_clean_sbu_0, # of connection points: 4
#     Node 6, Type 0, BuildingBlock: KUFVIS_clean_sbu_0, # of connection points: 4
#     Node 7, Type 0, BuildingBlock: KUFVIS_clean_sbu_0, # of connection points: 4
#     Node 8, Type 0, BuildingBlock: KUFVIS_clean_sbu_0, # of connection points: 4
#     Node 9, Type 0, BuildingBlock: KUFVIS_clean_sbu_0, # of connection points: 4
#     Node 10, Type 0, BuildingBlock: KUFVIS_clean_sbu_0, # of connection points: 4
#     Node 11, Type 0, BuildingBlock: KUFVIS_clean_sbu_0, # of connection points: 4
#     Node 12, Type 0, BuildingBlock: KUFVIS_clean_sbu_0, # of connection points: 4
#     Node 13, Type 0, BuildingBlock: KUFVIS_clean_sbu_0, # of connection points: 4
#     Node 14, Type 0, BuildingBlock: KUFVIS_clean_sbu_0, # of connection points: 4
#     Node 15, Type 0, BuildingBlock: KUFVIS_clean_sbu_0, # of connection points: 4
#     Node 16, Type 0, BuildingBlock: KUFVIS_clean_sbu_0, # of connection points: 4
#     Node 17, Type 0, BuildingBlock: KUFVIS_clean_sbu_0, # of connection points: 4
#     Node 18, Type 0, BuildingBlock: KUFVIS_clean_sbu_0, # of connection points: 4
#     Node 19, Type 0, BuildingBlock: KUFVIS_clean_sbu_0, # of connection points: 4
#     Node 20, Type 0, BuildingBlock: KUFVIS_clean_sbu_0, # of connection points: 4
#     Node 21, Type 0, BuildingBlock: KUFVIS_clean_sbu_0, # of connection points: 4
#     Node 22, Type 0, BuildingBlock: KUFVIS_clean_sbu_0, # of connection points: 4
#     Node 23, Type 0, BuildingBlock: KUFVIS_clean_sbu_0, # of connection points: 4
#     Node 24, Type 1, BuildingBlock: NUHQIS_clean_sbu_0, # of connection points: 6
#     Node 25, Type 1, BuildingBlock: NUHQIS_clean_sbu_0, # of connection points: 6
#     Node 26, Type 1, BuildingBlock: NUHQIS_clean_sbu_0, # of connection points: 6
#     Node 27, Type 1, BuildingBlock: NUHQIS_clean_sbu_0, # of connection points: 6
#     Node 28, Type 1, BuildingBlock: NUHQIS_clean_sbu_0, # of connection points: 6
#     Node 29, Type 1, BuildingBlock: NUHQIS_clean_sbu_0, # of connection points: 6
#     Node 30, Type 1, BuildingBlock: NUHQIS_clean_sbu_0, # of connection points: 6
#     Node 31, Type 1, BuildingBlock: NUHQIS_clean_sbu_0, # of connection points: 6
#     Node 32, Type 1, BuildingBlock: NUHQIS_clean_sbu_0, # of connection points: 6
#     Node 33, Type 1, BuildingBlock: NUHQIS_clean_sbu_0, # of connection points: 6
#     Node 34, Type 1, BuildingBlock: NUHQIS_clean_sbu_0, # of connection points: 6
#     Node 35, Type 1, BuildingBlock: NUHQIS_clean_sbu_0, # of connection points: 6
#     Node 36, Type 1, BuildingBlock: NUHQIS_clean_sbu_0, # of connection points: 6
#     Node 37, Type 1, BuildingBlock: NUHQIS_clean_sbu_0, # of connection points: 6
#     Node 38, Type 1, BuildingBlock: NUHQIS_clean_sbu_0, # of connection points: 6
#     Node 39, Type 1, BuildingBlock: NUHQIS_clean_sbu_0, # of connection points: 6
#     Edge 40, Type (0, 1), BuildingBlock: OJICUG_clean_linker_0, # of connection points: 2
#     Edge 41, Type (0, 1), BuildingBlock: OJICUG_clean_linker_0, # of connection points: 2
#     Edge 42, Type (0, 1), BuildingBlock: OJICUG_clean_linker_0, # of connection points: 2
#     Edge 43, Type (0, 1), BuildingBlock: OJICUG_clean_linker_0, # of connection points: 2
#     Edge 44, Type (0, 1), BuildingBlock: OJICUG_clean_linker_0, # of connection points: 2
#     Edge 45, Type (0, 1), BuildingBlock: OJICUG_clean_linker_0, # of connection points: 2
#     Edge 46, Type (0, 1), BuildingBlock: OJICUG_clean_linker_0, # of connection points: 2
#     Edge 47, Type (0, 1), BuildingBlock: OJICUG_clean_linker_0, # of connection points: 2
#     Edge 48, Type (0, 1), BuildingBlock: OJICUG_clean_linker_0, # of connection points: 2
#     Edge 49, Type (0, 1), BuildingBlock: OJICUG_clean_linker_0, # of connection points: 2
#     Edge 50, Type (0, 1), BuildingBlock: OJICUG_clean_linker_0, # of connection points: 2
#     Edge 51, Type (0, 1), BuildingBlock: OJICUG_clean_linker_0, # of connection points: 2
#     Edge 52, Type (0, 1), BuildingBlock: OJICUG_clean_linker_0, # of connection points: 2
#     Edge 53, Type (0, 1), BuildingBlock: OJICUG_clean_linker_0, # of connection points: 2
#     Edge 54, Type (0, 1), BuildingBlock: OJICUG_clean_linker_0, # of connection points: 2
#     Edge 55, Type (0, 1), BuildingBlock: OJICUG_clean_linker_0, # of connection points: 2
#     Edge 56, Type (0, 1), BuildingBlock: OJICUG_clean_linker_0, # of connection points: 2
#     Edge 57, Type (0, 1), BuildingBlock: OJICUG_clean_linker_0, # of connection points: 2
#     Edge 58, Type (0, 1), BuildingBlock: OJICUG_clean_linker_0, # of connection points: 2
#     Edge 59, Type (0, 1), BuildingBlock: OJICUG_clean_linker_0, # of connection points: 2
#     Edge 60, Type (0, 1), BuildingBlock: OJICUG_clean_linker_0, # of connection points: 2
#     Edge 61, Type (0, 1), BuildingBlock: OJICUG_clean_linker_0, # of connection points: 2
#     Edge 62, Type (0, 1), BuildingBlock: OJICUG_clean_linker_0, # of connection points: 2
#     Edge 63, Type (0, 1), BuildingBlock: OJICUG_clean_linker_0, # of connection points: 2
#     Edge 64, Type (0, 1), BuildingBlock: OJICUG_clean_linker_0, # of connection points: 2
#     Edge 65, Type (0, 1), BuildingBlock: OJICUG_clean_linker_0, # of connection points: 2
#     Edge 66, Type (0, 1), BuildingBlock: OJICUG_clean_linker_0, # of connection points: 2
#     Edge 67, Type (0, 1), BuildingBlock: OJICUG_clean_linker_0, # of connection points: 2
#     Edge 68, Type (0, 1), BuildingBlock: OJICUG_clean_linker_0, # of connection points: 2
#     Edge 69, Type (0, 1), BuildingBlock: OJICUG_clean_linker_0, # of connection points: 2
#     Edge 70, Type (0, 1), BuildingBlock: OJICUG_clean_linker_0, # of connection points: 2
#     Edge 71, Type (0, 1), BuildingBlock: OJICUG_clean_linker_0, # of connection points: 2
#     Edge 72, Type (0, 1), BuildingBlock: OJICUG_clean_linker_0, # of connection points: 2
#     Edge 73, Type (0, 1), BuildingBlock: OJICUG_clean_linker_0, # of connection points: 2
#     Edge 74, Type (0, 1), BuildingBlock: OJICUG_clean_linker_0, # of connection points: 2
#     Edge 75, Type (0, 1), BuildingBlock: OJICUG_clean_linker_0, # of connection points: 2
#     Edge 76, Type (0, 1), BuildingBlock: OJICUG_clean_linker_0, # of connection points: 2
#     Edge 77, Type (0, 1), BuildingBlock: OJICUG_clean_linker_0, # of connection points: 2
#     Edge 78, Type (0, 1), BuildingBlock: OJICUG_clean_linker_0, # of connection points: 2
#     Edge 79, Type (0, 1), BuildingBlock: OJICUG_clean_linker_0, # of connection points: 2
#     Edge 80, Type (0, 1), BuildingBlock: OJICUG_clean_linker_0, # of connection points: 2
#     Edge 81, Type (0, 1), BuildingBlock: OJICUG_clean_linker_0, # of connection points: 2
#     Edge 82, Type (0, 1), BuildingBlock: OJICUG_clean_linker_0, # of connection points: 2
#     Edge 83, Type (0, 1), BuildingBlock: OJICUG_clean_linker_0, # of connection points: 2
#     Edge 84, Type (0, 1), BuildingBlock: OJICUG_clean_linker_0, # of connection points: 2
#     Edge 85, Type (0, 1), BuildingBlock: OJICUG_clean_linker_0, # of connection points: 2
#     Edge 86, Type (0, 1), BuildingBlock: OJICUG_clean_linker_0, # of connection points: 2
#     Edge 87, Type (0, 1), BuildingBlock: OJICUG_clean_linker_0, # of connection points: 2
#     Edge 88, Type (0, 1), BuildingBlock: OJICUG_clean_linker_0, # of connection points: 2
#     Edge 89, Type (0, 1), BuildingBlock: OJICUG_clean_linker_0, # of connection points: 2
#     Edge 90, Type (0, 1), BuildingBlock: OJICUG_clean_linker_0, # of connection points: 2
#     Edge 91, Type (0, 1), BuildingBlock: OJICUG_clean_linker_0, # of connection points: 2
#     Edge 92, Type (0, 1), BuildingBlock: OJICUG_clean_linker_0, # of connection points: 2
#     Edge 93, Type (0, 1), BuildingBlock: OJICUG_clean_linker_0, # of connection points: 2
#     Edge 94, Type (0, 1), BuildingBlock: OJICUG_clean_linker_0, # of connection points: 2
#     Edge 95, Type (0, 1), BuildingBlock: OJICUG_clean_linker_0, # of connection points: 2
#     Edge 96, Type (0, 1), BuildingBlock: OJICUG_clean_linker_0, # of connection points: 2
#     Edge 97, Type (0, 1), BuildingBlock: OJICUG_clean_linker_0, # of connection points: 2
#     Edge 98, Type (0, 1), BuildingBlock: OJICUG_clean_linker_0, # of connection points: 2
#     Edge 99, Type (0, 1), BuildingBlock: OJICUG_clean_linker_0, # of connection points: 2
#     Edge 100, Type (0, 1), BuildingBlock: OJICUG_clean_linker_0, # of connection points: 2
#     Edge 101, Type (0, 1), BuildingBlock: OJICUG_clean_linker_0, # of connection points: 2
#     Edge 102, Type (0, 1), BuildingBlock: OJICUG_clean_linker_0, # of connection points: 2
#     Edge 103, Type (0, 1), BuildingBlock: OJICUG_clean_linker_0, # of connection points: 2
#     Edge 104, Type (0, 1), BuildingBlock: OJICUG_clean_linker_0, # of connection points: 2
#     Edge 105, Type (0, 1), BuildingBlock: OJICUG_clean_linker_0, # of connection points: 2
#     Edge 106, Type (0, 1), BuildingBlock: OJICUG_clean_linker_0, # of connection points: 2
#     Edge 107, Type (0, 1), BuildingBlock: OJICUG_clean_linker_0, # of connection points: 2
#     Edge 108, Type (0, 1), BuildingBlock: OJICUG_clean_linker_0, # of connection points: 2
#     Edge 109, Type (0, 1), BuildingBlock: OJICUG_clean_linker_0, # of connection points: 2
#     Edge 110, Type (0, 1), BuildingBlock: OJICUG_clean_linker_0, # of connection points: 2
#     Edge 111, Type (0, 1), BuildingBlock: OJICUG_clean_linker_0, # of connection points: 2
#     Edge 112, Type (0, 1), BuildingBlock: OJICUG_clean_linker_0, # of connection points: 2
#     Edge 113, Type (0, 1), BuildingBlock: OJICUG_clean_linker_0, # of connection points: 2
#     Edge 114, Type (0, 1), BuildingBlock: OJICUG_clean_linker_0, # of connection points: 2
#     Edge 115, Type (0, 1), BuildingBlock: OJICUG_clean_linker_0, # of connection points: 2
#     Edge 116, Type (0, 1), BuildingBlock: OJICUG_clean_linker_0, # of connection points: 2
#     Edge 117, Type (0, 1), BuildingBlock: OJICUG_clean_linker_0, # of connection points: 2
#     Edge 118, Type (0, 1), BuildingBlock: OJICUG_clean_linker_0, # of connection points: 2
#     Edge 119, Type (0, 1), BuildingBlock: OJICUG_clean_linker_0, # of connection points: 2
#     Edge 120, Type (0, 1), BuildingBlock: OJICUG_clean_linker_0, # of connection points: 2
#     Edge 121, Type (0, 1), BuildingBlock: OJICUG_clean_linker_0, # of connection points: 2
#     Edge 122, Type (0, 1), BuildingBlock: OJICUG_clean_linker_0, # of connection points: 2
#     Edge 123, Type (0, 1), BuildingBlock: OJICUG_clean_linker_0, # of connection points: 2
#     Edge 124, Type (0, 1), BuildingBlock: OJICUG_clean_linker_0, # of connection points: 2
#     Edge 125, Type (0, 1), BuildingBlock: OJICUG_clean_linker_0, # of connection points: 2
#     Edge 126, Type (0, 1), BuildingBlock: OJICUG_clean_linker_0, # of connection points: 2
#     Edge 127, Type (0, 1), BuildingBlock: OJICUG_clean_linker_0, # of connection points: 2
#     Edge 128, Type (0, 1), BuildingBlock: OJICUG_clean_linker_0, # of connection points: 2
#     Edge 129, Type (0, 1), BuildingBlock: OJICUG_clean_linker_0, # of connection points: 2
#     Edge 130, Type (0, 1), BuildingBlock: OJICUG_clean_linker_0, # of connection points: 2
#     Edge 131, Type (0, 1), BuildingBlock: OJICUG_clean_linker_0, # of connection points: 2
#     Edge 132, Type (0, 1), BuildingBlock: OJICUG_clean_linker_0, # of connection points: 2
#     Edge 133, Type (0, 1), BuildingBlock: OJICUG_clean_linker_0, # of connection points: 2
#     Edge 134, Type (0, 1), BuildingBlock: OJICUG_clean_linker_0, # of connection points: 2
#     Edge 135, Type (0, 1), BuildingBlock: OJICUG_clean_linker_0, # of connection points: 2
# Relax obj value: 0.288
# Max RMSD: 0.371
# Mean RMSD: 0.147
data_MOF--net-gar--node1-KUFVIS_clean_sbu_0--node2-NUHQIS_clean_sbu_0--edge1-OJICUG_clean_linker_0
_symmetry_space_group_name_H-M    P1
_symmetry_Int_Tables_number       1
_symmetry_cell_setting            triclinic
loop_
_symmetry_equiv_pos_as_xyz
'x, y, z'
_cell_length_a     41.899535
_cell_length_b     44.631458
_cell_length_c     42.630362
_cell_angle_alpha  92.431089
_cell_angle_beta   96.879078
_cell_angle_gamma 100.67064
loop_
_atom_site_label
_atom_site_type_symbol
_atom_site_fract_x
_atom_site_fract_y
_atom_site_fract_z
_atom_type_partial_charge
Mn0 Mn 0.11168 0.3237 0.43878 0.0
Mn1 Mn 0.11005 0.37349 0.37859 0.0
C2 C 0.05905 0.33175 0.40969 0.0
C3 C 0.11041 0.26879 0.46134 0.0
C4 C 0.12143 0.39969 0.44873 0.0
O5 O 0.15996 0.32713 0.42101 0.0
O6 O 0.15446 0.36046 0.38343 0.0
C7 C 0.1128 0.32863 0.32601 0.0
N8 N 0.09766 0.3497 0.33907 0.0
C9 C 0.05589 0.34294 0.29398 0.0
C10 C 0.07123 0.3214 0.27999 0.0
C11 C 0.09973 0.31413 0.29614 0.0
C12 C 0.06993 0.35653 0.32389 0.0
H13 H 0.13465 0.32279 0.33823 0.0
C14 C 0.17133 0.34235 0.39754 0.0
O15 O 0.12059 0.29496 0.47731 0.0
O16 O 0.10239 0.27415 0.43196 0.0
N17 N 0.06984 0.38801 0.36886 0.0
C18 C 0.05787 0.40941 0.38536 0.0
C19 C 1.02972 0.41951 0.37214 0.0
C20 C 1.01418 0.40772 0.342 0.0
C21 C 1.02711 0.3861 0.32522 0.0
C22 C 0.05554 0.37719 0.33941 0.0
H23 H 0.06953 0.41875 0.4085 0.0
O24 O 0.06132 0.32129 0.43765 0.0
O25 O 0.08761 0.33759 0.3995 0.0
O26 O 0.11995 0.37243 0.46026 0.0
O27 O 0.12112 0.40157 0.41867 0.0
C28 C 1.01282 0.37299 0.29499 0.0
C29 C 1.02709 0.35129 0.27946 0.0
H30 H 0.06125 0.31019 0.25694 0.0
H31 H 0.11162 0.29741 0.28558 0.0
H32 H 1.01998 0.4363 0.38522 0.0
H33 H 0.99231 0.41538 0.33199 0.0
H34 H 0.99072 0.37927 0.28356 0.0
H35 H 1.0157 0.34116 0.25634 0.0
Mn36 Mn 0.09687 0.82766 0.66926 0.0
Mn37 Mn 0.1128 0.88448 0.72925 0.0
C38 C 0.15318 0.84413 0.69957 0.0
C39 C 0.08863 0.77107 0.64444 0.0
C40 C 0.10045 0.90169 0.65869 0.0
O41 O 0.04882 0.82578 0.68867 0.0
O42 O 0.06458 0.86432 0.7266 0.0
C43 C 0.10241 0.8467 0.78412 0.0
N44 N 0.12219 0.86764 0.76916 0.0
C45 C 0.16626 0.8716 0.81187 0.0
C46 C 0.14622 0.85031 0.82779 0.0
C47 C 0.11419 0.83776 0.81382 0.0
C48 C 0.15312 0.87979 0.78238 0.0
H49 H 0.07784 0.83676 0.77352 0.0
C50 C 1.04211 0.84232 0.71283 0.0
O51 O 0.08167 0.79433 0.62964 0.0
O52 O 0.09751 0.77977 0.67421 0.0
N53 N 0.15779 0.90497 0.73594 0.0
C54 C 0.1749 0.92349 0.71657 0.0
C55 C 0.20773 0.93707 0.72668 0.0
C56 C 0.22269 0.9315 0.75656 0.0
C57 C 0.20468 0.91234 0.77607 0.0
C58 C 0.17192 0.89965 0.76487 0.0
H59 H 0.16372 0.92781 0.69349 0.0
O60 O 0.14794 0.83284 0.67048 0.0
O61 O 0.12559 0.84784 0.70916 0.0
O62 O 0.09644 0.87304 0.64755 0.0
O63 O 0.1049 0.90702 0.689 0.0
C64 C 0.21818 0.90483 0.80591 0.0
C65 C 0.19899 0.88448 0.82379 0.0
H66 H 0.15528 0.8432 0.85061 0.0
H67 H 0.09865 0.82115 0.82586 0.0
H68 H 0.22152 0.95171 0.7114 0.0
H69 H 0.24812 0.94178 0.76415 0.0
H70 H 0.24346 0.91421 0.8151 0.0
H71 H 0.2098 0.87853 0.84649 0.0
Mn72 Mn 0.6046 0.82356 0.94007 0.0
Mn73 Mn 0.60299 0.87356 0.88011 0.0
C74 C 0.55118 0.83092 0.90988 0.0
C75 C 0.60457 0.76829 0.96268 0.0
C76 C 0.61389 0.90002 0.95054 0.0
O77 O 0.65331 0.82755 0.92273 0.0
O78 O 0.648 0.86114 0.88546 0.0
C79 C 0.60745 0.82928 0.82756 0.0
N80 N 0.59164 0.84993 0.8404 0.0
C81 C 0.55061 0.84289 0.79467 0.0
C82 C 0.56667 0.82181 0.78091 0.0
C83 C 0.59514 0.8149 0.79749 0.0
C84 C 0.56398 0.85646 0.82478 0.0
H85 H 0.62927 0.82367 0.8401 0.0
C86 C 0.66499 0.84304 0.89954 0.0
O87 O 0.61398 0.79457 0.97862 0.0
O88 O 0.59625 0.77377 0.93337 0.0
N89 N 0.56243 0.8873 0.8698 0.0
C90 C 0.5491 0.90747 0.88658 0.0
C91 C 0.52055 0.9168 0.87317 0.0
C92 C 0.50591 0.90535 0.84262 0.0
C93 C 0.52005 0.88476 0.82571 0.0
C94 C 0.54881 0.87659 0.84012 0.0
H95 H 0.55984 0.91621 0.91017 0.0
O96 O 0.5536 0.82049 0.93788 0.0
O97 O 0.58017 0.83732 0.90044 0.0
O98 O 0.61264 0.8726 0.96185 0.0
O99 O 0.61309 0.90183 0.92037 0.0
C100 C 0.50649 0.87174 0.79525 0.0
C101 C 0.52167 0.85071 0.77981 0.0
H102 H 0.55725 0.81066 0.75771 0.0
H103 H 0.60758 0.79851 0.7871 0.0
H104 H 0.50971 0.9326 0.88646 0.0
H105 H 0.48366 0.91231 0.83251 0.0
H106 H 0.48418 0.87748 0.78363 0.0
H107 H 0.51081 0.84059 0.75653 0.0
Mn108 Mn 0.60387 0.32975 0.17653 0.0
Mn109 Mn 0.54116 0.31892 0.11758 0.0
C110 C 0.58622 0.27654 0.14792 0.0
C111 C 0.66252 0.33907 0.20296 0.0
C112 C 0.5282 0.32675 0.18845 0.0
O113 O 0.60497 0.37663 0.15913 0.0
O114 O 0.56338 0.3651 0.1197 0.0
C115 C 0.57645 0.33206 0.0619 0.0
N116 N 0.55518 0.31275 0.07709 0.0
C117 C 0.54491 0.27509 0.0331 0.0
C118 C 0.5663 0.29479 1.01685 0.0
C119 C 0.58222 0.32334 0.03137 0.0
C120 C 0.53979 0.28516 0.06335 0.0
H121 H 0.58903 0.35392 0.07298 0.0
C122 C 0.5871 0.38546 0.13487 0.0
O123 O 0.63806 0.34436 0.21662 0.0
O124 O 0.65378 0.33049 0.17317 0.0
N125 N 0.51832 0.27735 0.11089 0.0
C126 C 0.50158 0.25963 0.13111 0.0
C127 C 0.48602 0.22956 0.12102 0.0
C128 C 0.48789 0.21795 0.09031 0.0
C129 C 0.50555 0.23647 0.07003 0.0
C130 C 0.52046 0.26632 0.08134 0.0
H131 H 0.5003 0.26822 0.15488 0.0
O132 O 0.59926 0.28189 0.1773 0.0
O133 O 0.58123 0.30296 0.13667 0.0
O134 O 0.5591 0.3295 0.19886 0.0
O135 O 0.51981 0.32379 0.15823 0.0
C136 C 0.50973 0.22614 0.03937 0.0
C137 C 0.52934 0.24546 1.0209 0.0
H138 H 0.57109 0.28802 0.99342 0.0
H139 H 0.59904 0.33855 1.01911 0.0
H140 H 0.47273 0.21531 0.13694 0.0
H141 H 0.47607 0.19465 0.0827 0.0
H142 H 0.49847 0.20318 0.03 0.0
H143 H 0.53287 0.23706 0.99759 0.0
Mn144 Mn 0.17874 0.8958 0.18225 0.0
Mn145 Mn 0.12932 0.85376 0.12168 0.0
C146 C 0.17848 0.8447 0.17583 0.0
C147 C 0.22614 0.92538 0.20911 0.0
C148 C 0.10739 0.86533 0.18389 0.0
O149 O 0.16666 0.92817 0.15448 0.0
O150 O 0.12697 0.89816 0.12112 0.0
C151 C 0.16945 0.88085 0.07346 0.0
N152 N 0.15493 0.85577 0.08724 0.0
C153 C 0.17494 0.82218 0.05189 0.0
C154 C 0.19 0.84765 0.03729 0.0
C155 C 0.18734 0.87711 0.04822 0.0
C156 C 0.15789 0.82736 0.07729 0.0
H157 H 0.16746 0.90354 0.08162 0.0
C158 C 0.14232 0.92451 0.13285 0.0
O159 O 0.19768 0.92626 0.21767 0.0
O160 O 0.22655 0.91032 0.18235 0.0
N161 N 0.12734 0.81055 0.11747 0.0
C162 C 0.10826 0.7883 0.13161 0.0
C163 C 0.10684 0.75746 0.12235 0.0
C164 C 0.12435 0.74975 0.0981 0.0
C165 C 0.14245 0.77302 0.08276 0.0
C166 C 0.14277 0.80339 0.0929 0.0
H167 H 0.09423 0.79405 0.14987 0.0
O168 O 0.18836 0.85951 0.20307 0.0
O169 O 0.17018 0.86042 0.1519 0.0
O170 O 0.13233 0.88605 0.19325 0.0
O171 O 0.10317 0.85 0.15723 0.0
C172 C 0.15949 0.76728 0.05729 0.0
C173 C 0.17594 0.79186 0.04202 0.0
H174 H 0.20359 0.84486 1.01764 0.0
H175 H 0.19895 0.89689 0.03712 0.0
H176 H 0.0921 0.73968 0.13376 0.0
H177 H 0.12321 0.72593 0.09105 0.0
H178 H 0.15981 0.74405 0.04906 0.0
H179 H 0.18887 0.78716 1.0224 0.0
Mn180 Mn 0.5272 0.74301 0.42953 0.0
Mn181 Mn 0.52438 0.75142 0.35153 0.0
C182 C 0.4759 0.73958 0.40003 0.0
C183 C 0.54059 0.71286 0.47033 0.0
C184 C 0.54335 0.80375 0.40271 0.0
O185 O 0.57391 0.74648 0.41954 0.0
O186 O 0.56225 0.73354 0.36781 0.0
C187 C 0.51239 0.6859 0.33001 0.0
N188 N 0.50406 0.71392 0.32807 0.0
C189 C 0.46053 0.69491 0.28597 0.0
C190 C 0.46875 0.66589 0.28735 0.0
C191 C 0.49466 0.66132 0.30963 0.0
C192 C 0.47856 0.71832 0.30744 0.0
H193 H 0.53241 0.68232 0.34699 0.0
C194 C 0.58232 0.73909 0.39314 0.0
O195 O 0.54392 0.7422 0.47499 0.0
O196 O 0.52699 0.70058 0.44253 0.0
N197 N 0.48925 0.76805 0.3304 0.0
C198 C 0.48684 0.79807 0.32967 0.0
C199 C 0.46427 0.80718 0.30675 0.0
C200 C 0.44434 0.78538 0.28458 0.0
C201 C 0.4478 0.75478 0.28506 0.0
C202 C 0.47143 0.74722 0.30794 0.0
H203 H 0.5022 0.81507 0.34628 0.0
O204 O 0.47892 0.7398 0.43076 0.0
O205 O 0.50218 0.73686 0.3876 0.0
O206 O 0.53259 0.7884 0.42508 0.0
O207 O 0.54466 0.79176 0.37501 0.0
C208 C 0.42937 0.73164 0.26315 0.0
C209 C 0.43544 0.70162 0.26388 0.0
H210 H 0.4554 0.64699 0.27138 0.0
H211 H 0.50111 0.63898 0.31091 0.0
H212 H 0.46222 0.83097 0.30622 0.0
H213 H 0.42672 0.79246 0.26711 0.0
H214 H 0.41066 0.73675 0.24548 0.0
H215 H 0.42113 0.68401 0.24692 0.0
Mn216 Mn 0.68004 0.39146 0.68018 0.0
Mn217 Mn 0.63363 0.34801 0.61825 0.0
C218 C 0.68304 0.34095 0.67325 0.0
C219 C 0.72637 0.42305 0.70695 0.0
C220 C 0.60916 0.35786 0.6802 0.0
O221 O 0.66493 0.42336 0.65297 0.0
O222 O 0.63 0.39179 0.61654 0.0
C223 C 0.67576 0.37602 0.57201 0.0
N224 N 0.66102 0.35067 0.58521 0.0
C225 C 0.68412 0.31788 0.55173 0.0
C226 C 0.6994 0.34363 0.53769 0.0
C227 C 0.69533 0.37283 0.548 0.0
C228 C 0.66552 0.32254 0.57606 0.0
H229 H 0.67274 0.39853 0.57976 0.0
C230 C 0.64263 0.41843 0.62927 0.0
O231 O 0.69774 0.42203 0.71595 0.0
O232 O 0.72726 0.40877 0.67988 0.0
N233 N 0.63303 0.305 0.61461 0.0
C234 C 0.61265 0.28243 0.62705 0.0
C235 C 0.61182 0.25173 0.61762 0.0
C236 C 0.6311 0.24453 0.5947 0.0
C237 C 0.65052 0.26812 0.58095 0.0
C238 C 0.65013 0.29831 0.59114 0.0
H239 H 0.59706 0.28783 0.64404 0.0
O240 O 0.69264 0.35579 0.70048 0.0
O241 O 0.67352 0.35642 0.64964 0.0
O242 O 0.63392 0.37829 0.69113 0.0
O243 O 0.60578 0.34379 0.65283 0.0
C244 C 0.66917 0.26287 0.55662 0.0
C245 C 0.68626 0.28776 0.54225 0.0
H246 H 0.7142 0.34124 0.51891 0.0
H247 H 0.70714 0.39284 0.53737 0.0
H248 H 0.59617 0.23368 0.62783 0.0
H249 H 0.63013 0.22084 0.58724 0.0
H250 H 0.67015 0.23977 0.54845 0.0
H251 H 0.70041 0.28344 0.52345 0.0
Mn252 Mn 1.02984 0.25371 0.94162 0.0
Mn253 Mn 1.0265 0.25803 0.86317 0.0
C254 C 0.97793 0.24627 0.91176 0.0
C255 C 1.04606 0.22695 0.98461 0.0
C256 C 1.04039 0.31259 0.91098 0.0
O257 O 0.07702 0.25999 0.93142 0.0
O258 O 0.06468 0.24161 0.88128 0.0
C259 C 1.0166 0.19192 0.84466 0.0
N260 N 1.00736 0.21944 0.84126 0.0
C261 C 0.96422 0.19787 0.79966 0.0
C262 C 0.97336 0.16934 0.80257 0.0
C263 C 0.99954 0.16632 0.82532 0.0
C264 C 0.9816 0.22238 0.82016 0.0
H265 H 1.03682 0.18951 0.862 0.0
C266 C 0.08542 0.25099 0.90553 0.0
O267 O 0.04715 0.25612 0.98751 0.0
O268 O 1.03324 0.21285 0.95736 0.0
N269 N 0.99092 0.27297 0.84058 0.0
C270 C 0.98813 0.30275 0.83779 0.0
C271 C 0.96534 0.3103 0.814 0.0
C272 C 0.94571 0.28725 0.793 0.0
C273 C 0.94981 0.25696 0.79538 0.0
C274 C 0.9736 0.25093 0.81905 0.0
H275 H 1.00369 0.32087 0.85306 0.0
O276 O 0.98109 0.24751 0.94255 0.0
O277 O 1.00463 0.24437 0.89974 0.0
O278 O 1.03094 0.29795 0.93424 0.0
O279 O 1.04515 0.29955 0.8849 0.0
C280 C 0.93197 0.23267 0.77449 0.0
C281 C 0.93886 0.20305 0.77692 0.0
H282 H 0.96055 0.14965 0.78739 0.0
H283 H 1.00672 0.14437 0.82776 0.0
H284 H 0.96304 0.3339 0.81178 0.0
H285 H 0.92797 0.29316 0.77484 0.0
H286 H 0.91312 0.2366 0.75627 0.0
H287 H 0.92503 0.18455 0.7607 0.0
Mn288 Mn 0.55636 0.17762 0.36658 0.0
Mn289 Mn 0.50049 0.16477 0.41701 0.0
C290 C 0.53498 0.12814 0.37699 0.0
C291 C 0.5691 0.18286 0.31587 0.0
C292 C 0.57329 0.1884 0.43745 0.0
O293 O 0.53997 0.21746 0.36892 0.0
O294 O 0.49734 0.20331 0.39622 0.0
C295 C 0.43808 0.15644 0.3737 0.0
N296 N 0.45818 0.14546 0.39604 0.0
C297 C 0.41914 0.0984 0.39533 0.0
C298 C 0.39789 0.10947 0.37272 0.0
C299 C 0.40745 0.13859 0.36181 0.0
C300 C 0.44911 0.11749 0.40684 0.0
H301 H 0.44538 0.17854 0.36481 0.0
C302 C 0.5126 0.22082 0.37745 0.0
O303 O 0.59058 0.19397 0.34007 0.0
O304 O 0.53973 0.17122 0.32135 0.0
N305 N 0.50084 0.12681 0.43629 0.0
C306 C 0.52608 0.11757 0.45397 0.0
C307 C 0.52203 0.08762 0.46349 0.0
C308 C 0.49187 0.06752 0.45554 0.0
C309 C 0.46618 0.07746 0.43739 0.0
C310 C 0.47184 0.10746 0.42789 0.0
H311 H 0.54955 0.13248 0.45982 0.0
O312 O 0.56304 0.13442 0.36638 0.0
O313 O 0.52063 0.15105 0.38146 0.0
O314 O 0.58222 0.18644 0.41015 0.0
O315 O 0.54319 0.18375 0.44202 0.0
C316 C 0.43582 0.05821 0.42687 0.0
C317 C 0.41223 0.06873 0.406 0.0
H318 H 0.37444 0.09557 0.36312 0.0
H319 H 0.39136 0.14713 0.34406 0.0
H320 H 0.54244 0.07995 0.47628 0.0
H321 H 0.48901 0.04431 0.4628 0.0
H322 H 0.4307 0.03498 0.43401 0.0
H323 H 0.38927 0.05348 0.3975 0.0
Mn324 Mn 0.36628 0.20376 0.55758 0.0
Mn325 Mn 0.34995 0.14691 0.49832 0.0
C326 C 0.3091 0.17531 0.54149 0.0
C327 C 0.37222 0.22663 0.61557 0.0
C328 C 0.36702 0.21522 0.48175 0.0
O329 O 0.41313 0.18613 0.55866 0.0
O330 O 0.39756 0.15017 0.51818 0.0
C331 C 0.35649 0.09301 0.53526 0.0
N332 N 0.33824 0.10762 0.5146 0.0
C333 C 0.29333 0.06459 0.50856 0.0
C334 C 0.31178 0.04904 0.52953 0.0
C335 C 0.34347 0.06335 0.54299 0.0
C336 C 0.30774 0.094 0.50143 0.0
H337 H 0.3808 0.10384 0.54584 0.0
C338 C 0.41962 0.16351 0.54084 0.0
O339 O 0.38232 0.24145 0.59198 0.0
O340 O 0.36176 0.19799 0.60647 0.0
N341 N 0.30562 0.1399 0.47805 0.0
C342 C 0.28972 0.15916 0.46103 0.0
C343 C 0.25702 0.14901 0.44759 0.0
C344 C 0.24098 0.1192 0.45174 0.0
C345 C 0.25775 0.09983 0.46947 0.0
C346 C 0.29039 0.11116 0.48221 0.0
H347 H 0.30174 0.1822 0.45794 0.0
O348 O 0.31613 0.20348 0.55292 0.0
O349 O 0.3359 0.16533 0.53703 0.0
O350 O 0.37095 0.22555 0.51152 0.0
O351 O 0.36046 0.18613 0.47564 0.0
C352 C 0.24305 0.07005 0.47575 0.0
C353 C 0.26084 0.05242 0.49523 0.0
H354 H 0.30171 1.02627 0.53581 0.0
H355 H 0.35778 0.05157 0.55936 0.0
H356 H 0.24416 0.16419 0.43416 0.0
H357 H 0.21567 0.11154 0.44155 0.0
H358 H 0.21785 0.0607 0.46621 0.0
H359 H 0.24907 0.02977 0.50035 0.0
Mn360 Mn 0.23434 0.11112 0.88307 0.0
Mn361 Mn 0.29496 0.14039 0.93929 0.0
C362 C 0.25847 0.16136 0.8817 0.0
C363 C 0.21424 0.0821 0.83659 0.0
C364 C 0.22408 0.11876 0.94862 0.0
O365 O 0.24986 0.07538 0.90418 0.0
O366 O 0.30015 0.0984 0.92717 0.0
C367 C 0.35613 0.14386 0.91022 0.0
N368 N 0.335 0.15816 0.92432 0.0
C369 C 0.36901 0.20744 0.92127 0.0
C370 C 0.3911 0.19323 0.9067 0.0
C371 C 0.38463 0.1613 0.90119 0.0
C372 C 0.34119 0.18884 0.9301 0.0
H373 H 0.35119 0.11934 0.90575 0.0
C374 C 0.27962 0.0747 0.91464 0.0
O375 O 0.19637 0.08392 0.85911 0.0
O376 O 0.24459 0.09649 0.84152 0.0
N377 N 0.29136 0.18166 0.95046 0.0
C378 C 0.26688 0.19209 0.96331 0.0
C379 C 0.26901 0.22365 0.96911 0.0
C380 C 0.29632 0.24422 0.96178 0.0
C381 C 0.32134 0.23303 0.94881 0.0
C382 C 0.31796 0.20131 0.94369 0.0
H383 H 0.24584 0.17658 0.96914 0.0
O384 O 0.22955 0.1513 0.86609 0.0
O385 O 0.27216 0.14137 0.89658 0.0
O386 O 0.21305 0.12143 0.92034 0.0
O387 O 0.25476 0.12259 0.95811 0.0
C388 C 0.34921 0.25216 0.94026 0.0
C389 C 0.37307 0.23937 0.92657 0.0
H390 H 0.41292 0.20663 0.89937 0.0
H391 H 0.40151 0.15017 0.88987 0.0
H392 H 0.2496 0.23211 0.97916 0.0
H393 H 0.29775 0.26856 0.96609 0.0
H394 H 0.35239 0.27677 0.94383 0.0
H395 H 0.39423 0.25433 0.91979 0.0
Mn396 Mn 0.37716 0.92787 0.07229 0.0
Mn397 Mn 0.37617 0.98948 1.02769 0.0
C398 C 0.42621 0.95935 0.06237 0.0
C399 C 0.37708 0.90648 0.12366 0.0
C400 C 0.35947 0.92398 0.99826 0.0
O401 O 0.33116 0.9374 0.07473 0.0
O402 O 0.33588 0.98013 0.04769 0.0
C403 C 0.3773 0.03797 0.07773 0.0
N404 N 0.39047 1.02707 0.05292 0.0
C405 C 0.42938 0.07412 0.0533 0.0
C406 C 0.41623 0.08587 0.07884 0.0
C407 C 0.39019 0.06765 0.09121 0.0
C408 C 0.41569 0.04431 0.04101 0.0
H409 H 0.35704 1.02418 0.08708 0.0
C410 C 0.32064 0.96098 0.06485 0.0
O411 O 0.3673 0.88984 0.09729 0.0
O412 O 0.38703 0.93527 0.12022 0.0
N413 N 0.41455 1.00143 1.00756 0.0
C414 C 0.42591 0.98591 0.98441 0.0
C415 C 0.45271 1.00049 0.9703 0.0
C416 C 0.46722 0.03097 0.97979 0.0
C417 C 0.45505 0.04651 1.0036 0.0
C418 C 0.42841 0.03075 1.01693 0.0
H419 H 0.41458 0.96263 0.97668 0.0
O420 O 0.42593 0.9314 0.06996 0.0
O421 O 0.39813 0.96757 0.06002 0.0
O422 O 0.36508 0.91049 1.02403 0.0
O423 O 0.36151 0.95284 0.99842 0.0
C424 C 0.46847 0.07693 1.01483 0.0
C425 C 0.45581 0.09065 0.03982 0.0
H426 H 0.42606 0.10877 0.08927 0.0
H427 H 0.37995 0.07654 0.11095 0.0
H428 H 0.46199 0.98835 0.95196 0.0
H429 H 0.48774 0.04214 0.96869 0.0
H430 H 0.48886 0.08983 1.00475 0.0
H431 H 0.46678 0.11384 0.04868 0.0
Mn432 Mn 0.34318 0.44607 0.06347 0.0
Mn433 Mn 0.3482 0.50099 1.0089 0.0
C434 C 0.39735 0.4763 0.05423 0.0
C435 C 0.33889 0.42272 0.11815 0.0
C436 C 0.33743 0.43219 0.98664 0.0
O437 O 0.29519 0.46121 0.05969 0.0
O438 O 0.30254 0.49547 1.02269 0.0
C439 C 0.34328 0.55372 0.05175 0.0
N440 N 0.35974 0.54059 0.03094 0.0
C441 C 0.40256 0.58532 0.03578 0.0
C442 C 0.38586 0.59937 0.05696 0.0
C443 C 0.35614 0.58345 0.06505 0.0
C444 C 0.38853 0.55563 1.02324 0.0
H445 H 0.32054 0.54168 0.05833 0.0
C446 C 0.28474 0.4824 0.04278 0.0
O447 O 0.32966 0.40805 0.09078 0.0
O448 O 0.3493 0.45153 0.11431 0.0
N449 N 0.38979 0.51093 0.9935 0.0
C450 C 0.40337 0.49409 0.97315 0.0
C451 C 0.4334 0.50672 0.96313 0.0
C452 C 0.44905 0.53654 0.97396 0.0
C453 C 0.4343 0.55375 0.99413 0.0
C454 C 0.4042 0.54009 1.00313 0.0
H455 H 0.39162 0.47112 0.96471 0.0
O456 O 0.39392 0.44958 0.06581 0.0
O457 O 0.36891 0.48444 0.0478 0.0
O458 O 0.33769 0.42329 1.01549 0.0
O459 O 0.33789 0.4606 0.9821 0.0
C460 C 0.44863 0.58375 1.00609 0.0
C461 C 0.43281 0.59949 1.02697 0.0
H462 H 0.39575 0.62228 0.06735 0.0
H463 H 0.34321 0.59406 0.08156 0.0
H464 H 0.44465 0.49339 0.9474 0.0
H465 H 0.47263 0.54589 0.96715 0.0
H466 H 0.472 0.59478 0.99966 0.0
H467 H 0.44424 0.62242 0.03631 0.0
Mn468 Mn 0.81948 0.25683 0.0561 0.0
Mn469 Mn 0.80106 0.19933 0.99726 0.0
C470 C 0.76718 0.22477 0.04598 0.0
C471 C 0.83745 0.2754 0.11108 0.0
C472 C 0.80848 0.26614 0.98314 0.0
O473 O 0.865 0.2489 0.0488 0.0
O474 O 0.84848 0.21106 1.00995 0.0
C475 C 0.82294 0.15034 0.03407 0.0
N476 N 0.79918 0.1607 1.01534 0.0
C477 C 0.7625 0.11211 1.01345 0.0
C478 C 0.7866 0.10088 0.03269 0.0
C479 C 0.8169 0.12013 0.04315 0.0
C480 C 0.76985 0.14247 1.00538 0.0
H481 H 0.84634 0.16499 0.04193 0.0
C482 C 0.87071 0.22911 0.0285 0.0
O483 O 0.83839 0.29336 0.08789 0.0
O484 O 0.82683 0.24674 0.10238 0.0
N485 N 0.75554 0.18537 0.9826 0.0
C486 C 0.73443 0.20018 0.96545 0.0
C487 C 0.70286 0.18429 0.95351 0.0
C488 C 0.69346 0.1533 0.95903 0.0
C489 C 0.71569 0.13845 0.97651 0.0
C490 C 0.74685 0.15545 0.98773 0.0
H491 H 0.74158 0.22396 0.96106 0.0
O492 O 0.77068 0.25199 0.0596 0.0
O493 O 0.79354 0.21777 0.03758 0.0
O494 O 0.81551 0.27731 1.01211 0.0
O495 O 0.80195 0.23749 0.97579 0.0
C496 C 0.708 0.10763 0.98373 0.0
C497 C 0.73133 0.09451 1.00233 0.0
H498 H 0.78206 0.07759 0.03972 0.0
H499 H 0.83559 0.11165 0.05805 0.0
H500 H 0.6858 0.19591 0.9401 0.0
H501 H 0.66901 0.14126 0.95003 0.0
H502 H 0.68403 0.09396 0.97557 0.0
H503 H 0.72494 0.07095 1.00816 0.0
Mn504 Mn 0.14213 0.50297 0.24879 0.0
Mn505 Mn 0.18524 0.54291 0.3144 0.0
C506 C 0.15015 0.5562 0.25402 0.0
C507 C 0.13327 0.48234 0.19701 0.0
C508 C 0.11688 0.50613 0.31243 0.0
O509 O 0.16919 0.47239 0.26748 0.0
O510 O 0.1968 0.50254 0.30985 0.0
C511 C 0.25184 0.5509 0.29543 0.0
N512 N 0.22704 0.56324 0.30524 0.0
C513 C 0.25997 0.61383 0.3098 0.0
C514 C 0.28591 0.6017 0.29977 0.0
C515 C 0.28173 0.57011 0.29234 0.0
C516 C 0.23054 0.59366 0.31176 0.0
H517 H 0.24888 0.52658 0.2902 0.0
C518 C 0.18997 0.47746 0.29271 0.0
O519 O 0.11414 0.47241 0.21754 0.0
O520 O 0.16004 0.50171 0.20758 0.0
N521 N 0.17626 0.58296 0.32148 0.0
C522 C 0.14876 0.59102 0.33061 0.0
C523 C 0.14871 0.62188 0.33849 0.0
C524 C 0.17709 0.64404 0.3375 0.0
C525 C 0.20526 0.63512 0.32852 0.0
C526 C 0.20375 0.60408 0.32061 0.0
H527 H 0.12708 0.574 0.33198 0.0
O528 O 0.12505 0.54067 0.23569 0.0
O529 O 0.16894 0.54024 0.2692 0.0
O530 O 0.11298 0.49736 0.28341 0.0
O531 O 0.14279 0.52332 0.3265 0.0
C532 C 0.23485 0.65578 0.32737 0.0
C533 C 0.26221 0.64511 0.31811 0.0
H534 H 0.30911 0.6164 0.29769 0.0
H535 H 0.30163 0.56057 0.28458 0.0
H536 H 0.12693 0.62855 0.34557 0.0
H537 H 0.17702 0.6678 0.34376 0.0
H538 H 0.2368 0.67993 0.3334 0.0
H539 H 0.28479 0.66124 0.31718 0.0
Mn540 Mn 0.84178 0.9476 0.56841 0.0
Mn541 Mn 0.84583 1.00258 0.51388 0.0
C542 C 0.89561 0.97852 0.55911 0.0
C543 C 0.83789 0.92474 0.62342 0.0
C544 C 0.83661 0.934 0.49161 0.0
O545 O 0.79301 0.9612 0.56405 0.0
O546 O 0.8 0.99574 0.52734 0.0
C547 C 0.83939 0.0544 0.55717 0.0
N548 N 0.85629 0.04203 0.53621 0.0
C549 C 0.8981 0.08756 0.54153 0.0
C550 C 0.88093 0.10084 0.56286 0.0
C551 C 0.85151 0.08413 0.5708 0.0
C552 C 0.88485 0.0578 0.52873 0.0
H553 H 0.81688 0.04172 0.56362 0.0
C554 C 0.78206 0.982 0.54694 0.0
O555 O 0.82914 0.9097 0.59618 0.0
O556 O 0.84758 0.95358 0.61923 0.0
N557 N 0.88737 1.0137 0.4986 0.0
C558 C 0.90134 0.99764 0.47787 0.0
C559 C 0.93101 1.0112 0.46772 0.0
C560 C 0.94591 0.04117 0.47878 0.0
C561 C 0.93078 0.05754 0.49941 0.0
C562 C 0.90103 0.04298 0.50848 0.0
H563 H 0.89012 0.9746 0.46917 0.0
O564 O 0.89262 0.95192 0.57093 0.0
O565 O 0.86695 0.98623 0.55264 0.0
O566 O 0.83689 0.92495 0.52042 0.0
O567 O 0.83666 0.96233 0.48707 0.0
C568 C 0.94431 0.08762 0.51164 0.0
C569 C 0.92805 0.10258 0.5328 0.0
H570 H 0.89023 0.12376 0.57347 0.0
H571 H 0.83823 0.09414 0.58743 0.0
H572 H 0.9425 0.99851 0.4516 0.0
H573 H 0.96912 0.05134 0.47161 0.0
H574 H 0.9674 0.09935 0.50519 0.0
H575 H 0.93888 0.12559 0.54232 0.0
Mn576 Mn 0.91879 0.04352 0.23187 0.0
Mn577 Mn 0.84589 1.00546 0.24748 0.0
C578 C 0.90997 0.99109 0.23306 0.0
C579 C 0.95615 0.06724 0.20078 0.0
C580 C 0.90028 0.03061 0.29861 0.0
O581 O 0.89091 0.07594 0.22614 0.0
O582 O 0.84823 0.04978 0.24625 0.0
C583 C 0.81413 1.01878 0.18469 0.0
N584 N 0.8205 0.99828 0.20633 0.0
C585 C 0.78964 0.95645 0.17132 0.0
C586 C 0.78283 0.97711 0.14878 0.0
C587 C 0.79523 1.00842 0.15548 0.0
C588 C 0.80936 0.96806 0.19973 0.0
H589 H 0.82332 0.04289 0.18941 0.0
C590 C 0.86332 0.07412 0.23613 0.0
O591 O 0.95885 0.07438 0.23085 0.0
O592 O 0.93072 0.04716 0.18821 0.0
N593 N 0.83635 0.96222 0.24951 0.0
C594 C 0.83859 0.94664 0.27623 0.0
C595 C 0.82364 0.91573 0.27513 0.0
C596 C 0.80646 0.90114 0.24655 0.0
C597 C 0.80249 0.91806 0.22004 0.0
C598 C 0.81693 0.94909 0.22293 0.0
H599 H 0.85124 0.95791 0.29837 0.0
O600 O 0.93934 1.00724 0.23613 0.0
O601 O 0.88584 1.00574 0.22696 0.0
O602 O 0.91687 0.04618 0.27956 0.0
O603 O 0.87323 1.01184 0.28973 0.0
C604 C 0.78311 0.90569 0.19151 0.0
C605 C 0.77703 0.92484 0.16697 0.0
H606 H 0.76787 0.96923 0.1264 0.0
H607 H 0.79008 1.02458 0.13824 0.0
H608 H 0.82569 0.90326 0.29623 0.0
H609 H 0.79559 0.87715 0.24513 0.0
H610 H 0.77208 0.88162 0.18852 0.0
H611 H 0.76173 0.9152 0.14527 0.0
Mn612 Mn 0.3253 0.75345 0.55768 0.0
Mn613 Mn 0.30739 0.695 0.49999 0.0
C614 C 0.27266 0.72216 0.54687 0.0
C615 C 0.34138 0.77296 0.6126 0.0
C616 C 0.31574 0.76153 0.48426 0.0
O617 O 0.37098 0.74433 0.55235 0.0
O618 O 0.35483 0.70659 0.51336 0.0
C619 C 0.32845 0.64679 0.53863 0.0
N620 N 0.30501 0.65683 0.51914 0.0
C621 C 0.268 0.60853 0.51824 0.0
C622 C 0.29178 0.59765 0.53824 0.0
C623 C 0.32208 0.61691 0.54858 0.0
C624 C 0.27568 0.63857 0.50927 0.0
H625 H 0.35184 0.66143 0.54647 0.0
C626 C 0.37689 0.72424 0.53248 0.0
O627 O 0.34381 0.79042 0.58906 0.0
O628 O 0.33066 0.74424 0.6043 0.0
N629 N 0.26195 0.68092 0.48482 0.0
C630 C 0.2411 0.69538 0.46687 0.0
C631 C 0.2096 0.67938 0.45483 0.0
C632 C 0.19993 0.64862 0.46118 0.0
C633 C 0.22185 0.63417 0.4796 0.0
C634 C 0.25299 0.65123 0.49078 0.0
H635 H 0.24839 0.71899 0.46196 0.0
O636 O 0.27637 0.74975 0.55961 0.0
O637 O 0.29909 0.71433 0.53957 0.0
O638 O 0.32291 0.77313 0.51309 0.0
O639 O 0.30872 0.73277 0.47746 0.0
C640 C 0.21385 0.60365 0.48773 0.0
C641 C 0.23684 0.5909 0.50717 0.0
H642 H 0.28698 0.57461 0.54595 0.0
H643 H 0.34054 0.6087 0.56408 0.0
H644 H 0.19279 0.69074 0.44072 0.0
H645 H 0.17553 0.63642 0.45205 0.0
H646 H 0.18989 0.58994 0.47957 0.0
H647 H 0.23021 0.56758 0.51368 0.0
Mn648 Mn 0.42806 0.53681 0.73099 0.0
Mn649 Mn 0.35201 0.50295 0.74397 0.0
C650 C 0.41441 0.48454 0.72769 0.0
C651 C 0.46508 0.56258 0.70122 0.0
C652 C 0.40676 0.52269 0.79653 0.0
O653 O 0.40435 0.57185 0.72985 0.0
O654 O 0.35721 0.54762 0.74394 0.0
C655 C 0.32353 0.51918 0.68128 0.0
N656 N 0.32757 0.49774 0.70251 0.0
C657 C 0.29438 0.45789 0.66657 0.0
C658 C 0.2898 0.47954 0.64443 0.0
C659 C 0.30458 0.51032 0.65178 0.0
C660 C 0.31428 0.46798 0.69527 0.0
H661 H 0.33471 0.54288 0.68668 0.0
C662 C 0.37606 0.57161 0.73739 0.0
O663 O 0.4697 0.56595 0.73182 0.0
O664 O 0.43891 0.54391 0.68771 0.0
N665 N 0.33975 0.45974 0.74494 0.0
C666 C 0.3406 0.44347 0.77126 0.0
C667 C 0.32349 0.41319 0.76949 0.0
C668 C 0.30558 0.3999 0.74069 0.0
C669 C 0.30328 0.41761 0.71454 0.0
C670 C 0.31991 0.44802 0.71809 0.0
H671 H 0.35377 0.45374 0.79361 0.0
O672 O 0.44474 0.49842 0.73039 0.0
O673 O 0.39213 0.50161 0.72387 0.0
O674 O 0.42639 0.53563 0.77834 0.0
O675 O 0.37793 0.50742 0.78687 0.0
C676 C 0.28354 0.40674 0.68573 0.0
C677 C 0.27944 0.42682 0.66157 0.0
H678 H 0.2748 0.47284 0.62183 0.0
H679 H 0.30121 0.5272 0.63482 0.0
H680 H 0.32437 0.4002 0.79031 0.0
H681 H 0.29285 0.3764 0.73894 0.0
H682 H 0.27077 0.38318 0.68222 0.0
H683 H 0.26391 0.41833 0.63964 0.0
Mn684 Mn 0.67145 1.00733 0.72894 0.0
Mn685 Mn 0.74242 0.04711 0.76831 0.0
C686 C 0.69079 0.05686 0.71713 0.0
C687 C 0.63946 0.97622 0.68762 0.0
C688 C 0.67819 0.04578 0.79211 0.0
O689 O 0.68958 0.97331 0.75109 0.0
O690 O 0.73105 1.00497 0.78052 0.0
C691 C 0.78035 1.00941 0.73429 0.0
N692 N 0.77465 0.0374 0.74331 0.0
C693 C 0.81744 0.06259 0.71526 0.0
C694 C 0.82382 0.03405 0.70579 0.0
C695 C 0.80508 1.00732 0.71526 0.0
C696 C 0.79187 0.06318 0.73352 0.0
H697 H 0.76607 0.98879 0.74141 0.0
C698 C 0.71265 0.97889 0.774 0.0
O699 O 0.62891 0.97975 0.71469 0.0
O700 O 0.67011 0.98753 0.68615 0.0
N701 N 0.75905 0.08871 0.76104 0.0
C702 C 0.75509 0.11383 0.77837 0.0
C703 C 0.77497 0.14228 0.77541 0.0
C704 C 0.79877 0.14476 0.75465 0.0
C705 C 0.804 0.11833 0.73875 0.0
C706 C 0.78424 0.09039 0.74364 0.0
H707 H 0.73739 0.11196 0.79498 0.0
O708 O 0.66052 0.04401 0.70893 0.0
O709 O 0.71017 0.03971 0.73 0.0
O710 O 0.6626 1.02476 0.77158 0.0
O711 O 0.70858 0.0578 0.79279 0.0
C712 C 0.82951 0.11837 0.72001 0.0
C713 C 0.83593 0.09051 0.70789 0.0
H714 H 0.84319 0.03238 0.69148 0.0
H715 H 0.80981 0.98518 0.70804 0.0
H716 H 0.77231 0.16217 0.78947 0.0
H717 H 0.81388 0.16682 0.75227 0.0
H718 H 0.8449 0.13966 0.71549 0.0
H719 H 0.85586 0.09078 0.69383 0.0
Mn720 Mn 0.86921 0.70626 0.06315 0.0
Mn721 Mn 0.85485 0.64961 1.00372 0.0
C722 C 0.81234 0.67648 0.04653 0.0
C723 C 0.87521 0.72952 0.1211 0.0
C724 C 0.86963 0.71812 0.98742 0.0
O725 O 0.91703 0.69007 0.0643 0.0
O726 O 0.9026 0.65405 1.02385 0.0
C727 C 0.86291 0.59608 0.04076 0.0
N728 N 0.84425 0.61012 1.01988 0.0
C729 C 0.80065 0.56597 1.01326 0.0
C730 C 0.81954 0.55098 0.03444 0.0
C731 C 0.85076 0.56615 0.0483 0.0
C732 C 0.81418 0.5957 1.00635 0.0
H733 H 0.88687 0.60757 0.05164 0.0
C734 C 0.92437 0.66783 0.04654 0.0
O735 O 0.88464 0.74428 0.09725 0.0
O736 O 0.86519 0.70075 0.11224 0.0
N737 N 0.81065 0.64139 0.98303 0.0
C738 C 0.79416 0.66011 0.96582 0.0
C739 C 0.76177 0.64904 0.95193 0.0
C740 C 0.74667 0.61885 0.95581 0.0
C741 C 0.76404 0.60005 0.97372 0.0
C742 C 0.79633 0.6123 0.98693 0.0
H743 H 0.80547 0.68341 0.9629 0.0
O744 O 0.81867 0.70452 0.05835 0.0
O745 O 0.83968 0.66731 0.04227 0.0
O746 O 0.87304 0.72827 1.01719 0.0
O747 O 0.86429 0.68906 0.98118 0.0
C748 C 0.75025 0.56993 0.97976 0.0
C749 C 0.76855 0.55288 0.99947 0.0
H750 H 0.81014 0.52799 0.04055 0.0
H751 H 0.8654 0.55481 0.06484 0.0
H752 H 0.74843 0.66377 0.93835 0.0
H753 H 0.72158 0.61047 0.94527 0.0
H754 H 0.72534 0.55986 0.96986 0.0
H755 H 0.75746 0.52995 1.0044 0.0
Mn756 Mn 0.06234 0.67956 0.86518 0.0
Mn757 Mn 1.00475 0.67041 0.91421 0.0
C758 C 1.04047 0.63135 0.87887 0.0
C759 C 0.07657 0.68049 0.81472 0.0
C760 C 0.07725 0.69382 0.93609 0.0
O761 O 1.04563 0.71926 0.86281 0.0
O762 O 1.00399 0.70854 0.8921 0.0
C763 C 0.94448 0.66236 0.86788 0.0
N764 N 0.96283 0.65168 0.89192 0.0
C765 C 0.92242 0.60548 0.89078 0.0
C766 C 0.90293 0.61627 0.8664 0.0
C767 C 0.91409 0.64478 0.85482 0.0
C768 C 0.95228 0.62424 0.90325 0.0
H769 H 0.95304 0.68397 0.85847 0.0
C770 C 1.01931 0.72455 0.87227 0.0
O771 O 0.09752 0.6933 0.83867 0.0
O772 O 0.04698 0.66962 0.82007 0.0
N773 N 1.00267 0.63312 0.93508 0.0
C774 C 1.02652 0.62393 0.95477 0.0
C775 C 1.02083 0.59449 0.96556 0.0
C776 C 0.99047 0.57491 0.95682 0.0
C777 C 0.96623 0.58481 0.93655 0.0
C778 C 0.97348 0.6143 0.92596 0.0
H779 H 0.05016 0.63846 0.96129 0.0
O780 O 0.06911 0.63666 0.86934 0.0
O781 O 1.02596 0.65451 0.88062 0.0
O782 O 0.08685 0.69168 0.90907 0.0
O783 O 0.047 0.68871 0.94011 0.0
C784 C 0.9359 0.56595 0.92508 0.0
C785 C 0.91393 0.57633 0.90231 0.0
H786 H 0.87968 0.60258 0.85594 0.0
H787 H 0.89945 0.65298 0.83561 0.0
H788 H 1.04018 0.58681 0.97998 0.0
H789 H 0.9864 0.55206 0.96507 0.0
H790 H 0.9296 0.5431 0.93296 0.0
H791 H 0.89102 0.56134 0.89309 0.0
Mn792 Mn 0.88327 0.42357 0.57539 0.0
Mn793 Mn 0.87757 0.48496 0.53222 0.0
C794 C 0.93074 0.4564 0.56476 0.0
C795 C 0.8852 0.40361 0.62717 0.0
C796 C 0.86626 0.41998 0.50114 0.0
O797 O 0.83632 0.42968 0.57822 0.0
O798 O 0.8365 0.47142 0.55037 0.0
C799 C 0.87375 0.52809 0.58589 0.0
N800 N 0.88843 0.52085 0.5605 0.0
C801 C 0.9265 0.56881 0.56794 0.0
C802 C 0.91167 0.57685 0.59402 0.0
C803 C 0.88526 0.55632 0.60311 0.0
C804 C 0.91417 0.5402 0.55189 0.0
H805 H 0.85343 0.51247 0.59303 0.0
C806 C 0.82295 0.45134 0.56757 0.0
O807 O 0.87619 0.38592 0.60135 0.0
O808 O 0.89334 0.43235 0.62281 0.0
N809 N 0.91566 0.50183 0.51355 0.0
C810 C 0.92701 0.49085 0.48759 0.0
C811 C 0.95271 0.50912 0.47485 0.0
C812 C 0.96615 0.53853 0.48876 0.0
C813 C 0.95414 0.54935 0.51536 0.0
C814 C 0.92821 0.53035 0.52672 0.0
H815 H 0.91627 0.46851 0.47643 0.0
O816 O 0.93179 0.42874 0.57252 0.0
O817 O 0.90213 0.46376 0.56317 0.0
O818 O 0.87166 0.40642 0.527 0.0
O819 O 0.867 0.44884 0.50135 0.0
C820 C 0.96669 0.57843 0.5308 0.0
C821 C 0.95308 0.58804 0.55728 0.0
H822 H 0.9204 0.59867 0.60727 0.0
H823 H 0.87373 0.56228 0.62328 0.0
H824 H 0.96184 0.50073 0.45415 0.0
H825 H 0.98527 0.553 0.47866 0.0
H826 H 0.98692 0.59351 0.52262 0.0
H827 H 0.96312 0.61032 0.56916 0.0
Mn828 Mn 0.74472 0.61582 0.39097 0.0
Mn829 Mn 0.80493 0.6428 0.44877 0.0
C830 C 0.7681 0.66646 0.39308 0.0
C831 C 0.72438 0.5903 0.34257 0.0
C832 C 0.73413 0.62051 0.45764 0.0
O833 O 0.76077 0.57891 0.40862 0.0
O834 O 0.80997 0.60108 0.43496 0.0
C835 C 0.86578 0.6472 0.41898 0.0
N836 N 0.84491 0.66106 0.43398 0.0
C837 C 0.87861 0.7106 0.43154 0.0
C838 C 0.90045 0.69684 0.41609 0.0
C839 C 0.89402 0.665 0.40985 0.0
C840 C 0.85109 0.69165 0.4405 0.0
H841 H 0.86081 0.62277 0.41382 0.0
C842 C 0.79006 0.57793 0.42044 0.0
O843 O 0.70676 0.58983 0.36557 0.0
O844 O 0.75469 0.60476 0.34807 0.0
N845 N 0.80166 0.68376 0.46159 0.0
C846 C 0.77734 0.69377 0.47512 0.0
C847 C 0.77947 0.72521 0.48177 0.0
C848 C 0.80656 0.74609 0.4745 0.0
C849 C 0.83139 0.73532 0.46076 0.0
C850 C 0.82808 0.70369 0.45489 0.0
H851 H 0.75639 0.678 0.48079 0.0
O852 O 0.73906 0.65688 0.37756 0.0
O853 O 0.78226 0.64581 0.40627 0.0
O854 O 0.72358 0.62285 0.42913 0.0
O855 O 0.7647 0.62445 0.46766 0.0
C856 C 0.85898 0.7548 0.45211 0.0
C857 C 0.88261 0.74245 0.43758 0.0
H858 H 0.92204 0.71053 0.40864 0.0
H859 H 0.91068 0.65422 0.39781 0.0
H860 H 0.76019 0.73335 0.49238 0.0
H861 H 0.80797 0.77035 0.47942 0.0
H862 H 0.8621 0.77935 0.45624 0.0
H863 H 0.90353 0.75767 0.43072 0.0
Tb864 Tb 0.06472 0.08024 0.05854 0.0
Eu865 Eu 0.13295 0.10449 0.1101 0.0
C866 C 0.13319 0.08619 0.03549 0.0
C867 C 0.10135 0.03459 0.09205 0.0
C868 C 0.99312 0.10213 1.0235 0.0
C869 C 0.94844 0.12674 1.00341 0.0
C870 C 0.96375 0.10123 1.00361 0.0
C871 C 1.00701 0.12891 0.04254 0.0
C872 C 0.99154 0.15385 0.04296 0.0
C873 C 0.96215 0.15313 1.02346 0.0
C874 C 1.01029 0.07607 1.0253 0.0
O875 O 0.05685 0.1073 0.09922 0.0
O876 O 0.09107 0.09364 0.13856 0.0
O877 O 0.11547 0.14823 0.09637 0.0
O878 O 0.08832 0.12543 0.04854 0.0
C879 C 0.06246 0.09956 0.12815 0.0
O880 O 0.16109 0.0931 0.15321 0.0
O881 O 0.18436 0.12665 0.12411 0.0
O882 O 0.14585 0.10449 0.06061 0.0
O883 O 0.10304 0.07012 0.03175 0.0
O884 O 0.07177 0.03893 0.08219 0.0
O885 O 0.12664 0.05619 0.09107 0.0
C886 C 0.10071 0.14983 0.0674 0.0
O887 O 1.03793 0.08037 1.01348 0.0
O888 O 1.01357 0.06517 0.05319 0.0
C889 C 0.20951 0.08435 0.13562 0.0
C890 C 0.23906 0.03526 0.1161 0.0
C891 C 0.24861 0.05044 0.14663 0.0
C892 C 0.23337 0.0744 0.15658 0.0
C893 C 0.20092 0.0695 0.10551 0.0
C894 C 0.21402 0.04472 0.09643 0.0
C895 C 0.18887 0.10625 0.14458 0.0
H896 H 0.92549 0.12556 0.98829 0.0
H897 H 0.95265 0.08093 0.98854 0.0
H898 H 1.02991 0.13069 0.0574 0.0
H899 H 1.00257 0.17376 0.05859 0.0
H900 H 0.26786 0.04408 0.16271 0.0
H901 H 0.24015 0.08499 0.18035 0.0
H902 H 0.18293 0.07655 0.08901 0.0
H903 H 0.20412 0.03306 0.07361 0.0
Tb904 Tb 0.37791 0.86843 0.32662 0.0
Eu905 Eu 0.31982 0.81295 0.28921 0.0
C906 C 0.31365 0.88491 0.29274 0.0
C907 C 0.3301 0.8239 0.36664 0.0
C908 C 0.43727 0.94111 0.35723 0.0
C909 C 0.45622 0.98806 0.33251 0.0
C910 C 0.44165 0.95703 0.32985 0.0
C911 C 0.44658 0.95676 0.38709 0.0
C912 C 0.46086 0.9877 0.38969 0.0
C913 C 0.46653 1.00337 0.36251 0.0
C914 C 0.4238 0.90818 0.35579 0.0
O915 O 0.39824 0.82735 0.32118 0.0
O916 O 0.35392 0.78828 0.31815 0.0
O917 O 0.35378 0.83042 0.25307 0.0
O918 O 0.37674 0.8782 0.27605 0.0
C919 C 0.3849 0.79952 0.32729 0.0
O920 O 0.30485 0.77425 0.25464 0.0
O921 O 0.26777 0.79307 0.27644 0.0
O922 O 0.30556 0.85765 0.27811 0.0
O923 O 0.33741 0.89219 0.31629 0.0
O924 O 0.3579 0.84304 0.36536 0.0
O925 O 0.30976 0.81332 0.34071 0.0
C926 C 0.36852 0.85891 0.25068 0.0
O927 O 0.39509 0.90047 0.36514 0.0
O928 O 0.4268 0.8916 0.33071 0.0
C929 C 0.25394 0.74075 0.25694 0.0
C930 C 0.21542 0.68103 0.24984 0.0
C931 C 0.24991 0.6858 0.25563 0.0
C932 C 0.26887 0.71518 0.25926 0.0
C933 C 0.21964 0.73634 0.25155 0.0
C934 C 0.20054 0.70684 0.24819 0.0
C935 C 0.27366 0.77181 0.25711 0.0
H936 H 0.4602 0.9999 0.31123 0.0
H937 H 0.43433 0.94545 0.30654 0.0
H938 H 0.44313 0.94493 0.40847 0.0
H939 H 0.46782 0.99937 0.41299 0.0
H940 H 0.26266 0.66688 0.2577 0.0
H941 H 0.29529 0.71777 0.26341 0.0
H942 H 0.2076 0.75578 0.24928 0.0
H943 H 0.17422 0.70442 0.24334 0.0
Tb944 Tb 0.58606 0.05278 0.522 0.0
Eu945 Eu 0.61385 0.08604 0.58916 0.0
C946 C 0.57972 1.01841 0.58351 0.0
C947 C 0.54318 0.10092 0.55384 0.0
C948 C 0.56437 0.99188 0.45776 0.0
C949 C 0.59244 0.94898 0.45732 0.0
C950 C 0.59082 0.97831 0.46898 0.0
C951 C 0.54008 0.97614 0.43441 0.0
C952 C 0.54188 0.94703 0.42236 0.0
C953 C 0.56778 0.93299 0.43415 0.0
C954 C 0.561 1.02165 0.47143 0.0
O955 O 0.6057 0.09829 0.50921 0.0
O956 O 0.62854 0.12324 0.55724 0.0
O957 O 0.65228 0.05444 0.5796 0.0
O958 O 0.63727 0.04148 0.52685 0.0
C959 C 0.62142 0.12273 0.52653 0.0
O960 O 0.6562 0.10105 0.6248 0.0
O961 O 0.60806 0.10493 0.63595 0.0
O962 O 0.57691 0.04459 0.59642 0.0
O963 O 0.58947 1.01783 0.55562 0.0
O964 O 0.54417 0.07666 0.53431 0.0
O965 O 0.56914 0.11032 0.57561 0.0
C966 C 0.65841 0.04096 0.55289 0.0
O967 O 0.54703 1.02093 0.49724 0.0
O968 O 0.587 0.04321 0.47359 0.0
C969 C 0.65132 0.14624 0.65216 0.0
C970 C 0.66959 0.2101 0.66516 0.0
C971 C 0.67461 0.19631 0.63631 0.0
C972 C 0.66578 0.16485 0.63 0.0
C973 C 0.64624 0.15955 0.68096 0.0
C974 C 0.65588 0.19111 0.68772 0.0
C975 C 0.63957 0.11345 0.64395 0.0
H976 H 0.61249 0.93847 0.46693 0.0
H977 H 0.60969 0.99002 0.4873 0.0
H978 H 0.5192 0.98596 0.42629 0.0
H979 H 0.52216 0.93489 0.40506 0.0
H980 H 0.68417 0.20968 0.61777 0.0
H981 H 0.66944 0.15522 0.60727 0.0
H982 H 0.63466 0.14556 0.69814 0.0
H983 H 0.65233 0.20043 0.71059 0.0
Tb984 Tb 0.32058 0.32258 0.7943 0.0
Eu985 Eu 0.39066 0.31467 0.82103 0.0
C986 C 0.37983 0.3677 0.77602 0.0
C987 C 0.36092 0.28828 0.74651 0.0
C988 C 0.23607 0.31737 0.80146 0.0
C989 C 0.18465 0.28735 0.81194 0.0
C990 C 0.20554 0.29917 0.79046 0.0
C991 C 0.24494 0.32457 0.83418 0.0
C992 C 0.22404 0.31282 0.85566 0.0
C993 C 0.19409 0.29344 0.84476 0.0
C994 C 0.26103 0.32321 0.78002 0.0
O995 O 0.31508 0.29293 0.83291 0.0
O996 O 0.35818 0.27042 0.828 0.0
O997 O 0.37175 0.33489 0.86598 0.0
O998 O 0.33249 0.35587 0.8382 0.0
C999 C 0.32953 0.26978 0.83709 0.0
O1000 O 0.42744 0.28591 0.82779 0.0
O1001 O 0.4397 0.33329 0.84527 0.0
O1002 O 0.39634 0.36079 0.80174 0.0
O1003 O 0.35047 0.35234 0.76575 0.0
O1004 O 0.33196 0.29048 0.75568 0.0
O1005 O 0.38742 0.30036 0.76666 0.0
C1006 C 0.35033 0.35366 0.86597 0.0
O1007 O 0.28325 0.34801 0.78686 0.0
O1008 O 0.27398 0.29952 0.7741 0.0
C1009 C 0.47555 0.31474 0.81511 0.0
C1010 C 0.51896 0.32256 0.76963 0.0
C1011 C 0.52745 0.30944 0.79819 0.0
C1012 C 0.50562 0.30528 0.82079 0.0
C1013 C 0.46736 0.32804 0.78673 0.0
C1014 C 0.48873 0.33174 0.76412 0.0
C1015 C 0.45093 0.30922 0.83682 0.0
H1016 H 0.16128 0.273 0.80289 0.0
H1017 H 0.19854 0.29295 0.76539 0.0
H1018 H 0.26871 0.33806 0.84332 0.0
H1019 H 0.23187 0.31789 0.88078 0.0
H1020 H 0.55082 0.30233 0.8029 0.0
H1021 H 0.5121 0.29469 0.84243 0.0
H1022 H 0.44429 0.33559 0.78196 0.0
H1023 H 0.48193 0.34248 0.74264 0.0
Tb1024 Tb 0.10048 0.06374 0.51996 0.0
Eu1025 Eu 0.10222 0.09807 0.58322 0.0
C1026 C 0.17001 0.10463 0.54777 0.0
C1027 C 0.10644 1.02232 0.58341 0.0
C1028 C 0.05884 0.03687 0.44264 0.0
C1029 C 1.01682 1.00982 0.40152 0.0
C1030 C 0.04686 1.01176 0.4208 0.0
C1031 C 1.04004 0.05963 0.44537 0.0
C1032 C 1.01038 0.05787 0.42603 0.0
C1033 C 0.9983 0.03301 0.40377 0.0
C1034 C 0.08941 0.03868 0.46446 0.0
O1035 O 0.04742 0.05085 0.52738 0.0
O1036 O 0.04759 0.0734 0.57613 0.0
O1037 O 0.09513 0.1386 0.55164 0.0
O1038 O 0.09874 0.11339 0.50527 0.0
C1039 C 1.03181 0.0546 0.55212 0.0
O1040 O 0.08172 0.11875 0.62183 0.0
O1041 O 0.13403 0.11999 0.62458 0.0
O1042 O 0.15238 0.11757 0.5661 0.0
O1043 O 0.1554 0.07849 0.53171 0.0
O1044 O 0.10642 1.02395 0.55197 0.0
O1045 O 0.10694 0.04868 0.5997 0.0
C1046 C 0.09757 0.14001 0.52096 0.0
O1047 O 0.10661 0.06595 0.47173 0.0
O1048 O 0.08642 1.02361 0.48961 0.0
C1049 C 0.11208 0.11305 0.67095 0.0
C1050 C 0.14039 0.08697 0.72287 0.0
C1051 C 0.14589 0.11886 0.72148 0.0
C1052 C 0.13173 0.13185 0.69562 0.0
C1053 C 0.10365 0.0814 0.67394 0.0
C1054 C 0.11775 0.06834 0.70002 0.0
C1055 C 0.11003 0.12483 0.63966 0.0
H1056 H 1.00858 0.99057 0.38429 0.0
H1057 H 0.0607 0.99371 0.41866 0.0
H1058 H 0.04822 0.07887 0.46262 0.0
H1059 H 0.99676 0.07599 0.42877 0.0
H1060 H 0.16277 0.13357 0.73947 0.0
H1061 H 0.13872 0.15623 0.69346 0.0
H1062 H 0.08861 0.06659 0.65487 0.0
H1063 H 0.11289 0.04374 0.7012 0.0
Tb1064 Tb 0.3387 0.81141 0.81707 0.0
Eu1065 Eu 0.36605 0.87658 0.79856 0.0
C1066 C 0.34314 0.86621 0.86798 0.0
C1067 C 0.28711 0.84719 0.77805 0.0
C1068 C 0.32272 0.7302 0.81171 0.0
C1069 C 0.31202 0.67581 0.79908 0.0
C1070 C 0.30558 0.70103 0.81597 0.0
C1071 C 0.34558 0.73422 0.79008 0.0
C1072 C 0.35141 0.70937 0.77274 0.0
C1073 C 0.33528 0.67987 0.77757 0.0
C1074 C 0.31678 0.75714 0.82855 0.0
O1075 O 0.34405 0.80389 0.76647 0.0
O1076 O 0.37658 0.84854 0.75642 0.0
O1077 O 0.41132 0.86419 0.82883 0.0
O1078 O 0.39355 0.81277 0.82718 0.0
C1079 C 0.3608 0.82065 0.74699 0.0
O1080 O 0.36471 0.9152 0.7688 0.0
O1081 O 0.39988 0.92018 0.81078 0.0
O1082 O 0.34318 0.8837 0.84387 0.0
O1083 O 0.34406 0.83727 0.86295 0.0
O1084 O 0.29189 0.8284 0.80093 0.0
O1085 O 0.31323 0.86608 0.7712 0.0
C1086 C 0.41745 0.83699 0.83567 0.0
O1087 O 0.3428 0.77394 0.8444 0.0
O1088 O 0.3 0.77347 0.81124 0.0
C1089 C 0.36664 0.95618 0.80542 0.0
C1090 C 0.33779 0.99083 0.84668 0.0
C1091 C 0.36949 1.00203 0.83902 0.0
C1092 C 0.38398 0.9846 0.81878 0.0
C1093 C 0.33463 0.94563 0.81214 0.0
C1094 C 0.32059 0.96249 0.83279 0.0
C1095 C 0.38313 0.93421 0.79057 0.0
H1096 H 0.29959 0.65319 0.80356 0.0
H1097 H 0.28776 0.69775 0.83256 0.0
H1098 H 0.35933 0.75662 0.78685 0.0
H1099 H 0.36908 0.71324 0.75604 0.0
H1100 H 0.38321 1.02408 0.84883 0.0
H1101 H 0.40896 0.99278 0.81444 0.0
H1102 H 0.32096 0.92339 0.8028 0.0
H1103 H 0.29656 0.95267 0.83858 0.0
Tb1104 Tb 0.61717 0.079 0.08154 0.0
Eu1105 Eu 0.57967 0.09585 1.01997 0.0
C1106 C 0.6107 0.02831 1.02118 0.0
C1107 C 0.65656 0.12429 0.04125 0.0
C1108 C 0.62907 0.088 0.16415 0.0
C1109 C 0.64157 0.11749 0.21465 0.0
C1110 C 0.65069 0.09841 0.1917 0.0
C1111 C 0.59852 0.09686 0.15977 0.0
C1112 C 0.58991 0.1164 0.18189 0.0
C1113 C 0.61107 0.12692 0.2098 0.0
C1114 C 0.63875 0.07151 0.13753 0.0
O1115 O 0.60248 0.12538 0.09619 0.0
O1116 O 0.57638 0.13971 0.05095 0.0
O1117 O 0.53939 0.07756 0.04839 0.0
O1118 O 0.57039 0.04714 0.07304 0.0
C1119 C 0.5886 0.14684 0.08118 0.0
O1120 O 0.57002 0.1267 0.98313 0.0
O1121 O 0.54586 0.07955 0.977 0.0
O1122 O 0.59532 0.04827 1.00553 0.0
O1123 O 0.62347 0.03712 0.05131 0.0
O1124 O 0.65809 0.10092 0.05856 0.0
O1125 O 0.629 0.12692 1.02479 0.0
C1126 C 0.54166 0.05323 0.06375 0.0
O1127 O 0.61482 0.05247 0.12105 0.0
O1128 O 0.65586 0.08871 0.11924 0.0
C1129 C 0.57154 0.10046 0.9355 0.0
C1130 C 0.60525 0.08857 0.88489 0.0
C1131 C 0.57253 0.09255 0.87915 0.0
C1132 C 0.55568 0.09855 0.90447 0.0
C1133 C 0.60416 0.09661 0.94108 0.0
C1134 C 0.62085 0.09076 0.91606 0.0
C1135 C 0.55477 0.10451 0.963 0.0
H1136 H 0.65831 0.12457 0.23615 0.0
H1137 H 0.67456 0.09212 0.19527 0.0
H1138 H 0.58139 0.08942 0.13854 0.0
H1139 H 0.56667 0.12356 0.17656 0.0
H1140 H 0.56 0.09079 0.8552 0.0
H1141 H 0.53039 0.10116 0.89992 0.0
H1142 H 0.61662 0.09752 0.96499 0.0
H1143 H 0.64569 0.08697 0.92122 0.0
Tb1144 Tb 0.37165 0.35343 0.32015 0.0
Eu1145 Eu 0.33547 0.29492 0.2836 0.0
C1146 C 0.36622 0.29062 0.36012 0.0
C1147 C 0.4148 0.32258 0.27316 0.0
C1148 C 0.36866 0.42567 0.35373 0.0
C1149 C 0.31294 0.42419 0.36513 0.0
C1150 C 0.3436 0.4164 0.37249 0.0
C1151 C 0.36436 0.44753 0.33162 0.0
C1152 C 0.33363 0.45511 0.32407 0.0
C1153 C 0.30695 0.4415 0.33903 0.0
C1154 C 0.39181 0.4052 0.3485 0.0
O1155 O 0.3604 0.37006 0.27071 0.0
O1156 O 0.32392 0.32952 0.2461 0.0
O1157 O 0.29283 0.30575 0.31056 0.0
O1158 O 0.31921 0.35277 0.33131 0.0
C1159 C 0.34082 0.35761 0.24458 0.0
O1160 O 0.32292 0.26601 0.23917 0.0
O1161 O 0.30864 0.2477 0.282 0.0
O1162 O 0.35394 0.27609 0.33212 0.0
O1163 O 0.37585 0.32091 0.36012 0.0
O1164 O 0.41561 0.34119 0.29882 0.0
O1165 O 0.38659 0.30341 0.26401 0.0
C1166 C 0.29259 0.33051 0.32889 0.0
O1167 O 0.38851 0.38007 0.36318 0.0
O1168 O 0.39428 0.39944 0.31891 0.0
C1169 C 0.34295 0.22232 0.25561 0.0
C1170 C 0.40504 0.22305 0.28859 0.0
C1171 C 0.40231 0.23429 0.25836 0.0
C1172 C 0.37132 0.23321 0.24151 0.0
C1173 C 0.3462 0.20451 0.28181 0.0
C1174 C 0.37708 0.20558 0.29872 0.0
C1175 C 0.31744 0.24142 0.25458 0.0
H1176 H 0.29335 0.41426 0.37809 0.0
H1177 H 0.34624 0.40011 0.39031 0.0
H1178 H 0.38345 0.4557 0.31729 0.0
H1179 H 0.3303 0.47003 0.30505 0.0
H1180 H 0.42357 0.24681 0.24927 0.0
H1181 H 0.36979 0.24574 0.22034 0.0
H1182 H 0.32484 0.19458 0.29254 0.0
H1183 H 0.37871 0.19512 0.32117 0.0
Tb1184 Tb 0.60312 0.56284 1.01808 0.0
Eu1185 Eu 0.60448 0.59415 0.08242 0.0
C1186 C 0.67255 0.60358 0.04786 0.0
C1187 C 0.6056 0.51746 0.07888 0.0
C1188 C 0.56404 0.53658 0.94009 0.0
C1189 C 0.52265 0.50759 0.89973 0.0
C1190 C 0.55306 0.51104 0.91865 0.0
C1191 C 0.54404 0.55833 0.9427 0.0
C1192 C 0.51403 0.55508 0.92374 0.0
C1193 C 0.50275 0.52966 0.90204 0.0
C1194 C 0.59461 0.53963 0.96199 0.0
O1195 O 0.54975 0.54954 1.02445 0.0
O1196 O 0.54976 0.56995 0.0742 0.0
O1197 O 0.59665 0.63596 0.05216 0.0
O1198 O 0.59892 0.61231 1.0046 0.0
C1199 C 0.53401 0.55221 0.04938 0.0
O1200 O 0.58431 0.61286 0.1225 0.0
O1201 O 0.63665 0.61497 0.12394 0.0
O1202 O 0.65438 0.61579 0.06612 0.0
O1203 O 0.65817 0.57766 0.03121 0.0
O1204 O 0.60435 0.52067 0.04758 0.0
O1205 O 0.6089 0.54353 0.09681 0.0
C1206 C 0.59782 0.63842 1.02126 0.0
O1207 O 0.60979 0.56743 0.97024 0.0
O1208 O 0.59251 0.52352 0.98651 0.0
C1209 C 0.61641 0.60906 0.17145 0.0
C1210 C 0.64732 0.58994 0.22656 0.0
C1211 C 0.64699 0.62106 0.22347 0.0
C1212 C 0.63154 0.63057 0.19603 0.0
C1213 C 0.61384 0.5777 0.17578 0.0
C1214 C 0.62923 0.56811 0.20344 0.0
C1215 C 0.613 0.6196 0.13961 0.0
H1216 H 0.51516 0.48803 0.88281 0.0
H1217 H 0.5679 0.49375 0.91663 0.0
H1218 H 0.55145 0.57787 0.95968 0.0
H1219 H 0.49946 0.57244 0.92655 0.0
H1220 H 0.66046 0.63813 0.24148 0.0
H1221 H 0.63405 0.65483 0.19284 0.0
H1222 H 0.60249 0.56085 0.15677 0.0
H1223 H 0.62907 0.544 0.20572 0.0
Tb1224 Tb 0.85006 0.30753 0.31787 0.0
Eu1225 Eu 0.87227 0.37558 0.30181 0.0
C1226 C 0.85232 0.36219 0.37062 0.0
C1227 C 0.79606 0.34204 0.27837 0.0
C1228 C 0.81228 0.22728 0.31045 0.0
C1229 C 0.80728 0.17269 0.30275 0.0
C1230 C 0.80907 0.19856 0.32284 0.0
C1231 C 0.80975 0.22963 0.27751 0.0
C1232 C 0.80892 0.20391 0.25751 0.0
C1233 C 0.80941 0.17562 0.27033 0.0
C1234 C 0.82731 0.2542 0.33125 0.0
O1235 O 0.85633 0.30036 0.26771 0.0
O1236 O 0.8752 0.34943 0.25508 0.0
O1237 O 0.91869 0.3635 0.3305 0.0
O1238 O 0.90428 0.31162 0.3294 0.0
C1239 C 0.86528 0.32001 0.24665 0.0
O1240 O 0.87025 0.41548 0.27406 0.0
O1241 O 0.90642 0.41877 0.31512 0.0
O1242 O 0.85003 0.38014 0.34727 0.0
O1243 O 0.85604 0.33399 0.3644 0.0
O1244 O 0.80573 0.31639 0.2865 0.0
O1245 O 0.81644 0.36831 0.28626 0.0
C1246 C 0.92654 0.33685 0.33718 0.0
O1247 O 0.85789 0.26397 0.32787 0.0
O1248 O 0.81105 0.27642 0.3321 0.0
C1249 C 0.87441 0.45589 0.31221 0.0
C1250 C 0.84768 0.49201 0.35403 0.0
C1251 C 0.87882 0.50274 0.34482 0.0
C1252 C 0.89226 0.48458 0.32428 0.0
C1253 C 0.84318 0.44562 0.32088 0.0
C1254 C 0.83022 0.46316 0.34181 0.0
C1255 C 0.88963 0.43371 0.29594 0.0
H1256 H 0.80785 0.15098 0.31306 0.0
H1257 H 0.81122 0.19646 0.3482 0.0
H1258 H 0.81189 0.25173 0.26763 0.0
H1259 H 0.81049 0.20649 0.23255 0.0
H1260 H 0.89279 0.52506 0.35343 0.0
H1261 H 0.91674 0.49258 0.31847 0.0
H1262 H 0.82917 0.42328 0.31254 0.0
H1263 H 0.80667 0.45363 0.3489 0.0
Tb1264 Tb 0.11891 0.57616 0.57948 0.0
Eu1265 Eu 0.08588 0.59306 0.51459 0.0
C1266 C 0.1147 0.52645 0.5175 0.0
C1267 C 0.15896 0.6246 0.54119 0.0
C1268 C 0.1323 0.5819 0.66213 0.0
C1269 C 0.1454 0.60825 0.71432 0.0
C1270 C 0.15339 0.58926 0.69057 0.0
C1271 C 0.10347 0.59372 0.65768 0.0
C1272 C 0.09619 0.61338 0.68052 0.0
C1273 C 0.11672 0.62071 0.70934 0.0
C1274 C 0.14178 0.56681 0.63451 0.0
O1275 O 0.11008 0.62377 0.59378 0.0
O1276 O 0.07871 0.63381 0.54943 0.0
O1277 O 0.05384 0.55148 0.52877 0.0
O1278 O 0.06577 0.56417 0.58082 0.0
C1279 C 0.09302 0.64281 0.57901 0.0
O1280 O 0.08551 0.60371 0.46527 0.0
O1281 O 1.04088 0.60055 0.48752 0.0
O1282 O 0.10649 0.54883 0.49993 0.0
O1283 O 0.11945 0.53241 0.54904 0.0
O1284 O 0.15974 0.59971 0.55651 0.0
O1285 O 0.13197 0.62814 0.5244 0.0
C1286 C 0.04661 0.54791 0.55723 0.0
O1287 O 0.11817 0.5476 0.61757 0.0
O1288 O 0.15772 0.58567 0.61683 0.0
C1289 C 1.03721 0.57711 0.4366 0.0
C1290 C 1.02815 0.52988 0.38924 0.0
C1291 C 1.02657 0.52295 0.42084 0.0
C1292 C 1.03234 0.54649 0.44442 0.0
C1293 C 1.03308 0.58382 0.40484 0.0
C1294 C 1.02843 0.56026 0.38115 0.0
C1295 C 0.05358 0.60091 0.46091 0.0
H1296 H 0.16159 0.61308 0.73644 0.0
H1297 H 0.1761 0.58082 0.69416 0.0
H1298 H 0.08697 0.58878 0.63584 0.0
H1299 H 0.07453 0.62316 0.67513 0.0
H1300 H 1.02582 0.49975 0.42771 0.0
H1301 H 1.03593 0.54075 0.46881 0.0
H1302 H 1.03696 0.60733 0.39839 0.0
H1303 H 1.02966 0.56648 0.35698 0.0
Tb1304 Tb 0.82364 0.82609 0.29891 0.0
Eu1305 Eu 0.89376 0.82015 0.3263 0.0
C1306 C 0.88212 0.87312 0.28145 0.0
C1307 C 0.86487 0.7922 0.25196 0.0
C1308 C 0.73821 0.81661 0.30268 0.0
C1309 C 0.68613 0.78478 0.30807 0.0
C1310 C 0.70783 0.7999 0.28896 0.0
C1311 C 0.7462 0.81904 0.33579 0.0
C1312 C 0.72461 0.80386 0.35489 0.0
C1313 C 0.69474 0.78595 0.34114 0.0
C1314 C 0.76405 0.82549 0.28289 0.0
O1315 O 0.81773 0.79584 0.33708 0.0
O1316 O 0.86281 0.77555 0.33442 0.0
O1317 O 0.87367 0.83915 0.37098 0.0
O1318 O 0.8338 0.85909 0.34299 0.0
C1319 C 0.83386 0.77404 0.34303 0.0
O1320 O 0.93157 0.79263 0.3339 0.0
O1321 O 0.94181 0.83984 0.35203 0.0
O1322 O 0.89871 0.86656 0.3073 0.0
O1323 O 0.85332 0.85674 0.27082 0.0
O1324 O 0.8358 0.79375 0.26113 0.0
O1325 O 0.89119 0.80517 0.27199 0.0
C1326 C 0.85159 0.85719 0.37085 0.0
O1327 O 0.78523 0.85036 0.29263 0.0
O1328 O 0.77833 0.80308 0.27563 0.0
C1329 C 0.97903 0.82311 0.32261 0.0
C1330 C 1.02187 0.8316 0.27699 0.0
C1331 C 1.03118 0.81911 0.30568 0.0
C1332 C 1.00956 0.81455 0.3284 0.0
C1333 C 0.97026 0.83612 0.29423 0.0
C1334 C 0.99137 0.84016 0.27154 0.0
C1335 C 0.95419 0.81642 0.34375 0.0
H1336 H 0.66279 0.77181 0.29692 0.0
H1337 H 0.70155 0.79739 0.26345 0.0
H1338 H 0.76988 0.83134 0.34686 0.0
H1339 H 0.73182 0.8052 0.38025 0.0
H1340 H 0.05489 0.81261 0.31024 0.0
H1341 H 1.01643 0.80418 0.35008 0.0
H1342 H 0.94676 0.84285 0.28937 0.0
H1343 H 0.98403 0.85042 0.24991 0.0
Tb1344 Tb 0.88 0.37333 0.83075 0.0
Eu1345 Eu 0.82691 0.31703 0.79023 0.0
C1346 C 0.81783 0.38831 0.79154 0.0
C1347 C 0.82875 0.32819 0.86696 0.0
C1348 C 0.93829 0.44604 0.86277 0.0
C1349 C 0.96025 0.49156 0.83725 0.0
C1350 C 0.94467 0.46086 0.83513 0.0
C1351 C 0.94661 0.46245 0.89228 0.0
C1352 C 0.96207 0.49305 0.89436 0.0
C1353 C 0.96962 0.5076 0.86698 0.0
C1354 C 0.92397 0.41341 0.86193 0.0
O1355 O 0.90138 0.33238 0.82958 0.0
O1356 O 0.85774 0.29243 0.82306 0.0
O1357 O 0.86691 0.33341 0.76002 0.0
O1358 O 0.88212 0.38269 0.7804 0.0
C1359 C 0.88781 0.30443 0.8352 0.0
O1360 O 0.81729 0.27958 0.75393 0.0
O1361 O 0.77656 0.29669 0.77108 0.0
O1362 O 0.81226 0.36107 0.777 0.0
O1363 O 0.83956 0.39635 0.81667 0.0
O1364 O 0.85589 0.34877 0.86777 0.0
O1365 O 0.81157 0.31589 0.83986 0.0
C1366 C 0.87834 0.3623 0.75622 0.0
O1367 O 0.89401 0.40665 0.86855 0.0
O1368 O 0.92909 0.39588 0.83848 0.0
C1369 C 0.76529 0.2473 0.74418 0.0
C1370 C 0.73097 0.18716 0.72915 0.0
C1371 C 0.74346 0.20499 0.7054 0.0
C1372 C 0.76042 0.23482 0.71289 0.0
C1373 C 0.75159 0.23036 0.76776 0.0
C1374 C 0.73426 0.20058 0.76022 0.0
C1375 C 0.78558 0.2777 0.75125 0.0
H1376 H 0.96572 0.50255 0.81583 0.0
H1377 H 0.93812 0.44864 0.81207 0.0
H1378 H 0.94155 0.45145 0.91381 0.0
H1379 H 0.96821 0.50541 0.91732 0.0
H1380 H 0.7406 0.19578 0.6811 0.0
H1381 H 0.77044 0.24795 0.69431 0.0
H1382 H 0.75503 0.23979 0.79203 0.0
H1383 H 0.72506 0.1876 0.77922 0.0
Tb1384 Tb 0.86893 0.85776 0.82723 0.0
Eu1385 Eu 0.83616 0.7985 0.79037 0.0
C1386 C 0.86563 0.79433 0.86658 0.0
C1387 C 0.91547 0.82825 0.78175 0.0
C1388 C 0.86664 0.92736 0.86958 0.0
C1389 C 0.80904 0.92067 0.87642 0.0
C1390 C 0.83979 0.913 0.88402 0.0
C1391 C 0.86407 0.95407 0.85401 0.0
C1392 C 0.83329 0.96128 0.84586 0.0
C1393 C 0.80534 0.94272 0.85461 0.0
C1394 C 0.88889 0.90852 0.85822 0.0
O1395 O 0.85934 0.87426 0.77741 0.0
O1396 O 0.82484 0.83272 0.75233 0.0
O1397 O 0.79231 0.80795 0.81716 0.0
O1398 O 0.8158 0.85602 0.83682 0.0
C1399 C 0.84079 0.86119 0.75093 0.0
O1400 O 0.82477 0.76989 0.7458 0.0
O1401 O 0.8093 0.75124 0.78812 0.0
O1402 O 0.85626 0.77972 0.83818 0.0
O1403 O 0.87168 0.82485 0.86711 0.0
O1404 O 0.91389 0.84785 0.80595 0.0
O1405 O 0.88863 0.80707 0.77284 0.0
C1406 C 0.79008 0.83285 0.83451 0.0
O1407 O 0.88952 0.8825 0.87067 0.0
O1408 O 0.88582 0.905 0.82758 0.0
C1409 C 0.84388 0.72578 0.76193 0.0
C1410 C 0.90781 0.72698 0.79064 0.0
C1411 C 0.90256 0.73555 0.75946 0.0
C1412 C 0.87062 0.73449 0.74489 0.0
C1413 C 0.84915 0.71017 0.78948 0.0
C1414 C 0.88098 0.71164 0.80427 0.0
C1415 C 0.81862 0.74514 0.76087 0.0
H1416 H 0.78786 0.90697 0.88448 0.0
H1417 H 0.84118 0.89286 0.89704 0.0
H1418 H 0.88451 0.96594 0.84319 0.0
H1419 H 0.83089 0.979 0.8296 0.0
H1420 H 0.9229 0.74601 0.7477 0.0
H1421 H 0.86739 0.74528 0.72274 0.0
H1422 H 0.82901 0.70181 0.80254 0.0
H1423 H 0.88442 0.70318 0.82764 0.0
Tb1424 Tb 0.5613 0.56968 0.54883 0.0
Eu1425 Eu 0.62912 0.59191 0.59905 0.0
C1426 C 0.63055 0.57372 0.52962 0.0
C1427 C 0.59091 0.52311 0.58818 0.0
C1428 C 0.48917 0.58998 0.51206 0.0
C1429 C 0.48311 0.64128 0.49803 0.0
C1430 C 0.49615 0.61501 0.49332 0.0
C1431 C 0.46736 0.59139 0.53449 0.0
C1432 C 0.45425 0.61767 0.53913 0.0
C1433 C 0.46258 0.64336 0.52153 0.0
C1434 C 0.50925 0.5657 0.51241 0.0
O1435 O 0.54776 0.57331 0.59606 0.0
O1436 O 0.59079 0.60726 0.6252 0.0
O1437 O 0.62201 0.63191 0.56908 0.0
O1438 O 0.56658 0.61754 0.56324 0.0
C1439 C 0.55991 0.59301 0.62038 0.0
O1440 O 0.65883 0.58813 0.64405 0.0
O1441 O 0.68228 0.60813 0.60541 0.0
O1442 O 0.63728 0.56385 0.55737 0.0
O1443 O 0.60243 0.58213 0.52256 0.0
O1444 O 0.57804 0.52702 0.55923 0.0
O1445 O 0.60047 0.54652 0.60886 0.0
C1446 C 0.59264 0.63777 0.56048 0.0
O1447 O 0.53802 0.57369 0.50316 0.0
O1448 O 0.51103 0.55053 0.53793 0.0
C1449 C 0.7038 0.56844 0.62944 0.0
C1450 C 0.73663 0.52013 0.61652 0.0
C1451 C 0.75385 0.54768 0.63279 0.0
C1452 C 0.73756 0.57179 0.63901 0.0
C1453 C 0.68662 0.54045 0.61447 0.0
C1454 C 0.70273 0.51665 0.60802 0.0
C1455 C 0.6861 0.59417 0.63153 0.0
H1456 H 0.48993 0.66028 0.48373 0.0
H1457 H 0.51295 0.61492 0.47589 0.0
H1458 H 0.46134 0.57262 0.54937 0.0
H1459 H 0.43757 0.61776 0.55665 0.0
H1460 H 0.78013 0.55111 0.63928 0.0
H1461 H 0.75144 0.59322 0.65029 0.0
H1462 H 0.66074 0.53737 0.60662 0.0
H1463 H 0.68878 0.49577 0.59555 0.0
Tb1464 Tb 0.09352 0.56139 1.02365 0.0
Eu1465 Eu 0.12258 0.59345 0.09049 0.0
C1466 C 0.08892 0.52586 0.08458 0.0
C1467 C 0.05086 0.60875 0.05861 0.0
C1468 C 0.0616 0.50334 0.95612 0.0
C1469 C 1.02686 0.45534 0.9356 0.0
C1470 C 1.03044 0.48504 0.94862 0.0
C1471 C 0.08926 0.49197 0.94915 0.0
C1472 C 0.0857 0.46197 0.9363 0.0
C1473 C 0.0545 0.44316 0.93041 0.0
C1474 C 0.0642 0.53332 0.97279 0.0
O1475 O 0.11991 0.60504 1.01149 0.0
O1476 O 0.12728 0.63253 0.0592 0.0
O1477 O 0.16154 0.56308 0.07772 0.0
O1478 O 0.14204 0.54516 1.02674 0.0
C1479 C 0.1272 0.63108 0.02858 0.0
O1480 O 0.16694 0.61545 0.12066 0.0
O1481 O 0.12149 0.60403 0.14087 0.0
O1482 O 0.08619 0.55184 0.09793 0.0
O1483 O 0.09773 0.52549 0.05628 0.0
O1484 O 0.05286 0.58638 0.03714 0.0
O1485 O 0.07629 0.61676 0.08133 0.0
C1486 C 0.16522 0.5469 0.05154 0.0
O1487 O 0.05177 0.53282 0.99947 0.0
O1488 O 0.09203 0.55253 0.97465 0.0
C1489 C 0.15763 0.65092 0.15883 0.0
C1490 C 0.1684 0.71453 0.17196 0.0
C1491 C 0.19485 0.7 0.16848 0.0
C1492 C 0.18953 0.6684 0.1623 0.0
C1493 C 0.13147 0.66521 0.1644 0.0
C1494 C 0.13687 0.69673 0.17108 0.0
C1495 C 0.15169 0.61922 0.14506 0.0
H1496 H 1.00254 0.44131 0.93112 0.0
H1497 H 1.00894 0.49335 0.95415 0.0
H1498 H 0.11363 0.50569 0.95482 0.0
H1499 H 0.10739 0.45295 0.93278 0.0
H1500 H 0.2195 0.71315 0.16984 0.0
H1501 H 0.21016 0.65781 0.15853 0.0
H1502 H 0.1066 0.65239 0.16204 0.0
H1503 H 0.11604 0.70734 0.17383 0.0
C1504 C 0.08828 0.19624 0.99959 0.0
C1505 C 0.0645 0.21182 1.00882 0.0
H1506 H 0.12141 0.16658 1.01279 0.0
C1507 C 0.05973 0.21338 0.04092 0.0
H1508 H 0.09321 0.19558 0.97521 0.0
C1509 C 0.0757 0.19629 0.06263 0.0
C1510 C 0.09749 0.17855 0.05258 0.0
H1511 H 1.04195 0.22589 0.04864 0.0
H1512 H 0.06863 0.19463 0.08621 0.0
C1513 C 0.10508 0.18037 1.02136 0.0
C1514 C 0.28523 0.926 0.2248 0.0
C1515 C 0.25514 0.9305 0.23344 0.0
H1516 H 0.32841 0.9083 0.23833 0.0
C1517 C 0.2503 0.9295 0.26562 0.0
H1518 H 0.28986 0.92695 0.20036 0.0
C1519 C 0.27221 0.91816 0.28725 0.0
C1520 C 0.29955 0.9089 0.27704 0.0
H1521 H 0.22748 0.93321 0.27317 0.0
H1522 H 0.26579 0.91336 0.31064 0.0
C1523 C 0.30729 0.91522 0.24656 0.0
C1524 C 0.55537 0.85766 0.38572 0.0
C1525 C 0.55431 0.83705 0.40979 0.0
H1526 H 0.56001 0.90467 0.37464 0.0
C1527 C 0.56168 0.84864 0.44157 0.0
H1528 H 0.55067 0.84955 0.36102 0.0
C1529 C 0.56793 0.87996 0.44922 0.0
C1530 C 0.56656 0.90044 0.42532 0.0
H1531 H 0.5617 0.83345 0.46073 0.0
H1532 H 0.57212 0.88809 0.47396 0.0
C1533 C 0.56088 0.88916 0.39346 0.0
C1534 C 0.55399 0.33123 0.69198 0.0
C1535 C 0.58547 0.34811 0.70241 0.0
H1536 H 0.50794 0.30965 0.70547 0.0
C1537 C 0.59532 0.3547 0.73513 0.0
H1538 H 0.54591 0.32552 0.66699 0.0
C1539 C 0.57407 0.3452 0.75692 0.0
C1540 C 0.54236 0.32916 0.74654 0.0
H1541 H 0.61966 0.36717 0.74411 0.0
H1542 H 0.58212 0.35126 0.78187 0.0
C1543 C 0.53243 0.32207 0.71393 0.0
C1544 C 0.09987 0.93222 0.60367 0.0
C1545 C 0.10129 0.93152 0.63752 0.0
H1546 H 0.10029 0.9581 0.56099 0.0
C1547 C 0.10492 0.96184 0.65209 0.0
H1548 H 0.09733 0.91075 0.58995 0.0
C1549 C 0.10671 0.98965 0.63511 0.0
C1550 C 0.10537 0.99061 0.60144 0.0
H1551 H 0.10648 0.96444 0.67762 0.0
H1552 H 0.10924 1.01101 0.649 0.0
C1553 C 0.10179 0.96034 0.58652 0.0
C1554 C 0.49479 0.84942 0.90174 0.0
C1555 C 0.51708 0.83245 0.89029 0.0
H1556 H 0.44864 0.86527 0.89414 0.0
C1557 C 0.50489 0.81552 0.86079 0.0
H1558 H 0.50188 0.86246 0.9243 0.0
C1559 C 0.47309 0.81617 0.8437 0.0
C1560 C 0.45151 0.83436 0.85455 0.0
H1561 H 0.52005 0.80143 0.85076 0.0
H1562 H 0.46574 0.80281 0.82135 0.0
C1563 C 0.46363 0.85098 0.88414 0.0
C1564 C 0.58571 0.21598 0.14619 0.0
C1565 C 0.58471 0.24326 0.12954 0.0
H1566 H 0.58817 0.16751 0.1466 0.0
C1567 C 0.58612 0.23739 0.09642 0.0
H1568 H 0.58584 0.21764 0.17162 0.0
C1569 C 0.58628 0.20726 0.08139 0.0
C1570 C 0.58704 0.17999 0.09812 0.0
H1571 H 0.58834 0.25654 0.08173 0.0
H1572 H 0.58698 0.20569 0.05609 0.0
C1573 C 0.58714 0.18613 0.1314 0.0
C1574 C 0.22025 0.36267 0.36506 0.0
C1575 C 0.2043 0.33916 0.38294 0.0
H1576 H 0.25777 0.37898 0.33528 0.0
C1577 C 0.21844 0.31237 0.38212 0.0
H1578 H 0.21101 0.38372 0.36353 0.0
C1579 C 0.24583 0.30951 0.36479 0.0
C1580 C 0.2619 0.33333 0.34731 0.0
H1581 H 0.20771 0.29292 0.39422 0.0
H1582 H 0.25467 0.28821 0.36535 0.0
C1583 C 0.2479 0.36001 0.34841 0.0
C1584 C 1.01529 0.0861 0.1979 0.0
C1585 C 0.98289 0.07903 0.18265 0.0
H1586 H 0.06622 0.09777 0.19245 0.0
C1587 C 0.97679 0.08125 0.14992 0.0
H1588 H 1.02058 0.0844 0.2232 0.0
C1589 C 1.0028 0.08971 0.13254 0.0
C1590 C 1.03536 0.09508 0.14749 0.0
H1591 H 0.95199 0.07603 0.13774 0.0
H1592 H 0.99738 0.09073 0.10717 0.0
C1593 C 1.04139 0.09366 0.18038 0.0
C1594 C 0.33955 0.80825 0.45549 0.0
C1595 C 0.31631 0.78113 0.45614 0.0
H1596 H 0.36239 0.84285 0.42713 0.0
C1597 C 0.29595 0.77012 0.42756 0.0
H1598 H 0.35602 0.81731 0.47668 0.0
C1599 C 0.29927 0.78486 0.39926 0.0
C1600 C 0.32354 0.81103 0.39807 0.0
H1601 H 0.27786 0.74929 0.42668 0.0
H1602 H 0.28362 0.77478 0.37792 0.0
C1603 C 0.34329 0.82281 0.42686 0.0
C1604 C 0.6281 0.96906 0.62895 0.0
C1605 C 0.61615 0.97125 0.65819 0.0
H1606 H 0.62464 0.98169 0.58107 0.0
C1607 C 0.5854 0.97952 0.65891 0.0
H1608 H 0.65152 0.96242 0.62759 0.0
C1609 C 0.57057 0.99163 0.63254 0.0
C1610 C 0.58565 0.99436 0.6049 0.0
H1611 H 0.57522 0.98104 0.68099 0.0
H1612 H 0.54942 1.0019 0.63495 0.0
C1613 C 0.61268 0.98027 0.60228 0.0
C1614 C 0.32858 0.41739 0.92479 0.0
C1615 C 0.33858 0.41004 0.95636 0.0
H1616 H 0.32323 0.4069 0.87387 0.0
C1617 C 0.35255 0.38313 0.9572 0.0
H1618 H 0.31807 0.43762 0.92156 0.0
C1619 C 0.35653 0.3655 0.9289 0.0
C1620 C 0.34627 0.37288 0.89736 0.0
H1621 H 0.36144 0.37593 0.98001 0.0
H1622 H 0.36776 0.34566 0.93193 0.0
C1623 C 0.33177 0.39939 0.89665 0.0
C1624 C 0.92041 1.00498 0.34612 0.0
C1625 C 0.91699 0.03195 0.33132 0.0
H1626 H 0.94908 0.98398 0.3808 0.0
C1627 C 0.93706 0.05962 0.34389 0.0
H1628 H 0.90541 0.98328 0.3368 0.0
C1629 C 0.96222 0.06002 0.36853 0.0
C1630 C 0.96794 0.03272 0.38142 0.0
H1631 H 0.93505 0.08075 0.33285 0.0
H1632 H 0.97864 0.08156 0.37577 0.0
C1633 C 0.94584 1.00533 0.37089 0.0
C1634 C 0.34105 0.7658 0.6717 0.0
C1635 C 0.34877 0.78507 0.64715 0.0
H1636 H 0.33873 0.76142 0.72147 0.0
C1637 C 0.36244 0.81607 0.6562 0.0
H1638 H 0.33049 0.74186 0.66609 0.0
C1639 C 0.36763 0.82737 0.68841 0.0
C1640 C 0.35903 0.80821 0.71285 0.0
H1641 H 0.36878 0.8318 0.63828 0.0
H1642 H 0.37752 0.85144 0.69402 0.0
C1643 C 0.34587 0.77713 0.70376 0.0
C1644 C 0.67402 0.08222 0.83699 0.0
C1645 C 0.65932 0.05763 0.81523 0.0
H1646 H 0.66799 0.11193 0.87563 0.0
C1647 C 0.62592 0.04493 0.81507 0.0
H1648 H 0.69953 0.09281 0.83749 0.0
C1649 C 0.60788 0.05601 0.83677 0.0
C1650 C 0.62289 0.07992 0.85909 0.0
H1651 H 0.61369 1.0261 0.79846 0.0
H1652 H 0.58256 0.04506 0.83689 0.0
C1653 C 0.65595 0.09327 0.85871 0.0
C1654 C 0.32345 0.37564 0.1533 0.0
C1655 C 0.33846 0.40682 0.15109 0.0
H1656 H 0.31167 0.33673 0.18179 0.0
C1657 C 0.35368 0.42157 0.18099 0.0
H1658 H 0.31136 0.36246 0.13186 0.0
C1659 C 0.35415 0.40628 0.21041 0.0
C1660 C 0.33906 0.37506 0.21257 0.0
H1661 H 0.3659 0.44523 0.18175 0.0
H1662 H 0.36674 0.41926 0.2318 0.0
C1663 C 0.32356 0.3605 0.18271 0.0
C1664 C 0.28997 0.9723 0.1098 0.0
C1665 C 0.29244 0.97092 0.07714 0.0
H1666 H 0.27093 0.99335 0.148 0.0
C1667 C 0.27435 0.98787 0.05752 0.0
H1668 H 0.3042 0.95994 0.12565 0.0
C1669 C 0.25709 1.00812 0.07026 0.0
C1670 C 0.25585 1.01127 0.10317 0.0
H1671 H 0.27614 0.9877 0.03235 0.0
H1672 H 0.24655 1.02266 0.05398 0.0
C1673 C 0.27165 0.99218 0.12269 0.0
C1674 C 0.74817 0.66935 0.03888 0.0
C1675 C 0.7767 0.6563 0.04448 0.0
H1676 H 0.69529 0.66436 0.0355 0.0
C1677 C 0.7699 0.62499 0.05164 0.0
H1678 H 0.75105 0.6933 0.03423 0.0
C1679 C 0.73703 0.60764 0.05126 0.0
C1680 C 0.70859 0.62084 0.04544 0.0
H1681 H 0.79021 0.61386 0.05856 0.0
H1682 H 0.73407 0.58394 0.05688 0.0
C1683 C 0.71551 0.65241 0.03961 0.0
C1684 C 0.78419 0.52951 0.38751 0.0
C1685 C 0.80354 0.55137 0.41005 0.0
H1686 H 0.783 0.4953 0.35111 0.0
C1687 C 0.83715 0.55096 0.417 0.0
H1688 H 0.75822 0.52898 0.38149 0.0
C1689 C 0.85149 0.53085 0.39974 0.0
C1690 C 0.8325 0.51099 0.37514 0.0
H1691 H 0.85274 0.5673 0.43444 0.0
H1692 H 0.87756 0.53156 0.40502 0.0
C1693 C 0.79853 0.50997 0.36998 0.0
C1694 C 0.96916 0.50506 0.58568 0.0
C1695 C 0.96119 0.47915 0.56414 0.0
H1696 H 1.00284 0.54723 0.60086 0.0
C1697 C 0.98291 0.47486 0.5426 0.0
H1698 H 0.953 0.50849 0.60298 0.0
C1699 C 1.01086 0.49714 0.541 0.0
C1700 C 1.01839 0.52366 0.56172 0.0
H1701 H 0.97759 0.45485 0.52617 0.0
H1702 H 1.02651 0.49372 0.52321 0.0
C1703 C 0.99771 0.52707 0.58466 0.0
C1704 C 0.46225 0.24215 0.36514 0.0
C1705 C 0.49157 0.23617 0.35576 0.0
H1706 H 0.4116 0.24209 0.35093 0.0
C1707 C 0.49417 0.23347 0.32312 0.0
H1708 H 0.45958 0.24479 0.39002 0.0
C1709 C 0.46634 0.23084 0.30079 0.0
C1710 C 0.43581 0.23165 0.31078 0.0
H1711 H 0.51652 0.22924 0.31491 0.0
H1712 H 0.46829 0.22558 0.27614 0.0
C1713 C 0.43454 0.23972 0.34281 0.0
C1714 C 0.48171 0.15997 0.56717 0.0
C1715 C 0.45256 0.14915 0.54545 0.0
H1716 H 0.5311 0.15514 0.58687 0.0
C1717 C 0.45478 0.122 0.52713 0.0
H1718 H 0.48281 0.18029 0.58234 0.0
C1719 C 0.4828 0.10703 0.5301 0.0
C1720 C 0.51202 0.11776 0.55138 0.0
H1721 H 0.43409 0.1115 0.51004 0.0
H1722 H 0.48116 0.0863 0.51549 0.0
C1723 C 0.51017 0.14502 0.56986 0.0
C1724 C 0.77429 0.72204 0.38586 0.0
C1725 C 0.7872 0.6953 0.38518 0.0
H1726 H 0.77946 0.76844 0.37342 0.0
C1727 C 0.81613 0.69491 0.37183 0.0
H1728 H 0.75155 0.72247 0.39545 0.0
C1729 C 0.83216 0.72099 0.35939 0.0
C1730 C 0.81891 0.74762 0.35925 0.0
H1731 H 0.82568 0.67406 0.36989 0.0
H1732 H 0.85413 0.71984 0.34871 0.0
C1733 C 0.79016 0.74815 0.37312 0.0
C1734 C 0.99214 0.59211 0.85713 0.0
C1735 C 1.02215 0.59991 0.87688 0.0
H1736 H 0.95175 0.55643 0.83862 0.0
C1737 C 1.03566 0.57707 0.89204 0.0
H1738 H 0.98195 0.60934 0.84431 0.0
C1739 C 1.01838 0.54696 0.88889 0.0
C1740 C 0.98796 0.53927 0.86975 0.0
H1741 H 0.05923 0.58259 0.90666 0.0
H1742 H 1.02891 0.52961 0.90107 0.0
C1743 C 0.97512 0.56196 0.85358 0.0
C1744 C 0.14776 0.98095 0.13428 0.0
C1745 C 0.13055 0.95209 0.12194 0.0
H1746 H 0.15098 0.02896 0.13539 0.0
C1747 C 0.10165 0.95019 0.10054 0.0
H1748 H 0.16987 0.98349 0.15098 0.0
C1749 C 0.09068 0.97684 0.09134 0.0
C1750 C 0.10863 1.00555 0.10337 0.0
H1751 H 0.08762 0.92821 0.09084 0.0
H1752 H 0.06896 0.97504 0.07428 0.0
C1753 C 0.13686 1.00716 0.12528 0.0
C1754 C 0.92751 0.24139 0.87135 0.0
C1755 C 0.95117 0.25876 0.89454 0.0
H1756 H 0.88807 0.24227 0.83409 0.0
C1757 C 0.95054 0.28972 0.90066 0.0
H1758 H 0.92719 0.21729 0.86669 0.0
C1759 C 0.92909 0.30397 0.88185 0.0
C1760 C 0.90712 0.28742 0.8569 0.0
H1761 H 0.96787 0.3034 0.91903 0.0
H1762 H 0.93039 0.32829 0.88626 0.0
C1763 C 0.90521 0.25564 0.85282 0.0
C1764 C 0.66019 0.29027 0.69033 0.0
C1765 C 0.68068 0.30789 0.67162 0.0
H1766 H 0.6392 0.24573 0.70187 0.0
C1767 C 0.70093 0.29411 0.65425 0.0
H1768 H 0.64511 0.30086 0.70467 0.0
C1769 C 0.6991 0.26253 0.65397 0.0
C1770 C 0.67618 0.24411 0.67026 0.0
H1771 H 0.71806 0.30773 0.6409 0.0
H1772 H 0.71527 0.25267 0.64042 0.0
C1773 C 0.65738 0.25863 0.68915 0.0
C1774 C 0.6267 0.72745 0.3644 0.0
C1775 C 0.61705 0.74399 0.38913 0.0
H1776 H 0.65977 0.72784 0.32992 0.0
C1777 C 0.63769 0.77094 0.40279 0.0
H1778 H 0.61121 0.70645 0.35373 0.0
C1779 C 0.66495 0.78362 0.38863 0.0
C1780 C 0.67193 0.76917 0.36103 0.0
H1781 H 0.63061 0.78416 0.4218 0.0
H1782 H 0.67852 0.80606 0.39745 0.0
C1783 C 0.6541 0.73994 0.35048 0.0
C1784 C 0.10075 0.20663 0.45772 0.0
C1785 C 0.10716 0.23542 0.47603 0.0
H1786 H 0.0933 0.15661 0.45528 0.0
C1787 C 0.10991 0.23119 0.50933 0.0
H1788 H 0.09816 0.20699 0.43218 0.0
C1789 C 0.10639 0.20145 0.52292 0.0
C1790 C 0.10025 0.17265 0.50477 0.0
H1791 H 0.11466 0.25132 0.52552 0.0
H1792 H 0.10893 0.20123 0.54847 0.0
C1793 C 0.0978 0.17678 0.47138 0.0
C1794 C 0.71101 0.3628 0.24652 0.0
C1795 C 0.69743 0.34057 0.22128 0.0
H1796 H 0.75154 0.38152 0.28281 0.0
C1797 C 0.71709 0.31871 0.21544 0.0
H1798 H 0.69728 0.38007 0.25247 0.0
C1799 C 0.74802 0.31873 0.23407 0.0
C1800 C 0.76183 0.34129 0.25895 0.0
H1801 H 0.70813 0.30085 0.1968 0.0
H1802 H 0.7615 0.30113 0.22853 0.0
C1803 C 0.74253 0.36358 0.26426 0.0
C1804 C 0.60922 0.95934 0.95495 0.0
C1805 C 0.61442 0.93236 0.97074 0.0
H1806 H 0.60341 1.00697 0.95582 0.0
C1807 C 0.61908 0.93857 1.00457 0.0
H1808 H 0.60551 0.95787 0.92933 0.0
C1809 C 0.61874 0.96853 1.02044 0.0
C1810 C 0.61297 0.99522 1.00425 0.0
H1811 H 0.62319 0.92013 1.01928 0.0
H1812 H 0.62255 0.9705 0.04606 0.0
C1813 C 0.60807 0.98876 0.97066 0.0
C1814 C 0.97887 0.81519 0.71905 0.0
C1815 C 1.00839 0.83713 0.72884 0.0
H1816 H 0.92852 0.79538 0.72584 0.0
C1817 C 1.0058 0.85527 0.75681 0.0
H1818 H 0.9779 0.80016 0.69822 0.0
C1819 C 0.97712 0.85215 0.7733 0.0
C1820 C 0.94765 0.83046 0.76371 0.0
H1821 H 1.02664 0.8726 0.76664 0.0
H1822 H 0.97823 0.86733 0.79406 0.0
C1823 C 0.94982 0.81219 0.73562 0.0
C1824 C 0.16684 0.11023 0.96185 0.0
C1825 C 0.2 0.10834 0.97003 0.0
H1826 H 0.11886 0.10344 0.97632 0.0
C1827 C 0.20928 0.09437 0.99751 0.0
H1828 H 0.15891 0.12062 0.94051 0.0
C1829 C 0.18615 0.08383 1.01726 0.0
C1830 C 0.15352 0.08727 1.01003 0.0
H1831 H 0.2344 0.09178 1.00392 0.0
H1832 H 0.19418 0.0742 0.03886 0.0
C1833 C 0.14373 0.0998 0.98182 0.0
C1834 C 0.87521 0.36126 0.66542 0.0
C1835 C 0.88539 0.39233 0.66014 0.0
H1836 H 0.86534 0.32743 0.69926 0.0
C1837 C 0.89507 0.41307 0.68704 0.0
H1838 H 0.86755 0.34453 0.64552 0.0
C1839 C 0.89396 0.40327 0.718 0.0
C1840 C 0.88309 0.37231 0.72333 0.0
H1841 H 0.90309 0.43718 0.68422 0.0
H1842 H 0.90093 0.42019 0.73779 0.0
C1843 C 0.87409 0.35144 0.69644 0.0
C1844 C 0.58942 0.18828 0.49579 0.0
C1845 C 0.59788 0.18638 0.46493 0.0
H1846 H 0.59219 0.16945 0.54116 0.0
C1847 C 0.62435 0.1722 0.45969 0.0
H1848 H 0.56954 0.19944 0.50075 0.0
C1849 C 0.63649 0.15423 0.48249 0.0
C1850 C 0.62355 0.15166 0.51122 0.0
H1851 H 0.63208 0.17077 0.43641 0.0
H1852 H 0.65285 0.13946 0.47613 0.0
C1853 C 0.60248 0.17111 0.519 0.0
C1854 C 0.84786 0.73476 0.17393 0.0
C1855 C 0.87339 0.74501 0.15523 0.0
H1856 H 0.82433 0.74065 0.21612 0.0
C1857 C 0.89611 0.7713 0.1696 0.0
H1858 H 0.82923 0.71513 0.16487 0.0
C1859 C 0.8939 0.78562 0.2003 0.0
C1860 C 0.86795 0.77577 0.21866 0.0
H1861 H 0.91628 0.78088 0.15715 0.0
H1862 H 0.91256 0.80522 0.20939 0.0
C1863 C 0.8449 0.74984 0.204 0.0
C1864 C 0.21353 0.0801 0.77846 0.0
C1865 C 0.19825 0.0705 0.80478 0.0
H1866 H 0.20612 0.09279 0.73073 0.0
C1867 C 0.16461 0.05751 0.80057 0.0
H1868 H 0.23948 0.08973 0.78092 0.0
C1869 C 0.14554 0.0594 0.77187 0.0
C1870 C 0.16021 0.07397 0.74738 0.0
H1871 H 0.15238 0.0493 0.82042 0.0
H1872 H 0.11914 0.05273 0.7701 0.0
C1873 C 0.19446 0.08201 0.74984 0.0
C1874 C 0.85151 0.41859 0.44133 0.0
C1875 C 0.86008 0.40298 0.4684 0.0
H1876 H 0.84223 0.41855 0.39076 0.0
C1877 C 0.86438 0.3726 0.46281 0.0
H1878 H 0.8478 0.4419 0.44388 0.0
C1879 C 0.861 0.35891 0.43145 0.0
C1880 C 0.85321 0.37506 0.40453 0.0
H1881 H 0.87113 0.35961 0.48258 0.0
H1882 H 0.86529 0.33585 0.42831 0.0
C1883 C 0.84822 0.40505 0.41034 0.0
C1884 C 0.61228 0.18231 0.28032 0.0
C1885 C 0.57911 0.17627 0.28487 0.0
H1886 H 0.64852 0.17204 0.25238 0.0
C1887 C 0.55626 0.15755 0.26221 0.0
H1888 H 0.63041 0.19684 0.2974 0.0
C1889 C 0.56668 0.14219 0.23762 0.0
C1890 C 0.60016 0.14619 0.23413 0.0
H1891 H 0.53047 0.15246 0.26496 0.0
H1892 H 0.54836 0.12569 0.22271 0.0
C1893 C 0.62271 0.16756 0.25492 0.0
C1894 C 0.8647 0.72594 0.92552 0.0
C1895 C 0.8703 0.73922 0.95743 0.0
H1896 H 0.85894 0.73061 0.87463 0.0
C1897 C 0.87514 0.77192 0.95843 0.0
H1898 H 0.86057 0.70131 0.92183 0.0
C1899 C 0.87432 0.78939 0.93013 0.0
C1900 C 0.86843 0.77582 0.89826 0.0
H1901 H 0.87942 0.78438 0.98134 0.0
H1902 H 0.87798 0.81402 0.93346 0.0
C1903 C 0.86372 0.74326 0.89748 0.0
C1904 C 0.91872 0.21219 0.05655 0.0
C1905 C 0.90341 0.22161 0.02862 0.0
H1906 H 0.94904 0.18231 0.07665 0.0
C1907 C 0.9125 0.21275 0.99938 0.0
H1908 H 0.91168 0.21818 0.07929 0.0
C1909 C 0.93295 0.19153 0.99772 0.0
C1910 C 0.94522 0.17934 1.02536 0.0
H1911 H 0.90085 0.21964 0.97747 0.0
H1912 H 0.93769 0.18339 0.97474 0.0
C1913 C 0.93956 0.19118 0.05492 0.0
C1914 C 0.44301 0.52562 0.06871 0.0
C1915 C 0.43192 0.49644 0.05223 0.0
H1916 H 0.48201 0.56527 0.08131 0.0
C1917 C 0.45554 0.48605 0.03543 0.0
H1918 H 0.42667 0.53479 0.08269 0.0
C1919 C 0.48734 0.50423 0.03372 0.0
C1920 C 0.49842 0.53352 0.04996 0.0
H1921 H 0.44915 0.46376 1.02281 0.0
H1922 H 0.50371 0.49484 1.01996 0.0
C1923 C 0.47531 0.54337 0.06794 0.0
C1924 C 0.38837 0.62742 0.75019 0.0
C1925 C 0.3652 0.60056 0.74169 0.0
H1926 H 0.39704 0.67341 0.76928 0.0
C1927 C 0.3317 0.60086 0.74136 0.0
H1928 H 0.41435 0.62767 0.75079 0.0
C1929 C 0.32166 0.6272 0.75153 0.0
C1930 C 0.34504 0.65343 0.76237 0.0
H1931 H 0.31336 0.5804 0.73442 0.0
H1932 H 0.29577 0.62675 0.75191 0.0
C1933 C 0.37839 0.65361 0.76073 0.0
C1934 C 0.24534 0.67134 0.56234 0.0
C1935 C 0.24272 0.69882 0.5481 0.0
H1936 H 0.22133 0.6262 0.57105 0.0
C1937 C 0.21198 0.70266 0.53387 0.0
H1938 H 0.26872 0.6681 0.57413 0.0
C1939 C 0.18494 0.67847 0.53162 0.0
C1940 C 0.18792 0.65015 0.54414 0.0
H1941 H 0.20923 0.72375 0.52313 0.0
H1942 H 0.16176 0.68191 0.51958 0.0
C1943 C 0.21825 0.64728 0.56046 0.0
C1944 C 0.74414 0.93858 0.7822 0.0
C1945 C 0.72207 0.95505 0.79352 0.0
H1946 H 0.789 0.92258 0.79339 0.0
C1947 C 0.72271 0.9601 0.82646 0.0
H1948 H 0.74431 0.93468 0.75696 0.0
C1949 C 0.74857 0.95365 0.84735 0.0
C1950 C 0.77362 0.94187 0.83527 0.0
H1951 H 0.70604 0.97312 0.83563 0.0
H1952 H 0.75067 0.96064 0.87228 0.0
C1953 C 0.77011 0.93239 0.80296 0.0
C1954 C 0.73492 0.99916 0.57793 0.0
C1955 C 0.74814 0.99346 0.54928 0.0
H1956 H 0.69902 1.01785 0.60214 0.0
C1957 C 0.7305 1.00382 0.52228 0.0
H1958 H 0.74696 0.99294 0.59992 0.0
C1959 C 0.70217 1.018 0.52347 0.0
C1960 C 0.68933 1.02438 0.55201 0.0
H1961 H 0.73888 1.00112 0.49946 0.0
H1962 H 0.69065 1.02475 0.50148 0.0
C1963 C 0.70693 1.0142 0.57925 0.0
C1964 C 0.42206 0.44794 0.76782 0.0
C1965 C 0.40796 0.45339 0.73764 0.0
H1966 H 0.42409 0.41631 0.80368 0.0
C1967 C 0.3892 0.42907 0.71774 0.0
H1968 H 0.4378 0.46627 0.78295 0.0
C1969 C 0.38148 0.40016 0.7295 0.0
C1970 C 0.39282 0.39559 0.76103 0.0
H1971 H 0.37936 0.43276 0.69385 0.0
H1972 H 0.36537 0.38191 0.71458 0.0
C1973 C 0.4145 0.41929 0.7795 0.0
C1974 C 0.19336 0.59475 0.2367 0.0
C1975 C 0.16328 0.58815 0.24857 0.0
H1976 H 0.23218 0.62883 0.2256 0.0
C1977 C 0.14778 0.6121 0.25656 0.0
H1978 H 0.20527 0.57648 0.22949 0.0
C1979 C 0.16403 0.6425 0.25594 0.0
C1980 C 0.19554 0.64926 0.24628 0.0
H1981 H 0.12424 0.60734 0.26529 0.0
H1982 H 0.15259 0.66041 0.26475 0.0
C1983 C 0.20899 0.62488 0.23497 0.0
C1984 C 0.55473 0.70104 0.52663 0.0
C1985 C 0.556 0.69519 0.49422 0.0
H1986 H 0.56594 0.68713 0.5737 0.0
C1987 C 0.57398 0.67357 0.48479 0.0
H1988 H 0.54113 0.71775 0.53445 0.0
C1989 C 0.5897 0.65746 0.50732 0.0
C1990 C 0.58707 0.66213 0.53959 0.0
H1991 H 0.57577 0.66902 0.45995 0.0
H1992 H 0.60201 0.63984 0.49931 0.0
C1993 C 0.56948 0.68408 0.54909 0.0
C1994 C 0.78599 0.42555 0.72193 0.0
C1995 C 0.75583 0.42956 0.73086 0.0
H1996 H 0.83027 0.40948 0.73548 0.0
C1997 C 0.75186 0.42969 0.76328 0.0
H1998 H 0.79002 0.42569 0.69729 0.0
C1999 C 0.77494 0.42008 0.78518 0.0
C2000 C 0.80245 0.41114 0.7749 0.0
H2001 H 0.72902 0.43305 0.77106 0.0
H2002 H 0.76932 0.41618 0.809 0.0
C2003 C 0.80908 0.41625 0.74384 0.0
C2004 C 0.06298 0.3656 0.89558 0.0
C2005 C 1.04443 0.34614 0.91461 0.0
H2006 H 0.08108 0.41218 0.88581 0.0
C2007 C 1.02898 0.35894 0.93791 0.0
H2008 H 0.07508 0.35631 0.87742 0.0
C2009 C 1.03214 0.39031 0.94241 0.0
C2010 C 0.05086 0.40989 0.9238 0.0
H2011 H 1.01424 0.34471 0.95285 0.0
H2012 H 1.02032 0.39929 0.961 0.0
C2013 C 0.06645 0.39741 0.90039 0.0
C2014 C 0.05403 0.83773 0.19826 0.0
C2015 C 0.08481 0.85652 0.20718 0.0
H2016 H 1.00974 0.81474 0.21393 0.0
C2017 C 0.09534 0.86533 0.23944 0.0
H2018 H 1.04552 0.8303 0.17366 0.0
C2019 C 0.07536 0.85592 0.26227 0.0
C2020 C 1.04438 0.83785 0.25329 0.0
H2021 H 0.11922 0.87934 0.24724 0.0
H2022 H 0.08372 0.86357 0.28685 0.0
C2023 C 1.03378 0.82867 0.2212 0.0
C2024 C 0.58265 0.42561 0.08943 0.0
C2025 C 0.59342 0.41988 0.12162 0.0
H2026 H 0.57804 0.45667 0.05155 0.0
C2027 C 0.60902 0.44805 0.13935 0.0
H2028 H 0.57037 0.40624 0.07358 0.0
C2029 C 0.61274 0.47842 0.12632 0.0
C2030 C 0.6023 0.48387 0.09389 0.0
H2031 H 0.61807 0.44693 0.16406 0.0
H2032 H 0.62433 0.49801 0.14219 0.0
C2033 C 0.58724 0.45565 0.07624 0.0
C2034 C 1.01302 0.31566 0.36176 0.0
C2035 C 1.02544 0.33349 0.39052 0.0
H2036 H 0.9734 0.30208 0.32315 0.0
C2037 C 1.00412 0.3516 0.40162 0.0
H2038 H 1.02775 0.30082 0.35228 0.0
C2039 C 0.97312 0.35318 0.38414 0.0
C2040 C 0.96073 0.33551 0.35532 0.0
H2041 H 1.01179 0.36533 0.42372 0.0
H2042 H 0.95845 0.36806 0.39367 0.0
C2043 C 0.9814 0.31632 0.34489 0.0
C2044 C 0.07647 0.72856 0.59542 0.0
C2045 C 0.08854 0.73766 0.628 0.0
H2046 H 0.06761 0.69447 0.55547 0.0
C2047 C 0.10169 0.71407 0.64387 0.0
H2048 H 0.06614 0.74474 0.58111 0.0
C2049 C 0.10294 0.6845 0.6286 0.0
C2050 C 0.09077 0.67535 0.59604 0.0
H2051 H 0.11173 0.71856 0.66858 0.0
H2052 H 0.11385 0.66857 0.64279 0.0
C2053 C 0.07735 0.69884 0.58026 0.0
C2054 C 0.71359 0.86278 0.86594 0.0
C2055 C 0.69854 0.84015 0.88537 0.0
H2056 H 0.75105 0.87873 0.83597 0.0
C2057 C 0.71468 0.81451 0.88703 0.0
H2058 H 0.70309 0.88299 0.86248 0.0
C2059 C 0.74298 0.81194 0.87072 0.0
C2060 C 0.75815 0.83496 0.85173 0.0
H2061 H 0.70499 0.79569 0.90051 0.0
H2062 H 0.75329 0.79154 0.87338 0.0
C2063 C 0.74202 0.86041 0.85023 0.0
C2064 C 0.52283 0.58527 0.69541 0.0
C2065 C 0.48954 0.57814 0.68266 0.0
H2066 H 0.57238 0.59628 0.685 0.0
C2067 C 0.48018 0.5835 0.65114 0.0
H2068 H 0.53046 0.58158 0.7199 0.0
C2069 C 0.50394 0.59281 0.6317 0.0
C2070 C 0.53732 0.59604 0.64334 0.0
H2071 H 0.45461 0.57889 0.64109 0.0
H2072 H 0.49621 0.59471 0.60679 0.0
C2073 C 0.54678 0.59404 0.67568 0.0
C2074 C 0.79044 0.27499 0.9262 0.0
C2075 C 0.80956 0.28608 0.95541 0.0
H2076 H 0.78082 0.27936 0.87619 0.0
C2077 C 0.83277 0.31332 0.95569 0.0
H2078 H 0.77236 0.25407 0.92471 0.0
C2079 C 0.83795 0.32781 0.92732 0.0
C2080 C 0.81984 0.31572 0.89786 0.0
H2081 H 0.8483 0.32242 0.97742 0.0
H2082 H 0.85713 0.3479 0.92837 0.0
C2083 C 0.79533 0.28957 0.89808 0.0
C2084 C 0.14032 0.487 0.13997 0.0
C2085 C 0.11964 0.48066 0.16334 0.0
H2086 H 0.14538 0.50425 0.09451 0.0
C2087 C 0.08603 0.48102 0.15589 0.0
H2088 H 0.16624 0.48682 0.14507 0.0
C2089 C 0.07454 0.49259 0.12772 0.0
C2090 C 0.09612 0.50238 0.106 0.0
H2091 H 0.06941 0.47624 0.17344 0.0
H2092 H 0.04966 0.49658 0.12434 0.0
C2093 C 0.12834 0.49709 0.11107 0.0
C2094 C 0.82799 0.91954 0.42982 0.0
C2095 C 0.83822 0.91216 0.46132 0.0
H2096 H 0.82294 0.90943 0.37887 0.0
C2097 C 0.85289 0.88569 0.46206 0.0
H2098 H 0.81696 0.93948 0.42671 0.0
C2099 C 0.85732 0.86848 0.4337 0.0
C2100 C 0.84685 0.87589 0.40223 0.0
H2101 H 0.86199 0.87855 0.48483 0.0
H2102 H 0.8691 0.84896 0.43661 0.0
C2103 C 0.83164 0.90195 0.40161 0.0
C2104 C 0.43822 0.55272 0.84328 0.0
C2105 C 0.42079 0.5243 0.82991 0.0
H2106 H 0.47825 0.57671 0.87548 0.0
C2107 C 0.4263 0.49765 0.8442 0.0
H2108 H 0.43459 0.57356 0.83237 0.0
C2109 C 0.45167 0.49933 0.86925 0.0
C2110 C 0.47172 0.52768 0.88024 0.0
H2111 H 0.41327 0.47543 0.8341 0.0
H2112 H 0.4567 0.47833 0.87876 0.0
C2113 C 0.46349 0.55443 0.868 0.0
C2114 C 0.8578 0.31825 0.15501 0.0
C2115 C 0.84679 0.28689 0.14572 0.0
H2116 H 0.87255 0.35321 0.19321 0.0
C2117 C 0.84385 0.26659 0.1702 0.0
H2118 H 0.86045 0.33478 0.13717 0.0
C2119 C 0.85089 0.27719 0.20251 0.0
C2120 C 0.8613 0.3086 0.2119 0.0
H2121 H 0.83552 0.24232 0.16442 0.0
H2122 H 0.84756 0.2606 0.22021 0.0
C2123 C 0.86493 0.32888 0.1874 0.0
C2124 C 0.05803 0.50458 0.31597 0.0
C2125 C 0.0886 0.49962 0.32977 0.0
H2126 H 1.01294 0.51736 0.32478 0.0
C2127 C 0.09339 0.49437 0.36191 0.0
H2128 H 0.05374 0.50821 0.29097 0.0
C2129 C 0.06983 0.49882 0.38101 0.0
C2130 C 1.04182 0.50967 0.36827 0.0
H2131 H 0.11657 0.48976 0.37278 0.0
H2132 H 0.076 0.49798 0.40629 0.0
C2133 C 1.03464 0.5097 0.33525 0.0
C2134 C 0.85182 0.92473 0.68655 0.0
C2135 C 0.83774 0.90925 0.65663 0.0
H2136 H 0.86422 0.92338 0.73761 0.0
C2137 C 0.8241 0.87777 0.65914 0.0
H2138 H 0.86289 0.9487 0.68714 0.0
C2139 C 0.82449 0.86301 0.68877 0.0
C2140 C 0.83891 0.87827 0.71865 0.0
H2141 H 0.81292 0.86404 0.63773 0.0
H2142 H 0.81366 0.83897 0.68803 0.0
C2143 C 0.85258 0.90983 0.71623 0.0
C2144 C 0.79726 0.46654 0.61376 0.0
C2145 C 0.79436 0.459 0.58102 0.0
H2146 H 0.78173 0.49256 0.65075 0.0
C2147 C 0.76947 0.46833 0.56095 0.0
H2148 H 0.81682 0.46034 0.62967 0.0
C2149 C 0.74935 0.48654 0.57299 0.0
C2150 C 0.75425 0.49649 0.60527 0.0
H2151 H 0.76723 0.46347 0.53557 0.0
H2152 H 0.73156 0.49472 0.55661 0.0
C2153 C 0.77765 0.48547 0.62575 0.0
C2154 C 0.26674 0.12464 0.54852 0.0
C2155 C 0.27352 0.15573 0.54073 0.0
H2156 H 0.23089 0.08417 0.55534 0.0
C2157 C 0.24525 0.1692 0.53582 0.0
H2158 H 0.28703 0.11334 0.55499 0.0
C2159 C 0.21272 0.15276 0.5378 0.0
C2160 C 0.20579 0.12139 0.54429 0.0
H2161 H 0.24828 0.19305 0.53075 0.0
H2162 H 0.19262 0.16491 0.53412 0.0
C2163 C 0.23397 0.10778 0.54937 0.0
C2164 C 0.27362 1.02709 0.88047 0.0
C2165 C 0.29272 0.04806 0.904 0.0
H2166 H 0.273 0.99421 0.84286 0.0
C2167 C 0.3261 0.04708 0.91159 0.0
H2168 H 0.24782 1.02706 0.87392 0.0
C2169 C 0.34062 1.02748 0.89395 0.0
C2170 C 0.32207 1.00878 0.86826 0.0
H2171 H 0.34144 0.06274 0.92982 0.0
H2172 H 0.36656 0.02779 0.89976 0.0
C2173 C 0.28819 1.00807 0.86251 0.0
C2174 C 0.46056 1.00975 0.08275 0.0
C2175 C 0.45696 0.98223 0.06412 0.0
H2176 H 0.4897 0.05441 0.09635 0.0
C2177 C 0.48244 0.97749 0.04713 0.0
H2178 H 0.44171 1.0135 0.09695 0.0
C2179 C 0.5101 1.00071 0.04725 0.0
C2180 C 0.51259 0.02896 0.06428 0.0
H2181 H 0.48049 0.95631 0.03302 0.0
H2182 H 0.52925 0.99687 0.03346 0.0
C2183 C 0.4879 0.03313 0.08246 0.0
C2184 C 0.97136 0.7495 0.86223 0.0
C2185 C 0.99874 0.74075 0.85115 0.0
H2186 H 0.92065 0.75137 0.85152 0.0
C2187 C 0.99835 0.73548 0.81825 0.0
H2188 H 0.97108 0.75415 0.88734 0.0
C2189 C 0.9691 0.73277 0.79787 0.0
C2190 C 0.94024 0.73613 0.81006 0.0
H2191 H 1.01915 0.72901 0.80877 0.0
H2192 H 0.96852 0.7253 0.77326 0.0
C2193 C 0.94223 0.747 0.84184 0.0
C2194 C 0.98705 0.66564 0.07311 0.0
C2195 C 0.95808 0.65448 0.05114 0.0
H2196 H 1.03685 0.66188 0.09287 0.0
C2197 C 0.96131 0.62785 0.03252 0.0
H2198 H 0.98747 0.6856 0.08858 0.0
C2199 C 0.98998 0.61375 0.03531 0.0
C2200 C 1.01903 0.62482 0.05676 0.0
H2201 H 0.94089 0.61707 1.01525 0.0
H2202 H 0.98896 0.5933 1.02046 0.0
C2203 C 1.01619 0.65151 0.07568 0.0
C2204 C 0.26609 0.21719 0.87519 0.0
C2205 C 0.2779 0.18992 0.8736 0.0
H2206 H 0.27378 0.26439 0.86542 0.0
C2207 C 0.307 0.1891 0.86071 0.0
H2208 H 0.24329 0.21797 0.88454 0.0
C2209 C 0.32453 0.21541 0.84996 0.0
C2210 C 0.31274 0.24279 0.85124 0.0
H2211 H 0.31582 0.16789 0.8583 0.0
H2212 H 0.34674 0.21403 0.83979 0.0
C2213 C 0.28353 0.24358 0.86425 0.0
C2214 C 0.53214 0.07335 0.38701 0.0
C2215 C 0.51714 0.09647 0.37433 0.0
H2216 H 0.52754 1.02554 0.39316 0.0
C2217 C 0.48618 0.08877 0.35618 0.0
H2218 H 0.55646 0.0788 0.40024 0.0
C2219 C 0.46973 0.05838 0.35196 0.0
C2220 C 0.48416 0.03537 0.36577 0.0
H2221 H 0.4748 0.10625 0.34512 0.0
H2222 H 0.44561 0.05292 0.33835 0.0
C2223 C 0.51558 0.04303 0.38308 0.0
C2224 C 0.62567 0.46771 0.6398 0.0
C2225 C 0.62822 0.44433 0.6179 0.0
H2226 H 0.61005 0.50962 0.64787 0.0
C2227 C 0.61517 0.44523 0.58599 0.0
H2228 H 0.63471 0.46723 0.66465 0.0
C2229 C 0.60125 0.4701 0.57599 0.0
C2230 C 0.59958 0.49392 0.59798 0.0
H2231 H 0.61654 0.42716 0.56871 0.0
H2232 H 0.59288 0.47116 0.55109 0.0
C2233 C 0.6111 0.49186 0.6301 0.0
C2234 C 0.44935 0.78369 0.39032 0.0
C2235 C 0.44946 0.75275 0.38343 0.0
H2236 H 0.42913 0.82265 0.37738 0.0
C2237 C 0.4253 0.73584 0.36039 0.0
H2238 H 0.4673 0.79699 0.40849 0.0
C2239 C 0.40282 0.75052 0.34279 0.0
C2240 C 0.40501 0.78225 0.34769 0.0
H2241 H 0.42464 0.71175 0.35522 0.0
H2242 H 0.38514 0.73753 0.32422 0.0
C2243 C 0.42761 0.79837 0.37243 0.0
C2244 C 0.19288 0.7972 0.15353 0.0
C2245 C 0.17599 0.81157 0.1742 0.0
H2246 H 0.20363 0.75477 0.13661 0.0
C2247 C 0.15914 0.7945 0.19608 0.0
H2248 H 0.2069 0.81028 0.13723 0.0
C2249 C 0.15732 0.76302 0.19591 0.0
C2250 C 0.17308 0.74823 0.17439 0.0
H2251 H 0.14674 0.80549 0.21286 0.0
H2252 H 0.14347 0.7502 0.21249 0.0
C2253 C 0.19143 0.76566 0.1536 0.0
C2254 C 0.13008 0.23795 0.87815 0.0
C2255 C 0.11981 0.25726 0.90009 0.0
H2256 H 0.16232 0.23438 0.84353 0.0
C2257 C 0.13864 0.28653 0.90858 0.0
H2258 H 0.1159 0.21524 0.87136 0.0
C2259 C 0.16476 0.29776 0.89211 0.0
C2260 C 0.17231 0.27969 0.86726 0.0
H2261 H 0.13091 0.30193 0.92518 0.0
H2262 H 0.17702 0.32139 0.89689 0.0
C2263 C 0.15622 0.24907 0.86189 0.0
C2264 C 0.6065 0.73007 1.01054 0.0
C2265 C 0.60274 0.7347 0.97725 0.0
H2266 H 0.60767 0.69977 0.04946 0.0
C2267 C 0.5969 0.70597 0.9588 0.0
H2268 H 0.61096 0.75003 1.02694 0.0
C2269 C 0.59537 0.67601 0.97222 0.0
C2270 C 0.59886 0.67144 1.00558 0.0
H2271 H 0.59365 0.70646 0.93327 0.0
H2272 H 0.59118 0.65603 0.95587 0.0
C2273 C 0.60443 0.70016 1.02392 0.0
C2274 C 0.21733 0.86062 0.71129 0.0
C2275 C 0.18716 0.84627 0.72088 0.0
H2276 H 0.27027 0.87318 0.72084 0.0
C2277 C 0.19073 0.83184 0.74997 0.0
H2278 H 0.21684 0.87169 0.68918 0.0
C2279 C 0.22214 0.83209 0.76826 0.0
C2280 C 0.2523 0.84706 0.75895 0.0
H2281 H 0.16898 0.81974 0.75857 0.0
H2282 H 0.22266 0.82041 0.79 0.0
C2283 C 0.24859 0.86146 0.72986 0.0
C2284 C 0.12069 0.4366 0.50198 0.0
C2285 C 0.12157 0.43173 0.46861 0.0
H2286 H 0.11843 0.46735 0.54283 0.0
C2287 C 0.12073 0.45946 0.45274 0.0
H2288 H 0.12092 0.41731 0.51648 0.0
C2289 C 0.11879 0.48868 0.46807 0.0
C2290 C 0.11791 0.49373 0.50122 0.0
H2291 H 0.12117 0.45876 0.42739 0.0
H2292 H 0.11805 0.50778 0.45338 0.0
C2293 C 0.11917 0.46624 0.51753 0.0
C2294 C 0.46649 0.31253 0.20092 0.0
C2295 C 0.50008 0.32577 0.21142 0.0
H2296 H 0.41591 0.30039 0.21017 0.0
C2297 C 0.50497 0.33773 0.24378 0.0
H2298 H 0.46001 0.3027 0.17683 0.0
C2299 C 0.47853 0.33703 0.2634 0.0
C2300 C 0.44497 0.32347 0.25275 0.0
H2301 H 0.52953 0.34834 0.25413 0.0
H2302 H 0.48471 0.34716 0.28739 0.0
C2303 C 0.4404 0.31109 0.22066 0.0
C2304 C 0.67623 0.61219 0.4674 0.0
C2305 C 0.70891 0.61054 0.47825 0.0
H2306 H 0.62607 0.60049 0.47404 0.0
C2307 C 0.71575 0.59601 0.50613 0.0
H2308 H 0.66999 0.62325 0.44599 0.0
C2309 C 0.69013 0.58299 0.52253 0.0
C2310 C 0.65745 0.58433 0.51114 0.0
H2311 H 0.74061 0.59405 0.51477 0.0
H2312 H 0.69595 0.57209 0.54415 0.0
C2313 C 0.65087 0.59896 0.4834 0.0
C2314 C 0.38873 0.91249 0.18399 0.0
C2315 C 0.37642 0.89368 0.15607 0.0
H2316 H 0.39653 0.91663 0.23494 0.0
C2317 C 0.36302 0.86281 0.15976 0.0
H2318 H 0.39931 0.93635 0.18246 0.0
C2319 C 0.36136 0.85138 0.19014 0.0
C2320 C 0.37318 0.87034 0.2181 0.0
H2321 H 0.35325 0.84745 0.13908 0.0
H2322 H 0.35016 0.82768 0.19165 0.0
C2323 C 0.38726 0.90105 0.21433 0.0
C2324 C 0.09215 0.69449 0.99466 0.0
C2325 C 0.10142 0.69253 0.96411 0.0
H2326 H 0.09451 0.67642 0.04038 0.0
C2327 C 0.12851 0.67894 0.95978 0.0
H2328 H 0.07179 0.70526 0.99894 0.0
C2329 C 0.14073 0.66159 0.98315 0.0
C2330 C 0.12714 0.65899 1.01158 0.0
H2331 H 0.13689 0.67753 0.93679 0.0
H2332 H 0.158 0.64747 0.97758 0.0
C2333 C 0.10519 0.6779 1.01844 0.0
C2334 C 0.34393 0.23186 0.66777 0.0
C2335 C 0.37002 0.24193 0.64965 0.0
H2336 H 0.31976 0.23768 0.70955 0.0
C2337 C 0.39297 0.26779 0.66457 0.0
H2338 H 0.32512 0.21253 0.65825 0.0
C2339 C 0.39044 0.28187 0.69526 0.0
C2340 C 0.36396 0.27221 0.71305 0.0
H2341 H 0.41356 0.27719 0.65257 0.0
H2342 H 0.40933 0.30112 0.70485 0.0
C2343 C 0.34069 0.24672 0.69785 0.0
C2344 C 0.67547 0.56474 0.30589 0.0
C2345 C 0.70822 0.58051 0.31035 0.0
H2346 H 0.62999 0.55532 0.27494 0.0
C2347 C 0.72229 0.59302 0.28445 0.0
H2348 H 0.66418 0.55455 0.32546 0.0
C2349 C 0.70265 0.5936 0.25582 0.0
C2350 C 0.669 0.58128 0.25275 0.0
H2351 H 0.74747 0.60514 0.28717 0.0
H2352 H 0.71314 0.60581 0.23689 0.0
C2353 C 0.65588 0.56514 0.27712 0.0
C2354 C 0.34528 0.92359 0.93849 0.0
C2355 C 0.35217 0.90718 0.9655 0.0
H2356 H 0.3371 0.92421 0.88781 0.0
C2357 C 0.3541 0.87624 0.9598 0.0
H2358 H 0.34343 0.94743 0.94116 0.0
C2359 C 0.35012 0.8627 0.92842 0.0
C2360 C 0.3442 0.87959 0.90158 0.0
H2361 H 0.3595 0.86266 0.97949 0.0
H2362 H 0.35258 0.83908 0.92521 0.0
C2363 C 0.34153 0.91021 0.9074 0.0
C2364 C 0.12038 0.67569 0.78084 0.0
C2365 C 0.08702 0.67194 0.78447 0.0
H2366 H 0.15615 0.66274 0.75376 0.0
C2367 C 0.06369 0.65415 0.7615 0.0
H2368 H 0.1389 0.68932 0.79828 0.0
C2369 C 0.07349 0.63798 0.73712 0.0
C2370 C 0.10692 0.64007 0.73424 0.0
H2371 H 1.03777 0.65075 0.76361 0.0
H2372 H 0.05464 0.62257 0.72157 0.0
C2373 C 0.13027 0.65998 0.75574 0.0
C2374 C 0.37677 0.26879 0.45222 0.0
C2375 C 0.36839 0.23609 0.45157 0.0
H2376 H 0.38331 0.31069 0.42682 0.0
C2377 C 0.36012 0.2226 0.41977 0.0
H2378 H 0.38333 0.28144 0.47502 0.0
C2379 C 0.35984 0.2397 0.39157 0.0
C2380 C 0.36824 0.27224 0.39199 0.0
H2381 H 0.35322 0.19797 0.41632 0.0
H2382 H 0.35271 0.22689 0.36888 0.0
C2383 C 0.37681 0.28603 0.42373 0.0
C2384 C 0.4205 0.71034 0.50431 0.0
C2385 C 0.40946 0.71605 0.53344 0.0
H2386 H 0.44475 0.68244 0.4773 0.0
C2387 C 0.42173 0.70231 0.56009 0.0
H2388 H 0.411 0.72033 0.48327 0.0
C2389 C 0.44117 0.68023 0.55674 0.0
C2390 C 0.44854 0.67144 0.52664 0.0
H2391 H 0.41322 0.70591 0.58272 0.0
H2392 H 0.44861 0.66869 0.57742 0.0
C2393 C 0.43964 0.6882 0.50087 0.0
C2394 C 0.94126 0.02803 0.57288 0.0
C2395 C 0.92998 0.9988 0.55653 0.0
H2396 H 0.98031 0.06776 0.58491 0.0
C2397 C 0.95332 0.98841 0.53935 0.0
H2398 H 0.92514 0.03721 0.58713 0.0
C2399 C 0.98501 1.00659 0.53721 0.0
C2400 C 0.9963 0.03592 0.55333 0.0
H2401 H 0.9468 0.96609 0.5268 0.0
H2402 H 1.00114 0.99718 0.52316 0.0
C2403 C 0.97346 0.04582 0.57164 0.0
C2404 C 0.86486 0.13054 0.23556 0.0
C2405 C 0.84726 0.10079 0.23703 0.0
H2406 H 0.86572 0.17829 0.24456 0.0
C2407 C 0.81433 0.09655 0.2428 0.0
H2408 H 0.89009 0.13447 0.23086 0.0
C2409 C 0.80056 0.12141 0.25069 0.0
C2410 C 0.81925 0.15092 0.25231 0.0
H2411 H 0.79974 0.07387 0.24324 0.0
H2412 H 0.77618 0.1175 0.25768 0.0
C2413 C 0.85084 0.15554 0.24313 0.0
C2414 C 0.70676 0.20355 0.03348 0.0
C2415 C 0.73795 0.20069 0.04744 0.0
H2416 H 0.65695 0.18128 1.01945 0.0
C2417 C 0.74187 0.17329 0.06124 0.0
H2418 H 0.70303 0.22454 1.02304 0.0
C2419 C 0.71562 0.14845 0.05931 0.0
C2420 C 0.68485 0.15038 0.04329 0.0
H2421 H 0.76564 0.17075 0.07273 0.0
H2422 H 0.71968 0.12753 0.0697 0.0
C2423 C 0.68055 0.17855 0.03113 0.0
C2424 C 0.23342 0.44983 0.28103 0.0
C2425 C 0.21163 0.45612 0.30175 0.0
H2426 H 0.28089 0.44022 0.27669 0.0
C2427 C 0.21902 0.45243 0.33424 0.0
H2428 H 0.22847 0.45293 0.25596 0.0
C2429 C 0.24951 0.44659 0.34636 0.0
C2430 C 0.27299 0.44382 0.32609 0.0
H2431 H 0.20263 0.4575 0.35071 0.0
H2432 H 0.25539 0.44645 0.37178 0.0
C2433 C 0.26387 0.44363 0.29312 0.0
C2434 C 0.23247 0.5039 1.01916 0.0
C2435 C 0.25176 0.49524 0.04609 0.0
H2436 H 0.19214 0.5246 0.99902 0.0
C2437 C 0.24152 0.50436 0.07532 0.0
H2438 H 0.2387 0.49874 0.99586 0.0
C2439 C 0.21468 0.52082 0.07721 0.0
C2440 C 0.19526 0.52914 0.05007 0.0
H2441 H 0.25513 0.49976 0.09722 0.0
H2442 H 0.20915 0.52707 0.10049 0.0
C2443 C 0.20518 0.51945 1.021 0.0
C2444 C 0.88846 0.93482 0.22325 0.0
C2445 C 0.90586 0.95979 0.24314 0.0
H2446 H 0.86733 0.88697 0.21996 0.0
C2447 C 0.92049 0.95487 0.27333 0.0
H2448 H 0.87824 0.93808 0.19935 0.0
C2449 C 0.91452 0.926 0.28504 0.0
C2450 C 0.89406 0.90152 0.26653 0.0
H2451 H 0.93525 0.97373 0.28848 0.0
H2452 H 0.92429 0.92336 0.30925 0.0
C2453 C 0.88248 0.90573 0.23495 0.0
C2454 C 0.68337 0.10762 0.7363 0.0
C2455 C 0.69937 0.09008 0.71767 0.0
H2456 H 0.68047 0.15224 0.75429 0.0
C2457 C 0.72231 0.1045 0.6992 0.0
H2458 H 0.66467 0.09673 0.74983 0.0
C2459 C 0.7313 0.13633 0.70152 0.0
C2460 C 0.71736 0.15406 0.72235 0.0
H2461 H 0.73413 0.09115 0.68399 0.0
H2462 H 0.75065 0.14676 0.68852 0.0
C2463 C 0.69253 0.13933 0.73892 0.0
loop_
_geom_bond_atom_site_label_1
_geom_bond_atom_site_label_2
_geom_bond_distance
_geom_bond_site_symmetry_2
_ccdc_geom_bond_type
Mn0 O5 2.095 . S
Mn0 O15 2.162 . S
Mn0 O16 2.297 . S
Mn0 O24 2.382 . S
Mn0 O25 2.209 . S
Mn0 O26 2.094 . S
Mn1 O6 2.121 . S
Mn1 N8 2.257 . S
Mn1 N17 2.282 . S
Mn1 O25 2.215 . S
Mn1 O27 2.117 . S
C2 O24 1.233 . S
C2 O25 1.283 . S
C3 O15 1.281 . S
C3 O16 1.236 . S
C4 O26 1.240 . S
C4 O27 1.264 . S
O5 Mn0 2.095 . S
O5 C14 1.250 . S
O6 Mn1 2.121 . S
O6 C14 1.258 . S
C7 N8 1.326 . S
C7 C11 1.460 . S
C7 H13 0.929 . S
N8 Mn1 2.257 . S
N8 C7 1.326 . S
N8 C12 1.362 . S
C9 C10 1.258 1_655 S
C9 C12 1.431 1_655 S
C9 C29 1.449 . S
C10 C9 1.258 1_455 S
C10 C11 1.477 . S
C10 H30 0.931 1_455 S
C11 C7 1.460 . S
C11 C10 1.477 . S
C11 H31 0.930 . S
C12 N8 1.362 . S
C12 C9 1.431 1_455 S
C12 C22 1.476 1_455 S
H13 C7 0.929 . S
C14 O5 1.250 . S
C14 O6 1.258 . S
O15 Mn0 2.162 . S
O15 C3 1.281 . S
O16 Mn0 2.297 . S
O16 C3 1.236 . S
N17 Mn1 2.282 . S
N17 C18 1.328 1_455 S
N17 C22 1.318 1_455 S
C18 N17 1.328 1_655 S
C18 C19 1.457 . S
C18 H23 0.929 1_655 S
C19 C18 1.457 . S
C19 C20 1.291 . S
C19 H32 0.931 . S
C20 C19 1.291 . S
C20 C21 1.373 . S
C20 H33 0.929 . S
C21 C20 1.373 . S
C21 C22 1.396 . S
C21 C28 1.403 . S
C22 C12 1.476 1_655 S
C22 N17 1.318 1_655 S
C22 C21 1.396 . S
H23 C18 0.929 1_455 S
O24 Mn0 2.382 . S
O24 C2 1.233 . S
O25 Mn0 2.209 . S
O25 Mn1 2.215 . S
O25 C2 1.283 . S
O26 Mn0 2.094 . S
O26 C4 1.240 . S
O27 Mn1 2.117 . S
O27 C4 1.264 . S
C28 C21 1.403 . S
C28 C29 1.399 . S
C28 H34 0.929 . S
C29 C9 1.449 . S
C29 C28 1.399 . S
C29 H35 0.930 . S
H30 C10 0.931 1_655 S
H31 C11 0.930 . S
H32 C19 0.931 . S
H33 C20 0.929 . S
H34 C28 0.929 . S
H35 C29 0.930 . S
Mn36 O41 2.095 . S
Mn36 O51 2.162 . S
Mn36 O52 2.297 . S
Mn36 O60 2.385 . S
Mn36 O61 2.209 . S
Mn36 O62 2.094 . S
Mn37 O42 2.121 . S
Mn37 N44 2.257 . S
Mn37 N53 2.282 . S
Mn37 O61 2.215 . S
Mn37 O63 2.117 . S
C38 O60 1.234 . S
C38 O61 1.283 . S
C39 O51 1.281 . S
C39 O52 1.236 . S
C40 O62 1.240 . S
C40 O63 1.264 . S
O41 Mn36 2.095 . S
O41 C50 1.250 . S
O42 Mn37 2.121 . S
O42 C50 1.258 . S
C43 N44 1.326 . S
C43 C47 1.460 . S
C43 H49 0.929 . S
N44 Mn37 2.257 . S
N44 C43 1.326 . S
N44 C48 1.362 . S
C45 C46 1.258 . S
C45 C48 1.431 . S
C45 C65 1.449 . S
C46 C45 1.258 . S
C46 C47 1.477 . S
C46 H66 0.931 . S
C47 C43 1.460 . S
C47 C46 1.477 . S
C47 H67 0.930 . S
C48 N44 1.362 . S
C48 C45 1.431 . S
C48 C58 1.476 . S
H49 C43 0.929 . S
C50 O41 1.250 . S
C50 O42 1.258 . S
O51 Mn36 2.162 . S
O51 C39 1.281 . S
O52 Mn36 2.297 . S
O52 C39 1.236 . S
N53 Mn37 2.282 . S
N53 C54 1.328 . S
N53 C58 1.318 . S
C54 N53 1.328 . S
C54 C55 1.457 . S
C54 H59 0.929 . S
C55 C54 1.457 . S
C55 C56 1.291 . S
C55 H68 0.931 . S
C56 C55 1.291 . S
C56 C57 1.373 . S
C56 H69 0.929 . S
C57 C56 1.373 . S
C57 C58 1.396 . S
C57 C64 1.403 . S
C58 C48 1.476 . S
C58 N53 1.318 . S
C58 C57 1.396 . S
H59 C54 0.929 . S
O60 Mn36 2.385 . S
O60 C38 1.234 . S
O61 Mn36 2.209 . S
O61 Mn37 2.215 . S
O61 C38 1.283 . S
O62 Mn36 2.094 . S
O62 C40 1.240 . S
O63 Mn37 2.117 . S
O63 C40 1.264 . S
C64 C57 1.403 . S
C64 C65 1.399 . S
C64 H70 0.929 . S
C65 C45 1.449 . S
C65 C64 1.399 . S
C65 H71 0.930 . S
H66 C46 0.931 . S
H67 C47 0.930 . S
H68 C55 0.931 . S
H69 C56 0.929 . S
H70 C64 0.929 . S
H71 C65 0.930 . S
Mn72 O77 2.095 . S
Mn72 O87 2.162 . S
Mn72 O88 2.297 . S
Mn72 O96 2.385 . S
Mn72 O97 2.209 . S
Mn72 O98 2.094 . S
Mn73 O78 2.121 . S
Mn73 N80 2.257 . S
Mn73 N89 2.282 . S
Mn73 O97 2.215 . S
Mn73 O99 2.117 . S
C74 O96 1.234 . S
C74 O97 1.283 . S
C75 O87 1.281 . S
C75 O88 1.236 . S
C76 O98 1.240 . S
C76 O99 1.264 . S
O77 Mn72 2.095 . S
O77 C86 1.250 . S
O78 Mn73 2.121 . S
O78 C86 1.258 . S
C79 N80 1.326 . S
C79 C83 1.460 . S
C79 H85 0.929 . S
N80 Mn73 2.257 . S
N80 C79 1.326 . S
N80 C84 1.362 . S
C81 C82 1.258 . S
C81 C84 1.431 . S
C81 C101 1.449 . S
C82 C81 1.258 . S
C82 C83 1.477 . S
C82 H102 0.931 . S
C83 C79 1.460 . S
C83 C82 1.477 . S
C83 H103 0.930 . S
C84 N80 1.362 . S
C84 C81 1.431 . S
C84 C94 1.476 . S
H85 C79 0.929 . S
C86 O77 1.250 . S
C86 O78 1.258 . S
O87 Mn72 2.162 . S
O87 C75 1.281 . S
O88 Mn72 2.297 . S
O88 C75 1.236 . S
N89 Mn73 2.282 . S
N89 C90 1.328 . S
N89 C94 1.318 . S
C90 N89 1.328 . S
C90 C91 1.457 . S
C90 H95 0.929 . S
C91 C90 1.457 . S
C91 C92 1.291 . S
C91 H104 0.931 . S
C92 C91 1.291 . S
C92 C93 1.373 . S
C92 H105 0.929 . S
C93 C92 1.373 . S
C93 C94 1.396 . S
C93 C100 1.403 . S
C94 C84 1.476 . S
C94 N89 1.318 . S
C94 C93 1.396 . S
H95 C90 0.929 . S
O96 Mn72 2.385 . S
O96 C74 1.234 . S
O97 Mn72 2.209 . S
O97 Mn73 2.215 . S
O97 C74 1.283 . S
O98 Mn72 2.094 . S
O98 C76 1.240 . S
O99 Mn73 2.117 . S
O99 C76 1.264 . S
C100 C93 1.403 . S
C100 C101 1.399 . S
C100 H106 0.929 . S
C101 C81 1.449 . S
C101 C100 1.399 . S
C101 H107 0.930 . S
H102 C82 0.931 . S
H103 C83 0.930 . S
H104 C91 0.931 . S
H105 C92 0.929 . S
H106 C100 0.929 . S
H107 C101 0.930 . S
Mn108 O113 2.095 . S
Mn108 O123 2.162 . S
Mn108 O124 2.297 . S
Mn108 O132 2.385 . S
Mn108 O133 2.209 . S
Mn108 O134 2.094 . S
Mn109 O114 2.121 . S
Mn109 N116 2.257 . S
Mn109 N125 2.282 . S
Mn109 O133 2.215 . S
Mn109 O135 2.117 . S
C110 O132 1.234 . S
C110 O133 1.283 . S
C111 O123 1.281 . S
C111 O124 1.236 . S
C112 O134 1.240 . S
C112 O135 1.264 . S
O113 Mn108 2.095 . S
O113 C122 1.250 . S
O114 Mn109 2.121 . S
O114 C122 1.258 . S
C115 N116 1.326 . S
C115 C119 1.460 . S
C115 H121 0.929 . S
N116 Mn109 2.257 . S
N116 C115 1.326 . S
N116 C120 1.362 . S
C117 C118 1.258 . S
C117 C120 1.431 . S
C117 C137 1.449 . S
C118 C117 1.258 . S
C118 C119 1.477 . S
C118 H138 0.931 1_554 S
C119 C115 1.460 . S
C119 C118 1.477 . S
C119 H139 0.930 1_554 S
C120 N116 1.362 . S
C120 C117 1.431 . S
C120 C130 1.476 . S
H121 C115 0.929 . S
C122 O113 1.250 . S
C122 O114 1.258 . S
O123 Mn108 2.162 . S
O123 C111 1.281 . S
O124 Mn108 2.297 . S
O124 C111 1.236 . S
N125 Mn109 2.282 . S
N125 C126 1.328 . S
N125 C130 1.318 . S
C126 N125 1.328 . S
C126 C127 1.457 . S
C126 H131 0.929 . S
C127 C126 1.457 . S
C127 C128 1.291 . S
C127 H140 0.931 . S
C128 C127 1.291 . S
C128 C129 1.373 . S
C128 H141 0.929 . S
C129 C128 1.373 . S
C129 C130 1.396 . S
C129 C136 1.403 . S
C130 C120 1.476 . S
C130 N125 1.318 . S
C130 C129 1.396 . S
H131 C126 0.929 . S
O132 Mn108 2.385 . S
O132 C110 1.234 . S
O133 Mn108 2.209 . S
O133 Mn109 2.215 . S
O133 C110 1.283 . S
O134 Mn108 2.094 . S
O134 C112 1.240 . S
O135 Mn109 2.117 . S
O135 C112 1.264 . S
C136 C129 1.403 . S
C136 C137 1.399 . S
C136 H142 0.929 . S
C137 C117 1.449 . S
C137 C136 1.399 . S
C137 H143 0.930 1_554 S
H138 C118 0.931 1_556 S
H139 C119 0.930 1_556 S
H140 C127 0.931 . S
H141 C128 0.929 . S
H142 C136 0.929 . S
H143 C137 0.930 1_556 S
Mn144 O149 2.095 . S
Mn144 O159 2.162 . S
Mn144 O160 2.297 . S
Mn144 O168 2.385 . S
Mn144 O169 2.209 . S
Mn144 O170 2.094 . S
Mn145 O150 2.121 . S
Mn145 N152 2.257 . S
Mn145 N161 2.282 . S
Mn145 O169 2.215 . S
Mn145 O171 2.117 . S
C146 O168 1.234 . S
C146 O169 1.283 . S
C147 O159 1.281 . S
C147 O160 1.236 . S
C148 O170 1.240 . S
C148 O171 1.264 . S
O149 Mn144 2.095 . S
O149 C158 1.250 . S
O150 Mn145 2.121 . S
O150 C158 1.258 . S
C151 N152 1.326 . S
C151 C155 1.460 . S
C151 H157 0.929 . S
N152 Mn145 2.257 . S
N152 C151 1.326 . S
N152 C156 1.362 . S
C153 C154 1.258 . S
C153 C156 1.431 . S
C153 C173 1.449 . S
C154 C153 1.258 . S
C154 C155 1.477 . S
C154 H174 0.931 1_554 S
C155 C151 1.460 . S
C155 C154 1.477 . S
C155 H175 0.930 . S
C156 N152 1.362 . S
C156 C153 1.431 . S
C156 C166 1.476 . S
H157 C151 0.929 . S
C158 O149 1.250 . S
C158 O150 1.258 . S
O159 Mn144 2.162 . S
O159 C147 1.281 . S
O160 Mn144 2.297 . S
O160 C147 1.236 . S
N161 Mn145 2.282 . S
N161 C162 1.328 . S
N161 C166 1.318 . S
C162 N161 1.328 . S
C162 C163 1.457 . S
C162 H167 0.929 . S
C163 C162 1.457 . S
C163 C164 1.291 . S
C163 H176 0.931 . S
C164 C163 1.291 . S
C164 C165 1.373 . S
C164 H177 0.929 . S
C165 C164 1.373 . S
C165 C166 1.396 . S
C165 C172 1.403 . S
C166 C156 1.476 . S
C166 N161 1.318 . S
C166 C165 1.396 . S
H167 C162 0.929 . S
O168 Mn144 2.385 . S
O168 C146 1.234 . S
O169 Mn144 2.209 . S
O169 Mn145 2.215 . S
O169 C146 1.283 . S
O170 Mn144 2.094 . S
O170 C148 1.240 . S
O171 Mn145 2.117 . S
O171 C148 1.264 . S
C172 C165 1.403 . S
C172 C173 1.399 . S
C172 H178 0.929 . S
C173 C153 1.449 . S
C173 C172 1.399 . S
C173 H179 0.930 . S
H174 C154 0.931 1_556 S
H175 C155 0.930 . S
H176 C163 0.931 . S
H177 C164 0.929 . S
H178 C172 0.929 . S
H179 C173 0.930 . S
Mn180 O185 2.095 . S
Mn180 O195 2.162 . S
Mn180 O196 2.297 . S
Mn180 O204 2.385 . S
Mn180 O205 2.209 . S
Mn180 O206 2.094 . S
Mn181 O186 2.121 . S
Mn181 N188 2.257 . S
Mn181 N197 2.282 . S
Mn181 O205 2.215 . S
Mn181 O207 2.117 . S
C182 O204 1.234 . S
C182 O205 1.283 . S
C183 O195 1.281 . S
C183 O196 1.236 . S
C184 O206 1.240 . S
C184 O207 1.264 . S
O185 Mn180 2.095 . S
O185 C194 1.250 . S
O186 Mn181 2.121 . S
O186 C194 1.258 . S
C187 N188 1.326 . S
C187 C191 1.460 . S
C187 H193 0.929 . S
N188 Mn181 2.257 . S
N188 C187 1.326 . S
N188 C192 1.362 . S
C189 C190 1.258 . S
C189 C192 1.431 . S
C189 C209 1.449 . S
C190 C189 1.258 . S
C190 C191 1.477 . S
C190 H210 0.931 . S
C191 C187 1.460 . S
C191 C190 1.477 . S
C191 H211 0.930 . S
C192 N188 1.362 . S
C192 C189 1.431 . S
C192 C202 1.476 . S
H193 C187 0.929 . S
C194 O185 1.250 . S
C194 O186 1.258 . S
O195 Mn180 2.162 . S
O195 C183 1.281 . S
O196 Mn180 2.297 . S
O196 C183 1.236 . S
N197 Mn181 2.282 . S
N197 C198 1.328 . S
N197 C202 1.318 . S
C198 N197 1.328 . S
C198 C199 1.457 . S
C198 H203 0.929 . S
C199 C198 1.457 . S
C199 C200 1.291 . S
C199 H212 0.931 . S
C200 C199 1.291 . S
C200 C201 1.373 . S
C200 H213 0.929 . S
C201 C200 1.373 . S
C201 C202 1.396 . S
C201 C208 1.403 . S
C202 C192 1.476 . S
C202 N197 1.318 . S
C202 C201 1.396 . S
H203 C198 0.929 . S
O204 Mn180 2.385 . S
O204 C182 1.234 . S
O205 Mn180 2.209 . S
O205 Mn181 2.215 . S
O205 C182 1.283 . S
O206 Mn180 2.094 . S
O206 C184 1.240 . S
O207 Mn181 2.117 . S
O207 C184 1.264 . S
C208 C201 1.403 . S
C208 C209 1.399 . S
C208 H214 0.929 . S
C209 C189 1.449 . S
C209 C208 1.399 . S
C209 H215 0.930 . S
H210 C190 0.931 . S
H211 C191 0.930 . S
H212 C199 0.931 . S
H213 C200 0.929 . S
H214 C208 0.929 . S
H215 C209 0.930 . S
Mn216 O221 2.095 . S
Mn216 O231 2.162 . S
Mn216 O232 2.297 . S
Mn216 O240 2.385 . S
Mn216 O241 2.209 . S
Mn216 O242 2.094 . S
Mn217 O222 2.121 . S
Mn217 N224 2.257 . S
Mn217 N233 2.282 . S
Mn217 O241 2.215 . S
Mn217 O243 2.117 . S
C218 O240 1.234 . S
C218 O241 1.283 . S
C219 O231 1.281 . S
C219 O232 1.236 . S
C220 O242 1.240 . S
C220 O243 1.264 . S
O221 Mn216 2.095 . S
O221 C230 1.250 . S
O222 Mn217 2.121 . S
O222 C230 1.258 . S
C223 N224 1.326 . S
C223 C227 1.460 . S
C223 H229 0.929 . S
N224 Mn217 2.257 . S
N224 C223 1.326 . S
N224 C228 1.362 . S
C225 C226 1.258 . S
C225 C228 1.431 . S
C225 C245 1.449 . S
C226 C225 1.258 . S
C226 C227 1.477 . S
C226 H246 0.931 . S
C227 C223 1.460 . S
C227 C226 1.477 . S
C227 H247 0.930 . S
C228 N224 1.362 . S
C228 C225 1.431 . S
C228 C238 1.476 . S
H229 C223 0.929 . S
C230 O221 1.250 . S
C230 O222 1.258 . S
O231 Mn216 2.162 . S
O231 C219 1.281 . S
O232 Mn216 2.297 . S
O232 C219 1.236 . S
N233 Mn217 2.282 . S
N233 C234 1.328 . S
N233 C238 1.318 . S
C234 N233 1.328 . S
C234 C235 1.457 . S
C234 H239 0.929 . S
C235 C234 1.457 . S
C235 C236 1.291 . S
C235 H248 0.931 . S
C236 C235 1.291 . S
C236 C237 1.373 . S
C236 H249 0.929 . S
C237 C236 1.373 . S
C237 C238 1.396 . S
C237 C244 1.403 . S
C238 C228 1.476 . S
C238 N233 1.318 . S
C238 C237 1.396 . S
H239 C234 0.929 . S
O240 Mn216 2.385 . S
O240 C218 1.234 . S
O241 Mn216 2.209 . S
O241 Mn217 2.215 . S
O241 C218 1.283 . S
O242 Mn216 2.094 . S
O242 C220 1.240 . S
O243 Mn217 2.117 . S
O243 C220 1.264 . S
C244 C237 1.403 . S
C244 C245 1.399 . S
C244 H250 0.929 . S
C245 C225 1.449 . S
C245 C244 1.399 . S
C245 H251 0.930 . S
H246 C226 0.931 . S
H247 C227 0.930 . S
H248 C235 0.931 . S
H249 C236 0.929 . S
H250 C244 0.929 . S
H251 C245 0.930 . S
Mn252 O257 2.067 1_655 S
Mn252 O267 2.159 1_655 S
Mn252 O268 2.293 . S
Mn252 O276 2.415 . S
Mn252 O277 2.221 . S
Mn252 O278 2.099 1_655 S
Mn253 O258 2.121 1_655 S
Mn253 N260 2.257 . S
Mn253 N269 2.282 . S
Mn253 O277 2.215 . S
Mn253 O279 2.117 1_655 S
C254 O276 1.234 . S
C254 O277 1.283 . S
C255 O267 1.281 1_655 S
C255 O268 1.236 . S
C256 O278 1.240 . S
C256 O279 1.264 . S
O257 Mn252 2.067 1_455 S
O257 C266 1.250 . S
O258 Mn253 2.121 1_455 S
O258 C266 1.258 . S
C259 N260 1.326 . S
C259 C263 1.460 . S
C259 H265 0.929 1_655 S
N260 Mn253 2.257 . S
N260 C259 1.326 . S
N260 C264 1.362 . S
C261 C262 1.258 . S
C261 C264 1.431 . S
C261 C281 1.449 . S
C262 C261 1.258 . S
C262 C263 1.477 . S
C262 H282 0.931 . S
C263 C259 1.460 . S
C263 C262 1.477 . S
C263 H283 0.930 . S
C264 N260 1.362 . S
C264 C261 1.431 . S
C264 C274 1.476 . S
H265 C259 0.929 1_455 S
C266 O257 1.250 . S
C266 O258 1.258 . S
O267 Mn252 2.159 1_455 S
O267 C255 1.281 1_455 S
O268 Mn252 2.293 . S
O268 C255 1.236 . S
N269 Mn253 2.282 . S
N269 C270 1.328 . S
N269 C274 1.318 . S
C270 N269 1.328 . S
C270 C271 1.457 . S
C270 H275 0.929 . S
C271 C270 1.457 . S
C271 C272 1.291 . S
C271 H284 0.931 . S
C272 C271 1.291 . S
C272 C273 1.373 . S
C272 H285 0.929 . S
C273 C272 1.373 . S
C273 C274 1.396 . S
C273 C280 1.403 . S
C274 C264 1.476 . S
C274 N269 1.318 . S
C274 C273 1.396 . S
H275 C270 0.929 . S
O276 Mn252 2.415 . S
O276 C254 1.234 . S
O277 Mn252 2.221 . S
O277 Mn253 2.215 . S
O277 C254 1.283 . S
O278 Mn252 2.099 1_455 S
O278 C256 1.240 . S
O279 Mn253 2.117 1_455 S
O279 C256 1.264 . S
C280 C273 1.403 . S
C280 C281 1.399 . S
C280 H286 0.929 . S
C281 C261 1.449 . S
C281 C280 1.399 . S
C281 H287 0.930 . S
H282 C262 0.931 . S
H283 C263 0.930 . S
H284 C271 0.931 . S
H285 C272 0.929 . S
H286 C280 0.929 . S
H287 C281 0.930 . S
Mn288 O293 2.095 . S
Mn288 O303 2.162 . S
Mn288 O304 2.297 . S
Mn288 O312 2.385 . S
Mn288 O313 2.209 . S
Mn288 O314 2.094 . S
Mn289 O294 2.121 . S
Mn289 N296 2.257 . S
Mn289 N305 2.282 . S
Mn289 O313 2.215 . S
Mn289 O315 2.117 . S
C290 O312 1.234 . S
C290 O313 1.283 . S
C291 O303 1.281 . S
C291 O304 1.236 . S
C292 O314 1.240 . S
C292 O315 1.264 . S
O293 Mn288 2.095 . S
O293 C302 1.250 . S
O294 Mn289 2.121 . S
O294 C302 1.258 . S
C295 N296 1.326 . S
C295 C299 1.460 . S
C295 H301 0.929 . S
N296 Mn289 2.257 . S
N296 C295 1.326 . S
N296 C300 1.362 . S
C297 C298 1.258 . S
C297 C300 1.431 . S
C297 C317 1.449 1_545 S
C298 C297 1.258 . S
C298 C299 1.477 . S
C298 H318 0.931 . S
C299 C295 1.460 . S
C299 C298 1.477 . S
C299 H319 0.930 . S
C300 N296 1.362 . S
C300 C297 1.431 . S
C300 C310 1.476 . S
H301 C295 0.929 . S
C302 O293 1.250 . S
C302 O294 1.258 . S
O303 Mn288 2.162 . S
O303 C291 1.281 . S
O304 Mn288 2.297 . S
O304 C291 1.236 . S
N305 Mn289 2.282 . S
N305 C306 1.328 . S
N305 C310 1.318 . S
C306 N305 1.328 . S
C306 C307 1.457 1_545 S
C306 H311 0.929 . S
C307 C306 1.457 1_565 S
C307 C308 1.291 . S
C307 H320 0.931 . S
C308 C307 1.291 . S
C308 C309 1.373 . S
C308 H321 0.929 . S
C309 C308 1.373 . S
C309 C310 1.396 1_565 S
C309 C316 1.403 . S
C310 C300 1.476 . S
C310 N305 1.318 . S
C310 C309 1.396 1_545 S
H311 C306 0.929 . S
O312 Mn288 2.385 . S
O312 C290 1.234 . S
O313 Mn288 2.209 . S
O313 Mn289 2.215 . S
O313 C290 1.283 . S
O314 Mn288 2.094 . S
O314 C292 1.240 . S
O315 Mn289 2.117 . S
O315 C292 1.264 . S
C316 C309 1.403 . S
C316 C317 1.399 . S
C316 H322 0.929 . S
C317 C297 1.449 1_565 S
C317 C316 1.399 . S
C317 H323 0.930 . S
H318 C298 0.931 . S
H319 C299 0.930 . S
H320 C307 0.931 . S
H321 C308 0.929 . S
H322 C316 0.929 . S
H323 C317 0.930 . S
Mn324 O329 2.095 . S
Mn324 O339 2.162 . S
Mn324 O340 2.297 . S
Mn324 O348 2.385 . S
Mn324 O349 2.209 . S
Mn324 O350 2.094 . S
Mn325 O330 2.121 . S
Mn325 N332 2.257 . S
Mn325 N341 2.282 . S
Mn325 O349 2.215 . S
Mn325 O351 2.117 . S
C326 O348 1.234 . S
C326 O349 1.283 . S
C327 O339 1.281 . S
C327 O340 1.236 . S
C328 O350 1.240 . S
C328 O351 1.264 . S
O329 Mn324 2.095 . S
O329 C338 1.250 . S
O330 Mn325 2.121 . S
O330 C338 1.258 . S
C331 N332 1.326 . S
C331 C335 1.460 . S
C331 H337 0.929 . S
N332 Mn325 2.257 . S
N332 C331 1.326 . S
N332 C336 1.362 . S
C333 C334 1.258 . S
C333 C336 1.431 . S
C333 C353 1.449 . S
C334 C333 1.258 . S
C334 C335 1.477 . S
C334 H354 0.931 . S
C335 C331 1.460 . S
C335 C334 1.477 . S
C335 H355 0.930 . S
C336 N332 1.362 . S
C336 C333 1.431 . S
C336 C346 1.476 . S
H337 C331 0.929 . S
C338 O329 1.250 . S
C338 O330 1.258 . S
O339 Mn324 2.162 . S
O339 C327 1.281 . S
O340 Mn324 2.297 . S
O340 C327 1.236 . S
N341 Mn325 2.282 . S
N341 C342 1.328 . S
N341 C346 1.318 . S
C342 N341 1.328 . S
C342 C343 1.457 . S
C342 H347 0.929 . S
C343 C342 1.457 . S
C343 C344 1.291 . S
C343 H356 0.931 . S
C344 C343 1.291 . S
C344 C345 1.373 . S
C344 H357 0.929 . S
C345 C344 1.373 . S
C345 C346 1.396 . S
C345 C352 1.403 . S
C346 C336 1.476 . S
C346 N341 1.318 . S
C346 C345 1.396 . S
H347 C342 0.929 . S
O348 Mn324 2.385 . S
O348 C326 1.234 . S
O349 Mn324 2.209 . S
O349 Mn325 2.215 . S
O349 C326 1.283 . S
O350 Mn324 2.094 . S
O350 C328 1.240 . S
O351 Mn325 2.117 . S
O351 C328 1.264 . S
C352 C345 1.403 . S
C352 C353 1.399 . S
C352 H358 0.929 . S
C353 C333 1.449 . S
C353 C352 1.399 . S
C353 H359 0.930 . S
H354 C334 0.931 . S
H355 C335 0.930 . S
H356 C343 0.931 . S
H357 C344 0.929 . S
H358 C352 0.929 . S
H359 C353 0.930 . S
Mn360 O365 2.095 . S
Mn360 O375 2.162 . S
Mn360 O376 2.297 . S
Mn360 O384 2.385 . S
Mn360 O385 2.209 . S
Mn360 O386 2.094 . S
Mn361 O366 2.121 . S
Mn361 N368 2.257 . S
Mn361 N377 2.282 . S
Mn361 O385 2.215 . S
Mn361 O387 2.117 . S
C362 O384 1.234 . S
C362 O385 1.283 . S
C363 O375 1.281 . S
C363 O376 1.236 . S
C364 O386 1.240 . S
C364 O387 1.264 . S
O365 Mn360 2.095 . S
O365 C374 1.250 . S
O366 Mn361 2.121 . S
O366 C374 1.258 . S
C367 N368 1.326 . S
C367 C371 1.460 . S
C367 H373 0.929 . S
N368 Mn361 2.257 . S
N368 C367 1.326 . S
N368 C372 1.362 . S
C369 C370 1.258 . S
C369 C372 1.431 . S
C369 C389 1.449 . S
C370 C369 1.258 . S
C370 C371 1.477 . S
C370 H390 0.931 . S
C371 C367 1.460 . S
C371 C370 1.477 . S
C371 H391 0.930 . S
C372 N368 1.362 . S
C372 C369 1.431 . S
C372 C382 1.476 . S
H373 C367 0.929 . S
C374 O365 1.250 . S
C374 O366 1.258 . S
O375 Mn360 2.162 . S
O375 C363 1.281 . S
O376 Mn360 2.297 . S
O376 C363 1.236 . S
N377 Mn361 2.282 . S
N377 C378 1.328 . S
N377 C382 1.318 . S
C378 N377 1.328 . S
C378 C379 1.457 . S
C378 H383 0.929 . S
C379 C378 1.457 . S
C379 C380 1.291 . S
C379 H392 0.931 . S
C380 C379 1.291 . S
C380 C381 1.373 . S
C380 H393 0.929 . S
C381 C380 1.373 . S
C381 C382 1.396 . S
C381 C388 1.403 . S
C382 C372 1.476 . S
C382 N377 1.318 . S
C382 C381 1.396 . S
H383 C378 0.929 . S
O384 Mn360 2.385 . S
O384 C362 1.234 . S
O385 Mn360 2.209 . S
O385 Mn361 2.215 . S
O385 C362 1.283 . S
O386 Mn360 2.094 . S
O386 C364 1.240 . S
O387 Mn361 2.117 . S
O387 C364 1.264 . S
C388 C381 1.403 . S
C388 C389 1.399 . S
C388 H394 0.929 . S
C389 C369 1.449 . S
C389 C388 1.399 . S
C389 H395 0.930 . S
H390 C370 0.931 . S
H391 C371 0.930 . S
H392 C379 0.931 . S
H393 C380 0.929 . S
H394 C388 0.929 . S
H395 C389 0.930 . S
Mn396 O401 2.095 . S
Mn396 O411 2.162 . S
Mn396 O412 2.297 . S
Mn396 O420 2.385 . S
Mn396 O421 2.209 . S
Mn396 O422 2.094 . S
Mn397 O402 2.121 . S
Mn397 N404 2.257 . S
Mn397 N413 2.282 1_554 S
Mn397 O421 2.215 . S
Mn397 O423 2.117 1_554 S
C398 O420 1.234 . S
C398 O421 1.283 . S
C399 O411 1.281 . S
C399 O412 1.236 . S
C400 O422 1.240 1_556 S
C400 O423 1.264 . S
O401 Mn396 2.095 . S
O401 C410 1.250 . S
O402 Mn397 2.121 . S
O402 C410 1.258 . S
C403 N404 1.326 1_545 S
C403 C407 1.460 . S
C403 H409 0.929 1_545 S
N404 Mn397 2.257 . S
N404 C403 1.326 1_565 S
N404 C408 1.362 . S
C405 C406 1.258 . S
C405 C408 1.431 1_545 S
C405 C425 1.449 . S
C406 C405 1.258 . S
C406 C407 1.477 . S
C406 H426 0.931 . S
C407 C403 1.460 . S
C407 C406 1.477 . S
C407 H427 0.930 . S
C408 N404 1.362 . S
C408 C405 1.431 1_565 S
C408 C418 1.476 1_554 S
H409 C403 0.929 1_565 S
C410 O401 1.250 . S
C410 O402 1.258 . S
O411 Mn396 2.162 . S
O411 C399 1.281 . S
O412 Mn396 2.297 . S
O412 C399 1.236 . S
N413 Mn397 2.282 1_556 S
N413 C414 1.328 . S
N413 C418 1.318 . S
C414 N413 1.328 . S
C414 C415 1.457 . S
C414 H419 0.929 . S
C415 C414 1.457 . S
C415 C416 1.291 . S
C415 H428 0.931 . S
C416 C415 1.291 . S
C416 C417 1.373 . S
C416 H429 0.929 . S
C417 C416 1.373 . S
C417 C418 1.396 . S
C417 C424 1.403 1_565 S
C418 C408 1.476 1_556 S
C418 N413 1.318 . S
C418 C417 1.396 . S
H419 C414 0.929 . S
O420 Mn396 2.385 . S
O420 C398 1.234 . S
O421 Mn396 2.209 . S
O421 Mn397 2.215 . S
O421 C398 1.283 . S
O422 Mn396 2.094 . S
O422 C400 1.240 1_554 S
O423 Mn397 2.117 1_556 S
O423 C400 1.264 . S
C424 C417 1.403 1_545 S
C424 C425 1.399 1_556 S
C424 H430 0.929 . S
C425 C405 1.449 . S
C425 C424 1.399 1_554 S
C425 H431 0.930 . S
H426 C406 0.931 . S
H427 C407 0.930 . S
H428 C415 0.931 . S
H429 C416 0.929 . S
H430 C424 0.929 . S
H431 C425 0.930 . S
Mn432 O437 2.095 . S
Mn432 O447 2.162 . S
Mn432 O448 2.297 . S
Mn432 O456 2.385 . S
Mn432 O457 2.209 . S
Mn432 O458 2.094 1_554 S
Mn433 O438 2.121 1_556 S
Mn433 N440 2.257 1_556 S
Mn433 N449 2.282 . S
Mn433 O457 2.215 1_556 S
Mn433 O459 2.117 . S
C434 O456 1.234 . S
C434 O457 1.283 . S
C435 O447 1.281 . S
C435 O448 1.236 . S
C436 O458 1.240 . S
C436 O459 1.264 . S
O437 Mn432 2.095 . S
O437 C446 1.250 . S
O438 Mn433 2.121 1_554 S
O438 C446 1.258 . S
C439 N440 1.326 . S
C439 C443 1.460 . S
C439 H445 0.929 . S
N440 Mn433 2.257 1_554 S
N440 C439 1.326 . S
N440 C444 1.362 1_554 S
C441 C442 1.258 1_556 S
C441 C444 1.431 . S
C441 C461 1.449 . S
C442 C441 1.258 1_554 S
C442 C443 1.477 . S
C442 H462 0.931 . S
C443 C439 1.460 . S
C443 C442 1.477 . S
C443 H463 0.930 . S
C444 N440 1.362 1_556 S
C444 C441 1.431 . S
C444 C454 1.476 . S
H445 C439 0.929 . S
C446 O437 1.250 . S
C446 O438 1.258 . S
O447 Mn432 2.162 . S
O447 C435 1.281 . S
O448 Mn432 2.297 . S
O448 C435 1.236 . S
N449 Mn433 2.282 . S
N449 C450 1.328 . S
N449 C454 1.318 . S
C450 N449 1.328 . S
C450 C451 1.457 . S
C450 H455 0.929 . S
C451 C450 1.457 . S
C451 C452 1.291 . S
C451 H464 0.931 . S
C452 C451 1.291 . S
C452 C453 1.373 . S
C452 H465 0.929 . S
C453 C452 1.373 . S
C453 C454 1.396 . S
C453 C460 1.403 . S
C454 C444 1.476 . S
C454 N449 1.318 . S
C454 C453 1.396 . S
H455 C450 0.929 . S
O456 Mn432 2.385 . S
O456 C434 1.234 . S
O457 Mn432 2.209 . S
O457 Mn433 2.215 1_554 S
O457 C434 1.283 . S
O458 Mn432 2.094 1_556 S
O458 C436 1.240 . S
O459 Mn433 2.117 . S
O459 C436 1.264 . S
C460 C453 1.403 . S
C460 C461 1.399 . S
C460 H466 0.929 . S
C461 C441 1.449 . S
C461 C460 1.399 . S
C461 H467 0.930 . S
H462 C442 0.931 . S
H463 C443 0.930 . S
H464 C451 0.931 . S
H465 C452 0.929 . S
H466 C460 0.929 . S
H467 C461 0.930 . S
Mn468 O473 2.095 1_554 S
Mn468 O483 2.162 . S
Mn468 O484 2.297 . S
Mn468 O492 2.384 . S
Mn468 O493 2.209 1_554 S
Mn468 O494 2.094 1_554 S
Mn469 O474 2.121 . S
Mn469 N476 2.257 . S
Mn469 N485 2.282 . S
Mn469 O493 2.215 . S
Mn469 O495 2.117 . S
C470 O492 1.232 1_556 S
C470 O493 1.283 . S
C471 O483 1.281 . S
C471 O484 1.236 . S
C472 O494 1.240 . S
C472 O495 1.264 . S
O473 Mn468 2.095 1_556 S
O473 C482 1.250 . S
O474 Mn469 2.121 . S
O474 C482 1.258 . S
C475 N476 1.326 . S
C475 C479 1.460 . S
C475 H481 0.929 . S
N476 Mn469 2.257 . S
N476 C475 1.326 . S
N476 C480 1.362 . S
C477 C478 1.258 . S
C477 C480 1.431 . S
C477 C497 1.449 . S
C478 C477 1.258 . S
C478 C479 1.477 . S
C478 H498 0.931 . S
C479 C475 1.460 . S
C479 C478 1.477 . S
C479 H499 0.930 . S
C480 N476 1.362 . S
C480 C477 1.431 . S
C480 C490 1.476 . S
H481 C475 0.929 . S
C482 O473 1.250 . S
C482 O474 1.258 . S
O483 Mn468 2.162 . S
O483 C471 1.281 . S
O484 Mn468 2.297 . S
O484 C471 1.236 . S
N485 Mn469 2.282 . S
N485 C486 1.328 . S
N485 C490 1.318 . S
C486 N485 1.328 . S
C486 C487 1.457 . S
C486 H491 0.929 . S
C487 C486 1.457 . S
C487 C488 1.291 . S
C487 H500 0.931 . S
C488 C487 1.291 . S
C488 C489 1.373 . S
C488 H501 0.929 . S
C489 C488 1.373 . S
C489 C490 1.396 . S
C489 C496 1.403 . S
C490 C480 1.476 . S
C490 N485 1.318 . S
C490 C489 1.396 . S
H491 C486 0.929 . S
O492 Mn468 2.384 . S
O492 C470 1.232 1_554 S
O493 Mn468 2.209 1_556 S
O493 Mn469 2.215 . S
O493 C470 1.283 . S
O494 Mn468 2.094 1_556 S
O494 C472 1.240 . S
O495 Mn469 2.117 . S
O495 C472 1.264 . S
C496 C489 1.403 . S
C496 C497 1.399 . S
C496 H502 0.929 . S
C497 C477 1.449 . S
C497 C496 1.399 . S
C497 H503 0.930 . S
H498 C478 0.931 . S
H499 C479 0.930 . S
H500 C487 0.931 . S
H501 C488 0.929 . S
H502 C496 0.929 . S
H503 C497 0.930 . S
Mn504 O509 2.095 . S
Mn504 O519 2.162 . S
Mn504 O520 2.297 . S
Mn504 O528 2.385 . S
Mn504 O529 2.209 . S
Mn504 O530 2.094 . S
Mn505 O510 2.121 . S
Mn505 N512 2.257 . S
Mn505 N521 2.282 . S
Mn505 O529 2.215 . S
Mn505 O531 2.117 . S
C506 O528 1.234 . S
C506 O529 1.283 . S
C507 O519 1.281 . S
C507 O520 1.236 . S
C508 O530 1.240 . S
C508 O531 1.264 . S
O509 Mn504 2.095 . S
O509 C518 1.250 . S
O510 Mn505 2.121 . S
O510 C518 1.258 . S
C511 N512 1.326 . S
C511 C515 1.460 . S
C511 H517 0.929 . S
N512 Mn505 2.257 . S
N512 C511 1.326 . S
N512 C516 1.362 . S
C513 C514 1.258 . S
C513 C516 1.431 . S
C513 C533 1.449 . S
C514 C513 1.258 . S
C514 C515 1.477 . S
C514 H534 0.931 . S
C515 C511 1.460 . S
C515 C514 1.477 . S
C515 H535 0.930 . S
C516 N512 1.362 . S
C516 C513 1.431 . S
C516 C526 1.476 . S
H517 C511 0.929 . S
C518 O509 1.250 . S
C518 O510 1.258 . S
O519 Mn504 2.162 . S
O519 C507 1.281 . S
O520 Mn504 2.297 . S
O520 C507 1.236 . S
N521 Mn505 2.282 . S
N521 C522 1.328 . S
N521 C526 1.318 . S
C522 N521 1.328 . S
C522 C523 1.457 . S
C522 H527 0.929 . S
C523 C522 1.457 . S
C523 C524 1.291 . S
C523 H536 0.931 . S
C524 C523 1.291 . S
C524 C525 1.373 . S
C524 H537 0.929 . S
C525 C524 1.373 . S
C525 C526 1.396 . S
C525 C532 1.403 . S
C526 C516 1.476 . S
C526 N521 1.318 . S
C526 C525 1.396 . S
H527 C522 0.929 . S
O528 Mn504 2.385 . S
O528 C506 1.234 . S
O529 Mn504 2.209 . S
O529 Mn505 2.215 . S
O529 C506 1.283 . S
O530 Mn504 2.094 . S
O530 C508 1.240 . S
O531 Mn505 2.117 . S
O531 C508 1.264 . S
C532 C525 1.403 . S
C532 C533 1.399 . S
C532 H538 0.929 . S
C533 C513 1.449 . S
C533 C532 1.399 . S
C533 H539 0.930 . S
H534 C514 0.931 . S
H535 C515 0.930 . S
H536 C523 0.931 . S
H537 C524 0.929 . S
H538 C532 0.929 . S
H539 C533 0.930 . S
Mn540 O545 2.095 . S
Mn540 O555 2.162 . S
Mn540 O556 2.297 . S
Mn540 O564 2.385 . S
Mn540 O565 2.209 . S
Mn540 O566 2.094 . S
Mn541 O546 2.121 . S
Mn541 N548 2.257 1_565 S
Mn541 N557 2.282 . S
Mn541 O565 2.215 . S
Mn541 O567 2.117 . S
C542 O564 1.234 . S
C542 O565 1.283 . S
C543 O555 1.281 . S
C543 O556 1.236 . S
C544 O566 1.240 . S
C544 O567 1.264 . S
O545 Mn540 2.095 . S
O545 C554 1.250 . S
O546 Mn541 2.121 . S
O546 C554 1.258 . S
C547 N548 1.326 . S
C547 C551 1.460 . S
C547 H553 0.929 . S
N548 Mn541 2.257 1_545 S
N548 C547 1.326 . S
N548 C552 1.362 . S
C549 C550 1.258 . S
C549 C552 1.431 . S
C549 C569 1.449 . S
C550 C549 1.258 . S
C550 C551 1.477 . S
C550 H570 0.931 . S
C551 C547 1.460 . S
C551 C550 1.477 . S
C551 H571 0.930 . S
C552 N548 1.362 . S
C552 C549 1.431 . S
C552 C562 1.476 . S
H553 C547 0.929 . S
C554 O545 1.250 . S
C554 O546 1.258 . S
O555 Mn540 2.162 . S
O555 C543 1.281 . S
O556 Mn540 2.297 . S
O556 C543 1.236 . S
N557 Mn541 2.282 . S
N557 C558 1.328 . S
N557 C562 1.318 1_565 S
C558 N557 1.328 . S
C558 C559 1.457 . S
C558 H563 0.929 . S
C559 C558 1.457 . S
C559 C560 1.291 . S
C559 H572 0.931 . S
C560 C559 1.291 . S
C560 C561 1.373 1_565 S
C560 H573 0.929 . S
C561 C560 1.373 1_545 S
C561 C562 1.396 . S
C561 C568 1.403 . S
C562 C552 1.476 . S
C562 N557 1.318 1_545 S
C562 C561 1.396 . S
H563 C558 0.929 . S
O564 Mn540 2.385 . S
O564 C542 1.234 . S
O565 Mn540 2.209 . S
O565 Mn541 2.215 . S
O565 C542 1.283 . S
O566 Mn540 2.094 . S
O566 C544 1.240 . S
O567 Mn541 2.117 . S
O567 C544 1.264 . S
C568 C561 1.403 . S
C568 C569 1.399 . S
C568 H574 0.929 . S
C569 C549 1.449 . S
C569 C568 1.399 . S
C569 H575 0.930 . S
H570 C550 0.931 . S
H571 C551 0.930 . S
H572 C559 0.931 . S
H573 C560 0.929 . S
H574 C568 0.929 . S
H575 C569 0.930 . S
Mn576 O581 2.099 1_565 S
Mn576 O591 2.162 1_565 S
Mn576 O592 2.297 . S
Mn576 O600 2.381 . S
Mn576 O601 2.207 . S
Mn576 O602 2.094 1_565 S
Mn577 O582 2.121 1_565 S
Mn577 N584 2.257 . S
Mn577 N593 2.282 . S
Mn577 O601 2.215 . S
Mn577 O603 2.117 1_565 S
C578 O600 1.234 . S
C578 O601 1.283 . S
C579 O591 1.281 . S
C579 O592 1.237 1_545 S
C580 O602 1.240 . S
C580 O603 1.264 . S
O581 Mn576 2.099 1_545 S
O581 C590 1.250 . S
O582 Mn577 2.121 1_545 S
O582 C590 1.258 . S
C583 N584 1.326 . S
C583 C587 1.460 . S
C583 H589 0.929 1_565 S
N584 Mn577 2.257 . S
N584 C583 1.326 . S
N584 C588 1.362 . S
C585 C586 1.258 . S
C585 C588 1.431 . S
C585 C605 1.449 . S
C586 C585 1.258 . S
C586 C587 1.477 . S
C586 H606 0.931 . S
C587 C583 1.460 . S
C587 C586 1.477 . S
C587 H607 0.930 . S
C588 N584 1.362 . S
C588 C585 1.431 . S
C588 C598 1.476 . S
H589 C583 0.929 1_545 S
C590 O581 1.250 . S
C590 O582 1.258 . S
O591 Mn576 2.162 1_545 S
O591 C579 1.281 . S
O592 Mn576 2.297 . S
O592 C579 1.237 1_565 S
N593 Mn577 2.282 . S
N593 C594 1.328 . S
N593 C598 1.318 . S
C594 N593 1.328 . S
C594 C595 1.457 . S
C594 H599 0.929 . S
C595 C594 1.457 . S
C595 C596 1.291 . S
C595 H608 0.931 . S
C596 C595 1.291 . S
C596 C597 1.373 . S
C596 H609 0.929 . S
C597 C596 1.373 . S
C597 C598 1.396 . S
C597 C604 1.403 . S
C598 C588 1.476 . S
C598 N593 1.318 . S
C598 C597 1.396 . S
H599 C594 0.929 . S
O600 Mn576 2.381 . S
O600 C578 1.234 . S
O601 Mn576 2.207 . S
O601 Mn577 2.215 . S
O601 C578 1.283 . S
O602 Mn576 2.094 1_545 S
O602 C580 1.240 . S
O603 Mn577 2.117 1_545 S
O603 C580 1.264 . S
C604 C597 1.403 . S
C604 C605 1.399 . S
C604 H610 0.929 . S
C605 C585 1.449 . S
C605 C604 1.399 . S
C605 H611 0.930 . S
H606 C586 0.931 . S
H607 C587 0.930 . S
H608 C595 0.931 . S
H609 C596 0.929 . S
H610 C604 0.929 . S
H611 C605 0.930 . S
Mn612 O617 2.095 . S
Mn612 O627 2.162 . S
Mn612 O628 2.297 . S
Mn612 O636 2.385 . S
Mn612 O637 2.209 . S
Mn612 O638 2.094 . S
Mn613 O618 2.121 . S
Mn613 N620 2.257 . S
Mn613 N629 2.282 . S
Mn613 O637 2.215 . S
Mn613 O639 2.117 . S
C614 O636 1.234 . S
C614 O637 1.283 . S
C615 O627 1.281 . S
C615 O628 1.236 . S
C616 O638 1.240 . S
C616 O639 1.264 . S
O617 Mn612 2.095 . S
O617 C626 1.250 . S
O618 Mn613 2.121 . S
O618 C626 1.258 . S
C619 N620 1.326 . S
C619 C623 1.460 . S
C619 H625 0.929 . S
N620 Mn613 2.257 . S
N620 C619 1.326 . S
N620 C624 1.362 . S
C621 C622 1.258 . S
C621 C624 1.431 . S
C621 C641 1.449 . S
C622 C621 1.258 . S
C622 C623 1.477 . S
C622 H642 0.931 . S
C623 C619 1.460 . S
C623 C622 1.477 . S
C623 H643 0.930 . S
C624 N620 1.362 . S
C624 C621 1.431 . S
C624 C634 1.476 . S
H625 C619 0.929 . S
C626 O617 1.250 . S
C626 O618 1.258 . S
O627 Mn612 2.162 . S
O627 C615 1.281 . S
O628 Mn612 2.297 . S
O628 C615 1.236 . S
N629 Mn613 2.282 . S
N629 C630 1.328 . S
N629 C634 1.318 . S
C630 N629 1.328 . S
C630 C631 1.457 . S
C630 H635 0.929 . S
C631 C630 1.457 . S
C631 C632 1.291 . S
C631 H644 0.931 . S
C632 C631 1.291 . S
C632 C633 1.373 . S
C632 H645 0.929 . S
C633 C632 1.373 . S
C633 C634 1.396 . S
C633 C640 1.403 . S
C634 C624 1.476 . S
C634 N629 1.318 . S
C634 C633 1.396 . S
H635 C630 0.929 . S
O636 Mn612 2.385 . S
O636 C614 1.234 . S
O637 Mn612 2.209 . S
O637 Mn613 2.215 . S
O637 C614 1.283 . S
O638 Mn612 2.094 . S
O638 C616 1.240 . S
O639 Mn613 2.117 . S
O639 C616 1.264 . S
C640 C633 1.403 . S
C640 C641 1.399 . S
C640 H646 0.929 . S
C641 C621 1.449 . S
C641 C640 1.399 . S
C641 H647 0.930 . S
H642 C622 0.931 . S
H643 C623 0.930 . S
H644 C631 0.931 . S
H645 C632 0.929 . S
H646 C640 0.929 . S
H647 C641 0.930 . S
Mn648 O653 2.095 . S
Mn648 O663 2.162 . S
Mn648 O664 2.297 . S
Mn648 O672 2.385 . S
Mn648 O673 2.209 . S
Mn648 O674 2.094 . S
Mn649 O654 2.121 . S
Mn649 N656 2.257 . S
Mn649 N665 2.282 . S
Mn649 O673 2.215 . S
Mn649 O675 2.117 . S
C650 O672 1.234 . S
C650 O673 1.283 . S
C651 O663 1.281 . S
C651 O664 1.236 . S
C652 O674 1.240 . S
C652 O675 1.264 . S
O653 Mn648 2.095 . S
O653 C662 1.250 . S
O654 Mn649 2.121 . S
O654 C662 1.258 . S
C655 N656 1.326 . S
C655 C659 1.460 . S
C655 H661 0.929 . S
N656 Mn649 2.257 . S
N656 C655 1.326 . S
N656 C660 1.362 . S
C657 C658 1.258 . S
C657 C660 1.431 . S
C657 C677 1.449 . S
C658 C657 1.258 . S
C658 C659 1.477 . S
C658 H678 0.931 . S
C659 C655 1.460 . S
C659 C658 1.477 . S
C659 H679 0.930 . S
C660 N656 1.362 . S
C660 C657 1.431 . S
C660 C670 1.476 . S
H661 C655 0.929 . S
C662 O653 1.250 . S
C662 O654 1.258 . S
O663 Mn648 2.162 . S
O663 C651 1.281 . S
O664 Mn648 2.297 . S
O664 C651 1.236 . S
N665 Mn649 2.282 . S
N665 C666 1.328 . S
N665 C670 1.318 . S
C666 N665 1.328 . S
C666 C667 1.457 . S
C666 H671 0.929 . S
C667 C666 1.457 . S
C667 C668 1.291 . S
C667 H680 0.931 . S
C668 C667 1.291 . S
C668 C669 1.373 . S
C668 H681 0.929 . S
C669 C668 1.373 . S
C669 C670 1.396 . S
C669 C676 1.403 . S
C670 C660 1.476 . S
C670 N665 1.318 . S
C670 C669 1.396 . S
H671 C666 0.929 . S
O672 Mn648 2.385 . S
O672 C650 1.234 . S
O673 Mn648 2.209 . S
O673 Mn649 2.215 . S
O673 C650 1.283 . S
O674 Mn648 2.094 . S
O674 C652 1.240 . S
O675 Mn649 2.117 . S
O675 C652 1.264 . S
C676 C669 1.403 . S
C676 C677 1.399 . S
C676 H682 0.929 . S
C677 C657 1.449 . S
C677 C676 1.399 . S
C677 H683 0.930 . S
H678 C658 0.931 . S
H679 C659 0.930 . S
H680 C667 0.931 . S
H681 C668 0.929 . S
H682 C676 0.929 . S
H683 C677 0.930 . S
Mn684 O689 2.095 1_545 S
Mn684 O699 2.162 . S
Mn684 O700 2.297 . S
Mn684 O708 2.385 . S
Mn684 O709 2.209 . S
Mn684 O710 2.094 . S
Mn685 O690 2.121 1_545 S
Mn685 N692 2.257 . S
Mn685 N701 2.282 . S
Mn685 O709 2.215 . S
Mn685 O711 2.117 . S
C686 O708 1.234 . S
C686 O709 1.283 . S
C687 O699 1.281 . S
C687 O700 1.236 . S
C688 O710 1.240 . S
C688 O711 1.264 . S
O689 Mn684 2.095 1_565 S
O689 C698 1.250 . S
O690 Mn685 2.121 1_565 S
O690 C698 1.258 . S
C691 N692 1.326 . S
C691 C695 1.460 . S
C691 H697 0.929 . S
N692 Mn685 2.257 . S
N692 C691 1.326 . S
N692 C696 1.362 . S
C693 C694 1.258 . S
C693 C696 1.431 . S
C693 C713 1.449 . S
C694 C693 1.258 . S
C694 C695 1.477 . S
C694 H714 0.931 . S
C695 C691 1.460 . S
C695 C694 1.477 . S
C695 H715 0.930 . S
C696 N692 1.362 . S
C696 C693 1.431 . S
C696 C706 1.476 . S
H697 C691 0.929 . S
C698 O689 1.250 . S
C698 O690 1.258 . S
O699 Mn684 2.162 . S
O699 C687 1.281 . S
O700 Mn684 2.297 . S
O700 C687 1.236 . S
N701 Mn685 2.282 . S
N701 C702 1.328 . S
N701 C706 1.318 . S
C702 N701 1.328 . S
C702 C703 1.457 . S
C702 H707 0.929 . S
C703 C702 1.457 . S
C703 C704 1.291 . S
C703 H716 0.931 . S
C704 C703 1.291 . S
C704 C705 1.373 . S
C704 H717 0.929 . S
C705 C704 1.373 . S
C705 C706 1.396 . S
C705 C712 1.403 . S
C706 C696 1.476 . S
C706 N701 1.318 . S
C706 C705 1.396 . S
H707 C702 0.929 . S
O708 Mn684 2.385 . S
O708 C686 1.234 . S
O709 Mn684 2.209 . S
O709 Mn685 2.215 . S
O709 C686 1.283 . S
O710 Mn684 2.094 . S
O710 C688 1.240 . S
O711 Mn685 2.117 . S
O711 C688 1.264 . S
C712 C705 1.403 . S
C712 C713 1.399 . S
C712 H718 0.929 . S
C713 C693 1.449 . S
C713 C712 1.399 . S
C713 H719 0.930 . S
H714 C694 0.931 . S
H715 C695 0.930 . S
H716 C703 0.931 . S
H717 C704 0.929 . S
H718 C712 0.929 . S
H719 C713 0.930 . S
Mn720 O725 2.095 . S
Mn720 O735 2.162 . S
Mn720 O736 2.297 . S
Mn720 O744 2.385 . S
Mn720 O745 2.209 . S
Mn720 O746 2.094 1_554 S
Mn721 O726 2.129 . S
Mn721 N728 2.257 . S
Mn721 N737 2.282 . S
Mn721 O745 2.215 1_556 S
Mn721 O747 2.117 . S
C722 O744 1.234 . S
C722 O745 1.283 . S
C723 O735 1.281 . S
C723 O736 1.236 . S
C724 O746 1.240 . S
C724 O747 1.264 . S
O725 Mn720 2.095 . S
O725 C734 1.250 . S
O726 Mn721 2.129 . S
O726 C734 1.251 1_556 S
C727 N728 1.326 . S
C727 C731 1.460 . S
C727 H733 0.931 . S
N728 Mn721 2.257 . S
N728 C727 1.326 . S
N728 C732 1.362 . S
C729 C730 1.258 . S
C729 C732 1.431 . S
C729 C749 1.449 . S
C730 C729 1.258 . S
C730 C731 1.477 . S
C730 H750 0.931 . S
C731 C727 1.460 . S
C731 C730 1.477 . S
C731 H751 0.930 . S
C732 N728 1.362 . S
C732 C729 1.431 . S
C732 C742 1.476 . S
H733 C727 0.931 . S
C734 O725 1.250 . S
C734 O726 1.251 1_554 S
O735 Mn720 2.162 . S
O735 C723 1.281 . S
O736 Mn720 2.297 . S
O736 C723 1.236 . S
N737 Mn721 2.282 . S
N737 C738 1.328 . S
N737 C742 1.318 . S
C738 N737 1.328 . S
C738 C739 1.457 . S
C738 H743 0.929 . S
C739 C738 1.457 . S
C739 C740 1.291 . S
C739 H752 0.931 . S
C740 C739 1.291 . S
C740 C741 1.373 . S
C740 H753 0.929 . S
C741 C740 1.373 . S
C741 C742 1.396 . S
C741 C748 1.403 . S
C742 C732 1.476 . S
C742 N737 1.318 . S
C742 C741 1.396 . S
H743 C738 0.929 . S
O744 Mn720 2.385 . S
O744 C722 1.234 . S
O745 Mn720 2.209 . S
O745 Mn721 2.215 1_554 S
O745 C722 1.283 . S
O746 Mn720 2.094 1_556 S
O746 C724 1.240 . S
O747 Mn721 2.117 . S
O747 C724 1.264 . S
C748 C741 1.403 . S
C748 C749 1.399 . S
C748 H754 0.929 . S
C749 C729 1.449 . S
C749 C748 1.399 . S
C749 H755 0.930 . S
H750 C730 0.931 . S
H751 C731 0.930 . S
H752 C739 0.931 . S
H753 C740 0.929 . S
H754 C748 0.929 . S
H755 C749 0.930 . S
Mn756 O761 2.095 1_455 S
Mn756 O771 2.162 . S
Mn756 O772 2.297 1_455 S
Mn756 O780 2.385 . S
Mn756 O781 2.209 1_455 S
Mn756 O782 2.094 . S
Mn757 O762 2.121 . S
Mn757 N764 2.257 . S
Mn757 N773 2.282 . S
Mn757 O781 2.215 . S
Mn757 O783 2.115 . S
C758 O780 1.234 1_655 S
C758 O781 1.283 . S
C759 O771 1.281 . S
C759 O772 1.236 1_455 S
C760 O782 1.240 . S
C760 O783 1.266 1_455 S
O761 Mn756 2.095 1_655 S
O761 C770 1.250 . S
O762 Mn757 2.121 . S
O762 C770 1.258 . S
C763 N764 1.326 . S
C763 C767 1.460 . S
C763 H769 0.929 . S
N764 Mn757 2.257 . S
N764 C763 1.326 . S
N764 C768 1.362 . S
C765 C766 1.258 . S
C765 C768 1.431 . S
C765 C785 1.449 . S
C766 C765 1.258 . S
C766 C767 1.477 . S
C766 H786 0.931 . S
C767 C763 1.460 . S
C767 C766 1.477 . S
C767 H787 0.930 . S
C768 N764 1.362 . S
C768 C765 1.431 . S
C768 C778 1.476 . S
H769 C763 0.929 . S
C770 O761 1.250 . S
C770 O762 1.258 . S
O771 Mn756 2.162 . S
O771 C759 1.281 . S
O772 Mn756 2.297 1_655 S
O772 C759 1.236 1_655 S
N773 Mn757 2.282 . S
N773 C774 1.328 . S
N773 C778 1.318 . S
C774 N773 1.328 . S
C774 C775 1.457 . S
C774 H779 0.929 . S
C775 C774 1.457 . S
C775 C776 1.291 . S
C775 H788 0.931 . S
C776 C775 1.291 . S
C776 C777 1.373 . S
C776 H789 0.929 . S
C777 C776 1.373 . S
C777 C778 1.396 . S
C777 C784 1.403 . S
C778 C768 1.476 . S
C778 N773 1.318 . S
C778 C777 1.396 . S
H779 C774 0.929 . S
O780 Mn756 2.385 . S
O780 C758 1.234 1_455 S
O781 Mn756 2.209 1_655 S
O781 Mn757 2.215 . S
O781 C758 1.283 . S
O782 Mn756 2.094 . S
O782 C760 1.240 . S
O783 Mn757 2.115 . S
O783 C760 1.266 1_655 S
C784 C777 1.403 . S
C784 C785 1.399 . S
C784 H790 0.929 . S
C785 C765 1.449 . S
C785 C784 1.399 . S
C785 H791 0.930 . S
H786 C766 0.931 . S
H787 C767 0.930 . S
H788 C775 0.931 . S
H789 C776 0.929 . S
H790 C784 0.929 . S
H791 C785 0.930 . S
Mn792 O797 2.095 . S
Mn792 O807 2.162 . S
Mn792 O808 2.297 . S
Mn792 O816 2.385 . S
Mn792 O817 2.209 . S
Mn792 O818 2.094 . S
Mn793 O798 2.121 . S
Mn793 N800 2.257 . S
Mn793 N809 2.282 . S
Mn793 O817 2.215 . S
Mn793 O819 2.117 . S
C794 O816 1.234 . S
C794 O817 1.283 . S
C795 O807 1.281 . S
C795 O808 1.236 . S
C796 O818 1.240 . S
C796 O819 1.264 . S
O797 Mn792 2.095 . S
O797 C806 1.250 . S
O798 Mn793 2.121 . S
O798 C806 1.258 . S
C799 N800 1.326 . S
C799 C803 1.460 . S
C799 H805 0.929 . S
N800 Mn793 2.257 . S
N800 C799 1.326 . S
N800 C804 1.362 . S
C801 C802 1.258 . S
C801 C804 1.431 . S
C801 C821 1.449 . S
C802 C801 1.258 . S
C802 C803 1.477 . S
C802 H822 0.931 . S
C803 C799 1.460 . S
C803 C802 1.477 . S
C803 H823 0.930 . S
C804 N800 1.362 . S
C804 C801 1.431 . S
C804 C814 1.476 . S
H805 C799 0.929 . S
C806 O797 1.250 . S
C806 O798 1.258 . S
O807 Mn792 2.162 . S
O807 C795 1.281 . S
O808 Mn792 2.297 . S
O808 C795 1.236 . S
N809 Mn793 2.282 . S
N809 C810 1.328 . S
N809 C814 1.318 . S
C810 N809 1.328 . S
C810 C811 1.457 . S
C810 H815 0.929 . S
C811 C810 1.457 . S
C811 C812 1.291 . S
C811 H824 0.931 . S
C812 C811 1.291 . S
C812 C813 1.373 . S
C812 H825 0.929 . S
C813 C812 1.373 . S
C813 C814 1.396 . S
C813 C820 1.403 . S
C814 C804 1.476 . S
C814 N809 1.318 . S
C814 C813 1.396 . S
H815 C810 0.929 . S
O816 Mn792 2.385 . S
O816 C794 1.234 . S
O817 Mn792 2.209 . S
O817 Mn793 2.215 . S
O817 C794 1.283 . S
O818 Mn792 2.094 . S
O818 C796 1.240 . S
O819 Mn793 2.117 . S
O819 C796 1.264 . S
C820 C813 1.403 . S
C820 C821 1.399 . S
C820 H826 0.929 . S
C821 C801 1.449 . S
C821 C820 1.399 . S
C821 H827 0.930 . S
H822 C802 0.931 . S
H823 C803 0.930 . S
H824 C811 0.931 . S
H825 C812 0.929 . S
H826 C820 0.929 . S
H827 C821 0.930 . S
Mn828 O833 2.095 . S
Mn828 O843 2.162 . S
Mn828 O844 2.297 . S
Mn828 O852 2.385 . S
Mn828 O853 2.209 . S
Mn828 O854 2.094 . S
Mn829 O834 2.121 . S
Mn829 N836 2.257 . S
Mn829 N845 2.282 . S
Mn829 O853 2.215 . S
Mn829 O855 2.117 . S
C830 O852 1.234 . S
C830 O853 1.283 . S
C831 O843 1.281 . S
C831 O844 1.236 . S
C832 O854 1.240 . S
C832 O855 1.264 . S
O833 Mn828 2.095 . S
O833 C842 1.250 . S
O834 Mn829 2.121 . S
O834 C842 1.258 . S
C835 N836 1.326 . S
C835 C839 1.460 . S
C835 H841 0.929 . S
N836 Mn829 2.257 . S
N836 C835 1.326 . S
N836 C840 1.362 . S
C837 C838 1.258 . S
C837 C840 1.431 . S
C837 C857 1.449 . S
C838 C837 1.258 . S
C838 C839 1.477 . S
C838 H858 0.931 . S
C839 C835 1.460 . S
C839 C838 1.477 . S
C839 H859 0.930 . S
C840 N836 1.362 . S
C840 C837 1.431 . S
C840 C850 1.476 . S
H841 C835 0.929 . S
C842 O833 1.250 . S
C842 O834 1.258 . S
O843 Mn828 2.162 . S
O843 C831 1.281 . S
O844 Mn828 2.297 . S
O844 C831 1.236 . S
N845 Mn829 2.282 . S
N845 C846 1.328 . S
N845 C850 1.318 . S
C846 N845 1.328 . S
C846 C847 1.457 . S
C846 H851 0.929 . S
C847 C846 1.457 . S
C847 C848 1.291 . S
C847 H860 0.931 . S
C848 C847 1.291 . S
C848 C849 1.373 . S
C848 H861 0.929 . S
C849 C848 1.373 . S
C849 C850 1.396 . S
C849 C856 1.403 . S
C850 C840 1.476 . S
C850 N845 1.318 . S
C850 C849 1.396 . S
H851 C846 0.929 . S
O852 Mn828 2.385 . S
O852 C830 1.234 . S
O853 Mn828 2.209 . S
O853 Mn829 2.215 . S
O853 C830 1.283 . S
O854 Mn828 2.094 . S
O854 C832 1.240 . S
O855 Mn829 2.117 . S
O855 C832 1.264 . S
C856 C849 1.403 . S
C856 C857 1.399 . S
C856 H862 0.929 . S
C857 C837 1.449 . S
C857 C856 1.399 . S
C857 H863 0.930 . S
H858 C838 0.931 . S
H859 C839 0.930 . S
H860 C847 0.931 . S
H861 C848 0.929 . S
H862 C856 0.929 . S
H863 C857 0.930 . S
Tb864 C874 2.825 1_455 S
Tb864 O875 2.347 1_556 S
Tb864 O878 2.366 . S
Tb864 O883 2.418 . S
Tb864 O884 2.384 1_546 S
Tb864 O887 2.479 1_455 S
Tb864 O888 2.471 1_456 S
Eu865 O876 2.418 . S
Eu865 O877 2.384 . S
Eu865 O880 2.479 . S
Eu865 O881 2.471 . S
Eu865 O882 2.347 . S
Eu865 O885 2.366 . S
Eu865 C895 2.825 . S
C866 O882 1.259 1_556 S
C866 O883 1.265 . S
C867 O884 1.255 . S
C867 O885 1.265 1_565 S
C868 C870 1.380 . S
C868 C871 1.374 . S
C868 C874 1.507 . S
C869 C870 1.384 . S
C869 C873 1.387 . S
C869 H896 0.930 . S
C870 C868 1.380 . S
C870 C869 1.384 . S
C870 H897 0.931 . S
C871 C868 1.374 . S
C871 C872 1.390 . S
C871 H898 0.930 1_556 S
C872 C871 1.390 . S
C872 C873 1.391 . S
C872 H899 0.930 . S
C873 C869 1.387 . S
C873 C872 1.391 . S
C874 Tb864 2.825 1_655 S
C874 C868 1.507 . S
C874 O887 1.238 . S
C874 O888 1.247 1_556 S
O875 Tb864 2.347 1_554 S
O875 C879 1.259 . S
O876 Eu865 2.418 . S
O876 C879 1.265 . S
O877 Eu865 2.384 . S
O877 C886 1.255 . S
O878 Tb864 2.366 . S
O878 C886 1.265 1_556 S
C879 O875 1.259 . S
C879 O876 1.265 . S
O880 Eu865 2.479 . S
O880 C895 1.238 . S
O881 Eu865 2.471 . S
O881 C895 1.247 . S
O882 Eu865 2.347 . S
O882 C866 1.259 1_554 S
O883 Tb864 2.418 . S
O883 C866 1.265 . S
O884 Tb864 2.384 1_564 S
O884 C867 1.255 . S
O885 Eu865 2.366 . S
O885 C867 1.265 1_545 S
C886 O877 1.255 . S
C886 O878 1.265 1_554 S
O887 Tb864 2.479 1_655 S
O887 C874 1.238 . S
O888 Tb864 2.471 1_654 S
O888 C874 1.247 1_554 S
C889 C892 1.380 . S
C889 C893 1.374 . S
C889 C895 1.507 . S
C890 C891 1.387 . S
C890 C894 1.391 . S
C891 C890 1.387 . S
C891 C892 1.384 . S
C891 H900 0.930 . S
C892 C889 1.380 . S
C892 C891 1.384 . S
C892 H901 0.931 . S
C893 C889 1.374 . S
C893 C894 1.390 . S
C893 H902 0.930 . S
C894 C890 1.391 . S
C894 C893 1.390 . S
C894 H903 0.930 1_545 S
C895 Eu865 2.825 . S
C895 O880 1.238 . S
C895 O881 1.247 . S
C895 C889 1.507 . S
H896 C869 0.930 . S
H897 C870 0.931 . S
H898 C871 0.930 1_554 S
H899 C872 0.930 . S
H900 C891 0.930 . S
H901 C892 0.931 . S
H902 C893 0.930 . S
H903 C894 0.930 1_565 S
Tb904 C914 2.825 . S
Tb904 O915 2.347 . S
Tb904 O918 2.366 . S
Tb904 O923 2.418 . S
Tb904 O924 2.384 . S
Tb904 O927 2.479 . S
Tb904 O928 2.471 . S
Eu905 O916 2.418 . S
Eu905 O917 2.384 . S
Eu905 O920 2.479 . S
Eu905 O921 2.471 . S
Eu905 O922 2.347 . S
Eu905 O925 2.366 . S
Eu905 C935 2.825 . S
C906 O922 1.259 . S
C906 O923 1.265 . S
C907 O924 1.255 . S
C907 O925 1.265 . S
C908 C910 1.380 . S
C908 C911 1.374 . S
C908 C914 1.507 . S
C909 C910 1.384 . S
C909 C913 1.387 . S
C909 H936 0.930 . S
C910 C908 1.380 . S
C910 C909 1.384 . S
C910 H937 0.931 . S
C911 C908 1.374 . S
C911 C912 1.390 . S
C911 H938 0.930 . S
C912 C911 1.390 . S
C912 C913 1.391 . S
C912 H939 0.930 . S
C913 C909 1.387 . S
C913 C912 1.391 . S
C914 Tb904 2.825 . S
C914 C908 1.507 . S
C914 O927 1.238 . S
C914 O928 1.247 . S
O915 Tb904 2.347 . S
O915 C919 1.259 . S
O916 Eu905 2.418 . S
O916 C919 1.265 . S
O917 Eu905 2.384 . S
O917 C926 1.255 . S
O918 Tb904 2.366 . S
O918 C926 1.265 . S
C919 O915 1.259 . S
C919 O916 1.265 . S
O920 Eu905 2.479 . S
O920 C935 1.238 . S
O921 Eu905 2.471 . S
O921 C935 1.247 . S
O922 Eu905 2.347 . S
O922 C906 1.259 . S
O923 Tb904 2.418 . S
O923 C906 1.265 . S
O924 Tb904 2.384 . S
O924 C907 1.255 . S
O925 Eu905 2.366 . S
O925 C907 1.265 . S
C926 O917 1.255 . S
C926 O918 1.265 . S
O927 Tb904 2.479 . S
O927 C914 1.238 . S
O928 Tb904 2.471 . S
O928 C914 1.247 . S
C929 C932 1.380 . S
C929 C933 1.374 . S
C929 C935 1.507 . S
C930 C931 1.387 . S
C930 C934 1.391 . S
C931 C930 1.387 . S
C931 C932 1.384 . S
C931 H940 0.930 . S
C932 C929 1.380 . S
C932 C931 1.384 . S
C932 H941 0.931 . S
C933 C929 1.374 . S
C933 C934 1.390 . S
C933 H942 0.930 . S
C934 C930 1.391 . S
C934 C933 1.390 . S
C934 H943 0.930 . S
C935 Eu905 2.825 . S
C935 O920 1.238 . S
C935 O921 1.247 . S
C935 C929 1.507 . S
H936 C909 0.930 . S
H937 C910 0.931 . S
H938 C911 0.930 . S
H939 C912 0.930 . S
H940 C931 0.930 . S
H941 C932 0.931 . S
H942 C933 0.930 . S
H943 C934 0.930 . S
Tb944 C954 2.825 1_545 S
Tb944 O955 2.347 . S
Tb944 O958 2.366 . S
Tb944 O963 2.418 . S
Tb944 O964 2.384 . S
Tb944 O967 2.479 1_545 S
Tb944 O968 2.471 1_545 S
Eu945 O956 2.418 . S
Eu945 O957 2.384 . S
Eu945 O960 2.479 . S
Eu945 O961 2.471 . S
Eu945 O962 2.347 . S
Eu945 O965 2.366 . S
Eu945 C975 2.825 . S
C946 O962 1.259 . S
C946 O963 1.265 . S
C947 O964 1.255 . S
C947 O965 1.265 . S
C948 C950 1.380 . S
C948 C951 1.374 . S
C948 C954 1.507 . S
C949 C950 1.384 . S
C949 C953 1.387 . S
C949 H976 0.930 . S
C950 C948 1.380 . S
C950 C949 1.384 . S
C950 H977 0.931 . S
C951 C948 1.374 . S
C951 C952 1.390 . S
C951 H978 0.930 . S
C952 C951 1.390 . S
C952 C953 1.391 . S
C952 H979 0.930 . S
C953 C949 1.387 . S
C953 C952 1.391 . S
C954 Tb944 2.825 1_565 S
C954 C948 1.507 . S
C954 O967 1.238 . S
C954 O968 1.247 . S
O955 Tb944 2.347 . S
O955 C959 1.259 . S
O956 Eu945 2.418 . S
O956 C959 1.265 . S
O957 Eu945 2.384 . S
O957 C966 1.255 . S
O958 Tb944 2.366 . S
O958 C966 1.265 . S
C959 O955 1.259 . S
C959 O956 1.265 . S
O960 Eu945 2.479 . S
O960 C975 1.238 . S
O961 Eu945 2.471 . S
O961 C975 1.247 . S
O962 Eu945 2.347 . S
O962 C946 1.259 . S
O963 Tb944 2.418 . S
O963 C946 1.265 . S
O964 Tb944 2.384 . S
O964 C947 1.255 . S
O965 Eu945 2.366 . S
O965 C947 1.265 . S
C966 O957 1.255 . S
C966 O958 1.265 . S
O967 Tb944 2.479 1_565 S
O967 C954 1.238 . S
O968 Tb944 2.471 1_565 S
O968 C954 1.247 . S
C969 C972 1.380 . S
C969 C973 1.374 . S
C969 C975 1.507 . S
C970 C971 1.387 . S
C970 C974 1.391 . S
C971 C970 1.387 . S
C971 C972 1.384 . S
C971 H980 0.930 . S
C972 C969 1.380 . S
C972 C971 1.384 . S
C972 H981 0.931 . S
C973 C969 1.374 . S
C973 C974 1.390 . S
C973 H982 0.930 . S
C974 C970 1.391 . S
C974 C973 1.390 . S
C974 H983 0.930 . S
C975 Eu945 2.825 . S
C975 O960 1.238 . S
C975 O961 1.247 . S
C975 C969 1.507 . S
H976 C949 0.930 . S
H977 C950 0.931 . S
H978 C951 0.930 . S
H979 C952 0.930 . S
H980 C971 0.930 . S
H981 C972 0.931 . S
H982 C973 0.930 . S
H983 C974 0.930 . S
Tb984 C994 2.825 . S
Tb984 O995 2.347 . S
Tb984 O998 2.366 . S
Tb984 O1003 2.418 . S
Tb984 O1004 2.384 . S
Tb984 O1007 2.479 . S
Tb984 O1008 2.471 . S
Eu985 O996 2.418 . S
Eu985 O997 2.384 . S
Eu985 O1000 2.479 . S
Eu985 O1001 2.471 . S
Eu985 O1002 2.347 . S
Eu985 O1005 2.366 . S
Eu985 C1015 2.825 . S
C986 O1002 1.259 . S
C986 O1003 1.265 . S
C987 O1004 1.255 . S
C987 O1005 1.265 . S
C988 C990 1.380 . S
C988 C991 1.374 . S
C988 C994 1.507 . S
C989 C990 1.384 . S
C989 C993 1.387 . S
C989 H1016 0.930 . S
C990 C988 1.380 . S
C990 C989 1.384 . S
C990 H1017 0.931 . S
C991 C988 1.374 . S
C991 C992 1.390 . S
C991 H1018 0.930 . S
C992 C991 1.390 . S
C992 C993 1.391 . S
C992 H1019 0.930 . S
C993 C989 1.387 . S
C993 C992 1.391 . S
C994 Tb984 2.825 . S
C994 C988 1.507 . S
C994 O1007 1.238 . S
C994 O1008 1.247 . S
O995 Tb984 2.347 . S
O995 C999 1.259 . S
O996 Eu985 2.418 . S
O996 C999 1.265 . S
O997 Eu985 2.384 . S
O997 C1006 1.255 . S
O998 Tb984 2.366 . S
O998 C1006 1.265 . S
C999 O995 1.259 . S
C999 O996 1.265 . S
O1000 Eu985 2.479 . S
O1000 C1015 1.238 . S
O1001 Eu985 2.471 . S
O1001 C1015 1.247 . S
O1002 Eu985 2.347 . S
O1002 C986 1.259 . S
O1003 Tb984 2.418 . S
O1003 C986 1.265 . S
O1004 Tb984 2.384 . S
O1004 C987 1.255 . S
O1005 Eu985 2.366 . S
O1005 C987 1.265 . S
C1006 O997 1.255 . S
C1006 O998 1.265 . S
O1007 Tb984 2.479 . S
O1007 C994 1.238 . S
O1008 Tb984 2.471 . S
O1008 C994 1.247 . S
C1009 C1012 1.380 . S
C1009 C1013 1.374 . S
C1009 C1015 1.507 . S
C1010 C1011 1.387 . S
C1010 C1014 1.391 . S
C1011 C1010 1.387 . S
C1011 C1012 1.384 . S
C1011 H1020 0.930 . S
C1012 C1009 1.380 . S
C1012 C1011 1.384 . S
C1012 H1021 0.931 . S
C1013 C1009 1.374 . S
C1013 C1014 1.390 . S
C1013 H1022 0.930 . S
C1014 C1010 1.391 . S
C1014 C1013 1.390 . S
C1014 H1023 0.930 . S
C1015 Eu985 2.825 . S
C1015 O1000 1.238 . S
C1015 O1001 1.247 . S
C1015 C1009 1.507 . S
H1016 C989 0.930 . S
H1017 C990 0.931 . S
H1018 C991 0.930 . S
H1019 C992 0.930 . S
H1020 C1011 0.930 . S
H1021 C1012 0.931 . S
H1022 C1013 0.930 . S
H1023 C1014 0.930 . S
Tb1024 C1034 2.825 . S
Tb1024 O1035 2.347 . S
Tb1024 O1038 2.366 . S
Tb1024 O1043 2.418 . S
Tb1024 O1044 2.384 . S
Tb1024 O1047 2.479 . S
Tb1024 O1048 2.471 . S
Eu1025 O1036 2.433 . S
Eu1025 O1037 2.384 . S
Eu1025 O1040 2.479 . S
Eu1025 O1041 2.471 . S
Eu1025 O1042 2.347 . S
Eu1025 O1045 2.366 . S
Eu1025 C1055 2.825 . S
C1026 O1042 1.259 . S
C1026 O1043 1.265 . S
C1027 O1044 1.255 . S
C1027 O1045 1.265 . S
C1028 C1030 1.380 . S
C1028 C1031 1.374 1_455 S
C1028 C1034 1.507 . S
C1029 C1030 1.384 . S
C1029 C1033 1.387 1_455 S
C1029 H1056 0.930 . S
C1030 C1028 1.380 . S
C1030 C1029 1.384 . S
C1030 H1057 0.931 . S
C1031 C1028 1.374 1_655 S
C1031 C1032 1.390 . S
C1031 H1058 0.930 . S
C1032 C1031 1.390 . S
C1032 C1033 1.391 . S
C1032 H1059 0.930 . S
C1033 C1029 1.387 1_655 S
C1033 C1032 1.391 . S
C1034 Tb1024 2.825 . S
C1034 C1028 1.507 . S
C1034 O1047 1.238 . S
C1034 O1048 1.247 . S
O1035 Tb1024 2.347 . S
O1035 C1039 1.259 1_455 S
O1036 Eu1025 2.433 . S
O1036 C1039 1.265 1_455 S
O1037 Eu1025 2.384 . S
O1037 C1046 1.255 . S
O1038 Tb1024 2.366 . S
O1038 C1046 1.265 . S
C1039 O1035 1.259 1_655 S
C1039 O1036 1.265 1_655 S
O1040 Eu1025 2.479 . S
O1040 C1055 1.238 . S
O1041 Eu1025 2.471 . S
O1041 C1055 1.247 . S
O1042 Eu1025 2.347 . S
O1042 C1026 1.259 . S
O1043 Tb1024 2.418 . S
O1043 C1026 1.265 . S
O1044 Tb1024 2.384 . S
O1044 C1027 1.255 . S
O1045 Eu1025 2.366 . S
O1045 C1027 1.265 . S
C1046 O1037 1.255 . S
C1046 O1038 1.265 . S
O1047 Tb1024 2.479 . S
O1047 C1034 1.238 . S
O1048 Tb1024 2.471 . S
O1048 C1034 1.247 . S
C1049 C1052 1.380 . S
C1049 C1053 1.374 . S
C1049 C1055 1.507 . S
C1050 C1051 1.387 . S
C1050 C1054 1.391 . S
C1051 C1050 1.387 . S
C1051 C1052 1.384 . S
C1051 H1060 0.930 . S
C1052 C1049 1.380 . S
C1052 C1051 1.384 . S
C1052 H1061 0.931 . S
C1053 C1049 1.374 . S
C1053 C1054 1.390 . S
C1053 H1062 0.930 . S
C1054 C1050 1.391 . S
C1054 C1053 1.390 . S
C1054 H1063 0.930 . S
C1055 Eu1025 2.825 . S
C1055 O1040 1.238 . S
C1055 O1041 1.247 . S
C1055 C1049 1.507 . S
H1056 C1029 0.930 . S
H1057 C1030 0.931 . S
H1058 C1031 0.930 . S
H1059 C1032 0.930 . S
H1060 C1051 0.930 . S
H1061 C1052 0.931 . S
H1062 C1053 0.930 . S
H1063 C1054 0.930 . S
Tb1064 C1074 2.825 . S
Tb1064 O1075 2.347 . S
Tb1064 O1078 2.366 . S
Tb1064 O1083 2.418 . S
Tb1064 O1084 2.384 . S
Tb1064 O1087 2.479 . S
Tb1064 O1088 2.471 . S
Eu1065 O1076 2.418 . S
Eu1065 O1077 2.384 . S
Eu1065 O1080 2.479 . S
Eu1065 O1081 2.471 . S
Eu1065 O1082 2.347 . S
Eu1065 O1085 2.366 . S
Eu1065 C1095 2.825 . S
C1066 O1082 1.259 . S
C1066 O1083 1.265 . S
C1067 O1084 1.255 . S
C1067 O1085 1.265 . S
C1068 C1070 1.380 . S
C1068 C1071 1.374 . S
C1068 C1074 1.507 . S
C1069 C1070 1.384 . S
C1069 C1073 1.387 . S
C1069 H1096 0.930 . S
C1070 C1068 1.380 . S
C1070 C1069 1.384 . S
C1070 H1097 0.931 . S
C1071 C1068 1.374 . S
C1071 C1072 1.390 . S
C1071 H1098 0.930 . S
C1072 C1071 1.390 . S
C1072 C1073 1.391 . S
C1072 H1099 0.930 . S
C1073 C1069 1.387 . S
C1073 C1072 1.391 . S
C1074 Tb1064 2.825 . S
C1074 C1068 1.507 . S
C1074 O1087 1.238 . S
C1074 O1088 1.247 . S
O1075 Tb1064 2.347 . S
O1075 C1079 1.259 . S
O1076 Eu1065 2.418 . S
O1076 C1079 1.265 . S
O1077 Eu1065 2.384 . S
O1077 C1086 1.255 . S
O1078 Tb1064 2.366 . S
O1078 C1086 1.265 . S
C1079 O1075 1.259 . S
C1079 O1076 1.265 . S
O1080 Eu1065 2.479 . S
O1080 C1095 1.238 . S
O1081 Eu1065 2.471 . S
O1081 C1095 1.247 . S
O1082 Eu1065 2.347 . S
O1082 C1066 1.259 . S
O1083 Tb1064 2.418 . S
O1083 C1066 1.265 . S
O1084 Tb1064 2.384 . S
O1084 C1067 1.255 . S
O1085 Eu1065 2.366 . S
O1085 C1067 1.265 . S
C1086 O1077 1.255 . S
C1086 O1078 1.265 . S
O1087 Tb1064 2.479 . S
O1087 C1074 1.238 . S
O1088 Tb1064 2.471 . S
O1088 C1074 1.247 . S
C1089 C1092 1.380 . S
C1089 C1093 1.374 . S
C1089 C1095 1.507 . S
C1090 C1091 1.387 . S
C1090 C1094 1.391 . S
C1091 C1090 1.387 . S
C1091 C1092 1.384 . S
C1091 H1100 0.930 . S
C1092 C1089 1.380 . S
C1092 C1091 1.384 . S
C1092 H1101 0.931 . S
C1093 C1089 1.374 . S
C1093 C1094 1.390 . S
C1093 H1102 0.930 . S
C1094 C1090 1.391 . S
C1094 C1093 1.390 . S
C1094 H1103 0.930 . S
C1095 Eu1065 2.825 . S
C1095 O1080 1.238 . S
C1095 O1081 1.247 . S
C1095 C1089 1.507 . S
H1096 C1069 0.930 . S
H1097 C1070 0.931 . S
H1098 C1071 0.930 . S
H1099 C1072 0.930 . S
H1100 C1091 0.930 . S
H1101 C1092 0.931 . S
H1102 C1093 0.930 . S
H1103 C1094 0.930 . S
Tb1104 C1114 2.825 . S
Tb1104 O1115 2.347 . S
Tb1104 O1118 2.366 . S
Tb1104 O1123 2.418 . S
Tb1104 O1124 2.384 . S
Tb1104 O1127 2.479 . S
Tb1104 O1128 2.471 . S
Eu1105 O1116 2.418 1_556 S
Eu1105 O1117 2.384 1_556 S
Eu1105 O1120 2.479 . S
Eu1105 O1121 2.471 . S
Eu1105 O1122 2.347 1_556 S
Eu1105 O1125 2.366 . S
Eu1105 C1135 2.825 . S
C1106 O1122 1.259 . S
C1106 O1123 1.265 . S
C1107 O1124 1.255 . S
C1107 O1125 1.265 1_554 S
C1108 C1110 1.380 . S
C1108 C1111 1.374 . S
C1108 C1114 1.507 . S
C1109 C1110 1.384 . S
C1109 C1113 1.387 . S
C1109 H1136 0.930 1_545 S
C1110 C1108 1.380 . S
C1110 C1109 1.384 . S
C1110 H1137 0.931 . S
C1111 C1108 1.374 . S
C1111 C1112 1.390 . S
C1111 H1138 0.930 . S
C1112 C1111 1.390 . S
C1112 C1113 1.391 . S
C1112 H1139 0.930 . S
C1113 C1109 1.387 . S
C1113 C1112 1.391 . S
C1114 Tb1104 2.825 . S
C1114 C1108 1.507 . S
C1114 O1127 1.238 . S
C1114 O1128 1.247 . S
O1115 Tb1104 2.347 . S
O1115 C1119 1.259 . S
O1116 Eu1105 2.418 1_554 S
O1116 C1119 1.265 . S
O1117 Eu1105 2.384 1_554 S
O1117 C1126 1.255 . S
O1118 Tb1104 2.366 . S
O1118 C1126 1.265 . S
C1119 O1115 1.259 . S
C1119 O1116 1.265 . S
O1120 Eu1105 2.479 . S
O1120 C1135 1.238 . S
O1121 Eu1105 2.471 . S
O1121 C1135 1.247 . S
O1122 Eu1105 2.347 1_554 S
O1122 C1106 1.259 . S
O1123 Tb1104 2.418 . S
O1123 C1106 1.265 . S
O1124 Tb1104 2.384 . S
O1124 C1107 1.255 . S
O1125 Eu1105 2.366 . S
O1125 C1107 1.265 1_556 S
C1126 O1117 1.255 . S
C1126 O1118 1.265 . S
O1127 Tb1104 2.479 . S
O1127 C1114 1.238 . S
O1128 Tb1104 2.471 . S
O1128 C1114 1.247 . S
C1129 C1132 1.380 . S
C1129 C1133 1.374 . S
C1129 C1135 1.507 . S
C1130 C1131 1.387 . S
C1130 C1134 1.391 . S
C1131 C1130 1.387 . S
C1131 C1132 1.384 . S
C1131 H1140 0.930 . S
C1132 C1129 1.380 . S
C1132 C1131 1.384 . S
C1132 H1141 0.931 . S
C1133 C1129 1.374 . S
C1133 C1134 1.390 . S
C1133 H1142 0.930 . S
C1134 C1130 1.391 . S
C1134 C1133 1.390 . S
C1134 H1143 0.930 . S
C1135 Eu1105 2.825 . S
C1135 O1120 1.238 . S
C1135 O1121 1.247 . S
C1135 C1129 1.507 . S
H1136 C1109 0.930 1_565 S
H1137 C1110 0.931 . S
H1138 C1111 0.930 . S
H1139 C1112 0.930 . S
H1140 C1131 0.930 . S
H1141 C1132 0.931 . S
H1142 C1133 0.930 . S
H1143 C1134 0.930 . S
Tb1144 C1154 2.825 . S
Tb1144 O1155 2.347 . S
Tb1144 O1158 2.366 . S
Tb1144 O1163 2.418 . S
Tb1144 O1164 2.384 . S
Tb1144 O1167 2.479 . S
Tb1144 O1168 2.471 . S
Eu1145 O1156 2.418 . S
Eu1145 O1157 2.384 . S
Eu1145 O1160 2.479 . S
Eu1145 O1161 2.471 . S
Eu1145 O1162 2.347 . S
Eu1145 O1165 2.366 . S
Eu1145 C1175 2.825 . S
C1146 O1162 1.259 . S
C1146 O1163 1.265 . S
C1147 O1164 1.255 . S
C1147 O1165 1.265 . S
C1148 C1150 1.380 . S
C1148 C1151 1.374 . S
C1148 C1154 1.507 . S
C1149 C1150 1.384 . S
C1149 C1153 1.387 . S
C1149 H1176 0.930 . S
C1150 C1148 1.380 . S
C1150 C1149 1.384 . S
C1150 H1177 0.931 . S
C1151 C1148 1.374 . S
C1151 C1152 1.390 . S
C1151 H1178 0.930 . S
C1152 C1151 1.390 . S
C1152 C1153 1.391 . S
C1152 H1179 0.930 . S
C1153 C1149 1.387 . S
C1153 C1152 1.391 . S
C1154 Tb1144 2.825 . S
C1154 C1148 1.507 . S
C1154 O1167 1.238 . S
C1154 O1168 1.247 . S
O1155 Tb1144 2.347 . S
O1155 C1159 1.259 . S
O1156 Eu1145 2.418 . S
O1156 C1159 1.265 . S
O1157 Eu1145 2.384 . S
O1157 C1166 1.255 . S
O1158 Tb1144 2.366 . S
O1158 C1166 1.265 . S
C1159 O1155 1.259 . S
C1159 O1156 1.265 . S
O1160 Eu1145 2.479 . S
O1160 C1175 1.238 . S
O1161 Eu1145 2.471 . S
O1161 C1175 1.247 . S
O1162 Eu1145 2.347 . S
O1162 C1146 1.259 . S
O1163 Tb1144 2.418 . S
O1163 C1146 1.265 . S
O1164 Tb1144 2.384 . S
O1164 C1147 1.255 . S
O1165 Eu1145 2.366 . S
O1165 C1147 1.265 . S
C1166 O1157 1.255 . S
C1166 O1158 1.265 . S
O1167 Tb1144 2.479 . S
O1167 C1154 1.238 . S
O1168 Tb1144 2.471 . S
O1168 C1154 1.247 . S
C1169 C1172 1.380 . S
C1169 C1173 1.374 . S
C1169 C1175 1.507 . S
C1170 C1171 1.387 . S
C1170 C1174 1.391 . S
C1171 C1170 1.387 . S
C1171 C1172 1.384 . S
C1171 H1180 0.930 . S
C1172 C1169 1.380 . S
C1172 C1171 1.384 . S
C1172 H1181 0.931 . S
C1173 C1169 1.374 . S
C1173 C1174 1.390 . S
C1173 H1182 0.930 . S
C1174 C1170 1.391 . S
C1174 C1173 1.390 . S
C1174 H1183 0.930 . S
C1175 Eu1145 2.825 . S
C1175 O1160 1.238 . S
C1175 O1161 1.247 . S
C1175 C1169 1.507 . S
H1176 C1149 0.930 . S
H1177 C1150 0.931 . S
H1178 C1151 0.930 . S
H1179 C1152 0.930 . S
H1180 C1171 0.930 . S
H1181 C1172 0.931 . S
H1182 C1173 0.930 . S
H1183 C1174 0.930 . S
Tb1184 C1194 2.825 . S
Tb1184 O1195 2.347 1_556 S
Tb1184 O1198 2.366 . S
Tb1184 O1203 2.418 . S
Tb1184 O1204 2.384 1_556 S
Tb1184 O1207 2.479 . S
Tb1184 O1208 2.471 . S
Eu1185 O1196 2.418 . S
Eu1185 O1197 2.384 . S
Eu1185 O1200 2.479 . S
Eu1185 O1201 2.471 . S
Eu1185 O1202 2.347 . S
Eu1185 O1205 2.366 . S
Eu1185 C1215 2.825 . S
C1186 O1202 1.259 . S
C1186 O1203 1.265 1_554 S
C1187 O1204 1.255 . S
C1187 O1205 1.265 . S
C1188 C1190 1.380 . S
C1188 C1191 1.374 . S
C1188 C1194 1.507 . S
C1189 C1190 1.384 . S
C1189 C1193 1.387 . S
C1189 H1216 0.930 . S
C1190 C1188 1.380 . S
C1190 C1189 1.384 . S
C1190 H1217 0.931 . S
C1191 C1188 1.374 . S
C1191 C1192 1.390 . S
C1191 H1218 0.930 . S
C1192 C1191 1.390 . S
C1192 C1193 1.391 . S
C1192 H1219 0.930 . S
C1193 C1189 1.387 . S
C1193 C1192 1.391 . S
C1194 Tb1184 2.825 . S
C1194 C1188 1.507 . S
C1194 O1207 1.238 . S
C1194 O1208 1.247 . S
O1195 Tb1184 2.347 1_554 S
O1195 C1199 1.259 . S
O1196 Eu1185 2.418 . S
O1196 C1199 1.265 . S
O1197 Eu1185 2.384 . S
O1197 C1206 1.255 1_554 S
O1198 Tb1184 2.366 . S
O1198 C1206 1.265 . S
C1199 O1195 1.259 . S
C1199 O1196 1.265 . S
O1200 Eu1185 2.479 . S
O1200 C1215 1.238 . S
O1201 Eu1185 2.471 . S
O1201 C1215 1.247 . S
O1202 Eu1185 2.347 . S
O1202 C1186 1.259 . S
O1203 Tb1184 2.418 . S
O1203 C1186 1.265 1_556 S
O1204 Tb1184 2.384 1_554 S
O1204 C1187 1.255 . S
O1205 Eu1185 2.366 . S
O1205 C1187 1.265 . S
C1206 O1197 1.255 1_556 S
C1206 O1198 1.265 . S
O1207 Tb1184 2.479 . S
O1207 C1194 1.238 . S
O1208 Tb1184 2.471 . S
O1208 C1194 1.247 . S
C1209 C1212 1.380 . S
C1209 C1213 1.374 . S
C1209 C1215 1.507 . S
C1210 C1211 1.387 . S
C1210 C1214 1.391 . S
C1211 C1210 1.387 . S
C1211 C1212 1.384 . S
C1211 H1220 0.930 . S
C1212 C1209 1.380 . S
C1212 C1211 1.384 . S
C1212 H1221 0.931 . S
C1213 C1209 1.374 . S
C1213 C1214 1.390 . S
C1213 H1222 0.930 . S
C1214 C1210 1.391 . S
C1214 C1213 1.390 . S
C1214 H1223 0.930 . S
C1215 Eu1185 2.825 . S
C1215 O1200 1.238 . S
C1215 O1201 1.247 . S
C1215 C1209 1.507 . S
H1216 C1189 0.930 . S
H1217 C1190 0.931 . S
H1218 C1191 0.930 . S
H1219 C1192 0.930 . S
H1220 C1211 0.930 . S
H1221 C1212 0.931 . S
H1222 C1213 0.930 . S
H1223 C1214 0.930 . S
Tb1224 C1234 2.825 . S
Tb1224 O1235 2.347 . S
Tb1224 O1238 2.366 . S
Tb1224 O1243 2.418 . S
Tb1224 O1244 2.384 . S
Tb1224 O1247 2.479 . S
Tb1224 O1248 2.471 . S
Eu1225 O1236 2.418 . S
Eu1225 O1237 2.384 . S
Eu1225 O1240 2.479 . S
Eu1225 O1241 2.471 . S
Eu1225 O1242 2.347 . S
Eu1225 O1245 2.366 . S
Eu1225 C1255 2.825 . S
C1226 O1242 1.259 . S
C1226 O1243 1.265 . S
C1227 O1244 1.255 . S
C1227 O1245 1.265 . S
C1228 C1230 1.380 . S
C1228 C1231 1.374 . S
C1228 C1234 1.507 . S
C1229 C1230 1.384 . S
C1229 C1233 1.387 . S
C1229 H1256 0.930 . S
C1230 C1228 1.380 . S
C1230 C1229 1.384 . S
C1230 H1257 0.931 . S
C1231 C1228 1.374 . S
C1231 C1232 1.390 . S
C1231 H1258 0.930 . S
C1232 C1231 1.390 . S
C1232 C1233 1.391 . S
C1232 H1259 0.930 . S
C1233 C1229 1.387 . S
C1233 C1232 1.391 . S
C1234 Tb1224 2.825 . S
C1234 C1228 1.507 . S
C1234 O1247 1.238 . S
C1234 O1248 1.247 . S
O1235 Tb1224 2.347 . S
O1235 C1239 1.259 . S
O1236 Eu1225 2.418 . S
O1236 C1239 1.265 . S
O1237 Eu1225 2.384 . S
O1237 C1246 1.255 . S
O1238 Tb1224 2.366 . S
O1238 C1246 1.265 . S
C1239 O1235 1.259 . S
C1239 O1236 1.265 . S
O1240 Eu1225 2.479 . S
O1240 C1255 1.238 . S
O1241 Eu1225 2.471 . S
O1241 C1255 1.247 . S
O1242 Eu1225 2.347 . S
O1242 C1226 1.259 . S
O1243 Tb1224 2.418 . S
O1243 C1226 1.265 . S
O1244 Tb1224 2.384 . S
O1244 C1227 1.255 . S
O1245 Eu1225 2.366 . S
O1245 C1227 1.265 . S
C1246 O1237 1.255 . S
C1246 O1238 1.265 . S
O1247 Tb1224 2.479 . S
O1247 C1234 1.238 . S
O1248 Tb1224 2.471 . S
O1248 C1234 1.247 . S
C1249 C1252 1.380 . S
C1249 C1253 1.374 . S
C1249 C1255 1.507 . S
C1250 C1251 1.387 . S
C1250 C1254 1.391 . S
C1251 C1250 1.387 . S
C1251 C1252 1.384 . S
C1251 H1260 0.930 . S
C1252 C1249 1.380 . S
C1252 C1251 1.384 . S
C1252 H1261 0.931 . S
C1253 C1249 1.374 . S
C1253 C1254 1.390 . S
C1253 H1262 0.930 . S
C1254 C1250 1.391 . S
C1254 C1253 1.390 . S
C1254 H1263 0.930 . S
C1255 Eu1225 2.825 . S
C1255 O1240 1.238 . S
C1255 O1241 1.247 . S
C1255 C1249 1.507 . S
H1256 C1229 0.930 . S
H1257 C1230 0.931 . S
H1258 C1231 0.930 . S
H1259 C1232 0.930 . S
H1260 C1251 0.930 . S
H1261 C1252 0.931 . S
H1262 C1253 0.930 . S
H1263 C1254 0.930 . S
Tb1264 C1274 2.825 . S
Tb1264 O1275 2.347 . S
Tb1264 O1278 2.366 . S
Tb1264 O1283 2.418 . S
Tb1264 O1284 2.384 . S
Tb1264 O1287 2.479 . S
Tb1264 O1288 2.471 . S
Eu1265 O1276 2.418 . S
Eu1265 O1277 2.384 1_455 S
Eu1265 O1280 2.479 . S
Eu1265 O1281 2.471 . S
Eu1265 O1282 2.347 . S
Eu1265 O1285 2.366 . S
Eu1265 C1295 2.825 . S
C1266 O1282 1.259 . S
C1266 O1283 1.265 . S
C1267 O1284 1.255 . S
C1267 O1285 1.265 . S
C1268 C1270 1.380 . S
C1268 C1271 1.374 . S
C1268 C1274 1.507 . S
C1269 C1270 1.384 . S
C1269 C1273 1.387 . S
C1269 H1296 0.930 . S
C1270 C1268 1.380 . S
C1270 C1269 1.384 . S
C1270 H1297 0.931 . S
C1271 C1268 1.374 . S
C1271 C1272 1.390 . S
C1271 H1298 0.930 . S
C1272 C1271 1.390 . S
C1272 C1273 1.391 . S
C1272 H1299 0.930 . S
C1273 C1269 1.387 . S
C1273 C1272 1.391 . S
C1274 Tb1264 2.825 . S
C1274 C1268 1.507 . S
C1274 O1287 1.238 . S
C1274 O1288 1.247 . S
O1275 Tb1264 2.347 . S
O1275 C1279 1.259 . S
O1276 Eu1265 2.418 . S
O1276 C1279 1.265 . S
O1277 Eu1265 2.384 1_655 S
O1277 C1286 1.256 . S
O1278 Tb1264 2.366 . S
O1278 C1286 1.248 1_455 S
C1279 O1275 1.259 . S
C1279 O1276 1.265 . S
O1280 Eu1265 2.479 . S
O1280 C1295 1.238 . S
O1281 Eu1265 2.471 . S
O1281 C1295 1.247 . S
O1282 Eu1265 2.347 . S
O1282 C1266 1.259 . S
O1283 Tb1264 2.418 . S
O1283 C1266 1.265 . S
O1284 Tb1264 2.384 . S
O1284 C1267 1.255 . S
O1285 Eu1265 2.366 . S
O1285 C1267 1.265 . S
C1286 O1277 1.256 . S
C1286 O1278 1.248 1_655 S
O1287 Tb1264 2.479 . S
O1287 C1274 1.238 . S
O1288 Tb1264 2.471 . S
O1288 C1274 1.247 . S
C1289 C1292 1.380 . S
C1289 C1293 1.374 . S
C1289 C1295 1.507 . S
C1290 C1291 1.387 . S
C1290 C1294 1.391 . S
C1291 C1290 1.387 . S
C1291 C1292 1.384 . S
C1291 H1300 0.930 . S
C1292 C1289 1.380 . S
C1292 C1291 1.384 . S
C1292 H1301 0.931 . S
C1293 C1289 1.374 . S
C1293 C1294 1.390 . S
C1293 H1302 0.930 . S
C1294 C1290 1.391 . S
C1294 C1293 1.390 . S
C1294 H1303 0.930 . S
C1295 Eu1265 2.825 . S
C1295 O1280 1.238 . S
C1295 O1281 1.247 . S
C1295 C1289 1.507 . S
H1296 C1269 0.930 . S
H1297 C1270 0.931 . S
H1298 C1271 0.930 . S
H1299 C1272 0.930 . S
H1300 C1291 0.930 . S
H1301 C1292 0.931 . S
H1302 C1293 0.930 . S
H1303 C1294 0.930 . S
Tb1304 C1314 2.825 . S
Tb1304 O1315 2.347 . S
Tb1304 O1318 2.366 . S
Tb1304 O1323 2.418 . S
Tb1304 O1324 2.384 . S
Tb1304 O1327 2.479 . S
Tb1304 O1328 2.471 . S
Eu1305 O1316 2.418 . S
Eu1305 O1317 2.384 . S
Eu1305 O1320 2.479 . S
Eu1305 O1321 2.471 . S
Eu1305 O1322 2.347 . S
Eu1305 O1325 2.366 . S
Eu1305 C1335 2.825 . S
C1306 O1322 1.259 . S
C1306 O1323 1.265 . S
C1307 O1324 1.255 . S
C1307 O1325 1.265 . S
C1308 C1310 1.380 . S
C1308 C1311 1.374 . S
C1308 C1314 1.507 . S
C1309 C1310 1.384 . S
C1309 C1313 1.387 . S
C1309 H1336 0.930 . S
C1310 C1308 1.380 . S
C1310 C1309 1.384 . S
C1310 H1337 0.931 . S
C1311 C1308 1.374 . S
C1311 C1312 1.390 . S
C1311 H1338 0.930 . S
C1312 C1311 1.390 . S
C1312 C1313 1.391 . S
C1312 H1339 0.930 . S
C1313 C1309 1.387 . S
C1313 C1312 1.391 . S
C1314 Tb1304 2.825 . S
C1314 C1308 1.507 . S
C1314 O1327 1.238 . S
C1314 O1328 1.247 . S
O1315 Tb1304 2.347 . S
O1315 C1319 1.259 . S
O1316 Eu1305 2.418 . S
O1316 C1319 1.265 . S
O1317 Eu1305 2.384 . S
O1317 C1326 1.255 . S
O1318 Tb1304 2.366 . S
O1318 C1326 1.265 . S
C1319 O1315 1.259 . S
C1319 O1316 1.265 . S
O1320 Eu1305 2.479 . S
O1320 C1335 1.238 . S
O1321 Eu1305 2.471 . S
O1321 C1335 1.247 . S
O1322 Eu1305 2.347 . S
O1322 C1306 1.259 . S
O1323 Tb1304 2.418 . S
O1323 C1306 1.265 . S
O1324 Tb1304 2.384 . S
O1324 C1307 1.255 . S
O1325 Eu1305 2.366 . S
O1325 C1307 1.265 . S
C1326 O1317 1.255 . S
C1326 O1318 1.265 . S
O1327 Tb1304 2.479 . S
O1327 C1314 1.238 . S
O1328 Tb1304 2.471 . S
O1328 C1314 1.247 . S
C1329 C1332 1.380 . S
C1329 C1333 1.374 . S
C1329 C1335 1.507 . S
C1330 C1331 1.387 . S
C1330 C1334 1.391 . S
C1331 C1330 1.387 . S
C1331 C1332 1.384 . S
C1331 H1340 0.930 . S
C1332 C1329 1.380 . S
C1332 C1331 1.384 . S
C1332 H1341 0.931 . S
C1333 C1329 1.374 . S
C1333 C1334 1.390 . S
C1333 H1342 0.930 . S
C1334 C1330 1.391 . S
C1334 C1333 1.390 . S
C1334 H1343 0.930 . S
C1335 Eu1305 2.825 . S
C1335 O1320 1.238 . S
C1335 O1321 1.247 . S
C1335 C1329 1.507 . S
H1336 C1309 0.930 . S
H1337 C1310 0.931 . S
H1338 C1311 0.930 . S
H1339 C1312 0.930 . S
H1340 C1331 0.930 . S
H1341 C1332 0.931 . S
H1342 C1333 0.930 . S
H1343 C1334 0.930 . S
Tb1344 C1354 2.825 . S
Tb1344 O1355 2.347 . S
Tb1344 O1358 2.366 . S
Tb1344 O1363 2.418 . S
Tb1344 O1364 2.384 . S
Tb1344 O1367 2.479 . S
Tb1344 O1368 2.471 . S
Eu1345 O1356 2.418 . S
Eu1345 O1357 2.384 . S
Eu1345 O1360 2.479 . S
Eu1345 O1361 2.471 . S
Eu1345 O1362 2.347 . S
Eu1345 O1365 2.366 . S
Eu1345 C1375 2.825 . S
C1346 O1362 1.259 . S
C1346 O1363 1.265 . S
C1347 O1364 1.255 . S
C1347 O1365 1.265 . S
C1348 C1350 1.380 . S
C1348 C1351 1.374 . S
C1348 C1354 1.507 . S
C1349 C1350 1.384 . S
C1349 C1353 1.387 . S
C1349 H1376 0.930 . S
C1350 C1348 1.380 . S
C1350 C1349 1.384 . S
C1350 H1377 0.931 . S
C1351 C1348 1.374 . S
C1351 C1352 1.390 . S
C1351 H1378 0.930 . S
C1352 C1351 1.390 . S
C1352 C1353 1.391 . S
C1352 H1379 0.930 . S
C1353 C1349 1.387 . S
C1353 C1352 1.391 . S
C1354 Tb1344 2.825 . S
C1354 C1348 1.507 . S
C1354 O1367 1.238 . S
C1354 O1368 1.247 . S
O1355 Tb1344 2.347 . S
O1355 C1359 1.259 . S
O1356 Eu1345 2.418 . S
O1356 C1359 1.265 . S
O1357 Eu1345 2.384 . S
O1357 C1366 1.255 . S
O1358 Tb1344 2.366 . S
O1358 C1366 1.265 . S
C1359 O1355 1.259 . S
C1359 O1356 1.265 . S
O1360 Eu1345 2.479 . S
O1360 C1375 1.238 . S
O1361 Eu1345 2.471 . S
O1361 C1375 1.247 . S
O1362 Eu1345 2.347 . S
O1362 C1346 1.259 . S
O1363 Tb1344 2.418 . S
O1363 C1346 1.265 . S
O1364 Tb1344 2.384 . S
O1364 C1347 1.255 . S
O1365 Eu1345 2.366 . S
O1365 C1347 1.265 . S
C1366 O1357 1.255 . S
C1366 O1358 1.265 . S
O1367 Tb1344 2.479 . S
O1367 C1354 1.238 . S
O1368 Tb1344 2.471 . S
O1368 C1354 1.247 . S
C1369 C1372 1.380 . S
C1369 C1373 1.374 . S
C1369 C1375 1.507 . S
C1370 C1371 1.387 . S
C1370 C1374 1.391 . S
C1371 C1370 1.387 . S
C1371 C1372 1.384 . S
C1371 H1380 0.930 . S
C1372 C1369 1.380 . S
C1372 C1371 1.384 . S
C1372 H1381 0.931 . S
C1373 C1369 1.374 . S
C1373 C1374 1.390 . S
C1373 H1382 0.930 . S
C1374 C1370 1.391 . S
C1374 C1373 1.390 . S
C1374 H1383 0.930 . S
C1375 Eu1345 2.825 . S
C1375 O1360 1.238 . S
C1375 O1361 1.247 . S
C1375 C1369 1.507 . S
H1376 C1349 0.930 . S
H1377 C1350 0.931 . S
H1378 C1351 0.930 . S
H1379 C1352 0.930 . S
H1380 C1371 0.930 . S
H1381 C1372 0.931 . S
H1382 C1373 0.930 . S
H1383 C1374 0.930 . S
Tb1384 C1394 2.825 . S
Tb1384 O1395 2.347 . S
Tb1384 O1398 2.366 . S
Tb1384 O1403 2.418 . S
Tb1384 O1404 2.384 . S
Tb1384 O1407 2.479 . S
Tb1384 O1408 2.471 . S
Eu1385 O1396 2.418 . S
Eu1385 O1397 2.384 . S
Eu1385 O1400 2.479 . S
Eu1385 O1401 2.471 . S
Eu1385 O1402 2.347 . S
Eu1385 O1405 2.366 . S
Eu1385 C1415 2.825 . S
C1386 O1402 1.259 . S
C1386 O1403 1.265 . S
C1387 O1404 1.255 . S
C1387 O1405 1.265 . S
C1388 C1390 1.380 . S
C1388 C1391 1.374 . S
C1388 C1394 1.507 . S
C1389 C1390 1.384 . S
C1389 C1393 1.387 . S
C1389 H1416 0.930 . S
C1390 C1388 1.380 . S
C1390 C1389 1.384 . S
C1390 H1417 0.931 . S
C1391 C1388 1.374 . S
C1391 C1392 1.390 . S
C1391 H1418 0.930 . S
C1392 C1391 1.390 . S
C1392 C1393 1.391 . S
C1392 H1419 0.930 . S
C1393 C1389 1.387 . S
C1393 C1392 1.391 . S
C1394 Tb1384 2.825 . S
C1394 C1388 1.507 . S
C1394 O1407 1.238 . S
C1394 O1408 1.247 . S
O1395 Tb1384 2.347 . S
O1395 C1399 1.259 . S
O1396 Eu1385 2.418 . S
O1396 C1399 1.265 . S
O1397 Eu1385 2.384 . S
O1397 C1406 1.255 . S
O1398 Tb1384 2.366 . S
O1398 C1406 1.265 . S
C1399 O1395 1.259 . S
C1399 O1396 1.265 . S
O1400 Eu1385 2.479 . S
O1400 C1415 1.238 . S
O1401 Eu1385 2.471 . S
O1401 C1415 1.247 . S
O1402 Eu1385 2.347 . S
O1402 C1386 1.259 . S
O1403 Tb1384 2.418 . S
O1403 C1386 1.265 . S
O1404 Tb1384 2.384 . S
O1404 C1387 1.255 . S
O1405 Eu1385 2.366 . S
O1405 C1387 1.265 . S
C1406 O1397 1.255 . S
C1406 O1398 1.265 . S
O1407 Tb1384 2.479 . S
O1407 C1394 1.238 . S
O1408 Tb1384 2.471 . S
O1408 C1394 1.247 . S
C1409 C1412 1.380 . S
C1409 C1413 1.374 . S
C1409 C1415 1.507 . S
C1410 C1411 1.387 . S
C1410 C1414 1.391 . S
C1411 C1410 1.387 . S
C1411 C1412 1.384 . S
C1411 H1420 0.930 . S
C1412 C1409 1.380 . S
C1412 C1411 1.384 . S
C1412 H1421 0.931 . S
C1413 C1409 1.374 . S
C1413 C1414 1.390 . S
C1413 H1422 0.930 . S
C1414 C1410 1.391 . S
C1414 C1413 1.390 . S
C1414 H1423 0.930 . S
C1415 Eu1385 2.825 . S
C1415 O1400 1.238 . S
C1415 O1401 1.247 . S
C1415 C1409 1.507 . S
H1416 C1389 0.930 . S
H1417 C1390 0.931 . S
H1418 C1391 0.930 . S
H1419 C1392 0.930 . S
H1420 C1411 0.930 . S
H1421 C1412 0.931 . S
H1422 C1413 0.930 . S
H1423 C1414 0.930 . S
Tb1424 C1434 2.825 . S
Tb1424 O1435 2.347 . S
Tb1424 O1438 2.366 . S
Tb1424 O1443 2.418 . S
Tb1424 O1444 2.384 . S
Tb1424 O1447 2.479 . S
Tb1424 O1448 2.471 . S
Eu1425 O1436 2.418 . S
Eu1425 O1437 2.384 . S
Eu1425 O1440 2.479 . S
Eu1425 O1441 2.471 . S
Eu1425 O1442 2.347 . S
Eu1425 O1445 2.366 . S
Eu1425 C1455 2.825 . S
C1426 O1442 1.259 . S
C1426 O1443 1.265 . S
C1427 O1444 1.255 . S
C1427 O1445 1.265 . S
C1428 C1430 1.380 . S
C1428 C1431 1.374 . S
C1428 C1434 1.507 . S
C1429 C1430 1.384 . S
C1429 C1433 1.387 . S
C1429 H1456 0.930 . S
C1430 C1428 1.380 . S
C1430 C1429 1.384 . S
C1430 H1457 0.931 . S
C1431 C1428 1.374 . S
C1431 C1432 1.390 . S
C1431 H1458 0.930 . S
C1432 C1431 1.390 . S
C1432 C1433 1.391 . S
C1432 H1459 0.930 . S
C1433 C1429 1.387 . S
C1433 C1432 1.391 . S
C1434 Tb1424 2.825 . S
C1434 C1428 1.507 . S
C1434 O1447 1.238 . S
C1434 O1448 1.247 . S
O1435 Tb1424 2.347 . S
O1435 C1439 1.259 . S
O1436 Eu1425 2.418 . S
O1436 C1439 1.265 . S
O1437 Eu1425 2.384 . S
O1437 C1446 1.255 . S
O1438 Tb1424 2.366 . S
O1438 C1446 1.265 . S
C1439 O1435 1.259 . S
C1439 O1436 1.265 . S
O1440 Eu1425 2.479 . S
O1440 C1455 1.238 . S
O1441 Eu1425 2.471 . S
O1441 C1455 1.247 . S
O1442 Eu1425 2.347 . S
O1442 C1426 1.259 . S
O1443 Tb1424 2.418 . S
O1443 C1426 1.265 . S
O1444 Tb1424 2.384 . S
O1444 C1427 1.255 . S
O1445 Eu1425 2.366 . S
O1445 C1427 1.265 . S
C1446 O1437 1.255 . S
C1446 O1438 1.265 . S
O1447 Tb1424 2.479 . S
O1447 C1434 1.238 . S
O1448 Tb1424 2.471 . S
O1448 C1434 1.247 . S
C1449 C1452 1.380 . S
C1449 C1453 1.374 . S
C1449 C1455 1.507 . S
C1450 C1451 1.387 . S
C1450 C1454 1.391 . S
C1451 C1450 1.387 . S
C1451 C1452 1.384 . S
C1451 H1460 0.930 . S
C1452 C1449 1.380 . S
C1452 C1451 1.384 . S
C1452 H1461 0.931 . S
C1453 C1449 1.374 . S
C1453 C1454 1.390 . S
C1453 H1462 0.930 . S
C1454 C1450 1.391 . S
C1454 C1453 1.390 . S
C1454 H1463 0.930 . S
C1455 Eu1425 2.825 . S
C1455 O1440 1.238 . S
C1455 O1441 1.247 . S
C1455 C1449 1.507 . S
H1456 C1429 0.930 . S
H1457 C1430 0.931 . S
H1458 C1431 0.930 . S
H1459 C1432 0.930 . S
H1460 C1451 0.930 . S
H1461 C1452 0.931 . S
H1462 C1453 0.930 . S
H1463 C1454 0.930 . S
Tb1464 C1474 2.825 1_554 S
Tb1464 O1475 2.347 1_554 S
Tb1464 O1478 2.366 . S
Tb1464 O1483 2.418 . S
Tb1464 O1484 2.384 . S
Tb1464 O1487 2.479 . S
Tb1464 O1488 2.471 1_554 S
Eu1465 O1476 2.418 1_554 S
Eu1465 O1477 2.384 . S
Eu1465 O1480 2.479 . S
Eu1465 O1481 2.471 . S
Eu1465 O1482 2.347 . S
Eu1465 O1485 2.366 . S
Eu1465 C1495 2.825 . S
C1466 O1482 1.259 . S
C1466 O1483 1.265 . S
C1467 O1484 1.255 . S
C1467 O1485 1.265 . S
C1468 C1470 1.380 . S
C1468 C1471 1.374 . S
C1468 C1474 1.507 . S
C1469 C1470 1.384 . S
C1469 C1473 1.387 . S
C1469 H1496 0.930 . S
C1470 C1468 1.380 . S
C1470 C1469 1.384 . S
C1470 H1497 0.931 1_556 S
C1471 C1468 1.374 . S
C1471 C1472 1.390 . S
C1471 H1498 0.930 . S
C1472 C1471 1.390 . S
C1472 C1473 1.391 . S
C1472 H1499 0.930 . S
C1473 C1469 1.387 . S
C1473 C1472 1.391 . S
C1474 Tb1464 2.825 1_556 S
C1474 C1468 1.507 . S
C1474 O1487 1.238 1_556 S
C1474 O1488 1.247 . S
O1475 Tb1464 2.347 1_556 S
O1475 C1479 1.259 . S
O1476 Eu1465 2.418 1_556 S
O1476 C1479 1.265 . S
O1477 Eu1465 2.384 . S
O1477 C1486 1.255 . S
O1478 Tb1464 2.366 . S
O1478 C1486 1.265 . S
C1479 O1475 1.259 . S
C1479 O1476 1.265 . S
O1480 Eu1465 2.479 . S
O1480 C1495 1.238 . S
O1481 Eu1465 2.471 . S
O1481 C1495 1.247 . S
O1482 Eu1465 2.347 . S
O1482 C1466 1.259 . S
O1483 Tb1464 2.418 . S
O1483 C1466 1.265 . S
O1484 Tb1464 2.384 . S
O1484 C1467 1.255 . S
O1485 Eu1465 2.366 . S
O1485 C1467 1.265 . S
C1486 O1477 1.255 . S
C1486 O1478 1.265 . S
O1487 Tb1464 2.479 . S
O1487 C1474 1.238 1_554 S
O1488 Tb1464 2.471 1_556 S
O1488 C1474 1.247 . S
C1489 C1492 1.380 . S
C1489 C1493 1.374 . S
C1489 C1495 1.507 . S
C1490 C1491 1.387 . S
C1490 C1494 1.391 . S
C1491 C1490 1.387 . S
C1491 C1492 1.384 . S
C1491 H1500 0.930 . S
C1492 C1489 1.380 . S
C1492 C1491 1.384 . S
C1492 H1501 0.931 . S
C1493 C1489 1.374 . S
C1493 C1494 1.390 . S
C1493 H1502 0.930 . S
C1494 C1490 1.391 . S
C1494 C1493 1.390 . S
C1494 H1503 0.930 . S
C1495 Eu1465 2.825 . S
C1495 O1480 1.238 . S
C1495 O1481 1.247 . S
C1495 C1489 1.507 . S
H1496 C1469 0.930 . S
H1497 C1470 0.931 1_554 S
H1498 C1471 0.930 . S
H1499 C1472 0.930 . S
H1500 C1491 0.930 . S
H1501 C1492 0.931 . S
H1502 C1493 0.930 . S
H1503 C1494 0.930 . S
C1504 C1505 1.387 . S
C1504 H1508 0.950 . S
C1504 C1513 1.390 . S
C1505 C1504 1.387 . S
C1505 C1507 1.387 . S
H1506 C1513 0.950 . S
C1507 C1505 1.387 . S
C1507 C1509 1.419 . S
C1507 H1511 0.950 1_455 S
H1508 C1504 0.950 . S
C1509 C1507 1.419 . S
C1509 C1510 1.398 . S
C1509 H1512 0.911 1_556 S
C1510 C1509 1.398 . S
C1510 C1513 1.387 . S
H1511 C1507 0.950 1_655 S
H1512 C1509 0.911 1_554 S
C1513 C1504 1.390 . S
C1513 H1506 0.950 . S
C1513 C1510 1.387 . S
C1514 C1515 1.387 . S
C1514 H1518 0.950 . S
C1514 C1523 1.390 . S
C1515 C1514 1.387 . S
C1515 C1517 1.387 . S
H1516 C1523 0.950 . S
C1517 C1515 1.387 . S
C1517 C1519 1.390 . S
C1517 H1521 0.950 . S
H1518 C1514 0.950 . S
C1519 C1517 1.390 . S
C1519 C1520 1.387 . S
C1519 H1522 0.950 . S
C1520 C1519 1.387 . S
C1520 C1523 1.387 . S
H1521 C1517 0.950 . S
H1522 C1519 0.950 . S
C1523 C1514 1.390 . S
C1523 H1516 0.950 . S
C1523 C1520 1.387 . S
C1524 C1525 1.387 . S
C1524 H1528 0.950 . S
C1524 C1533 1.390 . S
C1525 C1524 1.387 . S
C1525 C1527 1.387 . S
H1526 C1533 0.950 . S
C1527 C1525 1.387 . S
C1527 C1529 1.390 . S
C1527 H1531 0.950 . S
H1528 C1524 0.950 . S
C1529 C1527 1.390 . S
C1529 C1530 1.387 . S
C1529 H1532 0.950 . S
C1530 C1529 1.387 . S
C1530 C1533 1.387 . S
H1531 C1527 0.950 . S
H1532 C1529 0.950 . S
C1533 C1524 1.390 . S
C1533 H1526 0.950 . S
C1533 C1530 1.387 . S
C1534 C1535 1.387 . S
C1534 H1538 0.950 . S
C1534 C1543 1.390 . S
C1535 C1534 1.387 . S
C1535 C1537 1.387 . S
H1536 C1543 0.950 . S
C1537 C1535 1.387 . S
C1537 C1539 1.390 . S
C1537 H1541 0.950 . S
H1538 C1534 0.950 . S
C1539 C1537 1.390 . S
C1539 C1540 1.387 . S
C1539 H1542 0.950 . S
C1540 C1539 1.387 . S
C1540 C1543 1.387 . S
H1541 C1537 0.950 . S
H1542 C1539 0.950 . S
C1543 C1534 1.390 . S
C1543 H1536 0.950 . S
C1543 C1540 1.387 . S
C1544 C1545 1.387 . S
C1544 H1548 0.950 . S
C1544 C1553 1.390 . S
C1545 C1544 1.387 . S
C1545 C1547 1.387 . S
H1546 C1553 0.950 . S
C1547 C1545 1.387 . S
C1547 C1549 1.390 . S
C1547 H1551 0.950 . S
H1548 C1544 0.950 . S
C1549 C1547 1.390 . S
C1549 C1550 1.387 . S
C1549 H1552 0.950 . S
C1550 C1549 1.387 . S
C1550 C1553 1.387 . S
H1551 C1547 0.950 . S
H1552 C1549 0.950 . S
C1553 C1544 1.390 . S
C1553 H1546 0.950 . S
C1553 C1550 1.387 . S
C1554 C1555 1.387 . S
C1554 H1558 0.950 . S
C1554 C1563 1.390 . S
C1555 C1554 1.387 . S
C1555 C1557 1.387 . S
H1556 C1563 0.950 . S
C1557 C1555 1.387 . S
C1557 C1559 1.390 . S
C1557 H1561 0.950 . S
H1558 C1554 0.950 . S
C1559 C1557 1.390 . S
C1559 C1560 1.387 . S
C1559 H1562 0.950 . S
C1560 C1559 1.387 . S
C1560 C1563 1.387 . S
H1561 C1557 0.950 . S
H1562 C1559 0.950 . S
C1563 C1554 1.390 . S
C1563 H1556 0.950 . S
C1563 C1560 1.387 . S
C1564 C1565 1.387 . S
C1564 H1568 0.950 . S
C1564 C1573 1.390 . S
C1565 C1564 1.387 . S
C1565 C1567 1.387 . S
H1566 C1573 0.950 . S
C1567 C1565 1.387 . S
C1567 C1569 1.390 . S
C1567 H1571 0.950 . S
H1568 C1564 0.950 . S
C1569 C1567 1.390 . S
C1569 C1570 1.387 . S
C1569 H1572 0.950 . S
C1570 C1569 1.387 . S
C1570 C1573 1.387 . S
H1571 C1567 0.950 . S
H1572 C1569 0.950 . S
C1573 C1564 1.390 . S
C1573 H1566 0.950 . S
C1573 C1570 1.387 . S
C1574 C1575 1.387 . S
C1574 H1578 0.950 . S
C1574 C1583 1.390 . S
C1575 C1574 1.387 . S
C1575 C1577 1.387 . S
H1576 C1583 0.950 . S
C1577 C1575 1.387 . S
C1577 C1579 1.390 . S
C1577 H1581 0.950 . S
H1578 C1574 0.950 . S
C1579 C1577 1.390 . S
C1579 C1580 1.387 . S
C1579 H1582 0.950 . S
C1580 C1579 1.387 . S
C1580 C1583 1.387 . S
H1581 C1577 0.950 . S
H1582 C1579 0.950 . S
C1583 C1574 1.390 . S
C1583 H1576 0.950 . S
C1583 C1580 1.387 . S
C1584 C1585 1.387 . S
C1584 H1588 0.950 . S
C1584 C1593 1.390 . S
C1585 C1584 1.387 . S
C1585 C1587 1.387 1_545 S
H1586 C1593 0.950 1_455 S
C1587 C1585 1.387 1_565 S
C1587 C1589 1.390 1_565 S
C1587 H1591 0.950 . S
H1588 C1584 0.950 . S
C1589 C1587 1.390 1_545 S
C1589 C1590 1.387 1_655 S
C1589 H1592 0.950 1_545 S
C1590 C1589 1.387 1_455 S
C1590 C1593 1.387 1_455 S
H1591 C1587 0.950 . S
H1592 C1589 0.950 1_565 S
C1593 C1584 1.390 . S
C1593 H1586 0.950 1_655 S
C1593 C1590 1.387 1_655 S
C1594 C1595 1.387 . S
C1594 H1598 0.950 . S
C1594 C1603 1.390 . S
C1595 C1594 1.387 . S
C1595 C1597 1.387 . S
H1596 C1603 0.950 . S
C1597 C1595 1.387 . S
C1597 C1599 1.390 . S
C1597 H1601 0.950 . S
H1598 C1594 0.950 . S
C1599 C1597 1.390 . S
C1599 C1600 1.387 . S
C1599 H1602 0.950 . S
C1600 C1599 1.387 . S
C1600 C1603 1.387 . S
H1601 C1597 0.950 . S
H1602 C1599 0.950 . S
C1603 C1594 1.390 . S
C1603 H1596 0.950 . S
C1603 C1600 1.387 . S
C1604 C1605 1.387 1_565 S
C1604 H1608 0.950 . S
C1604 C1613 1.390 1_565 S
C1605 C1604 1.387 1_545 S
C1605 C1607 1.387 . S
H1606 C1613 0.950 . S
C1607 C1605 1.387 . S
C1607 C1609 1.390 . S
C1607 H1611 0.950 . S
H1608 C1604 0.950 . S
C1609 C1607 1.390 . S
C1609 C1610 1.387 . S
C1609 H1612 0.950 . S
C1610 C1609 1.387 . S
C1610 C1613 1.387 . S
H1611 C1607 0.950 . S
H1612 C1609 0.950 . S
C1613 C1604 1.390 1_545 S
C1613 H1606 0.950 . S
C1613 C1610 1.387 . S
C1614 C1615 1.387 . S
C1614 H1618 0.950 . S
C1614 C1623 1.390 . S
C1615 C1614 1.387 . S
C1615 C1617 1.387 . S
H1616 C1623 0.950 . S
C1617 C1615 1.387 . S
C1617 C1619 1.390 . S
C1617 H1621 0.950 . S
H1618 C1614 0.950 . S
C1619 C1617 1.390 . S
C1619 C1620 1.387 . S
C1619 H1622 0.950 . S
C1620 C1619 1.387 . S
C1620 C1623 1.387 . S
H1621 C1617 0.950 . S
H1622 C1619 0.950 . S
C1623 C1614 1.390 . S
C1623 H1616 0.950 . S
C1623 C1620 1.387 . S
C1624 C1625 1.387 1_565 S
C1624 H1628 0.950 . S
C1624 C1633 1.390 1_565 S
C1625 C1624 1.387 1_545 S
C1625 C1627 1.387 . S
H1626 C1633 0.982 . S
C1627 C1625 1.387 . S
C1627 C1629 1.390 . S
C1627 H1631 0.950 . S
H1628 C1624 0.950 . S
C1629 C1627 1.390 . S
C1629 C1630 1.387 . S
C1629 H1632 0.950 . S
C1630 C1629 1.387 . S
C1630 C1633 1.387 . S
H1631 C1627 0.950 . S
H1632 C1629 0.950 . S
C1633 C1624 1.390 1_545 S
C1633 H1626 0.982 . S
C1633 C1630 1.387 . S
C1634 C1635 1.387 . S
C1634 H1638 0.950 . S
C1634 C1643 1.390 . S
C1635 C1634 1.387 . S
C1635 C1637 1.387 . S
H1636 C1643 0.950 . S
C1637 C1635 1.387 . S
C1637 C1639 1.390 . S
C1637 H1641 0.950 . S
H1638 C1634 0.950 . S
C1639 C1637 1.390 . S
C1639 C1640 1.387 . S
C1639 H1642 0.950 . S
C1640 C1639 1.387 . S
C1640 C1643 1.387 . S
H1641 C1637 0.950 . S
H1642 C1639 0.950 . S
C1643 C1634 1.390 . S
C1643 H1636 0.950 . S
C1643 C1640 1.387 . S
C1644 C1645 1.387 . S
C1644 H1648 0.950 . S
C1644 C1653 1.390 . S
C1645 C1644 1.387 . S
C1645 C1647 1.387 . S
H1646 C1653 0.950 . S
C1647 C1645 1.387 . S
C1647 C1649 1.390 . S
C1647 H1651 0.950 . S
H1648 C1644 0.950 . S
C1649 C1647 1.390 . S
C1649 C1650 1.387 . S
C1649 H1652 0.950 . S
C1650 C1649 1.387 . S
C1650 C1653 1.387 . S
H1651 C1647 0.950 . S
H1652 C1649 0.950 . S
C1653 C1644 1.390 . S
C1653 H1646 0.950 . S
C1653 C1650 1.387 . S
C1654 C1655 1.387 . S
C1654 H1658 0.950 . S
C1654 C1663 1.390 . S
C1655 C1654 1.387 . S
C1655 C1657 1.387 . S
H1656 C1663 0.950 . S
C1657 C1655 1.387 . S
C1657 C1659 1.390 . S
C1657 H1661 0.950 . S
H1658 C1654 0.950 . S
C1659 C1657 1.390 . S
C1659 C1660 1.387 . S
C1659 H1662 0.950 . S
C1660 C1659 1.387 . S
C1660 C1663 1.387 . S
H1661 C1657 0.950 . S
H1662 C1659 0.950 . S
C1663 C1654 1.390 . S
C1663 H1656 0.950 . S
C1663 C1660 1.387 . S
C1664 C1665 1.387 . S
C1664 H1668 0.950 . S
C1664 C1673 1.390 . S
C1665 C1664 1.387 . S
C1665 C1667 1.387 . S
H1666 C1673 0.950 . S
C1667 C1665 1.387 . S
C1667 C1669 1.390 . S
C1667 H1671 0.950 . S
H1668 C1664 0.950 . S
C1669 C1667 1.390 . S
C1669 C1670 1.387 . S
C1669 H1672 0.950 1_565 S
C1670 C1669 1.387 . S
C1670 C1673 1.387 . S
H1671 C1667 0.950 . S
H1672 C1669 0.950 1_545 S
C1673 C1664 1.390 . S
C1673 H1666 0.950 . S
C1673 C1670 1.387 . S
C1674 C1675 1.387 . S
C1674 H1678 0.950 1_554 S
C1674 C1683 1.390 . S
C1675 C1674 1.387 . S
C1675 C1677 1.387 . S
H1676 C1683 0.950 . S
C1677 C1675 1.387 . S
C1677 C1679 1.390 . S
C1677 H1681 0.950 . S
H1678 C1674 0.950 1_556 S
C1679 C1677 1.390 . S
C1679 C1680 1.387 . S
C1679 H1682 0.950 . S
C1680 C1679 1.387 . S
C1680 C1683 1.387 . S
H1681 C1677 0.950 . S
H1682 C1679 0.950 . S
C1683 C1674 1.390 . S
C1683 H1676 0.950 . S
C1683 C1680 1.387 . S
C1684 C1685 1.387 . S
C1684 H1688 0.950 . S
C1684 C1693 1.390 . S
C1685 C1684 1.387 . S
C1685 C1687 1.387 . S
H1686 C1693 0.950 . S
C1687 C1685 1.387 . S
C1687 C1689 1.390 . S
C1687 H1691 0.950 . S
H1688 C1684 0.950 . S
C1689 C1687 1.390 . S
C1689 C1690 1.387 . S
C1689 H1692 0.950 . S
C1690 C1689 1.387 . S
C1690 C1693 1.387 . S
H1691 C1687 0.950 . S
H1692 C1689 0.950 . S
C1693 C1684 1.390 . S
C1693 H1686 0.950 . S
C1693 C1690 1.387 . S
C1694 C1695 1.387 . S
C1694 H1698 0.950 . S
C1694 C1703 1.390 . S
C1695 C1694 1.387 . S
C1695 C1697 1.387 . S
H1696 C1703 0.950 . S
C1697 C1695 1.387 . S
C1697 C1699 1.390 . S
C1697 H1701 0.950 . S
H1698 C1694 0.950 . S
C1699 C1697 1.390 . S
C1699 C1700 1.387 . S
C1699 H1702 0.950 . S
C1700 C1699 1.387 . S
C1700 C1703 1.387 . S
H1701 C1697 0.950 . S
H1702 C1699 0.950 . S
C1703 C1694 1.390 . S
C1703 H1696 0.950 . S
C1703 C1700 1.387 . S
C1704 C1705 1.387 . S
C1704 H1708 0.950 . S
C1704 C1713 1.390 . S
C1705 C1704 1.387 . S
C1705 C1707 1.387 . S
H1706 C1713 0.950 . S
C1707 C1705 1.387 . S
C1707 C1709 1.390 . S
C1707 H1711 0.950 . S
H1708 C1704 0.950 . S
C1709 C1707 1.390 . S
C1709 C1710 1.387 . S
C1709 H1712 0.950 . S
C1710 C1709 1.387 . S
C1710 C1713 1.387 . S
H1711 C1707 0.950 . S
H1712 C1709 0.950 . S
C1713 C1704 1.390 . S
C1713 H1706 0.950 . S
C1713 C1710 1.387 . S
C1714 C1715 1.387 . S
C1714 H1718 0.950 . S
C1714 C1723 1.390 . S
C1715 C1714 1.387 . S
C1715 C1717 1.387 . S
H1716 C1723 0.950 . S
C1717 C1715 1.387 . S
C1717 C1719 1.390 . S
C1717 H1721 0.950 . S
H1718 C1714 0.950 . S
C1719 C1717 1.390 . S
C1719 C1720 1.387 . S
C1719 H1722 0.950 . S
C1720 C1719 1.387 . S
C1720 C1723 1.387 . S
H1721 C1717 0.950 . S
H1722 C1719 0.950 . S
C1723 C1714 1.390 . S
C1723 H1716 0.950 . S
C1723 C1720 1.387 . S
C1724 C1725 1.387 . S
C1724 H1728 0.950 . S
C1724 C1733 1.390 . S
C1725 C1724 1.387 . S
C1725 C1727 1.387 . S
H1726 C1733 0.950 . S
C1727 C1725 1.387 . S
C1727 C1729 1.390 . S
C1727 H1731 0.950 . S
H1728 C1724 0.950 . S
C1729 C1727 1.390 . S
C1729 C1730 1.387 . S
C1729 H1732 0.950 . S
C1730 C1729 1.387 . S
C1730 C1733 1.387 . S
H1731 C1727 0.950 . S
H1732 C1729 0.950 . S
C1733 C1724 1.390 . S
C1733 H1726 0.950 . S
C1733 C1730 1.387 . S
C1734 C1735 1.387 . S
C1734 H1738 0.950 . S
C1734 C1743 1.390 . S
C1735 C1734 1.387 . S
C1735 C1737 1.387 . S
H1736 C1743 0.950 . S
C1737 C1735 1.387 . S
C1737 C1739 1.390 . S
C1737 H1741 0.950 1_655 S
H1738 C1734 0.950 . S
C1739 C1737 1.390 . S
C1739 C1740 1.387 . S
C1739 H1742 0.950 . S
C1740 C1739 1.387 . S
C1740 C1743 1.387 . S
H1741 C1737 0.950 1_455 S
H1742 C1739 0.950 . S
C1743 C1734 1.390 . S
C1743 H1736 0.950 . S
C1743 C1740 1.387 . S
C1744 C1745 1.387 . S
C1744 H1748 0.950 . S
C1744 C1753 1.390 . S
C1745 C1744 1.387 . S
C1745 C1747 1.387 . S
H1746 C1753 0.950 1_545 S
C1747 C1745 1.387 . S
C1747 C1749 1.390 . S
C1747 H1751 0.950 . S
H1748 C1744 0.950 . S
C1749 C1747 1.390 . S
C1749 C1750 1.387 . S
C1749 H1752 0.950 . S
C1750 C1749 1.387 . S
C1750 C1753 1.387 . S
H1751 C1747 0.950 . S
H1752 C1749 0.950 . S
C1753 C1744 1.390 . S
C1753 H1746 0.950 1_565 S
C1753 C1750 1.387 . S
C1754 C1755 1.387 . S
C1754 H1758 0.950 . S
C1754 C1763 1.390 . S
C1755 C1754 1.387 . S
C1755 C1757 1.387 . S
H1756 C1763 0.950 . S
C1757 C1755 1.387 . S
C1757 C1759 1.390 . S
C1757 H1761 0.950 . S
H1758 C1754 0.950 . S
C1759 C1757 1.390 . S
C1759 C1760 1.387 . S
C1759 H1762 0.950 . S
C1760 C1759 1.387 . S
C1760 C1763 1.387 . S
H1761 C1757 0.950 . S
H1762 C1759 0.950 . S
C1763 C1754 1.390 . S
C1763 H1756 0.950 . S
C1763 C1760 1.387 . S
C1764 C1765 1.387 . S
C1764 H1768 0.950 . S
C1764 C1773 1.390 . S
C1765 C1764 1.387 . S
C1765 C1767 1.387 . S
H1766 C1773 0.950 . S
C1767 C1765 1.387 . S
C1767 C1769 1.390 . S
C1767 H1771 0.950 . S
H1768 C1764 0.950 . S
C1769 C1767 1.390 . S
C1769 C1770 1.387 . S
C1769 H1772 0.950 . S
C1770 C1769 1.387 . S
C1770 C1773 1.387 . S
H1771 C1767 0.950 . S
H1772 C1769 0.950 . S
C1773 C1764 1.390 . S
C1773 H1766 0.950 . S
C1773 C1770 1.387 . S
C1774 C1775 1.387 . S
C1774 H1778 0.950 . S
C1774 C1783 1.390 . S
C1775 C1774 1.387 . S
C1775 C1777 1.387 . S
H1776 C1783 0.950 . S
C1777 C1775 1.387 . S
C1777 C1779 1.390 . S
C1777 H1781 0.950 . S
H1778 C1774 0.950 . S
C1779 C1777 1.390 . S
C1779 C1780 1.387 . S
C1779 H1782 0.950 . S
C1780 C1779 1.387 . S
C1780 C1783 1.387 . S
H1781 C1777 0.950 . S
H1782 C1779 0.950 . S
C1783 C1774 1.390 . S
C1783 H1776 0.950 . S
C1783 C1780 1.387 . S
C1784 C1785 1.387 . S
C1784 H1788 0.950 1_455 S
C1784 C1793 1.390 . S
C1785 C1784 1.387 . S
C1785 C1787 1.387 . S
H1786 C1793 0.950 1_655 S
C1787 C1785 1.387 . S
C1787 C1789 1.390 . S
C1787 H1791 0.950 . S
H1788 C1784 0.950 1_655 S
C1789 C1787 1.390 . S
C1789 C1790 1.387 . S
C1789 H1792 0.950 . S
C1790 C1789 1.387 . S
C1790 C1793 1.387 . S
H1791 C1787 0.950 . S
H1792 C1789 0.950 . S
C1793 C1784 1.390 . S
C1793 H1786 0.950 1_455 S
C1793 C1790 1.387 . S
C1794 C1795 1.387 . S
C1794 H1798 0.950 . S
C1794 C1803 1.390 . S
C1795 C1794 1.387 . S
C1795 C1797 1.387 . S
H1796 C1803 0.950 . S
C1797 C1795 1.387 . S
C1797 C1799 1.390 . S
C1797 H1801 0.950 . S
H1798 C1794 0.950 . S
C1799 C1797 1.390 . S
C1799 C1800 1.387 . S
C1799 H1802 0.950 . S
C1800 C1799 1.387 . S
C1800 C1803 1.387 . S
H1801 C1797 0.950 . S
H1802 C1799 0.950 . S
C1803 C1794 1.390 . S
C1803 H1796 0.950 . S
C1803 C1800 1.387 . S
C1804 C1805 1.387 . S
C1804 H1808 0.950 . S
C1804 C1813 1.390 . S
C1805 C1804 1.387 . S
C1805 C1807 1.387 . S
H1806 C1813 0.950 . S
C1807 C1805 1.387 . S
C1807 C1809 1.390 . S
C1807 H1811 0.950 . S
H1808 C1804 0.950 . S
C1809 C1807 1.390 . S
C1809 C1810 1.387 . S
C1809 H1812 0.950 1_556 S
C1810 C1809 1.387 . S
C1810 C1813 1.387 . S
H1811 C1807 0.950 . S
H1812 C1809 0.950 1_554 S
C1813 C1804 1.390 . S
C1813 H1806 0.950 . S
C1813 C1810 1.387 . S
C1814 C1815 1.387 . S
C1814 H1818 0.950 . S
C1814 C1823 1.390 . S
C1815 C1814 1.387 . S
C1815 C1817 1.387 . S
H1816 C1823 0.950 . S
C1817 C1815 1.387 . S
C1817 C1819 1.390 . S
C1817 H1821 0.950 . S
H1818 C1814 0.950 . S
C1819 C1817 1.390 . S
C1819 C1820 1.387 . S
C1819 H1822 0.950 . S
C1820 C1819 1.387 . S
C1820 C1823 1.387 . S
H1821 C1817 0.950 . S
H1822 C1819 0.950 . S
C1823 C1814 1.390 . S
C1823 H1816 0.950 . S
C1823 C1820 1.387 . S
C1824 C1825 1.387 . S
C1824 H1828 0.950 . S
C1824 C1833 1.390 . S
C1825 C1824 1.387 . S
C1825 C1827 1.387 . S
H1826 C1833 0.950 . S
C1827 C1825 1.387 . S
C1827 C1829 1.390 . S
C1827 H1831 0.950 . S
H1828 C1824 0.950 . S
C1829 C1827 1.390 . S
C1829 C1830 1.387 . S
C1829 H1832 0.950 . S
C1830 C1829 1.387 . S
C1830 C1833 1.387 . S
H1831 C1827 0.950 . S
H1832 C1829 0.950 . S
C1833 C1824 1.390 . S
C1833 H1826 0.950 . S
C1833 C1830 1.387 . S
C1834 C1835 1.387 . S
C1834 H1838 0.950 . S
C1834 C1843 1.390 . S
C1835 C1834 1.387 . S
C1835 C1837 1.387 . S
H1836 C1843 0.950 . S
C1837 C1835 1.387 . S
C1837 C1839 1.390 . S
C1837 H1841 0.950 . S
H1838 C1834 0.950 . S
C1839 C1837 1.390 . S
C1839 C1840 1.387 . S
C1839 H1842 0.950 . S
C1840 C1839 1.387 . S
C1840 C1843 1.387 . S
H1841 C1837 0.950 . S
H1842 C1839 0.950 . S
C1843 C1834 1.390 . S
C1843 H1836 0.950 . S
C1843 C1840 1.387 . S
C1844 C1845 1.387 . S
C1844 H1848 0.950 . S
C1844 C1853 1.390 . S
C1845 C1844 1.387 . S
C1845 C1847 1.387 . S
H1846 C1853 0.950 . S
C1847 C1845 1.387 . S
C1847 C1849 1.390 . S
C1847 H1851 0.950 . S
H1848 C1844 0.950 . S
C1849 C1847 1.390 . S
C1849 C1850 1.387 . S
C1849 H1852 0.950 . S
C1850 C1849 1.387 . S
C1850 C1853 1.387 . S
H1851 C1847 0.950 . S
H1852 C1849 0.950 . S
C1853 C1844 1.390 . S
C1853 H1846 0.950 . S
C1853 C1850 1.387 . S
C1854 C1855 1.387 . S
C1854 H1858 0.950 . S
C1854 C1863 1.390 . S
C1855 C1854 1.387 . S
C1855 C1857 1.387 . S
H1856 C1863 0.950 . S
C1857 C1855 1.387 . S
C1857 C1859 1.390 . S
C1857 H1861 0.950 . S
H1858 C1854 0.950 . S
C1859 C1857 1.390 . S
C1859 C1860 1.387 . S
C1859 H1862 0.950 . S
C1860 C1859 1.387 . S
C1860 C1863 1.387 . S
H1861 C1857 0.950 . S
H1862 C1859 0.950 . S
C1863 C1854 1.390 . S
C1863 H1856 0.950 . S
C1863 C1860 1.387 . S
C1864 C1865 1.387 . S
C1864 H1868 0.950 . S
C1864 C1873 1.390 . S
C1865 C1864 1.387 . S
C1865 C1867 1.387 . S
H1866 C1873 0.950 . S
C1867 C1865 1.387 . S
C1867 C1869 1.390 . S
C1867 H1871 0.950 . S
H1868 C1864 0.950 . S
C1869 C1867 1.390 . S
C1869 C1870 1.387 . S
C1869 H1872 0.950 . S
C1870 C1869 1.387 . S
C1870 C1873 1.387 . S
H1871 C1867 0.950 . S
H1872 C1869 0.950 . S
C1873 C1864 1.390 . S
C1873 H1866 0.950 . S
C1873 C1870 1.387 . S
C1874 C1875 1.387 . S
C1874 H1878 0.950 . S
C1874 C1883 1.390 . S
C1875 C1874 1.387 . S
C1875 C1877 1.387 . S
H1876 C1883 0.950 . S
C1877 C1875 1.387 . S
C1877 C1879 1.390 . S
C1877 H1881 0.950 . S
H1878 C1874 0.950 . S
C1879 C1877 1.390 . S
C1879 C1880 1.387 . S
C1879 H1882 0.950 . S
C1880 C1879 1.387 . S
C1880 C1883 1.387 . S
H1881 C1877 0.950 . S
H1882 C1879 0.950 . S
C1883 C1874 1.390 . S
C1883 H1876 0.950 . S
C1883 C1880 1.387 . S
C1884 C1885 1.387 . S
C1884 H1888 0.950 . S
C1884 C1893 1.390 . S
C1885 C1884 1.387 . S
C1885 C1887 1.387 . S
H1886 C1893 0.950 . S
C1887 C1885 1.387 . S
C1887 C1889 1.390 . S
C1887 H1891 0.950 . S
H1888 C1884 0.950 . S
C1889 C1887 1.390 . S
C1889 C1890 1.387 . S
C1889 H1892 0.950 . S
C1890 C1889 1.387 . S
C1890 C1893 1.387 . S
H1891 C1887 0.950 . S
H1892 C1889 0.950 . S
C1893 C1884 1.390 . S
C1893 H1886 0.950 . S
C1893 C1890 1.387 . S
C1894 C1895 1.387 . S
C1894 H1898 0.950 . S
C1894 C1903 1.390 . S
C1895 C1894 1.387 . S
C1895 C1897 1.387 . S
H1896 C1903 0.950 . S
C1897 C1895 1.387 . S
C1897 C1899 1.390 . S
C1897 H1901 0.950 . S
H1898 C1894 0.950 . S
C1899 C1897 1.390 . S
C1899 C1900 1.387 . S
C1899 H1902 0.950 . S
C1900 C1899 1.387 . S
C1900 C1903 1.387 . S
H1901 C1897 0.950 . S
H1902 C1899 0.950 . S
C1903 C1894 1.390 . S
C1903 H1896 0.950 . S
C1903 C1900 1.387 . S
C1904 C1905 1.387 1_554 S
C1904 H1908 0.950 . S
C1904 C1913 1.390 1_554 S
C1905 C1904 1.387 1_556 S
C1905 C1907 1.387 . S
H1906 C1913 0.950 . S
C1907 C1905 1.387 . S
C1907 C1909 1.390 . S
C1907 H1911 0.950 . S
H1908 C1904 0.950 . S
C1909 C1907 1.390 . S
C1909 C1910 1.387 . S
C1909 H1912 0.950 . S
C1910 C1909 1.387 . S
C1910 C1913 1.387 . S
H1911 C1907 0.950 . S
H1912 C1909 0.950 . S
C1913 C1904 1.390 1_556 S
C1913 H1906 0.950 . S
C1913 C1910 1.387 . S
C1914 C1915 1.387 . S
C1914 H1918 0.950 . S
C1914 C1923 1.390 . S
C1915 C1914 1.387 . S
C1915 C1917 1.387 . S
H1916 C1923 0.950 . S
C1917 C1915 1.387 . S
C1917 C1919 1.390 . S
C1917 H1921 0.950 1_554 S
H1918 C1914 0.950 . S
C1919 C1917 1.390 . S
C1919 C1920 1.387 . S
C1919 H1922 0.950 1_554 S
C1920 C1919 1.387 . S
C1920 C1923 1.387 . S
H1921 C1917 0.950 1_556 S
H1922 C1919 0.950 1_556 S
C1923 C1914 1.390 . S
C1923 H1916 0.950 . S
C1923 C1920 1.387 . S
C1924 C1925 1.387 . S
C1924 H1928 0.950 . S
C1924 C1933 1.390 . S
C1925 C1924 1.387 . S
C1925 C1927 1.387 . S
H1926 C1933 0.950 . S
C1927 C1925 1.387 . S
C1927 C1929 1.390 . S
C1927 H1931 0.950 . S
H1928 C1924 0.950 . S
C1929 C1927 1.390 . S
C1929 C1930 1.387 . S
C1929 H1932 0.950 . S
C1930 C1929 1.387 . S
C1930 C1933 1.387 . S
H1931 C1927 0.950 . S
H1932 C1929 0.950 . S
C1933 C1924 1.390 . S
C1933 H1926 0.950 . S
C1933 C1930 1.387 . S
C1934 C1935 1.387 . S
C1934 H1938 0.950 . S
C1934 C1943 1.390 . S
C1935 C1934 1.387 . S
C1935 C1937 1.387 . S
H1936 C1943 0.950 . S
C1937 C1935 1.387 . S
C1937 C1939 1.390 . S
C1937 H1941 0.950 . S
H1938 C1934 0.950 . S
C1939 C1937 1.390 . S
C1939 C1940 1.387 . S
C1939 H1942 0.950 . S
C1940 C1939 1.387 . S
C1940 C1943 1.387 . S
H1941 C1937 0.950 . S
H1942 C1939 0.950 . S
C1943 C1934 1.390 . S
C1943 H1936 0.950 . S
C1943 C1940 1.387 . S
C1944 C1945 1.387 . S
C1944 H1948 0.950 . S
C1944 C1953 1.390 . S
C1945 C1944 1.387 . S
C1945 C1947 1.387 . S
H1946 C1953 0.950 . S
C1947 C1945 1.387 . S
C1947 C1949 1.390 . S
C1947 H1951 0.950 . S
H1948 C1944 0.950 . S
C1949 C1947 1.390 . S
C1949 C1950 1.387 . S
C1949 H1952 0.950 . S
C1950 C1949 1.387 . S
C1950 C1953 1.387 . S
H1951 C1947 0.950 . S
H1952 C1949 0.950 . S
C1953 C1944 1.390 . S
C1953 H1946 0.950 . S
C1953 C1950 1.387 . S
C1954 C1955 1.387 . S
C1954 H1958 0.950 . S
C1954 C1963 1.389 1_565 S
C1955 C1954 1.387 . S
C1955 C1957 1.387 . S
H1956 C1963 0.951 . S
C1957 C1955 1.387 . S
C1957 C1959 1.390 . S
C1957 H1961 0.950 . S
H1958 C1954 0.950 . S
C1959 C1957 1.390 . S
C1959 C1960 1.387 1_565 S
C1959 H1962 0.950 . S
C1960 C1959 1.387 1_545 S
C1960 C1963 1.388 . S
H1961 C1957 0.950 . S
H1962 C1959 0.950 . S
C1963 C1954 1.389 1_545 S
C1963 H1956 0.951 . S
C1963 C1960 1.388 . S
C1964 C1965 1.387 . S
C1964 H1968 0.950 . S
C1964 C1973 1.390 . S
C1965 C1964 1.387 . S
C1965 C1967 1.387 . S
H1966 C1973 0.950 . S
C1967 C1965 1.387 . S
C1967 C1969 1.390 . S
C1967 H1971 0.950 . S
H1968 C1964 0.950 . S
C1969 C1967 1.390 . S
C1969 C1970 1.387 . S
C1969 H1972 0.950 . S
C1970 C1969 1.387 . S
C1970 C1973 1.387 . S
H1971 C1967 0.950 . S
H1972 C1969 0.950 . S
C1973 C1964 1.390 . S
C1973 H1966 0.950 . S
C1973 C1970 1.387 . S
C1974 C1975 1.387 . S
C1974 H1978 0.950 . S
C1974 C1983 1.390 . S
C1975 C1974 1.387 . S
C1975 C1977 1.387 . S
H1976 C1983 0.950 . S
C1977 C1975 1.387 . S
C1977 C1979 1.390 . S
C1977 H1981 0.950 . S
H1978 C1974 0.950 . S
C1979 C1977 1.390 . S
C1979 C1980 1.387 . S
C1979 H1982 0.950 . S
C1980 C1979 1.387 . S
C1980 C1983 1.387 . S
H1981 C1977 0.950 . S
H1982 C1979 0.950 . S
C1983 C1974 1.390 . S
C1983 H1976 0.950 . S
C1983 C1980 1.387 . S
C1984 C1985 1.387 . S
C1984 H1988 0.950 . S
C1984 C1993 1.390 . S
C1985 C1984 1.387 . S
C1985 C1987 1.387 . S
H1986 C1993 0.950 . S
C1987 C1985 1.387 . S
C1987 C1989 1.390 . S
C1987 H1991 0.950 . S
H1988 C1984 0.950 . S
C1989 C1987 1.390 . S
C1989 C1990 1.387 . S
C1989 H1992 0.950 . S
C1990 C1989 1.387 . S
C1990 C1993 1.387 . S
H1991 C1987 0.950 . S
H1992 C1989 0.950 . S
C1993 C1984 1.390 . S
C1993 H1986 0.950 . S
C1993 C1990 1.387 . S
C1994 C1995 1.387 . S
C1994 H1998 0.950 . S
C1994 C2003 1.390 . S
C1995 C1994 1.387 . S
C1995 C1997 1.387 . S
H1996 C2003 0.950 . S
C1997 C1995 1.387 . S
C1997 C1999 1.390 . S
C1997 H2001 0.950 . S
H1998 C1994 0.950 . S
C1999 C1997 1.390 . S
C1999 C2000 1.387 . S
C1999 H2002 0.950 . S
C2000 C1999 1.387 . S
C2000 C2003 1.387 . S
H2001 C1997 0.950 . S
H2002 C1999 0.950 . S
C2003 C1994 1.390 . S
C2003 H1996 0.950 . S
C2003 C2000 1.387 . S
C2004 C2005 1.387 1_655 S
C2004 H2008 0.950 . S
C2004 C2013 1.390 1_655 S
C2005 C2004 1.387 1_455 S
C2005 C2007 1.387 . S
H2006 C2013 0.950 1_655 S
C2007 C2005 1.387 . S
C2007 C2009 1.390 . S
C2007 H2011 0.950 . S
H2008 C2004 0.950 . S
C2009 C2007 1.390 . S
C2009 C2010 1.387 . S
C2009 H2012 0.950 . S
C2010 C2009 1.387 . S
C2010 C2013 1.387 . S
H2011 C2007 0.950 . S
H2012 C2009 0.950 . S
C2013 C2004 1.390 1_455 S
C2013 H2006 0.950 1_455 S
C2013 C2010 1.387 . S
C2014 C2015 1.387 . S
C2014 H2018 0.950 . S
C2014 C2023 1.390 . S
C2015 C2014 1.387 . S
C2015 C2017 1.387 . S
H2016 C2023 0.950 . S
C2017 C2015 1.387 . S
C2017 C2019 1.390 . S
C2017 H2021 0.950 . S
H2018 C2014 0.950 . S
C2019 C2017 1.390 . S
C2019 C2020 1.387 1_455 S
C2019 H2022 0.950 . S
C2020 C2019 1.387 1_655 S
C2020 C2023 1.384 1_655 S
H2021 C2017 0.950 . S
H2022 C2019 0.950 . S
C2023 C2014 1.390 . S
C2023 H2016 0.950 . S
C2023 C2020 1.384 1_455 S
C2024 C2025 1.387 . S
C2024 H2028 0.950 . S
C2024 C2033 1.390 . S
C2025 C2024 1.387 . S
C2025 C2027 1.387 . S
H2026 C2033 0.950 . S
C2027 C2025 1.387 . S
C2027 C2029 1.390 . S
C2027 H2031 0.950 . S
H2028 C2024 0.950 . S
C2029 C2027 1.390 . S
C2029 C2030 1.387 . S
C2029 H2032 0.950 . S
C2030 C2029 1.387 . S
C2030 C2033 1.387 . S
H2031 C2027 0.950 . S
H2032 C2029 0.950 . S
C2033 C2024 1.390 . S
C2033 H2026 0.950 . S
C2033 C2030 1.387 . S
C2034 C2035 1.387 . S
C2034 H2038 0.950 . S
C2034 C2043 1.390 . S
C2035 C2034 1.387 . S
C2035 C2037 1.387 . S
H2036 C2043 0.950 . S
C2037 C2035 1.387 . S
C2037 C2039 1.390 . S
C2037 H2041 0.950 . S
H2038 C2034 0.950 . S
C2039 C2037 1.390 . S
C2039 C2040 1.387 . S
C2039 H2042 0.950 . S
C2040 C2039 1.387 . S
C2040 C2043 1.387 . S
H2041 C2037 0.950 . S
H2042 C2039 0.950 . S
C2043 C2034 1.390 . S
C2043 H2036 0.950 . S
C2043 C2040 1.387 . S
C2044 C2045 1.387 . S
C2044 H2048 0.950 . S
C2044 C2053 1.390 . S
C2045 C2044 1.387 . S
C2045 C2047 1.387 . S
H2046 C2053 0.950 . S
C2047 C2045 1.387 . S
C2047 C2049 1.390 . S
C2047 H2051 0.950 . S
H2048 C2044 0.950 . S
C2049 C2047 1.390 . S
C2049 C2050 1.387 . S
C2049 H2052 0.950 . S
C2050 C2049 1.387 . S
C2050 C2053 1.387 . S
H2051 C2047 0.950 . S
H2052 C2049 0.950 . S
C2053 C2044 1.390 . S
C2053 H2046 0.950 . S
C2053 C2050 1.387 . S
C2054 C2055 1.387 . S
C2054 H2058 0.950 . S
C2054 C2063 1.390 . S
C2055 C2054 1.387 . S
C2055 C2057 1.387 . S
H2056 C2063 0.950 . S
C2057 C2055 1.387 . S
C2057 C2059 1.390 . S
C2057 H2061 0.950 . S
H2058 C2054 0.950 . S
C2059 C2057 1.390 . S
C2059 C2060 1.387 . S
C2059 H2062 0.950 . S
C2060 C2059 1.387 . S
C2060 C2063 1.387 . S
H2061 C2057 0.950 . S
H2062 C2059 0.950 . S
C2063 C2054 1.390 . S
C2063 H2056 0.950 . S
C2063 C2060 1.387 . S
C2064 C2065 1.387 . S
C2064 H2068 0.950 . S
C2064 C2073 1.390 . S
C2065 C2064 1.387 . S
C2065 C2067 1.387 . S
H2066 C2073 0.950 . S
C2067 C2065 1.387 . S
C2067 C2069 1.390 . S
C2067 H2071 0.950 . S
H2068 C2064 0.950 . S
C2069 C2067 1.390 . S
C2069 C2070 1.387 . S
C2069 H2072 0.950 . S
C2070 C2069 1.387 . S
C2070 C2073 1.387 . S
H2071 C2067 0.950 . S
H2072 C2069 0.950 . S
C2073 C2064 1.390 . S
C2073 H2066 0.950 . S
C2073 C2070 1.387 . S
C2074 C2075 1.387 . S
C2074 H2078 0.950 . S
C2074 C2083 1.390 . S
C2075 C2074 1.387 . S
C2075 C2077 1.387 . S
H2076 C2083 0.950 . S
C2077 C2075 1.387 . S
C2077 C2079 1.390 . S
C2077 H2081 0.950 . S
H2078 C2074 0.950 . S
C2079 C2077 1.390 . S
C2079 C2080 1.387 . S
C2079 H2082 0.950 . S
C2080 C2079 1.387 . S
C2080 C2083 1.387 . S
H2081 C2077 0.950 . S
H2082 C2079 0.950 . S
C2083 C2074 1.390 . S
C2083 H2076 0.950 . S
C2083 C2080 1.387 . S
C2084 C2085 1.387 . S
C2084 H2088 0.950 . S
C2084 C2093 1.390 . S
C2085 C2084 1.387 . S
C2085 C2087 1.387 . S
H2086 C2093 0.950 . S
C2087 C2085 1.387 . S
C2087 C2089 1.390 . S
C2087 H2091 0.950 . S
H2088 C2084 0.950 . S
C2089 C2087 1.390 . S
C2089 C2090 1.387 . S
C2089 H2092 0.950 . S
C2090 C2089 1.387 . S
C2090 C2093 1.387 . S
H2091 C2087 0.950 . S
H2092 C2089 0.950 . S
C2093 C2084 1.390 . S
C2093 H2086 0.950 . S
C2093 C2090 1.387 . S
C2094 C2095 1.387 . S
C2094 H2098 0.950 . S
C2094 C2103 1.390 . S
C2095 C2094 1.387 . S
C2095 C2097 1.387 . S
H2096 C2103 0.950 . S
C2097 C2095 1.387 . S
C2097 C2099 1.390 . S
C2097 H2101 0.950 . S
H2098 C2094 0.950 . S
C2099 C2097 1.390 . S
C2099 C2100 1.387 . S
C2099 H2102 0.950 . S
C2100 C2099 1.387 . S
C2100 C2103 1.387 . S
H2101 C2097 0.950 . S
H2102 C2099 0.950 . S
C2103 C2094 1.390 . S
C2103 H2096 0.950 . S
C2103 C2100 1.387 . S
C2104 C2105 1.387 . S
C2104 H2108 0.950 . S
C2104 C2113 1.390 . S
C2105 C2104 1.387 . S
C2105 C2107 1.387 . S
H2106 C2113 0.950 . S
C2107 C2105 1.387 . S
C2107 C2109 1.390 . S
C2107 H2111 0.950 . S
H2108 C2104 0.950 . S
C2109 C2107 1.390 . S
C2109 C2110 1.387 . S
C2109 H2112 0.950 . S
C2110 C2109 1.387 . S
C2110 C2113 1.387 . S
H2111 C2107 0.950 . S
H2112 C2109 0.950 . S
C2113 C2104 1.390 . S
C2113 H2106 0.950 . S
C2113 C2110 1.387 . S
C2114 C2115 1.387 . S
C2114 H2118 0.950 . S
C2114 C2123 1.390 . S
C2115 C2114 1.387 . S
C2115 C2117 1.387 . S
H2116 C2123 0.950 . S
C2117 C2115 1.387 . S
C2117 C2119 1.390 . S
C2117 H2121 0.950 . S
H2118 C2114 0.950 . S
C2119 C2117 1.390 . S
C2119 C2120 1.387 . S
C2119 H2122 0.950 . S
C2120 C2119 1.387 . S
C2120 C2123 1.387 . S
H2121 C2117 0.950 . S
H2122 C2119 0.950 . S
C2123 C2114 1.390 . S
C2123 H2116 0.950 . S
C2123 C2120 1.387 . S
C2124 C2125 1.387 . S
C2124 H2128 0.950 . S
C2124 C2133 1.390 . S
C2125 C2124 1.387 . S
C2125 C2127 1.387 . S
H2126 C2133 0.950 . S
C2127 C2125 1.387 . S
C2127 C2129 1.390 . S
C2127 H2131 0.950 . S
H2128 C2124 0.950 . S
C2129 C2127 1.390 . S
C2129 C2130 1.387 . S
C2129 H2132 0.950 . S
C2130 C2129 1.387 . S
C2130 C2133 1.387 . S
H2131 C2127 0.950 . S
H2132 C2129 0.950 . S
C2133 C2124 1.390 . S
C2133 H2126 0.950 . S
C2133 C2130 1.387 . S
C2134 C2135 1.387 . S
C2134 H2138 0.950 . S
C2134 C2143 1.390 . S
C2135 C2134 1.387 . S
C2135 C2137 1.387 . S
H2136 C2143 0.950 . S
C2137 C2135 1.387 . S
C2137 C2139 1.390 . S
C2137 H2141 0.950 . S
H2138 C2134 0.950 . S
C2139 C2137 1.390 . S
C2139 C2140 1.387 . S
C2139 H2142 0.950 . S
C2140 C2139 1.387 . S
C2140 C2143 1.387 . S
H2141 C2137 0.950 . S
H2142 C2139 0.950 . S
C2143 C2134 1.390 . S
C2143 H2136 0.950 . S
C2143 C2140 1.387 . S
C2144 C2145 1.387 . S
C2144 H2148 0.950 . S
C2144 C2153 1.390 . S
C2145 C2144 1.387 . S
C2145 C2147 1.387 . S
H2146 C2153 0.950 . S
C2147 C2145 1.387 . S
C2147 C2149 1.390 . S
C2147 H2151 0.950 . S
H2148 C2144 0.950 . S
C2149 C2147 1.390 . S
C2149 C2150 1.387 . S
C2149 H2152 0.950 . S
C2150 C2149 1.387 . S
C2150 C2153 1.387 . S
H2151 C2147 0.950 . S
H2152 C2149 0.950 . S
C2153 C2144 1.390 . S
C2153 H2146 0.950 . S
C2153 C2150 1.387 . S
C2154 C2155 1.387 . S
C2154 H2158 0.950 . S
C2154 C2163 1.390 . S
C2155 C2154 1.387 . S
C2155 C2157 1.387 . S
H2156 C2163 0.950 . S
C2157 C2155 1.387 . S
C2157 C2159 1.390 . S
C2157 H2161 0.950 . S
H2158 C2154 0.950 . S
C2159 C2157 1.390 . S
C2159 C2160 1.387 . S
C2159 H2162 0.950 . S
C2160 C2159 1.387 . S
C2160 C2163 1.387 . S
H2161 C2157 0.950 . S
H2162 C2159 0.950 . S
C2163 C2154 1.390 . S
C2163 H2156 0.950 . S
C2163 C2160 1.387 . S
C2164 C2165 1.387 . S
C2164 H2168 0.950 1_545 S
C2164 C2173 1.390 1_545 S
C2165 C2164 1.387 . S
C2165 C2167 1.387 . S
H2166 C2173 0.950 . S
C2167 C2165 1.387 . S
C2167 C2169 1.390 . S
C2167 H2171 0.950 . S
H2168 C2164 0.950 1_565 S
C2169 C2167 1.390 . S
C2169 C2170 1.387 1_545 S
C2169 H2172 0.950 . S
C2170 C2169 1.387 1_565 S
C2170 C2173 1.387 . S
H2171 C2167 0.950 . S
H2172 C2169 0.950 . S
C2173 C2164 1.390 1_565 S
C2173 H2166 0.950 . S
C2173 C2170 1.387 . S
C2174 C2175 1.387 . S
C2174 H2178 0.950 . S
C2174 C2183 1.390 1_565 S
C2175 C2174 1.387 . S
C2175 C2177 1.387 . S
H2176 C2183 0.950 . S
C2177 C2175 1.387 . S
C2177 C2179 1.390 . S
C2177 H2181 0.950 . S
H2178 C2174 0.950 . S
C2179 C2177 1.390 . S
C2179 C2180 1.387 1_565 S
C2179 H2182 0.950 . S
C2180 C2179 1.387 1_545 S
C2180 C2183 1.387 . S
H2181 C2177 0.950 . S
H2182 C2179 0.950 . S
C2183 C2174 1.390 1_545 S
C2183 H2176 0.950 . S
C2183 C2180 1.387 . S
C2184 C2185 1.387 . S
C2184 H2188 0.950 . S
C2184 C2193 1.390 . S
C2185 C2184 1.387 . S
C2185 C2187 1.387 . S
H2186 C2193 0.950 . S
C2187 C2185 1.387 . S
C2187 C2189 1.390 . S
C2187 H2191 0.950 . S
H2188 C2184 0.950 . S
C2189 C2187 1.390 . S
C2189 C2190 1.387 . S
C2189 H2192 0.950 . S
C2190 C2189 1.387 . S
C2190 C2193 1.387 . S
H2191 C2187 0.950 . S
H2192 C2189 0.950 . S
C2193 C2184 1.390 . S
C2193 H2186 0.950 . S
C2193 C2190 1.387 . S
C2194 C2195 1.387 . S
C2194 H2198 0.950 . S
C2194 C2203 1.390 . S
C2195 C2194 1.387 . S
C2195 C2197 1.387 . S
H2196 C2203 0.950 . S
C2197 C2195 1.387 . S
C2197 C2199 1.390 . S
C2197 H2201 0.950 1_554 S
H2198 C2194 0.950 . S
C2199 C2197 1.390 . S
C2199 C2200 1.387 . S
C2199 H2202 0.950 1_554 S
C2200 C2199 1.387 . S
C2200 C2203 1.387 . S
H2201 C2197 0.950 1_556 S
H2202 C2199 0.950 1_556 S
C2203 C2194 1.390 . S
C2203 H2196 0.950 . S
C2203 C2200 1.387 . S
C2204 C2205 1.387 . S
C2204 H2208 0.950 . S
C2204 C2213 1.390 . S
C2205 C2204 1.387 . S
C2205 C2207 1.387 . S
H2206 C2213 0.950 . S
C2207 C2205 1.387 . S
C2207 C2209 1.390 . S
C2207 H2211 0.950 . S
H2208 C2204 0.950 . S
C2209 C2207 1.390 . S
C2209 C2210 1.387 . S
C2209 H2212 0.950 . S
C2210 C2209 1.387 . S
C2210 C2213 1.387 . S
H2211 C2207 0.950 . S
H2212 C2209 0.950 . S
C2213 C2204 1.390 . S
C2213 H2206 0.950 . S
C2213 C2210 1.387 . S
C2214 C2215 1.387 . S
C2214 H2218 0.950 . S
C2214 C2223 1.390 1_545 S
C2215 C2214 1.387 . S
C2215 C2217 1.387 . S
H2216 C2223 0.950 . S
C2217 C2215 1.387 . S
C2217 C2219 1.390 1_545 S
C2217 H2221 0.950 . S
H2218 C2214 0.950 . S
C2219 C2217 1.390 1_565 S
C2219 C2220 1.387 . S
C2219 H2222 0.950 . S
C2220 C2219 1.387 . S
C2220 C2223 1.387 . S
H2221 C2217 0.950 . S
H2222 C2219 0.950 . S
C2223 C2214 1.390 1_565 S
C2223 H2216 0.950 . S
C2223 C2220 1.387 . S
C2224 C2225 1.387 . S
C2224 H2228 0.950 . S
C2224 C2233 1.390 . S
C2225 C2224 1.387 . S
C2225 C2227 1.387 . S
H2226 C2233 0.950 . S
C2227 C2225 1.387 . S
C2227 C2229 1.390 . S
C2227 H2231 0.950 . S
H2228 C2224 0.950 . S
C2229 C2227 1.390 . S
C2229 C2230 1.387 . S
C2229 H2232 0.950 . S
C2230 C2229 1.387 . S
C2230 C2233 1.387 . S
H2231 C2227 0.950 . S
H2232 C2229 0.950 . S
C2233 C2224 1.390 . S
C2233 H2226 0.950 . S
C2233 C2230 1.387 . S
C2234 C2235 1.387 . S
C2234 H2238 0.950 . S
C2234 C2243 1.390 . S
C2235 C2234 1.387 . S
C2235 C2237 1.387 . S
H2236 C2243 0.950 . S
C2237 C2235 1.387 . S
C2237 C2239 1.390 . S
C2237 H2241 0.950 . S
H2238 C2234 0.950 . S
C2239 C2237 1.390 . S
C2239 C2240 1.387 . S
C2239 H2242 0.950 . S
C2240 C2239 1.387 . S
C2240 C2243 1.387 . S
H2241 C2237 0.950 . S
H2242 C2239 0.950 . S
C2243 C2234 1.390 . S
C2243 H2236 0.950 . S
C2243 C2240 1.387 . S
C2244 C2245 1.387 . S
C2244 H2248 0.950 . S
C2244 C2253 1.390 . S
C2245 C2244 1.387 . S
C2245 C2247 1.387 . S
H2246 C2253 0.950 . S
C2247 C2245 1.387 . S
C2247 C2249 1.390 . S
C2247 H2251 0.950 . S
H2248 C2244 0.950 . S
C2249 C2247 1.390 . S
C2249 C2250 1.387 . S
C2249 H2252 0.950 . S
C2250 C2249 1.387 . S
C2250 C2253 1.387 . S
H2251 C2247 0.950 . S
H2252 C2249 0.950 . S
C2253 C2244 1.390 . S
C2253 H2246 0.950 . S
C2253 C2250 1.387 . S
C2254 C2255 1.387 . S
C2254 H2258 0.950 . S
C2254 C2263 1.390 . S
C2255 C2254 1.387 . S
C2255 C2257 1.387 . S
H2256 C2263 0.950 . S
C2257 C2255 1.387 . S
C2257 C2259 1.390 . S
C2257 H2261 0.950 . S
H2258 C2254 0.950 . S
C2259 C2257 1.390 . S
C2259 C2260 1.387 . S
C2259 H2262 0.950 . S
C2260 C2259 1.387 . S
C2260 C2263 1.387 . S
H2261 C2257 0.950 . S
H2262 C2259 0.950 . S
C2263 C2254 1.390 . S
C2263 H2256 0.950 . S
C2263 C2260 1.387 . S
C2264 C2265 1.387 . S
C2264 H2268 0.950 . S
C2264 C2273 1.390 . S
C2265 C2264 1.387 . S
C2265 C2267 1.387 . S
H2266 C2273 0.950 . S
C2267 C2265 1.387 . S
C2267 C2269 1.390 . S
C2267 H2271 0.950 . S
H2268 C2264 0.950 . S
C2269 C2267 1.390 . S
C2269 C2270 1.387 . S
C2269 H2272 0.950 . S
C2270 C2269 1.387 . S
C2270 C2273 1.387 . S
H2271 C2267 0.950 . S
H2272 C2269 0.950 . S
C2273 C2264 1.390 . S
C2273 H2266 0.950 . S
C2273 C2270 1.387 . S
C2274 C2275 1.387 . S
C2274 H2278 0.950 . S
C2274 C2283 1.390 . S
C2275 C2274 1.387 . S
C2275 C2277 1.387 . S
H2276 C2283 0.950 . S
C2277 C2275 1.387 . S
C2277 C2279 1.390 . S
C2277 H2281 0.950 . S
H2278 C2274 0.950 . S
C2279 C2277 1.390 . S
C2279 C2280 1.387 . S
C2279 H2282 0.950 . S
C2280 C2279 1.387 . S
C2280 C2283 1.387 . S
H2281 C2277 0.950 . S
H2282 C2279 0.950 . S
C2283 C2274 1.390 . S
C2283 H2276 0.950 . S
C2283 C2280 1.387 . S
C2284 C2285 1.387 . S
C2284 H2288 0.950 . S
C2284 C2293 1.390 . S
C2285 C2284 1.387 . S
C2285 C2287 1.387 . S
H2286 C2293 0.950 . S
C2287 C2285 1.387 . S
C2287 C2289 1.390 . S
C2287 H2291 0.950 . S
H2288 C2284 0.950 . S
C2289 C2287 1.390 . S
C2289 C2290 1.387 . S
C2289 H2292 0.950 . S
C2290 C2289 1.387 . S
C2290 C2293 1.387 . S
H2291 C2287 0.950 . S
H2292 C2289 0.950 . S
C2293 C2284 1.390 . S
C2293 H2286 0.950 . S
C2293 C2290 1.387 . S
C2294 C2295 1.387 . S
C2294 H2298 0.950 . S
C2294 C2303 1.390 . S
C2295 C2294 1.387 . S
C2295 C2297 1.387 . S
H2296 C2303 0.950 . S
C2297 C2295 1.387 . S
C2297 C2299 1.390 . S
C2297 H2301 0.950 . S
H2298 C2294 0.950 . S
C2299 C2297 1.390 . S
C2299 C2300 1.387 . S
C2299 H2302 0.950 . S
C2300 C2299 1.387 . S
C2300 C2303 1.387 . S
H2301 C2297 0.950 . S
H2302 C2299 0.950 . S
C2303 C2294 1.390 . S
C2303 H2296 0.950 . S
C2303 C2300 1.387 . S
C2304 C2305 1.387 . S
C2304 H2308 0.950 . S
C2304 C2313 1.390 . S
C2305 C2304 1.387 . S
C2305 C2307 1.387 . S
H2306 C2313 0.950 . S
C2307 C2305 1.387 . S
C2307 C2309 1.390 . S
C2307 H2311 0.950 . S
H2308 C2304 0.950 . S
C2309 C2307 1.390 . S
C2309 C2310 1.387 . S
C2309 H2312 0.950 . S
C2310 C2309 1.387 . S
C2310 C2313 1.387 . S
H2311 C2307 0.950 . S
H2312 C2309 0.950 . S
C2313 C2304 1.390 . S
C2313 H2306 0.950 . S
C2313 C2310 1.387 . S
C2314 C2315 1.387 . S
C2314 H2318 0.950 . S
C2314 C2323 1.390 . S
C2315 C2314 1.387 . S
C2315 C2317 1.387 . S
H2316 C2323 0.950 . S
C2317 C2315 1.387 . S
C2317 C2319 1.390 . S
C2317 H2321 0.950 . S
H2318 C2314 0.950 . S
C2319 C2317 1.390 . S
C2319 C2320 1.387 . S
C2319 H2322 0.950 . S
C2320 C2319 1.387 . S
C2320 C2323 1.387 . S
H2321 C2317 0.950 . S
H2322 C2319 0.950 . S
C2323 C2314 1.390 . S
C2323 H2316 0.950 . S
C2323 C2320 1.387 . S
C2324 C2325 1.387 . S
C2324 H2328 0.950 1_455 S
C2324 C2333 1.390 . S
C2325 C2324 1.387 . S
C2325 C2327 1.387 . S
H2326 C2333 0.975 . S
C2327 C2325 1.387 . S
C2327 C2329 1.390 . S
C2327 H2331 0.950 . S
H2328 C2324 0.950 1_655 S
C2329 C2327 1.390 . S
C2329 C2330 1.387 . S
C2329 H2332 0.950 . S
C2330 C2329 1.387 . S
C2330 C2333 1.387 . S
H2331 C2327 0.950 . S
H2332 C2329 0.950 . S
C2333 C2324 1.390 . S
C2333 H2326 0.975 . S
C2333 C2330 1.387 . S
C2334 C2335 1.387 . S
C2334 H2338 0.950 . S
C2334 C2343 1.390 . S
C2335 C2334 1.387 . S
C2335 C2337 1.387 . S
H2336 C2343 0.950 . S
C2337 C2335 1.387 . S
C2337 C2339 1.390 . S
C2337 H2341 0.950 . S
H2338 C2334 0.950 . S
C2339 C2337 1.390 . S
C2339 C2340 1.387 . S
C2339 H2342 0.950 . S
C2340 C2339 1.387 . S
C2340 C2343 1.387 . S
H2341 C2337 0.950 . S
H2342 C2339 0.950 . S
C2343 C2334 1.390 . S
C2343 H2336 0.950 . S
C2343 C2340 1.387 . S
C2344 C2345 1.387 . S
C2344 H2348 0.950 . S
C2344 C2353 1.390 . S
C2345 C2344 1.387 . S
C2345 C2347 1.387 . S
H2346 C2353 0.950 . S
C2347 C2345 1.387 . S
C2347 C2349 1.390 . S
C2347 H2351 0.950 . S
H2348 C2344 0.950 . S
C2349 C2347 1.390 . S
C2349 C2350 1.387 . S
C2349 H2352 0.950 . S
C2350 C2349 1.387 . S
C2350 C2353 1.387 . S
H2351 C2347 0.950 . S
H2352 C2349 0.950 . S
C2353 C2344 1.390 . S
C2353 H2346 0.950 . S
C2353 C2350 1.387 . S
C2354 C2355 1.387 . S
C2354 H2358 0.950 . S
C2354 C2363 1.390 . S
C2355 C2354 1.387 . S
C2355 C2357 1.387 . S
H2356 C2363 0.950 . S
C2357 C2355 1.387 . S
C2357 C2359 1.390 . S
C2357 H2361 0.950 . S
H2358 C2354 0.950 . S
C2359 C2357 1.390 . S
C2359 C2360 1.387 . S
C2359 H2362 0.950 . S
C2360 C2359 1.387 . S
C2360 C2363 1.387 . S
H2361 C2357 0.950 . S
H2362 C2359 0.950 . S
C2363 C2354 1.390 . S
C2363 H2356 0.950 . S
C2363 C2360 1.387 . S
C2364 C2365 1.387 . S
C2364 H2368 0.950 . S
C2364 C2373 1.390 . S
C2365 C2364 1.387 . S
C2365 C2367 1.406 . S
H2366 C2373 0.950 . S
C2367 C2365 1.406 . S
C2367 C2369 1.394 1_455 S
C2367 H2371 0.928 1_455 S
H2368 C2364 0.950 . S
C2369 C2367 1.394 1_655 S
C2369 C2370 1.387 1_655 S
C2369 H2372 0.950 . S
C2370 C2369 1.387 1_455 S
C2370 C2373 1.387 . S
H2371 C2367 0.928 1_655 S
H2372 C2369 0.950 . S
C2373 C2364 1.390 . S
C2373 H2366 0.950 . S
C2373 C2370 1.387 . S
C2374 C2375 1.387 . S
C2374 H2378 0.950 . S
C2374 C2383 1.390 . S
C2375 C2374 1.387 . S
C2375 C2377 1.387 . S
H2376 C2383 0.950 . S
C2377 C2375 1.387 . S
C2377 C2379 1.390 . S
C2377 H2381 0.950 . S
H2378 C2374 0.950 . S
C2379 C2377 1.390 . S
C2379 C2380 1.387 . S
C2379 H2382 0.950 . S
C2380 C2379 1.387 . S
C2380 C2383 1.387 . S
H2381 C2377 0.950 . S
H2382 C2379 0.950 . S
C2383 C2374 1.390 . S
C2383 H2376 0.950 . S
C2383 C2380 1.387 . S
C2384 C2385 1.387 . S
C2384 H2388 0.950 . S
C2384 C2393 1.390 . S
C2385 C2384 1.387 . S
C2385 C2387 1.387 . S
H2386 C2393 0.950 . S
C2387 C2385 1.387 . S
C2387 C2389 1.390 . S
C2387 H2391 0.950 . S
H2388 C2384 0.950 . S
C2389 C2387 1.390 . S
C2389 C2390 1.387 . S
C2389 H2392 0.950 . S
C2390 C2389 1.387 . S
C2390 C2393 1.387 . S
H2391 C2387 0.950 . S
H2392 C2389 0.950 . S
C2393 C2384 1.390 . S
C2393 H2386 0.950 . S
C2393 C2390 1.387 . S
C2394 C2395 1.387 1_545 S
C2394 H2398 0.950 . S
C2394 C2403 1.390 . S
C2395 C2394 1.387 1_565 S
C2395 C2397 1.387 . S
H2396 C2403 0.950 . S
C2397 C2395 1.387 . S
C2397 C2399 1.390 . S
C2397 H2401 0.950 . S
H2398 C2394 0.950 . S
C2399 C2397 1.390 . S
C2399 C2400 1.387 1_565 S
C2399 H2402 0.950 . S
C2400 C2399 1.387 1_545 S
C2400 C2403 1.387 . S
H2401 C2397 0.950 . S
H2402 C2399 0.950 . S
C2403 C2394 1.390 . S
C2403 H2396 0.950 . S
C2403 C2400 1.387 . S
C2404 C2405 1.387 . S
C2404 H2408 0.950 . S
C2404 C2413 1.390 . S
C2405 C2404 1.387 . S
C2405 C2407 1.387 . S
H2406 C2413 0.950 . S
C2407 C2405 1.387 . S
C2407 C2409 1.390 . S
C2407 H2411 0.950 . S
H2408 C2404 0.950 . S
C2409 C2407 1.390 . S
C2409 C2410 1.387 . S
C2409 H2412 0.950 . S
C2410 C2409 1.387 . S
C2410 C2413 1.387 . S
H2411 C2407 0.950 . S
H2412 C2409 0.950 . S
C2413 C2404 1.390 . S
C2413 H2406 0.950 . S
C2413 C2410 1.387 . S
C2414 C2415 1.387 . S
C2414 H2418 0.950 . S
C2414 C2423 1.390 . S
C2415 C2414 1.387 . S
C2415 C2417 1.387 1_556 S
H2416 C2423 0.950 . S
C2417 C2415 1.387 1_554 S
C2417 C2419 1.390 . S
C2417 H2421 0.950 . S
H2418 C2414 0.950 . S
C2419 C2417 1.390 . S
C2419 C2420 1.387 . S
C2419 H2422 0.950 . S
C2420 C2419 1.387 . S
C2420 C2423 1.387 1_554 S
H2421 C2417 0.950 . S
H2422 C2419 0.950 . S
C2423 C2414 1.390 . S
C2423 H2416 0.950 . S
C2423 C2420 1.387 1_556 S
C2424 C2425 1.387 . S
C2424 H2428 0.950 . S
C2424 C2433 1.390 . S
C2425 C2424 1.387 . S
C2425 C2427 1.387 . S
H2426 C2433 0.950 . S
C2427 C2425 1.387 . S
C2427 C2429 1.390 . S
C2427 H2431 0.950 . S
H2428 C2424 0.950 . S
C2429 C2427 1.390 . S
C2429 C2430 1.387 . S
C2429 H2432 0.950 . S
C2430 C2429 1.387 . S
C2430 C2433 1.387 . S
H2431 C2427 0.950 . S
H2432 C2429 0.950 . S
C2433 C2424 1.390 . S
C2433 H2426 0.950 . S
C2433 C2430 1.387 . S
C2434 C2435 1.388 . S
C2434 H2438 0.949 1_554 S
C2434 C2443 1.390 1_554 S
C2435 C2434 1.388 . S
C2435 C2437 1.387 . S
H2436 C2443 0.950 . S
C2437 C2435 1.387 . S
C2437 C2439 1.390 . S
C2437 H2441 0.950 . S
H2438 C2434 0.949 1_556 S
C2439 C2437 1.390 . S
C2439 C2440 1.387 . S
C2439 H2442 0.950 . S
C2440 C2439 1.387 . S
C2440 C2443 1.387 1_554 S
H2441 C2437 0.950 . S
H2442 C2439 0.950 . S
C2443 C2434 1.390 1_556 S
C2443 H2436 0.950 . S
C2443 C2440 1.387 1_556 S
C2444 C2445 1.387 . S
C2444 H2448 0.950 . S
C2444 C2453 1.390 . S
C2445 C2444 1.387 . S
C2445 C2447 1.387 . S
H2446 C2453 0.950 . S
C2447 C2445 1.387 . S
C2447 C2449 1.390 . S
C2447 H2451 0.950 . S
H2448 C2444 0.950 . S
C2449 C2447 1.390 . S
C2449 C2450 1.387 . S
C2449 H2452 0.950 . S
C2450 C2449 1.387 . S
C2450 C2453 1.387 . S
H2451 C2447 0.950 . S
H2452 C2449 0.950 . S
C2453 C2444 1.390 . S
C2453 H2446 0.950 . S
C2453 C2450 1.387 . S
C2454 C2455 1.387 . S
C2454 H2458 0.950 . S
C2454 C2463 1.390 . S
C2455 C2454 1.387 . S
C2455 C2457 1.387 . S
H2456 C2463 0.950 . S
C2457 C2455 1.387 . S
C2457 C2459 1.390 . S
C2457 H2461 0.950 . S
H2458 C2454 0.950 . S
C2459 C2457 1.390 . S
C2459 C2460 1.387 . S
C2459 H2462 0.950 . S
C2460 C2459 1.387 . S
C2460 C2463 1.387 . S
H2461 C2457 0.950 . S
H2462 C2459 0.950 . S
C2463 C2454 1.390 . S
C2463 H2456 0.950 . S
C2463 C2460 1.387 . S
C1505 C255 1.790 1_455 S
C1510 C886 1.799 1_556 S
C1515 C147 1.447 . S
C1520 C906 1.440 . S
C1525 C184 0.850 . S
C1530 C953 0.847 . S
C1540 C1010 1.237 . S
C1535 C220 1.241 . S
C1545 C40 2.554 . S
C1550 C1027 2.538 1_565 S
C1560 C1086 1.943 . S
C1555 C74 1.948 . S
C1570 C1119 2.752 . S
C1565 C110 2.741 . S
C1575 C14 2.473 . S
C1580 C1166 2.473 . S
C1590 C879 1.854 . S
C1585 C579 1.761 . S
C1595 C616 1.707 . S
C1600 C907 1.710 . S
C1610 C946 0.719 . S
C1605 C687 0.715 . S
C1620 C1006 2.302 . S
C1615 C436 2.266 . S
C1625 C580 0.682 . S
C1630 C1033 0.698 . S
C1640 C1079 2.284 . S
C1635 C615 2.295 . S
C1650 C1130 0.990 . S
C1645 C688 0.981 . S
C1660 C1159 2.398 . S
C1655 C435 2.387 . S
C1670 C890 1.978 1_565 S
C1665 C410 2.080 . S
C1675 C722 2.234 . S
C1680 C1186 2.209 . S
C1690 C1250 1.627 . S
C1685 C842 1.757 . S
C1700 C1286 1.601 . S
C1695 C794 1.616 . S
C1705 C302 1.936 . S
C1710 C1170 1.887 . S
C1715 C338 2.564 . S
C1720 C947 2.619 . S
C1725 C830 1.602 . S
C1730 C1319 1.674 . S
C1740 C1353 0.684 . S
C1735 C758 0.648 . S
C1750 C867 1.949 . S
C1745 C158 1.756 . S
C1760 C1359 1.586 . S
C1755 C254 1.594 . S
C1765 C218 0.853 . S
C1770 C970 0.854 . S
C1775 C194 1.156 . S
C1780 C1313 1.282 . S
C1790 C1046 2.489 . S
C1785 C3 2.507 . S
C1795 C111 1.903 . S
C1800 C1227 1.885 . S
C1810 C1106 2.623 1_566 S
C1805 C76 2.613 . S
C1820 C1387 2.588 . S
C1815 C50 2.526 1_655 S
C1830 C866 1.867 . S
C1825 C364 1.843 . S
C1840 C1366 1.595 . S
C1835 C795 1.613 . S
C1845 C292 0.715 . S
C1850 C959 0.690 . S
C1855 C723 2.208 . S
C1860 C1307 2.219 . S
C1865 C363 0.685 . S
C1870 C1050 0.689 . S
C1880 C1226 2.269 . S
C1875 C796 2.266 . S
C1885 C291 1.019 . S
C1890 C1113 0.958 . S
C1895 C724 2.360 . S
C1900 C1386 2.357 . S
C1905 C482 1.975 . S
C1910 C873 2.099 . S
C1915 C434 2.200 . S
C1920 C1199 2.180 . S
C1925 C662 1.408 . S
C1930 C1073 1.605 . S
C1935 C614 1.667 . S
C1940 C1267 1.641 . S
C1950 C1393 1.816 . S
C1945 C698 1.515 . S
C1955 C554 2.542 . S
C1960 C966 2.612 . S
C1970 C986 1.587 . S
C1965 C650 1.509 . S
C1980 C930 0.708 . S
C1975 C506 0.702 . S
C1985 C183 1.931 . S
C1990 C1446 1.963 . S
C2000 C1346 1.446 . S
C1995 C219 1.465 . S
C2005 C256 0.761 . S
C2010 C1473 0.763 . S
C2015 C148 1.294 . S
C2020 C1330 1.295 . S
C2025 C122 2.585 . S
C2030 C1187 2.608 . S
C2040 C1246 1.929 . S
C2035 C2 1.935 1_655 S
C2050 C1279 2.628 . S
C2045 C39 2.626 . S
C2060 C1406 2.450 . S
C2055 C86 2.454 . S
C2070 C1439 1.819 . S
C2065 C651 1.728 . S
C2075 C472 1.676 . S
C2080 C1347 1.683 . S
C2090 C1466 0.733 . S
C2085 C507 0.729 . S
C2100 C1326 2.295 . S
C2095 C544 2.262 . S
C2110 C1193 0.679 . S
C2105 C652 0.663 . S
C2115 C471 2.324 . S
C2120 C1239 2.311 . S
C2130 C1290 0.953 . S
C2125 C508 0.942 . S
C2135 C543 2.367 . S
C2140 C1399 2.378 . S
C2150 C1450 2.021 . S
C2145 C806 2.120 . S
C2155 C326 2.258 . S
C2160 C1026 2.232 . S
C2170 C1090 1.574 . S
C2165 C374 1.703 . S
C2180 C1126 1.610 . S
C2175 C398 1.640 . S
C2190 C1410 1.589 . S
C2185 C770 1.676 . S
C2195 C734 2.585 . S
C2200 C1467 2.635 1_655 S
C2210 C999 1.705 . S
C2205 C362 1.634 . S
C2220 C913 0.718 . S
C2215 C290 0.713 . S
C2225 C230 1.788 . S
C2230 C1427 1.993 . S
C2240 C919 1.368 . S
C2235 C182 1.367 . S
C2245 C146 0.868 . S
C2250 C1490 0.865 . S
C2255 C266 1.036 . S
C2260 C993 1.153 . S
C2265 C75 2.544 . S
C2270 C1206 2.525 . S
C2280 C1067 2.037 . S
C2275 C38 2.038 . S
C2285 C4 2.605 . S
C2290 C1266 2.616 . S
C2295 C112 2.513 . S
C2300 C1147 2.449 . S
C2310 C1426 1.901 . S
C2305 C832 1.876 . S
C2315 C399 1.604 . S
C2320 C926 1.588 . S
C2330 C1479 0.588 . S
C2325 C760 0.602 . S
C2335 C327 2.224 . S
C2340 C987 2.233 . S
C2345 C831 0.678 . S
C2350 C1210 0.684 . S
C2360 C1066 2.300 . S
C2355 C400 2.297 . S
C2365 C759 0.994 . S
C2370 C1273 0.933 . S
C2380 C1146 2.351 . S
C2375 C328 2.357 . S
C2390 C1433 2.180 . S
C2385 C626 2.053 . S
C2400 C1039 2.233 . S
C2395 C542 2.253 . S
C2405 C590 1.375 . S
C2410 C1233 1.556 . S
C2420 C1107 1.577 . S
C2415 C470 1.600 . S
C2425 C518 1.487 . S
C2430 C1153 1.775 . S
C2435 C446 2.561 . S
C2440 C1486 2.635 . S
C2450 C1306 1.612 . S
C2445 C578 1.538 . S
C2460 C1370 0.754 . S
C2455 C686 0.754 . S
