# Generated by pormake.
# Topology pth, (4,4)-cn, num edge types: 1
# Building blocks:
#     Node 0, Type 0, BuildingBlock: AZAVOO_clean_sbu_0, # of connection points: 4
#     Node 1, Type 0, BuildingBlock: AZAVOO_clean_sbu_0, # of connection points: 4
#     Node 2, Type 0, BuildingBlock: AZAVOO_clean_sbu_0, # of connection points: 4
#     Node 3, Type 1, BuildingBlock: KOZSID_clean_sbu_0, # of connection points: 4
#     Node 4, Type 1, BuildingBlock: KOZSID_clean_sbu_0, # of connection points: 4
#     Node 5, Type 1, BuildingBlock: KOZSID_clean_sbu_0, # of connection points: 4
#     Edge 6, Type (0, 1), BuildingBlock: AJUNOK_clean_linker_0, # of connection points: 2
#     Edge 7, Type (0, 1), BuildingBlock: AJUNOK_clean_linker_0, # of connection points: 2
#     Edge 8, Type (0, 1), BuildingBlock: AJUNOK_clean_linker_0, # of connection points: 2
#     Edge 9, Type (0, 1), BuildingBlock: AJUNOK_clean_linker_0, # of connection points: 2
#     Edge 10, Type (0, 1), BuildingBlock: AJUNOK_clean_linker_0, # of connection points: 2
#     Edge 11, Type (0, 1), BuildingBlock: AJUNOK_clean_linker_0, # of connection points: 2
#     Edge 12, Type (0, 1), BuildingBlock: AJUNOK_clean_linker_0, # of connection points: 2
#     Edge 13, Type (0, 1), BuildingBlock: AJUNOK_clean_linker_0, # of connection points: 2
#     Edge 14, Type (0, 1), BuildingBlock: AJUNOK_clean_linker_0, # of connection points: 2
#     Edge 15, Type (0, 1), BuildingBlock: AJUNOK_clean_linker_0, # of connection points: 2
#     Edge 16, Type (0, 1), BuildingBlock: AJUNOK_clean_linker_0, # of connection points: 2
#     Edge 17, Type (0, 1), BuildingBlock: AJUNOK_clean_linker_0, # of connection points: 2
# Relax obj value: 0.067
# Max RMSD: 0.221
# Mean RMSD: 0.106
data_MOF--net-pth--node1-AZAVOO_clean_sbu_0--node2-KOZSID_clean_sbu_0--edge1-AJUNOK_clean_linker_0
_symmetry_space_group_name_H-M    P1
_symmetry_Int_Tables_number       1
_symmetry_cell_setting            triclinic
loop_
_symmetry_equiv_pos_as_xyz
'x, y, z'
_cell_length_a     20.102244
_cell_length_b     20.602793
_cell_length_c     45.307637
_cell_angle_alpha  87.692157
_cell_angle_beta   89.61205
_cell_angle_gamma 122.6081
loop_
_atom_site_label
_atom_site_type_symbol
_atom_site_fract_x
_atom_site_fract_y
_atom_site_fract_z
_atom_type_partial_charge
Mg0 Mg 0.14768 0.10539 0.03934 0.0
O1 O 0.05837 0.02649 0.00592 0.0
O2 O 0.04901 0.09793 0.96993 0.0
Mg3 Mg 0.13425 0.22541 0.98034 0.0
C4 C 0.02945 0.03255 0.98184 0.0
C5 C 0.09884 0.93971 0.05996 0.0
O6 O 0.11843 0.94291 0.03197 0.0
O7 O 0.06285 0.13519 0.05899 0.0
O8 O 0.06975 0.21822 0.02377 0.0
O9 O 0.25211 0.12103 0.01345 0.0
O10 O 0.20542 0.19595 0.00755 0.0
C11 C 0.04772 0.18525 0.04964 0.0
C12 C 0.25642 0.18001 0.00014 0.0
O13 O 0.10424 0.99874 0.07044 0.0
Mg14 Mg 0.98799 0.06394 0.35906 0.0
O15 O 0.09845 0.09348 0.38474 0.0
O16 O 0.13538 0.19737 0.41011 0.0
Mg17 Mg 0.04608 0.23286 0.4027 0.0
C18 C 0.14551 0.1445 0.40213 0.0
C19 C 0.01845 0.9331 0.34339 0.0
O20 O 0.02246 0.92877 0.37226 0.0
O21 O 0.05787 0.16734 0.32525 0.0
O22 O 0.07897 0.26252 0.35373 0.0
O23 O 0.90369 0.99412 0.39842 0.0
O24 O 0.95657 0.11802 0.38872 0.0
C25 C 0.08174 0.23812 0.32856 0.0
C26 C 0.90979 0.05768 0.40492 0.0
O27 O 0.00449 0.98166 0.33168 0.0
Mg28 Mg 0.06208 0.02981 0.69271 0.0
O29 O 0.14568 0.12869 0.72151 0.0
O30 O 0.07358 0.14772 0.75318 0.0
Mg31 Mg 0.94257 0.05663 0.74628 0.0
C32 C 0.14053 0.16499 0.74261 0.0
C33 C 0.22968 0.07389 0.67096 0.0
O34 O 0.23303 0.06082 0.69937 0.0
O35 O 0.02461 0.10156 0.6666 0.0
O36 O 0.94254 0.10408 0.69946 0.0
O37 O 0.05745 0.94197 0.72481 0.0
O38 O 0.97451 0.98097 0.72627 0.0
C39 C 0.97353 0.1178 0.67341 0.0
C40 C 0.99766 0.93851 0.73751 0.0
O41 O 0.16661 0.06583 0.66113 0.0
C42 C 0.13151 0.69888 0.14188 0.0
C43 C 0.20126 0.76002 0.12864 0.0
C44 C 0.26172 0.76849 0.14521 0.0
C45 C 0.22598 0.71233 0.16751 0.0
N46 N 0.14676 0.66787 0.16581 0.0
Co47 Co 0.07316 0.58113 0.19409 0.0
N48 N 0.16139 0.57711 0.21151 0.0
C49 C 0.23877 0.63291 0.20888 0.0
C50 C 0.28635 0.61237 0.22217 0.0
C51 C 0.2359 0.53915 0.23396 0.0
C52 C 0.15989 0.5194 0.22748 0.0
N53 N 1.00022 0.49297 0.22179 0.0
C54 C 0.01208 0.44211 0.23695 0.0
C55 C 0.94508 0.38877 0.25382 0.0
C56 C 0.88965 0.40705 0.24892 0.0
C57 C 0.92571 0.4704 0.22947 0.0
N58 N 0.98502 0.58667 0.17731 0.0
C59 C 0.91215 0.55411 0.18986 0.0
C60 C 0.86427 0.57036 0.17416 0.0
C61 C 0.91017 0.61724 0.15052 0.0
C62 C 0.98389 0.62728 0.15323 0.0
N63 N 0.05877 0.50702 0.16508 0.0
C64 C 0.03649 0.39168 0.12822 0.0
C65 C 0.9717 0.39006 0.14044 0.0
C66 C 0.98409 0.44792 0.15896 0.0
C67 C 0.11267 0.45309 0.13405 0.0
C68 C 0.12254 0.51073 0.15224 0.0
N69 N 0.08564 0.65442 0.22345 0.0
C70 C 0.07151 0.67917 0.27394 0.0
C71 C 0.07474 0.74692 0.26487 0.0
C72 C 0.08825 0.76907 0.23466 0.0
C73 C 0.092 0.72175 0.21448 0.0
C74 C 0.07975 0.63541 0.25305 0.0
H75 H 0.09733 0.73893 0.19151 0.0
H76 H 0.07768 0.58422 0.26088 0.0
H77 H 0.93297 0.44356 0.16888 0.0
H78 H 0.18176 0.55737 0.15639 0.0
C79 C 0.26522 0.69529 0.18861 0.0
C80 C 0.05297 0.68212 0.13432 0.0
C81 C 0.08786 0.44715 0.238 0.0
C82 C 0.88845 0.50231 0.21449 0.0
H83 H 0.20786 0.79707 0.10974 0.0
H84 H 0.32426 0.81049 0.1414 0.0
H85 H 0.35029 0.64477 0.22175 0.0
H86 H 0.25338 0.50415 0.24568 0.0
H87 H 0.93727 0.34198 0.26834 0.0
H88 H 0.82945 0.37618 0.25772 0.0
H89 H 0.80305 0.5499 0.1791 0.0
H90 H 0.8922 0.64288 0.13363 0.0
H91 H 0.91199 0.34337 0.13634 0.0
H92 H 0.16416 0.45641 0.12462 0.0
H93 H 0.05954 0.65772 0.29677 0.0
H94 H 0.09368 0.82179 0.22634 0.0
C95 C 0.45525 0.03694 0.5809 0.0
C96 C 0.39399 0.96765 0.59407 0.0
C97 C 0.37965 0.9108 0.57564 0.0
C98 C 0.43267 0.94799 0.55235 0.0
N99 N 0.48072 0.02465 0.55519 0.0
Co100 Co 0.56379 0.0992 0.52589 0.0
N101 N 0.56201 0.01506 0.50555 0.0
C102 C 0.50292 0.94025 0.50689 0.0
C103 C 0.5189 0.89567 0.49026 0.0
C104 C 0.5928 0.94565 0.47781 0.0
C105 C 0.61781 0.01805 0.48775 0.0
N106 N 0.64792 0.17263 0.49686 0.0
C107 C 0.69825 0.16268 0.48056 0.0
C108 C 0.75271 0.23056 0.46471 0.0
C109 C 0.73458 0.28401 0.47108 0.0
C110 C 0.67083 0.24634 0.49062 0.0
N111 N 0.56439 0.1837 0.54578 0.0
C112 C 0.5962 0.25632 0.53434 0.0
C113 C 0.58605 0.30202 0.55263 0.0
C114 C 0.54393 0.2549 0.57682 0.0
C115 C 0.53021 0.18263 0.57184 0.0
N116 N 0.64553 0.1086 0.55189 0.0
C117 C 0.76527 0.12477 0.58809 0.0
C118 C 0.76829 0.18964 0.57588 0.0
C119 C 0.70823 0.18034 0.55778 0.0
C120 C 0.70151 0.05143 0.58165 0.0
C121 C 0.64186 0.04457 0.56369 0.0
N122 N 0.48254 0.09163 0.49972 0.0
C123 C 0.44137 0.10504 0.45114 0.0
C124 C 0.37716 0.10516 0.46353 0.0
C125 C 0.36489 0.09404 0.49423 0.0
C126 C 0.41805 0.08801 0.51175 0.0
C127 C 0.49261 0.09696 0.4696 0.0
H128 H 0.40787 0.08297 0.53517 0.0
H129 H 0.54197 0.09788 0.45955 0.0
H130 H 0.71298 0.23156 0.54844 0.0
H131 H 0.59282 0.98759 0.55933 0.0
C132 C 0.44326 0.91222 0.52881 0.0
C133 C 0.47629 0.113 0.59048 0.0
C134 C 0.69318 0.08882 0.47906 0.0
C135 C 0.64305 0.2817 0.50823 0.0
H136 H 0.36035 0.95918 0.61418 0.0
H137 H 0.33566 0.8497 0.57884 0.0
H138 H 0.48329 0.83365 0.48876 0.0
H139 H 0.62489 0.93039 0.46339 0.0
H140 H 0.80126 0.2411 0.45045 0.0
H141 H 0.76723 0.34439 0.46378 0.0
H142 H 0.60762 0.36259 0.54903 0.0
H143 H 0.52343 0.27115 0.59559 0.0
H144 H 0.81703 0.24724 0.58017 0.0
H145 H 0.69709 0.99986 0.59087 0.0
H146 H 0.45386 0.1139 0.42754 0.0
H147 H 0.31516 0.09171 0.50488 0.0
C148 C 0.77454 0.62172 0.82579 0.0
C149 C 0.83542 0.61299 0.81676 0.0
C150 C 0.81706 0.54245 0.828 0.0
C151 C 0.74728 0.51269 0.84375 0.0
N152 N 0.72032 0.56003 0.8431 0.0
Co153 Co 0.62763 0.54446 0.86602 0.0
N154 N 0.62428 0.46358 0.89302 0.0
C155 C 0.66347 0.42833 0.88848 0.0
C156 C 0.64807 0.37276 0.9099 0.0
C157 C 0.59424 0.37122 0.92892 0.0
C158 C 0.57971 0.42637 0.91799 0.0
N159 N 0.53385 0.52827 0.88849 0.0
C160 C 0.49753 0.48609 0.91391 0.0
C161 C 0.43359 0.49118 0.92174 0.0
C162 C 0.42715 0.53456 0.89967 0.0
C163 C 0.48797 0.55454 0.8799 0.0
N164 N 0.6322 0.62584 0.83936 0.0
C165 C 0.57373 0.63838 0.83523 0.0
C166 C 0.59403 0.69816 0.81503 0.0
C167 C 0.67017 0.72503 0.80594 0.0
C168 C 0.69226 0.68029 0.82137 0.0
N169 N 0.55581 0.4655 0.8391 0.0
C170 C 0.43043 0.36911 0.8034 0.0
C171 C 0.4989 0.43482 0.79099 0.0
C172 C 0.56152 0.48191 0.80924 0.0
C173 C 0.43005 0.3482 0.83312 0.0
C174 C 0.49295 0.39691 0.85047 0.0
N175 N 0.69865 0.6247 0.89258 0.0
C176 C 0.73678 0.74245 0.91599 0.0
C177 C 0.80781 0.75124 0.92425 0.0
C178 C 0.82241 0.69434 0.91729 0.0
C179 C 0.76656 0.63094 0.90172 0.0
C180 C 0.68332 0.67919 0.90011 0.0
H181 H 0.77942 0.58826 0.89637 0.0
H182 H 0.63071 0.67604 0.89313 0.0
H183 H 0.61251 0.53373 0.79944 0.0
H184 H 0.48803 0.38041 0.87341 0.0
C185 C 0.7174 0.45162 0.86481 0.0
C186 C 0.76875 0.68801 0.8172 0.0
C187 C 0.5128 0.43053 0.92844 0.0
C188 C 0.50742 0.60276 0.85442 0.0
H189 H 0.88891 0.65376 0.80416 0.0
H190 H 0.85353 0.5186 0.82677 0.0
H191 H 0.67227 0.33687 0.91133 0.0
H192 H 0.56613 0.33097 0.94776 0.0
H193 H 0.39328 0.46294 0.94065 0.0
H194 H 0.38323 0.54953 0.89819 0.0
H195 H 0.55904 0.72164 0.80862 0.0
H196 H 0.70535 0.77222 0.78986 0.0
H197 H 0.50238 0.45177 0.76781 0.0
H198 H 0.37969 0.29593 0.84325 0.0
H199 H 0.72374 0.78553 0.921 0.0
H200 H 0.87687 0.69935 0.92351 0.0
C201 C 0.05093 0.22852 0.10053 0.0
C202 C 0.02423 0.22187 0.07144 0.0
C203 C 0.05223 0.28192 0.11916 0.0
C204 C 0.02523 0.32925 0.10965 0.0
H205 H 0.07677 0.1967 0.10826 0.0
H206 H 0.07715 0.28822 0.14079 0.0
S207 S 0.93928 0.32736 0.03743 0.0
N208 N 0.96311 0.26242 0.03523 0.0
N209 N 0.96385 0.36127 0.07071 0.0
C210 C 0.99262 0.31911 0.08166 0.0
C211 C 0.99239 0.26565 0.06246 0.0
C212 C 0.81067 0.09095 0.41295 0.0
C213 C 0.85317 0.06028 0.42483 0.0
C214 C 0.75972 0.10052 0.43066 0.0
C215 C 0.75136 0.08226 0.46115 0.0
H216 H 0.8165 0.10733 0.38959 0.0
H217 H 0.7263 0.12202 0.42036 0.0
S218 S 0.84817 0.99888 0.50313 0.0
N219 N 0.88207 0.00955 0.46875 0.0
N220 N 0.78743 0.0298 0.50252 0.0
C221 C 0.7927 0.05064 0.47337 0.0
C222 C 0.84363 0.03932 0.4551 0.0
C223 C 0.9132 0.80027 0.75259 0.0
C224 C 0.94748 0.87722 0.75993 0.0
C225 C 0.85489 0.73964 0.771 0.0
C226 C 0.83187 0.75357 0.7982 0.0
H227 H 0.92858 0.78699 0.73169 0.0
H228 H 0.82678 0.68141 0.76366 0.0
S229 S 0.90201 0.94533 0.82693 0.0
N230 N 0.95168 0.96497 0.79516 0.0
N231 N 0.84608 0.85023 0.83111 0.0
C232 C 0.86621 0.83043 0.80589 0.0
C233 C 0.9234 0.89245 0.7865 0.0
C234 C 0.07365 0.80683 0.06674 0.0
C235 C 0.07634 0.87002 0.07909 0.0
C236 C 0.06096 0.74357 0.08453 0.0
C237 C 0.05003 0.74096 0.11524 0.0
H238 H 0.08411 0.80718 0.04324 0.0
H239 H 0.06315 0.698 0.07438 0.0
S240 S 0.04477 0.88703 0.15857 0.0
N241 N 0.06136 0.92257 0.12407 0.0
N242 N 0.03783 0.80366 0.15727 0.0
C243 C 0.04856 0.80144 0.12778 0.0
C244 C 0.06158 0.86596 0.10975 0.0
C245 C 0.24513 0.17758 0.44116 0.0
C246 C 0.21028 0.13908 0.41529 0.0
C247 C 0.30061 0.16803 0.45585 0.0
C248 C 0.32401 0.11948 0.44543 0.0
H249 H 0.22788 0.2139 0.45076 0.0
H250 H 0.32464 0.19835 0.47588 0.0
S251 S 0.25866 0.01329 0.37657 0.0
N252 N 0.20939 0.05637 0.37819 0.0
N253 N 0.31246 0.03711 0.40628 0.0
C254 C 0.29268 0.0835 0.41882 0.0
C255 C 0.23603 0.09338 0.40373 0.0
C256 C 0.28893 0.24394 0.74502 0.0
C257 C 0.21454 0.22423 0.75669 0.0
C258 C 0.35911 0.29315 0.75954 0.0
C259 C 0.35757 0.32404 0.78641 0.0
H260 H 0.2931 0.21971 0.72484 0.0
H261 H 0.41453 0.30477 0.75026 0.0
S262 S 0.18081 0.29804 0.82506 0.0
N263 N 0.14561 0.2452 0.79594 0.0
N264 N 0.27725 0.33739 0.82293 0.0
C265 C 0.28448 0.30786 0.79767 0.0
C266 C 0.21313 0.25815 0.78291 0.0
C267 C 0.92293 0.10043 0.62231 0.0
C268 C 0.93512 0.13578 0.64946 0.0
C269 C 0.86924 0.09863 0.60219 0.0
C270 C 0.82712 0.13348 0.60821 0.0
H271 H 0.95092 0.06937 0.61739 0.0
H272 H 0.85902 0.06803 0.58213 0.0
S273 S 0.84366 0.24049 0.67448 0.0
N274 N 0.9048 0.21127 0.68016 0.0
N275 N 0.80519 0.20915 0.64205 0.0
C276 C 0.84244 0.1732 0.63431 0.0
C277 C 0.89616 0.1741 0.65499 0.0
C278 C 0.91002 0.89787 0.98289 0.0
C279 C 0.97375 0.96125 0.96686 0.0
C280 C 0.85681 0.82951 0.96905 0.0
C281 C 0.86717 0.8215 0.939 0.0
H282 H 0.90043 0.90174 0.00614 0.0
H283 H 0.80718 0.78267 0.98188 0.0
S284 S 0.02836 0.96762 0.88802 0.0
N285 N 0.04593 0.01031 0.91969 0.0
N286 N 0.94764 0.88082 0.89402 0.0
C287 C 0.93183 0.88346 0.92298 0.0
C288 C 0.98476 0.95364 0.93684 0.0
C289 C 0.00623 0.87258 0.29524 0.0
C290 C 0.03134 0.88309 0.32451 0.0
C291 C 0.01934 0.82763 0.27659 0.0
C292 C 0.06028 0.79271 0.28598 0.0
H293 H 0.97535 0.89871 0.28664 0.0
H294 H 0.99645 0.82001 0.25457 0.0
S295 S 0.13903 0.80303 0.36085 0.0
N296 N 0.09635 0.85241 0.36256 0.0
N297 N 0.12716 0.77363 0.32684 0.0
C298 C 0.08583 0.80288 0.31532 0.0
C299 C 0.07002 0.84668 0.33466 0.0
C300 C 0.35956 0.08722 0.661 0.0
C301 C 0.29667 0.09272 0.65057 0.0
C302 C 0.42001 0.09783 0.64173 0.0
C303 C 0.41999 0.11483 0.61144 0.0
H304 H 0.36092 0.07206 0.68405 0.0
H305 H 0.46543 0.08988 0.65033 0.0
S306 S 0.27389 0.1425 0.57316 0.0
N307 N 0.24192 0.12178 0.60801 0.0
N308 N 0.3553 0.14135 0.57204 0.0
C309 C 0.35978 0.12396 0.60091 0.0
C310 C 0.29818 0.11301 0.62042 0.0
C311 C 0.39742 0.2839 0.99226 0.0
C312 C 0.32316 0.23463 0.98029 0.0
C313 C 0.45826 0.34745 0.97548 0.0
C314 C 0.44718 0.36276 0.94603 0.0
H315 H 0.40732 0.27533 0.01517 0.0
H316 H 0.51411 0.38536 0.98565 0.0
S317 S 0.26356 0.24842 0.90439 0.0
N318 N 0.24137 0.2044 0.93759 0.0
N319 N 0.35647 0.32123 0.90539 0.0
C320 C 0.37347 0.31226 0.93364 0.0
C321 C 0.31122 0.24878 0.95096 0.0
C322 C 0.13153 0.37052 0.30754 0.0
C323 C 0.0985 0.29184 0.30257 0.0
C324 C 0.12879 0.42011 0.28637 0.0
C325 C 0.09528 0.394 0.25891 0.0
H326 H 0.15579 0.39334 0.32871 0.0
H327 H 0.15114 0.47902 0.29185 0.0
S328 S 0.00846 0.19689 0.23297 0.0
N329 N 0.03566 0.19184 0.2669 0.0
N330 N 0.03364 0.28703 0.22662 0.0
C331 C 0.06642 0.31724 0.25269 0.0
C332 C 0.06801 0.26588 0.27451 0.0
loop_
_geom_bond_atom_site_label_1
_geom_bond_atom_site_label_2
_geom_bond_distance
_geom_bond_site_symmetry_2
_ccdc_geom_bond_type
Mg0 O1 2.028 . S
Mg0 O7 1.986 . S
Mg0 O9 2.114 . S
Mg0 O10 2.251 . S
Mg0 O13 2.010 . S
O1 Mg0 2.028 . S
O1 C4 1.250 1_554 S
O2 Mg3 2.028 . S
O2 C4 1.248 . S
Mg3 O2 2.028 . S
Mg3 O8 2.032 1_556 S
Mg3 O10 2.079 1_556 S
C4 O1 1.250 1_556 S
C4 O2 1.248 . S
C5 O6 1.264 . S
C5 O13 1.249 1_565 S
O6 C5 1.264 . S
O7 Mg0 1.986 . S
O7 C11 1.246 . S
O8 Mg3 2.032 1_554 S
O8 C11 1.259 . S
O9 Mg0 2.114 . S
O9 C12 1.252 1_554 S
O10 Mg0 2.251 . S
O10 Mg3 2.079 1_554 S
O10 C12 1.273 1_554 S
C11 O7 1.246 . S
C11 O8 1.259 . S
C12 O9 1.252 1_556 S
C12 O10 1.273 1_556 S
O13 Mg0 2.010 . S
O13 C5 1.249 1_545 S
Mg14 O15 2.028 1_655 S
Mg14 O21 1.986 1_655 S
Mg14 O23 2.114 . S
Mg14 O24 2.251 . S
Mg14 O27 2.010 1_545 S
O15 Mg14 2.028 1_455 S
O15 C18 1.250 . S
O16 Mg17 2.028 . S
O16 C18 1.248 . S
Mg17 O16 2.028 . S
Mg17 O22 2.032 . S
Mg17 O24 2.079 1_455 S
C18 O15 1.250 . S
C18 O16 1.248 . S
C19 O20 1.264 . S
C19 O27 1.249 . S
O20 C19 1.264 . S
O21 Mg14 1.986 1_455 S
O21 C25 1.246 . S
O22 Mg17 2.032 . S
O22 C25 1.259 . S
O23 Mg14 2.114 . S
O23 C26 1.252 . S
O24 Mg14 2.251 . S
O24 Mg17 2.079 1_655 S
O24 C26 1.273 . S
C25 O21 1.246 . S
C25 O22 1.259 . S
C26 O23 1.252 . S
C26 O24 1.273 . S
O27 Mg14 2.010 1_565 S
O27 C19 1.249 . S
Mg28 O29 2.028 . S
Mg28 O35 1.986 . S
Mg28 O37 2.114 1_545 S
Mg28 O38 2.251 1_445 S
Mg28 O41 2.010 . S
O29 Mg28 2.028 . S
O29 C32 1.250 . S
O30 Mg31 2.028 1_455 S
O30 C32 1.248 . S
Mg31 O30 2.028 1_655 S
Mg31 O36 2.032 . S
Mg31 O38 2.079 1_545 S
C32 O29 1.250 . S
C32 O30 1.248 . S
C33 O34 1.264 . S
C33 O41 1.249 1_565 S
O34 C33 1.264 . S
O35 Mg28 1.986 . S
O35 C39 1.246 1_455 S
O36 Mg31 2.032 . S
O36 C39 1.259 . S
O37 Mg28 2.114 1_565 S
O37 C40 1.252 1_455 S
O38 Mg28 2.251 1_665 S
O38 Mg31 2.079 1_565 S
O38 C40 1.273 . S
C39 O35 1.246 1_655 S
C39 O36 1.259 . S
C40 O37 1.252 1_655 S
C40 O38 1.273 . S
O41 Mg28 2.010 . S
O41 C33 1.249 1_545 S
C42 C43 1.443 . S
C42 N46 1.376 . S
C42 C80 1.389 . S
C43 C42 1.443 . S
C43 C44 1.340 . S
C43 H83 0.951 . S
C44 C43 1.340 . S
C44 C45 1.439 . S
C44 H84 0.950 . S
C45 C44 1.439 . S
C45 N46 1.374 . S
C45 C79 1.395 . S
N46 C42 1.376 . S
N46 C45 1.374 . S
N46 Co47 2.008 . S
Co47 N46 2.008 . S
Co47 N48 1.995 . S
Co47 N53 2.008 1_455 S
Co47 N58 1.995 1_455 S
Co47 N63 2.282 . S
Co47 N69 2.282 . S
N48 Co47 1.995 . S
N48 C49 1.376 . S
N48 C52 1.383 . S
C49 N48 1.376 . S
C49 C50 1.446 . S
C49 C79 1.391 . S
C50 C49 1.446 . S
C50 C51 1.339 . S
C50 H85 0.949 . S
C51 C50 1.339 . S
C51 C52 1.439 . S
C51 H86 0.950 . S
C52 N48 1.383 . S
C52 C51 1.439 . S
C52 C81 1.392 . S
N53 Co47 2.008 1_655 S
N53 C54 1.376 . S
N53 C57 1.374 . S
C54 N53 1.376 . S
C54 C55 1.443 . S
C54 C81 1.389 1_655 S
C55 C54 1.443 . S
C55 C56 1.340 . S
C55 H87 0.951 . S
C56 C55 1.340 . S
C56 C57 1.439 . S
C56 H88 0.950 . S
C57 N53 1.374 . S
C57 C56 1.439 . S
C57 C82 1.395 . S
N58 Co47 1.995 1_655 S
N58 C59 1.376 . S
N58 C62 1.383 . S
C59 N58 1.376 . S
C59 C60 1.446 . S
C59 C82 1.391 . S
C60 C59 1.446 . S
C60 C61 1.339 . S
C60 H89 0.949 . S
C61 C60 1.339 . S
C61 C62 1.439 . S
C61 H90 0.950 . S
C62 N58 1.383 . S
C62 C61 1.439 . S
C62 C80 1.392 1_655 S
N63 Co47 2.282 . S
N63 C66 1.332 . S
N63 C68 1.332 . S
C64 C65 1.386 . S
C64 C67 1.388 . S
C65 C64 1.386 . S
C65 C66 1.382 . S
C65 H91 0.950 1_455 S
C66 N63 1.332 . S
C66 C65 1.382 . S
C66 H77 0.952 1_455 S
C67 C64 1.388 . S
C67 C68 1.382 . S
C67 H92 0.950 . S
C68 N63 1.332 . S
C68 C67 1.382 . S
C68 H78 0.948 . S
N69 Co47 2.282 . S
N69 C73 1.332 . S
N69 C74 1.332 1_455 S
C70 C71 1.388 1_655 S
C70 C74 1.382 . S
C70 H93 0.950 . S
C71 C70 1.388 1_455 S
C71 C72 1.386 . S
C72 C71 1.386 . S
C72 C73 1.382 . S
C72 H94 0.950 . S
C73 N69 1.332 . S
C73 C72 1.382 . S
C73 H75 0.952 . S
C74 N69 1.332 1_655 S
C74 C70 1.382 . S
C74 H76 0.948 . S
H75 C73 0.952 . S
H76 C74 0.948 . S
H77 C66 0.952 1_655 S
H78 C68 0.948 . S
C79 C45 1.395 . S
C79 C49 1.391 . S
C80 C42 1.389 . S
C80 C62 1.392 1_455 S
C81 C52 1.392 . S
C81 C54 1.389 1_455 S
C82 C57 1.395 . S
C82 C59 1.391 . S
H83 C43 0.951 . S
H84 C44 0.950 . S
H85 C50 0.949 . S
H86 C51 0.950 . S
H87 C55 0.951 . S
H88 C56 0.950 . S
H89 C60 0.949 . S
H90 C61 0.950 . S
H91 C65 0.950 1_655 S
H92 C67 0.950 . S
H93 C70 0.950 . S
H94 C72 0.950 . S
C95 C96 1.443 1_545 S
C95 N99 1.376 . S
C95 C133 1.389 . S
C96 C95 1.443 1_565 S
C96 C97 1.340 . S
C96 H136 0.951 . S
C97 C96 1.340 . S
C97 C98 1.439 . S
C97 H137 0.950 . S
C98 C97 1.439 . S
C98 N99 1.374 1_565 S
C98 C132 1.395 . S
N99 C95 1.376 . S
N99 C98 1.374 1_545 S
N99 Co100 2.008 . S
Co100 N99 2.008 . S
Co100 N101 1.995 . S
Co100 N106 2.008 . S
Co100 N111 1.995 . S
Co100 N116 2.282 . S
Co100 N122 2.282 . S
N101 Co100 1.995 . S
N101 C102 1.376 1_545 S
N101 C105 1.383 . S
C102 N101 1.376 1_565 S
C102 C103 1.446 . S
C102 C132 1.391 . S
C103 C102 1.446 . S
C103 C104 1.339 . S
C103 H138 0.949 . S
C104 C103 1.339 . S
C104 C105 1.439 1_565 S
C104 H139 0.950 . S
C105 N101 1.383 . S
C105 C104 1.439 1_545 S
C105 C134 1.392 . S
N106 Co100 2.008 . S
N106 C107 1.376 . S
N106 C110 1.374 . S
C107 N106 1.376 . S
C107 C108 1.443 . S
C107 C134 1.389 . S
C108 C107 1.443 . S
C108 C109 1.340 . S
C108 H140 0.951 . S
C109 C108 1.340 . S
C109 C110 1.439 . S
C109 H141 0.950 . S
C110 N106 1.374 . S
C110 C109 1.439 . S
C110 C135 1.395 . S
N111 Co100 1.995 . S
N111 C112 1.376 . S
N111 C115 1.383 . S
C112 N111 1.376 . S
C112 C113 1.446 . S
C112 C135 1.391 . S
C113 C112 1.446 . S
C113 C114 1.339 . S
C113 H142 0.949 . S
C114 C113 1.339 . S
C114 C115 1.439 . S
C114 H143 0.950 . S
C115 N111 1.383 . S
C115 C114 1.439 . S
C115 C133 1.392 . S
N116 Co100 2.282 . S
N116 C119 1.332 . S
N116 C121 1.332 . S
C117 C118 1.386 . S
C117 C120 1.388 . S
C118 C117 1.386 . S
C118 C119 1.382 . S
C118 H144 0.950 . S
C119 N116 1.332 . S
C119 C118 1.382 . S
C119 H130 0.952 . S
C120 C117 1.388 . S
C120 C121 1.382 . S
C120 H145 0.950 . S
C121 N116 1.332 . S
C121 C120 1.382 . S
C121 H131 0.948 . S
N122 Co100 2.282 . S
N122 C126 1.332 . S
N122 C127 1.332 . S
C123 C124 1.388 . S
C123 C127 1.382 . S
C123 H146 0.950 . S
C124 C123 1.388 . S
C124 C125 1.386 . S
C125 C124 1.386 . S
C125 C126 1.382 . S
C125 H147 0.950 . S
C126 N122 1.332 . S
C126 C125 1.382 . S
C126 H128 0.952 . S
C127 N122 1.332 . S
C127 C123 1.382 . S
C127 H129 0.948 . S
H128 C126 0.952 . S
H129 C127 0.948 . S
H130 C119 0.952 . S
H131 C121 0.948 . S
C132 C98 1.395 . S
C132 C102 1.391 . S
C133 C95 1.389 . S
C133 C115 1.392 . S
C134 C105 1.392 . S
C134 C107 1.389 . S
C135 C110 1.395 . S
C135 C112 1.391 . S
H136 C96 0.951 . S
H137 C97 0.950 . S
H138 C103 0.949 . S
H139 C104 0.950 . S
H140 C108 0.951 . S
H141 C109 0.950 . S
H142 C113 0.949 . S
H143 C114 0.950 . S
H144 C118 0.950 . S
H145 C120 0.950 . S
H146 C123 0.950 . S
H147 C125 0.950 . S
C148 C149 1.443 . S
C148 N152 1.376 . S
C148 C186 1.389 . S
C149 C148 1.443 . S
C149 C150 1.340 . S
C149 H189 0.951 . S
C150 C149 1.340 . S
C150 C151 1.439 . S
C150 H190 0.950 . S
C151 C150 1.439 . S
C151 N152 1.374 . S
C151 C185 1.395 . S
N152 C148 1.376 . S
N152 C151 1.374 . S
N152 Co153 2.008 . S
Co153 N152 2.008 . S
Co153 N154 1.995 . S
Co153 N159 2.008 . S
Co153 N164 1.995 . S
Co153 N169 2.282 . S
Co153 N175 2.282 . S
N154 Co153 1.995 . S
N154 C155 1.376 . S
N154 C158 1.383 . S
C155 N154 1.376 . S
C155 C156 1.446 . S
C155 C185 1.391 . S
C156 C155 1.446 . S
C156 C157 1.339 . S
C156 H191 0.949 . S
C157 C156 1.339 . S
C157 C158 1.439 . S
C157 H192 0.950 . S
C158 N154 1.383 . S
C158 C157 1.439 . S
C158 C187 1.392 . S
N159 Co153 2.008 . S
N159 C160 1.376 . S
N159 C163 1.374 . S
C160 N159 1.376 . S
C160 C161 1.443 . S
C160 C187 1.389 . S
C161 C160 1.443 . S
C161 C162 1.340 . S
C161 H193 0.951 . S
C162 C161 1.340 . S
C162 C163 1.439 . S
C162 H194 0.950 . S
C163 N159 1.374 . S
C163 C162 1.439 . S
C163 C188 1.395 . S
N164 Co153 1.995 . S
N164 C165 1.376 . S
N164 C168 1.383 . S
C165 N164 1.376 . S
C165 C166 1.446 . S
C165 C188 1.391 . S
C166 C165 1.446 . S
C166 C167 1.339 . S
C166 H195 0.949 . S
C167 C166 1.339 . S
C167 C168 1.439 . S
C167 H196 0.950 . S
C168 N164 1.383 . S
C168 C167 1.439 . S
C168 C186 1.392 . S
N169 Co153 2.282 . S
N169 C172 1.332 . S
N169 C174 1.332 . S
C170 C171 1.386 . S
C170 C173 1.388 . S
C171 C170 1.386 . S
C171 C172 1.382 . S
C171 H197 0.950 . S
C172 N169 1.332 . S
C172 C171 1.382 . S
C172 H183 0.952 . S
C173 C170 1.388 . S
C173 C174 1.382 . S
C173 H198 0.950 . S
C174 N169 1.332 . S
C174 C173 1.382 . S
C174 H184 0.948 . S
N175 Co153 2.282 . S
N175 C179 1.332 . S
N175 C180 1.332 . S
C176 C177 1.388 . S
C176 C180 1.382 . S
C176 H199 0.950 . S
C177 C176 1.388 . S
C177 C178 1.386 . S
C178 C177 1.386 . S
C178 C179 1.382 . S
C178 H200 0.950 . S
C179 N175 1.332 . S
C179 C178 1.382 . S
C179 H181 0.952 . S
C180 N175 1.332 . S
C180 C176 1.382 . S
C180 H182 0.948 . S
H181 C179 0.952 . S
H182 C180 0.948 . S
H183 C172 0.952 . S
H184 C174 0.948 . S
C185 C151 1.395 . S
C185 C155 1.391 . S
C186 C148 1.389 . S
C186 C168 1.392 . S
C187 C158 1.392 . S
C187 C160 1.389 . S
C188 C163 1.395 . S
C188 C165 1.391 . S
H189 C149 0.951 . S
H190 C150 0.950 . S
H191 C156 0.949 . S
H192 C157 0.950 . S
H193 C161 0.951 . S
H194 C162 0.950 . S
H195 C166 0.949 . S
H196 C167 0.950 . S
H197 C171 0.950 . S
H198 C173 0.950 . S
H199 C176 0.950 . S
H200 C178 0.950 . S
C201 C202 1.369 . S
C201 C203 1.419 . S
C201 H205 0.930 1_455 S
C202 C201 1.369 . S
C202 C211 1.429 . S
C203 C201 1.419 . S
C203 C204 1.363 . S
C203 H206 0.929 1_455 S
C204 C203 1.363 . S
C204 C210 1.428 . S
H205 C201 0.930 1_655 S
H206 C203 0.929 1_655 S
S207 N208 1.613 . S
S207 N209 1.610 . S
N208 S207 1.613 . S
N208 C211 1.350 . S
N209 S207 1.610 . S
N209 C210 1.351 . S
C210 C204 1.428 . S
C210 N209 1.351 . S
C210 C211 1.434 . S
C211 C202 1.429 . S
C211 N208 1.350 . S
C211 C210 1.434 . S
C212 C213 1.369 . S
C212 C214 1.419 . S
C212 H216 0.930 . S
C213 C212 1.369 . S
C213 C222 1.429 . S
C214 C212 1.419 . S
C214 C215 1.363 . S
C214 H217 0.929 . S
C215 C214 1.363 . S
C215 C221 1.428 . S
H216 C212 0.930 . S
H217 C214 0.929 . S
S218 N219 1.613 . S
S218 N220 1.610 1_565 S
N219 S218 1.613 . S
N219 C222 1.350 1_565 S
N220 S218 1.610 1_545 S
N220 C221 1.351 . S
C221 C215 1.428 . S
C221 N220 1.351 . S
C221 C222 1.434 . S
C222 C213 1.429 . S
C222 N219 1.350 1_545 S
C222 C221 1.434 . S
C223 C224 1.369 . S
C223 C225 1.419 . S
C223 H227 0.930 . S
C224 C223 1.369 . S
C224 C233 1.429 . S
C225 C223 1.419 . S
C225 C226 1.363 . S
C225 H228 0.929 . S
C226 C225 1.363 . S
C226 C232 1.428 . S
H227 C223 0.930 . S
H228 C225 0.929 . S
S229 N230 1.613 . S
S229 N231 1.610 . S
N230 S229 1.613 . S
N230 C233 1.350 . S
N231 S229 1.610 . S
N231 C232 1.351 . S
C232 C226 1.428 . S
C232 N231 1.351 . S
C232 C233 1.434 . S
C233 C224 1.429 . S
C233 N230 1.350 . S
C233 C232 1.434 . S
C234 C235 1.369 . S
C234 C236 1.419 . S
C234 H238 0.930 . S
C235 C234 1.369 . S
C235 C244 1.429 . S
C236 C234 1.419 . S
C236 C237 1.363 . S
C236 H239 0.929 . S
C237 C236 1.363 . S
C237 C243 1.428 . S
H238 C234 0.930 . S
H239 C236 0.929 . S
S240 N241 1.613 . S
S240 N242 1.610 . S
N241 S240 1.613 . S
N241 C244 1.350 . S
N242 S240 1.610 . S
N242 C243 1.351 . S
C243 C237 1.428 . S
C243 N242 1.351 . S
C243 C244 1.434 . S
C244 C235 1.429 . S
C244 N241 1.350 . S
C244 C243 1.434 . S
C245 C246 1.369 . S
C245 C247 1.419 . S
C245 H249 0.930 . S
C246 C245 1.369 . S
C246 C255 1.429 . S
C247 C245 1.419 . S
C247 C248 1.363 . S
C247 H250 0.929 . S
C248 C247 1.363 . S
C248 C254 1.428 . S
H249 C245 0.930 . S
H250 C247 0.929 . S
S251 N252 1.613 . S
S251 N253 1.610 . S
N252 S251 1.613 . S
N252 C255 1.350 . S
N253 S251 1.610 . S
N253 C254 1.351 . S
C254 C248 1.428 . S
C254 N253 1.351 . S
C254 C255 1.434 . S
C255 C246 1.429 . S
C255 N252 1.350 . S
C255 C254 1.434 . S
C256 C257 1.369 . S
C256 C258 1.419 . S
C256 H260 0.930 . S
C257 C256 1.369 . S
C257 C266 1.429 . S
C258 C256 1.419 . S
C258 C259 1.363 . S
C258 H261 0.929 . S
C259 C258 1.363 . S
C259 C265 1.428 . S
H260 C256 0.930 . S
H261 C258 0.929 . S
S262 N263 1.613 . S
S262 N264 1.610 . S
N263 S262 1.613 . S
N263 C266 1.350 . S
N264 S262 1.610 . S
N264 C265 1.351 . S
C265 C259 1.428 . S
C265 N264 1.351 . S
C265 C266 1.434 . S
C266 C257 1.429 . S
C266 N263 1.350 . S
C266 C265 1.434 . S
C267 C268 1.369 . S
C267 C269 1.419 . S
C267 H271 0.930 1_655 S
C268 C267 1.369 . S
C268 C277 1.429 . S
C269 C267 1.419 . S
C269 C270 1.363 . S
C269 H272 0.929 . S
C270 C269 1.363 . S
C270 C276 1.428 . S
H271 C267 0.930 1_455 S
H272 C269 0.929 . S
S273 N274 1.613 . S
S273 N275 1.603 1_565 S
N274 S273 1.613 . S
N274 C277 1.350 1_565 S
N275 S273 1.603 1_545 S
N275 C276 1.353 . S
C276 C270 1.428 . S
C276 N275 1.353 . S
C276 C277 1.434 . S
C277 C268 1.429 . S
C277 N274 1.350 1_545 S
C277 C276 1.434 . S
C278 C279 1.369 . S
C278 C280 1.419 . S
C278 H282 0.930 . S
C279 C278 1.369 . S
C279 C288 1.429 . S
C280 C278 1.419 . S
C280 C281 1.363 . S
C280 H283 0.929 . S
C281 C280 1.363 . S
C281 C287 1.428 . S
H282 C278 0.930 . S
H283 C280 0.929 . S
S284 N285 1.613 . S
S284 N286 1.610 1_455 S
N285 S284 1.613 . S
N285 C288 1.350 1_455 S
N286 S284 1.610 1_655 S
N286 C287 1.351 . S
C287 C281 1.428 . S
C287 N286 1.351 . S
C287 C288 1.434 . S
C288 C279 1.429 . S
C288 N285 1.350 1_655 S
C288 C287 1.434 . S
C289 C290 1.378 . S
C289 C291 1.419 . S
C289 H293 0.930 . S
C290 C289 1.378 . S
C290 C299 1.425 1_455 S
C291 C289 1.419 . S
C291 C292 1.363 . S
C291 H294 0.929 . S
C292 C291 1.363 . S
C292 C298 1.428 1_455 S
H293 C289 0.930 . S
H294 C291 0.929 . S
S295 N296 1.613 . S
S295 N297 1.610 . S
N296 S295 1.613 . S
N296 C299 1.350 . S
N297 S295 1.610 . S
N297 C298 1.351 . S
C298 C292 1.428 1_655 S
C298 N297 1.351 . S
C298 C299 1.434 . S
C299 C290 1.425 1_655 S
C299 N296 1.350 . S
C299 C298 1.434 . S
C300 C301 1.369 . S
C300 C302 1.419 . S
C300 H304 0.930 1_545 S
C301 C300 1.369 . S
C301 C310 1.429 . S
C302 C300 1.419 . S
C302 C303 1.363 . S
C302 H305 0.929 . S
C303 C302 1.363 . S
C303 C309 1.428 . S
H304 C300 0.930 1_565 S
H305 C302 0.929 . S
S306 N307 1.613 . S
S306 N308 1.610 . S
N307 S306 1.613 . S
N307 C310 1.350 . S
N308 S306 1.610 . S
N308 C309 1.351 . S
C309 C303 1.428 . S
C309 N308 1.351 . S
C309 C310 1.434 . S
C310 C301 1.429 . S
C310 N307 1.350 . S
C310 C309 1.434 . S
C311 C312 1.369 . S
C311 C313 1.419 . S
C311 H315 0.930 . S
C312 C311 1.369 . S
C312 C321 1.429 . S
C313 C311 1.419 . S
C313 C314 1.363 . S
C313 H316 0.929 . S
C314 C313 1.363 . S
C314 C320 1.428 . S
H315 C311 0.930 . S
H316 C313 0.929 . S
S317 N318 1.613 . S
S317 N319 1.610 . S
N318 S317 1.613 . S
N318 C321 1.350 . S
N319 S317 1.610 . S
N319 C320 1.351 . S
C320 C314 1.428 . S
C320 N319 1.351 . S
C320 C321 1.434 . S
C321 C312 1.429 . S
C321 N318 1.350 . S
C321 C320 1.434 . S
C322 C323 1.369 . S
C322 C324 1.419 . S
C322 H326 0.930 1_455 S
C323 C322 1.369 . S
C323 C332 1.429 . S
C324 C322 1.419 . S
C324 C325 1.363 . S
C324 H327 0.929 1_455 S
C325 C324 1.363 . S
C325 C331 1.428 . S
H326 C322 0.930 1_655 S
H327 C324 0.929 1_655 S
S328 N329 1.613 . S
S328 N330 1.610 . S
N329 S328 1.613 . S
N329 C332 1.350 . S
N330 S328 1.610 . S
N330 C331 1.351 . S
C331 C325 1.428 . S
C331 N330 1.351 . S
C331 C332 1.434 . S
C332 C323 1.429 . S
C332 N329 1.350 . S
C332 C331 1.434 . S
C204 C64 1.436 . S
C202 C11 1.413 . S
C213 C26 1.586 . S
C215 C134 1.606 . S
C224 C40 1.457 . S
C226 C186 1.477 . S
C235 C5 1.346 . S
C237 C80 1.472 . S
C248 C124 1.555 . S
C246 C18 1.540 . S
C257 C32 1.426 . S
C259 C170 1.446 . S
C270 C117 1.346 . S
C268 C39 1.336 . S
C279 C4 1.440 1_665 S
C281 C177 1.455 . S
C292 C71 1.438 . S
C290 C19 1.263 1_455 S
C303 C133 1.415 . S
C301 C33 1.293 1_545 S
C314 C187 1.500 . S
C312 C12 1.476 . S
C323 C25 1.446 . S
C325 C81 1.468 . S
