# Generated by pormake.
# Topology ocu, (6,8)-cn, num edge types: 1
# Building blocks:
#     Node 0, Type 0, BuildingBlock: KUMBUR_clean_sbu_0, # of connection points: 6
#     Node 1, Type 0, BuildingBlock: KUMBUR_clean_sbu_0, # of connection points: 6
#     Node 2, Type 0, BuildingBlock: KUMBUR_clean_sbu_0, # of connection points: 6
#     Node 3, Type 0, BuildingBlock: KUMBUR_clean_sbu_0, # of connection points: 6
#     Node 4, Type 0, BuildingBlock: KUMBUR_clean_sbu_0, # of connection points: 6
#     Node 5, Type 0, BuildingBlock: KUMBUR_clean_sbu_0, # of connection points: 6
#     Node 6, Type 0, BuildingBlock: KUMBUR_clean_sbu_0, # of connection points: 6
#     Node 7, Type 0, BuildingBlock: KUMBUR_clean_sbu_0, # of connection points: 6
#     Node 8, Type 1, BuildingBlock: TAGTUT_clean_sbu_1, # of connection points: 8
#     Node 9, Type 1, BuildingBlock: TAGTUT_clean_sbu_1, # of connection points: 8
#     Node 10, Type 1, BuildingBlock: TAGTUT_clean_sbu_1, # of connection points: 8
#     Node 11, Type 1, BuildingBlock: TAGTUT_clean_sbu_1, # of connection points: 8
#     Node 12, Type 1, BuildingBlock: TAGTUT_clean_sbu_1, # of connection points: 8
#     Node 13, Type 1, BuildingBlock: TAGTUT_clean_sbu_1, # of connection points: 8
#     Edge 14, Type (0, 1), BuildingBlock: UVAHIK_clean_linker_0, # of connection points: 2
#     Edge 15, Type (0, 1), BuildingBlock: UVAHIK_clean_linker_0, # of connection points: 2
#     Edge 16, Type (0, 1), BuildingBlock: UVAHIK_clean_linker_0, # of connection points: 2
#     Edge 17, Type (0, 1), BuildingBlock: UVAHIK_clean_linker_0, # of connection points: 2
#     Edge 18, Type (0, 1), BuildingBlock: UVAHIK_clean_linker_0, # of connection points: 2
#     Edge 19, Type (0, 1), BuildingBlock: UVAHIK_clean_linker_0, # of connection points: 2
#     Edge 20, Type (0, 1), BuildingBlock: UVAHIK_clean_linker_0, # of connection points: 2
#     Edge 21, Type (0, 1), BuildingBlock: UVAHIK_clean_linker_0, # of connection points: 2
#     Edge 22, Type (0, 1), BuildingBlock: UVAHIK_clean_linker_0, # of connection points: 2
#     Edge 23, Type (0, 1), BuildingBlock: UVAHIK_clean_linker_0, # of connection points: 2
#     Edge 24, Type (0, 1), BuildingBlock: UVAHIK_clean_linker_0, # of connection points: 2
#     Edge 25, Type (0, 1), BuildingBlock: UVAHIK_clean_linker_0, # of connection points: 2
#     Edge 26, Type (0, 1), BuildingBlock: UVAHIK_clean_linker_0, # of connection points: 2
#     Edge 27, Type (0, 1), BuildingBlock: UVAHIK_clean_linker_0, # of connection points: 2
#     Edge 28, Type (0, 1), BuildingBlock: UVAHIK_clean_linker_0, # of connection points: 2
#     Edge 29, Type (0, 1), BuildingBlock: UVAHIK_clean_linker_0, # of connection points: 2
#     Edge 30, Type (0, 1), BuildingBlock: UVAHIK_clean_linker_0, # of connection points: 2
#     Edge 31, Type (0, 1), BuildingBlock: UVAHIK_clean_linker_0, # of connection points: 2
#     Edge 32, Type (0, 1), BuildingBlock: UVAHIK_clean_linker_0, # of connection points: 2
#     Edge 33, Type (0, 1), BuildingBlock: UVAHIK_clean_linker_0, # of connection points: 2
#     Edge 34, Type (0, 1), BuildingBlock: UVAHIK_clean_linker_0, # of connection points: 2
#     Edge 35, Type (0, 1), BuildingBlock: UVAHIK_clean_linker_0, # of connection points: 2
#     Edge 36, Type (0, 1), BuildingBlock: UVAHIK_clean_linker_0, # of connection points: 2
#     Edge 37, Type (0, 1), BuildingBlock: UVAHIK_clean_linker_0, # of connection points: 2
#     Edge 38, Type (0, 1), BuildingBlock: UVAHIK_clean_linker_0, # of connection points: 2
#     Edge 39, Type (0, 1), BuildingBlock: UVAHIK_clean_linker_0, # of connection points: 2
#     Edge 40, Type (0, 1), BuildingBlock: UVAHIK_clean_linker_0, # of connection points: 2
#     Edge 41, Type (0, 1), BuildingBlock: UVAHIK_clean_linker_0, # of connection points: 2
#     Edge 42, Type (0, 1), BuildingBlock: UVAHIK_clean_linker_0, # of connection points: 2
#     Edge 43, Type (0, 1), BuildingBlock: UVAHIK_clean_linker_0, # of connection points: 2
#     Edge 44, Type (0, 1), BuildingBlock: UVAHIK_clean_linker_0, # of connection points: 2
#     Edge 45, Type (0, 1), BuildingBlock: UVAHIK_clean_linker_0, # of connection points: 2
#     Edge 46, Type (0, 1), BuildingBlock: UVAHIK_clean_linker_0, # of connection points: 2
#     Edge 47, Type (0, 1), BuildingBlock: UVAHIK_clean_linker_0, # of connection points: 2
#     Edge 48, Type (0, 1), BuildingBlock: UVAHIK_clean_linker_0, # of connection points: 2
#     Edge 49, Type (0, 1), BuildingBlock: UVAHIK_clean_linker_0, # of connection points: 2
#     Edge 50, Type (0, 1), BuildingBlock: UVAHIK_clean_linker_0, # of connection points: 2
#     Edge 51, Type (0, 1), BuildingBlock: UVAHIK_clean_linker_0, # of connection points: 2
#     Edge 52, Type (0, 1), BuildingBlock: UVAHIK_clean_linker_0, # of connection points: 2
#     Edge 53, Type (0, 1), BuildingBlock: UVAHIK_clean_linker_0, # of connection points: 2
#     Edge 54, Type (0, 1), BuildingBlock: UVAHIK_clean_linker_0, # of connection points: 2
#     Edge 55, Type (0, 1), BuildingBlock: UVAHIK_clean_linker_0, # of connection points: 2
#     Edge 56, Type (0, 1), BuildingBlock: UVAHIK_clean_linker_0, # of connection points: 2
#     Edge 57, Type (0, 1), BuildingBlock: UVAHIK_clean_linker_0, # of connection points: 2
#     Edge 58, Type (0, 1), BuildingBlock: UVAHIK_clean_linker_0, # of connection points: 2
#     Edge 59, Type (0, 1), BuildingBlock: UVAHIK_clean_linker_0, # of connection points: 2
#     Edge 60, Type (0, 1), BuildingBlock: UVAHIK_clean_linker_0, # of connection points: 2
#     Edge 61, Type (0, 1), BuildingBlock: UVAHIK_clean_linker_0, # of connection points: 2
# Relax obj value: 0.093
# Max RMSD: 0.267
# Mean RMSD: 0.152
data_MOF--net-ocu--node1-KUMBUR_clean_sbu_0--node2-TAGTUT_clean_sbu_1--edge1-UVAHIK_clean_linker_0
_symmetry_space_group_name_H-M    P1
_symmetry_Int_Tables_number       1
_symmetry_cell_setting            triclinic
loop_
_symmetry_equiv_pos_as_xyz
'x, y, z'
_cell_length_a     49.203424
_cell_length_b     46.608149
_cell_length_c     53.928857
_cell_angle_alpha  81.378179
_cell_angle_beta   100.56434
_cell_angle_gamma 111.1508
loop_
_atom_site_label
_atom_site_type_symbol
_atom_site_fract_x
_atom_site_fract_y
_atom_site_fract_z
_atom_type_partial_charge
Tb0 Tb 0.25654 0.22709 0.23271 0.0
C1 C 0.36274 0.31387 0.29713 0.0
C2 C 0.37226 0.28262 0.33543 0.0
C3 C 0.41226 0.32648 0.32027 0.0
C4 C 0.35281 0.28901 0.31448 0.0
C5 C 0.39245 0.33338 0.30005 0.0
C6 C 0.40218 0.30108 0.33792 0.0
C7 C 0.38015 0.36636 0.26414 0.0
N8 N 0.34283 0.31983 0.27805 0.0
C9 C 0.35091 0.34631 0.26207 0.0
C10 C 0.40111 0.35968 0.28302 0.0
Tb11 Tb 0.2954 0.28565 0.27618 0.0
N12 N 0.32372 0.27202 0.31149 0.0
C13 C 0.31229 0.24956 0.32997 0.0
C14 C 0.3609 0.25847 0.35359 0.0
C15 C 0.3307 0.24215 0.35101 0.0
H16 H 0.33509 0.35177 0.24728 0.0
H17 H 0.32155 0.22377 0.36517 0.0
H18 H 0.41753 0.29639 0.35376 0.0
H19 H 0.38651 0.38691 0.25112 0.0
H20 H 0.28906 0.23655 0.32834 0.0
H21 H 0.23244 0.28903 0.14309 0.0
H22 H 0.3751 0.25271 0.36991 0.0
H23 H 0.21551 0.16215 0.26196 0.0
H24 H 0.26425 0.27577 0.18025 0.0
H25 H 0.16352 0.12838 0.25827 0.0
H26 H 0.43524 0.34102 0.32274 0.0
H27 H 0.17868 0.26126 0.13813 0.0
H28 H 0.13549 0.21874 0.15433 0.0
H29 H 0.42372 0.37528 0.28462 0.0
H30 H 0.11668 0.17487 0.18569 0.0
N31 N 0.22897 0.24114 0.19705 0.0
C32 C 0.2409 0.26325 0.17853 0.0
C33 C 0.19257 0.25527 0.15459 0.0
C34 C 0.18067 0.23149 0.17282 0.0
C35 C 0.2229 0.27093 0.1573 0.0
C36 C 0.19973 0.22476 0.19395 0.0
H37 H 0.12705 0.14072 0.22435 0.0
N38 N 0.2087 0.19399 0.23077 0.0
C39 C 0.17042 0.14862 0.24502 0.0
C40 C 0.18919 0.20029 0.21147 0.0
C41 C 0.19995 0.16784 0.247 0.0
C42 C 0.14989 0.1557 0.22589 0.0
C43 C 0.15923 0.18157 0.20857 0.0
O44 O 0.26215 0.18512 0.22968 0.0
O45 O 0.29095 0.24144 0.26458 0.0
O46 O 0.32727 0.28489 0.25297 0.0
O47 O 0.2942 0.26393 0.21806 0.0
O48 O 0.2668 0.19573 0.26476 0.0
O49 O 0.27268 0.22252 0.20042 0.0
O50 O 0.28806 0.32669 0.27923 0.0
O51 O 0.26122 0.27124 0.24424 0.0
O52 O 0.22494 0.22862 0.25578 0.0
O53 O 0.2582 0.24825 0.29093 0.0
O54 O 0.28494 0.31696 0.24412 0.0
O55 O 0.27952 0.28962 0.30886 0.0
C56 C 0.28856 0.21552 0.27706 0.0
C57 C 0.25774 0.17184 0.18812 0.0
C58 C 0.26414 0.14213 0.15719 0.0
C59 C 0.27614 0.16476 0.17463 0.0
C60 C 0.23348 0.12714 0.15314 0.0
C61 C 0.2272 0.15673 0.18359 0.0
C62 C 0.21519 0.13459 0.16613 0.0
C63 C 0.32121 0.27861 0.22897 0.0
C64 C 0.27087 0.19404 0.20751 0.0
C65 C 0.13983 0.18881 0.18815 0.0
C66 C 0.15054 0.21377 0.1703 0.0
C67 C 0.26344 0.29706 0.23171 0.0
C68 C 0.29273 0.34037 0.32069 0.0
C69 C 0.27411 0.34761 0.33385 0.0
C70 C 0.28576 0.3705 0.35121 0.0
C71 C 0.31649 0.38578 0.35504 0.0
C72 C 0.32319 0.35572 0.32522 0.0
C73 C 0.33494 0.37824 0.34231 0.0
C74 C 0.23113 0.23385 0.28 0.0
C75 C 0.27999 0.31768 0.30162 0.0
H76 H 0.29978 0.17624 0.17819 0.0
H77 H 0.22364 0.10981 0.13973 0.0
H78 H 0.21266 0.16171 0.19373 0.0
H79 H 0.1916 0.12296 0.1628 0.0
H80 H 0.25061 0.33532 0.33052 0.0
H81 H 0.32643 0.40407 0.36754 0.0
H82 H 0.33788 0.35066 0.31533 0.0
H83 H 0.35848 0.39024 0.34547 0.0
Tb84 Tb 0.79378 0.22972 0.25399 0.0
C85 C 0.74491 0.30394 0.30681 0.0
C86 C 0.69339 0.27304 0.30696 0.0
C87 C 0.71958 0.30591 0.3409 0.0
C88 C 0.71948 0.28247 0.29594 0.0
C89 C 0.74516 0.3162 0.32925 0.0
C90 C 0.69373 0.28441 0.32975 0.0
C91 C 0.79538 0.34926 0.32617 0.0
N92 N 0.76931 0.3132 0.29508 0.0
C93 C 0.79405 0.33658 0.30387 0.0
C94 C 0.77097 0.33877 0.33909 0.0
Tb95 Tb 0.76479 0.28885 0.25974 0.0
N96 N 0.72002 0.27177 0.27402 0.0
C97 C 0.69446 0.25363 0.261 0.0
C98 C 0.66758 0.25301 0.29446 0.0
C99 C 0.66804 0.24371 0.27116 0.0
H100 H 0.81322 0.34497 0.2943 0.0
H101 H 0.64807 0.22874 0.26107 0.0
H102 H 0.67398 0.27717 0.33865 0.0
H103 H 0.81527 0.36709 0.33341 0.0
H104 H 0.69437 0.24614 0.243 0.0
H105 H 0.91137 0.28956 0.26213 0.0
H106 H 0.6471 0.24518 0.30232 0.0
H107 H 0.74801 0.18075 0.21358 0.0
H108 H 0.86256 0.27144 0.27606 0.0
H109 H 0.74973 0.16161 0.17377 0.0
H110 H 0.7194 0.31487 0.35826 0.0
H111 H 0.9169 0.27642 0.22101 0.0
H112 H 0.89363 0.24809 0.18209 0.0
H113 H 0.7721 0.34867 0.35636 0.0
H114 H 0.84967 0.21331 0.15801 0.0
N115 N 0.84015 0.24886 0.2428 0.0
C116 C 0.86449 0.26551 0.25804 0.0
C117 C 0.89532 0.26843 0.22698 0.0
C118 C 0.87058 0.25012 0.21203 0.0
C119 C 0.89229 0.27585 0.25022 0.0
C120 C 0.843 0.24041 0.22066 0.0
H121 H 0.79593 0.18081 0.15481 0.0
N122 N 0.79245 0.21146 0.21649 0.0
C123 C 0.76914 0.17845 0.18286 0.0
C124 C 0.81834 0.22099 0.20707 0.0
C125 C 0.76824 0.18932 0.20538 0.0
C126 C 0.79525 0.18938 0.17221 0.0
C127 C 0.82042 0.21053 0.18452 0.0
O128 O 0.77967 0.18167 0.2629 0.0
O129 O 0.76147 0.24111 0.26856 0.0
O130 O 0.78291 0.2763 0.29748 0.0
O131 O 0.81424 0.25166 0.28998 0.0
O132 O 0.74817 0.19845 0.2567 0.0
O133 O 0.82258 0.21104 0.279 0.0
O134 O 0.779 0.33081 0.23643 0.0
O135 O 0.79727 0.27717 0.24558 0.0
O136 O 0.77684 0.24591 0.21671 0.0
O137 O 0.74095 0.26117 0.22749 0.0
O138 O 0.81114 0.31898 0.25913 0.0
O139 O 0.73381 0.30928 0.242 0.0
C140 C 0.73972 0.21639 0.2669 0.0
C141 C 0.82 0.16554 0.26266 0.0
C142 C 0.86465 0.15798 0.2559 0.0
C143 C 0.85048 0.17181 0.26836 0.0
C144 C 0.84795 0.13787 0.23739 0.0
C145 C 0.80361 0.14461 0.24458 0.0
C146 C 0.8176 0.1312 0.23186 0.0
C147 C 0.80447 0.26508 0.30487 0.0
C148 C 0.80602 0.18297 0.2738 0.0
C149 C 0.84763 0.22091 0.17539 0.0
C150 C 0.87267 0.2407 0.18911 0.0
C151 C 0.81959 0.30124 0.24851 0.0
C152 C 0.7432 0.33128 0.20081 0.0
C153 C 0.71724 0.30922 0.19028 0.0
C154 C 0.70689 0.31137 0.16424 0.0
C155 C 0.72437 0.33534 0.14855 0.0
C156 C 0.76019 0.35476 0.18484 0.0
C157 C 0.75095 0.35649 0.15878 0.0
C158 C 0.75229 0.25228 0.21081 0.0
C159 C 0.75223 0.32992 0.22845 0.0
H160 H 0.86312 0.1872 0.2828 0.0
H161 H 0.85832 0.12701 0.22743 0.0
H162 H 0.78004 0.13904 0.23981 0.0
H163 H 0.80485 0.11553 0.2177 0.0
H164 H 0.70492 0.2905 0.20262 0.0
H165 H 0.71724 0.33875 0.12849 0.0
H166 H 0.78044 0.37184 0.19254 0.0
H167 H 0.76401 0.37485 0.14652 0.0
Tb168 Tb 0.7466 0.73814 0.26859 0.0
C169 C 0.8143 0.84711 0.1985 0.0
C170 C 0.77871 0.84909 0.16153 0.0
C171 C 0.81848 0.89605 0.17346 0.0
C172 C 0.78936 0.83244 0.18272 0.0
C173 C 0.82974 0.87893 0.19372 0.0
C174 C 0.79294 0.88114 0.15739 0.0
C175 C 0.86779 0.87359 0.22745 0.0
N176 N 0.82458 0.82958 0.21753 0.0
C177 C 0.85169 0.84207 0.23127 0.0
C178 C 0.85655 0.89224 0.20885 0.0
Tb179 Tb 0.79646 0.77831 0.22319 0.0
N180 N 0.77659 0.80146 0.18732 0.0
C181 C 0.75431 0.78533 0.17003 0.0
C182 C 0.75472 0.83287 0.14475 0.0
C183 C 0.74279 0.80078 0.14881 0.0
H184 H 0.86062 0.82794 0.24573 0.0
H185 H 0.7246 0.78789 0.13567 0.0
H186 H 0.7849 0.8944 0.14139 0.0
H187 H 0.88885 0.88347 0.23886 0.0
H188 H 0.74452 0.76057 0.17274 0.0
H189 H 0.81553 0.72785 0.35755 0.0
H190 H 0.74577 0.84478 0.1283 0.0
H191 H 0.68502 0.68788 0.242 0.0
H192 H 0.79697 0.75553 0.31976 0.0
H193 H 0.65708 0.63213 0.24793 0.0
H194 H 0.82982 0.9206 0.16962 0.0
H195 H 0.79402 0.67094 0.3645 0.0
H196 H 0.75554 0.62145 0.35037 0.0
H197 H 0.86913 0.91661 0.20581 0.0
H198 H 0.71223 0.59533 0.32054 0.0
N199 N 0.76556 0.71474 0.3046 0.0
C200 C 0.78717 0.73073 0.32237 0.0
C201 C 0.78572 0.68298 0.34778 0.0
C202 C 0.76242 0.66691 0.33035 0.0
C203 C 0.79786 0.7151 0.34394 0.0
C204 C 0.7526 0.68372 0.30883 0.0
H205 H 0.67503 0.59921 0.28248 0.0
N206 N 0.71896 0.68661 0.27257 0.0
C207 C 0.67718 0.64221 0.26047 0.0
C208 C 0.72841 0.66908 0.29218 0.0
C209 C 0.69306 0.67385 0.25722 0.0
C210 C 0.68743 0.62368 0.27994 0.0
C211 C 0.71312 0.63714 0.29634 0.0
O212 O 0.70509 0.73792 0.27366 0.0
O213 O 0.75533 0.77183 0.23599 0.0
O214 O 0.79695 0.81345 0.24618 0.0
O215 O 0.77913 0.78163 0.2818 0.0
O216 O 0.71301 0.74367 0.23692 0.0
O217 O 0.744 0.75936 0.29938 0.0
O218 O 0.83721 0.7759 0.21873 0.0
O219 O 0.78809 0.74533 0.2563 0.0
O220 O 0.74914 0.70345 0.24665 0.0
O221 O 0.76235 0.73549 0.21031 0.0
O222 O 0.83026 0.77363 0.25497 0.0
O223 O 0.79838 0.75662 0.19241 0.0
C224 C 0.72961 0.76662 0.22406 0.0
C225 C 0.69925 0.73927 0.31607 0.0
C226 C 0.6774 0.74808 0.35018 0.0
C227 C 0.69273 0.75939 0.32911 0.0
C228 C 0.66899 0.71627 0.35807 0.0
C229 C 0.6905 0.70767 0.32416 0.0
C230 C 0.67551 0.69629 0.34511 0.0
C231 C 0.79186 0.8091 0.26999 0.0
C232 C 0.71555 0.75193 0.29434 0.0
C233 C 0.7235 0.61995 0.31711 0.0
C234 C 0.74815 0.63482 0.33409 0.0
C235 C 0.81384 0.75116 0.26834 0.0
C236 C 0.84363 0.77449 0.17664 0.0
C237 C 0.85184 0.75424 0.16526 0.0
C238 C 0.86812 0.76505 0.14477 0.0
C239 C 0.87589 0.79652 0.13579 0.0
C240 C 0.85157 0.80573 0.16741 0.0
C241 C 0.86762 0.81665 0.14707 0.0
C242 C 0.75189 0.70764 0.22229 0.0
C243 C 0.82657 0.76235 0.1979 0.0
H244 H 0.69925 0.78376 0.32258 0.0
H245 H 0.65762 0.70683 0.37444 0.0
H246 H 0.69518 0.69181 0.31435 0.0
H247 H 0.66892 0.67188 0.35136 0.0
H248 H 0.84588 0.73014 0.17262 0.0
H249 H 0.88806 0.80553 0.11986 0.0
H250 H 0.84543 0.82166 0.17587 0.0
H251 H 0.87364 0.84078 0.13997 0.0
Tb252 Tb 0.29128 0.72806 0.25947 0.0
C253 C 0.25363 0.81949 0.17755 0.0
C254 C 0.29709 0.8649 0.17456 0.0
C255 C 0.26005 0.85144 0.1376 0.0
C256 C 0.28021 0.83853 0.1886 0.0
C257 C 0.2429 0.82588 0.15203 0.0
C258 C 0.28714 0.87093 0.14886 0.0
C259 C 0.19848 0.78239 0.15749 0.0
N260 N 0.23786 0.79512 0.19216 0.0
C261 C 0.21008 0.77712 0.18275 0.0
C262 C 0.21508 0.8067 0.14197 0.0
Tb263 Tb 0.25918 0.78721 0.23294 0.0
N264 N 0.28895 0.83178 0.21343 0.0
C265 C 0.31357 0.852 0.22588 0.0
C266 C 0.32312 0.8847 0.18692 0.0
C267 C 0.33115 0.87843 0.21279 0.0
H268 H 0.19714 0.75807 0.19447 0.0
H269 H 0.35099 0.89386 0.22266 0.0
H270 H 0.29995 0.89089 0.13768 0.0
H271 H 0.17677 0.76766 0.15 0.0
H272 H 0.32042 0.84763 0.24579 0.0
H273 H 0.19735 0.62357 0.26981 0.0
H274 H 0.33681 0.90514 0.17682 0.0
H275 H 0.35417 0.75469 0.29734 0.0
H276 H 0.22902 0.66906 0.24663 0.0
H277 H 0.37473 0.74412 0.34161 0.0
H278 H 0.25233 0.85663 0.11788 0.0
H279 H 0.21119 0.6121 0.31569 0.0
H280 H 0.24848 0.62531 0.35476 0.0
H281 H 0.20603 0.81077 0.12242 0.0
H282 H 0.29702 0.65803 0.37433 0.0
N283 N 0.26055 0.68431 0.27907 0.0
C284 C 0.23562 0.66456 0.26658 0.0
C285 C 0.22528 0.63223 0.30559 0.0
C286 C 0.2517 0.65141 0.31793 0.0
C287 C 0.21745 0.6386 0.27969 0.0
C288 C 0.2691 0.6774 0.30389 0.0
H289 H 0.34453 0.70216 0.36945 0.0
N290 N 0.31249 0.71939 0.3001 0.0
C291 C 0.35253 0.73034 0.33434 0.0
C292 C 0.29616 0.6956 0.31483 0.0
C293 C 0.34083 0.73619 0.30922 0.0
C294 C 0.3354 0.70669 0.35002 0.0
C295 C 0.30695 0.68868 0.34022 0.0
O296 O 0.32947 0.72059 0.25393 0.0
O297 O 0.29461 0.76983 0.23519 0.0
O298 O 0.25876 0.7617 0.20207 0.0
O299 O 0.25889 0.71534 0.22522 0.0
O300 O 0.33306 0.76532 0.25296 0.0
O301 O 0.28634 0.69218 0.2379 0.0
O302 O 0.2204 0.79355 0.23839 0.0
O303 O 0.25608 0.74569 0.25768 0.0
O304 O 0.29387 0.75498 0.29033 0.0
O305 O 0.29211 0.80057 0.26657 0.0
O306 O 0.21773 0.74925 0.23887 0.0
O307 O 0.26313 0.82251 0.2547 0.0
C308 C 0.32208 0.78307 0.23713 0.0
C309 C 0.32319 0.66971 0.24625 0.0
C310 C 0.34244 0.63471 0.23158 0.0
C311 C 0.33586 0.66213 0.228 0.0
C312 C 0.3364 0.61506 0.25387 0.0
C313 C 0.31753 0.65004 0.26848 0.0
C314 C 0.32421 0.62285 0.27226 0.0
C315 C 0.25505 0.73195 0.20349 0.0
C316 C 0.31447 0.69721 0.24075 0.0
C317 C 0.28927 0.66361 0.35471 0.0
C318 C 0.26165 0.645 0.34358 0.0
C319 C 0.22865 0.73202 0.25536 0.0
C320 C 0.22536 0.84364 0.24724 0.0
C321 C 0.2132 0.85038 0.26628 0.0
C322 C 0.20578 0.87723 0.26352 0.0
C323 C 0.21051 0.8972 0.24122 0.0
C324 C 0.22976 0.86361 0.22503 0.0
C325 C 0.22225 0.89027 0.22205 0.0
C326 C 0.29713 0.7847 0.28842 0.0
C327 C 0.23489 0.81668 0.25196 0.0
H328 H 0.33983 0.67718 0.21065 0.0
H329 H 0.34134 0.59384 0.25715 0.0
H330 H 0.30767 0.65549 0.28268 0.0
H331 H 0.31971 0.60764 0.28941 0.0
H332 H 0.21029 0.83509 0.28361 0.0
H333 H 0.2049 0.918 0.23853 0.0
H334 H 0.23926 0.8588 0.21024 0.0
H335 H 0.22574 0.90573 0.20492 0.0
Tb336 Tb 0.28656 0.7304 0.74021 0.0
C337 C 0.26634 0.78904 0.82733 0.0
C338 C 0.21584 0.76164 0.83438 0.0
C339 C 0.25252 0.78506 0.86909 0.0
C340 C 0.23777 0.77195 0.81832 0.0
C341 C 0.27394 0.79641 0.85268 0.0
C342 C 0.22352 0.76766 0.85996 0.0
C343 C 0.32261 0.82762 0.84315 0.0
N344 N 0.2864 0.79961 0.81088 0.0
C345 C 0.31411 0.81948 0.81826 0.0
C346 C 0.30257 0.81575 0.86054 0.0
Tb347 Tb 0.26981 0.78561 0.77037 0.0
N348 N 0.23119 0.76683 0.79346 0.0
C349 C 0.20248 0.75348 0.78304 0.0
C350 C 0.18671 0.74646 0.82408 0.0
C351 C 0.17996 0.74283 0.79821 0.0
H352 H 0.33 0.82882 0.8052 0.0
H353 H 0.15742 0.73167 0.78993 0.0
H354 H 0.20704 0.75967 0.87266 0.0
H355 H 0.34462 0.84316 0.84887 0.0
H356 H 0.19687 0.75052 0.76305 0.0
H357 H 0.39903 0.78336 0.72067 0.0
H358 H 0.16923 0.73812 0.83579 0.0
H359 H 0.22596 0.68794 0.70515 0.0
H360 H 0.35953 0.76541 0.74744 0.0
H361 H 0.21099 0.6744 0.66125 0.0
H362 H 0.258 0.79024 0.8887 0.0
H363 H 0.38724 0.77628 0.67493 0.0
H364 H 0.3493 0.75531 0.63799 0.0
H365 H 0.30919 0.82223 0.87979 0.0
H366 H 0.29811 0.72561 0.6218 0.0
N367 N 0.32518 0.74883 0.71711 0.0
C368 C 0.35391 0.76218 0.7275 0.0
C369 C 0.36972 0.76834 0.68659 0.0
C370 C 0.34054 0.75349 0.67626 0.0
C371 C 0.37647 0.77233 0.7124 0.0
C372 C 0.31858 0.74353 0.69228 0.0
H373 H 0.2466 0.69475 0.63048 0.0
N374 N 0.26982 0.71643 0.69966 0.0
C375 C 0.23323 0.68933 0.66714 0.0
C376 C 0.28992 0.72674 0.68324 0.0
C377 C 0.24191 0.69706 0.69215 0.0
C378 C 0.25335 0.70092 0.64981 0.0
C379 C 0.2822 0.71961 0.65782 0.0
O380 O 0.27251 0.68264 0.75244 0.0
O381 O 0.26287 0.73808 0.76691 0.0
O382 O 0.29346 0.76202 0.79915 0.0
O383 O 0.31943 0.74882 0.77323 0.0
O384 O 0.24231 0.69969 0.74794 0.0
O385 O 0.31778 0.7084 0.7486 0.0
O386 O 0.28395 0.8334 0.75828 0.0
O387 O 0.29356 0.77791 0.74376 0.0
O388 O 0.26326 0.75425 0.71141 0.0
O389 O 0.23703 0.76731 0.73718 0.0
O390 O 0.31399 0.81646 0.76252 0.0
O391 O 0.23867 0.80775 0.76221 0.0
C392 C 0.2397 0.7147 0.76501 0.0
C393 C 0.3088 0.6727 0.78447 0.0
C394 C 0.34724 0.67775 0.82104 0.0
C395 C 0.33762 0.6872 0.79614 0.0
C396 C 0.32708 0.65396 0.83467 0.0
C397 C 0.28906 0.64896 0.79832 0.0
C398 C 0.29816 0.63986 0.82338 0.0
C399 C 0.31555 0.75391 0.79571 0.0
C400 C 0.29951 0.6831 0.75814 0.0
C401 C 0.30367 0.73063 0.64145 0.0
C402 C 0.33281 0.74754 0.65066 0.0
C403 C 0.31663 0.80141 0.74551 0.0
C404 C 0.24778 0.84346 0.72634 0.0
C405 C 0.21976 0.82753 0.71397 0.0
C406 C 0.21035 0.83672 0.68896 0.0
C407 C 0.22993 0.86189 0.67594 0.0
C408 C 0.26696 0.86857 0.71313 0.0
C409 C 0.25809 0.87755 0.68797 0.0
C410 C 0.2411 0.76231 0.71473 0.0
C411 C 0.25699 0.83303 0.75266 0.0
H412 H 0.35275 0.70608 0.78579 0.0
H413 H 0.33377 0.64557 0.85379 0.0
H414 H 0.26664 0.63756 0.78982 0.0
H415 H 0.28288 0.62148 0.83398 0.0
H416 H 0.20511 0.80763 0.72382 0.0
H417 H 0.2233 0.87009 0.65674 0.0
H418 H 0.28878 0.88109 0.7222 0.0
H419 H 0.27293 0.89697 0.67785 0.0
Tb420 Tb 0.24861 0.24041 0.76843 0.0
C421 C 0.31965 0.35012 0.70022 0.0
C422 C 0.28472 0.35466 0.6634 0.0
C423 C 0.32585 0.40011 0.67635 0.0
C424 C 0.29446 0.33681 0.68419 0.0
C425 C 0.33621 0.38176 0.69617 0.0
C426 C 0.30008 0.38656 0.65998 0.0
C427 C 0.37342 0.37382 0.72963 0.0
N428 N 0.32903 0.33143 0.71876 0.0
C429 C 0.35625 0.34252 0.7327 0.0
C430 C 0.36315 0.39366 0.71153 0.0
Tb431 Tb 0.29914 0.28065 0.7234 0.0
N432 N 0.28059 0.30592 0.68809 0.0
C433 C 0.25809 0.29102 0.67038 0.0
C434 C 0.26048 0.33973 0.64623 0.0
C435 C 0.24743 0.30768 0.64952 0.0
H436 H 0.36449 0.32746 0.74675 0.0
H437 H 0.22905 0.29576 0.63606 0.0
H438 H 0.29275 0.40073 0.6443 0.0
H439 H 0.39458 0.38258 0.7412 0.0
H440 H 0.24742 0.26635 0.67247 0.0
H441 H 0.31571 0.22615 0.85762 0.0
H442 H 0.2522 0.35258 0.63006 0.0
H443 H 0.18619 0.19213 0.74115 0.0
H444 H 0.29839 0.25537 0.82027 0.0
H445 H 0.15705 0.1366 0.74595 0.0
H446 H 0.33806 0.42454 0.67306 0.0
H447 H 0.29311 0.16925 0.86332 0.0
H448 H 0.25408 0.12074 0.84798 0.0
H449 H 0.37656 0.41784 0.70905 0.0
H450 H 0.21076 0.09626 0.81751 0.0
N451 N 0.2666 0.21548 0.80404 0.0
C452 C 0.28813 0.23059 0.82229 0.0
C453 C 0.28537 0.18198 0.84676 0.0
C454 C 0.26216 0.16679 0.82884 0.0
C455 C 0.29811 0.21408 0.84364 0.0
C456 C 0.25305 0.18447 0.80758 0.0
H457 H 0.17407 0.10209 0.77962 0.0
N458 N 0.21994 0.18913 0.77139 0.0
C459 C 0.17729 0.14588 0.75858 0.0
C460 C 0.22886 0.17075 0.79058 0.0
C461 C 0.19385 0.17739 0.75597 0.0
C462 C 0.18702 0.12645 0.77755 0.0
C463 C 0.21285 0.1389 0.79412 0.0
O464 O 0.20743 0.24127 0.77326 0.0
O465 O 0.2584 0.27515 0.73656 0.0
O466 O 0.3015 0.31528 0.74777 0.0
O467 O 0.28216 0.28286 0.78266 0.0
O468 O 0.21564 0.24774 0.73703 0.0
O469 O 0.24618 0.26087 0.79975 0.0
O470 O 0.33908 0.27681 0.71823 0.0
O471 O 0.28976 0.24693 0.75589 0.0
O472 O 0.24966 0.20611 0.74514 0.0
O473 O 0.26362 0.23935 0.70954 0.0
O474 O 0.33248 0.27369 0.7547 0.0
O475 O 0.29959 0.25859 0.69231 0.0
C476 C 0.23275 0.27078 0.72466 0.0
C477 C 0.20094 0.24112 0.8157 0.0
C478 C 0.17789 0.24889 0.84942 0.0
C479 C 0.1939 0.26079 0.82881 0.0
C480 C 0.16933 0.21696 0.85681 0.0
C481 C 0.19202 0.20938 0.82329 0.0
C482 C 0.17635 0.19742 0.84379 0.0
C483 C 0.29637 0.31034 0.77162 0.0
C484 C 0.21783 0.25432 0.79439 0.0
C485 C 0.22259 0.12083 0.81456 0.0
C486 C 0.24724 0.13477 0.83191 0.0
C487 C 0.31542 0.2515 0.7678 0.0
C488 C 0.34427 0.27475 0.67587 0.0
C489 C 0.34984 0.2535 0.66341 0.0
C490 C 0.36521 0.26343 0.64234 0.0
C491 C 0.3749 0.29511 0.63396 0.0
C492 C 0.35405 0.30618 0.66721 0.0
C493 C 0.36933 0.31626 0.64635 0.0
C494 C 0.25222 0.2112 0.72071 0.0
C495 C 0.32763 0.26336 0.69743 0.0
H496 H 0.20053 0.28527 0.82267 0.0
H497 H 0.15742 0.20708 0.87283 0.0
H498 H 0.19705 0.19385 0.8134 0.0
H499 H 0.16964 0.1729 0.84963 0.0
H500 H 0.34181 0.22915 0.66995 0.0
H501 H 0.38714 0.30362 0.61804 0.0
H502 H 0.34992 0.32288 0.67652 0.0
H503 H 0.37693 0.34057 0.63978 0.0
Tb504 Tb 0.79179 0.22766 0.76071 0.0
C505 C 0.75319 0.31658 0.67685 0.0
C506 C 0.79631 0.3621 0.67258 0.0
C507 C 0.75857 0.34726 0.63626 0.0
C508 C 0.77986 0.33616 0.68729 0.0
C509 C 0.7419 0.32207 0.65133 0.0
C510 C 0.78577 0.36725 0.64688 0.0
C511 C 0.69792 0.27848 0.65801 0.0
N512 N 0.73787 0.29259 0.69206 0.0
C513 C 0.71006 0.2741 0.68325 0.0
C514 C 0.71402 0.30241 0.6419 0.0
Tb515 Tb 0.7599 0.28652 0.73286 0.0
N516 N 0.78921 0.33026 0.71213 0.0
C517 C 0.81411 0.35085 0.7239 0.0
C518 C 0.82256 0.38234 0.68426 0.0
C519 C 0.83129 0.37687 0.71012 0.0
H520 H 0.69749 0.25537 0.69545 0.0
H521 H 0.85134 0.39261 0.71945 0.0
H522 H 0.79822 0.38688 0.63519 0.0
H523 H 0.67616 0.26339 0.65101 0.0
H524 H 0.82142 0.34704 0.74381 0.0
H525 H 0.69903 0.12348 0.77605 0.0
H526 H 0.83594 0.40246 0.67361 0.0
H527 H 0.85599 0.25673 0.7966 0.0
H528 H 0.72912 0.16821 0.75103 0.0
H529 H 0.87863 0.248 0.84039 0.0
H530 H 0.7504 0.35177 0.61654 0.0
H531 H 0.71552 0.11354 0.82165 0.0
H532 H 0.75477 0.12822 0.85926 0.0
H533 H 0.70454 0.30581 0.62238 0.0
H534 H 0.80387 0.16199 0.87677 0.0
N535 N 0.76241 0.18458 0.78214 0.0
C536 C 0.73687 0.16439 0.77084 0.0
C537 C 0.72892 0.13335 0.81073 0.0
C538 C 0.75588 0.153 0.82186 0.0
C539 C 0.71959 0.13884 0.785 0.0
C540 C 0.77235 0.17853 0.8068 0.0
H541 H 0.85044 0.20651 0.86976 0.0
N542 N 0.81501 0.22079 0.80095 0.0
C543 C 0.85635 0.23361 0.83396 0.0
C544 C 0.79972 0.19733 0.81657 0.0
C545 C 0.84342 0.2384 0.80906 0.0
C546 C 0.84036 0.21022 0.8505 0.0
C547 C 0.81177 0.19147 0.8418 0.0
O548 O 0.82909 0.22089 0.7525 0.0
O549 O 0.79512 0.26882 0.73548 0.0
O550 O 0.75914 0.25941 0.70281 0.0
O551 O 0.75772 0.21373 0.72776 0.0
O552 O 0.83356 0.26438 0.7533 0.0
O553 O 0.78535 0.18961 0.74094 0.0
O554 O 0.7215 0.29274 0.73911 0.0
O555 O 0.75693 0.24586 0.75867 0.0
O556 O 0.79478 0.25551 0.79097 0.0
O557 O 0.79313 0.30068 0.76631 0.0
O558 O 0.71837 0.24935 0.74012 0.0
O559 O 0.76454 0.32409 0.75242 0.0
C560 C 0.82263 0.28189 0.73714 0.0
C561 C 0.82441 0.17032 0.74574 0.0
C562 C 0.84434 0.13771 0.72849 0.0
C563 C 0.83198 0.16118 0.72516 0.0
C564 C 0.84805 0.12281 0.75296 0.0
C565 C 0.82818 0.1553 0.76994 0.0
C566 C 0.83983 0.13147 0.77345 0.0
C567 C 0.75432 0.22936 0.70548 0.0
C568 C 0.81341 0.19622 0.74108 0.0
C569 C 0.79512 0.16677 0.85727 0.0
C570 C 0.76718 0.14756 0.84731 0.0
C571 C 0.72945 0.23256 0.75697 0.0
C572 C 0.72538 0.34344 0.74472 0.0
C573 C 0.71677 0.35362 0.76421 0.0
C574 C 0.70536 0.37786 0.75923 0.0
C575 C 0.70292 0.39197 0.73436 0.0
C576 C 0.72305 0.35785 0.72008 0.0
C577 C 0.71188 0.38209 0.71498 0.0
C578 C 0.79823 0.28533 0.78845 0.0
C579 C 0.73626 0.31744 0.75082 0.0
H580 H 0.82824 0.17261 0.70647 0.0
H581 H 0.85785 0.10493 0.75644 0.0
H582 H 0.82234 0.16211 0.786 0.0
H583 H 0.84291 0.11996 0.79219 0.0
H584 H 0.71835 0.34214 0.78319 0.0
H585 H 0.69432 0.41079 0.72997 0.0
H586 H 0.72968 0.35028 0.70486 0.0
H587 H 0.71003 0.39317 0.69592 0.0
Tb588 Tb 0.75818 0.73026 0.73348 0.0
C589 C 0.86265 0.80982 0.80296 0.0
C590 C 0.86811 0.77494 0.83992 0.0
C591 C 0.91078 0.81789 0.828 0.0
C592 C 0.85053 0.78399 0.8187 0.0
C593 C 0.89271 0.82777 0.80787 0.0
C594 C 0.89848 0.79144 0.84401 0.0
C595 C 0.88373 0.86595 0.77506 0.0
N596 N 0.84428 0.8189 0.78419 0.0
C597 C 0.85403 0.84738 0.77113 0.0
C598 C 0.9033 0.85583 0.79319 0.0
Tb599 Tb 0.79605 0.78703 0.77858 0.0
N600 N 0.82105 0.76915 0.81427 0.0
C601 C 0.80743 0.74651 0.83179 0.0
C602 C 0.85445 0.7504 0.85688 0.0
C603 C 0.82391 0.73649 0.85302 0.0
H604 H 0.83907 0.85539 0.75705 0.0
H605 H 0.813 0.71795 0.86634 0.0
H606 H 0.91242 0.78462 0.86001 0.0
H607 H 0.89148 0.88805 0.76412 0.0
H608 H 0.78389 0.73525 0.82927 0.0
H609 H 0.73929 0.79935 0.64623 0.0
H610 H 0.86715 0.74265 0.87337 0.0
H611 H 0.71669 0.66099 0.75488 0.0
H612 H 0.76908 0.78279 0.68319 0.0
H613 H 0.66502 0.62657 0.74722 0.0
H614 H 0.93401 0.83114 0.83191 0.0
H615 H 0.68538 0.77285 0.63897 0.0
H616 H 0.64095 0.72923 0.65191 0.0
H617 H 0.92624 0.87035 0.79636 0.0
H618 H 0.62054 0.68189 0.67958 0.0
N619 N 0.7325 0.74756 0.69793 0.0
C620 C 0.74565 0.77075 0.68056 0.0
C621 C 0.69838 0.76542 0.6554 0.0
C622 C 0.68529 0.7403 0.67215 0.0
C623 C 0.72878 0.78035 0.6594 0.0
C624 C 0.70323 0.73172 0.69333 0.0
H625 H 0.62953 0.64294 0.71485 0.0
N626 N 0.71046 0.69712 0.72777 0.0
C627 C 0.67216 0.64886 0.73643 0.0
C628 C 0.69175 0.70549 0.70888 0.0
C629 C 0.70148 0.66847 0.74072 0.0
C630 C 0.65217 0.65822 0.71823 0.0
C631 C 0.66202 0.68657 0.70376 0.0
O632 O 0.76493 0.68899 0.72995 0.0
O633 O 0.79223 0.74359 0.76587 0.0
O634 O 0.82859 0.78982 0.75463 0.0
O635 O 0.79669 0.76657 0.71983 0.0
O636 O 0.76702 0.69806 0.76532 0.0
O637 O 0.77486 0.7269 0.70113 0.0
O638 O 0.79197 0.82955 0.78272 0.0
O639 O 0.76199 0.77364 0.74631 0.0
O640 O 0.72539 0.72685 0.75742 0.0
O641 O 0.75707 0.75113 0.79199 0.0
O642 O 0.78685 0.81923 0.74681 0.0
O643 O 0.77836 0.79066 0.81015 0.0
C644 C 0.78892 0.71729 0.77801 0.0
C645 C 0.76126 0.67681 0.68817 0.0
C646 C 0.76909 0.64841 0.65714 0.0
C647 C 0.78033 0.67045 0.67502 0.0
C648 C 0.73854 0.63315 0.6523 0.0
C649 C 0.7308 0.66166 0.68276 0.0
C650 C 0.71955 0.63997 0.66491 0.0
C651 C 0.82304 0.78286 0.73086 0.0
C652 C 0.77369 0.69857 0.70788 0.0
C653 C 0.64354 0.69588 0.68365 0.0
C654 C 0.65517 0.7228 0.66788 0.0
C655 C 0.76492 0.79989 0.73423 0.0
C656 C 0.79453 0.83999 0.8249 0.0
C657 C 0.77614 0.8497 0.83626 0.0
C658 C 0.78782 0.86853 0.85656 0.0
C659 C 0.81823 0.87758 0.86513 0.0
C660 C 0.82473 0.8493 0.83384 0.0
C661 C 0.83648 0.86803 0.8538 0.0
C662 C 0.73083 0.7342 0.78112 0.0
C663 C 0.78168 0.81968 0.80417 0.0
H664 H 0.8039 0.68208 0.67912 0.0
H665 H 0.72937 0.61619 0.63855 0.0
H666 H 0.71569 0.66629 0.6924 0.0
H667 H 0.69602 0.62827 0.66094 0.0
H668 H 0.75271 0.84216 0.82957 0.0
H669 H 0.82801 0.89238 0.88042 0.0
H670 H 0.83924 0.84212 0.82548 0.0
H671 H 0.85985 0.87518 0.86054 0.0
C672 C 0.96516 0.06299 0.53253 0.0
C673 C 0.99908 0.07981 0.45894 0.0
C674 C 0.96267 0.96029 0.45729 0.0
Mg675 Mg 1.02273 0.06663 0.5143 0.0
O676 O 1.00147 0.02432 0.51238 0.0
Mg677 Mg 0.96167 0.01295 0.49114 0.0
Mg678 Mg 1.01861 1.0 0.49659 0.0
O679 O 0.03611 0.97658 0.48021 0.0
Mg680 Mg 1.01594 0.93512 0.47447 0.0
Mg681 Mg 0.07599 0.98808 0.50103 0.0
C682 C 0.0749 0.04025 0.53497 0.0
C683 C 0.06875 0.04763 0.46434 0.0
O684 O 0.95033 0.04172 0.51763 0.0
O685 O 0.99323 0.07543 0.53433 0.0
O686 O 0.9767 0.05537 0.46195 0.0
O687 O 1.02063 0.08831 0.47654 0.0
O688 O 0.0646 0.06239 0.53265 0.0
O689 O 0.06023 0.01442 0.52547 0.0
C690 C 0.96808 0.95363 0.52922 0.0
O691 O 0.99386 0.95976 0.5233 0.0
O692 O 0.95195 0.97011 0.5197 0.0
O693 O 0.08838 0.96206 0.47306 0.0
O694 O 0.04673 0.92886 0.45399 0.0
O695 O 0.0607 0.94315 0.52803 0.0
C696 C 0.0748 0.94183 0.45704 0.0
O697 O 1.01772 0.91069 0.51082 0.0
O698 O 0.97363 0.93906 0.45737 0.0
C699 C 0.03858 0.91794 0.52913 0.0
O700 O 0.97709 0.98516 0.46816 0.0
O701 O 0.04268 0.04004 0.4699 0.0
O702 O 0.08588 0.03233 0.4739 0.0
C703 C 0.44543 0.0575 0.0177 0.0
C704 C 0.46913 0.07212 0.94342 0.0
C705 C 0.47947 0.95207 0.97224 0.0
Mg706 Mg 0.50515 0.0759 0.99771 0.0
O707 O 0.49669 0.03347 0.00208 0.0
Mg708 Mg 0.45784 0.00687 0.98526 0.0
Mg709 Mg 0.5247 0.01261 0.99812 0.0
O710 O 0.55254 0.99147 0.99426 0.0
Mg711 Mg 0.54301 0.94888 0.00075 0.0
Mg712 Mg 0.59116 0.01784 0.01168 0.0
C713 C 0.56979 0.07327 0.02362 0.0
C714 C 0.57188 0.0587 0.96104 0.0
O715 O 0.43574 0.03331 0.00527 0.0
O716 O 0.47214 0.07601 0.01874 0.0
O717 O 0.45683 0.04302 0.94932 0.0
O718 O 0.49012 0.08883 0.95854 0.0
O719 O 0.55152 0.08756 0.01452 0.0
O720 O 0.56277 0.04372 0.02419 0.0
C721 C 0.47804 0.96606 0.03534 0.0
O722 O 0.50526 0.97781 0.03205 0.0
O723 O 0.45799 0.97355 0.02016 0.0
O724 O 0.61292 0.99041 0.99284 0.0
O725 O 0.57687 0.94622 0.98199 0.0
O726 O 0.59158 0.98198 0.04806 0.0
C727 C 0.60348 0.96487 0.98225 0.0
O728 O 0.55634 0.93678 0.04043 0.0
O729 O 0.49724 0.93747 0.98221 0.0
C730 C 0.57828 0.95334 0.05486 0.0
O731 O 0.48652 0.9816 0.97194 0.0
O732 O 0.54457 0.04742 0.96422 0.0
O733 O 0.59165 0.05091 0.97641 0.0
C734 C 0.9718 0.57625 0.02373 0.0
C735 C 0.97588 0.56769 0.9482 0.0
C736 C 0.96825 0.44568 0.98659 0.0
Mg737 Mg 1.02231 0.57545 0.99665 0.0
O738 O 1.00755 0.5338 0.00885 0.0
Mg739 Mg 0.9646 0.51112 0.99838 0.0
Mg740 Mg 0.02616 0.50387 0.00319 0.0
O741 O 0.04437 0.47351 0.99773 0.0
Mg742 Mg 0.02902 0.43186 0.00991 0.0
Mg743 Mg 0.0871 0.49567 0.00867 0.0
C744 C 0.08371 0.56206 0.01808 0.0
C745 C 0.06671 0.53431 0.95729 0.0
O746 O 0.95602 0.54903 0.01707 0.0
O747 O 0.99833 0.58986 0.01895 0.0
O748 O 0.9615 0.54196 0.95971 0.0
O749 O 1.00189 0.5836 0.95774 0.0
O750 O 0.06919 0.58036 0.00868 0.0
O751 O 0.07127 0.53258 0.02195 0.0
C752 C 0.98559 0.4712 0.0488 0.0
O753 O 1.01046 0.47654 0.04132 0.0
O754 O 0.96621 0.48184 0.03591 0.0
O755 O 0.09582 0.4572 0.99097 0.0
O756 O 0.05333 0.41669 0.98849 0.0
O757 O 0.08923 0.46587 0.04776 0.0
C758 C 0.08006 0.43004 0.98421 0.0
O759 O 0.0487 0.42422 0.04921 0.0
O760 O 0.98238 0.42703 0.9961 0.0
C761 C 0.07446 0.44028 0.05918 0.0
O762 O 0.98101 0.47523 0.98423 0.0
O763 O 0.0424 0.5312 0.96495 0.0
O764 O 0.08527 0.52281 0.97054 0.0
C765 C 0.47592 0.55769 0.04606 0.0
C766 C 0.51327 0.58313 0.97491 0.0
C767 C 0.47004 0.46392 0.96126 0.0
Mg768 Mg 0.53358 0.56038 0.02869 0.0
O769 O 0.51072 0.51977 0.02175 0.0
Mg770 Mg 0.47173 0.51318 -0.00018 0.0
Mg771 Mg 0.52652 0.49642 0.00338 0.0
O772 O 0.54255 0.47375 0.98481 0.0
Mg773 Mg 0.5205 0.43432 0.97503 0.0
Mg774 Mg 0.58196 0.48041 0.0058 0.0
C775 C 0.583 0.5289 0.04503 0.0
C776 C 0.57978 0.54511 0.97443 0.0
O777 O 0.46131 0.53893 0.02914 0.0
O778 O 0.50414 0.56847 0.04965 0.0
O779 O 0.48998 0.55909 0.97508 0.0
O780 O 0.53416 0.58785 0.99335 0.0
O781 O 0.57382 0.55136 0.04551 0.0
O782 O 0.56758 0.50493 0.03316 0.0
C783 C 0.47351 0.44937 0.0332 0.0
O784 O 0.49905 0.45432 0.02721 0.0
O785 O 0.45909 0.4678 0.02485 0.0
O786 O 0.59296 0.45725 0.97462 0.0
O787 O 0.55016 0.43079 0.95212 0.0
O788 O 0.56415 0.4325 0.02875 0.0
C789 C 0.57836 0.44105 0.95604 0.0
O790 O 0.52091 0.40412 0.00858 0.0
O791 O 0.47957 0.4421 0.95956 0.0
C792 C 0.54139 0.40781 0.02734 0.0
O793 O 0.48551 0.48732 0.97373 0.0
O794 O 0.55372 0.53867 0.97978 0.0
O795 O 0.59487 0.52728 0.98245 0.0
C796 C 0.95304 0.56929 0.51757 0.0
C797 C 0.97441 0.57752 0.44371 0.0
C798 C 0.98179 0.45738 0.47769 0.0
Mg799 Mg 1.01217 0.58386 0.49742 0.0
O800 O 1.0023 0.54129 0.50411 0.0
Mg801 Mg 0.96282 0.51491 0.48827 0.0
Mg802 Mg 0.02896 0.51851 0.5006 0.0
O803 O 0.05581 0.49624 0.49661 0.0
Mg804 Mg 0.04659 0.45371 0.50138 0.0
Mg805 Mg 0.09535 0.52261 0.51235 0.0
C806 C 0.07581 0.57941 0.52529 0.0
C807 C 0.07488 0.56251 0.46177 0.0
O808 O 0.9426 0.54418 0.50638 0.0
O809 O 0.97995 0.58715 0.51799 0.0
O810 O 0.96173 0.54885 0.45088 0.0
O811 O 0.9963 0.59474 0.45782 0.0
O812 O 0.05837 0.59444 0.51529 0.0
O813 O 0.06823 0.5498 0.52567 0.0
C814 C 0.983 0.4768 0.5403 0.0
O815 O 1.00973 0.48549 0.53573 0.0
O816 O 0.9633 0.48483 0.52508 0.0
O817 O 0.11589 0.49428 0.49265 0.0
O818 O 0.07856 0.45187 0.47986 0.0
O819 O 0.09642 0.48726 0.54886 0.0
C820 C 0.1055 0.46974 0.48062 0.0
O821 O 0.06225 0.44159 0.54048 0.0
O822 O 0.99978 0.44263 0.48633 0.0
C823 C 0.0837 0.45835 0.55521 0.0
O824 O 0.98963 0.48704 0.47614 0.0
O825 O 0.04784 0.55153 0.46568 0.0
O826 O 0.09501 0.55502 0.47682 0.0
C827 C 0.46901 0.07519 0.52158 0.0
C828 C 0.47665 0.06825 0.44664 0.0
C829 C 0.46904 0.94574 0.48541 0.0
Mg830 Mg 0.52113 0.07549 0.49629 0.0
O831 O 0.50647 0.03363 0.5077 0.0
Mg832 Mg 0.46391 0.01088 0.49595 0.0
Mg833 Mg 0.52593 1.00421 0.5025 0.0
O834 O 0.54504 0.97439 0.49751 0.0
Mg835 Mg 0.53008 0.9327 0.50964 0.0
Mg836 Mg 0.58763 0.99699 0.50876 0.0
C837 C 0.58271 0.06285 0.51901 0.0
C838 C 0.56737 0.03575 0.45727 0.0
O839 O 0.45376 0.04813 0.51429 0.0
O840 O 0.49586 0.08907 0.51782 0.0
O841 O 0.46207 0.04211 0.45745 0.0
O842 O 0.50214 0.0843 0.45707 0.0
O843 O 0.56772 0.08071 0.50968 0.0
O844 O 0.57072 0.0332 0.52202 0.0
C845 C 0.48329 0.97034 0.54652 0.0
O846 O 0.50886 0.97611 0.54016 0.0
O847 O 0.46446 0.9813 0.53303 0.0
O848 O 0.59718 0.95897 0.49097 0.0
O849 O 0.55494 0.91815 0.48837 0.0
O850 O 0.58985 0.967 0.54781 0.0
C851 C 0.58166 0.93175 0.48416 0.0
O852 O 0.54965 0.92498 0.54906 0.0
O853 O 0.48341 0.92745 0.49538 0.0
C854 C 0.57528 0.94124 0.55915 0.0
O855 O 0.48148 0.97534 0.48268 0.0
O856 O 0.54276 0.03205 0.46463 0.0
O857 O 0.58599 0.02449 0.47075 0.0
C858 C 0.17791 0.20781 0.28599 0.0
C859 C 0.20755 0.22141 0.29624 0.0
C860 C 0.15621 0.19466 0.30194 0.0
C861 C 0.14363 0.19019 0.36889 0.0
H862 H 0.09182 0.10674 0.35703 0.0
C863 C 0.10792 0.09319 0.44708 0.0
C864 C 0.07853 0.07344 0.44499 0.0
C865 C 0.11758 0.11626 0.42773 0.0
C866 C 0.1057 0.13026 0.36034 0.0
H867 H 0.2374 0.23297 0.33122 0.0
H868 H 0.20012 0.20981 0.35867 0.0
H869 H 0.12 0.13882 0.32397 0.0
H870 H 0.03614 0.06191 0.42129 0.0
H871 H 0.05331 0.10191 0.38699 0.0
H872 H 0.13092 0.1806 0.40602 0.0
C873 C 0.19331 0.20957 0.33841 0.0
C874 C 0.12178 0.1487 0.34139 0.0
C875 C 0.21485 0.22262 0.32258 0.0
C876 C 0.05881 0.0773 0.42344 0.0
C877 C 0.06861 0.09997 0.40383 0.0
C878 C 0.12788 0.17162 0.38792 0.0
C879 C 0.16378 0.1951 0.32838 0.0
C880 C 0.1419 0.17839 0.34589 0.0
C881 C 0.09813 0.11947 0.40576 0.0
C882 C 0.10967 0.14113 0.38413 0.0
H883 H 0.17148 0.20706 0.26573 0.0
H884 H 0.13359 0.18391 0.29361 0.0
H885 H 0.15834 0.21328 0.37268 0.0
H886 H 0.12348 0.09055 0.46352 0.0
H887 H 0.14058 0.13074 0.42947 0.0
C888 C 0.90505 0.13624 0.2692 0.0
C889 C 0.89614 0.16217 0.26426 0.0
C890 C 0.93251 0.13838 0.2829 0.0
C891 C 0.97841 0.18141 0.33471 0.0
H892 H 1.01146 0.11645 0.33992 0.0
C893 C 1.01996 0.12816 0.43088 0.0
C894 C 1.00093 0.09734 0.43378 0.0
C895 C 1.02142 0.14446 0.40687 0.0
C896 C 1.0031 0.13528 0.33854 0.0
H897 H 0.91043 0.21159 0.2666 0.0
H898 H 0.95864 0.2154 0.29064 0.0
H899 H 0.98919 0.13328 0.29868 0.0
H900 H 0.96984 0.05894 0.41377 0.0
H901 H 0.97261 0.08718 0.37206 0.0
H902 H 0.99063 0.18192 0.37484 0.0
C903 C 0.94411 0.19323 0.28444 0.0
C904 C 0.99022 0.14482 0.315 0.0
C905 C 0.9165 0.19104 0.27077 0.0
C906 C 0.98433 0.08279 0.41221 0.0
C907 C 0.98631 0.09879 0.38828 0.0
C908 C 0.99166 0.17218 0.35816 0.0
C909 C 0.95171 0.16655 0.29195 0.0
C910 C 0.97553 0.16611 0.31325 0.0
C911 C 1.00451 0.12985 0.38541 0.0
C912 C 1.00202 0.14743 0.36048 0.0
H913 H 0.88986 0.11365 0.26452 0.0
H914 H 0.93729 0.1172 0.28843 0.0
H915 H 0.96746 0.19794 0.33421 0.0
H916 H 0.03321 0.13986 0.44719 0.0
H917 H 0.03537 0.16851 0.40506 0.0
C918 C 0.82963 0.85661 0.28703 0.0
C919 C 0.80065 0.83592 0.28468 0.0
C920 C 0.8388 0.87949 0.30379 0.0
C921 C 0.85425 0.93048 0.33759 0.0
H922 H 0.82765 0.89769 0.40272 0.0
C923 C 0.92652 0.97951 0.42719 0.0
C924 C 0.93298 0.95552 0.44332 0.0
C925 C 0.90158 0.97275 0.4087 0.0
C926 C 0.8351 0.90745 0.3846 0.0
H927 H 0.75791 0.82377 0.29662 0.0
H928 H 0.77356 0.86427 0.32542 0.0
H929 H 0.80153 0.87115 0.36545 0.0
H930 H 0.91709 0.90652 0.455 0.0
H931 H 0.87395 0.89469 0.42324 0.0
H932 H 0.88967 0.96493 0.35733 0.0
C933 C 0.78953 0.86254 0.31485 0.0
C934 C 0.81992 0.89237 0.36307 0.0
C935 C 0.78052 0.83939 0.29833 0.0
C936 C 0.91266 0.92537 0.4426 0.0
C937 C 0.88774 0.91868 0.42445 0.0
C938 C 0.86968 0.94533 0.35921 0.0
C939 C 0.81905 0.88229 0.31842 0.0
C940 C 0.83029 0.90271 0.33953 0.0
C941 C 0.88267 0.94198 0.40641 0.0
C942 C 0.86127 0.93288 0.38319 0.0
H943 H 0.84571 0.85389 0.27726 0.0
H944 H 0.86186 0.89367 0.30636 0.0
H945 H 0.8623 0.93967 0.31963 0.0
H946 H 0.94193 1.00296 0.42745 0.0
H947 H 0.89808 0.99126 0.39527 0.0
C948 C 0.20519 0.91403 0.29286 0.0
C949 C 0.19364 0.88448 0.28413 0.0
C950 C 0.19444 0.92045 0.31292 0.0
C951 C 0.15032 0.8814 0.3657 0.0
H952 H 0.14423 0.96206 0.36571 0.0
C953 C 0.07943 0.90691 0.42818 0.0
C954 C 0.09175 0.93427 0.44044 0.0
C955 C 0.09418 0.90076 0.41092 0.0
C956 C 0.14613 0.93954 0.36611 0.0
H957 H 0.16132 0.83871 0.28911 0.0
H958 H 0.14183 0.85005 0.32342 0.0
H959 H 0.16458 0.95169 0.33146 0.0
H960 H 0.12954 0.9764 0.44444 0.0
H961 H 0.15512 0.9658 0.41387 0.0
H962 H 0.13078 0.86906 0.39993 0.0
C963 C 0.15985 0.86811 0.31545 0.0
C964 C 0.15787 0.93357 0.34649 0.0
C965 C 0.17087 0.86161 0.29564 0.0
C966 C 0.1195 0.95506 0.4354 0.0
C967 C 0.13405 0.94912 0.41779 0.0
C968 C 0.13823 0.88727 0.38511 0.0
C969 C 0.17161 0.89756 0.32454 0.0
C970 C 0.15996 0.90432 0.34589 0.0
C971 C 0.12141 0.92201 0.40522 0.0
C972 C 0.13585 0.91634 0.38545 0.0
H973 H 0.22302 0.932 0.28455 0.0
H974 H 0.20444 0.94324 0.31958 0.0
H975 H 0.15216 0.85884 0.36631 0.0
H976 H 0.05814 0.89036 0.43168 0.0
H977 H 0.08381 0.87978 0.40141 0.0
C978 C 0.15647 0.81156 0.69231 0.0
C979 C 0.17948 0.82141 0.6774 0.0
C980 C 0.1272 0.80183 0.68107 0.0
C981 C 0.07832 0.82161 0.65222 0.0
H982 H 0.05452 0.80251 0.58237 0.0
C983 C 0.05632 0.90511 0.57427 0.0
C984 C 0.03778 0.89575 0.55175 0.0
C985 C 0.05849 0.88335 0.59452 0.0
C986 C 0.06 0.80707 0.60212 0.0
H987 H 0.18951 0.82482 0.63934 0.0
H988 H 0.13868 0.81044 0.61948 0.0
H989 H 0.08838 0.78026 0.60975 0.0
H990 H 1.00495 0.85672 0.53348 0.0
H991 H 1.00956 0.81849 0.56879 0.0
H992 H 0.05147 0.85003 0.64407 0.0
C993 C 0.14307 0.80949 0.63995 0.0
C994 C 0.07972 0.7946 0.61773 0.0
C995 C 0.17239 0.81853 0.65127 0.0
C996 C 1.01975 0.86456 0.55054 0.0
C997 C 1.02222 0.84267 0.57073 0.0
C998 C 0.05846 0.83381 0.6367 0.0
C999 C 0.12021 0.80273 0.65462 0.0
C1000 C 0.09109 0.80404 0.64221 0.0
C1001 C 0.04238 0.85177 0.59254 0.0
C1002 C 0.05129 0.82885 0.61096 0.0
H1003 H 0.16083 0.81333 0.71253 0.0
H1004 H 0.11013 0.79602 0.69298 0.0
H1005 H 0.0862 0.82924 0.67105 0.0
H1006 H 0.07007 0.92906 0.57589 0.0
H1007 H 0.0745 0.89107 0.61098 0.0
C1008 C 0.24127 0.19115 0.67822 0.0
C1009 C 0.2406 0.1851 0.70449 0.0
C1010 C 0.22965 0.16731 0.66238 0.0
C1011 C 0.21477 0.11244 0.63298 0.0
H1012 H 0.13487 0.05821 0.63921 0.0
C1013 C 0.10489 0.0236 0.5729 0.0
C1014 C 0.10314 0.04448 0.55151 0.0
C1015 C 0.12764 0.03253 0.59312 0.0
C1016 C 0.15746 0.07253 0.63749 0.0
H1017 H 0.22829 0.14867 0.73475 0.0
H1018 H 0.20705 0.10679 0.70676 0.0
H1019 H 0.16351 0.09017 0.67334 0.0
H1020 H 0.12488 0.08959 0.53325 0.0
H1021 H 0.16498 0.10479 0.56789 0.0
H1022 H 0.20801 0.09628 0.59641 0.0
C1023 C 0.21659 0.13026 0.69856 0.0
C1024 C 0.17387 0.09091 0.65708 0.0
C1025 C 0.22859 0.15427 0.71457 0.0
C1026 C 0.12594 0.07303 0.54949 0.0
C1027 C 0.1489 0.08169 0.56937 0.0
C1028 C 0.19835 0.09418 0.61339 0.0
C1029 C 0.21689 0.13659 0.67223 0.0
C1030 C 0.20222 0.11211 0.65451 0.0
C1031 C 0.14921 0.0622 0.59193 0.0
C1032 C 0.16907 0.07504 0.61496 0.0
H1033 H 0.25038 0.21446 0.66961 0.0
H1034 H 0.22978 0.17317 0.64218 0.0
H1035 H 0.23681 0.12802 0.63068 0.0
H1036 H 0.0873 1.00159 0.57499 0.0
H1037 H 0.12743 0.01698 0.61021 0.0
C1038 C 0.86585 0.15286 0.68758 0.0
C1039 C 0.85409 0.12974 0.70657 0.0
C1040 C 0.87497 0.14575 0.66698 0.0
C1041 C 0.87145 0.08001 0.63292 0.0
H1042 H 0.94026 0.14127 0.60767 0.0
C1043 C 0.91913 0.0617 0.54781 0.0
C1044 C 0.95 0.07216 0.54976 0.0
C1045 C 0.90545 0.06932 0.56526 0.0
C1046 C 0.92116 0.12372 0.61457 0.0
H1047 H 0.84264 0.08071 0.71839 0.0
H1048 H 0.86019 0.06863 0.68322 0.0
H1049 H 0.92104 0.15218 0.64197 0.0
H1050 H 0.99061 0.09873 0.57179 0.0
H1051 H 0.96708 0.11106 0.6022 0.0
H1052 H 0.87282 0.05088 0.60634 0.0
C1053 C 0.86152 0.0922 0.6839 0.0
C1054 C 0.90977 0.13021 0.63407 0.0
C1055 C 0.8519 0.09924 0.70437 0.0
C1056 C 0.96678 0.0905 0.56941 0.0
C1057 C 0.95321 0.09778 0.58689 0.0
C1058 C 0.88315 0.07333 0.61358 0.0
C1059 C 0.87332 0.11541 0.66496 0.0
C1060 C 0.88483 0.10844 0.64365 0.0
C1061 C 0.92238 0.08736 0.58512 0.0
C1062 C 0.90839 0.095 0.60435 0.0
H1063 H 0.86849 0.17673 0.68871 0.0
H1064 H 0.88339 0.16422 0.65264 0.0
H1065 H 0.85195 0.06283 0.63948 0.0
H1066 H 0.90553 0.04752 0.5329 0.0
H1067 H 0.88165 0.06115 0.56312 0.0
C1068 C 0.84819 0.77489 0.6979 0.0
C1069 C 0.8467 0.79426 0.71482 0.0
C1070 C 0.86709 0.78653 0.67957 0.0
C1071 C 0.92824 0.85521 0.65785 0.0
H1072 H 0.88748 0.83286 0.59107 0.0
C1073 C 0.92711 0.91604 0.55108 0.0
C1074 C 0.95719 0.92808 0.54874 0.0
C1075 C 0.91701 0.89426 0.57108 0.0
C1076 C 0.89926 0.83916 0.6096 0.0
H1077 H 0.86437 0.84073 0.72618 0.0
H1078 H 0.89734 0.86125 0.69432 0.0
H1079 H 0.86517 0.80541 0.62837 0.0
H1080 H 1.00024 0.92617 0.56518 0.0
H1081 H 0.9825 0.88786 0.6002 0.0
H1082 H 0.96157 0.89019 0.63879 0.0
C1083 C 0.88441 0.83686 0.69552 0.0
C1084 C 0.88663 0.82323 0.63103 0.0
C1085 C 0.86557 0.8251 0.71394 0.0
C1086 C 0.97688 0.91707 0.56635 0.0
C1087 C 0.96679 0.89538 0.58652 0.0
C1088 C 0.94093 0.87113 0.63636 0.0
C1089 C 0.88471 0.81791 0.67762 0.0
C1090 C 0.90055 0.83165 0.65538 0.0
C1091 C 0.93678 0.88415 0.58929 0.0
C1092 C 0.92608 0.86388 0.612 0.0
H1093 H 0.83407 0.75087 0.69834 0.0
H1094 H 0.86715 0.77119 0.66637 0.0
H1095 H 0.93966 0.86199 0.67636 0.0
H1096 H 0.91137 0.92398 0.53779 0.0
H1097 H 0.89382 0.88634 0.57286 0.0
C1098 C 0.30438 0.15637 0.13001 0.0
C1099 C 0.28333 0.13364 0.14341 0.0
C1100 C 0.32127 0.14807 0.11594 0.0
C1101 C 0.32451 0.07967 0.08893 0.0
H1102 H 0.40376 0.13447 0.08129 0.0
C1103 C 0.39503 0.05447 0.02477 0.0
C1104 C 0.42568 0.06438 0.03196 0.0
C1105 C 0.37711 0.06274 0.03783 0.0
C1106 C 0.38183 0.11855 0.08344 0.0
H1107 H 0.26412 0.08447 0.15331 0.0
H1108 H 0.29434 0.06996 0.12992 0.0
H1109 H 0.37484 0.14868 0.10586 0.0
H1110 H 0.46134 0.08957 0.05922 0.0
H1111 H 0.43038 0.10259 0.0825 0.0
H1112 H 0.33216 0.04876 0.06765 0.0
C1113 C 0.29719 0.09419 0.12926 0.0
C1114 C 0.3649 0.12706 0.09725 0.0
C1115 C 0.27997 0.10248 0.14291 0.0
C1116 C 0.43785 0.08193 0.05289 0.0
C1117 C 0.42 0.08966 0.06617 0.0
C1118 C 0.34163 0.07092 0.07545 0.0
C1119 C 0.31793 0.11679 0.11531 0.0
C1120 C 0.33595 0.10777 0.10028 0.0
C1121 C 0.38937 0.08067 0.05867 0.0
C1122 C 0.37064 0.09016 0.07256 0.0
H1123 H 0.30722 0.18056 0.12985 0.0
H1124 H 0.33652 0.16624 0.10519 0.0
H1125 H 0.30217 0.06433 0.09029 0.0
H1126 H 0.38499 0.04105 0.00866 0.0
H1127 H 0.35373 0.05559 0.03118 0.0
C1128 C 0.86802 0.33872 0.23697 0.0
C1129 C 0.84123 0.31511 0.23021 0.0
C1130 C 0.88719 0.35402 0.21901 0.0
C1131 C 0.88465 0.37237 0.14969 0.0
H1132 H 0.9697 0.39619 0.16239 0.0
C1133 C 0.95125 0.4232 0.06761 0.0
C1134 C 0.97658 0.44941 0.07118 0.0
C1135 C 0.938 0.4054 0.08824 0.0
C1136 C 0.94599 0.38991 0.15861 0.0
H1137 H 0.81341 0.29013 0.19881 0.0
H1138 H 0.84666 0.31557 0.1681 0.0
H1139 H 0.94035 0.36794 0.1963 0.0
H1140 H 1.00868 0.47708 0.09917 0.0
H1141 H 0.98526 0.44599 0.13564 0.0
H1142 H 0.8899 0.39439 0.11236 0.0
C1143 C 0.85311 0.32239 0.18724 0.0
C1144 C 0.92917 0.37373 0.17805 0.0
C1145 C 0.83409 0.30727 0.2051 0.0
C1146 C 0.98937 0.45668 0.09598 0.0
C1147 C 0.97587 0.43891 0.11681 0.0
C1148 C 0.90134 0.38846 0.13042 0.0
C1149 C 0.87968 0.3464 0.19374 0.0
C1150 C 0.89821 0.3644 0.1737 0.0
C1151 C 0.94938 0.41364 0.11309 0.0
C1152 C 0.93222 0.39714 0.1344 0.0
H1153 H 0.87393 0.34563 0.25609 0.0
H1154 H 0.90733 0.37256 0.22467 0.0
H1155 H 0.86097 0.36642 0.14578 0.0
H1156 H 0.94096 0.41715 0.04865 0.0
H1157 H 0.91816 0.38567 0.08459 0.0
C1158 C 0.68996 0.77645 0.19142 0.0
C1159 C 0.71712 0.78854 0.20675 0.0
C1160 C 0.67593 0.7959 0.17657 0.0
C1161 C 0.68708 0.87643 0.14749 0.0
H1162 H 0.60244 0.85056 0.14477 0.0
C1163 C 0.62005 0.95261 0.09044 0.0
C1164 C 0.59209 0.93728 0.07728 0.0
C1165 C 0.63541 0.93616 0.10801 0.0
C1166 C 0.62601 0.85815 0.1449 0.0
H1167 H 0.75028 0.83099 0.21907 0.0
H1168 H 0.72613 0.86522 0.1926 0.0
H1169 H 0.62929 0.8193 0.17059 0.0
H1170 H 0.5583 0.89221 0.07342 0.0
H1171 H 0.58474 0.86388 0.10346 0.0
H1172 H 0.68373 0.915 0.12136 0.0
C1173 C 0.71584 0.84049 0.19182 0.0
C1174 C 0.64153 0.84008 0.15989 0.0
C1175 C 0.72983 0.82087 0.20694 0.0
C1176 C 0.57959 0.90513 0.08316 0.0
C1177 C 0.59492 0.88872 0.10061 0.0
C1178 C 0.67149 0.89445 0.13228 0.0
C1179 C 0.68842 0.82827 0.17661 0.0
C1180 C 0.6723 0.84868 0.16129 0.0
C1181 C 0.6234 0.90376 0.11306 0.0
C1182 C 0.64055 0.8855 0.13047 0.0
H1183 H 0.67938 0.75168 0.19101 0.0
H1184 H 0.65513 0.78545 0.16497 0.0
H1185 H 0.71069 0.88381 0.14784 0.0
H1186 H 0.63067 0.97726 0.08648 0.0
H1187 H 0.65694 0.94894 0.11739 0.0
C1188 C 0.2479 0.73407 0.15618 0.0
C1189 C 0.24687 0.71662 0.17984 0.0
C1190 C 0.24046 0.71948 0.13386 0.0
C1191 C 0.22581 0.64409 0.10884 0.0
H1192 H 0.17017 0.67044 0.05884 0.0
C1193 C 0.12834 0.56373 0.04913 0.0
C1194 C 0.11529 0.57643 0.02701 0.0
C1195 C 0.15473 0.58189 0.06225 0.0
C1196 C 0.18633 0.66315 0.07211 0.0
H1197 H 0.23777 0.67022 0.19864 0.0
H1198 H 0.22404 0.64482 0.15982 0.0
H1199 H 0.19643 0.70157 0.09344 0.0
H1200 H 0.12162 0.6159 0.99894 0.0
H1201 H 0.16812 0.64725 0.02139 0.0
H1202 H 0.21417 0.60458 0.08808 0.0
C1203 C 0.23124 0.6698 0.15844 0.0
C1204 C 0.20138 0.68107 0.09209 0.0
C1205 C 0.23878 0.68437 0.18073 0.0
C1206 C 0.13096 0.60586 0.01632 0.0
C1207 C 0.15751 0.62382 0.02921 0.0
C1208 C 0.21065 0.62606 0.0888 0.0
C1209 C 0.23173 0.68714 0.13474 0.0
C1210 C 0.22042 0.67116 0.11121 0.0
C1211 C 0.16853 0.61283 0.0532 0.0
C1212 C 0.18991 0.63483 0.07075 0.0
H1213 H 0.25451 0.75901 0.15484 0.0
H1214 H 0.24133 0.73351 0.1159 0.0
H1215 H 0.24085 0.6362 0.12303 0.0
H1216 H 0.11678 0.54099 0.05768 0.0
H1217 H 0.1626 0.57262 0.08065 0.0
C1218 C 0.36609 0.78407 0.81261 0.0
C1219 C 0.34005 0.75962 0.8164 0.0
C1220 C 0.38389 0.79973 0.83309 0.0
C1221 C 0.37135 0.81423 0.89504 0.0
H1222 H 0.44875 0.87614 0.89237 0.0
C1223 C 0.43655 0.90425 0.96764 0.0
C1224 C 0.45237 0.93384 0.95731 0.0
C1225 C 0.41985 0.88113 0.95179 0.0
C1226 C 0.42694 0.85912 0.89309 0.0
H1227 H 0.31432 0.72882 0.84431 0.0
H1228 H 0.34685 0.75412 0.88048 0.0
H1229 H 0.43212 0.83384 0.86549 0.0
H1230 H 0.46085 0.96362 0.92268 0.0
H1231 H 0.43155 0.9231 0.89482 0.0
H1232 H 0.36675 0.83952 0.92319 0.0
C1233 C 0.35271 0.76282 0.86171 0.0
C1234 C 0.41739 0.83477 0.87775 0.0
C1235 C 0.33437 0.74785 0.8411 0.0
C1236 C 0.4485 0.94106 0.93102 0.0
C1237 C 0.4322 0.91779 0.91513 0.0
C1238 C 0.3811 0.83838 0.91062 0.0
C1239 C 0.37624 0.79056 0.85776 0.0
C1240 C 0.38902 0.81253 0.8778 0.0
C1241 C 0.41918 0.8873 0.92546 0.0
C1242 C 0.40861 0.86149 0.90923 0.0
H1243 H 0.37064 0.79366 0.7936 0.0
H1244 H 0.40169 0.82086 0.82897 0.0
H1245 H 0.34929 0.79791 0.89571 0.0
H1246 H 0.43953 0.8982 0.98791 0.0
H1247 H 0.40988 0.85783 0.96017 0.0
C1248 C 0.18995 0.29891 0.86867 0.0
C1249 C 0.16986 0.26952 0.8631 0.0
C1250 C 0.18245 0.31777 0.88217 0.0
C1251 C 0.13147 0.31323 0.92624 0.0
H1252 H 0.14914 0.40082 0.90635 0.0
C1253 C 0.07597 0.38326 0.96421 0.0
C1254 C 0.09283 0.41326 0.97091 0.0
C1255 C 0.08752 0.36705 0.95177 0.0
C1256 C 0.14442 0.37648 0.91236 0.0
H1257 H 0.1257 0.23751 0.86654 0.0
H1258 H 0.11274 0.2702 0.89008 0.0
H1259 H 0.16524 0.37011 0.88297 0.0
H1260 H 0.13521 0.44978 0.96951 0.0
H1261 H 0.1555 0.42122 0.94779 0.0
H1262 H 0.11052 0.31937 0.95544 0.0
C1263 C 0.13452 0.27846 0.88448 0.0
C1264 C 0.15361 0.35889 0.89895 0.0
C1265 C 0.14196 0.25969 0.87098 0.0
C1266 C 0.12161 0.42671 0.96468 0.0
C1267 C 0.13319 0.41042 0.95212 0.0
C1268 C 0.12236 0.33076 0.93961 0.0
C1269 C 0.15474 0.30759 0.89045 0.0
C1270 C 0.14678 0.32694 0.90549 0.0
C1271 C 0.1163 0.38031 0.94567 0.0
C1272 C 0.12824 0.36248 0.93257 0.0
H1273 H 0.21173 0.30708 0.86309 0.0
H1274 H 0.1986 0.34 0.88662 0.0
H1275 H 0.12645 0.28883 0.93216 0.0
H1276 H 0.05368 0.37211 0.96853 0.0
H1277 H 0.07369 0.34415 0.94667 0.0
C1278 C 0.72426 0.21488 0.80284 0.0
C1279 C 0.71259 0.21279 0.77711 0.0
C1280 C 0.70687 0.19853 0.82168 0.0
C1281 C 0.63823 0.13377 0.83379 0.0
H1282 H 0.64505 0.1772 0.89182 0.0
C1283 C 0.56605 0.07806 0.91468 0.0
C1284 C 0.58207 0.081 0.93913 0.0
C1285 C 0.57906 0.09576 0.89363 0.0
C1286 C 0.64292 0.16463 0.87581 0.0
H1287 H 0.67352 0.19243 0.75094 0.0
H1288 H 0.64305 0.1638 0.78382 0.0
H1289 H 0.67467 0.20313 0.85813 0.0
H1290 H 0.62342 0.10602 0.96088 0.0
H1291 H 0.64575 0.13668 0.92471 0.0
H1292 H 0.60678 0.09505 0.85179 0.0
C1293 C 0.66579 0.17758 0.78948 0.0
C1294 C 0.66004 0.17949 0.85651 0.0
C1295 C 0.68318 0.19404 0.77064 0.0
C1296 C 0.61051 0.10315 0.94226 0.0
C1297 C 0.62331 0.1209 0.92146 0.0
C1298 C 0.62112 0.11882 0.85319 0.0
C1299 C 0.67728 0.17997 0.81527 0.0
C1300 C 0.65827 0.16415 0.83541 0.0
C1301 C 0.60812 0.117 0.89677 0.0
C1302 C 0.62358 0.1339 0.87467 0.0
H1303 H 0.74655 0.22969 0.8085 0.0
H1304 H 0.71658 0.20064 0.84133 0.0
H1305 H 0.6364 0.1212 0.81787 0.0
H1306 H 0.54418 0.06101 0.91168 0.0
H1307 H 0.56661 0.09241 0.87489 0.0
C1308 C 0.84163 0.71982 0.79609 0.0
C1309 C 0.81098 0.70604 0.79588 0.0
C1310 C 0.86122 0.70661 0.81194 0.0
C1311 C 0.86317 0.64629 0.86758 0.0
H1312 H 0.9365 0.65195 0.84702 0.0
C1313 C 0.92897 0.56824 0.9196 0.0
C1314 C 0.95964 0.58208 0.9263 0.0
C1315 C 0.91246 0.58402 0.90281 0.0
C1316 C 0.91618 0.65024 0.85316 0.0
H1317 H 0.7771 0.66671 0.81127 0.0
H1318 H 0.81044 0.64354 0.83798 0.0
H1319 H 0.90536 0.67874 0.82043 0.0
H1320 H 0.99682 0.62343 0.91909 0.0
H1321 H 0.96811 0.65053 0.88935 0.0
H1322 H 0.87363 0.61731 0.89995 0.0
C1323 C 0.81992 0.66518 0.82697 0.0
C1324 C 0.89824 0.66582 0.8379 0.0
C1325 C 0.80057 0.67841 0.81137 0.0
C1326 C 0.97336 0.61174 0.91444 0.0
C1327 C 0.95681 0.62741 0.89734 0.0
C1328 C 0.88084 0.63047 0.88257 0.0
C1329 C 0.85071 0.67894 0.82775 0.0
C1330 C 0.87114 0.66388 0.84465 0.0
C1331 C 0.92593 0.61416 0.89178 0.0
C1332 C 0.90754 0.63187 0.87559 0.0
H1333 H 0.85045 0.74061 0.78385 0.0
H1334 H 0.88462 0.71827 0.81186 0.0
H1335 H 0.84317 0.64472 0.8742 0.0
H1336 H 0.91733 0.54557 0.92819 0.0
H1337 H 0.88888 0.57266 0.89875 0.0
C1338 C 0.21031 0.29244 0.21368 0.0
C1339 C 0.24085 0.30697 0.2135 0.0
C1340 C 0.19013 0.30503 0.19809 0.0
C1341 C 0.18579 0.38025 0.16674 0.0
H1342 H 0.11607 0.33268 0.12469 0.0
C1343 C 0.12036 0.44108 0.08976 0.0
C1344 C 0.09015 0.42628 0.0817 0.0
C1345 C 0.13677 0.42598 0.10738 0.0
C1346 C 0.13512 0.34642 0.13661 0.0
H1347 H 0.2739 0.34642 0.19721 0.0
H1348 H 0.23918 0.36835 0.17057 0.0
H1349 H 0.14755 0.3067 0.15181 0.0
H1350 H 0.05355 0.3838 0.08722 0.0
H1351 H 0.08174 0.35797 0.11862 0.0
H1352 H 0.1735 0.4198 0.15228 0.0
C1353 C 0.23059 0.34712 0.18241 0.0
C1354 C 0.1533 0.33138 0.15216 0.0
C1355 C 0.25056 0.33439 0.1976 0.0
C1356 C 0.07667 0.39619 0.09288 0.0
C1357 C 0.09309 0.38111 0.11073 0.0
C1358 C 0.1675 0.39518 0.15154 0.0
C1359 C 0.20006 0.33294 0.18255 0.0
C1360 C 0.17923 0.34817 0.16715 0.0
C1361 C 0.12365 0.39547 0.11798 0.0
C1362 C 0.14203 0.37875 0.13576 0.0
H1363 H 0.20205 0.27183 0.22625 0.0
H1364 H 0.16682 0.2935 0.19887 0.0
H1365 H 0.20521 0.39397 0.17835 0.0
H1366 H 0.13186 0.46404 0.08157 0.0
H1367 H 0.16016 0.43804 0.11183 0.0
C1368 C 0.23097 0.70021 0.81043 0.0
C1369 C 0.22016 0.69928 0.78448 0.0
C1370 C 0.21235 0.68444 0.82859 0.0
C1371 C 0.17335 0.63201 0.86117 0.0
H1372 H 0.09253 0.6296 0.85307 0.0
C1373 C 0.09134 0.54162 0.91952 0.0
C1374 C 0.0752 0.55191 0.93295 0.0
C1375 C 0.10619 0.56069 0.90019 0.0
C1376 C 0.11508 0.63023 0.85565 0.0
H1377 H 0.18199 0.67989 0.75712 0.0
H1378 H 0.14934 0.65244 0.78879 0.0
H1379 H 0.12514 0.6618 0.82246 0.0
H1380 H 0.0604 0.5897 0.9355 0.0
H1381 H 0.0864 0.62338 0.9011 0.0
H1382 H 0.16346 0.60037 0.89407 0.0
C1383 C 0.17195 0.66597 0.79516 0.0
C1384 C 0.13369 0.64845 0.83804 0.0
C1385 C 0.19066 0.6815 0.77703 0.0
C1386 C 0.07244 0.58105 0.92531 0.0
C1387 C 0.08747 0.60036 0.90576 0.0
C1388 C 0.15476 0.61365 0.87853 0.0
C1389 C 0.18255 0.6672 0.82119 0.0
C1390 C 0.163 0.64932 0.84048 0.0
C1391 C 0.10548 0.59074 0.89372 0.0
C1392 C 0.12528 0.61214 0.87583 0.0
H1393 H 0.25381 0.7129 0.81674 0.0
H1394 H 0.22126 0.68588 0.84845 0.0
H1395 H 0.19566 0.63193 0.86359 0.0
H1396 H 0.09371 0.51918 0.92483 0.0
H1397 H 0.1192 0.55225 0.8909 0.0
C1398 C 0.3534 0.24315 0.80282 0.0
C1399 C 0.32728 0.23026 0.78649 0.0
C1400 C 0.36718 0.22444 0.81907 0.0
C1401 C 0.37205 0.1448 0.82953 0.0
H1402 H 0.4144 0.17297 0.89435 0.0
C1403 C 0.42837 0.07189 0.90661 0.0
C1404 C 0.45512 0.08806 0.92107 0.0
C1405 C 0.41245 0.08775 0.88904 0.0
C1406 C 0.40303 0.16481 0.8762 0.0
H1407 H 0.29595 0.18719 0.77361 0.0
H1408 H 0.31947 0.15416 0.80256 0.0
H1409 H 0.38615 0.20208 0.86752 0.0
H1410 H 0.48645 0.13402 0.927 0.0
H1411 H 0.45909 0.16129 0.89654 0.0
H1412 H 0.38877 0.10713 0.83868 0.0
C1413 C 0.32938 0.17897 0.80288 0.0
C1414 C 0.38669 0.18165 0.86066 0.0
C1415 C 0.31555 0.19788 0.78649 0.0
C1416 C 0.46602 0.12052 0.91642 0.0
C1417 C 0.45006 0.13632 0.89904 0.0
C1418 C 0.38827 0.12775 0.84525 0.0
C1419 C 0.35554 0.19197 0.81949 0.0
C1420 C 0.37124 0.17232 0.83681 0.0
C1421 C 0.42262 0.12032 0.88549 0.0
C1422 C 0.40442 0.13774 0.86872 0.0
H1423 H 0.36344 0.26802 0.80286 0.0
H1424 H 0.38754 0.23571 0.83087 0.0
H1425 H 0.3608 0.13677 0.81132 0.0
H1426 H 0.419 0.04697 0.90963 0.0
H1427 H 0.39147 0.07448 0.87907 0.0
C1428 C 0.81332 0.28799 0.83538 0.0
C1429 C 0.80801 0.30264 0.81118 0.0
C1430 C 0.82259 0.30475 0.85667 0.0
C1431 C 0.86006 0.38463 0.87335 0.0
H1432 H 0.8395 0.34937 0.94008 0.0
C1433 C 0.92392 0.45011 0.95728 0.0
C1434 C 0.93741 0.43203 0.97476 0.0
C1435 C 0.89892 0.43595 0.9405 0.0
C1436 C 0.84523 0.35961 0.92151 0.0
H1437 H 0.8072 0.34624 0.79059 0.0
H1438 H 0.82242 0.37493 0.82753 0.0
H1439 H 0.81436 0.32047 0.90325 0.0
H1440 H 0.93268 0.38524 0.99103 0.0
H1441 H 0.88969 0.36071 0.96159 0.0
H1442 H 0.89164 0.42309 0.89142 0.0
C1443 C 0.8202 0.35073 0.83008 0.0
C1444 C 0.83101 0.34299 0.90047 0.0
C1445 C 0.81133 0.33414 0.80884 0.0
C1446 C 0.92321 0.39982 0.97739 0.0
C1447 C 0.89831 0.38571 0.9606 0.0
C1448 C 0.87414 0.4012 0.89427 0.0
C1449 C 0.82641 0.33641 0.85419 0.0
C1450 C 0.83882 0.35504 0.87625 0.0
C1451 C 0.88707 0.40356 0.94096 0.0
C1452 C 0.86749 0.38857 0.91869 0.0
H1453 H 0.81057 0.26367 0.83792 0.0
H1454 H 0.8275 0.29309 0.87495 0.0
H1455 H 0.86701 0.39444 0.85508 0.0
H1456 H 0.934 0.47502 0.95504 0.0
H1457 H 0.89024 0.45033 0.92594 0.0
C1458 C 0.74652 0.88915 0.85438 0.0
C1459 C 0.76855 0.87875 0.86891 0.0
C1460 C 0.7292 0.89977 0.86607 0.0
C1461 C 0.72731 0.92869 0.92625 0.0
H1462 H 0.64416 0.90851 0.90131 0.0
C1463 C 0.65208 0.97698 0.96645 0.0
C1464 C 0.62358 0.95643 0.9695 0.0
C1465 C 0.67033 0.96883 0.95374 0.0
C1466 C 0.66732 0.91422 0.90865 0.0
H1467 H 0.78897 0.8705 0.9072 0.0
H1468 H 0.75864 0.88861 0.92754 0.0
H1469 H 0.67441 0.89104 0.88036 0.0
H1470 H 0.59227 0.91086 0.96185 0.0
H1471 H 0.62399 0.89668 0.94026 0.0
H1472 H 0.71997 0.95107 0.95504 0.0
C1473 C 0.75519 0.88934 0.90708 0.0
C1474 C 0.68477 0.90451 0.8964 0.0
C1475 C 0.77255 0.87885 0.8954 0.0
C1476 C 0.61396 0.92747 0.95976 0.0
C1477 C 0.63214 0.91935 0.94716 0.0
C1478 C 0.70983 0.93838 0.93854 0.0
C1479 C 0.73338 0.90012 0.89258 0.0
C1480 C 0.71497 0.91139 0.90514 0.0
C1481 C 0.66049 0.93994 0.94379 0.0
C1482 C 0.67953 0.93101 0.93004 0.0
H1483 H 0.7431 0.88974 0.83392 0.0
H1484 H 0.71287 0.90823 0.85425 0.0
H1485 H 0.75056 0.93483 0.93331 0.0
H1486 H 0.66021 0.99949 0.97363 0.0
H1487 H 0.69195 0.98538 0.95133 0.0
C1488 C 0.85757 0.71383 0.12816 0.0
C1489 C 0.87714 0.74372 0.13285 0.0
C1490 C 0.86599 0.69416 0.11638 0.0
C1491 C 0.91952 0.69621 0.07557 0.0
H1492 H 0.90053 0.60914 0.09841 0.0
C1493 C 0.97629 0.62298 0.04398 0.0
C1494 C 0.95911 0.59318 0.03695 0.0
C1495 C 0.96453 0.6398 0.05553 0.0
C1496 C 0.90567 0.63333 0.09162 0.0
H1497 H 0.92125 0.7759 0.12964 0.0
H1498 H 0.93592 0.74172 0.1092 0.0
H1499 H 0.88339 0.64151 0.11905 0.0
H1500 H 0.91607 0.55754 0.03715 0.0
H1501 H 0.89545 0.58719 0.05741 0.0
H1502 H 0.94198 0.68826 0.04835 0.0
C1503 C 0.91384 0.73367 0.11411 0.0
C1504 C 0.89587 0.65188 0.10344 0.0
C1505 C 0.90544 0.75328 0.12584 0.0
C1506 C 0.92992 0.58042 0.04226 0.0
C1507 C 0.91814 0.59734 0.05395 0.0
C1508 C 0.9293 0.67776 0.06383 0.0
C1509 C 0.89416 0.70397 0.10901 0.0
C1510 C 0.90308 0.68366 0.09578 0.0
C1511 C 0.93525 0.62739 0.06042 0.0
C1512 C 0.92291 0.64621 0.07195 0.0
H1513 H 0.8355 0.70586 0.1331 0.0
H1514 H 0.85021 0.67155 0.11253 0.0
H1515 H 0.92487 0.72042 0.06877 0.0
H1516 H 0.99891 0.63358 0.04042 0.0
H1517 H 0.9785 0.66263 0.06072 0.0
C1518 C 0.32792 0.80378 0.19198 0.0
C1519 C 0.33903 0.80467 0.21785 0.0
C1520 C 0.34508 0.82252 0.17378 0.0
C1521 C 0.42215 0.86439 0.16298 0.0
H1522 H 0.38541 0.90275 0.10431 0.0
C1523 C 0.48397 0.94749 0.08182 0.0
C1524 C 0.46824 0.94375 0.05729 0.0
C1525 C 0.47071 0.93037 0.10293 0.0
C1526 C 0.39599 0.89199 0.12047 0.0
H1527 H 0.37728 0.82468 0.24494 0.0
H1528 H 0.40741 0.85774 0.21309 0.0
H1529 H 0.35705 0.87481 0.13832 0.0
H1530 H 0.42761 0.91735 0.03541 0.0
H1531 H 0.40501 0.88733 0.07177 0.0
H1532 H 0.46114 0.88168 0.14484 0.0
C1533 C 0.38527 0.84278 0.20688 0.0
C1534 C 0.37969 0.87596 0.13999 0.0
C1535 C 0.368 0.82406 0.22511 0.0
C1536 C 0.44012 0.92105 0.05412 0.0
C1537 C 0.42705 0.90402 0.07499 0.0
C1538 C 0.43855 0.88057 0.14337 0.0
C1539 C 0.37401 0.84223 0.18096 0.0
C1540 C 0.39234 0.86143 0.16128 0.0
C1541 C 0.44162 0.9093 0.09971 0.0
C1542 C 0.42543 0.89399 0.12164 0.0
H1543 H 0.30626 0.78816 0.18564 0.0
H1544 H 0.33587 0.82094 0.15397 0.0
H1545 H 0.43254 0.85333 0.17906 0.0
H1546 H 0.50561 0.96496 0.0848 0.0
H1547 H 0.48257 0.93483 0.12175 0.0
C1548 C 0.7052 0.23306 0.18163 0.0
C1549 C 0.73604 0.24534 0.18549 0.0
C1550 C 0.69047 0.21977 0.15918 0.0
C1551 C 0.70287 0.17631 0.11528 0.0
H1552 H 0.63112 0.18291 0.07523 0.0
C1553 C 0.61031 0.12359 0.02554 0.0
C1554 C 0.59916 0.09238 0.03482 0.0
C1555 C 0.63264 0.1447 0.04018 0.0
C1556 C 0.65138 0.18111 0.08606 0.0
H1557 H 0.77556 0.25616 0.16829 0.0
H1558 H 0.74986 0.23259 0.1294 0.0
H1559 H 0.65733 0.21847 0.10773 0.0
H1560 H 0.60486 0.05794 0.06508 0.0
H1561 H 0.6444 0.09509 0.09082 0.0
H1562 H 0.69625 0.13812 0.09432 0.0
C1563 C 0.73712 0.23299 0.14366 0.0
C1564 C 0.66616 0.20127 0.1047 0.0
C1565 C 0.75174 0.24651 0.16586 0.0
C1566 C 0.61311 0.08191 0.05757 0.0
C1567 C 0.63561 0.10316 0.07229 0.0
C1568 C 0.68784 0.15583 0.09689 0.0
C1569 C 0.70651 0.21842 0.14058 0.0
C1570 C 0.6919 0.19888 0.11955 0.0
C1571 C 0.64429 0.13491 0.06427 0.0
C1572 C 0.66188 0.15797 0.08224 0.0
H1573 H 0.69265 0.23185 0.19653 0.0
H1574 H 0.66677 0.20871 0.15712 0.0
H1575 H 0.72255 0.17383 0.12677 0.0
H1576 H 0.60021 0.1321 0.00779 0.0
H1577 H 0.63944 0.16899 0.03341 0.0
C1578 C 0.68625 0.69233 0.79557 0.0
C1579 C 0.70734 0.72195 0.79749 0.0
C1580 C 0.66756 0.67899 0.81397 0.0
C1581 C 0.62487 0.65707 0.85253 0.0
H1582 H 0.66608 0.66965 0.92074 0.0
C1583 C 0.57319 0.58506 0.93959 0.0
C1584 C 0.59198 0.57253 0.95687 0.0
C1585 C 0.58444 0.60873 0.92105 0.0
C1586 C 0.65421 0.66594 0.90182 0.0
H1587 H 0.72342 0.76211 0.81888 0.0
H1588 H 0.69051 0.73923 0.85063 0.0
H1589 H 0.68943 0.70054 0.88499 0.0
H1590 H 0.63738 0.57553 0.96877 0.0
H1591 H 0.65699 0.61627 0.93624 0.0
H1592 H 0.59042 0.62104 0.86943 0.0
C1593 C 0.68901 0.72576 0.8354 0.0
C1594 C 0.66743 0.68395 0.88128 0.0
C1595 C 0.70786 0.73891 0.81715 0.0
C1596 C 0.62235 0.58476 0.95575 0.0
C1597 C 0.6336 0.60832 0.93722 0.0
C1598 C 0.61167 0.63894 0.87311 0.0
C1599 C 0.66938 0.6952 0.83457 0.0
C1600 C 0.65328 0.67919 0.85633 0.0
C1601 C 0.61474 0.62021 0.91935 0.0
C1602 C 0.62658 0.64258 0.89795 0.0
H1603 H 0.68533 0.67861 0.78091 0.0
H1604 H 0.65294 0.65529 0.81279 0.0
H1605 H 0.61316 0.65312 0.83359 0.0
H1606 H 0.54964 0.57557 0.93961 0.0
H1607 H 0.56934 0.61753 0.9077 0.0
C1608 C 0.387 0.69419 0.85795 0.0
C1609 C 0.37874 0.69121 0.83188 0.0
C1610 C 0.41649 0.70144 0.8686 0.0
C1611 C 0.47964 0.71278 0.88963 0.0
H1612 H 0.50449 0.65589 0.86163 0.0
C1613 C 0.53462 0.6372 0.95529 0.0
C1614 C 0.51552 0.60656 0.95305 0.0
C1615 C 0.53356 0.66016 0.9356 0.0
C1616 C 0.49844 0.67246 0.86948 0.0
H1617 H 0.39571 0.69714 0.79618 0.0
H1618 H 0.44684 0.71159 0.81453 0.0
H1619 H 0.4705 0.67838 0.83562 0.0
H1620 H 0.48283 0.57521 0.92761 0.0
H1621 H 0.48079 0.61492 0.89353 0.0
H1622 H 0.50479 0.70339 0.92456 0.0
C1623 C 0.43049 0.7071 0.82695 0.0
C1624 C 0.47899 0.68566 0.8545 0.0
C1625 C 0.40099 0.69909 0.81638 0.0
C1626 C 0.49735 0.59875 0.93006 0.0
C1627 C 0.49659 0.62151 0.91035 0.0
C1628 C 0.4988 0.69918 0.90474 0.0
C1629 C 0.43844 0.70639 0.85333 0.0
C1630 C 0.46735 0.70379 0.86513 0.0
C1631 C 0.51375 0.65264 0.91329 0.0
C1632 C 0.50616 0.67679 0.89535 0.0
H1633 H 0.37059 0.6894 0.87035 0.0
H1634 H 0.42154 0.70062 0.88903 0.0
H1635 H 0.47207 0.7277 0.89806 0.0
H1636 H 0.54917 0.64378 0.97273 0.0
H1637 H 0.54706 0.68395 0.93831 0.0
C1638 C 0.28796 0.3416 0.8011 0.0
C1639 C 0.30713 0.33654 0.7873 0.0
C1640 C 0.29853 0.3645 0.81799 0.0
C1641 C 0.32965 0.39541 0.86578 0.0
H1642 H 0.40213 0.46443 0.85969 0.0
C1643 C 0.41845 0.43206 0.94855 0.0
C1644 C 0.44062 0.46116 0.94754 0.0
C1645 C 0.39436 0.42492 0.92955 0.0
C1646 C 0.38145 0.44586 0.86166 0.0
H1647 H 0.35223 0.35099 0.78048 0.0
H1648 H 0.37103 0.39024 0.81021 0.0
H1649 H 0.37514 0.43752 0.82274 0.0
H1650 H 0.45366 0.50682 0.92761 0.0
H1651 H 0.41101 0.4946 0.89429 0.0
H1652 H 0.33595 0.4038 0.90468 0.0
C1653 C 0.34759 0.37766 0.8074 0.0
C1654 C 0.36622 0.42995 0.84047 0.0
C1655 C 0.33688 0.35509 0.79025 0.0
C1656 C 0.43669 0.48424 0.92881 0.0
C1657 C 0.41249 0.47705 0.90958 0.0
C1658 C 0.34461 0.41164 0.88684 0.0
C1659 C 0.32867 0.38238 0.82186 0.0
C1660 C 0.341 0.40346 0.84258 0.0
C1661 C 0.39195 0.44674 0.90896 0.0
C1662 C 0.37162 0.43593 0.88543 0.0
H1663 H 0.26483 0.32754 0.79905 0.0
H1664 H 0.28314 0.3677 0.82838 0.0
H1665 H 0.3103 0.37526 0.86832 0.0
H1666 H 0.4211 0.41389 0.96284 0.0
H1667 H 0.37929 0.4013 0.92984 0.0
C1668 C 0.71254 0.39184 0.8038 0.0
C1669 C 0.69532 0.38766 0.77987 0.0
C1670 C 0.70253 0.39993 0.8235 0.0
C1671 C 0.64641 0.43052 0.83612 0.0
H1672 H 0.66102 0.39399 0.90452 0.0
C1673 C 0.57886 0.4255 0.91377 0.0
C1674 C 0.59424 0.43537 0.93741 0.0
C1675 C 0.59349 0.42144 0.89545 0.0
C1676 C 0.65708 0.40462 0.88556 0.0
H1677 H 0.654 0.38835 0.75792 0.0
H1678 H 0.63617 0.40167 0.79228 0.0
H1679 H 0.68197 0.38363 0.87054 0.0
H1680 H 0.63713 0.44807 0.96045 0.0
H1681 H 0.6627 0.44022 0.92835 0.0
H1682 H 0.62056 0.45048 0.85106 0.0
C1683 C 0.65781 0.39963 0.79578 0.0
C1684 C 0.66914 0.39879 0.86606 0.0
C1685 C 0.66796 0.39188 0.77603 0.0
C1686 C 0.62464 0.4405 0.94243 0.0
C1687 C 0.63926 0.43595 0.92413 0.0
C1688 C 0.63409 0.43599 0.85552 0.0
C1689 C 0.67492 0.40373 0.81982 0.0
C1690 C 0.66363 0.41134 0.84098 0.0
C1691 C 0.62384 0.42676 0.90034 0.0
C1692 C 0.63898 0.4228 0.88037 0.0
H1693 H 0.73387 0.38904 0.80724 0.0
H1694 H 0.71657 0.40338 0.84157 0.0
H1695 H 0.64227 0.44126 0.81725 0.0
H1696 H 0.55547 0.42137 0.90913 0.0
H1697 H 0.58098 0.41398 0.87741 0.0
C1698 C 0.65429 0.27892 0.16994 0.0
C1699 C 0.67658 0.29121 0.15418 0.0
C1700 C 0.62477 0.26743 0.15958 0.0
C1701 C 0.57587 0.28887 0.13538 0.0
H1702 H 0.55254 0.28375 0.06318 0.0
C1703 C 0.55841 0.38624 0.07006 0.0
C1704 C 0.53973 0.38173 0.04694 0.0
C1705 C 0.55994 0.36097 0.08696 0.0
C1706 C 0.55794 0.28447 0.08352 0.0
H1707 H 0.68486 0.29414 0.11549 0.0
H1708 H 0.63376 0.27819 0.09731 0.0
H1709 H 0.58381 0.25553 0.08627 0.0
H1710 H 0.50616 0.34741 0.02424 0.0
H1711 H 0.50952 0.30316 0.05363 0.0
H1712 H 0.55123 0.31906 0.13229 0.0
C1713 C 0.63884 0.277 0.11774 0.0
C1714 C 0.57623 0.26859 0.09674 0.0
C1715 C 0.66849 0.28717 0.12819 0.0
C1716 C 0.52102 0.35161 0.04185 0.0
C1717 C 0.52284 0.32625 0.05864 0.0
C1718 C 0.55736 0.30436 0.12224 0.0
C1719 C 0.61663 0.26964 0.13322 0.0
C1720 C 0.58775 0.27314 0.1223 0.0
C1721 C 0.54299 0.33067 0.08097 0.0
C1722 C 0.55054 0.30458 0.09586 0.0
H1723 H 0.65883 0.28052 0.19014 0.0
H1724 H 0.6083 0.26017 0.17223 0.0
H1725 H 0.58358 0.29278 0.15511 0.0
H1726 H 0.57279 0.40918 0.07464 0.0
H1727 H 0.57599 0.36515 0.10389 0.0
C1728 C 0.73119 0.65016 0.21858 0.0
C1729 C 0.742 0.68058 0.20727 0.0
C1730 C 0.72085 0.62503 0.2038 0.0
C1731 C 0.68021 0.58232 0.16375 0.0
H1732 H 0.7167 0.58429 0.10527 0.0
C1733 C 0.63551 0.55817 0.05715 0.0
C1734 C 0.61144 0.531 0.06039 0.0
C1735 C 0.65866 0.5671 0.07685 0.0
C1736 C 0.70636 0.58314 0.12165 0.0
H1737 H 0.7515 0.70814 0.1716 0.0
H1738 H 0.73378 0.66475 0.1462 0.0
H1739 H 0.74367 0.61906 0.13807 0.0
H1740 H 0.59369 0.49032 0.08562 0.0
H1741 H 0.63434 0.50587 0.12031 0.0
H1742 H 0.64224 0.54786 0.14665 0.0
C1743 C 0.73331 0.66015 0.16644 0.0
C1744 C 0.72177 0.60311 0.1404 0.0
C1745 C 0.74326 0.68515 0.18107 0.0
C1746 C 0.61229 0.51119 0.08261 0.0
C1747 C 0.63534 0.52031 0.10255 0.0
C1748 C 0.66478 0.56237 0.14498 0.0
C1749 C 0.72167 0.62981 0.17752 0.0
C1750 C 0.70832 0.60394 0.16104 0.0
C1751 C 0.65792 0.54922 0.10034 0.0
C1752 C 0.67716 0.5636 0.12312 0.0
H1753 H 0.73049 0.64573 0.23877 0.0
H1754 H 0.71213 0.60188 0.2129 0.0
H1755 H 0.66918 0.58245 0.17935 0.0
H1756 H 0.63508 0.57395 0.04025 0.0
H1757 H 0.6755 0.58958 0.07445 0.0
C1758 C 0.37923 0.64831 0.20131 0.0
C1759 C 0.35509 0.62648 0.21185 0.0
C1760 C 0.39099 0.64075 0.18252 0.0
C1761 C 0.39151 0.57324 0.15323 0.0
H1762 H 0.42489 0.63652 0.101 0.0
C1763 C 0.43105 0.5476 0.06663 0.0
C1764 C 0.45983 0.56645 0.06267 0.0
C1765 C 0.41678 0.55488 0.08373 0.0
C1766 C 0.41569 0.61864 0.11551 0.0
H1767 H 0.32396 0.57978 0.21069 0.0
H1768 H 0.34374 0.56676 0.17732 0.0
H1769 H 0.40258 0.64899 0.13284 0.0
H1770 H 0.49577 0.60823 0.07297 0.0
H1771 H 0.47058 0.62122 0.10233 0.0
H1772 H 0.4042 0.54281 0.13536 0.0
C1773 C 0.35429 0.58949 0.18403 0.0
C1774 C 0.40305 0.6258 0.13391 0.0
C1775 C 0.34283 0.59694 0.20311 0.0
C1776 C 0.47365 0.59317 0.07564 0.0
C1777 C 0.45919 0.60071 0.09236 0.0
C1778 C 0.40375 0.56599 0.13458 0.0
C1779 C 0.37859 0.61127 0.17346 0.0
C1780 C 0.39108 0.6033 0.15324 0.0
C1781 C 0.43077 0.58145 0.09684 0.0
C1782 C 0.41624 0.5887 0.1157 0.0
H1783 H 0.3893 0.67117 0.20788 0.0
H1784 H 0.41007 0.65797 0.17535 0.0
H1785 H 0.38302 0.55537 0.16797 0.0
H1786 H 0.41984 0.52679 0.05702 0.0
H1787 H 0.39479 0.53973 0.08672 0.0
C1788 C 0.37384 0.30773 0.22213 0.0
C1789 C 0.34497 0.28974 0.21285 0.0
C1790 C 0.39521 0.32043 0.20585 0.0
C1791 C 0.42077 0.36404 0.16082 0.0
H1792 H 0.42735 0.32178 0.10656 0.0
C1793 C 0.43574 0.42133 0.0617 0.0
C1794 C 0.46188 0.42423 0.05289 0.0
C1795 C 0.42717 0.40176 0.08318 0.0
C1796 C 0.42615 0.33372 0.12186 0.0
H1797 H 0.31671 0.2689 0.17956 0.0
H1798 H 0.35382 0.29052 0.15161 0.0
H1799 H 0.40337 0.29166 0.1429 0.0
H1800 H 0.49849 0.4073 0.05896 0.0
H1801 H 0.48265 0.37194 0.09627 0.0
H1802 H 0.44159 0.40609 0.13892 0.0
C1803 C 0.35995 0.29509 0.17136 0.0
C1804 C 0.41242 0.31661 0.14254 0.0
C1805 C 0.33855 0.28294 0.18742 0.0
C1806 C 0.47822 0.40552 0.06518 0.0
C1807 C 0.46932 0.38545 0.08657 0.0
C1808 C 0.43409 0.38109 0.14004 0.0
C1809 C 0.38824 0.31461 0.1802 0.0
C1810 C 0.40869 0.3317 0.16174 0.0
C1811 C 0.44423 0.38429 0.09611 0.0
C1812 C 0.43593 0.36607 0.12004 0.0
H1813 H 0.3798 0.31263 0.24176 0.0
H1814 H 0.41696 0.33531 0.21314 0.0
H1815 H 0.41796 0.37628 0.17519 0.0
H1816 H 0.42247 0.43519 0.05273 0.0
H1817 H 0.40748 0.40078 0.09009 0.0
C1818 C 0.80928 0.66428 0.62994 0.0
C1819 C 0.78902 0.64094 0.64362 0.0
C1820 C 0.82686 0.65689 0.61602 0.0
C1821 C 0.83294 0.58963 0.58981 0.0
H1822 H 0.91065 0.64743 0.5805 0.0
C1823 C 0.90311 0.5669 0.5247 0.0
C1824 C 0.93383 0.57757 0.53132 0.0
C1825 C 0.88529 0.57512 0.53779 0.0
C1826 C 0.88918 0.63071 0.58314 0.0
H1827 H 0.7719 0.59179 0.65433 0.0
H1828 H 0.80349 0.57888 0.63126 0.0
H1829 H 0.88118 0.66011 0.60559 0.0
H1830 H 0.96987 0.60451 0.55735 0.0
H1831 H 0.93901 0.61752 0.58086 0.0
H1832 H 0.84164 0.55944 0.56864 0.0
C1833 C 0.80514 0.60281 0.63023 0.0
C1834 C 0.87194 0.63831 0.59724 0.0
C1835 C 0.78716 0.61017 0.64368 0.0
C1836 C 0.94629 0.59624 0.55152 0.0
C1837 C 0.9285 0.60391 0.56493 0.0
C1838 C 0.85041 0.58179 0.57611 0.0
C1839 C 0.82502 0.62599 0.61589 0.0
C1840 C 0.84351 0.6179 0.6008 0.0
C1841 C 0.89771 0.59368 0.5582 0.0
C1842 C 0.87882 0.6022 0.57254 0.0
H1843 H 0.81091 0.68817 0.62943 0.0
H1844 H 0.84142 0.67542 0.60496 0.0
H1845 H 0.81101 0.57345 0.5916 0.0
H1846 H 0.89287 0.55263 0.50911 0.0
H1847 H 0.86179 0.56717 0.53164 0.0
C1848 C 0.36572 0.83479 0.73369 0.0
C1849 C 0.33637 0.81665 0.72615 0.0
C1850 C 0.38474 0.84973 0.71568 0.0
C1851 C 0.39313 0.84791 0.64888 0.0
H1852 H 0.44879 0.93097 0.65599 0.0
C1853 C 0.44397 0.92679 0.56497 0.0
C1854 C 0.47285 0.948 0.5683 0.0
C1855 C 0.43111 0.90837 0.58549 0.0
C1856 C 0.43382 0.90754 0.65395 0.0
H1857 H 0.3031 0.80244 0.69376 0.0
H1858 H 0.33611 0.82835 0.66227 0.0
H1859 H 0.418 0.90472 0.68905 0.0
H1860 H 0.51141 0.96576 0.59573 0.0
H1861 H 0.48872 0.93333 0.63218 0.0
H1862 H 0.40851 0.85088 0.61362 0.0
C1863 C 0.34488 0.8301 0.68214 0.0
C1864 C 0.41603 0.89249 0.67288 0.0
C1865 C 0.32591 0.81513 0.70018 0.0
C1866 C 0.48918 0.94948 0.59263 0.0
C1867 C 0.47606 0.93114 0.61346 0.0
C1868 C 0.41091 0.86289 0.63003 0.0
C1869 C 0.37467 0.84732 0.68964 0.0
C1870 C 0.39501 0.8627 0.67035 0.0
C1871 C 0.44664 0.91069 0.61013 0.0
C1872 C 0.43104 0.89319 0.632 0.0
H1873 H 0.37412 0.83687 0.75361 0.0
H1874 H 0.40747 0.86271 0.72221 0.0
H1875 H 0.3777 0.82475 0.64649 0.0
H1876 H 0.43087 0.92508 0.54639 0.0
H1877 H 0.40839 0.89331 0.5821 0.0
C1878 C 0.19386 0.28139 0.69179 0.0
C1879 C 0.22092 0.29309 0.70734 0.0
C1880 C 0.18021 0.30116 0.677 0.0
C1881 C 0.19208 0.38167 0.64824 0.0
H1882 H 0.10754 0.35661 0.64588 0.0
C1883 C 0.12536 0.4579 0.5909 0.0
C1884 C 0.0975 0.44243 0.57766 0.0
C1885 C 0.14067 0.44157 0.60861 0.0
C1886 C 0.13108 0.36396 0.64593 0.0
H1887 H 0.25442 0.33513 0.72005 0.0
H1888 H 0.23088 0.37 0.69365 0.0
H1889 H 0.13416 0.3252 0.67178 0.0
H1890 H 0.0638 0.39731 0.5738 0.0
H1891 H 0.09017 0.36918 0.60412 0.0
H1892 H 0.18889 0.42014 0.6219 0.0
C1893 C 0.22038 0.34532 0.6927 0.0
C1894 C 0.14645 0.34584 0.66096 0.0
C1895 C 0.234 0.32536 0.70777 0.0
C1896 C 0.08502 0.4103 0.58359 0.0
C1897 C 0.10029 0.39402 0.6012 0.0
C1898 C 0.17662 0.39977 0.63298 0.0
C1899 C 0.19301 0.33345 0.67734 0.0
C1900 C 0.17716 0.35412 0.66217 0.0
C1901 C 0.12867 0.40919 0.61373 0.0
C1902 C 0.14573 0.39105 0.6313 0.0
H1903 H 0.18303 0.25667 0.6912 0.0
H1904 H 0.15945 0.29102 0.66524 0.0
H1905 H 0.21565 0.38878 0.64849 0.0
H1906 H 0.13593 0.48255 0.58689 0.0
H1907 H 0.16215 0.4544 0.61807 0.0
C1908 C 0.75847 0.22485 0.66097 0.0
C1909 C 0.74535 0.21223 0.68294 0.0
C1910 C 0.75193 0.2072 0.64047 0.0
C1911 C 0.71071 0.12611 0.62177 0.0
H1912 H 0.70792 0.16869 0.55454 0.0
C1913 C 0.62654 0.11019 0.526 0.0
C1914 C 0.61423 0.07781 0.52847 0.0
C1915 C 0.65335 0.12528 0.54001 0.0
C1916 C 0.70825 0.15629 0.57318 0.0
H1917 H 0.7146 0.17197 0.70073 0.0
H1918 H 0.70093 0.14222 0.66446 0.0
H1919 H 0.73125 0.19816 0.59045 0.0
H1920 H 0.62258 0.03578 0.5446 0.0
H1921 H 0.67036 0.06216 0.56814 0.0
H1922 H 0.68438 0.08473 0.60493 0.0
C1923 C 0.71773 0.16484 0.66321 0.0
C1924 C 0.72228 0.1733 0.59396 0.0
C1925 C 0.7251 0.18209 0.68396 0.0
C1926 C 0.63115 0.06079 0.54274 0.0
C1927 C 0.65847 0.076 0.55646 0.0
C1928 C 0.69559 0.10927 0.60113 0.0
C1929 C 0.7313 0.17691 0.6412 0.0
C1930 C 0.72225 0.1586 0.61874 0.0
C1931 C 0.66903 0.10845 0.55657 0.0
C1932 C 0.69258 0.12438 0.57669 0.0
H1933 H 0.77448 0.24798 0.65991 0.0
H1934 H 0.76331 0.21735 0.62422 0.0
H1935 H 0.71171 0.11359 0.64032 0.0
H1936 H 0.61447 0.12415 0.51473 0.0
H1937 H 0.66019 0.15016 0.53931 0.0
C1938 C 0.80177 0.27092 0.34892 0.0
C1939 C 0.8189 0.27039 0.33091 0.0
C1940 C 0.81499 0.28553 0.37087 0.0
C1941 C 0.88385 0.32022 0.41172 0.0
H1942 H 0.85297 0.38593 0.41255 0.0
C1943 C 0.93717 0.44599 0.4453 0.0
C1944 C 0.95143 0.43844 0.46901 0.0
C1945 C 0.91371 0.42304 0.43303 0.0
C1946 C 0.86151 0.36747 0.41272 0.0
H1947 H 0.86324 0.2817 0.32279 0.0
H1948 H 0.8867 0.30707 0.36176 0.0
H1949 H 0.82821 0.34626 0.38301 0.0
H1950 H 0.95002 0.40301 0.50025 0.0
H1951 H 0.90897 0.36312 0.47893 0.0
H1952 H 0.91765 0.34191 0.44087 0.0
C1953 C 0.86298 0.29625 0.35868 0.0
C1954 C 0.84738 0.34477 0.39597 0.0
C1955 C 0.84965 0.28162 0.3365 0.0
C1956 C 0.93955 0.40911 0.48174 0.0
C1957 C 0.9162 0.3863 0.46956 0.0
C1958 C 0.89771 0.34264 0.42873 0.0
C1959 C 0.84558 0.29967 0.37528 0.0
C1960 C 0.85879 0.32133 0.39502 0.0
C1961 C 0.90442 0.39257 0.44451 0.0
C1962 C 0.88697 0.36676 0.42904 0.0
H1963 H 0.77797 0.26229 0.34512 0.0
H1964 H 0.80119 0.28751 0.38358 0.0
H1965 H 0.89299 0.30239 0.41127 0.0
H1966 H 0.94605 0.4685 0.43519 0.0
H1967 H 0.90486 0.4284 0.41369 0.0
C1968 C 0.64241 0.7596 0.37241 0.0
C1969 C 0.6699 0.76918 0.36381 0.0
C1970 C 0.63548 0.77878 0.38589 0.0
C1971 C 0.65491 0.85975 0.39914 0.0
H1972 H 0.61365 0.82147 0.45687 0.0
C1973 C 0.62329 0.92873 0.46443 0.0
C1974 C 0.59466 0.91505 0.47097 0.0
C1975 C 0.635 0.91241 0.452 0.0
C1976 C 0.625 0.83252 0.4407 0.0
H1977 H 0.71158 0.80681 0.36248 0.0
H1978 H 0.69934 0.84047 0.38595 0.0
H1979 H 0.62912 0.79042 0.43371 0.0
H1980 H 0.55592 0.87344 0.46926 0.0
H1981 H 0.57613 0.84546 0.44769 0.0
H1982 H 0.65036 0.90184 0.40608 0.0
C1983 C 0.68312 0.81808 0.3821 0.0
C1984 C 0.63384 0.8147 0.4274 0.0
C1985 C 0.6901 0.79879 0.36862 0.0
C1986 C 0.57809 0.8848 0.4647 0.0
C1987 C 0.58976 0.86857 0.45243 0.0
C1988 C 0.64599 0.87765 0.41249 0.0
C1989 C 0.65582 0.80813 0.39112 0.0
C1990 C 0.64841 0.82791 0.40617 0.0
C1991 C 0.61839 0.88203 0.44603 0.0
C1992 C 0.63042 0.86406 0.43313 0.0
H1993 H 0.62605 0.73727 0.36856 0.0
H1994 H 0.614 0.77067 0.39205 0.0
H1995 H 0.66599 0.87061 0.3828 0.0
H1996 H 0.63667 0.952 0.46891 0.0
H1997 H 0.65719 0.92338 0.4474 0.0
C1998 C 0.22318 0.71485 0.30116 0.0
C1999 C 0.21165 0.71241 0.27545 0.0
C2000 C 0.20572 0.69885 0.31999 0.0
C2001 C 0.13737 0.63452 0.33272 0.0
H2002 H 0.14412 0.67976 0.38962 0.0
C2003 C 0.06742 0.5806 0.41528 0.0
C2004 C 0.08426 0.58421 0.43939 0.0
C2005 C 0.07958 0.59786 0.39374 0.0
C2006 C 0.14199 0.66672 0.37391 0.0
H2007 H 0.1727 0.69173 0.24924 0.0
H2008 H 0.14203 0.66364 0.28217 0.0
H2009 H 0.17314 0.70496 0.35542 0.0
H2010 H 0.12613 0.6099 0.46005 0.0
H2011 H 0.14698 0.63986 0.42302 0.0
H2012 H 0.10657 0.59604 0.3516 0.0
C2013 C 0.16476 0.67748 0.2878 0.0
C2014 C 0.15875 0.68115 0.35434 0.0
C2015 C 0.18226 0.6936 0.26895 0.0
C2016 C 0.11263 0.60654 0.44171 0.0
C2017 C 0.12456 0.62388 0.42042 0.0
C2018 C 0.1206 0.62 0.35241 0.0
C2019 C 0.17614 0.68032 0.31356 0.0
C2020 C 0.15709 0.66509 0.33371 0.0
C2021 C 0.10854 0.61932 0.39608 0.0
C2022 C 0.12314 0.63576 0.3735 0.0
H2023 H 0.24543 0.72973 0.30684 0.0
H2024 H 0.21532 0.70128 0.33964 0.0
H2025 H 0.13563 0.62146 0.31714 0.0
H2026 H 0.04558 0.56339 0.41294 0.0
H2027 H 0.06657 0.594 0.37526 0.0
C2028 C 0.34168 0.21979 0.29506 0.0
C2029 C 0.3111 0.20531 0.29511 0.0
C2030 C 0.36175 0.20686 0.31042 0.0
C2031 C 0.36556 0.13096 0.34074 0.0
H2032 H 0.43562 0.17741 0.38306 0.0
C2033 C 0.43072 0.06825 0.41636 0.0
C2034 C 0.46097 0.08278 0.42445 0.0
C2035 C 0.41437 0.08379 0.39911 0.0
C2036 C 0.41647 0.16397 0.37107 0.0
H2037 H 0.27793 0.16568 0.31107 0.0
H2038 H 0.31244 0.1432 0.33729 0.0
H2039 H 0.40439 0.20407 0.35648 0.0
H2040 H 0.49769 0.12528 0.41938 0.0
H2041 H 0.46962 0.15186 0.38864 0.0
H2042 H 0.3775 0.09105 0.35459 0.0
C2043 C 0.32114 0.16461 0.3257 0.0
C2044 C 0.39843 0.17941 0.35582 0.0
C2045 C 0.30128 0.17766 0.31074 0.0
C2046 C 0.47453 0.11307 0.4137 0.0
C2047 C 0.45818 0.12859 0.39621 0.0
C2048 C 0.3837 0.11564 0.35565 0.0
C2049 C 0.3517 0.17868 0.32562 0.0
C2050 C 0.37238 0.16304 0.34072 0.0
C2051 C 0.42759 0.11449 0.38892 0.0
C2052 C 0.40931 0.13164 0.37151 0.0
H2053 H 0.35003 0.24063 0.28274 0.0
H2054 H 0.38508 0.21835 0.30972 0.0
H2055 H 0.34605 0.11755 0.32905 0.0
H2056 H 0.41915 0.04516 0.42425 0.0
H2057 H 0.39096 0.07189 0.39463 0.0
C2058 C 0.75221 0.83885 0.70151 0.0
C2059 C 0.74242 0.81079 0.71668 0.0
C2060 C 0.73228 0.85159 0.68623 0.0
C2061 C 0.65529 0.83445 0.65423 0.0
H2062 H 0.67395 0.92274 0.65358 0.0
C2063 C 0.57788 0.8973 0.59296 0.0
C2064 C 0.59105 0.92749 0.58183 0.0
C2065 C 0.59442 0.88263 0.61113 0.0
C2066 C 0.66839 0.89814 0.65305 0.0
H2067 H 0.70347 0.77476 0.72826 0.0
H2068 H 0.66835 0.79654 0.70081 0.0
H2069 H 0.70577 0.89772 0.68059 0.0
H2070 H 0.63238 0.96583 0.58207 0.0
H2071 H 0.66089 0.94056 0.61289 0.0
H2072 H 0.61837 0.83496 0.6261 0.0
C2073 C 0.6917 0.80854 0.70062 0.0
C2074 C 0.68675 0.88367 0.6688 0.0
C2075 C 0.71182 0.79591 0.71628 0.0
C2076 C 0.6211 0.94277 0.5902 0.0
C2077 C 0.63763 0.92809 0.60816 0.0
C2078 C 0.63702 0.84903 0.63817 0.0
C2079 C 0.70167 0.83683 0.68554 0.0
C2080 C 0.68075 0.85163 0.66953 0.0
C2081 C 0.62482 0.89751 0.61878 0.0
C2082 C 0.64336 0.8813 0.63703 0.0
H2083 H 0.77557 0.85116 0.70154 0.0
H2084 H 0.74096 0.87315 0.67481 0.0
H2085 H 0.64997 0.80981 0.65406 0.0
H2086 H 0.55491 0.88452 0.58707 0.0
H2087 H 0.58329 0.8594 0.61898 0.0
C2088 C 0.72321 0.21244 0.30911 0.0
C2089 C 0.71728 0.20353 0.2844 0.0
C2090 C 0.70316 0.19805 0.32634 0.0
C2091 C 0.66991 0.1471 0.36289 0.0
H2092 H 0.58484 0.1196 0.34625 0.0
C2093 C 0.59722 0.0482 0.42206 0.0
C2094 C 0.5762 0.05406 0.43315 0.0
C2095 C 0.61063 0.06818 0.40245 0.0
C2096 C 0.60855 0.12743 0.35118 0.0
H2097 H 0.68575 0.17228 0.25839 0.0
H2098 H 0.6506 0.14681 0.28856 0.0
H2099 H 0.61598 0.15291 0.31487 0.0
H2100 H 0.55127 0.08457 0.43089 0.0
H2101 H 0.57478 0.11977 0.39583 0.0
H2102 H 0.66272 0.12106 0.39876 0.0
C2103 C 0.67051 0.1655 0.29446 0.0
C2104 C 0.62638 0.14626 0.3332 0.0
C2105 C 0.6907 0.1799 0.27724 0.0
C2106 C 0.56733 0.07939 0.42274 0.0
C2107 C 0.58084 0.09955 0.40278 0.0
C2108 C 0.65221 0.12812 0.38061 0.0
C2109 C 0.67675 0.174 0.3194 0.0
C2110 C 0.65732 0.15603 0.33878 0.0
C2111 C 0.6034 0.09463 0.39312 0.0
C2112 C 0.62137 0.11763 0.37487 0.0
H2113 H 0.74368 0.22994 0.31541 0.0
H2114 H 0.70865 0.20536 0.34531 0.0
H2115 H 0.69358 0.15382 0.3678 0.0
H2116 H 0.60428 0.02865 0.42926 0.0
H2117 H 0.62749 0.06344 0.39507 0.0
C2118 C 0.81545 0.69801 0.28742 0.0
C2119 C 0.82678 0.73048 0.28685 0.0
C2120 C 0.83035 0.67974 0.30338 0.0
C2121 C 0.9056 0.68494 0.33671 0.0
H2122 H 0.86581 0.60903 0.37542 0.0
C2123 C 0.97084 0.6249 0.41513 0.0
C2124 C 0.95981 0.59264 0.42112 0.0
C2125 C 0.95461 0.64012 0.39736 0.0
C2126 C 0.87742 0.6299 0.36448 0.0
H2127 H 0.86296 0.76896 0.30227 0.0
H2128 H 0.88868 0.73756 0.32979 0.0
H2129 H 0.8371 0.63778 0.34795 0.0
H2130 H 0.92286 0.55126 0.41182 0.0
H2131 H 0.89511 0.57752 0.38041 0.0
H2132 H 0.94581 0.67722 0.3528 0.0
C2133 C 0.86832 0.72594 0.31811 0.0
C2134 C 0.86081 0.64651 0.34869 0.0
C2135 C 0.8534 0.74404 0.30242 0.0
C2136 C 0.93239 0.57604 0.4078 0.0
C2137 C 0.91615 0.59129 0.38993 0.0
C2138 C 0.92215 0.6683 0.3523 0.0
C2139 C 0.85734 0.69347 0.31871 0.0
C2140 C 0.87465 0.67457 0.33477 0.0
C2141 C 0.92666 0.62374 0.38469 0.0
C2142 C 0.9085 0.64061 0.36679 0.0
H2143 H 0.79547 0.68677 0.27517 0.0
H2144 H 0.82118 0.65488 0.30308 0.0
H2145 H 0.91721 0.70601 0.32596 0.0
H2146 H 0.99162 0.63877 0.42499 0.0
H2147 H 0.96366 0.66505 0.39439 0.0
C2148 C 0.31001 0.83294 0.30948 0.0
C2149 C 0.30676 0.80148 0.31144 0.0
C2150 C 0.31892 0.84919 0.33087 0.0
C2151 C 0.33098 0.84107 0.40126 0.0
H2152 H 0.39087 0.92154 0.39149 0.0
C2153 C 0.42434 0.89933 0.47688 0.0
C2154 C 0.43812 0.93159 0.47397 0.0
C2155 C 0.39915 0.88479 0.46055 0.0
C2156 C 0.37359 0.89954 0.39455 0.0
H2157 H 0.3093 0.76217 0.33775 0.0
H2158 H 0.32657 0.79112 0.37511 0.0
H2159 H 0.3659 0.89269 0.35539 0.0
H2160 H 0.43371 0.97421 0.45432 0.0
H2161 H 0.38946 0.94878 0.42603 0.0
H2162 H 0.34015 0.84759 0.44087 0.0
C2163 C 0.32153 0.80298 0.35697 0.0
C2164 C 0.35929 0.88285 0.37377 0.0
C2165 C 0.3121 0.7865 0.33549 0.0
C2166 C 0.42398 0.94927 0.45674 0.0
C2167 C 0.39868 0.9347 0.44045 0.0
C2168 C 0.34546 0.85782 0.42219 0.0
C2169 C 0.3254 0.83465 0.3548 0.0
C2170 C 0.33826 0.85316 0.37689 0.0
C2171 C 0.38721 0.90227 0.44111 0.0
C2172 C 0.36741 0.88696 0.41908 0.0
H2173 H 0.30588 0.84534 0.29139 0.0
H2174 H 0.32108 0.87337 0.32857 0.0
H2175 H 0.31454 0.81845 0.40422 0.0
H2176 H 0.43431 0.88503 0.49037 0.0
H2177 H 0.39084 0.85979 0.46169 0.0
C2178 C 0.23798 0.37861 0.35352 0.0
C2179 C 0.26629 0.37911 0.36498 0.0
C2180 C 0.22054 0.38811 0.36609 0.0
C2181 C 0.22532 0.43831 0.41411 0.0
H2182 H 0.1443 0.38748 0.41962 0.0
C2183 C 0.15538 0.47034 0.47439 0.0
C2184 C 0.12482 0.46146 0.46684 0.0
C2185 C 0.17289 0.4606 0.46204 0.0
C2186 C 0.1667 0.40239 0.41791 0.0
H2187 H 0.29755 0.38899 0.39944 0.0
H2188 H 0.26764 0.40663 0.42066 0.0
H2189 H 0.17357 0.37 0.3975 0.0
H2190 H 0.08895 0.43654 0.43963 0.0
H2191 H 0.11929 0.42101 0.41746 0.0
H2192 H 0.21843 0.47124 0.43368 0.0
C2193 C 0.25912 0.39901 0.40187 0.0
C2194 C 0.18353 0.39216 0.40531 0.0
C2195 C 0.27632 0.389 0.38955 0.0
C2196 C 0.11237 0.44346 0.4462 0.0
C2197 C 0.12986 0.43427 0.43358 0.0
C2198 C 0.20835 0.44886 0.42631 0.0
C2199 C 0.23109 0.39882 0.39026 0.0
C2200 C 0.21306 0.40993 0.40334 0.0
C2201 C 0.16036 0.44221 0.44149 0.0
C2202 C 0.17872 0.43105 0.42847 0.0
H2203 H 0.22949 0.37164 0.33455 0.0
H2204 H 0.19905 0.38785 0.35661 0.0
H2205 H 0.24798 0.45266 0.41269 0.0
H2206 H 0.16563 0.48404 0.49031 0.0
H2207 H 0.19615 0.46697 0.46905 0.0
C2208 C 0.36889 0.2436 0.60266 0.0
C2209 C 0.37132 0.24094 0.62922 0.0
C2210 C 0.37587 0.22335 0.59036 0.0
C2211 C 0.38842 0.14826 0.59897 0.0
H2212 H 0.43606 0.1858 0.54503 0.0
C2213 C 0.42589 0.07847 0.53885 0.0
C2214 C 0.45536 0.09165 0.53432 0.0
C2215 C 0.41328 0.09497 0.55014 0.0
C2216 C 0.42281 0.17494 0.56009 0.0
H2217 H 0.38263 0.21449 0.66365 0.0
H2218 H 0.39492 0.17923 0.64217 0.0
H2219 H 0.41813 0.21739 0.56529 0.0
H2220 H 0.49475 0.13238 0.53873 0.0
H2221 H 0.47291 0.16068 0.55829 0.0
H2222 H 0.39393 0.10591 0.59409 0.0
C2223 C 0.38722 0.19674 0.63083 0.0
C2224 C 0.41224 0.19299 0.57152 0.0
C2225 C 0.38022 0.21701 0.64315 0.0
C2226 C 0.47194 0.12144 0.54169 0.0
C2227 C 0.45936 0.13785 0.55281 0.0
C2228 C 0.39896 0.13011 0.58742 0.0
C2229 C 0.3855 0.19993 0.60429 0.0
C2230 C 0.39518 0.18 0.59129 0.0
C2231 C 0.42983 0.12502 0.55695 0.0
C2232 C 0.41666 0.14339 0.56811 0.0
H2233 H 0.36154 0.26136 0.59133 0.0
H2234 H 0.37379 0.22612 0.56987 0.0
H2235 H 0.37509 0.13747 0.61397 0.0
H2236 H 0.41248 0.05558 0.53347 0.0
H2237 H 0.39042 0.0845 0.55303 0.0
C2238 C 0.82856 0.30255 0.69185 0.0
C2239 C 0.83974 0.30315 0.71771 0.0
C2240 C 0.84584 0.32109 0.67359 0.0
C2241 C 0.92333 0.36432 0.66297 0.0
H2242 H 0.88693 0.40604 0.6065 0.0
C2243 C 0.98043 0.43237 0.57439 0.0
C2244 C 0.97376 0.45906 0.56438 0.0
C2245 C 0.96638 0.4132 0.5945 0.0
C2246 C 0.89758 0.39474 0.62221 0.0
H2247 H 0.87832 0.32245 0.74471 0.0
H2248 H 0.90855 0.35525 0.71291 0.0
H2249 H 0.85769 0.37355 0.63854 0.0
H2250 H 0.94914 0.48787 0.56873 0.0
H2251 H 0.92565 0.45539 0.60376 0.0
H2252 H 0.96345 0.38618 0.64667 0.0
C2253 C 0.88632 0.34055 0.70666 0.0
C2254 C 0.88065 0.37576 0.64048 0.0
C2255 C 0.86894 0.32201 0.7249 0.0
C2256 C 0.95443 0.4672 0.57582 0.0
C2257 C 0.94073 0.44841 0.5958 0.0
C2258 C 0.94033 0.38333 0.64458 0.0
C2259 C 0.87498 0.34038 0.68073 0.0
C2260 C 0.89326 0.36037 0.66119 0.0
C2261 C 0.94561 0.42057 0.60487 0.0
C2262 C 0.92772 0.39907 0.62408 0.0
H2263 H 0.80662 0.28751 0.68561 0.0
H2264 H 0.83648 0.31989 0.65381 0.0
H2265 H 0.93371 0.35253 0.67852 0.0
H2266 H 0.99511 0.42547 0.56583 0.0
H2267 H 0.97073 0.39195 0.60109 0.0
C2268 C 0.19086 0.7326 0.69654 0.0
C2269 C 0.21703 0.75728 0.69366 0.0
C2270 C 0.17346 0.71801 0.6754 0.0
C2271 C 0.18653 0.70717 0.61239 0.0
H2272 H 0.1074 0.64784 0.61126 0.0
C2273 C 0.11806 0.62753 0.53287 0.0
C2274 C 0.10251 0.59689 0.54124 0.0
C2275 C 0.13513 0.64862 0.55032 0.0
C2276 C 0.12966 0.66417 0.61156 0.0
H2277 H 0.24353 0.78933 0.6668 0.0
H2278 H 0.21178 0.76587 0.6296 0.0
H2279 H 0.12523 0.68693 0.64133 0.0
H2280 H 0.09464 0.56341 0.57396 0.0
H2281 H 0.12431 0.60046 0.60459 0.0
H2282 H 0.1903 0.68463 0.58194 0.0
C2283 C 0.20548 0.75623 0.64809 0.0
C2284 C 0.1399 0.68665 0.62875 0.0
C2285 C 0.22337 0.77015 0.66931 0.0
C2286 C 0.10674 0.58682 0.56704 0.0
C2287 C 0.1233 0.60807 0.58456 0.0
C2288 C 0.17605 0.68501 0.59491 0.0
C2289 C 0.18167 0.72847 0.65101 0.0
C2290 C 0.16879 0.70801 0.62991 0.0
C2291 C 0.13637 0.6394 0.57636 0.0
C2292 C 0.1478 0.66292 0.59477 0.0
H2293 H 0.18585 0.72212 0.71526 0.0
H2294 H 0.15543 0.69678 0.6787 0.0
H2295 H 0.20904 0.72273 0.61274 0.0
H2296 H 0.11487 0.63581 0.51305 0.0
H2297 H 0.14512 0.67265 0.5436 0.0
loop_
_geom_bond_atom_site_label_1
_geom_bond_atom_site_label_2
_geom_bond_distance
_geom_bond_site_symmetry_2
_ccdc_geom_bond_type
Tb0 N31 2.660 . S
Tb0 N38 2.600 . S
Tb0 O44 2.546 . S
Tb0 O45 2.610 . S
Tb0 O47 2.320 . S
Tb0 O48 2.552 . S
Tb0 O49 2.413 . S
Tb0 O51 2.362 . S
Tb0 O52 2.421 . S
Tb0 C64 2.833 . S
C1 C4 1.432 . S
C1 C5 1.414 . S
C1 N8 1.359 . S
C2 C4 1.417 . S
C2 C6 1.432 . S
C2 C14 1.410 . S
C3 C5 1.444 . S
C3 C6 1.317 . S
C3 H26 0.929 . S
C4 C1 1.432 . S
C4 C2 1.417 . S
C4 N12 1.360 . S
C5 C1 1.414 . S
C5 C3 1.444 . S
C5 C10 1.385 . S
C6 C2 1.432 . S
C6 C3 1.317 . S
C6 H18 0.930 . S
C7 C9 1.392 . S
C7 C10 1.370 . S
C7 H19 0.931 . S
N8 C1 1.359 . S
N8 C9 1.327 . S
N8 Tb11 2.600 . S
C9 C7 1.392 . S
C9 N8 1.327 . S
C9 H16 0.930 . S
C10 C5 1.385 . S
C10 C7 1.370 . S
C10 H29 0.930 . S
Tb11 N8 2.600 . S
Tb11 N12 2.660 . S
Tb11 O45 2.362 . S
Tb11 O46 2.421 . S
Tb11 O50 2.546 . S
Tb11 O51 2.610 . S
Tb11 O53 2.320 . S
Tb11 O54 2.552 . S
Tb11 O55 2.413 . S
Tb11 C75 2.833 . S
N12 C4 1.360 . S
N12 Tb11 2.660 . S
N12 C13 1.305 . S
C13 N12 1.305 . S
C13 C15 1.407 . S
C13 H20 0.930 . S
C14 C2 1.410 . S
C14 C15 1.345 . S
C14 H22 0.930 . S
C15 C13 1.407 . S
C15 C14 1.345 . S
C15 H17 0.930 . S
H16 C9 0.930 . S
H17 C15 0.930 . S
H18 C6 0.930 . S
H19 C7 0.931 . S
H20 C13 0.930 . S
H21 C35 0.930 . S
H22 C14 0.930 . S
H23 C41 0.930 . S
H24 C32 0.930 . S
H25 C39 0.931 . S
H26 C3 0.929 . S
H27 C33 0.930 . S
H28 C66 0.930 . S
H29 C10 0.930 . S
H30 C65 0.929 . S
N31 Tb0 2.660 . S
N31 C32 1.305 . S
N31 C36 1.360 . S
C32 H24 0.930 . S
C32 N31 1.305 . S
C32 C35 1.407 . S
C33 H27 0.930 . S
C33 C34 1.410 . S
C33 C35 1.345 . S
C34 C33 1.410 . S
C34 C36 1.417 . S
C34 C66 1.432 . S
C35 H21 0.930 . S
C35 C32 1.407 . S
C35 C33 1.345 . S
C36 N31 1.360 . S
C36 C34 1.417 . S
C36 C40 1.432 . S
H37 C42 0.930 . S
N38 Tb0 2.600 . S
N38 C40 1.359 . S
N38 C41 1.327 . S
C39 H25 0.931 . S
C39 C41 1.392 . S
C39 C42 1.370 . S
C40 C36 1.432 . S
C40 N38 1.359 . S
C40 C43 1.414 . S
C41 H23 0.930 . S
C41 N38 1.327 . S
C41 C39 1.392 . S
C42 H37 0.930 . S
C42 C39 1.370 . S
C42 C43 1.385 . S
C43 C40 1.414 . S
C43 C42 1.385 . S
C43 C65 1.444 . S
O44 Tb0 2.546 . S
O44 C64 1.251 . S
O45 Tb0 2.610 . S
O45 Tb11 2.362 . S
O45 C56 1.283 . S
O46 Tb11 2.421 . S
O46 C63 1.262 . S
O47 Tb0 2.320 . S
O47 C63 1.260 . S
O48 Tb0 2.552 . S
O48 C56 1.243 . S
O49 Tb0 2.413 . S
O49 C64 1.256 . S
O50 Tb11 2.546 . S
O50 C75 1.251 . S
O51 Tb0 2.362 . S
O51 Tb11 2.610 . S
O51 C67 1.283 . S
O52 Tb0 2.421 . S
O52 C74 1.262 . S
O53 Tb11 2.320 . S
O53 C74 1.260 . S
O54 Tb11 2.552 . S
O54 C67 1.243 . S
O55 Tb11 2.413 . S
O55 C75 1.256 . S
C56 O45 1.283 . S
C56 O48 1.243 . S
C57 C59 1.382 . S
C57 C61 1.393 . S
C57 C64 1.500 . S
C58 C59 1.400 . S
C58 C60 1.384 . S
C59 C57 1.382 . S
C59 C58 1.400 . S
C59 H76 0.930 . S
C60 C58 1.384 . S
C60 C62 1.392 . S
C60 H77 0.931 . S
C61 C57 1.393 . S
C61 C62 1.401 . S
C61 H78 0.930 . S
C62 C60 1.392 . S
C62 C61 1.401 . S
C62 H79 0.930 . S
C63 O46 1.262 . S
C63 O47 1.260 . S
C64 Tb0 2.833 . S
C64 O44 1.251 . S
C64 O49 1.256 . S
C64 C57 1.500 . S
C65 H30 0.929 . S
C65 C43 1.444 . S
C65 C66 1.317 . S
C66 H28 0.930 . S
C66 C34 1.432 . S
C66 C65 1.317 . S
C67 O51 1.283 . S
C67 O54 1.243 . S
C68 C69 1.382 . S
C68 C72 1.393 . S
C68 C75 1.500 . S
C69 C68 1.382 . S
C69 C70 1.400 . S
C69 H80 0.930 . S
C70 C69 1.400 . S
C70 C71 1.384 . S
C71 C70 1.384 . S
C71 C73 1.392 . S
C71 H81 0.931 . S
C72 C68 1.393 . S
C72 C73 1.401 . S
C72 H82 0.930 . S
C73 C71 1.392 . S
C73 C72 1.401 . S
C73 H83 0.930 . S
C74 O52 1.262 . S
C74 O53 1.260 . S
C75 Tb11 2.833 . S
C75 O50 1.251 . S
C75 O55 1.256 . S
C75 C68 1.500 . S
H76 C59 0.930 . S
H77 C60 0.931 . S
H78 C61 0.930 . S
H79 C62 0.930 . S
H80 C69 0.930 . S
H81 C71 0.931 . S
H82 C72 0.930 . S
H83 C73 0.930 . S
Tb84 N115 2.660 . S
Tb84 N122 2.600 . S
Tb84 O128 2.546 . S
Tb84 O129 2.610 . S
Tb84 O131 2.320 . S
Tb84 O132 2.552 . S
Tb84 O133 2.413 . S
Tb84 O135 2.362 . S
Tb84 O136 2.421 . S
Tb84 C148 2.833 . S
C85 C88 1.432 . S
C85 C89 1.414 . S
C85 N92 1.359 . S
C86 C88 1.417 . S
C86 C90 1.432 . S
C86 C98 1.410 . S
C87 C89 1.444 . S
C87 C90 1.317 . S
C87 H110 0.929 . S
C88 C85 1.432 . S
C88 C86 1.417 . S
C88 N96 1.360 . S
C89 C85 1.414 . S
C89 C87 1.444 . S
C89 C94 1.385 . S
C90 C86 1.432 . S
C90 C87 1.317 . S
C90 H102 0.930 . S
C91 C93 1.392 . S
C91 C94 1.370 . S
C91 H103 0.931 . S
N92 C85 1.359 . S
N92 C93 1.327 . S
N92 Tb95 2.600 . S
C93 C91 1.392 . S
C93 N92 1.327 . S
C93 H100 0.930 . S
C94 C89 1.385 . S
C94 C91 1.370 . S
C94 H113 0.930 . S
Tb95 N92 2.600 . S
Tb95 N96 2.660 . S
Tb95 O129 2.362 . S
Tb95 O130 2.421 . S
Tb95 O134 2.546 . S
Tb95 O135 2.610 . S
Tb95 O137 2.320 . S
Tb95 O138 2.552 . S
Tb95 O139 2.413 . S
Tb95 C159 2.833 . S
N96 C88 1.360 . S
N96 Tb95 2.660 . S
N96 C97 1.305 . S
C97 N96 1.305 . S
C97 C99 1.407 . S
C97 H104 0.930 . S
C98 C86 1.410 . S
C98 C99 1.345 . S
C98 H106 0.930 . S
C99 C97 1.407 . S
C99 C98 1.345 . S
C99 H101 0.930 . S
H100 C93 0.930 . S
H101 C99 0.930 . S
H102 C90 0.930 . S
H103 C91 0.931 . S
H104 C97 0.930 . S
H105 C119 0.930 . S
H106 C98 0.930 . S
H107 C125 0.930 . S
H108 C116 0.930 . S
H109 C123 0.931 . S
H110 C87 0.929 . S
H111 C117 0.930 . S
H112 C150 0.930 . S
H113 C94 0.930 . S
H114 C149 0.929 . S
N115 Tb84 2.660 . S
N115 C116 1.305 . S
N115 C120 1.360 . S
C116 H108 0.930 . S
C116 N115 1.305 . S
C116 C119 1.407 . S
C117 H111 0.930 . S
C117 C118 1.410 . S
C117 C119 1.345 . S
C118 C117 1.410 . S
C118 C120 1.417 . S
C118 C150 1.432 . S
C119 H105 0.930 . S
C119 C116 1.407 . S
C119 C117 1.345 . S
C120 N115 1.360 . S
C120 C118 1.417 . S
C120 C124 1.432 . S
H121 C126 0.930 . S
N122 Tb84 2.600 . S
N122 C124 1.359 . S
N122 C125 1.327 . S
C123 H109 0.931 . S
C123 C125 1.392 . S
C123 C126 1.370 . S
C124 C120 1.432 . S
C124 N122 1.359 . S
C124 C127 1.414 . S
C125 H107 0.930 . S
C125 N122 1.327 . S
C125 C123 1.392 . S
C126 H121 0.930 . S
C126 C123 1.370 . S
C126 C127 1.385 . S
C127 C124 1.414 . S
C127 C126 1.385 . S
C127 C149 1.444 . S
O128 Tb84 2.546 . S
O128 C148 1.251 . S
O129 Tb84 2.610 . S
O129 Tb95 2.362 . S
O129 C140 1.283 . S
O130 Tb95 2.421 . S
O130 C147 1.262 . S
O131 Tb84 2.320 . S
O131 C147 1.260 . S
O132 Tb84 2.552 . S
O132 C140 1.243 . S
O133 Tb84 2.413 . S
O133 C148 1.256 . S
O134 Tb95 2.546 . S
O134 C159 1.251 . S
O135 Tb84 2.362 . S
O135 Tb95 2.610 . S
O135 C151 1.283 . S
O136 Tb84 2.421 . S
O136 C158 1.262 . S
O137 Tb95 2.320 . S
O137 C158 1.260 . S
O138 Tb95 2.552 . S
O138 C151 1.243 . S
O139 Tb95 2.413 . S
O139 C159 1.256 . S
C140 O129 1.283 . S
C140 O132 1.243 . S
C141 C143 1.382 . S
C141 C145 1.393 . S
C141 C148 1.500 . S
C142 C143 1.400 . S
C142 C144 1.384 . S
C143 C141 1.382 . S
C143 C142 1.400 . S
C143 H160 0.930 . S
C144 C142 1.384 . S
C144 C146 1.392 . S
C144 H161 0.931 . S
C145 C141 1.393 . S
C145 C146 1.401 . S
C145 H162 0.930 . S
C146 C144 1.392 . S
C146 C145 1.401 . S
C146 H163 0.930 . S
C147 O130 1.262 . S
C147 O131 1.260 . S
C148 Tb84 2.833 . S
C148 O128 1.251 . S
C148 O133 1.256 . S
C148 C141 1.500 . S
C149 H114 0.929 . S
C149 C127 1.444 . S
C149 C150 1.317 . S
C150 H112 0.930 . S
C150 C118 1.432 . S
C150 C149 1.317 . S
C151 O135 1.283 . S
C151 O138 1.243 . S
C152 C153 1.382 . S
C152 C156 1.393 . S
C152 C159 1.500 . S
C153 C152 1.382 . S
C153 C154 1.400 . S
C153 H164 0.930 . S
C154 C153 1.400 . S
C154 C155 1.384 . S
C155 C154 1.384 . S
C155 C157 1.392 . S
C155 H165 0.931 . S
C156 C152 1.393 . S
C156 C157 1.401 . S
C156 H166 0.930 . S
C157 C155 1.392 . S
C157 C156 1.401 . S
C157 H167 0.930 . S
C158 O136 1.262 . S
C158 O137 1.260 . S
C159 Tb95 2.833 . S
C159 O134 1.251 . S
C159 O139 1.256 . S
C159 C152 1.500 . S
H160 C143 0.930 . S
H161 C144 0.931 . S
H162 C145 0.930 . S
H163 C146 0.930 . S
H164 C153 0.930 . S
H165 C155 0.931 . S
H166 C156 0.930 . S
H167 C157 0.930 . S
Tb168 N199 2.660 . S
Tb168 N206 2.600 . S
Tb168 O212 2.546 . S
Tb168 O213 2.610 . S
Tb168 O215 2.320 . S
Tb168 O216 2.552 . S
Tb168 O217 2.413 . S
Tb168 O219 2.362 . S
Tb168 O220 2.421 . S
Tb168 C232 2.833 . S
C169 C172 1.432 . S
C169 C173 1.414 . S
C169 N176 1.359 . S
C170 C172 1.417 . S
C170 C174 1.432 . S
C170 C182 1.410 . S
C171 C173 1.444 . S
C171 C174 1.317 . S
C171 H194 0.929 . S
C172 C169 1.432 . S
C172 C170 1.417 . S
C172 N180 1.360 . S
C173 C169 1.414 . S
C173 C171 1.444 . S
C173 C178 1.385 . S
C174 C170 1.432 . S
C174 C171 1.317 . S
C174 H186 0.930 . S
C175 C177 1.392 . S
C175 C178 1.370 . S
C175 H187 0.931 . S
N176 C169 1.359 . S
N176 C177 1.327 . S
N176 Tb179 2.600 . S
C177 C175 1.392 . S
C177 N176 1.327 . S
C177 H184 0.930 . S
C178 C173 1.385 . S
C178 C175 1.370 . S
C178 H197 0.930 . S
Tb179 N176 2.600 . S
Tb179 N180 2.660 . S
Tb179 O213 2.362 . S
Tb179 O214 2.421 . S
Tb179 O218 2.546 . S
Tb179 O219 2.610 . S
Tb179 O221 2.320 . S
Tb179 O222 2.552 . S
Tb179 O223 2.413 . S
Tb179 C243 2.833 . S
N180 C172 1.360 . S
N180 Tb179 2.660 . S
N180 C181 1.305 . S
C181 N180 1.305 . S
C181 C183 1.407 . S
C181 H188 0.930 . S
C182 C170 1.410 . S
C182 C183 1.345 . S
C182 H190 0.930 . S
C183 C181 1.407 . S
C183 C182 1.345 . S
C183 H185 0.930 . S
H184 C177 0.930 . S
H185 C183 0.930 . S
H186 C174 0.930 . S
H187 C175 0.931 . S
H188 C181 0.930 . S
H189 C203 0.930 . S
H190 C182 0.930 . S
H191 C209 0.930 . S
H192 C200 0.930 . S
H193 C207 0.931 . S
H194 C171 0.929 . S
H195 C201 0.930 . S
H196 C234 0.930 . S
H197 C178 0.930 . S
H198 C233 0.929 . S
N199 Tb168 2.660 . S
N199 C200 1.305 . S
N199 C204 1.360 . S
C200 H192 0.930 . S
C200 N199 1.305 . S
C200 C203 1.407 . S
C201 H195 0.930 . S
C201 C202 1.410 . S
C201 C203 1.345 . S
C202 C201 1.410 . S
C202 C204 1.417 . S
C202 C234 1.432 . S
C203 H189 0.930 . S
C203 C200 1.407 . S
C203 C201 1.345 . S
C204 N199 1.360 . S
C204 C202 1.417 . S
C204 C208 1.432 . S
H205 C210 0.930 . S
N206 Tb168 2.600 . S
N206 C208 1.359 . S
N206 C209 1.327 . S
C207 H193 0.931 . S
C207 C209 1.392 . S
C207 C210 1.370 . S
C208 C204 1.432 . S
C208 N206 1.359 . S
C208 C211 1.414 . S
C209 H191 0.930 . S
C209 N206 1.327 . S
C209 C207 1.392 . S
C210 H205 0.930 . S
C210 C207 1.370 . S
C210 C211 1.385 . S
C211 C208 1.414 . S
C211 C210 1.385 . S
C211 C233 1.444 . S
O212 Tb168 2.546 . S
O212 C232 1.251 . S
O213 Tb168 2.610 . S
O213 Tb179 2.362 . S
O213 C224 1.283 . S
O214 Tb179 2.421 . S
O214 C231 1.262 . S
O215 Tb168 2.320 . S
O215 C231 1.260 . S
O216 Tb168 2.552 . S
O216 C224 1.243 . S
O217 Tb168 2.413 . S
O217 C232 1.256 . S
O218 Tb179 2.546 . S
O218 C243 1.251 . S
O219 Tb168 2.362 . S
O219 Tb179 2.610 . S
O219 C235 1.283 . S
O220 Tb168 2.421 . S
O220 C242 1.262 . S
O221 Tb179 2.320 . S
O221 C242 1.260 . S
O222 Tb179 2.552 . S
O222 C235 1.243 . S
O223 Tb179 2.413 . S
O223 C243 1.256 . S
C224 O213 1.283 . S
C224 O216 1.243 . S
C225 C227 1.382 . S
C225 C229 1.393 . S
C225 C232 1.500 . S
C226 C227 1.400 . S
C226 C228 1.384 . S
C227 C225 1.382 . S
C227 C226 1.400 . S
C227 H244 0.930 . S
C228 C226 1.384 . S
C228 C230 1.392 . S
C228 H245 0.931 . S
C229 C225 1.393 . S
C229 C230 1.401 . S
C229 H246 0.930 . S
C230 C228 1.392 . S
C230 C229 1.401 . S
C230 H247 0.930 . S
C231 O214 1.262 . S
C231 O215 1.260 . S
C232 Tb168 2.833 . S
C232 O212 1.251 . S
C232 O217 1.256 . S
C232 C225 1.500 . S
C233 H198 0.929 . S
C233 C211 1.444 . S
C233 C234 1.317 . S
C234 H196 0.930 . S
C234 C202 1.432 . S
C234 C233 1.317 . S
C235 O219 1.283 . S
C235 O222 1.243 . S
C236 C237 1.382 . S
C236 C240 1.393 . S
C236 C243 1.500 . S
C237 C236 1.382 . S
C237 C238 1.400 . S
C237 H248 0.930 . S
C238 C237 1.400 . S
C238 C239 1.384 . S
C239 C238 1.384 . S
C239 C241 1.392 . S
C239 H249 0.931 . S
C240 C236 1.393 . S
C240 C241 1.401 . S
C240 H250 0.930 . S
C241 C239 1.392 . S
C241 C240 1.401 . S
C241 H251 0.930 . S
C242 O220 1.262 . S
C242 O221 1.260 . S
C243 Tb179 2.833 . S
C243 O218 1.251 . S
C243 O223 1.256 . S
C243 C236 1.500 . S
H244 C227 0.930 . S
H245 C228 0.931 . S
H246 C229 0.930 . S
H247 C230 0.930 . S
H248 C237 0.930 . S
H249 C239 0.931 . S
H250 C240 0.930 . S
H251 C241 0.930 . S
Tb252 N283 2.660 . S
Tb252 N290 2.600 . S
Tb252 O296 2.546 . S
Tb252 O297 2.610 . S
Tb252 O299 2.320 . S
Tb252 O300 2.552 . S
Tb252 O301 2.413 . S
Tb252 O303 2.362 . S
Tb252 O304 2.421 . S
Tb252 C316 2.833 . S
C253 C256 1.432 . S
C253 C257 1.414 . S
C253 N260 1.359 . S
C254 C256 1.417 . S
C254 C258 1.432 . S
C254 C266 1.410 . S
C255 C257 1.444 . S
C255 C258 1.317 . S
C255 H278 0.929 . S
C256 C253 1.432 . S
C256 C254 1.417 . S
C256 N264 1.360 . S
C257 C253 1.414 . S
C257 C255 1.444 . S
C257 C262 1.385 . S
C258 C254 1.432 . S
C258 C255 1.317 . S
C258 H270 0.930 . S
C259 C261 1.392 . S
C259 C262 1.370 . S
C259 H271 0.931 . S
N260 C253 1.359 . S
N260 C261 1.327 . S
N260 Tb263 2.600 . S
C261 C259 1.392 . S
C261 N260 1.327 . S
C261 H268 0.930 . S
C262 C257 1.385 . S
C262 C259 1.370 . S
C262 H281 0.930 . S
Tb263 N260 2.600 . S
Tb263 N264 2.660 . S
Tb263 O297 2.362 . S
Tb263 O298 2.421 . S
Tb263 O302 2.546 . S
Tb263 O303 2.610 . S
Tb263 O305 2.320 . S
Tb263 O306 2.552 . S
Tb263 O307 2.413 . S
Tb263 C327 2.833 . S
N264 C256 1.360 . S
N264 Tb263 2.660 . S
N264 C265 1.305 . S
C265 N264 1.305 . S
C265 C267 1.407 . S
C265 H272 0.930 . S
C266 C254 1.410 . S
C266 C267 1.345 . S
C266 H274 0.930 . S
C267 C265 1.407 . S
C267 C266 1.345 . S
C267 H269 0.930 . S
H268 C261 0.930 . S
H269 C267 0.930 . S
H270 C258 0.930 . S
H271 C259 0.931 . S
H272 C265 0.930 . S
H273 C287 0.930 . S
H274 C266 0.930 . S
H275 C293 0.930 . S
H276 C284 0.930 . S
H277 C291 0.931 . S
H278 C255 0.929 . S
H279 C285 0.930 . S
H280 C318 0.930 . S
H281 C262 0.930 . S
H282 C317 0.929 . S
N283 Tb252 2.660 . S
N283 C284 1.305 . S
N283 C288 1.360 . S
C284 H276 0.930 . S
C284 N283 1.305 . S
C284 C287 1.407 . S
C285 H279 0.930 . S
C285 C286 1.410 . S
C285 C287 1.345 . S
C286 C285 1.410 . S
C286 C288 1.417 . S
C286 C318 1.432 . S
C287 H273 0.930 . S
C287 C284 1.407 . S
C287 C285 1.345 . S
C288 N283 1.360 . S
C288 C286 1.417 . S
C288 C292 1.432 . S
H289 C294 0.930 . S
N290 Tb252 2.600 . S
N290 C292 1.359 . S
N290 C293 1.327 . S
C291 H277 0.931 . S
C291 C293 1.392 . S
C291 C294 1.370 . S
C292 C288 1.432 . S
C292 N290 1.359 . S
C292 C295 1.414 . S
C293 H275 0.930 . S
C293 N290 1.327 . S
C293 C291 1.392 . S
C294 H289 0.930 . S
C294 C291 1.370 . S
C294 C295 1.385 . S
C295 C292 1.414 . S
C295 C294 1.385 . S
C295 C317 1.444 . S
O296 Tb252 2.546 . S
O296 C316 1.251 . S
O297 Tb252 2.610 . S
O297 Tb263 2.362 . S
O297 C308 1.283 . S
O298 Tb263 2.421 . S
O298 C315 1.262 . S
O299 Tb252 2.320 . S
O299 C315 1.260 . S
O300 Tb252 2.552 . S
O300 C308 1.243 . S
O301 Tb252 2.413 . S
O301 C316 1.256 . S
O302 Tb263 2.546 . S
O302 C327 1.251 . S
O303 Tb252 2.362 . S
O303 Tb263 2.610 . S
O303 C319 1.283 . S
O304 Tb252 2.421 . S
O304 C326 1.262 . S
O305 Tb263 2.320 . S
O305 C326 1.260 . S
O306 Tb263 2.552 . S
O306 C319 1.243 . S
O307 Tb263 2.413 . S
O307 C327 1.256 . S
C308 O297 1.283 . S
C308 O300 1.243 . S
C309 C311 1.382 . S
C309 C313 1.393 . S
C309 C316 1.500 . S
C310 C311 1.400 . S
C310 C312 1.384 . S
C311 C309 1.382 . S
C311 C310 1.400 . S
C311 H328 0.930 . S
C312 C310 1.384 . S
C312 C314 1.392 . S
C312 H329 0.931 . S
C313 C309 1.393 . S
C313 C314 1.401 . S
C313 H330 0.930 . S
C314 C312 1.392 . S
C314 C313 1.401 . S
C314 H331 0.930 . S
C315 O298 1.262 . S
C315 O299 1.260 . S
C316 Tb252 2.833 . S
C316 O296 1.251 . S
C316 O301 1.256 . S
C316 C309 1.500 . S
C317 H282 0.929 . S
C317 C295 1.444 . S
C317 C318 1.317 . S
C318 H280 0.930 . S
C318 C286 1.432 . S
C318 C317 1.317 . S
C319 O303 1.283 . S
C319 O306 1.243 . S
C320 C321 1.382 . S
C320 C324 1.393 . S
C320 C327 1.500 . S
C321 C320 1.382 . S
C321 C322 1.400 . S
C321 H332 0.930 . S
C322 C321 1.400 . S
C322 C323 1.384 . S
C323 C322 1.384 . S
C323 C325 1.392 . S
C323 H333 0.931 . S
C324 C320 1.393 . S
C324 C325 1.401 . S
C324 H334 0.930 . S
C325 C323 1.392 . S
C325 C324 1.401 . S
C325 H335 0.930 . S
C326 O304 1.262 . S
C326 O305 1.260 . S
C327 Tb263 2.833 . S
C327 O302 1.251 . S
C327 O307 1.256 . S
C327 C320 1.500 . S
H328 C311 0.930 . S
H329 C312 0.931 . S
H330 C313 0.930 . S
H331 C314 0.930 . S
H332 C321 0.930 . S
H333 C323 0.931 . S
H334 C324 0.930 . S
H335 C325 0.930 . S
Tb336 N367 2.660 . S
Tb336 N374 2.600 . S
Tb336 O380 2.546 . S
Tb336 O381 2.610 . S
Tb336 O383 2.320 . S
Tb336 O384 2.552 . S
Tb336 O385 2.413 . S
Tb336 O387 2.362 . S
Tb336 O388 2.421 . S
Tb336 C400 2.833 . S
C337 C340 1.432 . S
C337 C341 1.414 . S
C337 N344 1.359 . S
C338 C340 1.417 . S
C338 C342 1.432 . S
C338 C350 1.410 . S
C339 C341 1.444 . S
C339 C342 1.317 . S
C339 H362 0.929 . S
C340 C337 1.432 . S
C340 C338 1.417 . S
C340 N348 1.360 . S
C341 C337 1.414 . S
C341 C339 1.444 . S
C341 C346 1.385 . S
C342 C338 1.432 . S
C342 C339 1.317 . S
C342 H354 0.930 . S
C343 C345 1.392 . S
C343 C346 1.370 . S
C343 H355 0.931 . S
N344 C337 1.359 . S
N344 C345 1.327 . S
N344 Tb347 2.600 . S
C345 C343 1.392 . S
C345 N344 1.327 . S
C345 H352 0.930 . S
C346 C341 1.385 . S
C346 C343 1.370 . S
C346 H365 0.930 . S
Tb347 N344 2.600 . S
Tb347 N348 2.660 . S
Tb347 O381 2.362 . S
Tb347 O382 2.421 . S
Tb347 O386 2.546 . S
Tb347 O387 2.610 . S
Tb347 O389 2.320 . S
Tb347 O390 2.552 . S
Tb347 O391 2.413 . S
Tb347 C411 2.833 . S
N348 C340 1.360 . S
N348 Tb347 2.660 . S
N348 C349 1.305 . S
C349 N348 1.305 . S
C349 C351 1.407 . S
C349 H356 0.930 . S
C350 C338 1.410 . S
C350 C351 1.345 . S
C350 H358 0.930 . S
C351 C349 1.407 . S
C351 C350 1.345 . S
C351 H353 0.930 . S
H352 C345 0.930 . S
H353 C351 0.930 . S
H354 C342 0.930 . S
H355 C343 0.931 . S
H356 C349 0.930 . S
H357 C371 0.930 . S
H358 C350 0.930 . S
H359 C377 0.930 . S
H360 C368 0.930 . S
H361 C375 0.931 . S
H362 C339 0.929 . S
H363 C369 0.930 . S
H364 C402 0.930 . S
H365 C346 0.930 . S
H366 C401 0.929 . S
N367 Tb336 2.660 . S
N367 C368 1.305 . S
N367 C372 1.360 . S
C368 H360 0.930 . S
C368 N367 1.305 . S
C368 C371 1.407 . S
C369 H363 0.930 . S
C369 C370 1.410 . S
C369 C371 1.345 . S
C370 C369 1.410 . S
C370 C372 1.417 . S
C370 C402 1.432 . S
C371 H357 0.930 . S
C371 C368 1.407 . S
C371 C369 1.345 . S
C372 N367 1.360 . S
C372 C370 1.417 . S
C372 C376 1.432 . S
H373 C378 0.930 . S
N374 Tb336 2.600 . S
N374 C376 1.359 . S
N374 C377 1.327 . S
C375 H361 0.931 . S
C375 C377 1.392 . S
C375 C378 1.370 . S
C376 C372 1.432 . S
C376 N374 1.359 . S
C376 C379 1.414 . S
C377 H359 0.930 . S
C377 N374 1.327 . S
C377 C375 1.392 . S
C378 H373 0.930 . S
C378 C375 1.370 . S
C378 C379 1.385 . S
C379 C376 1.414 . S
C379 C378 1.385 . S
C379 C401 1.444 . S
O380 Tb336 2.546 . S
O380 C400 1.251 . S
O381 Tb336 2.610 . S
O381 Tb347 2.362 . S
O381 C392 1.283 . S
O382 Tb347 2.421 . S
O382 C399 1.262 . S
O383 Tb336 2.320 . S
O383 C399 1.260 . S
O384 Tb336 2.552 . S
O384 C392 1.243 . S
O385 Tb336 2.413 . S
O385 C400 1.256 . S
O386 Tb347 2.546 . S
O386 C411 1.251 . S
O387 Tb336 2.362 . S
O387 Tb347 2.610 . S
O387 C403 1.283 . S
O388 Tb336 2.421 . S
O388 C410 1.262 . S
O389 Tb347 2.320 . S
O389 C410 1.260 . S
O390 Tb347 2.552 . S
O390 C403 1.243 . S
O391 Tb347 2.413 . S
O391 C411 1.256 . S
C392 O381 1.283 . S
C392 O384 1.243 . S
C393 C395 1.382 . S
C393 C397 1.393 . S
C393 C400 1.500 . S
C394 C395 1.400 . S
C394 C396 1.384 . S
C395 C393 1.382 . S
C395 C394 1.400 . S
C395 H412 0.930 . S
C396 C394 1.384 . S
C396 C398 1.392 . S
C396 H413 0.931 . S
C397 C393 1.393 . S
C397 C398 1.401 . S
C397 H414 0.930 . S
C398 C396 1.392 . S
C398 C397 1.401 . S
C398 H415 0.930 . S
C399 O382 1.262 . S
C399 O383 1.260 . S
C400 Tb336 2.833 . S
C400 O380 1.251 . S
C400 O385 1.256 . S
C400 C393 1.500 . S
C401 H366 0.929 . S
C401 C379 1.444 . S
C401 C402 1.317 . S
C402 H364 0.930 . S
C402 C370 1.432 . S
C402 C401 1.317 . S
C403 O387 1.283 . S
C403 O390 1.243 . S
C404 C405 1.382 . S
C404 C408 1.393 . S
C404 C411 1.500 . S
C405 C404 1.382 . S
C405 C406 1.400 . S
C405 H416 0.930 . S
C406 C405 1.400 . S
C406 C407 1.384 . S
C407 C406 1.384 . S
C407 C409 1.392 . S
C407 H417 0.931 . S
C408 C404 1.393 . S
C408 C409 1.401 . S
C408 H418 0.930 . S
C409 C407 1.392 . S
C409 C408 1.401 . S
C409 H419 0.930 . S
C410 O388 1.262 . S
C410 O389 1.260 . S
C411 Tb347 2.833 . S
C411 O386 1.251 . S
C411 O391 1.256 . S
C411 C404 1.500 . S
H412 C395 0.930 . S
H413 C396 0.931 . S
H414 C397 0.930 . S
H415 C398 0.930 . S
H416 C405 0.930 . S
H417 C407 0.931 . S
H418 C408 0.930 . S
H419 C409 0.930 . S
Tb420 N451 2.660 . S
Tb420 N458 2.600 . S
Tb420 O464 2.546 . S
Tb420 O465 2.610 . S
Tb420 O467 2.320 . S
Tb420 O468 2.552 . S
Tb420 O469 2.413 . S
Tb420 O471 2.362 . S
Tb420 O472 2.421 . S
Tb420 C484 2.833 . S
C421 C424 1.432 . S
C421 C425 1.414 . S
C421 N428 1.359 . S
C422 C424 1.417 . S
C422 C426 1.432 . S
C422 C434 1.410 . S
C423 C425 1.444 . S
C423 C426 1.317 . S
C423 H446 0.929 . S
C424 C421 1.432 . S
C424 C422 1.417 . S
C424 N432 1.360 . S
C425 C421 1.414 . S
C425 C423 1.444 . S
C425 C430 1.385 . S
C426 C422 1.432 . S
C426 C423 1.317 . S
C426 H438 0.930 . S
C427 C429 1.392 . S
C427 C430 1.370 . S
C427 H439 0.931 . S
N428 C421 1.359 . S
N428 C429 1.327 . S
N428 Tb431 2.600 . S
C429 C427 1.392 . S
C429 N428 1.327 . S
C429 H436 0.930 . S
C430 C425 1.385 . S
C430 C427 1.370 . S
C430 H449 0.930 . S
Tb431 N428 2.600 . S
Tb431 N432 2.660 . S
Tb431 O465 2.362 . S
Tb431 O466 2.421 . S
Tb431 O470 2.546 . S
Tb431 O471 2.610 . S
Tb431 O473 2.320 . S
Tb431 O474 2.552 . S
Tb431 O475 2.413 . S
Tb431 C495 2.833 . S
N432 C424 1.360 . S
N432 Tb431 2.660 . S
N432 C433 1.305 . S
C433 N432 1.305 . S
C433 C435 1.407 . S
C433 H440 0.930 . S
C434 C422 1.410 . S
C434 C435 1.345 . S
C434 H442 0.930 . S
C435 C433 1.407 . S
C435 C434 1.345 . S
C435 H437 0.930 . S
H436 C429 0.930 . S
H437 C435 0.930 . S
H438 C426 0.930 . S
H439 C427 0.931 . S
H440 C433 0.930 . S
H441 C455 0.930 . S
H442 C434 0.930 . S
H443 C461 0.930 . S
H444 C452 0.930 . S
H445 C459 0.931 . S
H446 C423 0.929 . S
H447 C453 0.930 . S
H448 C486 0.930 . S
H449 C430 0.930 . S
H450 C485 0.929 . S
N451 Tb420 2.660 . S
N451 C452 1.305 . S
N451 C456 1.360 . S
C452 H444 0.930 . S
C452 N451 1.305 . S
C452 C455 1.407 . S
C453 H447 0.930 . S
C453 C454 1.410 . S
C453 C455 1.345 . S
C454 C453 1.410 . S
C454 C456 1.417 . S
C454 C486 1.432 . S
C455 H441 0.930 . S
C455 C452 1.407 . S
C455 C453 1.345 . S
C456 N451 1.360 . S
C456 C454 1.417 . S
C456 C460 1.432 . S
H457 C462 0.930 . S
N458 Tb420 2.600 . S
N458 C460 1.359 . S
N458 C461 1.327 . S
C459 H445 0.931 . S
C459 C461 1.392 . S
C459 C462 1.370 . S
C460 C456 1.432 . S
C460 N458 1.359 . S
C460 C463 1.414 . S
C461 H443 0.930 . S
C461 N458 1.327 . S
C461 C459 1.392 . S
C462 H457 0.930 . S
C462 C459 1.370 . S
C462 C463 1.385 . S
C463 C460 1.414 . S
C463 C462 1.385 . S
C463 C485 1.444 . S
O464 Tb420 2.546 . S
O464 C484 1.251 . S
O465 Tb420 2.610 . S
O465 Tb431 2.362 . S
O465 C476 1.283 . S
O466 Tb431 2.421 . S
O466 C483 1.262 . S
O467 Tb420 2.320 . S
O467 C483 1.260 . S
O468 Tb420 2.552 . S
O468 C476 1.243 . S
O469 Tb420 2.413 . S
O469 C484 1.256 . S
O470 Tb431 2.546 . S
O470 C495 1.251 . S
O471 Tb420 2.362 . S
O471 Tb431 2.610 . S
O471 C487 1.283 . S
O472 Tb420 2.421 . S
O472 C494 1.262 . S
O473 Tb431 2.320 . S
O473 C494 1.260 . S
O474 Tb431 2.552 . S
O474 C487 1.243 . S
O475 Tb431 2.413 . S
O475 C495 1.256 . S
C476 O465 1.283 . S
C476 O468 1.243 . S
C477 C479 1.382 . S
C477 C481 1.393 . S
C477 C484 1.500 . S
C478 C479 1.400 . S
C478 C480 1.384 . S
C479 C477 1.382 . S
C479 C478 1.400 . S
C479 H496 0.930 . S
C480 C478 1.384 . S
C480 C482 1.392 . S
C480 H497 0.931 . S
C481 C477 1.393 . S
C481 C482 1.401 . S
C481 H498 0.930 . S
C482 C480 1.392 . S
C482 C481 1.401 . S
C482 H499 0.930 . S
C483 O466 1.262 . S
C483 O467 1.260 . S
C484 Tb420 2.833 . S
C484 O464 1.251 . S
C484 O469 1.256 . S
C484 C477 1.500 . S
C485 H450 0.929 . S
C485 C463 1.444 . S
C485 C486 1.317 . S
C486 H448 0.930 . S
C486 C454 1.432 . S
C486 C485 1.317 . S
C487 O471 1.283 . S
C487 O474 1.243 . S
C488 C489 1.382 . S
C488 C492 1.393 . S
C488 C495 1.500 . S
C489 C488 1.382 . S
C489 C490 1.400 . S
C489 H500 0.930 . S
C490 C489 1.400 . S
C490 C491 1.384 . S
C491 C490 1.384 . S
C491 C493 1.392 . S
C491 H501 0.931 . S
C492 C488 1.393 . S
C492 C493 1.401 . S
C492 H502 0.930 . S
C493 C491 1.392 . S
C493 C492 1.401 . S
C493 H503 0.930 . S
C494 O472 1.262 . S
C494 O473 1.260 . S
C495 Tb431 2.833 . S
C495 O470 1.251 . S
C495 O475 1.256 . S
C495 C488 1.500 . S
H496 C479 0.930 . S
H497 C480 0.931 . S
H498 C481 0.930 . S
H499 C482 0.930 . S
H500 C489 0.930 . S
H501 C491 0.931 . S
H502 C492 0.930 . S
H503 C493 0.930 . S
Tb504 N535 2.660 . S
Tb504 N542 2.600 . S
Tb504 O548 2.546 . S
Tb504 O549 2.610 . S
Tb504 O551 2.320 . S
Tb504 O552 2.552 . S
Tb504 O553 2.413 . S
Tb504 O555 2.362 . S
Tb504 O556 2.421 . S
Tb504 C568 2.833 . S
C505 C508 1.432 . S
C505 C509 1.414 . S
C505 N512 1.359 . S
C506 C508 1.417 . S
C506 C510 1.432 . S
C506 C518 1.410 . S
C507 C509 1.444 . S
C507 C510 1.317 . S
C507 H530 0.929 . S
C508 C505 1.432 . S
C508 C506 1.417 . S
C508 N516 1.360 . S
C509 C505 1.414 . S
C509 C507 1.444 . S
C509 C514 1.385 . S
C510 C506 1.432 . S
C510 C507 1.317 . S
C510 H522 0.930 . S
C511 C513 1.392 . S
C511 C514 1.370 . S
C511 H523 0.931 . S
N512 C505 1.359 . S
N512 C513 1.327 . S
N512 Tb515 2.600 . S
C513 C511 1.392 . S
C513 N512 1.327 . S
C513 H520 0.930 . S
C514 C509 1.385 . S
C514 C511 1.370 . S
C514 H533 0.930 . S
Tb515 N512 2.600 . S
Tb515 N516 2.660 . S
Tb515 O549 2.362 . S
Tb515 O550 2.421 . S
Tb515 O554 2.546 . S
Tb515 O555 2.610 . S
Tb515 O557 2.320 . S
Tb515 O558 2.552 . S
Tb515 O559 2.413 . S
Tb515 C579 2.833 . S
N516 C508 1.360 . S
N516 Tb515 2.660 . S
N516 C517 1.305 . S
C517 N516 1.305 . S
C517 C519 1.407 . S
C517 H524 0.930 . S
C518 C506 1.410 . S
C518 C519 1.345 . S
C518 H526 0.930 . S
C519 C517 1.407 . S
C519 C518 1.345 . S
C519 H521 0.930 . S
H520 C513 0.930 . S
H521 C519 0.930 . S
H522 C510 0.930 . S
H523 C511 0.931 . S
H524 C517 0.930 . S
H525 C539 0.930 . S
H526 C518 0.930 . S
H527 C545 0.930 . S
H528 C536 0.930 . S
H529 C543 0.931 . S
H530 C507 0.929 . S
H531 C537 0.930 . S
H532 C570 0.930 . S
H533 C514 0.930 . S
H534 C569 0.929 . S
N535 Tb504 2.660 . S
N535 C536 1.305 . S
N535 C540 1.360 . S
C536 H528 0.930 . S
C536 N535 1.305 . S
C536 C539 1.407 . S
C537 H531 0.930 . S
C537 C538 1.410 . S
C537 C539 1.345 . S
C538 C537 1.410 . S
C538 C540 1.417 . S
C538 C570 1.432 . S
C539 H525 0.930 . S
C539 C536 1.407 . S
C539 C537 1.345 . S
C540 N535 1.360 . S
C540 C538 1.417 . S
C540 C544 1.432 . S
H541 C546 0.930 . S
N542 Tb504 2.600 . S
N542 C544 1.359 . S
N542 C545 1.327 . S
C543 H529 0.931 . S
C543 C545 1.392 . S
C543 C546 1.370 . S
C544 C540 1.432 . S
C544 N542 1.359 . S
C544 C547 1.414 . S
C545 H527 0.930 . S
C545 N542 1.327 . S
C545 C543 1.392 . S
C546 H541 0.930 . S
C546 C543 1.370 . S
C546 C547 1.385 . S
C547 C544 1.414 . S
C547 C546 1.385 . S
C547 C569 1.444 . S
O548 Tb504 2.546 . S
O548 C568 1.251 . S
O549 Tb504 2.610 . S
O549 Tb515 2.362 . S
O549 C560 1.283 . S
O550 Tb515 2.421 . S
O550 C567 1.262 . S
O551 Tb504 2.320 . S
O551 C567 1.260 . S
O552 Tb504 2.552 . S
O552 C560 1.243 . S
O553 Tb504 2.413 . S
O553 C568 1.256 . S
O554 Tb515 2.546 . S
O554 C579 1.251 . S
O555 Tb504 2.362 . S
O555 Tb515 2.610 . S
O555 C571 1.283 . S
O556 Tb504 2.421 . S
O556 C578 1.262 . S
O557 Tb515 2.320 . S
O557 C578 1.260 . S
O558 Tb515 2.552 . S
O558 C571 1.243 . S
O559 Tb515 2.413 . S
O559 C579 1.256 . S
C560 O549 1.283 . S
C560 O552 1.243 . S
C561 C563 1.382 . S
C561 C565 1.393 . S
C561 C568 1.500 . S
C562 C563 1.400 . S
C562 C564 1.384 . S
C563 C561 1.382 . S
C563 C562 1.400 . S
C563 H580 0.930 . S
C564 C562 1.384 . S
C564 C566 1.392 . S
C564 H581 0.931 . S
C565 C561 1.393 . S
C565 C566 1.401 . S
C565 H582 0.930 . S
C566 C564 1.392 . S
C566 C565 1.401 . S
C566 H583 0.930 . S
C567 O550 1.262 . S
C567 O551 1.260 . S
C568 Tb504 2.833 . S
C568 O548 1.251 . S
C568 O553 1.256 . S
C568 C561 1.500 . S
C569 H534 0.929 . S
C569 C547 1.444 . S
C569 C570 1.317 . S
C570 H532 0.930 . S
C570 C538 1.432 . S
C570 C569 1.317 . S
C571 O555 1.283 . S
C571 O558 1.243 . S
C572 C573 1.382 . S
C572 C576 1.393 . S
C572 C579 1.500 . S
C573 C572 1.382 . S
C573 C574 1.400 . S
C573 H584 0.930 . S
C574 C573 1.400 . S
C574 C575 1.384 . S
C575 C574 1.384 . S
C575 C577 1.392 . S
C575 H585 0.931 . S
C576 C572 1.393 . S
C576 C577 1.401 . S
C576 H586 0.930 . S
C577 C575 1.392 . S
C577 C576 1.401 . S
C577 H587 0.930 . S
C578 O556 1.262 . S
C578 O557 1.260 . S
C579 Tb515 2.833 . S
C579 O554 1.251 . S
C579 O559 1.256 . S
C579 C572 1.500 . S
H580 C563 0.930 . S
H581 C564 0.931 . S
H582 C565 0.930 . S
H583 C566 0.930 . S
H584 C573 0.930 . S
H585 C575 0.931 . S
H586 C576 0.930 . S
H587 C577 0.930 . S
Tb588 N619 2.660 . S
Tb588 N626 2.600 . S
Tb588 O632 2.546 . S
Tb588 O633 2.610 . S
Tb588 O635 2.320 . S
Tb588 O636 2.552 . S
Tb588 O637 2.413 . S
Tb588 O639 2.362 . S
Tb588 O640 2.421 . S
Tb588 C652 2.833 . S
C589 C592 1.432 . S
C589 C593 1.414 . S
C589 N596 1.359 . S
C590 C592 1.417 . S
C590 C594 1.432 . S
C590 C602 1.410 . S
C591 C593 1.444 . S
C591 C594 1.317 . S
C591 H614 0.929 . S
C592 C589 1.432 . S
C592 C590 1.417 . S
C592 N600 1.360 . S
C593 C589 1.414 . S
C593 C591 1.444 . S
C593 C598 1.385 . S
C594 C590 1.432 . S
C594 C591 1.317 . S
C594 H606 0.930 . S
C595 C597 1.392 . S
C595 C598 1.370 . S
C595 H607 0.931 . S
N596 C589 1.359 . S
N596 C597 1.327 . S
N596 Tb599 2.600 . S
C597 C595 1.392 . S
C597 N596 1.327 . S
C597 H604 0.930 . S
C598 C593 1.385 . S
C598 C595 1.370 . S
C598 H617 0.930 . S
Tb599 N596 2.600 . S
Tb599 N600 2.660 . S
Tb599 O633 2.362 . S
Tb599 O634 2.421 . S
Tb599 O638 2.546 . S
Tb599 O639 2.610 . S
Tb599 O641 2.320 . S
Tb599 O642 2.552 . S
Tb599 O643 2.413 . S
Tb599 C663 2.833 . S
N600 C592 1.360 . S
N600 Tb599 2.660 . S
N600 C601 1.305 . S
C601 N600 1.305 . S
C601 C603 1.407 . S
C601 H608 0.930 . S
C602 C590 1.410 . S
C602 C603 1.345 . S
C602 H610 0.930 . S
C603 C601 1.407 . S
C603 C602 1.345 . S
C603 H605 0.930 . S
H604 C597 0.930 . S
H605 C603 0.930 . S
H606 C594 0.930 . S
H607 C595 0.931 . S
H608 C601 0.930 . S
H609 C623 0.930 . S
H610 C602 0.930 . S
H611 C629 0.930 . S
H612 C620 0.930 . S
H613 C627 0.931 . S
H614 C591 0.929 . S
H615 C621 0.930 . S
H616 C654 0.930 . S
H617 C598 0.930 . S
H618 C653 0.929 . S
N619 Tb588 2.660 . S
N619 C620 1.305 . S
N619 C624 1.360 . S
C620 H612 0.930 . S
C620 N619 1.305 . S
C620 C623 1.407 . S
C621 H615 0.930 . S
C621 C622 1.410 . S
C621 C623 1.345 . S
C622 C621 1.410 . S
C622 C624 1.417 . S
C622 C654 1.432 . S
C623 H609 0.930 . S
C623 C620 1.407 . S
C623 C621 1.345 . S
C624 N619 1.360 . S
C624 C622 1.417 . S
C624 C628 1.432 . S
H625 C630 0.930 . S
N626 Tb588 2.600 . S
N626 C628 1.359 . S
N626 C629 1.327 . S
C627 H613 0.931 . S
C627 C629 1.392 . S
C627 C630 1.370 . S
C628 C624 1.432 . S
C628 N626 1.359 . S
C628 C631 1.414 . S
C629 H611 0.930 . S
C629 N626 1.327 . S
C629 C627 1.392 . S
C630 H625 0.930 . S
C630 C627 1.370 . S
C630 C631 1.385 . S
C631 C628 1.414 . S
C631 C630 1.385 . S
C631 C653 1.444 . S
O632 Tb588 2.546 . S
O632 C652 1.251 . S
O633 Tb588 2.610 . S
O633 Tb599 2.362 . S
O633 C644 1.283 . S
O634 Tb599 2.421 . S
O634 C651 1.262 . S
O635 Tb588 2.320 . S
O635 C651 1.260 . S
O636 Tb588 2.552 . S
O636 C644 1.243 . S
O637 Tb588 2.413 . S
O637 C652 1.256 . S
O638 Tb599 2.546 . S
O638 C663 1.251 . S
O639 Tb588 2.362 . S
O639 Tb599 2.610 . S
O639 C655 1.283 . S
O640 Tb588 2.421 . S
O640 C662 1.262 . S
O641 Tb599 2.320 . S
O641 C662 1.260 . S
O642 Tb599 2.552 . S
O642 C655 1.243 . S
O643 Tb599 2.413 . S
O643 C663 1.256 . S
C644 O633 1.283 . S
C644 O636 1.243 . S
C645 C647 1.382 . S
C645 C649 1.393 . S
C645 C652 1.500 . S
C646 C647 1.400 . S
C646 C648 1.384 . S
C647 C645 1.382 . S
C647 C646 1.400 . S
C647 H664 0.930 . S
C648 C646 1.384 . S
C648 C650 1.392 . S
C648 H665 0.931 . S
C649 C645 1.393 . S
C649 C650 1.401 . S
C649 H666 0.930 . S
C650 C648 1.392 . S
C650 C649 1.401 . S
C650 H667 0.930 . S
C651 O634 1.262 . S
C651 O635 1.260 . S
C652 Tb588 2.833 . S
C652 O632 1.251 . S
C652 O637 1.256 . S
C652 C645 1.500 . S
C653 H618 0.929 . S
C653 C631 1.444 . S
C653 C654 1.317 . S
C654 H616 0.930 . S
C654 C622 1.432 . S
C654 C653 1.317 . S
C655 O639 1.283 . S
C655 O642 1.243 . S
C656 C657 1.382 . S
C656 C660 1.393 . S
C656 C663 1.500 . S
C657 C656 1.382 . S
C657 C658 1.400 . S
C657 H668 0.930 . S
C658 C657 1.400 . S
C658 C659 1.384 . S
C659 C658 1.384 . S
C659 C661 1.392 . S
C659 H669 0.931 . S
C660 C656 1.393 . S
C660 C661 1.401 . S
C660 H670 0.930 . S
C661 C659 1.392 . S
C661 C660 1.401 . S
C661 H671 0.930 . S
C662 O640 1.262 . S
C662 O641 1.260 . S
C663 Tb599 2.833 . S
C663 O638 1.251 . S
C663 O643 1.256 . S
C663 C656 1.500 . S
H664 C647 0.930 . S
H665 C648 0.931 . S
H666 C649 0.930 . S
H667 C650 0.930 . S
H668 C657 0.930 . S
H669 C659 0.931 . S
H670 C660 0.930 . S
H671 C661 0.930 . S
C672 O684 1.241 . S
C672 O685 1.280 . S
C673 O686 1.277 . S
C673 O687 1.245 . S
C674 O698 1.247 . S
C674 O700 1.289 . S
Mg675 O676 1.926 . S
Mg675 O685 1.984 . S
Mg675 O687 1.988 . S
Mg675 O688 2.061 1_655 S
O676 Mg675 1.926 . S
O676 Mg677 1.986 1_545 S
O676 Mg678 1.910 1_655 S
Mg677 O676 1.986 1_565 S
Mg677 O684 2.042 1_565 S
Mg677 O686 2.041 1_565 S
Mg677 O692 2.038 . S
Mg677 O700 2.238 . S
Mg678 O676 1.910 1_455 S
Mg678 O679 1.924 1_545 S
Mg678 O689 2.112 . S
Mg678 O691 2.077 1_445 S
Mg678 O700 2.101 1_445 S
Mg678 O701 2.081 . S
O679 Mg678 1.924 1_565 S
O679 Mg680 1.926 . S
O679 Mg681 1.986 1_565 S
Mg680 O679 1.926 . S
Mg680 O694 1.984 . S
Mg680 O697 1.988 . S
Mg680 O698 2.061 1_455 S
Mg681 O679 1.986 1_545 S
Mg681 O689 2.238 . S
Mg681 O693 2.042 1_545 S
Mg681 O695 2.041 1_545 S
Mg681 O702 2.038 . S
C682 O688 1.247 . S
C682 O689 1.289 . S
C683 O701 1.245 . S
C683 O702 1.274 . S
O684 C672 1.241 . S
O684 Mg677 2.042 1_545 S
O685 C672 1.280 . S
O685 Mg675 1.984 . S
O686 C673 1.277 . S
O686 Mg677 2.041 1_545 S
O687 C673 1.245 . S
O687 Mg675 1.988 . S
O688 Mg675 2.061 1_455 S
O688 C682 1.247 . S
O689 Mg678 2.112 . S
O689 Mg681 2.238 . S
O689 C682 1.289 . S
C690 O691 1.245 . S
C690 O692 1.274 . S
O691 Mg678 2.077 1_665 S
O691 C690 1.245 . S
O692 Mg677 2.038 . S
O692 C690 1.274 . S
O693 Mg681 2.042 1_565 S
O693 C696 1.241 . S
O694 Mg680 1.984 . S
O694 C696 1.280 . S
O695 Mg681 2.041 1_565 S
O695 C699 1.277 . S
C696 O693 1.241 . S
C696 O694 1.280 . S
O697 Mg680 1.988 . S
O697 C699 1.245 . S
O698 C674 1.247 . S
O698 Mg680 2.061 1_655 S
C699 O695 1.277 . S
C699 O697 1.245 . S
O700 C674 1.289 . S
O700 Mg677 2.238 . S
O700 Mg678 2.101 1_665 S
O701 Mg678 2.081 . S
O701 C683 1.245 . S
O702 Mg681 2.038 . S
O702 C683 1.274 . S
C703 O715 1.241 . S
C703 O716 1.280 . S
C704 O717 1.277 . S
C704 O718 1.245 . S
C705 O729 1.247 . S
C705 O731 1.289 . S
Mg706 O707 1.926 . S
Mg706 O716 1.984 . S
Mg706 O718 1.988 1_554 S
Mg706 O719 2.061 . S
O707 Mg706 1.926 . S
O707 Mg708 1.986 1_544 S
O707 Mg709 1.917 . S
Mg708 O707 1.986 1_566 S
Mg708 O715 2.042 1_566 S
Mg708 O717 2.041 1_565 S
Mg708 O723 2.038 1_556 S
Mg708 O731 2.238 . S
Mg709 O707 1.917 . S
Mg709 O710 1.917 1_544 S
Mg709 O720 2.106 . S
Mg709 O722 2.079 1_545 S
Mg709 O731 2.106 1_544 S
Mg709 O732 2.079 1_554 S
O710 Mg709 1.917 1_566 S
O710 Mg711 1.926 . S
O710 Mg712 1.986 1_566 S
Mg711 O710 1.926 . S
Mg711 O725 1.984 . S
Mg711 O728 1.988 1_556 S
Mg711 O729 2.061 . S
Mg712 O710 1.986 1_544 S
Mg712 O720 2.238 . S
Mg712 O724 2.042 1_544 S
Mg712 O726 2.041 1_545 S
Mg712 O733 2.038 1_554 S
C713 O719 1.247 . S
C713 O720 1.289 . S
C714 O732 1.245 . S
C714 O733 1.274 . S
O715 C703 1.241 . S
O715 Mg708 2.042 1_544 S
O716 C703 1.280 . S
O716 Mg706 1.984 . S
O717 C704 1.277 . S
O717 Mg708 2.041 1_545 S
O718 C704 1.245 . S
O718 Mg706 1.988 1_556 S
O719 Mg706 2.061 . S
O719 C713 1.247 . S
O720 Mg709 2.106 . S
O720 Mg712 2.238 . S
O720 C713 1.289 . S
C721 O722 1.245 . S
C721 O723 1.274 . S
O722 Mg709 2.079 1_565 S
O722 C721 1.245 . S
O723 Mg708 2.038 1_554 S
O723 C721 1.274 . S
O724 Mg712 2.042 1_566 S
O724 C727 1.241 . S
O725 Mg711 1.984 . S
O725 C727 1.280 . S
O726 Mg712 2.041 1_565 S
O726 C730 1.277 . S
C727 O724 1.241 . S
C727 O725 1.280 . S
O728 Mg711 1.988 1_554 S
O728 C730 1.245 . S
O729 C705 1.247 . S
O729 Mg711 2.061 . S
C730 O726 1.277 . S
C730 O728 1.245 . S
O731 C705 1.289 . S
O731 Mg708 2.238 . S
O731 Mg709 2.106 1_566 S
O732 Mg709 2.079 1_556 S
O732 C714 1.245 . S
O733 Mg712 2.038 1_556 S
O733 C714 1.274 . S
C734 O746 1.241 . S
C734 O747 1.280 . S
C735 O748 1.277 . S
C735 O749 1.245 . S
C736 O760 1.247 . S
C736 O762 1.289 . S
Mg737 O738 1.926 . S
Mg737 O747 1.984 . S
Mg737 O749 1.988 1_554 S
Mg737 O750 2.061 1_655 S
O738 Mg737 1.926 . S
O738 Mg739 1.986 1_554 S
O738 Mg740 1.910 1_655 S
Mg739 O738 1.986 1_556 S
Mg739 O746 2.042 1_556 S
Mg739 O748 2.041 . S
Mg739 O754 2.038 1_556 S
Mg739 O762 2.238 . S
Mg740 O738 1.910 1_455 S
Mg740 O741 1.923 1_554 S
Mg740 O751 2.112 . S
Mg740 O753 2.077 1_455 S
Mg740 O762 2.101 1_454 S
Mg740 O763 2.081 1_554 S
O741 Mg740 1.923 1_556 S
O741 Mg742 1.926 . S
O741 Mg743 1.986 1_556 S
Mg742 O741 1.926 . S
Mg742 O756 1.984 . S
Mg742 O759 1.988 1_556 S
Mg742 O760 2.061 1_455 S
Mg743 O741 1.986 1_554 S
Mg743 O751 2.238 . S
Mg743 O755 2.042 1_554 S
Mg743 O757 2.041 . S
Mg743 O764 2.038 1_554 S
C744 O750 1.247 . S
C744 O751 1.289 . S
C745 O763 1.245 . S
C745 O764 1.274 . S
O746 C734 1.241 . S
O746 Mg739 2.042 1_554 S
O747 C734 1.280 . S
O747 Mg737 1.984 . S
O748 C735 1.277 . S
O748 Mg739 2.041 . S
O749 C735 1.245 . S
O749 Mg737 1.988 1_556 S
O750 Mg737 2.061 1_455 S
O750 C744 1.247 . S
O751 Mg740 2.112 . S
O751 Mg743 2.238 . S
O751 C744 1.289 . S
C752 O753 1.245 . S
C752 O754 1.274 . S
O753 Mg740 2.077 1_655 S
O753 C752 1.245 . S
O754 Mg739 2.038 1_554 S
O754 C752 1.274 . S
O755 Mg743 2.042 1_556 S
O755 C758 1.241 . S
O756 Mg742 1.984 . S
O756 C758 1.280 . S
O757 Mg743 2.041 . S
O757 C761 1.277 . S
C758 O755 1.241 . S
C758 O756 1.280 . S
O759 Mg742 1.988 1_554 S
O759 C761 1.245 . S
O760 C736 1.247 . S
O760 Mg742 2.061 1_655 S
C761 O757 1.277 . S
C761 O759 1.245 . S
O762 C736 1.289 . S
O762 Mg739 2.238 . S
O762 Mg740 2.101 1_656 S
O763 Mg740 2.081 1_556 S
O763 C745 1.245 . S
O764 Mg743 2.038 1_556 S
O764 C745 1.274 . S
C765 O777 1.241 . S
C765 O778 1.280 . S
C766 O779 1.277 . S
C766 O780 1.245 . S
C767 O791 1.247 . S
C767 O793 1.289 . S
Mg768 O769 1.926 . S
Mg768 O778 1.984 . S
Mg768 O780 1.988 1_554 S
Mg768 O781 2.061 . S
O769 Mg768 1.926 . S
O769 Mg770 1.986 1_554 S
O769 Mg771 1.917 . S
Mg770 O769 1.986 1_556 S
Mg770 O777 2.042 1_556 S
Mg770 O779 2.041 . S
Mg770 O785 2.038 1_556 S
Mg770 O793 2.238 . S
Mg771 O769 1.917 . S
Mg771 O772 1.917 1_554 S
Mg771 O782 2.106 . S
Mg771 O784 2.079 . S
Mg771 O793 2.106 1_554 S
Mg771 O794 2.079 1_554 S
O772 Mg771 1.917 1_556 S
O772 Mg773 1.926 . S
O772 Mg774 1.986 1_556 S
Mg773 O772 1.926 . S
Mg773 O787 1.984 . S
Mg773 O790 1.988 1_556 S
Mg773 O791 2.061 . S
Mg774 O772 1.986 1_554 S
Mg774 O782 2.238 . S
Mg774 O786 2.042 1_554 S
Mg774 O788 2.041 . S
Mg774 O795 2.038 1_554 S
C775 O781 1.247 . S
C775 O782 1.289 . S
C776 O794 1.245 . S
C776 O795 1.274 . S
O777 C765 1.241 . S
O777 Mg770 2.042 1_554 S
O778 C765 1.280 . S
O778 Mg768 1.984 . S
O779 C766 1.277 . S
O779 Mg770 2.041 . S
O780 C766 1.245 . S
O780 Mg768 1.988 1_556 S
O781 Mg768 2.061 . S
O781 C775 1.247 . S
O782 Mg771 2.106 . S
O782 Mg774 2.238 . S
O782 C775 1.289 . S
C783 O784 1.245 . S
C783 O785 1.274 . S
O784 Mg771 2.079 . S
O784 C783 1.245 . S
O785 Mg770 2.038 1_554 S
O785 C783 1.274 . S
O786 Mg774 2.042 1_556 S
O786 C789 1.241 . S
O787 Mg773 1.984 . S
O787 C789 1.280 . S
O788 Mg774 2.041 . S
O788 C792 1.277 . S
C789 O786 1.241 . S
C789 O787 1.280 . S
O790 Mg773 1.988 1_554 S
O790 C792 1.245 . S
O791 C767 1.247 . S
O791 Mg773 2.061 . S
C792 O788 1.277 . S
C792 O790 1.245 . S
O793 C767 1.289 . S
O793 Mg770 2.238 . S
O793 Mg771 2.106 1_556 S
O794 Mg771 2.079 1_556 S
O794 C776 1.245 . S
O795 Mg774 2.038 1_556 S
O795 C776 1.274 . S
C796 O808 1.241 . S
C796 O809 1.280 . S
C797 O810 1.277 . S
C797 O811 1.245 . S
C798 O822 1.247 . S
C798 O824 1.289 . S
Mg799 O800 1.926 . S
Mg799 O809 1.984 . S
Mg799 O811 1.988 . S
Mg799 O812 2.061 1_655 S
O800 Mg799 1.926 . S
O800 Mg801 1.986 . S
O800 Mg802 1.910 1_655 S
Mg801 O800 1.986 . S
Mg801 O808 2.042 . S
Mg801 O810 2.041 . S
Mg801 O816 2.038 . S
Mg801 O824 2.238 . S
Mg802 O800 1.910 1_455 S
Mg802 O803 1.923 . S
Mg802 O813 2.111 . S
Mg802 O815 2.077 1_455 S
Mg802 O824 2.101 1_455 S
Mg802 O825 2.081 . S
O803 Mg802 1.923 . S
O803 Mg804 1.926 . S
O803 Mg805 1.986 . S
Mg804 O803 1.926 . S
Mg804 O818 1.984 . S
Mg804 O821 1.988 . S
Mg804 O822 2.061 1_455 S
Mg805 O803 1.986 . S
Mg805 O813 2.238 . S
Mg805 O817 2.042 . S
Mg805 O819 2.041 . S
Mg805 O826 2.038 . S
C806 O812 1.247 . S
C806 O813 1.289 . S
C807 O825 1.245 . S
C807 O826 1.274 . S
O808 C796 1.241 . S
O808 Mg801 2.042 . S
O809 C796 1.280 . S
O809 Mg799 1.984 . S
O810 C797 1.277 . S
O810 Mg801 2.041 . S
O811 C797 1.245 . S
O811 Mg799 1.988 . S
O812 Mg799 2.061 1_455 S
O812 C806 1.247 . S
O813 Mg802 2.111 . S
O813 Mg805 2.238 . S
O813 C806 1.289 . S
C814 O815 1.245 . S
C814 O816 1.274 . S
O815 Mg802 2.077 1_655 S
O815 C814 1.245 . S
O816 Mg801 2.038 . S
O816 C814 1.274 . S
O817 Mg805 2.042 . S
O817 C820 1.241 . S
O818 Mg804 1.984 . S
O818 C820 1.280 . S
O819 Mg805 2.041 . S
O819 C823 1.277 . S
C820 O817 1.241 . S
C820 O818 1.280 . S
O821 Mg804 1.988 . S
O821 C823 1.245 . S
O822 C798 1.247 . S
O822 Mg804 2.061 1_655 S
C823 O819 1.277 . S
C823 O821 1.245 . S
O824 C798 1.289 . S
O824 Mg801 2.238 . S
O824 Mg802 2.101 1_655 S
O825 Mg802 2.081 . S
O825 C807 1.245 . S
O826 Mg805 2.038 . S
O826 C807 1.274 . S
C827 O839 1.241 . S
C827 O840 1.280 . S
C828 O841 1.277 . S
C828 O842 1.245 . S
C829 O853 1.247 . S
C829 O855 1.289 . S
Mg830 O831 1.926 . S
Mg830 O840 1.984 . S
Mg830 O842 1.988 . S
Mg830 O843 2.061 . S
O831 Mg830 1.926 . S
O831 Mg832 1.986 1_545 S
O831 Mg833 1.917 . S
Mg832 O831 1.986 1_565 S
Mg832 O839 2.042 1_565 S
Mg832 O841 2.041 1_565 S
Mg832 O847 2.038 . S
Mg832 O855 2.238 . S
Mg833 O831 1.917 . S
Mg833 O834 1.917 1_545 S
Mg833 O844 2.106 . S
Mg833 O846 2.079 1_545 S
Mg833 O855 2.106 1_545 S
Mg833 O856 2.079 . S
O834 Mg833 1.917 1_565 S
O834 Mg835 1.926 . S
O834 Mg836 1.986 1_565 S
Mg835 O834 1.926 . S
Mg835 O849 1.984 . S
Mg835 O852 1.988 . S
Mg835 O853 2.061 . S
Mg836 O834 1.986 1_545 S
Mg836 O844 2.238 . S
Mg836 O848 2.042 1_545 S
Mg836 O850 2.041 1_545 S
Mg836 O857 2.038 . S
C837 O843 1.247 . S
C837 O844 1.289 . S
C838 O856 1.245 . S
C838 O857 1.274 . S
O839 C827 1.241 . S
O839 Mg832 2.042 1_545 S
O840 C827 1.280 . S
O840 Mg830 1.984 . S
O841 C828 1.277 . S
O841 Mg832 2.041 1_545 S
O842 C828 1.245 . S
O842 Mg830 1.988 . S
O843 Mg830 2.061 . S
O843 C837 1.247 . S
O844 Mg833 2.106 . S
O844 Mg836 2.238 . S
O844 C837 1.289 . S
C845 O846 1.245 . S
C845 O847 1.274 . S
O846 Mg833 2.079 1_565 S
O846 C845 1.245 . S
O847 Mg832 2.038 . S
O847 C845 1.274 . S
O848 Mg836 2.042 1_565 S
O848 C851 1.241 . S
O849 Mg835 1.984 . S
O849 C851 1.280 . S
O850 Mg836 2.041 1_565 S
O850 C854 1.277 . S
C851 O848 1.241 . S
C851 O849 1.280 . S
O852 Mg835 1.988 . S
O852 C854 1.245 . S
O853 C829 1.247 . S
O853 Mg835 2.061 . S
C854 O850 1.277 . S
C854 O852 1.245 . S
O855 C829 1.289 . S
O855 Mg832 2.238 . S
O855 Mg833 2.106 1_565 S
O856 Mg833 2.079 . S
O856 C838 1.245 . S
O857 Mg836 2.038 . S
O857 C838 1.274 . S
C858 C859 1.349 . S
C858 C860 1.327 . S
C858 H883 0.950 . S
C859 C858 1.349 . S
C859 C875 1.349 . S
C860 C858 1.327 . S
C860 C879 1.429 . S
C860 H884 0.950 . S
C861 C878 1.574 . S
C861 C880 1.368 . S
C861 H885 0.949 . S
H862 C866 0.949 . S
C863 C864 1.349 . S
C863 C865 1.327 . S
C863 H886 0.950 . S
C864 C863 1.349 . S
C864 C876 1.349 . S
C865 C863 1.327 . S
C865 C881 1.429 . S
C865 H887 0.950 . S
C866 H862 0.949 . S
C866 C874 1.574 . S
C866 C882 1.368 . S
H867 C875 0.950 . S
H868 C873 0.950 . S
H869 C874 0.949 . S
H870 C876 0.950 . S
H871 C877 0.950 . S
H872 C878 0.949 . S
C873 H868 0.950 . S
C873 C875 1.327 . S
C873 C879 1.429 . S
C874 C866 1.574 . S
C874 H869 0.949 . S
C874 C880 1.368 . S
C875 C859 1.349 . S
C875 H867 0.950 . S
C875 C873 1.327 . S
C876 C864 1.349 . S
C876 H870 0.950 . S
C876 C877 1.327 . S
C877 H871 0.950 . S
C877 C876 1.327 . S
C877 C881 1.429 . S
C878 C861 1.574 . S
C878 H872 0.949 . S
C878 C882 1.368 . S
C879 C860 1.429 . S
C879 C873 1.429 . S
C879 C880 1.523 . S
C880 C861 1.368 . S
C880 C874 1.368 . S
C880 C879 1.523 . S
C881 C865 1.429 . S
C881 C877 1.429 . S
C881 C882 1.523 . S
C882 C866 1.368 . S
C882 C878 1.368 . S
C882 C881 1.523 . S
H883 C858 0.950 . S
H884 C860 0.950 . S
H885 C861 0.949 . S
H886 C863 0.950 . S
H887 C865 0.950 . S
C888 C889 1.349 . S
C888 C890 1.327 . S
C888 H913 0.950 . S
C889 C888 1.349 . S
C889 C905 1.349 . S
C890 C888 1.327 . S
C890 C909 1.429 . S
C890 H914 0.950 . S
C891 C908 1.574 . S
C891 C910 1.368 . S
C891 H915 0.949 . S
H892 C896 0.949 . S
C893 C894 1.349 . S
C893 C895 1.327 . S
C893 H916 0.950 . S
C894 C893 1.349 . S
C894 C906 1.349 . S
C895 C893 1.327 . S
C895 C911 1.429 . S
C895 H917 0.950 . S
C896 H892 0.949 . S
C896 C904 1.574 . S
C896 C912 1.368 . S
H897 C905 0.950 . S
H898 C903 0.950 . S
H899 C904 0.949 . S
H900 C906 0.950 . S
H901 C907 0.950 . S
H902 C908 0.949 . S
C903 H898 0.950 . S
C903 C905 1.327 . S
C903 C909 1.429 . S
C904 C896 1.574 . S
C904 H899 0.949 . S
C904 C910 1.368 . S
C905 C889 1.349 . S
C905 H897 0.950 . S
C905 C903 1.327 . S
C906 C894 1.349 . S
C906 H900 0.950 . S
C906 C907 1.327 . S
C907 H901 0.950 . S
C907 C906 1.327 . S
C907 C911 1.429 . S
C908 C891 1.574 . S
C908 H902 0.949 . S
C908 C912 1.368 . S
C909 C890 1.429 . S
C909 C903 1.429 . S
C909 C910 1.523 . S
C910 C891 1.368 . S
C910 C904 1.368 . S
C910 C909 1.523 . S
C911 C895 1.429 . S
C911 C907 1.429 . S
C911 C912 1.523 . S
C912 C896 1.368 . S
C912 C908 1.368 . S
C912 C911 1.523 . S
H913 C888 0.950 . S
H914 C890 0.950 . S
H915 C891 0.949 . S
H916 C893 0.950 . S
H917 C895 0.950 . S
C918 C919 1.349 . S
C918 C920 1.327 . S
C918 H943 0.950 . S
C919 C918 1.349 . S
C919 C935 1.349 . S
C920 C918 1.327 . S
C920 C939 1.429 . S
C920 H944 0.950 . S
C921 C938 1.574 . S
C921 C940 1.368 . S
C921 H945 0.949 . S
H922 C926 0.949 . S
C923 C924 1.349 . S
C923 C925 1.327 . S
C923 H946 0.950 . S
C924 C923 1.349 . S
C924 C936 1.349 . S
C925 C923 1.327 . S
C925 C941 1.429 . S
C925 H947 0.950 . S
C926 H922 0.949 . S
C926 C934 1.574 . S
C926 C942 1.368 . S
H927 C935 0.950 . S
H928 C933 0.950 . S
H929 C934 0.949 . S
H930 C936 0.950 . S
H931 C937 0.950 . S
H932 C938 0.949 . S
C933 H928 0.950 . S
C933 C935 1.327 . S
C933 C939 1.429 . S
C934 C926 1.574 . S
C934 H929 0.949 . S
C934 C940 1.368 . S
C935 C919 1.349 . S
C935 H927 0.950 . S
C935 C933 1.327 . S
C936 C924 1.349 . S
C936 H930 0.950 . S
C936 C937 1.327 . S
C937 H931 0.950 . S
C937 C936 1.327 . S
C937 C941 1.429 . S
C938 C921 1.574 . S
C938 H932 0.949 . S
C938 C942 1.368 . S
C939 C920 1.429 . S
C939 C933 1.429 . S
C939 C940 1.523 . S
C940 C921 1.368 . S
C940 C934 1.368 . S
C940 C939 1.523 . S
C941 C925 1.429 . S
C941 C937 1.429 . S
C941 C942 1.523 . S
C942 C926 1.368 . S
C942 C938 1.368 . S
C942 C941 1.523 . S
H943 C918 0.950 . S
H944 C920 0.950 . S
H945 C921 0.949 . S
H946 C923 0.950 . S
H947 C925 0.950 . S
C948 C949 1.349 . S
C948 C950 1.327 . S
C948 H973 0.950 . S
C949 C948 1.349 . S
C949 C965 1.349 . S
C950 C948 1.327 . S
C950 C969 1.429 . S
C950 H974 0.950 . S
C951 C968 1.574 . S
C951 C970 1.368 . S
C951 H975 0.949 . S
H952 C956 0.949 . S
C953 C954 1.349 . S
C953 C955 1.327 . S
C953 H976 0.950 . S
C954 C953 1.349 . S
C954 C966 1.349 . S
C955 C953 1.327 . S
C955 C971 1.429 . S
C955 H977 0.950 . S
C956 H952 0.949 . S
C956 C964 1.574 . S
C956 C972 1.368 . S
H957 C965 0.950 . S
H958 C963 0.950 . S
H959 C964 0.949 . S
H960 C966 0.950 . S
H961 C967 0.950 . S
H962 C968 0.949 . S
C963 H958 0.950 . S
C963 C965 1.327 . S
C963 C969 1.429 . S
C964 C956 1.574 . S
C964 H959 0.949 . S
C964 C970 1.368 . S
C965 C949 1.349 . S
C965 H957 0.950 . S
C965 C963 1.327 . S
C966 C954 1.349 . S
C966 H960 0.950 . S
C966 C967 1.327 . S
C967 H961 0.950 . S
C967 C966 1.327 . S
C967 C971 1.429 . S
C968 C951 1.574 . S
C968 H962 0.949 . S
C968 C972 1.368 . S
C969 C950 1.429 . S
C969 C963 1.429 . S
C969 C970 1.523 . S
C970 C951 1.368 . S
C970 C964 1.368 . S
C970 C969 1.523 . S
C971 C955 1.429 . S
C971 C967 1.429 . S
C971 C972 1.523 . S
C972 C956 1.368 . S
C972 C968 1.368 . S
C972 C971 1.523 . S
H973 C948 0.950 . S
H974 C950 0.950 . S
H975 C951 0.949 . S
H976 C953 0.950 . S
H977 C955 0.950 . S
C978 C979 1.349 . S
C978 C980 1.327 . S
C978 H1003 0.950 . S
C979 C978 1.349 . S
C979 C995 1.349 . S
C980 C978 1.327 . S
C980 C999 1.429 . S
C980 H1004 0.950 . S
C981 C998 1.574 . S
C981 C1000 1.368 . S
C981 H1005 0.949 . S
H982 C986 0.949 . S
C983 C984 1.349 . S
C983 C985 1.327 . S
C983 H1006 0.950 . S
C984 C983 1.349 . S
C984 C996 1.349 . S
C985 C983 1.327 . S
C985 C1001 1.429 . S
C985 H1007 0.950 . S
C986 H982 0.949 . S
C986 C994 1.574 . S
C986 C1002 1.368 . S
H987 C995 0.950 . S
H988 C993 0.950 . S
H989 C994 0.949 . S
H990 C996 0.950 . S
H991 C997 0.950 . S
H992 C998 0.949 . S
C993 H988 0.950 . S
C993 C995 1.327 . S
C993 C999 1.429 . S
C994 C986 1.574 . S
C994 H989 0.949 . S
C994 C1000 1.368 . S
C995 C979 1.349 . S
C995 H987 0.950 . S
C995 C993 1.327 . S
C996 C984 1.349 . S
C996 H990 0.950 . S
C996 C997 1.327 . S
C997 H991 0.950 . S
C997 C996 1.327 . S
C997 C1001 1.429 . S
C998 C981 1.574 . S
C998 H992 0.949 . S
C998 C1002 1.368 . S
C999 C980 1.429 . S
C999 C993 1.429 . S
C999 C1000 1.523 . S
C1000 C981 1.368 . S
C1000 C994 1.368 . S
C1000 C999 1.523 . S
C1001 C985 1.429 . S
C1001 C997 1.429 . S
C1001 C1002 1.523 . S
C1002 C986 1.368 . S
C1002 C998 1.368 . S
C1002 C1001 1.523 . S
H1003 C978 0.950 . S
H1004 C980 0.950 . S
H1005 C981 0.949 . S
H1006 C983 0.950 . S
H1007 C985 0.950 . S
C1008 C1009 1.349 . S
C1008 C1010 1.327 . S
C1008 H1033 0.950 . S
C1009 C1008 1.349 . S
C1009 C1025 1.349 . S
C1010 C1008 1.327 . S
C1010 C1029 1.429 . S
C1010 H1034 0.950 . S
C1011 C1028 1.574 . S
C1011 C1030 1.368 . S
C1011 H1035 0.949 . S
H1012 C1016 0.949 . S
C1013 C1014 1.349 . S
C1013 C1015 1.327 . S
C1013 H1036 0.950 . S
C1014 C1013 1.349 . S
C1014 C1026 1.349 . S
C1015 C1013 1.327 . S
C1015 C1031 1.429 . S
C1015 H1037 0.950 . S
C1016 H1012 0.949 . S
C1016 C1024 1.574 . S
C1016 C1032 1.368 . S
H1017 C1025 0.950 . S
H1018 C1023 0.950 . S
H1019 C1024 0.949 . S
H1020 C1026 0.950 . S
H1021 C1027 0.950 . S
H1022 C1028 0.949 . S
C1023 H1018 0.950 . S
C1023 C1025 1.327 . S
C1023 C1029 1.429 . S
C1024 C1016 1.574 . S
C1024 H1019 0.949 . S
C1024 C1030 1.368 . S
C1025 C1009 1.349 . S
C1025 H1017 0.950 . S
C1025 C1023 1.327 . S
C1026 C1014 1.349 . S
C1026 H1020 0.950 . S
C1026 C1027 1.327 . S
C1027 H1021 0.950 . S
C1027 C1026 1.327 . S
C1027 C1031 1.429 . S
C1028 C1011 1.574 . S
C1028 H1022 0.949 . S
C1028 C1032 1.368 . S
C1029 C1010 1.429 . S
C1029 C1023 1.429 . S
C1029 C1030 1.523 . S
C1030 C1011 1.368 . S
C1030 C1024 1.368 . S
C1030 C1029 1.523 . S
C1031 C1015 1.429 . S
C1031 C1027 1.429 . S
C1031 C1032 1.523 . S
C1032 C1016 1.368 . S
C1032 C1028 1.368 . S
C1032 C1031 1.523 . S
H1033 C1008 0.950 . S
H1034 C1010 0.950 . S
H1035 C1011 0.949 . S
H1036 C1013 0.950 . S
H1037 C1015 0.950 . S
C1038 C1039 1.349 . S
C1038 C1040 1.327 . S
C1038 H1063 0.950 . S
C1039 C1038 1.349 . S
C1039 C1055 1.349 . S
C1040 C1038 1.327 . S
C1040 C1059 1.429 . S
C1040 H1064 0.950 . S
C1041 C1058 1.574 . S
C1041 C1060 1.368 . S
C1041 H1065 0.949 . S
H1042 C1046 0.949 . S
C1043 C1044 1.349 . S
C1043 C1045 1.327 . S
C1043 H1066 0.950 . S
C1044 C1043 1.349 . S
C1044 C1056 1.349 . S
C1045 C1043 1.327 . S
C1045 C1061 1.429 . S
C1045 H1067 0.950 . S
C1046 H1042 0.949 . S
C1046 C1054 1.574 . S
C1046 C1062 1.368 . S
H1047 C1055 0.950 . S
H1048 C1053 0.950 . S
H1049 C1054 0.949 . S
H1050 C1056 0.950 . S
H1051 C1057 0.950 . S
H1052 C1058 0.949 . S
C1053 H1048 0.950 . S
C1053 C1055 1.327 . S
C1053 C1059 1.429 . S
C1054 C1046 1.574 . S
C1054 H1049 0.949 . S
C1054 C1060 1.368 . S
C1055 C1039 1.349 . S
C1055 H1047 0.950 . S
C1055 C1053 1.327 . S
C1056 C1044 1.349 . S
C1056 H1050 0.950 . S
C1056 C1057 1.327 . S
C1057 H1051 0.950 . S
C1057 C1056 1.327 . S
C1057 C1061 1.429 . S
C1058 C1041 1.574 . S
C1058 H1052 0.949 . S
C1058 C1062 1.368 . S
C1059 C1040 1.429 . S
C1059 C1053 1.429 . S
C1059 C1060 1.523 . S
C1060 C1041 1.368 . S
C1060 C1054 1.368 . S
C1060 C1059 1.523 . S
C1061 C1045 1.429 . S
C1061 C1057 1.429 . S
C1061 C1062 1.523 . S
C1062 C1046 1.368 . S
C1062 C1058 1.368 . S
C1062 C1061 1.523 . S
H1063 C1038 0.950 . S
H1064 C1040 0.950 . S
H1065 C1041 0.949 . S
H1066 C1043 0.950 . S
H1067 C1045 0.950 . S
C1068 C1069 1.349 . S
C1068 C1070 1.327 . S
C1068 H1093 0.950 . S
C1069 C1068 1.349 . S
C1069 C1085 1.349 . S
C1070 C1068 1.327 . S
C1070 C1089 1.429 . S
C1070 H1094 0.950 . S
C1071 C1088 1.574 . S
C1071 C1090 1.368 . S
C1071 H1095 0.949 . S
H1072 C1076 0.949 . S
C1073 C1074 1.349 . S
C1073 C1075 1.327 . S
C1073 H1096 0.950 . S
C1074 C1073 1.349 . S
C1074 C1086 1.349 . S
C1075 C1073 1.327 . S
C1075 C1091 1.429 . S
C1075 H1097 0.950 . S
C1076 H1072 0.949 . S
C1076 C1084 1.574 . S
C1076 C1092 1.368 . S
H1077 C1085 0.950 . S
H1078 C1083 0.950 . S
H1079 C1084 0.949 . S
H1080 C1086 0.950 . S
H1081 C1087 0.950 . S
H1082 C1088 0.949 . S
C1083 H1078 0.950 . S
C1083 C1085 1.327 . S
C1083 C1089 1.429 . S
C1084 C1076 1.574 . S
C1084 H1079 0.949 . S
C1084 C1090 1.368 . S
C1085 C1069 1.349 . S
C1085 H1077 0.950 . S
C1085 C1083 1.327 . S
C1086 C1074 1.349 . S
C1086 H1080 0.950 . S
C1086 C1087 1.327 . S
C1087 H1081 0.950 . S
C1087 C1086 1.327 . S
C1087 C1091 1.429 . S
C1088 C1071 1.574 . S
C1088 H1082 0.949 . S
C1088 C1092 1.368 . S
C1089 C1070 1.429 . S
C1089 C1083 1.429 . S
C1089 C1090 1.523 . S
C1090 C1071 1.368 . S
C1090 C1084 1.368 . S
C1090 C1089 1.523 . S
C1091 C1075 1.429 . S
C1091 C1087 1.429 . S
C1091 C1092 1.523 . S
C1092 C1076 1.368 . S
C1092 C1088 1.368 . S
C1092 C1091 1.523 . S
H1093 C1068 0.950 . S
H1094 C1070 0.950 . S
H1095 C1071 0.949 . S
H1096 C1073 0.950 . S
H1097 C1075 0.950 . S
C1098 C1099 1.349 . S
C1098 C1100 1.327 . S
C1098 H1123 0.950 . S
C1099 C1098 1.349 . S
C1099 C1115 1.349 . S
C1100 C1098 1.327 . S
C1100 C1119 1.429 . S
C1100 H1124 0.950 . S
C1101 C1118 1.574 . S
C1101 C1120 1.368 . S
C1101 H1125 0.949 . S
H1102 C1106 0.949 . S
C1103 C1104 1.349 . S
C1103 C1105 1.327 . S
C1103 H1126 0.950 . S
C1104 C1103 1.349 . S
C1104 C1116 1.349 . S
C1105 C1103 1.327 . S
C1105 C1121 1.429 . S
C1105 H1127 0.950 . S
C1106 H1102 0.949 . S
C1106 C1114 1.574 . S
C1106 C1122 1.368 . S
H1107 C1115 0.950 . S
H1108 C1113 0.950 . S
H1109 C1114 0.949 . S
H1110 C1116 0.950 . S
H1111 C1117 0.950 . S
H1112 C1118 0.949 . S
C1113 H1108 0.950 . S
C1113 C1115 1.327 . S
C1113 C1119 1.429 . S
C1114 C1106 1.574 . S
C1114 H1109 0.949 . S
C1114 C1120 1.368 . S
C1115 C1099 1.349 . S
C1115 H1107 0.950 . S
C1115 C1113 1.327 . S
C1116 C1104 1.349 . S
C1116 H1110 0.950 . S
C1116 C1117 1.327 . S
C1117 H1111 0.950 . S
C1117 C1116 1.327 . S
C1117 C1121 1.429 . S
C1118 C1101 1.574 . S
C1118 H1112 0.949 . S
C1118 C1122 1.368 . S
C1119 C1100 1.429 . S
C1119 C1113 1.429 . S
C1119 C1120 1.523 . S
C1120 C1101 1.368 . S
C1120 C1114 1.368 . S
C1120 C1119 1.523 . S
C1121 C1105 1.429 . S
C1121 C1117 1.429 . S
C1121 C1122 1.523 . S
C1122 C1106 1.368 . S
C1122 C1118 1.368 . S
C1122 C1121 1.523 . S
H1123 C1098 0.950 . S
H1124 C1100 0.950 . S
H1125 C1101 0.949 . S
H1126 C1103 0.950 . S
H1127 C1105 0.950 . S
C1128 C1129 1.349 . S
C1128 C1130 1.327 . S
C1128 H1153 0.950 . S
C1129 C1128 1.349 . S
C1129 C1145 1.349 . S
C1130 C1128 1.327 . S
C1130 C1149 1.429 . S
C1130 H1154 0.950 . S
C1131 C1148 1.574 . S
C1131 C1150 1.368 . S
C1131 H1155 0.949 . S
H1132 C1136 0.949 . S
C1133 C1134 1.349 . S
C1133 C1135 1.327 . S
C1133 H1156 0.950 . S
C1134 C1133 1.349 . S
C1134 C1146 1.349 . S
C1135 C1133 1.327 . S
C1135 C1151 1.429 . S
C1135 H1157 0.950 . S
C1136 H1132 0.949 . S
C1136 C1144 1.574 . S
C1136 C1152 1.368 . S
H1137 C1145 0.950 . S
H1138 C1143 0.950 . S
H1139 C1144 0.949 . S
H1140 C1146 0.950 . S
H1141 C1147 0.950 . S
H1142 C1148 0.949 . S
C1143 H1138 0.950 . S
C1143 C1145 1.327 . S
C1143 C1149 1.429 . S
C1144 C1136 1.574 . S
C1144 H1139 0.949 . S
C1144 C1150 1.368 . S
C1145 C1129 1.349 . S
C1145 H1137 0.950 . S
C1145 C1143 1.327 . S
C1146 C1134 1.349 . S
C1146 H1140 0.950 . S
C1146 C1147 1.327 . S
C1147 H1141 0.950 . S
C1147 C1146 1.327 . S
C1147 C1151 1.429 . S
C1148 C1131 1.574 . S
C1148 H1142 0.949 . S
C1148 C1152 1.368 . S
C1149 C1130 1.429 . S
C1149 C1143 1.429 . S
C1149 C1150 1.523 . S
C1150 C1131 1.368 . S
C1150 C1144 1.368 . S
C1150 C1149 1.523 . S
C1151 C1135 1.429 . S
C1151 C1147 1.429 . S
C1151 C1152 1.523 . S
C1152 C1136 1.368 . S
C1152 C1148 1.368 . S
C1152 C1151 1.523 . S
H1153 C1128 0.950 . S
H1154 C1130 0.950 . S
H1155 C1131 0.949 . S
H1156 C1133 0.950 . S
H1157 C1135 0.950 . S
C1158 C1159 1.349 . S
C1158 C1160 1.327 . S
C1158 H1183 0.950 . S
C1159 C1158 1.349 . S
C1159 C1175 1.349 . S
C1160 C1158 1.327 . S
C1160 C1179 1.429 . S
C1160 H1184 0.950 . S
C1161 C1178 1.574 . S
C1161 C1180 1.368 . S
C1161 H1185 0.949 . S
H1162 C1166 0.949 . S
C1163 C1164 1.349 . S
C1163 C1165 1.327 . S
C1163 H1186 0.950 . S
C1164 C1163 1.349 . S
C1164 C1176 1.349 . S
C1165 C1163 1.327 . S
C1165 C1181 1.429 . S
C1165 H1187 0.950 . S
C1166 H1162 0.949 . S
C1166 C1174 1.574 . S
C1166 C1182 1.368 . S
H1167 C1175 0.950 . S
H1168 C1173 0.950 . S
H1169 C1174 0.949 . S
H1170 C1176 0.950 . S
H1171 C1177 0.950 . S
H1172 C1178 0.949 . S
C1173 H1168 0.950 . S
C1173 C1175 1.327 . S
C1173 C1179 1.429 . S
C1174 C1166 1.574 . S
C1174 H1169 0.949 . S
C1174 C1180 1.368 . S
C1175 C1159 1.349 . S
C1175 H1167 0.950 . S
C1175 C1173 1.327 . S
C1176 C1164 1.349 . S
C1176 H1170 0.950 . S
C1176 C1177 1.327 . S
C1177 H1171 0.950 . S
C1177 C1176 1.327 . S
C1177 C1181 1.429 . S
C1178 C1161 1.574 . S
C1178 H1172 0.949 . S
C1178 C1182 1.368 . S
C1179 C1160 1.429 . S
C1179 C1173 1.429 . S
C1179 C1180 1.523 . S
C1180 C1161 1.368 . S
C1180 C1174 1.368 . S
C1180 C1179 1.523 . S
C1181 C1165 1.429 . S
C1181 C1177 1.429 . S
C1181 C1182 1.523 . S
C1182 C1166 1.368 . S
C1182 C1178 1.368 . S
C1182 C1181 1.523 . S
H1183 C1158 0.950 . S
H1184 C1160 0.950 . S
H1185 C1161 0.949 . S
H1186 C1163 0.950 . S
H1187 C1165 0.950 . S
C1188 C1189 1.349 . S
C1188 C1190 1.327 . S
C1188 H1213 0.950 . S
C1189 C1188 1.349 . S
C1189 C1205 1.349 . S
C1190 C1188 1.327 . S
C1190 C1209 1.429 . S
C1190 H1214 0.950 . S
C1191 C1208 1.574 . S
C1191 C1210 1.368 . S
C1191 H1215 0.949 . S
H1192 C1196 0.949 . S
C1193 C1194 1.349 . S
C1193 C1195 1.327 . S
C1193 H1216 0.950 . S
C1194 C1193 1.349 . S
C1194 C1206 1.349 . S
C1195 C1193 1.327 . S
C1195 C1211 1.429 . S
C1195 H1217 0.950 . S
C1196 H1192 0.949 . S
C1196 C1204 1.574 . S
C1196 C1212 1.368 . S
H1197 C1205 0.950 . S
H1198 C1203 0.950 . S
H1199 C1204 0.949 . S
H1200 C1206 0.950 . S
H1201 C1207 0.950 . S
H1202 C1208 0.949 . S
C1203 H1198 0.950 . S
C1203 C1205 1.327 . S
C1203 C1209 1.429 . S
C1204 C1196 1.574 . S
C1204 H1199 0.949 . S
C1204 C1210 1.368 . S
C1205 C1189 1.349 . S
C1205 H1197 0.950 . S
C1205 C1203 1.327 . S
C1206 C1194 1.349 . S
C1206 H1200 0.950 . S
C1206 C1207 1.327 . S
C1207 H1201 0.950 . S
C1207 C1206 1.327 . S
C1207 C1211 1.429 . S
C1208 C1191 1.574 . S
C1208 H1202 0.949 . S
C1208 C1212 1.368 . S
C1209 C1190 1.429 . S
C1209 C1203 1.429 . S
C1209 C1210 1.523 . S
C1210 C1191 1.368 . S
C1210 C1204 1.368 . S
C1210 C1209 1.523 . S
C1211 C1195 1.429 . S
C1211 C1207 1.429 . S
C1211 C1212 1.523 . S
C1212 C1196 1.368 . S
C1212 C1208 1.368 . S
C1212 C1211 1.523 . S
H1213 C1188 0.950 . S
H1214 C1190 0.950 . S
H1215 C1191 0.949 . S
H1216 C1193 0.950 . S
H1217 C1195 0.950 . S
C1218 C1219 1.349 . S
C1218 C1220 1.327 . S
C1218 H1243 0.950 . S
C1219 C1218 1.349 . S
C1219 C1235 1.349 . S
C1220 C1218 1.327 . S
C1220 C1239 1.429 . S
C1220 H1244 0.950 . S
C1221 C1238 1.574 . S
C1221 C1240 1.368 . S
C1221 H1245 0.949 . S
H1222 C1226 0.949 . S
C1223 C1224 1.349 . S
C1223 C1225 1.327 . S
C1223 H1246 0.950 . S
C1224 C1223 1.349 . S
C1224 C1236 1.349 . S
C1225 C1223 1.327 . S
C1225 C1241 1.429 . S
C1225 H1247 0.950 . S
C1226 H1222 0.949 . S
C1226 C1234 1.574 . S
C1226 C1242 1.368 . S
H1227 C1235 0.950 . S
H1228 C1233 0.950 . S
H1229 C1234 0.949 . S
H1230 C1236 0.950 . S
H1231 C1237 0.950 . S
H1232 C1238 0.949 . S
C1233 H1228 0.950 . S
C1233 C1235 1.327 . S
C1233 C1239 1.429 . S
C1234 C1226 1.574 . S
C1234 H1229 0.949 . S
C1234 C1240 1.368 . S
C1235 C1219 1.349 . S
C1235 H1227 0.950 . S
C1235 C1233 1.327 . S
C1236 C1224 1.349 . S
C1236 H1230 0.950 . S
C1236 C1237 1.327 . S
C1237 H1231 0.950 . S
C1237 C1236 1.327 . S
C1237 C1241 1.429 . S
C1238 C1221 1.574 . S
C1238 H1232 0.949 . S
C1238 C1242 1.368 . S
C1239 C1220 1.429 . S
C1239 C1233 1.429 . S
C1239 C1240 1.523 . S
C1240 C1221 1.368 . S
C1240 C1234 1.368 . S
C1240 C1239 1.523 . S
C1241 C1225 1.429 . S
C1241 C1237 1.429 . S
C1241 C1242 1.523 . S
C1242 C1226 1.368 . S
C1242 C1238 1.368 . S
C1242 C1241 1.523 . S
H1243 C1218 0.950 . S
H1244 C1220 0.950 . S
H1245 C1221 0.949 . S
H1246 C1223 0.950 . S
H1247 C1225 0.950 . S
C1248 C1249 1.349 . S
C1248 C1250 1.327 . S
C1248 H1273 0.950 . S
C1249 C1248 1.349 . S
C1249 C1265 1.349 . S
C1250 C1248 1.327 . S
C1250 C1269 1.429 . S
C1250 H1274 0.950 . S
C1251 C1268 1.574 . S
C1251 C1270 1.368 . S
C1251 H1275 0.949 . S
H1252 C1256 0.949 . S
C1253 C1254 1.349 . S
C1253 C1255 1.327 . S
C1253 H1276 0.950 . S
C1254 C1253 1.349 . S
C1254 C1266 1.349 . S
C1255 C1253 1.327 . S
C1255 C1271 1.429 . S
C1255 H1277 0.950 . S
C1256 H1252 0.949 . S
C1256 C1264 1.574 . S
C1256 C1272 1.368 . S
H1257 C1265 0.950 . S
H1258 C1263 0.950 . S
H1259 C1264 0.949 . S
H1260 C1266 0.950 . S
H1261 C1267 0.950 . S
H1262 C1268 0.949 . S
C1263 H1258 0.950 . S
C1263 C1265 1.327 . S
C1263 C1269 1.429 . S
C1264 C1256 1.574 . S
C1264 H1259 0.949 . S
C1264 C1270 1.368 . S
C1265 C1249 1.349 . S
C1265 H1257 0.950 . S
C1265 C1263 1.327 . S
C1266 C1254 1.349 . S
C1266 H1260 0.950 . S
C1266 C1267 1.327 . S
C1267 H1261 0.950 . S
C1267 C1266 1.327 . S
C1267 C1271 1.429 . S
C1268 C1251 1.574 . S
C1268 H1262 0.949 . S
C1268 C1272 1.368 . S
C1269 C1250 1.429 . S
C1269 C1263 1.429 . S
C1269 C1270 1.523 . S
C1270 C1251 1.368 . S
C1270 C1264 1.368 . S
C1270 C1269 1.523 . S
C1271 C1255 1.429 . S
C1271 C1267 1.429 . S
C1271 C1272 1.523 . S
C1272 C1256 1.368 . S
C1272 C1268 1.368 . S
C1272 C1271 1.523 . S
H1273 C1248 0.950 . S
H1274 C1250 0.950 . S
H1275 C1251 0.949 . S
H1276 C1253 0.950 . S
H1277 C1255 0.950 . S
C1278 C1279 1.349 . S
C1278 C1280 1.327 . S
C1278 H1303 0.950 . S
C1279 C1278 1.349 . S
C1279 C1295 1.349 . S
C1280 C1278 1.327 . S
C1280 C1299 1.429 . S
C1280 H1304 0.950 . S
C1281 C1298 1.574 . S
C1281 C1300 1.368 . S
C1281 H1305 0.949 . S
H1282 C1286 0.949 . S
C1283 C1284 1.349 . S
C1283 C1285 1.327 . S
C1283 H1306 0.950 . S
C1284 C1283 1.349 . S
C1284 C1296 1.349 . S
C1285 C1283 1.327 . S
C1285 C1301 1.429 . S
C1285 H1307 0.950 . S
C1286 H1282 0.949 . S
C1286 C1294 1.574 . S
C1286 C1302 1.368 . S
H1287 C1295 0.950 . S
H1288 C1293 0.950 . S
H1289 C1294 0.949 . S
H1290 C1296 0.950 . S
H1291 C1297 0.950 . S
H1292 C1298 0.949 . S
C1293 H1288 0.950 . S
C1293 C1295 1.327 . S
C1293 C1299 1.429 . S
C1294 C1286 1.574 . S
C1294 H1289 0.949 . S
C1294 C1300 1.368 . S
C1295 C1279 1.349 . S
C1295 H1287 0.950 . S
C1295 C1293 1.327 . S
C1296 C1284 1.349 . S
C1296 H1290 0.950 . S
C1296 C1297 1.327 . S
C1297 H1291 0.950 . S
C1297 C1296 1.327 . S
C1297 C1301 1.429 . S
C1298 C1281 1.574 . S
C1298 H1292 0.949 . S
C1298 C1302 1.368 . S
C1299 C1280 1.429 . S
C1299 C1293 1.429 . S
C1299 C1300 1.523 . S
C1300 C1281 1.368 . S
C1300 C1294 1.368 . S
C1300 C1299 1.523 . S
C1301 C1285 1.429 . S
C1301 C1297 1.429 . S
C1301 C1302 1.523 . S
C1302 C1286 1.368 . S
C1302 C1298 1.368 . S
C1302 C1301 1.523 . S
H1303 C1278 0.950 . S
H1304 C1280 0.950 . S
H1305 C1281 0.949 . S
H1306 C1283 0.950 . S
H1307 C1285 0.950 . S
C1308 C1309 1.349 . S
C1308 C1310 1.327 . S
C1308 H1333 0.950 . S
C1309 C1308 1.349 . S
C1309 C1325 1.349 . S
C1310 C1308 1.327 . S
C1310 C1329 1.429 . S
C1310 H1334 0.950 . S
C1311 C1328 1.574 . S
C1311 C1330 1.368 . S
C1311 H1335 0.949 . S
H1312 C1316 0.949 . S
C1313 C1314 1.349 . S
C1313 C1315 1.327 . S
C1313 H1336 0.950 . S
C1314 C1313 1.349 . S
C1314 C1326 1.349 . S
C1315 C1313 1.327 . S
C1315 C1331 1.429 . S
C1315 H1337 0.950 . S
C1316 H1312 0.949 . S
C1316 C1324 1.574 . S
C1316 C1332 1.368 . S
H1317 C1325 0.950 . S
H1318 C1323 0.950 . S
H1319 C1324 0.949 . S
H1320 C1326 0.950 . S
H1321 C1327 0.950 . S
H1322 C1328 0.949 . S
C1323 H1318 0.950 . S
C1323 C1325 1.327 . S
C1323 C1329 1.429 . S
C1324 C1316 1.574 . S
C1324 H1319 0.949 . S
C1324 C1330 1.368 . S
C1325 C1309 1.349 . S
C1325 H1317 0.950 . S
C1325 C1323 1.327 . S
C1326 C1314 1.349 . S
C1326 H1320 0.950 . S
C1326 C1327 1.327 . S
C1327 H1321 0.950 . S
C1327 C1326 1.327 . S
C1327 C1331 1.429 . S
C1328 C1311 1.574 . S
C1328 H1322 0.949 . S
C1328 C1332 1.368 . S
C1329 C1310 1.429 . S
C1329 C1323 1.429 . S
C1329 C1330 1.523 . S
C1330 C1311 1.368 . S
C1330 C1324 1.368 . S
C1330 C1329 1.523 . S
C1331 C1315 1.429 . S
C1331 C1327 1.429 . S
C1331 C1332 1.523 . S
C1332 C1316 1.368 . S
C1332 C1328 1.368 . S
C1332 C1331 1.523 . S
H1333 C1308 0.950 . S
H1334 C1310 0.950 . S
H1335 C1311 0.949 . S
H1336 C1313 0.950 . S
H1337 C1315 0.950 . S
C1338 C1339 1.349 . S
C1338 C1340 1.327 . S
C1338 H1363 0.950 . S
C1339 C1338 1.349 . S
C1339 C1355 1.349 . S
C1340 C1338 1.327 . S
C1340 C1359 1.429 . S
C1340 H1364 0.950 . S
C1341 C1358 1.574 . S
C1341 C1360 1.368 . S
C1341 H1365 0.949 . S
H1342 C1346 0.949 . S
C1343 C1344 1.349 . S
C1343 C1345 1.327 . S
C1343 H1366 0.950 . S
C1344 C1343 1.349 . S
C1344 C1356 1.349 . S
C1345 C1343 1.327 . S
C1345 C1361 1.429 . S
C1345 H1367 0.950 . S
C1346 H1342 0.949 . S
C1346 C1354 1.574 . S
C1346 C1362 1.368 . S
H1347 C1355 0.950 . S
H1348 C1353 0.950 . S
H1349 C1354 0.949 . S
H1350 C1356 0.950 . S
H1351 C1357 0.950 . S
H1352 C1358 0.949 . S
C1353 H1348 0.950 . S
C1353 C1355 1.327 . S
C1353 C1359 1.429 . S
C1354 C1346 1.574 . S
C1354 H1349 0.949 . S
C1354 C1360 1.368 . S
C1355 C1339 1.349 . S
C1355 H1347 0.950 . S
C1355 C1353 1.327 . S
C1356 C1344 1.349 . S
C1356 H1350 0.950 . S
C1356 C1357 1.327 . S
C1357 H1351 0.950 . S
C1357 C1356 1.327 . S
C1357 C1361 1.429 . S
C1358 C1341 1.574 . S
C1358 H1352 0.949 . S
C1358 C1362 1.368 . S
C1359 C1340 1.429 . S
C1359 C1353 1.429 . S
C1359 C1360 1.523 . S
C1360 C1341 1.368 . S
C1360 C1354 1.368 . S
C1360 C1359 1.523 . S
C1361 C1345 1.429 . S
C1361 C1357 1.429 . S
C1361 C1362 1.523 . S
C1362 C1346 1.368 . S
C1362 C1358 1.368 . S
C1362 C1361 1.523 . S
H1363 C1338 0.950 . S
H1364 C1340 0.950 . S
H1365 C1341 0.949 . S
H1366 C1343 0.950 . S
H1367 C1345 0.950 . S
C1368 C1369 1.349 . S
C1368 C1370 1.327 . S
C1368 H1393 0.950 . S
C1369 C1368 1.349 . S
C1369 C1385 1.349 . S
C1370 C1368 1.327 . S
C1370 C1389 1.429 . S
C1370 H1394 0.950 . S
C1371 C1388 1.574 . S
C1371 C1390 1.368 . S
C1371 H1395 0.949 . S
H1372 C1376 0.949 . S
C1373 C1374 1.349 . S
C1373 C1375 1.327 . S
C1373 H1396 0.950 . S
C1374 C1373 1.349 . S
C1374 C1386 1.349 . S
C1375 C1373 1.327 . S
C1375 C1391 1.429 . S
C1375 H1397 0.950 . S
C1376 H1372 0.949 . S
C1376 C1384 1.574 . S
C1376 C1392 1.368 . S
H1377 C1385 0.950 . S
H1378 C1383 0.950 . S
H1379 C1384 0.949 . S
H1380 C1386 0.950 . S
H1381 C1387 0.950 . S
H1382 C1388 0.949 . S
C1383 H1378 0.950 . S
C1383 C1385 1.327 . S
C1383 C1389 1.429 . S
C1384 C1376 1.574 . S
C1384 H1379 0.949 . S
C1384 C1390 1.368 . S
C1385 C1369 1.349 . S
C1385 H1377 0.950 . S
C1385 C1383 1.327 . S
C1386 C1374 1.349 . S
C1386 H1380 0.950 . S
C1386 C1387 1.327 . S
C1387 H1381 0.950 . S
C1387 C1386 1.327 . S
C1387 C1391 1.429 . S
C1388 C1371 1.574 . S
C1388 H1382 0.949 . S
C1388 C1392 1.368 . S
C1389 C1370 1.429 . S
C1389 C1383 1.429 . S
C1389 C1390 1.523 . S
C1390 C1371 1.368 . S
C1390 C1384 1.368 . S
C1390 C1389 1.523 . S
C1391 C1375 1.429 . S
C1391 C1387 1.429 . S
C1391 C1392 1.523 . S
C1392 C1376 1.368 . S
C1392 C1388 1.368 . S
C1392 C1391 1.523 . S
H1393 C1368 0.950 . S
H1394 C1370 0.950 . S
H1395 C1371 0.949 . S
H1396 C1373 0.950 . S
H1397 C1375 0.950 . S
C1398 C1399 1.349 . S
C1398 C1400 1.327 . S
C1398 H1423 0.950 . S
C1399 C1398 1.349 . S
C1399 C1415 1.349 . S
C1400 C1398 1.327 . S
C1400 C1419 1.429 . S
C1400 H1424 0.950 . S
C1401 C1418 1.574 . S
C1401 C1420 1.368 . S
C1401 H1425 0.949 . S
H1402 C1406 0.949 . S
C1403 C1404 1.349 . S
C1403 C1405 1.327 . S
C1403 H1426 0.950 . S
C1404 C1403 1.349 . S
C1404 C1416 1.349 . S
C1405 C1403 1.327 . S
C1405 C1421 1.429 . S
C1405 H1427 0.950 . S
C1406 H1402 0.949 . S
C1406 C1414 1.574 . S
C1406 C1422 1.368 . S
H1407 C1415 0.950 . S
H1408 C1413 0.950 . S
H1409 C1414 0.949 . S
H1410 C1416 0.950 . S
H1411 C1417 0.950 . S
H1412 C1418 0.949 . S
C1413 H1408 0.950 . S
C1413 C1415 1.327 . S
C1413 C1419 1.429 . S
C1414 C1406 1.574 . S
C1414 H1409 0.949 . S
C1414 C1420 1.368 . S
C1415 C1399 1.349 . S
C1415 H1407 0.950 . S
C1415 C1413 1.327 . S
C1416 C1404 1.349 . S
C1416 H1410 0.950 . S
C1416 C1417 1.327 . S
C1417 H1411 0.950 . S
C1417 C1416 1.327 . S
C1417 C1421 1.429 . S
C1418 C1401 1.574 . S
C1418 H1412 0.949 . S
C1418 C1422 1.368 . S
C1419 C1400 1.429 . S
C1419 C1413 1.429 . S
C1419 C1420 1.523 . S
C1420 C1401 1.368 . S
C1420 C1414 1.368 . S
C1420 C1419 1.523 . S
C1421 C1405 1.429 . S
C1421 C1417 1.429 . S
C1421 C1422 1.523 . S
C1422 C1406 1.368 . S
C1422 C1418 1.368 . S
C1422 C1421 1.523 . S
H1423 C1398 0.950 . S
H1424 C1400 0.950 . S
H1425 C1401 0.949 . S
H1426 C1403 0.950 . S
H1427 C1405 0.950 . S
C1428 C1429 1.349 . S
C1428 C1430 1.327 . S
C1428 H1453 0.950 . S
C1429 C1428 1.349 . S
C1429 C1445 1.349 . S
C1430 C1428 1.327 . S
C1430 C1449 1.429 . S
C1430 H1454 0.950 . S
C1431 C1448 1.574 . S
C1431 C1450 1.368 . S
C1431 H1455 0.949 . S
H1432 C1436 0.949 . S
C1433 C1434 1.349 . S
C1433 C1435 1.327 . S
C1433 H1456 0.950 . S
C1434 C1433 1.349 . S
C1434 C1446 1.349 . S
C1435 C1433 1.327 . S
C1435 C1451 1.429 . S
C1435 H1457 0.950 . S
C1436 H1432 0.949 . S
C1436 C1444 1.574 . S
C1436 C1452 1.368 . S
H1437 C1445 0.950 . S
H1438 C1443 0.950 . S
H1439 C1444 0.949 . S
H1440 C1446 0.950 . S
H1441 C1447 0.950 . S
H1442 C1448 0.949 . S
C1443 H1438 0.950 . S
C1443 C1445 1.327 . S
C1443 C1449 1.429 . S
C1444 C1436 1.574 . S
C1444 H1439 0.949 . S
C1444 C1450 1.368 . S
C1445 C1429 1.349 . S
C1445 H1437 0.950 . S
C1445 C1443 1.327 . S
C1446 C1434 1.349 . S
C1446 H1440 0.950 . S
C1446 C1447 1.327 . S
C1447 H1441 0.950 . S
C1447 C1446 1.327 . S
C1447 C1451 1.429 . S
C1448 C1431 1.574 . S
C1448 H1442 0.949 . S
C1448 C1452 1.368 . S
C1449 C1430 1.429 . S
C1449 C1443 1.429 . S
C1449 C1450 1.523 . S
C1450 C1431 1.368 . S
C1450 C1444 1.368 . S
C1450 C1449 1.523 . S
C1451 C1435 1.429 . S
C1451 C1447 1.429 . S
C1451 C1452 1.523 . S
C1452 C1436 1.368 . S
C1452 C1448 1.368 . S
C1452 C1451 1.523 . S
H1453 C1428 0.950 . S
H1454 C1430 0.950 . S
H1455 C1431 0.949 . S
H1456 C1433 0.950 . S
H1457 C1435 0.950 . S
C1458 C1459 1.349 . S
C1458 C1460 1.327 . S
C1458 H1483 0.950 . S
C1459 C1458 1.349 . S
C1459 C1475 1.349 . S
C1460 C1458 1.327 . S
C1460 C1479 1.429 . S
C1460 H1484 0.950 . S
C1461 C1478 1.574 . S
C1461 C1480 1.368 . S
C1461 H1485 0.949 . S
H1462 C1466 0.949 . S
C1463 C1464 1.349 . S
C1463 C1465 1.327 . S
C1463 H1486 0.950 . S
C1464 C1463 1.349 . S
C1464 C1476 1.349 . S
C1465 C1463 1.327 . S
C1465 C1481 1.429 . S
C1465 H1487 0.950 . S
C1466 H1462 0.949 . S
C1466 C1474 1.574 . S
C1466 C1482 1.368 . S
H1467 C1475 0.950 . S
H1468 C1473 0.950 . S
H1469 C1474 0.949 . S
H1470 C1476 0.950 . S
H1471 C1477 0.950 . S
H1472 C1478 0.949 . S
C1473 H1468 0.950 . S
C1473 C1475 1.327 . S
C1473 C1479 1.429 . S
C1474 C1466 1.574 . S
C1474 H1469 0.949 . S
C1474 C1480 1.368 . S
C1475 C1459 1.349 . S
C1475 H1467 0.950 . S
C1475 C1473 1.327 . S
C1476 C1464 1.349 . S
C1476 H1470 0.950 . S
C1476 C1477 1.327 . S
C1477 H1471 0.950 . S
C1477 C1476 1.327 . S
C1477 C1481 1.429 . S
C1478 C1461 1.574 . S
C1478 H1472 0.949 . S
C1478 C1482 1.368 . S
C1479 C1460 1.429 . S
C1479 C1473 1.429 . S
C1479 C1480 1.523 . S
C1480 C1461 1.368 . S
C1480 C1474 1.368 . S
C1480 C1479 1.523 . S
C1481 C1465 1.429 . S
C1481 C1477 1.429 . S
C1481 C1482 1.523 . S
C1482 C1466 1.368 . S
C1482 C1478 1.368 . S
C1482 C1481 1.523 . S
H1483 C1458 0.950 . S
H1484 C1460 0.950 . S
H1485 C1461 0.949 . S
H1486 C1463 0.950 . S
H1487 C1465 0.950 . S
C1488 C1489 1.349 . S
C1488 C1490 1.327 . S
C1488 H1513 0.950 . S
C1489 C1488 1.349 . S
C1489 C1505 1.349 . S
C1490 C1488 1.327 . S
C1490 C1509 1.429 . S
C1490 H1514 0.950 . S
C1491 C1508 1.574 . S
C1491 C1510 1.368 . S
C1491 H1515 0.949 . S
H1492 C1496 0.949 . S
C1493 C1494 1.349 . S
C1493 C1495 1.327 . S
C1493 H1516 0.950 . S
C1494 C1493 1.349 . S
C1494 C1506 1.349 . S
C1495 C1493 1.327 . S
C1495 C1511 1.429 . S
C1495 H1517 0.950 . S
C1496 H1492 0.949 . S
C1496 C1504 1.574 . S
C1496 C1512 1.368 . S
H1497 C1505 0.950 . S
H1498 C1503 0.950 . S
H1499 C1504 0.949 . S
H1500 C1506 0.950 . S
H1501 C1507 0.950 . S
H1502 C1508 0.949 . S
C1503 H1498 0.950 . S
C1503 C1505 1.327 . S
C1503 C1509 1.429 . S
C1504 C1496 1.574 . S
C1504 H1499 0.949 . S
C1504 C1510 1.368 . S
C1505 C1489 1.349 . S
C1505 H1497 0.950 . S
C1505 C1503 1.327 . S
C1506 C1494 1.349 . S
C1506 H1500 0.950 . S
C1506 C1507 1.327 . S
C1507 H1501 0.950 . S
C1507 C1506 1.327 . S
C1507 C1511 1.429 . S
C1508 C1491 1.574 . S
C1508 H1502 0.949 . S
C1508 C1512 1.368 . S
C1509 C1490 1.429 . S
C1509 C1503 1.429 . S
C1509 C1510 1.523 . S
C1510 C1491 1.368 . S
C1510 C1504 1.368 . S
C1510 C1509 1.523 . S
C1511 C1495 1.429 . S
C1511 C1507 1.429 . S
C1511 C1512 1.523 . S
C1512 C1496 1.368 . S
C1512 C1508 1.368 . S
C1512 C1511 1.523 . S
H1513 C1488 0.950 . S
H1514 C1490 0.950 . S
H1515 C1491 0.949 . S
H1516 C1493 0.950 . S
H1517 C1495 0.950 . S
C1518 C1519 1.349 . S
C1518 C1520 1.327 . S
C1518 H1543 0.950 . S
C1519 C1518 1.349 . S
C1519 C1535 1.349 . S
C1520 C1518 1.327 . S
C1520 C1539 1.429 . S
C1520 H1544 0.950 . S
C1521 C1538 1.574 . S
C1521 C1540 1.368 . S
C1521 H1545 0.949 . S
H1522 C1526 0.949 . S
C1523 C1524 1.349 . S
C1523 C1525 1.327 . S
C1523 H1546 0.950 . S
C1524 C1523 1.349 . S
C1524 C1536 1.349 . S
C1525 C1523 1.327 . S
C1525 C1541 1.429 . S
C1525 H1547 0.950 . S
C1526 H1522 0.949 . S
C1526 C1534 1.574 . S
C1526 C1542 1.368 . S
H1527 C1535 0.950 . S
H1528 C1533 0.950 . S
H1529 C1534 0.949 . S
H1530 C1536 0.950 . S
H1531 C1537 0.950 . S
H1532 C1538 0.949 . S
C1533 H1528 0.950 . S
C1533 C1535 1.327 . S
C1533 C1539 1.429 . S
C1534 C1526 1.574 . S
C1534 H1529 0.949 . S
C1534 C1540 1.368 . S
C1535 C1519 1.349 . S
C1535 H1527 0.950 . S
C1535 C1533 1.327 . S
C1536 C1524 1.349 . S
C1536 H1530 0.950 . S
C1536 C1537 1.327 . S
C1537 H1531 0.950 . S
C1537 C1536 1.327 . S
C1537 C1541 1.429 . S
C1538 C1521 1.574 . S
C1538 H1532 0.949 . S
C1538 C1542 1.368 . S
C1539 C1520 1.429 . S
C1539 C1533 1.429 . S
C1539 C1540 1.523 . S
C1540 C1521 1.368 . S
C1540 C1534 1.368 . S
C1540 C1539 1.523 . S
C1541 C1525 1.429 . S
C1541 C1537 1.429 . S
C1541 C1542 1.523 . S
C1542 C1526 1.368 . S
C1542 C1538 1.368 . S
C1542 C1541 1.523 . S
H1543 C1518 0.950 . S
H1544 C1520 0.950 . S
H1545 C1521 0.949 . S
H1546 C1523 0.950 . S
H1547 C1525 0.950 . S
C1548 C1549 1.349 . S
C1548 C1550 1.327 . S
C1548 H1573 0.950 . S
C1549 C1548 1.349 . S
C1549 C1565 1.349 . S
C1550 C1548 1.327 . S
C1550 C1569 1.429 . S
C1550 H1574 0.950 . S
C1551 C1568 1.574 . S
C1551 C1570 1.368 . S
C1551 H1575 0.949 . S
H1552 C1556 0.949 . S
C1553 C1554 1.349 . S
C1553 C1555 1.327 . S
C1553 H1576 0.950 . S
C1554 C1553 1.349 . S
C1554 C1566 1.349 . S
C1555 C1553 1.327 . S
C1555 C1571 1.429 . S
C1555 H1577 0.950 . S
C1556 H1552 0.949 . S
C1556 C1564 1.574 . S
C1556 C1572 1.368 . S
H1557 C1565 0.950 . S
H1558 C1563 0.950 . S
H1559 C1564 0.949 . S
H1560 C1566 0.950 . S
H1561 C1567 0.950 . S
H1562 C1568 0.949 . S
C1563 H1558 0.950 . S
C1563 C1565 1.327 . S
C1563 C1569 1.429 . S
C1564 C1556 1.574 . S
C1564 H1559 0.949 . S
C1564 C1570 1.368 . S
C1565 C1549 1.349 . S
C1565 H1557 0.950 . S
C1565 C1563 1.327 . S
C1566 C1554 1.349 . S
C1566 H1560 0.950 . S
C1566 C1567 1.327 . S
C1567 H1561 0.950 . S
C1567 C1566 1.327 . S
C1567 C1571 1.429 . S
C1568 C1551 1.574 . S
C1568 H1562 0.949 . S
C1568 C1572 1.368 . S
C1569 C1550 1.429 . S
C1569 C1563 1.429 . S
C1569 C1570 1.523 . S
C1570 C1551 1.368 . S
C1570 C1564 1.368 . S
C1570 C1569 1.523 . S
C1571 C1555 1.429 . S
C1571 C1567 1.429 . S
C1571 C1572 1.523 . S
C1572 C1556 1.368 . S
C1572 C1568 1.368 . S
C1572 C1571 1.523 . S
H1573 C1548 0.950 . S
H1574 C1550 0.950 . S
H1575 C1551 0.949 . S
H1576 C1553 0.950 . S
H1577 C1555 0.950 . S
C1578 C1579 1.349 . S
C1578 C1580 1.327 . S
C1578 H1603 0.950 . S
C1579 C1578 1.349 . S
C1579 C1595 1.349 . S
C1580 C1578 1.327 . S
C1580 C1599 1.429 . S
C1580 H1604 0.950 . S
C1581 C1598 1.574 . S
C1581 C1600 1.368 . S
C1581 H1605 0.949 . S
H1582 C1586 0.949 . S
C1583 C1584 1.349 . S
C1583 C1585 1.327 . S
C1583 H1606 0.950 . S
C1584 C1583 1.349 . S
C1584 C1596 1.349 . S
C1585 C1583 1.327 . S
C1585 C1601 1.429 . S
C1585 H1607 0.950 . S
C1586 H1582 0.949 . S
C1586 C1594 1.574 . S
C1586 C1602 1.368 . S
H1587 C1595 0.950 . S
H1588 C1593 0.950 . S
H1589 C1594 0.949 . S
H1590 C1596 0.950 . S
H1591 C1597 0.950 . S
H1592 C1598 0.949 . S
C1593 H1588 0.950 . S
C1593 C1595 1.327 . S
C1593 C1599 1.429 . S
C1594 C1586 1.574 . S
C1594 H1589 0.949 . S
C1594 C1600 1.368 . S
C1595 C1579 1.349 . S
C1595 H1587 0.950 . S
C1595 C1593 1.327 . S
C1596 C1584 1.349 . S
C1596 H1590 0.950 . S
C1596 C1597 1.327 . S
C1597 H1591 0.950 . S
C1597 C1596 1.327 . S
C1597 C1601 1.429 . S
C1598 C1581 1.574 . S
C1598 H1592 0.949 . S
C1598 C1602 1.368 . S
C1599 C1580 1.429 . S
C1599 C1593 1.429 . S
C1599 C1600 1.523 . S
C1600 C1581 1.368 . S
C1600 C1594 1.368 . S
C1600 C1599 1.523 . S
C1601 C1585 1.429 . S
C1601 C1597 1.429 . S
C1601 C1602 1.523 . S
C1602 C1586 1.368 . S
C1602 C1598 1.368 . S
C1602 C1601 1.523 . S
H1603 C1578 0.950 . S
H1604 C1580 0.950 . S
H1605 C1581 0.949 . S
H1606 C1583 0.950 . S
H1607 C1585 0.950 . S
C1608 C1609 1.349 . S
C1608 C1610 1.327 . S
C1608 H1633 0.950 . S
C1609 C1608 1.349 . S
C1609 C1625 1.349 . S
C1610 C1608 1.327 . S
C1610 C1629 1.429 . S
C1610 H1634 0.950 . S
C1611 C1628 1.574 . S
C1611 C1630 1.368 . S
C1611 H1635 0.949 . S
H1612 C1616 0.949 . S
C1613 C1614 1.349 . S
C1613 C1615 1.327 . S
C1613 H1636 0.950 . S
C1614 C1613 1.349 . S
C1614 C1626 1.349 . S
C1615 C1613 1.327 . S
C1615 C1631 1.429 . S
C1615 H1637 0.950 . S
C1616 H1612 0.949 . S
C1616 C1624 1.574 . S
C1616 C1632 1.368 . S
H1617 C1625 0.950 . S
H1618 C1623 0.950 . S
H1619 C1624 0.949 . S
H1620 C1626 0.950 . S
H1621 C1627 0.950 . S
H1622 C1628 0.949 . S
C1623 H1618 0.950 . S
C1623 C1625 1.327 . S
C1623 C1629 1.429 . S
C1624 C1616 1.574 . S
C1624 H1619 0.949 . S
C1624 C1630 1.368 . S
C1625 C1609 1.349 . S
C1625 H1617 0.950 . S
C1625 C1623 1.327 . S
C1626 C1614 1.349 . S
C1626 H1620 0.950 . S
C1626 C1627 1.327 . S
C1627 H1621 0.950 . S
C1627 C1626 1.327 . S
C1627 C1631 1.429 . S
C1628 C1611 1.574 . S
C1628 H1622 0.949 . S
C1628 C1632 1.368 . S
C1629 C1610 1.429 . S
C1629 C1623 1.429 . S
C1629 C1630 1.523 . S
C1630 C1611 1.368 . S
C1630 C1624 1.368 . S
C1630 C1629 1.523 . S
C1631 C1615 1.429 . S
C1631 C1627 1.429 . S
C1631 C1632 1.523 . S
C1632 C1616 1.368 . S
C1632 C1628 1.368 . S
C1632 C1631 1.523 . S
H1633 C1608 0.950 . S
H1634 C1610 0.950 . S
H1635 C1611 0.949 . S
H1636 C1613 0.950 . S
H1637 C1615 0.950 . S
C1638 C1639 1.349 . S
C1638 C1640 1.327 . S
C1638 H1663 0.950 . S
C1639 C1638 1.349 . S
C1639 C1655 1.349 . S
C1640 C1638 1.327 . S
C1640 C1659 1.429 . S
C1640 H1664 0.950 . S
C1641 C1658 1.574 . S
C1641 C1660 1.368 . S
C1641 H1665 0.949 . S
H1642 C1646 0.949 . S
C1643 C1644 1.349 . S
C1643 C1645 1.327 . S
C1643 H1666 0.950 . S
C1644 C1643 1.349 . S
C1644 C1656 1.349 . S
C1645 C1643 1.327 . S
C1645 C1661 1.429 . S
C1645 H1667 0.950 . S
C1646 H1642 0.949 . S
C1646 C1654 1.574 . S
C1646 C1662 1.368 . S
H1647 C1655 0.950 . S
H1648 C1653 0.950 . S
H1649 C1654 0.949 . S
H1650 C1656 0.950 . S
H1651 C1657 0.950 . S
H1652 C1658 0.949 . S
C1653 H1648 0.950 . S
C1653 C1655 1.327 . S
C1653 C1659 1.429 . S
C1654 C1646 1.574 . S
C1654 H1649 0.949 . S
C1654 C1660 1.368 . S
C1655 C1639 1.349 . S
C1655 H1647 0.950 . S
C1655 C1653 1.327 . S
C1656 C1644 1.349 . S
C1656 H1650 0.950 . S
C1656 C1657 1.327 . S
C1657 H1651 0.950 . S
C1657 C1656 1.327 . S
C1657 C1661 1.429 . S
C1658 C1641 1.574 . S
C1658 H1652 0.949 . S
C1658 C1662 1.368 . S
C1659 C1640 1.429 . S
C1659 C1653 1.429 . S
C1659 C1660 1.523 . S
C1660 C1641 1.368 . S
C1660 C1654 1.368 . S
C1660 C1659 1.523 . S
C1661 C1645 1.429 . S
C1661 C1657 1.429 . S
C1661 C1662 1.523 . S
C1662 C1646 1.368 . S
C1662 C1658 1.368 . S
C1662 C1661 1.523 . S
H1663 C1638 0.950 . S
H1664 C1640 0.950 . S
H1665 C1641 0.949 . S
H1666 C1643 0.950 . S
H1667 C1645 0.950 . S
C1668 C1669 1.349 . S
C1668 C1670 1.327 . S
C1668 H1693 0.950 . S
C1669 C1668 1.349 . S
C1669 C1685 1.349 . S
C1670 C1668 1.327 . S
C1670 C1689 1.429 . S
C1670 H1694 0.950 . S
C1671 C1688 1.574 . S
C1671 C1690 1.368 . S
C1671 H1695 0.949 . S
H1672 C1676 0.949 . S
C1673 C1674 1.349 . S
C1673 C1675 1.327 . S
C1673 H1696 0.950 . S
C1674 C1673 1.349 . S
C1674 C1686 1.349 . S
C1675 C1673 1.327 . S
C1675 C1691 1.429 . S
C1675 H1697 0.950 . S
C1676 H1672 0.949 . S
C1676 C1684 1.574 . S
C1676 C1692 1.368 . S
H1677 C1685 0.950 . S
H1678 C1683 0.950 . S
H1679 C1684 0.949 . S
H1680 C1686 0.950 . S
H1681 C1687 0.950 . S
H1682 C1688 0.949 . S
C1683 H1678 0.950 . S
C1683 C1685 1.327 . S
C1683 C1689 1.429 . S
C1684 C1676 1.574 . S
C1684 H1679 0.949 . S
C1684 C1690 1.368 . S
C1685 C1669 1.349 . S
C1685 H1677 0.950 . S
C1685 C1683 1.327 . S
C1686 C1674 1.349 . S
C1686 H1680 0.950 . S
C1686 C1687 1.327 . S
C1687 H1681 0.950 . S
C1687 C1686 1.327 . S
C1687 C1691 1.429 . S
C1688 C1671 1.574 . S
C1688 H1682 0.949 . S
C1688 C1692 1.368 . S
C1689 C1670 1.429 . S
C1689 C1683 1.429 . S
C1689 C1690 1.523 . S
C1690 C1671 1.368 . S
C1690 C1684 1.368 . S
C1690 C1689 1.523 . S
C1691 C1675 1.429 . S
C1691 C1687 1.429 . S
C1691 C1692 1.523 . S
C1692 C1676 1.368 . S
C1692 C1688 1.368 . S
C1692 C1691 1.523 . S
H1693 C1668 0.950 . S
H1694 C1670 0.950 . S
H1695 C1671 0.949 . S
H1696 C1673 0.950 . S
H1697 C1675 0.950 . S
C1698 C1699 1.349 . S
C1698 C1700 1.327 . S
C1698 H1723 0.950 . S
C1699 C1698 1.349 . S
C1699 C1715 1.349 . S
C1700 C1698 1.327 . S
C1700 C1719 1.429 . S
C1700 H1724 0.950 . S
C1701 C1718 1.574 . S
C1701 C1720 1.368 . S
C1701 H1725 0.949 . S
H1702 C1706 0.949 . S
C1703 C1704 1.349 . S
C1703 C1705 1.327 . S
C1703 H1726 0.950 . S
C1704 C1703 1.349 . S
C1704 C1716 1.349 . S
C1705 C1703 1.327 . S
C1705 C1721 1.429 . S
C1705 H1727 0.950 . S
C1706 H1702 0.949 . S
C1706 C1714 1.574 . S
C1706 C1722 1.368 . S
H1707 C1715 0.950 . S
H1708 C1713 0.950 . S
H1709 C1714 0.949 . S
H1710 C1716 0.950 . S
H1711 C1717 0.950 . S
H1712 C1718 0.949 . S
C1713 H1708 0.950 . S
C1713 C1715 1.327 . S
C1713 C1719 1.429 . S
C1714 C1706 1.574 . S
C1714 H1709 0.949 . S
C1714 C1720 1.368 . S
C1715 C1699 1.349 . S
C1715 H1707 0.950 . S
C1715 C1713 1.327 . S
C1716 C1704 1.349 . S
C1716 H1710 0.950 . S
C1716 C1717 1.327 . S
C1717 H1711 0.950 . S
C1717 C1716 1.327 . S
C1717 C1721 1.429 . S
C1718 C1701 1.574 . S
C1718 H1712 0.949 . S
C1718 C1722 1.368 . S
C1719 C1700 1.429 . S
C1719 C1713 1.429 . S
C1719 C1720 1.523 . S
C1720 C1701 1.368 . S
C1720 C1714 1.368 . S
C1720 C1719 1.523 . S
C1721 C1705 1.429 . S
C1721 C1717 1.429 . S
C1721 C1722 1.523 . S
C1722 C1706 1.368 . S
C1722 C1718 1.368 . S
C1722 C1721 1.523 . S
H1723 C1698 0.950 . S
H1724 C1700 0.950 . S
H1725 C1701 0.949 . S
H1726 C1703 0.950 . S
H1727 C1705 0.950 . S
C1728 C1729 1.349 . S
C1728 C1730 1.327 . S
C1728 H1753 0.950 . S
C1729 C1728 1.349 . S
C1729 C1745 1.349 . S
C1730 C1728 1.327 . S
C1730 C1749 1.429 . S
C1730 H1754 0.950 . S
C1731 C1748 1.574 . S
C1731 C1750 1.368 . S
C1731 H1755 0.949 . S
H1732 C1736 0.949 . S
C1733 C1734 1.349 . S
C1733 C1735 1.327 . S
C1733 H1756 0.950 . S
C1734 C1733 1.349 . S
C1734 C1746 1.349 . S
C1735 C1733 1.327 . S
C1735 C1751 1.429 . S
C1735 H1757 0.950 . S
C1736 H1732 0.949 . S
C1736 C1744 1.574 . S
C1736 C1752 1.368 . S
H1737 C1745 0.950 . S
H1738 C1743 0.950 . S
H1739 C1744 0.949 . S
H1740 C1746 0.950 . S
H1741 C1747 0.950 . S
H1742 C1748 0.949 . S
C1743 H1738 0.950 . S
C1743 C1745 1.327 . S
C1743 C1749 1.429 . S
C1744 C1736 1.574 . S
C1744 H1739 0.949 . S
C1744 C1750 1.368 . S
C1745 C1729 1.349 . S
C1745 H1737 0.950 . S
C1745 C1743 1.327 . S
C1746 C1734 1.349 . S
C1746 H1740 0.950 . S
C1746 C1747 1.327 . S
C1747 H1741 0.950 . S
C1747 C1746 1.327 . S
C1747 C1751 1.429 . S
C1748 C1731 1.574 . S
C1748 H1742 0.949 . S
C1748 C1752 1.368 . S
C1749 C1730 1.429 . S
C1749 C1743 1.429 . S
C1749 C1750 1.523 . S
C1750 C1731 1.368 . S
C1750 C1744 1.368 . S
C1750 C1749 1.523 . S
C1751 C1735 1.429 . S
C1751 C1747 1.429 . S
C1751 C1752 1.523 . S
C1752 C1736 1.368 . S
C1752 C1748 1.368 . S
C1752 C1751 1.523 . S
H1753 C1728 0.950 . S
H1754 C1730 0.950 . S
H1755 C1731 0.949 . S
H1756 C1733 0.950 . S
H1757 C1735 0.950 . S
C1758 C1759 1.349 . S
C1758 C1760 1.327 . S
C1758 H1783 0.950 . S
C1759 C1758 1.349 . S
C1759 C1775 1.349 . S
C1760 C1758 1.327 . S
C1760 C1779 1.429 . S
C1760 H1784 0.950 . S
C1761 C1778 1.574 . S
C1761 C1780 1.368 . S
C1761 H1785 0.949 . S
H1762 C1766 0.949 . S
C1763 C1764 1.349 . S
C1763 C1765 1.327 . S
C1763 H1786 0.950 . S
C1764 C1763 1.349 . S
C1764 C1776 1.349 . S
C1765 C1763 1.327 . S
C1765 C1781 1.429 . S
C1765 H1787 0.950 . S
C1766 H1762 0.949 . S
C1766 C1774 1.574 . S
C1766 C1782 1.368 . S
H1767 C1775 0.950 . S
H1768 C1773 0.950 . S
H1769 C1774 0.949 . S
H1770 C1776 0.950 . S
H1771 C1777 0.950 . S
H1772 C1778 0.949 . S
C1773 H1768 0.950 . S
C1773 C1775 1.327 . S
C1773 C1779 1.429 . S
C1774 C1766 1.574 . S
C1774 H1769 0.949 . S
C1774 C1780 1.368 . S
C1775 C1759 1.349 . S
C1775 H1767 0.950 . S
C1775 C1773 1.327 . S
C1776 C1764 1.349 . S
C1776 H1770 0.950 . S
C1776 C1777 1.327 . S
C1777 H1771 0.950 . S
C1777 C1776 1.327 . S
C1777 C1781 1.429 . S
C1778 C1761 1.574 . S
C1778 H1772 0.949 . S
C1778 C1782 1.368 . S
C1779 C1760 1.429 . S
C1779 C1773 1.429 . S
C1779 C1780 1.523 . S
C1780 C1761 1.368 . S
C1780 C1774 1.368 . S
C1780 C1779 1.523 . S
C1781 C1765 1.429 . S
C1781 C1777 1.429 . S
C1781 C1782 1.523 . S
C1782 C1766 1.368 . S
C1782 C1778 1.368 . S
C1782 C1781 1.523 . S
H1783 C1758 0.950 . S
H1784 C1760 0.950 . S
H1785 C1761 0.949 . S
H1786 C1763 0.950 . S
H1787 C1765 0.950 . S
C1788 C1789 1.349 . S
C1788 C1790 1.327 . S
C1788 H1813 0.950 . S
C1789 C1788 1.349 . S
C1789 C1805 1.349 . S
C1790 C1788 1.327 . S
C1790 C1809 1.429 . S
C1790 H1814 0.950 . S
C1791 C1808 1.574 . S
C1791 C1810 1.368 . S
C1791 H1815 0.949 . S
H1792 C1796 0.949 . S
C1793 C1794 1.349 . S
C1793 C1795 1.327 . S
C1793 H1816 0.950 . S
C1794 C1793 1.349 . S
C1794 C1806 1.349 . S
C1795 C1793 1.327 . S
C1795 C1811 1.429 . S
C1795 H1817 0.950 . S
C1796 H1792 0.949 . S
C1796 C1804 1.574 . S
C1796 C1812 1.368 . S
H1797 C1805 0.950 . S
H1798 C1803 0.950 . S
H1799 C1804 0.949 . S
H1800 C1806 0.950 . S
H1801 C1807 0.950 . S
H1802 C1808 0.949 . S
C1803 H1798 0.950 . S
C1803 C1805 1.327 . S
C1803 C1809 1.429 . S
C1804 C1796 1.574 . S
C1804 H1799 0.949 . S
C1804 C1810 1.368 . S
C1805 C1789 1.349 . S
C1805 H1797 0.950 . S
C1805 C1803 1.327 . S
C1806 C1794 1.349 . S
C1806 H1800 0.950 . S
C1806 C1807 1.327 . S
C1807 H1801 0.950 . S
C1807 C1806 1.327 . S
C1807 C1811 1.429 . S
C1808 C1791 1.574 . S
C1808 H1802 0.949 . S
C1808 C1812 1.368 . S
C1809 C1790 1.429 . S
C1809 C1803 1.429 . S
C1809 C1810 1.523 . S
C1810 C1791 1.368 . S
C1810 C1804 1.368 . S
C1810 C1809 1.523 . S
C1811 C1795 1.429 . S
C1811 C1807 1.429 . S
C1811 C1812 1.523 . S
C1812 C1796 1.368 . S
C1812 C1808 1.368 . S
C1812 C1811 1.523 . S
H1813 C1788 0.950 . S
H1814 C1790 0.950 . S
H1815 C1791 0.949 . S
H1816 C1793 0.950 . S
H1817 C1795 0.950 . S
C1818 C1819 1.349 . S
C1818 C1820 1.327 . S
C1818 H1843 0.950 . S
C1819 C1818 1.349 . S
C1819 C1835 1.349 . S
C1820 C1818 1.327 . S
C1820 C1839 1.429 . S
C1820 H1844 0.950 . S
C1821 C1838 1.574 . S
C1821 C1840 1.368 . S
C1821 H1845 0.949 . S
H1822 C1826 0.949 . S
C1823 C1824 1.349 . S
C1823 C1825 1.327 . S
C1823 H1846 0.950 . S
C1824 C1823 1.349 . S
C1824 C1836 1.349 . S
C1825 C1823 1.327 . S
C1825 C1841 1.429 . S
C1825 H1847 0.950 . S
C1826 H1822 0.949 . S
C1826 C1834 1.574 . S
C1826 C1842 1.368 . S
H1827 C1835 0.950 . S
H1828 C1833 0.950 . S
H1829 C1834 0.949 . S
H1830 C1836 0.950 . S
H1831 C1837 0.950 . S
H1832 C1838 0.949 . S
C1833 H1828 0.950 . S
C1833 C1835 1.327 . S
C1833 C1839 1.429 . S
C1834 C1826 1.574 . S
C1834 H1829 0.949 . S
C1834 C1840 1.368 . S
C1835 C1819 1.349 . S
C1835 H1827 0.950 . S
C1835 C1833 1.327 . S
C1836 C1824 1.349 . S
C1836 H1830 0.950 . S
C1836 C1837 1.327 . S
C1837 H1831 0.950 . S
C1837 C1836 1.327 . S
C1837 C1841 1.429 . S
C1838 C1821 1.574 . S
C1838 H1832 0.949 . S
C1838 C1842 1.368 . S
C1839 C1820 1.429 . S
C1839 C1833 1.429 . S
C1839 C1840 1.523 . S
C1840 C1821 1.368 . S
C1840 C1834 1.368 . S
C1840 C1839 1.523 . S
C1841 C1825 1.429 . S
C1841 C1837 1.429 . S
C1841 C1842 1.523 . S
C1842 C1826 1.368 . S
C1842 C1838 1.368 . S
C1842 C1841 1.523 . S
H1843 C1818 0.950 . S
H1844 C1820 0.950 . S
H1845 C1821 0.949 . S
H1846 C1823 0.950 . S
H1847 C1825 0.950 . S
C1848 C1849 1.349 . S
C1848 C1850 1.327 . S
C1848 H1873 0.950 . S
C1849 C1848 1.349 . S
C1849 C1865 1.349 . S
C1850 C1848 1.327 . S
C1850 C1869 1.429 . S
C1850 H1874 0.950 . S
C1851 C1868 1.574 . S
C1851 C1870 1.368 . S
C1851 H1875 0.949 . S
H1852 C1856 0.949 . S
C1853 C1854 1.349 . S
C1853 C1855 1.327 . S
C1853 H1876 0.950 . S
C1854 C1853 1.349 . S
C1854 C1866 1.349 . S
C1855 C1853 1.327 . S
C1855 C1871 1.429 . S
C1855 H1877 0.950 . S
C1856 H1852 0.949 . S
C1856 C1864 1.574 . S
C1856 C1872 1.368 . S
H1857 C1865 0.950 . S
H1858 C1863 0.950 . S
H1859 C1864 0.949 . S
H1860 C1866 0.950 . S
H1861 C1867 0.950 . S
H1862 C1868 0.949 . S
C1863 H1858 0.950 . S
C1863 C1865 1.327 . S
C1863 C1869 1.429 . S
C1864 C1856 1.574 . S
C1864 H1859 0.949 . S
C1864 C1870 1.368 . S
C1865 C1849 1.349 . S
C1865 H1857 0.950 . S
C1865 C1863 1.327 . S
C1866 C1854 1.349 . S
C1866 H1860 0.950 . S
C1866 C1867 1.327 . S
C1867 H1861 0.950 . S
C1867 C1866 1.327 . S
C1867 C1871 1.429 . S
C1868 C1851 1.574 . S
C1868 H1862 0.949 . S
C1868 C1872 1.368 . S
C1869 C1850 1.429 . S
C1869 C1863 1.429 . S
C1869 C1870 1.523 . S
C1870 C1851 1.368 . S
C1870 C1864 1.368 . S
C1870 C1869 1.523 . S
C1871 C1855 1.429 . S
C1871 C1867 1.429 . S
C1871 C1872 1.523 . S
C1872 C1856 1.368 . S
C1872 C1868 1.368 . S
C1872 C1871 1.523 . S
H1873 C1848 0.950 . S
H1874 C1850 0.950 . S
H1875 C1851 0.949 . S
H1876 C1853 0.950 . S
H1877 C1855 0.950 . S
C1878 C1879 1.349 . S
C1878 C1880 1.327 . S
C1878 H1903 0.950 . S
C1879 C1878 1.349 . S
C1879 C1895 1.349 . S
C1880 C1878 1.327 . S
C1880 C1899 1.429 . S
C1880 H1904 0.950 . S
C1881 C1898 1.574 . S
C1881 C1900 1.368 . S
C1881 H1905 0.949 . S
H1882 C1886 0.949 . S
C1883 C1884 1.349 . S
C1883 C1885 1.327 . S
C1883 H1906 0.950 . S
C1884 C1883 1.349 . S
C1884 C1896 1.349 . S
C1885 C1883 1.327 . S
C1885 C1901 1.429 . S
C1885 H1907 0.950 . S
C1886 H1882 0.949 . S
C1886 C1894 1.574 . S
C1886 C1902 1.368 . S
H1887 C1895 0.950 . S
H1888 C1893 0.950 . S
H1889 C1894 0.949 . S
H1890 C1896 0.950 . S
H1891 C1897 0.950 . S
H1892 C1898 0.949 . S
C1893 H1888 0.950 . S
C1893 C1895 1.327 . S
C1893 C1899 1.429 . S
C1894 C1886 1.574 . S
C1894 H1889 0.949 . S
C1894 C1900 1.368 . S
C1895 C1879 1.349 . S
C1895 H1887 0.950 . S
C1895 C1893 1.327 . S
C1896 C1884 1.349 . S
C1896 H1890 0.950 . S
C1896 C1897 1.327 . S
C1897 H1891 0.950 . S
C1897 C1896 1.327 . S
C1897 C1901 1.429 . S
C1898 C1881 1.574 . S
C1898 H1892 0.949 . S
C1898 C1902 1.368 . S
C1899 C1880 1.429 . S
C1899 C1893 1.429 . S
C1899 C1900 1.523 . S
C1900 C1881 1.368 . S
C1900 C1894 1.368 . S
C1900 C1899 1.523 . S
C1901 C1885 1.429 . S
C1901 C1897 1.429 . S
C1901 C1902 1.523 . S
C1902 C1886 1.368 . S
C1902 C1898 1.368 . S
C1902 C1901 1.523 . S
H1903 C1878 0.950 . S
H1904 C1880 0.950 . S
H1905 C1881 0.949 . S
H1906 C1883 0.950 . S
H1907 C1885 0.950 . S
C1908 C1909 1.349 . S
C1908 C1910 1.327 . S
C1908 H1933 0.950 . S
C1909 C1908 1.349 . S
C1909 C1925 1.349 . S
C1910 C1908 1.327 . S
C1910 C1929 1.429 . S
C1910 H1934 0.950 . S
C1911 C1928 1.574 . S
C1911 C1930 1.368 . S
C1911 H1935 0.949 . S
H1912 C1916 0.949 . S
C1913 C1914 1.349 . S
C1913 C1915 1.327 . S
C1913 H1936 0.950 . S
C1914 C1913 1.349 . S
C1914 C1926 1.349 . S
C1915 C1913 1.327 . S
C1915 C1931 1.429 . S
C1915 H1937 0.950 . S
C1916 H1912 0.949 . S
C1916 C1924 1.574 . S
C1916 C1932 1.368 . S
H1917 C1925 0.950 . S
H1918 C1923 0.950 . S
H1919 C1924 0.949 . S
H1920 C1926 0.950 . S
H1921 C1927 0.950 . S
H1922 C1928 0.949 . S
C1923 H1918 0.950 . S
C1923 C1925 1.327 . S
C1923 C1929 1.429 . S
C1924 C1916 1.574 . S
C1924 H1919 0.949 . S
C1924 C1930 1.368 . S
C1925 C1909 1.349 . S
C1925 H1917 0.950 . S
C1925 C1923 1.327 . S
C1926 C1914 1.349 . S
C1926 H1920 0.950 . S
C1926 C1927 1.327 . S
C1927 H1921 0.950 . S
C1927 C1926 1.327 . S
C1927 C1931 1.429 . S
C1928 C1911 1.574 . S
C1928 H1922 0.949 . S
C1928 C1932 1.368 . S
C1929 C1910 1.429 . S
C1929 C1923 1.429 . S
C1929 C1930 1.523 . S
C1930 C1911 1.368 . S
C1930 C1924 1.368 . S
C1930 C1929 1.523 . S
C1931 C1915 1.429 . S
C1931 C1927 1.429 . S
C1931 C1932 1.523 . S
C1932 C1916 1.368 . S
C1932 C1928 1.368 . S
C1932 C1931 1.523 . S
H1933 C1908 0.950 . S
H1934 C1910 0.950 . S
H1935 C1911 0.949 . S
H1936 C1913 0.950 . S
H1937 C1915 0.950 . S
C1938 C1939 1.349 . S
C1938 C1940 1.327 . S
C1938 H1963 0.950 . S
C1939 C1938 1.349 . S
C1939 C1955 1.349 . S
C1940 C1938 1.327 . S
C1940 C1959 1.429 . S
C1940 H1964 0.950 . S
C1941 C1958 1.574 . S
C1941 C1960 1.368 . S
C1941 H1965 0.949 . S
H1942 C1946 0.949 . S
C1943 C1944 1.349 . S
C1943 C1945 1.327 . S
C1943 H1966 0.950 . S
C1944 C1943 1.349 . S
C1944 C1956 1.349 . S
C1945 C1943 1.327 . S
C1945 C1961 1.429 . S
C1945 H1967 0.950 . S
C1946 H1942 0.949 . S
C1946 C1954 1.574 . S
C1946 C1962 1.368 . S
H1947 C1955 0.950 . S
H1948 C1953 0.950 . S
H1949 C1954 0.949 . S
H1950 C1956 0.950 . S
H1951 C1957 0.950 . S
H1952 C1958 0.949 . S
C1953 H1948 0.950 . S
C1953 C1955 1.327 . S
C1953 C1959 1.429 . S
C1954 C1946 1.574 . S
C1954 H1949 0.949 . S
C1954 C1960 1.368 . S
C1955 C1939 1.349 . S
C1955 H1947 0.950 . S
C1955 C1953 1.327 . S
C1956 C1944 1.349 . S
C1956 H1950 0.950 . S
C1956 C1957 1.327 . S
C1957 H1951 0.950 . S
C1957 C1956 1.327 . S
C1957 C1961 1.429 . S
C1958 C1941 1.574 . S
C1958 H1952 0.949 . S
C1958 C1962 1.368 . S
C1959 C1940 1.429 . S
C1959 C1953 1.429 . S
C1959 C1960 1.523 . S
C1960 C1941 1.368 . S
C1960 C1954 1.368 . S
C1960 C1959 1.523 . S
C1961 C1945 1.429 . S
C1961 C1957 1.429 . S
C1961 C1962 1.523 . S
C1962 C1946 1.368 . S
C1962 C1958 1.368 . S
C1962 C1961 1.523 . S
H1963 C1938 0.950 . S
H1964 C1940 0.950 . S
H1965 C1941 0.949 . S
H1966 C1943 0.950 . S
H1967 C1945 0.950 . S
C1968 C1969 1.349 . S
C1968 C1970 1.327 . S
C1968 H1993 0.950 . S
C1969 C1968 1.349 . S
C1969 C1985 1.349 . S
C1970 C1968 1.327 . S
C1970 C1989 1.429 . S
C1970 H1994 0.950 . S
C1971 C1988 1.574 . S
C1971 C1990 1.368 . S
C1971 H1995 0.949 . S
H1972 C1976 0.949 . S
C1973 C1974 1.349 . S
C1973 C1975 1.327 . S
C1973 H1996 0.950 . S
C1974 C1973 1.349 . S
C1974 C1986 1.349 . S
C1975 C1973 1.327 . S
C1975 C1991 1.429 . S
C1975 H1997 0.950 . S
C1976 H1972 0.949 . S
C1976 C1984 1.574 . S
C1976 C1992 1.368 . S
H1977 C1985 0.950 . S
H1978 C1983 0.950 . S
H1979 C1984 0.949 . S
H1980 C1986 0.950 . S
H1981 C1987 0.950 . S
H1982 C1988 0.949 . S
C1983 H1978 0.950 . S
C1983 C1985 1.327 . S
C1983 C1989 1.429 . S
C1984 C1976 1.574 . S
C1984 H1979 0.949 . S
C1984 C1990 1.368 . S
C1985 C1969 1.349 . S
C1985 H1977 0.950 . S
C1985 C1983 1.327 . S
C1986 C1974 1.349 . S
C1986 H1980 0.950 . S
C1986 C1987 1.327 . S
C1987 H1981 0.950 . S
C1987 C1986 1.327 . S
C1987 C1991 1.429 . S
C1988 C1971 1.574 . S
C1988 H1982 0.949 . S
C1988 C1992 1.368 . S
C1989 C1970 1.429 . S
C1989 C1983 1.429 . S
C1989 C1990 1.523 . S
C1990 C1971 1.368 . S
C1990 C1984 1.368 . S
C1990 C1989 1.523 . S
C1991 C1975 1.429 . S
C1991 C1987 1.429 . S
C1991 C1992 1.523 . S
C1992 C1976 1.368 . S
C1992 C1988 1.368 . S
C1992 C1991 1.523 . S
H1993 C1968 0.950 . S
H1994 C1970 0.950 . S
H1995 C1971 0.949 . S
H1996 C1973 0.950 . S
H1997 C1975 0.950 . S
C1998 C1999 1.349 . S
C1998 C2000 1.327 . S
C1998 H2023 0.950 . S
C1999 C1998 1.349 . S
C1999 C2015 1.349 . S
C2000 C1998 1.327 . S
C2000 C2019 1.429 . S
C2000 H2024 0.950 . S
C2001 C2018 1.574 . S
C2001 C2020 1.368 . S
C2001 H2025 0.949 . S
H2002 C2006 0.949 . S
C2003 C2004 1.349 . S
C2003 C2005 1.327 . S
C2003 H2026 0.950 . S
C2004 C2003 1.349 . S
C2004 C2016 1.349 . S
C2005 C2003 1.327 . S
C2005 C2021 1.429 . S
C2005 H2027 0.950 . S
C2006 H2002 0.949 . S
C2006 C2014 1.574 . S
C2006 C2022 1.368 . S
H2007 C2015 0.950 . S
H2008 C2013 0.950 . S
H2009 C2014 0.949 . S
H2010 C2016 0.950 . S
H2011 C2017 0.950 . S
H2012 C2018 0.949 . S
C2013 H2008 0.950 . S
C2013 C2015 1.327 . S
C2013 C2019 1.429 . S
C2014 C2006 1.574 . S
C2014 H2009 0.949 . S
C2014 C2020 1.368 . S
C2015 C1999 1.349 . S
C2015 H2007 0.950 . S
C2015 C2013 1.327 . S
C2016 C2004 1.349 . S
C2016 H2010 0.950 . S
C2016 C2017 1.327 . S
C2017 H2011 0.950 . S
C2017 C2016 1.327 . S
C2017 C2021 1.429 . S
C2018 C2001 1.574 . S
C2018 H2012 0.949 . S
C2018 C2022 1.368 . S
C2019 C2000 1.429 . S
C2019 C2013 1.429 . S
C2019 C2020 1.523 . S
C2020 C2001 1.368 . S
C2020 C2014 1.368 . S
C2020 C2019 1.523 . S
C2021 C2005 1.429 . S
C2021 C2017 1.429 . S
C2021 C2022 1.523 . S
C2022 C2006 1.368 . S
C2022 C2018 1.368 . S
C2022 C2021 1.523 . S
H2023 C1998 0.950 . S
H2024 C2000 0.950 . S
H2025 C2001 0.949 . S
H2026 C2003 0.950 . S
H2027 C2005 0.950 . S
C2028 C2029 1.349 . S
C2028 C2030 1.327 . S
C2028 H2053 0.950 . S
C2029 C2028 1.349 . S
C2029 C2045 1.349 . S
C2030 C2028 1.327 . S
C2030 C2049 1.429 . S
C2030 H2054 0.950 . S
C2031 C2048 1.574 . S
C2031 C2050 1.368 . S
C2031 H2055 0.949 . S
H2032 C2036 0.949 . S
C2033 C2034 1.349 . S
C2033 C2035 1.327 . S
C2033 H2056 0.950 . S
C2034 C2033 1.349 . S
C2034 C2046 1.349 . S
C2035 C2033 1.327 . S
C2035 C2051 1.429 . S
C2035 H2057 0.950 . S
C2036 H2032 0.949 . S
C2036 C2044 1.574 . S
C2036 C2052 1.368 . S
H2037 C2045 0.950 . S
H2038 C2043 0.950 . S
H2039 C2044 0.949 . S
H2040 C2046 0.950 . S
H2041 C2047 0.950 . S
H2042 C2048 0.949 . S
C2043 H2038 0.950 . S
C2043 C2045 1.327 . S
C2043 C2049 1.429 . S
C2044 C2036 1.574 . S
C2044 H2039 0.949 . S
C2044 C2050 1.368 . S
C2045 C2029 1.349 . S
C2045 H2037 0.950 . S
C2045 C2043 1.327 . S
C2046 C2034 1.349 . S
C2046 H2040 0.950 . S
C2046 C2047 1.327 . S
C2047 H2041 0.950 . S
C2047 C2046 1.327 . S
C2047 C2051 1.429 . S
C2048 C2031 1.574 . S
C2048 H2042 0.949 . S
C2048 C2052 1.368 . S
C2049 C2030 1.429 . S
C2049 C2043 1.429 . S
C2049 C2050 1.523 . S
C2050 C2031 1.368 . S
C2050 C2044 1.368 . S
C2050 C2049 1.523 . S
C2051 C2035 1.429 . S
C2051 C2047 1.429 . S
C2051 C2052 1.523 . S
C2052 C2036 1.368 . S
C2052 C2048 1.368 . S
C2052 C2051 1.523 . S
H2053 C2028 0.950 . S
H2054 C2030 0.950 . S
H2055 C2031 0.949 . S
H2056 C2033 0.950 . S
H2057 C2035 0.950 . S
C2058 C2059 1.349 . S
C2058 C2060 1.327 . S
C2058 H2083 0.950 . S
C2059 C2058 1.349 . S
C2059 C2075 1.349 . S
C2060 C2058 1.327 . S
C2060 C2079 1.429 . S
C2060 H2084 0.950 . S
C2061 C2078 1.574 . S
C2061 C2080 1.368 . S
C2061 H2085 0.949 . S
H2062 C2066 0.949 . S
C2063 C2064 1.349 . S
C2063 C2065 1.327 . S
C2063 H2086 0.950 . S
C2064 C2063 1.349 . S
C2064 C2076 1.349 . S
C2065 C2063 1.327 . S
C2065 C2081 1.429 . S
C2065 H2087 0.950 . S
C2066 H2062 0.949 . S
C2066 C2074 1.574 . S
C2066 C2082 1.368 . S
H2067 C2075 0.950 . S
H2068 C2073 0.950 . S
H2069 C2074 0.949 . S
H2070 C2076 0.950 . S
H2071 C2077 0.950 . S
H2072 C2078 0.949 . S
C2073 H2068 0.950 . S
C2073 C2075 1.327 . S
C2073 C2079 1.429 . S
C2074 C2066 1.574 . S
C2074 H2069 0.949 . S
C2074 C2080 1.368 . S
C2075 C2059 1.349 . S
C2075 H2067 0.950 . S
C2075 C2073 1.327 . S
C2076 C2064 1.349 . S
C2076 H2070 0.950 . S
C2076 C2077 1.327 . S
C2077 H2071 0.950 . S
C2077 C2076 1.327 . S
C2077 C2081 1.429 . S
C2078 C2061 1.574 . S
C2078 H2072 0.949 . S
C2078 C2082 1.368 . S
C2079 C2060 1.429 . S
C2079 C2073 1.429 . S
C2079 C2080 1.523 . S
C2080 C2061 1.368 . S
C2080 C2074 1.368 . S
C2080 C2079 1.523 . S
C2081 C2065 1.429 . S
C2081 C2077 1.429 . S
C2081 C2082 1.523 . S
C2082 C2066 1.368 . S
C2082 C2078 1.368 . S
C2082 C2081 1.523 . S
H2083 C2058 0.950 . S
H2084 C2060 0.950 . S
H2085 C2061 0.949 . S
H2086 C2063 0.950 . S
H2087 C2065 0.950 . S
C2088 C2089 1.349 . S
C2088 C2090 1.327 . S
C2088 H2113 0.950 . S
C2089 C2088 1.349 . S
C2089 C2105 1.349 . S
C2090 C2088 1.327 . S
C2090 C2109 1.429 . S
C2090 H2114 0.950 . S
C2091 C2108 1.574 . S
C2091 C2110 1.368 . S
C2091 H2115 0.949 . S
H2092 C2096 0.949 . S
C2093 C2094 1.349 . S
C2093 C2095 1.327 . S
C2093 H2116 0.950 . S
C2094 C2093 1.349 . S
C2094 C2106 1.349 . S
C2095 C2093 1.327 . S
C2095 C2111 1.429 . S
C2095 H2117 0.950 . S
C2096 H2092 0.949 . S
C2096 C2104 1.574 . S
C2096 C2112 1.368 . S
H2097 C2105 0.950 . S
H2098 C2103 0.950 . S
H2099 C2104 0.949 . S
H2100 C2106 0.950 . S
H2101 C2107 0.950 . S
H2102 C2108 0.949 . S
C2103 H2098 0.950 . S
C2103 C2105 1.327 . S
C2103 C2109 1.429 . S
C2104 C2096 1.574 . S
C2104 H2099 0.949 . S
C2104 C2110 1.368 . S
C2105 C2089 1.349 . S
C2105 H2097 0.950 . S
C2105 C2103 1.327 . S
C2106 C2094 1.349 . S
C2106 H2100 0.950 . S
C2106 C2107 1.327 . S
C2107 H2101 0.950 . S
C2107 C2106 1.327 . S
C2107 C2111 1.429 . S
C2108 C2091 1.574 . S
C2108 H2102 0.949 . S
C2108 C2112 1.368 . S
C2109 C2090 1.429 . S
C2109 C2103 1.429 . S
C2109 C2110 1.523 . S
C2110 C2091 1.368 . S
C2110 C2104 1.368 . S
C2110 C2109 1.523 . S
C2111 C2095 1.429 . S
C2111 C2107 1.429 . S
C2111 C2112 1.523 . S
C2112 C2096 1.368 . S
C2112 C2108 1.368 . S
C2112 C2111 1.523 . S
H2113 C2088 0.950 . S
H2114 C2090 0.950 . S
H2115 C2091 0.949 . S
H2116 C2093 0.950 . S
H2117 C2095 0.950 . S
C2118 C2119 1.349 . S
C2118 C2120 1.327 . S
C2118 H2143 0.950 . S
C2119 C2118 1.349 . S
C2119 C2135 1.349 . S
C2120 C2118 1.327 . S
C2120 C2139 1.429 . S
C2120 H2144 0.950 . S
C2121 C2138 1.574 . S
C2121 C2140 1.368 . S
C2121 H2145 0.949 . S
H2122 C2126 0.949 . S
C2123 C2124 1.349 . S
C2123 C2125 1.327 . S
C2123 H2146 0.950 . S
C2124 C2123 1.349 . S
C2124 C2136 1.349 . S
C2125 C2123 1.327 . S
C2125 C2141 1.429 . S
C2125 H2147 0.950 . S
C2126 H2122 0.949 . S
C2126 C2134 1.574 . S
C2126 C2142 1.368 . S
H2127 C2135 0.950 . S
H2128 C2133 0.950 . S
H2129 C2134 0.949 . S
H2130 C2136 0.950 . S
H2131 C2137 0.950 . S
H2132 C2138 0.949 . S
C2133 H2128 0.950 . S
C2133 C2135 1.327 . S
C2133 C2139 1.429 . S
C2134 C2126 1.574 . S
C2134 H2129 0.949 . S
C2134 C2140 1.368 . S
C2135 C2119 1.349 . S
C2135 H2127 0.950 . S
C2135 C2133 1.327 . S
C2136 C2124 1.349 . S
C2136 H2130 0.950 . S
C2136 C2137 1.327 . S
C2137 H2131 0.950 . S
C2137 C2136 1.327 . S
C2137 C2141 1.429 . S
C2138 C2121 1.574 . S
C2138 H2132 0.949 . S
C2138 C2142 1.368 . S
C2139 C2120 1.429 . S
C2139 C2133 1.429 . S
C2139 C2140 1.523 . S
C2140 C2121 1.368 . S
C2140 C2134 1.368 . S
C2140 C2139 1.523 . S
C2141 C2125 1.429 . S
C2141 C2137 1.429 . S
C2141 C2142 1.523 . S
C2142 C2126 1.368 . S
C2142 C2138 1.368 . S
C2142 C2141 1.523 . S
H2143 C2118 0.950 . S
H2144 C2120 0.950 . S
H2145 C2121 0.949 . S
H2146 C2123 0.950 . S
H2147 C2125 0.950 . S
C2148 C2149 1.349 . S
C2148 C2150 1.327 . S
C2148 H2173 0.950 . S
C2149 C2148 1.349 . S
C2149 C2165 1.349 . S
C2150 C2148 1.327 . S
C2150 C2169 1.429 . S
C2150 H2174 0.950 . S
C2151 C2168 1.574 . S
C2151 C2170 1.368 . S
C2151 H2175 0.949 . S
H2152 C2156 0.949 . S
C2153 C2154 1.349 . S
C2153 C2155 1.327 . S
C2153 H2176 0.950 . S
C2154 C2153 1.349 . S
C2154 C2166 1.349 . S
C2155 C2153 1.327 . S
C2155 C2171 1.429 . S
C2155 H2177 0.950 . S
C2156 H2152 0.949 . S
C2156 C2164 1.574 . S
C2156 C2172 1.368 . S
H2157 C2165 0.950 . S
H2158 C2163 0.950 . S
H2159 C2164 0.949 . S
H2160 C2166 0.950 . S
H2161 C2167 0.950 . S
H2162 C2168 0.949 . S
C2163 H2158 0.950 . S
C2163 C2165 1.327 . S
C2163 C2169 1.429 . S
C2164 C2156 1.574 . S
C2164 H2159 0.949 . S
C2164 C2170 1.368 . S
C2165 C2149 1.349 . S
C2165 H2157 0.950 . S
C2165 C2163 1.327 . S
C2166 C2154 1.349 . S
C2166 H2160 0.950 . S
C2166 C2167 1.327 . S
C2167 H2161 0.950 . S
C2167 C2166 1.327 . S
C2167 C2171 1.429 . S
C2168 C2151 1.574 . S
C2168 H2162 0.949 . S
C2168 C2172 1.368 . S
C2169 C2150 1.429 . S
C2169 C2163 1.429 . S
C2169 C2170 1.523 . S
C2170 C2151 1.368 . S
C2170 C2164 1.368 . S
C2170 C2169 1.523 . S
C2171 C2155 1.429 . S
C2171 C2167 1.429 . S
C2171 C2172 1.523 . S
C2172 C2156 1.368 . S
C2172 C2168 1.368 . S
C2172 C2171 1.523 . S
H2173 C2148 0.950 . S
H2174 C2150 0.950 . S
H2175 C2151 0.949 . S
H2176 C2153 0.950 . S
H2177 C2155 0.950 . S
C2178 C2179 1.349 . S
C2178 C2180 1.327 . S
C2178 H2203 0.950 . S
C2179 C2178 1.349 . S
C2179 C2195 1.349 . S
C2180 C2178 1.327 . S
C2180 C2199 1.429 . S
C2180 H2204 0.950 . S
C2181 C2198 1.574 . S
C2181 C2200 1.368 . S
C2181 H2205 0.949 . S
H2182 C2186 0.949 . S
C2183 C2184 1.349 . S
C2183 C2185 1.327 . S
C2183 H2206 0.950 . S
C2184 C2183 1.349 . S
C2184 C2196 1.349 . S
C2185 C2183 1.327 . S
C2185 C2201 1.429 . S
C2185 H2207 0.950 . S
C2186 H2182 0.949 . S
C2186 C2194 1.574 . S
C2186 C2202 1.368 . S
H2187 C2195 0.950 . S
H2188 C2193 0.950 . S
H2189 C2194 0.949 . S
H2190 C2196 0.950 . S
H2191 C2197 0.950 . S
H2192 C2198 0.949 . S
C2193 H2188 0.950 . S
C2193 C2195 1.327 . S
C2193 C2199 1.429 . S
C2194 C2186 1.574 . S
C2194 H2189 0.949 . S
C2194 C2200 1.368 . S
C2195 C2179 1.349 . S
C2195 H2187 0.950 . S
C2195 C2193 1.327 . S
C2196 C2184 1.349 . S
C2196 H2190 0.950 . S
C2196 C2197 1.327 . S
C2197 H2191 0.950 . S
C2197 C2196 1.327 . S
C2197 C2201 1.429 . S
C2198 C2181 1.574 . S
C2198 H2192 0.949 . S
C2198 C2202 1.368 . S
C2199 C2180 1.429 . S
C2199 C2193 1.429 . S
C2199 C2200 1.523 . S
C2200 C2181 1.368 . S
C2200 C2194 1.368 . S
C2200 C2199 1.523 . S
C2201 C2185 1.429 . S
C2201 C2197 1.429 . S
C2201 C2202 1.523 . S
C2202 C2186 1.368 . S
C2202 C2198 1.368 . S
C2202 C2201 1.523 . S
H2203 C2178 0.950 . S
H2204 C2180 0.950 . S
H2205 C2181 0.949 . S
H2206 C2183 0.950 . S
H2207 C2185 0.950 . S
C2208 C2209 1.349 . S
C2208 C2210 1.327 . S
C2208 H2233 0.950 . S
C2209 C2208 1.349 . S
C2209 C2225 1.349 . S
C2210 C2208 1.327 . S
C2210 C2229 1.429 . S
C2210 H2234 0.950 . S
C2211 C2228 1.574 . S
C2211 C2230 1.368 . S
C2211 H2235 0.949 . S
H2212 C2216 0.949 . S
C2213 C2214 1.349 . S
C2213 C2215 1.327 . S
C2213 H2236 0.950 . S
C2214 C2213 1.349 . S
C2214 C2226 1.349 . S
C2215 C2213 1.327 . S
C2215 C2231 1.429 . S
C2215 H2237 0.950 . S
C2216 H2212 0.949 . S
C2216 C2224 1.574 . S
C2216 C2232 1.368 . S
H2217 C2225 0.950 . S
H2218 C2223 0.950 . S
H2219 C2224 0.949 . S
H2220 C2226 0.950 . S
H2221 C2227 0.950 . S
H2222 C2228 0.949 . S
C2223 H2218 0.950 . S
C2223 C2225 1.327 . S
C2223 C2229 1.429 . S
C2224 C2216 1.574 . S
C2224 H2219 0.949 . S
C2224 C2230 1.368 . S
C2225 C2209 1.349 . S
C2225 H2217 0.950 . S
C2225 C2223 1.327 . S
C2226 C2214 1.349 . S
C2226 H2220 0.950 . S
C2226 C2227 1.327 . S
C2227 H2221 0.950 . S
C2227 C2226 1.327 . S
C2227 C2231 1.429 . S
C2228 C2211 1.574 . S
C2228 H2222 0.949 . S
C2228 C2232 1.368 . S
C2229 C2210 1.429 . S
C2229 C2223 1.429 . S
C2229 C2230 1.523 . S
C2230 C2211 1.368 . S
C2230 C2224 1.368 . S
C2230 C2229 1.523 . S
C2231 C2215 1.429 . S
C2231 C2227 1.429 . S
C2231 C2232 1.523 . S
C2232 C2216 1.368 . S
C2232 C2228 1.368 . S
C2232 C2231 1.523 . S
H2233 C2208 0.950 . S
H2234 C2210 0.950 . S
H2235 C2211 0.949 . S
H2236 C2213 0.950 . S
H2237 C2215 0.950 . S
C2238 C2239 1.349 . S
C2238 C2240 1.327 . S
C2238 H2263 0.950 . S
C2239 C2238 1.349 . S
C2239 C2255 1.349 . S
C2240 C2238 1.327 . S
C2240 C2259 1.429 . S
C2240 H2264 0.950 . S
C2241 C2258 1.574 . S
C2241 C2260 1.368 . S
C2241 H2265 0.949 . S
H2242 C2246 0.949 . S
C2243 C2244 1.349 . S
C2243 C2245 1.327 . S
C2243 H2266 0.950 . S
C2244 C2243 1.349 . S
C2244 C2256 1.349 . S
C2245 C2243 1.327 . S
C2245 C2261 1.429 . S
C2245 H2267 0.950 . S
C2246 H2242 0.949 . S
C2246 C2254 1.574 . S
C2246 C2262 1.368 . S
H2247 C2255 0.950 . S
H2248 C2253 0.950 . S
H2249 C2254 0.949 . S
H2250 C2256 0.950 . S
H2251 C2257 0.950 . S
H2252 C2258 0.949 . S
C2253 H2248 0.950 . S
C2253 C2255 1.327 . S
C2253 C2259 1.429 . S
C2254 C2246 1.574 . S
C2254 H2249 0.949 . S
C2254 C2260 1.368 . S
C2255 C2239 1.349 . S
C2255 H2247 0.950 . S
C2255 C2253 1.327 . S
C2256 C2244 1.349 . S
C2256 H2250 0.950 . S
C2256 C2257 1.327 . S
C2257 H2251 0.950 . S
C2257 C2256 1.327 . S
C2257 C2261 1.429 . S
C2258 C2241 1.574 . S
C2258 H2252 0.949 . S
C2258 C2262 1.368 . S
C2259 C2240 1.429 . S
C2259 C2253 1.429 . S
C2259 C2260 1.523 . S
C2260 C2241 1.368 . S
C2260 C2254 1.368 . S
C2260 C2259 1.523 . S
C2261 C2245 1.429 . S
C2261 C2257 1.429 . S
C2261 C2262 1.523 . S
C2262 C2246 1.368 . S
C2262 C2258 1.368 . S
C2262 C2261 1.523 . S
H2263 C2238 0.950 . S
H2264 C2240 0.950 . S
H2265 C2241 0.949 . S
H2266 C2243 0.950 . S
H2267 C2245 0.950 . S
C2268 C2269 1.349 . S
C2268 C2270 1.327 . S
C2268 H2293 0.950 . S
C2269 C2268 1.349 . S
C2269 C2285 1.349 . S
C2270 C2268 1.327 . S
C2270 C2289 1.429 . S
C2270 H2294 0.950 . S
C2271 C2288 1.574 . S
C2271 C2290 1.368 . S
C2271 H2295 0.949 . S
H2272 C2276 0.949 . S
C2273 C2274 1.349 . S
C2273 C2275 1.327 . S
C2273 H2296 0.950 . S
C2274 C2273 1.349 . S
C2274 C2286 1.349 . S
C2275 C2273 1.327 . S
C2275 C2291 1.429 . S
C2275 H2297 0.950 . S
C2276 H2272 0.949 . S
C2276 C2284 1.574 . S
C2276 C2292 1.368 . S
H2277 C2285 0.950 . S
H2278 C2283 0.950 . S
H2279 C2284 0.949 . S
H2280 C2286 0.950 . S
H2281 C2287 0.950 . S
H2282 C2288 0.949 . S
C2283 H2278 0.950 . S
C2283 C2285 1.327 . S
C2283 C2289 1.429 . S
C2284 C2276 1.574 . S
C2284 H2279 0.949 . S
C2284 C2290 1.368 . S
C2285 C2269 1.349 . S
C2285 H2277 0.950 . S
C2285 C2283 1.327 . S
C2286 C2274 1.349 . S
C2286 H2280 0.950 . S
C2286 C2287 1.327 . S
C2287 H2281 0.950 . S
C2287 C2286 1.327 . S
C2287 C2291 1.429 . S
C2288 C2271 1.574 . S
C2288 H2282 0.949 . S
C2288 C2292 1.368 . S
C2289 C2270 1.429 . S
C2289 C2283 1.429 . S
C2289 C2290 1.523 . S
C2290 C2271 1.368 . S
C2290 C2284 1.368 . S
C2290 C2289 1.523 . S
C2291 C2275 1.429 . S
C2291 C2287 1.429 . S
C2291 C2292 1.523 . S
C2292 C2276 1.368 . S
C2292 C2288 1.368 . S
C2292 C2291 1.523 . S
H2293 C2268 0.950 . S
H2294 C2270 0.950 . S
H2295 C2271 0.949 . S
H2296 C2273 0.950 . S
H2297 C2275 0.950 . S
C864 C683 1.398 . S
C859 C74 1.348 . S
C894 C673 0.474 . S
C889 C142 0.797 . S
C924 C674 0.943 . S
C919 C231 0.912 . S
C949 C322 1.432 . S
C954 C696 1.541 . S
C979 C406 0.797 . S
C984 C699 0.474 . S
C1014 C682 0.943 . S
C1009 C494 0.912 . S
C1039 C562 1.432 . S
C1044 C672 1.541 . S
C1069 C651 1.348 . S
C1074 C690 1.398 . S
C1104 C703 1.570 . S
C1099 C58 1.481 . S
C1129 C151 1.438 . S
C1134 C752 1.427 . S
C1164 C730 2.654 . S
C1159 C224 2.550 . S
C1194 C744 0.861 . S
C1189 C315 0.857 . S
C1219 C399 0.859 . S
C1224 C705 0.862 . S
C1254 C758 1.563 . S
C1249 C478 1.498 . S
C1279 C571 1.394 . S
C1284 C714 1.423 . S
C1309 C644 2.544 . S
C1314 C735 2.630 . S
C1339 C67 2.544 . S
C1344 C761 2.626 . S
C1369 C392 1.438 . S
C1374 C745 1.433 . S
C1404 C704 2.654 . S
C1399 C487 2.553 . S
C1434 C736 0.861 . S
C1429 C578 0.864 . S
C1459 C658 1.484 . S
C1464 C727 1.573 . S
C1489 C238 1.496 . S
C1494 C734 1.560 . S
C1524 C721 1.421 . S
C1519 C308 1.391 . S
C1549 C158 0.859 . S
C1554 C713 0.856 . S
C1579 C662 1.348 . S
C1584 C776 1.401 . S
C1609 C394 0.797 . S
C1614 C766 0.477 . S
C1644 C767 0.943 . S
C1639 C483 0.913 . S
C1674 C789 1.541 . S
C1669 C574 1.435 . S
C1699 C154 0.797 . S
C1704 C792 0.471 . S
C1734 C775 0.943 . S
C1729 C242 0.910 . S
C1759 C310 1.432 . S
C1764 C765 1.538 . S
C1789 C63 1.348 . S
C1794 C783 1.395 . S
C1819 C646 1.484 . S
C1824 C796 1.570 . S
C1854 C845 1.430 . S
C1849 C403 1.438 . S
C1879 C476 2.552 . S
C1884 C823 2.654 . S
C1909 C567 0.861 . S
C1914 C837 0.861 . S
C1944 C798 0.860 . S
C1939 C147 0.859 . S
C1969 C226 1.496 . S
C1974 C851 1.563 . S
C2004 C807 1.420 . S
C1999 C319 1.394 . S
C2034 C828 2.628 . S
C2029 C56 2.544 . S
C2064 C854 2.628 . S
C2059 C655 2.544 . S
C2089 C140 1.438 . S
C2094 C838 1.430 . S
C2119 C235 2.552 . S
C2124 C797 2.653 . S
C2154 C829 0.861 . S
C2149 C326 0.861 . S
C2179 C70 1.484 . S
C2184 C820 1.570 . S
C2209 C490 1.496 . S
C2214 C827 1.562 . S
C2244 C814 1.421 . S
C2239 C560 1.394 . S
C2274 C806 0.859 . S
C2269 C410 0.859 . S
