# Generated by pormake.
# Topology eea, (3,6)-cn, num edge types: 1
# Building blocks:
#     Node 0, Type 0, BuildingBlock: OLANEW_clean_sbu_2, # of connection points: 3
#     Node 1, Type 0, BuildingBlock: OLANEW_clean_sbu_2, # of connection points: 3
#     Node 2, Type 0, BuildingBlock: OLANEW_clean_sbu_2, # of connection points: 3
#     Node 3, Type 0, BuildingBlock: OLANEW_clean_sbu_2, # of connection points: 3
#     Node 4, Type 0, BuildingBlock: OLANEW_clean_sbu_2, # of connection points: 3
#     Node 5, Type 0, BuildingBlock: OLANEW_clean_sbu_2, # of connection points: 3
#     Node 6, Type 0, BuildingBlock: OLANEW_clean_sbu_2, # of connection points: 3
#     Node 7, Type 0, BuildingBlock: OLANEW_clean_sbu_2, # of connection points: 3
#     Node 8, Type 0, BuildingBlock: OLANEW_clean_sbu_2, # of connection points: 3
#     Node 9, Type 0, BuildingBlock: OLANEW_clean_sbu_2, # of connection points: 3
#     Node 10, Type 0, BuildingBlock: OLANEW_clean_sbu_2, # of connection points: 3
#     Node 11, Type 0, BuildingBlock: OLANEW_clean_sbu_2, # of connection points: 3
#     Node 12, Type 0, BuildingBlock: OLANEW_clean_sbu_2, # of connection points: 3
#     Node 13, Type 0, BuildingBlock: OLANEW_clean_sbu_2, # of connection points: 3
#     Node 14, Type 0, BuildingBlock: OLANEW_clean_sbu_2, # of connection points: 3
#     Node 15, Type 0, BuildingBlock: OLANEW_clean_sbu_2, # of connection points: 3
#     Node 16, Type 0, BuildingBlock: OLANEW_clean_sbu_2, # of connection points: 3
#     Node 17, Type 0, BuildingBlock: OLANEW_clean_sbu_2, # of connection points: 3
#     Node 18, Type 1, BuildingBlock: CIFDUS_clean_sbu_1, # of connection points: 6
#     Node 19, Type 1, BuildingBlock: CIFDUS_clean_sbu_1, # of connection points: 6
#     Node 20, Type 1, BuildingBlock: CIFDUS_clean_sbu_1, # of connection points: 6
#     Node 21, Type 1, BuildingBlock: CIFDUS_clean_sbu_1, # of connection points: 6
#     Node 22, Type 1, BuildingBlock: CIFDUS_clean_sbu_1, # of connection points: 6
#     Node 23, Type 1, BuildingBlock: CIFDUS_clean_sbu_1, # of connection points: 6
#     Node 24, Type 1, BuildingBlock: CIFDUS_clean_sbu_1, # of connection points: 6
#     Node 25, Type 1, BuildingBlock: CIFDUS_clean_sbu_1, # of connection points: 6
#     Node 26, Type 1, BuildingBlock: CIFDUS_clean_sbu_1, # of connection points: 6
#     Edge 27, Type (0, 1), BuildingBlock: ZUJKAS_clean_linker_0, # of connection points: 2
#     Edge 28, Type (0, 1), BuildingBlock: ZUJKAS_clean_linker_0, # of connection points: 2
#     Edge 29, Type (0, 1), BuildingBlock: ZUJKAS_clean_linker_0, # of connection points: 2
#     Edge 30, Type (0, 1), BuildingBlock: ZUJKAS_clean_linker_0, # of connection points: 2
#     Edge 31, Type (0, 1), BuildingBlock: ZUJKAS_clean_linker_0, # of connection points: 2
#     Edge 32, Type (0, 1), BuildingBlock: ZUJKAS_clean_linker_0, # of connection points: 2
#     Edge 33, Type (0, 1), BuildingBlock: ZUJKAS_clean_linker_0, # of connection points: 2
#     Edge 34, Type (0, 1), BuildingBlock: ZUJKAS_clean_linker_0, # of connection points: 2
#     Edge 35, Type (0, 1), BuildingBlock: ZUJKAS_clean_linker_0, # of connection points: 2
#     Edge 36, Type (0, 1), BuildingBlock: ZUJKAS_clean_linker_0, # of connection points: 2
#     Edge 37, Type (0, 1), BuildingBlock: ZUJKAS_clean_linker_0, # of connection points: 2
#     Edge 38, Type (0, 1), BuildingBlock: ZUJKAS_clean_linker_0, # of connection points: 2
#     Edge 39, Type (0, 1), BuildingBlock: ZUJKAS_clean_linker_0, # of connection points: 2
#     Edge 40, Type (0, 1), BuildingBlock: ZUJKAS_clean_linker_0, # of connection points: 2
#     Edge 41, Type (0, 1), BuildingBlock: ZUJKAS_clean_linker_0, # of connection points: 2
#     Edge 42, Type (0, 1), BuildingBlock: ZUJKAS_clean_linker_0, # of connection points: 2
#     Edge 43, Type (0, 1), BuildingBlock: ZUJKAS_clean_linker_0, # of connection points: 2
#     Edge 44, Type (0, 1), BuildingBlock: ZUJKAS_clean_linker_0, # of connection points: 2
#     Edge 45, Type (0, 1), BuildingBlock: ZUJKAS_clean_linker_0, # of connection points: 2
#     Edge 46, Type (0, 1), BuildingBlock: ZUJKAS_clean_linker_0, # of connection points: 2
#     Edge 47, Type (0, 1), BuildingBlock: ZUJKAS_clean_linker_0, # of connection points: 2
#     Edge 48, Type (0, 1), BuildingBlock: ZUJKAS_clean_linker_0, # of connection points: 2
#     Edge 49, Type (0, 1), BuildingBlock: ZUJKAS_clean_linker_0, # of connection points: 2
#     Edge 50, Type (0, 1), BuildingBlock: ZUJKAS_clean_linker_0, # of connection points: 2
#     Edge 51, Type (0, 1), BuildingBlock: ZUJKAS_clean_linker_0, # of connection points: 2
#     Edge 52, Type (0, 1), BuildingBlock: ZUJKAS_clean_linker_0, # of connection points: 2
#     Edge 53, Type (0, 1), BuildingBlock: ZUJKAS_clean_linker_0, # of connection points: 2
#     Edge 54, Type (0, 1), BuildingBlock: ZUJKAS_clean_linker_0, # of connection points: 2
#     Edge 55, Type (0, 1), BuildingBlock: ZUJKAS_clean_linker_0, # of connection points: 2
#     Edge 56, Type (0, 1), BuildingBlock: ZUJKAS_clean_linker_0, # of connection points: 2
#     Edge 57, Type (0, 1), BuildingBlock: ZUJKAS_clean_linker_0, # of connection points: 2
#     Edge 58, Type (0, 1), BuildingBlock: ZUJKAS_clean_linker_0, # of connection points: 2
#     Edge 59, Type (0, 1), BuildingBlock: ZUJKAS_clean_linker_0, # of connection points: 2
#     Edge 60, Type (0, 1), BuildingBlock: ZUJKAS_clean_linker_0, # of connection points: 2
#     Edge 61, Type (0, 1), BuildingBlock: ZUJKAS_clean_linker_0, # of connection points: 2
#     Edge 62, Type (0, 1), BuildingBlock: ZUJKAS_clean_linker_0, # of connection points: 2
#     Edge 63, Type (0, 1), BuildingBlock: ZUJKAS_clean_linker_0, # of connection points: 2
#     Edge 64, Type (0, 1), BuildingBlock: ZUJKAS_clean_linker_0, # of connection points: 2
#     Edge 65, Type (0, 1), BuildingBlock: ZUJKAS_clean_linker_0, # of connection points: 2
#     Edge 66, Type (0, 1), BuildingBlock: ZUJKAS_clean_linker_0, # of connection points: 2
#     Edge 67, Type (0, 1), BuildingBlock: ZUJKAS_clean_linker_0, # of connection points: 2
#     Edge 68, Type (0, 1), BuildingBlock: ZUJKAS_clean_linker_0, # of connection points: 2
#     Edge 69, Type (0, 1), BuildingBlock: ZUJKAS_clean_linker_0, # of connection points: 2
#     Edge 70, Type (0, 1), BuildingBlock: ZUJKAS_clean_linker_0, # of connection points: 2
#     Edge 71, Type (0, 1), BuildingBlock: ZUJKAS_clean_linker_0, # of connection points: 2
#     Edge 72, Type (0, 1), BuildingBlock: ZUJKAS_clean_linker_0, # of connection points: 2
#     Edge 73, Type (0, 1), BuildingBlock: ZUJKAS_clean_linker_0, # of connection points: 2
#     Edge 74, Type (0, 1), BuildingBlock: ZUJKAS_clean_linker_0, # of connection points: 2
#     Edge 75, Type (0, 1), BuildingBlock: ZUJKAS_clean_linker_0, # of connection points: 2
#     Edge 76, Type (0, 1), BuildingBlock: ZUJKAS_clean_linker_0, # of connection points: 2
#     Edge 77, Type (0, 1), BuildingBlock: ZUJKAS_clean_linker_0, # of connection points: 2
#     Edge 78, Type (0, 1), BuildingBlock: ZUJKAS_clean_linker_0, # of connection points: 2
#     Edge 79, Type (0, 1), BuildingBlock: ZUJKAS_clean_linker_0, # of connection points: 2
#     Edge 80, Type (0, 1), BuildingBlock: ZUJKAS_clean_linker_0, # of connection points: 2
# Relax obj value: 0.064
# Max RMSD: 0.118
# Mean RMSD: 0.083
data_MOF--net-eea--node1-OLANEW_clean_sbu_2--node2-CIFDUS_clean_sbu_1--edge1-ZUJKAS_clean_linker_0
_symmetry_space_group_name_H-M    P1
_symmetry_Int_Tables_number       1
_symmetry_cell_setting            triclinic
loop_
_symmetry_equiv_pos_as_xyz
'x, y, z'
_cell_length_a     80.495866
_cell_length_b     79.107844
_cell_length_c     58.569302
_cell_angle_alpha  94.536204
_cell_angle_beta   90.175755
_cell_angle_gamma 120.32985
loop_
_atom_site_label
_atom_site_type_symbol
_atom_site_fract_x
_atom_site_fract_y
_atom_site_fract_z
_atom_type_partial_charge
O0 O 0.24866 0.13181 0.39392 0.0
Cd1 Cd 0.24057 0.13149 0.35344 0.0
O2 O 0.27048 0.12376 0.38505 0.0
Cd3 Cd 0.26037 0.11437 0.34924 0.0
O4 O 0.24395 0.08317 0.33742 0.0
C5 C 0.2339 0.07308 0.3532 0.0
O6 O 0.23372 0.0824 0.37271 0.0
C7 C 0.26206 0.12883 0.40007 0.0
C8 C 0.22604 0.15645 0.34853 0.0
O9 O 0.21463 0.13783 0.34827 0.0
O10 O 0.24421 0.16315 0.35074 0.0
O11 O 0.88322 0.12647 0.37902 0.0
Cd12 Cd 0.89219 0.1207 0.34065 0.0
O13 O 0.89078 0.10596 0.39271 0.0
Cd14 Cd 0.89255 0.09377 0.35883 0.0
O15 O 0.86926 0.06557 0.34386 0.0
C16 C 0.85352 0.06071 0.35345 0.0
O17 O 0.853 0.07331 0.36904 0.0
C18 C 0.88524 0.11838 0.39591 0.0
C19 C 0.93126 0.14663 0.33616 0.0
O20 O 0.91852 0.15052 0.32931 0.0
O21 O 0.9255 0.13032 0.34486 0.0
O22 O 0.88649 0.73872 0.3953 0.0
Cd23 Cd 0.89438 0.74644 0.35567 0.0
O24 O 0.85552 0.72057 0.38571 0.0
Cd25 Cd 0.85698 0.73316 0.35346 0.0
O26 O 0.84321 0.74895 0.3419 0.0
C27 C 0.82814 0.74523 0.35253 0.0
O28 O 0.82238 0.73226 0.36774 0.0
C29 C 0.86939 0.72669 0.40052 0.0
C30 C 0.93329 0.7607 0.34781 0.0
O31 O 0.92665 0.77242 0.35005 0.0
O32 O 0.92165 0.74236 0.34938 0.0
O33 O 0.15319 0.26765 0.63581 0.0
Cd34 Cd 0.1473 0.25356 0.67269 0.0
O35 O 0.13505 0.28114 0.63986 0.0
Cd36 Cd 0.12336 0.27071 0.6727 0.0
O37 O 0.09419 0.25758 0.68478 0.0
C38 C 0.08147 0.24537 0.66977 0.0
O39 O 0.08714 0.24135 0.6501 0.0
C40 C 0.1463 0.27753 0.62803 0.0
C41 C 0.1726 0.23997 0.68102 0.0
O42 O 0.15748 0.22984 0.66771 0.0
O43 O 0.17578 0.25652 0.69065 0.0
O44 O 0.75017 0.86942 0.64514 0.0
Cd45 Cd 0.764 0.8738 0.68384 0.0
O46 O 0.77881 0.88842 0.63216 0.0
Cd47 Cd 0.79185 0.9011 0.66637 0.0
O48 O 0.79755 0.92984 0.6806 0.0
C49 C 0.78705 0.93511 0.67068 0.0
O50 O 0.77377 0.92258 0.65521 0.0
C51 C 0.7608 0.87678 0.62845 0.0
C52 C 0.77852 0.84853 0.68512 0.0
O53 O 0.76153 0.84337 0.69156 0.0
O54 O 0.78885 0.86586 0.67877 0.0
O55 O 0.12011 0.86576 0.6259 0.0
Cd56 Cd 0.11077 0.87209 0.66381 0.0
O57 O 0.14819 0.87002 0.63711 0.0
Cd58 Cd 0.14709 0.88223 0.67135 0.0
O59 O 0.16194 0.91376 0.68155 0.0
C60 C 0.16592 0.92348 0.6641 0.0
O61 O 0.16017 0.91374 0.64369 0.0
C62 C 0.13551 0.86572 0.62123 0.0
C63 C 0.07253 0.84422 0.67034 0.0
O64 O 0.0768 0.85858 0.6583 0.0
O65 O 0.08632 0.84302 0.67953 0.0
O66 O 0.90571 0.45666 0.73074 0.0
Cd67 Cd 0.89232 0.454 0.69208 0.0
O68 O 0.93439 0.46343 0.71997 0.0
Cd69 Cd 0.92183 0.44999 0.68566 0.0
O70 O 0.90657 0.41832 0.6757 0.0
C71 C 0.91116 0.40919 0.68897 0.0
O72 O 0.92445 0.4195 0.70544 0.0
C73 C 0.92308 0.46174 0.73586 0.0
C74 C 0.88363 0.48373 0.68788 0.0
O75 O 0.87245 0.46827 0.69772 0.0
O76 O 0.89902 0.48524 0.67969 0.0
O77 O 0.54932 0.47413 0.71082 0.0
Cd78 Cd 0.55684 0.47086 0.67094 0.0
O79 O 0.55714 0.45194 0.71486 0.0
Cd80 Cd 0.55682 0.42676 0.72735 0.0
O81 O 0.53778 0.39673 0.71332 0.0
C82 C 0.52288 0.39402 0.70226 0.0
O83 O 0.52023 0.40898 0.70071 0.0
C84 C 0.55094 0.46279 0.72364 0.0
C85 C 0.59648 0.49008 0.66714 0.0
O86 O 0.58706 0.49911 0.6661 0.0
O87 O 0.58706 0.47162 0.66962 0.0
O88 O 0.55164 0.07469 0.7288 0.0
Cd89 Cd 0.55909 0.08107 0.68875 0.0
O90 O 0.5223 0.05032 0.71884 0.0
Cd91 Cd 0.52079 0.06153 0.68655 0.0
O92 O 0.50516 0.07553 0.67504 0.0
C93 C 0.5028 0.08612 0.69069 0.0
O94 O 0.5105 0.08837 0.71133 0.0
C95 C 0.53592 0.05999 0.73401 0.0
C96 C 0.59801 0.09488 0.68082 0.0
O97 O 0.59159 0.10675 0.68382 0.0
O98 O 0.5861 0.07649 0.68166 0.0
O99 O 0.81283 0.59193 0.96443 0.0
Cd100 Cd 0.81248 0.5853 0.00458 0.0
O101 O 0.802 0.61221 0.97201 0.0
Cd102 Cd 0.78973 0.59956 0.00363 0.0
O103 O 0.7598 0.58227 0.01244 0.0
C104 C 0.75018 0.59098 0.01228 0.0
O105 O 0.7591 0.6097 0.00875 0.0
C106 C 0.80903 0.60465 0.95804 0.0
C107 C 0.83756 0.57168 0.01383 0.0
O108 O 0.81941 0.55974 0.01042 0.0
O109 O 0.84391 0.59007 0.01291 0.0
O110 O 0.40365 0.18742 0.97725 0.0
Cd111 Cd 0.41299 0.1875 0.01704 0.0
O112 O 0.43348 0.21114 0.97637 0.0
Cd113 Cd 0.45717 0.23616 0.96264 0.0
O114 O 0.46847 0.2664 0.97605 0.0
C115 C 0.45595 0.27036 0.98374 0.0
O116 O 0.43767 0.25655 0.98209 0.0
C117 C 0.41705 0.20022 0.96626 0.0
C118 C 0.43306 0.16744 0.01808 0.0
O119 O 0.41465 0.1585 0.01863 0.0
O120 O 0.44221 0.18617 0.0176 0.0
O121 O 0.78778 0.2053 0.95957 0.0
Cd122 Cd 0.77785 0.20728 0.99875 0.0
O123 O 0.81079 0.19913 0.96802 0.0
Cd124 Cd 0.81408 0.21266 0.00287 0.0
O125 O 0.83303 0.24401 0.01341 0.0
C126 C 0.82855 0.25555 0.00488 0.0
O127 O 0.81228 0.24792 0.99256 0.0
C128 C 0.80005 0.20052 0.95326 0.0
C129 C 0.73968 0.17809 0.00449 0.0
O130 O 0.74359 0.19322 0.99409 0.0
O131 O 0.75369 0.17653 0.01223 0.0
O132 O 0.58087 0.79555 0.06183 0.0
Cd133 Cd 0.56664 0.79168 0.02346 0.0
O134 O 0.60706 0.79591 0.05048 0.0
Cd135 Cd 0.59455 0.7841 0.01588 0.0
O136 O 0.57955 0.75272 0.00501 0.0
C137 C 0.56609 0.74219 0.01775 0.0
O138 O 0.56132 0.75101 0.03419 0.0
C139 C 0.59723 0.79753 0.06655 0.0
C140 C 0.55391 0.81846 0.02079 0.0
O141 O 0.54335 0.8018 0.02871 0.0
O142 O 0.57046 0.82241 0.01379 0.0
O143 O 0.21266 0.78871 0.04335 0.0
Cd144 Cd 0.22462 0.78353 0.00658 0.0
O145 O 0.22732 0.77614 0.06146 0.0
Cd146 Cd 0.22844 0.76086 0.02947 0.0
O147 O 0.20548 0.73259 0.0139 0.0
C148 C 0.18891 0.72836 0.0206 0.0
O149 O 0.18737 0.74154 0.03408 0.0
C150 C 0.21799 0.78516 0.06194 0.0
C151 C 0.26372 0.81113 0.00396 0.0
O152 O 0.25068 0.8138 0.99526 0.0
O153 O 0.2583 0.79536 0.01375 0.0
O154 O 0.21782 0.39859 0.05807 0.0
Cd155 Cd 0.22594 0.40418 0.018 0.0
O156 O 0.18714 0.38873 0.05142 0.0
Cd157 Cd 0.18833 0.39692 0.01661 0.0
O158 O 0.17232 0.41023 0.00445 0.0
C159 C 0.16874 0.41936 0.02074 0.0
O160 O 0.1755 0.42033 0.04156 0.0
C161 C 0.20084 0.39171 0.06507 0.0
C162 C 0.26557 0.42206 0.01201 0.0
O163 O 0.25709 0.43209 0.01189 0.0
O164 O 0.25543 0.40376 0.01501 0.0
O165 O 0.47986 0.92856 0.29932 0.0
Cd166 Cd 0.4749 0.91435 0.33607 0.0
O167 O 0.47091 0.95037 0.30759 0.0
Cd168 Cd 0.45807 0.93857 0.33952 0.0
O169 O 0.42862 0.9239 0.35092 0.0
C170 C 0.41605 0.91541 0.3344 0.0
O171 O 0.42194 0.9158 0.31344 0.0
C172 C 0.47764 0.9425 0.2936 0.0
C173 C 0.50232 0.90336 0.34415 0.0
O174 O 0.48776 0.89293 0.33014 0.0
O175 O 0.504 0.91902 0.35468 0.0
O176 O 0.0692 0.51879 0.31046 0.0
Cd177 Cd 0.08216 0.52411 0.34996 0.0
O178 O 0.09887 0.54143 0.30657 0.0
Cd179 Cd 0.12326 0.56666 0.29372 0.0
O180 O 0.1362 0.5979 0.30311 0.0
C181 C 0.12839 0.60231 0.31954 0.0
O182 O 0.11399 0.58808 0.32932 0.0
C183 C 0.08195 0.53027 0.29765 0.0
C184 C 0.10321 0.50534 0.35414 0.0
O185 O 0.08563 0.49736 0.35973 0.0
O186 O 0.11105 0.52247 0.3469 0.0
O187 O 0.45376 0.54001 0.2936 0.0
Cd188 Cd 0.44526 0.54129 0.33356 0.0
O189 O 0.47532 0.53198 0.30229 0.0
Cd190 Cd 0.47871 0.54613 0.33687 0.0
O191 O 0.49453 0.57787 0.34656 0.0
C192 C 0.50271 0.58753 0.32961 0.0
O193 O 0.50087 0.57773 0.30967 0.0
C194 C 0.46533 0.53424 0.28728 0.0
C195 C 0.40652 0.51367 0.339 0.0
O196 O 0.41181 0.53143 0.33541 0.0
O197 O 0.41955 0.50894 0.34008 0.0
O198 O 0.47437 0.97444 0.0076 0.0
Mn199 Mn 0.50101 0.0008 0.01312 0.0
O200 O 0.45313 0.97871 0.02881 0.0
Mn201 Mn 0.47044 0.00328 0.04308 0.0
O202 O 0.52742 0.02777 0.01942 0.0
O203 O 0.51396 0.98492 0.0022 0.0
Mn204 Mn 0.53229 0.00142 0.98505 0.0
O205 O 0.49831 0.00713 0.97964 0.0
O206 O 0.55008 0.02356 0.00247 0.0
O207 O 0.50334 0.99485 0.04724 0.0
O208 O 0.48473 0.0036 0.06776 0.0
O209 O 0.53561 0.98064 0.98306 0.0
O210 O 0.52134 0.00539 0.95998 0.0
C211 C 0.48208 0.02837 0.02403 0.0
C212 C 0.45732 0.96844 0.01475 0.0
C213 C 0.54511 0.03373 0.01523 0.0
C214 C 0.52105 0.97359 0.99612 0.0
C215 C 0.50707 0.00803 0.96112 0.0
C216 C 0.4972 0.99823 0.06643 0.0
O217 O 0.48754 0.01555 0.02288 0.0
O218 O 0.46861 0.02498 0.03809 0.0
O219 O 0.02561 0.48945 0.01352 0.0
Mn220 Mn 0.00309 0.49525 0.01662 0.0
O221 O 0.02105 0.4693 0.04108 0.0
Mn222 Mn 0.99743 0.46551 0.05034 0.0
O223 O 0.98023 0.50094 0.02 0.0
O224 O 0.02067 0.52245 0.00683 0.0
Mn225 Mn 0.00849 0.52664 0.98502 0.0
O226 O 0.99338 0.48309 0.98231 0.0
O227 O 0.98673 0.52503 0.99721 0.0
O228 O 0.01306 0.50781 0.05091 0.0
O229 O 0.99851 0.48321 0.07326 0.0
O230 O 0.03182 0.54926 0.98916 0.0
O231 O 0.00422 0.50858 0.96079 0.0
C232 C 0.97293 0.44947 0.02749 0.0
C233 C 0.03072 0.47946 0.025 0.0
C234 C 0.97617 0.51298 0.0113 0.0
C235 C 0.03486 0.53996 0.00436 0.0
C236 C 0.99618 0.49026 0.96274 0.0
C237 C 0.00842 0.50141 0.07083 0.0
O238 O 0.98591 0.46775 0.02607 0.0
O239 O 0.97559 0.44152 0.04457 0.0
O240 O 0.53394 0.50431 0.0095 0.0
Mn241 Mn 0.50705 0.50177 0.00328 0.0
O242 O 0.55322 0.52489 0.9847 0.0
Mn243 Mn 0.53494 0.52993 0.97354 0.0
O244 O 0.47975 0.49879 0.99777 0.0
O245 O 0.49489 0.47401 0.01152 0.0
Mn246 Mn 0.47649 0.46865 0.03052 0.0
O247 O 0.50804 0.51231 0.03793 0.0
O248 O 0.45862 0.47238 0.01555 0.0
O249 O 0.50506 0.4896 0.96905 0.0
O250 O 0.52076 0.51464 0.94792 0.0
O251 O 0.47729 0.44587 0.0254 0.0
O252 O 0.48874 0.48551 0.05628 0.0
C253 C 0.52766 0.549 0.9899 0.0
C254 C 0.55023 0.51361 1.00032 0.0
C255 C 0.46255 0.48639 0.00325 0.0
C256 C 0.49132 0.45628 0.01264 0.0
C257 C 0.50095 0.50379 0.05631 0.0
C258 C 0.50955 0.49655 0.94947 0.0
O259 O 0.51965 0.53068 0.99511 0.0
O260 O 0.54091 0.55488 0.975 0.0
O261 O 0.14075 0.30861 0.33609 0.0
Mn262 Mn 0.16801 0.33273 0.3451 0.0
O263 O 0.12098 0.312 0.35996 0.0
Mn264 Mn 0.1379 0.33789 0.37033 0.0
O265 O 0.19647 0.35636 0.35312 0.0
O266 O 0.17744 0.31361 0.3377 0.0
Mn267 Mn 0.19644 0.32433 0.3193 0.0
O268 O 0.17014 0.34026 0.31082 0.0
O269 O 0.21554 0.3466 0.33555 0.0
O270 O 0.16578 0.32581 0.37996 0.0
O271 O 0.15035 0.34002 0.39736 0.0
O272 O 0.19398 0.30058 0.32302 0.0
O273 O 0.18703 0.32815 0.29298 0.0
C274 C 0.14848 0.35931 0.34591 0.0
C275 C 0.12434 0.30208 0.34472 0.0
C276 C 0.21323 0.35889 0.34848 0.0
C277 C 0.18041 0.29888 0.33617 0.0
C278 C 0.17744 0.33687 0.29268 0.0
C279 C 0.1597 0.33101 0.3982 0.0
O280 O 0.15811 0.35156 0.35346 0.0
O281 O 0.13287 0.35467 0.3565 0.0
O282 O 0.69304 0.82384 0.34832 0.0
Mn283 Mn 0.66867 0.82752 0.35127 0.0
O284 O 0.68439 0.7953 0.36312 0.0
Mn285 Mn 0.66225 0.79209 0.37542 0.0
O286 O 0.64444 0.83149 0.35515 0.0
O287 O 0.68596 0.85667 0.34716 0.0
Mn288 Mn 0.67081 0.86172 0.33009 0.0
O289 O 0.66222 0.81969 0.31618 0.0
O290 O 0.65531 0.86337 0.35172 0.0
O291 O 0.67518 0.83507 0.38681 0.0
O292 O 0.66557 0.80682 0.40266 0.0
O293 O 0.69523 0.8786 0.32256 0.0
O294 O 0.65673 0.84304 0.30601 0.0
C295 C 0.63663 0.78048 0.35546 0.0
C296 C 0.69659 0.81041 0.35378 0.0
C297 C 0.64264 0.84686 0.35799 0.0
C298 C 0.69998 0.86907 0.33556 0.0
C299 C 0.65586 0.82666 0.30179 0.0
C300 C 0.67236 0.8253 0.40439 0.0
O301 O 0.65061 0.79862 0.35554 0.0
O302 O 0.63953 0.76953 0.36833 0.0
O303 O 0.20218 0.84074 0.34317 0.0
Mn304 Mn 0.17432 0.83633 0.33794 0.0
O305 O 0.22224 0.86671 0.32421 0.0
Mn306 Mn 0.20338 0.86973 0.31042 0.0
O307 O 0.14574 0.83092 0.33288 0.0
O308 O 0.163 0.80831 0.3459 0.0
Mn309 Mn 0.14489 0.80397 0.36565 0.0
O310 O 0.17568 0.84789 0.37179 0.0
O311 O 0.1264 0.80072 0.34468 0.0
O312 O 0.17386 0.82588 0.30328 0.0
O313 O 0.19146 0.85291 0.28473 0.0
O314 O 0.15552 0.78918 0.37271 0.0
O315 O 0.15034 0.82416 0.38763 0.0
C316 C 0.18902 0.88207 0.32904 0.0
C317 C 0.21904 0.85308 0.33679 0.0
C318 C 0.12887 0.81562 0.33487 0.0
C319 C 0.16679 0.7967 0.35617 0.0
C320 C 0.16411 0.84169 0.38805 0.0
C321 C 0.18092 0.83437 0.28487 0.0
O322 O 0.18527 0.8642 0.32997 0.0
O323 O 0.20253 0.89237 0.31561 0.0
O324 O 0.80691 0.63977 0.6734 0.0
Mn325 Mn 0.83436 0.66538 0.67919 0.0
O326 O 0.78873 0.64544 0.69808 0.0
Mn327 Mn 0.80748 0.67027 0.70879 0.0
O328 O 0.86201 0.69104 0.68507 0.0
O329 O 0.84673 0.64878 0.67141 0.0
Mn330 Mn 0.86696 0.66379 0.65554 0.0
O331 O 0.83334 0.6711 0.64512 0.0
O332 O 0.88349 0.6813 0.67863 0.0
O333 O 0.83627 0.65957 0.7135 0.0
O334 O 0.82188 0.67275 0.73417 0.0
O335 O 0.85991 0.63844 0.64606 0.0
O336 O 0.86168 0.67598 0.63329 0.0
C337 C 0.81519 0.69446 0.69178 0.0
C338 C 0.79069 0.63459 0.68253 0.0
C339 C 0.87927 0.69393 0.68694 0.0
C340 C 0.84543 0.63384 0.65887 0.0
C341 C 0.84644 0.67672 0.63045 0.0
C342 C 0.83251 0.6653 0.73291 0.0
O343 O 0.82264 0.68319 0.68689 0.0
O344 O 0.80207 0.68925 0.70681 0.0
O345 O 0.35908 0.15608 0.67864 0.0
Mn346 Mn 0.33654 0.16175 0.68444 0.0
O347 O 0.35463 0.13254 0.70142 0.0
Mn348 Mn 0.33357 0.13091 0.71604 0.0
O349 O 0.31421 0.16782 0.68972 0.0
O350 O 0.35303 0.18863 0.67349 0.0
Mn351 Mn 0.34042 0.19082 0.65051 0.0
O352 O 0.32396 0.14856 0.65123 0.0
O353 O 0.31769 0.18757 0.662 0.0
O354 O 0.34859 0.17456 0.71795 0.0
O355 O 0.33982 0.1497 0.74018 0.0
O356 O 0.3628 0.21449 0.65436 0.0
O357 O 0.33766 0.17229 0.62768 0.0
C358 C 0.30631 0.11737 0.69782 0.0
C359 C 0.36397 0.14441 0.68655 0.0
C360 C 0.30866 0.17767 0.67855 0.0
C361 C 0.36634 0.20644 0.67065 0.0
C362 C 0.32707 0.15434 0.63094 0.0
C363 C 0.34772 0.16792 0.73761 0.0
O364 O 0.32024 0.13499 0.69556 0.0
O365 O 0.30988 0.10828 0.71279 0.0
O366 O 0.86693 0.17227 0.67466 0.0
Mn367 Mn 0.83944 0.16909 0.67004 0.0
O368 O 0.88818 0.20091 0.66114 0.0
Mn369 Mn 0.86994 0.20447 0.64694 0.0
O370 O 0.81152 0.16548 0.66586 0.0
O371 O 0.82747 0.14026 0.67499 0.0
Mn372 Mn 0.80771 0.13327 0.69235 0.0
O373 O 0.84009 0.17667 0.7052 0.0
O374 O 0.79021 0.13447 0.6735 0.0
O375 O 0.8389 0.1617 0.6345 0.0
O376 O 0.85919 0.18986 0.61941 0.0
O377 O 0.81348 0.1137 0.69257 0.0
O378 O 0.81545 0.15009 0.71877 0.0
C379 C 0.8556 0.21643 0.66605 0.0
C380 C 0.88426 0.18581 0.6713 0.0
C381 C 0.79412 0.15074 0.66614 0.0
C382 C 0.82796 0.12508 0.68094 0.0
C383 C 0.82963 0.1676 0.72157 0.0
C384 C 0.84674 0.17158 0.61722 0.0
O385 O 0.85102 0.19812 0.66572 0.0
O386 O 0.86978 0.22722 0.65367 0.0
H387 H 0.29398 0.81463 0.02946 0.0
H388 H 0.32804 0.8399 0.02876 0.0
H389 H 0.31435 0.86567 0.97484 0.0
H390 H 0.28022 0.84095 0.97609 0.0
H391 H 0.35365 0.84933 0.99626 0.0
H392 H 0.34398 0.91292 0.01982 0.0
H393 H 0.32497 0.88787 0.02162 0.0
H394 H 0.32975 0.89841 0.99455 0.0
C395 C 0.29823 0.82573 0.01749 0.0
C396 C 0.2844 0.82594 0.00298 0.0
C397 C 0.31771 0.84014 0.0171 0.0
C398 C 0.32374 0.85495 0.00208 0.0
C399 C 0.31 0.85478 0.98707 0.0
H400 H 0.43329 0.95726 0.97707 0.0
H401 H 0.40118 0.92761 0.97168 0.0
C402 C 0.2905 0.84056 0.98769 0.0
C403 C 0.34438 0.87048 0.00203 0.0
H404 H 0.37471 0.92028 0.00695 0.0
C405 C 0.35826 0.86484 0.99866 0.0
C406 C 0.35044 0.89075 0.00537 0.0
C407 C 0.33653 0.89786 0.01079 0.0
C408 C 0.37795 0.87891 0.99809 0.0
C409 C 0.3839 0.89912 0.00092 0.0
C410 C 0.37006 0.90476 0.00439 0.0
C411 C 0.40446 0.91481 0.00146 0.0
C412 C 0.39223 0.87208 0.99425 0.0
C413 C 0.41712 0.91713 0.01957 0.0
C414 C 0.43545 0.93394 0.02251 0.0
C415 C 0.4414 0.94861 0.00734 0.0
C416 C 0.42918 0.94582 0.98853 0.0
C417 C 0.41081 0.92902 0.98561 0.0
H418 H 0.38509 0.85646 0.98702 0.0
H419 H 0.40336 0.88134 0.9825 0.0
H420 H 0.39962 0.87342 0.01089 0.0
H421 H 0.41237 0.9066 0.03229 0.0
H422 H 0.44444 0.93615 0.03755 0.0
H423 H 0.14777 0.41552 0.98159 0.0
H424 H 0.12634 0.42874 0.97646 0.0
H425 H 0.14024 0.45528 0.0462 0.0
H426 H 0.1616 0.44228 0.05148 0.0
H427 H 0.09388 0.42134 0.00361 0.0
H428 H 0.14884 0.50078 0.00828 0.0
H429 H 0.15469 0.48168 0.00213 0.0
H430 H 0.15124 0.48816 0.03112 0.0
C431 C 0.14641 0.42436 0.99573 0.0
C432 C 0.15647 0.42795 0.0169 0.0
C433 C 0.13415 0.43186 0.99278 0.0
C434 C 0.13198 0.44324 0.01083 0.0
C435 C 0.14203 0.44687 0.03191 0.0
H436 H 0.05926 0.4858 0.05489 0.0
H437 H 0.08518 0.47872 0.04772 0.0
C438 C 0.15416 0.43933 0.03492 0.0
C439 C 0.11852 0.45062 0.00824 0.0
H440 H 0.11618 0.49267 0.01307 0.0
C441 C 0.09873 0.43693 0.00519 0.0
C442 C 0.12496 0.47097 0.01047 0.0
C443 C 0.14611 0.48628 0.01298 0.0
C444 C 0.08513 0.44305 0.00539 0.0
C445 C 0.09155 0.46339 0.00831 0.0
C446 C 0.11136 0.4771 0.01065 0.0
C447 C 0.0778 0.47047 0.01143 0.0
C448 C 0.06394 0.42777 0.00369 0.0
C449 C 0.0656 0.46891 0.99317 0.0
C450 C 0.05098 0.47332 0.99717 0.0
C451 C 0.0483 0.47901 0.01953 0.0
C452 C 0.06112 0.48145 0.03751 0.0
C453 C 0.07587 0.4774 0.03345 0.0
H454 H 0.06135 0.41263 0.00432 0.0
H455 H 0.05643 0.43084 0.01787 0.0
H456 H 0.05742 0.42841 0.98729 0.0
H457 H 0.06695 0.4636 0.97605 0.0
H458 H 0.04109 0.47111 0.98313 0.0
H459 H 0.57788 0.71994 0.99224 0.0
H460 H 0.56606 0.68477 0.99332 0.0
H461 H 0.5241 0.68063 0.04154 0.0
H462 H 0.53577 0.71572 0.04063 0.0
H463 H 0.56414 0.66561 0.03593 0.0
H464 H 0.4935 0.63577 0.98824 0.0
H465 H 0.51353 0.66016 0.98539 0.0
H466 H 0.5 0.65524 0.01075 0.0
C467 C 0.56598 0.71151 0.00285 0.0
C468 C 0.55775 0.72062 0.01635 0.0
C469 C 0.55933 0.69146 0.00356 0.0
C470 C 0.54424 0.68017 0.01753 0.0
C471 C 0.5357 0.6891 0.03058 0.0
H472 H 0.52374 0.56039 0.03462 0.0
H473 H 0.52434 0.59135 0.04685 0.0
C474 C 0.5424 0.70915 0.03001 0.0
C475 C 0.53766 0.6591 0.0187 0.0
H476 H 0.50088 0.61293 0.00125 0.0
C477 C 0.55023 0.65401 0.02861 0.0
C478 C 0.5195 0.64415 0.00919 0.0
C479 C 0.50581 0.64896 0.99764 0.0
C480 C 0.54544 0.63427 0.02835 0.0
C481 C 0.52744 0.61924 0.01821 0.0
C482 C 0.51454 0.62441 0.00931 0.0
C483 C 0.52344 0.59887 0.01223 0.0
C484 C 0.56018 0.62978 0.0376 0.0
C485 C 0.52135 0.59223 0.98895 0.0
C486 C 0.52047 0.57458 0.98214 0.0
C487 C 0.52181 0.56313 0.99837 0.0
C488 C 0.52241 0.56885 0.02181 0.0
C489 C 0.52313 0.58668 0.02874 0.0
H490 H 0.57423 0.64333 0.04245 0.0
H491 H 0.55479 0.62173 0.05308 0.0
H492 H 0.56258 0.62029 0.02466 0.0
H493 H 0.52159 0.6013 0.97587 0.0
H494 H 0.5202 0.57059 0.96394 0.0
H495 H 0.86672 0.27555 0.01954 0.0
H496 H 0.89 0.31067 0.01775 0.0
H497 H 0.845 0.31905 0.99104 0.0
H498 H 0.82165 0.28408 0.99268 0.0
H499 H 0.88844 0.33276 0.96705 0.0
H500 H 0.88317 0.36017 0.05583 0.0
H501 H 0.88171 0.33665 0.05038 0.0
H502 H 0.86241 0.33968 0.04038 0.0
C503 C 0.86173 0.28491 0.01355 0.0
C504 C 0.84233 0.27701 0.0062 0.0
C505 C 0.87506 0.30491 0.01243 0.0
C506 C 0.86917 0.31731 0.0041 0.0
C507 C 0.84978 0.30962 0.99736 0.0
H508 H 0.93696 0.44396 0.02203 0.0
H509 H 0.90909 0.41165 0.00969 0.0
C510 C 0.83648 0.28966 0.99839 0.0
C511 C 0.88326 0.33828 0.0021 0.0
H512 H 0.90498 0.38333 0.03236 0.0
C513 C 0.89205 0.34392 0.98122 0.0
C514 C 0.88768 0.35268 0.02054 0.0
C515 C 0.87831 0.34717 0.04314 0.0
C516 C 0.90541 0.36372 0.97838 0.0
C517 C 0.91029 0.3782 0.99709 0.0
C518 C 0.90115 0.37241 0.01786 0.0
C519 C 0.92603 0.39906 0.99663 0.0
C520 C 0.91399 0.36882 0.95532 0.0
C521 C 0.94472 0.40333 0.99156 0.0
C522 C 0.96054 0.42202 0.9978 0.0
C523 C 0.958 0.43658 0.00978 0.0
C524 C 0.93927 0.43313 0.01236 0.0
C525 C 0.92336 0.41451 0.00569 0.0
H526 H 0.90373 0.35846 0.94128 0.0
H527 H 0.91806 0.38404 0.95204 0.0
H528 H 0.92705 0.36747 0.95471 0.0
H529 H 0.94739 0.39175 0.98511 0.0
H530 H 0.97489 0.42419 0.99615 0.0
H531 H 0.72708 0.60593 0.02355 0.0
H532 H 0.69197 0.58811 0.0244 0.0
H533 H 0.69035 0.53365 0.0039 0.0
H534 H 0.72557 0.55133 0.00405 0.0
H535 H 0.66618 0.56826 0.99062 0.0
H536 H 0.65552 0.51705 0.05609 0.0
H537 H 0.67894 0.53744 0.051 0.0
H538 H 0.66848 0.51506 0.03217 0.0
C539 C 0.71925 0.59011 0.01957 0.0
C540 C 0.72906 0.57998 0.01401 0.0
C541 C 0.69918 0.57994 0.01999 0.0
C542 C 0.68849 0.55947 0.01461 0.0
C543 C 0.69827 0.54933 0.00883 0.0
H544 H 0.56557 0.49347 0.97914 0.0
H545 H 0.59929 0.50195 0.98418 0.0
C546 C 0.7184 0.55947 0.00882 0.0
C547 C 0.66711 0.54906 0.01409 0.0
H548 H 0.62728 0.51208 0.03642 0.0
C549 C 0.65772 0.55599 0.00067 0.0
C550 C 0.65604 0.53301 0.02718 0.0
C551 C 0.66525 0.5253 0.04258 0.0
C552 C 0.63765 0.54746 1.00015 0.0
C553 C 0.62666 0.5315 0.01324 0.0
C554 C 0.63587 0.52431 0.0264 0.0
C555 C 0.60558 0.52274 0.0138 0.0
C556 C 0.62824 0.55575 0.98594 0.0
C557 C 0.59789 0.53095 0.02951 0.0
C558 C 0.57862 0.52591 0.02685 0.0
C559 C 0.56692 0.51265 0.00844 0.0
C560 C 0.57425 0.50333 0.9938 0.0
C561 C 0.59349 0.50827 0.99655 0.0
H562 H 0.6388 0.56781 0.97611 0.0
H563 H 0.61712 0.54395 0.97373 0.0
H564 H 0.62089 0.56154 0.99733 0.0
H565 H 0.60714 0.54232 0.04274 0.0
H566 H 0.57339 0.53372 0.03784 0.0
H567 H 0.4171 0.12783 0.01012 0.0
H568 H 0.43366 0.1091 0.00653 0.0
H569 H 0.48842 0.16259 0.01999 0.0
H570 H 0.47195 0.18166 0.02341 0.0
H571 H 0.47244 0.12317 0.97386 0.0
H572 H 0.47566 0.11403 0.06694 0.0
H573 H 0.45603 0.11568 0.05453 0.0
H574 H 0.47967 0.13698 0.05762 0.0
C575 C 0.43266 0.13566 0.01242 0.0
C576 C 0.44322 0.15623 0.01702 0.0
C577 C 0.44208 0.12493 0.01025 0.0
C578 C 0.46219 0.13453 0.01285 0.0
C579 C 0.47286 0.15501 0.01778 0.0
H580 H 0.51412 0.06407 0.0331 0.0
H581 H 0.51502 0.09451 0.02551 0.0
C582 C 0.46344 0.16583 0.01977 0.0
C583 C 0.47182 0.12285 0.01056 0.0
H584 H 0.48488 0.09628 0.04129 0.0
C585 C 0.47554 0.11753 0.98858 0.0
C586 C 0.47573 0.11558 0.02981 0.0
C587 C 0.47162 0.12076 0.05365 0.0
C588 C 0.48262 0.10456 0.9853 0.0
C589 C 0.4858 0.09657 0.00449 0.0
C590 C 0.48273 0.10257 0.02656 0.0
C591 C 0.48976 0.08011 0.00225 0.0
C592 C 0.48626 0.09928 0.96128 0.0
C593 C 0.47624 0.06213 0.99029 0.0
C594 C 0.47599 0.04484 0.99431 0.0
C595 C 0.48911 0.04525 0.01049 0.0
C596 C 0.50413 0.06346 0.02016 0.0
C597 C 0.50446 0.08082 0.01608 0.0
H598 H 0.49023 0.11152 0.95037 0.0
H599 H 0.49789 0.09563 0.96117 0.0
H600 H 0.47286 0.0863 0.95346 0.0
H601 H 0.46452 0.06103 0.97991 0.0
H602 H 0.464 0.0309 0.9871 0.0
H603 H 0.72325 0.16531 0.04477 0.0
H604 H 0.68901 0.14229 0.05057 0.0
H605 H 0.67673 0.13416 0.97754 0.0
H606 H 0.71083 0.15767 0.97176 0.0
H607 H 0.6545 0.14748 0.02342 0.0
H608 H 0.65528 0.07723 0.01269 0.0
H609 H 0.6763 0.10003 0.02383 0.0
H610 H 0.66895 0.09627 0.99409 0.0
C611 C 0.71323 0.15844 0.03 0.0
C612 C 0.71952 0.16317 0.00784 0.0
C613 C 0.69374 0.14539 0.03332 0.0
C614 C 0.68043 0.1366 0.01447 0.0
C615 C 0.68682 0.14091 0.99227 0.0
H616 H 0.55823 0.06487 0.9907 0.0
H617 H 0.5914 0.09253 0.9934 0.0
C618 C 0.70621 0.15427 0.98899 0.0
C619 C 0.65974 0.12338 0.018 0.0
H620 H 0.62528 0.07499 0.01837 0.0
C621 C 0.64807 0.13163 0.02245 0.0
C622 C 0.65151 0.10278 0.01667 0.0
C623 C 0.66355 0.09338 0.01161 0.0
C624 C 0.62822 0.11969 0.02539 0.0
C625 C 0.61994 0.09905 0.02395 0.0
C626 C 0.63171 0.09085 0.01975 0.0
C627 C 0.59893 0.0855 0.02536 0.0
C628 C 0.6162 0.12915 0.03008 0.0
C629 C 0.59193 0.07281 0.04288 0.0
C630 C 0.57288 0.05705 0.04142 0.0
C631 C 0.56063 0.05384 0.02243 0.0
C632 C 0.5672 0.06749 0.00593 0.0
C633 C 0.58621 0.08318 0.00734 0.0
H634 H 0.62524 0.14528 0.03453 0.0
H635 H 0.60696 0.12655 0.01457 0.0
H636 H 0.60658 0.12246 0.0443 0.0
H637 H 0.60156 0.07429 0.05686 0.0
H638 H 0.56832 0.04637 0.05395 0.0
H639 H 0.82919 0.53805 0.03276 0.0
H640 H 0.85097 0.52573 0.04001 0.0
H641 H 0.89718 0.57592 0.01121 0.0
H642 H 0.87572 0.58879 0.00514 0.0
H643 H 0.86796 0.5139 0.01147 0.0
H644 H 0.92541 0.57621 0.06679 0.0
H645 H 0.90276 0.57466 0.06002 0.0
H646 H 0.92191 0.58411 0.0403 0.0
C647 C 0.84407 0.54655 0.02825 0.0
C648 C 0.85081 0.56442 0.01852 0.0
C649 C 0.85652 0.53952 0.03242 0.0
C650 C 0.87589 0.55007 0.02665 0.0
C651 C 0.88255 0.56784 0.01665 0.0
H652 H 0.95297 0.51608 0.98109 0.0
H653 H 0.92668 0.52212 0.98896 0.0
C654 C 0.87021 0.5751 0.01296 0.0
C655 C 0.88865 0.54174 0.02948 0.0
H656 H 0.93389 0.55346 0.04785 0.0
C657 C 0.88221 0.52246 0.01988 0.0
C658 C 0.90721 0.55272 0.04069 0.0
C659 C 0.91462 0.57298 0.05274 0.0
C660 C 0.89418 0.51433 0.02 0.0
C661 C 0.91317 0.52583 0.02967 0.0
C662 C 0.91929 0.54466 0.04044 0.0
C663 C 0.92769 0.51986 0.02543 0.0
C664 C 0.88667 0.4937 0.00907 0.0
C665 C 0.93689 0.51635 0.04338 0.0
C666 C 0.95199 0.51267 0.03886 0.0
C667 C 0.95821 0.51293 0.01643 0.0
C668 C 0.94847 0.5158 0.99855 0.0
C669 C 0.9334 0.5192 0.00299 0.0
H670 H 0.87066 0.48504 0.00816 0.0
H671 H 0.89161 0.49436 0.99132 0.0
H672 H 0.89223 0.48591 0.01874 0.0
H673 H 0.93271 0.51692 0.06085 0.0
H674 H 0.95942 0.5107 0.05294 0.0
H675 H 0.49018 0.29783 0.00516 0.0
H676 H 0.50139 0.33269 0.01513 0.0
H677 H 0.44623 0.32321 0.99145 0.0
H678 H 0.4347 0.28824 0.98262 0.0
H679 H 0.50575 0.35553 0.98311 0.0
H680 H 0.45722 0.36174 0.04543 0.0
H681 H 0.45782 0.33929 0.03965 0.0
H682 H 0.44379 0.34499 0.02106 0.0
C683 C 0.48035 0.30317 0.00259 0.0
C684 C 0.46173 0.29054 0.99276 0.0
C685 C 0.48672 0.32302 0.00837 0.0
C686 C 0.47468 0.33059 0.00402 0.0
C687 C 0.45567 0.3177 0.99542 0.0
H688 H 0.48359 0.43574 0.97121 0.0
H689 H 0.48475 0.40536 0.96725 0.0
C690 C 0.44915 0.29774 0.99014 0.0
C691 C 0.4829 0.35213 0.00493 0.0
H692 H 0.47462 0.38922 0.02267 0.0
C693 C 0.49914 0.36295 0.99215 0.0
C694 C 0.47425 0.36181 0.01666 0.0
C695 C 0.45743 0.35136 0.03165 0.0
C696 C 0.50649 0.38299 0.99002 0.0
C697 C 0.49731 0.39234 0.00081 0.0
C698 C 0.4815 0.38181 0.01426 0.0
C699 C 0.50316 0.41288 0.99778 0.0
C700 C 0.52368 0.39402 0.97586 0.0
C701 C 0.51457 0.42773 0.01502 0.0
C702 C 0.51425 0.44527 0.01696 0.0
C703 C 0.50211 0.44773 0.00205 0.0
C704 C 0.49324 0.43424 0.98272 0.0
C705 C 0.49365 0.41675 0.98066 0.0
H706 H 0.52989 0.38487 0.96955 0.0
H707 H 0.51936 0.39899 0.96091 0.0
H708 H 0.53498 0.40735 0.98621 0.0
H709 H 0.52195 0.42491 0.02839 0.0
H710 H 0.52099 0.45538 0.03218 0.0
H711 H 0.15493 0.71263 0.04191 0.0
H712 H 0.12998 0.67804 0.04053 0.0
H713 H 0.15991 0.66352 0.98877 0.0
H714 H 0.18542 0.69817 0.99062 0.0
H715 H 0.10533 0.65018 0.0075 0.0
H716 H 0.15779 0.63016 0.03896 0.0
H717 H 0.16362 0.65536 0.03869 0.0
H718 H 0.16356 0.64168 0.01264 0.0
C719 C 0.15615 0.70214 0.03003 0.0
C720 C 0.17238 0.70806 0.01673 0.0
C721 C 0.14185 0.68236 0.02928 0.0
C722 C 0.14342 0.66814 0.0151 0.0
C723 C 0.15879 0.67419 1.00043 0.0
H724 H 0.06795 0.54419 0.98893 0.0
H725 H 0.09763 0.57601 0.99525 0.0
C726 C 0.17327 0.69399 0.00138 0.0
C727 C 0.12945 0.64699 0.0167 0.0
H728 H 0.12572 0.60411 0.03081 0.0
C729 C 0.10978 0.64013 0.01266 0.0
C730 C 0.13531 0.63391 0.02347 0.0
C731 C 0.1562 0.64063 0.02889 0.0
C732 C 0.09582 0.62049 0.01501 0.0
C733 C 0.10167 0.60748 0.02207 0.0
C734 C 0.12132 0.61423 0.0258 0.0
C735 C 0.08742 0.58649 0.024 0.0
C736 C 0.07492 0.61372 0.00942 0.0
C737 C 0.07276 0.58115 0.03962 0.0
C738 C 0.05584 0.56281 0.03615 0.0
C739 C 0.05353 0.54985 0.01701 0.0
C740 C 0.06952 0.55389 0.00397 0.0
C741 C 0.08639 0.57223 0.00734 0.0
H742 H 0.07329 0.62441 0.99982 0.0
H743 H 0.06774 0.59924 0.99908 0.0
H744 H 0.06732 0.61205 0.02559 0.0
H745 H 0.0735 0.5919 0.05288 0.0
H746 H 0.04363 0.56009 0.04629 0.0
H747 H 0.2872 0.45076 0.98422 0.0
H748 H 0.32151 0.46459 0.9772 0.0
H749 H 0.32536 0.42881 0.02654 0.0
H750 H 0.29088 0.41409 0.0324 0.0
H751 H 0.35297 0.48559 0.00301 0.0
H752 H 0.34931 0.4153 0.97489 0.0
H753 H 0.32793 0.41693 0.97873 0.0
H754 H 0.34049 0.41494 0.00298 0.0
C755 C 0.29541 0.44582 0.99345 0.0
C756 C 0.28642 0.43122 0.00863 0.0
C757 C 0.31499 0.45371 0.98944 0.0
C758 C 0.32597 0.44737 0.00085 0.0
C759 C 0.31709 0.43338 0.01679 0.0
H760 H 0.44511 0.49927 0.0325 0.0
H761 H 0.41203 0.49231 0.0281 0.0
C762 C 0.29743 0.4251 0.0203 0.0
C763 C 0.34677 0.4557 0.99653 0.0
H764 H 0.38082 0.44296 0.98504 0.0
C765 C 0.35898 0.47625 0.99876 0.0
C766 C 0.35469 0.44359 0.99062 0.0
C767 C 0.34237 0.42149 0.98643 0.0
C768 C 0.37893 0.48493 0.99626 0.0
C769 C 0.38692 0.47276 0.99172 0.0
C770 C 0.37467 0.45229 0.98855 0.0
C771 C 0.40802 0.48072 0.99251 0.0
C772 C 0.39135 0.50704 0.9987 0.0
C773 C 0.41695 0.47691 0.97381 0.0
C774 C 0.436 0.481 0.97632 0.0
C775 C 0.44623 0.48889 0.99756 0.0
C776 C 0.43767 0.49379 0.01575 0.0
C777 C 0.41874 0.48974 0.01327 0.0
H778 H 0.38277 0.51419 0.99584 0.0
H779 H 0.3981 0.51204 0.01632 0.0
H780 H 0.40305 0.51205 0.98641 0.0
H781 H 0.40884 0.46975 0.95773 0.0
H782 H 0.44214 0.47655 0.96231 0.0
H783 H 0.52448 0.81858 0.04364 0.0
H784 H 0.51351 0.84233 0.04267 0.0
H785 H 0.55717 0.87439 0.99555 0.0
H786 H 0.56839 0.85078 0.99649 0.0
H787 H 0.54898 0.8946 0.04385 0.0
H788 H 0.49052 0.85096 0.97626 0.0
H789 H 0.49634 0.83873 0.99697 0.0
H790 H 0.51302 0.8511 0.9756 0.0
C791 C 0.53172 0.83064 0.03301 0.0
C792 C 0.54726 0.83278 0.02008 0.0
C793 C 0.52547 0.8442 0.03255 0.0
C794 C 0.53454 0.86002 0.01904 0.0
C795 C 0.55007 0.86227 0.00613 0.0
H796 H 0.51525 0.9439 0.96592 0.0
H797 H 0.51496 0.91436 0.97452 0.0
C798 C 0.55643 0.84878 0.00669 0.0
C799 C 0.52767 0.87413 0.01825 0.0
H800 H 0.49503 0.88168 0.99051 0.0
C801 C 0.53709 0.89183 0.03237 0.0
C802 C 0.51227 0.87035 0.00314 0.0
C803 C 0.50235 0.85179 0.98703 0.0
C804 C 0.53193 0.90629 0.03123 0.0
C805 C 0.51642 0.9026 0.01603 0.0
C806 C 0.50666 0.88447 0.00244 0.0
C807 C 0.51229 0.91837 0.01108 0.0
C808 C 0.54394 0.92577 0.04533 0.0
C809 C 0.50951 0.92999 0.02847 0.0
C810 C 0.51006 0.9474 0.02355 0.0
C811 C 0.51292 0.95297 0.00109 0.0
C812 C 0.51314 0.93999 0.98344 0.0
C813 C 0.51301 0.92303 0.98837 0.0
H814 H 0.55767 0.92756 0.05224 0.0
H815 H 0.54744 0.93821 0.03497 0.0
H816 H 0.53575 0.92666 0.06012 0.0
H817 H 0.50812 0.92629 0.04603 0.0
H818 H 0.50991 0.95719 0.03744 0.0
H819 H 0.96163 0.14698 0.35768 0.0
H820 H 0.99589 0.17159 0.3566 0.0
H821 H 0.98202 0.20237 0.30939 0.0
H822 H 0.94777 0.17827 0.31101 0.0
H823 H 0.02056 0.1831 0.32252 0.0
H824 H 0.01334 0.2458 0.35864 0.0
H825 H 0.99409 0.22062 0.35858 0.0
H826 H 0.9981 0.23347 0.33328 0.0
C827 C 0.9659 0.159 0.34706 0.0
C828 C 0.95201 0.16081 0.33459 0.0
C829 C 0.98547 0.17303 0.34645 0.0
C830 C 0.99147 0.18903 0.33328 0.0
C831 C 0.97767 0.19046 0.32018 0.0
H832 H 0.10082 0.28986 0.30637 0.0
H833 H 0.06889 0.25988 0.3011 0.0
C834 C 0.95811 0.1766 0.32102 0.0
C835 C 0.01215 0.20429 0.33327 0.0
H836 H 0.0433 0.25378 0.34263 0.0
C837 C 0.02555 0.19855 0.32699 0.0
C838 C 0.01867 0.22442 0.33941 0.0
C839 C 0.00533 0.23144 0.3481 0.0
C840 C 0.04524 0.21249 0.3262 0.0
C841 C 0.05155 0.23258 0.33157 0.0
C842 C 0.03825 0.23832 0.33806 0.0
C843 C 0.07206 0.24802 0.33179 0.0
C844 C 0.05922 0.20579 0.31951 0.0
C845 C 0.08447 0.25085 0.3504 0.0
C846 C 0.10257 0.2679 0.3534 0.0
C847 C 0.10851 0.28217 0.33772 0.0
C848 C 0.09664 0.27875 0.3183 0.0
C849 C 0.07843 0.26176 0.3154 0.0
H850 H 0.05176 0.18997 0.31307 0.0
H851 H 0.06855 0.21466 0.30608 0.0
H852 H 0.06871 0.20815 0.33467 0.0
H853 H 0.07964 0.24056 0.3634 0.0
H854 H 0.1114 0.27056 0.36877 0.0
H855 H 0.7961 0.74051 0.37347 0.0
H856 H 0.77993 0.7593 0.36982 0.0
H857 H 0.82056 0.79336 0.32081 0.0
H858 H 0.83698 0.77455 0.32432 0.0
H859 H 0.79966 0.80326 0.37785 0.0
H860 H 0.76486 0.7724 0.29036 0.0
H861 H 0.77239 0.75929 0.30764 0.0
H862 H 0.79007 0.7807 0.29501 0.0
C863 C 0.80159 0.75191 0.36179 0.0
C864 C 0.81785 0.75603 0.34918 0.0
C865 C 0.79233 0.76265 0.35977 0.0
C866 C 0.79903 0.77765 0.345 0.0
C867 C 0.8151 0.78171 0.33215 0.0
H868 H 0.72419 0.82739 0.32107 0.0
H869 H 0.75396 0.82561 0.31782 0.0
C870 C 0.82445 0.77097 0.3342 0.0
C871 C 0.78926 0.78919 0.34373 0.0
H872 H 0.75605 0.79288 0.31148 0.0
C873 C 0.7904 0.80133 0.36317 0.0
C874 C 0.77748 0.7869 0.32443 0.0
C875 C 0.77596 0.77409 0.30312 0.0
C876 C 0.77928 0.81042 0.36432 0.0
C877 C 0.76615 0.80674 0.34578 0.0
C878 C 0.76606 0.79573 0.32568 0.0
C879 C 0.75005 0.81076 0.34863 0.0
C880 C 0.78129 0.82331 0.3858 0.0
C881 C 0.73813 0.8032 0.36694 0.0
C882 C 0.72158 0.80437 0.36887 0.0
C883 C 0.71598 0.81265 0.35221 0.0
C884 C 0.72815 0.82095 0.33415 0.0
C885 C 0.74507 0.81986 0.33228 0.0
H886 H 0.79646 0.8315 0.3928 0.0
H887 H 0.77669 0.83403 0.38265 0.0
H888 H 0.77237 0.81394 0.39913 0.0
H889 H 0.74111 0.79551 0.37936 0.0
H890 H 0.71271 0.79804 0.38321 0.0
H891 H 0.21238 0.04832 0.38465 0.0
H892 H 0.19912 0.01291 0.38312 0.0
H893 H 0.22001 0.01296 0.3154 0.0
H894 H 0.23371 0.04868 0.3169 0.0
H895 H 0.1724 0.98156 0.35254 0.0
H896 H 0.24476 0.98864 0.35256 0.0
H897 H 0.24157 0.00947 0.35906 0.0
H898 H 0.23955 -0.00047 0.32986 0.0
C899 C 0.21406 0.04084 0.36931 0.0
C900 C 0.22425 0.05136 0.35096 0.0
C901 C 0.20642 0.02057 0.36847 0.0
C902 C 0.2088 0.01037 0.34931 0.0
C903 C 0.21829 0.02064 0.33052 0.0
H904 H 0.16094 0.88765 0.31368 0.0
H905 H 0.16238 0.91892 0.32277 0.0
C906 C 0.22601 0.04101 0.33135 0.0
C907 C 0.20199 0.98916 0.34967 0.0
H908 H 0.21781 0.95652 0.34998 0.0
C909 C 0.18229 0.97604 0.35203 0.0
C910 C 0.215 0.9821 0.34934 0.0
C911 C 0.23642 0.99564 0.34776 0.0
C912 C 0.1752 0.95594 0.35385 0.0
C913 C 0.18815 0.94881 0.35311 0.0
C914 C 0.20788 0.96201 0.35086 0.0
C915 C 0.1817 0.92758 0.35275 0.0
C916 C 0.15396 0.94263 0.35676 0.0
C917 C 0.19093 0.92132 0.36749 0.0
C918 C 0.19002 0.9033 0.36226 0.0
C919 C 0.18 0.8915 0.34216 0.0
C920 C 0.16843 0.89635 0.32952 0.0
C921 C 0.16942 0.91439 0.33461 0.0
H922 H 0.14741 0.95095 0.36477 0.0
H923 H 0.14659 0.936 0.33964 0.0
H924 H 0.15126 0.93057 0.36742 0.0
H925 H 0.20044 0.93123 0.38164 0.0
H926 H 0.19934 0.90003 0.37202 0.0
H927 H 0.52099 0.61132 0.29594 0.0
H928 H 0.53969 0.64713 0.29891 0.0
H929 H 0.52848 0.64917 0.37073 0.0
H930 H 0.50987 0.6131 0.36801 0.0
H931 H 0.52894 0.67453 0.31127 0.0
H932 H 0.58707 0.68288 0.37083 0.0
H933 H 0.56971 0.65952 0.35599 0.0
H934 H 0.56317 0.66919 0.38093 0.0
C935 C 0.5225 0.61932 0.31243 0.0
C936 C 0.51398 0.60932 0.33178 0.0
C937 C 0.53316 0.63983 0.31405 0.0
C938 C 0.53562 0.65084 0.33505 0.0
C939 C 0.527 0.64096 0.35441 0.0
H940 H 0.60405 0.77537 0.37355 0.0
H941 H 0.57451 0.74353 0.36625 0.0
C942 C 0.51631 0.62035 0.35282 0.0
C943 C 0.54739 0.67263 0.33643 0.0
H944 H 0.58884 0.71204 0.36083 0.0
C945 C 0.54199 0.68276 0.3222 0.0
C946 C 0.56449 0.68331 0.35057 0.0
C947 C 0.57161 0.67322 0.36531 0.0
C948 C 0.55331 0.70326 0.32166 0.0
C949 C 0.57035 0.71383 0.33571 0.0
C950 C 0.5756 0.70381 0.35021 0.0
C951 C 0.58377 0.73517 0.33496 0.0
C952 C 0.54723 0.7136 0.30602 0.0
C953 C 0.59803 0.74164 0.31875 0.0
C954 C 0.61494 0.75995 0.32289 0.0
C955 C 0.61776 0.77175 0.34338 0.0
C956 C 0.60212 0.76667 0.35744 0.0
C957 C 0.58532 0.7483 0.3535 0.0
H958 H 0.53273 0.70357 0.29758 0.0
H959 H 0.5471 0.72611 0.31589 0.0
H960 H 0.55786 0.71974 0.29258 0.0
H961 H 0.5971 0.73165 0.30437 0.0
H962 H 0.62688 0.76338 0.31195 0.0
H963 H 0.38626 0.89412 0.30276 0.0
H964 H 0.35185 0.87978 0.30831 0.0
H965 H 0.36395 0.90086 0.38001 0.0
H966 H 0.39858 0.91545 0.37461 0.0
H967 H 0.32792 0.85151 0.33851 0.0
H968 H 0.33108 0.92324 0.35612 0.0
H969 H 0.35038 0.92114 0.34326 0.0
H970 H 0.34737 0.91979 0.37355 0.0
C971 C 0.38165 0.89569 0.31976 0.0
C972 C 0.39518 0.90599 0.33824 0.0
C973 C 0.36196 0.88743 0.32289 0.0
C974 C 0.35538 0.88941 0.3445 0.0
C975 C 0.36878 0.89938 0.36312 0.0
H976 H 0.23896 0.86154 0.3779 0.0
H977 H 0.27179 0.86715 0.38309 0.0
C978 C 0.38853 0.90762 0.36003 0.0
C979 C 0.33449 0.88127 0.34729 0.0
H980 H 0.30086 0.89465 0.35797 0.0
C981 C 0.32198 0.86089 0.34297 0.0
C982 C 0.32682 0.89359 0.35295 0.0
C983 C 0.33953 0.91567 0.35657 0.0
C984 C 0.30193 0.85249 0.34406 0.0
C985 C 0.29424 0.86484 0.34944 0.0
C986 C 0.3068 0.88517 0.35421 0.0
C987 C 0.27324 0.85746 0.34791 0.0
C988 C 0.28918 0.83051 0.33927 0.0
C989 C 0.26302 0.8496 0.32666 0.0
C990 C 0.2444 0.84639 0.32377 0.0
C991 C 0.23565 0.85089 0.34208 0.0
C992 C 0.24531 0.85755 0.36373 0.0
C993 C 0.26406 0.86089 0.36661 0.0
H994 H 0.29711 0.82277 0.34259 0.0
H995 H 0.27635 0.8248 0.34987 0.0
H996 H 0.28413 0.82695 0.32093 0.0
H997 H 0.26992 0.84728 0.31186 0.0
H998 H 0.23731 0.84163 0.3068 0.0
H999 H 0.09444 0.47381 0.37775 0.0
H1000 H 0.10923 0.45336 0.37509 0.0
H1001 H 0.14962 0.49117 0.3281 0.0
H1002 H 0.13534 0.51214 0.33145 0.0
H1003 H 0.10887 0.4327 0.33799 0.0
H1004 H 0.18489 0.48284 0.36807 0.0
H1005 H 0.16639 0.48906 0.37268 0.0
H1006 H 0.17749 0.49207 0.34552 0.0
C1007 C 0.10672 0.47797 0.3672 0.0
C1008 C 0.11367 0.49448 0.3547 0.0
C1009 C 0.11516 0.46627 0.36568 0.0
C1010 C 0.13061 0.47073 0.35146 0.0
C1011 C 0.13801 0.48763 0.33956 0.0
H1012 H 0.14227 0.37001 0.30524 0.0
H1013 H 0.14159 0.4004 0.30283 0.0
C1014 C 0.12974 0.49954 0.34137 0.0
C1015 C 0.13756 0.45658 0.34743 0.0
H1016 H 0.17757 0.45205 0.34849 0.0
C1017 C 0.1239 0.43692 0.34037 0.0
C1018 C 0.15712 0.46205 0.35074 0.0
C1019 C 0.17229 0.48261 0.3599 0.0
C1020 C 0.12911 0.42251 0.33682 0.0
C1021 C 0.14884 0.42806 0.33914 0.0
C1022 C 0.16254 0.4478 0.34613 0.0
C1023 C 0.15512 0.41321 0.33665 0.0
C1024 C 0.11314 0.40137 0.33175 0.0
C1025 C 0.1655 0.4116 0.35486 0.0
C1026 C 0.16711 0.39483 0.35544 0.0
C1027 C 0.15781 0.37915 0.33823 0.0
C1028 C 0.14981 0.38197 0.31858 0.0
C1029 C 0.14886 0.3991 0.31757 0.0
H1030 H 0.09899 0.3992 0.33702 0.0
H1031 H 0.11179 0.39718 0.31302 0.0
H1032 H 0.11611 0.39127 0.34074 0.0
H1033 H 0.17073 0.42234 0.36969 0.0
H1034 H 0.17302 0.3929 0.37102 0.0
H1035 H 0.39015 0.47402 0.34158 0.0
H1036 H 0.35625 0.45011 0.34669 0.0
H1037 H 0.34269 0.49642 0.34869 0.0
H1038 H 0.37645 0.52035 0.34315 0.0
H1039 H 0.33405 0.44972 0.38314 0.0
H1040 H 0.30245 0.45514 0.3015 0.0
H1041 H 0.32795 0.4647 0.30624 0.0
H1042 H 0.31708 0.47814 0.31842 0.0
C1043 C 0.37994 0.47911 0.343 0.0
C1044 C 0.38599 0.49909 0.3419 0.0
C1045 C 0.36058 0.46543 0.34591 0.0
C1046 C 0.34689 0.47143 0.34776 0.0
C1047 C 0.35291 0.49137 0.34679 0.0
H1048 H 0.22096 0.39725 0.35441 0.0
H1049 H 0.25335 0.42687 0.35838 0.0
C1050 C 0.37224 0.50505 0.34376 0.0
C1051 C 0.32647 0.45691 0.35154 0.0
H1052 H 0.28064 0.43523 0.32794 0.0
C1053 C 0.32235 0.44661 0.37113 0.0
C1054 C 0.31121 0.453 0.33595 0.0
C1055 C 0.31483 0.46318 0.31424 0.0
C1056 C 0.30342 0.43238 0.3755 0.0
C1057 C 0.28817 0.428 0.35958 0.0
C1058 C 0.29225 0.4387 0.34028 0.0
C1059 C 0.26844 0.41084 0.36107 0.0
C1060 C 0.30006 0.42218 0.39716 0.0
C1061 C 0.26613 0.39212 0.36188 0.0
C1062 C 0.24784 0.37546 0.36016 0.0
C1063 C 0.23131 0.37694 0.35694 0.0
C1064 C 0.2334 0.39569 0.35726 0.0
C1065 C 0.2519 0.41256 0.35923 0.0
H1066 H 0.31088 0.43198 0.41104 0.0
H1067 H 0.28543 0.41732 0.40333 0.0
H1068 H 0.30169 0.4091 0.39376 0.0
H1069 H 0.27852 0.39021 0.36254 0.0
H1070 H 0.24673 0.3612 0.35984 0.0
H1071 H 0.52235 0.90758 0.38404 0.0
H1072 H 0.54519 0.89612 0.39018 0.0
H1073 H 0.5378 0.87472 0.31873 0.0
H1074 H 0.51473 0.88574 0.31259 0.0
H1075 H 0.53298 0.84752 0.36069 0.0
H1076 H 0.60141 0.91888 0.35618 0.0
H1077 H 0.5808 0.91824 0.36916 0.0
H1078 H 0.58023 0.91287 0.33879 0.0
C1079 C 0.52573 0.90055 0.36965 0.0
C1080 C 0.51674 0.89742 0.34787 0.0
C1081 C 0.5387 0.894 0.37318 0.0
C1082 C 0.54308 0.88457 0.35489 0.0
C1083 C 0.53445 0.88183 0.33306 0.0
H1084 H 0.61354 0.83393 0.32643 0.0
H1085 H 0.58734 0.84124 0.328 0.0
C1086 C 0.52129 0.8881 0.3296 0.0
C1087 C 0.55633 0.8771 0.35851 0.0
H1088 H 0.60395 0.8909 0.36051 0.0
C1089 C 0.54851 0.85698 0.36083 0.0
C1090 C 0.57652 0.88954 0.35861 0.0
C1091 C 0.58541 0.91112 0.35555 0.0
C1092 C 0.56044 0.84893 0.36302 0.0
C1093 C 0.58061 0.86133 0.36284 0.0
C1094 C 0.58845 0.8815 0.36086 0.0
C1095 C 0.59388 0.85353 0.3634 0.0
C1096 C 0.55155 0.82726 0.36541 0.0
C1097 C 0.60585 0.85754 0.38298 0.0
C1098 C 0.62076 0.8533 0.38211 0.0
C1099 C 0.62373 0.84484 0.36173 0.0
C1100 C 0.61102 0.83975 0.34259 0.0
C1101 C 0.59621 0.84411 0.3434 0.0
H1102 H 0.53578 0.81998 0.36762 0.0
H1103 H 0.55408 0.82005 0.34986 0.0
H1104 H 0.55851 0.82499 0.38033 0.0
H1105 H 0.6043 0.86492 0.3985 0.0
H1106 H 0.63074 0.85783 0.39683 0.0
H1107 H 0.11076 0.61636 0.34883 0.0
H1108 H 0.11847 0.6506 0.35615 0.0
H1109 H 0.16664 0.66906 0.31267 0.0
H1110 H 0.15911 0.63505 0.30518 0.0
H1111 H 0.15864 0.6893 0.3708 0.0
H1112 H 0.12405 0.68245 0.28583 0.0
H1113 H 0.11738 0.66189 0.30251 0.0
H1114 H 0.13881 0.67133 0.2866 0.0
C1115 C 0.12318 0.62776 0.34111 0.0
C1116 C 0.13421 0.62302 0.32617 0.0
C1117 C 0.12756 0.64726 0.34538 0.0
C1118 C 0.14303 0.66218 0.33481 0.0
C1119 C 0.1546 0.65762 0.32087 0.0
H1120 H 0.19648 0.78936 0.36025 0.0
H1121 H 0.1919 0.75629 0.35242 0.0
C1122 C 0.15023 0.6382 0.31655 0.0
C1123 C 0.14631 0.68231 0.33638 0.0
H1124 H 0.14487 0.71473 0.30286 0.0
C1125 C 0.15547 0.69498 0.35616 0.0
C1126 C 0.1415 0.68929 0.31752 0.0
C1127 C 0.12972 0.67556 0.29694 0.0
C1128 C 0.16059 0.71486 0.35728 0.0
C1129 C 0.15756 0.72246 0.33742 0.0
C1130 C 0.14774 0.70933 0.31795 0.0
C1131 C 0.16306 0.7435 0.33686 0.0
C1132 C 0.16855 0.72707 0.37999 0.0
C1133 C 0.14987 0.74806 0.32745 0.0
C1134 C 0.15348 0.76729 0.32972 0.0
C1135 C 0.16973 0.78213 0.34271 0.0
C1136 C 0.1839 0.77817 0.35003 0.0
C1137 C 0.18088 0.75907 0.34636 0.0
H1138 H 0.16373 0.71772 0.39453 0.0
H1139 H 0.18452 0.73471 0.38052 0.0
H1140 H 0.164 0.73815 0.38273 0.0
H1141 H 0.13605 0.7366 0.31984 0.0
H1142 H 0.14212 0.76989 0.3243 0.0
H1143 H 0.8225 0.04342 0.37984 0.0
H1144 H 0.79791 0.00868 0.37798 0.0
H1145 H 0.82214 0.99717 0.31724 0.0
H1146 H 0.84737 0.03195 0.31951 0.0
H1147 H 0.77023 0.98286 0.34711 0.0
H1148 H 0.82449 0.96026 0.35898 0.0
H1149 H 0.83061 0.98565 0.3624 0.0
H1150 H 0.82766 0.97337 0.33421 0.0
C1151 C 0.82254 0.03356 0.36595 0.0
C1152 C 0.8371 0.04033 0.35006 0.0
C1153 C 0.80846 0.01368 0.36493 0.0
C1154 C 0.80856 0.00022 0.34791 0.0
C1155 C 0.82223 0.00719 0.33101 0.0
H1156 H 0.73137 0.87788 0.31154 0.0
H1157 H 0.76069 0.91009 0.31758 0.0
C1158 C 0.83652 0.02707 0.33221 0.0
C1159 C 0.79476 0.97889 0.3485 0.0
H1160 H 0.79195 0.93459 0.35223 0.0
C1161 C 0.77499 0.97233 0.34836 0.0
C1162 C 0.80101 0.96517 0.35026 0.0
C1163 C 0.8221 0.97145 0.35169 0.0
C1164 C 0.76127 0.95239 0.34949 0.0
C1165 C 0.76752 0.93868 0.35115 0.0
C1166 C 0.78726 0.94519 0.35123 0.0
C1167 C 0.75352 0.91735 0.35106 0.0
C1168 C 0.74015 0.9461 0.34835 0.0
C1169 C 0.74079 0.91006 0.36885 0.0
C1170 C 0.7242 0.8914 0.36561 0.0
C1171 C 0.72011 0.88009 0.34441 0.0
C1172 C 0.73432 0.88622 0.32813 0.0
C1173 C 0.75094 0.90478 0.33142 0.0
H1174 H 0.7377 0.95777 0.34266 0.0
H1175 H 0.73185 0.9326 0.33642 0.0
H1176 H 0.73438 0.94272 0.36562 0.0
H1177 H 0.74273 0.91947 0.38431 0.0
H1178 H 0.71336 0.88717 0.37831 0.0
H1179 H 0.95641 0.7904 0.32206 0.0
H1180 H 0.99005 0.8018 0.31354 0.0
H1181 H 0.99019 0.75999 0.35654 0.0
H1182 H 0.95623 0.7477 0.36372 0.0
H1183 H 0.02142 0.8189 0.33882 0.0
H1184 H 0.01267 0.748 0.30255 0.0
H1185 H 0.99223 0.75093 0.30834 0.0
H1186 H 0.00421 0.74626 0.33097 0.0
C1187 C 0.96364 0.78358 0.3295 0.0
C1188 C 0.95374 0.76806 0.34333 0.0
C1189 C 0.98284 0.79007 0.32463 0.0
C1190 C 0.99259 0.78141 0.33385 0.0
C1191 C 0.98283 0.76636 0.34837 0.0
H1192 H 0.10482 0.81221 0.36757 0.0
H1193 H 0.07222 0.80639 0.36308 0.0
C1194 C 0.96348 0.75948 0.35269 0.0
C1195 C 0.01317 0.78869 0.3291 0.0
H1196 H 0.04504 0.77352 0.31478 0.0
C1197 C 0.02647 0.80898 0.33307 0.0
C1198 C 0.01989 0.77584 0.3214 0.0
C1199 C 0.00644 0.75409 0.31535 0.0
C1200 C 0.04629 0.81655 0.33079 0.0
C1201 C 0.05299 0.80356 0.32443 0.0
C1202 C 0.03975 0.78345 0.31946 0.0
C1203 C 0.07364 0.80994 0.32681 0.0
C1204 C 0.06017 0.83827 0.33611 0.0
C1205 C 0.0854 0.81438 0.30789 0.0
C1206 C 0.1043 0.81786 0.31044 0.0
C1207 C 0.11129 0.81668 0.33188 0.0
C1208 C 0.09973 0.81324 0.35086 0.0
C1209 C 0.08111 0.80988 0.34835 0.0
H1210 H 0.05264 0.84678 0.33815 0.0
H1211 H 0.06869 0.84075 0.35224 0.0
H1212 H 0.07044 0.84394 0.32222 0.0
H1213 H 0.07975 0.81444 0.29111 0.0
H1214 H 0.11293 0.82031 0.29557 0.0
H1215 H 0.19211 0.14885 0.32796 0.0
H1216 H 0.17936 0.1712 0.32743 0.0
H1217 H 0.22955 0.21606 0.36778 0.0
H1218 H 0.24279 0.19429 0.36705 0.0
H1219 H 0.16834 0.18673 0.35986 0.0
H1220 H 0.22849 0.24825 0.32065 0.0
H1221 H 0.22693 0.22476 0.32135 0.0
H1222 H 0.23724 0.243 0.34567 0.0
C1223 C 0.20049 0.1636 0.33641 0.0
C1224 C 0.21849 0.16993 0.34739 0.0
C1225 C 0.1932 0.17634 0.33616 0.0
C1226 C 0.20363 0.1955 0.3472 0.0
C1227 C 0.22151 0.20166 0.35842 0.0
H1228 H 0.19074 0.2951 0.37825 0.0
H1229 H 0.19263 0.26596 0.38449 0.0
C1230 C 0.22902 0.18914 0.35815 0.0
C1231 C 0.19552 0.20877 0.34803 0.0
H1232 H 0.20707 0.25591 0.34137 0.0
C1233 C 0.17676 0.20181 0.35562 0.0
C1234 C 0.20635 0.2284 0.34218 0.0
C1235 C 0.22576 0.23643 0.33176 0.0
C1236 C 0.16889 0.21414 0.35831 0.0
C1237 C 0.18015 0.23396 0.35368 0.0
C1238 C 0.19867 0.2408 0.34556 0.0
C1239 C 0.17298 0.24794 0.35586 0.0
C1240 C 0.14872 0.20606 0.36632 0.0
C1241 C 0.15999 0.24686 0.33899 0.0
C1242 C 0.15877 0.26352 0.33559 0.0
C1243 C 0.17076 0.28142 0.34877 0.0
C1244 C 0.18115 0.28142 0.36805 0.0
C1245 C 0.18251 0.26484 0.37138 0.0
H1246 H 0.14299 0.19135 0.37268 0.0
H1247 H 0.14832 0.21628 0.38015 0.0
H1248 H 0.13909 0.20469 0.3518 0.0
H1249 H 0.1526 0.23401 0.32674 0.0
H1250 H 0.15086 0.26323 0.32041 0.0
H1251 H 0.6204 0.5297 0.67151 0.0
H1252 H 0.6555 0.54799 0.67077 0.0
H1253 H 0.65583 0.49364 0.65988 0.0
H1254 H 0.62046 0.47501 0.66078 0.0
H1255 H 0.6823 0.53528 0.70191 0.0
H1256 H 0.68753 0.53915 0.60735 0.0
H1257 H 0.66739 0.53868 0.62141 0.0
H1258 H 0.66954 0.51716 0.61933 0.0
C1259 C 0.62788 0.52158 0.66882 0.0
C1260 C 0.61768 0.50092 0.66614 0.0
C1261 C 0.64791 0.53206 0.66847 0.0
C1262 C 0.65811 0.5221 0.6652 0.0
C1263 C 0.64809 0.5015 0.6624 0.0
H1264 H 0.78613 0.59865 0.66504 0.0
H1265 H 0.7551 0.56714 0.65899 0.0
C1266 C 0.62796 0.49093 0.66293 0.0
C1267 C 0.67931 0.5336 0.66516 0.0
H1268 H 0.71584 0.56013 0.63053 0.0
C1269 C 0.68979 0.54024 0.68628 0.0
C1270 C 0.68885 0.54015 0.64473 0.0
C1271 C 0.67787 0.53348 0.62181 0.0
C1272 C 0.70954 0.55418 0.68758 0.0
C1273 C 0.71892 0.56161 0.66725 0.0
C1274 C 0.70866 0.55409 0.646 0.0
C1275 C 0.73769 0.58009 0.66842 0.0
C1276 C 0.71995 0.56203 0.71082 0.0
C1277 C 0.73788 0.59757 0.67481 0.0
C1278 C 0.7552 0.61522 0.67802 0.0
C1279 C 0.77287 0.61591 0.67504 0.0
C1280 C 0.77274 0.59853 0.66742 0.0
C1281 C 0.75511 0.5806 0.66412 0.0
H1282 H 0.71237 0.55168 0.72398 0.0
H1283 H 0.73494 0.5649 0.71015 0.0
H1284 H 0.72066 0.57616 0.71627 0.0
H1285 H 0.72457 0.59747 0.67796 0.0
H1286 H 0.75472 0.62836 0.68356 0.0
H1287 H 0.49776 0.11178 0.7196 0.0
H1288 H 0.47633 0.12469 0.71368 0.0
H1289 H 0.45886 0.09318 0.64641 0.0
H1290 H 0.48025 0.08008 0.65219 0.0
H1291 H 0.47495 0.14712 0.67808 0.0
H1292 H 0.40785 0.07455 0.67989 0.0
H1293 H 0.43102 0.07912 0.69029 0.0
H1294 H 0.42511 0.07522 0.66002 0.0
C1295 C 0.48945 0.10764 0.70348 0.0
C1296 C 0.49067 0.09483 0.68639 0.0
C1297 C 0.47724 0.11508 0.70012 0.0
C1298 C 0.46589 0.10974 0.67971 0.0
C1299 C 0.46736 0.0973 0.6624 0.0
H1300 H 0.37089 0.12864 0.64721 0.0
H1301 H 0.39794 0.12275 0.64191 0.0
C1302 C 0.47965 0.0899 0.66569 0.0
C1303 C 0.45221 0.11685 0.67687 0.0
H1304 H 0.40423 0.10136 0.67257 0.0
C1305 C 0.45948 0.13714 0.67671 0.0
C1306 C 0.43206 0.10378 0.67525 0.0
C1307 C 0.42345 0.08196 0.67655 0.0
C1308 C 0.44709 0.1447 0.67492 0.0
C1309 C 0.42693 0.13164 0.67348 0.0
C1310 C 0.4197 0.11133 0.67333 0.0
C1311 C 0.41292 0.13861 0.67421 0.0
C1312 C 0.45569 0.1666 0.6746 0.0
C1313 C 0.41267 0.14992 0.69377 0.0
C1314 C 0.39735 0.1533 0.69671 0.0
C1315 C 0.38207 0.1455 0.68012 0.0
C1316 C 0.38278 0.13515 0.65994 0.0
C1317 C 0.39811 0.13169 0.65702 0.0
H1318 H 0.47068 0.17373 0.66879 0.0
H1319 H 0.4469 0.16999 0.66323 0.0
H1320 H 0.45614 0.17316 0.69222 0.0
H1321 H 0.42363 0.15501 0.7075 0.0
H1322 H 0.39681 0.16094 0.71263 0.0
H1323 H 0.91853 0.38636 0.7148 0.0
H1324 H 0.90148 0.35057 0.71323 0.0
H1325 H 0.86384 0.34671 0.65798 0.0
H1326 H 0.88106 0.38272 0.6592 0.0
H1327 H 0.8627 0.32464 0.71979 0.0
H1328 H 0.88309 0.31024 0.63289 0.0
H1329 H 0.89505 0.33434 0.6484 0.0
H1330 H 0.87179 0.32489 0.63426 0.0
C1331 C 0.9067 0.37795 0.70218 0.0
C1332 C 0.90118 0.38742 0.68708 0.0
C1333 C 0.89692 0.35746 0.70139 0.0
C1334 C 0.88145 0.34595 0.68544 0.0
C1335 C 0.8759 0.3553 0.67023 0.0
H1336 H 0.82625 0.22043 0.65105 0.0
H1337 H 0.82705 0.25163 0.65895 0.0
C1338 C 0.88573 0.37588 0.67099 0.0
C1339 C 0.8712 0.32418 0.68501 0.0
H1340 H 0.86253 0.28271 0.65217 0.0
C1341 C 0.86249 0.31542 0.70493 0.0
C1342 C 0.87098 0.31219 0.66564 0.0
C1343 C 0.88085 0.32083 0.64413 0.0
C1344 C 0.85379 0.29501 0.70612 0.0
C1345 C 0.85392 0.28307 0.68693 0.0
C1346 C 0.86217 0.2918 0.6668 0.0
C1347 C 0.84768 0.26195 0.68782 0.0
C1348 C 0.84471 0.28647 0.72797 0.0
C1349 C 0.85767 0.25663 0.70265 0.0
C1350 C 0.85689 0.23857 0.69836 0.0
C1351 C 0.84638 0.2258 0.67901 0.0
C1352 C 0.83417 0.22984 0.66634 0.0
C1353 C 0.83491 0.24787 0.67061 0.0
H1354 H 0.84001 0.29583 0.7377 0.0
H1355 H 0.83212 0.27138 0.72443 0.0
H1356 H 0.8555 0.28572 0.73902 0.0
H1357 H 0.86783 0.26727 0.71585 0.0
H1358 H 0.86677 0.23601 0.70808 0.0
H1359 H 0.1763 0.94741 0.62956 0.0
H1360 H 0.19744 0.98299 0.63207 0.0
H1361 H 0.20357 0.98459 0.7055 0.0
H1362 H 0.18246 0.94872 0.70316 0.0
H1363 H 0.19448 0.0137 0.65681 0.0
H1364 H 0.25942 0.01124 0.68431 0.0
H1365 H 0.23758 0.98956 0.67269 0.0
H1366 H 0.23898 -0.00051 0.70175 0.0
C1367 C 0.18203 0.95528 0.64631 0.0
C1368 C 0.17777 0.9452 0.66617 0.0
C1369 C 0.19408 0.97564 0.64769 0.0
C1370 C 0.2022 0.98638 0.66891 0.0
C1371 C 0.19762 0.9765 0.68891 0.0
H1372 H 0.27081 0.10896 0.70947 0.0
H1373 H 0.24223 0.07725 0.69742 0.0
C1374 C 0.18551 0.95604 0.68755 0.0
C1375 C 0.21595 0.00781 0.66975 0.0
H1376 H 0.26322 0.04256 0.68148 0.0
C1377 C 0.20952 0.02006 0.66221 0.0
C1378 C 0.23559 0.01596 0.67654 0.0
C1379 C 0.24342 0.00342 0.68412 0.0
C1380 C 0.22222 0.04036 0.66155 0.0
C1381 C 0.24179 0.04849 0.6685 0.0
C1382 C 0.24821 0.03621 0.67591 0.0
C1383 C 0.25585 0.06986 0.66977 0.0
C1384 C 0.21477 0.05297 0.65326 0.0
C1385 C 0.2725 0.07682 0.65712 0.0
C1386 C 0.28874 0.09516 0.66376 0.0
C1387 C 0.28855 0.10649 0.68333 0.0
C1388 C 0.27113 0.10066 0.69402 0.0
C1389 C 0.25484 0.08242 0.68727 0.0
H1390 H 0.20029 0.04399 0.6444 0.0
H1391 H 0.2137 0.06189 0.66815 0.0
H1392 H 0.22488 0.06326 0.64138 0.0
H1393 H 0.27357 0.06729 0.64362 0.0
H1394 H 0.30213 0.09915 0.65559 0.0
H1395 H 0.06434 0.25592 0.70401 0.0
H1396 H 0.0297 0.24271 0.70815 0.0
H1397 H 0.0171 0.20252 0.64778 0.0
H1398 H 0.05153 0.21561 0.64341 0.0
H1399 H 0.00301 0.24116 0.67067 0.0
H1400 H 0.983 0.16815 0.69951 0.0
H1401 H 0.00722 0.18905 0.70333 0.0
H1402 H 0.99825 0.17592 0.67554 0.0
C1403 C 0.05418 0.24411 0.69179 0.0
C1404 C 0.06066 0.23674 0.67344 0.0
C1405 C 0.03443 0.23664 0.69414 0.0
C1406 C 0.02091 0.22151 0.67841 0.0
C1407 C 0.02733 0.214 0.66027 0.0
H1408 H 0.89757 0.1633 0.65076 0.0
H1409 H 0.93108 0.17067 0.65431 0.0
C1410 C 0.04702 0.22156 0.65778 0.0
C1411 C 1.00008 0.21412 0.68022 0.0
H1412 H 0.95738 0.17354 0.69068 0.0
C1413 C 0.99303 0.22646 0.67526 0.0
C1414 C 0.98715 0.19482 0.68583 0.0
C1415 C 0.9942 0.18117 0.69152 0.0
C1416 C 0.97327 0.21991 0.67548 0.0
C1417 C 0.96031 0.20068 0.68145 0.0
C1418 C 0.96737 0.1883 0.68631 0.0
C1419 C 0.93938 0.1933 0.68243 0.0
C1420 C 0.96636 0.23344 0.66868 0.0
C1421 C 0.93274 0.20275 0.69794 0.0
C1422 C 0.91369 0.19848 0.696 0.0
C1423 C 0.90092 0.18447 0.67879 0.0
C1424 C 0.90706 0.17377 0.66456 0.0
C1425 C 0.92622 0.17813 0.66642 0.0
H1426 H 0.97732 0.24556 0.65925 0.0
H1427 H 0.95284 0.22519 0.65773 0.0
H1428 H 0.96337 0.24011 0.68434 0.0
H1429 H 0.94262 0.21432 0.7106 0.0
H1430 H 0.90934 0.20721 0.70678 0.0
H1431 H 0.76264 0.81305 0.70306 0.0
H1432 H 0.77354 0.7892 0.69926 0.0
H1433 H 0.82065 0.82804 0.65966 0.0
H1434 H 0.81024 0.85222 0.66407 0.0
H1435 H 0.77651 0.76964 0.66169 0.0
H1436 H 0.84851 0.8154 0.70606 0.0
H1437 H 0.83036 0.82235 0.70718 0.0
H1438 H 0.8449 0.82668 0.68262 0.0
C1439 C 0.77545 0.81659 0.69376 0.0
C1440 C 0.78564 0.83455 0.68396 0.0
C1441 C 0.78161 0.80292 0.69152 0.0
C1442 C 0.79803 0.8069 0.67936 0.0
C1443 C 0.80821 0.82482 0.66955 0.0
H1444 H 0.81224 0.70362 0.64813 0.0
H1445 H 0.81102 0.73309 0.64003 0.0
C1446 C 0.80219 0.8386 0.67202 0.0
C1447 C 0.8042 0.79208 0.67658 0.0
H1448 H 0.84192 0.78509 0.68688 0.0
C1449 C 0.79081 0.77296 0.66719 0.0
C1450 C 0.82283 0.79646 0.68386 0.0
C1451 C 0.83742 0.81627 0.69571 0.0
C1452 C 0.7953 0.7579 0.66554 0.0
C1453 C 0.81407 0.76232 0.6726 0.0
C1454 C 0.82765 0.78169 0.68117 0.0
C1455 C 0.81899 0.74671 0.67497 0.0
C1456 C 0.7795 0.73728 0.65751 0.0
C1457 C 0.82583 0.74554 0.69651 0.0
C1458 C 0.82755 0.72942 0.70067 0.0
C1459 C 0.8221 0.71385 0.6836 0.0
C1460 C 0.81691 0.71565 0.66142 0.0
C1461 C 0.81567 0.73222 0.65703 0.0
H1462 H 0.76502 0.73582 0.65754 0.0
H1463 H 0.78192 0.73344 0.63968 0.0
H1464 H 0.77941 0.72646 0.66856 0.0
H1465 H 0.82853 0.7564 0.71071 0.0
H1466 H 0.83116 0.72814 0.71806 0.0
H1467 H 0.04206 0.83126 0.63991 0.0
H1468 H 0.00814 0.80724 0.64527 0.0
H1469 H 0.02327 0.80026 0.71313 0.0
H1470 H 0.05733 0.82402 0.70772 0.0
H1471 H 0.996 0.76316 0.67301 0.0
H1472 H 0.97516 0.81879 0.70039 0.0
H1473 H 0.99283 0.82373 0.67908 0.0
H1474 H 0.9987 0.82282 0.70829 0.0
C1475 C 0.03813 0.82462 0.65598 0.0
C1476 C 0.05223 0.8295 0.67346 0.0
C1477 C 0.01881 0.81093 0.65898 0.0
C1478 C 0.01331 0.80219 0.67963 0.0
C1479 C 0.02734 0.8069 0.69707 0.0
H1480 H 0.90619 0.70705 0.72199 0.0
H1481 H 0.93888 0.73568 0.72213 0.0
C1482 C 0.04672 0.82039 0.69395 0.0
C1483 C 0.99284 0.7881 0.68294 0.0
H1484 H 0.95067 0.78538 0.69814 0.0
C1485 C 0.98608 0.76795 0.67862 0.0
C1486 C 0.98002 0.79455 0.68997 0.0
C1487 C 0.98689 0.81614 0.69476 0.0
C1488 C 0.96667 0.75397 0.68116 0.0
C1489 C 0.95387 0.76039 0.68857 0.0
C1490 C 0.96061 0.78057 0.69268 0.0
C1491 C 0.93335 0.74611 0.6916 0.0
C1492 C 0.95983 0.73244 0.67542 0.0
C1493 C 0.91923 0.74336 0.67524 0.0
C1494 C 0.90048 0.72734 0.67552 0.0
C1495 C 0.89573 0.71388 0.69206 0.0
C1496 C 0.90948 0.71749 0.70939 0.0
C1497 C 0.92815 0.73366 0.7093 0.0
H1498 H 0.97096 0.73012 0.667 0.0
H1499 H 0.95612 0.72486 0.69138 0.0
H1500 H 0.94662 0.72544 0.6639 0.0
H1501 H 0.92305 0.75275 0.66136 0.0
H1502 H 0.89024 0.72445 0.66156 0.0
H1503 H 0.19678 0.24854 0.71854 0.0
H1504 H 0.21898 0.23636 0.72467 0.0
H1505 H 0.20122 0.20346 0.6582 0.0
H1506 H 0.17883 0.21529 0.6521 0.0
H1507 H 0.20255 0.1829 0.7013 0.0
H1508 H 0.26937 0.2526 0.68503 0.0
H1509 H 0.25087 0.25352 0.70142 0.0
H1510 H 0.24642 0.2458 0.67135 0.0
C1511 C 0.19765 0.23874 0.70525 0.0
C1512 C 0.18606 0.23281 0.68487 0.0
C1513 C 0.21028 0.23178 0.70879 0.0
C1514 C 0.21167 0.21902 0.69188 0.0
C1515 C 0.20019 0.21316 0.67151 0.0
H1516 H 0.28193 0.17504 0.64861 0.0
H1517 H 0.25714 0.18351 0.65635 0.0
C1518 C 0.18743 0.21992 0.66806 0.0
C1519 C 0.22526 0.21191 0.69512 0.0
H1520 H 0.27243 0.22512 0.69017 0.0
C1521 C 0.21789 0.19219 0.69931 0.0
C1522 C 0.2452 0.22409 0.69237 0.0
C1523 C 0.2536 0.2452 0.68725 0.0
C1524 C 0.22998 0.18419 0.70016 0.0
C1525 C 0.24978 0.19621 0.69667 0.0
C1526 C 0.25724 0.21607 0.6932 0.0
C1527 C 0.26248 0.18789 0.69312 0.0
C1528 C 0.22152 0.16278 0.70373 0.0
C1529 C 0.27318 0.18686 0.71141 0.0
C1530 C 0.28737 0.18182 0.70703 0.0
C1531 C 0.29104 0.17807 0.68432 0.0
C1532 C 0.27942 0.17795 0.66628 0.0
C1533 C 0.26528 0.1828 0.67064 0.0
H1534 H 0.20607 0.15568 0.70777 0.0
H1535 H 0.22287 0.15486 0.68797 0.0
H1536 H 0.2297 0.16124 0.71792 0.0
H1537 H 0.27117 0.19082 0.72888 0.0
H1538 H 0.29627 0.18217 0.72118 0.0
H1539 H 0.77319 0.95262 0.64442 0.0
H1540 H 0.78436 0.98761 0.64516 0.0
H1541 H 0.82181 -0.00062 0.70446 0.0
H1542 H 0.81117 0.96431 0.70336 0.0
H1543 H 0.78494 0.01534 0.67614 0.0
H1544 H 0.85976 0.03328 0.65949 0.0
H1545 H 0.83973 0.00834 0.65741 0.0
H1546 H 0.85048 0.02116 0.68501 0.0
C1547 C 0.78368 0.9626 0.65778 0.0
C1548 C 0.79161 0.95576 0.67356 0.0
C1549 C 0.79005 0.98262 0.65817 0.0
C1550 C 0.80436 0.99618 0.67442 0.0
C1551 C 0.81124 0.98924 0.69128 0.0
H1552 H 0.85499 0.1207 0.70275 0.0
H1553 H 0.85146 0.08807 0.6985 0.0
C1554 C 0.80505 0.9692 0.69074 0.0
C1555 C 0.81259 0.01757 0.67291 0.0
H1556 H 0.85447 0.06015 0.66514 0.0
C1557 C 0.80012 0.02512 0.67365 0.0
C1558 C 0.83241 0.0303 0.6696 0.0
C1559 C 0.84637 0.02288 0.66761 0.0
C1560 C 0.80697 0.04509 0.67146 0.0
C1561 C 0.82678 0.05781 0.66801 0.0
C1562 C 0.83928 0.05032 0.66749 0.0
C1563 C 0.83474 0.07913 0.66633 0.0
C1564 C 0.79299 0.05252 0.67336 0.0
C1565 C 0.82847 0.08564 0.64838 0.0
C1566 C 0.83105 0.10459 0.65049 0.0
C1567 C 0.83924 0.11682 0.67092 0.0
C1568 C 0.84865 0.11159 0.68676 0.0
C1569 C 0.84623 0.09272 0.68462 0.0
H1570 H 0.77926 0.04181 0.68062 0.0
H1571 H 0.7994 0.06668 0.6843 0.0
H1572 H 0.78958 0.05507 0.65604 0.0
H1573 H 0.81988 0.07547 0.63388 0.0
H1574 H 0.82355 0.10816 0.63808 0.0
H1575 H 0.4847 0.38065 0.69385 0.0
H1576 H 0.4589 0.34625 0.68687 0.0
H1577 H 0.50117 0.32806 0.68337 0.0
H1578 H 0.52703 0.36236 0.69093 0.0
H1579 H 0.44984 0.31177 0.65359 0.0
H1580 H 0.4705 0.30718 0.74262 0.0
H1581 H 0.47817 0.33027 0.73085 0.0
H1582 H 0.48977 0.31645 0.7232 0.0
C1583 C 0.4885 0.36935 0.69111 0.0
C1584 C 0.50778 0.37402 0.6936 0.0
C1585 C 0.47377 0.34975 0.68702 0.0
C1586 C 0.47822 0.33472 0.68513 0.0
C1587 C 0.49754 0.33953 0.68521 0.0
H1588 H 0.40054 0.20986 0.66175 0.0
H1589 H 0.43038 0.2417 0.66807 0.0
C1590 C 0.51224 0.35906 0.68963 0.0
C1591 C 0.46292 0.31417 0.68669 0.0
H1592 H 0.44621 0.27762 0.7227 0.0
C1593 C 0.44907 0.30423 0.66859 0.0
C1594 C 0.46177 0.30465 0.70659 0.0
C1595 C 0.47571 0.31518 0.72705 0.0
C1596 C 0.43426 0.2847 0.66971 0.0
C1597 C 0.43354 0.275 0.68933 0.0
C1598 C 0.44713 0.28508 0.70758 0.0
C1599 C 0.41813 0.2546 0.69132 0.0
C1600 C 0.41926 0.27459 0.65016 0.0
C1601 C 0.40209 0.25098 0.70397 0.0
C1602 C 0.38515 0.2327 0.70064 0.0
C1603 C 0.38421 0.21806 0.68459 0.0
C1604 C 0.4011 0.22083 0.67456 0.0
C1605 C 0.41801 0.23911 0.67781 0.0
H1606 H 0.42046 0.28493 0.63761 0.0
H1607 H 0.42099 0.26277 0.64105 0.0
H1608 H 0.40456 0.26762 0.65682 0.0
H1609 H 0.40202 0.26283 0.71453 0.0
H1610 H 0.37216 0.231 0.70814 0.0
H1611 H 0.62345 0.12925 0.66356 0.0
H1612 H 0.65736 0.14145 0.65619 0.0
H1613 H 0.65315 0.08992 0.68208 0.0
H1614 H 0.61897 0.0772 0.68837 0.0
H1615 H 0.68656 0.1519 0.68435 0.0
H1616 H 0.67947 0.09049 0.62471 0.0
H1617 H 0.6589 0.09249 0.63288 0.0
H1618 H 0.66882 0.0823 0.65141 0.0
C1619 C 0.62973 0.12045 0.66749 0.0
C1620 C 0.61854 0.10223 0.67642 0.0
C1621 C 0.64911 0.12743 0.66325 0.0
C1622 C 0.6578 0.11646 0.66811 0.0
C1623 C 0.64669 0.09837 0.67741 0.0
H1624 H 0.77428 0.15362 0.70086 0.0
H1625 H 0.74158 0.14783 0.69888 0.0
C1626 C 0.62718 0.09119 0.68121 0.0
C1627 C 0.6787 0.12451 0.66461 0.0
H1628 H 0.71118 0.11321 0.6413 0.0
C1629 C 0.69187 0.14351 0.67464 0.0
C1630 C 0.68575 0.11372 0.65172 0.0
C1631 C 0.67246 0.09371 0.63938 0.0
C1632 C 0.71182 0.1517 0.67287 0.0
C1633 C 0.71888 0.1405 0.66107 0.0
C1634 C 0.70575 0.12181 0.65032 0.0
C1635 C 0.7397 0.14696 0.6619 0.0
C1636 C 0.72522 0.17223 0.68388 0.0
C1637 C 0.74966 0.14852 0.64172 0.0
C1638 C 0.76852 0.15179 0.64285 0.0
C1639 C 0.7775 0.15354 0.66418 0.0
C1640 C 0.76783 0.15292 0.68427 0.0
C1641 C 0.74911 0.14956 0.68316 0.0
H1642 H 0.71781 0.18085 0.68607 0.0
H1643 H 0.73031 0.17136 0.70113 0.0
H1644 H 0.73799 0.18023 0.67352 0.0
H1645 H 0.74257 0.14638 0.62512 0.0
H1646 H 0.77553 0.15167 0.62714 0.0
H1647 H 0.89342 0.50948 0.65486 0.0
H1648 H 0.88336 0.5339 0.65141 0.0
H1649 H 0.85313 0.51754 0.71382 0.0
H1650 H 0.86283 0.49304 0.7172 0.0
H1651 H 0.83227 0.51787 0.66745 0.0
H1652 H 0.89985 0.58641 0.69972 0.0
H1653 H 0.90099 0.56756 0.6815 0.0
H1654 H 0.89333 0.56305 0.71017 0.0
C1655 C 0.88478 0.51126 0.66792 0.0
C1656 C 0.87876 0.49929 0.68621 0.0
C1657 C 0.87905 0.52516 0.66592 0.0
C1658 C 0.8675 0.52743 0.68237 0.0
C1659 C 0.86194 0.51587 0.70091 0.0
H1660 H 0.8439 0.62261 0.70198 0.0
H1661 H 0.84538 0.59338 0.70953 0.0
C1662 C 0.86745 0.50188 0.70277 0.0
C1663 C 0.8604 0.54122 0.67994 0.0
H1664 H 0.87331 0.58947 0.68951 0.0
C1665 C 0.84119 0.53355 0.67225 0.0
C1666 C 0.87208 0.56155 0.68637 0.0
C1667 C 0.89274 0.57031 0.69496 0.0
C1668 C 0.83328 0.54574 0.67082 0.0
C1669 C 0.84496 0.56619 0.67718 0.0
C1670 C 0.86422 0.57379 0.68493 0.0
C1671 C 0.83819 0.58033 0.67439 0.0
C1672 C 0.81243 0.5365 0.66277 0.0
C1673 C 0.83216 0.58197 0.65258 0.0
C1674 C 0.83083 0.59841 0.64844 0.0
C1675 C 0.83594 0.61371 0.66587 0.0
C1676 C 0.83955 0.61091 0.68832 0.0
C1677 C 0.84078 0.59436 0.69252 0.0
H1678 H 0.80402 0.52083 0.66638 0.0
H1679 H 0.80563 0.54446 0.67103 0.0
H1680 H 0.81158 0.53693 0.64393 0.0
H1681 H 0.83036 0.57161 0.6382 0.0
H1682 H 0.82833 0.60037 0.6309 0.0
H1683 H 0.47999 0.97509 0.27711 0.0
H1684 H 0.48544 0.98431 0.23766 0.0
H1685 H 0.4892 0.93282 0.21736 0.0
H1686 H 0.48395 0.92354 0.25666 0.0
H1687 H 0.51931 0.98965 0.21127 0.0
H1688 H 0.44822 0.9321 0.17094 0.0
H1689 H 0.45178 0.93995 0.20126 0.0
H1690 H 0.46004 0.92398 0.18963 0.0
C1691 C 0.48203 0.96576 0.26427 0.0
C1692 C 0.48167 0.94865 0.27006 0.0
C1693 C 0.48508 0.97102 0.24176 0.0
C1694 C 0.48752 0.95912 0.22465 0.0
C1695 C 0.48714 0.94206 0.23033 0.0
H1696 H 0.4991 0.96605 0.07676 0.0
H1697 H 0.4994 0.95642 0.11565 0.0
C1698 C 0.48431 0.93689 0.25284 0.0
C1699 C 0.49129 0.96493 0.201 0.0
H1700 H 0.47192 0.95203 0.14613 0.0
C1701 C 0.50899 0.98144 0.19699 0.0
C1702 C 0.47778 0.95409 0.18249 0.0
C1703 C 0.4583 0.93661 0.18616 0.0
C1704 C 0.51368 0.98737 0.17482 0.0
C1705 C 0.50013 0.97667 0.15625 0.0
C1706 C 0.48242 0.96005 0.1603 0.0
C1707 C 0.50323 0.98348 0.13293 0.0
C1708 C 0.53319 0.00495 0.17154 0.0
C1709 C 0.50585 0.00204 0.1298 0.0
C1710 C 0.50592 0.00758 0.1078 0.0
C1711 C 0.5032 0.99461 0.08842 0.0
C1712 C 0.5017 0.97648 0.09141 0.0
C1713 C 0.5016 0.97089 0.11359 0.0
H1714 H 0.54392 0.00708 0.18513 0.0
H1715 H 0.53864 0.00344 0.15456 0.0
H1716 H 0.53201 0.01837 0.17267 0.0
H1717 H 0.50666 0.01182 0.14434 0.0
H1718 H 0.50681 0.02153 0.10592 0.0
H1719 H 0.10568 0.54486 0.2617 0.0
H1720 H 0.09656 0.5472 0.22273 0.0
H1721 H 0.0369 0.51873 0.23974 0.0
H1722 H 0.04601 0.51729 0.27901 0.0
H1723 H 0.07343 0.51812 0.19032 0.0
H1724 H 0.04219 0.56551 0.21041 0.0
H1725 H 0.05676 0.56229 0.23116 0.0
H1726 H 0.03162 0.54412 0.226 0.0
C1727 C 0.09071 0.53969 0.25742 0.0
C1728 C 0.07667 0.53148 0.27376 0.0
C1729 C 0.08547 0.54079 0.23498 0.0
C1730 C 0.06609 0.53364 0.22842 0.0
C1731 C 0.05201 0.52495 0.24455 0.0
H1732 H 0.9918 0.49981 0.11119 0.0
H1733 H 0.00847 0.51178 0.14892 0.0
C1734 C 0.05723 0.52396 0.26697 0.0
C1735 C 0.06038 0.53433 0.20446 0.0
H1736 H 0.03388 0.54784 0.17298 0.0
C1737 C 0.06508 0.52493 0.18645 0.0
C1738 C 0.04953 0.54326 0.1994 0.0
C1739 C 0.0449 0.55454 0.21775 0.0
C1740 C 0.05831 0.52324 0.16373 0.0
C1741 C 0.04682 0.53153 0.15882 0.0
C1742 C 0.04275 0.54157 0.17671 0.0
C1743 C 0.03696 0.5278 0.13588 0.0
C1744 C 0.06262 0.51165 0.14543 0.0
C1745 C 0.04732 0.53384 0.11592 0.0
C1746 C 0.03771 0.52716 0.09418 0.0
C1747 C 0.01765 0.5143 0.09219 0.0
C1748 C 0.00725 0.50981 0.11223 0.0
C1749 C 0.01679 0.51653 0.13382 0.0
H1750 H 0.0687 0.50328 0.1528 0.0
H1751 H 0.04938 0.50115 0.13482 0.0
H1752 H 0.0733 0.5219 0.13398 0.0
H1753 H 0.06289 0.54285 0.11713 0.0
H1754 H 0.04612 0.53063 0.07904 0.0
H1755 H 0.48092 0.51358 0.26663 0.0
H1756 H 0.48862 0.51235 0.22624 0.0
H1757 H 0.46559 0.54942 0.21221 0.0
H1758 H 0.45758 0.55052 0.25243 0.0
H1759 H 0.45707 0.50328 0.18268 0.0
H1760 H 0.52782 0.57338 0.19305 0.0
H1761 H 0.51836 0.55786 0.21628 0.0
H1762 H 0.50729 0.57129 0.20782 0.0
C1763 C 0.47736 0.52133 0.2549 0.0
C1764 C 0.46859 0.53208 0.26266 0.0
C1765 C 0.48178 0.52064 0.2319 0.0
C1766 C 0.47777 0.53091 0.21644 0.0
C1767 C 0.46879 0.54143 0.22399 0.0
H1768 H 0.4978 0.53606 0.06892 0.0
H1769 H 0.49331 0.5458 0.10841 0.0
C1770 C 0.46414 0.54194 0.24691 0.0
C1771 C 0.48308 0.5307 0.19237 0.0
H1772 H 0.51928 0.55559 0.15651 0.0
C1773 C 0.47056 0.51477 0.17686 0.0
C1774 C 0.50066 0.5458 0.18497 0.0
C1775 C 0.51444 0.56313 0.20129 0.0
C1776 C 0.4754 0.51336 0.15408 0.0
C1777 C 0.49328 0.52814 0.14682 0.0
C1778 C 0.50558 0.54435 0.16218 0.0
C1779 C 0.49993 0.52583 0.12392 0.0
C1780 C 0.46157 0.49583 0.138 0.0
C1781 C 0.50613 0.51226 0.11993 0.0
C1782 C 0.50885 0.50688 0.09765 0.0
C1783 C 0.50544 0.51501 0.07895 0.0
C1784 C 0.50092 0.52993 0.0831 0.0
C1785 C 0.49814 0.5353 0.10556 0.0
H1786 H 0.447 0.4877 0.14491 0.0
H1787 H 0.46028 0.50052 0.12103 0.0
H1788 H 0.46717 0.4856 0.13533 0.0
H1789 H 0.50761 0.50484 0.13392 0.0
H1790 H 0.51207 0.49514 0.09484 0.0
H1791 H 0.90053 0.44777 0.77229 0.0
H1792 H 0.91095 0.44866 0.81191 0.0
H1793 H 0.97032 0.48088 0.79409 0.0
H1794 H 0.96006 0.47981 0.75426 0.0
H1795 H 0.93922 0.43439 0.82541 0.0
H1796 H 0.96139 0.51225 0.85261 0.0
H1797 H 0.94381 0.49798 0.82933 0.0
H1798 H 0.96893 0.50738 0.82515 0.0
C1799 C 0.91582 0.45524 0.77683 0.0
C1800 C 0.92949 0.4638 0.76016 0.0
C1801 C 0.92171 0.4556 0.79943 0.0
C1802 C 0.94136 0.46481 0.80583 0.0
C1803 C 0.95507 0.47372 0.7894 0.0
H1804 H 0.01459 0.49281 0.92379 0.0
H1805 H 0.99929 0.4828 0.88523 0.0
C1806 C 0.94919 0.47312 0.7667 0.0
C1807 C 0.9476 0.465 0.82966 0.0
H1808 H 0.96947 0.49554 0.87827 0.0
C1809 C 0.94568 0.44767 0.8371 0.0
C1810 C 0.95588 0.48234 0.84478 0.0
C1811 C 0.95757 0.50107 0.83776 0.0
C1812 C 0.95252 0.44748 0.85916 0.0
C1813 C 0.96133 0.46498 0.87401 0.0
C1814 C 0.96274 0.48215 0.86675 0.0
C1815 C 0.9703 0.46637 0.8967 0.0
C1816 C 0.95094 0.42886 0.86629 0.0
C1817 C 0.95908 0.45948 0.91584 0.0
C1818 C 0.96788 0.46501 0.93802 0.0
C1819 C 0.98792 0.4776 0.94114 0.0
C1820 C 0.99915 0.48285 0.9218 0.0
C1821 C 0.99041 0.47732 0.89979 0.0
H1822 H 0.94469 0.41674 0.85225 0.0
H1823 H 0.96541 0.43167 0.87177 0.0
H1824 H 0.94171 0.42407 0.88122 0.0
H1825 H 0.9435 0.45113 0.91375 0.0
H1826 H 0.95888 0.46116 0.95266 0.0
H1827 H 0.5597 0.44785 0.75993 0.0
H1828 H 0.54864 0.44644 0.79901 0.0
H1829 H 0.51783 0.47531 0.78082 0.0
H1830 H 0.52803 0.47596 0.74166 0.0
H1831 H 0.55516 0.47711 0.83045 0.0
H1832 H 0.47668 0.42924 0.81131 0.0
H1833 H 0.49425 0.43158 0.79079 0.0
H1834 H 0.48727 0.44992 0.79457 0.0
C1835 C 0.5501 0.45334 0.76402 0.0
C1836 C 0.54435 0.46154 0.74742 0.0
C1837 C 0.54397 0.45274 0.78648 0.0
C1838 C 0.53199 0.46032 0.79271 0.0
C1839 C 0.52655 0.46881 0.77627 0.0
H1840 H 0.49618 0.50048 0.90913 0.0
H1841 H 0.49977 0.48755 0.87132 0.0
C1842 C 0.53258 0.46933 0.75389 0.0
C1843 C 0.52588 0.46035 0.81662 0.0
H1844 H 0.48628 0.44823 0.84801 0.0
C1845 C 0.5401 0.47045 0.8344 0.0
C1846 C 0.50621 0.4517 0.82173 0.0
C1847 C 0.49022 0.43984 0.80361 0.0
C1848 C 0.5352 0.47298 0.85692 0.0
C1849 C 0.51555 0.46491 0.86182 0.0
C1850 C 0.50132 0.45428 0.84422 0.0
C1851 C 0.50972 0.46925 0.88451 0.0
C1852 C 0.5511 0.48519 0.87504 0.0
C1853 C 0.513 0.4623 0.90441 0.0
C1854 C 0.51057 0.46941 0.9261 0.0
C1855 C 0.50503 0.48367 0.92804 0.0
C1856 C 0.50025 0.48932 0.90804 0.0
C1857 C 0.50245 0.48206 0.88646 0.0
H1858 H 0.56554 0.49271 0.8677 0.0
H1859 H 0.54863 0.49648 0.88429 0.0
H1860 H 0.55116 0.47555 0.88777 0.0
H1861 H 0.51846 0.45226 0.90321 0.0
H1862 H 0.5147 0.46512 0.94127 0.0
H1863 H 0.55447 0.0837 0.77318 0.0
H1864 H 0.54712 0.07566 0.81291 0.0
H1865 H 0.5029 0.01678 0.78854 0.0
H1866 H 0.5099 0.0247 0.74885 0.0
H1867 H 0.50331 0.05546 0.83047 0.0
H1868 H 0.5446 0.01683 0.83804 0.0
H1869 H 0.55122 0.03593 0.81902 0.0
H1870 H 0.53054 0.01205 0.8118 0.0
C1871 C 0.54332 0.06898 0.7763 0.0
C1872 C 0.53277 0.05481 0.75793 0.0
C1873 C 0.53907 0.06449 0.79895 0.0
C1874 C 0.52444 0.04569 0.80349 0.0
C1875 C 0.51419 0.03139 0.78526 0.0
H1876 H 0.4879 0.98351 0.92367 0.0
H1877 H 0.48922 0.99334 0.8848 0.0
C1878 C 0.51823 0.03593 0.76265 0.0
C1879 C 0.51976 0.04087 0.82731 0.0
H1880 H 0.52547 0.01608 0.86871 0.0
C1881 C 0.50817 0.04693 0.83897 0.0
C1882 C 0.52615 0.02972 0.83811 0.0
C1883 C 0.53891 0.02327 0.82627 0.0
C1884 C 0.50247 0.04173 0.86122 0.0
C1885 C 0.50874 0.03041 0.87199 0.0
C1886 C 0.52053 0.0246 0.86032 0.0
C1887 C 0.50361 0.02452 0.89549 0.0
C1888 C 0.48944 0.04795 0.8728 0.0
C1889 C 0.51038 0.03875 0.91443 0.0
C1890 C 0.50927 0.03308 0.93667 0.0
C1891 C 0.50152 0.01317 0.94012 0.0
C1892 C 0.49351 -0.0011 0.92135 0.0
C1893 C 0.49445 0.00452 0.89919 0.0
H1894 H 0.48219 0.05231 0.86031 0.0
H1895 H 0.47828 0.03591 0.88212 0.0
H1896 H 0.49814 0.06078 0.88546 0.0
H1897 H 0.51786 0.05426 0.91195 0.0
H1898 H 0.51606 0.04433 0.95091 0.0
H1899 H 0.12899 0.29294 0.60356 0.0
H1900 H 0.13356 0.30079 0.5638 0.0
H1901 H 0.17684 0.28397 0.5592 0.0
H1902 H 0.172 0.27556 0.5989 0.0
H1903 H 0.1651 0.32743 0.54412 0.0
H1904 H 0.14205 0.25271 0.50314 0.0
H1905 H 0.13787 0.25716 0.53267 0.0
H1906 H 0.16117 0.26149 0.52474 0.0
C1907 C 0.13954 0.29094 0.59416 0.0
C1908 C 0.15012 0.28358 0.60443 0.0
C1909 C 0.14208 0.29538 0.57138 0.0
C1910 C 0.15529 0.29262 0.55838 0.0
C1911 C 0.16621 0.28573 0.56871 0.0
H1912 H 0.18601 0.32176 0.41569 0.0
H1913 H 0.18689 0.31207 0.45463 0.0
C1914 C 0.16356 0.28111 0.59148 0.0
C1915 C 0.158 0.29763 0.53427 0.0
H1916 H 0.15492 0.27863 0.47886 0.0
C1917 C 0.163 0.31678 0.5299 0.0
C1918 C 0.15512 0.28368 0.51568 0.0
C1919 C 0.14857 0.26255 0.51919 0.0
C1920 C 0.16511 0.32234 0.50749 0.0
C1921 C 0.16217 0.30841 0.48891 0.0
C1922 C 0.15753 0.28936 0.49321 0.0
C1923 C 0.16144 0.31279 0.46496 0.0
C1924 C 0.17005 0.34302 0.50382 0.0
C1925 C 0.14659 0.31575 0.45786 0.0
C1926 C 0.14618 0.32138 0.43612 0.0
C1927 C 0.16052 0.32403 0.42069 0.0
C1928 C 0.17493 0.32007 0.4273 0.0
C1929 C 0.17542 0.31453 0.44944 0.0
H1930 H 0.17678 0.35321 0.51959 0.0
H1931 H 0.18 0.34874 0.48964 0.0
H1932 H 0.15665 0.34296 0.49915 0.0
H1933 H 0.13542 0.31402 0.46937 0.0
H1934 H 0.1345 0.32371 0.43145 0.0
H1935 H 0.7265 0.84557 0.61087 0.0
H1936 H 0.71179 0.84037 0.57236 0.0
H1937 H 0.76025 0.89517 0.5554 0.0
H1938 H 0.77537 0.89997 0.59338 0.0
H1939 H 0.70004 0.86174 0.55215 0.0
H1940 H 0.75707 0.85974 0.50114 0.0
H1941 H 0.75667 0.85875 0.53179 0.0
H1942 H 0.76587 0.88193 0.51978 0.0
C1943 C 0.7341 0.85636 0.59879 0.0
C1944 C 0.75216 0.87304 0.605 0.0
C1945 C 0.72568 0.85342 0.57684 0.0
C1946 C 0.73507 0.86722 0.56083 0.0
C1947 C 0.753 0.88402 0.56716 0.0
H1948 H 0.7005 0.86365 0.41722 0.0
H1949 H 0.71533 0.87725 0.45605 0.0
C1950 C 0.76159 0.88677 0.58892 0.0
C1951 C 0.72577 0.86433 0.53782 0.0
H1952 H 0.73209 0.86031 0.48043 0.0
C1953 C 0.70708 0.86146 0.53648 0.0
C1954 C 0.735 0.8641 0.51734 0.0
C1955 C 0.75467 0.8661 0.51753 0.0
C1956 C 0.69728 0.85814 0.51527 0.0
C1957 C 0.70638 0.8576 0.49484 0.0
C1958 C 0.72526 0.86101 0.49613 0.0
C1959 C 0.69581 0.85105 0.47218 0.0
C1960 C 0.67717 0.85503 0.51497 0.0
C1961 C 0.67973 0.83206 0.46856 0.0
C1962 C 0.67123 0.82441 0.44665 0.0
C1963 C 0.67877 0.83545 0.42774 0.0
C1964 C 0.69426 0.85488 0.43148 0.0
C1965 C 0.70282 0.86259 0.45359 0.0
H1966 H 0.67491 0.86235 0.53065 0.0
H1967 H 0.67417 0.86069 0.49968 0.0
H1968 H 0.66659 0.83905 0.51451 0.0
H1969 H 0.67435 0.82271 0.48247 0.0
H1970 H 0.65931 0.80938 0.44438 0.0
H1971 H 0.1104 0.85138 0.5836 0.0
H1972 H 0.11839 0.8517 0.54328 0.0
H1973 H 0.17831 0.87642 0.56381 0.0
H1974 H 0.17041 0.87561 0.60403 0.0
H1975 H 0.14212 0.88407 0.52105 0.0
H1976 H 0.16977 0.83237 0.51681 0.0
H1977 H 0.15643 0.83444 0.54049 0.0
H1978 H 0.18162 0.8522 0.53899 0.0
C1979 C 0.12522 0.85651 0.57952 0.0
C1980 C 0.13975 0.86333 0.59702 0.0
C1981 C 0.12978 0.85679 0.55648 0.0
C1982 C 0.14893 0.86394 0.55054 0.0
C1983 C 0.16339 0.87043 0.56798 0.0
H1984 H 0.19609 0.8656 0.41648 0.0
H1985 H 0.19516 0.87705 0.45651 0.0
C1986 C 0.15883 0.86996 0.59099 0.0
C1987 C 0.1539 0.86543 0.52615 0.0
H1988 H 0.17427 0.85016 0.48462 0.0
C1989 C 0.14919 0.87669 0.51306 0.0
C1990 C 0.16323 0.85591 0.51582 0.0
C1991 C 0.16791 0.8429 0.52867 0.0
C1992 C 0.15351 0.87865 0.48987 0.0
C1993 C 0.1626 0.86889 0.47943 0.0
C1994 C 0.16763 0.85795 0.49269 0.0
C1995 C 0.16474 0.86746 0.4543 0.0
C1996 C 0.14823 0.89114 0.47687 0.0
C1997 C 0.14825 0.85926 0.43953 0.0
C1998 C 0.14888 0.85306 0.41683 0.0
C1999 C 0.1659 0.85462 0.4085 0.0
C2000 C 0.18288 0.86446 0.4225 0.0
C2001 C 0.18228 0.87081 0.44537 0.0
H2002 H 0.14881 0.90328 0.48844 0.0
H2003 H 0.15791 0.89755 0.46263 0.0
H2004 H 0.13321 0.88191 0.46962 0.0
H2005 H 0.13446 0.85604 0.44598 0.0
H2006 H 0.13557 0.84541 0.4063 0.0
H2007 H 0.62901 0.79736 0.08292 0.0
H2008 H 0.63834 0.79811 0.12291 0.0
H2009 H 0.59022 0.80386 0.14498 0.0
H2010 H 0.58055 0.80276 0.10504 0.0
H2011 H 0.64812 0.8265 0.15885 0.0
H2012 H 0.58287 0.75714 0.17752 0.0
H2013 H 0.58879 0.76401 0.14869 0.0
H2014 H 0.5777 0.77466 0.16664 0.0
C2015 C 0.62045 0.79889 0.09627 0.0
C2016 C 0.60398 0.79991 0.09077 0.0
C2017 C 0.62578 0.79924 0.11911 0.0
C2018 C 0.61472 0.80058 0.13686 0.0
C2019 C 0.59865 0.80227 0.1315 0.0
H2020 H 0.62325 0.82093 0.28139 0.0
H2021 H 0.6131 0.8113 0.24085 0.0
C2022 C 0.59326 0.80184 0.10866 0.0
C2023 C 0.62029 0.80067 0.16103 0.0
H2024 H 0.60365 0.77737 0.20967 0.0
C2025 C 0.63853 0.8156 0.1699 0.0
C2026 C 0.6077 0.78642 0.17536 0.0
C2027 C 0.58824 0.76954 0.16654 0.0
C2028 C 0.64425 0.81715 0.19298 0.0
C2029 C 0.63153 0.80312 0.20742 0.0
C2030 C 0.61344 0.78795 0.19845 0.0
C2031 C 0.63593 0.80539 0.2324 0.0
C2032 C 0.6635 0.83429 0.20201 0.0
C2033 C 0.65159 0.80431 0.24126 0.0
C2034 C 0.65731 0.80962 0.26461 0.0
C2035 C 0.64747 0.81618 0.27912 0.0
C2036 C 0.63105 0.81592 0.27046 0.0
C2037 C 0.62525 0.81044 0.24734 0.0
H2038 H 0.67016 0.84555 0.18957 0.0
H2039 H 0.66192 0.84141 0.21831 0.0
H2040 H 0.67349 0.8289 0.20557 0.0
H2041 H 0.65988 0.80024 0.22996 0.0
H2042 H 0.67013 0.80991 0.27091 0.0
H2043 H 0.18332 0.76146 0.07823 0.0
H2044 H 0.17141 0.76561 0.11562 0.0
H2045 H 0.22474 0.82027 0.13199 0.0
H2046 H 0.23672 0.81599 0.0946 0.0
H2047 H 0.19082 0.77056 0.16043 0.0
H2048 H 0.18048 0.83296 0.14399 0.0
H2049 H 0.18189 0.81704 0.12114 0.0
H2050 H 0.20343 0.83594 0.13665 0.0
C2051 C 0.19235 0.77443 0.0898 0.0
C2052 C 0.21078 0.78854 0.08372 0.0
C2053 C 0.1856 0.77675 0.11108 0.0
C2054 C 0.19712 0.79332 0.12639 0.0
C2055 C 0.21555 0.80751 0.12023 0.0
H2056 H 0.21054 0.84317 0.25831 0.0
H2057 H 0.21022 0.82943 0.21974 0.0
C2058 C 0.22239 0.80509 0.099 0.0
C2059 C 0.19016 0.79548 0.14915 0.0
H2060 H 0.17976 0.82574 0.1829 0.0
C2061 C 0.18799 0.78236 0.16527 0.0
C2062 C 0.18645 0.81085 0.15526 0.0
C2063 C 0.18801 0.82494 0.13833 0.0
C2064 C 0.1833 0.78496 0.18785 0.0
C2065 C 0.18043 0.80084 0.19423 0.0
C2066 C 0.18168 0.81338 0.17779 0.0
C2067 C 0.18006 0.80711 0.21854 0.0
C2068 C 0.18265 0.7716 0.20523 0.0
C2069 C 0.16319 0.79866 0.23094 0.0
C2070 C 0.16328 0.80659 0.25337 0.0
C2071 C 0.18022 0.82308 0.26323 0.0
C2072 C 0.19716 0.83065 0.25102 0.0
C2073 C 0.19706 0.82282 0.22897 0.0
H2074 H 0.18455 0.75947 0.19739 0.0
H2075 H 0.19421 0.78026 0.21881 0.0
H2076 H 0.16865 0.76519 0.21361 0.0
H2077 H 0.14994 0.78642 0.22303 0.0
H2078 H 0.15007 0.80053 0.26245 0.0
H2079 H 0.22281 0.38683 0.09686 0.0
H2080 H 0.21566 0.3799 0.13685 0.0
H2081 H 0.16326 0.38153 0.12813 0.0
H2082 H 0.1699 0.38767 0.0881 0.0
H2083 H 0.21157 0.40126 0.17204 0.0
H2084 H 0.14287 0.33019 0.15527 0.0
H2085 H 0.15893 0.34199 0.13287 0.0
H2086 H 0.14294 0.35029 0.14301 0.0
C2087 C 0.20972 0.38559 0.10346 0.0
C2088 C 0.19684 0.38762 0.08928 0.0
C2089 C 0.20565 0.38165 0.1263 0.0
C2090 C 0.18873 0.37984 0.13539 0.0
C2091 C 0.17609 0.38228 0.12136 0.0
H2092 H 0.15431 0.35135 0.27844 0.0
H2093 H 0.15524 0.36476 0.24137 0.0
C2094 C 0.17999 0.3859 0.09848 0.0
C2095 C 0.18457 0.37581 0.15968 0.0
H2096 H 0.15215 0.34262 0.194 0.0
C2097 C 0.19848 0.38854 0.17681 0.0
C2098 C 0.1674 0.35927 0.16597 0.0
C2099 C 0.15225 0.34455 0.14832 0.0
C2100 C 0.19602 0.38481 0.19993 0.0
C2101 C 0.1792 0.36795 0.2061 0.0
C2102 C 0.16485 0.35573 0.18919 0.0
C2103 C 0.17829 0.36058 0.22875 0.0
C2104 C 0.21183 0.39847 0.21752 0.0
C2105 C 0.19063 0.35361 0.23354 0.0
C2106 C 0.18999 0.34587 0.25415 0.0
C2107 C 0.17694 0.34486 0.27075 0.0
C2108 C 0.16448 0.35191 0.26604 0.0
C2109 C 0.16502 0.35957 0.24497 0.0
H2110 H 0.22075 0.41336 0.21162 0.0
H2111 H 0.20581 0.3998 0.23416 0.0
H2112 H 0.22142 0.39246 0.2204 0.0
H2113 H 0.20078 0.35402 0.22115 0.0
H2114 H 0.2 0.34083 0.25706 0.0
H2115 H 0.81869 0.58778 0.92191 0.0
H2116 H 0.82413 0.59741 0.88268 0.0
H2117 H 0.81185 0.64368 0.90114 0.0
H2118 H 0.80629 0.63418 0.94038 0.0
H2119 H 0.79665 0.60307 0.85085 0.0
H2120 H 0.8684 0.66931 0.8751 0.0
H2121 H 0.85729 0.64892 0.89263 0.0
H2122 H 0.84841 0.66561 0.89203 0.0
C2123 C 0.81716 0.60002 0.91765 0.0
C2124 C 0.81227 0.61035 0.93432 0.0
C2125 C 0.82016 0.6054 0.89523 0.0
C2126 C 0.81849 0.62128 0.8892 0.0
C2127 C 0.81329 0.63144 0.90561 0.0
H2128 H 0.84115 0.68706 0.77354 0.0
H2129 H 0.83896 0.67536 0.81118 0.0
C2130 C 0.81017 0.626 0.928 0.0
C2131 C 0.82299 0.62775 0.86596 0.0
H2132 H 0.8572 0.664 0.83657 0.0
C2133 C 0.80991 0.61632 0.84758 0.0
C2134 C 0.84019 0.64513 0.86202 0.0
C2135 C 0.8545 0.65798 0.88141 0.0
C2136 C 0.81343 0.6221 0.82521 0.0
C2137 C 0.8309 0.63934 0.82112 0.0
C2138 C 0.844 0.65063 0.83963 0.0
C2139 C 0.83502 0.64708 0.7983 0.0
C2140 C 0.79801 0.61019 0.80647 0.0
C2141 C 0.83471 0.63554 0.77854 0.0
C2142 C 0.83589 0.64224 0.75682 0.0
C2143 C 0.83754 0.66058 0.75475 0.0
C2144 C 0.83976 0.6728 0.77468 0.0
C2145 C 0.83843 0.66609 0.79621 0.0
H2146 H 0.78376 0.60064 0.81355 0.0
H2147 H 0.79651 0.61989 0.79496 0.0
H2148 H 0.80197 0.60053 0.79606 0.0
H2149 H 0.83269 0.62105 0.77984 0.0
H2150 H 0.83404 0.63252 0.7417 0.0
H2151 H 0.40524 0.22421 0.95084 0.0
H2152 H 0.39519 0.2244 0.91113 0.0
H2153 H 0.4104 0.18092 0.88866 0.0
H2154 H 0.42021 0.18061 0.92828 0.0
H2155 H 0.41457 0.23081 0.86821 0.0
H2156 H 0.35259 0.15481 0.86946 0.0
H2157 H 0.36603 0.16972 0.89524 0.0
H2158 H 0.37545 0.15743 0.87712 0.0
C2159 C 0.40663 0.21493 0.93728 0.0
C2160 C 0.41335 0.20232 0.94238 0.0
C2161 C 0.40091 0.21504 0.91468 0.0
C2162 C 0.40174 0.20243 0.89702 0.0
C2163 C 0.40934 0.19052 0.90208 0.0
H2164 H 0.38133 0.1735 0.75383 0.0
H2165 H 0.39505 0.18547 0.79308 0.0
C2166 C 0.41502 0.1904 0.92462 0.0
C2167 C 0.39374 0.20082 0.87355 0.0
H2168 H 0.35972 0.16786 0.83313 0.0
C2169 C 0.40245 0.21713 0.86061 0.0
C2170 C 0.37778 0.18301 0.86374 0.0
C2171 C 0.36727 0.16528 0.87715 0.0
C2172 C 0.3961 0.21576 0.83774 0.0
C2173 C 0.38066 0.19776 0.82775 0.0
C2174 C 0.37156 0.18168 0.84092 0.0
C2175 C 0.37475 0.1946 0.8031 0.0
C2176 C 0.40615 0.2333 0.82405 0.0
C2177 C 0.35911 0.19633 0.79559 0.0
C2178 C 0.35129 0.18958 0.77301 0.0
C2179 C 0.3591 0.18112 0.75781 0.0
C2180 C 0.37545 0.18054 0.76505 0.0
C2181 C 0.38319 0.18721 0.78749 0.0
H2182 H 0.41729 0.24661 0.83458 0.0
H2183 H 0.4131 0.22986 0.80951 0.0
H2184 H 0.39542 0.23652 0.81668 0.0
H2185 H 0.3523 0.20182 0.80753 0.0
H2186 H 0.33835 0.18963 0.76798 0.0
H2187 H 0.8141 0.23073 0.92693 0.0
H2188 H 0.82239 0.23065 0.8866 0.0
H2189 H 0.80319 0.16882 0.88463 0.0
H2190 H 0.79543 0.16903 0.92529 0.0
H2191 H 0.84875 0.21489 0.86727 0.0
H2192 H 0.77385 0.17923 0.82945 0.0
H2193 H 0.78074 0.1923 0.85775 0.0
H2194 H 0.77759 0.16814 0.85314 0.0
C2195 C 0.81158 0.21713 0.91776 0.0
C2196 C 0.80405 0.19984 0.9289 0.0
C2197 C 0.81637 0.21713 0.89488 0.0
C2198 C 0.8133 0.19973 0.88275 0.0
C2199 C 0.8056 0.18236 0.89381 0.0
H2200 H 0.82609 0.14999 0.76002 0.0
H2201 H 0.82523 0.16247 0.79903 0.0
C2202 C 0.80118 0.18247 0.91689 0.0
C2203 C 0.81828 0.1997 0.85854 0.0
H2204 H 0.79809 0.18191 0.80445 0.0
C2205 C 0.83775 0.208 0.85343 0.0
C2206 C 0.80385 0.19083 0.84067 0.0
C2207 C 0.78281 0.18221 0.84537 0.0
C2208 C 0.84306 0.20664 0.83083 0.0
C2209 C 0.82855 0.19697 0.81315 0.0
C2210 C 0.80917 0.18951 0.81814 0.0
C2211 C 0.83267 0.1914 0.7902 0.0
C2212 C 0.86396 0.21454 0.82602 0.0
C2213 C 0.83783 0.20389 0.77249 0.0
C2214 C 0.83844 0.19678 0.74995 0.0
C2215 C 0.83362 0.1771 0.74514 0.0
C2216 C 0.82971 0.16519 0.76326 0.0
C2217 C 0.82923 0.17227 0.78554 0.0
H2218 H 0.87365 0.22269 0.84143 0.0
H2219 H 0.86613 0.20216 0.81998 0.0
H2220 H 0.86807 0.22447 0.81209 0.0
H2221 H 0.84048 0.21872 0.77591 0.0
H2222 H 0.84138 0.20617 0.73621 0.0
H2223 H 0.25613 0.14885 0.43659 0.0
H2224 H 0.26434 0.1498 0.4773 0.0
H2225 H 0.2861 0.11083 0.45959 0.0
H2226 H 0.2787 0.11045 0.41912 0.0
H2227 H 0.25218 0.12054 0.50586 0.0
H2228 H 0.33094 0.15461 0.49755 0.0
H2229 H 0.31514 0.15353 0.47486 0.0
H2230 H 0.3175 0.13248 0.47885 0.0
C2231 C 0.26284 0.14066 0.44143 0.0
C2232 C 0.26708 0.12985 0.42465 0.0
C2233 C 0.26746 0.14116 0.46466 0.0
C2234 C 0.27622 0.13072 0.47145 0.0
C2235 C 0.27994 0.11951 0.45473 0.0
H2236 H 0.32704 0.12611 0.60031 0.0
H2237 H 0.31082 0.11604 0.56186 0.0
C2238 C 0.27564 0.11927 0.43158 0.0
C2239 C 0.28133 0.13125 0.49598 0.0
H2240 H 0.31884 0.14136 0.5327 0.0
C2241 C 0.26676 0.12511 0.51179 0.0
C2242 C 0.30034 0.13722 0.50369 0.0
C2243 C 0.3169 0.14502 0.48789 0.0
C2244 C 0.27059 0.12436 0.53501 0.0
C2245 C 0.28963 0.13021 0.54272 0.0
C2246 C 0.30417 0.13644 0.52683 0.0
C2247 C 0.2954 0.13182 0.56734 0.0
C2248 C 0.25407 0.11702 0.55083 0.0
C2249 C 0.29143 0.14316 0.58358 0.0
C2250 C 0.30001 0.14813 0.60563 0.0
C2251 C 0.31326 0.14246 0.61175 0.0
C2252 C 0.3165 0.13021 0.59613 0.0
C2253 C 0.30743 0.12473 0.57411 0.0
H2254 H 0.24021 0.10635 0.54138 0.0
H2255 H 0.2563 0.10986 0.56515 0.0
H2256 H 0.25269 0.12962 0.55809 0.0
H2257 H 0.2829 0.1495 0.57879 0.0
H2258 H 0.29775 0.15808 0.61724 0.0
H2259 H 0.88597 0.15158 0.41443 0.0
H2260 H 0.87504 0.15663 0.45204 0.0
H2261 H 0.85891 0.09752 0.46551 0.0
H2262 H 0.87074 0.09283 0.42861 0.0
H2263 H 0.84027 0.13837 0.4688 0.0
H2264 H 0.88951 0.12666 0.52316 0.0
H2265 H 0.89253 0.12928 0.49293 0.0
H2266 H 0.87489 0.10614 0.50271 0.0
C2267 C 0.88034 0.1398 0.42561 0.0
C2268 C 0.87948 0.12195 0.41882 0.0
C2269 C 0.87404 0.14265 0.44702 0.0
C2270 C 0.86648 0.12757 0.46182 0.0
C2271 C 0.86527 0.10959 0.45479 0.0
H2272 H 0.83243 0.13231 0.60348 0.0
H2273 H 0.83256 0.11825 0.56454 0.0
C2274 C 0.87198 0.10691 0.43365 0.0
C2275 C 0.85947 0.13056 0.48432 0.0
H2276 H 0.86551 0.13034 0.542 0.0
C2277 C 0.84576 0.13656 0.4848 0.0
C2278 C 0.86647 0.12799 0.50521 0.0
C2279 C 0.88178 0.12234 0.50606 0.0
C2280 C 0.83914 0.14044 0.50557 0.0
C2281 C 0.84653 0.13839 0.52646 0.0
C2282 C 0.8597 0.1317 0.52596 0.0
C2283 C 0.84291 0.14557 0.549 0.0
C2284 C 0.82443 0.1469 0.50486 0.0
C2285 C 0.84825 0.16539 0.55303 0.0
C2286 C 0.84803 0.17333 0.575 0.0
C2287 C 0.84279 0.16173 0.59364 0.0
C2288 C 0.83643 0.14158 0.58947 0.0
C2289 C 0.8366 0.13358 0.56728 0.0
H2290 H 0.81517 0.14071 0.4888 0.0
H2291 H 0.8151 0.14239 0.51973 0.0
H2292 H 0.83203 0.16317 0.50519 0.0
H2293 H 0.85365 0.17508 0.53942 0.0
H2294 H 0.85294 0.1889 0.57754 0.0
H2295 H 0.89472 0.73899 0.43791 0.0
H2296 H 0.88719 0.73017 0.47726 0.0
H2297 H 0.82727 0.69219 0.4559 0.0
H2298 H 0.83461 0.70068 0.41659 0.0
H2299 H 0.8613 0.73591 0.50487 0.0
H2300 H 0.83952 0.65688 0.49161 0.0
H2301 H 0.85287 0.67415 0.47103 0.0
H2302 H 0.82741 0.66448 0.4727 0.0
C2303 C 0.87998 0.72859 0.44152 0.0
C2304 C 0.86528 0.72052 0.42407 0.0
C2305 C 0.87569 0.72361 0.46402 0.0
C2306 C 0.8567 0.71039 0.46942 0.0
C2307 C 0.84206 0.70216 0.45202 0.0
H2308 H 0.81406 0.66412 0.60228 0.0
H2309 H 0.81363 0.67326 0.56305 0.0
C2310 C 0.8463 0.70712 0.42957 0.0
C2311 C 0.8521 0.70579 0.49342 0.0
H2312 H 0.8356 0.66855 0.5284 0.0
C2313 C 0.85561 0.72117 0.51001 0.0
C2314 C 0.84448 0.68651 0.50001 0.0
C2315 C 0.84097 0.66955 0.48299 0.0
C2316 C 0.85196 0.71784 0.53312 0.0
C2317 C 0.84489 0.69869 0.53985 0.0
C2318 C 0.84082 0.68318 0.52315 0.0
C2319 C 0.84409 0.69493 0.56433 0.0
C2320 C 0.85591 0.73494 0.55017 0.0
C2321 C 0.86121 0.70429 0.57802 0.0
C2322 C 0.86146 0.69915 0.60013 0.0
C2323 C 0.8446 0.68443 0.60906 0.0
C2324 C 0.82718 0.67566 0.59586 0.0
C2325 C 0.82697 0.68077 0.57347 0.0
H2326 H 0.85479 0.74646 0.54177 0.0
H2327 H 0.84577 0.73011 0.56427 0.0
H2328 H 0.87081 0.74171 0.55773 0.0
H2329 H 0.87466 0.71494 0.57122 0.0
H2330 H 0.8751 0.70615 0.60995 0.0
loop_
_geom_bond_atom_site_label_1
_geom_bond_atom_site_label_2
_geom_bond_distance
_geom_bond_site_symmetry_2
_ccdc_geom_bond_type
O0 Cd1 2.300 . S
O0 C7 1.275 . S
Cd1 O0 2.300 . S
Cd1 O9 2.381 . S
Cd1 O10 2.378 . S
O2 Cd3 2.385 . S
O2 C7 1.255 . S
Cd3 O2 2.385 . S
Cd3 O4 2.317 . S
O4 Cd3 2.317 . S
O4 C5 1.232 . S
C5 O4 1.232 . S
C5 O6 1.218 . S
O6 C5 1.218 . S
C7 O0 1.275 . S
C7 O2 1.255 . S
C8 O9 1.258 . S
C8 O10 1.256 . S
O9 Cd1 2.381 . S
O9 C8 1.258 . S
O10 Cd1 2.378 . S
O10 C8 1.256 . S
O11 Cd12 2.300 . S
O11 C18 1.275 . S
Cd12 O11 2.300 . S
Cd12 O20 2.381 . S
Cd12 O21 2.378 . S
O13 Cd14 2.385 . S
O13 C18 1.255 . S
Cd14 O13 2.385 . S
Cd14 O15 2.317 . S
O15 Cd14 2.317 . S
O15 C16 1.232 . S
C16 O15 1.232 . S
C16 O17 1.218 . S
O17 C16 1.218 . S
C18 O11 1.275 . S
C18 O13 1.255 . S
C19 O20 1.258 . S
C19 O21 1.256 . S
O20 Cd12 2.381 . S
O20 C19 1.258 . S
O21 Cd12 2.378 . S
O21 C19 1.256 . S
O22 Cd23 2.300 . S
O22 C29 1.275 . S
Cd23 O22 2.300 . S
Cd23 O31 2.381 . S
Cd23 O32 2.378 . S
O24 Cd25 2.385 . S
O24 C29 1.255 . S
Cd25 O24 2.385 . S
Cd25 O26 2.317 . S
O26 Cd25 2.317 . S
O26 C27 1.232 . S
C27 O26 1.232 . S
C27 O28 1.218 . S
O28 C27 1.218 . S
C29 O22 1.275 . S
C29 O24 1.255 . S
C30 O31 1.258 . S
C30 O32 1.256 . S
O31 Cd23 2.381 . S
O31 C30 1.258 . S
O32 Cd23 2.378 . S
O32 C30 1.256 . S
O33 Cd34 2.300 . S
O33 C40 1.275 . S
Cd34 O33 2.300 . S
Cd34 O42 2.381 . S
Cd34 O43 2.378 . S
O35 Cd36 2.385 . S
O35 C40 1.255 . S
Cd36 O35 2.385 . S
Cd36 O37 2.317 . S
O37 Cd36 2.317 . S
O37 C38 1.232 . S
C38 O37 1.232 . S
C38 O39 1.218 . S
O39 C38 1.218 . S
C40 O33 1.275 . S
C40 O35 1.255 . S
C41 O42 1.258 . S
C41 O43 1.256 . S
O42 Cd34 2.381 . S
O42 C41 1.258 . S
O43 Cd34 2.378 . S
O43 C41 1.256 . S
O44 Cd45 2.300 . S
O44 C51 1.275 . S
Cd45 O44 2.300 . S
Cd45 O53 2.381 . S
Cd45 O54 2.378 . S
O46 Cd47 2.385 . S
O46 C51 1.255 . S
Cd47 O46 2.385 . S
Cd47 O48 2.317 . S
O48 Cd47 2.317 . S
O48 C49 1.232 . S
C49 O48 1.232 . S
C49 O50 1.218 . S
O50 C49 1.218 . S
C51 O44 1.275 . S
C51 O46 1.255 . S
C52 O53 1.258 . S
C52 O54 1.256 . S
O53 Cd45 2.381 . S
O53 C52 1.258 . S
O54 Cd45 2.378 . S
O54 C52 1.256 . S
O55 Cd56 2.300 . S
O55 C62 1.275 . S
Cd56 O55 2.300 . S
Cd56 O64 2.381 . S
Cd56 O65 2.378 . S
O57 Cd58 2.385 . S
O57 C62 1.255 . S
Cd58 O57 2.385 . S
Cd58 O59 2.317 . S
O59 Cd58 2.317 . S
O59 C60 1.232 . S
C60 O59 1.232 . S
C60 O61 1.218 . S
O61 C60 1.218 . S
C62 O55 1.275 . S
C62 O57 1.255 . S
C63 O64 1.258 . S
C63 O65 1.256 . S
O64 Cd56 2.381 . S
O64 C63 1.258 . S
O65 Cd56 2.378 . S
O65 C63 1.256 . S
O66 Cd67 2.300 . S
O66 C73 1.275 . S
Cd67 O66 2.300 . S
Cd67 O75 2.381 . S
Cd67 O76 2.378 . S
O68 Cd69 2.385 . S
O68 C73 1.255 . S
Cd69 O68 2.385 . S
Cd69 O70 2.317 . S
O70 Cd69 2.317 . S
O70 C71 1.232 . S
C71 O70 1.232 . S
C71 O72 1.218 . S
O72 C71 1.218 . S
C73 O66 1.275 . S
C73 O68 1.255 . S
C74 O75 1.258 . S
C74 O76 1.256 . S
O75 Cd67 2.381 . S
O75 C74 1.258 . S
O76 Cd67 2.378 . S
O76 C74 1.256 . S
O77 Cd78 2.300 . S
O77 C84 1.275 . S
Cd78 O77 2.300 . S
Cd78 O86 2.381 . S
Cd78 O87 2.378 . S
O79 Cd80 2.385 . S
O79 C84 1.255 . S
Cd80 O79 2.385 . S
Cd80 O81 2.317 . S
O81 Cd80 2.317 . S
O81 C82 1.232 . S
C82 O81 1.232 . S
C82 O83 1.218 . S
O83 C82 1.218 . S
C84 O77 1.275 . S
C84 O79 1.255 . S
C85 O86 1.258 . S
C85 O87 1.256 . S
O86 Cd78 2.381 . S
O86 C85 1.258 . S
O87 Cd78 2.378 . S
O87 C85 1.256 . S
O88 Cd89 2.300 . S
O88 C95 1.275 . S
Cd89 O88 2.300 . S
Cd89 O97 2.381 . S
Cd89 O98 2.378 . S
O90 Cd91 2.385 . S
O90 C95 1.255 . S
Cd91 O90 2.385 . S
Cd91 O92 2.317 . S
O92 Cd91 2.317 . S
O92 C93 1.232 . S
C93 O92 1.232 . S
C93 O94 1.218 . S
O94 C93 1.218 . S
C95 O88 1.275 . S
C95 O90 1.255 . S
C96 O97 1.258 . S
C96 O98 1.256 . S
O97 Cd89 2.381 . S
O97 C96 1.258 . S
O98 Cd89 2.378 . S
O98 C96 1.256 . S
O99 Cd100 2.300 1_556 S
O99 C106 1.275 . S
Cd100 O99 2.300 1_554 S
Cd100 O108 2.381 1_554 S
Cd100 O109 2.378 . S
O101 Cd102 2.385 1_556 S
O101 C106 1.255 . S
Cd102 O101 2.385 1_554 S
Cd102 O103 2.317 . S
O103 Cd102 2.317 . S
O103 C104 1.232 . S
C104 O103 1.232 . S
C104 O105 1.218 . S
O105 C104 1.218 . S
C106 O99 1.275 . S
C106 O101 1.255 . S
C107 O108 1.258 1_554 S
C107 O109 1.256 . S
O108 Cd100 2.381 1_556 S
O108 C107 1.258 1_556 S
O109 Cd100 2.378 . S
O109 C107 1.256 . S
O110 Cd111 2.300 . S
O110 C117 1.275 . S
Cd111 O110 2.300 . S
Cd111 O119 2.381 1_556 S
Cd111 O120 2.378 1_556 S
O112 Cd113 2.385 . S
O112 C117 1.255 . S
Cd113 O112 2.385 . S
Cd113 O114 2.317 1_556 S
O114 Cd113 2.317 1_554 S
O114 C115 1.232 . S
C115 O114 1.232 . S
C115 O116 1.218 1_554 S
O116 C115 1.218 1_556 S
C117 O110 1.275 . S
C117 O112 1.255 . S
C118 O119 1.258 . S
C118 O120 1.256 . S
O119 Cd111 2.381 1_554 S
O119 C118 1.258 . S
O120 Cd111 2.378 1_554 S
O120 C118 1.256 . S
O121 Cd122 2.300 . S
O121 C128 1.275 . S
Cd122 O121 2.300 . S
Cd122 O130 2.381 . S
Cd122 O131 2.378 1_556 S
O123 Cd124 2.385 1_556 S
O123 C128 1.255 . S
Cd124 O123 2.385 1_554 S
Cd124 O125 2.317 . S
O125 Cd124 2.317 . S
O125 C126 1.232 . S
C126 O125 1.232 . S
C126 O127 1.218 1_554 S
O127 C126 1.218 1_556 S
C128 O121 1.275 . S
C128 O123 1.255 . S
C129 O130 1.258 1_554 S
C129 O131 1.256 . S
O130 Cd122 2.381 . S
O130 C129 1.258 1_556 S
O131 Cd122 2.378 1_554 S
O131 C129 1.256 . S
O132 Cd133 2.300 . S
O132 C139 1.275 . S
Cd133 O132 2.300 . S
Cd133 O141 2.381 . S
Cd133 O142 2.378 1_554 S
O134 Cd135 2.385 . S
O134 C139 1.255 . S
Cd135 O134 2.385 . S
Cd135 O136 2.317 . S
O136 Cd135 2.317 . S
O136 C137 1.232 . S
C137 O136 1.232 . S
C137 O138 1.218 . S
O138 C137 1.218 . S
C139 O132 1.275 . S
C139 O134 1.255 . S
C140 O141 1.258 . S
C140 O142 1.256 1_554 S
O141 Cd133 2.381 . S
O141 C140 1.258 . S
O142 Cd133 2.378 1_556 S
O142 C140 1.256 1_556 S
O143 Cd144 2.300 . S
O143 C150 1.275 . S
Cd144 O143 2.300 . S
Cd144 O152 2.381 . S
Cd144 O153 2.378 . S
O145 Cd146 2.385 . S
O145 C150 1.255 . S
Cd146 O145 2.385 . S
Cd146 O147 2.317 . S
O147 Cd146 2.317 . S
O147 C148 1.232 . S
C148 O147 1.232 . S
C148 O149 1.218 . S
O149 C148 1.218 . S
C150 O143 1.275 . S
C150 O145 1.255 . S
C151 O152 1.258 . S
C151 O153 1.256 . S
O152 Cd144 2.381 . S
O152 C151 1.258 . S
O153 Cd144 2.378 . S
O153 C151 1.256 . S
O154 Cd155 2.300 . S
O154 C161 1.275 . S
Cd155 O154 2.300 . S
Cd155 O163 2.381 . S
Cd155 O164 2.378 1_554 S
O156 Cd157 2.385 . S
O156 C161 1.255 . S
Cd157 O156 2.385 . S
Cd157 O158 2.317 . S
O158 Cd157 2.317 . S
O158 C159 1.232 . S
C159 O158 1.232 . S
C159 O160 1.218 . S
O160 C159 1.218 . S
C161 O154 1.275 . S
C161 O156 1.255 . S
C162 O163 1.258 . S
C162 O164 1.256 1_554 S
O163 Cd155 2.381 . S
O163 C162 1.258 . S
O164 Cd155 2.378 1_556 S
O164 C162 1.256 1_556 S
O165 Cd166 2.300 . S
O165 C172 1.275 . S
Cd166 O165 2.300 . S
Cd166 O174 2.381 . S
Cd166 O175 2.378 . S
O167 Cd168 2.385 . S
O167 C172 1.255 . S
Cd168 O167 2.385 . S
Cd168 O169 2.317 . S
O169 Cd168 2.317 . S
O169 C170 1.232 . S
C170 O169 1.232 . S
C170 O171 1.218 . S
O171 C170 1.218 . S
C172 O165 1.275 . S
C172 O167 1.255 . S
C173 O174 1.258 . S
C173 O175 1.256 . S
O174 Cd166 2.381 . S
O174 C173 1.258 . S
O175 Cd166 2.378 . S
O175 C173 1.256 . S
O176 Cd177 2.300 . S
O176 C183 1.275 . S
Cd177 O176 2.300 . S
Cd177 O185 2.381 . S
Cd177 O186 2.378 . S
O178 Cd179 2.385 . S
O178 C183 1.255 . S
Cd179 O178 2.385 . S
Cd179 O180 2.317 . S
O180 Cd179 2.317 . S
O180 C181 1.232 . S
C181 O180 1.232 . S
C181 O182 1.218 . S
O182 C181 1.218 . S
C183 O176 1.275 . S
C183 O178 1.255 . S
C184 O185 1.258 . S
C184 O186 1.256 . S
O185 Cd177 2.381 . S
O185 C184 1.258 . S
O186 Cd177 2.378 . S
O186 C184 1.256 . S
O187 Cd188 2.300 . S
O187 C194 1.275 . S
Cd188 O187 2.300 . S
Cd188 O196 2.381 . S
Cd188 O197 2.378 . S
O189 Cd190 2.385 . S
O189 C194 1.255 . S
Cd190 O189 2.385 . S
Cd190 O191 2.317 . S
O191 Cd190 2.317 . S
O191 C192 1.232 . S
C192 O191 1.232 . S
C192 O193 1.218 . S
O193 C192 1.218 . S
C194 O187 1.275 . S
C194 O189 1.255 . S
C195 O196 1.258 . S
C195 O197 1.256 . S
O196 Cd188 2.381 . S
O196 C195 1.258 . S
O197 Cd188 2.378 . S
O197 C195 1.256 . S
O198 Mn199 2.163 1_565 S
O198 C212 1.244 . S
Mn199 O198 2.163 1_545 S
Mn199 O202 2.160 . S
Mn199 O203 2.221 1_545 S
Mn199 O205 2.163 1_554 S
Mn199 O207 2.160 1_545 S
Mn199 O217 2.221 . S
O200 Mn201 2.087 1_565 S
O200 C212 1.256 . S
Mn201 O200 2.087 1_545 S
Mn201 O208 2.089 1_545 S
Mn201 O217 2.290 . S
Mn201 O218 2.251 . S
O202 Mn199 2.160 . S
O202 C213 1.239 . S
O203 Mn199 2.221 1_565 S
O203 Mn204 2.290 1_554 S
O203 C214 1.267 1_554 S
Mn204 O203 2.290 1_556 S
Mn204 O206 2.089 1_565 S
Mn204 O209 2.251 . S
Mn204 O210 2.121 . S
O205 Mn199 2.163 1_556 S
O205 C215 1.244 . S
O206 Mn204 2.089 1_545 S
O206 C213 1.256 1_556 S
O207 Mn199 2.160 1_565 S
O207 C216 1.239 . S
O208 Mn201 2.089 1_565 S
O208 C216 1.256 . S
O209 Mn204 2.251 . S
O209 C214 1.273 . S
O210 Mn204 2.121 . S
O210 C215 1.201 1_565 S
C211 O217 1.278 . S
C211 O218 1.241 . S
C212 O198 1.244 . S
C212 O200 1.256 . S
C213 O202 1.239 . S
C213 O206 1.256 1_554 S
C214 O203 1.267 1_556 S
C214 O209 1.273 . S
C215 O205 1.244 . S
C215 O210 1.201 1_545 S
C216 O207 1.239 . S
C216 O208 1.256 . S
O217 Mn199 2.221 . S
O217 Mn201 2.290 . S
O217 C211 1.278 . S
O218 Mn201 2.251 . S
O218 C211 1.241 . S
O219 Mn220 2.163 . S
O219 C233 1.244 . S
Mn220 O219 2.163 . S
Mn220 O223 2.160 1_455 S
Mn220 O224 2.221 . S
Mn220 O226 2.163 1_454 S
Mn220 O228 2.160 . S
Mn220 O238 2.221 1_455 S
O221 Mn222 2.109 . S
O221 C233 1.256 . S
Mn222 O221 2.109 . S
Mn222 O229 2.091 . S
Mn222 O238 2.266 1_455 S
Mn222 O239 2.238 1_455 S
O223 Mn220 2.160 1_655 S
O223 C234 1.239 . S
O224 Mn220 2.221 . S
O224 Mn225 2.290 1_554 S
O224 C235 1.278 . S
Mn225 O224 2.290 1_556 S
Mn225 O227 2.081 1_456 S
Mn225 O230 2.251 . S
Mn225 O231 2.087 . S
O226 Mn220 2.163 1_656 S
O226 C236 1.244 . S
O227 Mn225 2.081 1_654 S
O227 C234 1.271 . S
O228 Mn220 2.160 . S
O228 C237 1.239 . S
O229 Mn222 2.091 . S
O229 C237 1.256 . S
O230 Mn225 2.251 . S
O230 C235 1.241 1_556 S
O231 Mn225 2.087 . S
O231 C236 1.256 1_455 S
C232 O238 1.278 . S
C232 O239 1.241 . S
C233 O219 1.244 . S
C233 O221 1.256 . S
C234 O223 1.239 . S
C234 O227 1.271 . S
C235 O224 1.278 . S
C235 O230 1.241 1_554 S
C236 O226 1.244 . S
C236 O231 1.256 1_655 S
C237 O228 1.239 . S
C237 O229 1.256 . S
O238 Mn220 2.221 1_655 S
O238 Mn222 2.266 1_655 S
O238 C232 1.278 . S
O239 Mn222 2.238 1_655 S
O239 C232 1.241 . S
O240 Mn241 2.158 1_554 S
O240 C254 1.244 . S
Mn241 O240 2.158 1_556 S
Mn241 O244 2.166 . S
Mn241 O245 2.210 1_556 S
Mn241 O247 2.119 1_556 S
Mn241 O249 2.205 . S
Mn241 O259 2.236 . S
O242 Mn243 2.087 . S
O242 C254 1.256 1_556 S
Mn243 O242 2.087 . S
Mn243 O250 2.089 . S
Mn243 O259 2.290 . S
Mn243 O260 2.251 . S
O244 Mn241 2.166 . S
O244 C255 1.239 1_556 S
O245 Mn241 2.210 1_554 S
O245 Mn246 2.290 . S
O245 C256 1.278 . S
Mn246 O245 2.290 . S
Mn246 O248 2.089 . S
Mn246 O251 2.251 . S
Mn246 O252 2.087 . S
O247 Mn241 2.119 1_554 S
O247 C257 1.244 . S
O248 Mn246 2.089 . S
O248 C255 1.256 . S
O249 Mn241 2.205 . S
O249 C258 1.239 . S
O250 Mn243 2.089 . S
O250 C258 1.256 . S
O251 Mn246 2.251 . S
O251 C256 1.241 . S
O252 Mn246 2.087 . S
O252 C257 1.256 . S
C253 O259 1.270 1_554 S
C253 O260 1.235 1_554 S
C254 O240 1.244 . S
C254 O242 1.256 1_554 S
C255 O244 1.239 1_554 S
C255 O248 1.256 . S
C256 O245 1.278 . S
C256 O251 1.241 . S
C257 O247 1.244 . S
C257 O252 1.256 . S
C258 O249 1.239 . S
C258 O250 1.256 . S
O259 Mn241 2.236 . S
O259 Mn243 2.290 . S
O259 C253 1.270 1_556 S
O260 Mn243 2.251 . S
O260 C253 1.235 1_556 S
O261 Mn262 2.163 . S
O261 C275 1.244 . S
Mn262 O261 2.163 . S
Mn262 O265 2.160 . S
Mn262 O266 2.221 . S
Mn262 O268 2.163 . S
Mn262 O270 2.160 . S
Mn262 O280 2.221 . S
O263 Mn264 2.087 . S
O263 C275 1.256 . S
Mn264 O263 2.087 . S
Mn264 O271 2.089 . S
Mn264 O280 2.290 . S
Mn264 O281 2.251 . S
O265 Mn262 2.160 . S
O265 C276 1.239 . S
O266 Mn262 2.221 . S
O266 Mn267 2.290 . S
O266 C277 1.278 . S
Mn267 O266 2.290 . S
Mn267 O269 2.089 . S
Mn267 O272 2.251 . S
Mn267 O273 2.087 . S
O268 Mn262 2.163 . S
O268 C278 1.244 . S
O269 Mn267 2.089 . S
O269 C276 1.256 . S
O270 Mn262 2.160 . S
O270 C279 1.239 . S
O271 Mn264 2.089 . S
O271 C279 1.256 . S
O272 Mn267 2.251 . S
O272 C277 1.241 . S
O273 Mn267 2.087 . S
O273 C278 1.256 . S
C274 O280 1.278 . S
C274 O281 1.241 . S
C275 O261 1.244 . S
C275 O263 1.256 . S
C276 O265 1.239 . S
C276 O269 1.256 . S
C277 O266 1.278 . S
C277 O272 1.241 . S
C278 O268 1.244 . S
C278 O273 1.256 . S
C279 O270 1.239 . S
C279 O271 1.256 . S
O280 Mn262 2.221 . S
O280 Mn264 2.290 . S
O280 C274 1.278 . S
O281 Mn264 2.251 . S
O281 C274 1.241 . S
O282 Mn283 2.163 . S
O282 C296 1.244 . S
Mn283 O282 2.163 . S
Mn283 O286 2.160 . S
Mn283 O287 2.221 . S
Mn283 O289 2.163 . S
Mn283 O291 2.160 . S
Mn283 O301 2.221 . S
O284 Mn285 2.087 . S
O284 C296 1.256 . S
Mn285 O284 2.087 . S
Mn285 O292 2.089 . S
Mn285 O301 2.290 . S
Mn285 O302 2.251 . S
O286 Mn283 2.160 . S
O286 C297 1.239 . S
O287 Mn283 2.221 . S
O287 Mn288 2.290 . S
O287 C298 1.278 . S
Mn288 O287 2.290 . S
Mn288 O290 2.089 . S
Mn288 O293 2.251 . S
Mn288 O294 2.087 . S
O289 Mn283 2.163 . S
O289 C299 1.244 . S
O290 Mn288 2.089 . S
O290 C297 1.256 . S
O291 Mn283 2.160 . S
O291 C300 1.239 . S
O292 Mn285 2.089 . S
O292 C300 1.256 . S
O293 Mn288 2.251 . S
O293 C298 1.241 . S
O294 Mn288 2.087 . S
O294 C299 1.256 . S
C295 O301 1.278 . S
C295 O302 1.241 . S
C296 O282 1.244 . S
C296 O284 1.256 . S
C297 O286 1.239 . S
C297 O290 1.256 . S
C298 O287 1.278 . S
C298 O293 1.241 . S
C299 O289 1.244 . S
C299 O294 1.256 . S
C300 O291 1.239 . S
C300 O292 1.256 . S
O301 Mn283 2.221 . S
O301 Mn285 2.290 . S
O301 C295 1.278 . S
O302 Mn285 2.251 . S
O302 C295 1.241 . S
O303 Mn304 2.163 . S
O303 C317 1.244 . S
Mn304 O303 2.163 . S
Mn304 O307 2.160 . S
Mn304 O308 2.221 . S
Mn304 O310 2.163 . S
Mn304 O312 2.160 . S
Mn304 O322 2.221 . S
O305 Mn306 2.087 . S
O305 C317 1.256 . S
Mn306 O305 2.087 . S
Mn306 O313 2.089 . S
Mn306 O322 2.290 . S
Mn306 O323 2.251 . S
O307 Mn304 2.160 . S
O307 C318 1.239 . S
O308 Mn304 2.221 . S
O308 Mn309 2.290 . S
O308 C319 1.278 . S
Mn309 O308 2.290 . S
Mn309 O311 2.089 . S
Mn309 O314 2.251 . S
Mn309 O315 2.087 . S
O310 Mn304 2.163 . S
O310 C320 1.244 . S
O311 Mn309 2.089 . S
O311 C318 1.256 . S
O312 Mn304 2.160 . S
O312 C321 1.239 . S
O313 Mn306 2.089 . S
O313 C321 1.256 . S
O314 Mn309 2.251 . S
O314 C319 1.241 . S
O315 Mn309 2.087 . S
O315 C320 1.256 . S
C316 O322 1.278 . S
C316 O323 1.241 . S
C317 O303 1.244 . S
C317 O305 1.256 . S
C318 O307 1.239 . S
C318 O311 1.256 . S
C319 O308 1.278 . S
C319 O314 1.241 . S
C320 O310 1.244 . S
C320 O315 1.256 . S
C321 O312 1.239 . S
C321 O313 1.256 . S
O322 Mn304 2.221 . S
O322 Mn306 2.290 . S
O322 C316 1.278 . S
O323 Mn306 2.251 . S
O323 C316 1.241 . S
O324 Mn325 2.163 . S
O324 C338 1.244 . S
Mn325 O324 2.163 . S
Mn325 O328 2.160 . S
Mn325 O329 2.221 . S
Mn325 O331 2.163 . S
Mn325 O333 2.160 . S
Mn325 O343 2.221 . S
O326 Mn327 2.087 . S
O326 C338 1.256 . S
Mn327 O326 2.087 . S
Mn327 O334 2.089 . S
Mn327 O343 2.290 . S
Mn327 O344 2.251 . S
O328 Mn325 2.160 . S
O328 C339 1.239 . S
O329 Mn325 2.221 . S
O329 Mn330 2.290 . S
O329 C340 1.278 . S
Mn330 O329 2.290 . S
Mn330 O332 2.089 . S
Mn330 O335 2.251 . S
Mn330 O336 2.087 . S
O331 Mn325 2.163 . S
O331 C341 1.244 . S
O332 Mn330 2.089 . S
O332 C339 1.256 . S
O333 Mn325 2.160 . S
O333 C342 1.239 . S
O334 Mn327 2.089 . S
O334 C342 1.256 . S
O335 Mn330 2.251 . S
O335 C340 1.241 . S
O336 Mn330 2.087 . S
O336 C341 1.256 . S
C337 O343 1.278 . S
C337 O344 1.241 . S
C338 O324 1.244 . S
C338 O326 1.256 . S
C339 O328 1.239 . S
C339 O332 1.256 . S
C340 O329 1.278 . S
C340 O335 1.241 . S
C341 O331 1.244 . S
C341 O336 1.256 . S
C342 O333 1.239 . S
C342 O334 1.256 . S
O343 Mn325 2.221 . S
O343 Mn327 2.290 . S
O343 C337 1.278 . S
O344 Mn327 2.251 . S
O344 C337 1.241 . S
O345 Mn346 2.163 . S
O345 C359 1.244 . S
Mn346 O345 2.163 . S
Mn346 O349 2.160 . S
Mn346 O350 2.221 . S
Mn346 O352 2.163 . S
Mn346 O354 2.160 . S
Mn346 O364 2.221 . S
O347 Mn348 2.087 . S
O347 C359 1.256 . S
Mn348 O347 2.087 . S
Mn348 O355 2.089 . S
Mn348 O364 2.290 . S
Mn348 O365 2.251 . S
O349 Mn346 2.160 . S
O349 C360 1.239 . S
O350 Mn346 2.221 . S
O350 Mn351 2.290 . S
O350 C361 1.278 . S
Mn351 O350 2.290 . S
Mn351 O353 2.089 . S
Mn351 O356 2.251 . S
Mn351 O357 2.087 . S
O352 Mn346 2.163 . S
O352 C362 1.244 . S
O353 Mn351 2.089 . S
O353 C360 1.256 . S
O354 Mn346 2.160 . S
O354 C363 1.239 . S
O355 Mn348 2.089 . S
O355 C363 1.256 . S
O356 Mn351 2.251 . S
O356 C361 1.241 . S
O357 Mn351 2.087 . S
O357 C362 1.256 . S
C358 O364 1.278 . S
C358 O365 1.241 . S
C359 O345 1.244 . S
C359 O347 1.256 . S
C360 O349 1.239 . S
C360 O353 1.256 . S
C361 O350 1.278 . S
C361 O356 1.241 . S
C362 O352 1.244 . S
C362 O357 1.256 . S
C363 O354 1.239 . S
C363 O355 1.256 . S
O364 Mn346 2.221 . S
O364 Mn348 2.290 . S
O364 C358 1.278 . S
O365 Mn348 2.251 . S
O365 C358 1.241 . S
O366 Mn367 2.163 . S
O366 C380 1.244 . S
Mn367 O366 2.163 . S
Mn367 O370 2.160 . S
Mn367 O371 2.221 . S
Mn367 O373 2.163 . S
Mn367 O375 2.160 . S
Mn367 O385 2.221 . S
O368 Mn369 2.087 . S
O368 C380 1.256 . S
Mn369 O368 2.087 . S
Mn369 O376 2.089 . S
Mn369 O385 2.290 . S
Mn369 O386 2.251 . S
O370 Mn367 2.160 . S
O370 C381 1.239 . S
O371 Mn367 2.221 . S
O371 Mn372 2.290 . S
O371 C382 1.278 . S
Mn372 O371 2.290 . S
Mn372 O374 2.089 . S
Mn372 O377 2.251 . S
Mn372 O378 2.087 . S
O373 Mn367 2.163 . S
O373 C383 1.244 . S
O374 Mn372 2.089 . S
O374 C381 1.256 . S
O375 Mn367 2.160 . S
O375 C384 1.239 . S
O376 Mn369 2.089 . S
O376 C384 1.256 . S
O377 Mn372 2.251 . S
O377 C382 1.241 . S
O378 Mn372 2.087 . S
O378 C383 1.256 . S
C379 O385 1.278 . S
C379 O386 1.241 . S
C380 O366 1.244 . S
C380 O368 1.256 . S
C381 O370 1.239 . S
C381 O374 1.256 . S
C382 O371 1.278 . S
C382 O377 1.241 . S
C383 O373 1.244 . S
C383 O378 1.256 . S
C384 O375 1.239 . S
C384 O376 1.256 . S
O385 Mn367 2.221 . S
O385 Mn369 2.290 . S
O385 C379 1.278 . S
O386 Mn369 2.251 . S
O386 C379 1.241 . S
H387 C395 0.929 . S
H388 C397 0.930 . S
H389 C399 0.930 . S
H390 C402 0.929 . S
H391 C405 0.930 . S
H392 C407 0.960 . S
H393 C407 0.960 . S
H394 C407 0.960 1_556 S
C395 H387 0.929 . S
C395 C396 1.393 . S
C395 C397 1.384 . S
C396 C395 1.393 . S
C396 C402 1.374 1_554 S
C397 H388 0.930 . S
C397 C395 1.384 . S
C397 C398 1.372 . S
C398 C397 1.372 . S
C398 C399 1.400 1_554 S
C398 C403 1.490 . S
C399 H389 0.930 . S
C399 C398 1.400 1_556 S
C399 C402 1.386 . S
H400 C416 0.930 . S
H401 C417 0.931 . S
C402 H390 0.929 . S
C402 C396 1.374 1_556 S
C402 C399 1.386 . S
C403 C398 1.490 . S
C403 C405 1.395 . S
C403 C406 1.403 . S
H404 C410 0.930 . S
C405 H391 0.930 . S
C405 C403 1.395 . S
C405 C408 1.403 . S
C406 C403 1.403 . S
C406 C407 1.524 . S
C406 C410 1.400 . S
C407 H392 0.960 . S
C407 H393 0.960 . S
C407 H394 0.960 1_554 S
C407 C406 1.524 . S
C408 C405 1.403 . S
C408 C409 1.392 . S
C408 C412 1.495 . S
C409 C408 1.392 . S
C409 C410 1.385 . S
C409 C411 1.478 . S
C410 H404 0.930 . S
C410 C406 1.400 . S
C410 C409 1.385 . S
C411 C409 1.478 . S
C411 C413 1.381 . S
C411 C417 1.383 1_554 S
C412 C408 1.495 . S
C412 H418 0.959 1_554 S
C412 H419 0.961 1_554 S
C412 H420 0.960 . S
C413 C411 1.381 . S
C413 C414 1.394 . S
C413 H421 0.930 . S
C414 C413 1.394 . S
C414 C415 1.383 . S
C414 H422 0.929 . S
C415 C414 1.383 . S
C415 C416 1.377 1_554 S
C416 H400 0.930 . S
C416 C415 1.377 1_556 S
C416 C417 1.379 . S
C417 H401 0.931 . S
C417 C411 1.383 1_556 S
C417 C416 1.379 . S
H418 C412 0.959 1_556 S
H419 C412 0.961 1_556 S
H420 C412 0.960 . S
H421 C413 0.930 . S
H422 C414 0.929 . S
H423 C431 0.929 . S
H424 C433 0.930 . S
H425 C435 0.930 . S
H426 C438 0.929 . S
H427 C441 0.930 . S
H428 C443 0.960 . S
H429 C443 0.960 . S
H430 C443 0.960 . S
C431 H423 0.929 . S
C431 C432 1.377 1_556 S
C431 C433 1.384 . S
C432 C431 1.377 1_554 S
C432 C438 1.390 . S
C433 H424 0.930 . S
C433 C431 1.384 . S
C433 C434 1.372 1_556 S
C434 C433 1.372 1_554 S
C434 C435 1.400 . S
C434 C439 1.490 . S
C435 H425 0.930 . S
C435 C434 1.400 . S
C435 C438 1.386 . S
H436 C452 0.930 . S
H437 C453 0.931 . S
C438 H426 0.929 . S
C438 C432 1.390 . S
C438 C435 1.386 . S
C439 C434 1.490 . S
C439 C441 1.395 . S
C439 C442 1.403 . S
H440 C446 0.930 . S
C441 H427 0.930 . S
C441 C439 1.395 . S
C441 C444 1.403 . S
C442 C439 1.403 . S
C442 C443 1.524 . S
C442 C446 1.400 . S
C443 H428 0.960 . S
C443 H429 0.960 . S
C443 H430 0.960 . S
C443 C442 1.524 . S
C444 C441 1.403 . S
C444 C445 1.392 . S
C444 C448 1.495 . S
C445 C444 1.392 . S
C445 C446 1.385 . S
C445 C447 1.478 . S
C446 H440 0.930 . S
C446 C442 1.400 . S
C446 C445 1.385 . S
C447 C445 1.478 . S
C447 C449 1.381 1_554 S
C447 C453 1.383 . S
C448 C444 1.495 . S
C448 H454 0.959 . S
C448 H455 0.961 . S
C448 H456 0.962 . S
C449 C447 1.381 1_556 S
C449 C450 1.394 . S
C449 H457 0.930 . S
C450 C449 1.394 . S
C450 C451 1.383 1_556 S
C450 H458 0.929 . S
C451 C450 1.383 1_554 S
C451 C452 1.377 . S
C452 H436 0.930 . S
C452 C451 1.377 . S
C452 C453 1.379 . S
C453 H437 0.931 . S
C453 C447 1.383 . S
C453 C452 1.379 . S
H454 C448 0.959 . S
H455 C448 0.961 . S
H456 C448 0.962 . S
H457 C449 0.930 . S
H458 C450 0.929 . S
H459 C467 0.929 1_556 S
H460 C469 0.930 1_556 S
H461 C471 0.930 . S
H462 C474 0.929 . S
H463 C477 0.930 . S
H464 C479 0.960 . S
H465 C479 0.960 . S
H466 C479 0.960 . S
C467 H459 0.929 1_554 S
C467 C468 1.377 . S
C467 C469 1.384 . S
C468 C467 1.377 . S
C468 C474 1.390 . S
C469 H460 0.930 1_554 S
C469 C467 1.384 . S
C469 C470 1.372 . S
C470 C469 1.372 . S
C470 C471 1.400 . S
C470 C475 1.490 . S
C471 H461 0.930 . S
C471 C470 1.400 . S
C471 C474 1.386 . S
H472 C488 0.930 . S
H473 C489 0.931 . S
C474 H462 0.929 . S
C474 C468 1.390 . S
C474 C471 1.386 . S
C475 C470 1.490 . S
C475 C477 1.395 . S
C475 C478 1.421 . S
H476 C482 0.930 1_556 S
C477 H463 0.930 . S
C477 C475 1.395 . S
C477 C480 1.403 . S
C478 C475 1.421 . S
C478 C479 1.500 1_554 S
C478 C482 1.407 . S
C479 H464 0.960 . S
C479 H465 0.960 . S
C479 H466 0.960 . S
C479 C478 1.500 1_556 S
C480 C477 1.403 . S
C480 C481 1.392 . S
C480 C484 1.495 . S
C481 C480 1.392 . S
C481 C482 1.385 . S
C481 C483 1.478 . S
C482 H476 0.930 1_554 S
C482 C478 1.407 . S
C482 C481 1.385 . S
C483 C481 1.478 . S
C483 C485 1.381 1_554 S
C483 C489 1.383 . S
C484 C480 1.495 . S
C484 H490 0.959 . S
C484 H491 0.961 . S
C484 H492 0.960 . S
C485 C483 1.381 1_556 S
C485 C486 1.394 . S
C485 H493 0.930 . S
C486 C485 1.394 . S
C486 C487 1.383 1_556 S
C486 H494 0.929 . S
C487 C486 1.383 1_554 S
C487 C488 1.377 . S
C488 H472 0.930 . S
C488 C487 1.377 . S
C488 C489 1.379 . S
C489 H473 0.931 . S
C489 C483 1.383 . S
C489 C488 1.379 . S
H490 C484 0.959 . S
H491 C484 0.961 . S
H492 C484 0.960 . S
H493 C485 0.930 . S
H494 C486 0.929 . S
H495 C503 0.929 . S
H496 C505 0.930 . S
H497 C507 0.930 . S
H498 C510 0.929 . S
H499 C513 0.930 . S
H500 C515 0.960 . S
H501 C515 0.960 . S
H502 C515 0.960 . S
C503 H495 0.929 . S
C503 C504 1.377 . S
C503 C505 1.384 . S
C504 C503 1.377 . S
C504 C510 1.390 . S
C505 H496 0.930 . S
C505 C503 1.384 . S
C505 C506 1.372 . S
C506 C505 1.372 . S
C506 C507 1.400 . S
C506 C511 1.490 . S
C507 H497 0.930 . S
C507 C506 1.400 . S
C507 C510 1.386 . S
H508 C524 0.930 . S
H509 C525 0.931 . S
C510 H498 0.929 . S
C510 C504 1.390 . S
C510 C507 1.386 . S
C511 C506 1.490 . S
C511 C513 1.395 1_554 S
C511 C514 1.403 . S
H512 C518 0.930 . S
C513 H499 0.930 . S
C513 C511 1.395 1_556 S
C513 C516 1.403 . S
C514 C511 1.403 . S
C514 C515 1.524 . S
C514 C518 1.400 . S
C515 H500 0.960 . S
C515 H501 0.960 . S
C515 H502 0.960 . S
C515 C514 1.524 . S
C516 C513 1.403 . S
C516 C517 1.392 1_556 S
C516 C520 1.495 . S
C517 C516 1.392 1_554 S
C517 C518 1.385 . S
C517 C519 1.478 . S
C518 H512 0.930 . S
C518 C514 1.400 . S
C518 C517 1.385 . S
C519 C517 1.478 . S
C519 C521 1.381 . S
C519 C525 1.383 . S
C520 C516 1.495 . S
C520 H526 0.959 . S
C520 H527 0.961 . S
C520 H528 0.960 . S
C521 C519 1.381 . S
C521 C522 1.394 . S
C521 H529 0.930 . S
C522 C521 1.394 . S
C522 C523 1.383 . S
C522 H530 0.929 . S
C523 C522 1.383 . S
C523 C524 1.377 . S
C524 H508 0.930 . S
C524 C523 1.377 . S
C524 C525 1.379 . S
C525 H509 0.931 . S
C525 C519 1.383 . S
C525 C524 1.379 . S
H526 C520 0.959 . S
H527 C520 0.961 . S
H528 C520 0.960 . S
H529 C521 0.930 . S
H530 C522 0.929 . S
H531 C539 0.929 . S
H532 C541 0.930 . S
H533 C543 0.928 1_556 S
H534 C546 0.922 1_556 S
H535 C549 0.930 . S
H536 C551 0.960 . S
H537 C551 0.960 . S
H538 C551 0.960 . S
C539 H531 0.929 . S
C539 C540 1.377 . S
C539 C541 1.384 . S
C540 C539 1.377 . S
C540 C546 1.397 . S
C541 H532 0.930 . S
C541 C539 1.384 . S
C541 C542 1.372 . S
C542 C541 1.372 . S
C542 C543 1.402 . S
C542 C547 1.490 . S
C543 H533 0.928 1_554 S
C543 C542 1.402 . S
C543 C546 1.386 . S
H544 C560 0.930 . S
H545 C561 0.931 . S
C546 H534 0.922 1_554 S
C546 C540 1.397 . S
C546 C543 1.386 . S
C547 C542 1.490 . S
C547 C549 1.395 1_554 S
C547 C550 1.403 . S
H548 C554 0.930 . S
C549 H535 0.930 . S
C549 C547 1.395 1_556 S
C549 C552 1.403 . S
C550 C547 1.403 . S
C550 C551 1.524 . S
C550 C554 1.400 . S
C551 H536 0.960 . S
C551 H537 0.960 . S
C551 H538 0.960 . S
C551 C550 1.524 . S
C552 C549 1.403 . S
C552 C553 1.392 1_556 S
C552 C556 1.495 . S
C553 C552 1.392 1_554 S
C553 C554 1.385 . S
C553 C555 1.478 . S
C554 H548 0.930 . S
C554 C550 1.400 . S
C554 C553 1.385 . S
C555 C553 1.478 . S
C555 C557 1.381 . S
C555 C561 1.383 1_554 S
C556 C552 1.495 . S
C556 H562 0.959 . S
C556 H563 0.961 . S
C556 H564 0.960 . S
C557 C555 1.381 . S
C557 C558 1.394 . S
C557 H565 0.930 . S
C558 C557 1.394 . S
C558 C559 1.383 . S
C558 H566 0.929 . S
C559 C558 1.383 . S
C559 C560 1.377 1_554 S
C560 H544 0.930 . S
C560 C559 1.377 1_556 S
C560 C561 1.379 . S
C561 H545 0.931 . S
C561 C555 1.383 1_556 S
C561 C560 1.379 . S
H562 C556 0.959 . S
H563 C556 0.961 . S
H564 C556 0.960 . S
H565 C557 0.930 . S
H566 C558 0.929 . S
H567 C575 0.929 . S
H568 C577 0.930 1_556 S
H569 C579 0.930 . S
H570 C582 0.929 . S
H571 C585 0.930 . S
H572 C587 0.960 . S
H573 C587 0.960 . S
H574 C587 0.960 . S
C575 H567 0.929 . S
C575 C576 1.377 . S
C575 C577 1.384 . S
C576 C575 1.377 . S
C576 C582 1.390 . S
C577 H568 0.930 1_554 S
C577 C575 1.384 . S
C577 C578 1.372 . S
C578 C577 1.372 . S
C578 C579 1.400 . S
C578 C583 1.490 . S
C579 H569 0.930 . S
C579 C578 1.400 . S
C579 C582 1.386 . S
H580 C596 0.930 . S
H581 C597 0.931 . S
C582 H570 0.929 . S
C582 C576 1.390 . S
C582 C579 1.386 . S
C583 C578 1.490 . S
C583 C585 1.395 1_554 S
C583 C586 1.403 . S
H584 C590 0.930 . S
C585 H571 0.930 . S
C585 C583 1.395 1_556 S
C585 C588 1.403 . S
C586 C583 1.403 . S
C586 C587 1.524 . S
C586 C590 1.400 . S
C587 H572 0.960 . S
C587 H573 0.960 . S
C587 H574 0.960 . S
C587 C586 1.524 . S
C588 C585 1.403 . S
C588 C589 1.392 1_556 S
C588 C592 1.495 . S
C589 C588 1.392 1_554 S
C589 C590 1.385 . S
C589 C591 1.478 . S
C590 H584 0.930 . S
C590 C586 1.400 . S
C590 C589 1.385 . S
C591 C589 1.478 . S
C591 C593 1.381 1_554 S
C591 C597 1.383 . S
C592 C588 1.495 . S
C592 H598 0.959 . S
C592 H599 0.961 . S
C592 H600 0.960 . S
C593 C591 1.381 1_556 S
C593 C594 1.394 . S
C593 H601 0.930 . S
C594 C593 1.394 . S
C594 C595 1.383 1_556 S
C594 H602 0.929 . S
C595 C594 1.383 1_554 S
C595 C596 1.377 . S
C596 H580 0.930 . S
C596 C595 1.377 . S
C596 C597 1.379 . S
C597 H581 0.931 . S
C597 C591 1.383 . S
C597 C596 1.379 . S
H598 C592 0.959 . S
H599 C592 0.961 . S
H600 C592 0.960 . S
H601 C593 0.930 . S
H602 C594 0.929 . S
H603 C611 0.929 . S
H604 C613 0.930 . S
H605 C615 0.930 . S
H606 C618 0.929 . S
H607 C621 0.930 . S
H608 C623 0.960 . S
H609 C623 0.960 . S
H610 C623 0.960 1_556 S
C611 H603 0.929 . S
C611 C612 1.377 . S
C611 C613 1.384 . S
C612 C611 1.377 . S
C612 C618 1.390 1_554 S
C613 H604 0.930 . S
C613 C611 1.384 . S
C613 C614 1.372 . S
C614 C613 1.372 . S
C614 C615 1.400 1_554 S
C614 C619 1.490 . S
C615 H605 0.930 . S
C615 C614 1.400 1_556 S
C615 C618 1.386 . S
H616 C632 0.930 . S
H617 C633 0.931 . S
C618 H606 0.929 . S
C618 C612 1.390 1_556 S
C618 C615 1.386 . S
C619 C614 1.490 . S
C619 C621 1.395 . S
C619 C622 1.403 . S
H620 C626 0.930 . S
C621 H607 0.930 . S
C621 C619 1.395 . S
C621 C624 1.403 . S
C622 C619 1.403 . S
C622 C623 1.524 . S
C622 C626 1.400 . S
C623 H608 0.960 . S
C623 H609 0.960 . S
C623 H610 0.960 1_554 S
C623 C622 1.524 . S
C624 C621 1.403 . S
C624 C625 1.392 . S
C624 C628 1.495 . S
C625 C624 1.392 . S
C625 C626 1.385 . S
C625 C627 1.478 . S
C626 H620 0.930 . S
C626 C622 1.400 . S
C626 C625 1.385 . S
C627 C625 1.478 . S
C627 C629 1.381 . S
C627 C633 1.383 1_554 S
C628 C624 1.495 . S
C628 H634 0.959 . S
C628 H635 0.961 . S
C628 H636 0.960 . S
C629 C627 1.381 . S
C629 C630 1.394 . S
C629 H637 0.930 . S
C630 C629 1.394 . S
C630 C631 1.383 . S
C630 H638 0.929 . S
C631 C630 1.383 . S
C631 C632 1.377 1_554 S
C632 H616 0.930 . S
C632 C631 1.377 1_556 S
C632 C633 1.379 . S
C633 H617 0.931 . S
C633 C627 1.383 1_556 S
C633 C632 1.379 . S
H634 C628 0.959 . S
H635 C628 0.961 . S
H636 C628 0.960 . S
H637 C629 0.930 . S
H638 C630 0.929 . S
H639 C647 0.929 . S
H640 C649 0.930 . S
H641 C651 0.930 . S
H642 C654 0.932 . S
H643 C657 0.930 . S
H644 C659 0.960 . S
H645 C659 0.960 . S
H646 C659 0.960 . S
C647 H639 0.929 . S
C647 C648 1.377 . S
C647 C649 1.384 . S
C648 C647 1.377 . S
C648 C654 1.390 . S
C649 H640 0.930 . S
C649 C647 1.384 . S
C649 C650 1.372 . S
C650 C649 1.372 . S
C650 C651 1.400 . S
C650 C655 1.490 . S
C651 H641 0.930 . S
C651 C650 1.400 . S
C651 C654 1.386 . S
H652 C668 0.930 1_556 S
H653 C669 0.931 1_556 S
C654 H642 0.932 . S
C654 C648 1.390 . S
C654 C651 1.386 . S
C655 C650 1.490 . S
C655 C657 1.395 . S
C655 C658 1.403 . S
H656 C662 0.930 . S
C657 H643 0.930 . S
C657 C655 1.395 . S
C657 C660 1.403 . S
C658 C655 1.403 . S
C658 C659 1.524 . S
C658 C662 1.400 . S
C659 H644 0.960 . S
C659 H645 0.960 . S
C659 H646 0.960 . S
C659 C658 1.524 . S
C660 C657 1.403 . S
C660 C661 1.392 . S
C660 C664 1.495 . S
C661 C660 1.392 . S
C661 C662 1.385 . S
C661 C663 1.478 . S
C662 H656 0.930 . S
C662 C658 1.400 . S
C662 C661 1.385 . S
C663 C661 1.478 . S
C663 C665 1.381 . S
C663 C669 1.383 . S
C664 C660 1.495 . S
C664 H670 0.951 1_554 S
C664 H671 0.961 1_554 S
C664 H672 0.960 . S
C665 C663 1.381 . S
C665 C666 1.394 . S
C665 H673 0.930 . S
C666 C665 1.394 . S
C666 C667 1.383 . S
C666 H674 0.929 . S
C667 C666 1.383 . S
C667 C668 1.377 . S
C668 H652 0.930 1_554 S
C668 C667 1.377 . S
C668 C669 1.379 . S
C669 H653 0.931 1_554 S
C669 C663 1.383 . S
C669 C668 1.379 . S
H670 C664 0.951 1_556 S
H671 C664 0.961 1_556 S
H672 C664 0.960 . S
H673 C665 0.930 . S
H674 C666 0.929 . S
H675 C683 0.929 . S
H676 C685 0.930 . S
H677 C687 0.930 1_556 S
H678 C690 0.929 1_556 S
H679 C693 0.930 . S
H680 C695 0.960 . S
H681 C695 0.960 . S
H682 C695 0.960 . S
C683 H675 0.929 . S
C683 C684 1.377 . S
C683 C685 1.384 . S
C684 C683 1.377 . S
C684 C690 1.390 . S
C685 H676 0.930 . S
C685 C683 1.384 . S
C685 C686 1.372 . S
C686 C685 1.372 . S
C686 C687 1.400 . S
C686 C691 1.490 . S
C687 H677 0.930 1_554 S
C687 C686 1.400 . S
C687 C690 1.386 . S
H688 C704 0.930 . S
H689 C705 0.931 . S
C690 H678 0.929 1_554 S
C690 C684 1.390 . S
C690 C687 1.386 . S
C691 C686 1.490 . S
C691 C693 1.395 1_554 S
C691 C694 1.403 . S
H692 C698 0.930 . S
C693 H679 0.930 . S
C693 C691 1.395 1_556 S
C693 C696 1.403 . S
C694 C691 1.403 . S
C694 C695 1.524 . S
C694 C698 1.400 . S
C695 H680 0.960 . S
C695 H681 0.960 . S
C695 H682 0.960 . S
C695 C694 1.524 . S
C696 C693 1.403 . S
C696 C697 1.392 1_556 S
C696 C700 1.495 . S
C697 C696 1.392 1_554 S
C697 C698 1.385 . S
C697 C699 1.478 . S
C698 H692 0.930 . S
C698 C694 1.400 . S
C698 C697 1.385 . S
C699 C697 1.478 . S
C699 C701 1.381 . S
C699 C705 1.383 1_554 S
C700 C696 1.495 . S
C700 H706 0.959 . S
C700 H707 0.961 . S
C700 H708 0.960 . S
C701 C699 1.381 . S
C701 C702 1.394 . S
C701 H709 0.930 . S
C702 C701 1.394 . S
C702 C703 1.383 . S
C702 H710 0.929 . S
C703 C702 1.383 . S
C703 C704 1.377 1_554 S
C704 H688 0.930 . S
C704 C703 1.377 1_556 S
C704 C705 1.379 . S
C705 H689 0.931 . S
C705 C699 1.383 1_556 S
C705 C704 1.379 . S
H706 C700 0.959 . S
H707 C700 0.961 . S
H708 C700 0.960 . S
H709 C701 0.930 . S
H710 C702 0.929 . S
H711 C719 0.929 . S
H712 C721 0.930 . S
H713 C723 0.930 . S
H714 C726 0.929 . S
H715 C729 0.930 . S
H716 C731 0.960 . S
H717 C731 0.960 . S
H718 C731 0.960 . S
C719 H711 0.929 . S
C719 C720 1.377 . S
C719 C721 1.384 . S
C720 C719 1.377 . S
C720 C726 1.390 1_554 S
C721 H712 0.930 . S
C721 C719 1.384 . S
C721 C722 1.372 . S
C722 C721 1.372 . S
C722 C723 1.400 1_554 S
C722 C727 1.490 . S
C723 H713 0.930 . S
C723 C722 1.400 1_556 S
C723 C726 1.386 . S
H724 C740 0.930 . S
H725 C741 0.931 . S
C726 H714 0.929 . S
C726 C720 1.390 1_556 S
C726 C723 1.386 . S
C727 C722 1.490 . S
C727 C729 1.395 . S
C727 C730 1.403 . S
H728 C734 0.930 . S
C729 H715 0.930 . S
C729 C727 1.395 . S
C729 C732 1.403 . S
C730 C727 1.403 . S
C730 C731 1.524 . S
C730 C734 1.400 . S
C731 H716 0.960 . S
C731 H717 0.960 . S
C731 H718 0.960 . S
C731 C730 1.524 . S
C732 C729 1.403 . S
C732 C733 1.392 . S
C732 C736 1.495 . S
C733 C732 1.392 . S
C733 C734 1.385 . S
C733 C735 1.478 . S
C734 H728 0.930 . S
C734 C730 1.400 . S
C734 C733 1.385 . S
C735 C733 1.478 . S
C735 C737 1.381 . S
C735 C741 1.383 1_554 S
C736 C732 1.495 . S
C736 H742 0.959 . S
C736 H743 0.961 1_554 S
C736 H744 0.960 . S
C737 C735 1.381 . S
C737 C738 1.394 . S
C737 H745 0.930 . S
C738 C737 1.394 . S
C738 C739 1.383 . S
C738 H746 0.929 . S
C739 C738 1.383 . S
C739 C740 1.377 1_554 S
C740 H724 0.930 . S
C740 C739 1.377 1_556 S
C740 C741 1.379 . S
C741 H725 0.931 . S
C741 C735 1.383 1_556 S
C741 C740 1.379 . S
H742 C736 0.959 . S
H743 C736 0.961 1_556 S
H744 C736 0.960 . S
H745 C737 0.930 . S
H746 C738 0.929 . S
H747 C755 0.929 . S
H748 C757 0.930 . S
H749 C759 0.930 . S
H750 C762 0.929 . S
H751 C765 0.930 . S
H752 C767 0.960 . S
H753 C767 0.960 . S
H754 C767 0.960 1_554 S
C755 H747 0.929 . S
C755 C756 1.377 1_556 S
C755 C757 1.384 . S
C756 C755 1.377 1_554 S
C756 C762 1.390 . S
C757 H748 0.930 . S
C757 C755 1.384 . S
C757 C758 1.372 1_556 S
C758 C757 1.372 1_554 S
C758 C759 1.400 . S
C758 C763 1.490 . S
C759 H749 0.930 . S
C759 C758 1.400 . S
C759 C762 1.386 . S
H760 C776 0.930 . S
H761 C777 0.931 . S
C762 H750 0.929 . S
C762 C756 1.390 . S
C762 C759 1.386 . S
C763 C758 1.490 . S
C763 C765 1.395 . S
C763 C766 1.402 1_554 S
H764 C770 0.931 . S
C765 H751 0.930 . S
C765 C763 1.395 . S
C765 C768 1.403 . S
C766 C763 1.402 1_556 S
C766 C767 1.525 . S
C766 C770 1.400 . S
C767 H752 0.960 . S
C767 H753 0.960 . S
C767 H754 0.960 1_556 S
C767 C766 1.525 . S
C768 C765 1.403 . S
C768 C769 1.393 . S
C768 C772 1.495 . S
C769 C768 1.393 . S
C769 C770 1.390 1_554 S
C769 C771 1.478 . S
C770 H764 0.931 . S
C770 C766 1.400 . S
C770 C769 1.390 1_556 S
C771 C769 1.478 . S
C771 C773 1.348 1_554 S
C771 C777 1.414 . S
C772 C768 1.495 . S
C772 H778 0.959 . S
C772 H779 0.961 . S
C772 H780 0.960 1_554 S
C773 C771 1.348 1_556 S
C773 C774 1.394 . S
C773 H781 0.930 . S
C774 C773 1.394 . S
C774 C775 1.398 . S
C774 H782 0.929 . S
C775 C774 1.398 . S
C775 C776 1.361 1_556 S
C776 H760 0.930 . S
C776 C775 1.361 1_554 S
C776 C777 1.379 . S
C777 H761 0.931 . S
C777 C771 1.414 . S
C777 C776 1.379 . S
H778 C772 0.959 . S
H779 C772 0.961 . S
H780 C772 0.960 1_556 S
H781 C773 0.930 . S
H782 C774 0.929 . S
H783 C791 0.929 . S
H784 C793 0.930 . S
H785 C795 0.930 . S
H786 C798 0.929 . S
H787 C801 0.930 . S
H788 C803 0.960 . S
H789 C803 0.960 . S
H790 C803 0.960 . S
C791 H783 0.929 . S
C791 C792 1.377 . S
C791 C793 1.384 . S
C792 C791 1.377 . S
C792 C798 1.390 1_554 S
C793 H784 0.930 . S
C793 C791 1.384 . S
C793 C794 1.372 . S
C794 C793 1.372 . S
C794 C795 1.400 1_554 S
C794 C799 1.490 . S
C795 H785 0.930 . S
C795 C794 1.400 1_556 S
C795 C798 1.386 . S
H796 C812 0.930 . S
H797 C813 0.931 . S
C798 H786 0.929 . S
C798 C792 1.390 1_556 S
C798 C795 1.386 . S
C799 C794 1.490 . S
C799 C801 1.395 . S
C799 C802 1.403 1_554 S
H800 C806 0.930 . S
C801 H787 0.930 . S
C801 C799 1.395 . S
C801 C804 1.403 . S
C802 C799 1.403 1_556 S
C802 C803 1.524 . S
C802 C806 1.400 . S
C803 H788 0.960 . S
C803 H789 0.960 . S
C803 H790 0.960 . S
C803 C802 1.524 . S
C804 C801 1.403 . S
C804 C805 1.392 . S
C804 C808 1.495 . S
C805 C804 1.392 . S
C805 C806 1.385 1_554 S
C805 C807 1.478 . S
C806 H800 0.930 . S
C806 C802 1.400 . S
C806 C805 1.385 1_556 S
C807 C805 1.478 . S
C807 C809 1.381 . S
C807 C813 1.383 1_554 S
C808 C804 1.495 . S
C808 H814 0.959 . S
C808 H815 0.961 . S
C808 H816 0.960 . S
C809 C807 1.381 . S
C809 C810 1.394 . S
C809 H817 0.930 . S
C810 C809 1.394 . S
C810 C811 1.383 . S
C810 H818 0.929 . S
C811 C810 1.383 . S
C811 C812 1.377 1_554 S
C812 H796 0.930 . S
C812 C811 1.377 1_556 S
C812 C813 1.379 . S
C813 H797 0.931 . S
C813 C807 1.383 1_556 S
C813 C812 1.379 . S
H814 C808 0.959 . S
H815 C808 0.961 . S
H816 C808 0.960 . S
H817 C809 0.930 . S
H818 C810 0.929 . S
H819 C827 0.929 . S
H820 C829 0.930 . S
H821 C831 0.930 . S
H822 C834 0.929 . S
H823 C837 0.930 . S
H824 C839 0.960 . S
H825 C839 0.960 1_655 S
H826 C839 0.960 1_655 S
C827 H819 0.929 . S
C827 C828 1.377 . S
C827 C829 1.384 . S
C828 C827 1.377 . S
C828 C834 1.390 . S
C829 H820 0.930 . S
C829 C827 1.384 . S
C829 C830 1.372 . S
C830 C829 1.372 . S
C830 C831 1.400 . S
C830 C835 1.490 1_655 S
C831 H821 0.930 . S
C831 C830 1.400 . S
C831 C834 1.386 . S
H832 C848 0.930 . S
H833 C849 0.931 . S
C834 H822 0.929 . S
C834 C828 1.390 . S
C834 C831 1.386 . S
C835 C830 1.490 1_455 S
C835 C837 1.395 . S
C835 C838 1.403 . S
H836 C842 0.930 . S
C837 H823 0.930 . S
C837 C835 1.395 . S
C837 C840 1.403 . S
C838 C835 1.403 . S
C838 C839 1.524 . S
C838 C842 1.400 . S
C839 H824 0.960 . S
C839 H825 0.960 1_455 S
C839 H826 0.960 1_455 S
C839 C838 1.524 . S
C840 C837 1.403 . S
C840 C841 1.392 . S
C840 C844 1.495 . S
C841 C840 1.392 . S
C841 C842 1.385 . S
C841 C843 1.478 . S
C842 H836 0.930 . S
C842 C838 1.400 . S
C842 C841 1.385 . S
C843 C841 1.478 . S
C843 C845 1.381 . S
C843 C849 1.383 . S
C844 C840 1.495 . S
C844 H850 0.959 . S
C844 H851 0.961 . S
C844 H852 0.960 . S
C845 C843 1.381 . S
C845 C846 1.394 . S
C845 H853 0.930 . S
C846 C845 1.394 . S
C846 C847 1.383 . S
C846 H854 0.929 . S
C847 C846 1.383 . S
C847 C848 1.377 . S
C848 H832 0.930 . S
C848 C847 1.377 . S
C848 C849 1.379 . S
C849 H833 0.931 . S
C849 C843 1.383 . S
C849 C848 1.379 . S
H850 C844 0.959 . S
H851 C844 0.961 . S
H852 C844 0.960 . S
H853 C845 0.930 . S
H854 C846 0.929 . S
H855 C863 0.929 . S
H856 C865 0.930 . S
H857 C867 0.930 . S
H858 C870 0.929 . S
H859 C873 0.930 . S
H860 C875 0.960 . S
H861 C875 0.960 . S
H862 C875 0.960 . S
C863 H855 0.929 . S
C863 C864 1.377 . S
C863 C865 1.384 . S
C864 C863 1.377 . S
C864 C870 1.390 . S
C865 H856 0.930 . S
C865 C863 1.384 . S
C865 C866 1.372 . S
C866 C865 1.372 . S
C866 C867 1.400 . S
C866 C871 1.490 . S
C867 H857 0.930 . S
C867 C866 1.400 . S
C867 C870 1.386 . S
H868 C884 0.930 . S
H869 C885 0.931 . S
C870 H858 0.929 . S
C870 C864 1.390 . S
C870 C867 1.386 . S
C871 C866 1.490 . S
C871 C873 1.395 . S
C871 C874 1.403 . S
H872 C878 0.930 . S
C873 H859 0.930 . S
C873 C871 1.395 . S
C873 C876 1.403 . S
C874 C871 1.403 . S
C874 C875 1.524 . S
C874 C878 1.400 . S
C875 H860 0.960 . S
C875 H861 0.960 . S
C875 H862 0.960 . S
C875 C874 1.524 . S
C876 C873 1.403 . S
C876 C877 1.392 . S
C876 C880 1.495 . S
C877 C876 1.392 . S
C877 C878 1.385 . S
C877 C879 1.478 . S
C878 H872 0.930 . S
C878 C874 1.400 . S
C878 C877 1.385 . S
C879 C877 1.478 . S
C879 C881 1.381 . S
C879 C885 1.383 . S
C880 C876 1.495 . S
C880 H886 0.959 . S
C880 H887 0.961 . S
C880 H888 0.960 . S
C881 C879 1.381 . S
C881 C882 1.394 . S
C881 H889 0.930 . S
C882 C881 1.394 . S
C882 C883 1.383 . S
C882 H890 0.929 . S
C883 C882 1.383 . S
C883 C884 1.377 . S
C884 H868 0.930 . S
C884 C883 1.377 . S
C884 C885 1.379 . S
C885 H869 0.931 . S
C885 C879 1.383 . S
C885 C884 1.379 . S
H886 C880 0.959 . S
H887 C880 0.961 . S
H888 C880 0.960 . S
H889 C881 0.930 . S
H890 C882 0.929 . S
H891 C899 0.929 . S
H892 C901 0.930 . S
H893 C903 0.930 . S
H894 C906 0.929 . S
H895 C909 0.930 . S
H896 C911 0.960 1_565 S
H897 C911 0.960 . S
H898 C911 0.960 . S
C899 H891 0.929 . S
C899 C900 1.377 . S
C899 C901 1.384 . S
C900 C899 1.377 . S
C900 C906 1.390 . S
C901 H892 0.930 . S
C901 C899 1.384 . S
C901 C902 1.372 . S
C902 C901 1.372 . S
C902 C903 1.400 . S
C902 C907 1.490 1_545 S
C903 H893 0.930 . S
C903 C902 1.400 . S
C903 C906 1.386 . S
H904 C920 0.930 . S
H905 C921 0.931 . S
C906 H894 0.929 . S
C906 C900 1.390 . S
C906 C903 1.386 . S
C907 C902 1.490 1_565 S
C907 C909 1.395 . S
C907 C910 1.403 . S
H908 C914 0.930 . S
C909 H895 0.930 . S
C909 C907 1.395 . S
C909 C912 1.403 . S
C910 C907 1.403 . S
C910 C911 1.524 1_565 S
C910 C914 1.400 . S
C911 H896 0.960 1_545 S
C911 H897 0.960 . S
C911 H898 0.960 . S
C911 C910 1.524 1_545 S
C912 C909 1.403 . S
C912 C913 1.392 . S
C912 C916 1.495 . S
C913 C912 1.392 . S
C913 C914 1.385 . S
C913 C915 1.478 . S
C914 H908 0.930 . S
C914 C910 1.400 . S
C914 C913 1.385 . S
C915 C913 1.478 . S
C915 C917 1.381 . S
C915 C921 1.383 . S
C916 C912 1.495 . S
C916 H922 0.959 . S
C916 H923 0.961 . S
C916 H924 0.960 . S
C917 C915 1.381 . S
C917 C918 1.394 . S
C917 H925 0.930 . S
C918 C917 1.394 . S
C918 C919 1.383 . S
C918 H926 0.929 . S
C919 C918 1.383 . S
C919 C920 1.377 . S
C920 H904 0.930 . S
C920 C919 1.377 . S
C920 C921 1.379 . S
C921 H905 0.931 . S
C921 C915 1.383 . S
C921 C920 1.379 . S
H922 C916 0.959 . S
H923 C916 0.961 . S
H924 C916 0.960 . S
H925 C917 0.930 . S
H926 C918 0.929 . S
H927 C935 0.929 . S
H928 C937 0.930 . S
H929 C939 0.930 . S
H930 C942 0.929 . S
H931 C945 0.930 . S
H932 C947 0.960 . S
H933 C947 0.960 . S
H934 C947 0.960 . S
C935 H927 0.929 . S
C935 C936 1.377 . S
C935 C937 1.384 . S
C936 C935 1.377 . S
C936 C942 1.390 . S
C937 H928 0.930 . S
C937 C935 1.384 . S
C937 C938 1.372 . S
C938 C937 1.372 . S
C938 C939 1.400 . S
C938 C943 1.490 . S
C939 H929 0.930 . S
C939 C938 1.400 . S
C939 C942 1.386 . S
H940 C956 0.930 . S
H941 C957 0.931 . S
C942 H930 0.929 . S
C942 C936 1.390 . S
C942 C939 1.386 . S
C943 C938 1.490 . S
C943 C945 1.395 . S
C943 C946 1.403 . S
H944 C950 0.930 . S
C945 H931 0.930 . S
C945 C943 1.395 . S
C945 C948 1.403 . S
C946 C943 1.403 . S
C946 C947 1.524 . S
C946 C950 1.400 . S
C947 H932 0.960 . S
C947 H933 0.960 . S
C947 H934 0.960 . S
C947 C946 1.524 . S
C948 C945 1.403 . S
C948 C949 1.392 . S
C948 C952 1.495 . S
C949 C948 1.392 . S
C949 C950 1.385 . S
C949 C951 1.478 . S
C950 H944 0.930 . S
C950 C946 1.400 . S
C950 C949 1.385 . S
C951 C949 1.478 . S
C951 C953 1.381 . S
C951 C957 1.383 . S
C952 C948 1.495 . S
C952 H958 0.959 . S
C952 H959 0.961 . S
C952 H960 0.960 . S
C953 C951 1.381 . S
C953 C954 1.394 . S
C953 H961 0.930 . S
C954 C953 1.394 . S
C954 C955 1.383 . S
C954 H962 0.929 . S
C955 C954 1.383 . S
C955 C956 1.377 . S
C956 H940 0.930 . S
C956 C955 1.377 . S
C956 C957 1.379 . S
C957 H941 0.931 . S
C957 C951 1.383 . S
C957 C956 1.379 . S
H958 C952 0.959 . S
H959 C952 0.961 . S
H960 C952 0.960 . S
H961 C953 0.930 . S
H962 C954 0.929 . S
H963 C971 0.929 . S
H964 C973 0.930 . S
H965 C975 0.930 . S
H966 C978 0.929 . S
H967 C981 0.930 . S
H968 C983 0.960 . S
H969 C983 0.960 . S
H970 C983 0.960 . S
C971 H963 0.929 . S
C971 C972 1.377 . S
C971 C973 1.384 . S
C972 C971 1.377 . S
C972 C978 1.390 . S
C973 H964 0.930 . S
C973 C971 1.384 . S
C973 C974 1.372 . S
C974 C973 1.372 . S
C974 C975 1.400 . S
C974 C979 1.490 . S
C975 H965 0.930 . S
C975 C974 1.400 . S
C975 C978 1.386 . S
H976 C992 0.930 . S
H977 C993 0.931 . S
C978 H966 0.929 . S
C978 C972 1.390 . S
C978 C975 1.386 . S
C979 C974 1.490 . S
C979 C981 1.395 . S
C979 C982 1.403 . S
H980 C986 0.930 . S
C981 H967 0.930 . S
C981 C979 1.395 . S
C981 C984 1.403 . S
C982 C979 1.403 . S
C982 C983 1.524 . S
C982 C986 1.400 . S
C983 H968 0.960 . S
C983 H969 0.960 . S
C983 H970 0.960 . S
C983 C982 1.524 . S
C984 C981 1.403 . S
C984 C985 1.392 . S
C984 C988 1.495 . S
C985 C984 1.392 . S
C985 C986 1.385 . S
C985 C987 1.478 . S
C986 H980 0.930 . S
C986 C982 1.400 . S
C986 C985 1.385 . S
C987 C985 1.478 . S
C987 C989 1.381 . S
C987 C993 1.383 . S
C988 C984 1.495 . S
C988 H994 0.959 . S
C988 H995 0.961 . S
C988 H996 0.960 . S
C989 C987 1.381 . S
C989 C990 1.394 . S
C989 H997 0.930 . S
C990 C989 1.394 . S
C990 C991 1.383 . S
C990 H998 0.929 . S
C991 C990 1.383 . S
C991 C992 1.377 . S
C992 H976 0.930 . S
C992 C991 1.377 . S
C992 C993 1.379 . S
C993 H977 0.931 . S
C993 C987 1.383 . S
C993 C992 1.379 . S
H994 C988 0.959 . S
H995 C988 0.961 . S
H996 C988 0.960 . S
H997 C989 0.930 . S
H998 C990 0.929 . S
H999 C1007 0.929 . S
H1000 C1009 0.930 . S
H1001 C1011 0.930 . S
H1002 C1014 0.929 . S
H1003 C1017 0.930 . S
H1004 C1019 0.960 . S
H1005 C1019 0.960 . S
H1006 C1019 0.960 . S
C1007 H999 0.929 . S
C1007 C1008 1.377 . S
C1007 C1009 1.384 . S
C1008 C1007 1.377 . S
C1008 C1014 1.390 . S
C1009 H1000 0.930 . S
C1009 C1007 1.384 . S
C1009 C1010 1.372 . S
C1010 C1009 1.372 . S
C1010 C1011 1.400 . S
C1010 C1015 1.490 . S
C1011 H1001 0.930 . S
C1011 C1010 1.400 . S
C1011 C1014 1.386 . S
H1012 C1028 0.930 . S
H1013 C1029 0.931 . S
C1014 H1002 0.929 . S
C1014 C1008 1.390 . S
C1014 C1011 1.386 . S
C1015 C1010 1.490 . S
C1015 C1017 1.395 . S
C1015 C1018 1.403 . S
H1016 C1022 0.930 . S
C1017 H1003 0.930 . S
C1017 C1015 1.395 . S
C1017 C1020 1.403 . S
C1018 C1015 1.403 . S
C1018 C1019 1.524 . S
C1018 C1022 1.400 . S
C1019 H1004 0.960 . S
C1019 H1005 0.960 . S
C1019 H1006 0.960 . S
C1019 C1018 1.524 . S
C1020 C1017 1.403 . S
C1020 C1021 1.392 . S
C1020 C1024 1.495 . S
C1021 C1020 1.392 . S
C1021 C1022 1.385 . S
C1021 C1023 1.478 . S
C1022 H1016 0.930 . S
C1022 C1018 1.400 . S
C1022 C1021 1.385 . S
C1023 C1021 1.478 . S
C1023 C1025 1.381 . S
C1023 C1029 1.383 . S
C1024 C1020 1.495 . S
C1024 H1030 0.959 . S
C1024 H1031 0.961 . S
C1024 H1032 0.960 . S
C1025 C1023 1.381 . S
C1025 C1026 1.394 . S
C1025 H1033 0.930 . S
C1026 C1025 1.394 . S
C1026 C1027 1.383 . S
C1026 H1034 0.929 . S
C1027 C1026 1.383 . S
C1027 C1028 1.377 . S
C1028 H1012 0.930 . S
C1028 C1027 1.377 . S
C1028 C1029 1.379 . S
C1029 H1013 0.931 . S
C1029 C1023 1.383 . S
C1029 C1028 1.379 . S
H1030 C1024 0.959 . S
H1031 C1024 0.961 . S
H1032 C1024 0.960 . S
H1033 C1025 0.930 . S
H1034 C1026 0.929 . S
H1035 C1043 0.929 . S
H1036 C1045 0.930 . S
H1037 C1047 0.930 . S
H1038 C1050 0.929 . S
H1039 C1053 0.930 . S
H1040 C1055 0.960 . S
H1041 C1055 0.960 . S
H1042 C1055 0.960 . S
C1043 H1035 0.929 . S
C1043 C1044 1.377 . S
C1043 C1045 1.384 . S
C1044 C1043 1.377 . S
C1044 C1050 1.390 . S
C1045 H1036 0.930 . S
C1045 C1043 1.384 . S
C1045 C1046 1.372 . S
C1046 C1045 1.372 . S
C1046 C1047 1.400 . S
C1046 C1051 1.490 . S
C1047 H1037 0.930 . S
C1047 C1046 1.400 . S
C1047 C1050 1.386 . S
H1048 C1064 0.930 . S
H1049 C1065 0.931 . S
C1050 H1038 0.929 . S
C1050 C1044 1.390 . S
C1050 C1047 1.386 . S
C1051 C1046 1.490 . S
C1051 C1053 1.395 . S
C1051 C1054 1.403 . S
H1052 C1058 0.930 . S
C1053 H1039 0.930 . S
C1053 C1051 1.395 . S
C1053 C1056 1.403 . S
C1054 C1051 1.403 . S
C1054 C1055 1.524 . S
C1054 C1058 1.400 . S
C1055 H1040 0.960 . S
C1055 H1041 0.960 . S
C1055 H1042 0.960 . S
C1055 C1054 1.524 . S
C1056 C1053 1.403 . S
C1056 C1057 1.392 . S
C1056 C1060 1.495 . S
C1057 C1056 1.392 . S
C1057 C1058 1.385 . S
C1057 C1059 1.478 . S
C1058 H1052 0.930 . S
C1058 C1054 1.400 . S
C1058 C1057 1.385 . S
C1059 C1057 1.478 . S
C1059 C1061 1.381 . S
C1059 C1065 1.383 . S
C1060 C1056 1.495 . S
C1060 H1066 0.959 . S
C1060 H1067 0.961 . S
C1060 H1068 0.960 . S
C1061 C1059 1.381 . S
C1061 C1062 1.394 . S
C1061 H1069 0.930 . S
C1062 C1061 1.394 . S
C1062 C1063 1.383 . S
C1062 H1070 0.929 . S
C1063 C1062 1.383 . S
C1063 C1064 1.377 . S
C1064 H1048 0.930 . S
C1064 C1063 1.377 . S
C1064 C1065 1.379 . S
C1065 H1049 0.931 . S
C1065 C1059 1.383 . S
C1065 C1064 1.379 . S
H1066 C1060 0.959 . S
H1067 C1060 0.961 . S
H1068 C1060 0.960 . S
H1069 C1061 0.930 . S
H1070 C1062 0.929 . S
H1071 C1079 0.929 . S
H1072 C1081 0.930 . S
H1073 C1083 0.930 . S
H1074 C1086 0.929 . S
H1075 C1089 0.930 . S
H1076 C1091 0.960 . S
H1077 C1091 0.960 . S
H1078 C1091 0.960 . S
C1079 H1071 0.929 . S
C1079 C1080 1.377 . S
C1079 C1081 1.384 . S
C1080 C1079 1.377 . S
C1080 C1086 1.390 . S
C1081 H1072 0.930 . S
C1081 C1079 1.384 . S
C1081 C1082 1.372 . S
C1082 C1081 1.372 . S
C1082 C1083 1.400 . S
C1082 C1087 1.490 . S
C1083 H1073 0.930 . S
C1083 C1082 1.400 . S
C1083 C1086 1.386 . S
H1084 C1100 0.930 . S
H1085 C1101 0.931 . S
C1086 H1074 0.929 . S
C1086 C1080 1.390 . S
C1086 C1083 1.386 . S
C1087 C1082 1.490 . S
C1087 C1089 1.395 . S
C1087 C1090 1.403 . S
H1088 C1094 0.930 . S
C1089 H1075 0.930 . S
C1089 C1087 1.395 . S
C1089 C1092 1.403 . S
C1090 C1087 1.403 . S
C1090 C1091 1.524 . S
C1090 C1094 1.400 . S
C1091 H1076 0.960 . S
C1091 H1077 0.960 . S
C1091 H1078 0.960 . S
C1091 C1090 1.524 . S
C1092 C1089 1.403 . S
C1092 C1093 1.392 . S
C1092 C1096 1.495 . S
C1093 C1092 1.392 . S
C1093 C1094 1.385 . S
C1093 C1095 1.478 . S
C1094 H1088 0.930 . S
C1094 C1090 1.400 . S
C1094 C1093 1.385 . S
C1095 C1093 1.478 . S
C1095 C1097 1.381 . S
C1095 C1101 1.383 . S
C1096 C1092 1.495 . S
C1096 H1102 0.959 . S
C1096 H1103 0.961 . S
C1096 H1104 0.960 . S
C1097 C1095 1.381 . S
C1097 C1098 1.394 . S
C1097 H1105 0.930 . S
C1098 C1097 1.394 . S
C1098 C1099 1.383 . S
C1098 H1106 0.929 . S
C1099 C1098 1.383 . S
C1099 C1100 1.377 . S
C1100 H1084 0.930 . S
C1100 C1099 1.377 . S
C1100 C1101 1.379 . S
C1101 H1085 0.931 . S
C1101 C1095 1.383 . S
C1101 C1100 1.379 . S
H1102 C1096 0.959 . S
H1103 C1096 0.961 . S
H1104 C1096 0.960 . S
H1105 C1097 0.930 . S
H1106 C1098 0.929 . S
H1107 C1115 0.929 . S
H1108 C1117 0.930 . S
H1109 C1119 0.930 . S
H1110 C1122 0.929 . S
H1111 C1125 0.930 . S
H1112 C1127 0.960 . S
H1113 C1127 0.960 . S
H1114 C1127 0.960 . S
C1115 H1107 0.929 . S
C1115 C1116 1.377 . S
C1115 C1117 1.384 . S
C1116 C1115 1.377 . S
C1116 C1122 1.390 . S
C1117 H1108 0.930 . S
C1117 C1115 1.384 . S
C1117 C1118 1.372 . S
C1118 C1117 1.372 . S
C1118 C1119 1.400 . S
C1118 C1123 1.490 . S
C1119 H1109 0.930 . S
C1119 C1118 1.400 . S
C1119 C1122 1.386 . S
H1120 C1136 0.930 . S
H1121 C1137 0.931 . S
C1122 H1110 0.929 . S
C1122 C1116 1.390 . S
C1122 C1119 1.386 . S
C1123 C1118 1.490 . S
C1123 C1125 1.395 . S
C1123 C1126 1.403 . S
H1124 C1130 0.930 . S
C1125 H1111 0.930 . S
C1125 C1123 1.395 . S
C1125 C1128 1.403 . S
C1126 C1123 1.403 . S
C1126 C1127 1.524 . S
C1126 C1130 1.400 . S
C1127 H1112 0.960 . S
C1127 H1113 0.960 . S
C1127 H1114 0.960 . S
C1127 C1126 1.524 . S
C1128 C1125 1.403 . S
C1128 C1129 1.392 . S
C1128 C1132 1.495 . S
C1129 C1128 1.392 . S
C1129 C1130 1.385 . S
C1129 C1131 1.478 . S
C1130 H1124 0.930 . S
C1130 C1126 1.400 . S
C1130 C1129 1.385 . S
C1131 C1129 1.478 . S
C1131 C1133 1.381 . S
C1131 C1137 1.383 . S
C1132 C1128 1.495 . S
C1132 H1138 0.959 . S
C1132 H1139 0.961 . S
C1132 H1140 0.960 . S
C1133 C1131 1.381 . S
C1133 C1134 1.394 . S
C1133 H1141 0.930 . S
C1134 C1133 1.394 . S
C1134 C1135 1.383 . S
C1134 H1142 0.929 . S
C1135 C1134 1.383 . S
C1135 C1136 1.377 . S
C1136 H1120 0.930 . S
C1136 C1135 1.377 . S
C1136 C1137 1.379 . S
C1137 H1121 0.931 . S
C1137 C1131 1.383 . S
C1137 C1136 1.379 . S
H1138 C1132 0.959 . S
H1139 C1132 0.961 . S
H1140 C1132 0.960 . S
H1141 C1133 0.930 . S
H1142 C1134 0.929 . S
H1143 C1151 0.929 . S
H1144 C1153 0.930 . S
H1145 C1155 0.930 . S
H1146 C1158 0.929 . S
H1147 C1161 0.930 . S
H1148 C1163 0.960 . S
H1149 C1163 0.960 . S
H1150 C1163 0.960 . S
C1151 H1143 0.929 . S
C1151 C1152 1.377 . S
C1151 C1153 1.384 . S
C1152 C1151 1.377 . S
C1152 C1158 1.390 . S
C1153 H1144 0.930 . S
C1153 C1151 1.384 . S
C1153 C1154 1.372 . S
C1154 C1153 1.372 . S
C1154 C1155 1.400 . S
C1154 C1159 1.490 1_545 S
C1155 H1145 0.930 . S
C1155 C1154 1.400 . S
C1155 C1158 1.386 . S
H1156 C1172 0.930 . S
H1157 C1173 0.931 . S
C1158 H1146 0.929 . S
C1158 C1152 1.390 . S
C1158 C1155 1.386 . S
C1159 C1154 1.490 1_565 S
C1159 C1161 1.395 . S
C1159 C1162 1.403 . S
H1160 C1166 0.930 . S
C1161 H1147 0.930 . S
C1161 C1159 1.395 . S
C1161 C1164 1.403 . S
C1162 C1159 1.403 . S
C1162 C1163 1.524 . S
C1162 C1166 1.400 . S
C1163 H1148 0.960 . S
C1163 H1149 0.960 . S
C1163 H1150 0.960 . S
C1163 C1162 1.524 . S
C1164 C1161 1.403 . S
C1164 C1165 1.392 . S
C1164 C1168 1.495 . S
C1165 C1164 1.392 . S
C1165 C1166 1.385 . S
C1165 C1167 1.478 . S
C1166 H1160 0.930 . S
C1166 C1162 1.400 . S
C1166 C1165 1.385 . S
C1167 C1165 1.478 . S
C1167 C1169 1.381 . S
C1167 C1173 1.383 . S
C1168 C1164 1.495 . S
C1168 H1174 0.959 . S
C1168 H1175 0.961 . S
C1168 H1176 0.960 . S
C1169 C1167 1.381 . S
C1169 C1170 1.394 . S
C1169 H1177 0.930 . S
C1170 C1169 1.394 . S
C1170 C1171 1.383 . S
C1170 H1178 0.929 . S
C1171 C1170 1.383 . S
C1171 C1172 1.377 . S
C1172 H1156 0.930 . S
C1172 C1171 1.377 . S
C1172 C1173 1.379 . S
C1173 H1157 0.931 . S
C1173 C1167 1.383 . S
C1173 C1172 1.379 . S
H1174 C1168 0.959 . S
H1175 C1168 0.961 . S
H1176 C1168 0.960 . S
H1177 C1169 0.930 . S
H1178 C1170 0.929 . S
H1179 C1187 0.929 . S
H1180 C1189 0.930 . S
H1181 C1191 0.930 . S
H1182 C1194 0.929 . S
H1183 C1197 0.930 . S
H1184 C1199 0.960 . S
H1185 C1199 0.960 1_655 S
H1186 C1199 0.960 1_655 S
C1187 H1179 0.929 . S
C1187 C1188 1.377 . S
C1187 C1189 1.384 . S
C1188 C1187 1.377 . S
C1188 C1194 1.390 . S
C1189 H1180 0.930 . S
C1189 C1187 1.384 . S
C1189 C1190 1.372 . S
C1190 C1189 1.372 . S
C1190 C1191 1.400 . S
C1190 C1195 1.490 1_655 S
C1191 H1181 0.930 . S
C1191 C1190 1.400 . S
C1191 C1194 1.386 . S
H1192 C1208 0.930 . S
H1193 C1209 0.931 . S
C1194 H1182 0.929 . S
C1194 C1188 1.390 . S
C1194 C1191 1.386 . S
C1195 C1190 1.490 1_455 S
C1195 C1197 1.395 . S
C1195 C1198 1.403 . S
H1196 C1202 0.930 . S
C1197 H1183 0.930 . S
C1197 C1195 1.395 . S
C1197 C1200 1.403 . S
C1198 C1195 1.403 . S
C1198 C1199 1.524 . S
C1198 C1202 1.400 . S
C1199 H1184 0.960 . S
C1199 H1185 0.960 1_455 S
C1199 H1186 0.960 1_455 S
C1199 C1198 1.524 . S
C1200 C1197 1.403 . S
C1200 C1201 1.392 . S
C1200 C1204 1.495 . S
C1201 C1200 1.392 . S
C1201 C1202 1.385 . S
C1201 C1203 1.478 . S
C1202 H1196 0.930 . S
C1202 C1198 1.400 . S
C1202 C1201 1.385 . S
C1203 C1201 1.478 . S
C1203 C1205 1.381 . S
C1203 C1209 1.383 . S
C1204 C1200 1.495 . S
C1204 H1210 0.959 . S
C1204 H1211 0.961 . S
C1204 H1212 0.960 . S
C1205 C1203 1.381 . S
C1205 C1206 1.394 . S
C1205 H1213 0.930 . S
C1206 C1205 1.394 . S
C1206 C1207 1.383 . S
C1206 H1214 0.929 . S
C1207 C1206 1.383 . S
C1207 C1208 1.377 . S
C1208 H1192 0.930 . S
C1208 C1207 1.377 . S
C1208 C1209 1.379 . S
C1209 H1193 0.931 . S
C1209 C1203 1.383 . S
C1209 C1208 1.379 . S
H1210 C1204 0.959 . S
H1211 C1204 0.961 . S
H1212 C1204 0.960 . S
H1213 C1205 0.930 . S
H1214 C1206 0.929 . S
H1215 C1223 0.929 . S
H1216 C1225 0.930 . S
H1217 C1227 0.930 . S
H1218 C1230 0.929 . S
H1219 C1233 0.930 . S
H1220 C1235 0.960 . S
H1221 C1235 0.960 . S
H1222 C1235 0.960 . S
C1223 H1215 0.929 . S
C1223 C1224 1.377 . S
C1223 C1225 1.384 . S
C1224 C1223 1.377 . S
C1224 C1230 1.390 . S
C1225 H1216 0.930 . S
C1225 C1223 1.384 . S
C1225 C1226 1.372 . S
C1226 C1225 1.372 . S
C1226 C1227 1.400 . S
C1226 C1231 1.490 . S
C1227 H1217 0.930 . S
C1227 C1226 1.400 . S
C1227 C1230 1.386 . S
H1228 C1244 0.930 . S
H1229 C1245 0.931 . S
C1230 H1218 0.929 . S
C1230 C1224 1.390 . S
C1230 C1227 1.386 . S
C1231 C1226 1.490 . S
C1231 C1233 1.395 . S
C1231 C1234 1.403 . S
H1232 C1238 0.930 . S
C1233 H1219 0.930 . S
C1233 C1231 1.395 . S
C1233 C1236 1.403 . S
C1234 C1231 1.403 . S
C1234 C1235 1.524 . S
C1234 C1238 1.400 . S
C1235 H1220 0.960 . S
C1235 H1221 0.960 . S
C1235 H1222 0.960 . S
C1235 C1234 1.524 . S
C1236 C1233 1.403 . S
C1236 C1237 1.392 . S
C1236 C1240 1.495 . S
C1237 C1236 1.392 . S
C1237 C1238 1.385 . S
C1237 C1239 1.478 . S
C1238 H1232 0.930 . S
C1238 C1234 1.400 . S
C1238 C1237 1.385 . S
C1239 C1237 1.478 . S
C1239 C1241 1.381 . S
C1239 C1245 1.383 . S
C1240 C1236 1.495 . S
C1240 H1246 0.959 . S
C1240 H1247 0.961 . S
C1240 H1248 0.960 . S
C1241 C1239 1.381 . S
C1241 C1242 1.394 . S
C1241 H1249 0.930 . S
C1242 C1241 1.394 . S
C1242 C1243 1.383 . S
C1242 H1250 0.929 . S
C1243 C1242 1.383 . S
C1243 C1244 1.377 . S
C1244 H1228 0.930 . S
C1244 C1243 1.377 . S
C1244 C1245 1.379 . S
C1245 H1229 0.931 . S
C1245 C1239 1.383 . S
C1245 C1244 1.379 . S
H1246 C1240 0.959 . S
H1247 C1240 0.961 . S
H1248 C1240 0.960 . S
H1249 C1241 0.930 . S
H1250 C1242 0.929 . S
H1251 C1259 0.929 . S
H1252 C1261 0.930 . S
H1253 C1263 0.930 . S
H1254 C1266 0.929 . S
H1255 C1269 0.930 . S
H1256 C1271 0.960 . S
H1257 C1271 0.960 . S
H1258 C1271 0.960 . S
C1259 H1251 0.929 . S
C1259 C1260 1.377 . S
C1259 C1261 1.384 . S
C1260 C1259 1.377 . S
C1260 C1266 1.390 . S
C1261 H1252 0.930 . S
C1261 C1259 1.384 . S
C1261 C1262 1.372 . S
C1262 C1261 1.372 . S
C1262 C1263 1.400 . S
C1262 C1267 1.490 . S
C1263 H1253 0.930 . S
C1263 C1262 1.400 . S
C1263 C1266 1.386 . S
H1264 C1280 0.930 . S
H1265 C1281 0.931 . S
C1266 H1254 0.929 . S
C1266 C1260 1.390 . S
C1266 C1263 1.386 . S
C1267 C1262 1.490 . S
C1267 C1269 1.395 . S
C1267 C1270 1.403 . S
H1268 C1274 0.930 . S
C1269 H1255 0.930 . S
C1269 C1267 1.395 . S
C1269 C1272 1.403 . S
C1270 C1267 1.403 . S
C1270 C1271 1.524 . S
C1270 C1274 1.400 . S
C1271 H1256 0.960 . S
C1271 H1257 0.960 . S
C1271 H1258 0.960 . S
C1271 C1270 1.524 . S
C1272 C1269 1.403 . S
C1272 C1273 1.392 . S
C1272 C1276 1.495 . S
C1273 C1272 1.392 . S
C1273 C1274 1.385 . S
C1273 C1275 1.478 . S
C1274 H1268 0.930 . S
C1274 C1270 1.400 . S
C1274 C1273 1.385 . S
C1275 C1273 1.478 . S
C1275 C1277 1.381 . S
C1275 C1281 1.383 . S
C1276 C1272 1.495 . S
C1276 H1282 0.959 . S
C1276 H1283 0.961 . S
C1276 H1284 0.960 . S
C1277 C1275 1.381 . S
C1277 C1278 1.394 . S
C1277 H1285 0.930 . S
C1278 C1277 1.394 . S
C1278 C1279 1.383 . S
C1278 H1286 0.929 . S
C1279 C1278 1.383 . S
C1279 C1280 1.377 . S
C1280 H1264 0.930 . S
C1280 C1279 1.377 . S
C1280 C1281 1.379 . S
C1281 H1265 0.931 . S
C1281 C1275 1.383 . S
C1281 C1280 1.379 . S
H1282 C1276 0.959 . S
H1283 C1276 0.961 . S
H1284 C1276 0.960 . S
H1285 C1277 0.930 . S
H1286 C1278 0.929 . S
H1287 C1295 0.929 . S
H1288 C1297 0.930 . S
H1289 C1299 0.930 . S
H1290 C1302 0.929 . S
H1291 C1305 0.930 . S
H1292 C1307 0.960 . S
H1293 C1307 0.960 . S
H1294 C1307 0.960 . S
C1295 H1287 0.929 . S
C1295 C1296 1.377 . S
C1295 C1297 1.384 . S
C1296 C1295 1.377 . S
C1296 C1302 1.390 . S
C1297 H1288 0.930 . S
C1297 C1295 1.384 . S
C1297 C1298 1.372 . S
C1298 C1297 1.372 . S
C1298 C1299 1.400 . S
C1298 C1303 1.490 . S
C1299 H1289 0.930 . S
C1299 C1298 1.400 . S
C1299 C1302 1.386 . S
H1300 C1316 0.930 . S
H1301 C1317 0.931 . S
C1302 H1290 0.929 . S
C1302 C1296 1.390 . S
C1302 C1299 1.386 . S
C1303 C1298 1.490 . S
C1303 C1305 1.395 . S
C1303 C1306 1.403 . S
H1304 C1310 0.930 . S
C1305 H1291 0.930 . S
C1305 C1303 1.395 . S
C1305 C1308 1.403 . S
C1306 C1303 1.403 . S
C1306 C1307 1.524 . S
C1306 C1310 1.400 . S
C1307 H1292 0.960 . S
C1307 H1293 0.960 . S
C1307 H1294 0.960 . S
C1307 C1306 1.524 . S
C1308 C1305 1.403 . S
C1308 C1309 1.392 . S
C1308 C1312 1.495 . S
C1309 C1308 1.392 . S
C1309 C1310 1.385 . S
C1309 C1311 1.478 . S
C1310 H1304 0.930 . S
C1310 C1306 1.400 . S
C1310 C1309 1.385 . S
C1311 C1309 1.478 . S
C1311 C1313 1.381 . S
C1311 C1317 1.383 . S
C1312 C1308 1.495 . S
C1312 H1318 0.959 . S
C1312 H1319 0.961 . S
C1312 H1320 0.960 . S
C1313 C1311 1.381 . S
C1313 C1314 1.394 . S
C1313 H1321 0.930 . S
C1314 C1313 1.394 . S
C1314 C1315 1.383 . S
C1314 H1322 0.929 . S
C1315 C1314 1.383 . S
C1315 C1316 1.377 . S
C1316 H1300 0.930 . S
C1316 C1315 1.377 . S
C1316 C1317 1.379 . S
C1317 H1301 0.931 . S
C1317 C1311 1.383 . S
C1317 C1316 1.379 . S
H1318 C1312 0.959 . S
H1319 C1312 0.961 . S
H1320 C1312 0.960 . S
H1321 C1313 0.930 . S
H1322 C1314 0.929 . S
H1323 C1331 0.929 . S
H1324 C1333 0.930 . S
H1325 C1335 0.930 . S
H1326 C1338 0.929 . S
H1327 C1341 0.930 . S
H1328 C1343 0.960 . S
H1329 C1343 0.960 . S
H1330 C1343 0.960 . S
C1331 H1323 0.929 . S
C1331 C1332 1.377 . S
C1331 C1333 1.384 . S
C1332 C1331 1.377 . S
C1332 C1338 1.390 . S
C1333 H1324 0.930 . S
C1333 C1331 1.384 . S
C1333 C1334 1.372 . S
C1334 C1333 1.372 . S
C1334 C1335 1.400 . S
C1334 C1339 1.490 . S
C1335 H1325 0.930 . S
C1335 C1334 1.400 . S
C1335 C1338 1.386 . S
H1336 C1352 0.930 . S
H1337 C1353 0.931 . S
C1338 H1326 0.929 . S
C1338 C1332 1.390 . S
C1338 C1335 1.386 . S
C1339 C1334 1.490 . S
C1339 C1341 1.395 . S
C1339 C1342 1.403 . S
H1340 C1346 0.930 . S
C1341 H1327 0.930 . S
C1341 C1339 1.395 . S
C1341 C1344 1.403 . S
C1342 C1339 1.403 . S
C1342 C1343 1.524 . S
C1342 C1346 1.400 . S
C1343 H1328 0.960 . S
C1343 H1329 0.960 . S
C1343 H1330 0.960 . S
C1343 C1342 1.524 . S
C1344 C1341 1.403 . S
C1344 C1345 1.392 . S
C1344 C1348 1.495 . S
C1345 C1344 1.392 . S
C1345 C1346 1.385 . S
C1345 C1347 1.478 . S
C1346 H1340 0.930 . S
C1346 C1342 1.400 . S
C1346 C1345 1.385 . S
C1347 C1345 1.478 . S
C1347 C1349 1.381 . S
C1347 C1353 1.383 . S
C1348 C1344 1.495 . S
C1348 H1354 0.959 . S
C1348 H1355 0.961 . S
C1348 H1356 0.960 . S
C1349 C1347 1.381 . S
C1349 C1350 1.394 . S
C1349 H1357 0.930 . S
C1350 C1349 1.394 . S
C1350 C1351 1.383 . S
C1350 H1358 0.929 . S
C1351 C1350 1.383 . S
C1351 C1352 1.377 . S
C1352 H1336 0.930 . S
C1352 C1351 1.377 . S
C1352 C1353 1.379 . S
C1353 H1337 0.931 . S
C1353 C1347 1.383 . S
C1353 C1352 1.379 . S
H1354 C1348 0.959 . S
H1355 C1348 0.961 . S
H1356 C1348 0.960 . S
H1357 C1349 0.930 . S
H1358 C1350 0.929 . S
H1359 C1367 0.929 . S
H1360 C1369 0.930 . S
H1361 C1371 0.930 . S
H1362 C1374 0.929 . S
H1363 C1377 0.930 . S
H1364 C1379 0.960 1_545 S
H1365 C1379 0.960 . S
H1366 C1379 0.960 . S
C1367 H1359 0.929 . S
C1367 C1368 1.377 . S
C1367 C1369 1.384 . S
C1368 C1367 1.377 . S
C1368 C1374 1.390 . S
C1369 H1360 0.930 . S
C1369 C1367 1.384 . S
C1369 C1370 1.372 . S
C1370 C1369 1.372 . S
C1370 C1371 1.400 . S
C1370 C1375 1.490 1_565 S
C1371 H1361 0.930 . S
C1371 C1370 1.400 . S
C1371 C1374 1.386 . S
H1372 C1388 0.930 . S
H1373 C1389 0.931 . S
C1374 H1362 0.929 . S
C1374 C1368 1.390 . S
C1374 C1371 1.386 . S
C1375 C1370 1.490 1_545 S
C1375 C1377 1.395 . S
C1375 C1378 1.403 . S
H1376 C1382 0.930 . S
C1377 H1363 0.930 . S
C1377 C1375 1.395 . S
C1377 C1380 1.403 . S
C1378 C1375 1.403 . S
C1378 C1379 1.524 1_545 S
C1378 C1382 1.400 . S
C1379 H1364 0.960 1_565 S
C1379 H1365 0.960 . S
C1379 H1366 0.960 . S
C1379 C1378 1.524 1_565 S
C1380 C1377 1.403 . S
C1380 C1381 1.392 . S
C1380 C1384 1.495 . S
C1381 C1380 1.392 . S
C1381 C1382 1.385 . S
C1381 C1383 1.478 . S
C1382 H1376 0.930 . S
C1382 C1378 1.400 . S
C1382 C1381 1.385 . S
C1383 C1381 1.478 . S
C1383 C1385 1.381 . S
C1383 C1389 1.383 . S
C1384 C1380 1.495 . S
C1384 H1390 0.959 . S
C1384 H1391 0.961 . S
C1384 H1392 0.960 . S
C1385 C1383 1.381 . S
C1385 C1386 1.394 . S
C1385 H1393 0.930 . S
C1386 C1385 1.394 . S
C1386 C1387 1.383 . S
C1386 H1394 0.929 . S
C1387 C1386 1.383 . S
C1387 C1388 1.377 . S
C1388 H1372 0.930 . S
C1388 C1387 1.377 . S
C1388 C1389 1.379 . S
C1389 H1373 0.931 . S
C1389 C1383 1.383 . S
C1389 C1388 1.379 . S
H1390 C1384 0.959 . S
H1391 C1384 0.961 . S
H1392 C1384 0.960 . S
H1393 C1385 0.930 . S
H1394 C1386 0.929 . S
H1395 C1403 0.929 . S
H1396 C1405 0.930 . S
H1397 C1407 0.930 . S
H1398 C1410 0.929 . S
H1399 C1413 0.920 1_455 S
H1400 C1415 0.960 . S
H1401 C1415 0.960 1_455 S
H1402 C1415 0.960 1_455 S
C1403 H1395 0.929 . S
C1403 C1404 1.377 . S
C1403 C1405 1.384 . S
C1404 C1403 1.377 . S
C1404 C1410 1.390 . S
C1405 H1396 0.930 . S
C1405 C1403 1.384 . S
C1405 C1406 1.372 . S
C1406 C1405 1.372 . S
C1406 C1407 1.400 . S
C1406 C1411 1.490 . S
C1407 H1397 0.930 . S
C1407 C1406 1.400 . S
C1407 C1410 1.386 . S
H1408 C1424 0.930 . S
H1409 C1425 0.931 . S
C1410 H1398 0.929 . S
C1410 C1404 1.390 . S
C1410 C1407 1.386 . S
C1411 C1406 1.490 . S
C1411 C1413 1.368 1_455 S
C1411 C1414 1.403 1_455 S
H1412 C1418 0.930 . S
C1413 H1399 0.920 1_655 S
C1413 C1411 1.368 1_655 S
C1413 C1416 1.440 . S
C1414 C1411 1.403 1_655 S
C1414 C1415 1.524 . S
C1414 C1418 1.400 . S
C1415 H1400 0.960 . S
C1415 H1401 0.960 1_655 S
C1415 H1402 0.960 1_655 S
C1415 C1414 1.524 . S
C1416 C1413 1.440 . S
C1416 C1417 1.392 . S
C1416 C1420 1.495 . S
C1417 C1416 1.392 . S
C1417 C1418 1.385 . S
C1417 C1419 1.478 . S
C1418 H1412 0.930 . S
C1418 C1414 1.400 . S
C1418 C1417 1.385 . S
C1419 C1417 1.478 . S
C1419 C1421 1.381 . S
C1419 C1425 1.383 . S
C1420 C1416 1.495 . S
C1420 H1426 0.959 . S
C1420 H1427 0.961 . S
C1420 H1428 0.960 . S
C1421 C1419 1.381 . S
C1421 C1422 1.394 . S
C1421 H1429 0.930 . S
C1422 C1421 1.394 . S
C1422 C1423 1.383 . S
C1422 H1430 0.929 . S
C1423 C1422 1.383 . S
C1423 C1424 1.377 . S
C1424 H1408 0.930 . S
C1424 C1423 1.377 . S
C1424 C1425 1.379 . S
C1425 H1409 0.931 . S
C1425 C1419 1.383 . S
C1425 C1424 1.379 . S
H1426 C1420 0.959 . S
H1427 C1420 0.961 . S
H1428 C1420 0.960 . S
H1429 C1421 0.930 . S
H1430 C1422 0.929 . S
H1431 C1439 0.929 . S
H1432 C1441 0.930 . S
H1433 C1443 0.930 . S
H1434 C1446 0.929 . S
H1435 C1449 0.930 . S
H1436 C1451 0.960 . S
H1437 C1451 0.960 . S
H1438 C1451 0.960 . S
C1439 H1431 0.929 . S
C1439 C1440 1.377 . S
C1439 C1441 1.384 . S
C1440 C1439 1.377 . S
C1440 C1446 1.390 . S
C1441 H1432 0.930 . S
C1441 C1439 1.384 . S
C1441 C1442 1.372 . S
C1442 C1441 1.372 . S
C1442 C1443 1.400 . S
C1442 C1447 1.490 . S
C1443 H1433 0.930 . S
C1443 C1442 1.400 . S
C1443 C1446 1.386 . S
H1444 C1460 0.930 . S
H1445 C1461 0.931 . S
C1446 H1434 0.929 . S
C1446 C1440 1.390 . S
C1446 C1443 1.386 . S
C1447 C1442 1.490 . S
C1447 C1449 1.395 . S
C1447 C1450 1.403 . S
H1448 C1454 0.930 . S
C1449 H1435 0.930 . S
C1449 C1447 1.395 . S
C1449 C1452 1.403 . S
C1450 C1447 1.403 . S
C1450 C1451 1.524 . S
C1450 C1454 1.400 . S
C1451 H1436 0.960 . S
C1451 H1437 0.960 . S
C1451 H1438 0.960 . S
C1451 C1450 1.524 . S
C1452 C1449 1.403 . S
C1452 C1453 1.392 . S
C1452 C1456 1.495 . S
C1453 C1452 1.392 . S
C1453 C1454 1.385 . S
C1453 C1455 1.478 . S
C1454 H1448 0.930 . S
C1454 C1450 1.400 . S
C1454 C1453 1.385 . S
C1455 C1453 1.478 . S
C1455 C1457 1.381 . S
C1455 C1461 1.383 . S
C1456 C1452 1.495 . S
C1456 H1462 0.959 . S
C1456 H1463 0.961 . S
C1456 H1464 0.960 . S
C1457 C1455 1.381 . S
C1457 C1458 1.394 . S
C1457 H1465 0.930 . S
C1458 C1457 1.394 . S
C1458 C1459 1.383 . S
C1458 H1466 0.929 . S
C1459 C1458 1.383 . S
C1459 C1460 1.377 . S
C1460 H1444 0.930 . S
C1460 C1459 1.377 . S
C1460 C1461 1.379 . S
C1461 H1445 0.931 . S
C1461 C1455 1.383 . S
C1461 C1460 1.379 . S
H1462 C1456 0.959 . S
H1463 C1456 0.961 . S
H1464 C1456 0.960 . S
H1465 C1457 0.930 . S
H1466 C1458 0.929 . S
H1467 C1475 0.929 . S
H1468 C1477 0.930 . S
H1469 C1479 0.930 . S
H1470 C1482 0.929 . S
H1471 C1485 0.930 . S
H1472 C1487 0.960 . S
H1473 C1487 0.960 . S
H1474 C1487 0.960 . S
C1475 H1467 0.929 . S
C1475 C1476 1.377 . S
C1475 C1477 1.384 . S
C1476 C1475 1.377 . S
C1476 C1482 1.390 . S
C1477 H1468 0.930 . S
C1477 C1475 1.384 . S
C1477 C1478 1.372 . S
C1478 C1477 1.372 . S
C1478 C1479 1.400 . S
C1478 C1483 1.490 1_455 S
C1479 H1469 0.930 . S
C1479 C1478 1.400 . S
C1479 C1482 1.386 . S
H1480 C1496 0.930 . S
H1481 C1497 0.931 . S
C1482 H1470 0.929 . S
C1482 C1476 1.390 . S
C1482 C1479 1.386 . S
C1483 C1478 1.490 1_655 S
C1483 C1485 1.395 . S
C1483 C1486 1.403 . S
H1484 C1490 0.930 . S
C1485 H1471 0.930 . S
C1485 C1483 1.395 . S
C1485 C1488 1.403 . S
C1486 C1483 1.403 . S
C1486 C1487 1.524 . S
C1486 C1490 1.400 . S
C1487 H1472 0.960 . S
C1487 H1473 0.960 . S
C1487 H1474 0.960 . S
C1487 C1486 1.524 . S
C1488 C1485 1.403 . S
C1488 C1489 1.392 . S
C1488 C1492 1.495 . S
C1489 C1488 1.392 . S
C1489 C1490 1.385 . S
C1489 C1491 1.478 . S
C1490 H1484 0.930 . S
C1490 C1486 1.400 . S
C1490 C1489 1.385 . S
C1491 C1489 1.478 . S
C1491 C1493 1.381 . S
C1491 C1497 1.383 . S
C1492 C1488 1.495 . S
C1492 H1498 0.959 . S
C1492 H1499 0.961 . S
C1492 H1500 0.960 . S
C1493 C1491 1.381 . S
C1493 C1494 1.394 . S
C1493 H1501 0.930 . S
C1494 C1493 1.394 . S
C1494 C1495 1.383 . S
C1494 H1502 0.929 . S
C1495 C1494 1.383 . S
C1495 C1496 1.377 . S
C1496 H1480 0.930 . S
C1496 C1495 1.377 . S
C1496 C1497 1.379 . S
C1497 H1481 0.931 . S
C1497 C1491 1.383 . S
C1497 C1496 1.379 . S
H1498 C1492 0.959 . S
H1499 C1492 0.961 . S
H1500 C1492 0.960 . S
H1501 C1493 0.930 . S
H1502 C1494 0.929 . S
H1503 C1511 0.929 . S
H1504 C1513 0.930 . S
H1505 C1515 0.930 . S
H1506 C1518 0.929 . S
H1507 C1521 0.930 . S
H1508 C1523 0.960 . S
H1509 C1523 0.960 . S
H1510 C1523 0.960 . S
C1511 H1503 0.929 . S
C1511 C1512 1.377 . S
C1511 C1513 1.384 . S
C1512 C1511 1.377 . S
C1512 C1518 1.390 . S
C1513 H1504 0.930 . S
C1513 C1511 1.384 . S
C1513 C1514 1.372 . S
C1514 C1513 1.372 . S
C1514 C1515 1.400 . S
C1514 C1519 1.490 . S
C1515 H1505 0.930 . S
C1515 C1514 1.400 . S
C1515 C1518 1.386 . S
H1516 C1532 0.930 . S
H1517 C1533 0.931 . S
C1518 H1506 0.929 . S
C1518 C1512 1.390 . S
C1518 C1515 1.386 . S
C1519 C1514 1.490 . S
C1519 C1521 1.395 . S
C1519 C1522 1.403 . S
H1520 C1526 0.930 . S
C1521 H1507 0.930 . S
C1521 C1519 1.395 . S
C1521 C1524 1.403 . S
C1522 C1519 1.403 . S
C1522 C1523 1.524 . S
C1522 C1526 1.400 . S
C1523 H1508 0.960 . S
C1523 H1509 0.960 . S
C1523 H1510 0.960 . S
C1523 C1522 1.524 . S
C1524 C1521 1.403 . S
C1524 C1525 1.392 . S
C1524 C1528 1.495 . S
C1525 C1524 1.392 . S
C1525 C1526 1.385 . S
C1525 C1527 1.478 . S
C1526 H1520 0.930 . S
C1526 C1522 1.400 . S
C1526 C1525 1.385 . S
C1527 C1525 1.478 . S
C1527 C1529 1.381 . S
C1527 C1533 1.383 . S
C1528 C1524 1.495 . S
C1528 H1534 0.959 . S
C1528 H1535 0.961 . S
C1528 H1536 0.960 . S
C1529 C1527 1.381 . S
C1529 C1530 1.394 . S
C1529 H1537 0.930 . S
C1530 C1529 1.394 . S
C1530 C1531 1.383 . S
C1530 H1538 0.929 . S
C1531 C1530 1.383 . S
C1531 C1532 1.377 . S
C1532 H1516 0.930 . S
C1532 C1531 1.377 . S
C1532 C1533 1.379 . S
C1533 H1517 0.931 . S
C1533 C1527 1.383 . S
C1533 C1532 1.379 . S
H1534 C1528 0.959 . S
H1535 C1528 0.961 . S
H1536 C1528 0.960 . S
H1537 C1529 0.930 . S
H1538 C1530 0.929 . S
H1539 C1547 0.929 . S
H1540 C1549 0.930 . S
H1541 C1551 0.930 . S
H1542 C1554 0.929 . S
H1543 C1557 0.930 . S
H1544 C1559 0.960 . S
H1545 C1559 0.960 . S
H1546 C1559 0.960 . S
C1547 H1539 0.929 . S
C1547 C1548 1.377 . S
C1547 C1549 1.384 . S
C1548 C1547 1.377 . S
C1548 C1554 1.390 . S
C1549 H1540 0.930 . S
C1549 C1547 1.384 . S
C1549 C1550 1.372 . S
C1550 C1549 1.372 . S
C1550 C1551 1.400 . S
C1550 C1555 1.490 1_565 S
C1551 H1541 0.930 . S
C1551 C1550 1.400 . S
C1551 C1554 1.386 . S
H1552 C1568 0.930 . S
H1553 C1569 0.931 . S
C1554 H1542 0.929 . S
C1554 C1548 1.390 . S
C1554 C1551 1.386 . S
C1555 C1550 1.490 1_545 S
C1555 C1557 1.395 . S
C1555 C1558 1.403 . S
H1556 C1562 0.930 . S
C1557 H1543 0.930 . S
C1557 C1555 1.395 . S
C1557 C1560 1.403 . S
C1558 C1555 1.403 . S
C1558 C1559 1.524 . S
C1558 C1562 1.400 . S
C1559 H1544 0.960 . S
C1559 H1545 0.960 . S
C1559 H1546 0.960 . S
C1559 C1558 1.524 . S
C1560 C1557 1.403 . S
C1560 C1561 1.392 . S
C1560 C1564 1.495 . S
C1561 C1560 1.392 . S
C1561 C1562 1.385 . S
C1561 C1563 1.478 . S
C1562 H1556 0.930 . S
C1562 C1558 1.400 . S
C1562 C1561 1.385 . S
C1563 C1561 1.478 . S
C1563 C1565 1.381 . S
C1563 C1569 1.383 . S
C1564 C1560 1.495 . S
C1564 H1570 0.959 . S
C1564 H1571 0.961 . S
C1564 H1572 0.960 . S
C1565 C1563 1.381 . S
C1565 C1566 1.394 . S
C1565 H1573 0.930 . S
C1566 C1565 1.394 . S
C1566 C1567 1.383 . S
C1566 H1574 0.929 . S
C1567 C1566 1.383 . S
C1567 C1568 1.377 . S
C1568 H1552 0.930 . S
C1568 C1567 1.377 . S
C1568 C1569 1.379 . S
C1569 H1553 0.931 . S
C1569 C1563 1.383 . S
C1569 C1568 1.379 . S
H1570 C1564 0.959 . S
H1571 C1564 0.961 . S
H1572 C1564 0.960 . S
H1573 C1565 0.930 . S
H1574 C1566 0.929 . S
H1575 C1583 0.929 . S
H1576 C1585 0.930 . S
H1577 C1587 0.930 . S
H1578 C1590 0.929 . S
H1579 C1593 0.930 . S
H1580 C1595 0.960 . S
H1581 C1595 0.960 . S
H1582 C1595 0.960 . S
C1583 H1575 0.929 . S
C1583 C1584 1.377 . S
C1583 C1585 1.384 . S
C1584 C1583 1.377 . S
C1584 C1590 1.390 . S
C1585 H1576 0.930 . S
C1585 C1583 1.384 . S
C1585 C1586 1.372 . S
C1586 C1585 1.372 . S
C1586 C1587 1.400 . S
C1586 C1591 1.490 . S
C1587 H1577 0.930 . S
C1587 C1586 1.400 . S
C1587 C1590 1.386 . S
H1588 C1604 0.930 . S
H1589 C1605 0.931 . S
C1590 H1578 0.929 . S
C1590 C1584 1.390 . S
C1590 C1587 1.386 . S
C1591 C1586 1.490 . S
C1591 C1593 1.395 . S
C1591 C1594 1.403 . S
H1592 C1598 0.930 . S
C1593 H1579 0.930 . S
C1593 C1591 1.395 . S
C1593 C1596 1.403 . S
C1594 C1591 1.403 . S
C1594 C1595 1.524 . S
C1594 C1598 1.400 . S
C1595 H1580 0.960 . S
C1595 H1581 0.960 . S
C1595 H1582 0.960 . S
C1595 C1594 1.524 . S
C1596 C1593 1.403 . S
C1596 C1597 1.392 . S
C1596 C1600 1.495 . S
C1597 C1596 1.392 . S
C1597 C1598 1.385 . S
C1597 C1599 1.478 . S
C1598 H1592 0.930 . S
C1598 C1594 1.400 . S
C1598 C1597 1.385 . S
C1599 C1597 1.478 . S
C1599 C1601 1.381 . S
C1599 C1605 1.383 . S
C1600 C1596 1.495 . S
C1600 H1606 0.959 . S
C1600 H1607 0.961 . S
C1600 H1608 0.960 . S
C1601 C1599 1.381 . S
C1601 C1602 1.394 . S
C1601 H1609 0.930 . S
C1602 C1601 1.394 . S
C1602 C1603 1.383 . S
C1602 H1610 0.929 . S
C1603 C1602 1.383 . S
C1603 C1604 1.377 . S
C1604 H1588 0.930 . S
C1604 C1603 1.377 . S
C1604 C1605 1.379 . S
C1605 H1589 0.931 . S
C1605 C1599 1.383 . S
C1605 C1604 1.379 . S
H1606 C1600 0.959 . S
H1607 C1600 0.961 . S
H1608 C1600 0.960 . S
H1609 C1601 0.930 . S
H1610 C1602 0.929 . S
H1611 C1619 0.929 . S
H1612 C1621 0.930 . S
H1613 C1623 0.930 . S
H1614 C1626 0.929 . S
H1615 C1629 0.930 . S
H1616 C1631 0.960 . S
H1617 C1631 0.960 . S
H1618 C1631 0.960 . S
C1619 H1611 0.929 . S
C1619 C1620 1.377 . S
C1619 C1621 1.384 . S
C1620 C1619 1.377 . S
C1620 C1626 1.390 . S
C1621 H1612 0.930 . S
C1621 C1619 1.384 . S
C1621 C1622 1.372 . S
C1622 C1621 1.372 . S
C1622 C1623 1.400 . S
C1622 C1627 1.490 . S
C1623 H1613 0.930 . S
C1623 C1622 1.400 . S
C1623 C1626 1.386 . S
H1624 C1640 0.930 . S
H1625 C1641 0.931 . S
C1626 H1614 0.929 . S
C1626 C1620 1.390 . S
C1626 C1623 1.386 . S
C1627 C1622 1.490 . S
C1627 C1629 1.395 . S
C1627 C1630 1.403 . S
H1628 C1634 0.930 . S
C1629 H1615 0.930 . S
C1629 C1627 1.395 . S
C1629 C1632 1.403 . S
C1630 C1627 1.403 . S
C1630 C1631 1.524 . S
C1630 C1634 1.400 . S
C1631 H1616 0.960 . S
C1631 H1617 0.960 . S
C1631 H1618 0.960 . S
C1631 C1630 1.524 . S
C1632 C1629 1.403 . S
C1632 C1633 1.392 . S
C1632 C1636 1.495 . S
C1633 C1632 1.392 . S
C1633 C1634 1.385 . S
C1633 C1635 1.478 . S
C1634 H1628 0.930 . S
C1634 C1630 1.400 . S
C1634 C1633 1.385 . S
C1635 C1633 1.478 . S
C1635 C1637 1.381 . S
C1635 C1641 1.383 . S
C1636 C1632 1.495 . S
C1636 H1642 0.959 . S
C1636 H1643 0.961 . S
C1636 H1644 0.960 . S
C1637 C1635 1.381 . S
C1637 C1638 1.394 . S
C1637 H1645 0.930 . S
C1638 C1637 1.394 . S
C1638 C1639 1.383 . S
C1638 H1646 0.929 . S
C1639 C1638 1.383 . S
C1639 C1640 1.377 . S
C1640 H1624 0.930 . S
C1640 C1639 1.377 . S
C1640 C1641 1.379 . S
C1641 H1625 0.931 . S
C1641 C1635 1.383 . S
C1641 C1640 1.379 . S
H1642 C1636 0.959 . S
H1643 C1636 0.961 . S
H1644 C1636 0.960 . S
H1645 C1637 0.930 . S
H1646 C1638 0.929 . S
H1647 C1655 0.929 . S
H1648 C1657 0.930 . S
H1649 C1659 0.930 . S
H1650 C1662 0.929 . S
H1651 C1665 0.930 . S
H1652 C1667 0.960 . S
H1653 C1667 0.960 . S
H1654 C1667 0.960 . S
C1655 H1647 0.929 . S
C1655 C1656 1.377 . S
C1655 C1657 1.384 . S
C1656 C1655 1.377 . S
C1656 C1662 1.390 . S
C1657 H1648 0.930 . S
C1657 C1655 1.384 . S
C1657 C1658 1.372 . S
C1658 C1657 1.372 . S
C1658 C1659 1.400 . S
C1658 C1663 1.490 . S
C1659 H1649 0.930 . S
C1659 C1658 1.400 . S
C1659 C1662 1.386 . S
H1660 C1676 0.930 . S
H1661 C1677 0.931 . S
C1662 H1650 0.929 . S
C1662 C1656 1.390 . S
C1662 C1659 1.386 . S
C1663 C1658 1.490 . S
C1663 C1665 1.395 . S
C1663 C1666 1.403 . S
H1664 C1670 0.930 . S
C1665 H1651 0.930 . S
C1665 C1663 1.395 . S
C1665 C1668 1.403 . S
C1666 C1663 1.403 . S
C1666 C1667 1.524 . S
C1666 C1670 1.400 . S
C1667 H1652 0.960 . S
C1667 H1653 0.960 . S
C1667 H1654 0.960 . S
C1667 C1666 1.524 . S
C1668 C1665 1.403 . S
C1668 C1669 1.392 . S
C1668 C1672 1.495 . S
C1669 C1668 1.392 . S
C1669 C1670 1.385 . S
C1669 C1671 1.478 . S
C1670 H1664 0.930 . S
C1670 C1666 1.400 . S
C1670 C1669 1.385 . S
C1671 C1669 1.478 . S
C1671 C1673 1.381 . S
C1671 C1677 1.383 . S
C1672 C1668 1.495 . S
C1672 H1678 0.959 . S
C1672 H1679 0.961 . S
C1672 H1680 0.960 . S
C1673 C1671 1.381 . S
C1673 C1674 1.394 . S
C1673 H1681 0.930 . S
C1674 C1673 1.394 . S
C1674 C1675 1.383 . S
C1674 H1682 0.929 . S
C1675 C1674 1.383 . S
C1675 C1676 1.377 . S
C1676 H1660 0.930 . S
C1676 C1675 1.377 . S
C1676 C1677 1.379 . S
C1677 H1661 0.931 . S
C1677 C1671 1.383 . S
C1677 C1676 1.379 . S
H1678 C1672 0.959 . S
H1679 C1672 0.961 . S
H1680 C1672 0.960 . S
H1681 C1673 0.930 . S
H1682 C1674 0.929 . S
H1683 C1691 0.929 . S
H1684 C1693 0.930 . S
H1685 C1695 0.930 . S
H1686 C1698 0.929 . S
H1687 C1701 0.930 . S
H1688 C1703 0.960 . S
H1689 C1703 0.960 . S
H1690 C1703 0.960 . S
C1691 H1683 0.929 . S
C1691 C1692 1.377 . S
C1691 C1693 1.384 . S
C1692 C1691 1.377 . S
C1692 C1698 1.390 . S
C1693 H1684 0.930 . S
C1693 C1691 1.384 . S
C1693 C1694 1.372 . S
C1694 C1693 1.372 . S
C1694 C1695 1.400 . S
C1694 C1699 1.490 . S
C1695 H1685 0.930 . S
C1695 C1694 1.400 . S
C1695 C1698 1.386 . S
H1696 C1712 0.930 . S
H1697 C1713 0.931 . S
C1698 H1686 0.929 . S
C1698 C1692 1.390 . S
C1698 C1695 1.386 . S
C1699 C1694 1.490 . S
C1699 C1701 1.395 . S
C1699 C1702 1.403 . S
H1700 C1706 0.930 . S
C1701 H1687 0.930 . S
C1701 C1699 1.395 . S
C1701 C1704 1.403 . S
C1702 C1699 1.403 . S
C1702 C1703 1.524 . S
C1702 C1706 1.400 . S
C1703 H1688 0.960 . S
C1703 H1689 0.960 . S
C1703 H1690 0.960 . S
C1703 C1702 1.524 . S
C1704 C1701 1.403 . S
C1704 C1705 1.392 . S
C1704 C1708 1.495 1_565 S
C1705 C1704 1.392 . S
C1705 C1706 1.385 . S
C1705 C1707 1.478 . S
C1706 H1700 0.930 . S
C1706 C1702 1.400 . S
C1706 C1705 1.385 . S
C1707 C1705 1.478 . S
C1707 C1709 1.440 . S
C1707 C1713 1.383 . S
C1708 C1704 1.495 1_545 S
C1708 H1714 0.959 . S
C1708 H1715 0.961 . S
C1708 H1716 0.960 . S
C1709 C1707 1.440 . S
C1709 C1710 1.378 1_565 S
C1709 H1717 0.890 1_565 S
C1710 C1709 1.378 1_545 S
C1710 C1711 1.383 1_545 S
C1710 H1718 0.929 . S
C1711 C1710 1.383 1_565 S
C1711 C1712 1.377 . S
C1712 H1696 0.930 . S
C1712 C1711 1.377 . S
C1712 C1713 1.379 . S
C1713 H1697 0.931 . S
C1713 C1707 1.383 . S
C1713 C1712 1.379 . S
H1714 C1708 0.959 . S
H1715 C1708 0.961 . S
H1716 C1708 0.960 . S
H1717 C1709 0.890 1_545 S
H1718 C1710 0.929 . S
H1719 C1727 0.929 . S
H1720 C1729 0.930 . S
H1721 C1731 0.930 . S
H1722 C1734 0.929 . S
H1723 C1737 0.930 . S
H1724 C1739 0.960 . S
H1725 C1739 0.960 . S
H1726 C1739 0.960 . S
C1727 H1719 0.929 . S
C1727 C1728 1.377 . S
C1727 C1729 1.384 . S
C1728 C1727 1.377 . S
C1728 C1734 1.390 . S
C1729 H1720 0.930 . S
C1729 C1727 1.384 . S
C1729 C1730 1.372 . S
C1730 C1729 1.372 . S
C1730 C1731 1.400 . S
C1730 C1735 1.490 . S
C1731 H1721 0.930 . S
C1731 C1730 1.400 . S
C1731 C1734 1.386 . S
H1732 C1748 0.930 1_655 S
H1733 C1749 0.931 . S
C1734 H1722 0.929 . S
C1734 C1728 1.390 . S
C1734 C1731 1.386 . S
C1735 C1730 1.490 . S
C1735 C1737 1.395 . S
C1735 C1738 1.403 . S
H1736 C1742 0.930 . S
C1737 H1723 0.930 . S
C1737 C1735 1.395 . S
C1737 C1740 1.403 . S
C1738 C1735 1.403 . S
C1738 C1739 1.524 . S
C1738 C1742 1.400 . S
C1739 H1724 0.960 . S
C1739 H1725 0.960 . S
C1739 H1726 0.960 . S
C1739 C1738 1.524 . S
C1740 C1737 1.403 . S
C1740 C1741 1.392 . S
C1740 C1744 1.495 . S
C1741 C1740 1.392 . S
C1741 C1742 1.385 . S
C1741 C1743 1.478 . S
C1742 H1736 0.930 . S
C1742 C1738 1.400 . S
C1742 C1741 1.385 . S
C1743 C1741 1.478 . S
C1743 C1745 1.381 . S
C1743 C1749 1.383 . S
C1744 C1740 1.495 . S
C1744 H1750 0.959 . S
C1744 H1751 0.961 . S
C1744 H1752 0.960 . S
C1745 C1743 1.381 . S
C1745 C1746 1.394 . S
C1745 H1753 0.930 . S
C1746 C1745 1.394 . S
C1746 C1747 1.383 . S
C1746 H1754 0.929 . S
C1747 C1746 1.383 . S
C1747 C1748 1.377 . S
C1748 H1732 0.930 1_455 S
C1748 C1747 1.377 . S
C1748 C1749 1.379 . S
C1749 H1733 0.931 . S
C1749 C1743 1.383 . S
C1749 C1748 1.379 . S
H1750 C1744 0.959 . S
H1751 C1744 0.961 . S
H1752 C1744 0.960 . S
H1753 C1745 0.930 . S
H1754 C1746 0.929 . S
H1755 C1763 0.929 . S
H1756 C1765 0.930 . S
H1757 C1767 0.930 . S
H1758 C1770 0.929 . S
H1759 C1773 0.930 . S
H1760 C1775 0.960 . S
H1761 C1775 0.960 . S
H1762 C1775 0.960 . S
C1763 H1755 0.929 . S
C1763 C1764 1.377 . S
C1763 C1765 1.384 . S
C1764 C1763 1.377 . S
C1764 C1770 1.390 . S
C1765 H1756 0.930 . S
C1765 C1763 1.384 . S
C1765 C1766 1.372 . S
C1766 C1765 1.372 . S
C1766 C1767 1.400 . S
C1766 C1771 1.490 . S
C1767 H1757 0.930 . S
C1767 C1766 1.400 . S
C1767 C1770 1.386 . S
H1768 C1784 0.930 . S
H1769 C1785 0.931 . S
C1770 H1758 0.929 . S
C1770 C1764 1.390 . S
C1770 C1767 1.386 . S
C1771 C1766 1.490 . S
C1771 C1773 1.395 . S
C1771 C1774 1.403 . S
H1772 C1778 0.930 . S
C1773 H1759 0.930 . S
C1773 C1771 1.395 . S
C1773 C1776 1.403 . S
C1774 C1771 1.403 . S
C1774 C1775 1.524 . S
C1774 C1778 1.400 . S
C1775 H1760 0.960 . S
C1775 H1761 0.960 . S
C1775 H1762 0.960 . S
C1775 C1774 1.524 . S
C1776 C1773 1.403 . S
C1776 C1777 1.392 . S
C1776 C1780 1.495 . S
C1777 C1776 1.392 . S
C1777 C1778 1.385 . S
C1777 C1779 1.478 . S
C1778 H1772 0.930 . S
C1778 C1774 1.400 . S
C1778 C1777 1.385 . S
C1779 C1777 1.478 . S
C1779 C1781 1.381 . S
C1779 C1785 1.383 . S
C1780 C1776 1.495 . S
C1780 H1786 0.959 . S
C1780 H1787 0.961 . S
C1780 H1788 0.960 . S
C1781 C1779 1.381 . S
C1781 C1782 1.394 . S
C1781 H1789 0.930 . S
C1782 C1781 1.394 . S
C1782 C1783 1.383 . S
C1782 H1790 0.929 . S
C1783 C1782 1.383 . S
C1783 C1784 1.377 . S
C1784 H1768 0.930 . S
C1784 C1783 1.377 . S
C1784 C1785 1.379 . S
C1785 H1769 0.931 . S
C1785 C1779 1.383 . S
C1785 C1784 1.379 . S
H1786 C1780 0.959 . S
H1787 C1780 0.961 . S
H1788 C1780 0.960 . S
H1789 C1781 0.930 . S
H1790 C1782 0.929 . S
H1791 C1799 0.929 . S
H1792 C1801 0.930 . S
H1793 C1803 0.930 . S
H1794 C1806 0.929 . S
H1795 C1809 0.930 . S
H1796 C1811 0.960 . S
H1797 C1811 0.960 . S
H1798 C1811 0.960 . S
C1799 H1791 0.929 . S
C1799 C1800 1.377 . S
C1799 C1801 1.384 . S
C1800 C1799 1.377 . S
C1800 C1806 1.390 . S
C1801 H1792 0.930 . S
C1801 C1799 1.384 . S
C1801 C1802 1.372 . S
C1802 C1801 1.372 . S
C1802 C1803 1.400 . S
C1802 C1807 1.490 . S
C1803 H1793 0.930 . S
C1803 C1802 1.400 . S
C1803 C1806 1.386 . S
H1804 C1820 0.930 1_455 S
H1805 C1821 0.931 . S
C1806 H1794 0.929 . S
C1806 C1800 1.390 . S
C1806 C1803 1.386 . S
C1807 C1802 1.490 . S
C1807 C1809 1.395 . S
C1807 C1810 1.403 . S
H1808 C1814 0.930 . S
C1809 H1795 0.930 . S
C1809 C1807 1.395 . S
C1809 C1812 1.403 . S
C1810 C1807 1.403 . S
C1810 C1811 1.524 . S
C1810 C1814 1.400 . S
C1811 H1796 0.960 . S
C1811 H1797 0.960 . S
C1811 H1798 0.960 . S
C1811 C1810 1.524 . S
C1812 C1809 1.403 . S
C1812 C1813 1.392 . S
C1812 C1816 1.495 . S
C1813 C1812 1.392 . S
C1813 C1814 1.385 . S
C1813 C1815 1.478 . S
C1814 H1808 0.930 . S
C1814 C1810 1.400 . S
C1814 C1813 1.385 . S
C1815 C1813 1.478 . S
C1815 C1817 1.381 . S
C1815 C1821 1.383 . S
C1816 C1812 1.495 . S
C1816 H1822 0.959 . S
C1816 H1823 0.961 . S
C1816 H1824 0.960 . S
C1817 C1815 1.381 . S
C1817 C1818 1.394 . S
C1817 H1825 0.930 . S
C1818 C1817 1.394 . S
C1818 C1819 1.383 . S
C1818 H1826 0.929 . S
C1819 C1818 1.383 . S
C1819 C1820 1.377 . S
C1820 H1804 0.930 1_655 S
C1820 C1819 1.377 . S
C1820 C1821 1.379 . S
C1821 H1805 0.931 . S
C1821 C1815 1.383 . S
C1821 C1820 1.379 . S
H1822 C1816 0.959 . S
H1823 C1816 0.961 . S
H1824 C1816 0.960 . S
H1825 C1817 0.930 . S
H1826 C1818 0.929 . S
H1827 C1835 0.929 . S
H1828 C1837 0.930 . S
H1829 C1839 0.930 . S
H1830 C1842 0.929 . S
H1831 C1845 0.930 . S
H1832 C1847 0.960 . S
H1833 C1847 0.960 . S
H1834 C1847 0.960 . S
C1835 H1827 0.929 . S
C1835 C1836 1.377 . S
C1835 C1837 1.384 . S
C1836 C1835 1.377 . S
C1836 C1842 1.390 . S
C1837 H1828 0.930 . S
C1837 C1835 1.384 . S
C1837 C1838 1.372 . S
C1838 C1837 1.372 . S
C1838 C1839 1.400 . S
C1838 C1843 1.490 . S
C1839 H1829 0.930 . S
C1839 C1838 1.400 . S
C1839 C1842 1.386 . S
H1840 C1856 0.930 . S
H1841 C1857 0.931 . S
C1842 H1830 0.929 . S
C1842 C1836 1.390 . S
C1842 C1839 1.386 . S
C1843 C1838 1.490 . S
C1843 C1845 1.395 . S
C1843 C1846 1.403 . S
H1844 C1850 0.930 . S
C1845 H1831 0.930 . S
C1845 C1843 1.395 . S
C1845 C1848 1.403 . S
C1846 C1843 1.403 . S
C1846 C1847 1.524 . S
C1846 C1850 1.400 . S
C1847 H1832 0.960 . S
C1847 H1833 0.960 . S
C1847 H1834 0.960 . S
C1847 C1846 1.524 . S
C1848 C1845 1.403 . S
C1848 C1849 1.392 . S
C1848 C1852 1.495 . S
C1849 C1848 1.392 . S
C1849 C1850 1.385 . S
C1849 C1851 1.478 . S
C1850 H1844 0.930 . S
C1850 C1846 1.400 . S
C1850 C1849 1.385 . S
C1851 C1849 1.478 . S
C1851 C1853 1.381 . S
C1851 C1857 1.383 . S
C1852 C1848 1.495 . S
C1852 H1858 0.959 . S
C1852 H1859 0.961 . S
C1852 H1860 0.960 . S
C1853 C1851 1.381 . S
C1853 C1854 1.394 . S
C1853 H1861 0.930 . S
C1854 C1853 1.394 . S
C1854 C1855 1.383 . S
C1854 H1862 0.929 . S
C1855 C1854 1.383 . S
C1855 C1856 1.377 . S
C1856 H1840 0.930 . S
C1856 C1855 1.377 . S
C1856 C1857 1.379 . S
C1857 H1841 0.931 . S
C1857 C1851 1.383 . S
C1857 C1856 1.379 . S
H1858 C1852 0.959 . S
H1859 C1852 0.961 . S
H1860 C1852 0.960 . S
H1861 C1853 0.930 . S
H1862 C1854 0.929 . S
H1863 C1871 0.929 . S
H1864 C1873 0.930 . S
H1865 C1875 0.930 . S
H1866 C1878 0.929 . S
H1867 C1881 0.930 . S
H1868 C1883 0.960 . S
H1869 C1883 0.960 . S
H1870 C1883 0.960 . S
C1871 H1863 0.929 . S
C1871 C1872 1.377 . S
C1871 C1873 1.384 . S
C1872 C1871 1.377 . S
C1872 C1878 1.390 . S
C1873 H1864 0.930 . S
C1873 C1871 1.384 . S
C1873 C1874 1.372 . S
C1874 C1873 1.372 . S
C1874 C1875 1.400 . S
C1874 C1879 1.490 . S
C1875 H1865 0.930 . S
C1875 C1874 1.400 . S
C1875 C1878 1.386 . S
H1876 C1892 0.930 1_565 S
H1877 C1893 0.931 1_565 S
C1878 H1866 0.929 . S
C1878 C1872 1.390 . S
C1878 C1875 1.386 . S
C1879 C1874 1.490 . S
C1879 C1881 1.395 . S
C1879 C1882 1.403 . S
H1880 C1886 0.930 . S
C1881 H1867 0.930 . S
C1881 C1879 1.395 . S
C1881 C1884 1.403 . S
C1882 C1879 1.403 . S
C1882 C1883 1.524 . S
C1882 C1886 1.400 . S
C1883 H1868 0.960 . S
C1883 H1869 0.960 . S
C1883 H1870 0.960 . S
C1883 C1882 1.524 . S
C1884 C1881 1.403 . S
C1884 C1885 1.392 . S
C1884 C1888 1.495 . S
C1885 C1884 1.392 . S
C1885 C1886 1.385 . S
C1885 C1887 1.478 . S
C1886 H1880 0.930 . S
C1886 C1882 1.400 . S
C1886 C1885 1.385 . S
C1887 C1885 1.478 . S
C1887 C1889 1.381 . S
C1887 C1893 1.383 . S
C1888 C1884 1.495 . S
C1888 H1894 0.959 . S
C1888 H1895 0.961 . S
C1888 H1896 0.960 . S
C1889 C1887 1.381 . S
C1889 C1890 1.394 . S
C1889 H1897 0.930 . S
C1890 C1889 1.394 . S
C1890 C1891 1.383 . S
C1890 H1898 0.929 . S
C1891 C1890 1.383 . S
C1891 C1892 1.377 . S
C1892 H1876 0.930 1_545 S
C1892 C1891 1.377 . S
C1892 C1893 1.379 . S
C1893 H1877 0.931 1_545 S
C1893 C1887 1.383 . S
C1893 C1892 1.379 . S
H1894 C1888 0.959 . S
H1895 C1888 0.961 . S
H1896 C1888 0.960 . S
H1897 C1889 0.930 . S
H1898 C1890 0.929 . S
H1899 C1907 0.929 . S
H1900 C1909 0.930 . S
H1901 C1911 0.930 . S
H1902 C1914 0.929 . S
H1903 C1917 0.930 . S
H1904 C1919 0.960 . S
H1905 C1919 0.960 . S
H1906 C1919 0.960 . S
C1907 H1899 0.929 . S
C1907 C1908 1.377 . S
C1907 C1909 1.384 . S
C1908 C1907 1.377 . S
C1908 C1914 1.390 . S
C1909 H1900 0.930 . S
C1909 C1907 1.384 . S
C1909 C1910 1.372 . S
C1910 C1909 1.372 . S
C1910 C1911 1.400 . S
C1910 C1915 1.490 . S
C1911 H1901 0.930 . S
C1911 C1910 1.400 . S
C1911 C1914 1.386 . S
H1912 C1928 0.930 . S
H1913 C1929 0.931 . S
C1914 H1902 0.929 . S
C1914 C1908 1.390 . S
C1914 C1911 1.386 . S
C1915 C1910 1.490 . S
C1915 C1917 1.395 . S
C1915 C1918 1.403 . S
H1916 C1922 0.930 . S
C1917 H1903 0.930 . S
C1917 C1915 1.395 . S
C1917 C1920 1.403 . S
C1918 C1915 1.403 . S
C1918 C1919 1.524 . S
C1918 C1922 1.400 . S
C1919 H1904 0.960 . S
C1919 H1905 0.960 . S
C1919 H1906 0.960 . S
C1919 C1918 1.524 . S
C1920 C1917 1.403 . S
C1920 C1921 1.392 . S
C1920 C1924 1.495 . S
C1921 C1920 1.392 . S
C1921 C1922 1.385 . S
C1921 C1923 1.478 . S
C1922 H1916 0.930 . S
C1922 C1918 1.400 . S
C1922 C1921 1.385 . S
C1923 C1921 1.478 . S
C1923 C1925 1.381 . S
C1923 C1929 1.383 . S
C1924 C1920 1.495 . S
C1924 H1930 0.959 . S
C1924 H1931 0.961 . S
C1924 H1932 0.960 . S
C1925 C1923 1.381 . S
C1925 C1926 1.394 . S
C1925 H1933 0.930 . S
C1926 C1925 1.394 . S
C1926 C1927 1.383 . S
C1926 H1934 0.929 . S
C1927 C1926 1.383 . S
C1927 C1928 1.377 . S
C1928 H1912 0.930 . S
C1928 C1927 1.377 . S
C1928 C1929 1.379 . S
C1929 H1913 0.931 . S
C1929 C1923 1.383 . S
C1929 C1928 1.379 . S
H1930 C1924 0.959 . S
H1931 C1924 0.961 . S
H1932 C1924 0.960 . S
H1933 C1925 0.930 . S
H1934 C1926 0.929 . S
H1935 C1943 0.929 . S
H1936 C1945 0.930 . S
H1937 C1947 0.930 . S
H1938 C1950 0.929 . S
H1939 C1953 0.930 . S
H1940 C1955 0.960 . S
H1941 C1955 0.960 . S
H1942 C1955 0.960 . S
C1943 H1935 0.929 . S
C1943 C1944 1.377 . S
C1943 C1945 1.384 . S
C1944 C1943 1.377 . S
C1944 C1950 1.390 . S
C1945 H1936 0.930 . S
C1945 C1943 1.384 . S
C1945 C1946 1.372 . S
C1946 C1945 1.372 . S
C1946 C1947 1.400 . S
C1946 C1951 1.490 . S
C1947 H1937 0.930 . S
C1947 C1946 1.400 . S
C1947 C1950 1.386 . S
H1948 C1964 0.930 . S
H1949 C1965 0.931 . S
C1950 H1938 0.929 . S
C1950 C1944 1.390 . S
C1950 C1947 1.386 . S
C1951 C1946 1.490 . S
C1951 C1953 1.395 . S
C1951 C1954 1.403 . S
H1952 C1958 0.930 . S
C1953 H1939 0.930 . S
C1953 C1951 1.395 . S
C1953 C1956 1.403 . S
C1954 C1951 1.403 . S
C1954 C1955 1.524 . S
C1954 C1958 1.400 . S
C1955 H1940 0.960 . S
C1955 H1941 0.960 . S
C1955 H1942 0.960 . S
C1955 C1954 1.524 . S
C1956 C1953 1.403 . S
C1956 C1957 1.392 . S
C1956 C1960 1.495 . S
C1957 C1956 1.392 . S
C1957 C1958 1.385 . S
C1957 C1959 1.478 . S
C1958 H1952 0.930 . S
C1958 C1954 1.400 . S
C1958 C1957 1.385 . S
C1959 C1957 1.478 . S
C1959 C1961 1.381 . S
C1959 C1965 1.383 . S
C1960 C1956 1.495 . S
C1960 H1966 0.959 . S
C1960 H1967 0.961 . S
C1960 H1968 0.960 . S
C1961 C1959 1.381 . S
C1961 C1962 1.394 . S
C1961 H1969 0.930 . S
C1962 C1961 1.394 . S
C1962 C1963 1.383 . S
C1962 H1970 0.929 . S
C1963 C1962 1.383 . S
C1963 C1964 1.377 . S
C1964 H1948 0.930 . S
C1964 C1963 1.377 . S
C1964 C1965 1.379 . S
C1965 H1949 0.931 . S
C1965 C1959 1.383 . S
C1965 C1964 1.379 . S
H1966 C1960 0.959 . S
H1967 C1960 0.961 . S
H1968 C1960 0.960 . S
H1969 C1961 0.930 . S
H1970 C1962 0.929 . S
H1971 C1979 0.929 . S
H1972 C1981 0.930 . S
H1973 C1983 0.930 . S
H1974 C1986 0.929 . S
H1975 C1989 0.930 . S
H1976 C1991 0.960 . S
H1977 C1991 0.960 . S
H1978 C1991 0.960 . S
C1979 H1971 0.929 . S
C1979 C1980 1.377 . S
C1979 C1981 1.384 . S
C1980 C1979 1.377 . S
C1980 C1986 1.390 . S
C1981 H1972 0.930 . S
C1981 C1979 1.384 . S
C1981 C1982 1.372 . S
C1982 C1981 1.372 . S
C1982 C1983 1.400 . S
C1982 C1987 1.490 . S
C1983 H1973 0.930 . S
C1983 C1982 1.400 . S
C1983 C1986 1.386 . S
H1984 C2000 0.930 . S
H1985 C2001 0.931 . S
C1986 H1974 0.929 . S
C1986 C1980 1.390 . S
C1986 C1983 1.386 . S
C1987 C1982 1.490 . S
C1987 C1989 1.395 . S
C1987 C1990 1.403 . S
H1988 C1994 0.930 . S
C1989 H1975 0.930 . S
C1989 C1987 1.395 . S
C1989 C1992 1.403 . S
C1990 C1987 1.403 . S
C1990 C1991 1.524 . S
C1990 C1994 1.400 . S
C1991 H1976 0.960 . S
C1991 H1977 0.960 . S
C1991 H1978 0.960 . S
C1991 C1990 1.524 . S
C1992 C1989 1.403 . S
C1992 C1993 1.392 . S
C1992 C1996 1.495 . S
C1993 C1992 1.392 . S
C1993 C1994 1.385 . S
C1993 C1995 1.478 . S
C1994 H1988 0.930 . S
C1994 C1990 1.400 . S
C1994 C1993 1.385 . S
C1995 C1993 1.478 . S
C1995 C1997 1.381 . S
C1995 C2001 1.383 . S
C1996 C1992 1.495 . S
C1996 H2002 0.959 . S
C1996 H2003 0.961 . S
C1996 H2004 0.960 . S
C1997 C1995 1.381 . S
C1997 C1998 1.394 . S
C1997 H2005 0.930 . S
C1998 C1997 1.394 . S
C1998 C1999 1.383 . S
C1998 H2006 0.929 . S
C1999 C1998 1.383 . S
C1999 C2000 1.377 . S
C2000 H1984 0.930 . S
C2000 C1999 1.377 . S
C2000 C2001 1.379 . S
C2001 H1985 0.931 . S
C2001 C1995 1.383 . S
C2001 C2000 1.379 . S
H2002 C1996 0.959 . S
H2003 C1996 0.961 . S
H2004 C1996 0.960 . S
H2005 C1997 0.930 . S
H2006 C1998 0.929 . S
H2007 C2015 0.929 . S
H2008 C2017 0.930 . S
H2009 C2019 0.930 . S
H2010 C2022 0.929 . S
H2011 C2025 0.930 . S
H2012 C2027 0.960 . S
H2013 C2027 0.960 . S
H2014 C2027 0.960 . S
C2015 H2007 0.929 . S
C2015 C2016 1.377 . S
C2015 C2017 1.384 . S
C2016 C2015 1.377 . S
C2016 C2022 1.390 . S
C2017 H2008 0.930 . S
C2017 C2015 1.384 . S
C2017 C2018 1.372 . S
C2018 C2017 1.372 . S
C2018 C2019 1.400 . S
C2018 C2023 1.490 . S
C2019 H2009 0.930 . S
C2019 C2018 1.400 . S
C2019 C2022 1.386 . S
H2020 C2036 0.930 . S
H2021 C2037 0.931 . S
C2022 H2010 0.929 . S
C2022 C2016 1.390 . S
C2022 C2019 1.386 . S
C2023 C2018 1.490 . S
C2023 C2025 1.395 . S
C2023 C2026 1.403 . S
H2024 C2030 0.930 . S
C2025 H2011 0.930 . S
C2025 C2023 1.395 . S
C2025 C2028 1.403 . S
C2026 C2023 1.403 . S
C2026 C2027 1.524 . S
C2026 C2030 1.400 . S
C2027 H2012 0.960 . S
C2027 H2013 0.960 . S
C2027 H2014 0.960 . S
C2027 C2026 1.524 . S
C2028 C2025 1.403 . S
C2028 C2029 1.392 . S
C2028 C2032 1.495 . S
C2029 C2028 1.392 . S
C2029 C2030 1.385 . S
C2029 C2031 1.478 . S
C2030 H2024 0.930 . S
C2030 C2026 1.400 . S
C2030 C2029 1.385 . S
C2031 C2029 1.478 . S
C2031 C2033 1.381 . S
C2031 C2037 1.383 . S
C2032 C2028 1.495 . S
C2032 H2038 0.959 . S
C2032 H2039 0.961 . S
C2032 H2040 0.960 . S
C2033 C2031 1.381 . S
C2033 C2034 1.394 . S
C2033 H2041 0.930 . S
C2034 C2033 1.394 . S
C2034 C2035 1.383 . S
C2034 H2042 0.929 . S
C2035 C2034 1.383 . S
C2035 C2036 1.377 . S
C2036 H2020 0.930 . S
C2036 C2035 1.377 . S
C2036 C2037 1.379 . S
C2037 H2021 0.931 . S
C2037 C2031 1.383 . S
C2037 C2036 1.379 . S
H2038 C2032 0.959 . S
H2039 C2032 0.961 . S
H2040 C2032 0.960 . S
H2041 C2033 0.930 . S
H2042 C2034 0.929 . S
H2043 C2051 0.929 . S
H2044 C2053 0.930 . S
H2045 C2055 0.930 . S
H2046 C2058 0.929 . S
H2047 C2061 0.930 . S
H2048 C2063 0.960 . S
H2049 C2063 0.960 . S
H2050 C2063 0.960 . S
C2051 H2043 0.929 . S
C2051 C2052 1.377 . S
C2051 C2053 1.384 . S
C2052 C2051 1.377 . S
C2052 C2058 1.390 . S
C2053 H2044 0.930 . S
C2053 C2051 1.384 . S
C2053 C2054 1.372 . S
C2054 C2053 1.372 . S
C2054 C2055 1.400 . S
C2054 C2059 1.490 . S
C2055 H2045 0.930 . S
C2055 C2054 1.400 . S
C2055 C2058 1.386 . S
H2056 C2072 0.930 . S
H2057 C2073 0.931 . S
C2058 H2046 0.929 . S
C2058 C2052 1.390 . S
C2058 C2055 1.386 . S
C2059 C2054 1.490 . S
C2059 C2061 1.395 . S
C2059 C2062 1.403 . S
H2060 C2066 0.930 . S
C2061 H2047 0.930 . S
C2061 C2059 1.395 . S
C2061 C2064 1.403 . S
C2062 C2059 1.403 . S
C2062 C2063 1.524 . S
C2062 C2066 1.400 . S
C2063 H2048 0.960 . S
C2063 H2049 0.960 . S
C2063 H2050 0.960 . S
C2063 C2062 1.524 . S
C2064 C2061 1.403 . S
C2064 C2065 1.392 . S
C2064 C2068 1.495 . S
C2065 C2064 1.392 . S
C2065 C2066 1.385 . S
C2065 C2067 1.478 . S
C2066 H2060 0.930 . S
C2066 C2062 1.400 . S
C2066 C2065 1.385 . S
C2067 C2065 1.478 . S
C2067 C2069 1.381 . S
C2067 C2073 1.383 . S
C2068 C2064 1.495 . S
C2068 H2074 0.959 . S
C2068 H2075 0.961 . S
C2068 H2076 0.960 . S
C2069 C2067 1.381 . S
C2069 C2070 1.394 . S
C2069 H2077 0.930 . S
C2070 C2069 1.394 . S
C2070 C2071 1.383 . S
C2070 H2078 0.929 . S
C2071 C2070 1.383 . S
C2071 C2072 1.377 . S
C2072 H2056 0.930 . S
C2072 C2071 1.377 . S
C2072 C2073 1.379 . S
C2073 H2057 0.931 . S
C2073 C2067 1.383 . S
C2073 C2072 1.379 . S
H2074 C2068 0.959 . S
H2075 C2068 0.961 . S
H2076 C2068 0.960 . S
H2077 C2069 0.930 . S
H2078 C2070 0.929 . S
H2079 C2087 0.929 . S
H2080 C2089 0.930 . S
H2081 C2091 0.930 . S
H2082 C2094 0.929 . S
H2083 C2097 0.930 . S
H2084 C2099 0.960 . S
H2085 C2099 0.960 . S
H2086 C2099 0.960 . S
C2087 H2079 0.929 . S
C2087 C2088 1.377 . S
C2087 C2089 1.384 . S
C2088 C2087 1.377 . S
C2088 C2094 1.390 . S
C2089 H2080 0.930 . S
C2089 C2087 1.384 . S
C2089 C2090 1.372 . S
C2090 C2089 1.372 . S
C2090 C2091 1.400 . S
C2090 C2095 1.490 . S
C2091 H2081 0.930 . S
C2091 C2090 1.400 . S
C2091 C2094 1.386 . S
H2092 C2108 0.930 . S
H2093 C2109 0.931 . S
C2094 H2082 0.929 . S
C2094 C2088 1.390 . S
C2094 C2091 1.386 . S
C2095 C2090 1.490 . S
C2095 C2097 1.395 . S
C2095 C2098 1.403 . S
H2096 C2102 0.930 . S
C2097 H2083 0.930 . S
C2097 C2095 1.395 . S
C2097 C2100 1.403 . S
C2098 C2095 1.403 . S
C2098 C2099 1.524 . S
C2098 C2102 1.400 . S
C2099 H2084 0.960 . S
C2099 H2085 0.960 . S
C2099 H2086 0.960 . S
C2099 C2098 1.524 . S
C2100 C2097 1.403 . S
C2100 C2101 1.392 . S
C2100 C2104 1.495 . S
C2101 C2100 1.392 . S
C2101 C2102 1.385 . S
C2101 C2103 1.478 . S
C2102 H2096 0.930 . S
C2102 C2098 1.400 . S
C2102 C2101 1.385 . S
C2103 C2101 1.478 . S
C2103 C2105 1.381 . S
C2103 C2109 1.383 . S
C2104 C2100 1.495 . S
C2104 H2110 0.959 . S
C2104 H2111 0.961 . S
C2104 H2112 0.960 . S
C2105 C2103 1.381 . S
C2105 C2106 1.394 . S
C2105 H2113 0.930 . S
C2106 C2105 1.394 . S
C2106 C2107 1.383 . S
C2106 H2114 0.929 . S
C2107 C2106 1.383 . S
C2107 C2108 1.377 . S
C2108 H2092 0.930 . S
C2108 C2107 1.377 . S
C2108 C2109 1.379 . S
C2109 H2093 0.931 . S
C2109 C2103 1.383 . S
C2109 C2108 1.379 . S
H2110 C2104 0.959 . S
H2111 C2104 0.961 . S
H2112 C2104 0.960 . S
H2113 C2105 0.930 . S
H2114 C2106 0.929 . S
H2115 C2123 0.929 . S
H2116 C2125 0.930 . S
H2117 C2127 0.930 . S
H2118 C2130 0.929 . S
H2119 C2133 0.930 . S
H2120 C2135 0.960 . S
H2121 C2135 0.960 . S
H2122 C2135 0.960 . S
C2123 H2115 0.929 . S
C2123 C2124 1.377 . S
C2123 C2125 1.384 . S
C2124 C2123 1.377 . S
C2124 C2130 1.390 . S
C2125 H2116 0.930 . S
C2125 C2123 1.384 . S
C2125 C2126 1.372 . S
C2126 C2125 1.372 . S
C2126 C2127 1.400 . S
C2126 C2131 1.490 . S
C2127 H2117 0.930 . S
C2127 C2126 1.400 . S
C2127 C2130 1.386 . S
H2128 C2144 0.930 . S
H2129 C2145 0.931 . S
C2130 H2118 0.929 . S
C2130 C2124 1.390 . S
C2130 C2127 1.386 . S
C2131 C2126 1.490 . S
C2131 C2133 1.395 . S
C2131 C2134 1.403 . S
H2132 C2138 0.930 . S
C2133 H2119 0.930 . S
C2133 C2131 1.395 . S
C2133 C2136 1.403 . S
C2134 C2131 1.403 . S
C2134 C2135 1.524 . S
C2134 C2138 1.400 . S
C2135 H2120 0.960 . S
C2135 H2121 0.960 . S
C2135 H2122 0.960 . S
C2135 C2134 1.524 . S
C2136 C2133 1.403 . S
C2136 C2137 1.392 . S
C2136 C2140 1.495 . S
C2137 C2136 1.392 . S
C2137 C2138 1.385 . S
C2137 C2139 1.478 . S
C2138 H2132 0.930 . S
C2138 C2134 1.400 . S
C2138 C2137 1.385 . S
C2139 C2137 1.478 . S
C2139 C2141 1.381 . S
C2139 C2145 1.383 . S
C2140 C2136 1.495 . S
C2140 H2146 0.959 . S
C2140 H2147 0.961 . S
C2140 H2148 0.960 . S
C2141 C2139 1.381 . S
C2141 C2142 1.394 . S
C2141 H2149 0.930 . S
C2142 C2141 1.394 . S
C2142 C2143 1.383 . S
C2142 H2150 0.929 . S
C2143 C2142 1.383 . S
C2143 C2144 1.377 . S
C2144 H2128 0.930 . S
C2144 C2143 1.377 . S
C2144 C2145 1.379 . S
C2145 H2129 0.931 . S
C2145 C2139 1.383 . S
C2145 C2144 1.379 . S
H2146 C2140 0.959 . S
H2147 C2140 0.961 . S
H2148 C2140 0.960 . S
H2149 C2141 0.930 . S
H2150 C2142 0.929 . S
H2151 C2159 0.929 . S
H2152 C2161 0.930 . S
H2153 C2163 0.930 . S
H2154 C2166 0.929 . S
H2155 C2169 0.930 . S
H2156 C2171 0.960 . S
H2157 C2171 0.960 . S
H2158 C2171 0.960 . S
C2159 H2151 0.929 . S
C2159 C2160 1.377 . S
C2159 C2161 1.384 . S
C2160 C2159 1.377 . S
C2160 C2166 1.390 . S
C2161 H2152 0.930 . S
C2161 C2159 1.384 . S
C2161 C2162 1.372 . S
C2162 C2161 1.372 . S
C2162 C2163 1.400 . S
C2162 C2167 1.490 . S
C2163 H2153 0.930 . S
C2163 C2162 1.400 . S
C2163 C2166 1.386 . S
H2164 C2180 0.930 . S
H2165 C2181 0.931 . S
C2166 H2154 0.929 . S
C2166 C2160 1.390 . S
C2166 C2163 1.386 . S
C2167 C2162 1.490 . S
C2167 C2169 1.395 . S
C2167 C2170 1.403 . S
H2168 C2174 0.930 . S
C2169 H2155 0.930 . S
C2169 C2167 1.395 . S
C2169 C2172 1.403 . S
C2170 C2167 1.403 . S
C2170 C2171 1.524 . S
C2170 C2174 1.400 . S
C2171 H2156 0.960 . S
C2171 H2157 0.960 . S
C2171 H2158 0.960 . S
C2171 C2170 1.524 . S
C2172 C2169 1.403 . S
C2172 C2173 1.392 . S
C2172 C2176 1.495 . S
C2173 C2172 1.392 . S
C2173 C2174 1.385 . S
C2173 C2175 1.478 . S
C2174 H2168 0.930 . S
C2174 C2170 1.400 . S
C2174 C2173 1.385 . S
C2175 C2173 1.478 . S
C2175 C2177 1.381 . S
C2175 C2181 1.383 . S
C2176 C2172 1.495 . S
C2176 H2182 0.959 . S
C2176 H2183 0.961 . S
C2176 H2184 0.960 . S
C2177 C2175 1.381 . S
C2177 C2178 1.394 . S
C2177 H2185 0.930 . S
C2178 C2177 1.394 . S
C2178 C2179 1.383 . S
C2178 H2186 0.929 . S
C2179 C2178 1.383 . S
C2179 C2180 1.377 . S
C2180 H2164 0.930 . S
C2180 C2179 1.377 . S
C2180 C2181 1.379 . S
C2181 H2165 0.931 . S
C2181 C2175 1.383 . S
C2181 C2180 1.379 . S
H2182 C2176 0.959 . S
H2183 C2176 0.961 . S
H2184 C2176 0.960 . S
H2185 C2177 0.930 . S
H2186 C2178 0.929 . S
H2187 C2195 0.929 . S
H2188 C2197 0.930 . S
H2189 C2199 0.930 . S
H2190 C2202 0.929 . S
H2191 C2205 0.930 . S
H2192 C2207 0.960 . S
H2193 C2207 0.960 . S
H2194 C2207 0.960 . S
C2195 H2187 0.929 . S
C2195 C2196 1.377 . S
C2195 C2197 1.384 . S
C2196 C2195 1.377 . S
C2196 C2202 1.390 . S
C2197 H2188 0.930 . S
C2197 C2195 1.384 . S
C2197 C2198 1.372 . S
C2198 C2197 1.372 . S
C2198 C2199 1.400 . S
C2198 C2203 1.490 . S
C2199 H2189 0.930 . S
C2199 C2198 1.400 . S
C2199 C2202 1.386 . S
H2200 C2216 0.930 . S
H2201 C2217 0.931 . S
C2202 H2190 0.929 . S
C2202 C2196 1.390 . S
C2202 C2199 1.386 . S
C2203 C2198 1.490 . S
C2203 C2205 1.395 . S
C2203 C2206 1.403 . S
H2204 C2210 0.930 . S
C2205 H2191 0.930 . S
C2205 C2203 1.395 . S
C2205 C2208 1.403 . S
C2206 C2203 1.403 . S
C2206 C2207 1.524 . S
C2206 C2210 1.400 . S
C2207 H2192 0.960 . S
C2207 H2193 0.960 . S
C2207 H2194 0.960 . S
C2207 C2206 1.524 . S
C2208 C2205 1.403 . S
C2208 C2209 1.392 . S
C2208 C2212 1.495 . S
C2209 C2208 1.392 . S
C2209 C2210 1.385 . S
C2209 C2211 1.478 . S
C2210 H2204 0.930 . S
C2210 C2206 1.400 . S
C2210 C2209 1.385 . S
C2211 C2209 1.478 . S
C2211 C2213 1.381 . S
C2211 C2217 1.383 . S
C2212 C2208 1.495 . S
C2212 H2218 0.959 . S
C2212 H2219 0.961 . S
C2212 H2220 0.960 . S
C2213 C2211 1.381 . S
C2213 C2214 1.394 . S
C2213 H2221 0.930 . S
C2214 C2213 1.394 . S
C2214 C2215 1.383 . S
C2214 H2222 0.929 . S
C2215 C2214 1.383 . S
C2215 C2216 1.377 . S
C2216 H2200 0.930 . S
C2216 C2215 1.377 . S
C2216 C2217 1.379 . S
C2217 H2201 0.931 . S
C2217 C2211 1.383 . S
C2217 C2216 1.379 . S
H2218 C2212 0.959 . S
H2219 C2212 0.961 . S
H2220 C2212 0.960 . S
H2221 C2213 0.930 . S
H2222 C2214 0.929 . S
H2223 C2231 0.929 . S
H2224 C2233 0.930 . S
H2225 C2235 0.930 . S
H2226 C2238 0.929 . S
H2227 C2241 0.930 . S
H2228 C2243 0.960 . S
H2229 C2243 0.960 . S
H2230 C2243 0.960 . S
C2231 H2223 0.929 . S
C2231 C2232 1.377 . S
C2231 C2233 1.384 . S
C2232 C2231 1.377 . S
C2232 C2238 1.390 . S
C2233 H2224 0.930 . S
C2233 C2231 1.384 . S
C2233 C2234 1.372 . S
C2234 C2233 1.372 . S
C2234 C2235 1.400 . S
C2234 C2239 1.490 . S
C2235 H2225 0.930 . S
C2235 C2234 1.400 . S
C2235 C2238 1.386 . S
H2236 C2252 0.930 . S
H2237 C2253 0.931 . S
C2238 H2226 0.929 . S
C2238 C2232 1.390 . S
C2238 C2235 1.386 . S
C2239 C2234 1.490 . S
C2239 C2241 1.395 . S
C2239 C2242 1.403 . S
H2240 C2246 0.930 . S
C2241 H2227 0.930 . S
C2241 C2239 1.395 . S
C2241 C2244 1.403 . S
C2242 C2239 1.403 . S
C2242 C2243 1.524 . S
C2242 C2246 1.400 . S
C2243 H2228 0.960 . S
C2243 H2229 0.960 . S
C2243 H2230 0.960 . S
C2243 C2242 1.524 . S
C2244 C2241 1.403 . S
C2244 C2245 1.392 . S
C2244 C2248 1.495 . S
C2245 C2244 1.392 . S
C2245 C2246 1.385 . S
C2245 C2247 1.478 . S
C2246 H2240 0.930 . S
C2246 C2242 1.400 . S
C2246 C2245 1.385 . S
C2247 C2245 1.478 . S
C2247 C2249 1.381 . S
C2247 C2253 1.383 . S
C2248 C2244 1.495 . S
C2248 H2254 0.959 . S
C2248 H2255 0.961 . S
C2248 H2256 0.960 . S
C2249 C2247 1.381 . S
C2249 C2250 1.394 . S
C2249 H2257 0.930 . S
C2250 C2249 1.394 . S
C2250 C2251 1.383 . S
C2250 H2258 0.929 . S
C2251 C2250 1.383 . S
C2251 C2252 1.377 . S
C2252 H2236 0.930 . S
C2252 C2251 1.377 . S
C2252 C2253 1.379 . S
C2253 H2237 0.931 . S
C2253 C2247 1.383 . S
C2253 C2252 1.379 . S
H2254 C2248 0.959 . S
H2255 C2248 0.961 . S
H2256 C2248 0.960 . S
H2257 C2249 0.930 . S
H2258 C2250 0.929 . S
H2259 C2267 0.929 . S
H2260 C2269 0.930 . S
H2261 C2271 0.930 . S
H2262 C2274 0.929 . S
H2263 C2277 0.930 . S
H2264 C2279 0.960 . S
H2265 C2279 0.960 . S
H2266 C2279 0.960 . S
C2267 H2259 0.929 . S
C2267 C2268 1.377 . S
C2267 C2269 1.384 . S
C2268 C2267 1.377 . S
C2268 C2274 1.390 . S
C2269 H2260 0.930 . S
C2269 C2267 1.384 . S
C2269 C2270 1.372 . S
C2270 C2269 1.372 . S
C2270 C2271 1.400 . S
C2270 C2275 1.490 . S
C2271 H2261 0.930 . S
C2271 C2270 1.400 . S
C2271 C2274 1.386 . S
H2272 C2288 0.930 . S
H2273 C2289 0.931 . S
C2274 H2262 0.929 . S
C2274 C2268 1.390 . S
C2274 C2271 1.386 . S
C2275 C2270 1.490 . S
C2275 C2277 1.395 . S
C2275 C2278 1.403 . S
H2276 C2282 0.930 . S
C2277 H2263 0.930 . S
C2277 C2275 1.395 . S
C2277 C2280 1.403 . S
C2278 C2275 1.403 . S
C2278 C2279 1.524 . S
C2278 C2282 1.400 . S
C2279 H2264 0.960 . S
C2279 H2265 0.960 . S
C2279 H2266 0.960 . S
C2279 C2278 1.524 . S
C2280 C2277 1.403 . S
C2280 C2281 1.392 . S
C2280 C2284 1.495 . S
C2281 C2280 1.392 . S
C2281 C2282 1.385 . S
C2281 C2283 1.478 . S
C2282 H2276 0.930 . S
C2282 C2278 1.400 . S
C2282 C2281 1.385 . S
C2283 C2281 1.478 . S
C2283 C2285 1.381 . S
C2283 C2289 1.383 . S
C2284 C2280 1.495 . S
C2284 H2290 0.959 . S
C2284 H2291 0.961 . S
C2284 H2292 0.960 . S
C2285 C2283 1.381 . S
C2285 C2286 1.394 . S
C2285 H2293 0.930 . S
C2286 C2285 1.394 . S
C2286 C2287 1.383 . S
C2286 H2294 0.929 . S
C2287 C2286 1.383 . S
C2287 C2288 1.377 . S
C2288 H2272 0.930 . S
C2288 C2287 1.377 . S
C2288 C2289 1.379 . S
C2289 H2273 0.931 . S
C2289 C2283 1.383 . S
C2289 C2288 1.379 . S
H2290 C2284 0.959 . S
H2291 C2284 0.961 . S
H2292 C2284 0.960 . S
H2293 C2285 0.930 . S
H2294 C2286 0.929 . S
H2295 C2303 0.929 . S
H2296 C2305 0.930 . S
H2297 C2307 0.930 . S
H2298 C2310 0.929 . S
H2299 C2313 0.930 . S
H2300 C2315 0.960 . S
H2301 C2315 0.960 . S
H2302 C2315 0.960 . S
C2303 H2295 0.929 . S
C2303 C2304 1.377 . S
C2303 C2305 1.384 . S
C2304 C2303 1.377 . S
C2304 C2310 1.390 . S
C2305 H2296 0.930 . S
C2305 C2303 1.384 . S
C2305 C2306 1.372 . S
C2306 C2305 1.372 . S
C2306 C2307 1.400 . S
C2306 C2311 1.490 . S
C2307 H2297 0.930 . S
C2307 C2306 1.400 . S
C2307 C2310 1.386 . S
H2308 C2324 0.930 . S
H2309 C2325 0.931 . S
C2310 H2298 0.929 . S
C2310 C2304 1.390 . S
C2310 C2307 1.386 . S
C2311 C2306 1.490 . S
C2311 C2313 1.395 . S
C2311 C2314 1.403 . S
H2312 C2318 0.930 . S
C2313 H2299 0.930 . S
C2313 C2311 1.395 . S
C2313 C2316 1.403 . S
C2314 C2311 1.403 . S
C2314 C2315 1.524 . S
C2314 C2318 1.400 . S
C2315 H2300 0.960 . S
C2315 H2301 0.960 . S
C2315 H2302 0.960 . S
C2315 C2314 1.524 . S
C2316 C2313 1.403 . S
C2316 C2317 1.392 . S
C2316 C2320 1.495 . S
C2317 C2316 1.392 . S
C2317 C2318 1.385 . S
C2317 C2319 1.478 . S
C2318 H2312 0.930 . S
C2318 C2314 1.400 . S
C2318 C2317 1.385 . S
C2319 C2317 1.478 . S
C2319 C2321 1.381 . S
C2319 C2325 1.383 . S
C2320 C2316 1.495 . S
C2320 H2326 0.959 . S
C2320 H2327 0.961 . S
C2320 H2328 0.960 . S
C2321 C2319 1.381 . S
C2321 C2322 1.394 . S
C2321 H2329 0.930 . S
C2322 C2321 1.394 . S
C2322 C2323 1.383 . S
C2322 H2330 0.929 . S
C2323 C2322 1.383 . S
C2323 C2324 1.377 . S
C2324 H2308 0.930 . S
C2324 C2323 1.377 . S
C2324 C2325 1.379 . S
C2325 H2309 0.931 . S
C2325 C2319 1.383 . S
C2325 C2324 1.379 . S
H2326 C2320 0.959 . S
H2327 C2320 0.961 . S
H2328 C2320 0.960 . S
H2329 C2321 0.930 . S
H2330 C2322 0.929 . S
C396 C151 1.208 . S
C415 C212 1.248 . S
C432 C159 1.647 . S
C451 C233 1.688 . S
C468 C137 1.236 . S
C487 C253 1.180 . S
C504 C126 1.239 . S
C523 C232 1.193 . S
C559 C254 1.723 . S
C540 C104 1.685 . S
C576 C118 1.161 . S
C595 C211 1.099 . S
C631 C213 1.340 . S
C612 C129 1.370 . S
C667 C234 1.461 . S
C648 C107 1.507 . S
C684 C115 1.137 . S
C703 C256 1.259 . S
C720 C148 1.094 . S
C739 C235 1.128 . S
C756 C162 1.480 . S
C775 C255 1.437 1_556 S
C811 C214 1.193 1_554 S
C792 C140 1.409 . S
C847 C275 1.247 . S
C828 C19 1.199 . S
C864 C27 1.638 . S
C883 C296 1.713 . S
C900 C5 1.232 . S
C919 C316 1.232 . S
C936 C192 1.236 . S
C955 C295 1.236 . S
C972 C170 1.684 . S
C991 C317 1.769 . S
C1008 C184 1.164 . S
C1027 C274 1.018 . S
C1044 C195 1.365 . S
C1063 C276 1.314 . S
C1080 C173 1.506 . S
C1099 C297 1.471 . S
C1135 C319 1.199 . S
C1116 C181 1.137 . S
C1152 C16 1.094 . S
C1171 C298 1.135 . S
C1207 C318 1.438 . S
C1188 C30 1.480 . S
C1224 C8 1.411 . S
C1243 C277 1.269 . S
C1279 C338 1.215 . S
C1260 C85 1.210 . S
C1296 C93 1.644 . S
C1315 C359 1.738 . S
C1351 C379 1.238 . S
C1332 C71 1.226 . S
C1387 C358 1.233 . S
C1368 C60 1.238 . S
C1423 C380 1.720 . S
C1404 C38 1.687 . S
C1440 C52 1.164 . S
C1459 C337 1.025 . S
C1476 C63 1.367 . S
C1495 C339 1.282 . S
C1512 C41 1.506 . S
C1531 C360 1.473 . S
C1567 C382 1.152 . S
C1548 C49 1.114 . S
C1584 C82 1.103 . S
C1603 C361 1.131 . S
C1620 C96 1.481 . S
C1639 C381 1.430 . S
C1656 C74 1.409 . S
C1675 C340 1.246 . S
C1692 C172 1.609 . S
C1711 C216 1.614 . S
C1747 C237 1.235 . S
C1728 C183 1.224 . S
C1764 C194 1.527 . S
C1783 C257 1.487 . S
C1800 C73 1.600 . S
C1819 C236 1.605 . S
C1836 C84 1.262 . S
C1855 C258 1.269 . S
C1891 C215 1.730 . S
C1872 C95 1.717 . S
C1908 C40 1.609 . S
C1927 C279 1.593 . S
C1944 C51 1.217 . S
C1963 C300 1.267 . S
C1980 C62 1.522 . S
C1999 C320 1.519 . S
C2016 C139 1.604 . S
C2035 C299 1.564 . S
C2071 C321 1.303 . S
C2052 C150 1.268 . S
C2088 C161 1.715 . S
C2107 C278 1.704 . S
C2124 C106 1.601 . S
C2143 C342 1.586 . S
C2160 C117 1.230 . S
C2179 C363 1.277 . S
C2215 C383 1.518 . S
C2196 C128 1.529 . S
C2232 C7 1.596 . S
C2251 C362 1.587 . S
C2268 C18 1.254 . S
C2287 C384 1.295 . S
C2304 C29 1.714 . S
C2323 C341 1.722 . S
