# Generated by pormake.
# Topology nia, (6,6)-cn, num edge types: 1
# Building blocks:
#     Node 0, Type 0, BuildingBlock: BETDAH_clean_sbu_0, # of connection points: 6
#     Node 1, Type 0, BuildingBlock: BETDAH_clean_sbu_0, # of connection points: 6
#     Node 2, Type 1, BuildingBlock: MIDCAF_clean_sbu_0, # of connection points: 6
#     Node 3, Type 1, BuildingBlock: MIDCAF_clean_sbu_0, # of connection points: 6
#     Edge 4, Type (0, 1), BuildingBlock: XUDNAN_clean_linker_2, # of connection points: 2
#     Edge 5, Type (0, 1), BuildingBlock: XUDNAN_clean_linker_2, # of connection points: 2
#     Edge 6, Type (0, 1), BuildingBlock: XUDNAN_clean_linker_2, # of connection points: 2
#     Edge 7, Type (0, 1), BuildingBlock: XUDNAN_clean_linker_2, # of connection points: 2
#     Edge 8, Type (0, 1), BuildingBlock: XUDNAN_clean_linker_2, # of connection points: 2
#     Edge 9, Type (0, 1), BuildingBlock: XUDNAN_clean_linker_2, # of connection points: 2
#     Edge 10, Type (0, 1), BuildingBlock: XUDNAN_clean_linker_2, # of connection points: 2
#     Edge 11, Type (0, 1), BuildingBlock: XUDNAN_clean_linker_2, # of connection points: 2
#     Edge 12, Type (0, 1), BuildingBlock: XUDNAN_clean_linker_2, # of connection points: 2
#     Edge 13, Type (0, 1), BuildingBlock: XUDNAN_clean_linker_2, # of connection points: 2
#     Edge 14, Type (0, 1), BuildingBlock: XUDNAN_clean_linker_2, # of connection points: 2
#     Edge 15, Type (0, 1), BuildingBlock: XUDNAN_clean_linker_2, # of connection points: 2
# Relax obj value: 0.327
# Max RMSD: 0.269
# Mean RMSD: 0.251
data_MOF--net-nia--node1-BETDAH_clean_sbu_0--node2-MIDCAF_clean_sbu_0--edge1-XUDNAN_clean_linker_2
_symmetry_space_group_name_H-M    P1
_symmetry_Int_Tables_number       1
_symmetry_cell_setting            triclinic
loop_
_symmetry_equiv_pos_as_xyz
'x, y, z'
_cell_length_a     25.379976
_cell_length_b     28.286798
_cell_length_c     34.008766
_cell_angle_alpha  70.172301
_cell_angle_beta   100.67889
_cell_angle_gamma 127.68182
loop_
_atom_site_label
_atom_site_type_symbol
_atom_site_fract_x
_atom_site_fract_y
_atom_site_fract_z
_atom_type_partial_charge
Ho0 Ho 0.07487 0.05363 0.03754 0.0
Ho1 Ho 0.98023 0.93925 1.01265 0.0
C2 C 0.97128 0.05416 0.96744 0.0
C3 C 0.16394 0.16288 0.04745 0.0
C4 C 0.19198 0.18891 0.08272 0.0
C5 C 0.16876 0.15053 0.12384 0.0
C6 C 0.18473 0.17727 0.15603 0.0
C7 C 0.22368 0.24232 0.14704 0.0
C8 C 0.25046 0.2804 0.10648 0.0
C9 C 0.23471 0.25379 0.07448 0.0
C10 C 0.96643 0.96402 0.09095 0.0
C11 C 0.08757 0.94141 0.07898 0.0
C12 C 0.87866 0.84261 0.99196 0.0
C13 C 0.8674 0.79781 0.97363 0.0
C14 C 0.8027 0.75412 0.96315 0.0
C15 C 0.79223 0.71919 0.93815 0.0
C16 C 0.8466 0.72819 0.92312 0.0
C17 C 0.9113 0.77072 0.93488 0.0
C18 C 0.92164 0.80536 0.96008 0.0
C19 C 0.102 0.01162 0.97447 0.0
O20 O 0.02801 0.0893 0.98473 0.0
O21 O 0.94087 -0.00625 0.97642 0.0
O22 O 0.17848 0.12756 0.04352 0.0
O23 O 0.10114 0.1398 0.04167 0.0
O24 O 0.02653 -0.0003 0.10275 0.0
O25 O 0.96722 0.97907 0.0518 0.0
O26 O 0.02497 0.90476 0.06844 0.0
O27 O 0.12121 0.00276 0.06509 0.0
O28 O 0.91061 0.8993 0.96673 0.0
O29 O 0.90006 0.83998 0.03024 0.0
O30 O 0.06448 0.95133 0.9865 0.0
O31 O 0.0716 0.0307 0.98089 0.0
H32 H 0.13526 0.10022 0.1305 0.0
H33 H 0.16327 0.14737 0.18712 0.0
H34 H 0.28041 0.33077 0.0991 0.0
H35 H 0.25255 0.28388 0.04285 0.0
H36 H 0.76058 0.74861 0.97307 0.0
H37 H 0.74171 0.68546 0.93041 0.0
H38 H 0.95397 0.77841 0.92369 0.0
H39 H 0.97204 0.83986 0.96748 0.0
Ho40 Ho 1.0002 0.02122 0.54348 0.0
Ho41 Ho 0.06571 0.98069 0.51552 0.0
C42 C 0.94433 0.96696 0.4637 0.0
C43 C 0.94577 0.06819 0.55535 0.0
C44 C 0.93748 0.08257 0.59061 0.0
C45 C 0.9809 0.14361 0.59414 0.0
C46 C 0.96986 0.15874 0.62527 0.0
C47 C 0.91485 0.11324 0.65315 0.0
C48 C 0.87309 0.05166 0.65077 0.0
C49 C 0.88418 0.03646 0.61975 0.0
C50 C 0.96636 0.90704 0.59155 0.0
C51 C 0.12317 0.03757 0.5941 0.0
C52 C 0.12209 0.9334 0.50672 0.0
C53 C 0.13529 0.91851 0.47417 0.0
C54 C 0.17866 0.90167 0.48277 0.0
C55 C 0.19283 0.88744 0.45261 0.0
C56 C 0.16401 0.88999 0.4131 0.0
C57 C 0.11981 0.90634 0.40463 0.0
C58 C 0.10572 0.92081 0.435 0.0
C59 C 0.10416 0.09884 0.47104 0.0
O60 O 0.95431 0.00716 0.48092 0.0
O61 O 0.97662 0.94192 0.47597 0.0
O62 O 0.00622 0.10214 0.53985 0.0
O63 O 0.91281 0.00922 0.55807 0.0
O64 O 0.97629 0.94881 0.60587 0.0
O65 O 0.97241 0.92683 0.55204 0.0
O66 O 0.11237 -0.00401 0.57794 0.0
O67 O 0.09122 0.0629 0.58097 0.0
O68 O 0.05993 0.90001 0.5188 0.0
O69 O 0.15397 -0.00741 0.50248 0.0
O70 O 0.09532 0.05921 0.45469 0.0
O71 O 0.09505 0.07416 0.50999 0.0
H72 H 0.02215 0.18022 0.57199 0.0
H73 H 1.00215 0.20681 0.62597 0.0
H74 H 0.83036 0.01576 0.67197 0.0
H75 H 0.84976 0.98899 0.61789 0.0
H76 H 0.20152 0.89936 0.51295 0.0
H77 H 0.22584 0.87359 0.46049 0.0
H78 H 0.09692 0.90863 0.37448 0.0
H79 H 0.07201 0.93382 0.42799 0.0
Zn80 Zn 0.38469 0.7015 0.18734 0.0
Zn81 Zn 0.396 0.6701 0.35179 0.0
Zn82 Zn 0.39736 0.68877 0.27053 0.0
C83 C 0.53008 0.75401 0.32329 0.0
C84 C 0.33435 0.55232 0.3461 0.0
O85 O 0.34251 0.73279 0.23839 0.0
O86 O 0.33527 0.73955 0.17112 0.0
C87 C 0.52416 0.7662 0.20756 0.0
O88 O 0.50341 0.74853 0.28741 0.0
O89 O 0.49417 0.72302 0.35628 0.0
O90 O 0.3489 0.57876 0.37375 0.0
O91 O 0.34838 0.58518 0.30716 0.0
O92 O 0.48452 0.75413 0.17755 0.0
O93 O 0.50118 0.74763 0.24482 0.0
O94 O 0.34968 0.5971 0.26367 0.0
O95 O 0.33345 0.60987 0.19563 0.0
C96 C 0.32805 0.57509 0.23215 0.0
O97 O 0.34369 0.72139 0.28193 0.0
O98 O 0.34923 0.70662 0.35045 0.0
C99 C 0.32342 0.74867 0.20125 0.0
C100 C 0.33068 0.72494 0.31524 0.0
Zn101 Zn 0.65781 0.24872 0.89744 0.0
Zn102 Zn 0.66709 0.33877 0.70362 0.0
Zn103 Zn 0.66815 0.30978 0.78664 0.0
C104 C 0.7424 0.45287 0.72272 0.0
C105 C 0.53496 0.2587 0.732 0.0
O106 O 0.71916 0.26288 0.8123 0.0
O107 O 0.71184 0.22722 0.88238 0.0
C108 C 0.71569 0.36956 0.86483 0.0
O109 O 0.72663 0.41545 0.76036 0.0
O110 O 0.72267 0.43041 0.69223 0.0
O111 O 0.56935 0.29303 0.69837 0.0
O112 O 0.56348 0.25804 0.76748 0.0
O113 O 0.70829 0.33561 0.90197 0.0
O114 O 0.69735 0.34639 0.83484 0.0
O115 O 0.56436 0.24993 0.81142 0.0
O116 O 0.56126 0.20904 0.88097 0.0
C117 C 0.53223 0.21549 0.84703 0.0
O118 O 0.71898 0.28092 0.76856 0.0
O119 O 0.70968 0.29998 0.69974 0.0
C120 C 0.73233 0.23582 0.84764 0.0
C121 C 0.73016 0.28035 0.73348 0.0
H122 H 0.07875 0.83872 0.07878 0.0
H123 H 0.17816 0.98575 0.13843 0.0
H124 H 0.24333 0.94817 0.17981 0.0
H125 H 0.07398 0.71787 0.16852 0.0
H126 H 0.09225 0.68961 0.13672 0.0
H127 H 0.0485 0.72393 0.11498 0.0
H128 H 0.13764 0.80311 0.05506 0.0
H129 H 0.18173 0.76919 0.07664 0.0
H130 H 0.22412 0.85152 0.06761 0.0
H131 H 0.30168 0.89663 0.21329 0.0
H132 H 0.35259 0.84029 0.23183 0.0
H133 H 0.21989 0.7295 0.14858 0.0
C134 C 0.11322 0.86208 0.10122 0.0
C135 C 0.12241 0.91465 0.10586 0.0
C136 C 0.16975 0.94516 0.13456 0.0
C137 C 0.20699 0.92403 0.1583 0.0
C138 C 0.19748 0.87266 0.15271 0.0
C139 C 0.15209 0.84235 0.1246 0.0
C140 C 0.15532 0.79142 0.12216 0.0
C141 C 0.08853 0.72688 0.13645 0.0
C142 C 0.17594 0.80462 0.07774 0.0
C143 C 0.20955 0.79792 0.15308 0.0
C144 C 0.23264 0.84453 0.17081 0.0
C145 C 0.28347 0.85975 0.19975 0.0
C146 C 0.31176 0.82706 0.2105 0.0
C147 C 0.28932 0.77939 0.19258 0.0
C148 C 0.23759 0.76508 0.16334 0.0
H149 H 0.21296 0.1554 0.60014 0.0
H150 H 0.14798 0.9652 0.65934 0.0
H151 H 0.23654 0.00087 0.71129 0.0
H152 H 0.38051 0.22017 0.60397 0.0
H153 H 0.40718 0.29155 0.61211 0.0
H154 H 0.33115 0.24918 0.58573 0.0
H155 H 0.26686 0.24436 0.63981 0.0
H156 H 0.34299 0.28623 0.66665 0.0
H157 H 0.27172 0.21157 0.6948 0.0
H158 H 0.33751 0.05899 0.75362 0.0
H159 H 0.4522 0.13467 0.77349 0.0
H160 H 0.45582 0.2867 0.68185 0.0
C161 C 0.21636 0.12115 0.62481 0.0
C162 C 0.17324 0.05753 0.62645 0.0
C163 C 0.18047 0.01414 0.65798 0.0
C164 C 0.23013 0.03392 0.68776 0.0
C165 C 0.27251 0.09732 0.68511 0.0
C166 C 0.26666 0.14038 0.65394 0.0
C167 C 0.32424 0.20656 0.65365 0.0
C168 C 0.36305 0.24402 0.61138 0.0
C169 C 0.29997 0.23908 0.66438 0.0
C170 C 0.36473 0.19426 0.6885 0.0
C171 C 0.33298 0.13101 0.70741 0.0
C172 C 0.36254 0.10858 0.73923 0.0
C173 C 0.42741 0.15177 0.75052 0.0
C174 C 0.46222 0.21614 0.72913 0.0
C175 C 0.42968 0.23761 0.69883 0.0
H176 H 0.16542 0.2974 0.14107 0.0
H177 H 0.29498 0.25487 0.2188 0.0
H178 H 0.31863 0.32264 0.26053 0.0
H179 H 0.26384 0.44893 0.1286 0.0
H180 H 0.20084 0.45936 0.12967 0.0
H181 H 0.17981 0.39522 0.1142 0.0
H182 H 0.08645 0.31716 0.17183 0.0
H183 H 0.10676 0.38137 0.18742 0.0
H184 H 0.10601 0.31838 0.22537 0.0
H185 H 0.34552 0.4108 0.28308 0.0
H186 H 0.37453 0.51129 0.28383 0.0
H187 H 0.22764 0.49628 0.19049 0.0
C188 C 0.19662 0.3006 0.16801 0.0
C189 C 0.22816 0.27116 0.17732 0.0
C190 C 0.26992 0.27681 0.2119 0.0
C191 C 0.28333 0.31495 0.23566 0.0
C192 C 0.25367 0.34594 0.22449 0.0
C193 C 0.21029 0.33827 0.19177 0.0
C194 C 0.19247 0.38311 0.1818 0.0
C195 C 0.21038 0.42406 0.13588 0.0
C196 C 0.11853 0.34789 0.19225 0.0
C197 C 0.23655 0.42066 0.21172 0.0
C198 C 0.26995 0.39746 0.23703 0.0
C199 C 0.31845 0.42841 0.26418 0.0
C200 C 0.3344 0.48525 0.26455 0.0
C201 C 0.3023 0.5105 0.23769 0.0
C202 C 0.25184 0.47708 0.21181 0.0
H203 H 0.79284 0.08321 0.66024 0.0
H204 H 0.99427 0.18916 0.70378 0.0
H205 H 0.96398 0.23451 0.73801 0.0
H206 H 0.77619 0.19891 0.62967 0.0
H207 H 0.68957 0.15234 0.6447 0.0
H208 H 0.72171 0.11726 0.6324 0.0
H209 H 0.681 0.03403 0.70504 0.0
H210 H 0.64736 0.06822 0.71727 0.0
H211 H 0.70547 0.05876 0.75172 0.0
H212 H 0.91545 0.27848 0.75881 0.0
H213 H 0.85329 0.31847 0.76307 0.0
H214 H 0.68692 0.18703 0.70209 0.0
C215 C 0.82978 0.11379 0.67856 0.0
C216 C 0.89548 0.13203 0.68005 0.0
C217 C 0.94344 0.17436 0.70268 0.0
C218 C 0.92659 0.2 0.72232 0.0
C219 C 0.86173 0.18267 0.7189 0.0
C220 C 0.81398 0.14013 0.69778 0.0
C221 C 0.75071 0.13533 0.69357 0.0
C222 C 0.73363 0.15199 0.64736 0.0
C223 C 0.69271 0.07021 0.71839 0.0
C224 C 0.77137 0.18417 0.7136 0.0
C225 C 0.83483 0.20985 0.72912 0.0
C226 C 0.86551 0.25819 0.7472 0.0
C227 C 0.83025 0.28077 0.74929 0.0
C228 C 0.76597 0.25551 0.73271 0.0
C229 C 0.73617 0.2067 0.71489 0.0
H230 H 0.84319 0.93235 0.0636 0.0
H231 H 0.95297 0.92396 0.17652 0.0
H232 H 0.85279 0.87407 0.21927 0.0
H233 H 0.75481 0.97199 0.10036 0.0
H234 H 0.67935 0.92676 0.07408 0.0
H235 H 0.75864 0.95928 0.0528 0.0
H236 H 0.71694 0.84935 0.0538 0.0
H237 H 0.63737 0.81653 0.07478 0.0
H238 H 0.6839 0.78666 0.10195 0.0
H239 H 0.73744 0.82103 0.24952 0.0
H240 H 0.62028 0.77321 0.26407 0.0
H241 H 0.59007 0.82595 0.13123 0.0
C242 C 0.84606 0.91959 0.09735 0.0
C243 C 0.90581 0.9316 0.11681 0.0
C244 C 0.90767 0.91494 0.16101 0.0
C245 C 0.85102 0.88667 0.18549 0.0
C246 C 0.79305 0.87609 0.16529 0.0
C247 C 0.79043 0.89239 0.12216 0.0
C248 C 0.72289 0.87765 0.10795 0.0
C249 C 0.72934 0.93749 0.08229 0.0
C250 C 0.68824 0.82969 0.08317 0.0
C251 C 0.68749 0.84993 0.14979 0.0
C252 C 0.72856 0.84909 0.18253 0.0
C253 C 0.70551 0.82286 0.22402 0.0
C254 C 0.63895 0.79669 0.23215 0.0
C255 C 0.59616 0.79798 0.19916 0.0
C256 C 0.62143 0.82518 0.15742 0.0
H257 H 0.89979 0.79935 0.56752 0.0
H258 H 0.9747 0.86838 0.67596 0.0
H259 H 0.92935 0.76136 0.72181 0.0
H260 H 0.74607 0.65837 0.61639 0.0
H261 H 0.74374 0.61178 0.58981 0.0
H262 H 0.78611 0.69433 0.56555 0.0
H263 H 0.89414 0.70712 0.55801 0.0
H264 H 0.85212 0.62454 0.58215 0.0
H265 H 0.92795 0.67964 0.6036 0.0
H266 H 0.87561 0.64396 0.7564 0.0
H267 H 0.81391 0.52904 0.77538 0.0
H268 H 0.76602 0.53676 0.64522 0.0
C269 C 0.90724 0.79197 0.60085 0.0
C270 C 0.94123 0.84245 0.61808 0.0
C271 C 0.94896 0.83054 0.66199 0.0
C272 C 0.92343 0.7698 0.68834 0.0
C273 C 0.88946 0.72079 0.67054 0.0
C274 C 0.88104 0.73129 0.62776 0.0
C275 C 0.84005 0.67034 0.61664 0.0
C276 C 0.77514 0.65799 0.59588 0.0
C277 C 0.88101 0.67043 0.58844 0.0
C278 C 0.82637 0.62397 0.65971 0.0
C279 C 0.8559 0.6538 0.69047 0.0
C280 C 0.85138 0.6202 0.73249 0.0
C281 C 0.81533 0.55462 0.74324 0.0
C282 C 0.78254 0.52272 0.71245 0.0
C283 C 0.78925 0.55877 0.67006 0.0
H284 H 0.28585 0.92773 0.3937 0.0
H285 H 0.07763 0.81461 0.36339 0.0
H286 H 0.10276 0.77335 0.32182 0.0
H287 H 0.35865 0.95388 0.29404 0.0
H288 H 0.42182 0.94707 0.32319 0.0
H289 H 0.39056 0.97971 0.34032 0.0
H290 H 0.36074 0.89796 0.41323 0.0
H291 H 0.39113 0.86489 0.39626 0.0
H292 H 0.30691 0.81605 0.41671 0.0
H293 H 0.14739 0.73022 0.29491 0.0
H294 H 0.2062 0.68846 0.2875 0.0
H295 H 0.3823 0.82587 0.33957 0.0
C296 C 0.24583 0.89554 0.37735 0.0
C297 C 0.17987 0.87424 0.38176 0.0
C298 C 0.12874 0.83213 0.35996 0.0
C299 C 0.1426 0.80846 0.33631 0.0
C300 C 0.20788 0.82802 0.33447 0.0
C301 C 0.25876 0.87123 0.35416 0.0
C302 C 0.32239 0.87815 0.35298 0.0
C303 C 0.37655 0.9436 0.32601 0.0
C304 C 0.34662 0.86333 0.39741 0.0
C305 C 0.29845 0.82916 0.33206 0.0
C306 C 0.23297 0.80202 0.32024 0.0
C307 C 0.19899 0.75199 0.30332 0.0
C308 C 0.23244 0.72845 0.29933 0.0
C309 C 0.29842 0.7545 0.31289 0.0
C310 C 0.33197 0.80596 0.32862 0.0
H311 H 0.18752 0.9845 0.97331 0.0
H312 H 0.15288 0.12494 0.91494 0.0
H313 H 0.25212 0.18611 0.86814 0.0
H314 H 0.36235 0.09157 0.97623 0.0
H315 H 0.37932 0.04279 0.96715 0.0
H316 H 0.30189 0.00785 0.9921 0.0
H317 H 0.23741 0.95049 0.93549 0.0
H318 H 0.31487 0.98614 0.90999 0.0
H319 H 0.25289 -0.00498 0.88105 0.0
H320 H 0.3572 0.23229 0.82791 0.0
H321 H 0.46798 0.26833 0.80768 0.0
H322 H 0.43705 0.10121 0.89668 0.0
C323 C 0.20054 0.02786 0.95035 0.0
C324 C 0.16231 0.04978 0.94729 0.0
C325 C 0.18154 0.10733 0.91761 0.0
C326 C 0.23743 0.14203 0.89069 0.0
C327 C 0.27396 0.11885 0.89426 0.0
C328 C 0.25682 0.06357 0.92395 0.0
C329 C 0.30767 0.05173 0.92451 0.0
C330 C 0.33971 0.04833 0.96754 0.0
C331 C 0.27631 -0.00769 0.91201 0.0
C332 C 0.35692 0.10951 0.89113 0.0
C333 C 0.33581 0.14688 0.87306 0.0
C334 C 0.37404 0.20327 0.84186 0.0
C335 C 0.43661 0.22315 0.83025 0.0
C336 C 0.46074 0.18735 0.85051 0.0
C337 C 0.41946 0.12916 0.88046 0.0
H338 H 0.08401 0.1753 0.40366 0.0
H339 H 0.22679 0.1777 0.497 0.0
H340 H 0.30406 0.29237 0.4693 0.0
H341 H 0.20462 0.30588 0.31904 0.0
H342 H 0.15982 0.33969 0.30094 0.0
H343 H 0.11524 0.25667 0.32471 0.0
H344 H 0.06022 0.25883 0.37989 0.0
H345 H 0.1021 0.34138 0.35586 0.0
H346 H 0.11156 0.31235 0.41075 0.0
H347 H 0.36381 0.40524 0.43491 0.0
H348 H 0.40032 0.5128 0.39946 0.0
H349 H 0.21972 0.44379 0.32846 0.0
C350 C 0.13209 0.2002 0.41764 0.0
C351 C 0.15005 0.16759 0.45213 0.0
C352 C 0.21244 0.20168 0.4704 0.0
C353 C 0.25673 0.26683 0.45476 0.0
C354 C 0.23782 0.29781 0.42097 0.0
C355 C 0.17681 0.26604 0.40276 0.0
C356 C 0.1675 0.3121 0.36893 0.0
C357 C 0.16144 0.30307 0.32582 0.0
C358 C 0.10674 0.30578 0.3795 0.0
C359 C 0.23232 0.37449 0.37155 0.0
C360 C 0.27222 0.36447 0.40146 0.0
C361 C 0.33324 0.41368 0.41125 0.0
C362 C 0.3536 0.47472 0.39088 0.0
C363 C 0.31342 0.48693 0.36091 0.0
C364 C 0.25212 0.43601 0.35062 0.0
H365 H 0.98561 0.16108 0.96202 0.0
H366 H 0.88173 0.00777 0.90777 0.0
H367 H 0.82002 0.04702 0.86311 0.0
H368 H 0.84741 0.15555 0.97046 0.0
H369 H 0.89148 0.23869 0.95841 0.0
H370 H 0.93473 0.20428 0.98118 0.0
H371 H 0.02118 0.27818 0.91937 0.0
H372 H 0.97783 0.31268 0.89636 0.0
H373 H 0.99299 0.28001 0.86651 0.0
H374 H 0.76106 0.09686 0.82914 0.0
H375 H 0.70568 0.14903 0.81316 0.0
H376 H 0.84556 0.26816 0.89018 0.0
C377 C 0.95114 0.13674 0.93996 0.0
C378 C 0.9391 0.08168 0.93814 0.0
C379 C 0.89208 0.05018 0.90968 0.0
C380 C 0.85696 0.07231 0.88396 0.0
C381 C 0.86903 0.12606 0.887 0.0
C382 C 0.91491 0.15779 0.9144 0.0
C383 C 0.91364 0.21054 0.91477 0.0
C384 C 0.89572 0.20169 0.95881 0.0
C385 C 0.98039 0.27412 0.89826 0.0
C386 C 0.8585 0.2022 0.88446 0.0
C387 C 0.83429 0.15408 0.86802 0.0
C388 C 0.78039 0.13527 0.84132 0.0
C389 C 0.74948 0.16534 0.83211 0.0
C390 C 0.77261 0.21356 0.84952 0.0
C391 C 0.82823 0.23254 0.87555 0.0
H392 H 0.85303 0.85017 0.45536 0.0
H393 H 0.92109 0.04183 0.4 0.0
H394 H 0.83124 0.00909 0.34865 0.0
H395 H 0.79016 0.79776 0.35911 0.0
H396 H 0.71869 0.72303 0.38701 0.0
H397 H 0.79569 0.76307 0.41356 0.0
H398 H 0.73388 0.75718 0.46981 0.0
H399 H 0.65696 0.71702 0.44359 0.0
H400 H 0.68606 0.78794 0.45368 0.0
H401 H 0.72823 0.95358 0.30659 0.0
H402 H 0.61337 0.87973 0.28554 0.0
H403 H 0.60797 0.72453 0.37336 0.0
C404 C 0.85008 0.88537 0.43156 0.0
C405 C 0.89453 0.9486 0.4309 0.0
C406 C 0.88775 -0.0068 0.40057 0.0
C407 C 0.8372 0.97506 0.37116 0.0
C408 C 0.7933 0.91199 0.37296 0.0
C409 C 0.79883 0.86775 0.40282 0.0
C410 C 0.74005 0.80225 0.40233 0.0
C411 C 0.76252 0.76962 0.38975 0.0
C412 C 0.702 0.76389 0.44486 0.0
C413 C 0.69949 0.81631 0.3685 0.0
C414 C 0.73194 0.87985 0.35085 0.0
C415 C 0.70268 0.90376 0.31997 0.0
C416 C 0.63771 0.86166 0.30802 0.0
C417 C 0.60256 0.79682 0.32773 0.0
C418 C 0.63445 0.77402 0.35755 0.0
H419 H 0.90324 0.66994 0.93059 0.0
H420 H 0.76232 0.70117 0.85776 0.0
H421 H 0.72969 0.62417 0.82239 0.0
H422 H 0.9441 0.63168 0.84666 0.0
H423 H 0.94885 0.57356 0.88697 0.0
H424 H 0.97505 0.64353 0.8972 0.0
H425 H 0.89344 0.57542 0.96175 0.0
H426 H 0.86694 0.50594 0.95135 0.0
H427 H 0.80633 0.51825 0.95475 0.0
H428 H 0.69412 0.52949 0.80829 0.0
H429 H 0.66014 0.42431 0.81543 0.0
H430 H 0.82443 0.45526 0.89698 0.0
C431 C 0.86795 0.66282 0.90571 0.0
C432 C 0.83535 0.69125 0.89671 0.0
C433 C 0.78749 0.67929 0.86516 0.0
C434 C 0.76935 0.63638 0.84456 0.0
C435 C 0.80039 0.60693 0.85553 0.0
C436 C 0.84946 0.62024 0.88498 0.0
C437 C 0.86702 0.57509 0.89643 0.0
C438 C 0.93797 0.60795 0.88087 0.0
C439 C 0.85779 0.54173 0.94384 0.0
C440 C 0.81602 0.5311 0.87181 0.0
C441 C 0.7795 0.55129 0.84727 0.0
C442 C 0.72368 0.51416 0.82617 0.0
C443 C 0.70458 0.45472 0.83054 0.0
C444 C 0.74068 0.43349 0.85641 0.0
C445 C 0.7974 0.47201 0.87657 0.0
loop_
_geom_bond_atom_site_label_1
_geom_bond_atom_site_label_2
_geom_bond_distance
_geom_bond_site_symmetry_2
_ccdc_geom_bond_type
Ho0 C3 2.811 . S
Ho0 O20 2.322 . S
Ho0 O22 2.378 . S
Ho0 O23 2.524 . S
Ho0 O24 2.381 1_445 S
Ho0 O25 2.669 1_445 S
Ho0 O27 2.346 1_545 S
Ho0 O31 2.305 1_554 S
Ho1 C12 2.811 . S
Ho1 O21 2.346 1_565 S
Ho1 O25 2.305 1_556 S
Ho1 O26 2.322 1_656 S
Ho1 O28 2.378 . S
Ho1 O29 2.524 . S
Ho1 O30 2.381 1_665 S
Ho1 O31 2.669 1_665 S
C2 O20 1.259 1_656 S
C2 O21 1.268 . S
C3 Ho0 2.811 . S
C3 C4 1.488 . S
C3 O22 1.215 . S
C3 O23 1.289 . S
C4 C3 1.488 . S
C4 C5 1.348 . S
C4 C9 1.413 . S
C5 C4 1.348 . S
C5 C6 1.442 . S
C5 H32 0.930 . S
C6 C5 1.442 . S
C6 C7 1.381 . S
C6 H33 0.931 . S
C7 C6 1.381 . S
C7 C8 1.321 . S
C8 C7 1.321 . S
C8 C9 1.403 . S
C8 H34 0.934 . S
C9 C4 1.413 . S
C9 C8 1.403 . S
C9 H35 0.930 . S
C10 O24 1.275 . S
C10 O25 1.256 . S
C11 O26 1.259 . S
C11 O27 1.268 . S
C12 Ho1 2.811 . S
C12 C13 1.488 . S
C12 O28 1.215 . S
C12 O29 1.289 . S
C13 C12 1.488 . S
C13 C14 1.348 . S
C13 C18 1.413 . S
C14 C13 1.348 . S
C14 C15 1.442 . S
C14 H36 0.930 1_556 S
C15 C14 1.442 . S
C15 C16 1.381 . S
C15 H37 0.931 . S
C16 C15 1.381 . S
C16 C17 1.321 . S
C17 C16 1.321 . S
C17 C18 1.403 . S
C17 H38 0.934 . S
C18 C13 1.413 . S
C18 C17 1.403 . S
C18 H39 0.930 . S
C19 O30 1.275 . S
C19 O31 1.256 . S
O20 Ho0 2.322 . S
O20 C2 1.259 1_454 S
O21 Ho1 2.346 1_545 S
O21 C2 1.268 . S
O22 Ho0 2.378 . S
O22 C3 1.215 . S
O23 Ho0 2.524 . S
O23 C3 1.289 . S
O24 Ho0 2.381 1_665 S
O24 C10 1.275 . S
O25 Ho0 2.669 1_665 S
O25 Ho1 2.305 1_554 S
O25 C10 1.256 . S
O26 Ho1 2.322 1_454 S
O26 C11 1.259 . S
O27 Ho0 2.346 1_565 S
O27 C11 1.268 . S
O28 Ho1 2.378 . S
O28 C12 1.215 . S
O29 Ho1 2.524 . S
O29 C12 1.289 . S
O30 Ho1 2.381 1_445 S
O30 C19 1.275 . S
O31 Ho0 2.305 1_556 S
O31 Ho1 2.669 1_445 S
O31 C19 1.256 . S
H32 C5 0.930 . S
H33 C6 0.931 . S
H34 C8 0.934 . S
H35 C9 0.930 . S
H36 C14 0.930 1_554 S
H37 C15 0.931 . S
H38 C17 0.934 . S
H39 C18 0.930 . S
Ho40 C43 2.811 1_455 S
Ho40 O60 2.322 1_445 S
Ho40 O62 2.378 1_455 S
Ho40 O63 2.524 1_455 S
Ho40 O64 2.381 1_445 S
Ho40 O65 2.669 1_545 S
Ho40 O67 2.346 . S
Ho40 O71 2.305 . S
Ho41 C52 2.811 . S
Ho41 O61 2.346 1_455 S
Ho41 O65 2.305 . S
Ho41 O66 2.322 1_565 S
Ho41 O68 2.378 1_565 S
Ho41 O69 2.524 . S
Ho41 O70 2.381 1_565 S
Ho41 O71 2.669 1_565 S
C42 O60 1.259 . S
C42 O61 1.268 . S
C43 Ho40 2.811 1_655 S
C43 C44 1.488 . S
C43 O62 1.215 . S
C43 O63 1.289 . S
C44 C43 1.488 . S
C44 C45 1.348 . S
C44 C49 1.413 . S
C45 C44 1.348 . S
C45 C46 1.442 . S
C45 H72 0.930 . S
C46 C45 1.442 . S
C46 C47 1.381 . S
C46 H73 0.931 . S
C47 C46 1.381 . S
C47 C48 1.321 . S
C48 C47 1.321 . S
C48 C49 1.403 . S
C48 H74 0.934 . S
C49 C44 1.413 . S
C49 C48 1.403 . S
C49 H75 0.930 1_545 S
C50 O64 1.275 . S
C50 O65 1.256 1_655 S
C51 O66 1.259 . S
C51 O67 1.268 . S
C52 Ho41 2.811 . S
C52 C53 1.488 . S
C52 O68 1.215 1_565 S
C52 O69 1.289 . S
C53 C52 1.488 . S
C53 C54 1.348 . S
C53 C58 1.413 1_565 S
C54 C53 1.348 . S
C54 C55 1.442 . S
C54 H76 0.930 . S
C55 C54 1.442 . S
C55 C56 1.381 . S
C55 H77 0.931 . S
C56 C55 1.381 . S
C56 C57 1.321 . S
C57 C56 1.321 . S
C57 C58 1.403 1_565 S
C57 H78 0.934 1_565 S
C58 C53 1.413 1_545 S
C58 C57 1.403 1_545 S
C58 H79 0.930 . S
C59 O70 1.275 . S
C59 O71 1.256 . S
O60 Ho40 2.322 1_665 S
O60 C42 1.259 . S
O61 Ho41 2.346 1_655 S
O61 C42 1.268 . S
O62 Ho40 2.378 1_655 S
O62 C43 1.215 . S
O63 Ho40 2.524 1_655 S
O63 C43 1.289 . S
O64 Ho40 2.381 1_665 S
O64 C50 1.275 . S
O65 Ho40 2.669 1_565 S
O65 Ho41 2.305 . S
O65 C50 1.256 1_455 S
O66 Ho41 2.322 1_545 S
O66 C51 1.259 . S
O67 Ho40 2.346 . S
O67 C51 1.268 . S
O68 Ho41 2.378 1_545 S
O68 C52 1.215 1_545 S
O69 Ho41 2.524 . S
O69 C52 1.289 . S
O70 Ho41 2.381 1_545 S
O70 C59 1.275 . S
O71 Ho40 2.305 . S
O71 Ho41 2.669 1_545 S
O71 C59 1.256 . S
H72 C45 0.930 . S
H73 C46 0.931 . S
H74 C48 0.934 . S
H75 C49 0.930 1_565 S
H76 C54 0.930 . S
H77 C55 0.931 . S
H78 C57 0.934 1_545 S
H79 C58 0.930 . S
Zn80 O86 1.920 . S
Zn80 O92 1.898 . S
Zn80 O95 1.905 . S
Zn81 O89 1.905 . S
Zn81 O90 1.898 . S
Zn81 O98 1.920 . S
Zn82 O85 2.080 . S
Zn82 O88 2.114 . S
Zn82 O91 2.120 . S
Zn82 O93 2.120 . S
Zn82 O94 2.114 . S
Zn82 O97 2.080 . S
C83 O88 1.166 . S
C83 O89 1.182 . S
C84 O90 1.167 . S
C84 O91 1.299 . S
O85 Zn82 2.080 . S
O85 C99 1.305 . S
O86 Zn80 1.920 . S
O86 C99 1.234 . S
C87 O92 1.167 . S
C87 O93 1.299 . S
O88 Zn82 2.114 . S
O88 C83 1.166 . S
O89 Zn81 1.905 . S
O89 C83 1.182 . S
O90 Zn81 1.898 . S
O90 C84 1.167 . S
O91 Zn82 2.120 . S
O91 C84 1.299 . S
O92 Zn80 1.898 . S
O92 C87 1.167 . S
O93 Zn82 2.120 . S
O93 C87 1.299 . S
O94 Zn82 2.114 . S
O94 C96 1.166 . S
O95 Zn80 1.905 . S
O95 C96 1.182 . S
C96 O94 1.166 . S
C96 O95 1.182 . S
O97 Zn82 2.080 . S
O97 C100 1.305 . S
O98 Zn81 1.920 . S
O98 C100 1.234 . S
C99 O85 1.305 . S
C99 O86 1.234 . S
C100 O97 1.305 . S
C100 O98 1.234 . S
Zn101 O107 1.920 . S
Zn101 O113 1.898 . S
Zn101 O116 1.905 . S
Zn102 O110 1.905 . S
Zn102 O111 1.898 . S
Zn102 O119 1.920 . S
Zn103 O106 2.080 . S
Zn103 O109 2.114 . S
Zn103 O112 2.120 . S
Zn103 O114 2.120 . S
Zn103 O115 2.114 . S
Zn103 O118 2.080 . S
C104 O109 1.166 . S
C104 O110 1.182 . S
C105 O111 1.167 . S
C105 O112 1.299 . S
O106 Zn103 2.080 . S
O106 C120 1.305 . S
O107 Zn101 1.920 . S
O107 C120 1.234 . S
C108 O113 1.167 . S
C108 O114 1.299 . S
O109 Zn103 2.114 . S
O109 C104 1.166 . S
O110 Zn102 1.905 . S
O110 C104 1.182 . S
O111 Zn102 1.898 . S
O111 C105 1.167 . S
O112 Zn103 2.120 . S
O112 C105 1.299 . S
O113 Zn101 1.898 . S
O113 C108 1.167 . S
O114 Zn103 2.120 . S
O114 C108 1.299 . S
O115 Zn103 2.114 . S
O115 C117 1.166 . S
O116 Zn101 1.905 . S
O116 C117 1.182 . S
C117 O115 1.166 . S
C117 O116 1.182 . S
O118 Zn103 2.080 . S
O118 C121 1.305 . S
O119 Zn102 1.920 . S
O119 C121 1.234 . S
C120 O106 1.305 . S
C120 O107 1.234 . S
C121 O118 1.305 . S
C121 O119 1.234 . S
H122 C134 0.930 . S
H123 C136 0.930 . S
H124 C137 0.930 . S
H125 C141 0.959 . S
H126 C141 0.959 . S
H127 C141 0.961 . S
H128 C142 0.960 . S
H129 C142 0.961 . S
H130 C142 0.959 . S
H131 C145 0.929 . S
H132 C146 0.931 . S
H133 C148 0.930 . S
C134 H122 0.930 . S
C134 C135 1.399 . S
C134 C139 1.399 . S
C135 C134 1.399 . S
C135 C136 1.376 . S
C136 H123 0.930 . S
C136 C135 1.376 . S
C136 C137 1.388 . S
C137 H124 0.930 . S
C137 C136 1.388 . S
C137 C138 1.390 . S
C138 C137 1.390 . S
C138 C139 1.394 . S
C138 C144 1.465 . S
C139 C134 1.399 . S
C139 C138 1.394 . S
C139 C140 1.516 . S
C140 C139 1.516 . S
C140 C141 1.502 . S
C140 C142 1.561 . S
C140 C143 1.526 . S
C141 H125 0.959 . S
C141 H126 0.959 . S
C141 H127 0.961 . S
C141 C140 1.502 . S
C142 H128 0.960 . S
C142 H129 0.961 . S
C142 H130 0.959 . S
C142 C140 1.561 . S
C143 C140 1.526 . S
C143 C144 1.396 . S
C143 C148 1.390 . S
C144 C138 1.465 . S
C144 C143 1.396 . S
C144 C145 1.399 . S
C145 H131 0.929 . S
C145 C144 1.399 . S
C145 C146 1.385 . S
C146 H132 0.931 . S
C146 C145 1.385 . S
C146 C147 1.389 . S
C147 C146 1.389 . S
C147 C148 1.387 . S
C148 H133 0.930 . S
C148 C143 1.390 . S
C148 C147 1.387 . S
H149 C161 0.930 . S
H150 C163 0.930 . S
H151 C164 0.930 . S
H152 C168 0.959 . S
H153 C168 0.959 . S
H154 C168 0.961 . S
H155 C169 0.960 . S
H156 C169 0.961 . S
H157 C169 0.959 . S
H158 C172 0.929 . S
H159 C173 0.931 . S
H160 C175 0.930 . S
C161 H149 0.930 . S
C161 C162 1.399 . S
C161 C166 1.399 . S
C162 C161 1.399 . S
C162 C163 1.376 . S
C163 H150 0.930 . S
C163 C162 1.376 . S
C163 C164 1.388 . S
C164 H151 0.930 . S
C164 C163 1.388 . S
C164 C165 1.390 . S
C165 C164 1.390 . S
C165 C166 1.394 . S
C165 C171 1.465 . S
C166 C161 1.399 . S
C166 C165 1.394 . S
C166 C167 1.516 . S
C167 C166 1.516 . S
C167 C168 1.502 . S
C167 C169 1.561 . S
C167 C170 1.526 . S
C168 H152 0.959 . S
C168 H153 0.959 . S
C168 H154 0.961 . S
C168 C167 1.502 . S
C169 H155 0.960 . S
C169 H156 0.961 . S
C169 H157 0.959 . S
C169 C167 1.561 . S
C170 C167 1.526 . S
C170 C171 1.396 . S
C170 C175 1.390 . S
C171 C165 1.465 . S
C171 C170 1.396 . S
C171 C172 1.399 . S
C172 H158 0.929 . S
C172 C171 1.399 . S
C172 C173 1.385 . S
C173 H159 0.931 . S
C173 C172 1.385 . S
C173 C174 1.389 . S
C174 C173 1.389 . S
C174 C175 1.387 . S
C175 H160 0.930 . S
C175 C170 1.390 . S
C175 C174 1.387 . S
H176 C188 0.930 . S
H177 C190 0.930 . S
H178 C191 0.930 . S
H179 C195 0.959 . S
H180 C195 0.959 . S
H181 C195 0.961 . S
H182 C196 0.960 . S
H183 C196 0.961 . S
H184 C196 0.959 . S
H185 C199 0.929 . S
H186 C200 0.931 . S
H187 C202 0.930 . S
C188 H176 0.930 . S
C188 C189 1.399 . S
C188 C193 1.399 . S
C189 C188 1.399 . S
C189 C190 1.376 . S
C190 H177 0.930 . S
C190 C189 1.376 . S
C190 C191 1.388 . S
C191 H178 0.930 . S
C191 C190 1.388 . S
C191 C192 1.390 . S
C192 C191 1.390 . S
C192 C193 1.394 . S
C192 C198 1.465 . S
C193 C188 1.399 . S
C193 C192 1.394 . S
C193 C194 1.516 . S
C194 C193 1.516 . S
C194 C195 1.502 . S
C194 C196 1.561 . S
C194 C197 1.526 . S
C195 H179 0.959 . S
C195 H180 0.959 . S
C195 H181 0.961 . S
C195 C194 1.502 . S
C196 H182 0.960 . S
C196 H183 0.961 . S
C196 H184 0.959 . S
C196 C194 1.561 . S
C197 C194 1.526 . S
C197 C198 1.396 . S
C197 C202 1.390 . S
C198 C192 1.465 . S
C198 C197 1.396 . S
C198 C199 1.399 . S
C199 H185 0.929 . S
C199 C198 1.399 . S
C199 C200 1.385 . S
C200 H186 0.931 . S
C200 C199 1.385 . S
C200 C201 1.389 . S
C201 C200 1.389 . S
C201 C202 1.387 . S
C202 H187 0.930 . S
C202 C197 1.390 . S
C202 C201 1.387 . S
H203 C215 0.930 . S
H204 C217 0.930 . S
H205 C218 0.930 . S
H206 C222 0.959 . S
H207 C222 0.959 . S
H208 C222 0.961 . S
H209 C223 0.960 . S
H210 C223 0.961 . S
H211 C223 0.959 . S
H212 C226 0.929 . S
H213 C227 0.931 . S
H214 C229 0.930 . S
C215 H203 0.930 . S
C215 C216 1.399 . S
C215 C220 1.399 . S
C216 C215 1.399 . S
C216 C217 1.376 . S
C217 H204 0.930 . S
C217 C216 1.376 . S
C217 C218 1.388 . S
C218 H205 0.930 . S
C218 C217 1.388 . S
C218 C219 1.390 . S
C219 C218 1.390 . S
C219 C220 1.394 . S
C219 C225 1.465 . S
C220 C215 1.399 . S
C220 C219 1.394 . S
C220 C221 1.516 . S
C221 C220 1.516 . S
C221 C222 1.502 . S
C221 C223 1.561 . S
C221 C224 1.526 . S
C222 H206 0.959 . S
C222 H207 0.959 . S
C222 H208 0.961 . S
C222 C221 1.502 . S
C223 H209 0.960 . S
C223 H210 0.961 . S
C223 H211 0.959 . S
C223 C221 1.561 . S
C224 C221 1.526 . S
C224 C225 1.396 . S
C224 C229 1.390 . S
C225 C219 1.465 . S
C225 C224 1.396 . S
C225 C226 1.399 . S
C226 H212 0.929 . S
C226 C225 1.399 . S
C226 C227 1.385 . S
C227 H213 0.931 . S
C227 C226 1.385 . S
C227 C228 1.389 . S
C228 C227 1.389 . S
C228 C229 1.387 . S
C229 H214 0.930 . S
C229 C224 1.390 . S
C229 C228 1.387 . S
H230 C242 0.930 . S
H231 C244 0.930 . S
H232 C245 0.930 . S
H233 C249 0.959 . S
H234 C249 0.959 . S
H235 C249 0.961 . S
H236 C250 0.960 . S
H237 C250 0.961 . S
H238 C250 0.959 . S
H239 C253 0.929 . S
H240 C254 0.931 . S
H241 C256 0.930 . S
C242 H230 0.930 . S
C242 C243 1.399 . S
C242 C247 1.399 . S
C243 C242 1.399 . S
C243 C244 1.376 . S
C244 H231 0.930 . S
C244 C243 1.376 . S
C244 C245 1.388 . S
C245 H232 0.930 . S
C245 C244 1.388 . S
C245 C246 1.390 . S
C246 C245 1.390 . S
C246 C247 1.394 . S
C246 C252 1.465 . S
C247 C242 1.399 . S
C247 C246 1.394 . S
C247 C248 1.516 . S
C248 C247 1.516 . S
C248 C249 1.502 . S
C248 C250 1.561 . S
C248 C251 1.526 . S
C249 H233 0.959 . S
C249 H234 0.959 . S
C249 H235 0.961 . S
C249 C248 1.502 . S
C250 H236 0.960 . S
C250 H237 0.961 . S
C250 H238 0.959 . S
C250 C248 1.561 . S
C251 C248 1.526 . S
C251 C252 1.396 . S
C251 C256 1.390 . S
C252 C246 1.465 . S
C252 C251 1.396 . S
C252 C253 1.399 . S
C253 H239 0.929 . S
C253 C252 1.399 . S
C253 C254 1.385 . S
C254 H240 0.931 . S
C254 C253 1.385 . S
C254 C255 1.389 . S
C255 C254 1.389 . S
C255 C256 1.387 . S
C256 H241 0.930 . S
C256 C251 1.390 . S
C256 C255 1.387 . S
H257 C269 0.930 . S
H258 C271 0.930 . S
H259 C272 0.930 . S
H260 C276 0.959 . S
H261 C276 0.959 . S
H262 C276 0.961 . S
H263 C277 0.960 . S
H264 C277 0.961 . S
H265 C277 0.959 . S
H266 C280 0.929 . S
H267 C281 0.931 . S
H268 C283 0.930 . S
C269 H257 0.930 . S
C269 C270 1.399 . S
C269 C274 1.399 . S
C270 C269 1.399 . S
C270 C271 1.376 . S
C271 H258 0.930 . S
C271 C270 1.376 . S
C271 C272 1.388 . S
C272 H259 0.930 . S
C272 C271 1.388 . S
C272 C273 1.390 . S
C273 C272 1.390 . S
C273 C274 1.394 . S
C273 C279 1.465 . S
C274 C269 1.399 . S
C274 C273 1.394 . S
C274 C275 1.516 . S
C275 C274 1.516 . S
C275 C276 1.502 . S
C275 C277 1.561 . S
C275 C278 1.526 . S
C276 H260 0.959 . S
C276 H261 0.959 . S
C276 H262 0.961 . S
C276 C275 1.502 . S
C277 H263 0.960 . S
C277 H264 0.961 . S
C277 H265 0.959 . S
C277 C275 1.561 . S
C278 C275 1.526 . S
C278 C279 1.396 . S
C278 C283 1.390 . S
C279 C273 1.465 . S
C279 C278 1.396 . S
C279 C280 1.399 . S
C280 H266 0.929 . S
C280 C279 1.399 . S
C280 C281 1.385 . S
C281 H267 0.931 . S
C281 C280 1.385 . S
C281 C282 1.389 . S
C282 C281 1.389 . S
C282 C283 1.387 . S
C283 H268 0.930 . S
C283 C278 1.390 . S
C283 C282 1.387 . S
H284 C296 0.930 . S
H285 C298 0.930 . S
H286 C299 0.930 . S
H287 C303 0.959 . S
H288 C303 0.959 . S
H289 C303 0.961 . S
H290 C304 0.960 . S
H291 C304 0.961 . S
H292 C304 0.959 . S
H293 C307 0.929 . S
H294 C308 0.931 . S
H295 C310 0.930 . S
C296 H284 0.930 . S
C296 C297 1.399 . S
C296 C301 1.399 . S
C297 C296 1.399 . S
C297 C298 1.376 . S
C298 H285 0.930 . S
C298 C297 1.376 . S
C298 C299 1.388 . S
C299 H286 0.930 . S
C299 C298 1.388 . S
C299 C300 1.390 . S
C300 C299 1.390 . S
C300 C301 1.394 . S
C300 C306 1.465 . S
C301 C296 1.399 . S
C301 C300 1.394 . S
C301 C302 1.516 . S
C302 C301 1.516 . S
C302 C303 1.502 . S
C302 C304 1.561 . S
C302 C305 1.526 . S
C303 H287 0.959 . S
C303 H288 0.959 . S
C303 H289 0.961 . S
C303 C302 1.502 . S
C304 H290 0.960 . S
C304 H291 0.961 . S
C304 H292 0.959 . S
C304 C302 1.561 . S
C305 C302 1.526 . S
C305 C306 1.396 . S
C305 C310 1.390 . S
C306 C300 1.465 . S
C306 C305 1.396 . S
C306 C307 1.399 . S
C307 H293 0.929 . S
C307 C306 1.399 . S
C307 C308 1.385 . S
C308 H294 0.931 . S
C308 C307 1.385 . S
C308 C309 1.389 . S
C309 C308 1.389 . S
C309 C310 1.387 . S
C310 H295 0.930 . S
C310 C305 1.390 . S
C310 C309 1.387 . S
H311 C323 0.930 . S
H312 C325 0.930 . S
H313 C326 0.930 . S
H314 C330 0.959 . S
H315 C330 0.959 . S
H316 C330 0.961 . S
H317 C331 0.960 . S
H318 C331 0.961 . S
H319 C331 0.959 . S
H320 C334 0.929 . S
H321 C335 0.931 . S
H322 C337 0.930 . S
C323 H311 0.930 . S
C323 C324 1.399 . S
C323 C328 1.399 . S
C324 C323 1.399 . S
C324 C325 1.376 . S
C325 H312 0.930 . S
C325 C324 1.376 . S
C325 C326 1.388 . S
C326 H313 0.930 . S
C326 C325 1.388 . S
C326 C327 1.390 . S
C327 C326 1.390 . S
C327 C328 1.394 . S
C327 C333 1.465 . S
C328 C323 1.399 . S
C328 C327 1.394 . S
C328 C329 1.516 . S
C329 C328 1.516 . S
C329 C330 1.502 . S
C329 C331 1.561 . S
C329 C332 1.526 . S
C330 H314 0.959 . S
C330 H315 0.959 . S
C330 H316 0.961 . S
C330 C329 1.502 . S
C331 H317 0.960 . S
C331 H318 0.961 . S
C331 H319 0.959 . S
C331 C329 1.561 . S
C332 C329 1.526 . S
C332 C333 1.396 . S
C332 C337 1.390 . S
C333 C327 1.465 . S
C333 C332 1.396 . S
C333 C334 1.399 . S
C334 H320 0.929 . S
C334 C333 1.399 . S
C334 C335 1.385 . S
C335 H321 0.931 . S
C335 C334 1.385 . S
C335 C336 1.389 . S
C336 C335 1.389 . S
C336 C337 1.387 . S
C337 H322 0.930 . S
C337 C332 1.390 . S
C337 C336 1.387 . S
H338 C350 0.930 . S
H339 C352 0.930 . S
H340 C353 0.930 . S
H341 C357 0.959 . S
H342 C357 0.959 . S
H343 C357 0.961 . S
H344 C358 0.960 . S
H345 C358 0.961 . S
H346 C358 0.959 . S
H347 C361 0.929 . S
H348 C362 0.931 . S
H349 C364 0.930 . S
C350 H338 0.930 . S
C350 C351 1.399 . S
C350 C355 1.399 . S
C351 C350 1.399 . S
C351 C352 1.376 . S
C352 H339 0.930 . S
C352 C351 1.376 . S
C352 C353 1.388 . S
C353 H340 0.930 . S
C353 C352 1.388 . S
C353 C354 1.390 . S
C354 C353 1.390 . S
C354 C355 1.394 . S
C354 C360 1.465 . S
C355 C350 1.399 . S
C355 C354 1.394 . S
C355 C356 1.516 . S
C356 C355 1.516 . S
C356 C357 1.502 . S
C356 C358 1.561 . S
C356 C359 1.526 . S
C357 H341 0.959 . S
C357 H342 0.959 . S
C357 H343 0.961 . S
C357 C356 1.502 . S
C358 H344 0.960 . S
C358 H345 0.961 . S
C358 H346 0.959 . S
C358 C356 1.561 . S
C359 C356 1.526 . S
C359 C360 1.396 . S
C359 C364 1.390 . S
C360 C354 1.465 . S
C360 C359 1.396 . S
C360 C361 1.399 . S
C361 H347 0.929 . S
C361 C360 1.399 . S
C361 C362 1.385 . S
C362 H348 0.931 . S
C362 C361 1.385 . S
C362 C363 1.389 . S
C363 C362 1.389 . S
C363 C364 1.387 . S
C364 H349 0.930 . S
C364 C359 1.390 . S
C364 C363 1.387 . S
H365 C377 0.930 . S
H366 C379 0.930 . S
H367 C380 0.930 . S
H368 C384 0.959 . S
H369 C384 0.959 . S
H370 C384 0.961 . S
H371 C385 0.960 . S
H372 C385 0.961 . S
H373 C385 0.959 . S
H374 C388 0.929 . S
H375 C389 0.931 . S
H376 C391 0.930 . S
C377 H365 0.930 . S
C377 C378 1.399 . S
C377 C382 1.399 . S
C378 C377 1.399 . S
C378 C379 1.376 . S
C379 H366 0.930 . S
C379 C378 1.376 . S
C379 C380 1.388 . S
C380 H367 0.930 . S
C380 C379 1.388 . S
C380 C381 1.390 . S
C381 C380 1.390 . S
C381 C382 1.394 . S
C381 C387 1.465 . S
C382 C377 1.399 . S
C382 C381 1.394 . S
C382 C383 1.516 . S
C383 C382 1.516 . S
C383 C384 1.502 . S
C383 C385 1.561 . S
C383 C386 1.526 . S
C384 H368 0.959 . S
C384 H369 0.959 . S
C384 H370 0.961 . S
C384 C383 1.502 . S
C385 H371 0.960 . S
C385 H372 0.961 . S
C385 H373 0.959 . S
C385 C383 1.561 . S
C386 C383 1.526 . S
C386 C387 1.396 . S
C386 C391 1.390 . S
C387 C381 1.465 . S
C387 C386 1.396 . S
C387 C388 1.399 . S
C388 H374 0.929 . S
C388 C387 1.399 . S
C388 C389 1.385 . S
C389 H375 0.931 . S
C389 C388 1.385 . S
C389 C390 1.389 . S
C390 C389 1.389 . S
C390 C391 1.387 . S
C391 H376 0.930 . S
C391 C386 1.390 . S
C391 C390 1.387 . S
H392 C404 0.930 . S
H393 C406 0.913 1_545 S
H394 C407 0.930 . S
H395 C411 0.959 . S
H396 C411 0.959 . S
H397 C411 0.961 . S
H398 C412 0.960 . S
H399 C412 0.961 . S
H400 C412 0.959 . S
H401 C415 0.929 . S
H402 C416 0.931 . S
H403 C418 0.930 . S
C404 H392 0.930 . S
C404 C405 1.399 . S
C404 C409 1.399 . S
C405 C404 1.399 . S
C405 C406 1.376 . S
C406 H393 0.913 1_565 S
C406 C405 1.376 . S
C406 C407 1.388 . S
C407 H394 0.930 . S
C407 C406 1.388 . S
C407 C408 1.390 . S
C408 C407 1.390 . S
C408 C409 1.394 . S
C408 C414 1.465 . S
C409 C404 1.399 . S
C409 C408 1.394 . S
C409 C410 1.516 . S
C410 C409 1.516 . S
C410 C411 1.502 . S
C410 C412 1.561 . S
C410 C413 1.526 . S
C411 H395 0.959 . S
C411 H396 0.959 . S
C411 H397 0.961 . S
C411 C410 1.502 . S
C412 H398 0.960 . S
C412 H399 0.961 . S
C412 H400 0.959 . S
C412 C410 1.561 . S
C413 C410 1.526 . S
C413 C414 1.396 . S
C413 C418 1.390 . S
C414 C408 1.465 . S
C414 C413 1.396 . S
C414 C415 1.399 . S
C415 H401 0.929 . S
C415 C414 1.399 . S
C415 C416 1.385 . S
C416 H402 0.931 . S
C416 C415 1.385 . S
C416 C417 1.389 . S
C417 C416 1.389 . S
C417 C418 1.387 . S
C418 H403 0.930 . S
C418 C413 1.390 . S
C418 C417 1.387 . S
H419 C431 0.930 . S
H420 C433 0.930 . S
H421 C434 0.930 . S
H422 C438 0.959 . S
H423 C438 0.959 . S
H424 C438 0.961 . S
H425 C439 0.960 . S
H426 C439 0.961 . S
H427 C439 0.959 . S
H428 C442 0.929 . S
H429 C443 0.931 . S
H430 C445 0.930 . S
C431 H419 0.930 . S
C431 C432 1.399 . S
C431 C436 1.399 . S
C432 C431 1.399 . S
C432 C433 1.376 . S
C433 H420 0.930 . S
C433 C432 1.376 . S
C433 C434 1.388 . S
C434 H421 0.930 . S
C434 C433 1.388 . S
C434 C435 1.390 . S
C435 C434 1.390 . S
C435 C436 1.394 . S
C435 C441 1.465 . S
C436 C431 1.399 . S
C436 C435 1.394 . S
C436 C437 1.516 . S
C437 C436 1.516 . S
C437 C438 1.502 . S
C437 C439 1.561 . S
C437 C440 1.526 . S
C438 H422 0.959 . S
C438 H423 0.959 . S
C438 H424 0.961 . S
C438 C437 1.502 . S
C439 H425 0.960 . S
C439 H426 0.961 . S
C439 H427 0.959 . S
C439 C437 1.561 . S
C440 C437 1.526 . S
C440 C441 1.396 . S
C440 C445 1.390 . S
C441 C435 1.465 . S
C441 C440 1.396 . S
C441 C442 1.399 . S
C442 H428 0.929 . S
C442 C441 1.399 . S
C442 C443 1.385 . S
C443 H429 0.931 . S
C443 C442 1.385 . S
C443 C444 1.389 . S
C444 C443 1.389 . S
C444 C445 1.387 . S
C445 H430 0.930 . S
C445 C440 1.390 . S
C445 C444 1.387 . S
C135 C11 1.870 . S
C147 C99 1.852 . S
C162 C51 1.256 . S
C174 C105 1.091 . S
C189 C7 0.923 . S
C201 C96 0.778 . S
C216 C47 1.345 . S
C228 C121 1.313 . S
C243 C10 2.077 . S
C255 C87 2.031 . S
C282 C104 2.298 . S
C270 C50 2.326 . S
C297 C56 1.208 . S
C309 C100 1.239 . S
C336 C117 1.732 . S
C324 C19 1.844 . S
C363 C84 2.061 . S
C351 C59 2.202 . S
C390 C120 2.080 . S
C378 C2 2.110 . S
C417 C83 1.328 . S
C405 C42 1.499 . S
C444 C108 0.765 . S
C432 C16 0.925 . S
