# Generated by pormake.
# Topology rtl, (3,6)-cn, num edge types: 1
# Building blocks:
#     Node 0, Type 0, BuildingBlock: WUSLED_clean_sbu_0, # of connection points: 3
#     Node 1, Type 0, BuildingBlock: WUSLED_clean_sbu_0, # of connection points: 3
#     Node 2, Type 0, BuildingBlock: WUSLED_clean_sbu_0, # of connection points: 3
#     Node 3, Type 0, BuildingBlock: WUSLED_clean_sbu_0, # of connection points: 3
#     Node 4, Type 1, BuildingBlock: VOLQOD_clean_sbu_1, # of connection points: 6
#     Node 5, Type 1, BuildingBlock: VOLQOD_clean_sbu_1, # of connection points: 6
#     Edge 6, Type (0, 1), BuildingBlock: ZUJKAS_clean_linker_0, # of connection points: 2
#     Edge 7, Type (0, 1), BuildingBlock: ZUJKAS_clean_linker_0, # of connection points: 2
#     Edge 8, Type (0, 1), BuildingBlock: ZUJKAS_clean_linker_0, # of connection points: 2
#     Edge 9, Type (0, 1), BuildingBlock: ZUJKAS_clean_linker_0, # of connection points: 2
#     Edge 10, Type (0, 1), BuildingBlock: ZUJKAS_clean_linker_0, # of connection points: 2
#     Edge 11, Type (0, 1), BuildingBlock: ZUJKAS_clean_linker_0, # of connection points: 2
#     Edge 12, Type (0, 1), BuildingBlock: ZUJKAS_clean_linker_0, # of connection points: 2
#     Edge 13, Type (0, 1), BuildingBlock: ZUJKAS_clean_linker_0, # of connection points: 2
#     Edge 14, Type (0, 1), BuildingBlock: ZUJKAS_clean_linker_0, # of connection points: 2
#     Edge 15, Type (0, 1), BuildingBlock: ZUJKAS_clean_linker_0, # of connection points: 2
#     Edge 16, Type (0, 1), BuildingBlock: ZUJKAS_clean_linker_0, # of connection points: 2
#     Edge 17, Type (0, 1), BuildingBlock: ZUJKAS_clean_linker_0, # of connection points: 2
# Relax obj value: 0.076
# Max RMSD: 0.155
# Mean RMSD: 0.086
data_MOF--net-rtl--node1-WUSLED_clean_sbu_0--node2-VOLQOD_clean_sbu_1--edge1-ZUJKAS_clean_linker_0
_symmetry_space_group_name_H-M    P1
_symmetry_Int_Tables_number       1
_symmetry_cell_setting            triclinic
loop_
_symmetry_equiv_pos_as_xyz
'x, y, z'
_cell_length_a     58.56183
_cell_length_b     51.017286
_cell_length_c     37.75648
_cell_angle_alpha  90.319985
_cell_angle_beta   90.591451
_cell_angle_gamma 89.995619
loop_
_atom_site_label
_atom_site_type_symbol
_atom_site_fract_x
_atom_site_fract_y
_atom_site_fract_z
_atom_type_partial_charge
C0 C 0.1422 0.77315 0.1104 0.0
C1 C 0.12539 0.79189 0.10261 0.0
C2 C 0.12001 0.80015 0.16552 0.0
C3 C 0.11441 0.80529 0.12992 0.0
C4 C 0.13651 0.78087 0.1732 0.0
C5 C 0.14757 0.76752 0.14579 0.0
U6 U 0.15067 0.76364 0.01251 0.0
O7 O 0.18186 0.76304 0.98063 0.0
O8 O 0.15909 0.72886 0.98052 0.0
C9 C 0.17881 0.73857 0.97061 0.0
C10 C 0.15469 0.76034 0.08156 0.0
C11 C 0.19869 0.72143 0.97566 0.0
C12 C 0.22417 0.69651 0.0139 0.0
C13 C 0.20468 0.71206 0.00937 0.0
C14 C 0.23177 0.69955 0.95107 0.0
C15 C 0.23803 0.69025 0.98482 0.0
C16 C 0.21227 0.715 0.94657 0.0
C17 C 0.11079 0.80192 0.95046 0.0
C18 C 0.11848 0.81202 0.88891 0.0
C19 C 0.08089 0.81999 0.91295 0.0
C20 C 0.08825 0.81045 0.94574 0.0
C21 C 0.096 0.82129 0.88427 0.0
C22 C 0.1258 0.80236 0.92172 0.0
C23 C 0.1185 0.79364 0.98583 0.0
O24 O 0.14274 0.74357 0.06238 0.0
O25 O 0.16697 0.77635 0.06237 0.0
O26 O 0.13861 0.80248 0.99604 0.0
O27 O 0.11526 0.76882 0.99347 0.0
H28 H 0.121 0.7964 0.07537 0.0
H29 H 0.10156 0.81975 0.12315 0.0
H30 H 0.14131 0.77663 0.20034 0.0
H31 H 0.16056 0.75314 0.15221 0.0
H32 H 0.22866 0.68988 0.04027 0.0
H33 H 0.19443 0.71702 0.03217 0.0
H34 H 0.24191 0.69479 0.92808 0.0
H35 H 0.20786 0.72209 0.92038 0.0
H36 H 0.13062 0.81294 0.86752 0.0
H37 H 0.06336 0.82648 0.91014 0.0
H38 H 0.07641 0.81009 0.9676 0.0
H39 H 0.14328 0.79575 0.92486 0.0
C40 C 0.64135 0.74572 0.61621 0.0
C41 C 0.6222 0.73007 0.60869 0.0
C42 C 0.61963 0.71812 0.67088 0.0
C43 C 0.6114 0.71642 0.63579 0.0
C44 C 0.63863 0.73421 0.6783 0.0
C45 C 0.64941 0.74787 0.65115 0.0
U46 U 0.64966 0.7563 0.51829 0.0
O47 O 0.65786 0.79184 0.48804 0.0
O48 O 0.68081 0.75782 0.48654 0.0
C49 C 0.67767 0.7825 0.47789 0.0
C50 C 0.65357 0.75875 0.58748 0.0
C51 C 0.69742 0.7998 0.48395 0.0
C52 C 0.72959 0.81426 0.52019 0.0
C53 C 0.71019 0.79858 0.51556 0.0
C54 C 0.72319 0.83316 0.46217 0.0
C55 C 0.7364 0.83158 0.49342 0.0
C56 C 0.7039 0.81733 0.45747 0.0
C57 C 0.61102 0.71848 0.45381 0.0
C58 C 0.61989 0.7109 0.39189 0.0
C59 C 0.58281 0.69868 0.41448 0.0
C60 C 0.58921 0.70796 0.44804 0.0
C61 C 0.5982 0.69969 0.38616 0.0
C62 C 0.62622 0.72032 0.42543 0.0
C63 C 0.61799 0.72626 0.48985 0.0
O64 O 0.66589 0.74299 0.56775 0.0
O65 O 0.64145 0.77557 0.56888 0.0
O66 O 0.61442 0.75091 0.49844 0.0
O67 O 0.63807 0.71753 0.50027 0.0
H68 H 0.61579 0.72817 0.58177 0.0
H69 H 0.59664 0.7045 0.62923 0.0
H70 H 0.64558 0.73569 0.70494 0.0
H71 H 0.66428 0.75975 0.65733 0.0
H72 H 0.73927 0.81285 0.54471 0.0
H73 H 0.70532 0.78529 0.53645 0.0
H74 H 0.72812 0.84612 0.44095 0.0
H75 H 0.69421 0.81852 0.43292 0.0
H76 H 0.632 0.71221 0.37049 0.0
H77 H 0.56609 0.68991 0.41102 0.0
H78 H 0.57729 0.70637 0.46968 0.0
H79 H 0.64311 0.72856 0.42939 0.0
C80 C 0.86196 0.24455 0.10961 0.0
C81 C 0.87805 0.22485 0.10275 0.0
C82 C 0.88354 0.21798 0.16605 0.0
C83 C 0.88872 0.21166 0.1307 0.0
C84 C 0.8676 0.23804 0.17272 0.0
C85 C 0.85688 0.25119 0.14468 0.0
U86 U 0.85473 0.25458 0.01127 0.0
O87 O 0.82389 0.25678 0.97776 0.0
O88 O 0.84774 0.28995 0.9799 0.0
C89 C 0.82777 0.28122 0.96879 0.0
C90 C 0.85013 0.25767 0.08017 0.0
C91 C 0.80845 0.29913 0.97388 0.0
C92 C 0.78259 0.32271 0.01255 0.0
C93 C 0.80164 0.30654 0.008 0.0
C94 C 0.77717 0.3244 0.94888 0.0
C95 C 0.77003 0.3317 0.98303 0.0
C96 C 0.79621 0.30825 0.94438 0.0
C97 C 0.89425 0.21519 0.95064 0.0
C98 C 0.89013 0.21375 0.88657 0.0
C99 C 0.92065 0.18963 0.91548 0.0
C100 C 0.91327 0.19871 0.94838 0.0
C101 C 0.90911 0.1969 0.88417 0.0
C102 C 0.88276 0.22285 0.91959 0.0
C103 C 0.88629 0.22345 0.98569 0.0
O104 O 0.86269 0.2741 0.06206 0.0
O105 O 0.8377 0.2421 0.05993 0.0
O106 O 0.86573 0.21542 0.99403 0.0
O107 O 0.89013 0.24808 0.99427 0.0
H108 H 0.88212 0.21945 0.07574 0.0
H109 H 0.90064 0.19609 0.12456 0.0
H110 H 0.86344 0.24362 0.1996 0.0
H111 H 0.84454 0.26642 0.15039 0.0
H112 H 0.77773 0.32821 0.03917 0.0
H113 H 0.81093 0.29962 0.03109 0.0
H114 H 0.76772 0.33064 0.92561 0.0
H115 H 0.8012 0.30257 0.91787 0.0
H116 H 0.881 0.2199 0.86296 0.0
H117 H 0.93508 0.17636 0.91468 0.0
H118 H 0.92225 0.19253 0.97215 0.0
H119 H 0.86802 0.23564 0.92096 0.0
C120 C 0.3648 0.27253 0.40255 0.0
C121 C 0.38155 0.29137 0.41053 0.0
C122 C 0.38693 0.29945 0.34771 0.0
C123 C 0.39249 0.30474 0.38336 0.0
C124 C 0.37047 0.28011 0.33983 0.0
C125 C 0.35944 0.2668 0.3671 0.0
U126 U 0.35698 0.26212 0.50033 0.0
O127 O 0.32599 0.26135 0.53266 0.0
O128 O 0.34857 0.22702 0.53117 0.0
C129 C 0.32895 0.23673 0.54166 0.0
C130 C 0.35247 0.2596 0.43124 0.0
C131 C 0.30896 0.21981 0.536 0.0
C132 C 0.28309 0.19601 0.49674 0.0
C133 C 0.3027 0.21129 0.50186 0.0
C134 C 0.27591 0.19761 0.55983 0.0
C135 C 0.26938 0.18917 0.52565 0.0
C136 C 0.29554 0.2128 0.56492 0.0
C137 C 0.39732 0.29923 0.56322 0.0
C138 C 0.39094 0.30371 0.62643 0.0
C139 C 0.42564 0.32068 0.60067 0.0
C140 C 0.41837 0.31193 0.5673 0.0
C141 C 0.41191 0.31692 0.63057 0.0
C142 C 0.38372 0.29487 0.59299 0.0
C143 C 0.38948 0.29158 0.52759 0.0
O144 O 0.36444 0.24254 0.44963 0.0
O145 O 0.34046 0.27553 0.45119 0.0
O146 O 0.36934 0.30066 0.51815 0.0
O147 O 0.39252 0.26685 0.51894 0.0
H148 H 0.38594 0.29596 0.43782 0.0
H149 H 0.40531 0.31924 0.39027 0.0
H150 H 0.36569 0.27576 0.31265 0.0
H151 H 0.34651 0.25233 0.36054 0.0
H152 H 0.27839 0.19005 0.47007 0.0
H153 H 0.31283 0.21671 0.47919 0.0
H154 H 0.26589 0.19239 0.58268 0.0
H155 H 0.30016 0.21925 0.59143 0.0
H156 H 0.3801 0.30028 0.649 0.0
H157 H 0.44172 0.33109 0.60284 0.0
H158 H 0.42903 0.3155 0.54453 0.0
H159 H 0.36742 0.28497 0.59028 0.0
O160 O 0.94837 0.99905 0.50794 0.0
Zn161 Zn 0.97348 0.02614 0.50817 0.0
O162 O 0.00367 0.00953 0.50678 0.0
Zn163 Zn 0.02163 0.02057 0.54819 0.0
Zn164 Zn 1.00016 0.9713 0.50736 0.0
Zn165 Zn 0.01951 0.02015 0.46364 0.0
O166 O 0.05075 0.03842 0.53397 0.0
O167 O 0.04922 0.03865 0.47523 0.0
O168 O 0.96999 0.04867 0.55201 0.0
O169 O 0.00388 0.04572 0.57856 0.0
O170 O 0.03008 0.98977 0.5788 0.0
O171 O 0.01497 0.95549 0.55077 0.0
O172 O 0.01448 0.95473 0.46431 0.0
O173 O 0.96841 0.04915 0.46557 0.0
O174 O 0.02703 0.98862 0.43342 0.0
O175 O 1.00011 0.04475 0.43435 0.0
C176 C 0.94831 0.97408 0.50777 0.0
C177 C 0.0594 0.04432 0.50426 0.0
C178 C 0.02625 0.96524 0.57669 0.0
C179 C 0.98363 0.05481 0.57723 0.0
C180 C 0.02427 0.96402 0.43713 0.0
C181 C 0.9803 0.05457 0.43851 0.0
O182 O 0.96689 0.96108 0.5076 0.0
O183 O 0.55831 0.49891 0.01092 0.0
Zn184 Zn 0.53292 0.5257 0.01137 0.0
O185 O 0.50289 0.50868 0.00923 0.0
Zn186 Zn 0.4864 0.52011 0.96662 0.0
Zn187 Zn 0.50676 0.47049 0.00781 0.0
Zn188 Zn 0.4854 0.51849 0.05119 0.0
O189 O 0.45673 0.53787 0.97903 0.0
O190 O 0.45618 0.53711 0.03778 0.0
O191 O 0.53738 0.5495 0.96955 0.0
O192 O 0.50517 0.54563 0.93846 0.0
O193 O 0.47903 0.48944 0.93463 0.0
O194 O 0.493 0.45498 0.96317 0.0
O195 O 0.49172 0.45322 0.04955 0.0
O196 O 0.53655 0.54761 0.05577 0.0
O197 O 0.47706 0.48664 0.07957 0.0
O198 O 0.50358 0.54244 0.08333 0.0
C199 C 0.55861 0.47394 0.00983 0.0
C200 C 0.44704 0.5433 0.00822 0.0
C201 C 0.48264 0.46487 0.9366 0.0
C202 C 0.52501 0.55544 0.94282 0.0
C203 C 0.48064 0.46216 0.07586 0.0
C204 C 0.52351 0.55235 0.08183 0.0
O205 O 0.54014 0.46074 0.0087 0.0
H206 H 0.26285 0.1461 0.48301 0.0
H207 H 0.22764 0.12075 0.47437 0.0
H208 H 0.19293 0.17153 0.54793 0.0
H209 H 0.22782 0.19726 0.55613 0.0
H210 H 0.20227 0.0941 0.52671 0.0
H211 H 0.15059 0.17078 0.45992 0.0
H212 H 0.18131 0.17263 0.4639 0.0
H213 H 0.16365 0.18137 0.5008 0.0
C214 C 0.24764 0.15203 0.49702 0.0
C215 C 0.24811 0.17371 0.52022 0.0
C216 C 0.2276 0.13747 0.49219 0.0
C217 C 0.20763 0.14449 0.51016 0.0
C218 C 0.20806 0.16604 0.53339 0.0
H219 H 0.08709 0.05707 0.5606 0.0
H220 H 0.12362 0.0801 0.55965 0.0
C221 C 0.22808 0.18054 0.53833 0.0
C222 C 0.18649 0.12886 0.50559 0.0
H223 H 0.13042 0.13336 0.48067 0.0
C224 C 0.1866 0.10258 0.51637 0.0
C225 C 0.16617 0.13991 0.49166 0.0
C226 C 0.16538 0.16765 0.47807 0.0
C227 C 0.16667 0.08731 0.51476 0.0
C228 C 0.14609 0.09874 0.50242 0.0
C229 C 0.14618 0.12473 0.49044 0.0
C230 C 0.12415 0.08431 0.50268 0.0
C231 C 0.16779 0.05907 0.5263 0.0
C232 C 0.11211 0.0795 0.47099 0.0
C233 C 0.09114 0.06637 0.4714 0.0
C234 C 0.08173 0.05805 0.5036 0.0
C235 C 0.09383 0.0631 0.53531 0.0
C236 C 0.1148 0.07613 0.53483 0.0
H237 H 0.18556 0.05143 0.52589 0.0
H238 H 0.16147 0.05754 0.55381 0.0
H239 H 0.1569 0.04645 0.50902 0.0
H240 H 0.11899 0.08583 0.44592 0.0
H241 H 0.08227 0.06289 0.4465 0.0
H242 H 0.244 0.6461 0.02494 0.0
H243 H 0.27902 0.62031 0.03269 0.0
H244 H 0.31455 0.67258 0.96283 0.0
H245 H 0.27985 0.69872 0.95551 0.0
H246 H 0.305 0.59483 0.97901 0.0
H247 H 0.3558 0.66971 0.05225 0.0
H248 H 0.32512 0.67159 0.04759 0.0
H249 H 0.34313 0.68124 0.01169 0.0
C250 C 0.25935 0.65225 0.01154 0.0
C251 C 0.25917 0.67448 0.98966 0.0
C252 C 0.27928 0.63743 0.01584 0.0
C253 C 0.29941 0.64475 0.99867 0.0
C254 C 0.29927 0.66684 0.97672 0.0
H255 H 0.42119 0.55724 0.95044 0.0
H256 H 0.38479 0.58064 0.94977 0.0
C257 C 0.27936 0.68159 0.97229 0.0
C258 C 0.32049 0.62897 0.00291 0.0
H259 H 0.37607 0.63254 0.03069 0.0
C260 C 0.32051 0.60298 0.99052 0.0
C261 C 0.34059 0.63958 0.01833 0.0
C262 C 0.34121 0.66698 0.03355 0.0
C263 C 0.34035 0.58756 0.99217 0.0
C264 C 0.3607 0.59855 0.00623 0.0
C265 C 0.36049 0.62426 0.01961 0.0
C266 C 0.38252 0.58384 0.00678 0.0
C267 C 0.33936 0.55961 0.97897 0.0
C268 C 0.39352 0.57831 0.03906 0.0
C269 C 0.41439 0.56499 0.03958 0.0
C270 C 0.42476 0.55715 0.00776 0.0
C271 C 0.4137 0.56288 0.97545 0.0
C272 C 0.3928 0.57613 0.97499 0.0
H273 H 0.32154 0.55217 0.97764 0.0
H274 H 0.34653 0.55862 0.95191 0.0
H275 H 0.34962 0.5465 0.9963 0.0
H276 H 0.38591 0.58426 0.06387 0.0
H277 H 0.42243 0.56098 0.06493 0.0
H278 H 0.77798 0.8152 0.5181 0.0
H279 H 0.81342 0.84057 0.52245 0.0
H280 H 0.77843 0.90851 0.48163 0.0
H281 H 0.74282 0.88335 0.47748 0.0
H282 H 0.83443 0.8678 0.46179 0.0
H283 H 0.81288 0.93389 0.57436 0.0
H284 H 0.79843 0.90305 0.56666 0.0
H285 H 0.79192 0.9308 0.53938 0.0
C286 C 0.77775 0.83565 0.51054 0.0
C287 C 0.7576 0.84731 0.49752 0.0
C288 C 0.79801 0.85005 0.51287 0.0
C289 C 0.79844 0.87642 0.50263 0.0
C290 C 0.77834 0.88824 0.49 0.0
H291 H 0.90542 0.99433 0.49762 0.0
H292 H 0.86916 0.97056 0.49571 0.0
C293 C 0.75809 0.8738 0.48741 0.0
C294 C 0.82017 0.89119 0.50367 0.0
H295 H 0.84787 0.94155 0.54565 0.0
C296 C 0.83745 0.88389 0.48015 0.0
C297 C 0.82387 0.91226 0.52747 0.0
C298 C 0.80591 0.92048 0.55364 0.0
C299 C 0.85834 0.89734 0.4795 0.0
C300 C 0.86226 0.91817 0.50375 0.0
C301 C 0.84488 0.92554 0.52716 0.0
C302 C 0.8843 0.93252 0.50529 0.0
C303 C 0.87577 0.88948 0.45224 0.0
C304 C 0.90482 0.9191 0.51188 0.0
C305 C 0.92559 0.93258 0.51267 0.0
C306 C 0.92623 0.95985 0.50744 0.0
C307 C 0.90557 0.97334 0.50169 0.0
C308 C 0.88482 0.95979 0.50062 0.0
H309 H 0.86773 0.87895 0.4295 0.0
H310 H 0.885 0.90684 0.44204 0.0
H311 H 0.88843 0.87608 0.4646 0.0
H312 H 0.90478 0.89818 0.51652 0.0
H313 H 0.94113 0.92162 0.51757 0.0
H314 H 0.73657 0.32606 0.0326 0.0
H315 H 0.70144 0.35158 0.03855 0.0
H316 H 0.72091 0.39939 0.95006 0.0
H317 H 0.75625 0.3742 0.94414 0.0
H318 H 0.69485 0.4065 0.04905 0.0
H319 H 0.65709 0.37088 0.922 0.0
H320 H 0.68125 0.35515 0.94301 0.0
H321 H 0.68511 0.38494 0.91865 0.0
C322 C 0.73355 0.34221 0.01467 0.0
C323 C 0.74918 0.34798 0.98774 0.0
C324 C 0.71341 0.35669 0.01803 0.0
C325 C 0.70845 0.3771 0.99443 0.0
C326 C 0.72424 0.38337 0.96811 0.0
H327 H 0.60164 0.49516 0.01241 0.0
H328 H 0.63815 0.47197 0.00979 0.0
C329 C 0.74439 0.36893 0.96474 0.0
C330 C 0.68657 0.39153 0.99707 0.0
H331 H 0.63677 0.404 0.95247 0.0
C332 C 0.68213 0.40599 0.02797 0.0
C333 C 0.66993 0.39053 0.96967 0.0
C334 C 0.6734 0.37438 0.93655 0.0
C335 C 0.66153 0.41975 0.03204 0.0
C336 C 0.64511 0.4192 0.00431 0.0
C337 C 0.64947 0.40452 0.97357 0.0
C338 C 0.62305 0.43331 0.00682 0.0
C339 C 0.65732 0.43435 0.06621 0.0
C340 C 0.60246 0.41928 0.00546 0.0
C341 C 0.58156 0.43244 0.0068 0.0
C342 C 0.58083 0.45997 0.00929 0.0
C343 C 0.60154 0.47396 0.01064 0.0
C344 C 0.62245 0.46075 0.00934 0.0
H345 H 0.66902 0.4278 0.08776 0.0
H346 H 0.6602 0.4556 0.06199 0.0
H347 H 0.63942 0.43169 0.07495 0.0
H348 H 0.60257 0.39809 0.00336 0.0
H349 H 0.56598 0.42101 0.00562 0.0
H350 H 0.11224 0.85288 0.16777 0.0
H351 H 0.09469 0.87837 0.21523 0.0
H352 H 0.08559 0.8078 0.27587 0.0
H353 H 0.10331 0.78213 0.22846 0.0
H354 H 0.05166 0.87447 0.24329 0.0
H355 H 0.11787 0.85592 0.34663 0.0
H356 H 0.12228 0.8484 0.30044 0.0
H357 H 0.10552 0.8269 0.32733 0.0
C358 C 0.1064 0.84275 0.19112 0.0
C359 C 0.10919 0.81548 0.19439 0.0
C360 C 0.09645 0.85735 0.21827 0.0
C361 C 0.08912 0.84505 0.24928 0.0
C362 C 0.09161 0.81779 0.25251 0.0
H363 H 0.02518 0.91029 0.43835 0.0
H364 H 0.0397 0.88055 0.39274 0.0
C365 C 0.10168 0.80314 0.22539 0.0
C366 C 0.0786 0.86088 0.27785 0.0
H367 H 0.08522 0.87974 0.36431 0.0
C368 C 0.05899 0.87561 0.26975 0.0
C369 C 0.08817 0.86229 0.31239 0.0
C370 C 0.10973 0.84774 0.32226 0.0
C371 C 0.04872 0.89177 0.29523 0.0
C372 C 0.05847 0.89344 0.32957 0.0
C373 C 0.07781 0.87836 0.33792 0.0
C374 C 0.04931 0.91143 0.35684 0.0
C375 C 0.02744 0.90681 0.2853 0.0
C376 C 0.05013 0.93863 0.35184 0.0
C377 C 0.04193 0.9557 0.37784 0.0
C378 C 0.03277 0.94587 0.40941 0.0
C379 C 0.03203 0.91854 0.41433 0.0
C380 C 0.04034 0.9015 0.38834 0.0
H381 H 0.01899 0.89853 0.26125 0.0
H382 H 0.01504 0.90683 0.30735 0.0
H383 H 0.03209 0.92746 0.2797 0.0
H384 H 0.05734 0.94668 0.32793 0.0
H385 H 0.04284 0.9766 0.37318 0.0
H386 H 0.61059 0.73333 0.73913 0.0
H387 H 0.59441 0.70674 0.78651 0.0
H388 H 0.58761 0.64138 0.71429 0.0
H389 H 0.60441 0.66745 0.66715 0.0
H390 H 0.55195 0.68131 0.7901 0.0
H391 H 0.62377 0.61052 0.79778 0.0
H392 H 0.62589 0.64138 0.77487 0.0
H393 H 0.61167 0.61399 0.75416 0.0
C394 C 0.60583 0.71322 0.73341 0.0
C395 C 0.60892 0.70248 0.69939 0.0
C396 C 0.59645 0.69813 0.76044 0.0
C397 C 0.59013 0.67199 0.75402 0.0
C398 C 0.59273 0.66138 0.71995 0.0
H399 H 0.50476 0.57073 0.88049 0.0
H400 H 0.52027 0.59999 0.8357 0.0
C401 C 0.6021 0.67642 0.69293 0.0
C402 C 0.58083 0.65578 0.78293 0.0
H403 H 0.59043 0.59985 0.83 0.0
C404 C 0.56038 0.66355 0.79897 0.0
C405 C 0.59205 0.63283 0.79473 0.0
C406 C 0.61467 0.62426 0.77977 0.0
C407 C 0.55058 0.64864 0.82604 0.0
C408 C 0.56139 0.62518 0.83695 0.0
C409 C 0.58207 0.61772 0.82138 0.0
C410 C 0.55163 0.60807 0.86456 0.0
C411 C 0.52894 0.65833 0.84305 0.0
C412 C 0.56431 0.60247 0.89533 0.0
C413 C 0.55559 0.58558 0.92087 0.0
C414 C 0.53403 0.57384 0.91607 0.0
C415 C 0.52136 0.57953 0.88518 0.0
C416 C 0.53013 0.59639 0.85962 0.0
H417 H 0.52634 0.67965 0.83866 0.0
H418 H 0.51412 0.64778 0.83122 0.0
H419 H 0.52917 0.65459 0.872 0.0
H420 H 0.581 0.61118 0.89957 0.0
H421 H 0.56584 0.58165 0.94429 0.0
H422 H 0.86344 0.20084 0.22689 0.0
H423 H 0.88079 0.17516 0.27456 0.0
H424 H 0.94485 0.17468 0.21926 0.0
H425 H 0.92792 0.20124 0.17215 0.0
H426 H 0.89949 0.12588 0.26892 0.0
H427 H 0.96448 0.19653 0.31874 0.0
H428 H 0.94119 0.20614 0.28994 0.0
H429 H 0.96597 0.19028 0.27199 0.0
C430 C 0.88135 0.19576 0.22519 0.0
C431 C 0.8943 0.2032 0.19571 0.0
C432 C 0.89119 0.1809 0.25234 0.0
C433 C 0.91418 0.17329 0.25069 0.0
C434 C 0.9272 0.18076 0.22143 0.0
H435 H 1.0009 0.07202 0.37814 0.0
H436 H 0.98472 0.10077 0.3327 0.0
C437 C 0.9174 0.19567 0.19429 0.0
C438 C 0.92417 0.15643 0.27872 0.0
H439 H 0.96711 0.15293 0.34046 0.0
C440 C 0.91419 0.13186 0.28472 0.0
C441 C 0.94341 0.16424 0.29918 0.0
C442 C 0.95429 0.19083 0.29494 0.0
C443 C 0.92311 0.11471 0.31028 0.0
C444 C 0.94234 0.1225 0.3307 0.0
C445 C 0.95238 0.14703 0.32469 0.0
C446 C 0.95219 0.10547 0.35858 0.0
C447 C 0.91217 0.08816 0.31474 0.0
C448 C 0.93935 0.09892 0.38841 0.0
C449 C 0.94852 0.08252 0.41444 0.0
C450 C 0.97076 0.0724 0.41119 0.0
C451 C 0.9837 0.07935 0.38146 0.0
C452 C 0.97451 0.09582 0.35547 0.0
H453 H 0.90126 0.08276 0.29158 0.0
H454 H 0.92534 0.07273 0.31852 0.0
H455 H 0.90124 0.08852 0.33858 0.0
H456 H 0.92223 0.10655 0.39158 0.0
H457 H 0.9381 0.07772 0.43703 0.0
H458 H 0.45454 0.31602 0.66107 0.0
H459 H 0.46691 0.33733 0.71624 0.0
H460 H 0.39809 0.36412 0.73389 0.0
H461 H 0.3856 0.34294 0.67879 0.0
H462 H 0.46459 0.38996 0.73041 0.0
H463 H 0.41591 0.33448 0.83036 0.0
H464 H 0.41963 0.3228 0.78555 0.0
H465 H 0.39834 0.34715 0.79518 0.0
C466 C 0.44201 0.32631 0.67683 0.0
C467 C 0.41908 0.32781 0.66554 0.0
C468 C 0.44909 0.33837 0.7084 0.0
C469 C 0.43338 0.35203 0.72939 0.0
C470 C 0.4104 0.35315 0.71855 0.0
H471 H 0.4602 0.47892 0.87563 0.0
H472 H 0.44872 0.45063 0.82621 0.0
C473 C 0.40329 0.34105 0.68702 0.0
C474 C 0.44134 0.36681 0.76109 0.0
H475 H 0.43278 0.37482 0.84985 0.0
C476 C 0.45777 0.38651 0.75658 0.0
C477 C 0.4326 0.36209 0.79527 0.0
C478 C 0.41581 0.34031 0.80205 0.0
C479 C 0.46525 0.4021 0.78512 0.0
C480 C 0.45575 0.39818 0.81896 0.0
C481 C 0.43982 0.37798 0.82376 0.0
C482 C 0.46203 0.41507 0.84957 0.0
C483 C 0.48336 0.42255 0.77882 0.0
C484 C 0.47272 0.4043 0.87955 0.0
C485 C 0.47924 0.42041 0.908 0.0
C486 C 0.47505 0.44757 0.90704 0.0
C487 C 0.46385 0.45814 0.87722 0.0
C488 C 0.45736 0.44203 0.84883 0.0
H489 H 0.49308 0.41841 0.7543 0.0
H490 H 0.47509 0.44199 0.77583 0.0
H491 H 0.49555 0.42369 0.8015 0.0
H492 H 0.47635 0.3835 0.88068 0.0
H493 H 0.48774 0.41158 0.93058 0.0
H494 H 0.62455 0.66819 0.34451 0.0
H495 H 0.61342 0.64586 0.28944 0.0
H496 H 0.54662 0.68112 0.29476 0.0
H497 H 0.55773 0.70386 0.34961 0.0
H498 H 0.5759 0.61013 0.28393 0.0
H499 H 0.56717 0.6937 0.19098 0.0
H500 H 0.58329 0.69592 0.23196 0.0
H501 H 0.55267 0.69756 0.23244 0.0
C502 C 0.60765 0.67162 0.33358 0.0
C503 C 0.59201 0.68782 0.35137 0.0
C504 C 0.60129 0.65874 0.30224 0.0
C505 C 0.57929 0.66205 0.28792 0.0
C506 C 0.56379 0.67862 0.30515 0.0
H507 H 0.5026 0.56225 0.145 0.0
H508 H 0.51675 0.58922 0.19422 0.0
C509 C 0.57009 0.69139 0.33662 0.0
C510 C 0.57205 0.64672 0.25636 0.0
H511 H 0.55326 0.65236 0.1708 0.0
C512 C 0.57106 0.61933 0.25913 0.0
C513 C 0.56591 0.65882 0.22404 0.0
C514 C 0.56745 0.68811 0.21939 0.0
C515 C 0.56359 0.60371 0.2306 0.0
C516 C 0.55683 0.61585 0.19862 0.0
C517 C 0.55831 0.64319 0.19552 0.0
C518 C 0.548 0.60034 0.16825 0.0
C519 C 0.56304 0.57432 0.23478 0.0
C520 C 0.56074 0.5981 0.13715 0.0
C521 C 0.55276 0.58262 0.10894 0.0
C522 C 0.53177 0.56933 0.11127 0.0
C523 C 0.51885 0.57213 0.14229 0.0
C524 C 0.52692 0.58747 0.17051 0.0
H525 H 0.57312 0.5678 0.25822 0.0
H526 H 0.54511 0.56787 0.23821 0.0
H527 H 0.5698 0.56445 0.21079 0.0
H528 H 0.57703 0.60799 0.13494 0.0
H529 H 0.5631 0.58101 0.08541 0.0
H530 H 0.88219 0.17884 0.82941 0.0
H531 H 0.8946 0.15764 0.7745 0.0
H532 H 0.96494 0.1689 0.80572 0.0
H533 H 0.95276 0.19047 0.86037 0.0
H534 H 0.92573 0.17585 0.71877 0.0
H535 H 0.95697 0.08807 0.79121 0.0
H536 H 0.93767 0.11156 0.8107 0.0
H537 H 0.96754 0.11902 0.80739 0.0
C538 C 0.9003 0.17723 0.82433 0.0
C539 C 0.91649 0.18612 0.84946 0.0
C540 C 0.90735 0.16502 0.79302 0.0
C541 C 0.93065 0.16139 0.78641 0.0
C542 C 0.94686 0.17114 0.8107 0.0
H543 H 0.00904 0.0759 0.63147 0.0
H544 H 0.99582 0.1033 0.68032 0.0
C545 C 0.93986 0.18338 0.84193 0.0
C546 C 0.93809 0.14646 0.75485 0.0
H547 H 0.96467 0.08987 0.73002 0.0
C548 C 0.93419 0.15701 0.72109 0.0
C549 C 0.94907 0.12191 0.75813 0.0
C550 C 0.95294 0.10928 0.79375 0.0
C551 C 0.94151 0.14387 0.69042 0.0
C552 C 0.95257 0.11931 0.69372 0.0
C553 C 0.95628 0.10873 0.72754 0.0
C554 C 0.96058 0.10414 0.66261 0.0
C555 C 0.93788 0.1567 0.6549 0.0
C556 C 0.94514 0.09548 0.63637 0.0
C557 C 0.95266 0.07988 0.60822 0.0
C558 C 0.97573 0.07237 0.60604 0.0
C559 C 0.99115 0.08124 0.6323 0.0
C560 C 0.98364 0.09693 0.66028 0.0
H561 H 0.93502 0.17814 0.65763 0.0
H562 H 0.95275 0.1534 0.6374 0.0
H563 H 0.92256 0.14807 0.64183 0.0
H564 H 0.92717 0.10029 0.63806 0.0
H565 H 0.9403 0.07327 0.5886 0.0
H566 H 0.40355 0.28113 0.28459 0.0
H567 H 0.42142 0.30657 0.23743 0.0
H568 H 0.41225 0.3774 0.29854 0.0
H569 H 0.39455 0.35218 0.34568 0.0
H570 H 0.40381 0.34687 0.1978 0.0
H571 H 0.47938 0.38138 0.27415 0.0
H572 H 0.46123 0.35528 0.28944 0.0
H573 H 0.453 0.38898 0.29563 0.0
C574 C 0.40535 0.30213 0.28792 0.0
C575 C 0.39783 0.31462 0.31899 0.0
C576 C 0.41563 0.31661 0.26105 0.0
C577 C 0.41859 0.34379 0.26479 0.0
C578 C 0.41075 0.35634 0.29552 0.0
H579 H 0.45989 0.47435 0.13842 0.0
H580 H 0.44539 0.44416 0.18288 0.0
C581 C 0.4006 0.3419 0.32242 0.0
C582 C 0.42912 0.35929 0.23614 0.0
H583 H 0.47149 0.40343 0.21962 0.0
C584 C 0.41877 0.359 0.20242 0.0
C585 C 0.44868 0.37504 0.24222 0.0
C586 C 0.46137 0.37503 0.27722 0.0
C587 C 0.42697 0.3748 0.17499 0.0
C588 C 0.44609 0.39111 0.18145 0.0
C589 C 0.45674 0.39099 0.21489 0.0
C590 C 0.45489 0.40909 0.15418 0.0
C591 C 0.4147 0.37464 0.13966 0.0
C592 C 0.46521 0.3993 0.12346 0.0
C593 C 0.4736 0.4165 0.09797 0.0
C594 C 0.47179 0.44381 0.10278 0.0
C595 C 0.4615 0.45347 0.13374 0.0
C596 C 0.45323 0.43626 0.15924 0.0
H597 H 0.39791 0.36455 0.14092 0.0
H598 H 0.41195 0.39497 0.13016 0.0
H599 H 0.42534 0.36426 0.11988 0.0
H600 H 0.46689 0.37837 0.11934 0.0
H601 H 0.48147 0.40838 0.07451 0.0
H602 H 0.06926 0.86466 0.87461 0.0
H603 H 0.05748 0.88475 0.81885 0.0
H604 H 0.09457 0.82582 0.76082 0.0
H605 H 0.10618 0.80518 0.81663 0.0
H606 H 0.10311 0.87811 0.73912 0.0
H607 H 0.01035 0.85708 0.74572 0.0
H608 H 0.02181 0.87225 0.7851 0.0
H609 H 0.03126 0.84002 0.7725 0.0
C610 C 0.0746 0.85563 0.85003 0.0
C611 C 0.08854 0.83316 0.85014 0.0
C612 C 0.06787 0.8672 0.81817 0.0
C613 C 0.07488 0.85654 0.78574 0.0
C614 C 0.08891 0.83425 0.78562 0.0
H615 H 0.01958 0.91229 0.58352 0.0
H616 H 0.03259 0.88408 0.63191 0.0
C617 C 0.09561 0.82258 0.81753 0.0
C618 C 0.06822 0.86942 0.75214 0.0
H619 H 0.02187 0.88914 0.70364 0.0
C620 C 0.08537 0.8803 0.73112 0.0
C621 C 0.04509 0.87194 0.74157 0.0
C622 C 0.02605 0.8595 0.76219 0.0
C623 C 0.07993 0.89458 0.70049 0.0
C624 C 0.05674 0.89829 0.69097 0.0
C625 C 0.03964 0.88649 0.7112 0.0
C626 C 0.04978 0.91512 0.66089 0.0
C627 C 0.09905 0.90565 0.67866 0.0
C628 C 0.05503 0.94195 0.6613 0.0
C629 C 0.04762 0.95814 0.63378 0.0
C630 C 0.0347 0.94784 0.60532 0.0
C631 C 0.02954 0.92089 0.60494 0.0
C632 C 0.03694 0.90471 0.63257 0.0
H633 H 0.11537 0.89508 0.68353 0.0
H634 H 0.09486 0.90463 0.64994 0.0
H635 H 0.10169 0.92654 0.68599 0.0
H636 H 0.06452 0.95048 0.68328 0.0
H637 H 0.05183 0.9788 0.63504 0.0
loop_
_geom_bond_atom_site_label_1
_geom_bond_atom_site_label_2
_geom_bond_distance
_geom_bond_site_symmetry_2
_ccdc_geom_bond_type
C0 C1 1.264 . S
C0 C5 1.479 . S
C0 C10 1.465 . S
C1 C0 1.264 . S
C1 C3 1.339 . S
C1 H28 0.931 . S
C2 C3 1.395 . S
C2 C4 1.320 . S
C3 C1 1.339 . S
C3 C2 1.395 . S
C3 H29 0.929 . S
C4 C2 1.320 . S
C4 C5 1.405 . S
C4 H30 0.930 . S
C5 C0 1.479 . S
C5 C4 1.405 . S
C5 H31 0.931 . S
U6 O7 2.454 . S
U6 O8 2.458 1_554 S
U6 C9 2.984 . S
U6 C10 2.847 . S
U6 C23 2.882 1_554 S
U6 O24 2.441 . S
U6 O25 2.420 . S
U6 O26 2.455 1_554 S
U6 O27 2.449 1_554 S
O7 U6 2.454 . S
O7 C9 1.353 . S
O8 U6 2.458 1_556 S
O8 C9 1.286 1_556 S
C9 U6 2.984 . S
C9 O7 1.353 . S
C9 O8 1.286 1_554 S
C9 C11 1.363 . S
C10 C0 1.465 . S
C10 U6 2.847 . S
C10 O24 1.249 . S
C10 O25 1.202 . S
C11 C9 1.363 . S
C11 C13 1.408 . S
C11 C16 1.342 1_554 S
C12 C13 1.310 . S
C12 C15 1.461 . S
C12 H32 0.932 . S
C13 C11 1.408 . S
C13 C12 1.310 . S
C13 H33 0.930 . S
C14 C15 1.474 1_556 S
C14 C16 1.285 . S
C14 H34 0.929 . S
C15 C12 1.461 . S
C15 C14 1.474 1_554 S
C16 C11 1.342 1_556 S
C16 C14 1.285 . S
C16 H35 0.930 . S
C17 C20 1.424 . S
C17 C22 1.245 . S
C17 C23 1.428 . S
C18 C21 1.260 . S
C18 C22 1.477 . S
C18 H36 0.932 . S
C19 C20 1.384 . S
C19 C21 1.479 . S
C19 H37 0.929 . S
C20 C17 1.424 . S
C20 C19 1.384 . S
C20 H38 0.928 . S
C21 C18 1.260 . S
C21 C19 1.479 . S
C22 C17 1.245 . S
C22 C18 1.477 . S
C22 H39 0.932 . S
C23 U6 2.882 1_556 S
C23 C17 1.428 . S
C23 O26 1.301 . S
C23 O27 1.282 . S
O24 U6 2.441 . S
O24 C10 1.249 . S
O25 U6 2.420 . S
O25 C10 1.202 . S
O26 U6 2.455 1_556 S
O26 C23 1.301 . S
O27 U6 2.449 1_556 S
O27 C23 1.282 . S
H28 C1 0.931 . S
H29 C3 0.929 . S
H30 C4 0.930 . S
H31 C5 0.931 . S
H32 C12 0.932 . S
H33 C13 0.930 . S
H34 C14 0.929 . S
H35 C16 0.930 . S
H36 C18 0.932 . S
H37 C19 0.929 . S
H38 C20 0.928 . S
H39 C22 0.932 . S
C40 C41 1.264 . S
C40 C45 1.479 . S
C40 C50 1.465 . S
C41 C40 1.264 . S
C41 C43 1.339 . S
C41 H68 0.931 . S
C42 C43 1.395 . S
C42 C44 1.320 . S
C43 C41 1.339 . S
C43 C42 1.395 . S
C43 H69 0.929 . S
C44 C42 1.320 . S
C44 C45 1.405 . S
C44 H70 0.930 . S
C45 C40 1.479 . S
C45 C44 1.405 . S
C45 H71 0.931 . S
U46 O47 2.454 . S
U46 O48 2.458 . S
U46 C49 2.984 . S
U46 C50 2.847 . S
U46 C63 2.882 . S
U46 O64 2.441 . S
U46 O65 2.420 . S
U46 O66 2.455 . S
U46 O67 2.449 . S
O47 U46 2.454 . S
O47 C49 1.353 . S
O48 U46 2.458 . S
O48 C49 1.286 . S
C49 U46 2.984 . S
C49 O47 1.353 . S
C49 O48 1.286 . S
C49 C51 1.363 . S
C50 C40 1.465 . S
C50 U46 2.847 . S
C50 O64 1.249 . S
C50 O65 1.202 . S
C51 C49 1.363 . S
C51 C53 1.408 . S
C51 C56 1.342 . S
C52 C53 1.310 . S
C52 C55 1.461 . S
C52 H72 0.932 . S
C53 C51 1.408 . S
C53 C52 1.310 . S
C53 H73 0.930 . S
C54 C55 1.474 . S
C54 C56 1.285 . S
C54 H74 0.929 . S
C55 C52 1.461 . S
C55 C54 1.474 . S
C56 C51 1.342 . S
C56 C54 1.285 . S
C56 H75 0.930 . S
C57 C60 1.424 . S
C57 C62 1.245 . S
C57 C63 1.428 . S
C58 C61 1.260 . S
C58 C62 1.477 . S
C58 H76 0.932 . S
C59 C60 1.384 . S
C59 C61 1.479 . S
C59 H77 0.929 . S
C60 C57 1.424 . S
C60 C59 1.384 . S
C60 H78 0.928 . S
C61 C58 1.260 . S
C61 C59 1.479 . S
C62 C57 1.245 . S
C62 C58 1.477 . S
C62 H79 0.932 . S
C63 U46 2.882 . S
C63 C57 1.428 . S
C63 O66 1.301 . S
C63 O67 1.282 . S
O64 U46 2.441 . S
O64 C50 1.249 . S
O65 U46 2.420 . S
O65 C50 1.202 . S
O66 U46 2.455 . S
O66 C63 1.301 . S
O67 U46 2.449 . S
O67 C63 1.282 . S
H68 C41 0.931 . S
H69 C43 0.929 . S
H70 C44 0.930 . S
H71 C45 0.931 . S
H72 C52 0.932 . S
H73 C53 0.930 . S
H74 C54 0.929 . S
H75 C56 0.930 . S
H76 C58 0.932 . S
H77 C59 0.929 . S
H78 C60 0.928 . S
H79 C62 0.932 . S
C80 C81 1.264 . S
C80 C85 1.479 . S
C80 C90 1.465 . S
C81 C80 1.264 . S
C81 C83 1.339 . S
C81 H108 0.931 . S
C82 C83 1.395 . S
C82 C84 1.320 . S
C83 C81 1.339 . S
C83 C82 1.395 . S
C83 H109 0.929 . S
C84 C82 1.320 . S
C84 C85 1.405 . S
C84 H110 0.930 . S
C85 C80 1.479 . S
C85 C84 1.405 . S
C85 H111 0.931 . S
U86 O87 2.454 . S
U86 O88 2.458 1_554 S
U86 C89 2.984 . S
U86 C90 2.847 . S
U86 C103 2.882 1_554 S
U86 O104 2.441 . S
U86 O105 2.420 . S
U86 O106 2.455 1_554 S
U86 O107 2.449 1_554 S
O87 U86 2.454 . S
O87 C89 1.353 . S
O88 U86 2.458 1_556 S
O88 C89 1.286 1_556 S
C89 U86 2.984 . S
C89 O87 1.353 . S
C89 O88 1.286 1_554 S
C89 C91 1.363 . S
C90 C80 1.465 . S
C90 U86 2.847 . S
C90 O104 1.249 . S
C90 O105 1.202 . S
C91 C89 1.363 . S
C91 C93 1.408 . S
C91 C96 1.342 1_554 S
C92 C93 1.310 . S
C92 C95 1.461 . S
C92 H112 0.932 . S
C93 C91 1.408 . S
C93 C92 1.310 . S
C93 H113 0.930 . S
C94 C95 1.474 1_556 S
C94 C96 1.285 . S
C94 H114 0.929 . S
C95 C92 1.461 . S
C95 C94 1.474 1_554 S
C96 C91 1.342 1_556 S
C96 C94 1.285 . S
C96 H115 0.930 . S
C97 C100 1.424 . S
C97 C102 1.245 . S
C97 C103 1.428 . S
C98 C101 1.260 . S
C98 C102 1.477 . S
C98 H116 0.932 . S
C99 C100 1.384 . S
C99 C101 1.479 . S
C99 H117 0.929 . S
C100 C97 1.424 . S
C100 C99 1.384 . S
C100 H118 0.928 . S
C101 C98 1.260 . S
C101 C99 1.479 . S
C102 C97 1.245 . S
C102 C98 1.477 . S
C102 H119 0.932 . S
C103 U86 2.882 1_556 S
C103 C97 1.428 . S
C103 O106 1.301 . S
C103 O107 1.282 . S
O104 U86 2.441 . S
O104 C90 1.249 . S
O105 U86 2.420 . S
O105 C90 1.202 . S
O106 U86 2.455 1_556 S
O106 C103 1.301 . S
O107 U86 2.449 1_556 S
O107 C103 1.282 . S
H108 C81 0.931 . S
H109 C83 0.929 . S
H110 C84 0.930 . S
H111 C85 0.931 . S
H112 C92 0.932 . S
H113 C93 0.930 . S
H114 C94 0.929 . S
H115 C96 0.930 . S
H116 C98 0.932 . S
H117 C99 0.929 . S
H118 C100 0.928 . S
H119 C102 0.932 . S
C120 C121 1.264 . S
C120 C125 1.479 . S
C120 C130 1.465 . S
C121 C120 1.264 . S
C121 C123 1.339 . S
C121 H148 0.931 . S
C122 C123 1.395 . S
C122 C124 1.320 . S
C123 C121 1.339 . S
C123 C122 1.395 . S
C123 H149 0.929 . S
C124 C122 1.320 . S
C124 C125 1.405 . S
C124 H150 0.930 . S
C125 C120 1.479 . S
C125 C124 1.405 . S
C125 H151 0.931 . S
U126 O127 2.454 . S
U126 O128 2.458 . S
U126 C129 2.984 . S
U126 C130 2.847 . S
U126 C143 2.882 . S
U126 O144 2.441 . S
U126 O145 2.420 . S
U126 O146 2.455 . S
U126 O147 2.449 . S
O127 U126 2.454 . S
O127 C129 1.353 . S
O128 U126 2.458 . S
O128 C129 1.286 . S
C129 U126 2.984 . S
C129 O127 1.353 . S
C129 O128 1.286 . S
C129 C131 1.363 . S
C130 C120 1.465 . S
C130 U126 2.847 . S
C130 O144 1.249 . S
C130 O145 1.202 . S
C131 C129 1.363 . S
C131 C133 1.408 . S
C131 C136 1.342 . S
C132 C133 1.310 . S
C132 C135 1.461 . S
C132 H152 0.932 . S
C133 C131 1.408 . S
C133 C132 1.310 . S
C133 H153 0.930 . S
C134 C135 1.474 . S
C134 C136 1.285 . S
C134 H154 0.929 . S
C135 C132 1.461 . S
C135 C134 1.474 . S
C136 C131 1.342 . S
C136 C134 1.285 . S
C136 H155 0.930 . S
C137 C140 1.424 . S
C137 C142 1.245 . S
C137 C143 1.428 . S
C138 C141 1.260 . S
C138 C142 1.477 . S
C138 H156 0.932 . S
C139 C140 1.384 . S
C139 C141 1.479 . S
C139 H157 0.929 . S
C140 C137 1.424 . S
C140 C139 1.384 . S
C140 H158 0.928 . S
C141 C138 1.260 . S
C141 C139 1.479 . S
C142 C137 1.245 . S
C142 C138 1.477 . S
C142 H159 0.932 . S
C143 U126 2.882 . S
C143 C137 1.428 . S
C143 O146 1.301 . S
C143 O147 1.282 . S
O144 U126 2.441 . S
O144 C130 1.249 . S
O145 U126 2.420 . S
O145 C130 1.202 . S
O146 U126 2.455 . S
O146 C143 1.301 . S
O147 U126 2.449 . S
O147 C143 1.282 . S
H148 C121 0.931 . S
H149 C123 0.929 . S
H150 C124 0.930 . S
H151 C125 0.931 . S
H152 C132 0.932 . S
H153 C133 0.930 . S
H154 C134 0.929 . S
H155 C136 0.930 . S
H156 C138 0.932 . S
H157 C139 0.929 . S
H158 C140 0.928 . S
H159 C142 0.932 . S
O160 Zn161 1.948 1_565 S
O160 C176 1.233 . S
Zn161 O160 1.948 1_545 S
Zn161 O162 1.949 1_655 S
Zn161 O168 1.919 . S
Zn161 O173 1.924 . S
O162 Zn161 1.949 1_455 S
O162 Zn163 1.923 . S
O162 Zn164 1.950 1_445 S
O162 Zn165 1.945 . S
Zn163 O162 1.923 . S
Zn163 O166 1.933 . S
Zn163 O169 1.941 . S
Zn163 O170 1.965 1_545 S
Zn164 O162 1.950 1_665 S
Zn164 O171 1.938 1_655 S
Zn164 O172 1.906 1_655 S
Zn164 O182 1.953 . S
Zn165 O162 1.945 . S
Zn165 O167 1.932 . S
Zn165 O174 1.977 1_545 S
Zn165 O175 1.910 1_455 S
O166 Zn163 1.933 . S
O166 C177 1.226 . S
O167 Zn165 1.932 . S
O167 C177 1.307 . S
O168 Zn161 1.919 . S
O168 C179 1.253 . S
O169 Zn163 1.941 . S
O169 C179 1.283 1_455 S
O170 Zn163 1.965 1_565 S
O170 C178 1.303 . S
O171 Zn164 1.938 1_455 S
O171 C178 1.247 . S
O172 Zn164 1.906 1_455 S
O172 C180 1.304 . S
O173 Zn161 1.924 . S
O173 C181 1.311 . S
O174 Zn165 1.977 1_565 S
O174 C180 1.272 . S
O175 Zn165 1.910 1_655 S
O175 C181 1.231 . S
C176 O160 1.233 . S
C176 O182 1.298 . S
C177 O166 1.226 . S
C177 O167 1.307 . S
C178 O170 1.303 . S
C178 O171 1.247 . S
C179 O168 1.253 . S
C179 O169 1.283 1_655 S
C180 O172 1.304 . S
C180 O174 1.272 . S
C181 O173 1.311 . S
C181 O175 1.231 . S
O182 Zn164 1.953 . S
O182 C176 1.298 . S
O183 Zn184 1.954 . S
O183 C199 1.225 1_556 S
Zn184 O183 1.954 . S
Zn184 O185 1.946 1_556 S
Zn184 O191 1.934 . S
Zn184 O196 1.909 1_556 S
O185 Zn184 1.946 1_554 S
O185 Zn186 1.923 1_554 S
O185 Zn187 1.950 . S
O185 Zn188 1.945 . S
Zn186 O185 1.923 1_556 S
Zn186 O189 1.933 . S
Zn186 O192 1.941 . S
Zn186 O193 1.965 . S
Zn187 O185 1.950 . S
Zn187 O194 1.938 1_554 S
Zn187 O195 1.906 . S
Zn187 O205 1.953 . S
Zn188 O185 1.945 . S
Zn188 O190 1.932 . S
Zn188 O197 1.977 . S
Zn188 O198 1.910 . S
O189 Zn186 1.933 . S
O189 C200 1.226 1_556 S
O190 Zn188 1.932 . S
O190 C200 1.307 . S
O191 Zn184 1.934 . S
O191 C202 1.253 . S
O192 Zn186 1.941 . S
O192 C202 1.283 . S
O193 Zn186 1.965 . S
O193 C201 1.303 . S
O194 Zn187 1.938 1_556 S
O194 C201 1.247 . S
O195 Zn187 1.906 . S
O195 C203 1.304 . S
O196 Zn184 1.909 1_554 S
O196 C204 1.311 . S
O197 Zn188 1.977 . S
O197 C203 1.272 . S
O198 Zn188 1.910 . S
O198 C204 1.231 . S
C199 O183 1.225 1_554 S
C199 O205 1.298 . S
C200 O189 1.226 1_554 S
C200 O190 1.307 . S
C201 O193 1.303 . S
C201 O194 1.247 . S
C202 O191 1.253 . S
C202 O192 1.283 . S
C203 O195 1.304 . S
C203 O197 1.272 . S
C204 O196 1.311 . S
C204 O198 1.231 . S
O205 Zn187 1.953 . S
O205 C199 1.298 . S
H206 C214 0.929 . S
H207 C216 0.930 . S
H208 C218 0.930 . S
H209 C221 0.929 . S
H210 C224 0.930 . S
H211 C226 0.960 . S
H212 C226 0.960 . S
H213 C226 0.960 . S
C214 H206 0.929 . S
C214 C215 1.377 . S
C214 C216 1.384 . S
C215 C214 1.377 . S
C215 C221 1.390 . S
C216 H207 0.930 . S
C216 C214 1.384 . S
C216 C217 1.372 . S
C217 C216 1.372 . S
C217 C218 1.400 . S
C217 C222 1.490 . S
C218 H208 0.930 . S
C218 C217 1.400 . S
C218 C221 1.386 . S
H219 C235 0.930 . S
H220 C236 0.931 . S
C221 H209 0.929 . S
C221 C215 1.390 . S
C221 C218 1.386 . S
C222 C217 1.490 . S
C222 C224 1.395 . S
C222 C225 1.403 . S
H223 C229 0.930 . S
C224 H210 0.930 . S
C224 C222 1.395 . S
C224 C227 1.403 . S
C225 C222 1.403 . S
C225 C226 1.524 . S
C225 C229 1.400 . S
C226 H211 0.960 . S
C226 H212 0.960 . S
C226 H213 0.960 . S
C226 C225 1.524 . S
C227 C224 1.403 . S
C227 C228 1.392 . S
C227 C231 1.495 . S
C228 C227 1.392 . S
C228 C229 1.385 . S
C228 C230 1.478 . S
C229 H223 0.930 . S
C229 C225 1.400 . S
C229 C228 1.385 . S
C230 C228 1.478 . S
C230 C232 1.381 . S
C230 C236 1.383 . S
C231 C227 1.495 . S
C231 H237 0.959 . S
C231 H238 0.961 . S
C231 H239 0.960 . S
C232 C230 1.381 . S
C232 C233 1.394 . S
C232 H240 0.930 . S
C233 C232 1.394 . S
C233 C234 1.383 . S
C233 H241 0.929 . S
C234 C233 1.383 . S
C234 C235 1.377 . S
C235 H219 0.930 . S
C235 C234 1.377 . S
C235 C236 1.379 . S
C236 H220 0.931 . S
C236 C230 1.383 . S
C236 C235 1.379 . S
H237 C231 0.959 . S
H238 C231 0.961 . S
H239 C231 0.960 . S
H240 C232 0.930 . S
H241 C233 0.929 . S
H242 C250 0.929 . S
H243 C252 0.930 . S
H244 C254 0.930 . S
H245 C257 0.929 . S
H246 C260 0.930 . S
H247 C262 0.960 . S
H248 C262 0.960 . S
H249 C262 0.960 . S
C250 H242 0.929 . S
C250 C251 1.377 . S
C250 C252 1.384 . S
C251 C250 1.377 . S
C251 C257 1.390 1_554 S
C252 H243 0.930 . S
C252 C250 1.384 . S
C252 C253 1.372 . S
C253 C252 1.372 . S
C253 C254 1.400 1_554 S
C253 C258 1.490 . S
C254 H244 0.930 . S
C254 C253 1.400 1_556 S
C254 C257 1.386 . S
H255 C271 0.930 . S
H256 C272 0.931 . S
C257 H245 0.929 . S
C257 C251 1.390 1_556 S
C257 C254 1.386 . S
C258 C253 1.490 . S
C258 C260 1.395 1_554 S
C258 C261 1.403 . S
H259 C265 0.930 . S
C260 H246 0.930 . S
C260 C258 1.395 1_556 S
C260 C263 1.403 . S
C261 C258 1.403 . S
C261 C262 1.524 . S
C261 C265 1.400 . S
C262 H247 0.960 . S
C262 H248 0.960 . S
C262 H249 0.960 . S
C262 C261 1.524 . S
C263 C260 1.403 . S
C263 C264 1.392 1_556 S
C263 C267 1.495 . S
C264 C263 1.392 1_554 S
C264 C265 1.385 . S
C264 C266 1.478 . S
C265 H259 0.930 . S
C265 C261 1.400 . S
C265 C264 1.385 . S
C266 C264 1.478 . S
C266 C268 1.381 . S
C266 C272 1.383 1_554 S
C267 C263 1.495 . S
C267 H273 0.959 . S
C267 H274 0.961 . S
C267 H275 0.945 1_556 S
C268 C266 1.381 . S
C268 C269 1.394 . S
C268 H276 0.930 . S
C269 C268 1.394 . S
C269 C270 1.383 . S
C269 H277 0.929 . S
C270 C269 1.383 . S
C270 C271 1.377 1_554 S
C271 H255 0.930 . S
C271 C270 1.377 1_556 S
C271 C272 1.379 . S
C272 H256 0.931 . S
C272 C266 1.383 1_556 S
C272 C271 1.379 . S
H273 C267 0.959 . S
H274 C267 0.961 . S
H275 C267 0.945 1_554 S
H276 C268 0.930 . S
H277 C269 0.929 . S
H278 C286 0.929 . S
H279 C288 0.930 . S
H280 C290 0.930 . S
H281 C293 0.929 . S
H282 C296 0.930 . S
H283 C298 0.960 . S
H284 C298 0.960 . S
H285 C298 0.960 . S
C286 H278 0.929 . S
C286 C287 1.377 . S
C286 C288 1.384 . S
C287 C286 1.377 . S
C287 C293 1.390 . S
C288 H279 0.930 . S
C288 C286 1.384 . S
C288 C289 1.372 . S
C289 C288 1.372 . S
C289 C290 1.400 . S
C289 C294 1.490 . S
C290 H280 0.930 . S
C290 C289 1.400 . S
C290 C293 1.386 . S
H291 C307 0.930 . S
H292 C308 0.931 . S
C293 H281 0.929 . S
C293 C287 1.390 . S
C293 C290 1.386 . S
C294 C289 1.490 . S
C294 C296 1.395 . S
C294 C297 1.403 . S
H295 C301 0.930 . S
C296 H282 0.930 . S
C296 C294 1.395 . S
C296 C299 1.403 . S
C297 C294 1.403 . S
C297 C298 1.524 . S
C297 C301 1.400 . S
C298 H283 0.960 . S
C298 H284 0.960 . S
C298 H285 0.960 . S
C298 C297 1.524 . S
C299 C296 1.403 . S
C299 C300 1.392 . S
C299 C303 1.495 . S
C300 C299 1.392 . S
C300 C301 1.385 . S
C300 C302 1.478 . S
C301 H295 0.930 . S
C301 C297 1.400 . S
C301 C300 1.385 . S
C302 C300 1.478 . S
C302 C304 1.381 . S
C302 C308 1.383 . S
C303 C299 1.495 . S
C303 H309 0.959 . S
C303 H310 0.961 . S
C303 H311 0.960 . S
C304 C302 1.381 . S
C304 C305 1.394 . S
C304 H312 0.930 . S
C305 C304 1.394 . S
C305 C306 1.383 . S
C305 H313 0.929 . S
C306 C305 1.383 . S
C306 C307 1.377 . S
C307 H291 0.930 . S
C307 C306 1.377 . S
C307 C308 1.379 . S
C308 H292 0.931 . S
C308 C302 1.383 . S
C308 C307 1.379 . S
H309 C303 0.959 . S
H310 C303 0.961 . S
H311 C303 0.960 . S
H312 C304 0.930 . S
H313 C305 0.929 . S
H314 C322 0.929 . S
H315 C324 0.930 . S
H316 C326 0.930 . S
H317 C329 0.929 . S
H318 C332 0.930 . S
H319 C334 0.960 . S
H320 C334 0.960 . S
H321 C334 0.960 . S
C322 H314 0.929 . S
C322 C323 1.377 . S
C322 C324 1.384 . S
C323 C322 1.377 . S
C323 C329 1.390 1_554 S
C324 H315 0.930 . S
C324 C322 1.384 . S
C324 C325 1.372 . S
C325 C324 1.372 . S
C325 C326 1.400 1_554 S
C325 C330 1.490 . S
C326 H316 0.930 . S
C326 C325 1.400 1_556 S
C326 C329 1.386 . S
H327 C343 0.930 . S
H328 C344 0.931 . S
C329 H317 0.929 . S
C329 C323 1.390 1_556 S
C329 C326 1.386 . S
C330 C325 1.490 . S
C330 C332 1.395 . S
C330 C333 1.403 1_554 S
H331 C337 0.930 . S
C332 H318 0.930 . S
C332 C330 1.395 . S
C332 C335 1.403 . S
C333 C330 1.403 1_556 S
C333 C334 1.524 . S
C333 C337 1.400 . S
C334 H319 0.960 . S
C334 H320 0.960 . S
C334 H321 0.960 . S
C334 C333 1.524 . S
C335 C332 1.403 . S
C335 C336 1.392 . S
C335 C339 1.495 . S
C336 C335 1.392 . S
C336 C337 1.385 1_554 S
C336 C338 1.478 . S
C337 H331 0.930 . S
C337 C333 1.400 . S
C337 C336 1.385 1_556 S
C338 C336 1.478 . S
C338 C340 1.381 . S
C338 C344 1.383 1_554 S
C339 C335 1.495 . S
C339 H345 0.959 . S
C339 H346 0.961 . S
C339 H347 0.960 . S
C340 C338 1.381 . S
C340 C341 1.394 . S
C340 H348 0.930 . S
C341 C340 1.394 . S
C341 C342 1.383 . S
C341 H349 0.929 . S
C342 C341 1.383 . S
C342 C343 1.377 1_554 S
C343 H327 0.930 . S
C343 C342 1.377 1_556 S
C343 C344 1.379 . S
C344 H328 0.931 . S
C344 C338 1.383 1_556 S
C344 C343 1.379 . S
H345 C339 0.959 . S
H346 C339 0.961 . S
H347 C339 0.960 . S
H348 C340 0.930 . S
H349 C341 0.929 . S
H350 C358 0.929 . S
H351 C360 0.930 . S
H352 C362 0.930 . S
H353 C365 0.929 . S
H354 C368 0.930 . S
H355 C370 0.960 . S
H356 C370 0.960 . S
H357 C370 0.960 . S
C358 H350 0.929 . S
C358 C359 1.377 . S
C358 C360 1.384 . S
C359 C358 1.377 . S
C359 C365 1.390 . S
C360 H351 0.930 . S
C360 C358 1.384 . S
C360 C361 1.372 . S
C361 C360 1.372 . S
C361 C362 1.400 . S
C361 C366 1.490 . S
C362 H352 0.930 . S
C362 C361 1.400 . S
C362 C365 1.386 . S
H363 C379 0.930 . S
H364 C380 0.931 . S
C365 H353 0.929 . S
C365 C359 1.390 . S
C365 C362 1.386 . S
C366 C361 1.490 . S
C366 C368 1.395 . S
C366 C369 1.403 . S
H367 C373 0.930 . S
C368 H354 0.930 . S
C368 C366 1.395 . S
C368 C371 1.403 . S
C369 C366 1.403 . S
C369 C370 1.524 . S
C369 C373 1.400 . S
C370 H355 0.960 . S
C370 H356 0.960 . S
C370 H357 0.960 . S
C370 C369 1.524 . S
C371 C368 1.403 . S
C371 C372 1.392 . S
C371 C375 1.495 . S
C372 C371 1.392 . S
C372 C373 1.385 . S
C372 C374 1.478 . S
C373 H367 0.930 . S
C373 C369 1.400 . S
C373 C372 1.385 . S
C374 C372 1.478 . S
C374 C376 1.381 . S
C374 C380 1.383 . S
C375 C371 1.495 . S
C375 H381 0.959 1_455 S
C375 H382 0.946 1_455 S
C375 H383 0.960 . S
C376 C374 1.381 . S
C376 C377 1.394 . S
C376 H384 0.930 . S
C377 C376 1.394 . S
C377 C378 1.383 . S
C377 H385 0.929 . S
C378 C377 1.383 . S
C378 C379 1.377 . S
C379 H363 0.930 . S
C379 C378 1.377 . S
C379 C380 1.379 . S
C380 H364 0.931 . S
C380 C374 1.383 . S
C380 C379 1.379 . S
H381 C375 0.959 1_655 S
H382 C375 0.946 1_655 S
H383 C375 0.960 . S
H384 C376 0.930 . S
H385 C377 0.929 . S
H386 C394 0.929 . S
H387 C396 0.930 . S
H388 C398 0.930 . S
H389 C401 0.929 . S
H390 C404 0.930 . S
H391 C406 0.960 . S
H392 C406 0.960 . S
H393 C406 0.960 . S
C394 H386 0.929 . S
C394 C395 1.377 . S
C394 C396 1.384 . S
C395 C394 1.377 . S
C395 C401 1.390 . S
C396 H387 0.930 . S
C396 C394 1.384 . S
C396 C397 1.372 . S
C397 C396 1.372 . S
C397 C398 1.400 . S
C397 C402 1.490 . S
C398 H388 0.930 . S
C398 C397 1.400 . S
C398 C401 1.386 . S
H399 C415 0.930 . S
H400 C416 0.931 . S
C401 H389 0.929 . S
C401 C395 1.390 . S
C401 C398 1.386 . S
C402 C397 1.490 . S
C402 C404 1.395 . S
C402 C405 1.403 . S
H403 C409 0.930 . S
C404 H390 0.930 . S
C404 C402 1.395 . S
C404 C407 1.403 . S
C405 C402 1.403 . S
C405 C406 1.524 . S
C405 C409 1.400 . S
C406 H391 0.960 . S
C406 H392 0.960 . S
C406 H393 0.960 . S
C406 C405 1.524 . S
C407 C404 1.403 . S
C407 C408 1.392 . S
C407 C411 1.495 . S
C408 C407 1.392 . S
C408 C409 1.385 . S
C408 C410 1.478 . S
C409 H403 0.930 . S
C409 C405 1.400 . S
C409 C408 1.385 . S
C410 C408 1.478 . S
C410 C412 1.381 . S
C410 C416 1.383 . S
C411 C407 1.495 . S
C411 H417 0.959 . S
C411 H418 0.961 . S
C411 H419 0.960 . S
C412 C410 1.381 . S
C412 C413 1.394 . S
C412 H420 0.930 . S
C413 C412 1.394 . S
C413 C414 1.383 . S
C413 H421 0.929 . S
C414 C413 1.383 . S
C414 C415 1.377 . S
C415 H399 0.930 . S
C415 C414 1.377 . S
C415 C416 1.379 . S
C416 H400 0.931 . S
C416 C410 1.383 . S
C416 C415 1.379 . S
H417 C411 0.959 . S
H418 C411 0.961 . S
H419 C411 0.960 . S
H420 C412 0.930 . S
H421 C413 0.929 . S
H422 C430 0.929 . S
H423 C432 0.930 . S
H424 C434 0.930 . S
H425 C437 0.929 . S
H426 C440 0.930 . S
H427 C442 0.961 1_455 S
H428 C442 0.960 . S
H429 C442 0.960 . S
C430 H422 0.929 . S
C430 C431 1.377 . S
C430 C432 1.384 . S
C431 C430 1.377 . S
C431 C437 1.390 . S
C432 H423 0.930 . S
C432 C430 1.384 . S
C432 C433 1.372 . S
C433 C432 1.372 . S
C433 C434 1.400 . S
C433 C438 1.490 . S
C434 H424 0.930 . S
C434 C433 1.400 . S
C434 C437 1.386 . S
H435 C451 0.930 . S
H436 C452 0.931 . S
C437 H425 0.929 . S
C437 C431 1.390 . S
C437 C434 1.386 . S
C438 C433 1.490 . S
C438 C440 1.395 . S
C438 C441 1.403 . S
H439 C445 0.930 . S
C440 H426 0.930 . S
C440 C438 1.395 . S
C440 C443 1.403 . S
C441 C438 1.403 . S
C441 C442 1.524 . S
C441 C445 1.400 . S
C442 H427 0.961 1_655 S
C442 H428 0.960 . S
C442 H429 0.960 . S
C442 C441 1.524 . S
C443 C440 1.403 . S
C443 C444 1.392 . S
C443 C447 1.495 . S
C444 C443 1.392 . S
C444 C445 1.385 . S
C444 C446 1.478 . S
C445 H439 0.930 . S
C445 C441 1.400 . S
C445 C444 1.385 . S
C446 C444 1.478 . S
C446 C448 1.381 . S
C446 C452 1.383 . S
C447 C443 1.495 . S
C447 H453 0.959 . S
C447 H454 0.961 . S
C447 H455 0.960 . S
C448 C446 1.381 . S
C448 C449 1.394 . S
C448 H456 0.930 . S
C449 C448 1.394 . S
C449 C450 1.383 . S
C449 H457 0.929 . S
C450 C449 1.383 . S
C450 C451 1.377 . S
C451 H435 0.930 . S
C451 C450 1.377 . S
C451 C452 1.379 . S
C452 H436 0.931 . S
C452 C446 1.383 . S
C452 C451 1.379 . S
H453 C447 0.959 . S
H454 C447 0.961 . S
H455 C447 0.960 . S
H456 C448 0.930 . S
H457 C449 0.929 . S
H458 C466 0.929 . S
H459 C468 0.930 . S
H460 C470 0.930 . S
H461 C473 0.929 . S
H462 C476 0.930 . S
H463 C478 0.960 . S
H464 C478 0.960 . S
H465 C478 0.960 . S
C466 H458 0.929 . S
C466 C467 1.377 . S
C466 C468 1.384 . S
C467 C466 1.377 . S
C467 C473 1.390 . S
C468 H459 0.930 . S
C468 C466 1.384 . S
C468 C469 1.372 . S
C469 C468 1.372 . S
C469 C470 1.400 . S
C469 C474 1.490 . S
C470 H460 0.930 . S
C470 C469 1.400 . S
C470 C473 1.386 . S
H471 C487 0.930 . S
H472 C488 0.931 . S
C473 H461 0.929 . S
C473 C467 1.390 . S
C473 C470 1.386 . S
C474 C469 1.490 . S
C474 C476 1.395 . S
C474 C477 1.403 . S
H475 C481 0.930 . S
C476 H462 0.930 . S
C476 C474 1.395 . S
C476 C479 1.403 . S
C477 C474 1.403 . S
C477 C478 1.524 . S
C477 C481 1.400 . S
C478 H463 0.960 . S
C478 H464 0.960 . S
C478 H465 0.960 . S
C478 C477 1.524 . S
C479 C476 1.403 . S
C479 C480 1.392 . S
C479 C483 1.495 . S
C480 C479 1.392 . S
C480 C481 1.385 . S
C480 C482 1.478 . S
C481 H475 0.930 . S
C481 C477 1.400 . S
C481 C480 1.385 . S
C482 C480 1.478 . S
C482 C484 1.381 . S
C482 C488 1.383 . S
C483 C479 1.495 . S
C483 H489 0.959 . S
C483 H490 0.961 . S
C483 H491 0.960 . S
C484 C482 1.381 . S
C484 C485 1.394 . S
C484 H492 0.930 . S
C485 C484 1.394 . S
C485 C486 1.383 . S
C485 H493 0.929 . S
C486 C485 1.383 . S
C486 C487 1.377 . S
C487 H471 0.930 . S
C487 C486 1.377 . S
C487 C488 1.379 . S
C488 H472 0.931 . S
C488 C482 1.383 . S
C488 C487 1.379 . S
H489 C483 0.959 . S
H490 C483 0.961 . S
H491 C483 0.960 . S
H492 C484 0.930 . S
H493 C485 0.929 . S
H494 C502 0.929 . S
H495 C504 0.930 . S
H496 C506 0.930 . S
H497 C509 0.929 . S
H498 C512 0.930 . S
H499 C514 0.960 . S
H500 C514 0.960 . S
H501 C514 0.960 . S
C502 H494 0.929 . S
C502 C503 1.377 . S
C502 C504 1.384 . S
C503 C502 1.377 . S
C503 C509 1.390 . S
C504 H495 0.930 . S
C504 C502 1.384 . S
C504 C505 1.372 . S
C505 C504 1.372 . S
C505 C506 1.400 . S
C505 C510 1.490 . S
C506 H496 0.930 . S
C506 C505 1.400 . S
C506 C509 1.386 . S
H507 C523 0.930 . S
H508 C524 0.931 . S
C509 H497 0.929 . S
C509 C503 1.390 . S
C509 C506 1.386 . S
C510 C505 1.490 . S
C510 C512 1.395 . S
C510 C513 1.403 . S
H511 C517 0.930 . S
C512 H498 0.930 . S
C512 C510 1.395 . S
C512 C515 1.403 . S
C513 C510 1.403 . S
C513 C514 1.524 . S
C513 C517 1.400 . S
C514 H499 0.960 . S
C514 H500 0.960 . S
C514 H501 0.960 . S
C514 C513 1.524 . S
C515 C512 1.403 . S
C515 C516 1.392 . S
C515 C519 1.495 . S
C516 C515 1.392 . S
C516 C517 1.385 . S
C516 C518 1.478 . S
C517 H511 0.930 . S
C517 C513 1.400 . S
C517 C516 1.385 . S
C518 C516 1.478 . S
C518 C520 1.381 . S
C518 C524 1.383 . S
C519 C515 1.495 . S
C519 H525 0.959 . S
C519 H526 0.961 . S
C519 H527 0.960 . S
C520 C518 1.381 . S
C520 C521 1.394 . S
C520 H528 0.930 . S
C521 C520 1.394 . S
C521 C522 1.383 . S
C521 H529 0.929 . S
C522 C521 1.383 . S
C522 C523 1.377 . S
C523 H507 0.930 . S
C523 C522 1.377 . S
C523 C524 1.379 . S
C524 H508 0.931 . S
C524 C518 1.383 . S
C524 C523 1.379 . S
H525 C519 0.959 . S
H526 C519 0.961 . S
H527 C519 0.960 . S
H528 C520 0.930 . S
H529 C521 0.929 . S
H530 C538 0.929 . S
H531 C540 0.930 . S
H532 C542 0.930 . S
H533 C545 0.929 . S
H534 C548 0.930 . S
H535 C550 0.960 1_455 S
H536 C550 0.960 . S
H537 C550 0.960 . S
C538 H530 0.929 . S
C538 C539 1.377 . S
C538 C540 1.384 . S
C539 C538 1.377 . S
C539 C545 1.390 . S
C540 H531 0.930 . S
C540 C538 1.384 . S
C540 C541 1.372 . S
C541 C540 1.372 . S
C541 C542 1.400 . S
C541 C546 1.490 . S
C542 H532 0.930 . S
C542 C541 1.400 . S
C542 C545 1.386 . S
H543 C559 0.930 1_455 S
H544 C560 0.931 . S
C545 H533 0.929 . S
C545 C539 1.390 . S
C545 C542 1.386 . S
C546 C541 1.490 . S
C546 C548 1.395 . S
C546 C549 1.403 . S
H547 C553 0.930 . S
C548 H534 0.930 . S
C548 C546 1.395 . S
C548 C551 1.403 . S
C549 C546 1.403 . S
C549 C550 1.524 . S
C549 C553 1.400 . S
C550 H535 0.960 1_655 S
C550 H536 0.960 . S
C550 H537 0.960 . S
C550 C549 1.524 . S
C551 C548 1.403 . S
C551 C552 1.392 . S
C551 C555 1.495 . S
C552 C551 1.392 . S
C552 C553 1.385 . S
C552 C554 1.478 . S
C553 H547 0.930 . S
C553 C549 1.400 . S
C553 C552 1.385 . S
C554 C552 1.478 . S
C554 C556 1.381 . S
C554 C560 1.383 . S
C555 C551 1.495 . S
C555 H561 0.959 . S
C555 H562 0.961 . S
C555 H563 0.960 . S
C556 C554 1.381 . S
C556 C557 1.394 . S
C556 H564 0.930 . S
C557 C556 1.394 . S
C557 C558 1.383 . S
C557 H565 0.929 . S
C558 C557 1.383 . S
C558 C559 1.377 . S
C559 H543 0.930 1_655 S
C559 C558 1.377 . S
C559 C560 1.379 . S
C560 H544 0.931 . S
C560 C554 1.383 . S
C560 C559 1.379 . S
H561 C555 0.959 . S
H562 C555 0.961 . S
H563 C555 0.960 . S
H564 C556 0.930 . S
H565 C557 0.929 . S
H566 C574 0.929 . S
H567 C576 0.930 . S
H568 C578 0.930 . S
H569 C581 0.929 . S
H570 C584 0.930 . S
H571 C586 0.960 . S
H572 C586 0.960 . S
H573 C586 0.960 . S
C574 H566 0.929 . S
C574 C575 1.377 . S
C574 C576 1.384 . S
C575 C574 1.377 . S
C575 C581 1.390 . S
C576 H567 0.930 . S
C576 C574 1.384 . S
C576 C577 1.372 . S
C577 C576 1.372 . S
C577 C578 1.400 . S
C577 C582 1.490 . S
C578 H568 0.930 . S
C578 C577 1.400 . S
C578 C581 1.386 . S
H579 C595 0.930 . S
H580 C596 0.931 . S
C581 H569 0.929 . S
C581 C575 1.390 . S
C581 C578 1.386 . S
C582 C577 1.490 . S
C582 C584 1.395 . S
C582 C585 1.403 . S
H583 C589 0.930 . S
C584 H570 0.930 . S
C584 C582 1.395 . S
C584 C587 1.403 . S
C585 C582 1.403 . S
C585 C586 1.524 . S
C585 C589 1.400 . S
C586 H571 0.960 . S
C586 H572 0.960 . S
C586 H573 0.960 . S
C586 C585 1.524 . S
C587 C584 1.403 . S
C587 C588 1.392 . S
C587 C591 1.495 . S
C588 C587 1.392 . S
C588 C589 1.385 . S
C588 C590 1.478 . S
C589 H583 0.930 . S
C589 C585 1.400 . S
C589 C588 1.385 . S
C590 C588 1.478 . S
C590 C592 1.381 . S
C590 C596 1.383 . S
C591 C587 1.495 . S
C591 H597 0.959 . S
C591 H598 0.961 . S
C591 H599 0.960 . S
C592 C590 1.381 . S
C592 C593 1.394 . S
C592 H600 0.930 . S
C593 C592 1.394 . S
C593 C594 1.383 . S
C593 H601 0.929 . S
C594 C593 1.383 . S
C594 C595 1.377 . S
C595 H579 0.930 . S
C595 C594 1.377 . S
C595 C596 1.379 . S
C596 H580 0.931 . S
C596 C590 1.383 . S
C596 C595 1.379 . S
H597 C591 0.959 . S
H598 C591 0.961 . S
H599 C591 0.960 . S
H600 C592 0.930 . S
H601 C593 0.929 . S
H602 C610 0.929 . S
H603 C612 0.930 . S
H604 C614 0.930 . S
H605 C617 0.929 . S
H606 C620 0.930 . S
H607 C622 0.960 . S
H608 C622 0.960 . S
H609 C622 0.960 . S
C610 H602 0.929 . S
C610 C611 1.377 . S
C610 C612 1.384 . S
C611 C610 1.377 . S
C611 C617 1.390 . S
C612 H603 0.930 . S
C612 C610 1.384 . S
C612 C613 1.372 . S
C613 C612 1.372 . S
C613 C614 1.400 . S
C613 C618 1.490 . S
C614 H604 0.930 . S
C614 C613 1.400 . S
C614 C617 1.386 . S
H615 C631 0.930 . S
H616 C632 0.931 . S
C617 H605 0.929 . S
C617 C611 1.390 . S
C617 C614 1.386 . S
C618 C613 1.490 . S
C618 C620 1.395 . S
C618 C621 1.403 . S
H619 C625 0.930 . S
C620 H606 0.930 . S
C620 C618 1.395 . S
C620 C623 1.403 . S
C621 C618 1.403 . S
C621 C622 1.524 . S
C621 C625 1.400 . S
C622 H607 0.960 . S
C622 H608 0.960 . S
C622 H609 0.960 . S
C622 C621 1.524 . S
C623 C620 1.403 . S
C623 C624 1.392 . S
C623 C627 1.495 . S
C624 C623 1.392 . S
C624 C625 1.385 . S
C624 C626 1.478 . S
C625 H619 0.930 . S
C625 C621 1.400 . S
C625 C624 1.385 . S
C626 C624 1.478 . S
C626 C628 1.381 . S
C626 C632 1.383 . S
C627 C623 1.495 . S
C627 H633 0.959 . S
C627 H634 0.961 . S
C627 H635 0.960 . S
C628 C626 1.381 . S
C628 C629 1.394 . S
C628 H636 0.930 . S
C629 C628 1.394 . S
C629 C630 1.383 . S
C629 H637 0.929 . S
C630 C629 1.383 . S
C630 C631 1.377 . S
C631 H615 0.930 . S
C631 C630 1.377 . S
C631 C632 1.379 . S
C632 H616 0.931 . S
C632 C626 1.383 . S
C632 C631 1.379 . S
H633 C627 0.959 . S
H634 C627 0.961 . S
H635 C627 0.960 . S
H636 C628 0.930 . S
H637 C629 0.929 . S
C234 C177 1.648 . S
C215 C135 1.635 . S
C251 C15 1.636 . S
C270 C200 1.649 . S
C287 C55 1.670 . S
C306 C176 1.692 . S
C323 C95 1.655 . S
C342 C199 1.676 . S
C378 C180 1.567 . S
C359 C2 1.568 . S
C414 C202 1.644 . S
C395 C42 1.666 . S
C431 C82 1.594 . S
C450 C181 1.625 . S
C467 C141 1.575 . S
C486 C201 1.614 . S
C522 C204 1.641 . S
C503 C61 1.700 . S
C558 C179 1.659 . S
C539 C101 1.621 . S
C594 C203 1.645 . S
C575 C122 1.613 . S
C611 C21 1.602 . S
C630 C178 1.624 . S
