# Generated by pormake.
# Topology nia, (6,6)-cn, num edge types: 1
# Building blocks:
#     Node 0, Type 0, BuildingBlock: KUMJIN_clean_sbu_1, # of connection points: 6
#     Node 1, Type 0, BuildingBlock: KUMJIN_clean_sbu_1, # of connection points: 6
#     Node 2, Type 1, BuildingBlock: MIDCAF_clean_sbu_0, # of connection points: 6
#     Node 3, Type 1, BuildingBlock: MIDCAF_clean_sbu_0, # of connection points: 6
#     Edge 4, Type (0, 1), BuildingBlock: FUNLAD_clean_linker_0, # of connection points: 2
#     Edge 5, Type (0, 1), BuildingBlock: FUNLAD_clean_linker_0, # of connection points: 2
#     Edge 6, Type (0, 1), BuildingBlock: FUNLAD_clean_linker_0, # of connection points: 2
#     Edge 7, Type (0, 1), BuildingBlock: FUNLAD_clean_linker_0, # of connection points: 2
#     Edge 8, Type (0, 1), BuildingBlock: FUNLAD_clean_linker_0, # of connection points: 2
#     Edge 9, Type (0, 1), BuildingBlock: FUNLAD_clean_linker_0, # of connection points: 2
#     Edge 10, Type (0, 1), BuildingBlock: FUNLAD_clean_linker_0, # of connection points: 2
#     Edge 11, Type (0, 1), BuildingBlock: FUNLAD_clean_linker_0, # of connection points: 2
#     Edge 12, Type (0, 1), BuildingBlock: FUNLAD_clean_linker_0, # of connection points: 2
#     Edge 13, Type (0, 1), BuildingBlock: FUNLAD_clean_linker_0, # of connection points: 2
#     Edge 14, Type (0, 1), BuildingBlock: FUNLAD_clean_linker_0, # of connection points: 2
#     Edge 15, Type (0, 1), BuildingBlock: FUNLAD_clean_linker_0, # of connection points: 2
# Relax obj value: 0.168
# Max RMSD: 0.275
# Mean RMSD: 0.200
data_MOF--net-nia--node1-KUMJIN_clean_sbu_1--node2-MIDCAF_clean_sbu_0--edge1-FUNLAD_clean_linker_0
_symmetry_space_group_name_H-M    P1
_symmetry_Int_Tables_number       1
_symmetry_cell_setting            triclinic
loop_
_symmetry_equiv_pos_as_xyz
'x, y, z'
_cell_length_a     32.410491
_cell_length_b     32.35628
_cell_length_c     36.012475
_cell_angle_alpha  89.717484
_cell_angle_beta   90.125563
_cell_angle_gamma 134.67838
loop_
_atom_site_label
_atom_site_type_symbol
_atom_site_fract_x
_atom_site_fract_y
_atom_site_fract_z
_atom_type_partial_charge
Eu0 Eu 0.02084 0.98193 0.05787 0.0
C1 C 0.91343 0.93922 0.90516 0.0
N2 N 0.9695 0.9859 0.91496 0.0
C3 C 0.0032 0.97685 0.85941 0.0
C4 C 0.90032 0.90803 0.87247 0.0
C5 C 0.0142 0.00607 0.89223 0.0
C6 C 0.94606 0.92728 0.84966 0.0
C7 C 0.81068 0.87439 0.91817 0.0
C8 C 0.86915 0.92243 0.92805 0.0
C9 C 0.79757 0.84194 0.88641 0.0
C10 C 0.84224 0.85877 0.86361 0.0
Eu11 Eu 0.98401 0.03219 0.97099 0.0
N12 N 0.88298 0.95464 0.95873 0.0
C13 C 0.76697 0.86154 0.93973 0.0
C14 C 0.84051 0.94582 0.97725 0.0
C15 C 0.78203 0.89823 0.96886 0.0
H16 H 0.05828 0.0444 0.89975 0.0
H17 H 0.74862 0.89058 0.98442 0.0
H18 H 0.92136 0.93015 0.12333 0.0
H19 H 0.25634 0.17486 0.05945 0.0
H20 H 0.85114 0.97584 0.99813 0.0
H21 H 0.7216 0.82504 0.93305 0.0
H22 H 0.16504 0.08458 0.03413 0.0
H23 H 0.03878 0.99245 0.84173 0.0
H24 H 0.75291 0.80456 0.87873 0.0
H25 H 0.83138 0.83383 0.83888 0.0
H26 H 0.91635 0.95621 0.18646 0.0
H27 H 0.93769 0.90446 0.82434 0.0
H28 H 0.25827 0.20863 0.12141 0.0
N29 N 0.01219 0.00301 0.11813 0.0
C30 C 0.06222 0.0508 0.13458 0.0
C31 C 0.95757 0.9833 0.17212 0.0
C32 C 0.06142 0.06724 0.17057 0.0
C33 C 0.96037 0.96895 0.1363 0.0
C34 C 0.00828 0.03272 0.18932 0.0
N35 N 0.1132 0.06916 0.07928 0.0
C36 C 0.16392 0.09964 0.06022 0.0
C37 C 0.16604 0.13599 0.13058 0.0
C38 C 0.11397 0.08499 0.11456 0.0
C39 C 0.21744 0.16919 0.11009 0.0
C40 C 0.21645 0.1505 0.07499 0.0
H41 H 0.00592 0.04392 0.21701 0.0
H42 H 0.11342 0.13146 0.21396 0.0
H43 H 0.20491 0.19148 0.17905 0.0
O44 O 0.06288 0.9511 0.06164 0.0
O45 O 0.02576 0.05457 0.0671 0.0
O46 O 0.0545 0.1022 0.011 0.0
O47 O -0.00764 0.9162 0.09877 0.0
O48 O 0.07204 0.00836 1.00432 0.0
O49 O 0.07687 0.07681 0.97825 0.0
O50 O 0.95846 0.07921 0.95888 0.0
O51 O 0.97962 0.95921 0.96356 0.0
O52 O 0.9472 0.91171 0.01969 0.0
O53 O 0.02642 0.09631 0.92694 0.0
O54 O 0.93568 0.00786 0.02586 0.0
O55 O 0.92743 0.93584 0.04985 0.0
C56 C 0.05354 0.10198 0.04747 0.0
C57 C 0.00573 0.85558 0.0839 0.0
C58 C 0.00993 0.78568 0.10155 0.0
C59 C 0.96233 0.74445 0.07811 0.0
C60 C 0.95849 0.81413 0.0606 0.0
C61 C 0.93694 0.75875 0.05777 0.0
C62 C 0.03135 0.84136 0.10412 0.0
C63 C 0.09422 0.05047 0.98018 0.0
C64 C 0.02882 0.91376 0.08797 0.0
C65 C 0.11324 0.11804 0.1864 0.0
C66 C 0.16533 0.15231 0.16646 0.0
C67 C 0.94899 0.91137 0.98329 0.0
C68 C 0.00811 0.15409 0.90956 0.0
C69 C 0.97836 0.19969 0.88339 0.0
C70 C 0.0324 0.24069 0.8653 0.0
C71 C 0.06176 0.19572 0.89124 0.0
C72 C 0.96647 0.15629 0.90565 0.0
C73 C 0.07372 0.23869 0.86933 0.0
C74 C 0.90957 0.96184 0.04731 0.0
C75 C -0.0035 0.10863 0.93213 0.0
H76 H 0.94434 0.70099 0.07574 0.0
H77 H 0.93826 0.82451 0.04481 0.0
H78 H 0.90033 0.72674 0.03986 0.0
H79 H 0.06855 0.87415 0.1215 0.0
H80 H 0.04249 0.27392 0.84751 0.0
H81 H 0.09468 0.19517 0.89388 0.0
H82 H 0.92515 0.12448 0.91987 0.0
H83 H 0.1151 0.27042 0.85523 0.0
Eu84 Eu 0.00912 0.96854 0.47541 0.0
C85 C 0.06599 0.10457 0.61582 0.0
N86 N 0.01525 0.04934 0.60835 0.0
C87 C 0.01555 0.01795 0.66863 0.0
C88 C 0.0951 0.11818 0.64967 0.0
C89 C -0.0114 0.00648 0.63448 0.0
C90 C 0.06944 0.07389 0.67608 0.0
C91 C 0.14015 0.20565 0.59697 0.0
C92 C 0.08807 0.14759 0.58972 0.0
C93 C 0.17085 0.21905 0.62988 0.0
C94 C 0.1483 0.17544 0.65621 0.0
Eu95 Eu 0.97261 0.03265 0.55015 0.0
N96 N 0.05695 0.13328 0.55836 0.0
C97 C 0.15878 0.24881 0.57155 0.0
C98 C 0.07234 0.17595 0.53531 0.0
C99 C 0.12411 0.23401 0.54097 0.0
H100 H 0.947 0.96328 0.62859 0.0
H101 H 0.13674 0.26742 0.52206 0.0
H102 H 0.09201 0.0728 0.40902 0.0
H103 H 0.81097 0.7401 0.45518 0.0
H104 H 0.04449 0.16583 0.5128 0.0
H105 H 0.19855 0.29392 0.57609 0.0
H106 H 0.89955 0.82552 0.48819 0.0
H107 H -0.00507 0.98367 0.68909 0.0
H108 H 0.21125 0.26331 0.6357 0.0
H109 H 0.17178 0.18664 0.68184 0.0
H110 H 0.07943 0.09349 0.34631 0.0
H111 H 0.09041 0.08261 0.70245 0.0
H112 H 0.78774 0.75273 0.39321 0.0
N113 N 0.00467 0.99058 0.41345 0.0
C114 C 0.95514 0.94719 0.39453 0.0
C115 C 0.04368 0.05251 0.35978 0.0
C116 C 0.94676 0.95601 0.35799 0.0
C117 C 0.05023 0.04119 0.3957 0.0
C118 C -0.00879 0.01017 0.34111 0.0
N119 N 0.92463 0.88509 0.44554 0.0
C120 C 0.88947 0.831 0.46109 0.0
C121 C 0.86459 0.84534 0.39097 0.0
C122 C 0.91452 0.89252 0.41073 0.0
C123 C 0.82659 0.79009 0.40749 0.0
C124 C 0.83952 0.78279 0.44249 0.0
H125 H 0.98648 0.01873 0.3131 0.0
H126 H 0.888 0.91614 0.31105 0.0
H127 H 0.81597 0.81918 0.33998 0.0
O128 O 0.0387 0.92813 0.49262 0.0
O129 O 0.91798 0.92976 0.48351 0.0
O130 O 0.93031 0.00739 0.49356 0.0
O131 O 0.05475 0.96029 0.4366 0.0
O132 O 0.97306 0.92052 0.53107 0.0
O133 O 0.91831 0.9361 0.55546 0.0
O134 O 0.94749 0.07514 0.57244 0.0
O135 O 0.03261 0.02126 0.56346 0.0
O136 O 0.08251 0.04693 0.50951 0.0
O137 O 0.88827 0.98193 0.57643 0.0
O138 O -0.00011 0.07176 0.49207 0.0
O139 O 0.06361 0.06596 0.47279 0.0
C140 C 0.90347 0.95801 0.47699 0.0
C141 C 0.12229 0.96147 0.46229 0.0
C142 C 0.19176 0.95944 0.43987 0.0
C143 C 0.23308 0.00389 0.46496 0.0
C144 C 0.16412 0.00623 0.48691 0.0
C145 C 0.21933 0.02735 0.48816 0.0
C146 C 0.13645 0.93869 0.43859 0.0
C147 C 0.93328 0.90729 0.55405 0.0
C148 C 0.06351 0.93746 0.46099 0.0
C149 C 0.89551 0.90994 0.33895 0.0
C150 C 0.85459 0.85467 0.35536 0.0
C151 C 0.08093 0.04691 0.54588 0.0
C152 C 0.84783 0.01986 0.56843 0.0
C153 C 0.79344 0.04576 0.575 0.0
C154 C 0.75974 0.01108 0.54401 0.0
C155 C 0.81405 0.98574 0.5374 0.0
C156 C 0.83731 0.0496 0.58712 0.0
C157 C 0.77005 0.98126 0.52542 0.0
C158 C 0.04361 0.09002 0.47133 0.0
C159 C 0.8953 0.02642 0.58107 0.0
H160 H 0.27603 0.02063 0.46647 0.0
H161 H 0.15395 0.02446 0.50523 0.0
H162 H 0.25143 0.06173 0.5073 0.0
H163 H 0.10389 0.90378 0.41978 0.0
H164 H 0.72537 0.00695 0.53421 0.0
H165 H 0.82177 0.96277 0.52239 0.0
H166 H 0.86439 0.07695 0.61053 0.0
H167 H 0.74406 0.95484 0.50153 0.0
Zn168 Zn 0.3521 0.6626 0.19105 0.0
Zn169 Zn 0.35899 0.66717 0.33425 0.0
Zn170 Zn 0.35595 0.66235 0.26139 0.0
C171 C 0.4738 0.74749 0.30922 0.0
C172 C 0.30271 0.55414 0.31584 0.0
O173 O 0.30337 0.67979 0.24377 0.0
O174 O 0.2873 0.65621 0.1843 0.0
C175 C 0.46632 0.75309 0.20643 0.0
O176 O 0.44835 0.72653 0.27754 0.0
O177 O 0.44463 0.73021 0.33874 0.0
O178 O 0.31885 0.5861 0.34364 0.0
O179 O 0.31273 0.57468 0.28267 0.0
O180 O 0.43213 0.73778 0.18024 0.0
O181 O 0.44594 0.7272 0.23825 0.0
O182 O 0.31183 0.57398 0.2435 0.0
O183 O 0.33441 0.59079 0.18381 0.0
C184 C 0.31237 0.55687 0.21142 0.0
O185 O 0.31338 0.69048 0.28184 0.0
O186 O 0.31451 0.68647 0.34322 0.0
C187 C 0.27776 0.67067 0.21294 0.0
C188 C 0.30095 0.69648 0.31417 0.0
Zn189 Zn 0.62071 0.32533 0.83249 0.0
Zn190 Zn 0.67118 0.37251 0.6914 0.0
Zn191 Zn 0.64212 0.3513 0.76114 0.0
C192 C 0.72486 0.47824 0.72139 0.0
C193 C 0.54911 0.29382 0.69586 0.0
O194 O 0.67901 0.31786 0.78253 0.0
O195 O 0.6593 0.29922 0.84257 0.0
C196 C 0.68862 0.44579 0.82354 0.0
O197 O 0.69909 0.44616 0.75071 0.0
O198 O 0.72021 0.45647 0.69084 0.0
O199 O 0.59055 0.31973 0.67308 0.0
O200 O 0.55905 0.30083 0.73108 0.0
O201 O 0.66076 0.40547 0.84751 0.0
O202 O 0.68844 0.43458 0.78921 0.0
O203 O 0.5467 0.29178 0.77004 0.0
O204 O 0.53563 0.26608 0.82911 0.0
C205 C 0.51398 0.26215 0.79858 0.0
O206 O 0.68044 0.31777 0.74328 0.0
O207 O 0.70952 0.34611 0.6851 0.0
C208 C 0.6829 0.30123 0.81389 0.0
C209 C 0.70405 0.31977 0.71354 0.0
C210 C 0.04653 0.73848 0.10633 0.0
C211 C 0.03804 0.77135 0.12275 0.0
C212 C 0.07539 0.72732 0.12552 0.0
C213 C 0.09627 0.74859 0.16174 0.0
C214 C 0.0877 0.78128 0.1782 0.0
C215 C 0.05855 0.79219 0.15907 0.0
C216 C 0.13042 0.74064 0.18188 0.0
C217 C 0.12317 0.69479 0.17598 0.0
C218 C 0.16107 0.68846 0.19161 0.0
C219 C 0.14286 0.63443 0.18801 0.0
C220 C 0.18005 0.62809 0.19704 0.0
C221 C 0.23608 0.67551 0.21022 0.0
H222 H 0.23341 0.77844 0.20849 0.0
C223 C 0.25399 0.72907 0.21524 0.0
C224 C 0.21682 0.73564 0.2061 0.0
H225 H 0.29793 0.76672 0.22385 0.0
H226 H 0.03249 0.72284 0.07814 0.0
H227 H 0.08293 0.70374 0.11131 0.0
H228 H 0.10368 0.79852 0.20594 0.0
H229 H 0.05217 0.81707 0.17277 0.0
H230 H 0.16175 0.7733 0.20216 0.0
H231 H 0.08794 0.65999 0.15813 0.0
H232 H 0.10046 0.59744 0.17677 0.0
H233 H 0.16576 0.58655 0.19248 0.0
C234 C 0.18871 0.11741 0.55317 0.0
C235 C 0.13278 0.07217 0.5677 0.0
C236 C 0.2375 0.14266 0.57477 0.0
C237 C 0.23112 0.12297 0.6113 0.0
C238 C 0.17517 0.07783 0.62569 0.0
C239 C 0.12653 0.05213 0.60395 0.0
C240 C 0.28191 0.14927 0.63518 0.0
C241 C 0.33189 0.1698 0.62115 0.0
C242 C 0.38386 0.19621 0.64376 0.0
C243 C 0.42515 0.19851 0.62843 0.0
C244 C 0.47744 0.22783 0.64657 0.0
C245 C 0.48998 0.25589 0.6805 0.0
H246 H 0.36529 0.22305 0.69078 0.0
C247 C 0.44818 0.25227 0.69663 0.0
C248 C 0.3954 0.22263 0.67846 0.0
H249 H 0.45771 0.27525 0.722 0.0
H250 H 0.19473 0.13395 0.5254 0.0
H251 H 0.28006 0.17838 0.56308 0.0
H252 H 0.16903 0.06189 0.6537 0.0
H253 H 0.08392 0.01648 0.61558 0.0
H254 H 0.27657 0.14833 0.66502 0.0
H255 H 0.33442 0.1652 0.59158 0.0
H256 H 0.41754 0.17865 0.60181 0.0
H257 H 0.50891 0.2299 0.63343 0.0
C258 C 0.07147 0.15711 0.10403 0.0
C259 C 0.08689 0.15717 0.06758 0.0
C260 C 0.10494 0.20874 0.12413 0.0
C261 C 0.1546 0.26178 0.10802 0.0
C262 C 0.1692 0.26168 0.07128 0.0
C263 C 0.13575 0.21001 0.05125 0.0
C264 C 0.1915 0.31851 0.12755 0.0
C265 C 0.18783 0.32547 0.16396 0.0
C266 C 0.22416 0.38413 0.18052 0.0
C267 C 0.20129 0.39287 0.20894 0.0
C268 C 0.2316 0.44918 0.22109 0.0
C269 C 0.28542 0.49726 0.2052 0.0
H270 H 0.30045 0.42679 0.14642 0.0
C271 C 0.31018 0.48804 0.17897 0.0
C272 C 0.2802 0.43208 0.16702 0.0
H273 H 0.35206 0.52446 0.1667 0.0
H274 H 0.0333 0.11702 0.11705 0.0
H275 H 0.09101 0.20643 0.15194 0.0
H276 H 0.20696 0.30181 0.05801 0.0
H277 H 0.14884 0.21133 0.02326 0.0
H278 H 0.22286 0.35697 0.11038 0.0
H279 H 0.15562 0.28829 0.18169 0.0
H280 H 0.1586 0.3565 0.22026 0.0
H281 H 0.21157 0.45532 0.24127 0.0
C282 C 0.78608 0.08385 0.63266 0.0
C283 C 0.78462 0.07983 0.59371 0.0
C284 C 0.78024 0.11811 0.65004 0.0
C285 C 0.77281 0.14903 0.62869 0.0
C286 C 0.77124 0.14477 0.58983 0.0
C287 C 0.77681 0.11043 0.57253 0.0
C288 C 0.76897 0.18813 0.64532 0.0
C289 C 0.75379 0.18523 0.68079 0.0
C290 C 0.74716 0.22364 0.6942 0.0
C291 C 0.70233 0.20189 0.71913 0.0
C292 C 0.68989 0.23447 0.72736 0.0
C293 C 0.72272 0.28949 0.7111 0.0
H294 H 0.81926 0.29967 0.66246 0.0
C295 C 0.77032 0.31293 0.68857 0.0
C296 C 0.78279 0.28061 0.68047 0.0
H297 H 0.79686 0.35568 0.67619 0.0
H298 H 0.79189 0.06059 0.64972 0.0
H299 H 0.7829 0.12117 0.68 0.0
H300 H 0.76602 0.16845 0.57267 0.0
H301 H 0.77646 0.10903 0.54247 0.0
H302 H 0.77605 0.21902 0.62652 0.0
H303 H 0.74087 0.15111 0.6992 0.0
H304 H 0.67487 0.15844 0.73054 0.0
H305 H 0.65291 0.2155 0.74482 0.0
C306 C 0.85272 0.97579 0.08146 0.0
C307 C 0.85976 0.93945 0.07055 0.0
C308 C 0.80699 0.95491 0.10499 0.0
C309 C 0.76693 0.89684 0.11776 0.0
C310 C 0.77426 0.86078 0.1066 0.0
C311 C 0.81996 0.88171 0.08329 0.0
C312 C 0.71668 0.87133 0.14234 0.0
C313 C 0.69747 0.89629 0.14969 0.0
C314 C 0.64194 0.86496 0.16962 0.0
C315 C 0.60906 0.87664 0.15969 0.0
C316 C 0.55293 0.84236 0.17361 0.0
C317 C 0.52905 0.79649 0.19837 0.0
H318 H 0.64414 0.81231 0.20555 0.0
C319 C 0.56327 0.78731 0.2104 0.0
C320 C 0.61941 0.82144 0.19635 0.0
H321 H 0.5452 0.75119 0.22856 0.0
H322 H 0.88323 0.02074 0.07242 0.0
H323 H 0.80407 0.98482 0.11328 0.0
H324 H 0.7443 0.81595 0.11586 0.0
H325 H 0.82418 0.85258 0.0753 0.0
H326 H 0.6918 0.82766 0.15269 0.0
H327 H 0.71895 0.93799 0.13742 0.0
H328 H 0.62552 0.91025 0.13949 0.0
H329 H 0.52725 0.85015 0.16381 0.0
C330 C 0.92977 0.83726 0.58836 0.0
C331 C 0.90532 0.85895 0.58082 0.0
C332 C 0.90469 0.79332 0.61482 0.0
C333 C 0.85443 0.76996 0.63427 0.0
C334 C 0.82948 0.79094 0.62626 0.0
C335 C 0.85491 0.83533 0.60011 0.0
C336 C 0.8245 0.7205 0.66063 0.0
C337 C 0.85267 0.71123 0.6805 0.0
C338 C 0.82227 0.65529 0.69967 0.0
C339 C 0.84974 0.63596 0.70064 0.0
C340 C 0.81892 0.57898 0.7111 0.0
C341 C 0.76061 0.54088 0.72187 0.0
H342 H 0.74337 0.63274 0.71432 0.0
C343 C 0.73461 0.5616 0.72467 0.0
C344 C 0.76523 0.61856 0.71354 0.0
H345 H 0.68947 0.53258 0.73273 0.0
H346 H 0.96857 0.85447 0.57402 0.0
H347 H 0.92403 0.77684 0.61922 0.0
H348 H 0.79026 0.77304 0.64036 0.0
H349 H 0.83478 0.85087 0.59489 0.0
H350 H 0.77753 0.68949 0.66204 0.0
H351 H 0.8997 0.74276 0.679 0.0
H352 H 0.89378 0.6635 0.69052 0.0
H353 H 0.83954 0.56355 0.70856 0.0
C354 C 0.22886 0.91355 0.43199 0.0
C355 C 0.20523 0.93286 0.41616 0.0
C356 C 0.23842 0.8853 0.41027 0.0
C357 C 0.22502 0.87624 0.37216 0.0
C358 C 0.2034 0.89742 0.35603 0.0
C359 C 0.19283 0.92482 0.37794 0.0
C360 C 0.23414 0.84535 0.34907 0.0
C361 C 0.22155 0.79854 0.36226 0.0
C362 C 0.23502 0.76869 0.34297 0.0
C363 C 0.20762 0.71325 0.3557 0.0
C364 C 0.22626 0.68766 0.34375 0.0
C365 C 0.27254 0.71682 0.31865 0.0
H366 H 0.30236 0.8398 0.30617 0.0
C367 C 0.29803 0.77076 0.30416 0.0
C368 C 0.2793 0.79655 0.31608 0.0
H369 H 0.33526 0.79492 0.28587 0.0
H370 H 0.2387 0.9191 0.46137 0.0
H371 H 0.25656 0.87076 0.42332 0.0
H372 H 0.19341 0.89153 0.32665 0.0
H373 H 0.17504 0.93981 0.36503 0.0
H374 H 0.24972 0.86041 0.32082 0.0
H375 H 0.20081 0.78138 0.38934 0.0
H376 H 0.17359 0.69086 0.37645 0.0
H377 H 0.20652 0.64633 0.35568 0.0
C378 C 0.16903 0.11717 0.93089 0.0
C379 C 0.14001 0.06848 0.95423 0.0
C380 C 0.21038 0.13263 0.90524 0.0
C381 C 0.22377 0.09974 0.90242 0.0
C382 C 0.19541 0.05172 0.92618 0.0
C383 C 0.15386 0.03607 0.95165 0.0
C384 C 0.26983 0.11632 0.8772 0.0
C385 C 0.28946 0.15031 0.84674 0.0
C386 C 0.34153 0.17295 0.82577 0.0
C387 C 0.37848 0.22872 0.80981 0.0
C388 C 0.43344 0.25616 0.79667 0.0
C389 C 0.45165 0.22768 0.79857 0.0
H390 H 0.32954 0.09858 0.83492 0.0
C391 C 0.41263 0.16993 0.81115 0.0
C392 C 0.35779 0.1425 0.82429 0.0
H393 H 0.42612 0.14742 0.81326 0.0
H394 H 0.15973 0.14339 0.93231 0.0
H395 H 0.23252 0.1711 0.88844 0.0
H396 H 0.20535 0.02601 0.92498 0.0
H397 H 0.13238 -0.0017 0.96915 0.0
H398 H 0.2896 0.10106 0.88513 0.0
H399 H 0.27049 0.16637 0.83878 0.0
H400 H 0.36679 0.25292 0.81022 0.0
H401 H 0.46342 0.30129 0.78807 0.0
C402 C 0.12688 0.17631 0.43307 0.0
C403 C 0.06874 0.1378 0.44469 0.0
C404 C 0.1503 0.22311 0.40938 0.0
C405 C 0.11568 0.23189 0.39681 0.0
C406 C 0.0573 0.19233 0.40784 0.0
C407 C 0.03419 0.14607 0.43148 0.0
C408 C 0.13918 0.28445 0.37573 0.0
C409 C 0.19158 0.3231 0.35907 0.0
C410 C 0.21599 0.38006 0.34502 0.0
C411 C 0.25626 0.40887 0.31559 0.0
C412 C 0.28294 0.46477 0.30445 0.0
C413 C 0.27007 0.49271 0.32291 0.0
H414 H 0.17381 0.38871 0.38655 0.0
C415 C 0.22948 0.46365 0.35196 0.0
C416 C 0.20283 0.4082 0.36291 0.0
H417 H 0.21939 0.48459 0.36698 0.0
H418 H 0.15463 0.17124 0.44314 0.0
H419 H 0.19579 0.25317 0.40223 0.0
H420 H 0.02959 0.19801 0.3989 0.0
H421 H -0.01077 0.11718 0.43986 0.0
H422 H 0.11183 0.29255 0.37489 0.0
H423 H 0.21783 0.31393 0.35632 0.0
H424 H 0.26781 0.38855 0.30167 0.0
H425 H 0.31524 0.48698 0.28257 0.0
C426 C 0.95238 0.25635 0.87776 0.0
C427 C 0.93477 0.20235 0.8782 0.0
C428 C 0.91277 0.25989 0.8699 0.0
C429 C 0.85446 0.20942 0.86215 0.0
C430 C 0.83623 0.15521 0.86416 0.0
C431 C 0.87601 0.15165 0.87193 0.0
C432 C 0.81167 0.21215 0.85303 0.0
C433 C 0.82688 0.25845 0.83593 0.0
C434 C 0.78632 0.26472 0.82848 0.0
C435 C 0.80314 0.30739 0.80301 0.0
C436 C 0.76887 0.3184 0.79755 0.0
C437 C 0.71679 0.28659 0.81723 0.0
H438 H 0.71992 0.20063 0.86875 0.0
C439 C 0.69957 0.24362 0.84249 0.0
C440 C 0.73387 0.23269 0.84809 0.0
H441 H 0.65991 0.21904 0.8584 0.0
H442 H -0.003 0.29609 0.88346 0.0
H443 H 0.92798 0.30224 0.87026 0.0
H444 H 0.79136 0.11559 0.85886 0.0
H445 H 0.86109 0.10941 0.87195 0.0
H446 H 0.76648 0.17415 0.85945 0.0
H447 H 0.87134 0.29366 0.82647 0.0
H448 H 0.84359 0.33322 0.78783 0.0
H449 H 0.78401 0.35297 0.77875 0.0
C450 C 0.86035 0.97082 0.42657 0.0
C451 C 0.85638 0.934 0.45071 0.0
C452 C 0.81689 0.94771 0.40034 0.0
C453 C 0.76813 0.88723 0.39829 0.0
C454 C 0.76454 0.85069 0.42259 0.0
C455 C 0.80804 0.87384 0.44866 0.0
C456 C 0.71953 0.86017 0.37195 0.0
C457 C 0.7072 0.88849 0.35651 0.0
C458 C 0.65147 0.85713 0.33712 0.0
C459 C 0.62469 0.87691 0.34151 0.0
C460 C 0.56761 0.84284 0.32975 0.0
C461 C 0.53705 0.78926 0.31253 0.0
H462 H 0.64213 0.78965 0.31262 0.0
C463 C 0.56509 0.77143 0.3055 0.0
C464 C 0.62213 0.80534 0.31742 0.0
H465 H 0.54167 0.7295 0.29307 0.0
H466 H 0.89772 0.01737 0.42737 0.0
H467 H 0.82226 0.97739 0.38156 0.0
H468 H 0.72763 0.80398 0.42166 0.0
H469 H 0.80393 0.84465 0.46721 0.0
H470 H 0.68921 0.81345 0.36831 0.0
H471 H 0.73415 0.93408 0.36259 0.0
H472 H 0.64648 0.91682 0.35634 0.0
H473 H 0.5463 0.85687 0.33585 0.0
C474 C 0.93251 0.85253 0.92966 0.0
C475 C 0.91408 0.85545 0.9639 0.0
C476 C 0.89799 0.80009 0.91032 0.0
C477 C 0.84446 0.7493 0.92518 0.0
C478 C 0.82636 0.75249 0.95954 0.0
C479 C 0.86096 0.80489 0.97885 0.0
C480 C 0.8058 0.69232 0.9059 0.0
C481 C 0.82427 0.67749 0.88069 0.0
C482 C 0.78634 0.61808 0.86466 0.0
C483 C 0.80478 0.61006 0.83261 0.0
C484 C 0.77252 0.55428 0.81847 0.0
C485 C 0.72103 0.50543 0.83601 0.0
H486 H 0.71923 0.57204 0.90743 0.0
C487 C 0.70229 0.5134 0.86778 0.0
C488 C 0.73449 0.56883 0.88204 0.0
H489 H 0.66302 0.47646 0.88216 0.0
H490 H 0.97357 0.89096 0.91771 0.0
H491 H 0.91302 0.80006 0.88356 0.0
H492 H 0.78529 0.71417 0.9716 0.0
H493 H 0.84558 0.80607 1.00511 0.0
H494 H 0.7606 0.66081 0.91426 0.0
H495 H 0.86941 0.70925 0.87209 0.0
H496 H 0.84494 0.64694 0.81892 0.0
H497 H 0.7892 0.54925 0.79488 0.0
loop_
_geom_bond_atom_site_label_1
_geom_bond_atom_site_label_2
_geom_bond_distance
_geom_bond_site_symmetry_2
_ccdc_geom_bond_type
Eu0 N29 2.600 . S
Eu0 N35 2.562 1_565 S
Eu0 O44 2.462 . S
Eu0 O45 2.373 1_565 S
Eu0 O47 2.422 . S
Eu0 O48 2.271 1_564 S
Eu0 O52 2.328 1_454 S
Eu0 O55 2.372 1_455 S
Eu0 C64 2.787 . S
C1 N2 1.365 1_565 S
C1 C4 1.405 . S
C1 C8 1.448 . S
N2 C1 1.365 1_545 S
N2 C5 1.319 1_655 S
N2 Eu11 2.600 . S
C3 C5 1.397 . S
C3 C6 1.367 . S
C3 H23 0.931 . S
C4 C1 1.405 . S
C4 C6 1.403 1_665 S
C4 C10 1.439 . S
C5 N2 1.319 1_455 S
C5 C3 1.397 . S
C5 H16 0.930 . S
C6 C3 1.367 . S
C6 C4 1.403 1_445 S
C6 H27 0.930 . S
C7 C8 1.430 . S
C7 C9 1.387 . S
C7 C13 1.404 . S
C8 C1 1.448 . S
C8 C7 1.430 . S
C8 N12 1.351 . S
C9 C7 1.387 . S
C9 C10 1.374 . S
C9 H24 0.931 . S
C10 C4 1.439 . S
C10 C9 1.374 . S
C10 H25 0.931 . S
Eu11 N2 2.600 . S
Eu11 N12 2.562 1_545 S
Eu11 O46 2.320 1_656 S
Eu11 O49 2.372 1_655 S
Eu11 O50 2.462 . S
Eu11 O51 2.373 1_545 S
Eu11 O53 2.432 1_655 S
Eu11 O54 2.291 1_546 S
Eu11 C75 2.787 . S
N12 C8 1.351 . S
N12 Eu11 2.562 1_565 S
N12 C14 1.325 . S
C13 C7 1.404 . S
C13 C15 1.366 . S
C13 H21 0.930 . S
C14 N12 1.325 . S
C14 C15 1.416 . S
C14 H20 0.929 . S
C15 C13 1.366 . S
C15 C14 1.416 . S
C15 H17 0.930 . S
H16 C5 0.930 . S
H17 C15 0.930 . S
H18 C33 0.930 . S
H19 C40 0.930 . S
H20 C14 0.929 . S
H21 C13 0.930 . S
H22 C36 0.929 . S
H23 C3 0.931 . S
H24 C9 0.931 . S
H25 C10 0.931 . S
H26 C31 0.931 . S
H27 C6 0.930 . S
H28 C39 0.930 . S
N29 Eu0 2.600 . S
N29 C30 1.365 1_565 S
N29 C33 1.319 1_455 S
C30 N29 1.365 1_545 S
C30 C32 1.405 . S
C30 C38 1.448 . S
C31 H26 0.931 . S
C31 C33 1.397 . S
C31 C34 1.367 1_565 S
C32 C30 1.405 . S
C32 C34 1.403 1_455 S
C32 C65 1.439 . S
C33 H18 0.930 . S
C33 N29 1.319 1_655 S
C33 C31 1.397 . S
C34 C31 1.367 1_545 S
C34 C32 1.403 1_655 S
C34 H41 0.929 . S
N35 Eu0 2.562 1_545 S
N35 C36 1.325 . S
N35 C38 1.351 . S
C36 H22 0.929 . S
C36 N35 1.325 . S
C36 C40 1.416 . S
C37 C38 1.430 . S
C37 C39 1.404 . S
C37 C66 1.387 . S
C38 C30 1.448 . S
C38 N35 1.351 . S
C38 C37 1.430 . S
C39 H28 0.930 . S
C39 C37 1.404 . S
C39 C40 1.366 . S
C40 H19 0.930 . S
C40 C36 1.416 . S
C40 C39 1.366 . S
H41 C34 0.929 . S
H42 C65 0.931 . S
H43 C66 0.931 . S
O44 Eu0 2.462 . S
O44 C64 1.252 . S
O45 Eu0 2.373 1_545 S
O45 C56 1.249 . S
O46 Eu11 2.320 1_454 S
O46 C56 1.283 . S
O47 Eu0 2.422 . S
O47 C64 1.287 . S
O48 Eu0 2.271 1_546 S
O48 C63 1.280 . S
O49 Eu11 2.372 1_455 S
O49 C63 1.257 . S
O50 Eu11 2.462 . S
O50 C75 1.252 . S
O51 Eu11 2.373 1_565 S
O51 C67 1.249 . S
O52 Eu0 2.328 1_656 S
O52 C67 1.272 . S
O53 Eu11 2.432 1_455 S
O53 C75 1.268 1_455 S
O54 Eu11 2.291 1_564 S
O54 C74 1.255 . S
O55 Eu0 2.372 1_655 S
O55 C74 1.257 . S
C56 O45 1.249 . S
C56 O46 1.283 . S
C57 C60 1.382 . S
C57 C62 1.390 . S
C57 C64 1.506 . S
C58 C59 1.398 . S
C58 C62 1.392 . S
C59 C58 1.398 . S
C59 C61 1.372 . S
C59 H76 0.931 . S
C60 C57 1.382 . S
C60 C61 1.390 . S
C60 H77 0.931 1_455 S
C61 C59 1.372 . S
C61 C60 1.390 . S
C61 H78 0.929 . S
C62 C57 1.390 . S
C62 C58 1.392 . S
C62 H79 0.930 . S
C63 O48 1.280 . S
C63 O49 1.257 . S
C64 Eu0 2.787 . S
C64 O44 1.252 . S
C64 O47 1.287 . S
C64 C57 1.506 . S
C65 C32 1.439 . S
C65 H42 0.931 . S
C65 C66 1.374 . S
C66 C37 1.387 . S
C66 H43 0.931 . S
C66 C65 1.374 . S
C67 O51 1.249 . S
C67 O52 1.272 . S
C68 C71 1.382 . S
C68 C72 1.390 . S
C68 C75 1.506 . S
C69 C70 1.398 . S
C69 C72 1.392 . S
C70 C69 1.398 . S
C70 C73 1.372 . S
C70 H80 0.931 . S
C71 C68 1.382 . S
C71 C73 1.390 . S
C71 H81 0.931 1_655 S
C72 C68 1.390 . S
C72 C69 1.392 . S
C72 H82 0.930 . S
C73 C70 1.372 . S
C73 C71 1.390 . S
C73 H83 0.929 . S
C74 O54 1.255 . S
C74 O55 1.257 . S
C75 Eu11 2.787 . S
C75 O50 1.252 . S
C75 O53 1.268 1_655 S
C75 C68 1.506 . S
H76 C59 0.931 . S
H77 C60 0.931 1_655 S
H78 C61 0.929 . S
H79 C62 0.930 . S
H80 C70 0.931 . S
H81 C71 0.931 1_455 S
H82 C72 0.930 . S
H83 C73 0.929 . S
Eu84 N113 2.600 1_565 S
Eu84 N119 2.562 1_455 S
Eu84 O128 2.462 . S
Eu84 O129 2.373 1_455 S
Eu84 O131 2.432 1_565 S
Eu84 O132 2.291 1_455 S
Eu84 O136 2.335 1_565 S
Eu84 O139 2.372 1_565 S
Eu84 C148 2.787 . S
C85 N86 1.365 1_455 S
C85 C88 1.405 . S
C85 C92 1.448 . S
N86 C85 1.365 1_655 S
N86 C89 1.319 1_545 S
N86 Eu95 2.600 . S
C87 C89 1.397 . S
C87 C90 1.367 1_665 S
C87 H107 0.931 . S
C88 C85 1.405 . S
C88 C90 1.403 . S
C88 C94 1.439 . S
C89 N86 1.319 1_565 S
C89 C87 1.397 . S
C89 H100 0.930 . S
C90 C87 1.367 1_445 S
C90 C88 1.403 . S
C90 H111 0.933 . S
C91 C92 1.430 . S
C91 C93 1.387 . S
C91 C97 1.404 . S
C92 C85 1.448 . S
C92 C91 1.430 . S
C92 N96 1.351 . S
C93 C91 1.387 . S
C93 C94 1.374 . S
C93 H108 0.931 . S
C94 C88 1.439 . S
C94 C93 1.374 . S
C94 H109 0.931 . S
Eu95 N86 2.600 . S
Eu95 N96 2.562 1_655 S
Eu95 O130 2.335 1_545 S
Eu95 O133 2.372 1_545 S
Eu95 O134 2.462 . S
Eu95 O135 2.373 1_655 S
Eu95 O137 2.432 . S
Eu95 O138 2.291 1_655 S
Eu95 C159 2.787 . S
N96 C92 1.351 . S
N96 Eu95 2.562 1_455 S
N96 C98 1.325 . S
C97 C91 1.404 . S
C97 C99 1.366 . S
C97 H105 0.930 . S
C98 N96 1.325 . S
C98 C99 1.416 . S
C98 H104 0.929 . S
C99 C97 1.366 . S
C99 C98 1.416 . S
C99 H101 0.930 . S
H100 C89 0.930 . S
H101 C99 0.930 . S
H102 C117 0.930 . S
H103 C124 0.930 . S
H104 C98 0.929 . S
H105 C97 0.930 . S
H106 C120 0.929 . S
H107 C87 0.931 . S
H108 C93 0.931 . S
H109 C94 0.931 . S
H110 C115 0.931 . S
H111 C90 0.933 . S
H112 C123 0.930 . S
N113 Eu84 2.600 1_545 S
N113 C114 1.365 1_445 S
N113 C117 1.319 . S
C114 N113 1.365 1_665 S
C114 C116 1.405 . S
C114 C122 1.448 . S
C115 H110 0.931 . S
C115 C117 1.397 . S
C115 C118 1.367 . S
C116 C114 1.405 . S
C116 C118 1.403 1_665 S
C116 C149 1.439 . S
C117 H102 0.930 . S
C117 N113 1.319 . S
C117 C115 1.397 . S
C118 C115 1.367 . S
C118 C116 1.403 1_445 S
C118 H125 0.929 . S
N119 Eu84 2.562 1_655 S
N119 C120 1.325 . S
N119 C122 1.351 . S
C120 H106 0.929 . S
C120 N119 1.325 . S
C120 C124 1.416 . S
C121 C122 1.430 . S
C121 C123 1.404 . S
C121 C150 1.387 . S
C122 C114 1.448 . S
C122 N119 1.351 . S
C122 C121 1.430 . S
C123 H112 0.930 . S
C123 C121 1.404 . S
C123 C124 1.366 . S
C124 H103 0.930 . S
C124 C120 1.416 . S
C124 C123 1.366 . S
H125 C118 0.929 . S
H126 C149 0.931 . S
H127 C150 0.931 . S
O128 Eu84 2.462 . S
O128 C148 1.252 . S
O129 Eu84 2.373 1_655 S
O129 C140 1.249 . S
O130 Eu95 2.335 1_565 S
O130 C140 1.264 . S
O131 Eu84 2.432 1_545 S
O131 C148 1.268 1_545 S
O132 Eu84 2.291 1_655 S
O132 C147 1.255 . S
O133 Eu95 2.372 1_565 S
O133 C147 1.257 . S
O134 Eu95 2.462 . S
O134 C159 1.252 . S
O135 Eu95 2.373 1_455 S
O135 C151 1.249 . S
O136 Eu84 2.335 1_545 S
O136 C151 1.264 . S
O137 Eu95 2.432 . S
O137 C159 1.268 . S
O138 Eu95 2.291 1_455 S
O138 C158 1.255 . S
O139 Eu84 2.372 1_545 S
O139 C158 1.257 . S
C140 O129 1.249 . S
C140 O130 1.264 . S
C141 C144 1.382 . S
C141 C146 1.390 . S
C141 C148 1.506 . S
C142 C143 1.398 . S
C142 C146 1.392 . S
C143 C142 1.398 . S
C143 C145 1.372 . S
C143 H160 0.931 . S
C144 C141 1.382 . S
C144 C145 1.390 . S
C144 H161 0.931 1_565 S
C145 C143 1.372 . S
C145 C144 1.390 . S
C145 H162 0.929 1_565 S
C146 C141 1.390 . S
C146 C142 1.392 . S
C146 H163 0.930 . S
C147 O132 1.255 . S
C147 O133 1.257 . S
C148 Eu84 2.787 . S
C148 O128 1.252 . S
C148 O131 1.268 1_565 S
C148 C141 1.506 . S
C149 C116 1.439 . S
C149 H126 0.931 . S
C149 C150 1.374 . S
C150 C121 1.387 . S
C150 H127 0.931 . S
C150 C149 1.374 . S
C151 O135 1.249 . S
C151 O136 1.264 . S
C152 C155 1.382 . S
C152 C156 1.390 . S
C152 C159 1.506 . S
C153 C154 1.398 . S
C153 C156 1.392 . S
C154 C153 1.398 . S
C154 C157 1.372 . S
C154 H164 0.931 . S
C155 C152 1.382 . S
C155 C157 1.390 . S
C155 H165 0.931 . S
C156 C152 1.390 . S
C156 C153 1.392 . S
C156 H166 0.930 . S
C157 C154 1.372 . S
C157 C155 1.390 . S
C157 H167 0.929 . S
C158 O138 1.255 . S
C158 O139 1.257 . S
C159 Eu95 2.787 . S
C159 O134 1.252 . S
C159 O137 1.268 . S
C159 C152 1.506 . S
H160 C143 0.931 . S
H161 C144 0.931 1_545 S
H162 C145 0.929 1_545 S
H163 C146 0.930 . S
H164 C154 0.931 . S
H165 C155 0.931 . S
H166 C156 0.930 . S
H167 C157 0.929 . S
Zn168 O174 1.920 . S
Zn168 O180 1.898 . S
Zn168 O183 1.905 . S
Zn169 O177 1.905 . S
Zn169 O178 1.898 . S
Zn169 O186 1.920 . S
Zn170 O173 2.080 . S
Zn170 O176 2.114 . S
Zn170 O179 2.120 . S
Zn170 O181 2.120 . S
Zn170 O182 2.114 . S
Zn170 O185 2.080 . S
C171 O176 1.166 . S
C171 O177 1.182 . S
C172 O178 1.167 . S
C172 O179 1.299 . S
O173 Zn170 2.080 . S
O173 C187 1.305 . S
O174 Zn168 1.920 . S
O174 C187 1.234 . S
C175 O180 1.167 . S
C175 O181 1.299 . S
O176 Zn170 2.114 . S
O176 C171 1.166 . S
O177 Zn169 1.905 . S
O177 C171 1.182 . S
O178 Zn169 1.898 . S
O178 C172 1.167 . S
O179 Zn170 2.120 . S
O179 C172 1.299 . S
O180 Zn168 1.898 . S
O180 C175 1.167 . S
O181 Zn170 2.120 . S
O181 C175 1.299 . S
O182 Zn170 2.114 . S
O182 C184 1.166 . S
O183 Zn168 1.905 . S
O183 C184 1.182 . S
C184 O182 1.166 . S
C184 O183 1.182 . S
O185 Zn170 2.080 . S
O185 C188 1.305 . S
O186 Zn169 1.920 . S
O186 C188 1.234 . S
C187 O173 1.305 . S
C187 O174 1.234 . S
C188 O185 1.305 . S
C188 O186 1.234 . S
Zn189 O195 1.920 . S
Zn189 O201 1.898 . S
Zn189 O204 1.905 . S
Zn190 O198 1.905 . S
Zn190 O199 1.898 . S
Zn190 O207 1.920 . S
Zn191 O194 2.080 . S
Zn191 O197 2.114 . S
Zn191 O200 2.120 . S
Zn191 O202 2.120 . S
Zn191 O203 2.114 . S
Zn191 O206 2.080 . S
C192 O197 1.166 . S
C192 O198 1.182 . S
C193 O199 1.167 . S
C193 O200 1.299 . S
O194 Zn191 2.080 . S
O194 C208 1.305 . S
O195 Zn189 1.920 . S
O195 C208 1.234 . S
C196 O201 1.167 . S
C196 O202 1.299 . S
O197 Zn191 2.114 . S
O197 C192 1.166 . S
O198 Zn190 1.905 . S
O198 C192 1.182 . S
O199 Zn190 1.898 . S
O199 C193 1.167 . S
O200 Zn191 2.120 . S
O200 C193 1.299 . S
O201 Zn189 1.898 . S
O201 C196 1.167 . S
O202 Zn191 2.120 . S
O202 C196 1.299 . S
O203 Zn191 2.114 . S
O203 C205 1.166 . S
O204 Zn189 1.905 . S
O204 C205 1.182 . S
C205 O203 1.166 . S
C205 O204 1.182 . S
O206 Zn191 2.080 . S
O206 C209 1.305 . S
O207 Zn190 1.920 . S
O207 C209 1.234 . S
C208 O194 1.305 . S
C208 O195 1.234 . S
C209 O206 1.305 . S
C209 O207 1.234 . S
C210 C211 1.386 . S
C210 C212 1.383 . S
C210 H226 0.951 . S
C211 C210 1.386 . S
C211 C215 1.383 . S
C212 C210 1.383 . S
C212 C213 1.402 . S
C212 H227 0.951 . S
C213 C212 1.402 . S
C213 C214 1.375 . S
C213 C216 1.481 . S
C214 C213 1.375 . S
C214 C215 1.367 . S
C214 H228 0.951 . S
C215 C211 1.383 . S
C215 C214 1.367 . S
C215 H229 0.950 . S
C216 C213 1.481 . S
C216 C217 1.297 . S
C216 H230 0.950 . S
C217 C216 1.297 . S
C217 C218 1.479 . S
C217 H231 0.950 . S
C218 C217 1.479 . S
C218 C219 1.375 . S
C218 C224 1.404 . S
C219 C218 1.375 . S
C219 C220 1.369 . S
C219 H232 0.950 . S
C220 C219 1.369 . S
C220 C221 1.392 . S
C220 H233 0.951 . S
C221 C220 1.392 . S
C221 C223 1.384 . S
H222 C224 0.949 . S
C223 C221 1.384 . S
C223 C224 1.385 . S
C223 H225 0.950 . S
C224 C218 1.404 . S
C224 H222 0.949 . S
C224 C223 1.385 . S
H225 C223 0.950 . S
H226 C210 0.951 . S
H227 C212 0.951 . S
H228 C214 0.951 . S
H229 C215 0.950 . S
H230 C216 0.950 . S
H231 C217 0.950 . S
H232 C219 0.950 . S
H233 C220 0.951 . S
C234 C235 1.386 . S
C234 C236 1.383 . S
C234 H250 0.951 . S
C235 C234 1.386 . S
C235 C239 1.383 . S
C236 C234 1.383 . S
C236 C237 1.402 . S
C236 H251 0.951 . S
C237 C236 1.402 . S
C237 C238 1.375 . S
C237 C240 1.481 . S
C238 C237 1.375 . S
C238 C239 1.367 . S
C238 H252 0.951 . S
C239 C235 1.383 . S
C239 C238 1.367 . S
C239 H253 0.950 . S
C240 C237 1.481 . S
C240 C241 1.297 . S
C240 H254 0.950 . S
C241 C240 1.297 . S
C241 C242 1.479 . S
C241 H255 0.950 . S
C242 C241 1.479 . S
C242 C243 1.375 . S
C242 C248 1.404 . S
C243 C242 1.375 . S
C243 C244 1.369 . S
C243 H256 0.950 . S
C244 C243 1.369 . S
C244 C245 1.392 . S
C244 H257 0.951 . S
C245 C244 1.392 . S
C245 C247 1.384 . S
H246 C248 0.949 . S
C247 C245 1.384 . S
C247 C248 1.385 . S
C247 H249 0.950 . S
C248 C242 1.404 . S
C248 H246 0.949 . S
C248 C247 1.385 . S
H249 C247 0.950 . S
H250 C234 0.951 . S
H251 C236 0.951 . S
H252 C238 0.951 . S
H253 C239 0.950 . S
H254 C240 0.950 . S
H255 C241 0.950 . S
H256 C243 0.950 . S
H257 C244 0.951 . S
C258 C259 1.386 . S
C258 C260 1.383 . S
C258 H274 0.951 . S
C259 C258 1.386 . S
C259 C263 1.383 . S
C260 C258 1.383 . S
C260 C261 1.402 . S
C260 H275 0.951 . S
C261 C260 1.402 . S
C261 C262 1.375 . S
C261 C264 1.481 . S
C262 C261 1.375 . S
C262 C263 1.367 . S
C262 H276 0.951 . S
C263 C259 1.383 . S
C263 C262 1.367 . S
C263 H277 0.950 . S
C264 C261 1.481 . S
C264 C265 1.297 . S
C264 H278 0.950 . S
C265 C264 1.297 . S
C265 C266 1.479 . S
C265 H279 0.950 . S
C266 C265 1.479 . S
C266 C267 1.375 . S
C266 C272 1.404 . S
C267 C266 1.375 . S
C267 C268 1.369 . S
C267 H280 0.950 . S
C268 C267 1.369 . S
C268 C269 1.392 . S
C268 H281 0.951 . S
C269 C268 1.392 . S
C269 C271 1.384 . S
H270 C272 0.949 . S
C271 C269 1.384 . S
C271 C272 1.385 . S
C271 H273 0.950 . S
C272 C266 1.404 . S
C272 H270 0.949 . S
C272 C271 1.385 . S
H273 C271 0.950 . S
H274 C258 0.951 . S
H275 C260 0.951 . S
H276 C262 0.951 . S
H277 C263 0.950 . S
H278 C264 0.950 . S
H279 C265 0.950 . S
H280 C267 0.950 . S
H281 C268 0.951 . S
C282 C283 1.386 . S
C282 C284 1.383 . S
C282 H298 0.951 . S
C283 C282 1.386 . S
C283 C287 1.383 . S
C284 C282 1.383 . S
C284 C285 1.402 . S
C284 H299 0.951 . S
C285 C284 1.402 . S
C285 C286 1.375 . S
C285 C288 1.481 . S
C286 C285 1.375 . S
C286 C287 1.367 . S
C286 H300 0.951 . S
C287 C283 1.383 . S
C287 C286 1.367 . S
C287 H301 0.950 . S
C288 C285 1.481 . S
C288 C289 1.297 . S
C288 H302 0.950 . S
C289 C288 1.297 . S
C289 C290 1.479 . S
C289 H303 0.950 . S
C290 C289 1.479 . S
C290 C291 1.375 . S
C290 C296 1.404 . S
C291 C290 1.375 . S
C291 C292 1.369 . S
C291 H304 0.950 . S
C292 C291 1.369 . S
C292 C293 1.392 . S
C292 H305 0.951 . S
C293 C292 1.392 . S
C293 C295 1.384 . S
H294 C296 0.949 . S
C295 C293 1.384 . S
C295 C296 1.385 . S
C295 H297 0.950 . S
C296 C290 1.404 . S
C296 H294 0.949 . S
C296 C295 1.385 . S
H297 C295 0.950 . S
H298 C282 0.951 . S
H299 C284 0.951 . S
H300 C286 0.951 . S
H301 C287 0.950 . S
H302 C288 0.950 . S
H303 C289 0.950 . S
H304 C291 0.950 . S
H305 C292 0.951 . S
C306 C307 1.386 . S
C306 C308 1.383 . S
C306 H322 0.951 . S
C307 C306 1.386 . S
C307 C311 1.383 . S
C308 C306 1.383 . S
C308 C309 1.402 . S
C308 H323 0.951 . S
C309 C308 1.402 . S
C309 C310 1.375 . S
C309 C312 1.481 . S
C310 C309 1.375 . S
C310 C311 1.367 . S
C310 H324 0.951 . S
C311 C307 1.383 . S
C311 C310 1.367 . S
C311 H325 0.950 . S
C312 C309 1.481 . S
C312 C313 1.297 . S
C312 H326 0.950 . S
C313 C312 1.297 . S
C313 C314 1.479 . S
C313 H327 0.950 . S
C314 C313 1.479 . S
C314 C315 1.375 . S
C314 C320 1.404 . S
C315 C314 1.375 . S
C315 C316 1.369 . S
C315 H328 0.950 . S
C316 C315 1.369 . S
C316 C317 1.392 . S
C316 H329 0.951 . S
C317 C316 1.392 . S
C317 C319 1.384 . S
H318 C320 0.949 . S
C319 C317 1.384 . S
C319 C320 1.385 . S
C319 H321 0.950 . S
C320 C314 1.404 . S
C320 H318 0.949 . S
C320 C319 1.385 . S
H321 C319 0.950 . S
H322 C306 0.951 . S
H323 C308 0.951 . S
H324 C310 0.951 . S
H325 C311 0.950 . S
H326 C312 0.950 . S
H327 C313 0.950 . S
H328 C315 0.950 . S
H329 C316 0.951 . S
C330 C331 1.386 . S
C330 C332 1.383 . S
C330 H346 0.951 . S
C331 C330 1.386 . S
C331 C335 1.383 . S
C332 C330 1.383 . S
C332 C333 1.402 . S
C332 H347 0.951 . S
C333 C332 1.402 . S
C333 C334 1.375 . S
C333 C336 1.481 . S
C334 C333 1.375 . S
C334 C335 1.367 . S
C334 H348 0.951 . S
C335 C331 1.383 . S
C335 C334 1.367 . S
C335 H349 0.950 . S
C336 C333 1.481 . S
C336 C337 1.297 . S
C336 H350 0.950 . S
C337 C336 1.297 . S
C337 C338 1.479 . S
C337 H351 0.950 . S
C338 C337 1.479 . S
C338 C339 1.375 . S
C338 C344 1.404 . S
C339 C338 1.375 . S
C339 C340 1.369 . S
C339 H352 0.950 . S
C340 C339 1.369 . S
C340 C341 1.392 . S
C340 H353 0.951 . S
C341 C340 1.392 . S
C341 C343 1.384 . S
H342 C344 0.949 . S
C343 C341 1.384 . S
C343 C344 1.385 . S
C343 H345 0.950 . S
C344 C338 1.404 . S
C344 H342 0.949 . S
C344 C343 1.385 . S
H345 C343 0.950 . S
H346 C330 0.951 . S
H347 C332 0.951 . S
H348 C334 0.951 . S
H349 C335 0.950 . S
H350 C336 0.950 . S
H351 C337 0.950 . S
H352 C339 0.950 . S
H353 C340 0.951 . S
C354 C355 1.386 . S
C354 C356 1.383 . S
C354 H370 0.951 . S
C355 C354 1.386 . S
C355 C359 1.383 . S
C356 C354 1.383 . S
C356 C357 1.402 . S
C356 H371 0.951 . S
C357 C356 1.402 . S
C357 C358 1.375 . S
C357 C360 1.481 . S
C358 C357 1.375 . S
C358 C359 1.367 . S
C358 H372 0.951 . S
C359 C355 1.383 . S
C359 C358 1.367 . S
C359 H373 0.950 . S
C360 C357 1.481 . S
C360 C361 1.297 . S
C360 H374 0.950 . S
C361 C360 1.297 . S
C361 C362 1.479 . S
C361 H375 0.950 . S
C362 C361 1.479 . S
C362 C363 1.375 . S
C362 C368 1.404 . S
C363 C362 1.375 . S
C363 C364 1.369 . S
C363 H376 0.950 . S
C364 C363 1.369 . S
C364 C365 1.392 . S
C364 H377 0.951 . S
C365 C364 1.392 . S
C365 C367 1.384 . S
H366 C368 0.949 . S
C367 C365 1.384 . S
C367 C368 1.385 . S
C367 H369 0.950 . S
C368 C362 1.404 . S
C368 H366 0.949 . S
C368 C367 1.385 . S
H369 C367 0.950 . S
H370 C354 0.951 . S
H371 C356 0.951 . S
H372 C358 0.951 . S
H373 C359 0.950 . S
H374 C360 0.950 . S
H375 C361 0.950 . S
H376 C363 0.950 . S
H377 C364 0.951 . S
C378 C379 1.386 . S
C378 C380 1.383 . S
C378 H394 0.951 . S
C379 C378 1.386 . S
C379 C383 1.383 . S
C380 C378 1.383 . S
C380 C381 1.402 . S
C380 H395 0.951 . S
C381 C380 1.402 . S
C381 C382 1.375 . S
C381 C384 1.481 . S
C382 C381 1.375 . S
C382 C383 1.367 . S
C382 H396 0.951 . S
C383 C379 1.383 . S
C383 C382 1.367 . S
C383 H397 0.950 . S
C384 C381 1.481 . S
C384 C385 1.297 . S
C384 H398 0.950 . S
C385 C384 1.297 . S
C385 C386 1.479 . S
C385 H399 0.950 . S
C386 C385 1.479 . S
C386 C387 1.375 . S
C386 C392 1.404 . S
C387 C386 1.375 . S
C387 C388 1.369 . S
C387 H400 0.950 . S
C388 C387 1.369 . S
C388 C389 1.392 . S
C388 H401 0.951 . S
C389 C388 1.392 . S
C389 C391 1.384 . S
H390 C392 0.949 . S
C391 C389 1.384 . S
C391 C392 1.385 . S
C391 H393 0.950 . S
C392 C386 1.404 . S
C392 H390 0.949 . S
C392 C391 1.385 . S
H393 C391 0.950 . S
H394 C378 0.951 . S
H395 C380 0.951 . S
H396 C382 0.951 . S
H397 C383 0.950 . S
H398 C384 0.950 . S
H399 C385 0.950 . S
H400 C387 0.950 . S
H401 C388 0.951 . S
C402 C403 1.386 . S
C402 C404 1.383 . S
C402 H418 0.951 . S
C403 C402 1.386 . S
C403 C407 1.383 . S
C404 C402 1.383 . S
C404 C405 1.402 . S
C404 H419 0.951 . S
C405 C404 1.402 . S
C405 C406 1.375 . S
C405 C408 1.481 . S
C406 C405 1.375 . S
C406 C407 1.367 . S
C406 H420 0.951 . S
C407 C403 1.383 . S
C407 C406 1.367 . S
C407 H421 0.950 . S
C408 C405 1.481 . S
C408 C409 1.297 . S
C408 H422 0.950 . S
C409 C408 1.297 . S
C409 C410 1.479 . S
C409 H423 0.950 . S
C410 C409 1.479 . S
C410 C411 1.375 . S
C410 C416 1.404 . S
C411 C410 1.375 . S
C411 C412 1.369 . S
C411 H424 0.950 . S
C412 C411 1.369 . S
C412 C413 1.392 . S
C412 H425 0.951 . S
C413 C412 1.392 . S
C413 C415 1.384 . S
H414 C416 0.949 . S
C415 C413 1.384 . S
C415 C416 1.385 . S
C415 H417 0.950 . S
C416 C410 1.404 . S
C416 H414 0.949 . S
C416 C415 1.385 . S
H417 C415 0.950 . S
H418 C402 0.951 . S
H419 C404 0.951 . S
H420 C406 0.951 . S
H421 C407 0.950 . S
H422 C408 0.950 . S
H423 C409 0.950 . S
H424 C411 0.950 . S
H425 C412 0.951 . S
C426 C427 1.386 . S
C426 C428 1.383 . S
C426 H442 0.951 . S
C427 C426 1.386 . S
C427 C431 1.383 . S
C428 C426 1.383 . S
C428 C429 1.402 . S
C428 H443 0.951 . S
C429 C428 1.402 . S
C429 C430 1.375 . S
C429 C432 1.481 . S
C430 C429 1.375 . S
C430 C431 1.367 . S
C430 H444 0.951 . S
C431 C427 1.383 . S
C431 C430 1.367 . S
C431 H445 0.950 . S
C432 C429 1.481 . S
C432 C433 1.297 . S
C432 H446 0.950 . S
C433 C432 1.297 . S
C433 C434 1.479 . S
C433 H447 0.950 . S
C434 C433 1.479 . S
C434 C435 1.375 . S
C434 C440 1.404 . S
C435 C434 1.375 . S
C435 C436 1.369 . S
C435 H448 0.950 . S
C436 C435 1.369 . S
C436 C437 1.392 . S
C436 H449 0.951 . S
C437 C436 1.392 . S
C437 C439 1.384 . S
H438 C440 0.949 . S
C439 C437 1.384 . S
C439 C440 1.385 . S
C439 H441 0.950 . S
C440 C434 1.404 . S
C440 H438 0.949 . S
C440 C439 1.385 . S
H441 C439 0.950 . S
H442 C426 0.951 . S
H443 C428 0.951 . S
H444 C430 0.951 . S
H445 C431 0.950 . S
H446 C432 0.950 . S
H447 C433 0.950 . S
H448 C435 0.950 . S
H449 C436 0.951 . S
C450 C451 1.386 . S
C450 C452 1.383 . S
C450 H466 0.951 . S
C451 C450 1.386 . S
C451 C455 1.383 . S
C452 C450 1.383 . S
C452 C453 1.402 . S
C452 H467 0.951 . S
C453 C452 1.402 . S
C453 C454 1.375 . S
C453 C456 1.481 . S
C454 C453 1.375 . S
C454 C455 1.367 . S
C454 H468 0.951 . S
C455 C451 1.383 . S
C455 C454 1.367 . S
C455 H469 0.950 . S
C456 C453 1.481 . S
C456 C457 1.297 . S
C456 H470 0.950 . S
C457 C456 1.297 . S
C457 C458 1.479 . S
C457 H471 0.950 . S
C458 C457 1.479 . S
C458 C459 1.375 . S
C458 C464 1.404 . S
C459 C458 1.375 . S
C459 C460 1.369 . S
C459 H472 0.950 . S
C460 C459 1.369 . S
C460 C461 1.392 . S
C460 H473 0.951 . S
C461 C460 1.392 . S
C461 C463 1.384 . S
H462 C464 0.949 . S
C463 C461 1.384 . S
C463 C464 1.385 . S
C463 H465 0.950 . S
C464 C458 1.404 . S
C464 H462 0.949 . S
C464 C463 1.385 . S
H465 C463 0.950 . S
H466 C450 0.951 . S
H467 C452 0.951 . S
H468 C454 0.951 . S
H469 C455 0.950 . S
H470 C456 0.950 . S
H471 C457 0.950 . S
H472 C459 0.950 . S
H473 C460 0.951 . S
C474 C475 1.386 . S
C474 C476 1.383 . S
C474 H490 0.951 . S
C475 C474 1.386 . S
C475 C479 1.383 . S
C476 C474 1.383 . S
C476 C477 1.402 . S
C476 H491 0.951 . S
C477 C476 1.402 . S
C477 C478 1.375 . S
C477 C480 1.481 . S
C478 C477 1.375 . S
C478 C479 1.367 . S
C478 H492 0.951 . S
C479 C475 1.383 . S
C479 C478 1.367 . S
C479 H493 0.950 . S
C480 C477 1.481 . S
C480 C481 1.297 . S
C480 H494 0.950 . S
C481 C480 1.297 . S
C481 C482 1.479 . S
C481 H495 0.950 . S
C482 C481 1.479 . S
C482 C483 1.375 . S
C482 C488 1.404 . S
C483 C482 1.375 . S
C483 C484 1.369 . S
C483 H496 0.950 . S
C484 C483 1.369 . S
C484 C485 1.392 . S
C484 H497 0.951 . S
C485 C484 1.392 . S
C485 C487 1.384 . S
H486 C488 0.949 . S
C487 C485 1.384 . S
C487 C488 1.385 . S
C487 H489 0.950 . S
C488 C482 1.404 . S
C488 H486 0.949 . S
C488 C487 1.385 . S
H489 C487 0.950 . S
H490 C474 0.951 . S
H491 C476 0.951 . S
H492 C478 0.951 . S
H493 C479 0.950 . S
H494 C480 0.950 . S
H495 C481 0.950 . S
H496 C483 0.950 . S
H497 C484 0.951 . S
C211 C58 1.199 . S
C221 C187 1.173 . S
C235 C151 1.525 . S
C245 C193 1.353 . S
C259 C56 1.591 . S
C269 C184 1.503 . S
C283 C153 1.246 . S
C293 C209 1.326 . S
C307 C74 1.568 . S
C317 C175 1.366 . S
C341 C192 1.546 . S
C331 C147 1.596 . S
C355 C142 1.130 . S
C365 C188 1.249 . S
C389 C205 1.480 . S
C379 C63 1.618 . S
C413 C172 1.489 . S
C403 C158 1.589 . S
C437 C208 1.315 . S
C427 C69 1.187 . S
C461 C171 1.500 . S
C451 C140 1.590 . S
C485 C196 1.438 . S
C475 C67 1.530 . S
