# Generated by pormake.
# Topology apo, (3,6)-cn, num edge types: 1
# Building blocks:
#     Node 0, Type 0, BuildingBlock: WUSLED_clean_sbu_0, # of connection points: 3
#     Node 1, Type 0, BuildingBlock: WUSLED_clean_sbu_0, # of connection points: 3
#     Node 2, Type 0, BuildingBlock: WUSLED_clean_sbu_0, # of connection points: 3
#     Node 3, Type 0, BuildingBlock: WUSLED_clean_sbu_0, # of connection points: 3
#     Node 4, Type 0, BuildingBlock: WUSLED_clean_sbu_0, # of connection points: 3
#     Node 5, Type 0, BuildingBlock: WUSLED_clean_sbu_0, # of connection points: 3
#     Node 6, Type 0, BuildingBlock: WUSLED_clean_sbu_0, # of connection points: 3
#     Node 7, Type 0, BuildingBlock: WUSLED_clean_sbu_0, # of connection points: 3
#     Node 8, Type 1, BuildingBlock: KUMBOL_clean_sbu_1, # of connection points: 6
#     Node 9, Type 1, BuildingBlock: KUMBOL_clean_sbu_1, # of connection points: 6
#     Node 10, Type 1, BuildingBlock: KUMBOL_clean_sbu_1, # of connection points: 6
#     Node 11, Type 1, BuildingBlock: KUMBOL_clean_sbu_1, # of connection points: 6
#     Edge 12, Type (0, 1), None
#     Edge 13, Type (0, 1), None
#     Edge 14, Type (0, 1), None
#     Edge 15, Type (0, 1), None
#     Edge 16, Type (0, 1), None
#     Edge 17, Type (0, 1), None
#     Edge 18, Type (0, 1), None
#     Edge 19, Type (0, 1), None
#     Edge 20, Type (0, 1), None
#     Edge 21, Type (0, 1), None
#     Edge 22, Type (0, 1), None
#     Edge 23, Type (0, 1), None
#     Edge 24, Type (0, 1), None
#     Edge 25, Type (0, 1), None
#     Edge 26, Type (0, 1), None
#     Edge 27, Type (0, 1), None
#     Edge 28, Type (0, 1), None
#     Edge 29, Type (0, 1), None
#     Edge 30, Type (0, 1), None
#     Edge 31, Type (0, 1), None
#     Edge 32, Type (0, 1), None
#     Edge 33, Type (0, 1), None
#     Edge 34, Type (0, 1), None
#     Edge 35, Type (0, 1), None
# Relax obj value: 0.007
# Max RMSD: 0.134
# Mean RMSD: 0.099
data_MOF--net-apo--node1-WUSLED_clean_sbu_0--node2-KUMBOL_clean_sbu_1--edge1-none
_symmetry_space_group_name_H-M    P1
_symmetry_Int_Tables_number       1
_symmetry_cell_setting            triclinic
loop_
_symmetry_equiv_pos_as_xyz
'x, y, z'
_cell_length_a     18.636761
_cell_length_b     31.2712
_cell_length_c     40.354097
_cell_angle_alpha  90.454174
_cell_angle_beta   89.76232
_cell_angle_gamma 90.926342
loop_
_atom_site_label
_atom_site_type_symbol
_atom_site_fract_x
_atom_site_fract_y
_atom_site_fract_z
_atom_type_partial_charge
C0 C 0.32889 0.4654 0.35651 0.0
C1 C 0.32732 0.50365 0.37509 0.0
C2 C 0.40074 0.53951 0.33329 0.0
C3 C 0.36314 0.54051 0.36354 0.0
C4 C 0.40425 0.50074 0.31556 0.0
C5 C 0.36838 0.46418 0.32694 0.0
U6 U 0.25292 0.38818 0.4222 0.0
O7 O 0.14959 0.35315 0.42351 0.0
O8 O 0.25008 0.3177 0.42168 0.0
C9 C 0.17967 0.31563 0.41975 0.0
C10 C 0.28916 0.4265 0.3668 0.0
C11 C 0.14891 0.28653 0.39392 0.0
C12 C 0.1533 0.21952 0.3626 0.0
C13 C 0.18398 0.24847 0.38532 0.0
C14 C 0.05184 0.26596 0.35635 0.0
C15 C 0.08675 0.22785 0.34798 0.0
C16 C 0.08236 0.29488 0.37912 0.0
C17 C 0.28475 0.41523 0.5147 0.0
C18 C 0.23963 0.3735 0.56113 0.0
C19 C 0.31158 0.43746 0.57118 0.0
C20 C 0.31761 0.44383 0.53704 0.0
C21 C 0.27249 0.40224 0.58373 0.0
C22 C 0.24575 0.37993 0.52688 0.0
C23 C 0.29152 0.42334 0.47894 0.0
O24 O 0.32778 0.39649 0.38025 0.0
O25 O 0.22733 0.43222 0.38188 0.0
O26 O 0.23186 0.43263 0.46351 0.0
O27 O 0.33217 0.39687 0.46211 0.0
H28 H 0.29762 0.50521 0.39818 0.0
H29 H 0.35974 0.56997 0.37773 0.0
H30 H 0.43467 0.49867 0.2927 0.0
H31 H 0.37089 0.43495 0.3124 0.0
H32 H 0.18104 0.19017 0.35703 0.0
H33 H 0.23473 0.24067 0.39658 0.0
H34 H 1.00062 0.2734 0.34538 0.0
H35 H 0.05326 0.32356 0.38536 0.0
H36 H 0.20984 0.34577 0.56989 0.0
H37 H 0.33667 0.46057 0.58777 0.0
H38 H 0.34771 0.47135 0.52805 0.0
H39 H 0.22012 0.35746 0.50993 0.0
C40 C 0.2478 0.16205 1.01965 0.0
C41 C 0.22527 0.1194 1.02379 0.0
C42 C 0.22981 0.12792 0.08389 0.0
C43 C 0.21657 0.1025 0.05555 0.0
C44 C 0.2489 0.17126 0.07969 0.0
C45 C 0.2582 0.18812 0.04777 0.0
U46 U 0.24271 0.14658 0.92647 0.0
O47 O 0.22649 0.19122 0.88522 0.0
O48 O 0.32639 0.15533 0.88842 0.0
C49 C 0.29118 0.18527 0.87296 0.0
C50 C 0.26442 0.17835 0.98619 0.0
C51 C 0.33362 0.22362 0.86259 0.0
C52 C 0.34084 0.29866 0.84654 0.0
C53 C 0.30193 0.26399 0.85975 0.0
C54 C 0.44403 0.25366 0.83904 0.0
C55 C 0.41179 0.29361 0.83545 0.0
C56 C 0.40529 0.21904 0.85223 0.0
C57 C 0.14942 0.04067 0.8973 0.0
C58 C 0.10957 0.02003 0.84199 0.0
C59 C 0.10722 0.96812 0.8862 0.0
C60 C 0.13477 0.99897 0.90807 0.0
C61 C 0.09385 0.97827 0.85293 0.0
C62 C 0.13734 0.05104 0.864 0.0
C63 C 0.17416 0.07262 0.92191 0.0
O64 O 0.31254 0.15634 0.96972 0.0
O65 O 0.20885 0.18817 0.96795 0.0
O66 O 0.14172 0.10965 0.922 0.0
O67 O 0.24385 0.07612 0.92618 0.0
H68 H 0.21644 0.09881 1.00242 0.0
H69 H 0.20096 0.06914 0.05798 0.0
H70 H 0.25976 0.19154 0.10102 0.0
H71 H 0.27548 0.22116 0.04506 0.0
H72 H 0.31498 0.32928 0.84453 0.0
H73 H 0.24663 0.26867 0.86706 0.0
H74 H 0.49862 0.24875 0.83067 0.0
H75 H 0.43104 0.18829 0.85354 0.0
H76 H 0.09847 0.02908 0.81676 0.0
H77 H 0.09597 0.9363 0.8955 0.0
H78 H 0.14369 0.99036 0.93368 0.0
H79 H 0.14811 0.08316 0.85522 0.0
C80 C 0.84623 0.07015 0.73138 0.0
C81 C 0.89012 0.04517 0.71089 0.0
C82 C 0.90159 0.99255 0.75487 0.0
C83 C 0.91748 1.00661 0.72251 0.0
C84 C 0.85578 0.01729 0.77482 0.0
C85 C 0.82852 0.05568 0.76317 0.0
U86 U 0.81547 0.15921 0.66734 0.0
O87 O 0.72326 0.2017 0.66293 0.0
O88 O 0.8296 0.22874 0.67481 0.0
C89 C 0.76071 0.23593 0.67165 0.0
C90 C 0.82091 0.11226 0.72099 0.0
C91 C 0.72798 0.26341 0.69724 0.0
C92 C 0.66394 0.27331 0.74952 0.0
C93 C 0.70173 0.24694 0.72738 0.0
C94 C 0.68139 0.33293 0.71222 0.0
C95 C 0.65171 0.31628 0.74159 0.0
C96 C 0.71918 0.30677 0.69033 0.0
C97 C 0.87096 0.14528 0.57577 0.0
C98 C 0.84942 0.19802 0.53306 0.0
C99 C 0.91358 0.1335 0.51937 0.0
C100 C 0.90645 0.11996 0.55225 0.0
C101 C 0.88527 0.17276 0.50927 0.0
C102 C 0.84236 0.18441 0.56597 0.0
C103 C 0.86426 0.13018 0.61024 0.0
O104 O 0.87116 0.14015 0.71264 0.0
O105 O 0.76533 0.11222 0.70105 0.0
O106 O 0.79851 0.12295 0.62096 0.0
O107 O 0.90488 0.1501 0.6322 0.0
H108 H 0.90422 0.05587 0.6862 0.0
H109 H 0.9522 0.98833 0.70636 0.0
H110 H 0.84196 1.00756 0.79978 0.0
H111 H 0.79461 0.07456 0.77931 0.0
H112 H 0.64093 0.25957 0.77179 0.0
H113 H 0.70822 0.21346 0.73319 0.0
H114 H 0.67298 0.36596 0.70553 0.0
H115 H 0.73933 0.32013 0.66734 0.0
H116 H 0.82611 0.22816 0.52618 0.0
H117 H 0.94242 0.11347 0.50201 0.0
H118 H 0.92902 0.08967 0.55935 0.0
H119 H 0.81453 0.20437 0.58376 0.0
C120 C 0.62194 0.38168 0.08065 0.0
C121 C 0.58328 0.40578 0.05792 0.0
C122 C 0.60127 0.35152 1.01502 0.0
C123 C 0.57296 0.39089 1.02548 0.0
C124 C 0.6397 0.32727 1.03807 0.0
C125 C 0.64998 0.34224 0.07059 0.0
U126 U 0.69274 0.37246 0.16955 0.0
O127 O 0.78568 0.33117 0.16155 0.0
O128 O 0.68285 0.30311 0.1779 0.0
C129 C 0.75114 0.29671 0.17176 0.0
C130 C 0.63309 0.39855 0.11448 0.0
C131 C 0.78934 0.27038 0.19582 0.0
C132 C 0.85037 0.20433 0.20717 0.0
C133 C 0.80956 0.22927 0.18614 0.0
C134 C 0.84926 0.26061 0.24877 0.0
C135 C 0.87168 0.2199 0.23845 0.0
C136 C 0.80837 0.28584 0.22748 0.0
C137 C 0.66823 0.46387 0.23262 0.0
C138 C 0.65433 0.5176 0.27577 0.0
C139 C 0.59798 0.5272 0.22239 0.0
C140 C 0.62652 0.48842 0.21132 0.0
C141 C 0.61043 0.54187 0.25501 0.0
C142 C 0.68281 0.479 0.26466 0.0
C143 C 0.69441 0.4216 0.22263 0.0
O144 O 0.70001 0.40738 0.12251 0.0
O145 O 0.59717 0.37891 0.13814 0.0
O146 O 0.64441 0.39242 0.21683 0.0
O147 O 0.7466 0.42137 0.20063 0.0
H148 H 0.56105 0.43624 0.06527 0.0
H149 H 0.54212 0.41011 1.00867 0.0
H150 H 0.66289 0.29705 1.03085 0.0
H151 H 0.68018 0.32323 0.08782 0.0
H152 H 0.86645 0.17297 0.19863 0.0
H153 H 0.79514 0.21675 0.16191 0.0
H154 H 0.86552 0.27347 0.27264 0.0
H155 H 0.79306 0.31762 0.23534 0.0
H156 H 0.66548 0.52779 0.30096 0.0
H157 H 0.56473 0.54504 0.20564 0.0
H158 H 0.61488 0.47716 0.18642 0.0
H159 H 0.71505 0.46045 0.2814 0.0
C160 C 0.67603 0.5657 0.72661 0.0
C161 C 0.67726 0.52761 0.70782 0.0
C162 C 0.60473 0.49136 0.74974 0.0
C163 C 0.64171 0.49064 0.71932 0.0
C164 C 0.60152 0.52997 0.76769 0.0
C165 C 0.63713 0.56665 0.75635 0.0
U166 U 0.75155 0.64296 0.66091 0.0
O167 O 0.75405 0.71344 0.66132 0.0
O168 O 0.85472 0.67816 0.65954 0.0
C169 C 0.82446 0.71563 0.66324 0.0
C170 C 0.71551 0.60468 0.71634 0.0
C171 C 0.85512 0.74485 0.68903 0.0
C172 C 0.85 0.81163 0.72059 0.0
C173 C 0.81945 0.7826 0.6979 0.0
C174 C 0.95253 0.7659 0.72625 0.0
C175 C 0.91699 0.80369 0.73492 0.0
C176 C 0.92216 0.7369 0.70349 0.0
C177 C 0.72002 0.61575 0.56847 0.0
C178 C 0.76508 0.6576 0.52209 0.0
C179 C 0.69353 0.59349 0.51196 0.0
C180 C 0.68741 0.58709 0.54609 0.0
C181 C 0.73246 0.6288 0.49946 0.0
C182 C 0.75886 0.65113 0.55633 0.0
C183 C 0.71317 0.60762 0.60421 0.0
O184 O 0.7774 0.59908 0.70129 0.0
O185 O 0.67672 0.63459 0.70285 0.0
O186 O 0.67236 0.63403 0.62101 0.0
O187 O 0.77285 0.59845 0.61967 0.0
H188 H 0.7065 0.52627 0.68459 0.0
H189 H 0.64487 0.4613 0.70497 0.0
H190 H 0.57157 0.53183 0.79069 0.0
H191 H 0.63487 0.59576 0.77105 0.0
H192 H 0.82177 0.84075 0.72637 0.0
H193 H 0.76832 0.7901 0.68688 0.0
H194 H 0.0041 0.75875 0.73698 0.0
H195 H 0.95173 0.70849 0.69703 0.0
H196 H 0.79473 0.68539 0.51336 0.0
H197 H 0.66863 0.57034 0.49534 0.0
H198 H 0.65743 0.55951 0.55505 0.0
H199 H 0.78429 0.67364 0.57331 0.0
C200 C 0.75666 0.8692 0.06338 0.0
C201 C 0.77946 0.91181 0.05929 0.0
C202 C 0.77464 0.90346 0.99919 0.0
C203 C 0.78815 0.92878 1.02755 0.0
C204 C 0.75527 0.86016 1.00333 0.0
C205 C 0.74598 0.84323 1.03523 0.0
U206 U 0.76169 0.88475 0.15652 0.0
O207 O 0.67816 0.87583 0.19461 0.0
O208 O 0.77834 0.84022 0.1978 0.0
C209 C 0.71362 0.846 0.21008 0.0
C210 C 0.74011 0.85286 0.09683 0.0
C211 C 0.6715 0.80753 0.22047 0.0
C212 C 0.5612 0.77712 0.24385 0.0
C213 C 0.59966 0.81185 0.23065 0.0
C214 C 0.66504 0.73255 0.23672 0.0
C215 C 0.59389 0.73733 0.24762 0.0
C216 C 0.70366 0.76733 0.2235 0.0
C217 C 0.85447 0.99089 0.18552 0.0
C218 C 0.89382 1.01173 0.24086 0.0
C219 C 0.89688 0.06343 0.19651 0.0
C220 C 0.86943 0.03251 0.17466 0.0
C221 C 0.90982 0.05342 0.22984 0.0
C222 C 0.86615 0.98066 0.21888 0.0
C223 C 0.82982 0.95886 0.16096 0.0
O224 O 0.79574 0.84316 0.11507 0.0
O225 O 0.69186 0.87477 0.11329 0.0
O226 O 0.76013 0.9552 0.15677 0.0
O227 O 0.86248 0.92191 0.16088 0.0
H228 H 0.78849 0.93232 0.08068 0.0
H229 H 0.80397 0.96211 1.02517 0.0
H230 H 0.74419 0.83996 0.98197 0.0
H231 H 0.72848 0.81022 1.03789 0.0
H232 H 0.50646 0.78183 0.25207 0.0
H233 H 0.57354 0.84247 0.22919 0.0
H234 H 0.69124 0.70206 0.23886 0.0
H235 H 0.75911 0.76285 0.21634 0.0
H236 H 0.90461 1.00278 0.26615 0.0
H237 H 0.90837 0.09518 0.18715 0.0
H238 H 0.86083 0.04101 0.14901 0.0
H239 H 0.85515 0.94859 0.22773 0.0
C240 C 0.15648 0.96131 0.35137 0.0
C241 C 0.11158 0.98586 0.37171 0.0
C242 C 0.10112 0.03902 0.32803 0.0
C243 C 0.08423 0.02449 0.36017 0.0
C244 C 0.14796 1.0147 0.30827 0.0
C245 C 0.17521 0.97628 0.31985 0.0
U246 U 0.18716 0.87121 0.4147 0.0
O247 O 0.17334 0.80177 0.40651 0.0
O248 O 0.27949 0.82878 0.41877 0.0
C249 C 0.24218 0.79459 0.40986 0.0
C250 C 0.18176 0.91909 0.36155 0.0
C251 C 0.27543 0.76711 0.38443 0.0
C252 C 0.34086 0.75718 0.33254 0.0
C253 C 0.30224 0.78353 0.35438 0.0
C254 C 0.32322 0.69772 0.36998 0.0
C255 C 0.3534 0.71431 0.34071 0.0
C256 C 0.28457 0.72383 0.39155 0.0
C257 C 0.1325 0.88259 0.50694 0.0
C258 C 0.07584 0.83679 0.54851 0.0
C259 C 0.16619 0.8889 0.56519 0.0
C260 C 0.17356 0.90202 0.53221 0.0
C261 C 0.11707 0.85615 0.57387 0.0
C262 C 0.08341 0.84981 0.51551 0.0
C263 C 0.13889 0.89847 0.47236 0.0
O264 O 0.23726 0.91886 0.38153 0.0
O265 O 0.13151 0.89104 0.36961 0.0
O266 O 0.09782 0.87991 0.44984 0.0
O267 O 0.2043 0.90665 0.46153 0.0
H268 H 0.09666 0.97478 0.3962 0.0
H269 H 0.04872 0.04242 0.37618 0.0
H270 H 0.16261 0.0248 0.28351 0.0
H271 H 0.20991 0.95774 0.30383 0.0
H272 H 0.36423 0.77087 0.31033 0.0
H273 H 0.29557 0.81694 0.34844 0.0
H274 H 0.33185 0.66476 0.37683 0.0
H275 H 0.26405 0.71053 0.4145 0.0
H276 H 0.03662 0.81196 0.5542 0.0
H277 H 0.19958 0.90422 0.58385 0.0
H278 H 0.21134 0.92762 0.52648 0.0
H279 H 0.05019 0.83439 0.49683 0.0
C280 C 0.38056 0.65234 1.00251 0.0
C281 C 0.33934 0.63555 1.02874 0.0
C282 C 0.4018 0.68192 0.06848 0.0
C283 C 0.34952 0.65027 0.06124 0.0
C284 C 0.44285 0.6989 0.04219 0.0
C285 C 0.43246 0.68427 1.00963 0.0
U286 U 0.31319 0.65935 0.91257 0.0
O287 O 0.32261 0.72863 0.90379 0.0
O288 O 0.21982 0.7004 0.92003 0.0
C289 C 0.25426 0.73492 0.90989 0.0
C290 C 0.37101 0.63479 0.96844 0.0
C291 C 0.21593 0.76132 0.88596 0.0
C292 C 0.15431 0.8273 0.87508 0.0
C293 C 0.19565 0.80234 0.89585 0.0
C294 C 0.15505 0.77124 0.83329 0.0
C295 C 0.13256 0.81184 0.84384 0.0
C296 C 0.19644 0.74598 0.85434 0.0
C297 C 0.33886 0.56721 0.85013 0.0
C298 C 0.35115 0.51265 0.80751 0.0
C299 C 0.41051 0.50442 0.86034 0.0
C300 C 0.38202 0.54329 0.87126 0.0
C301 C 0.39653 0.48903 0.82804 0.0
C302 C 0.32274 0.55133 0.81847 0.0
C303 C 0.31262 0.60957 0.85985 0.0
O304 O 0.40795 0.65329 0.9445 0.0
O305 O 0.30483 0.62482 0.95979 0.0
O306 O 0.26002 0.61002 0.88163 0.0
O307 O 0.36252 0.63882 0.86566 0.0
H308 H 0.29933 0.6107 1.02416 0.0
H309 H 0.31614 0.63684 0.08069 0.0
H310 H 0.48427 0.72286 0.04684 0.0
H311 H 0.4658 0.69767 0.99014 0.0
H312 H 0.1382 0.85859 0.88378 0.0
H313 H 0.21038 0.81475 0.92008 0.0
H314 H 0.13846 0.75849 0.80944 0.0
H315 H 0.21175 0.71425 0.84633 0.0
H316 H 0.33876 0.50189 0.78258 0.0
H317 H 0.44492 0.48709 0.87691 0.0
H318 H 0.39482 0.55512 0.89588 0.0
H319 H 0.28934 0.56936 0.80188 0.0
C320 C 0.76207 0.112 0.29622 0.0
C321 C 0.74552 0.03512 0.30007 0.0
C322 C 0.78811 0.07235 0.30452 0.0
C323 C 0.67803 0.03814 0.28498 0.0
C324 C 0.69254 0.11551 0.28297 0.0
C325 C 0.65163 0.07828 0.27637 0.0
N326 N 0.80219 0.1473 0.3039 0.0
C327 C 0.77294 0.187 0.30217 0.0
C328 C 0.66498 0.15637 0.27821 0.0
C329 C 0.70484 0.19225 0.28848 0.0
Gd330 Gd 0.07975 0.14988 0.25507 0.0
Gd331 Gd 0.91917 0.13498 0.32329 0.0
N332 N 0.8534 0.07059 0.31907 0.0
C333 C 0.77088 0.99633 0.31217 0.0
C334 C 0.87625 0.03358 0.33304 0.0
C335 C 0.83586 0.99574 0.32935 0.0
H336 H 0.92665 0.03323 0.34615 0.0
H337 H 0.85498 0.96617 0.33961 0.0
H338 H 0.01274 0.23312 0.21168 0.0
H339 H 0.8022 0.21481 0.31121 0.0
H340 H 0.03058 0.31099 0.20886 0.0
H341 H 0.73969 0.967 0.30933 0.0
H342 H 0.64484 1.00983 0.28091 0.0
H343 H 0.22232 0.11213 0.29307 0.0
H344 H 0.61184 0.16048 0.26803 0.0
H345 H 0.68283 0.22391 0.28623 0.0
H346 H 0.23881 0.3387 0.27562 0.0
H347 H 0.59843 0.0803 0.26582 0.0
H348 H 0.35939 0.21797 0.3206 0.0
H349 H 0.3338 0.14001 0.31947 0.0
N350 N 0.18606 0.17374 0.28008 0.0
C351 C 0.20055 0.21637 0.279 0.0
C352 C 0.23368 0.14614 0.29347 0.0
C353 C 0.31084 0.20588 0.30891 0.0
C354 C 0.29656 0.16183 0.30836 0.0
C355 C 0.26285 0.23374 0.29391 0.0
H356 H 0.32268 0.29217 0.30473 0.0
N357 N 0.09504 0.22421 0.24739 0.0
C358 C 0.15296 0.24247 0.26268 0.0
C359 C 0.12083 0.31187 0.24203 0.0
C360 C 0.16697 0.28685 0.26073 0.0
C361 C 0.05356 0.248 0.22692 0.0
C362 C 0.06466 0.29221 0.22458 0.0
O363 O 0.93519 0.08246 0.28452 0.0
O364 O 0.97504 0.1193 0.23882 0.0
O365 O 0.12685 0.16108 0.20584 0.0
O366 O 0.13868 0.09951 0.23038 0.0
O367 O 0.02199 0.09905 0.33332 0.0
O368 O 0.08335 0.08818 0.28348 0.0
O369 O 0.09204 0.16785 0.30953 0.0
O370 O 0.98339 0.19637 0.32083 0.0
O371 O 0.95402 0.12911 0.3744 0.0
O372 O 0.84609 0.14843 0.36418 0.0
O373 O 0.96898 0.1717 0.24129 0.0
O374 O 0.91996 0.19454 0.29076 0.0
C375 C 0.94194 0.08627 0.25223 0.0
C376 C 0.06777 0.07796 0.3144 0.0
C377 C 0.19361 0.10582 0.17576 0.0
C378 C 0.22987 0.10794 0.11728 0.0
C379 C 0.26699 0.04947 0.1524 0.0
C380 C 0.23068 0.06736 0.17924 0.0
C381 C 0.26638 0.06939 0.12164 0.0
C382 C 0.19413 0.12642 0.1447 0.0
C383 C 0.15181 0.12251 0.20424 0.0
C384 C 0.2276 0.30462 0.2766 0.0
C385 C 0.27549 0.27811 0.29311 0.0
H386 H 0.12972 0.34607 0.2399 0.0
C387 C 0.05308 0.1967 0.32464 0.0
C388 C 0.92218 0.19443 0.2581 0.0
C389 C 0.898 0.17258 0.41454 0.0
C390 C 0.89413 0.18758 0.47429 0.0
C391 C 0.91795 0.24489 0.43489 0.0
C392 C 0.91235 0.21592 0.40848 0.0
C393 C 0.90895 0.23095 0.46752 0.0
C394 C 0.88888 0.15853 0.44738 0.0
C395 C 0.89343 0.14146 0.38699 0.0
H396 H 0.29538 0.01983 0.15539 0.0
H397 H 0.23132 0.05085 0.20274 0.0
H398 H 0.29514 0.05477 0.10122 0.0
H399 H 0.16509 0.15585 0.14157 0.0
H400 H 0.9296 0.2783 0.43006 0.0
H401 H 0.91922 0.22723 0.38337 0.0
H402 H 0.91471 0.2541 0.48747 0.0
H403 H 0.877 0.12502 0.45185 0.0
C404 C 0.74463 0.41283 0.81034 0.0
C405 C 0.76463 0.48907 0.81774 0.0
C406 C 0.71934 0.45261 0.81918 0.0
C407 C 0.83425 0.48531 0.80467 0.0
C408 C 0.81619 0.40833 0.79956 0.0
C409 C 0.85998 0.44497 0.79554 0.0
N410 N 0.70149 0.37816 0.81559 0.0
C411 C 0.72913 0.33797 0.8142 0.0
C412 C 0.84258 0.36707 0.79484 0.0
C413 C 0.79932 0.33173 0.80292 0.0
Gd414 Gd 0.44216 0.38293 0.75201 0.0
Gd415 Gd 0.58115 0.39228 0.82981 0.0
N416 N 0.65222 0.45494 0.83199 0.0
C417 C 0.73975 0.52765 0.83101 0.0
C418 C 0.6299 0.4914 0.84754 0.0
C419 C 0.67275 0.52854 0.84672 0.0
H420 H 0.57768 0.49204 0.85928 0.0
H421 H 0.65393 0.55784 0.85797 0.0
H422 H 0.52441 0.30141 0.71199 0.0
H423 H 0.69651 0.31054 0.82114 0.0
H424 H 0.50959 0.22348 0.70592 0.0
H425 H 0.77289 0.55642 0.83041 0.0
H426 H 0.86957 0.51306 0.80283 0.0
H427 H 0.2903 0.41845 0.78486 0.0
H428 H 0.89721 0.36219 0.78652 0.0
H429 H 0.82014 0.29972 0.80071 0.0
H430 H 0.28069 0.19327 0.75596 0.0
H431 H 0.91479 0.44223 0.78681 0.0
H432 H 0.146 0.31168 0.79756 0.0
H433 H 0.17218 0.38929 0.80276 0.0
N434 N 0.33009 0.35784 0.77031 0.0
C435 C 0.31612 0.31539 0.7662 0.0
C436 C 0.27919 0.38454 0.78272 0.0
C437 C 0.19767 0.32432 0.7896 0.0
C438 C 0.21233 0.36815 0.79269 0.0
C439 C 0.24977 0.29734 0.77619 0.0
H440 H 0.18749 0.23853 0.78062 0.0
N441 N 0.43166 0.30868 0.74224 0.0
C442 C 0.36899 0.28995 0.75241 0.0
C443 C 0.40888 0.22132 0.73227 0.0
C444 C 0.35632 0.24565 0.74809 0.0
C445 C 0.47983 0.28574 0.72412 0.0
C446 C 0.4703 0.24162 0.71969 0.0
O447 O 0.56982 0.44926 0.79634 0.0
O448 O 0.54419 0.42261 0.74424 0.0
O449 O 0.42449 0.3726 0.69949 0.0
O450 O 0.37691 0.427 0.72382 0.0
O451 O 0.47727 0.43013 0.83466 0.0
O452 O 0.42485 0.44203 0.78283 0.0
O453 O 0.41727 0.35993 0.80448 0.0
O454 O 0.52181 0.33044 0.82061 0.0
O455 O 0.52903 0.38976 0.87805 0.0
O456 O 0.6432 0.38074 0.87432 0.0
O457 O 0.558 0.36682 0.74306 0.0
O458 O 0.58996 0.33732 0.79254 0.0
C459 C 0.5723 0.45208 0.76395 0.0
C460 C 0.43278 0.45051 0.81477 0.0
C461 C 0.31908 0.39837 0.67565 0.0
C462 C 0.26597 0.39582 0.62023 0.0
C463 C 0.19464 0.3764 0.6687 0.0
C464 C 0.25353 0.38446 0.68926 0.0
C465 C 0.20064 0.38197 0.63444 0.0
C466 C 0.32502 0.40389 0.64121 0.0
C467 C 0.38329 0.40536 0.69626 0.0
C468 C 0.29105 0.22729 0.75884 0.0
C469 C 0.23783 0.25308 0.77275 0.0
H470 H 0.40125 0.18721 0.72849 0.0
C471 C 0.45173 0.32929 0.8194 0.0
C472 C 0.60003 0.34252 0.76052 0.0
C473 C 0.58392 0.35088 0.92081 0.0
C474 C 0.59085 0.33611 0.98021 0.0
C475 C 0.56492 0.27866 0.94061 0.0
C476 C 0.5688 0.3076 0.91441 0.0
C477 C 0.57587 0.29269 0.97327 0.0
C478 C 0.595 0.36495 0.95357 0.0
C479 C 0.58796 0.38232 0.89398 0.0
H480 H 0.1441 0.36576 0.67936 0.0
H481 H 0.24786 0.37959 0.7156 0.0
H482 H 0.15386 0.376 0.61916 0.0
H483 H 0.37629 0.41374 0.63074 0.0
H484 H 0.55299 0.24523 0.93562 0.0
H485 H 0.55996 0.29631 0.88928 0.0
H486 H 0.57139 0.26967 0.9931 0.0
H487 H 0.6075 0.39844 0.95821 0.0
C488 C 0.80321 0.81507 0.80423 0.0
C489 C 0.83716 0.74466 0.82253 0.0
C490 C 0.85103 0.78905 0.82049 0.0
C491 C 0.77642 0.7268 0.80681 0.0
C492 C 0.7408 0.7976 0.78948 0.0
C493 C 0.7283 0.75322 0.79037 0.0
N494 N 0.81758 0.85771 0.80307 0.0
C495 C 0.76974 0.88523 0.78974 0.0
C496 C 0.69259 0.82539 0.77455 0.0
C497 C 0.70676 0.86945 0.77501 0.0
Gd498 Gd 0.0838 0.89703 0.75939 0.0
Gd499 Gd 0.92403 0.88173 0.82786 0.0
N500 N 0.90904 0.8074 0.83565 0.0
C501 C 0.88356 0.71973 0.84116 0.0
C502 C 0.9508 0.78369 0.85605 0.0
C503 C 0.93985 0.73947 0.85847 0.0
H504 H 0.99176 0.79864 0.87118 0.0
H505 H 0.97414 0.72076 0.87414 0.0
H506 H 0.07479 0.99873 0.73653 0.0
H507 H 0.78101 0.91925 0.79009 0.0
H508 H 0.14578 0.06608 0.74287 0.0
H509 H 0.87478 0.68553 0.84336 0.0
H510 H 0.76531 0.69272 0.80786 0.0
H511 H 0.20177 0.81767 0.77132 0.0
H512 H 0.64395 0.81323 0.76298 0.0
H513 H 0.66934 0.8912 0.76395 0.0
H514 H 0.3571 0.02332 0.80108 0.0
H515 H 0.68102 0.7391 0.77887 0.0
H516 H 0.39194 0.87286 0.81405 0.0
H517 H 0.32149 0.80911 0.79607 0.0
N518 N 0.20105 0.88518 0.77859 0.0
C519 C 0.24085 0.92066 0.78612 0.0
C520 C 0.23078 0.84561 0.78029 0.0
C521 C 0.33865 0.87672 0.80398 0.0
C522 C 0.29909 0.84067 0.79383 0.0
C523 C 0.31057 0.91746 0.79923 0.0
H524 H 0.40447 0.95307 0.81613 0.0
N525 N 0.14879 0.96169 0.76343 0.0
C526 C 0.21428 0.9602 0.77784 0.0
C527 C 0.23056 0.03627 0.7701 0.0
C528 C 0.2565 0.9976 0.78216 0.0
C529 C 0.12535 0.9986 0.74952 0.0
C530 C 0.16535 0.0366 0.75309 0.0
O531 O 0.91131 0.8636 0.77345 0.0
O532 O 0.02016 0.83545 0.76202 0.0
O533 O 0.04819 0.90205 0.70832 0.0
O534 O 0.15701 0.88435 0.71846 0.0
O535 O 0.03505 0.85997 0.84138 0.0
O536 O 0.0838 0.83739 0.79177 0.0
O537 O 0.06772 0.94945 0.79824 0.0
O538 O 0.02881 0.91233 0.84395 0.0
O539 O 0.8773 0.8705 0.87716 0.0
O540 O 0.86527 0.93208 0.85265 0.0
O541 O 0.98059 0.93254 0.74948 0.0
O542 O 0.91983 0.94344 0.79946 0.0
C543 C 0.95046 0.83491 0.75826 0.0
C544 C 0.08175 0.83734 0.82443 0.0
C545 C 0.10544 0.85849 0.66861 0.0
C546 C 0.10903 0.8421 0.60909 0.0
C547 C 0.0903 0.78529 0.64945 0.0
C548 C 0.09432 0.81503 0.67539 0.0
C549 C 0.09773 0.79858 0.61659 0.0
C550 C 0.11262 0.87193 0.63553 0.0
C551 C 0.10911 0.89027 0.6957 0.0
C552 C 0.32419 0.99488 0.79711 0.0
C553 C 0.35113 0.95486 0.8057 0.0
H554 H 0.26146 0.06573 0.77285 0.0
C555 C 0.06156 0.94548 0.83054 0.0
C556 C 0.93502 0.95363 0.76849 0.0
C557 C 0.81072 0.92576 0.90734 0.0
C558 C 0.7746 0.92354 0.96583 0.0
C559 C 0.73771 0.98219 0.93085 0.0
C560 C 0.77385 0.96431 0.90395 0.0
C561 C 0.73828 0.96217 0.96156 0.0
C562 C 0.81017 0.90507 0.93837 0.0
C563 C 0.85233 0.90907 0.8788 0.0
H564 H 0.08177 0.75173 0.65485 0.0
H565 H 0.08901 0.80419 0.70071 0.0
H566 H 0.09567 0.7746 0.5971 0.0
H567 H 0.12011 0.9057 0.63048 0.0
H568 H 0.70947 1.0119 0.92792 0.0
H569 H 0.77323 0.98089 0.88049 0.0
H570 H 0.70966 0.9768 0.98203 0.0
H571 H 0.83905 0.87557 0.94143 0.0
C572 C 0.68988 0.71521 0.31698 0.0
C573 C 0.6497 0.78502 0.33493 0.0
C574 C 0.63696 0.74073 0.33065 0.0
C575 C 0.71515 0.80329 0.32432 0.0
C576 C 0.75637 0.73318 0.3071 0.0
C577 C 0.76842 0.77742 0.31054 0.0
N578 N 0.6758 0.67277 0.31283 0.0
C579 C 0.72669 0.64602 0.3005 0.0
C580 C 0.80847 0.70614 0.29377 0.0
C581 C 0.79369 0.66233 0.29064 0.0
Gd582 Gd 0.42565 0.638 0.25298 0.0
Gd583 Gd 0.56354 0.64782 0.331 0.0
N584 N 0.57408 0.72208 0.34067 0.0
C585 C 0.597 0.80945 0.35054 0.0
C586 C 0.52567 0.74515 0.35854 0.0
C587 C 0.53529 0.78927 0.36294 0.0
H588 H 0.48076 0.72959 0.37051 0.0
H589 H 0.49583 0.8075 0.37653 0.0
H590 H 0.43201 0.5384 0.22338 0.0
H591 H 0.7155 0.61211 0.29834 0.0
H592 H 0.35716 0.47202 0.22419 0.0
H593 H 0.60468 0.84357 0.35429 0.0
H594 H 0.72558 0.83731 0.32718 0.0
H595 H 0.30836 0.71879 0.26171 0.0
H596 H 0.86025 0.71872 0.2859 0.0
H597 H 0.83384 0.64114 0.28064 0.0
H598 H 0.13953 0.51482 0.27862 0.0
H599 H 0.81888 0.79191 0.30277 0.0
H600 H 0.10834 0.66531 0.2955 0.0
H601 H 0.18424 0.72847 0.28183 0.0
N602 N 0.30485 0.6511 0.26697 0.0
C603 C 0.26238 0.61605 0.27191 0.0
C604 C 0.2763 0.69105 0.26847 0.0
C605 C 0.1632 0.66093 0.28732 0.0
C606 C 0.20581 0.69665 0.27955 0.0
C607 C 0.19056 0.61991 0.28249 0.0
H608 H 0.09251 0.58516 0.29477 0.0
N609 N 0.3561 0.57479 0.25043 0.0
C610 C 0.28868 0.57654 0.26299 0.0
C611 C 0.27014 0.50142 0.25086 0.0
C612 C 0.24417 0.53972 0.26415 0.0
C613 C 0.37955 0.53858 0.2349 0.0
C614 C 0.33748 0.50111 0.23544 0.0
O615 O 0.58887 0.67104 0.27863 0.0
O616 O 0.48413 0.7001 0.26233 0.0
O617 O 0.47805 0.64087 0.20482 0.0
O618 O 0.36371 0.64935 0.20845 0.0
O619 O 0.44762 0.66405 0.33971 0.0
O620 O 0.41575 0.6931 0.29002 0.0
O621 O 0.43692 0.58119 0.28664 0.0
O622 O 0.4614 0.60823 0.3387 0.0
O623 O 0.58084 0.65834 0.38352 0.0
O624 O 0.62854 0.60384 0.35938 0.0
O625 O 0.53039 0.60104 0.24823 0.0
O626 O 0.58103 0.58858 0.30031 0.0
C627 C 0.5542 0.70153 0.26364 0.0
C628 C 0.40558 0.68814 0.32205 0.0
C629 C 0.42292 0.68028 0.16247 0.0
C630 C 0.41427 0.69644 0.10338 0.0
C631 C 0.4413 0.75298 0.14362 0.0
C632 C 0.43798 0.72344 0.16942 0.0
C633 C 0.42952 0.73971 0.11085 0.0
C634 C 0.41132 0.66694 0.12959 0.0
C635 C 0.41913 0.64828 0.18887 0.0
C636 C 0.17427 0.54286 0.277 0.0
C637 C 0.14751 0.58292 0.28621 0.0
H638 H 0.23762 0.47239 0.25125 0.0
C639 C 0.43354 0.57866 0.31902 0.0
C640 C 0.57405 0.58034 0.26829 0.0
C641 C 0.68613 0.63267 0.40753 0.0
C642 C 0.73907 0.63526 0.46298 0.0
C643 C 0.81045 0.65484 0.41456 0.0
C644 C 0.75165 0.64669 0.39396 0.0
C645 C 0.80438 0.64923 0.44882 0.0
C646 C 0.68011 0.62712 0.44195 0.0
C647 C 0.62201 0.6256 0.38687 0.0
H648 H 0.45282 0.78634 0.14905 0.0
H649 H 0.44709 0.73417 0.19467 0.0
H650 H 0.43144 0.76342 0.09144 0.0
H651 H 0.40096 0.63333 0.12447 0.0
H652 H 0.86098 0.66557 0.40394 0.0
H653 H 0.75739 0.65159 0.36763 0.0
H654 H 0.85109 0.65527 0.46413 0.0
H655 H 0.62885 0.61717 0.45239 0.0
loop_
_geom_bond_atom_site_label_1
_geom_bond_atom_site_label_2
_geom_bond_distance
_geom_bond_site_symmetry_2
_ccdc_geom_bond_type
C0 C1 1.264 . S
C0 C5 1.479 . S
C0 C10 1.465 . S
C1 C0 1.264 . S
C1 C3 1.339 . S
C1 H28 0.931 . S
C2 C3 1.395 . S
C2 C4 1.320 . S
C3 C1 1.339 . S
C3 C2 1.395 . S
C3 H29 0.929 . S
C4 C2 1.320 . S
C4 C5 1.405 . S
C4 H30 0.930 . S
C5 C0 1.479 . S
C5 C4 1.405 . S
C5 H31 0.931 . S
U6 O7 2.454 . S
U6 O8 2.458 . S
U6 C9 2.984 . S
U6 C10 2.847 . S
U6 C23 2.882 . S
U6 O24 2.441 . S
U6 O25 2.420 . S
U6 O26 2.455 . S
U6 O27 2.449 . S
O7 U6 2.454 . S
O7 C9 1.353 . S
O8 U6 2.458 . S
O8 C9 1.286 . S
C9 U6 2.984 . S
C9 O7 1.353 . S
C9 O8 1.286 . S
C9 C11 1.363 . S
C10 C0 1.465 . S
C10 U6 2.847 . S
C10 O24 1.249 . S
C10 O25 1.202 . S
C11 C9 1.363 . S
C11 C13 1.408 . S
C11 C16 1.342 . S
C12 C13 1.310 . S
C12 C15 1.461 . S
C12 H32 0.932 . S
C13 C11 1.408 . S
C13 C12 1.310 . S
C13 H33 0.930 . S
C14 C15 1.474 . S
C14 C16 1.285 . S
C14 H34 0.929 . S
C15 C12 1.461 . S
C15 C14 1.474 . S
C16 C11 1.342 . S
C16 C14 1.285 . S
C16 H35 0.930 . S
C17 C20 1.424 . S
C17 C22 1.245 . S
C17 C23 1.428 . S
C18 C21 1.260 . S
C18 C22 1.477 . S
C18 H36 0.932 . S
C19 C20 1.384 . S
C19 C21 1.479 . S
C19 H37 0.929 . S
C20 C17 1.424 . S
C20 C19 1.384 . S
C20 H38 0.928 . S
C21 C18 1.260 . S
C21 C19 1.479 . S
C22 C17 1.245 . S
C22 C18 1.477 . S
C22 H39 0.932 . S
C23 U6 2.882 . S
C23 C17 1.428 . S
C23 O26 1.301 . S
C23 O27 1.282 . S
O24 U6 2.441 . S
O24 C10 1.249 . S
O25 U6 2.420 . S
O25 C10 1.202 . S
O26 U6 2.455 . S
O26 C23 1.301 . S
O27 U6 2.449 . S
O27 C23 1.282 . S
H28 C1 0.931 . S
H29 C3 0.929 . S
H30 C4 0.930 . S
H31 C5 0.931 . S
H32 C12 0.932 . S
H33 C13 0.930 . S
H34 C14 0.929 . S
H35 C16 0.930 . S
H36 C18 0.932 . S
H37 C19 0.929 . S
H38 C20 0.928 . S
H39 C22 0.932 . S
C40 C41 1.264 . S
C40 C45 1.479 1_556 S
C40 C50 1.465 . S
C41 C40 1.264 . S
C41 C43 1.339 1_556 S
C41 H68 0.931 . S
C42 C43 1.395 . S
C42 C44 1.320 . S
C43 C41 1.339 1_554 S
C43 C42 1.395 . S
C43 H69 0.929 . S
C44 C42 1.320 . S
C44 C45 1.405 . S
C44 H70 0.930 . S
C45 C40 1.479 1_554 S
C45 C44 1.405 . S
C45 H71 0.931 1_554 S
U46 O47 2.454 . S
U46 O48 2.458 . S
U46 C49 2.984 . S
U46 C50 2.847 . S
U46 C63 2.882 . S
U46 O64 2.441 . S
U46 O65 2.420 . S
U46 O66 2.455 . S
U46 O67 2.449 . S
O47 U46 2.454 . S
O47 C49 1.353 . S
O48 U46 2.458 . S
O48 C49 1.286 . S
C49 U46 2.984 . S
C49 O47 1.353 . S
C49 O48 1.286 . S
C49 C51 1.363 . S
C50 C40 1.465 . S
C50 U46 2.847 . S
C50 O64 1.249 . S
C50 O65 1.202 . S
C51 C49 1.363 . S
C51 C53 1.408 . S
C51 C56 1.342 . S
C52 C53 1.310 . S
C52 C55 1.461 . S
C52 H72 0.932 . S
C53 C51 1.408 . S
C53 C52 1.310 . S
C53 H73 0.930 . S
C54 C55 1.474 . S
C54 C56 1.285 . S
C54 H74 0.929 . S
C55 C52 1.461 . S
C55 C54 1.474 . S
C56 C51 1.342 . S
C56 C54 1.285 . S
C56 H75 0.930 . S
C57 C60 1.424 1_545 S
C57 C62 1.245 . S
C57 C63 1.428 . S
C58 C61 1.260 . S
C58 C62 1.477 1_565 S
C58 H76 0.932 . S
C59 C60 1.384 . S
C59 C61 1.479 . S
C59 H77 0.929 . S
C60 C57 1.424 1_565 S
C60 C59 1.384 . S
C60 H78 0.928 . S
C61 C58 1.260 . S
C61 C59 1.479 . S
C62 C57 1.245 . S
C62 C58 1.477 1_545 S
C62 H79 0.932 . S
C63 U46 2.882 . S
C63 C57 1.428 . S
C63 O66 1.301 . S
C63 O67 1.282 . S
O64 U46 2.441 . S
O64 C50 1.249 . S
O65 U46 2.420 . S
O65 C50 1.202 . S
O66 U46 2.455 . S
O66 C63 1.301 . S
O67 U46 2.449 . S
O67 C63 1.282 . S
H68 C41 0.931 . S
H69 C43 0.929 . S
H70 C44 0.930 . S
H71 C45 0.931 1_556 S
H72 C52 0.932 . S
H73 C53 0.930 . S
H74 C54 0.929 . S
H75 C56 0.930 . S
H76 C58 0.932 . S
H77 C59 0.929 . S
H78 C60 0.928 . S
H79 C62 0.932 . S
C80 C81 1.246 1_545 S
C80 C85 1.478 . S
C80 C90 1.484 . S
C81 C80 1.246 1_565 S
C81 C83 1.339 . S
C81 H108 0.931 . S
C82 C83 1.395 . S
C82 C84 1.320 . S
C83 C81 1.339 . S
C83 C82 1.395 . S
C83 H109 0.929 . S
C84 C82 1.320 . S
C84 C85 1.403 1_565 S
C84 H110 0.930 . S
C85 C80 1.478 . S
C85 C84 1.403 1_545 S
C85 H111 0.932 . S
U86 O87 2.454 . S
U86 O88 2.458 . S
U86 C89 2.984 . S
U86 C90 2.847 . S
U86 C103 2.882 . S
U86 O104 2.441 . S
U86 O105 2.420 . S
U86 O106 2.455 . S
U86 O107 2.449 . S
O87 U86 2.454 . S
O87 C89 1.353 . S
O88 U86 2.458 . S
O88 C89 1.286 . S
C89 U86 2.984 . S
C89 O87 1.353 . S
C89 O88 1.286 . S
C89 C91 1.363 . S
C90 C80 1.484 . S
C90 U86 2.847 . S
C90 O104 1.249 . S
C90 O105 1.202 . S
C91 C89 1.363 . S
C91 C93 1.408 . S
C91 C96 1.342 . S
C92 C93 1.310 . S
C92 C95 1.461 . S
C92 H112 0.932 . S
C93 C91 1.408 . S
C93 C92 1.310 . S
C93 H113 0.930 . S
C94 C95 1.474 . S
C94 C96 1.285 . S
C94 H114 0.929 . S
C95 C92 1.461 . S
C95 C94 1.474 . S
C96 C91 1.342 . S
C96 C94 1.285 . S
C96 H115 0.930 . S
C97 C100 1.424 . S
C97 C102 1.245 . S
C97 C103 1.428 . S
C98 C101 1.260 . S
C98 C102 1.477 . S
C98 H116 0.932 . S
C99 C100 1.384 . S
C99 C101 1.479 . S
C99 H117 0.929 . S
C100 C97 1.424 . S
C100 C99 1.384 . S
C100 H118 0.928 . S
C101 C98 1.260 . S
C101 C99 1.479 . S
C102 C97 1.245 . S
C102 C98 1.477 . S
C102 H119 0.932 . S
C103 U86 2.882 . S
C103 C97 1.428 . S
C103 O106 1.301 . S
C103 O107 1.282 . S
O104 U86 2.441 . S
O104 C90 1.249 . S
O105 U86 2.420 . S
O105 C90 1.202 . S
O106 U86 2.455 . S
O106 C103 1.301 . S
O107 U86 2.449 . S
O107 C103 1.282 . S
H108 C81 0.931 . S
H109 C83 0.929 . S
H110 C84 0.930 . S
H111 C85 0.932 . S
H112 C92 0.932 . S
H113 C93 0.930 . S
H114 C94 0.929 . S
H115 C96 0.930 . S
H116 C98 0.932 . S
H117 C99 0.929 . S
H118 C100 0.928 . S
H119 C102 0.932 . S
C120 C121 1.264 . S
C120 C125 1.479 1_554 S
C120 C130 1.465 . S
C121 C120 1.264 . S
C121 C123 1.339 1_554 S
C121 H148 0.931 . S
C122 C123 1.395 . S
C122 C124 1.320 . S
C123 C121 1.339 1_556 S
C123 C122 1.395 . S
C123 H149 0.929 . S
C124 C122 1.320 . S
C124 C125 1.405 . S
C124 H150 0.930 . S
C125 C120 1.479 1_556 S
C125 C124 1.405 . S
C125 H151 0.931 1_556 S
U126 O127 2.454 . S
U126 O128 2.458 . S
U126 C129 2.984 . S
U126 C130 2.847 . S
U126 C143 2.882 . S
U126 O144 2.441 . S
U126 O145 2.420 . S
U126 O146 2.455 . S
U126 O147 2.449 . S
O127 U126 2.454 . S
O127 C129 1.353 . S
O128 U126 2.458 . S
O128 C129 1.286 . S
C129 U126 2.984 . S
C129 O127 1.353 . S
C129 O128 1.286 . S
C129 C131 1.363 . S
C130 C120 1.465 . S
C130 U126 2.847 . S
C130 O144 1.249 . S
C130 O145 1.202 . S
C131 C129 1.363 . S
C131 C133 1.408 . S
C131 C136 1.342 . S
C132 C133 1.310 . S
C132 C135 1.461 . S
C132 H152 0.932 . S
C133 C131 1.408 . S
C133 C132 1.310 . S
C133 H153 0.930 . S
C134 C135 1.474 . S
C134 C136 1.285 . S
C134 H154 0.929 . S
C135 C132 1.461 . S
C135 C134 1.474 . S
C136 C131 1.342 . S
C136 C134 1.285 . S
C136 H155 0.930 . S
C137 C140 1.424 . S
C137 C142 1.245 . S
C137 C143 1.428 . S
C138 C141 1.260 . S
C138 C142 1.477 . S
C138 H156 0.932 . S
C139 C140 1.384 . S
C139 C141 1.479 . S
C139 H157 0.929 . S
C140 C137 1.424 . S
C140 C139 1.384 . S
C140 H158 0.928 . S
C141 C138 1.260 . S
C141 C139 1.479 . S
C142 C137 1.245 . S
C142 C138 1.477 . S
C142 H159 0.932 . S
C143 U126 2.882 . S
C143 C137 1.428 . S
C143 O146 1.301 . S
C143 O147 1.282 . S
O144 U126 2.441 . S
O144 C130 1.249 . S
O145 U126 2.420 . S
O145 C130 1.202 . S
O146 U126 2.455 . S
O146 C143 1.301 . S
O147 U126 2.449 . S
O147 C143 1.282 . S
H148 C121 0.931 . S
H149 C123 0.929 . S
H150 C124 0.930 . S
H151 C125 0.931 1_554 S
H152 C132 0.932 . S
H153 C133 0.930 . S
H154 C134 0.929 . S
H155 C136 0.930 . S
H156 C138 0.932 . S
H157 C139 0.929 . S
H158 C140 0.928 . S
H159 C142 0.932 . S
C160 C161 1.264 . S
C160 C165 1.479 . S
C160 C170 1.465 . S
C161 C160 1.264 . S
C161 C163 1.339 . S
C161 H188 0.931 . S
C162 C163 1.395 . S
C162 C164 1.320 . S
C163 C161 1.339 . S
C163 C162 1.395 . S
C163 H189 0.929 . S
C164 C162 1.320 . S
C164 C165 1.405 . S
C164 H190 0.930 . S
C165 C160 1.479 . S
C165 C164 1.405 . S
C165 H191 0.931 . S
U166 O167 2.454 . S
U166 O168 2.458 . S
U166 C169 2.984 . S
U166 C170 2.847 . S
U166 C183 2.882 . S
U166 O184 2.441 . S
U166 O185 2.420 . S
U166 O186 2.455 . S
U166 O187 2.449 . S
O167 U166 2.454 . S
O167 C169 1.353 . S
O168 U166 2.458 . S
O168 C169 1.286 . S
C169 U166 2.984 . S
C169 O167 1.353 . S
C169 O168 1.286 . S
C169 C171 1.363 . S
C170 C160 1.465 . S
C170 U166 2.847 . S
C170 O184 1.249 . S
C170 O185 1.202 . S
C171 C169 1.363 . S
C171 C173 1.408 . S
C171 C176 1.342 . S
C172 C173 1.310 . S
C172 C175 1.461 . S
C172 H192 0.932 . S
C173 C171 1.408 . S
C173 C172 1.310 . S
C173 H193 0.930 . S
C174 C175 1.474 . S
C174 C176 1.285 . S
C174 H194 0.929 . S
C175 C172 1.461 . S
C175 C174 1.474 . S
C176 C171 1.342 . S
C176 C174 1.285 . S
C176 H195 0.930 . S
C177 C180 1.424 . S
C177 C182 1.245 . S
C177 C183 1.428 . S
C178 C181 1.260 . S
C178 C182 1.477 . S
C178 H196 0.932 . S
C179 C180 1.384 . S
C179 C181 1.479 . S
C179 H197 0.929 . S
C180 C177 1.424 . S
C180 C179 1.384 . S
C180 H198 0.928 . S
C181 C178 1.260 . S
C181 C179 1.479 . S
C182 C177 1.245 . S
C182 C178 1.477 . S
C182 H199 0.932 . S
C183 U166 2.882 . S
C183 C177 1.428 . S
C183 O186 1.301 . S
C183 O187 1.282 . S
O184 U166 2.441 . S
O184 C170 1.249 . S
O185 U166 2.420 . S
O185 C170 1.202 . S
O186 U166 2.455 . S
O186 C183 1.301 . S
O187 U166 2.449 . S
O187 C183 1.282 . S
H188 C161 0.931 . S
H189 C163 0.929 . S
H190 C164 0.930 . S
H191 C165 0.931 . S
H192 C172 0.932 . S
H193 C173 0.930 . S
H194 C174 0.929 . S
H195 C176 0.930 . S
H196 C178 0.932 . S
H197 C179 0.929 . S
H198 C180 0.928 . S
H199 C182 0.932 . S
C200 C201 1.264 1_554 S
C200 C205 1.479 1_554 S
C200 C210 1.465 . S
C201 C200 1.264 1_556 S
C201 C203 1.339 . S
C201 H228 0.931 1_556 S
C202 C203 1.395 . S
C202 C204 1.320 . S
C203 C201 1.339 . S
C203 C202 1.395 . S
C203 H229 0.929 . S
C204 C202 1.320 . S
C204 C205 1.405 . S
C204 H230 0.930 . S
C205 C200 1.479 1_556 S
C205 C204 1.405 . S
C205 H231 0.931 . S
U206 O207 2.454 . S
U206 O208 2.458 . S
U206 C209 2.984 . S
U206 C210 2.847 . S
U206 C223 2.882 . S
U206 O224 2.441 . S
U206 O225 2.420 . S
U206 O226 2.455 . S
U206 O227 2.449 . S
O207 U206 2.454 . S
O207 C209 1.353 . S
O208 U206 2.458 . S
O208 C209 1.286 . S
C209 U206 2.984 . S
C209 O207 1.353 . S
C209 O208 1.286 . S
C209 C211 1.363 . S
C210 C200 1.465 . S
C210 U206 2.847 . S
C210 O224 1.249 . S
C210 O225 1.202 . S
C211 C209 1.363 . S
C211 C213 1.408 . S
C211 C216 1.342 . S
C212 C213 1.310 . S
C212 C215 1.461 . S
C212 H232 0.932 . S
C213 C211 1.408 . S
C213 C212 1.310 . S
C213 H233 0.930 . S
C214 C215 1.474 . S
C214 C216 1.285 . S
C214 H234 0.929 . S
C215 C212 1.461 . S
C215 C214 1.474 . S
C216 C211 1.342 . S
C216 C214 1.285 . S
C216 H235 0.930 . S
C217 C220 1.424 1_565 S
C217 C222 1.245 . S
C217 C223 1.428 . S
C218 C221 1.260 . S
C218 C222 1.477 1_545 S
C218 H236 0.932 . S
C219 C220 1.384 . S
C219 C221 1.479 . S
C219 H237 0.929 . S
C220 C217 1.424 1_545 S
C220 C219 1.384 . S
C220 H238 0.928 . S
C221 C218 1.260 . S
C221 C219 1.479 . S
C222 C217 1.245 . S
C222 C218 1.477 1_565 S
C222 H239 0.932 . S
C223 U206 2.882 . S
C223 C217 1.428 . S
C223 O226 1.301 . S
C223 O227 1.282 . S
O224 U206 2.441 . S
O224 C210 1.249 . S
O225 U206 2.420 . S
O225 C210 1.202 . S
O226 U206 2.455 . S
O226 C223 1.301 . S
O227 U206 2.449 . S
O227 C223 1.282 . S
H228 C201 0.931 1_554 S
H229 C203 0.929 . S
H230 C204 0.930 . S
H231 C205 0.931 . S
H232 C212 0.932 . S
H233 C213 0.930 . S
H234 C214 0.929 . S
H235 C216 0.930 . S
H236 C218 0.932 . S
H237 C219 0.929 . S
H238 C220 0.928 . S
H239 C222 0.932 . S
C240 C241 1.264 1_565 S
C240 C245 1.479 . S
C240 C250 1.465 . S
C241 C240 1.264 1_545 S
C241 C243 1.339 . S
C241 H268 0.931 . S
C242 C243 1.395 . S
C242 C244 1.320 . S
C243 C241 1.339 . S
C243 C242 1.395 . S
C243 H269 0.929 . S
C244 C242 1.320 . S
C244 C245 1.405 1_545 S
C244 H270 0.930 . S
C245 C240 1.479 . S
C245 C244 1.405 1_565 S
C245 H271 0.931 . S
U246 O247 2.454 . S
U246 O248 2.458 . S
U246 C249 2.984 . S
U246 C250 2.847 . S
U246 C263 2.882 . S
U246 O264 2.441 . S
U246 O265 2.420 . S
U246 O266 2.455 . S
U246 O267 2.449 . S
O247 U246 2.454 . S
O247 C249 1.353 . S
O248 U246 2.458 . S
O248 C249 1.286 . S
C249 U246 2.984 . S
C249 O247 1.353 . S
C249 O248 1.286 . S
C249 C251 1.363 . S
C250 C240 1.465 . S
C250 U246 2.847 . S
C250 O264 1.249 . S
C250 O265 1.202 . S
C251 C249 1.363 . S
C251 C253 1.408 . S
C251 C256 1.342 . S
C252 C253 1.310 . S
C252 C255 1.461 . S
C252 H272 0.932 . S
C253 C251 1.408 . S
C253 C252 1.310 . S
C253 H273 0.930 . S
C254 C255 1.474 . S
C254 C256 1.285 . S
C254 H274 0.929 . S
C255 C252 1.461 . S
C255 C254 1.474 . S
C256 C251 1.342 . S
C256 C254 1.285 . S
C256 H275 0.930 . S
C257 C260 1.424 . S
C257 C262 1.245 . S
C257 C263 1.428 . S
C258 C261 1.260 . S
C258 C262 1.477 . S
C258 H276 0.932 . S
C259 C260 1.384 . S
C259 C261 1.479 . S
C259 H277 0.929 . S
C260 C257 1.424 . S
C260 C259 1.384 . S
C260 H278 0.928 . S
C261 C258 1.260 . S
C261 C259 1.479 . S
C262 C257 1.245 . S
C262 C258 1.477 . S
C262 H279 0.932 . S
C263 U246 2.882 . S
C263 C257 1.428 . S
C263 O266 1.301 . S
C263 O267 1.282 . S
O264 U246 2.441 . S
O264 C250 1.249 . S
O265 U246 2.420 . S
O265 C250 1.202 . S
O266 U246 2.455 . S
O266 C263 1.301 . S
O267 U246 2.449 . S
O267 C263 1.282 . S
H268 C241 0.931 . S
H269 C243 0.929 . S
H270 C244 0.930 . S
H271 C245 0.931 . S
H272 C252 0.932 . S
H273 C253 0.930 . S
H274 C254 0.929 . S
H275 C256 0.930 . S
H276 C258 0.932 . S
H277 C259 0.929 . S
H278 C260 0.928 . S
H279 C262 0.932 . S
C280 C281 1.264 1_556 S
C280 C285 1.479 1_556 S
C280 C290 1.465 . S
C281 C280 1.264 1_554 S
C281 C283 1.339 . S
C281 H308 0.931 1_554 S
C282 C283 1.395 . S
C282 C284 1.320 . S
C283 C281 1.339 . S
C283 C282 1.395 . S
C283 H309 0.929 . S
C284 C282 1.320 . S
C284 C285 1.405 . S
C284 H310 0.930 . S
C285 C280 1.479 1_554 S
C285 C284 1.405 . S
C285 H311 0.919 1_554 S
U286 O287 2.454 . S
U286 O288 2.458 . S
U286 C289 2.984 . S
U286 C290 2.847 . S
U286 C303 2.882 . S
U286 O304 2.441 . S
U286 O305 2.420 . S
U286 O306 2.455 . S
U286 O307 2.449 . S
O287 U286 2.454 . S
O287 C289 1.353 . S
O288 U286 2.458 . S
O288 C289 1.286 . S
C289 U286 2.984 . S
C289 O287 1.353 . S
C289 O288 1.286 . S
C289 C291 1.363 . S
C290 C280 1.465 . S
C290 U286 2.847 . S
C290 O304 1.249 . S
C290 O305 1.202 . S
C291 C289 1.363 . S
C291 C293 1.408 . S
C291 C296 1.342 . S
C292 C293 1.310 . S
C292 C295 1.461 . S
C292 H312 0.932 . S
C293 C291 1.408 . S
C293 C292 1.310 . S
C293 H313 0.930 . S
C294 C295 1.474 . S
C294 C296 1.285 . S
C294 H314 0.929 . S
C295 C292 1.461 . S
C295 C294 1.474 . S
C296 C291 1.342 . S
C296 C294 1.285 . S
C296 H315 0.930 . S
C297 C300 1.424 . S
C297 C302 1.245 . S
C297 C303 1.428 . S
C298 C301 1.260 . S
C298 C302 1.477 . S
C298 H316 0.932 . S
C299 C300 1.384 . S
C299 C301 1.479 . S
C299 H317 0.929 . S
C300 C297 1.424 . S
C300 C299 1.384 . S
C300 H318 0.928 . S
C301 C298 1.260 . S
C301 C299 1.479 . S
C302 C297 1.245 . S
C302 C298 1.477 . S
C302 H319 0.932 . S
C303 U286 2.882 . S
C303 C297 1.428 . S
C303 O306 1.301 . S
C303 O307 1.282 . S
O304 U286 2.441 . S
O304 C290 1.249 . S
O305 U286 2.420 . S
O305 C290 1.202 . S
O306 U286 2.455 . S
O306 C303 1.301 . S
O307 U286 2.449 . S
O307 C303 1.282 . S
H308 C281 0.931 1_556 S
H309 C283 0.929 . S
H310 C284 0.930 . S
H311 C285 0.919 1_556 S
H312 C292 0.932 . S
H313 C293 0.930 . S
H314 C294 0.929 . S
H315 C296 0.930 . S
H316 C298 0.932 . S
H317 C299 0.929 . S
H318 C300 0.928 . S
H319 C302 0.932 . S
C320 C322 1.422 . S
C320 C324 1.415 . S
C320 N326 1.369 . S
C321 C322 1.421 . S
C321 C323 1.417 . S
C321 C333 1.422 1_545 S
C322 C320 1.422 . S
C322 C321 1.421 . S
C322 N332 1.359 . S
C323 C321 1.417 . S
C323 C325 1.329 . S
C323 H342 0.930 . S
C324 C320 1.415 . S
C324 C325 1.437 . S
C324 C328 1.413 . S
C325 C323 1.329 . S
C325 C324 1.437 . S
C325 H347 0.929 . S
N326 C320 1.369 . S
N326 C327 1.338 . S
N326 Gd331 2.622 . S
C327 N326 1.338 . S
C327 C329 1.378 . S
C327 H339 0.929 . S
C328 C324 1.413 . S
C328 C329 1.348 . S
C328 H344 0.931 . S
C329 C327 1.378 . S
C329 C328 1.348 . S
C329 H345 0.930 . S
Gd330 N350 2.622 . S
Gd330 N357 2.570 . S
Gd330 O364 2.364 . S
Gd330 O365 2.468 . S
Gd330 O366 2.427 . S
Gd330 O368 2.388 . S
Gd330 O369 2.386 . S
Gd330 O373 2.307 1_455 S
Gd330 C383 2.805 . S
Gd331 N326 2.622 . S
Gd331 N332 2.570 . S
Gd331 O363 2.386 . S
Gd331 O367 2.307 1_655 S
Gd331 O370 2.353 1_655 S
Gd331 O371 2.468 . S
Gd331 O372 2.427 . S
Gd331 O374 2.388 . S
Gd331 C395 2.805 . S
N332 C322 1.359 . S
N332 Gd331 2.570 . S
N332 C334 1.343 . S
C333 C321 1.422 1_565 S
C333 C335 1.321 . S
C333 H341 0.931 . S
C334 N332 1.343 . S
C334 C335 1.390 1_545 S
C334 H336 0.931 . S
C335 C333 1.321 . S
C335 C334 1.390 1_565 S
C335 H337 0.930 . S
H336 C334 0.931 . S
H337 C335 0.930 . S
H338 C361 0.931 . S
H339 C327 0.929 . S
H340 C362 0.930 . S
H341 C333 0.931 . S
H342 C323 0.930 . S
H343 C352 0.929 . S
H344 C328 0.931 . S
H345 C329 0.930 . S
H346 C384 0.930 . S
H347 C325 0.929 . S
H348 C353 0.931 . S
H349 C354 0.930 . S
N350 Gd330 2.622 . S
N350 C351 1.369 . S
N350 C352 1.338 . S
C351 N350 1.369 . S
C351 C355 1.415 . S
C351 C358 1.422 . S
C352 H343 0.929 . S
C352 N350 1.338 . S
C352 C354 1.378 . S
C353 H348 0.931 . S
C353 C354 1.348 . S
C353 C355 1.413 . S
C354 H349 0.930 . S
C354 C352 1.378 . S
C354 C353 1.348 . S
C355 C351 1.415 . S
C355 C353 1.413 . S
C355 C385 1.437 . S
H356 C385 0.929 . S
N357 Gd330 2.570 . S
N357 C358 1.359 . S
N357 C361 1.343 . S
C358 C351 1.422 . S
C358 N357 1.359 . S
C358 C360 1.421 . S
C359 C360 1.422 . S
C359 C362 1.321 . S
C359 H386 0.931 . S
C360 C358 1.421 . S
C360 C359 1.422 . S
C360 C384 1.417 . S
C361 H338 0.931 . S
C361 N357 1.343 . S
C361 C362 1.390 . S
C362 H340 0.930 . S
C362 C359 1.321 . S
C362 C361 1.390 . S
O363 Gd331 2.386 . S
O363 C375 1.265 . S
O364 Gd330 2.364 . S
O364 C375 1.228 1_455 S
O365 Gd330 2.468 . S
O365 C383 1.263 . S
O366 Gd330 2.427 . S
O366 C383 1.252 . S
O367 Gd331 2.307 1_455 S
O367 C376 1.261 . S
O368 Gd330 2.388 . S
O368 C376 1.252 . S
O369 Gd330 2.386 . S
O369 C387 1.265 . S
O370 Gd331 2.353 1_455 S
O370 C387 1.242 . S
O371 Gd331 2.468 . S
O371 C395 1.263 . S
O372 Gd331 2.427 . S
O372 C395 1.252 . S
O373 Gd330 2.307 1_655 S
O373 C388 1.261 . S
O374 Gd331 2.388 . S
O374 C388 1.252 . S
C375 O363 1.265 . S
C375 O364 1.228 1_655 S
C376 O367 1.261 . S
C376 O368 1.252 . S
C377 C380 1.394 . S
C377 C382 1.370 . S
C377 C383 1.500 . S
C378 C381 1.383 . S
C378 C382 1.395 . S
C379 C380 1.396 . S
C379 C381 1.365 . S
C379 H396 0.929 . S
C380 C377 1.394 . S
C380 C379 1.396 . S
C380 H397 0.930 . S
C381 C378 1.383 . S
C381 C379 1.365 . S
C381 H398 0.931 . S
C382 C377 1.370 . S
C382 C378 1.395 . S
C382 H399 0.930 . S
C383 Gd330 2.805 . S
C383 O365 1.263 . S
C383 O366 1.252 . S
C383 C377 1.500 . S
C384 H346 0.930 . S
C384 C360 1.417 . S
C384 C385 1.329 . S
C385 C355 1.437 . S
C385 H356 0.929 . S
C385 C384 1.329 . S
H386 C359 0.931 . S
C387 O369 1.265 . S
C387 O370 1.242 . S
C388 O373 1.261 . S
C388 O374 1.252 . S
C389 C392 1.394 . S
C389 C394 1.370 . S
C389 C395 1.500 . S
C390 C393 1.383 . S
C390 C394 1.395 . S
C391 C392 1.396 . S
C391 C393 1.365 . S
C391 H400 0.929 . S
C392 C389 1.394 . S
C392 C391 1.396 . S
C392 H401 0.930 . S
C393 C390 1.383 . S
C393 C391 1.365 . S
C393 H402 0.931 . S
C394 C389 1.370 . S
C394 C390 1.395 . S
C394 H403 0.930 . S
C395 Gd331 2.805 . S
C395 O371 1.263 . S
C395 O372 1.252 . S
C395 C389 1.500 . S
H396 C379 0.929 . S
H397 C380 0.930 . S
H398 C381 0.931 . S
H399 C382 0.930 . S
H400 C391 0.929 . S
H401 C392 0.930 . S
H402 C393 0.931 . S
H403 C394 0.930 . S
C404 C406 1.422 . S
C404 C408 1.415 . S
C404 N410 1.369 . S
C405 C406 1.421 . S
C405 C407 1.417 . S
C405 C417 1.422 . S
C406 C404 1.422 . S
C406 C405 1.421 . S
C406 N416 1.359 . S
C407 C405 1.417 . S
C407 C409 1.329 . S
C407 H426 0.930 . S
C408 C404 1.415 . S
C408 C409 1.437 . S
C408 C412 1.413 . S
C409 C407 1.329 . S
C409 C408 1.437 . S
C409 H431 0.929 . S
N410 C404 1.369 . S
N410 C411 1.338 . S
N410 Gd415 2.622 . S
C411 N410 1.338 . S
C411 C413 1.378 . S
C411 H423 0.929 . S
C412 C408 1.413 . S
C412 C413 1.348 . S
C412 H428 0.931 . S
C413 C411 1.378 . S
C413 C412 1.348 . S
C413 H429 0.930 . S
Gd414 N434 2.622 . S
Gd414 N441 2.570 . S
Gd414 O448 2.353 . S
Gd414 O449 2.468 . S
Gd414 O450 2.427 . S
Gd414 O452 2.388 . S
Gd414 O453 2.386 . S
Gd414 O457 2.307 . S
Gd414 C467 2.805 . S
Gd415 N410 2.622 . S
Gd415 N416 2.570 . S
Gd415 O447 2.386 . S
Gd415 O451 2.307 . S
Gd415 O454 2.353 . S
Gd415 O455 2.468 . S
Gd415 O456 2.427 . S
Gd415 O458 2.388 . S
Gd415 C479 2.805 . S
N416 C406 1.359 . S
N416 Gd415 2.570 . S
N416 C418 1.343 . S
C417 C405 1.422 . S
C417 C419 1.321 . S
C417 H425 0.931 . S
C418 N416 1.343 . S
C418 C419 1.390 . S
C418 H420 0.931 . S
C419 C417 1.321 . S
C419 C418 1.390 . S
C419 H421 0.930 . S
H420 C418 0.931 . S
H421 C419 0.930 . S
H422 C445 0.931 . S
H423 C411 0.929 . S
H424 C446 0.930 . S
H425 C417 0.931 . S
H426 C407 0.930 . S
H427 C436 0.929 . S
H428 C412 0.931 . S
H429 C413 0.930 . S
H430 C468 0.930 . S
H431 C409 0.929 . S
H432 C437 0.931 . S
H433 C438 0.930 . S
N434 Gd414 2.622 . S
N434 C435 1.369 . S
N434 C436 1.338 . S
C435 N434 1.369 . S
C435 C439 1.415 . S
C435 C442 1.422 . S
C436 H427 0.929 . S
C436 N434 1.338 . S
C436 C438 1.378 . S
C437 H432 0.931 . S
C437 C438 1.348 . S
C437 C439 1.413 . S
C438 H433 0.930 . S
C438 C436 1.378 . S
C438 C437 1.348 . S
C439 C435 1.415 . S
C439 C437 1.413 . S
C439 C469 1.437 . S
H440 C469 0.929 . S
N441 Gd414 2.570 . S
N441 C442 1.359 . S
N441 C445 1.343 . S
C442 C435 1.422 . S
C442 N441 1.359 . S
C442 C444 1.421 . S
C443 C444 1.422 . S
C443 C446 1.321 . S
C443 H470 0.931 . S
C444 C442 1.421 . S
C444 C443 1.422 . S
C444 C468 1.417 . S
C445 H422 0.931 . S
C445 N441 1.343 . S
C445 C446 1.390 . S
C446 H424 0.930 . S
C446 C443 1.321 . S
C446 C445 1.390 . S
O447 Gd415 2.386 . S
O447 C459 1.265 . S
O448 Gd414 2.353 . S
O448 C459 1.242 . S
O449 Gd414 2.468 . S
O449 C467 1.263 . S
O450 Gd414 2.427 . S
O450 C467 1.252 . S
O451 Gd415 2.307 . S
O451 C460 1.261 . S
O452 Gd414 2.388 . S
O452 C460 1.252 . S
O453 Gd414 2.386 . S
O453 C471 1.265 . S
O454 Gd415 2.353 . S
O454 C471 1.242 . S
O455 Gd415 2.468 . S
O455 C479 1.263 . S
O456 Gd415 2.427 . S
O456 C479 1.252 . S
O457 Gd414 2.307 . S
O457 C472 1.261 . S
O458 Gd415 2.388 . S
O458 C472 1.252 . S
C459 O447 1.265 . S
C459 O448 1.242 . S
C460 O451 1.261 . S
C460 O452 1.252 . S
C461 C464 1.394 . S
C461 C466 1.370 . S
C461 C467 1.500 . S
C462 C465 1.383 . S
C462 C466 1.395 . S
C463 C464 1.396 . S
C463 C465 1.365 . S
C463 H480 0.929 . S
C464 C461 1.394 . S
C464 C463 1.396 . S
C464 H481 0.930 . S
C465 C462 1.383 . S
C465 C463 1.365 . S
C465 H482 0.931 . S
C466 C461 1.370 . S
C466 C462 1.395 . S
C466 H483 0.930 . S
C467 Gd414 2.805 . S
C467 O449 1.263 . S
C467 O450 1.252 . S
C467 C461 1.500 . S
C468 H430 0.930 . S
C468 C444 1.417 . S
C468 C469 1.329 . S
C469 C439 1.437 . S
C469 H440 0.929 . S
C469 C468 1.329 . S
H470 C443 0.931 . S
C471 O453 1.265 . S
C471 O454 1.242 . S
C472 O457 1.261 . S
C472 O458 1.252 . S
C473 C476 1.394 . S
C473 C478 1.370 . S
C473 C479 1.500 . S
C474 C477 1.383 . S
C474 C478 1.395 . S
C475 C476 1.396 . S
C475 C477 1.365 . S
C475 H484 0.929 . S
C476 C473 1.394 . S
C476 C475 1.396 . S
C476 H485 0.930 . S
C477 C474 1.383 . S
C477 C475 1.365 . S
C477 H486 0.931 . S
C478 C473 1.370 . S
C478 C474 1.395 . S
C478 H487 0.930 . S
C479 Gd415 2.805 . S
C479 O455 1.263 . S
C479 O456 1.252 . S
C479 C473 1.500 . S
H480 C463 0.929 . S
H481 C464 0.930 . S
H482 C465 0.931 . S
H483 C466 0.930 . S
H484 C475 0.929 . S
H485 C476 0.930 . S
H486 C477 0.931 . S
H487 C478 0.930 . S
C488 C490 1.422 . S
C488 C492 1.415 . S
C488 N494 1.369 . S
C489 C490 1.421 . S
C489 C491 1.417 . S
C489 C501 1.422 . S
C490 C488 1.422 . S
C490 C489 1.421 . S
C490 N500 1.359 . S
C491 C489 1.417 . S
C491 C493 1.329 . S
C491 H510 0.930 . S
C492 C488 1.415 . S
C492 C493 1.437 . S
C492 C496 1.413 . S
C493 C491 1.329 . S
C493 C492 1.437 . S
C493 H515 0.929 . S
N494 C488 1.369 . S
N494 C495 1.338 . S
N494 Gd499 2.622 . S
C495 N494 1.338 . S
C495 C497 1.378 . S
C495 H507 0.929 . S
C496 C492 1.413 . S
C496 C497 1.348 . S
C496 H512 0.931 . S
C497 C495 1.378 . S
C497 C496 1.348 . S
C497 H513 0.930 . S
Gd498 N518 2.622 . S
Gd498 N525 2.570 . S
Gd498 O532 2.353 . S
Gd498 O533 2.468 . S
Gd498 O534 2.427 . S
Gd498 O536 2.388 . S
Gd498 O537 2.386 . S
Gd498 O541 2.307 . S
Gd498 C551 2.805 . S
Gd499 N494 2.622 . S
Gd499 N500 2.570 . S
Gd499 O531 2.386 . S
Gd499 O535 2.307 1_655 S
Gd499 O538 2.353 1_655 S
Gd499 O539 2.468 . S
Gd499 O540 2.427 . S
Gd499 O542 2.388 . S
Gd499 C563 2.805 . S
N500 C490 1.359 . S
N500 Gd499 2.570 . S
N500 C502 1.343 . S
C501 C489 1.422 . S
C501 C503 1.321 . S
C501 H509 0.931 . S
C502 N500 1.343 . S
C502 C503 1.390 . S
C502 H504 0.931 . S
C503 C501 1.321 . S
C503 C502 1.390 . S
C503 H505 0.930 . S
H504 C502 0.931 . S
H505 C503 0.930 . S
H506 C529 0.931 . S
H507 C495 0.929 . S
H508 C530 0.930 . S
H509 C501 0.931 . S
H510 C491 0.930 . S
H511 C520 0.929 . S
H512 C496 0.931 . S
H513 C497 0.930 . S
H514 C552 0.930 . S
H515 C493 0.929 . S
H516 C521 0.931 . S
H517 C522 0.930 . S
N518 Gd498 2.622 . S
N518 C519 1.369 . S
N518 C520 1.338 . S
C519 N518 1.369 . S
C519 C523 1.415 . S
C519 C526 1.422 . S
C520 H511 0.929 . S
C520 N518 1.338 . S
C520 C522 1.378 . S
C521 H516 0.931 . S
C521 C522 1.348 . S
C521 C523 1.413 . S
C522 H517 0.930 . S
C522 C520 1.378 . S
C522 C521 1.348 . S
C523 C519 1.415 . S
C523 C521 1.413 . S
C523 C553 1.437 . S
H524 C553 0.929 . S
N525 Gd498 2.570 . S
N525 C526 1.359 . S
N525 C529 1.343 . S
C526 C519 1.422 . S
C526 N525 1.359 . S
C526 C528 1.421 . S
C527 C528 1.422 1_545 S
C527 C530 1.321 . S
C527 H554 0.931 . S
C528 C526 1.421 . S
C528 C527 1.422 1_565 S
C528 C552 1.417 . S
C529 H506 0.931 . S
C529 N525 1.343 . S
C529 C530 1.390 1_565 S
C530 H508 0.930 . S
C530 C527 1.321 . S
C530 C529 1.390 1_545 S
O531 Gd499 2.386 . S
O531 C543 1.265 . S
O532 Gd498 2.353 . S
O532 C543 1.242 1_455 S
O533 Gd498 2.468 . S
O533 C551 1.263 . S
O534 Gd498 2.427 . S
O534 C551 1.252 . S
O535 Gd499 2.307 1_455 S
O535 C544 1.261 . S
O536 Gd498 2.388 . S
O536 C544 1.252 . S
O537 Gd498 2.386 . S
O537 C555 1.265 . S
O538 Gd499 2.353 1_455 S
O538 C555 1.242 . S
O539 Gd499 2.468 . S
O539 C563 1.263 . S
O540 Gd499 2.427 . S
O540 C563 1.252 . S
O541 Gd498 2.307 . S
O541 C556 1.261 1_455 S
O542 Gd499 2.388 . S
O542 C556 1.252 . S
C543 O531 1.265 . S
C543 O532 1.242 1_655 S
C544 O535 1.261 . S
C544 O536 1.252 . S
C545 C548 1.394 . S
C545 C550 1.370 . S
C545 C551 1.500 . S
C546 C549 1.383 . S
C546 C550 1.395 . S
C547 C548 1.396 . S
C547 C549 1.365 . S
C547 H564 0.929 . S
C548 C545 1.394 . S
C548 C547 1.396 . S
C548 H565 0.930 . S
C549 C546 1.383 . S
C549 C547 1.365 . S
C549 H566 0.931 . S
C550 C545 1.370 . S
C550 C546 1.395 . S
C550 H567 0.930 . S
C551 Gd498 2.805 . S
C551 O533 1.263 . S
C551 O534 1.252 . S
C551 C545 1.500 . S
C552 H514 0.930 . S
C552 C528 1.417 . S
C552 C553 1.329 . S
C553 C523 1.437 . S
C553 H524 0.929 . S
C553 C552 1.329 . S
H554 C527 0.931 . S
C555 O537 1.265 . S
C555 O538 1.242 . S
C556 O541 1.261 1_655 S
C556 O542 1.252 . S
C557 C560 1.394 . S
C557 C562 1.370 . S
C557 C563 1.500 . S
C558 C561 1.383 . S
C558 C562 1.395 . S
C559 C560 1.396 . S
C559 C561 1.365 . S
C559 H568 0.929 . S
C560 C557 1.394 . S
C560 C559 1.396 . S
C560 H569 0.930 . S
C561 C558 1.383 . S
C561 C559 1.365 . S
C561 H570 0.931 . S
C562 C557 1.370 . S
C562 C558 1.395 . S
C562 H571 0.930 . S
C563 Gd499 2.805 . S
C563 O539 1.263 . S
C563 O540 1.252 . S
C563 C557 1.500 . S
H564 C547 0.929 . S
H565 C548 0.930 . S
H566 C549 0.931 . S
H567 C550 0.930 . S
H568 C559 0.929 . S
H569 C560 0.930 . S
H570 C561 0.931 . S
H571 C562 0.930 . S
C572 C574 1.422 . S
C572 C576 1.415 . S
C572 N578 1.369 . S
C573 C574 1.421 . S
C573 C575 1.417 . S
C573 C585 1.422 . S
C574 C572 1.422 . S
C574 C573 1.421 . S
C574 N584 1.359 . S
C575 C573 1.417 . S
C575 C577 1.329 . S
C575 H594 0.930 . S
C576 C572 1.415 . S
C576 C577 1.437 . S
C576 C580 1.413 . S
C577 C575 1.329 . S
C577 C576 1.437 . S
C577 H599 0.929 . S
N578 C572 1.369 . S
N578 C579 1.338 . S
N578 Gd583 2.622 . S
C579 N578 1.338 . S
C579 C581 1.378 . S
C579 H591 0.929 . S
C580 C576 1.413 . S
C580 C581 1.348 . S
C580 H596 0.931 . S
C581 C579 1.378 . S
C581 C580 1.348 . S
C581 H597 0.930 . S
Gd582 N602 2.622 . S
Gd582 N609 2.570 . S
Gd582 O616 2.353 . S
Gd582 O617 2.468 . S
Gd582 O618 2.427 . S
Gd582 O620 2.388 . S
Gd582 O621 2.386 . S
Gd582 O625 2.307 . S
Gd582 C635 2.805 . S
Gd583 N578 2.622 . S
Gd583 N584 2.570 . S
Gd583 O615 2.386 . S
Gd583 O619 2.307 . S
Gd583 O622 2.353 . S
Gd583 O623 2.468 . S
Gd583 O624 2.427 . S
Gd583 O626 2.388 . S
Gd583 C647 2.805 . S
N584 C574 1.359 . S
N584 Gd583 2.570 . S
N584 C586 1.343 . S
C585 C573 1.422 . S
C585 C587 1.321 . S
C585 H593 0.931 . S
C586 N584 1.343 . S
C586 C587 1.390 . S
C586 H588 0.931 . S
C587 C585 1.321 . S
C587 C586 1.390 . S
C587 H589 0.930 . S
H588 C586 0.931 . S
H589 C587 0.930 . S
H590 C613 0.931 . S
H591 C579 0.929 . S
H592 C614 0.930 . S
H593 C585 0.931 . S
H594 C575 0.930 . S
H595 C604 0.929 . S
H596 C580 0.931 . S
H597 C581 0.930 . S
H598 C636 0.930 . S
H599 C577 0.929 . S
H600 C605 0.931 . S
H601 C606 0.930 . S
N602 Gd582 2.622 . S
N602 C603 1.369 . S
N602 C604 1.338 . S
C603 N602 1.369 . S
C603 C607 1.415 . S
C603 C610 1.422 . S
C604 H595 0.929 . S
C604 N602 1.338 . S
C604 C606 1.378 . S
C605 H600 0.931 . S
C605 C606 1.348 . S
C605 C607 1.413 . S
C606 H601 0.930 . S
C606 C604 1.378 . S
C606 C605 1.348 . S
C607 C603 1.415 . S
C607 C605 1.413 . S
C607 C637 1.437 . S
H608 C637 0.929 . S
N609 Gd582 2.570 . S
N609 C610 1.359 . S
N609 C613 1.343 . S
C610 C603 1.422 . S
C610 N609 1.359 . S
C610 C612 1.421 . S
C611 C612 1.422 . S
C611 C614 1.321 . S
C611 H638 0.931 . S
C612 C610 1.421 . S
C612 C611 1.422 . S
C612 C636 1.417 . S
C613 H590 0.931 . S
C613 N609 1.343 . S
C613 C614 1.390 . S
C614 H592 0.930 . S
C614 C611 1.321 . S
C614 C613 1.390 . S
O615 Gd583 2.386 . S
O615 C627 1.265 . S
O616 Gd582 2.353 . S
O616 C627 1.242 . S
O617 Gd582 2.468 . S
O617 C635 1.263 . S
O618 Gd582 2.427 . S
O618 C635 1.252 . S
O619 Gd583 2.307 . S
O619 C628 1.261 . S
O620 Gd582 2.388 . S
O620 C628 1.252 . S
O621 Gd582 2.386 . S
O621 C639 1.265 . S
O622 Gd583 2.353 . S
O622 C639 1.242 . S
O623 Gd583 2.468 . S
O623 C647 1.263 . S
O624 Gd583 2.427 . S
O624 C647 1.252 . S
O625 Gd582 2.307 . S
O625 C640 1.261 . S
O626 Gd583 2.388 . S
O626 C640 1.252 . S
C627 O615 1.265 . S
C627 O616 1.242 . S
C628 O619 1.261 . S
C628 O620 1.252 . S
C629 C632 1.394 . S
C629 C634 1.370 . S
C629 C635 1.500 . S
C630 C633 1.383 . S
C630 C634 1.395 . S
C631 C632 1.396 . S
C631 C633 1.365 . S
C631 H648 0.929 . S
C632 C629 1.394 . S
C632 C631 1.396 . S
C632 H649 0.930 . S
C633 C630 1.383 . S
C633 C631 1.365 . S
C633 H650 0.931 . S
C634 C629 1.370 . S
C634 C630 1.395 . S
C634 H651 0.930 . S
C635 Gd582 2.805 . S
C635 O617 1.263 . S
C635 O618 1.252 . S
C635 C629 1.500 . S
C636 H598 0.930 . S
C636 C612 1.417 . S
C636 C637 1.329 . S
C637 C607 1.437 . S
C637 H608 0.929 . S
C637 C636 1.329 . S
H638 C611 0.931 . S
C639 O621 1.265 . S
C639 O622 1.242 . S
C640 O625 1.261 . S
C640 O626 1.252 . S
C641 C644 1.394 . S
C641 C646 1.370 . S
C641 C647 1.500 . S
C642 C645 1.383 . S
C642 C646 1.395 . S
C643 C644 1.396 . S
C643 C645 1.365 . S
C643 H652 0.929 . S
C644 C641 1.394 . S
C644 C643 1.396 . S
C644 H653 0.930 . S
C645 C642 1.383 . S
C645 C643 1.365 . S
C645 H654 0.931 . S
C646 C641 1.370 . S
C646 C642 1.395 . S
C646 H655 0.930 . S
C647 Gd583 2.805 . S
C647 O623 1.263 . S
C647 O624 1.252 . S
C647 C641 1.500 . S
H648 C631 0.929 . S
H649 C632 0.930 . S
H650 C633 0.931 . S
H651 C634 0.930 . S
H652 C643 0.929 . S
H653 C644 0.930 . S
H654 C645 0.931 . S
H655 C646 0.930 . S
C242 C376 1.480 . S
C460 C301 1.598 . S
C459 C162 1.478 . S
C221 C375 1.590 . S
C556 C82 1.621 . S
C640 C141 1.479 . S
C2 C639 1.625 . S
C61 C555 1.464 . S
C378 C42 1.210 . S
C462 C21 1.251 . S
C474 C122 1.375 . S
C390 C101 1.530 . S
C558 C202 1.242 . S
C181 C642 1.186 . S
C630 C282 1.457 . S
C261 C546 1.420 . S
C387 C15 1.847 . S
C471 C55 1.777 . S
C95 C472 1.854 . S
C388 C135 1.782 . S
C543 C175 1.831 . S
C215 C627 1.792 . S
C255 C628 1.842 . S
C295 C544 1.793 . S
