# Generated by pormake.
# Topology fgl, (4,4)-cn, num edge types: 1
# Building blocks:
#     Node 0, Type 0, BuildingBlock: ESEHIV_clean_sbu_0, # of connection points: 4
#     Node 1, Type 0, BuildingBlock: ESEHIV_clean_sbu_0, # of connection points: 4
#     Node 2, Type 0, BuildingBlock: ESEHIV_clean_sbu_0, # of connection points: 4
#     Node 3, Type 0, BuildingBlock: ESEHIV_clean_sbu_0, # of connection points: 4
#     Node 4, Type 0, BuildingBlock: ESEHIV_clean_sbu_0, # of connection points: 4
#     Node 5, Type 0, BuildingBlock: ESEHIV_clean_sbu_0, # of connection points: 4
#     Node 6, Type 0, BuildingBlock: ESEHIV_clean_sbu_0, # of connection points: 4
#     Node 7, Type 0, BuildingBlock: ESEHIV_clean_sbu_0, # of connection points: 4
#     Node 8, Type 0, BuildingBlock: ESEHIV_clean_sbu_0, # of connection points: 4
#     Node 9, Type 0, BuildingBlock: ESEHIV_clean_sbu_0, # of connection points: 4
#     Node 10, Type 0, BuildingBlock: ESEHIV_clean_sbu_0, # of connection points: 4
#     Node 11, Type 0, BuildingBlock: ESEHIV_clean_sbu_0, # of connection points: 4
#     Node 12, Type 0, BuildingBlock: ESEHIV_clean_sbu_0, # of connection points: 4
#     Node 13, Type 0, BuildingBlock: ESEHIV_clean_sbu_0, # of connection points: 4
#     Node 14, Type 0, BuildingBlock: ESEHIV_clean_sbu_0, # of connection points: 4
#     Node 15, Type 0, BuildingBlock: ESEHIV_clean_sbu_0, # of connection points: 4
#     Node 16, Type 0, BuildingBlock: ESEHIV_clean_sbu_0, # of connection points: 4
#     Node 17, Type 0, BuildingBlock: ESEHIV_clean_sbu_0, # of connection points: 4
#     Node 18, Type 1, BuildingBlock: TATPOV_clean_sbu_0, # of connection points: 4
#     Node 19, Type 1, BuildingBlock: TATPOV_clean_sbu_0, # of connection points: 4
#     Node 20, Type 1, BuildingBlock: TATPOV_clean_sbu_0, # of connection points: 4
#     Node 21, Type 1, BuildingBlock: TATPOV_clean_sbu_0, # of connection points: 4
#     Node 22, Type 1, BuildingBlock: TATPOV_clean_sbu_0, # of connection points: 4
#     Node 23, Type 1, BuildingBlock: TATPOV_clean_sbu_0, # of connection points: 4
#     Node 24, Type 1, BuildingBlock: TATPOV_clean_sbu_0, # of connection points: 4
#     Node 25, Type 1, BuildingBlock: TATPOV_clean_sbu_0, # of connection points: 4
#     Node 26, Type 1, BuildingBlock: TATPOV_clean_sbu_0, # of connection points: 4
#     Node 27, Type 1, BuildingBlock: TATPOV_clean_sbu_0, # of connection points: 4
#     Node 28, Type 1, BuildingBlock: TATPOV_clean_sbu_0, # of connection points: 4
#     Node 29, Type 1, BuildingBlock: TATPOV_clean_sbu_0, # of connection points: 4
#     Node 30, Type 1, BuildingBlock: TATPOV_clean_sbu_0, # of connection points: 4
#     Node 31, Type 1, BuildingBlock: TATPOV_clean_sbu_0, # of connection points: 4
#     Node 32, Type 1, BuildingBlock: TATPOV_clean_sbu_0, # of connection points: 4
#     Node 33, Type 1, BuildingBlock: TATPOV_clean_sbu_0, # of connection points: 4
#     Node 34, Type 1, BuildingBlock: TATPOV_clean_sbu_0, # of connection points: 4
#     Node 35, Type 1, BuildingBlock: TATPOV_clean_sbu_0, # of connection points: 4
#     Edge 36, Type (0, 1), None
#     Edge 37, Type (0, 1), None
#     Edge 38, Type (0, 1), None
#     Edge 39, Type (0, 1), None
#     Edge 40, Type (0, 1), None
#     Edge 41, Type (0, 1), None
#     Edge 42, Type (0, 1), None
#     Edge 43, Type (0, 1), None
#     Edge 44, Type (0, 1), None
#     Edge 45, Type (0, 1), None
#     Edge 46, Type (0, 1), None
#     Edge 47, Type (0, 1), None
#     Edge 48, Type (0, 1), None
#     Edge 49, Type (0, 1), None
#     Edge 50, Type (0, 1), None
#     Edge 51, Type (0, 1), None
#     Edge 52, Type (0, 1), None
#     Edge 53, Type (0, 1), None
#     Edge 54, Type (0, 1), None
#     Edge 55, Type (0, 1), None
#     Edge 56, Type (0, 1), None
#     Edge 57, Type (0, 1), None
#     Edge 58, Type (0, 1), None
#     Edge 59, Type (0, 1), None
#     Edge 60, Type (0, 1), None
#     Edge 61, Type (0, 1), None
#     Edge 62, Type (0, 1), None
#     Edge 63, Type (0, 1), None
#     Edge 64, Type (0, 1), None
#     Edge 65, Type (0, 1), None
#     Edge 66, Type (0, 1), None
#     Edge 67, Type (0, 1), None
#     Edge 68, Type (0, 1), None
#     Edge 69, Type (0, 1), None
#     Edge 70, Type (0, 1), None
#     Edge 71, Type (0, 1), None
#     Edge 72, Type (0, 1), None
#     Edge 73, Type (0, 1), None
#     Edge 74, Type (0, 1), None
#     Edge 75, Type (0, 1), None
#     Edge 76, Type (0, 1), None
#     Edge 77, Type (0, 1), None
#     Edge 78, Type (0, 1), None
#     Edge 79, Type (0, 1), None
#     Edge 80, Type (0, 1), None
#     Edge 81, Type (0, 1), None
#     Edge 82, Type (0, 1), None
#     Edge 83, Type (0, 1), None
#     Edge 84, Type (0, 1), None
#     Edge 85, Type (0, 1), None
#     Edge 86, Type (0, 1), None
#     Edge 87, Type (0, 1), None
#     Edge 88, Type (0, 1), None
#     Edge 89, Type (0, 1), None
#     Edge 90, Type (0, 1), None
#     Edge 91, Type (0, 1), None
#     Edge 92, Type (0, 1), None
#     Edge 93, Type (0, 1), None
#     Edge 94, Type (0, 1), None
#     Edge 95, Type (0, 1), None
#     Edge 96, Type (0, 1), None
#     Edge 97, Type (0, 1), None
#     Edge 98, Type (0, 1), None
#     Edge 99, Type (0, 1), None
#     Edge 100, Type (0, 1), None
#     Edge 101, Type (0, 1), None
#     Edge 102, Type (0, 1), None
#     Edge 103, Type (0, 1), None
#     Edge 104, Type (0, 1), None
#     Edge 105, Type (0, 1), None
#     Edge 106, Type (0, 1), None
#     Edge 107, Type (0, 1), None
# Relax obj value: 0.064
# Max RMSD: 0.164
# Mean RMSD: 0.106
data_MOF--net-fgl--node1-ESEHIV_clean_sbu_0--node2-TATPOV_clean_sbu_0--edge1-none
_symmetry_space_group_name_H-M    P1
_symmetry_Int_Tables_number       1
_symmetry_cell_setting            triclinic
loop_
_symmetry_equiv_pos_as_xyz
'x, y, z'
_cell_length_a     34.058996
_cell_length_b     35.585143
_cell_length_c     24.402714
_cell_angle_alpha  90.966905
_cell_angle_beta   90.050137
_cell_angle_gamma 119.64918
loop_
_atom_site_label
_atom_site_type_symbol
_atom_site_fract_x
_atom_site_fract_y
_atom_site_fract_z
_atom_type_partial_charge
Cu0 Cu 0.9937 0.5493 0.02863 0.0
N1 N 0.97303 0.56861 0.09004 0.0
N2 N 0.98602 0.619 0.15572 0.0
C3 C 0.99453 0.61129 0.10395 0.0
C4 C 0.95753 0.57961 0.17565 0.0
C5 C 0.94923 0.54869 0.13504 0.0
O6 O 0.01298 0.59697 0.9795 0.0
C7 C 0.02015 0.50839 0.09533 0.0
O8 O 0.97589 0.48663 0.09697 0.0
H9 H 0.01884 0.6362 0.07782 0.0
H10 H 0.92897 0.51411 0.13952 0.0
N11 N 0.95799 0.50047 0.98177 0.0
N12 N 0.96447 0.45943 0.9145 0.0
C13 C 0.97174 0.47157 0.96819 0.0
C14 C 0.93888 0.50399 0.93489 0.0
C15 C 0.94382 0.47985 0.89349 0.0
C16 C 0.98208 0.60663 0.97085 0.0
O17 O 0.94315 0.58548 0.99576 0.0
H18 H 0.99329 0.46512 0.99436 0.0
H19 H 0.92714 0.52668 0.92849 0.0
O20 O 0.03933 0.53918 0.06173 0.0
H21 H 0.94376 0.57351 0.21659 0.0
H22 H 0.93464 0.47886 0.85076 0.0
Cu23 Cu 0.51698 0.54836 0.05667 0.0
N24 N 0.56522 0.56316 1.00861 0.0
N25 N 0.60283 0.58983 0.93074 0.0
C26 C 0.56197 0.5683 0.95453 0.0
C27 C 0.63321 0.59786 0.97119 0.0
C28 C 0.60983 0.58162 1.01942 0.0
O29 O 0.5273 0.60361 0.08971 0.0
C30 C 0.46016 0.47324 0.99982 0.0
O31 O 0.49372 0.46723 1.01446 0.0
H32 H 0.53027 0.55946 0.93401 0.0
H33 H 0.62442 0.58581 0.05998 0.0
N34 N 0.51645 0.51663 0.11772 0.0
N35 N 0.49268 0.48116 0.19662 0.0
C36 C 0.48534 0.50372 0.15785 0.0
C37 C 0.54451 0.50181 0.1316 0.0
C38 C 0.52989 0.47985 0.18024 0.0
C39 C 0.5504 0.64042 0.06747 0.0
O40 O 0.55712 0.64212 1.0144 0.0
H41 H 0.45776 0.51065 0.15835 0.0
H42 H 0.57336 0.50644 0.10795 0.0
O43 O 0.46169 0.5088 1.0142 0.0
H44 H 0.66956 0.61616 0.96694 0.0
H45 H 0.54543 0.46411 0.20178 0.0
Cu46 Cu 0.56828 0.06342 1.00147 0.0
N47 N 0.54742 0.0775 0.93749 0.0
N48 N 0.49141 0.06707 0.87972 0.0
C49 C 0.50533 0.07175 0.93253 0.0
C50 C 0.52667 0.07175 0.84976 0.0
C51 C 0.56069 0.07733 0.88534 0.0
O52 O 0.51217 0.01886 0.03585 0.0
C53 C 0.64905 0.07403 0.95603 0.0
O54 O 0.65132 0.11013 0.94021 0.0
H55 H 0.4835 0.06618 0.96696 0.0
H56 H 0.59024 0.07563 0.87334 0.0
N57 N 0.5977 0.10827 0.05368 0.0
N58 N 0.63743 0.11601 0.1301 0.0
C59 C 0.63621 0.1127 0.0752 0.0
C60 C 0.57671 0.11499 0.0965 0.0
C61 C 0.60074 0.11885 0.14408 0.0
C62 C 0.49892 0.01792 0.08531 0.0
O63 O 0.52651 0.02448 0.12651 0.0
H64 H 0.65859 0.10495 0.05295 0.0
H65 H 0.54255 0.10953 0.09496 0.0
O66 O 0.61387 0.0466 0.98165 0.0
H67 H 0.52614 0.06677 0.80579 0.0
H68 H 0.58951 0.11884 0.18559 0.0
Cu69 Cu 0.54124 0.07254 0.53126 0.0
N70 N 0.57488 0.09331 0.46499 0.0
N71 N 0.62403 0.11157 0.39507 0.0
C72 C 0.59262 0.07857 0.42559 0.0
C73 C 0.62657 0.14773 0.41634 0.0
C74 C 0.59816 0.13671 0.45969 0.0
O75 O 0.58347 0.06458 0.57693 0.0
C76 C 0.51016 0.13069 0.51386 0.0
O77 O 0.50904 0.11713 0.46322 0.0
H78 H 0.58426 0.04513 0.42077 0.0
H79 H 0.59679 0.15971 0.48793 0.0
N80 N 0.48272 0.02262 0.54164 0.0
N81 N 0.42753 1.00902 0.6032 0.0
C82 C 0.44853 0.02984 0.55699 0.0
C83 C 0.47763 0.99087 0.57584 0.0
C84 C 0.44463 0.98303 0.6136 0.0
C85 C 0.58771 0.03224 0.56176 0.0
O86 O 0.56275 1.00817 0.5204 0.0
H87 H 0.44358 0.05467 0.53968 0.0
H88 H 0.50078 0.97882 0.58055 0.0
O89 O 0.52734 0.11835 0.55157 0.0
H90 H 0.64968 0.1804 0.40365 0.0
H91 H 0.43762 0.9634 0.64963 0.0
Cu92 Cu 0.04243 0.58468 0.53765 0.0
N93 N 0.06792 0.56396 0.59028 0.0
N94 N 0.05758 0.51853 0.65915 0.0
C95 C 0.04131 0.54081 0.63204 0.0
C96 C 0.09697 0.52877 0.63421 0.0
C97 C 0.10324 0.55674 0.59161 0.0
O98 O 0.99713 0.53026 0.50388 0.0
C99 C 0.06886 0.65794 0.59284 0.0
O100 O 0.10689 0.66101 0.57594 0.0
H101 H 1.0086 0.5379 0.63967 0.0
H102 H 0.12987 0.56828 0.56161 0.0
N103 N 0.07057 0.61989 0.47601 0.0
N104 N 0.07502 0.65988 0.40298 0.0
C105 C 0.04954 0.63642 0.44531 0.0
C106 C 0.11097 0.63367 0.45242 0.0
C107 C 0.1137 0.6581 0.40745 0.0
C108 C 0.01996 0.51539 0.47949 0.0
O109 O 0.06419 0.53862 0.48027 0.0
H110 H 0.01588 0.63083 0.45369 0.0
H111 H 0.13645 0.62628 0.46658 0.0
O112 O 0.03127 0.62382 0.58142 0.0
H113 H 0.11861 0.51553 0.64425 0.0
H114 H 0.1421 0.67327 0.37999 0.0
Cu115 Cu 0.50691 0.49725 0.58382 0.0
N116 N 0.56218 0.52011 0.55008 0.0
N117 N 0.62041 0.5787 0.5161 0.0
C118 C 0.58104 0.56257 0.54202 0.0
C119 C 0.62705 0.54472 0.50642 0.0
C120 C 0.59059 0.50806 0.52793 0.0
O121 O 0.52159 0.54126 0.64122 0.0
C122 C 0.46982 0.48938 0.4768 0.0
O123 O 0.51037 0.50044 0.4591 0.0
H124 H 0.56528 0.58132 0.55445 0.0
H125 H 0.58507 0.4754 0.52692 0.0
N126 N 0.48083 0.442 0.61286 0.0
N127 N 0.40894 0.38973 0.62035 0.0
C128 C 0.44356 0.41174 0.58604 0.0
C129 C 0.47047 0.43502 0.66648 0.0
C130 C 0.42627 0.40287 0.67118 0.0
C131 C 0.55276 0.54638 0.67479 0.0
O132 O 0.56447 0.51638 0.67656 0.0
H133 H 0.43895 0.41252 0.54229 0.0
H134 H 0.48965 0.45693 0.69962 0.0
O135 O 0.46319 0.49212 0.52792 0.0
H136 H 0.65606 0.54631 0.48609 0.0
H137 H 0.40683 0.39451 0.70856 0.0
Cu138 Cu 0.67567 0.88015 0.3469 0.0
N139 N 0.70544 0.92247 0.29567 0.0
N140 N 0.71362 0.97764 0.24624 0.0
C141 C 0.70046 0.95755 0.29433 0.0
C142 C 0.72847 0.95503 0.2163 0.0
C143 C 0.72321 0.9207 0.24699 0.0
O144 O 0.66826 0.91221 0.41082 0.0
C145 C 0.62065 0.83176 0.25532 0.0
O146 O 0.62684 0.86667 0.23046 0.0
H147 H 0.68441 0.96631 0.32649 0.0
H148 H 0.72771 0.89425 0.23249 0.0
N149 N 0.70708 0.85199 0.36485 0.0
N150 N 0.70536 0.79125 0.38986 0.0
C151 C 0.69011 0.8191 0.40001 0.0
C152 C 0.73424 0.84471 0.33147 0.0
C153 C 0.73339 0.80726 0.34696 0.0
C154 C 0.68978 0.92224 0.4569 0.0
O155 O 0.71413 0.90439 0.47001 0.0
H156 H 0.6644 0.81395 0.42973 0.0
H157 H 0.75092 0.86331 0.29591 0.0
O158 O 0.62362 0.8325 0.30777 0.0
H159 H 0.74041 0.96176 0.17455 0.0
H160 H 0.75153 0.79274 0.32787 0.0
Cu161 Cu 0.23579 0.91756 0.3852 0.0
N162 N 0.18792 0.89298 0.33299 0.0
N163 N 0.13344 0.84167 0.2792 0.0
C164 C 0.15785 0.85021 0.32606 0.0
C165 C 0.149 0.88038 0.25534 0.0
C166 C 0.18214 0.91183 0.28867 0.0
O167 O 0.21757 0.87524 0.44477 0.0
C168 C 0.30424 0.95788 0.30702 0.0
O169 O 0.28453 0.98141 0.30269 0.0
H170 H 0.15512 0.82556 0.35367 0.0
H171 H 0.20128 0.94595 0.28027 0.0
N172 N 0.24642 0.96979 0.42158 0.0
N173 N 0.28767 0.03113 0.47135 0.0
C174 C 0.28563 1.00829 0.42526 0.0
C175 C 0.22304 0.96978 0.46621 0.0
C176 C 0.24853 1.00663 0.49725 0.0
C177 C 0.17751 0.8598 0.46376 0.0
O178 O 0.14928 0.86989 0.44049 0.0
H179 H 0.31443 0.01668 0.3993 0.0
H180 H 0.19135 0.9431 0.47882 0.0
O181 O 0.29018 0.92851 0.34328 0.0
H182 H 0.13668 0.88578 0.217 0.0
H183 H 0.23961 0.01416 0.53693 0.0
Cu184 Cu 0.19817 0.44944 0.38306 0.0
N185 N 0.20815 0.5056 0.37142 0.0
N186 N 0.1717 0.52505 0.31193 0.0
C187 C 0.17013 0.50721 0.36085 0.0
C188 C 0.21489 0.54197 0.29591 0.0
C189 C 0.23732 0.53052 0.33275 0.0
O190 O 0.13527 0.41207 0.36116 0.0
C191 C 0.28065 0.46181 0.34811 0.0
O192 O 0.29444 0.49515 0.38188 0.0
H193 H 0.1386 0.48556 0.38035 0.0
H194 H 0.2691 0.53228 0.32365 0.0
N195 N 0.20852 0.43721 0.45395 0.0
N196 N 0.22759 0.40449 0.5176 0.0
C197 C 0.21749 0.40512 0.46437 0.0
C198 C 0.21244 0.45741 0.50242 0.0
C199 C 0.22405 0.43708 0.54199 0.0
C200 C 0.10321 0.39723 0.39559 0.0
O201 O 0.11232 0.39594 0.44757 0.0
H202 H 0.21768 0.38333 0.43302 0.0
H203 H 0.20831 0.48545 0.50826 0.0
O204 O 0.2385 0.43858 0.33848 0.0
H205 H 0.22712 0.55453 0.25555 0.0
H206 H 0.23083 0.44648 0.5849 0.0
Cu207 Cu 0.19434 0.38405 0.91321 0.0
N208 N 0.2406 0.40877 0.86336 0.0
N209 N 0.27864 0.41474 0.78719 0.0
C210 C 0.24097 0.3899 0.81563 0.0
C211 C 0.30307 0.45084 0.81807 0.0
C212 C 0.27928 0.44703 0.86547 0.0
O213 O 0.19053 0.33238 0.94617 0.0
C214 C 0.131 0.39892 0.8527 0.0
O215 O 0.16649 0.43641 0.8421 0.0
H216 H 0.21402 0.35844 0.8022 0.0
H217 H 0.28941 0.47031 0.89903 0.0
N218 N 0.20156 0.42203 0.96983 0.0
N219 N 0.1758 0.44771 0.03564 0.0
C220 C 0.16758 0.42825 0.98614 0.0
C221 C 0.23301 0.43885 1.01001 0.0
C222 C 0.21717 0.45509 0.05095 0.0
C223 C 0.21677 0.31843 0.96243 0.0
O224 O 0.19825 0.28166 0.98843 0.0
H225 H 0.13553 0.41496 0.96467 0.0
H226 H 0.26343 0.43643 1.01134 0.0
O227 O 0.13625 0.37075 0.87875 0.0
H228 H 0.33555 0.4778 0.80725 0.0
H229 H 0.23337 0.46852 0.0902 0.0
Cu230 Cu 0.6896 0.87384 0.84316 0.0
N231 N 0.70201 0.83836 0.79748 0.0
N232 N 0.69195 0.77771 0.75594 0.0
C233 C 0.68546 0.7953 0.80214 0.0
C234 C 0.71383 0.81089 0.72147 0.0
C235 C 0.72013 0.8481 0.7472 0.0
O236 O 0.6528 0.83507 0.90285 0.0
C237 C 0.68547 0.92745 0.7594 0.0
O238 O 0.72934 0.94287 0.75954 0.0
H239 H 0.66689 0.77697 0.83728 0.0
H240 H 0.73522 0.87961 0.7292 0.0
N241 N 0.74248 0.91863 0.8757 0.0
N242 N 0.77847 0.98038 0.92454 0.0
C243 C 0.75107 0.95972 0.88126 0.0
C244 C 0.76731 0.91391 0.91526 0.0
C245 C 0.7886 0.95168 0.94648 0.0
C246 C 0.65953 0.84411 0.95427 0.0
O247 O 0.68461 0.88439 0.97098 0.0
H248 H 0.73184 0.97187 0.85997 0.0
H249 H 0.76492 0.8834 0.92555 0.0
O250 O 0.6613 0.89868 0.79444 0.0
H251 H 0.72427 0.80839 0.68027 0.0
H252 H 0.8073 0.95657 0.98432 0.0
Cu253 Cu 0.2168 0.86932 0.88926 0.0
N254 N 0.19353 0.8897 0.83458 0.0
N255 N 0.15712 0.86186 0.75457 0.0
C256 C 0.15634 0.85805 0.80931 0.0
C257 C 0.19442 0.89978 0.74434 0.0
C258 C 0.21679 0.91692 0.79386 0.0
O259 O 0.16416 0.81648 0.91049 0.0
C260 C 0.29504 0.88159 0.82501 0.0
O261 O 0.31526 0.86453 0.7966 0.0
H262 H 0.13255 0.82879 0.82922 0.0
H263 H 0.25006 0.94474 0.79842 0.0
N264 N 0.23785 0.8974 0.9569 0.0
N265 N 0.27932 0.94245 0.02429 0.0
C266 C 0.26601 0.93879 0.97135 0.0
C267 C 0.23193 0.8748 1.003 0.0
C268 C 0.25689 0.90255 0.04492 0.0
C269 C 0.13357 0.81806 0.93907 0.0
O270 O 0.14045 0.85514 0.95983 0.0
H271 H 0.2785 0.96538 0.9433 0.0
H272 H 0.21302 0.83992 1.0051 0.0
O273 O 0.2601 0.85653 0.85272 0.0
H274 H 0.20672 0.9122 0.70399 0.0
H275 H 0.26159 0.89358 0.08559 0.0
Cu276 Cu 0.32731 0.21004 0.73656 0.0
N277 N 0.27187 0.20099 0.70888 0.0
N278 N 0.23403 0.22511 0.65881 0.0
C279 C 0.26598 0.21308 0.65894 0.0
C280 C 0.21645 0.21653 0.70968 0.0
C281 C 0.23985 0.20172 0.74036 0.0
O282 O 0.3509 0.2641 0.78312 0.0
C283 C 0.37684 0.22385 0.62728 0.0
O284 O 0.36901 0.25321 0.60621 0.0
H285 H 0.29001 0.22066 0.62655 0.0
H286 H 0.23839 0.19848 0.78441 0.0
N287 N 0.31735 0.16036 0.77512 0.0
N288 N 0.31924 0.10043 0.79946 0.0
C289 C 0.3322 0.13216 0.76216 0.0
C290 C 0.29341 0.14525 0.82116 0.0
C291 C 0.29492 0.10888 0.8365 0.0
C292 C 0.36097 0.26814 0.83431 0.0
O293 O 0.36235 0.2363 0.85892 0.0
H294 H 0.35337 0.13576 0.72735 0.0
H295 H 0.27667 0.16013 0.84263 0.0
O296 O 0.36486 0.2104 0.67597 0.0
H297 H 0.19333 0.22646 0.72599 0.0
H298 H 0.27973 0.09038 0.8729 0.0
Cu299 Cu 0.87719 0.21478 0.66204 0.0
N300 N 0.91184 0.23764 0.59873 0.0
N301 N 0.93338 0.28835 0.53456 0.0
C302 C 0.93358 0.28047 0.58829 0.0
C303 C 0.91207 0.24925 0.50933 0.0
C304 C 0.89905 0.21813 0.54889 0.0
O305 O 0.88687 0.26568 0.70666 0.0
C306 C 0.81513 0.13156 0.62319 0.0
O307 O 0.8507 0.127 0.63037 0.0
H308 H 0.94367 0.30554 0.61937 0.0
H309 H 0.87677 0.18388 0.54205 0.0
N310 N 0.89144 0.18559 0.7137 0.0
N311 N 0.87646 0.15034 0.79238 0.0
C312 C 0.86261 0.16889 0.75548 0.0
C313 C 0.92525 0.17733 0.72407 0.0
C314 C 0.91594 0.1553 0.77309 0.0
C315 C 0.92826 0.28791 0.72269 0.0
O316 O 0.95685 0.27516 0.70748 0.0
H317 H 0.83214 0.17116 0.75898 0.0
H318 H 0.95462 0.18716 0.69866 0.0
O319 O 0.81782 0.16827 0.6345 0.0
H320 H 0.90418 0.24354 0.46593 0.0
H321 H 0.93679 0.14442 0.79317 0.0
Cu322 Cu 0.87249 0.74343 0.67295 0.0
N323 N 0.86318 0.78538 0.64096 0.0
N324 N 0.81279 0.77554 0.57662 0.0
C325 C 0.81943 0.77187 0.63007 0.0
C326 C 0.85398 0.79719 0.55442 0.0
C327 C 0.88506 0.80433 0.59447 0.0
O328 O 0.81363 0.6904 0.67146 0.0
C329 C 0.95787 0.77193 0.63278 0.0
O330 O 0.96398 0.80796 0.65613 0.0
H331 H 0.79261 0.74988 0.6565 0.0
H332 H 0.91979 0.81455 0.58568 0.0
N333 N 0.89469 0.75606 0.74369 0.0
N334 N 0.93056 0.74951 0.81562 0.0
C335 C 0.92033 0.74009 0.76237 0.0
C336 C 0.88808 0.77645 0.78661 0.0
C337 C 0.9104 0.77236 0.83162 0.0
C338 C 0.79171 0.67186 0.71439 0.0
O339 O 0.81318 0.67989 0.76155 0.0
H340 H 0.92984 0.72041 0.73764 0.0
H341 H 0.86769 0.79201 0.78556 0.0
O342 O 0.91856 0.7387 0.63266 0.0
H343 H 0.86078 0.8024 0.51102 0.0
H344 H 0.91141 0.78482 0.8727 0.0
Cu345 Cu 0.8288 0.72156 0.18758 0.0
N346 N 0.83769 0.70695 0.11695 0.0
N347 N 0.87454 0.70067 0.04494 0.0
C348 C 0.87834 0.7208 0.09353 0.0
C349 C 0.82983 0.67335 0.03735 0.0
C350 C 0.80718 0.67718 0.08204 0.0
O351 O 0.89084 0.75011 0.21983 0.0
C352 C 0.77258 0.75806 0.14691 0.0
O353 O 0.78567 0.75547 0.0971 0.0
H354 H 0.91011 0.7441 0.11258 0.0
H355 H 0.77125 0.65871 0.08939 0.0
N356 N 0.79385 0.67136 0.22639 0.0
N357 N 0.75615 0.65141 0.30452 0.0
C358 C 0.7589 0.66852 0.25508 0.0
C359 C 0.81026 0.65044 0.25588 0.0
C360 C 0.78797 0.6394 0.30526 0.0
C361 C 0.90585 0.74096 0.26304 0.0
O362 O 0.88003 0.7252 0.306 0.0
H363 H 0.74248 0.68699 0.24522 0.0
H364 H 0.84139 0.65049 0.24694 0.0
O365 O 0.79148 0.75095 0.18795 0.0
H366 H 0.81464 0.65151 1.00253 0.0
H367 H 0.7977 0.62802 0.34087 0.0
Cu368 Cu 0.39026 0.24129 0.22121 0.0
N369 N 0.36451 0.1871 0.18553 0.0
N370 N 0.37211 0.13532 0.14207 0.0
C371 C 0.37917 0.15808 0.18938 0.0
C372 C 0.35136 0.14947 0.10796 0.0
C373 C 0.34589 0.1805 0.13506 0.0
O374 O 0.43135 0.2431 0.27957 0.0
C375 C 0.38228 0.28755 0.13466 0.0
O376 O 0.34045 0.26748 0.15201 0.0
H377 H 0.39989 0.15772 0.2228 0.0
H378 H 0.33318 0.19967 0.11661 0.0
N379 N 0.35114 0.25428 0.25954 0.0
N380 N 0.33992 0.30002 0.3116 0.0
C381 C 0.36385 0.29589 0.27063 0.0
C382 C 0.31685 0.23099 0.29377 0.0
C383 C 0.31011 0.25936 0.32652 0.0
C384 C 0.41092 0.21469 0.31622 0.0
O385 O 0.36831 0.18575 0.30805 0.0
H386 H 0.39304 0.32272 0.2524 0.0
H387 H 0.30006 0.19623 0.29745 0.0
O388 O 0.41253 0.28322 0.16082 0.0
H389 H 0.34155 0.13864 0.06586 0.0
H390 H 0.28622 0.25083 0.35965 0.0
Cu391 Cu 0.8922 0.27125 0.19354 0.0
N392 N 0.88213 0.24798 0.12169 0.0
N393 N 0.85581 0.19677 0.0553 0.0
C394 C 0.86178 0.20521 0.10969 0.0
C395 C 0.87419 0.23588 0.03174 0.0
C396 C 0.89006 0.26742 0.07287 0.0
O397 O 0.86031 0.22163 0.24096 0.0
C398 C 0.98939 0.328 0.17967 0.0
O399 O 0.98359 0.31698 0.12748 0.0
H400 H 0.85038 0.18054 0.14038 0.0
H401 H 0.90517 0.30194 0.06759 0.0
N402 N 0.86859 0.30866 0.20773 0.0
N403 N 0.89388 0.36335 0.26883 0.0
C404 C 0.90057 0.34967 0.21962 0.0
C405 C 0.8366 0.3 0.24606 0.0
C406 C 0.85252 0.33303 0.28411 0.0
C407 C 0.81758 0.20128 0.23423 0.0
O408 O 0.80012 0.21355 0.19511 0.0
H409 H 0.93334 0.36413 0.20052 0.0
H410 H 0.80751 0.26912 0.25358 0.0
O411 O 0.95705 0.30704 0.21292 0.0
H412 H 0.87408 0.24126 0.9882 0.0
H413 H 0.83808 0.33146 0.32413 0.0
Zn414 Zn 0.02473 0.74518 0.19569 0.0
Zn415 Zn 0.01717 0.71101 0.29291 0.0
O416 O 0.99874 0.66136 0.23331 0.0
O417 O 0.02 0.69272 0.15371 0.0
O418 O 0.02746 0.68123 0.36166 0.0
O419 O 0.08239 0.80027 0.21317 0.0
O420 O 0.07839 0.77112 0.29318 0.0
C421 C 1.00252 0.6585 0.1815 0.0
C422 C 0.94817 0.73863 0.25867 0.0
O423 O 0.96227 0.72374 0.29719 0.0
O424 O 0.96788 0.74774 0.21279 0.0
C425 C 0.06472 0.6803 0.3627 0.0
O426 O 0.09354 0.69906 0.32289 0.0
C427 C 0.09819 0.80314 0.26098 0.0
Zn428 Zn 0.34147 0.39525 0.4096 0.0
Zn429 Zn 0.39457 0.43884 0.32201 0.0
O430 O 0.43732 0.46724 0.38792 0.0
O431 O 0.3939 0.43651 0.45925 0.0
O432 O 0.43328 0.46677 0.25374 0.0
O433 O 0.33017 0.33765 0.38108 0.0
O434 O 0.37195 0.37347 0.31085 0.0
C435 C 0.43137 0.46436 0.43961 0.0
C436 C 0.30745 0.44047 0.34836 0.0
O437 O 0.34445 0.45567 0.32218 0.0
O438 O 0.29807 0.41301 0.38529 0.0
C439 C 0.46787 0.46312 0.24247 0.0
O440 O 0.47932 0.44138 0.27573 0.0
C441 C 0.34737 0.33782 0.33511 0.0
Zn442 Zn 0.73532 0.08748 0.18559 0.0
Zn443 Zn 0.69176 0.08734 0.27032 0.0
O444 O 0.65375 0.09595 0.2119 0.0
O445 O 0.69843 0.10712 0.14182 0.0
O446 O 0.65331 0.07866 0.33916 0.0
O447 O 0.7238 0.02775 0.18372 0.0
O448 O 0.70014 0.03314 0.266 0.0
C449 C 0.66429 0.1072 0.16245 0.0
C450 C 0.79009 0.15683 0.25107 0.0
O451 O 0.75174 0.14613 0.27225 0.0
O452 O 0.79411 0.12999 0.22073 0.0
C453 C 0.6505 0.11178 0.35295 0.0
O454 O 0.67464 0.14752 0.3257 0.0
C455 C 0.71177 0.01316 0.23124 0.0
Zn456 Zn 0.99241 0.36408 0.86141 0.0
Zn457 Zn 0.02287 0.42065 0.78106 0.0
O458 O 0.97832 0.36203 0.74206 0.0
O459 O 0.94147 0.31993 0.81053 0.0
O460 O 0.05219 0.46683 0.71958 0.0
O461 O 0.98428 0.40699 0.9106 0.0
O462 O 0.98959 0.44244 0.83533 0.0
C463 C 0.94624 0.32622 0.7594 0.0
C464 C 0.08512 0.3925 0.84222 0.0
O465 O 0.07961 0.41887 0.81247 0.0
O466 O 0.05152 0.36245 0.86607 0.0
C467 C 0.03602 0.48947 0.69994 0.0
O468 O 0.99728 0.48371 0.71866 0.0
C469 C 0.9798 0.43583 0.88628 0.0
Zn470 Zn 0.66909 0.66479 0.67656 0.0
Zn471 Zn 0.66108 0.6465 0.78063 0.0
O472 O 0.6659 0.70751 0.78226 0.0
O473 O 0.68483 0.72535 0.69638 0.0
O474 O 0.65093 0.62644 0.86043 0.0
O475 O 0.605 0.6188 0.65695 0.0
O476 O 0.60729 0.59529 0.73875 0.0
C477 C 0.67986 0.73576 0.74465 0.0
C478 C 0.74293 0.65678 0.71472 0.0
O479 O 0.72364 0.65454 0.76036 0.0
O480 O 0.72343 0.65596 0.67008 0.0
C481 C 0.61079 0.60365 0.87804 0.0
O482 O 0.57666 0.59438 0.84482 0.0
C483 C 0.58731 0.58997 0.6927 0.0
Zn484 Zn 0.35157 0.01316 0.86967 0.0
Zn485 Zn 0.37878 0.01685 0.76588 0.0
O486 O 0.3525 0.06096 0.76647 0.0
O487 O 0.32385 0.04974 0.84963 0.0
O488 O 0.40041 1.00826 0.68927 0.0
O489 O 0.41698 0.0428 0.89589 0.0
O490 O 0.4385 0.0435 0.81064 0.0
C491 C 0.33147 0.0692 0.80449 0.0
C492 C 0.31527 0.92905 0.82639 0.0
O493 O 0.33717 0.95137 0.78531 0.0
O494 O 0.31498 0.94791 0.87032 0.0
C495 C 0.4042 0.02027 0.63953 0.0
O496 O 0.39075 0.04763 0.6257 0.0
C497 C 0.4482 0.05179 0.86158 0.0
Zn498 Zn 0.71201 0.04599 0.51579 0.0
Zn499 Zn 0.69224 0.99988 0.6076 0.0
O500 O 0.69207 0.95797 0.54341 0.0
O501 O 0.70295 0.99428 0.46743 0.0
O502 O 0.69179 0.96798 0.67953 0.0
O503 O 0.77008 0.09666 0.5447 0.0
O504 O 0.74984 0.06113 0.62204 0.0
C505 C 0.69417 0.95951 0.4909 0.0
C506 C 0.63079 0.0336 0.56845 0.0
O507 O 0.63584 1.00832 0.60092 0.0
O508 O 0.65878 0.05268 0.53085 0.0
C509 C 0.6657 0.94229 0.71607 0.0
O510 O 0.62198 0.92759 0.71334 0.0
C511 C 0.77536 0.09558 0.59587 0.0
Zn512 Zn 0.05399 0.74431 0.6903 0.0
Zn513 Zn 0.09395 0.79261 0.60463 0.0
O514 O 0.13472 0.83372 0.66724 0.0
O515 O 0.09808 0.79456 0.73796 0.0
O516 O 0.12418 0.82406 0.53391 0.0
O517 O 0.05756 0.69249 0.66877 0.0
O518 O 0.08559 0.73076 0.59403 0.0
C519 C 0.12928 0.82963 0.71893 0.0
C520 C 0.99642 0.7653 0.63255 0.0
O521 O 0.03223 0.79044 0.60666 0.0
O522 O 0.9967 0.74048 0.66853 0.0
C523 C 0.1628 0.83407 0.51406 0.0
O524 O 0.18988 0.82385 0.54004 0.0
C525 C 0.07054 0.69536 0.61989 0.0
Zn526 Zn 0.28386 0.32412 0.54313 0.0
Zn527 Zn 0.26931 0.34844 0.64171 0.0
O528 O 0.25164 0.3828 0.59155 0.0
O529 O 0.24756 0.35187 0.51151 0.0
O530 O 0.26129 0.36855 0.7147 0.0
O531 O 0.25941 0.26603 0.5827 0.0
O532 O 0.22663 0.28422 0.64661 0.0
C533 C 0.24197 0.37875 0.54075 0.0
C534 C 0.36437 0.37001 0.60648 0.0
O535 O 0.33545 0.36374 0.64335 0.0
O536 O 0.35189 0.36154 0.5566 0.0
C537 C 0.28871 0.40452 0.73747 0.0
O538 O 0.32613 0.43146 0.7125 0.0
C539 C 0.23625 0.25679 0.62617 0.0
Zn540 Zn 0.63742 0.72631 0.19754 0.0
Zn541 Zn 0.65363 0.77597 0.10683 0.0
O542 O 0.6025 0.71597 0.0793 0.0
O543 O 0.58697 0.6751 0.15186 0.0
O544 O 0.66389 0.81738 0.04223 0.0
O545 O 0.62299 0.76588 0.24562 0.0
O546 O 0.63689 0.80534 0.172 0.0
C547 C 0.57959 0.67935 0.10189 0.0
C548 C 0.7292 0.75865 0.15406 0.0
O549 O 0.71474 0.77422 0.1171 0.0
O550 O 0.70367 0.73829 0.19362 0.0
C551 C 0.64481 0.80921 0.99489 0.0
O552 O 0.61508 0.76926 0.98082 0.0
C553 C 0.62572 0.79871 0.22256 0.0
Zn554 Zn 0.39565 0.05053 0.05441 0.0
Zn555 Zn 0.37657 0.01659 0.1532 0.0
O556 O 0.38159 0.07772 0.1626 0.0
O557 O 0.39242 0.10189 0.07846 0.0
O558 O 0.34615 0.99007 0.22705 0.0
O559 O 0.34039 1.00834 1.01787 0.0
O560 O 0.32618 0.97617 0.09764 0.0
C561 C 0.38451 0.10561 0.12818 0.0
C562 C 0.45906 0.02362 0.0939 0.0
O563 O 0.43676 0.01423 0.13873 0.0
O564 O 0.44829 0.03994 0.05509 0.0
C565 C 0.33871 0.96368 0.26582 0.0
O566 O 0.35731 0.939 0.2653 0.0
C567 C 0.3153 0.97698 0.04762 0.0
Zn568 Zn 0.04887 0.45559 0.23749 0.0
Zn569 Zn 0.10425 0.46274 0.16093 0.0
O570 O 0.07985 0.49522 0.1185 0.0
O571 O 0.02637 0.48086 0.17892 0.0
O572 O 0.15376 0.46441 0.11593 0.0
O573 O 0.09635 0.4941 0.29395 0.0
O574 O 0.14134 0.49671 0.22836 0.0
C575 C 0.04472 0.49623 0.13333 0.0
C576 C 0.02471 0.37257 0.19563 0.0
O577 O 0.05507 0.39651 0.16171 0.0
O578 O 0.01868 0.38969 0.23819 0.0
C579 C 0.14521 0.45226 0.06626 0.0
O580 O 0.10485 0.44059 0.04615 0.0
C581 C 0.13593 0.5075 0.27658 0.0
Zn582 Zn 0.34995 0.38122 0.89397 0.0
Zn583 Zn 0.35485 0.33665 0.98389 0.0
O584 O 0.36337 0.30179 0.92085 0.0
O585 O 0.35869 0.33463 0.84729 0.0
O586 O 0.35767 0.30806 0.05528 0.0
O587 O 0.40244 0.43846 0.93015 0.0
O588 O 0.40559 0.39905 0.99668 0.0
C589 C 0.36276 0.30426 0.86872 0.0
C590 C 0.26616 0.33971 0.95282 0.0
O591 O 0.2895 0.32758 0.98103 0.0
O592 O 0.28396 0.36447 0.91269 0.0
C593 C 0.39123 0.31144 0.08306 0.0
O594 O 0.43266 0.33552 0.06562 0.0
C595 C 0.41969 0.43578 0.97508 0.0
Zn596 Zn 0.76501 0.06705 1.01929 0.0
Zn597 Zn 0.78701 0.10491 0.92328 0.0
O598 O 0.82703 0.15376 0.97846 0.0
O599 O 0.80838 0.12389 0.05921 0.0
O600 O 0.81774 0.13064 0.85173 0.0
O601 O 0.7852 0.02286 0.99888 0.0
O602 O 0.78199 0.0454 0.9169 0.0
C603 C 0.83085 0.15713 0.03049 0.0
C604 C 0.69182 0.07298 0.95814 0.0
O605 O 0.72324 0.09623 0.92502 0.0
O606 O 0.70001 0.05547 0.99837 0.0
C607 C 0.85493 0.13195 0.83966 0.0
O608 O 0.87254 0.116 0.87377 0.0
C609 C 0.78404 0.0178 0.94734 0.0
Zn610 Zn 0.01981 0.70838 0.86606 0.0
Zn611 Zn 0.9899 0.73235 0.95956 0.0
O612 O 0.96075 0.74612 0.89692 0.0
O613 O 0.97467 0.71843 0.82328 0.0
O614 O 0.94973 0.73246 0.02137 0.0
O615 O 1.00729 0.65141 0.89429 0.0
O616 O 0.98321 0.67252 0.96619 0.0
C617 C 0.95581 0.73766 0.84598 0.0
C618 C 0.08757 0.78229 0.93363 0.0
O619 O 0.05651 0.77852 0.96622 0.0
O620 O 0.0788 0.75783 0.89175 0.0
C621 C 0.90822 0.70539 1.01082 0.0
O622 O 0.89805 0.68173 0.96555 0.0
C623 C 0.99142 0.64523 0.94204 0.0
Zn624 Zn 0.39086 0.12157 0.57167 0.0
Zn625 Zn 0.40354 0.16086 0.48011 0.0
O626 O 0.35075 0.09794 0.4622 0.0
O627 O 0.3308 0.07101 0.54421 0.0
O628 O 0.40616 0.18709 0.40469 0.0
O629 O 0.39006 0.16633 0.61684 0.0
O630 O 0.39137 0.1988 0.54021 0.0
C631 C 0.32396 0.06732 0.49287 0.0
C632 C 0.47554 0.14211 0.52716 0.0
O633 O 0.46235 0.15838 0.49002 0.0
O634 O 0.45075 0.12406 0.56776 0.0
C635 C 0.4319 0.2134 0.36866 0.0
O636 O 0.47556 0.23717 0.37756 0.0
C637 C 0.38883 0.19675 0.59272 0.0
Zn638 Zn 0.0142 0.43702 0.34154 0.0
Zn639 Zn 0.96908 0.38574 0.4203 0.0
O640 O 0.97702 0.4393 0.46303 0.0
O641 O 0.01983 0.48203 0.39767 0.0
O642 O 0.93723 0.33043 0.46282 0.0
O643 O 0.96518 0.41677 0.2861 0.0
O644 O 0.92714 0.37307 0.35264 0.0
C645 C 1.00095 0.47705 0.44385 0.0
C646 C 0.0615 0.39771 0.38127 0.0
O647 O 0.03045 0.38709 0.41639 0.0
O648 O 0.06054 0.41673 0.33864 0.0
C649 C 0.94821 0.3277 0.51178 0.0
O650 O 0.97518 0.36329 0.53961 0.0
C651 C 0.92856 0.38675 0.30414 0.0
Zn652 Zn 0.68171 0.71119 0.52014 0.0
Zn653 Zn 0.72939 0.69308 0.44873 0.0
O654 O 0.71479 0.73347 0.40608 0.0
O655 O 0.6782 0.75137 0.46601 0.0
O656 O 0.75792 0.67164 0.39384 0.0
O657 O 0.73646 0.73824 0.57023 0.0
O658 O 0.77683 0.73416 0.50194 0.0
C659 C 0.69757 0.75675 0.42022 0.0
C660 C 0.64699 0.62121 0.50523 0.0
O661 O 0.68279 0.63415 0.47779 0.0
O662 O 0.63627 0.6483 0.52389 0.0
C663 C 0.73702 0.65986 0.3481 0.0
O664 O 0.70132 0.66431 0.34066 0.0
C665 C 0.77439 0.74921 0.54875 0.0
loop_
_geom_bond_atom_site_label_1
_geom_bond_atom_site_label_2
_geom_bond_distance
_geom_bond_site_symmetry_2
_ccdc_geom_bond_type
Cu0 N1 1.999 . S
Cu0 O6 1.974 1_554 S
Cu0 N11 1.985 1_554 S
Cu0 O20 1.959 . S
N1 Cu0 1.999 . S
N1 C3 1.263 . S
N1 C5 1.389 . S
N2 C3 1.358 . S
N2 C4 1.400 . S
C3 N1 1.263 . S
C3 N2 1.358 . S
C3 H9 0.930 . S
C4 N2 1.400 . S
C4 C5 1.351 . S
C4 H21 0.930 . S
C5 N1 1.389 . S
C5 C4 1.351 . S
C5 H10 0.930 . S
O6 Cu0 1.974 1_556 S
O6 C16 1.282 1_455 S
C7 O8 1.261 1_455 S
C7 O20 1.251 . S
O8 C7 1.261 1_655 S
H9 C3 0.930 . S
H10 C5 0.930 . S
N11 Cu0 1.985 1_556 S
N11 C13 1.335 . S
N11 C14 1.390 . S
N12 C13 1.345 . S
N12 C15 1.336 . S
C13 N11 1.335 . S
C13 N12 1.345 . S
C13 H18 0.930 . S
C14 N11 1.390 . S
C14 C15 1.346 . S
C14 H19 0.930 . S
C15 N12 1.336 . S
C15 C14 1.346 . S
C15 H22 0.929 . S
C16 O6 1.282 1_655 S
C16 O17 1.216 . S
O17 C16 1.216 . S
H18 C13 0.930 . S
H19 C14 0.930 . S
O20 Cu0 1.959 . S
O20 C7 1.251 . S
H21 C4 0.930 . S
H22 C15 0.929 . S
Cu23 N24 1.999 1_554 S
Cu23 O29 1.974 . S
Cu23 N34 1.985 . S
Cu23 O43 1.959 1_554 S
N24 Cu23 1.999 1_556 S
N24 C26 1.263 . S
N24 C28 1.389 . S
N25 C26 1.358 . S
N25 C27 1.400 . S
C26 N24 1.263 . S
C26 N25 1.358 . S
C26 H32 0.930 . S
C27 N25 1.400 . S
C27 C28 1.351 . S
C27 H44 0.930 . S
C28 N24 1.389 . S
C28 C27 1.351 . S
C28 H33 0.930 . S
O29 Cu23 1.974 . S
O29 C39 1.282 . S
C30 O31 1.261 . S
C30 O43 1.251 . S
O31 C30 1.261 . S
H32 C26 0.930 . S
H33 C28 0.930 . S
N34 Cu23 1.985 . S
N34 C36 1.335 . S
N34 C37 1.390 . S
N35 C36 1.345 . S
N35 C38 1.336 . S
C36 N34 1.335 . S
C36 N35 1.345 . S
C36 H41 0.930 . S
C37 N34 1.390 . S
C37 C38 1.346 . S
C37 H42 0.930 . S
C38 N35 1.336 . S
C38 C37 1.346 . S
C38 H45 0.929 . S
C39 O29 1.282 . S
C39 O40 1.216 . S
O40 C39 1.216 . S
H41 C36 0.930 . S
H42 C37 0.930 . S
O43 Cu23 1.959 1_556 S
O43 C30 1.251 . S
H44 C27 0.930 . S
H45 C38 0.929 . S
Cu46 N47 1.999 1_554 S
Cu46 O52 1.974 . S
Cu46 N57 1.985 . S
Cu46 O66 1.959 1_554 S
N47 Cu46 1.999 1_556 S
N47 C49 1.263 . S
N47 C51 1.389 1_545 S
N48 C49 1.358 . S
N48 C50 1.400 1_545 S
C49 N47 1.263 . S
C49 N48 1.358 . S
C49 H55 0.930 . S
C50 N48 1.400 1_565 S
C50 C51 1.351 . S
C50 H67 0.930 . S
C51 N47 1.389 1_565 S
C51 C50 1.351 . S
C51 H56 0.930 . S
O52 Cu46 1.974 . S
O52 C62 1.282 . S
C53 O54 1.261 . S
C53 O66 1.251 . S
O54 C53 1.261 . S
H55 C49 0.930 . S
H56 C51 0.930 . S
N57 Cu46 1.985 . S
N57 C59 1.335 . S
N57 C60 1.390 . S
N58 C59 1.345 . S
N58 C61 1.336 . S
C59 N57 1.335 . S
C59 N58 1.345 . S
C59 H64 0.930 . S
C60 N57 1.390 . S
C60 C61 1.346 . S
C60 H65 0.930 . S
C61 N58 1.336 . S
C61 C60 1.346 . S
C61 H68 0.929 . S
C62 O52 1.282 . S
C62 O63 1.216 . S
O63 C62 1.216 . S
H64 C59 0.930 . S
H65 C60 0.930 . S
O66 Cu46 1.959 1_556 S
O66 C53 1.251 . S
H67 C50 0.930 . S
H68 C61 0.929 . S
Cu69 N70 1.999 . S
Cu69 O75 1.974 . S
Cu69 N80 1.985 . S
Cu69 O89 1.959 . S
N70 Cu69 1.999 . S
N70 C72 1.263 . S
N70 C74 1.389 . S
N71 C72 1.358 . S
N71 C73 1.400 . S
C72 N70 1.263 . S
C72 N71 1.358 . S
C72 H78 0.930 . S
C73 N71 1.400 . S
C73 C74 1.351 . S
C73 H90 0.930 . S
C74 N70 1.389 . S
C74 C73 1.351 . S
C74 H79 0.930 . S
O75 Cu69 1.974 . S
O75 C85 1.260 1_545 S
C76 O77 1.261 . S
C76 O89 1.251 . S
O77 C76 1.261 . S
H78 C72 0.930 . S
H79 C74 0.930 . S
N80 Cu69 1.985 . S
N80 C82 1.335 . S
N80 C83 1.390 . S
N81 C82 1.345 . S
N81 C84 1.312 1_545 S
C82 N80 1.335 . S
C82 N81 1.345 . S
C82 H87 0.930 . S
C83 N80 1.390 . S
C83 C84 1.352 1_545 S
C83 H88 0.930 1_545 S
C84 N81 1.312 1_565 S
C84 C83 1.352 1_565 S
C84 H91 0.946 . S
C85 O75 1.260 1_565 S
C85 O86 1.225 . S
O86 C85 1.225 . S
H87 C82 0.930 . S
H88 C83 0.930 1_565 S
O89 Cu69 1.959 . S
O89 C76 1.251 . S
H90 C73 0.930 . S
H91 C84 0.946 . S
Cu92 N93 1.999 . S
Cu92 O98 1.974 . S
Cu92 N103 1.985 . S
Cu92 O112 1.959 . S
N93 Cu92 1.999 . S
N93 C95 1.263 . S
N93 C97 1.389 . S
N94 C95 1.358 . S
N94 C96 1.400 . S
C95 N93 1.263 . S
C95 N94 1.358 . S
C95 H101 0.930 . S
C96 N94 1.400 . S
C96 C97 1.351 . S
C96 H113 0.930 . S
C97 N93 1.389 . S
C97 C96 1.351 . S
C97 H102 0.930 1_455 S
O98 Cu92 1.974 . S
O98 C108 1.282 . S
C99 O100 1.261 . S
C99 O112 1.251 . S
O100 C99 1.261 . S
H101 C95 0.930 . S
H102 C97 0.930 1_655 S
N103 Cu92 1.985 . S
N103 C105 1.335 . S
N103 C106 1.390 . S
N104 C105 1.345 . S
N104 C107 1.336 . S
C105 N103 1.335 . S
C105 N104 1.345 . S
C105 H110 0.930 . S
C106 N103 1.390 . S
C106 C107 1.346 . S
C106 H111 0.930 . S
C107 N104 1.336 . S
C107 C106 1.346 . S
C107 H114 0.929 . S
C108 O98 1.282 . S
C108 O109 1.216 . S
O109 C108 1.216 . S
H110 C105 0.930 . S
H111 C106 0.930 . S
O112 Cu92 1.959 . S
O112 C99 1.251 . S
H113 C96 0.930 . S
H114 C107 0.929 . S
Cu115 N116 1.999 . S
Cu115 O121 1.974 . S
Cu115 N126 1.985 . S
Cu115 O135 1.959 . S
N116 Cu115 1.999 . S
N116 C118 1.263 . S
N116 C120 1.389 . S
N117 C118 1.358 . S
N117 C119 1.400 . S
C118 N116 1.263 . S
C118 N117 1.358 . S
C118 H124 0.930 . S
C119 N117 1.400 . S
C119 C120 1.351 . S
C119 H136 0.930 . S
C120 N116 1.389 . S
C120 C119 1.351 . S
C120 H125 0.930 . S
O121 Cu115 1.974 . S
O121 C131 1.282 . S
C122 O123 1.261 . S
C122 O135 1.251 . S
O123 C122 1.261 . S
H124 C118 0.930 . S
H125 C120 0.930 . S
N126 Cu115 1.985 . S
N126 C128 1.335 . S
N126 C129 1.390 . S
N127 C128 1.345 . S
N127 C130 1.336 . S
C128 N126 1.335 . S
C128 N127 1.345 . S
C128 H133 0.930 . S
C129 N126 1.390 . S
C129 C130 1.346 . S
C129 H134 0.930 . S
C130 N127 1.336 . S
C130 C129 1.346 . S
C130 H137 0.929 . S
C131 O121 1.282 . S
C131 O132 1.216 . S
O132 C131 1.216 . S
H133 C128 0.930 . S
H134 C129 0.930 . S
O135 Cu115 1.959 . S
O135 C122 1.251 . S
H136 C119 0.930 . S
H137 C130 0.929 . S
Cu138 N139 1.999 . S
Cu138 O144 1.974 . S
Cu138 N149 1.985 . S
Cu138 O158 1.959 . S
N139 Cu138 1.999 . S
N139 C141 1.263 . S
N139 C143 1.389 . S
N140 C141 1.358 . S
N140 C142 1.400 . S
C141 N139 1.263 . S
C141 N140 1.358 . S
C141 H147 0.930 . S
C142 N140 1.400 . S
C142 C143 1.351 . S
C142 H159 0.930 . S
C143 N139 1.389 . S
C143 C142 1.351 . S
C143 H148 0.930 . S
O144 Cu138 1.974 . S
O144 C154 1.282 . S
C145 O146 1.261 . S
C145 O158 1.251 . S
O146 C145 1.261 . S
H147 C141 0.930 . S
H148 C143 0.930 . S
N149 Cu138 1.985 . S
N149 C151 1.335 . S
N149 C152 1.390 . S
N150 C151 1.345 . S
N150 C153 1.336 . S
C151 N149 1.335 . S
C151 N150 1.345 . S
C151 H156 0.930 . S
C152 N149 1.390 . S
C152 C153 1.346 . S
C152 H157 0.930 . S
C153 N150 1.336 . S
C153 C152 1.346 . S
C153 H160 0.929 . S
C154 O144 1.282 . S
C154 O155 1.216 . S
O155 C154 1.216 . S
H156 C151 0.930 . S
H157 C152 0.930 . S
O158 Cu138 1.959 . S
O158 C145 1.251 . S
H159 C142 0.930 . S
H160 C153 0.929 . S
Cu161 N162 1.999 . S
Cu161 O167 1.974 . S
Cu161 N172 1.985 . S
Cu161 O181 1.959 . S
N162 Cu161 1.999 . S
N162 C164 1.263 . S
N162 C166 1.389 . S
N163 C164 1.358 . S
N163 C165 1.400 . S
C164 N162 1.263 . S
C164 N163 1.358 . S
C164 H170 0.930 . S
C165 N163 1.400 . S
C165 C166 1.351 . S
C165 H182 0.930 . S
C166 N162 1.389 . S
C166 C165 1.351 . S
C166 H171 0.930 . S
O167 Cu161 1.974 . S
O167 C177 1.282 . S
C168 O169 1.261 . S
C168 O181 1.251 . S
O169 C168 1.261 . S
H170 C164 0.930 . S
H171 C166 0.930 . S
N172 Cu161 1.985 . S
N172 C174 1.335 . S
N172 C175 1.390 . S
N173 C174 1.345 1_545 S
N173 C176 1.336 1_545 S
C174 N172 1.335 . S
C174 N173 1.345 1_565 S
C174 H179 0.930 . S
C175 N172 1.390 . S
C175 C176 1.346 . S
C175 H180 0.930 . S
C176 N173 1.336 1_565 S
C176 C175 1.346 . S
C176 H183 0.929 1_565 S
C177 O167 1.282 . S
C177 O178 1.216 . S
O178 C177 1.216 . S
H179 C174 0.930 . S
H180 C175 0.930 . S
O181 Cu161 1.959 . S
O181 C168 1.251 . S
H182 C165 0.930 . S
H183 C176 0.929 1_545 S
Cu184 N185 1.999 . S
Cu184 O190 1.974 . S
Cu184 N195 1.985 . S
Cu184 O204 1.959 . S
N185 Cu184 1.999 . S
N185 C187 1.263 . S
N185 C189 1.389 . S
N186 C187 1.358 . S
N186 C188 1.400 . S
C187 N185 1.263 . S
C187 N186 1.358 . S
C187 H193 0.930 . S
C188 N186 1.400 . S
C188 C189 1.351 . S
C188 H205 0.930 . S
C189 N185 1.389 . S
C189 C188 1.351 . S
C189 H194 0.930 . S
O190 Cu184 1.974 . S
O190 C200 1.282 . S
C191 O192 1.261 . S
C191 O204 1.251 . S
O192 C191 1.261 . S
H193 C187 0.930 . S
H194 C189 0.930 . S
N195 Cu184 1.985 . S
N195 C197 1.335 . S
N195 C198 1.390 . S
N196 C197 1.345 . S
N196 C199 1.336 . S
C197 N195 1.335 . S
C197 N196 1.345 . S
C197 H202 0.930 . S
C198 N195 1.390 . S
C198 C199 1.346 . S
C198 H203 0.930 . S
C199 N196 1.336 . S
C199 C198 1.346 . S
C199 H206 0.929 . S
C200 O190 1.282 . S
C200 O201 1.216 . S
O201 C200 1.216 . S
H202 C197 0.930 . S
H203 C198 0.930 . S
O204 Cu184 1.959 . S
O204 C191 1.251 . S
H205 C188 0.930 . S
H206 C199 0.929 . S
Cu207 N208 1.999 . S
Cu207 O213 1.974 . S
Cu207 N218 1.985 . S
Cu207 O227 1.959 . S
N208 Cu207 1.999 . S
N208 C210 1.263 . S
N208 C212 1.389 . S
N209 C210 1.358 . S
N209 C211 1.400 . S
C210 N208 1.263 . S
C210 N209 1.358 . S
C210 H216 0.930 . S
C211 N209 1.400 . S
C211 C212 1.351 . S
C211 H228 0.930 . S
C212 N208 1.389 . S
C212 C211 1.351 . S
C212 H217 0.930 . S
O213 Cu207 1.974 . S
O213 C223 1.282 . S
C214 O215 1.261 . S
C214 O227 1.251 . S
O215 C214 1.261 . S
H216 C210 0.930 . S
H217 C212 0.930 . S
N218 Cu207 1.985 . S
N218 C220 1.335 . S
N218 C221 1.390 . S
N219 C220 1.345 . S
N219 C222 1.336 1_556 S
C220 N218 1.335 . S
C220 N219 1.345 . S
C220 H225 0.930 . S
C221 N218 1.390 . S
C221 C222 1.346 1_556 S
C221 H226 0.930 . S
C222 N219 1.336 1_554 S
C222 C221 1.346 1_554 S
C222 H229 0.929 . S
C223 O213 1.282 . S
C223 O224 1.216 . S
O224 C223 1.216 . S
H225 C220 0.930 . S
H226 C221 0.930 . S
O227 Cu207 1.959 . S
O227 C214 1.251 . S
H228 C211 0.930 . S
H229 C222 0.929 . S
Cu230 N231 1.999 . S
Cu230 O236 1.974 . S
Cu230 N241 1.985 . S
Cu230 O250 1.959 . S
N231 Cu230 1.999 . S
N231 C233 1.263 . S
N231 C235 1.389 . S
N232 C233 1.358 . S
N232 C234 1.400 . S
C233 N231 1.263 . S
C233 N232 1.358 . S
C233 H239 0.930 . S
C234 N232 1.400 . S
C234 C235 1.351 . S
C234 H251 0.930 . S
C235 N231 1.389 . S
C235 C234 1.351 . S
C235 H240 0.930 . S
O236 Cu230 1.974 . S
O236 C246 1.282 . S
C237 O238 1.261 . S
C237 O250 1.251 . S
O238 C237 1.261 . S
H239 C233 0.930 . S
H240 C235 0.930 . S
N241 Cu230 1.985 . S
N241 C243 1.335 . S
N241 C244 1.390 . S
N242 C243 1.345 1_545 S
N242 C245 1.336 1_545 S
C243 N241 1.335 . S
C243 N242 1.345 1_565 S
C243 H248 0.930 . S
C244 N241 1.390 . S
C244 C245 1.346 . S
C244 H249 0.930 . S
C245 N242 1.336 1_565 S
C245 C244 1.346 . S
C245 H252 0.929 . S
C246 O236 1.282 . S
C246 O247 1.216 . S
O247 C246 1.216 . S
H248 C243 0.930 . S
H249 C244 0.930 . S
O250 Cu230 1.959 . S
O250 C237 1.251 . S
H251 C234 0.930 . S
H252 C245 0.929 . S
Cu253 N254 1.999 . S
Cu253 O259 1.974 . S
Cu253 N264 1.985 . S
Cu253 O273 1.959 . S
N254 Cu253 1.999 . S
N254 C256 1.263 . S
N254 C258 1.389 . S
N255 C256 1.358 . S
N255 C257 1.400 . S
C256 N254 1.263 . S
C256 N255 1.358 . S
C256 H262 0.930 . S
C257 N255 1.400 . S
C257 C258 1.351 . S
C257 H274 0.930 . S
C258 N254 1.389 . S
C258 C257 1.351 . S
C258 H263 0.930 . S
O259 Cu253 1.974 . S
O259 C269 1.282 . S
C260 O261 1.261 . S
C260 O273 1.251 . S
O261 C260 1.261 . S
H262 C256 0.930 . S
H263 C258 0.930 . S
N264 Cu253 1.985 . S
N264 C266 1.335 . S
N264 C267 1.390 . S
N265 C266 1.345 . S
N265 C268 1.336 1_556 S
C266 N264 1.335 . S
C266 N265 1.345 . S
C266 H271 0.930 . S
C267 N264 1.390 . S
C267 C268 1.346 1_556 S
C267 H272 0.930 . S
C268 N265 1.336 1_554 S
C268 C267 1.346 1_554 S
C268 H275 0.929 . S
C269 O259 1.282 . S
C269 O270 1.216 . S
O270 C269 1.216 . S
H271 C266 0.930 . S
H272 C267 0.930 . S
O273 Cu253 1.959 . S
O273 C260 1.251 . S
H274 C257 0.930 . S
H275 C268 0.929 . S
Cu276 N277 1.999 . S
Cu276 O282 1.974 . S
Cu276 N287 1.985 . S
Cu276 O296 1.959 . S
N277 Cu276 1.999 . S
N277 C279 1.263 . S
N277 C281 1.389 . S
N278 C279 1.358 . S
N278 C280 1.400 . S
C279 N277 1.263 . S
C279 N278 1.358 . S
C279 H285 0.930 . S
C280 N278 1.400 . S
C280 C281 1.351 . S
C280 H297 0.930 . S
C281 N277 1.389 . S
C281 C280 1.351 . S
C281 H286 0.930 . S
O282 Cu276 1.974 . S
O282 C292 1.282 . S
C283 O284 1.261 . S
C283 O296 1.251 . S
O284 C283 1.261 . S
H285 C279 0.930 . S
H286 C281 0.930 . S
N287 Cu276 1.985 . S
N287 C289 1.335 . S
N287 C290 1.390 . S
N288 C289 1.345 . S
N288 C291 1.336 . S
C289 N287 1.335 . S
C289 N288 1.345 . S
C289 H294 0.930 . S
C290 N287 1.390 . S
C290 C291 1.346 . S
C290 H295 0.930 . S
C291 N288 1.336 . S
C291 C290 1.346 . S
C291 H298 0.929 . S
C292 O282 1.282 . S
C292 O293 1.216 . S
O293 C292 1.216 . S
H294 C289 0.930 . S
H295 C290 0.930 . S
O296 Cu276 1.959 . S
O296 C283 1.251 . S
H297 C280 0.930 . S
H298 C291 0.929 . S
Cu299 N300 1.999 . S
Cu299 O305 1.974 . S
Cu299 N310 1.985 . S
Cu299 O319 1.959 . S
N300 Cu299 1.999 . S
N300 C302 1.263 . S
N300 C304 1.389 . S
N301 C302 1.358 . S
N301 C303 1.400 . S
C302 N300 1.263 . S
C302 N301 1.358 . S
C302 H308 0.930 . S
C303 N301 1.400 . S
C303 C304 1.351 . S
C303 H320 0.930 . S
C304 N300 1.389 . S
C304 C303 1.351 . S
C304 H309 0.930 . S
O305 Cu299 1.974 . S
O305 C315 1.282 . S
C306 O307 1.261 . S
C306 O319 1.251 . S
O307 C306 1.261 . S
H308 C302 0.930 . S
H309 C304 0.930 . S
N310 Cu299 1.985 . S
N310 C312 1.335 . S
N310 C313 1.390 . S
N311 C312 1.345 . S
N311 C314 1.336 . S
C312 N310 1.335 . S
C312 N311 1.345 . S
C312 H317 0.930 . S
C313 N310 1.390 . S
C313 C314 1.346 . S
C313 H318 0.930 . S
C314 N311 1.336 . S
C314 C313 1.346 . S
C314 H321 0.929 . S
C315 O305 1.282 . S
C315 O316 1.216 . S
O316 C315 1.216 . S
H317 C312 0.930 . S
H318 C313 0.930 . S
O319 Cu299 1.959 . S
O319 C306 1.251 . S
H320 C303 0.930 . S
H321 C314 0.929 . S
Cu322 N323 1.999 . S
Cu322 O328 1.974 . S
Cu322 N333 1.985 . S
Cu322 O342 1.959 . S
N323 Cu322 1.999 . S
N323 C325 1.263 . S
N323 C327 1.389 . S
N324 C325 1.358 . S
N324 C326 1.400 . S
C325 N323 1.263 . S
C325 N324 1.358 . S
C325 H331 0.930 . S
C326 N324 1.400 . S
C326 C327 1.351 . S
C326 H343 0.930 . S
C327 N323 1.389 . S
C327 C326 1.351 . S
C327 H332 0.930 . S
O328 Cu322 1.974 . S
O328 C338 1.282 . S
C329 O330 1.261 . S
C329 O342 1.251 . S
O330 C329 1.261 . S
H331 C325 0.930 . S
H332 C327 0.930 . S
N333 Cu322 1.985 . S
N333 C335 1.335 . S
N333 C336 1.390 . S
N334 C335 1.345 . S
N334 C337 1.336 . S
C335 N333 1.335 . S
C335 N334 1.345 . S
C335 H340 0.930 . S
C336 N333 1.390 . S
C336 C337 1.346 . S
C336 H341 0.930 . S
C337 N334 1.336 . S
C337 C336 1.346 . S
C337 H344 0.929 . S
C338 O328 1.282 . S
C338 O339 1.216 . S
O339 C338 1.216 . S
H340 C335 0.930 . S
H341 C336 0.930 . S
O342 Cu322 1.959 . S
O342 C329 1.251 . S
H343 C326 0.930 . S
H344 C337 0.929 . S
Cu345 N346 1.999 . S
Cu345 O351 1.974 . S
Cu345 N356 1.985 . S
Cu345 O365 1.959 . S
N346 Cu345 1.999 . S
N346 C348 1.263 . S
N346 C350 1.389 . S
N347 C348 1.358 . S
N347 C349 1.400 . S
C348 N346 1.263 . S
C348 N347 1.358 . S
C348 H354 0.930 . S
C349 N347 1.400 . S
C349 C350 1.351 . S
C349 H366 0.930 1_554 S
C350 N346 1.389 . S
C350 C349 1.351 . S
C350 H355 0.930 . S
O351 Cu345 1.974 . S
O351 C361 1.282 . S
C352 O353 1.261 . S
C352 O365 1.251 . S
O353 C352 1.261 . S
H354 C348 0.930 . S
H355 C350 0.930 . S
N356 Cu345 1.985 . S
N356 C358 1.335 . S
N356 C359 1.390 . S
N357 C358 1.345 . S
N357 C360 1.336 . S
C358 N356 1.335 . S
C358 N357 1.345 . S
C358 H363 0.930 . S
C359 N356 1.390 . S
C359 C360 1.346 . S
C359 H364 0.930 . S
C360 N357 1.336 . S
C360 C359 1.346 . S
C360 H367 0.929 . S
C361 O351 1.282 . S
C361 O362 1.216 . S
O362 C361 1.216 . S
H363 C358 0.930 . S
H364 C359 0.930 . S
O365 Cu345 1.959 . S
O365 C352 1.251 . S
H366 C349 0.930 1_556 S
H367 C360 0.929 . S
Cu368 N369 1.999 . S
Cu368 O374 1.974 . S
Cu368 N379 1.985 . S
Cu368 O388 1.959 . S
N369 Cu368 1.999 . S
N369 C371 1.263 . S
N369 C373 1.389 . S
N370 C371 1.358 . S
N370 C372 1.400 . S
C371 N369 1.263 . S
C371 N370 1.358 . S
C371 H377 0.930 . S
C372 N370 1.400 . S
C372 C373 1.351 . S
C372 H389 0.930 . S
C373 N369 1.389 . S
C373 C372 1.351 . S
C373 H378 0.930 . S
O374 Cu368 1.974 . S
O374 C384 1.282 . S
C375 O376 1.261 . S
C375 O388 1.251 . S
O376 C375 1.261 . S
H377 C371 0.930 . S
H378 C373 0.930 . S
N379 Cu368 1.985 . S
N379 C381 1.335 . S
N379 C382 1.390 . S
N380 C381 1.345 . S
N380 C383 1.336 . S
C381 N379 1.335 . S
C381 N380 1.345 . S
C381 H386 0.930 . S
C382 N379 1.390 . S
C382 C383 1.346 . S
C382 H387 0.930 . S
C383 N380 1.336 . S
C383 C382 1.346 . S
C383 H390 0.929 . S
C384 O374 1.282 . S
C384 O385 1.216 . S
O385 C384 1.216 . S
H386 C381 0.930 . S
H387 C382 0.930 . S
O388 Cu368 1.959 . S
O388 C375 1.251 . S
H389 C372 0.930 . S
H390 C383 0.929 . S
Cu391 N392 1.999 . S
Cu391 O397 1.974 . S
Cu391 N402 1.985 . S
Cu391 O411 1.959 . S
N392 Cu391 1.999 . S
N392 C394 1.263 . S
N392 C396 1.389 . S
N393 C394 1.358 . S
N393 C395 1.400 . S
C394 N392 1.263 . S
C394 N393 1.358 . S
C394 H400 0.930 . S
C395 N393 1.400 . S
C395 C396 1.351 . S
C395 H412 0.930 1_554 S
C396 N392 1.389 . S
C396 C395 1.351 . S
C396 H401 0.930 . S
O397 Cu391 1.974 . S
O397 C407 1.282 . S
C398 O399 1.261 . S
C398 O411 1.251 . S
O399 C398 1.261 . S
H400 C394 0.930 . S
H401 C396 0.930 . S
N402 Cu391 1.985 . S
N402 C404 1.335 . S
N402 C405 1.390 . S
N403 C404 1.345 . S
N403 C406 1.336 . S
C404 N402 1.335 . S
C404 N403 1.345 . S
C404 H409 0.930 . S
C405 N402 1.390 . S
C405 C406 1.346 . S
C405 H410 0.930 . S
C406 N403 1.336 . S
C406 C405 1.346 . S
C406 H413 0.929 . S
C407 O397 1.282 . S
C407 O408 1.216 . S
O408 C407 1.216 . S
H409 C404 0.930 . S
H410 C405 0.930 . S
O411 Cu391 1.959 . S
O411 C398 1.251 . S
H412 C395 0.930 1_556 S
H413 C406 0.929 . S
Zn414 O417 2.031 1_455 S
Zn414 O419 2.049 . S
Zn414 O424 2.067 1_455 S
Zn415 O416 1.962 . S
Zn415 O418 1.986 . S
Zn415 O420 1.996 . S
Zn415 O423 1.943 1_455 S
O416 Zn415 1.962 . S
O416 C421 1.254 . S
O417 Zn414 2.031 1_655 S
O417 C421 1.269 1_655 S
O418 Zn415 1.986 . S
O418 C425 1.262 1_455 S
O419 Zn414 2.049 . S
O419 C427 1.260 . S
O420 Zn415 1.996 . S
O420 C427 1.257 . S
C421 O416 1.254 . S
C421 O417 1.269 1_455 S
C422 O423 1.249 . S
C422 O424 1.270 . S
O423 Zn415 1.943 1_655 S
O423 C422 1.249 . S
O424 Zn414 2.067 1_655 S
O424 C422 1.270 . S
C425 O418 1.262 1_655 S
C425 O426 1.232 . S
O426 C425 1.232 . S
C427 O419 1.260 . S
C427 O420 1.257 . S
Zn428 O431 2.031 . S
Zn428 O433 2.049 . S
Zn428 O438 2.067 . S
Zn429 O430 1.962 . S
Zn429 O432 1.986 . S
Zn429 O434 1.996 . S
Zn429 O437 1.943 . S
O430 Zn429 1.962 . S
O430 C435 1.254 . S
O431 Zn428 2.031 . S
O431 C435 1.269 . S
O432 Zn429 1.986 . S
O432 C439 1.262 . S
O433 Zn428 2.049 . S
O433 C441 1.260 . S
O434 Zn429 1.996 . S
O434 C441 1.257 . S
C435 O430 1.254 . S
C435 O431 1.269 . S
C436 O437 1.249 . S
C436 O438 1.270 . S
O437 Zn429 1.943 . S
O437 C436 1.249 . S
O438 Zn428 2.067 . S
O438 C436 1.270 . S
C439 O432 1.262 . S
C439 O440 1.232 . S
O440 C439 1.232 . S
C441 O433 1.260 . S
C441 O434 1.257 . S
Zn442 O445 2.031 . S
Zn442 O447 2.049 . S
Zn442 O452 2.067 . S
Zn443 O444 1.962 . S
Zn443 O446 1.986 . S
Zn443 O448 1.996 . S
Zn443 O451 1.943 . S
O444 Zn443 1.962 . S
O444 C449 1.254 . S
O445 Zn442 2.031 . S
O445 C449 1.269 . S
O446 Zn443 1.986 . S
O446 C453 1.262 . S
O447 Zn442 2.049 . S
O447 C455 1.260 . S
O448 Zn443 1.996 . S
O448 C455 1.257 . S
C449 O444 1.254 . S
C449 O445 1.269 . S
C450 O451 1.249 . S
C450 O452 1.270 . S
O451 Zn443 1.943 . S
O451 C450 1.249 . S
O452 Zn442 2.067 . S
O452 C450 1.270 . S
C453 O446 1.262 . S
C453 O454 1.232 . S
O454 C453 1.232 . S
C455 O447 1.260 . S
C455 O448 1.257 . S
Zn456 O459 2.031 . S
Zn456 O461 2.049 1_655 S
Zn456 O466 2.067 1_655 S
Zn457 O458 1.962 1_455 S
Zn457 O460 1.986 . S
Zn457 O462 1.996 . S
Zn457 O465 1.943 . S
O458 Zn457 1.962 1_655 S
O458 C463 1.254 . S
O459 Zn456 2.031 . S
O459 C463 1.269 . S
O460 Zn457 1.986 . S
O460 C467 1.262 . S
O461 Zn456 2.049 1_455 S
O461 C469 1.260 . S
O462 Zn457 1.996 . S
O462 C469 1.257 . S
C463 O458 1.254 . S
C463 O459 1.269 . S
C464 O465 1.249 . S
C464 O466 1.270 . S
O465 Zn457 1.943 . S
O465 C464 1.249 . S
O466 Zn456 2.067 1_455 S
O466 C464 1.270 . S
C467 O460 1.262 . S
C467 O468 1.232 . S
O468 C467 1.232 . S
C469 O461 1.260 . S
C469 O462 1.257 . S
Zn470 O473 2.031 . S
Zn470 O475 2.049 . S
Zn470 O480 2.067 . S
Zn471 O472 1.962 . S
Zn471 O474 1.986 . S
Zn471 O476 1.996 . S
Zn471 O479 1.943 . S
O472 Zn471 1.962 . S
O472 C477 1.254 . S
O473 Zn470 2.031 . S
O473 C477 1.269 . S
O474 Zn471 1.986 . S
O474 C481 1.262 . S
O475 Zn470 2.049 . S
O475 C483 1.260 . S
O476 Zn471 1.996 . S
O476 C483 1.257 . S
C477 O472 1.254 . S
C477 O473 1.269 . S
C478 O479 1.249 . S
C478 O480 1.270 . S
O479 Zn471 1.943 . S
O479 C478 1.249 . S
O480 Zn470 2.067 . S
O480 C478 1.270 . S
C481 O474 1.262 . S
C481 O482 1.232 . S
O482 C481 1.232 . S
C483 O475 1.260 . S
C483 O476 1.257 . S
Zn484 O487 2.031 . S
Zn484 O489 2.049 . S
Zn484 O494 2.067 1_545 S
Zn485 O486 1.962 . S
Zn485 O488 1.986 . S
Zn485 O490 1.996 . S
Zn485 O493 1.943 1_545 S
O486 Zn485 1.962 . S
O486 C491 1.254 . S
O487 Zn484 2.031 . S
O487 C491 1.269 . S
O488 Zn485 1.986 . S
O488 C495 1.262 . S
O489 Zn484 2.049 . S
O489 C497 1.260 . S
O490 Zn485 1.996 . S
O490 C497 1.257 . S
C491 O486 1.254 . S
C491 O487 1.269 . S
C492 O493 1.249 . S
C492 O494 1.270 . S
O493 Zn485 1.943 1_565 S
O493 C492 1.249 . S
O494 Zn484 2.067 1_565 S
O494 C492 1.270 . S
C495 O488 1.262 . S
C495 O496 1.232 . S
O496 C495 1.232 . S
C497 O489 1.260 . S
C497 O490 1.257 . S
Zn498 O501 2.031 1_545 S
Zn498 O503 2.049 . S
Zn498 O508 2.067 . S
Zn499 O500 1.962 . S
Zn499 O502 1.986 . S
Zn499 O504 1.996 1_565 S
Zn499 O507 1.943 . S
O500 Zn499 1.962 . S
O500 C505 1.254 . S
O501 Zn498 2.031 1_565 S
O501 C505 1.269 . S
O502 Zn499 1.986 . S
O502 C509 1.262 . S
O503 Zn498 2.049 . S
O503 C511 1.260 . S
O504 Zn499 1.996 1_545 S
O504 C511 1.257 . S
C505 O500 1.254 . S
C505 O501 1.269 . S
C506 O507 1.249 1_545 S
C506 O508 1.270 . S
O507 Zn499 1.943 . S
O507 C506 1.249 1_565 S
O508 Zn498 2.067 . S
O508 C506 1.270 . S
C509 O502 1.262 . S
C509 O510 1.232 . S
O510 C509 1.232 . S
C511 O503 1.260 . S
C511 O504 1.257 . S
Zn512 O515 2.031 . S
Zn512 O517 2.049 . S
Zn512 O522 2.067 1_455 S
Zn513 O514 1.962 . S
Zn513 O516 1.986 . S
Zn513 O518 1.996 . S
Zn513 O521 1.943 . S
O514 Zn513 1.962 . S
O514 C519 1.254 . S
O515 Zn512 2.031 . S
O515 C519 1.269 . S
O516 Zn513 1.986 . S
O516 C523 1.262 . S
O517 Zn512 2.049 . S
O517 C525 1.260 . S
O518 Zn513 1.996 . S
O518 C525 1.257 . S
C519 O514 1.254 . S
C519 O515 1.269 . S
C520 O521 1.249 1_655 S
C520 O522 1.270 . S
O521 Zn513 1.943 . S
O521 C520 1.249 1_455 S
O522 Zn512 2.067 1_655 S
O522 C520 1.270 . S
C523 O516 1.262 . S
C523 O524 1.232 . S
O524 C523 1.232 . S
C525 O517 1.260 . S
C525 O518 1.257 . S
Zn526 O529 2.031 . S
Zn526 O531 2.049 . S
Zn526 O536 2.067 . S
Zn527 O528 1.962 . S
Zn527 O530 1.986 . S
Zn527 O532 1.996 . S
Zn527 O535 1.943 . S
O528 Zn527 1.962 . S
O528 C533 1.254 . S
O529 Zn526 2.031 . S
O529 C533 1.269 . S
O530 Zn527 1.986 . S
O530 C537 1.262 . S
O531 Zn526 2.049 . S
O531 C539 1.260 . S
O532 Zn527 1.996 . S
O532 C539 1.257 . S
C533 O528 1.254 . S
C533 O529 1.269 . S
C534 O535 1.249 . S
C534 O536 1.270 . S
O535 Zn527 1.943 . S
O535 C534 1.249 . S
O536 Zn526 2.067 . S
O536 C534 1.270 . S
C537 O530 1.262 . S
C537 O538 1.232 . S
O538 C537 1.232 . S
C539 O531 1.260 . S
C539 O532 1.257 . S
Zn540 O543 2.031 . S
Zn540 O545 2.049 . S
Zn540 O550 2.067 . S
Zn541 O542 1.962 . S
Zn541 O544 1.986 . S
Zn541 O546 1.996 . S
Zn541 O549 1.943 . S
O542 Zn541 1.962 . S
O542 C547 1.254 . S
O543 Zn540 2.031 . S
O543 C547 1.269 . S
O544 Zn541 1.986 . S
O544 C551 1.262 1_554 S
O545 Zn540 2.049 . S
O545 C553 1.260 . S
O546 Zn541 1.996 . S
O546 C553 1.257 . S
C547 O542 1.254 . S
C547 O543 1.269 . S
C548 O549 1.249 . S
C548 O550 1.270 . S
O549 Zn541 1.943 . S
O549 C548 1.249 . S
O550 Zn540 2.067 . S
O550 C548 1.270 . S
C551 O544 1.262 1_556 S
C551 O552 1.232 . S
O552 C551 1.232 . S
C553 O545 1.260 . S
C553 O546 1.257 . S
Zn554 O557 2.031 . S
Zn554 O559 2.049 1_544 S
Zn554 O564 2.067 . S
Zn555 O556 1.962 1_565 S
Zn555 O558 1.986 . S
Zn555 O560 1.996 . S
Zn555 O563 1.943 . S
O556 Zn555 1.962 1_545 S
O556 C561 1.254 . S
O557 Zn554 2.031 . S
O557 C561 1.269 . S
O558 Zn555 1.986 . S
O558 C565 1.262 . S
O559 Zn554 2.049 1_566 S
O559 C567 1.260 1_556 S
O560 Zn555 1.996 . S
O560 C567 1.257 . S
C561 O556 1.254 . S
C561 O557 1.269 . S
C562 O563 1.249 1_545 S
C562 O564 1.270 . S
O563 Zn555 1.943 . S
O563 C562 1.249 1_565 S
O564 Zn554 2.067 . S
O564 C562 1.270 . S
C565 O558 1.262 . S
C565 O566 1.232 . S
O566 C565 1.232 . S
C567 O559 1.260 1_554 S
C567 O560 1.257 . S
Zn568 O571 2.031 1_455 S
Zn568 O573 2.049 . S
Zn568 O578 2.067 1_455 S
Zn569 O570 1.962 . S
Zn569 O572 1.986 . S
Zn569 O574 1.996 . S
Zn569 O577 1.943 1_455 S
O570 Zn569 1.962 . S
O570 C575 1.254 . S
O571 Zn568 2.031 1_655 S
O571 C575 1.269 1_655 S
O572 Zn569 1.986 . S
O572 C579 1.262 . S
O573 Zn568 2.049 . S
O573 C581 1.260 . S
O574 Zn569 1.996 . S
O574 C581 1.257 . S
C575 O570 1.254 . S
C575 O571 1.269 1_455 S
C576 O577 1.249 . S
C576 O578 1.270 . S
O577 Zn569 1.943 1_655 S
O577 C576 1.249 . S
O578 Zn568 2.067 1_655 S
O578 C576 1.270 . S
C579 O572 1.262 . S
C579 O580 1.232 1_554 S
O580 C579 1.232 1_556 S
C581 O573 1.260 . S
C581 O574 1.257 . S
Zn582 O585 2.031 . S
Zn582 O587 2.049 . S
Zn582 O592 2.067 . S
Zn583 O584 1.962 . S
Zn583 O586 1.986 1_556 S
Zn583 O588 1.996 . S
Zn583 O591 1.943 . S
O584 Zn583 1.962 . S
O584 C589 1.254 . S
O585 Zn582 2.031 . S
O585 C589 1.269 . S
O586 Zn583 1.986 1_554 S
O586 C593 1.262 . S
O587 Zn582 2.049 . S
O587 C595 1.260 . S
O588 Zn583 1.996 . S
O588 C595 1.257 . S
C589 O584 1.254 . S
C589 O585 1.269 . S
C590 O591 1.249 . S
C590 O592 1.270 . S
O591 Zn583 1.943 . S
O591 C590 1.249 . S
O592 Zn582 2.067 . S
O592 C590 1.270 . S
C593 O586 1.262 . S
C593 O594 1.232 . S
O594 C593 1.232 . S
C595 O587 1.260 . S
C595 O588 1.257 . S
Zn596 O599 2.031 . S
Zn596 O601 2.049 1_544 S
Zn596 O606 2.067 1_554 S
Zn597 O598 1.962 . S
Zn597 O600 1.986 . S
Zn597 O602 1.996 . S
Zn597 O605 1.943 . S
O598 Zn597 1.962 . S
O598 C603 1.254 1_556 S
O599 Zn596 2.031 . S
O599 C603 1.269 . S
O600 Zn597 1.986 . S
O600 C607 1.262 . S
O601 Zn596 2.049 1_566 S
O601 C609 1.260 1_565 S
O602 Zn597 1.996 . S
O602 C609 1.257 . S
C603 O598 1.254 1_554 S
C603 O599 1.269 . S
C604 O605 1.249 . S
C604 O606 1.270 . S
O605 Zn597 1.943 . S
O605 C604 1.249 . S
O606 Zn596 2.067 1_556 S
O606 C604 1.270 . S
C607 O600 1.262 . S
C607 O608 1.232 . S
O608 C607 1.232 . S
C609 O601 1.260 1_545 S
C609 O602 1.257 . S
Zn610 O613 2.056 . S
Zn610 O615 2.049 . S
Zn610 O620 2.067 . S
Zn611 O612 1.962 . S
Zn611 O614 1.986 . S
Zn611 O616 1.996 . S
Zn611 O619 1.943 1_655 S
O612 Zn611 1.962 . S
O612 C617 1.254 . S
O613 Zn610 2.056 . S
O613 C617 1.242 1_455 S
O614 Zn611 1.986 . S
O614 C621 1.262 1_556 S
O615 Zn610 2.049 . S
O615 C623 1.260 . S
O616 Zn611 1.996 . S
O616 C623 1.257 1_655 S
C617 O612 1.254 . S
C617 O613 1.242 1_655 S
C618 O619 1.249 . S
C618 O620 1.270 . S
O619 Zn611 1.943 1_455 S
O619 C618 1.249 . S
O620 Zn610 2.067 . S
O620 C618 1.270 . S
C621 O614 1.262 1_554 S
C621 O622 1.232 1_554 S
O622 C621 1.232 1_556 S
C623 O615 1.260 . S
C623 O616 1.257 1_455 S
Zn624 O627 2.031 . S
Zn624 O629 2.049 . S
Zn624 O634 2.067 . S
Zn625 O626 1.962 . S
Zn625 O628 1.986 . S
Zn625 O630 1.996 . S
Zn625 O633 1.943 . S
O626 Zn625 1.962 . S
O626 C631 1.254 . S
O627 Zn624 2.031 . S
O627 C631 1.269 . S
O628 Zn625 1.986 . S
O628 C635 1.262 . S
O629 Zn624 2.049 . S
O629 C637 1.260 . S
O630 Zn625 1.996 . S
O630 C637 1.257 . S
C631 O626 1.254 . S
C631 O627 1.269 . S
C632 O633 1.249 . S
C632 O634 1.270 . S
O633 Zn625 1.943 . S
O633 C632 1.249 . S
O634 Zn624 2.067 . S
O634 C632 1.270 . S
C635 O628 1.262 . S
C635 O636 1.232 . S
O636 C635 1.232 . S
C637 O629 1.260 . S
C637 O630 1.257 . S
Zn638 O641 2.031 . S
Zn638 O643 2.049 1_455 S
Zn638 O648 2.067 . S
Zn639 O640 1.962 . S
Zn639 O642 1.986 . S
Zn639 O644 1.996 . S
Zn639 O647 1.943 1_655 S
O640 Zn639 1.962 . S
O640 C645 1.254 1_655 S
O641 Zn638 2.031 . S
O641 C645 1.269 . S
O642 Zn639 1.986 . S
O642 C649 1.262 . S
O643 Zn638 2.049 1_655 S
O643 C651 1.260 . S
O644 Zn639 1.996 . S
O644 C651 1.257 . S
C645 O640 1.254 1_455 S
C645 O641 1.269 . S
C646 O647 1.249 . S
C646 O648 1.270 . S
O647 Zn639 1.943 1_455 S
O647 C646 1.249 . S
O648 Zn638 2.067 . S
O648 C646 1.270 . S
C649 O642 1.262 . S
C649 O650 1.232 . S
O650 C649 1.232 . S
C651 O643 1.260 . S
C651 O644 1.257 . S
Zn652 O655 2.031 . S
Zn652 O657 2.049 . S
Zn652 O662 2.067 . S
Zn653 O654 1.962 . S
Zn653 O656 1.986 . S
Zn653 O658 1.996 . S
Zn653 O661 1.943 . S
O654 Zn653 1.962 . S
O654 C659 1.254 . S
O655 Zn652 2.031 . S
O655 C659 1.269 . S
O656 Zn653 1.986 . S
O656 C663 1.262 . S
O657 Zn652 2.049 . S
O657 C665 1.260 . S
O658 Zn653 1.996 . S
O658 C665 1.257 . S
C659 O654 1.254 . S
C659 O655 1.269 . S
C660 O661 1.249 . S
C660 O662 1.270 . S
O661 Zn653 1.943 . S
O661 C660 1.249 . S
O662 Zn652 2.067 . S
O662 C660 1.270 . S
C663 O656 1.262 . S
C663 O664 1.232 . S
O664 C663 1.232 . S
C665 O657 1.260 . S
C665 O658 1.257 . S
C7 C575 1.540 . S
C547 C39 2.134 . S
C562 C62 1.696 . S
C76 C632 2.369 . S
C108 C645 1.455 . S
N117 C660 1.610 . S
C623 C16 1.717 1_455 S
C30 C595 2.033 . S
C604 C53 1.475 . S
C85 C506 2.172 1_565 S
C525 C99 1.674 . S
N127 C534 1.501 . S
N150 C659 0.877 . S
C631 N173 1.492 . S
C646 C200 1.332 . S
C214 C464 1.811 . S
N232 C477 1.717 . S
C260 C492 1.574 . S
C455 N140 1.259 1_545 S
N163 C427 1.402 . S
C436 C191 1.626 . S
C590 C223 2.353 . S
C609 N242 1.752 . S
C618 C269 1.992 . S
N288 C491 1.240 . S
C315 C463 1.504 . S
C338 C478 1.913 . S
C352 C548 2.349 . S
C561 N370 1.720 . S
C576 C398 1.676 . S
C539 N278 1.203 . S
C306 C511 1.817 . S
C329 C520 1.710 . S
C422 C361 1.749 . S
N380 C441 1.630 . S
C450 C407 1.758 . S
C469 N12 1.686 . S
N25 C481 1.848 . S
C497 N48 1.380 . S
C495 N81 1.414 . S
C467 N94 1.729 . S
C483 C131 1.584 . S
C421 N2 1.451 . S
N35 C439 1.335 . S
N58 C449 1.211 . S
C453 N71 1.061 . S
C425 N104 1.480 1_655 S
C435 C122 1.691 . S
C145 C553 2.568 . S
C168 C565 2.031 . S
N186 C581 1.756 . S
C579 N219 1.346 1_554 S
C551 C246 2.031 . S
C567 N265 1.399 1_554 S
C505 C154 2.320 . S
C177 C523 1.978 . S
N196 C533 1.103 . S
N209 C537 0.936 . S
C237 C509 2.129 . S
C519 N255 1.288 . S
C283 C637 1.900 . S
N301 C649 1.611 . S
N324 C665 1.726 . S
C663 N357 0.786 . S
C635 C384 2.170 . S
N403 C651 1.288 . S
C292 C589 2.194 . S
C607 N311 1.268 . S
N334 C617 1.266 . S
N347 C621 1.204 . S
C593 C375 2.227 . S
N393 C603 1.382 . S
