# Generated by pormake.
# Topology nia, (6,6)-cn, num edge types: 1
# Building blocks:
#     Node 0, Type 0, BuildingBlock: CUKXOW_clean_sbu_0, # of connection points: 6
#     Node 1, Type 0, BuildingBlock: CUKXOW_clean_sbu_0, # of connection points: 6
#     Node 2, Type 1, BuildingBlock: MIDCAF_clean_sbu_0, # of connection points: 6
#     Node 3, Type 1, BuildingBlock: MIDCAF_clean_sbu_0, # of connection points: 6
#     Edge 4, Type (0, 1), BuildingBlock: ZUJKAS_clean_linker_0, # of connection points: 2
#     Edge 5, Type (0, 1), BuildingBlock: ZUJKAS_clean_linker_0, # of connection points: 2
#     Edge 6, Type (0, 1), BuildingBlock: ZUJKAS_clean_linker_0, # of connection points: 2
#     Edge 7, Type (0, 1), BuildingBlock: ZUJKAS_clean_linker_0, # of connection points: 2
#     Edge 8, Type (0, 1), BuildingBlock: ZUJKAS_clean_linker_0, # of connection points: 2
#     Edge 9, Type (0, 1), BuildingBlock: ZUJKAS_clean_linker_0, # of connection points: 2
#     Edge 10, Type (0, 1), BuildingBlock: ZUJKAS_clean_linker_0, # of connection points: 2
#     Edge 11, Type (0, 1), BuildingBlock: ZUJKAS_clean_linker_0, # of connection points: 2
#     Edge 12, Type (0, 1), BuildingBlock: ZUJKAS_clean_linker_0, # of connection points: 2
#     Edge 13, Type (0, 1), BuildingBlock: ZUJKAS_clean_linker_0, # of connection points: 2
#     Edge 14, Type (0, 1), BuildingBlock: ZUJKAS_clean_linker_0, # of connection points: 2
#     Edge 15, Type (0, 1), BuildingBlock: ZUJKAS_clean_linker_0, # of connection points: 2
# Relax obj value: 0.191
# Max RMSD: 0.252
# Mean RMSD: 0.207
data_MOF--net-nia--node1-CUKXOW_clean_sbu_0--node2-MIDCAF_clean_sbu_0--edge1-ZUJKAS_clean_linker_0
_symmetry_space_group_name_H-M    P1
_symmetry_Int_Tables_number       1
_symmetry_cell_setting            triclinic
loop_
_symmetry_equiv_pos_as_xyz
'x, y, z'
_cell_length_a     31.564212
_cell_length_b     31.564516
_cell_length_c     38.430628
_cell_angle_alpha  88.388607
_cell_angle_beta   88.096157
_cell_angle_gamma 126.08239
loop_
_atom_site_label
_atom_site_type_symbol
_atom_site_fract_x
_atom_site_fract_y
_atom_site_fract_z
_atom_type_partial_charge
Tb0 Tb 0.01665 0.05653 0.02971 0.0
C1 C 0.08445 0.05242 0.96925 0.0
Tb2 Tb 0.97364 0.94943 0.99606 0.0
O3 O 0.02082 0.02417 0.07937 0.0
O4 O 0.02942 -0.00257 0.03267 0.0
O5 O 0.07409 0.08217 0.98575 0.0
C6 C 0.95756 0.86176 0.97576 0.0
O7 O 0.05406 0.00033 0.9735 0.0
C8 C 0.94605 0.0031 0.96249 0.0
C9 C 0.90197 0.95603 0.05209 0.0
O10 O 0.96418 0.89889 0.9555 0.0
O11 O 0.95944 0.87338 1.0082 0.0
O12 O 0.93295 0.95771 0.9536 0.0
O13 O 0.97165 0.01368 0.98905 0.0
O14 O 0.91094 0.92476 0.03615 0.0
O15 O 0.93496 0.00819 0.0494 0.0
C16 C 0.0506 0.15177 0.04778 0.0
O17 O 0.00531 0.11796 0.03534 0.0
O18 O 0.07708 0.13228 0.04922 0.0
C19 C 0.02505 0.98985 0.06534 0.0
Tb20 Tb 0.94872 0.98586 0.5033 0.0
C21 C 0.94806 0.91818 0.56388 0.0
Tb22 Tb 0.04757 0.03398 0.53822 0.0
O23 O 0.95699 0.92782 0.48248 0.0
O24 O 0.02383 0.00409 0.48837 0.0
O25 O 0.91778 0.9232 0.54372 0.0
C26 C 0.13287 0.05597 0.56801 0.0
O27 O -0.00056 0.95505 0.56427 0.0
C28 C 0.98756 0.05965 0.56274 0.0
C29 C 0.04655 0.1023 0.48019 0.0
O30 O 0.11032 0.07878 0.57342 0.0
O31 O 0.10815 0.02122 0.54504 0.0
O32 O 0.03839 0.09062 0.56104 0.0
O33 O 0.97252 0.0152 0.55315 0.0
O34 O 0.07738 0.09248 0.49512 0.0
O35 O -0.00534 0.06847 0.48407 0.0
C36 C 0.86581 0.96509 0.47068 0.0
O37 O 0.90377 0.96502 0.45708 0.0
O38 O 0.87384 0.97617 0.50316 0.0
C39 C 0.00786 0.9588 0.47972 0.0
Zn40 Zn 0.28984 0.69902 0.19687 0.0
Zn41 Zn 0.2929 0.71486 0.33327 0.0
Zn42 Zn 0.29529 0.70704 0.26471 0.0
C43 C 0.39857 0.77179 0.30627 0.0
C44 C 0.24276 0.60925 0.32415 0.0
O45 O 0.25473 0.74038 0.24386 0.0
O46 O 0.24732 0.72468 0.18779 0.0
C47 C 0.39622 0.75933 0.20868 0.0
O48 O 0.37773 0.75442 0.27705 0.0
O49 O 0.3705 0.76063 0.334 0.0
O50 O 0.25378 0.63977 0.34838 0.0
O51 O 0.25479 0.62741 0.29203 0.0
O52 O 0.36608 0.74472 0.18389 0.0
O53 O 0.37701 0.74827 0.24057 0.0
O54 O 0.24904 0.62269 0.25594 0.0
O55 O 0.25269 0.62232 0.19825 0.0
C56 C 0.23761 0.59791 0.22776 0.0
O57 O 0.26001 0.74866 0.27949 0.0
O58 O 0.25772 0.74915 0.33721 0.0
C59 C 0.23837 0.74221 0.2139 0.0
C60 C 0.24863 0.76104 0.30826 0.0
Zn61 Zn 0.68914 0.29773 0.83549 0.0
Zn62 Zn 0.71348 0.3191 0.70499 0.0
Zn63 Zn 0.70108 0.31273 0.77142 0.0
C64 C 0.75509 0.42021 0.72333 0.0
C65 C 0.60562 0.25192 0.72358 0.0
O66 O 0.73102 0.26843 0.79067 0.0
O67 O 0.69098 0.23652 0.84302 0.0
C68 C 0.77485 0.40224 0.81921 0.0
O69 O 0.74633 0.39787 0.75404 0.0
O70 O 0.74211 0.39352 0.69674 0.0
O71 O 0.63791 0.26373 0.69823 0.0
O72 O 0.62183 0.27058 0.7535 0.0
O73 O 0.7563 0.36609 0.84288 0.0
O74 O 0.7542 0.39218 0.78947 0.0
O75 O 0.6171 0.27553 0.78877 0.0
O76 O 0.62277 0.28995 0.84488 0.0
C77 C 0.59613 0.27501 0.81831 0.0
O78 O 0.73568 0.27212 0.75337 0.0
O79 O 0.76154 0.29936 0.69803 0.0
C80 C 0.72057 0.23948 0.81864 0.0
C81 C 0.75892 0.27353 0.72467 0.0
H82 H 0.05806 0.93374 0.03885 0.0
H83 H 0.08715 0.88832 0.07167 0.0
H84 H 0.0514 0.93063 0.16824 0.0
H85 H 0.02166 0.97543 0.13563 0.0
H86 H 0.17028 0.9385 0.11709 0.0
H87 H 0.98392 0.77288 0.18602 0.0
H88 H 0.98534 0.8094 0.1484 0.0
H89 H -0.00099 0.83692 0.19036 0.0
C90 C 0.05552 0.93247 0.06708 0.0
C91 C 0.03761 0.95799 0.08475 0.0
C92 C 0.0723 0.90675 0.08578 0.0
C93 C 0.07106 0.90583 0.12239 0.0
C94 C 0.05191 0.93016 0.14007 0.0
H95 H 0.25924 0.83313 0.23795 0.0
H96 H 0.21547 0.8742 0.22267 0.0
C97 C 0.03519 0.95593 0.12139 0.0
C98 C 0.09323 0.88261 0.14184 0.0
H99 H 0.06184 0.78365 0.20074 0.0
C100 C 0.14668 0.90479 0.13551 0.0
C101 C 0.06224 0.83876 0.16589 0.0
C102 C 0.00433 0.81269 0.17299 0.0
C103 C 0.16987 0.8837 0.15208 0.0
C104 C 0.13887 0.83962 0.17596 0.0
C105 C 0.08557 0.81789 0.18276 0.0
C106 C 0.15973 0.8119 0.19057 0.0
C107 C 0.22688 0.90742 0.14289 0.0
C108 C 0.14139 0.76252 0.17881 0.0
C109 C 0.16578 0.73898 0.18786 0.0
C110 C 0.20856 0.76412 0.20915 0.0
C111 C 0.22538 0.8124 0.22235 0.0
C112 C 0.20092 0.83611 0.21324 0.0
H113 H 0.24302 0.93621 0.12007 0.0
H114 H 0.25038 0.92798 0.16546 0.0
H115 H 0.23182 0.87626 0.137 0.0
H116 H 0.10977 0.7433 0.16124 0.0
H117 H 0.15221 0.70175 0.17731 0.0
H118 H 0.18115 0.00745 0.56235 0.0
H119 H 0.253 0.02285 0.59655 0.0
H120 H 0.25353 0.14029 0.65177 0.0
H121 H 0.18193 0.12486 0.61811 0.0
H122 H 0.35073 0.11889 0.59735 0.0
H123 H 0.25619 0.05273 0.731 0.0
H124 H 0.21896 0.03422 0.69249 0.0
H125 H 0.2467 0.09752 0.70952 0.0
C126 C 0.19657 0.0363 0.58194 0.0
C127 C 0.17637 0.06513 0.58763 0.0
C128 C 0.23717 0.04477 0.60154 0.0
C129 C 0.25754 0.08177 0.62721 0.0
C130 C 0.23727 0.11049 0.63282 0.0
H131 H 0.53066 0.26616 0.74071 0.0
H132 H 0.4407 0.21484 0.72125 0.0
C133 C 0.19688 0.10212 0.61326 0.0
C134 C 0.30373 0.0948 0.6456 0.0
H135 H 0.35067 0.10988 0.72653 0.0
C136 C 0.35061 0.116 0.62556 0.0
C137 C 0.30324 0.09138 0.68241 0.0
C138 C 0.25342 0.06726 0.70511 0.0
C139 C 0.39784 0.13645 0.64133 0.0
C140 C 0.39769 0.13412 0.6782 0.0
C141 C 0.35047 0.11141 0.6983 0.0
C142 C 0.44702 0.15813 0.69596 0.0
C143 C 0.44784 0.16286 0.61832 0.0
C144 C 0.47894 0.14148 0.68968 0.0
C145 C 0.53017 0.17106 0.70023 0.0
C146 C 0.54948 0.21668 0.71809 0.0
C147 C 0.51618 0.23088 0.72705 0.0
C148 C 0.46503 0.20167 0.71599 0.0
H149 H 0.44274 0.17241 0.59144 0.0
H150 H 0.48029 0.1997 0.62931 0.0
H151 H 0.45965 0.13608 0.61648 0.0
H152 H 0.46519 0.10727 0.67495 0.0
H153 H 0.55534 0.15934 0.6934 0.0
H154 H 0.99007 0.1861 0.05901 0.0
H155 H 0.00882 0.25613 0.09657 0.0
H156 H 0.1614 0.29293 0.11328 0.0
H157 H 0.14263 0.22268 0.07627 0.0
H158 H 0.09886 0.27377 0.17523 0.0
H159 H 0.11004 0.41756 0.08063 0.0
H160 H 0.05285 0.3506 0.08041 0.0
H161 H 0.1161 0.367 0.06693 0.0
C162 C 0.02802 0.20997 0.0701 0.0
C163 C 0.06498 0.1992 0.06486 0.0
C164 C 0.03863 0.24983 0.09152 0.0
C165 C 0.08646 0.27953 0.1076 0.0
C166 C 0.12421 0.2702 0.10113 0.0
H167 H 0.27325 0.5388 0.22395 0.0
H168 H 0.22412 0.45014 0.20301 0.0
C169 C 0.11359 0.23036 0.07987 0.0
C170 C 0.09644 0.31834 0.13284 0.0
H171 H 0.12195 0.4387 0.13938 0.0
C172 C 0.10358 0.30972 0.1675 0.0
C173 C 0.10166 0.36462 0.12268 0.0
C174 C 0.09515 0.37596 0.08562 0.0
C175 C 0.11775 0.34726 0.19206 0.0
C176 C 0.12535 0.39454 0.18155 0.0
C177 C 0.11578 0.4021 0.14733 0.0
C178 C 0.14984 0.43963 0.20387 0.0
C179 C 0.12467 0.33646 0.22903 0.0
C180 C 0.12375 0.46195 0.21269 0.0
C181 C 0.15172 0.51229 0.22513 0.0
C182 C 0.20596 0.54071 0.22853 0.0
C183 C 0.23113 0.5168 0.22234 0.0
C184 C 0.2031 0.4663 0.21032 0.0
H185 H 0.10711 0.29429 0.2348 0.0
H186 H 0.16716 0.3598 0.2336 0.0
H187 H 0.10612 0.3485 0.24732 0.0
H188 H 0.0828 0.44211 0.20747 0.0
H189 H 0.13207 0.53081 0.22897 0.0
H190 H 0.8825 0.99165 0.58186 0.0
H191 H 0.83062 0.00885 0.61995 0.0
H192 H 0.96801 0.16718 0.62967 0.0
H193 H 0.01977 0.15031 0.59202 0.0
H194 H 0.90772 0.11146 0.69481 0.0
H195 H 0.78751 0.10549 0.58914 0.0
H196 H 0.78981 0.05022 0.5957 0.0
H197 H 0.84784 0.11256 0.57968 0.0
C198 C 0.90139 0.03012 0.59206 0.0
C199 C 0.95502 0.06974 0.58398 0.0
C200 C 0.87185 0.03981 0.61383 0.0
C201 C 0.89563 0.08923 0.62763 0.0
C202 C 0.94911 0.12867 0.6195 0.0
H203 H 0.84965 0.3043 0.69049 0.0
H204 H 0.87697 0.24881 0.67483 0.0
C205 C 0.9785 0.11908 0.5978 0.0
C206 C 0.86511 0.10158 0.64937 0.0
H207 H 0.78056 0.13488 0.64279 0.0
C208 C 0.87892 0.1154 0.68379 0.0
C209 C 0.82768 0.10667 0.63481 0.0
C210 C 0.81227 0.09328 0.59777 0.0
C211 C 0.85831 0.137 0.70335 0.0
C212 C 0.82356 0.14507 0.6879 0.0
C213 C 0.80715 0.1282 0.65443 0.0
C214 C 0.81107 0.17906 0.70311 0.0
C215 C 0.87591 0.15406 0.73954 0.0
C216 C 0.76575 0.15819 0.72499 0.0
C217 C 0.75022 0.19001 0.73416 0.0
C218 C 0.77984 0.24271 0.72131 0.0
C219 C 0.8264 0.26385 0.70079 0.0
C220 C 0.84202 0.2323 0.6919 0.0
H221 H 0.89842 0.13984 0.74941 0.0
H222 H 0.90112 0.19761 0.73925 0.0
H223 H 0.84135 0.13926 0.75786 0.0
H224 H 0.74135 0.11699 0.73362 0.0
H225 H 0.71374 0.1728 0.74961 0.0
H226 H 0.88787 -0.00373 0.10904 0.0
H227 H 0.80639 0.96227 0.14331 0.0
H228 H 0.72273 0.83085 0.07787 0.0
H229 H 0.80513 0.86363 0.04449 0.0
H230 H 0.72489 0.95303 0.12442 0.0
H231 H 0.66018 0.75478 0.17023 0.0
H232 H 0.72497 0.80298 0.15021 0.0
H233 H 0.66998 0.76348 0.12365 0.0
C234 C 0.85222 0.95968 0.10225 0.0
C235 C 0.85284 0.93258 0.07406 0.0
C236 C 0.80559 0.94025 0.12189 0.0
C237 C 0.7582 0.8936 0.11357 0.0
C238 C 0.75883 0.86608 0.08557 0.0
H239 H 0.452 0.82025 0.15018 0.0
H240 H 0.54174 0.85505 0.1309 0.0
C241 C 0.80589 0.88502 0.0663 0.0
C242 C 0.70797 0.87644 0.1325 0.0
H243 H 0.59435 0.7706 0.17313 0.0
C244 C 0.69674 0.91324 0.13542 0.0
C245 C 0.67137 0.82488 0.1476 0.0
C246 C 0.6825 0.78449 0.14812 0.0
C247 C 0.64955 0.89961 0.15187 0.0
C248 C 0.61136 0.84711 0.16467 0.0
C249 C 0.62326 0.81072 0.16296 0.0
C250 C 0.55777 0.82848 0.17785 0.0
C251 C 0.64144 0.94191 0.15549 0.0
C252 C 0.53603 0.80072 0.21043 0.0
C253 C 0.48402 0.77985 0.22125 0.0
C254 C 0.45302 0.78667 0.19988 0.0
C255 C 0.47513 0.81501 0.16754 0.0
C256 C 0.5267 0.83533 0.15657 0.0
H257 H 0.67955 0.98118 0.15657 0.0
H258 H 0.62201 0.94328 0.13239 0.0
H259 H 0.61652 0.9344 0.1793 0.0
H260 H 0.55887 0.79414 0.22711 0.0
H261 H 0.46716 0.756 0.24536 0.0
H262 H 0.86345 0.81833 0.55324 0.0
H263 H 0.83006 0.73864 0.58975 0.0
H264 H 0.94471 0.83161 0.66462 0.0
H265 H 0.98015 0.9107 0.62707 0.0
H266 H 0.94568 0.75413 0.65506 0.0
H267 H 0.73666 0.67328 0.6748 0.0
H268 H 0.75449 0.68224 0.62907 0.0
H269 H 0.78469 0.73848 0.65544 0.0
C270 C 0.88098 0.82168 0.57772 0.0
C271 C 0.92437 0.87059 0.58733 0.0
C272 C 0.86158 0.77615 0.5988 0.0
C273 C 0.88402 0.77889 0.63047 0.0
C274 C 0.92653 0.82818 0.64042 0.0
H275 H 0.73085 0.47994 0.75628 0.0
H276 H 0.7661 0.5717 0.74045 0.0
C277 C 0.94677 0.87343 0.61895 0.0
C278 C 0.86635 0.73022 0.65168 0.0
H279 H 0.75737 0.61103 0.68315 0.0
C280 C 0.90448 0.72333 0.66168 0.0
C281 C 0.81277 0.69019 0.66134 0.0
C282 C 0.76998 0.69675 0.65494 0.0
C283 C 0.89047 0.67684 0.67933 0.0
C284 C 0.83668 0.63487 0.68585 0.0
C285 C 0.79863 0.64271 0.67763 0.0
C286 C 0.81914 0.58148 0.69838 0.0
C287 C 0.93371 0.6734 0.69075 0.0
C288 C 0.83719 0.55644 0.68023 0.0
C289 C 0.81826 0.50495 0.68988 0.0
C290 C 0.78033 0.47694 0.71766 0.0
C291 C 0.76175 0.50153 0.73576 0.0
C292 C 0.78134 0.55361 0.72639 0.0
H293 H 0.969 0.71269 0.69662 0.0
H294 H 0.92095 0.64638 0.71425 0.0
H295 H 0.94555 0.65895 0.66926 0.0
H296 H 0.86466 0.57604 0.6577 0.0
H297 H 0.8321 0.48633 0.67485 0.0
H298 H 0.97393 0.86522 0.45441 0.0
H299 H 0.02244 0.84547 0.4158 0.0
H300 H 0.16003 0.00572 0.41721 0.0
H301 H 0.11152 0.02575 0.45636 0.0
H302 H 0.07263 0.89348 0.34845 0.0
H303 H 0.21201 0.91689 0.44486 0.0
H304 H 0.15272 0.91016 0.45775 0.0
H305 H 0.20842 0.97125 0.438 0.0
C306 C 0.01463 0.89622 0.4467 0.0
C307 C 0.03905 0.947 0.45841 0.0
C308 C 0.04217 0.88494 0.42447 0.0
C309 C 0.09476 0.92408 0.41366 0.0
C310 C 0.11955 0.97485 0.42551 0.0
H311 H 0.30358 0.86607 0.30943 0.0
H312 H 0.26878 0.91481 0.32665 0.0
C313 C 0.0919 0.98622 0.44785 0.0
C314 C 0.12325 0.91078 0.39041 0.0
H315 H 0.2183 0.89086 0.38963 0.0
C316 C 0.10491 0.89344 0.35723 0.0
C317 C 0.16541 0.91099 0.40191 0.0
C318 C 0.18577 0.92794 0.43763 0.0
C319 C 0.1269 0.87508 0.33553 0.0
C320 C 0.16756 0.87319 0.34768 0.0
C321 C 0.18721 0.8925 0.38029 0.0
C322 C 0.18736 0.8471 0.32888 0.0
C323 C 0.10613 0.85749 0.3 0.0
C324 C 0.15304 0.7933 0.32306 0.0
C325 C 0.17292 0.76566 0.31288 0.0
C326 C 0.22728 0.7915 0.30847 0.0
C327 C 0.26143 0.84577 0.31214 0.0
C328 C 0.2416 0.87346 0.3221 0.0
H329 H 0.08915 0.87754 0.29 0.0
H330 H 0.13741 0.86522 0.28084 0.0
H331 H 0.07442 0.81464 0.30195 0.0
H332 H 0.11118 0.77182 0.32892 0.0
H333 H 0.14614 0.72354 0.31092 0.0
H334 H 0.11555 0.00525 0.92761 0.0
H335 H 0.19926 0.04647 0.89407 0.0
H336 H 0.24802 0.1985 0.92522 0.0
H337 H 0.16442 0.15771 0.95914 0.0
H338 H 0.25409 0.13173 0.8389 0.0
H339 H 0.3586 0.17807 0.96144 0.0
H340 H 0.28823 0.13143 0.96068 0.0
H341 H 0.31825 0.20064 0.95736 0.0
C342 C 0.14382 0.04753 0.92721 0.0
C343 C 0.13341 0.07809 0.9465 0.0
C344 C 0.19156 0.071 0.90782 0.0
C345 C 0.22994 0.12539 0.90745 0.0
C346 C 0.21899 0.15633 0.92546 0.0
H347 H 0.56087 0.32565 0.84844 0.0
H348 H 0.46985 0.2909 0.86449 0.0
C349 C 0.17116 0.13293 0.94481 0.0
C350 C 0.28276 0.14914 0.89042 0.0
H351 H 0.41046 0.20866 0.90875 0.0
C352 C 0.28845 0.14876 0.85403 0.0
C353 C 0.32723 0.1707 0.91034 0.0
C354 C 0.32303 0.17 0.94964 0.0
C355 C 0.33795 0.17073 0.83693 0.0
C356 C 0.38254 0.19267 0.85694 0.0
C357 C 0.37643 0.19237 0.89335 0.0
C358 C 0.43629 0.21645 0.84127 0.0
C359 C 0.34214 0.17107 0.79768 0.0
C360 C 0.44779 0.18685 0.82188 0.0
C361 C 0.50001 0.20718 0.8122 0.0
C362 C 0.54124 0.257 0.82216 0.0
C363 C 0.52959 0.28721 0.84033 0.0
C364 C 0.47765 0.26734 0.84953 0.0
H365 H 0.30841 0.16711 0.78584 0.0
H366 H 0.37913 0.2077 0.78651 0.0
H367 H 0.34205 0.13733 0.79019 0.0
H368 H 0.41679 0.14707 0.81588 0.0
H369 H 0.50829 0.18285 0.79878 0.0
H370 H 0.15103 0.18221 0.46516 0.0
H371 H 0.18835 0.26701 0.43388 0.0
H372 H 0.03234 0.22176 0.41853 0.0
H373 H -0.00522 0.13691 0.44901 0.0
H374 H 0.09834 0.27006 0.35937 0.0
H375 H 0.19172 0.38673 0.47469 0.0
H376 H 0.2112 0.34558 0.4629 0.0
H377 H 0.14444 0.31624 0.47816 0.0
C378 C 0.12466 0.19021 0.455 0.0
C379 C 0.06987 0.15279 0.45983 0.0
C380 C 0.14608 0.23884 0.43729 0.0
C381 C 0.11313 0.25108 0.42436 0.0
C382 C 0.05853 0.21327 0.42837 0.0
H383 H 0.17402 0.5504 0.37911 0.0
H384 H 0.14339 0.46251 0.40052 0.0
C385 C 0.03712 0.16472 0.44591 0.0
C386 C 0.13496 0.30342 0.40715 0.0
H387 H 0.20512 0.43396 0.42185 0.0
C388 C 0.12192 0.30597 0.37295 0.0
C389 C 0.16531 0.35017 0.42503 0.0
C390 C 0.17872 0.34979 0.46232 0.0
C391 C 0.13781 0.35385 0.35631 0.0
C392 C 0.16824 0.40059 0.37412 0.0
C393 C 0.18194 0.39813 0.40814 0.0
C394 C 0.18383 0.45211 0.3589 0.0
C395 C 0.12062 0.3538 0.32021 0.0
C396 C 0.21609 0.47531 0.32797 0.0
C397 C 0.23321 0.52553 0.31545 0.0
C398 C 0.21865 0.55342 0.33379 0.0
C399 C 0.18559 0.52966 0.36431 0.0
C400 C 0.16826 0.47954 0.37665 0.0
H401 H 0.08822 0.31366 0.3132 0.0
H402 H 0.10753 0.37954 0.31781 0.0
H403 H 0.15446 0.36923 0.30117 0.0
H404 H 0.22966 0.4555 0.31422 0.0
H405 H 0.26016 0.54369 0.29261 0.0
H406 H 0.93273 0.00269 0.89379 0.0
H407 H 0.90662 0.05017 0.86074 0.0
H408 H 0.90402 0.12112 0.95448 0.0
H409 H 0.93283 0.07532 0.98723 0.0
H410 H 0.8191 0.0375 0.86768 0.0
H411 H 0.97482 0.24605 0.88767 0.0
H412 H 0.98174 0.19463 0.89901 0.0
H413 H 0.94687 0.20906 0.92863 0.0
C414 C 0.92759 0.02931 0.90714 0.0
C415 C 0.93501 0.03582 0.9429 0.0
C416 C 0.91265 0.05637 0.88826 0.0
C417 C 0.90388 0.08976 0.90493 0.0
C418 C 0.91206 0.09687 0.94074 0.0
H419 H 0.68404 0.15161 0.85968 0.0
H420 H 0.73122 0.11484 0.87476 0.0
C421 C 0.92824 0.07057 0.95952 0.0
C422 C 0.88136 0.1128 0.88553 0.0
H423 H 0.89243 0.22598 0.86982 0.0
C424 C 0.83574 0.07892 0.86774 0.0
C425 C 0.90347 0.16698 0.88484 0.0
C426 C 0.95476 0.2063 0.90074 0.0
C427 C 0.81033 0.09723 0.85077 0.0
C428 C 0.82996 0.15044 0.85266 0.0
C429 C 0.87699 0.18495 0.86884 0.0
C430 C 0.80002 0.17003 0.8407 0.0
C431 C 0.76247 0.0593 0.83119 0.0
C432 C 0.82327 0.21362 0.81682 0.0
C433 C 0.79657 0.23516 0.80855 0.0
C434 C 0.74612 0.21315 0.82384 0.0
C435 C 0.7226 0.16893 0.84718 0.0
C436 C 0.74937 0.14766 0.8556 0.0
H437 H 0.76347 0.02684 0.82196 0.0
H438 H 0.72676 0.04162 0.84889 0.0
H439 H 0.75917 0.07935 0.80836 0.0
H440 H 0.86252 0.23171 0.80527 0.0
H441 H 0.81619 0.27015 0.79122 0.0
H442 H 0.84699 0.93884 0.40376 0.0
H443 H 0.77317 0.92011 0.37135 0.0
H444 H 0.71207 0.95166 0.46113 0.0
H445 H 0.78584 0.9695 0.49413 0.0
H446 H 0.63902 0.85977 0.43446 0.0
H447 H 0.73982 0.0143 0.32739 0.0
H448 H 0.76733 0.97839 0.33101 0.0
H449 H 0.77177 0.01698 0.36627 0.0
C450 C 0.81804 0.9422 0.41652 0.0
C451 C 0.8218 0.9554 0.45141 0.0
C452 C 0.77625 0.93211 0.39783 0.0
C453 C 0.73784 0.93567 0.41357 0.0
C454 C 0.74174 0.94932 0.44842 0.0
H455 H 0.46526 0.87615 0.31362 0.0
H456 H 0.55285 0.92199 0.33655 0.0
C457 C 0.78359 0.95925 0.46724 0.0
C458 C 0.69109 0.91984 0.39462 0.0
H459 H 0.65234 0.93848 0.31726 0.0
C460 C 0.64188 0.87749 0.40907 0.0
C461 C 0.69489 0.94336 0.36163 0.0
C462 C 0.74628 0.99114 0.34585 0.0
C463 C 0.59656 0.8565 0.39079 0.0
C464 C 0.60088 0.87774 0.35685 0.0
C465 C 0.64959 0.92163 0.34297 0.0
C466 C 0.55457 0.8545 0.3359 0.0
C467 C 0.54441 0.81153 0.40792 0.0
C468 C 0.5282 0.80245 0.32641 0.0
C469 C 0.4784 0.7764 0.31356 0.0
C470 C 0.45525 0.80261 0.30913 0.0
C471 C 0.48328 0.85583 0.31609 0.0
C472 C 0.53299 0.88183 0.32925 0.0
H473 H 0.54594 0.8088 0.43669 0.0
H474 H 0.51282 0.81577 0.40208 0.0
H475 H 0.53385 0.7741 0.39772 0.0
H476 H 0.54458 0.78096 0.33122 0.0
H477 H 0.4566 0.7349 0.30929 0.0
H478 H 0.92605 0.82455 0.9127 0.0
H479 H 0.91739 0.74992 0.88802 0.0
H480 H 0.96818 0.721 0.983 0.0
H481 H 0.97472 0.79521 1.00858 0.0
H482 H 0.98923 0.73219 0.87403 0.0
H483 H 0.83386 0.579 0.97073 0.0
H484 H 0.85348 0.64545 0.9687 0.0
H485 H 0.89444 0.63028 0.98811 0.0
C486 C 0.93494 0.80201 0.92847 0.0
C487 C 0.95051 0.81502 0.96259 0.0
C488 C 0.93037 0.75964 0.91425 0.0
C489 C 0.94194 0.72978 0.93368 0.0
C490 C 0.95816 0.743 0.96779 0.0
H491 H 0.8509 0.42884 0.86334 0.0
H492 H 0.90868 0.51345 0.88909 0.0
C493 C 0.96186 0.78518 0.98237 0.0
C494 C 0.93511 0.68419 0.91777 0.0
H495 H 0.85564 0.55041 0.92262 0.0
C496 C 0.96067 0.6924 0.88492 0.0
C497 C 0.89796 0.63239 0.93209 0.0
C498 C 0.86799 0.62094 0.9667 0.0
C499 C 0.94758 0.65011 0.86506 0.0
C500 C 0.90845 0.59861 0.87862 0.0
C501 C 0.88575 0.59024 0.91244 0.0
C502 C 0.88527 0.55289 0.85703 0.0
C503 C 0.97411 0.66075 0.82925 0.0
C504 C 0.85441 0.54779 0.82969 0.0
C505 C 0.82104 0.49934 0.81516 0.0
C506 C 0.81813 0.45563 0.82779 0.0
C507 C 0.85219 0.462 0.85323 0.0
C508 C 0.88539 0.51026 0.86785 0.0
H509 H 0.01243 0.7002 0.82652 0.0
H510 H 0.98056 0.63056 0.8236 0.0
H511 H 0.94857 0.65934 0.80945 0.0
H512 H 0.85292 0.58001 0.82155 0.0
H513 H 0.79434 0.49503 0.79645 0.0
loop_
_geom_bond_atom_site_label_1
_geom_bond_atom_site_label_2
_geom_bond_distance
_geom_bond_site_symmetry_2
_ccdc_geom_bond_type
Tb0 O3 2.453 1_545 S
Tb0 O4 2.596 1_545 S
Tb0 O5 2.374 1_554 S
Tb0 O13 2.359 1_554 S
Tb0 O15 2.353 1_455 S
Tb0 O17 2.427 . S
Tb0 O18 2.513 . S
C1 O5 1.251 . S
C1 O7 1.263 . S
Tb2 O4 2.343 1_656 S
Tb2 O7 2.353 1_665 S
Tb2 O10 2.427 . S
Tb2 O11 2.513 . S
Tb2 O12 2.453 1_565 S
Tb2 O13 2.604 1_665 S
Tb2 O14 2.374 1_556 S
O3 Tb0 2.453 1_565 S
O3 C19 1.245 . S
O4 Tb0 2.596 1_565 S
O4 Tb2 2.343 1_454 S
O4 C19 1.259 . S
O5 Tb0 2.374 1_556 S
O5 C1 1.251 . S
C6 O10 1.275 . S
C6 O11 1.246 . S
O7 C1 1.263 . S
O7 Tb2 2.353 1_445 S
C8 O12 1.245 . S
C8 O13 1.240 1_655 S
C9 O14 1.250 . S
C9 O15 1.263 1_565 S
O10 Tb2 2.427 . S
O10 C6 1.275 . S
O11 Tb2 2.513 . S
O11 C6 1.246 . S
O12 Tb2 2.453 1_545 S
O12 C8 1.245 . S
O13 Tb0 2.359 1_556 S
O13 Tb2 2.604 1_445 S
O13 C8 1.240 1_455 S
O14 Tb2 2.374 1_554 S
O14 C9 1.250 . S
O15 Tb0 2.353 1_655 S
O15 C9 1.263 1_545 S
C16 O17 1.275 . S
C16 O18 1.246 . S
O17 Tb0 2.427 . S
O17 C16 1.275 . S
O18 Tb0 2.513 . S
O18 C16 1.246 . S
C19 O3 1.245 . S
C19 O4 1.259 . S
Tb20 O23 2.453 1_655 S
Tb20 O24 2.596 1_665 S
Tb20 O25 2.374 . S
Tb20 O33 2.343 1_565 S
Tb20 O35 2.353 1_665 S
Tb20 O37 2.430 . S
Tb20 O38 2.513 . S
C21 O25 1.251 . S
C21 O27 1.263 . S
Tb22 O24 2.343 . S
Tb22 O27 2.353 1_445 S
Tb22 O30 2.427 . S
Tb22 O31 2.513 . S
Tb22 O32 2.453 1_455 S
Tb22 O33 2.596 1_455 S
Tb22 O34 2.374 . S
O23 Tb20 2.453 1_455 S
O23 C39 1.245 . S
O24 Tb20 2.596 1_445 S
O24 Tb22 2.343 . S
O24 C39 1.259 1_545 S
O25 Tb20 2.374 . S
O25 C21 1.251 . S
C26 O30 1.275 . S
C26 O31 1.246 . S
O27 C21 1.263 . S
O27 Tb22 2.353 1_665 S
C28 O32 1.245 . S
C28 O33 1.259 . S
C29 O34 1.250 . S
C29 O35 1.263 . S
O30 Tb22 2.427 . S
O30 C26 1.275 . S
O31 Tb22 2.513 . S
O31 C26 1.246 . S
O32 Tb22 2.453 1_655 S
O32 C28 1.245 . S
O33 Tb20 2.343 1_545 S
O33 Tb22 2.596 1_655 S
O33 C28 1.259 . S
O34 Tb22 2.374 . S
O34 C29 1.250 . S
O35 Tb20 2.353 1_445 S
O35 C29 1.263 . S
C36 O37 1.276 . S
C36 O38 1.246 . S
O37 Tb20 2.430 . S
O37 C36 1.276 . S
O38 Tb20 2.513 . S
O38 C36 1.246 . S
C39 O23 1.245 . S
C39 O24 1.259 1_565 S
Zn40 O46 1.920 . S
Zn40 O52 1.898 . S
Zn40 O55 1.905 . S
Zn41 O49 1.905 . S
Zn41 O50 1.898 . S
Zn41 O58 1.920 . S
Zn42 O45 2.080 . S
Zn42 O48 2.114 . S
Zn42 O51 2.120 . S
Zn42 O53 2.120 . S
Zn42 O54 2.114 . S
Zn42 O57 2.080 . S
C43 O48 1.166 . S
C43 O49 1.182 . S
C44 O50 1.167 . S
C44 O51 1.299 . S
O45 Zn42 2.080 . S
O45 C59 1.305 . S
O46 Zn40 1.920 . S
O46 C59 1.234 . S
C47 O52 1.167 . S
C47 O53 1.299 . S
O48 Zn42 2.114 . S
O48 C43 1.166 . S
O49 Zn41 1.905 . S
O49 C43 1.182 . S
O50 Zn41 1.898 . S
O50 C44 1.167 . S
O51 Zn42 2.120 . S
O51 C44 1.299 . S
O52 Zn40 1.898 . S
O52 C47 1.167 . S
O53 Zn42 2.120 . S
O53 C47 1.299 . S
O54 Zn42 2.114 . S
O54 C56 1.166 . S
O55 Zn40 1.905 . S
O55 C56 1.182 . S
C56 O54 1.166 . S
C56 O55 1.182 . S
O57 Zn42 2.080 . S
O57 C60 1.305 . S
O58 Zn41 1.920 . S
O58 C60 1.234 . S
C59 O45 1.305 . S
C59 O46 1.234 . S
C60 O57 1.305 . S
C60 O58 1.234 . S
Zn61 O67 1.920 . S
Zn61 O73 1.898 . S
Zn61 O76 1.905 . S
Zn62 O70 1.905 . S
Zn62 O71 1.898 . S
Zn62 O79 1.920 . S
Zn63 O66 2.080 . S
Zn63 O69 2.114 . S
Zn63 O72 2.120 . S
Zn63 O74 2.120 . S
Zn63 O75 2.114 . S
Zn63 O78 2.080 . S
C64 O69 1.166 . S
C64 O70 1.182 . S
C65 O71 1.167 . S
C65 O72 1.299 . S
O66 Zn63 2.080 . S
O66 C80 1.305 . S
O67 Zn61 1.920 . S
O67 C80 1.234 . S
C68 O73 1.167 . S
C68 O74 1.299 . S
O69 Zn63 2.114 . S
O69 C64 1.166 . S
O70 Zn62 1.905 . S
O70 C64 1.182 . S
O71 Zn62 1.898 . S
O71 C65 1.167 . S
O72 Zn63 2.120 . S
O72 C65 1.299 . S
O73 Zn61 1.898 . S
O73 C68 1.167 . S
O74 Zn63 2.120 . S
O74 C68 1.299 . S
O75 Zn63 2.114 . S
O75 C77 1.166 . S
O76 Zn61 1.905 . S
O76 C77 1.182 . S
C77 O75 1.166 . S
C77 O76 1.182 . S
O78 Zn63 2.080 . S
O78 C81 1.305 . S
O79 Zn62 1.920 . S
O79 C81 1.234 . S
C80 O66 1.305 . S
C80 O67 1.234 . S
C81 O78 1.305 . S
C81 O79 1.234 . S
H82 C90 0.912 1_655 S
H83 C92 0.930 . S
H84 C94 0.930 . S
H85 C97 0.929 1_545 S
H86 C100 0.930 . S
H87 C102 0.960 . S
H88 C102 0.960 . S
H89 C102 0.960 . S
C90 H82 0.912 1_455 S
C90 C91 1.377 . S
C90 C92 1.384 . S
C91 C90 1.377 . S
C91 C97 1.390 . S
C92 H83 0.930 . S
C92 C90 1.384 . S
C92 C93 1.372 . S
C93 C92 1.372 . S
C93 C94 1.400 . S
C93 C98 1.490 . S
C94 H84 0.930 . S
C94 C93 1.400 . S
C94 C97 1.386 . S
H95 C111 0.930 . S
H96 C112 0.931 . S
C97 H85 0.929 1_565 S
C97 C91 1.390 . S
C97 C94 1.386 . S
C98 C93 1.490 . S
C98 C100 1.395 . S
C98 C101 1.403 . S
H99 C105 0.930 . S
C100 H86 0.930 . S
C100 C98 1.395 . S
C100 C103 1.403 . S
C101 C98 1.403 . S
C101 C102 1.524 . S
C101 C105 1.400 . S
C102 H87 0.960 . S
C102 H88 0.960 . S
C102 H89 0.960 . S
C102 C101 1.524 . S
C103 C100 1.403 . S
C103 C104 1.392 . S
C103 C107 1.495 . S
C104 C103 1.392 . S
C104 C105 1.385 . S
C104 C106 1.478 . S
C105 H99 0.930 . S
C105 C101 1.400 . S
C105 C104 1.385 . S
C106 C104 1.478 . S
C106 C108 1.381 . S
C106 C112 1.383 . S
C107 C103 1.495 . S
C107 H113 0.959 . S
C107 H114 0.961 . S
C107 H115 0.960 . S
C108 C106 1.381 . S
C108 C109 1.394 . S
C108 H116 0.930 . S
C109 C108 1.394 . S
C109 C110 1.383 . S
C109 H117 0.929 . S
C110 C109 1.383 . S
C110 C111 1.377 . S
C111 H95 0.930 . S
C111 C110 1.377 . S
C111 C112 1.379 . S
C112 H96 0.931 . S
C112 C106 1.383 . S
C112 C111 1.379 . S
H113 C107 0.959 . S
H114 C107 0.961 . S
H115 C107 0.960 . S
H116 C108 0.930 . S
H117 C109 0.929 . S
H118 C126 0.929 . S
H119 C128 0.930 . S
H120 C130 0.930 . S
H121 C133 0.929 . S
H122 C136 0.930 . S
H123 C138 0.960 . S
H124 C138 0.960 . S
H125 C138 0.960 . S
C126 H118 0.929 . S
C126 C127 1.377 . S
C126 C128 1.384 . S
C127 C126 1.377 . S
C127 C133 1.390 . S
C128 H119 0.930 . S
C128 C126 1.384 . S
C128 C129 1.372 . S
C129 C128 1.372 . S
C129 C130 1.400 . S
C129 C134 1.490 . S
C130 H120 0.930 . S
C130 C129 1.400 . S
C130 C133 1.386 . S
H131 C147 0.930 . S
H132 C148 0.931 . S
C133 H121 0.929 . S
C133 C127 1.390 . S
C133 C130 1.386 . S
C134 C129 1.490 . S
C134 C136 1.395 . S
C134 C137 1.403 . S
H135 C141 0.930 . S
C136 H122 0.930 . S
C136 C134 1.395 . S
C136 C139 1.403 . S
C137 C134 1.403 . S
C137 C138 1.524 . S
C137 C141 1.400 . S
C138 H123 0.960 . S
C138 H124 0.960 . S
C138 H125 0.960 . S
C138 C137 1.524 . S
C139 C136 1.403 . S
C139 C140 1.392 . S
C139 C143 1.495 . S
C140 C139 1.392 . S
C140 C141 1.385 . S
C140 C142 1.478 . S
C141 H135 0.930 . S
C141 C137 1.400 . S
C141 C140 1.385 . S
C142 C140 1.478 . S
C142 C144 1.381 . S
C142 C148 1.383 . S
C143 C139 1.495 . S
C143 H149 0.959 . S
C143 H150 0.961 . S
C143 H151 0.960 . S
C144 C142 1.381 . S
C144 C145 1.394 . S
C144 H152 0.930 . S
C145 C144 1.394 . S
C145 C146 1.383 . S
C145 H153 0.929 . S
C146 C145 1.383 . S
C146 C147 1.377 . S
C147 H131 0.930 . S
C147 C146 1.377 . S
C147 C148 1.379 . S
C148 H132 0.931 . S
C148 C142 1.383 . S
C148 C147 1.379 . S
H149 C143 0.959 . S
H150 C143 0.961 . S
H151 C143 0.960 . S
H152 C144 0.930 . S
H153 C145 0.929 . S
H154 C162 0.929 . S
H155 C164 0.930 . S
H156 C166 0.930 . S
H157 C169 0.929 . S
H158 C172 0.930 . S
H159 C174 0.960 . S
H160 C174 0.960 . S
H161 C174 0.960 . S
C162 H154 0.929 . S
C162 C163 1.377 . S
C162 C164 1.384 . S
C163 C162 1.377 . S
C163 C169 1.390 . S
C164 H155 0.930 . S
C164 C162 1.384 . S
C164 C165 1.372 . S
C165 C164 1.372 . S
C165 C166 1.400 . S
C165 C170 1.490 . S
C166 H156 0.930 . S
C166 C165 1.400 . S
C166 C169 1.386 . S
H167 C183 0.930 . S
H168 C184 0.931 . S
C169 H157 0.929 . S
C169 C163 1.390 . S
C169 C166 1.386 . S
C170 C165 1.490 . S
C170 C172 1.395 . S
C170 C173 1.403 . S
H171 C177 0.930 . S
C172 H158 0.930 . S
C172 C170 1.395 . S
C172 C175 1.403 . S
C173 C170 1.403 . S
C173 C174 1.524 . S
C173 C177 1.400 . S
C174 H159 0.960 . S
C174 H160 0.960 . S
C174 H161 0.960 . S
C174 C173 1.524 . S
C175 C172 1.403 . S
C175 C176 1.392 . S
C175 C179 1.495 . S
C176 C175 1.392 . S
C176 C177 1.385 . S
C176 C178 1.478 . S
C177 H171 0.930 . S
C177 C173 1.400 . S
C177 C176 1.385 . S
C178 C176 1.478 . S
C178 C180 1.381 . S
C178 C184 1.383 . S
C179 C175 1.495 . S
C179 H185 0.959 . S
C179 H186 0.961 . S
C179 H187 0.960 . S
C180 C178 1.381 . S
C180 C181 1.394 . S
C180 H188 0.930 . S
C181 C180 1.394 . S
C181 C182 1.383 . S
C181 H189 0.929 . S
C182 C181 1.383 . S
C182 C183 1.377 . S
C183 H167 0.930 . S
C183 C182 1.377 . S
C183 C184 1.379 . S
C184 H168 0.931 . S
C184 C178 1.383 . S
C184 C183 1.379 . S
H185 C179 0.959 . S
H186 C179 0.961 . S
H187 C179 0.960 . S
H188 C180 0.930 . S
H189 C181 0.929 . S
H190 C198 0.929 . S
H191 C200 0.930 . S
H192 C202 0.930 . S
H193 C205 0.929 . S
H194 C208 0.930 . S
H195 C210 0.960 . S
H196 C210 0.960 . S
H197 C210 0.960 . S
C198 H190 0.929 . S
C198 C199 1.377 . S
C198 C200 1.384 . S
C199 C198 1.377 . S
C199 C205 1.390 . S
C200 H191 0.930 . S
C200 C198 1.384 . S
C200 C201 1.372 . S
C201 C200 1.372 . S
C201 C202 1.400 . S
C201 C206 1.490 . S
C202 H192 0.930 . S
C202 C201 1.400 . S
C202 C205 1.386 . S
H203 C219 0.930 . S
H204 C220 0.931 . S
C205 H193 0.929 . S
C205 C199 1.390 . S
C205 C202 1.386 . S
C206 C201 1.490 . S
C206 C208 1.395 . S
C206 C209 1.403 . S
H207 C213 0.930 . S
C208 H194 0.930 . S
C208 C206 1.395 . S
C208 C211 1.403 . S
C209 C206 1.403 . S
C209 C210 1.524 . S
C209 C213 1.400 . S
C210 H195 0.960 . S
C210 H196 0.960 . S
C210 H197 0.960 . S
C210 C209 1.524 . S
C211 C208 1.403 . S
C211 C212 1.392 . S
C211 C215 1.495 . S
C212 C211 1.392 . S
C212 C213 1.385 . S
C212 C214 1.478 . S
C213 H207 0.930 . S
C213 C209 1.400 . S
C213 C212 1.385 . S
C214 C212 1.478 . S
C214 C216 1.381 . S
C214 C220 1.383 . S
C215 C211 1.495 . S
C215 H221 0.959 . S
C215 H222 0.961 . S
C215 H223 0.960 . S
C216 C214 1.381 . S
C216 C217 1.394 . S
C216 H224 0.930 . S
C217 C216 1.394 . S
C217 C218 1.383 . S
C217 H225 0.929 . S
C218 C217 1.383 . S
C218 C219 1.377 . S
C219 H203 0.930 . S
C219 C218 1.377 . S
C219 C220 1.379 . S
C220 H204 0.931 . S
C220 C214 1.383 . S
C220 C219 1.379 . S
H221 C215 0.959 . S
H222 C215 0.961 . S
H223 C215 0.960 . S
H224 C216 0.930 . S
H225 C217 0.929 . S
H226 C234 0.929 1_545 S
H227 C236 0.930 . S
H228 C238 0.930 . S
H229 C241 0.929 . S
H230 C244 0.930 . S
H231 C246 0.960 . S
H232 C246 0.960 . S
H233 C246 0.960 . S
C234 H226 0.929 1_565 S
C234 C235 1.377 . S
C234 C236 1.384 . S
C235 C234 1.377 . S
C235 C241 1.390 . S
C236 H227 0.930 . S
C236 C234 1.384 . S
C236 C237 1.372 . S
C237 C236 1.372 . S
C237 C238 1.400 . S
C237 C242 1.490 . S
C238 H228 0.930 . S
C238 C237 1.400 . S
C238 C241 1.386 . S
H239 C255 0.930 . S
H240 C256 0.931 . S
C241 H229 0.929 . S
C241 C235 1.390 . S
C241 C238 1.386 . S
C242 C237 1.490 . S
C242 C244 1.395 . S
C242 C245 1.403 . S
H243 C249 0.930 . S
C244 H230 0.930 . S
C244 C242 1.395 . S
C244 C247 1.403 . S
C245 C242 1.403 . S
C245 C246 1.524 . S
C245 C249 1.400 . S
C246 H231 0.960 . S
C246 H232 0.960 . S
C246 H233 0.960 . S
C246 C245 1.524 . S
C247 C244 1.403 . S
C247 C248 1.392 . S
C247 C251 1.495 . S
C248 C247 1.392 . S
C248 C249 1.385 . S
C248 C250 1.478 . S
C249 H243 0.930 . S
C249 C245 1.400 . S
C249 C248 1.385 . S
C250 C248 1.478 . S
C250 C252 1.381 . S
C250 C256 1.383 . S
C251 C247 1.495 . S
C251 H257 0.959 1_565 S
C251 H258 0.961 . S
C251 H259 0.960 . S
C252 C250 1.381 . S
C252 C253 1.394 . S
C252 H260 0.930 . S
C253 C252 1.394 . S
C253 C254 1.383 . S
C253 H261 0.929 . S
C254 C253 1.383 . S
C254 C255 1.377 . S
C255 H239 0.930 . S
C255 C254 1.377 . S
C255 C256 1.379 . S
C256 H240 0.931 . S
C256 C250 1.383 . S
C256 C255 1.379 . S
H257 C251 0.959 1_545 S
H258 C251 0.961 . S
H259 C251 0.960 . S
H260 C252 0.930 . S
H261 C253 0.929 . S
H262 C270 0.929 . S
H263 C272 0.930 . S
H264 C274 0.930 . S
H265 C277 0.929 . S
H266 C280 0.930 . S
H267 C282 0.960 . S
H268 C282 0.960 . S
H269 C282 0.960 . S
C270 H262 0.929 . S
C270 C271 1.377 . S
C270 C272 1.384 . S
C271 C270 1.377 . S
C271 C277 1.390 . S
C272 H263 0.930 . S
C272 C270 1.384 . S
C272 C273 1.372 . S
C273 C272 1.372 . S
C273 C274 1.400 . S
C273 C278 1.490 . S
C274 H264 0.930 . S
C274 C273 1.400 . S
C274 C277 1.386 . S
H275 C291 0.930 . S
H276 C292 0.931 . S
C277 H265 0.929 . S
C277 C271 1.390 . S
C277 C274 1.386 . S
C278 C273 1.490 . S
C278 C280 1.395 . S
C278 C281 1.403 . S
H279 C285 0.930 . S
C280 H266 0.930 . S
C280 C278 1.395 . S
C280 C283 1.403 . S
C281 C278 1.403 . S
C281 C282 1.524 . S
C281 C285 1.400 . S
C282 H267 0.960 . S
C282 H268 0.960 . S
C282 H269 0.960 . S
C282 C281 1.524 . S
C283 C280 1.403 . S
C283 C284 1.392 . S
C283 C287 1.495 . S
C284 C283 1.392 . S
C284 C285 1.385 . S
C284 C286 1.478 . S
C285 H279 0.930 . S
C285 C281 1.400 . S
C285 C284 1.385 . S
C286 C284 1.478 . S
C286 C288 1.381 . S
C286 C292 1.383 . S
C287 C283 1.495 . S
C287 H293 0.959 . S
C287 H294 0.961 . S
C287 H295 0.960 . S
C288 C286 1.381 . S
C288 C289 1.394 . S
C288 H296 0.930 . S
C289 C288 1.394 . S
C289 C290 1.383 . S
C289 H297 0.929 . S
C290 C289 1.383 . S
C290 C291 1.377 . S
C291 H275 0.930 . S
C291 C290 1.377 . S
C291 C292 1.379 . S
C292 H276 0.931 . S
C292 C286 1.383 . S
C292 C291 1.379 . S
H293 C287 0.959 . S
H294 C287 0.961 . S
H295 C287 0.960 . S
H296 C288 0.930 . S
H297 C289 0.929 . S
H298 C306 0.929 . S
H299 C308 0.930 . S
H300 C310 0.932 . S
H301 C313 0.929 1_545 S
H302 C316 0.930 . S
H303 C318 0.960 . S
H304 C318 0.960 . S
H305 C318 0.960 . S
C306 H298 0.929 . S
C306 C307 1.377 . S
C306 C308 1.384 . S
C307 C306 1.377 . S
C307 C313 1.390 . S
C308 H299 0.930 . S
C308 C306 1.384 . S
C308 C309 1.372 . S
C309 C308 1.372 . S
C309 C310 1.400 . S
C309 C314 1.490 . S
C310 H300 0.932 . S
C310 C309 1.400 . S
C310 C313 1.386 . S
H311 C327 0.930 . S
H312 C328 0.931 . S
C313 H301 0.929 1_565 S
C313 C307 1.390 . S
C313 C310 1.386 . S
C314 C309 1.490 . S
C314 C316 1.395 . S
C314 C317 1.403 . S
H315 C321 0.930 . S
C316 H302 0.930 . S
C316 C314 1.395 . S
C316 C319 1.403 . S
C317 C314 1.403 . S
C317 C318 1.524 . S
C317 C321 1.400 . S
C318 H303 0.960 . S
C318 H304 0.960 . S
C318 H305 0.960 . S
C318 C317 1.524 . S
C319 C316 1.403 . S
C319 C320 1.392 . S
C319 C323 1.495 . S
C320 C319 1.392 . S
C320 C321 1.385 . S
C320 C322 1.478 . S
C321 H315 0.930 . S
C321 C317 1.400 . S
C321 C320 1.385 . S
C322 C320 1.478 . S
C322 C324 1.381 . S
C322 C328 1.383 . S
C323 C319 1.495 . S
C323 H329 0.959 . S
C323 H330 0.961 . S
C323 H331 0.960 . S
C324 C322 1.381 . S
C324 C325 1.394 . S
C324 H332 0.930 . S
C325 C324 1.394 . S
C325 C326 1.383 . S
C325 H333 0.929 . S
C326 C325 1.383 . S
C326 C327 1.377 . S
C327 H311 0.930 . S
C327 C326 1.377 . S
C327 C328 1.379 . S
C328 H312 0.931 . S
C328 C322 1.383 . S
C328 C327 1.379 . S
H329 C323 0.959 . S
H330 C323 0.961 . S
H331 C323 0.960 . S
H332 C324 0.930 . S
H333 C325 0.929 . S
H334 C342 0.929 . S
H335 C344 0.930 . S
H336 C346 0.930 . S
H337 C349 0.929 . S
H338 C352 0.930 . S
H339 C354 0.960 . S
H340 C354 0.960 . S
H341 C354 0.960 . S
C342 H334 0.929 . S
C342 C343 1.377 . S
C342 C344 1.384 . S
C343 C342 1.377 . S
C343 C349 1.390 . S
C344 H335 0.930 . S
C344 C342 1.384 . S
C344 C345 1.372 . S
C345 C344 1.372 . S
C345 C346 1.400 . S
C345 C350 1.490 . S
C346 H336 0.930 . S
C346 C345 1.400 . S
C346 C349 1.386 . S
H347 C363 0.930 . S
H348 C364 0.931 . S
C349 H337 0.929 . S
C349 C343 1.390 . S
C349 C346 1.386 . S
C350 C345 1.490 . S
C350 C352 1.395 . S
C350 C353 1.403 . S
H351 C357 0.930 . S
C352 H338 0.930 . S
C352 C350 1.395 . S
C352 C355 1.403 . S
C353 C350 1.403 . S
C353 C354 1.524 . S
C353 C357 1.400 . S
C354 H339 0.960 . S
C354 H340 0.960 . S
C354 H341 0.960 . S
C354 C353 1.524 . S
C355 C352 1.403 . S
C355 C356 1.392 . S
C355 C359 1.495 . S
C356 C355 1.392 . S
C356 C357 1.385 . S
C356 C358 1.478 . S
C357 H351 0.930 . S
C357 C353 1.400 . S
C357 C356 1.385 . S
C358 C356 1.478 . S
C358 C360 1.381 . S
C358 C364 1.383 . S
C359 C355 1.495 . S
C359 H365 0.959 . S
C359 H366 0.961 . S
C359 H367 0.960 . S
C360 C358 1.381 . S
C360 C361 1.394 . S
C360 H368 0.930 . S
C361 C360 1.394 . S
C361 C362 1.383 . S
C361 H369 0.929 . S
C362 C361 1.383 . S
C362 C363 1.377 . S
C363 H347 0.930 . S
C363 C362 1.377 . S
C363 C364 1.379 . S
C364 H348 0.931 . S
C364 C358 1.383 . S
C364 C363 1.379 . S
H365 C359 0.959 . S
H366 C359 0.961 . S
H367 C359 0.960 . S
H368 C360 0.930 . S
H369 C361 0.929 . S
H370 C378 0.929 . S
H371 C380 0.930 . S
H372 C382 0.930 . S
H373 C385 0.929 1_655 S
H374 C388 0.930 . S
H375 C390 0.960 . S
H376 C390 0.960 . S
H377 C390 0.960 . S
C378 H370 0.929 . S
C378 C379 1.377 . S
C378 C380 1.384 . S
C379 C378 1.377 . S
C379 C385 1.390 . S
C380 H371 0.930 . S
C380 C378 1.384 . S
C380 C381 1.372 . S
C381 C380 1.372 . S
C381 C382 1.400 . S
C381 C386 1.490 . S
C382 H372 0.930 . S
C382 C381 1.400 . S
C382 C385 1.386 . S
H383 C399 0.930 . S
H384 C400 0.931 . S
C385 H373 0.929 1_455 S
C385 C379 1.390 . S
C385 C382 1.386 . S
C386 C381 1.490 . S
C386 C388 1.395 . S
C386 C389 1.403 . S
H387 C393 0.930 . S
C388 H374 0.930 . S
C388 C386 1.395 . S
C388 C391 1.403 . S
C389 C386 1.403 . S
C389 C390 1.524 . S
C389 C393 1.400 . S
C390 H375 0.960 . S
C390 H376 0.960 . S
C390 H377 0.960 . S
C390 C389 1.524 . S
C391 C388 1.403 . S
C391 C392 1.392 . S
C391 C395 1.495 . S
C392 C391 1.392 . S
C392 C393 1.385 . S
C392 C394 1.478 . S
C393 H387 0.930 . S
C393 C389 1.400 . S
C393 C392 1.385 . S
C394 C392 1.478 . S
C394 C396 1.381 . S
C394 C400 1.383 . S
C395 C391 1.495 . S
C395 H401 0.959 . S
C395 H402 0.961 . S
C395 H403 0.960 . S
C396 C394 1.381 . S
C396 C397 1.394 . S
C396 H404 0.930 . S
C397 C396 1.394 . S
C397 C398 1.383 . S
C397 H405 0.929 . S
C398 C397 1.383 . S
C398 C399 1.377 . S
C399 H383 0.930 . S
C399 C398 1.377 . S
C399 C400 1.379 . S
C400 H384 0.931 . S
C400 C394 1.383 . S
C400 C399 1.379 . S
H401 C395 0.959 . S
H402 C395 0.961 . S
H403 C395 0.960 . S
H404 C396 0.930 . S
H405 C397 0.929 . S
H406 C414 0.929 . S
H407 C416 0.930 . S
H408 C418 0.930 . S
H409 C421 0.948 . S
H410 C424 0.930 . S
H411 C426 0.960 . S
H412 C426 0.960 . S
H413 C426 0.960 . S
C414 H406 0.929 . S
C414 C415 1.377 . S
C414 C416 1.384 . S
C415 C414 1.377 . S
C415 C421 1.390 . S
C416 H407 0.930 . S
C416 C414 1.384 . S
C416 C417 1.372 . S
C417 C416 1.372 . S
C417 C418 1.400 . S
C417 C422 1.490 . S
C418 H408 0.930 . S
C418 C417 1.400 . S
C418 C421 1.386 . S
H419 C435 0.930 . S
H420 C436 0.931 . S
C421 H409 0.948 . S
C421 C415 1.390 . S
C421 C418 1.386 . S
C422 C417 1.490 . S
C422 C424 1.395 . S
C422 C425 1.403 . S
H423 C429 0.930 . S
C424 H410 0.930 . S
C424 C422 1.395 . S
C424 C427 1.403 . S
C425 C422 1.403 . S
C425 C426 1.524 . S
C425 C429 1.400 . S
C426 H411 0.960 . S
C426 H412 0.960 . S
C426 H413 0.960 . S
C426 C425 1.524 . S
C427 C424 1.403 . S
C427 C428 1.392 . S
C427 C431 1.495 . S
C428 C427 1.392 . S
C428 C429 1.385 . S
C428 C430 1.478 . S
C429 H423 0.930 . S
C429 C425 1.400 . S
C429 C428 1.385 . S
C430 C428 1.478 . S
C430 C432 1.381 . S
C430 C436 1.383 . S
C431 C427 1.495 . S
C431 H437 0.959 . S
C431 H438 0.961 . S
C431 H439 0.960 . S
C432 C430 1.381 . S
C432 C433 1.394 . S
C432 H440 0.930 . S
C433 C432 1.394 . S
C433 C434 1.383 . S
C433 H441 0.929 . S
C434 C433 1.383 . S
C434 C435 1.377 . S
C435 H419 0.930 . S
C435 C434 1.377 . S
C435 C436 1.379 . S
C436 H420 0.931 . S
C436 C430 1.383 . S
C436 C435 1.379 . S
H437 C431 0.959 . S
H438 C431 0.961 . S
H439 C431 0.960 . S
H440 C432 0.930 . S
H441 C433 0.929 . S
H442 C450 0.929 . S
H443 C452 0.930 . S
H444 C454 0.930 . S
H445 C457 0.929 . S
H446 C460 0.930 . S
H447 C462 0.960 . S
H448 C462 0.960 . S
H449 C462 0.960 . S
C450 H442 0.929 . S
C450 C451 1.377 . S
C450 C452 1.384 . S
C451 C450 1.377 . S
C451 C457 1.390 . S
C452 H443 0.930 . S
C452 C450 1.384 . S
C452 C453 1.372 . S
C453 C452 1.372 . S
C453 C454 1.400 . S
C453 C458 1.490 . S
C454 H444 0.930 . S
C454 C453 1.400 . S
C454 C457 1.386 . S
H455 C471 0.930 . S
H456 C472 0.931 . S
C457 H445 0.929 . S
C457 C451 1.390 . S
C457 C454 1.386 . S
C458 C453 1.490 . S
C458 C460 1.395 . S
C458 C461 1.403 . S
H459 C465 0.930 . S
C460 H446 0.930 . S
C460 C458 1.395 . S
C460 C463 1.403 . S
C461 C458 1.403 . S
C461 C462 1.524 . S
C461 C465 1.400 . S
C462 H447 0.960 . S
C462 H448 0.960 . S
C462 H449 0.960 . S
C462 C461 1.524 . S
C463 C460 1.403 . S
C463 C464 1.392 . S
C463 C467 1.495 . S
C464 C463 1.392 . S
C464 C465 1.385 . S
C464 C466 1.478 . S
C465 H459 0.930 . S
C465 C461 1.400 . S
C465 C464 1.385 . S
C466 C464 1.478 . S
C466 C468 1.381 . S
C466 C472 1.383 . S
C467 C463 1.495 . S
C467 H473 0.959 . S
C467 H474 0.961 . S
C467 H475 0.960 . S
C468 C466 1.381 . S
C468 C469 1.394 . S
C468 H476 0.930 . S
C469 C468 1.394 . S
C469 C470 1.383 . S
C469 H477 0.929 . S
C470 C469 1.383 . S
C470 C471 1.377 . S
C471 H455 0.930 . S
C471 C470 1.377 . S
C471 C472 1.379 . S
C472 H456 0.931 . S
C472 C466 1.383 . S
C472 C471 1.379 . S
H473 C467 0.959 . S
H474 C467 0.961 . S
H475 C467 0.960 . S
H476 C468 0.930 . S
H477 C469 0.929 . S
H478 C486 0.929 . S
H479 C488 0.930 . S
H480 C490 0.930 . S
H481 C493 0.929 . S
H482 C496 0.930 . S
H483 C498 0.960 . S
H484 C498 0.960 . S
H485 C498 0.960 . S
C486 H478 0.929 . S
C486 C487 1.377 . S
C486 C488 1.384 . S
C487 C486 1.377 . S
C487 C493 1.390 . S
C488 H479 0.930 . S
C488 C486 1.384 . S
C488 C489 1.372 . S
C489 C488 1.372 . S
C489 C490 1.400 . S
C489 C494 1.490 . S
C490 H480 0.930 . S
C490 C489 1.400 . S
C490 C493 1.386 . S
H491 C507 0.930 . S
H492 C508 0.931 . S
C493 H481 0.929 . S
C493 C487 1.390 . S
C493 C490 1.386 . S
C494 C489 1.490 . S
C494 C496 1.395 . S
C494 C497 1.403 . S
H495 C501 0.930 . S
C496 H482 0.930 . S
C496 C494 1.395 . S
C496 C499 1.403 . S
C497 C494 1.403 . S
C497 C498 1.524 . S
C497 C501 1.400 . S
C498 H483 0.960 . S
C498 H484 0.960 . S
C498 H485 0.960 . S
C498 C497 1.524 . S
C499 C496 1.403 . S
C499 C500 1.392 . S
C499 C503 1.495 . S
C500 C499 1.392 . S
C500 C501 1.385 . S
C500 C502 1.478 . S
C501 H495 0.930 . S
C501 C497 1.400 . S
C501 C500 1.385 . S
C502 C500 1.478 . S
C502 C504 1.381 . S
C502 C508 1.383 . S
C503 C499 1.495 . S
C503 H509 0.959 . S
C503 H510 0.961 . S
C503 H511 0.960 . S
C504 C502 1.381 . S
C504 C505 1.394 . S
C504 H512 0.930 . S
C505 C504 1.394 . S
C505 C506 1.383 . S
C505 H513 0.929 . S
C506 C505 1.383 . S
C506 C507 1.377 . S
C507 H491 0.930 . S
C507 C506 1.377 . S
C507 C508 1.379 . S
C508 H492 0.931 . S
C508 C502 1.383 . S
C508 C507 1.379 . S
H509 C503 0.959 . S
H510 C503 0.961 . S
H511 C503 0.960 . S
H512 C504 0.930 . S
H513 C505 0.929 . S
C91 C19 1.475 . S
C110 C59 1.408 . S
C127 C26 1.199 . S
C146 C65 1.079 . S
C163 C16 1.141 . S
C182 C56 1.145 . S
C199 C28 1.522 . S
C218 C81 1.523 . S
C235 C9 1.822 . S
C254 C47 1.683 . S
C290 C64 1.570 . S
C271 C21 1.682 . S
C307 C39 1.482 . S
C326 C60 1.465 . S
C362 C77 1.618 . S
C343 C1 1.686 . S
C398 C44 1.686 . S
C379 C29 1.823 . S
C434 C80 1.504 . S
C415 C8 1.511 . S
C470 C43 1.081 . S
C451 C36 1.126 . S
C506 C68 1.168 . S
C487 C6 1.190 . S
