# Generated by pormake.
# Topology myd, (4,6)-cn, num edge types: 1
# Building blocks:
#     Node 0, Type 0, BuildingBlock: NAWXER_clean_sbu_0, # of connection points: 4
#     Node 1, Type 0, BuildingBlock: NAWXER_clean_sbu_0, # of connection points: 4
#     Node 2, Type 0, BuildingBlock: NAWXER_clean_sbu_0, # of connection points: 4
#     Node 3, Type 0, BuildingBlock: NAWXER_clean_sbu_0, # of connection points: 4
#     Node 4, Type 0, BuildingBlock: NAWXER_clean_sbu_0, # of connection points: 4
#     Node 5, Type 0, BuildingBlock: NAWXER_clean_sbu_0, # of connection points: 4
#     Node 6, Type 0, BuildingBlock: NAWXER_clean_sbu_0, # of connection points: 4
#     Node 7, Type 0, BuildingBlock: NAWXER_clean_sbu_0, # of connection points: 4
#     Node 8, Type 0, BuildingBlock: NAWXER_clean_sbu_0, # of connection points: 4
#     Node 9, Type 0, BuildingBlock: NAWXER_clean_sbu_0, # of connection points: 4
#     Node 10, Type 0, BuildingBlock: NAWXER_clean_sbu_0, # of connection points: 4
#     Node 11, Type 0, BuildingBlock: NAWXER_clean_sbu_0, # of connection points: 4
#     Node 12, Type 1, BuildingBlock: FUNLAD_clean_sbu_0, # of connection points: 6
#     Node 13, Type 1, BuildingBlock: FUNLAD_clean_sbu_0, # of connection points: 6
#     Node 14, Type 1, BuildingBlock: FUNLAD_clean_sbu_0, # of connection points: 6
#     Node 15, Type 1, BuildingBlock: FUNLAD_clean_sbu_0, # of connection points: 6
#     Node 16, Type 1, BuildingBlock: FUNLAD_clean_sbu_0, # of connection points: 6
#     Node 17, Type 1, BuildingBlock: FUNLAD_clean_sbu_0, # of connection points: 6
#     Node 18, Type 1, BuildingBlock: FUNLAD_clean_sbu_0, # of connection points: 6
#     Node 19, Type 1, BuildingBlock: FUNLAD_clean_sbu_0, # of connection points: 6
#     Edge 20, Type (0, 1), BuildingBlock: KIFKEQ_clean_linker_1, # of connection points: 2
#     Edge 21, Type (0, 1), BuildingBlock: KIFKEQ_clean_linker_1, # of connection points: 2
#     Edge 22, Type (0, 1), BuildingBlock: KIFKEQ_clean_linker_1, # of connection points: 2
#     Edge 23, Type (0, 1), BuildingBlock: KIFKEQ_clean_linker_1, # of connection points: 2
#     Edge 24, Type (0, 1), BuildingBlock: KIFKEQ_clean_linker_1, # of connection points: 2
#     Edge 25, Type (0, 1), BuildingBlock: KIFKEQ_clean_linker_1, # of connection points: 2
#     Edge 26, Type (0, 1), BuildingBlock: KIFKEQ_clean_linker_1, # of connection points: 2
#     Edge 27, Type (0, 1), BuildingBlock: KIFKEQ_clean_linker_1, # of connection points: 2
#     Edge 28, Type (0, 1), BuildingBlock: KIFKEQ_clean_linker_1, # of connection points: 2
#     Edge 29, Type (0, 1), BuildingBlock: KIFKEQ_clean_linker_1, # of connection points: 2
#     Edge 30, Type (0, 1), BuildingBlock: KIFKEQ_clean_linker_1, # of connection points: 2
#     Edge 31, Type (0, 1), BuildingBlock: KIFKEQ_clean_linker_1, # of connection points: 2
#     Edge 32, Type (0, 1), BuildingBlock: KIFKEQ_clean_linker_1, # of connection points: 2
#     Edge 33, Type (0, 1), BuildingBlock: KIFKEQ_clean_linker_1, # of connection points: 2
#     Edge 34, Type (0, 1), BuildingBlock: KIFKEQ_clean_linker_1, # of connection points: 2
#     Edge 35, Type (0, 1), BuildingBlock: KIFKEQ_clean_linker_1, # of connection points: 2
#     Edge 36, Type (0, 1), BuildingBlock: KIFKEQ_clean_linker_1, # of connection points: 2
#     Edge 37, Type (0, 1), BuildingBlock: KIFKEQ_clean_linker_1, # of connection points: 2
#     Edge 38, Type (0, 1), BuildingBlock: KIFKEQ_clean_linker_1, # of connection points: 2
#     Edge 39, Type (0, 1), BuildingBlock: KIFKEQ_clean_linker_1, # of connection points: 2
#     Edge 40, Type (0, 1), BuildingBlock: KIFKEQ_clean_linker_1, # of connection points: 2
#     Edge 41, Type (0, 1), BuildingBlock: KIFKEQ_clean_linker_1, # of connection points: 2
#     Edge 42, Type (0, 1), BuildingBlock: KIFKEQ_clean_linker_1, # of connection points: 2
#     Edge 43, Type (0, 1), BuildingBlock: KIFKEQ_clean_linker_1, # of connection points: 2
#     Edge 44, Type (0, 1), BuildingBlock: KIFKEQ_clean_linker_1, # of connection points: 2
#     Edge 45, Type (0, 1), BuildingBlock: KIFKEQ_clean_linker_1, # of connection points: 2
#     Edge 46, Type (0, 1), BuildingBlock: KIFKEQ_clean_linker_1, # of connection points: 2
#     Edge 47, Type (0, 1), BuildingBlock: KIFKEQ_clean_linker_1, # of connection points: 2
#     Edge 48, Type (0, 1), BuildingBlock: KIFKEQ_clean_linker_1, # of connection points: 2
#     Edge 49, Type (0, 1), BuildingBlock: KIFKEQ_clean_linker_1, # of connection points: 2
#     Edge 50, Type (0, 1), BuildingBlock: KIFKEQ_clean_linker_1, # of connection points: 2
#     Edge 51, Type (0, 1), BuildingBlock: KIFKEQ_clean_linker_1, # of connection points: 2
#     Edge 52, Type (0, 1), BuildingBlock: KIFKEQ_clean_linker_1, # of connection points: 2
#     Edge 53, Type (0, 1), BuildingBlock: KIFKEQ_clean_linker_1, # of connection points: 2
#     Edge 54, Type (0, 1), BuildingBlock: KIFKEQ_clean_linker_1, # of connection points: 2
#     Edge 55, Type (0, 1), BuildingBlock: KIFKEQ_clean_linker_1, # of connection points: 2
#     Edge 56, Type (0, 1), BuildingBlock: KIFKEQ_clean_linker_1, # of connection points: 2
#     Edge 57, Type (0, 1), BuildingBlock: KIFKEQ_clean_linker_1, # of connection points: 2
#     Edge 58, Type (0, 1), BuildingBlock: KIFKEQ_clean_linker_1, # of connection points: 2
#     Edge 59, Type (0, 1), BuildingBlock: KIFKEQ_clean_linker_1, # of connection points: 2
#     Edge 60, Type (0, 1), BuildingBlock: KIFKEQ_clean_linker_1, # of connection points: 2
#     Edge 61, Type (0, 1), BuildingBlock: KIFKEQ_clean_linker_1, # of connection points: 2
#     Edge 62, Type (0, 1), BuildingBlock: KIFKEQ_clean_linker_1, # of connection points: 2
#     Edge 63, Type (0, 1), BuildingBlock: KIFKEQ_clean_linker_1, # of connection points: 2
#     Edge 64, Type (0, 1), BuildingBlock: KIFKEQ_clean_linker_1, # of connection points: 2
#     Edge 65, Type (0, 1), BuildingBlock: KIFKEQ_clean_linker_1, # of connection points: 2
#     Edge 66, Type (0, 1), BuildingBlock: KIFKEQ_clean_linker_1, # of connection points: 2
#     Edge 67, Type (0, 1), BuildingBlock: KIFKEQ_clean_linker_1, # of connection points: 2
# Relax obj value: 0.291
# Max RMSD: 0.234
# Mean RMSD: 0.147
data_MOF--net-myd--node1-NAWXER_clean_sbu_0--node2-FUNLAD_clean_sbu_0--edge1-KIFKEQ_clean_linker_1
_symmetry_space_group_name_H-M    P1
_symmetry_Int_Tables_number       1
_symmetry_cell_setting            triclinic
loop_
_symmetry_equiv_pos_as_xyz
'x, y, z'
_cell_length_a     46.209845
_cell_length_b     46.057114
_cell_length_c     51.059509
_cell_angle_alpha  83.849016
_cell_angle_beta   82.966201
_cell_angle_gamma 88.552702
loop_
_atom_site_label
_atom_site_type_symbol
_atom_site_fract_x
_atom_site_fract_y
_atom_site_fract_z
_atom_type_partial_charge
C0 C 0.04719 0.23464 0.31324 0.0
C1 C 0.02703 0.29983 0.38279 0.0
O2 O 0.06643 0.24607 0.32464 0.0
Zn3 Zn 0.03858 0.26459 0.3498 0.0
O4 O 0.02007 0.23816 0.32093 0.0
Zn5 Zn 0.99267 0.25904 0.35015 0.0
O6 O 0.9705 0.28409 0.32697 0.0
O7 O 0.01735 0.29476 0.32294 0.0
O8 O 1.00395 0.28915 0.37616 0.0
O9 O 0.05187 0.29047 0.37345 0.0
O10 O 0.02151 0.22648 0.37356 0.0
O11 O 0.9742 0.2255 0.37128 0.0
C12 C 0.9918 0.29987 0.31603 0.0
C13 C 0.99699 0.21351 0.37938 0.0
C14 C 0.04604 0.76708 0.20609 0.0
C15 C 0.0287 0.71045 0.13488 0.0
O16 O 0.06552 0.75544 0.19058 0.0
Zn17 Zn 0.03818 0.74017 0.16984 0.0
O18 O 0.01906 0.76574 0.20297 0.0
Zn19 Zn 0.99242 0.74846 0.17713 0.0
O20 O 0.96805 0.7227 0.20336 0.0
O21 O 0.01449 0.70958 0.19942 0.0
O22 O 1.00497 0.72112 0.14602 0.0
O23 O 0.05287 0.71653 0.14229 0.0
O24 O 0.02403 0.7802 0.14975 0.0
O25 O 0.9766 0.78473 0.16012 0.0
C26 C 0.98827 0.70547 0.2106 0.0
C27 C 1.00043 0.79512 0.14805 0.0
C28 C 0.35637 1.00791 0.19524 0.0
C29 C 0.28329 0.99811 0.27469 0.0
O30 O 0.3486 0.98413 0.20915 0.0
Zn31 Zn 0.32074 1.00141 0.23516 0.0
O32 O 0.34559 0.03223 0.20226 0.0
Zn33 Zn 0.31396 0.04788 0.23218 0.0
O34 O 0.33694 0.07153 0.25126 0.0
O35 O 0.34783 0.0245 0.25674 0.0
O36 O 0.28755 0.02448 0.26441 0.0
O37 O 0.29744 0.97753 0.2639 0.0
O38 O 0.28962 0.01771 0.20948 0.0
O39 O 0.28497 0.06544 0.21023 0.0
C40 C 0.35181 0.05072 0.26169 0.0
C41 C 0.27819 0.04209 0.20128 0.0
C42 C 0.74569 0.51677 0.19461 0.0
C43 C 0.67611 0.52622 0.27417 0.0
O44 O 0.73309 0.49277 0.20427 0.0
Zn45 Zn 0.70077 0.47737 0.23663 0.0
O46 O 0.73941 0.53988 0.20583 0.0
Zn47 Zn 0.7103 0.5227 0.23355 0.0
O48 O 0.73655 0.49418 0.25748 0.0
O49 O 0.72171 0.4488 0.2577 0.0
O50 O 0.69021 0.54664 0.25973 0.0
O51 O 0.67818 0.50028 0.26722 0.0
O52 O 0.67031 0.46401 0.2187 0.0
O53 O 0.67694 0.51155 0.2108 0.0
C54 C 0.73848 0.46685 0.26524 0.0
C55 C 0.66386 0.48849 0.20676 0.0
C56 C 0.22491 0.36704 0.97897 0.0
C57 C 0.30399 0.29482 0.96406 0.0
O58 O 0.2362 0.3594 0.95671 0.0
Zn59 Zn 0.26515 0.33156 0.96983 0.0
O60 O 0.23553 0.35657 1.00013 0.0
Zn61 Zn 0.26872 0.32628 0.01177 0.0
O62 O 0.29783 0.3493 0.02519 0.0
O63 O 0.2979 0.35767 0.98185 0.0
O64 O 0.29758 0.29999 0.98822 0.0
O65 O 0.28981 0.30771 0.94618 0.0
O66 O 0.23828 0.2984 0.99244 0.0
O67 O 0.2456 0.29595 0.03448 0.0
C68 C 0.30888 0.36201 1.00296 0.0
C69 C 0.23265 0.2867 0.01639 0.0
C70 C 0.24379 0.74664 0.5049 0.0
C71 C 0.32318 0.67547 0.51994 0.0
O72 O 0.26095 0.74213 0.48401 0.0
Zn73 Zn 0.29834 0.71624 0.4722 0.0
O74 O 0.2484 0.7331 0.52712 0.0
Zn75 Zn 0.28247 0.71032 0.51369 0.0
O76 O 0.31458 0.7434 0.50212 0.0
O77 O 0.32714 0.74593 0.45881 0.0
O78 O 0.30281 0.68285 0.53717 0.0
O79 O 0.32329 0.68606 0.49565 0.0
O80 O 0.2823 0.69298 0.44803 0.0
O81 O 0.26292 0.68306 0.48967 0.0
C82 C 0.32995 0.75484 0.48111 0.0
C83 C 0.26417 0.67882 0.46516 0.0
C84 C 0.72294 0.86159 0.48365 0.0
C85 C 0.79625 0.78311 0.4738 0.0
O86 O 0.73425 0.85202 0.46223 0.0
Zn87 Zn 0.76138 0.82359 0.47746 0.0
O88 O 0.73251 0.85186 0.50551 0.0
Zn89 Zn 0.76384 0.82059 0.51918 0.0
O90 O 0.7936 0.84319 0.53209 0.0
O91 O 0.79543 0.84862 0.48856 0.0
O92 O 0.79016 0.78955 0.4977 0.0
O93 O 0.78454 0.79774 0.45516 0.0
O94 O 0.73259 0.79253 0.50154 0.0
O95 O 0.73841 0.79422 0.54366 0.0
C96 C 0.8059 0.854 0.50964 0.0
C97 C 0.72587 0.78341 0.52612 0.0
C98 C 0.48625 0.80001 0.81878 0.0
C99 C 0.49115 0.71835 0.88719 0.0
O100 O 0.46506 0.78459 0.83049 0.0
Zn101 Zn 0.48682 0.76235 0.85586 0.0
O102 O 0.51156 0.79653 0.82666 0.0
Zn103 Zn 0.53229 0.76914 0.85617 0.0
O104 O 0.56153 0.74944 0.83314 0.0
O105 O 0.51572 0.73962 0.82889 0.0
O106 O 0.5155 0.73161 0.88121 0.0
O107 O 0.4684 0.72965 0.87841 0.0
O108 O 0.49634 0.79499 0.88019 0.0
O109 O 0.54407 0.79701 0.87882 0.0
C110 C 0.54308 0.73628 0.82218 0.0
C111 C 0.51889 0.80658 0.88694 0.0
C112 C 0.49633 0.20324 0.71797 0.0
C113 C 0.50419 0.28705 0.64896 0.0
O114 O 0.47575 0.22002 0.71086 0.0
Zn115 Zn 0.49781 0.24196 0.68041 0.0
O116 O 0.52151 0.20514 0.70416 0.0
Zn117 Zn 0.54235 0.23156 0.66962 0.0
O118 O 0.57383 0.24778 0.68494 0.0
O119 O 0.52921 0.26181 0.70036 0.0
O120 O 0.5276 0.27149 0.64897 0.0
O121 O 0.4811 0.27743 0.66306 0.0
O122 O 0.50452 0.21098 0.65153 0.0
O123 O 0.55202 0.20456 0.64354 0.0
C124 C 0.5569 0.26251 0.70025 0.0
C125 C 0.5265 0.19836 0.63939 0.0
C126 C 0.78962 0.54102 0.69593 0.0
C127 C 0.86737 0.54353 0.75334 0.0
O128 O 0.79977 0.56386 0.70334 0.0
Zn129 Zn 0.82894 0.54412 0.724 0.0
O130 O 0.80003 0.51595 0.7035 0.0
Zn131 Zn 0.83273 0.49725 0.72612 0.0
O132 O 0.80897 0.47356 0.75459 0.0
O133 O 0.80264 0.52095 0.75669 0.0
O134 O 0.86155 0.51787 0.74801 0.0
O135 O 0.85398 0.56557 0.74307 0.0
O136 O 0.85812 0.52806 0.69289 0.0
O137 O 0.85853 0.47992 0.69839 0.0
C138 C 0.79693 0.4946 0.76634 0.0
C139 C 0.86716 0.50363 0.68485 0.0
C140 C 0.23436 1.00197 0.68192 0.0
C141 C 0.16771 1.00491 0.76435 0.0
O142 O 0.22107 0.98056 0.69566 0.0
Zn143 Zn 0.19939 1.00224 0.72251 0.0
O144 O 0.22983 0.02775 0.68894 0.0
Zn145 Zn 0.20439 0.04873 0.71957 0.0
O146 O 0.23401 0.06526 0.73696 0.0
O147 O 0.23296 0.01705 0.74243 0.0
O148 O 0.17651 0.03011 0.75364 0.0
O149 O 0.17536 0.9823 0.75276 0.0
O150 O 0.16883 0.02732 0.70132 0.0
O151 O 0.17873 0.07419 0.7002 0.0
C152 C 0.24384 0.04103 0.74693 0.0
C153 C 0.16318 0.05417 0.69408 0.0
C154 C 0.75057 0.18163 0.01984 0.0
C155 C 0.81599 0.2642 0.01452 0.0
O156 O 0.75505 0.19619 0.03874 0.0
Zn157 Zn 0.78356 0.22244 0.01853 0.0
O158 O 0.76508 0.18739 0.99687 0.0
Zn159 Zn 0.79718 0.21762 0.97723 0.0
O160 O 0.83133 0.19239 0.96835 0.0
O161 O 0.82126 0.19573 0.01126 0.0
O162 O 0.81674 0.25267 0.99268 0.0
O163 O 0.79913 0.25381 0.03476 0.0
O164 O 0.75732 0.24513 0.99141 0.0
O165 O 0.77512 0.23898 0.95023 0.0
C166 C 0.8376 0.18604 0.99192 0.0
C167 C 0.75571 0.24983 0.96646 0.0
C168 C 0.12126 0.0376 0.08365 0.0
N169 N 0.09197 0.03804 0.00819 0.0
C170 C 0.11932 0.04218 0.99522 0.0
C171 C 0.12625 0.03408 0.96951 0.0
C172 C 0.10477 0.02179 0.95696 0.0
C173 C 0.07696 0.01717 0.9711 0.0
C174 C 0.07103 0.02541 0.99677 0.0
Zn175 Zn 0.08036 0.0525 0.04479 0.0
C176 C 0.04439 1.00545 0.08125 0.0
N177 N 0.05232 0.0811 0.12059 0.0
C178 C 0.07594 0.09329 0.12848 0.0
C179 C 0.02612 0.08024 0.1361 0.0
C180 C 0.02317 0.09213 0.16054 0.0
C181 C 0.04753 0.10458 0.16896 0.0
C182 C 0.07405 0.10502 0.15248 0.0
Zn183 Zn 0.06126 0.06571 0.08406 0.0
O184 O 0.121 0.03615 0.05891 0.0
C185 C 0.09888 0.11191 0.04824 0.0
O186 O 0.09912 0.04774 0.09685 0.0
H187 H 1.00756 0.07058 0.12947 0.0
H188 H 0.13562 0.05236 0.00459 0.0
H189 H 0.09659 0.09433 0.11602 0.0
O190 O 0.1012 0.09297 0.03174 0.0
O191 O 0.08321 0.1062 0.07035 0.0
H192 H 0.04946 0.02218 0.00741 0.0
O193 O 0.02276 0.08316 0.07107 0.0
O194 O 0.03964 0.0704 0.03172 0.0
O195 O 0.04023 0.02511 0.09713 0.0
O196 O 0.05974 0.01141 0.05889 0.0
C197 C 0.01947 0.08181 0.04688 0.0
H198 H 0.1479 0.03829 0.95925 0.0
H199 H 0.05985 1.00745 0.96234 0.0
H200 H 1.00223 0.09157 0.17269 0.0
H201 H 0.09317 0.11513 0.1577 0.0
C202 C 0.91888 0.49696 0.05894 0.0
N203 N 0.95869 0.51091 0.97965 0.0
C204 C 0.93164 0.50544 0.97351 0.0
C205 C 0.92435 0.51315 0.94799 0.0
C206 C 0.94501 0.52671 0.92835 0.0
C207 C 0.97232 0.5335 0.93543 0.0
C208 C 0.97881 0.52519 0.96135 0.0
Zn209 Zn 0.96816 0.4928 0.01636 0.0
C210 C 0.99538 0.5336 0.0471 0.0
N211 N 0.98548 0.45078 0.09158 0.0
C212 C 0.96316 0.43351 0.10355 0.0
C213 C 0.00946 0.45439 0.10389 0.0
C214 C 0.01157 0.44007 0.12926 0.0
C215 C 0.98882 0.42188 0.14175 0.0
C216 C 0.96436 0.41893 0.1286 0.0
Zn217 Zn 0.9793 0.47077 0.05493 0.0
O218 O 0.92542 0.50645 0.03464 0.0
C219 C 0.95067 0.43019 0.02509 0.0
O220 O 0.93752 0.48201 0.0709 0.0
H221 H 0.02689 0.46833 0.09407 0.0
H222 H 0.91592 0.494 0.98818 0.0
H223 H 0.94407 0.43104 0.09374 0.0
O224 O 0.94987 0.45305 0.00894 0.0
O225 O 0.9633 0.43102 0.04566 0.0
H226 H 1.00024 0.52921 0.96657 0.0
O227 O 0.02118 0.45976 0.03909 0.0
O228 O 0.01156 0.47832 0.99947 0.0
O229 O 0.99494 0.5108 0.06363 0.0
O230 O 0.9859 0.53246 0.02483 0.0
C231 C 0.02927 0.46545 0.01444 0.0
H232 H 0.90292 0.50787 0.94347 0.0
H233 H 0.98888 0.54385 0.9208 0.0
H234 H 0.03085 0.44283 0.13879 0.0
H235 H 0.94606 0.40566 0.13771 0.0
C236 C 0.04129 1.00214 0.42845 0.0
N237 N 0.05406 0.92046 0.39792 0.0
C238 C 0.03136 0.92592 0.3834 0.0
C239 C 0.03071 0.91273 0.36003 0.0
C240 C 0.05365 0.89386 0.35173 0.0
C241 C 0.07648 0.88851 0.36735 0.0
C242 C 0.07635 0.90217 0.39026 0.0
Zn243 Zn 0.05882 0.94052 0.43065 0.0
C244 C 0.11948 0.96408 0.42283 0.0
N245 N 0.07609 0.97969 0.4982 0.0
C246 C 0.05367 0.99628 0.50864 0.0
C247 C 0.10243 0.97867 0.50754 0.0
C248 C 0.10708 0.99508 0.52804 0.0
C249 C 0.08443 0.01278 0.53891 0.0
C250 C 0.05739 0.01309 0.52906 0.0
Zn251 Zn 0.07003 0.95869 0.46636 0.0
O252 O 0.04137 0.98164 0.41354 0.0
C253 C 1.00877 0.93365 0.47176 0.0
O254 O 0.05204 0.99722 0.45014 0.0
H255 H 0.11992 0.96535 0.49891 0.0
H256 H 0.01402 0.94074 0.38975 0.0
H257 H 0.03295 0.99694 0.50078 0.0
O258 O 0.01699 0.92921 0.44789 0.0
O259 O 0.02645 0.94487 0.48509 0.0
H260 H 0.09447 0.89835 0.40173 0.0
O261 O 0.08838 0.92035 0.48308 0.0
O262 O 0.07681 0.90005 0.44898 0.0
O263 O 0.11356 0.9717 0.44621 0.0
O264 O 0.10009 0.95167 0.41281 0.0
C265 C 0.08853 0.8981 0.47047 0.0
H266 H 0.01271 0.91752 0.34846 0.0
H267 H 0.09426 0.87362 0.36214 0.0
H268 H 0.12811 0.99372 0.53544 0.0
H269 H 0.03943 0.02654 0.53674 0.0
C270 C 0.92303 0.60528 0.44535 0.0
N271 N 0.01271 0.58128 0.44548 0.0
C272 C 0.02202 0.60627 0.43048 0.0
C273 C 0.05028 0.61623 0.43081 0.0
C274 C 0.06914 0.60061 0.44703 0.0
C275 C 0.05835 0.57564 0.46324 0.0
C276 C 0.0301 0.5662 0.46198 0.0
Zn277 Zn 0.97395 0.56339 0.43999 0.0
C278 C 0.9418 0.53501 0.49088 0.0
N279 N 0.89464 0.52493 0.42689 0.0
C280 C 0.87643 0.54052 0.41151 0.0
C281 C 0.89077 0.49584 0.43422 0.0
C282 C 0.86955 0.4808 0.42403 0.0
C283 C 0.85174 0.49609 0.4068 0.0
C284 C 0.8545 0.52647 0.4014 0.0
Zn285 Zn 0.93199 0.54396 0.4339 0.0
O286 O 0.95061 0.60403 0.44558 0.0
C287 C 0.96313 0.57393 0.38322 0.0
O288 O 0.90961 0.58273 0.4414 0.0
H289 H 0.90533 0.48387 0.44663 0.0
H290 H 1.00791 0.61797 0.41746 0.0
H291 H 0.88006 0.56353 0.40568 0.0
O292 O 0.98208 0.57716 0.39868 0.0
O293 O 0.93994 0.56017 0.39246 0.0
H294 H 0.02239 0.5463 0.47364 0.0
O295 O 0.95471 0.50498 0.4271 0.0
O296 O 0.99643 0.5224 0.43417 0.0
O297 O 0.92421 0.52892 0.47498 0.0
O298 O 0.96456 0.54961 0.48172 0.0
C299 C 0.98161 0.50123 0.42916 0.0
H300 H 0.0575 0.63541 0.41773 0.0
H301 H 0.07167 0.5632 0.47657 0.0
H302 H 0.86793 0.45733 0.42856 0.0
H303 H 0.84131 0.53887 0.38789 0.0
C304 C 0.41427 0.97785 0.5548 0.0
N305 N 0.45583 1.0051 0.47796 0.0
C306 C 0.42895 1.00038 0.47102 0.0
C307 C 0.4208 0.01313 0.44698 0.0
C308 C 0.44054 0.03072 0.4295 0.0
C309 C 0.46818 0.03537 0.43706 0.0
C310 C 0.47536 0.02241 0.46162 0.0
Zn311 Zn 0.46569 0.98298 0.51311 0.0
C312 C 0.48686 0.02131 0.54988 0.0
N313 N 0.48343 0.93423 0.58555 0.0
C314 C 0.46321 0.91383 0.5959 0.0
C315 C 0.50552 0.94054 0.59928 0.0
C316 C 0.5074 0.92652 0.62475 0.0
C317 C 0.48631 0.90587 0.6361 0.0
C318 C 0.46423 0.89941 0.62115 0.0
Zn319 Zn 0.47647 0.95731 0.55031 0.0
O320 O 0.42143 0.9905 0.53158 0.0
C321 C 0.45439 0.91938 0.51364 0.0
O322 O 0.43332 0.96294 0.56628 0.0
H323 H 0.52129 0.95693 0.59074 0.0
H324 H 0.4139 0.9861 0.4839 0.0
H325 H 0.44555 0.90935 0.58492 0.0
O326 O 0.45218 0.94395 0.50015 0.0
O327 O 0.46498 0.91819 0.53556 0.0
H328 H 0.49666 0.0258 0.46741 0.0
O329 O 0.51969 0.95172 0.53455 0.0
O330 O 0.51053 0.97414 0.49606 0.0
O331 O 0.48762 0.99694 0.56415 0.0
O332 O 0.4789 0.02213 0.52679 0.0
C333 C 0.52835 0.96073 0.51057 0.0
H334 H 0.39952 1.00841 0.44174 0.0
H335 H 0.48405 0.04877 0.42411 0.0
H336 H 0.52499 0.93194 0.63548 0.0
H337 H 0.4472 0.88409 0.6292 0.0
C338 C 0.62075 0.54139 0.59095 0.0
N339 N 0.58251 0.54718 0.51945 0.0
C340 C 0.60958 0.55502 0.5076 0.0
C341 C 0.6172 0.55367 0.48046 0.0
C342 C 0.59663 0.54477 0.46491 0.0
C343 C 0.5689 0.53639 0.47774 0.0
C344 C 0.56234 0.53763 0.50513 0.0
Zn345 Zn 0.57214 0.55407 0.55875 0.0
C346 C 0.5455 0.50087 0.59272 0.0
N347 N 0.55141 0.57204 0.63954 0.0
C348 C 0.57488 0.58411 0.64779 0.0
C349 C 0.52543 0.56982 0.65537 0.0
C350 C 0.52241 0.58069 0.68028 0.0
C351 C 0.54648 0.59348 0.68886 0.0
C352 C 0.57298 0.59465 0.67234 0.0
Zn353 Zn 0.55865 0.56202 0.6009 0.0
O354 O 0.61598 0.54177 0.56694 0.0
C355 C 0.58689 0.61416 0.56724 0.0
O356 O 0.60002 0.54682 0.60835 0.0
H357 H 0.50688 0.56057 0.64838 0.0
H358 H 0.62526 0.56303 0.51907 0.0
H359 H 0.5951 0.58695 0.63487 0.0
O360 O 0.58666 0.59777 0.54881 0.0
O361 O 0.57614 0.60483 0.59059 0.0
H362 H 0.54085 0.53169 0.51481 0.0
O363 O 0.51695 0.57773 0.59291 0.0
O364 O 0.52842 0.56765 0.55178 0.0
O365 O 0.54213 0.51857 0.61052 0.0
O366 O 0.55768 0.50985 0.56955 0.0
C367 C 0.50992 0.5771 0.56966 0.0
H368 H 0.63907 0.5597 0.47183 0.0
H369 H 0.55212 0.52966 0.46671 0.0
H370 H 0.50145 0.57966 0.69241 0.0
H371 H 0.59184 0.60516 0.67764 0.0
C372 C 0.54192 0.50643 0.91912 0.0
N373 N 0.55746 0.43658 0.87107 0.0
C374 C 0.53124 0.43581 0.86162 0.0
C375 C 0.52933 0.42401 0.8377 0.0
C376 C 0.55473 0.41338 0.82352 0.0
C377 C 0.58147 0.41571 0.83329 0.0
C378 C 0.58231 0.4271 0.85718 0.0
Zn379 Zn 0.56301 0.44785 0.90765 0.0
C380 C 0.62166 0.47556 0.9025 0.0
N381 N 0.58298 0.46745 0.98242 0.0
C382 C 0.56071 0.47825 0.99874 0.0
C383 C 0.60997 0.46265 0.99017 0.0
C384 C 0.61531 0.46853 0.01535 0.0
C385 C 0.59257 0.47911 0.03276 0.0
C386 C 0.56501 0.48406 0.02423 0.0
Zn387 Zn 0.57519 0.45697 0.94627 0.0
O388 O 0.53989 0.48885 0.90175 0.0
C389 C 0.51559 0.4287 0.94926 0.0
O390 O 0.55611 0.49845 0.93851 0.0
H391 H 0.62726 0.45385 0.97695 0.0
H392 H 0.51173 0.44322 0.87308 0.0
H393 H 0.53948 0.48209 0.99209 0.0
O394 O 0.52396 0.42762 0.92474 0.0
O395 O 0.5324 0.43999 0.96335 0.0
H396 H 0.6029 0.42694 0.86515 0.0
O397 O 0.59448 0.41591 0.95413 0.0
O398 O 0.58739 0.40711 0.9142 0.0
O399 O 0.61813 0.47324 0.92779 0.0
O400 O 0.601 0.46837 0.89058 0.0
C401 C 0.59824 0.39941 0.93565 0.0
H402 H 0.50824 0.42238 0.83081 0.0
H403 H 0.60145 0.40702 0.8235 0.0
H404 H 0.6368 0.46417 0.02139 0.0
H405 H 0.54704 0.49243 0.03709 0.0
C406 C 0.4305 0.11602 0.95888 0.0
N407 N 0.5148 0.08159 0.9666 0.0
C408 C 0.52605 0.10857 0.95876 0.0
C409 C 0.55146 0.1169 0.9681 0.0
C410 C 0.56546 0.09723 0.98561 0.0
C411 C 0.55352 0.06943 0.99311 0.0
C412 C 0.52803 0.06207 0.9834 0.0
Zn413 Zn 0.47642 0.06998 0.95477 0.0
C414 C 0.43723 0.04129 1.00316 0.0
N415 N 0.39565 0.04353 0.93388 0.0
C416 C 0.38209 0.06594 0.92039 0.0
C417 C 0.38657 0.01549 0.93474 0.0
C418 C 0.36425 1.00908 0.9201 0.0
C419 C 0.35092 0.03192 0.90528 0.0
C420 C 0.3593 0.06065 0.90637 0.0
Zn421 Zn 0.43394 0.05391 0.94656 0.0
O422 O 0.45768 0.11296 0.96062 0.0
C423 C 0.472 0.08403 0.89816 0.0
O424 O 0.41634 0.09424 0.95463 0.0
H425 H 0.39776 0.99792 0.94534 0.0
H426 H 0.51517 0.12374 0.9454 0.0
H427 H 0.39018 0.08791 0.91863 0.0
O428 O 0.49048 0.08592 0.91442 0.0
O429 O 0.44793 0.07147 0.9065 0.0
H430 H 0.5186 0.04082 0.98958 0.0
O431 O 0.45172 0.01322 0.93926 0.0
O432 O 0.49442 0.02675 0.94801 0.0
O433 O 0.42014 0.03712 0.98622 0.0
O434 O 0.4612 0.05438 0.99531 0.0
C435 C 0.47817 1.00717 0.94193 0.0
H436 H 0.56017 0.13842 0.96153 0.0
H437 H 0.56344 0.05372 0.00676 0.0
H438 H 0.35841 0.98658 0.91937 0.0
H439 H 0.35008 0.07873 0.89458 0.0
H440 H 0.03465 0.18737 0.41163 0.0
H441 H 0.96067 0.16982 0.3719 0.0
H442 H 0.04135 0.13522 0.42353 0.0
H443 H 0.96759 0.11721 0.38372 0.0
H444 H 0.02441 0.02757 0.38074 0.0
H445 H 1.00869 0.0787 0.37081 0.0
H446 H 0.01459 0.09403 0.45189 0.0
H447 H 0.03005 0.04396 0.46177 0.0
C448 C 0.01941 0.17237 0.40596 0.0
C449 C 0.99697 0.18272 0.39109 0.0
C450 C 0.0233 0.14248 0.41267 0.0
C451 C 1.00509 0.12213 0.40439 0.0
C452 C 0.98207 0.13242 0.39015 0.0
C453 C 0.97787 0.16251 0.38378 0.0
C454 C 0.02199 0.04184 0.39642 0.0
C455 C 0.02903 0.03176 0.42187 0.0
C456 C 0.01289 0.07101 0.39081 0.0
C457 C 0.0108 0.0904 0.41056 0.0
C458 C 0.01648 0.07979 0.43618 0.0
C459 C 0.0254 0.05097 0.44176 0.0
H460 H 0.07012 0.33684 0.39137 0.0
H461 H 0.97717 0.32319 0.40628 0.0
H462 H 0.06324 0.38496 0.40762 0.0
H463 H 0.97017 0.37108 0.42121 0.0
H464 H 0.9597 0.45256 0.45739 0.0
H465 H 0.97484 0.40224 0.45291 0.0
H466 H 0.04519 0.43227 0.39303 0.0
H467 H 0.03084 0.48301 0.3991 0.0
C468 C 0.04831 0.34382 0.39858 0.0
C469 C 0.02419 0.32614 0.39742 0.0
C470 C 0.04431 0.37158 0.40758 0.0
C471 C 0.01612 0.38221 0.41561 0.0
C472 C 0.99229 0.36373 0.41568 0.0
C473 C 0.99629 0.33611 0.4069 0.0
C474 C 0.97876 0.44833 0.44366 0.0
C475 C 0.99398 0.47149 0.42839 0.0
C476 C 0.98735 0.41947 0.44089 0.0
C477 C 0.01083 0.41295 0.42209 0.0
C478 C 0.02709 0.43633 0.4078 0.0
C479 C 0.01886 0.46541 0.41112 0.0
H480 H 0.04494 0.81869 0.11296 0.0
H481 H 0.96072 0.8405 0.15308 0.0
H482 H 0.05202 0.86954 0.0956 0.0
H483 H 0.96776 0.89183 0.13537 0.0
H484 H 0.01352 0.98327 0.12846 0.0
H485 H 0.99929 0.93259 0.14219 0.0
H486 H 0.0353 0.90875 0.06525 0.0
H487 H 0.04979 0.95908 0.05165 0.0
C488 C 0.02765 0.83428 0.11772 0.0
C489 C 1.00224 0.82541 0.13444 0.0
C490 C 0.03169 0.86354 0.10765 0.0
C491 C 0.01052 0.88493 0.1141 0.0
C492 C 0.98464 0.87599 0.13019 0.0
C493 C 0.98047 0.84652 0.14012 0.0
C494 C 0.01813 0.96728 0.11437 0.0
C495 C 0.03308 0.97532 0.08902 0.0
C496 C 0.00982 0.9382 0.12221 0.0
C497 C 0.01634 0.91644 0.10492 0.0
C498 C 0.03032 0.92477 0.07925 0.0
C499 C 0.03854 0.95375 0.07141 0.0
H500 H 0.07248 0.67432 0.11606 0.0
H501 H 0.982 0.69728 0.11046 0.0
H502 H 0.06818 0.63356 0.08993 0.0
H503 H 0.97784 0.65656 0.08434 0.0
H504 H 0.98436 0.58901 0.02506 0.0
H505 H 0.99585 0.63499 0.04133 0.0
H506 H 0.03977 0.58692 0.10259 0.0
H507 H 0.02824 0.54115 0.08654 0.0
C508 C 0.05185 0.67105 0.10883 0.0
C509 C 0.02748 0.68885 0.11557 0.0
C510 C 0.04939 0.64764 0.09397 0.0
C511 C 0.02263 0.64179 0.08529 0.0
C512 C 0.99878 0.66067 0.09061 0.0
C513 C 1.00114 0.68389 0.10571 0.0
C514 C 0.99687 0.58833 0.04173 0.0
C515 C 1.00523 0.56148 0.05465 0.0
C516 C 1.00333 0.61461 0.05108 0.0
C517 C 0.01866 0.6145 0.07322 0.0
C518 C 0.02818 0.58771 0.08532 0.0
C519 C 0.0214 0.56148 0.07623 0.0
H520 H 0.36403 0.96439 0.16209 0.0
H521 H 0.38911 0.05262 0.16913 0.0
H522 H 0.38678 0.96896 0.11586 0.0
H523 H 0.41168 0.05717 0.12328 0.0
H524 H 0.38937 0.01016 0.02681 0.0
H525 H 0.37431 0.99822 0.07424 0.0
H526 H 0.45148 0.03942 0.09197 0.0
H527 H 0.46651 0.05149 0.04465 0.0
C528 C 0.37502 0.98446 0.154 0.0
C529 C 0.37476 1.00815 0.16927 0.0
C530 C 0.38776 0.9872 0.12745 0.0
C531 C 0.40088 0.0135 0.11581 0.0
C532 C 0.40199 0.03653 0.13162 0.0
C533 C 0.38897 0.03394 0.15793 0.0
C534 C 0.40327 0.01645 0.0408 0.0
C535 C 0.42902 0.03204 0.03187 0.0
C536 C 0.39474 1.00939 0.068 0.0
C537 C 0.41165 0.01794 0.08692 0.0
C538 C 0.43782 0.03277 0.07794 0.0
C539 C 0.44645 0.03963 0.05078 0.0
H540 H 0.63406 0.44398 0.19109 0.0
H541 H 0.65066 0.53648 0.17404 0.0
H542 H 0.6112 0.44488 0.15038 0.0
H543 H 0.62779 0.53723 0.13346 0.0
H544 H 0.55952 0.46061 0.07928 0.0
H545 H 0.57018 0.4658 0.1244 0.0
H546 H 0.64774 0.51401 0.09216 0.0
H547 H 0.63705 0.5089 0.04727 0.0
C548 C 0.63221 0.46462 0.17903 0.0
C549 C 0.64462 0.49004 0.18557 0.0
C550 C 0.61901 0.46514 0.15578 0.0
C551 C 0.61815 0.49105 0.13865 0.0
C552 C 0.62858 0.51689 0.14618 0.0
C553 C 0.64157 0.51643 0.16947 0.0
C554 C 0.57856 0.4727 0.08195 0.0
C555 C 0.59758 0.48426 0.0599 0.0
C556 C 0.58471 0.47553 0.10768 0.0
C557 C 0.60971 0.49036 0.11171 0.0
C558 C 0.62812 0.50279 0.08962 0.0
C559 C 0.62219 0.49963 0.06396 0.0
H560 H 0.39596 0.01525 0.27688 0.0
H561 H 0.35138 0.0963 0.29235 0.0
H562 H 0.42169 0.01721 0.31538 0.0
H563 H 0.37747 0.09839 0.3311 0.0
H564 H 0.4733 0.03027 0.38105 0.0
H565 H 0.45692 0.0421 0.33733 0.0
H566 H 0.37274 0.06836 0.37457 0.0
H567 H 0.38929 0.05709 0.4181 0.0
C568 C 0.39216 0.03388 0.28818 0.0
C569 C 0.37142 0.05549 0.28169 0.0
C570 C 0.40708 0.0351 0.31021 0.0
C571 C 0.40151 0.05785 0.32648 0.0
C572 C 0.38203 0.08042 0.3191 0.0
C573 C 0.36726 0.07935 0.2968 0.0
C574 C 0.45158 0.03932 0.37984 0.0
C575 C 0.43248 0.04245 0.40302 0.0
C576 C 0.44211 0.04588 0.35481 0.0
C577 C 0.41343 0.05593 0.35244 0.0
C578 C 0.39502 0.06087 0.37561 0.0
C579 C 0.40441 0.05414 0.40059 0.0
H580 H 0.66187 0.57825 0.29506 0.0
H581 H 0.65382 0.48476 0.31275 0.0
H582 H 0.63847 0.58475 0.33971 0.0
H583 H 0.63207 0.49099 0.35728 0.0
H584 H 0.57817 0.50668 0.43246 0.0
H585 H 0.59222 0.50508 0.38525 0.0
H586 H 0.64821 0.57917 0.38385 0.0
H587 H 0.63216 0.58238 0.43044 0.0
C588 C 0.655 0.55913 0.3084 0.0
C589 C 0.65972 0.53103 0.30026 0.0
C590 C 0.64179 0.56279 0.3341 0.0
C591 C 0.63336 0.5384 0.35236 0.0
C592 C 0.63759 0.5104 0.34384 0.0
C593 C 0.65035 0.5068 0.31817 0.0
C594 C 0.59296 0.52307 0.42204 0.0
C595 C 0.60424 0.54442 0.43561 0.0
C596 C 0.60142 0.52189 0.39489 0.0
C597 C 0.62178 0.54172 0.38057 0.0
C598 C 0.63235 0.56361 0.39397 0.0
C599 C 0.62353 0.56508 0.42099 0.0
H600 H 0.19509 0.39437 0.93915 0.0
H601 H 0.19348 0.38161 0.02436 0.0
H602 H 0.14931 0.42247 0.94436 0.0
H603 H 0.14786 0.4082 0.02957 0.0
H604 H 0.0777 0.47328 0.03709 0.0
H605 H 0.12652 0.45424 0.02548 0.0
H606 H 0.09776 0.41831 0.95835 0.0
H607 H 0.04888 0.4392 0.96939 0.0
C608 C 0.18512 0.39767 0.95895 0.0
C609 C 0.19819 0.38585 0.98131 0.0
C610 C 0.15872 0.41359 0.96196 0.0
C611 C 0.14477 0.41796 0.9874 0.0
C612 C 0.1581 0.40615 0.00961 0.0
C613 C 0.18438 0.39058 0.00661 0.0
C614 C 0.08196 0.46178 0.01954 0.0
C615 C 0.05949 0.45752 0.00425 0.0
C616 C 0.10993 0.45055 0.01299 0.0
C617 C 0.11612 0.43391 0.99136 0.0
C618 C 0.09395 0.431 0.97512 0.0
C619 C 0.0659 0.44291 0.98142 0.0
H620 H 0.23715 0.63171 0.49344 0.0
H621 H 0.23828 0.68725 0.41964 0.0
H622 H 0.19164 0.61016 0.48558 0.0
H623 H 0.19232 0.66599 0.41202 0.0
H624 H 0.09083 0.6564 0.44038 0.0
H625 H 0.14115 0.67123 0.43974 0.0
H626 H 0.16787 0.58098 0.45296 0.0
H627 H 0.1178 0.56578 0.45234 0.0
C628 C 0.22806 0.63871 0.47518 0.0
C629 C 0.24122 0.66111 0.45713 0.0
C630 C 0.20202 0.6264 0.4707 0.0
C631 C 0.18836 0.63666 0.44834 0.0
C632 C 0.20236 0.65788 0.42951 0.0
C633 C 0.22877 0.66979 0.43373 0.0
C634 C 0.10739 0.63958 0.44259 0.0
C635 C 0.09998 0.60983 0.44655 0.0
C636 C 0.13627 0.64814 0.44222 0.0
C637 C 0.15838 0.62723 0.44617 0.0
C638 C 0.15118 0.59753 0.44996 0.0
C639 C 0.12239 0.58891 0.44989 0.0
H640 H 0.83742 0.8684 0.5491 0.0
H641 H 0.83811 0.87583 0.46397 0.0
H642 H 0.88528 0.89169 0.54335 0.0
H643 H 0.88566 0.89763 0.45825 0.0
H644 H 0.96156 0.95392 0.44949 0.0
H645 H 0.91111 0.93942 0.46176 0.0
H646 H 0.93621 0.88349 0.52901 0.0
H647 H 0.98686 0.89975 0.51729 0.0
C648 C 0.8476 0.87518 0.52921 0.0
C649 C 0.83372 0.87034 0.50703 0.0
C650 C 0.87518 0.88831 0.5259 0.0
C651 C 0.8895 0.89683 0.50032 0.0
C652 C 0.87527 0.89218 0.4783 0.0
C653 C 0.84785 0.87938 0.4816 0.0
C654 C 0.95614 0.939 0.46723 0.0
C655 C 0.97802 0.92785 0.48239 0.0
C656 C 0.92724 0.93038 0.47415 0.0
C657 C 0.91947 0.90958 0.49602 0.0
C658 C 0.94123 0.89958 0.51209 0.0
C659 C 0.97026 0.9088 0.50541 0.0
H660 H 0.33127 0.6477 0.56917 0.0
H661 H 0.37228 0.66162 0.48822 0.0
H662 H 0.37453 0.62065 0.58178 0.0
H663 H 0.41558 0.63586 0.50086 0.0
H664 H 0.46966 0.60776 0.60002 0.0
H665 H 0.42332 0.62852 0.58857 0.0
H666 H 0.43722 0.59103 0.51389 0.0
H667 H 0.48417 0.57135 0.52495 0.0
C668 C 0.34941 0.64488 0.55404 0.0
C669 C 0.3482 0.65688 0.52768 0.0
C670 C 0.37436 0.62957 0.5613 0.0
C671 C 0.3988 0.62605 0.5424 0.0
C672 C 0.39718 0.63755 0.51596 0.0
C673 C 0.37226 0.65258 0.50871 0.0
C674 C 0.46277 0.60384 0.58119 0.0
C675 C 0.48079 0.58809 0.56331 0.0
C676 C 0.436 0.61558 0.57468 0.0
C677 C 0.42636 0.61167 0.5502 0.0
C678 C 0.44407 0.5951 0.53268 0.0
C679 C 0.47098 0.58363 0.53908 0.0
H680 H 0.45312 0.6749 0.88279 0.0
H681 H 0.53134 0.69178 0.91677 0.0
H682 H 0.46116 0.62231 0.89266 0.0
H683 H 0.53938 0.63956 0.92648 0.0
H684 H 0.51573 0.53562 0.87793 0.0
H685 H 0.49829 0.58648 0.87436 0.0
H686 H 0.52063 0.59506 0.95281 0.0
H687 H 0.53821 0.54487 0.95629 0.0
C688 C 0.47151 0.66745 0.8931 0.0
C689 C 0.49157 0.68755 0.89907 0.0
C690 C 0.47634 0.63731 0.89838 0.0
C691 C 0.50106 0.62671 0.9101 0.0
C692 C 0.52001 0.64691 0.9176 0.0
C693 C 0.51539 0.67692 0.91207 0.0
C694 C 0.51661 0.54831 0.89448 0.0
C695 C 0.52876 0.53624 0.91721 0.0
C696 C 0.50647 0.57738 0.89252 0.0
C697 C 0.50831 0.59491 0.91325 0.0
C698 C 0.51933 0.58236 0.93633 0.0
C699 C 0.52939 0.55349 0.93829 0.0
H700 H 0.56134 0.84056 0.90161 0.0
H701 H 0.46804 0.83389 0.9032 0.0
H702 H 0.55454 0.88794 0.91933 0.0
H703 H 0.46136 0.88113 0.91952 0.0
H704 H 0.44977 0.95823 0.96263 0.0
H705 H 0.46238 0.90811 0.95495 0.0
H706 H 0.54165 0.93755 0.90638 0.0
H707 H 0.52956 0.98792 0.91576 0.0
C708 C 0.53939 0.84899 0.90603 0.0
C709 C 0.51524 0.83331 0.90101 0.0
C710 C 0.5355 0.87632 0.91592 0.0
C711 C 0.50738 0.8886 0.92093 0.0
C712 C 0.48333 0.87237 0.91655 0.0
C713 C 0.48718 0.84513 0.90696 0.0
C714 C 0.47014 0.95389 0.95067 0.0
C715 C 0.48856 0.97688 0.93953 0.0
C716 C 0.4773 0.92515 0.94605 0.0
C717 C 0.50269 0.91864 0.92942 0.0
C718 C 0.52196 0.9416 0.91936 0.0
C719 C 0.51505 0.97049 0.9246 0.0
H720 H 0.46498 0.33236 0.65628 0.0
H721 H 0.54808 0.31173 0.61342 0.0
H722 H 0.47237 0.38419 0.64112 0.0
H723 H 0.55554 0.36327 0.59856 0.0
H724 H 0.55271 0.45672 0.56036 0.0
H725 H 0.5395 0.40552 0.5711 0.0
H726 H 0.50415 0.42305 0.65017 0.0
H727 H 0.5171 0.47441 0.63935 0.0
C728 C 0.48454 0.33875 0.64319 0.0
C729 C 0.50589 0.31773 0.63607 0.0
C730 C 0.48895 0.36855 0.63475 0.0
C731 C 0.51469 0.37809 0.61876 0.0
C732 C 0.53535 0.35687 0.61064 0.0
C733 C 0.53106 0.32719 0.61923 0.0
C734 C 0.54196 0.44977 0.58001 0.0
C735 C 0.53614 0.46983 0.59901 0.0
C736 C 0.53448 0.42028 0.58621 0.0
C737 C 0.5208 0.40997 0.61155 0.0
C738 C 0.51434 0.43018 0.63036 0.0
C739 C 0.52197 0.45966 0.6242 0.0
H740 H 0.5666 0.15851 0.62087 0.0
H741 H 0.47627 0.18486 0.62005 0.0
H742 H 0.5582 0.11683 0.59711 0.0
H743 H 0.46804 0.1432 0.59601 0.0
H744 H 0.47363 0.07778 0.53211 0.0
H745 H 0.48419 0.12231 0.55131 0.0
H746 H 0.52779 0.07069 0.61074 0.0
H747 H 0.51701 0.02625 0.59187 0.0
C748 C 0.54505 0.15568 0.6153 0.0
C749 C 0.52207 0.17498 0.62247 0.0
C750 C 0.54024 0.1317 0.60183 0.0
C751 C 0.51245 0.1267 0.59485 0.0
C752 C 0.48973 0.14662 0.60102 0.0
C753 C 0.49443 0.1704 0.61487 0.0
C754 C 0.48563 0.07597 0.54917 0.0
C755 C 0.49445 0.04848 0.5605 0.0
C756 C 0.49153 0.10144 0.56021 0.0
C757 C 0.50685 0.09995 0.58247 0.0
C758 C 0.51618 0.07253 0.59343 0.0
C759 C 0.50987 0.04707 0.5827 0.0
H760 H 0.89829 0.54879 0.6573 0.0
H761 H 0.8748 0.45964 0.65203 0.0
H762 H 0.91968 0.55304 0.61116 0.0
H763 H 0.89661 0.46382 0.60556 0.0
H764 H 0.89662 0.50152 0.51647 0.0
H765 H 0.88327 0.49045 0.56412 0.0
H766 H 0.95847 0.53724 0.57882 0.0
H767 H 0.97169 0.54864 0.53109 0.0
C768 C 0.89822 0.52985 0.64643 0.0
C769 C 0.8847 0.5039 0.65839 0.0
C770 C 0.91064 0.53226 0.61992 0.0
C771 C 0.90974 0.50886 0.6045 0.0
C772 C 0.89739 0.4824 0.61677 0.0
C773 C 0.88515 0.47989 0.64348 0.0
C774 C 0.91049 0.50925 0.52982 0.0
C775 C 0.93511 0.52622 0.51987 0.0
C776 C 0.90294 0.50268 0.55721 0.0
C777 C 0.91972 0.51301 0.57539 0.0
C778 C 0.94486 0.5292 0.56541 0.0
C779 C 0.9525 0.53566 0.53801 0.0
H780 H 0.11518 0.02276 0.69165 0.0
H781 H 0.16201 0.09939 0.65486 0.0
H782 H 0.08839 0.02316 0.65372 0.0
H783 H 0.13468 0.10017 0.61664 0.0
H784 H 0.04642 0.02072 0.58314 0.0
H785 H 0.05649 0.04312 0.62214 0.0
H786 H 0.1429 0.06518 0.58372 0.0
H787 H 0.13234 0.04408 0.54438 0.0
C788 C 0.1189 0.04038 0.67581 0.0
C789 C 0.14106 0.06063 0.67582 0.0
C790 C 0.10337 0.04078 0.65409 0.0
C791 C 0.10985 0.06137 0.63189 0.0
C792 C 0.12962 0.08375 0.6333 0.0
C793 C 0.14509 0.08344 0.65523 0.0
C794 C 0.06722 0.03118 0.58271 0.0
C795 C 0.08886 0.03005 0.56093 0.0
C796 C 0.07301 0.04392 0.60509 0.0
C797 C 0.10059 0.05561 0.60617 0.0
C798 C 0.12133 0.05659 0.58353 0.0
C799 C 0.1155 0.04397 0.56114 0.0
H800 H 0.87003 0.5884 0.78446 0.0
H801 H 0.90785 0.50412 0.7697 0.0
H802 H 0.89357 0.58662 0.82511 0.0
H803 H 0.93151 0.50257 0.80983 0.0
H804 H 0.92162 0.48796 0.90075 0.0
H805 H 0.90822 0.49539 0.85598 0.0
H806 H 0.94026 0.58361 0.84736 0.0
H807 H 0.95355 0.57613 0.89286 0.0
C808 C 0.88406 0.56995 0.78942 0.0
C809 C 0.88672 0.54621 0.77407 0.0
C810 C 0.89753 0.56893 0.81272 0.0
C811 C 0.91391 0.54417 0.82097 0.0
C812 C 0.9185 0.52165 0.80435 0.0
C813 C 0.90503 0.52261 0.78126 0.0
C814 C 0.92583 0.50898 0.88936 0.0
C815 C 0.93842 0.53153 0.90041 0.0
C816 C 0.91844 0.51315 0.86355 0.0
C817 C 0.92335 0.54004 0.848 0.0
C818 C 0.93617 0.56266 0.85889 0.0
C819 C 0.94391 0.55835 0.88481 0.0
H820 H 0.1668 0.9587 0.80308 0.0
H821 H 0.13427 0.04675 0.78733 0.0
H822 H 0.14874 0.95932 0.85024 0.0
H823 H 0.11628 0.04734 0.83412 0.0
H824 H 0.1534 0.99544 0.93294 0.0
H825 H 0.16438 0.98748 0.88612 0.0
H826 H 0.08073 0.02492 0.87086 0.0
H827 H 0.06994 0.03329 0.91745 0.0
C828 C 0.15513 0.97785 0.80955 0.0
C829 C 0.15195 1.00268 0.79152 0.0
C830 C 0.14509 0.97833 0.83657 0.0
C831 C 0.13126 1.00345 0.84592 0.0
C832 C 0.12663 0.02758 0.82756 0.0
C833 C 0.137 0.02726 0.80073 0.0
C834 C 0.13733 1.00186 0.91959 0.0
C835 C 0.11085 0.0151 0.92891 0.0
C836 C 0.14347 0.997 0.89285 0.0
C837 C 0.12339 1.00555 0.8748 0.0
C838 C 0.09668 0.01821 0.88425 0.0
C839 C 0.09043 0.02282 0.91099 0.0
H840 H 0.69498 0.88686 0.44185 0.0
H841 H 0.69196 0.88145 0.52711 0.0
H842 H 0.65017 0.91657 0.44431 0.0
H843 H 0.6472 0.9097 0.5297 0.0
H844 H 0.57601 0.97352 0.53244 0.0
H845 H 0.62554 0.95523 0.52237 0.0
H846 H 0.59885 0.91324 0.45756 0.0
H847 H 0.54947 0.93336 0.46692 0.0
C848 C 0.68493 0.89216 0.46107 0.0
C849 C 0.69722 0.88178 0.48426 0.0
C850 C 0.65909 0.90903 0.46252 0.0
C851 C 0.64489 0.91582 0.4872 0.0
C852 C 0.65762 0.90573 0.51023 0.0
C853 C 0.68338 0.88918 0.50876 0.0
C854 C 0.58102 0.9611 0.51555 0.0
C855 C 0.55903 0.95487 0.50042 0.0
C856 C 0.60934 0.95022 0.50995 0.0
C857 C 0.61624 0.93196 0.48957 0.0
C858 C 0.59454 0.92726 0.47334 0.0
C859 C 0.5662 0.93878 0.47864 0.0
H860 H 0.70134 0.18019 0.05572 0.0
H861 H 0.7433 0.13847 0.989 0.0
H862 H 0.65589 0.15544 0.05242 0.0
H863 H 0.69808 0.11404 0.98559 0.0
H864 H 0.57683 0.14903 1.00366 0.0
H865 H 0.62221 0.16399 0.01783 0.0
H866 H 0.66017 0.07908 0.00574 0.0
H867 H 0.61496 0.06434 0.99092 0.0
C868 C 0.70112 0.16506 0.0409 0.0
C869 C 0.72579 0.16145 0.02246 0.0
C870 C 0.67503 0.15114 0.03883 0.0
C871 C 0.67331 0.13313 0.01851 0.0
C872 C 0.69869 0.12767 1.00153 0.0
C873 C 0.72461 0.14176 1.00343 0.0
C874 C 0.59485 0.13355 0.00407 0.0
C875 C 0.59242 0.10562 0.9959 0.0
C876 C 0.6207 0.14196 0.01257 0.0
C877 C 0.64476 0.12268 0.01297 0.0
C878 C 0.64205 0.09445 0.00554 0.0
C879 C 0.61612 0.08598 0.99718 0.0
H880 H 0.33076 0.40047 0.96159 0.0
H881 H 0.35122 0.35851 0.03694 0.0
H882 H 0.38052 0.41777 0.95125 0.0
H883 H 0.40159 0.3757 0.02635 0.0
H884 H 0.48714 0.4313 0.99993 0.0
H885 H 0.43626 0.41849 0.01602 0.0
H886 H 0.42584 0.391 0.93954 0.0
H887 H 0.47595 0.40378 0.92356 0.0
C888 C 0.34576 0.39537 0.97621 0.0
C889 C 0.33698 0.37787 1.00001 0.0
C890 C 0.37443 0.40509 0.97016 0.0
C891 C 0.39531 0.39753 0.98766 0.0
C892 C 0.38609 0.38186 0.01239 0.0
C893 C 0.35718 0.3721 0.01851 0.0
C894 C 0.474 0.4223 0.98667 0.0
C895 C 0.4857 0.41875 0.96038 0.0
C896 C 0.44485 0.41496 0.99589 0.0
C897 C 0.42676 0.40419 0.97894 0.0
C898 C 0.43885 0.3999 0.95298 0.0
C899 C 0.46779 0.40704 0.94386 0.0
H900 H 0.87305 0.15075 0.9603 0.0
H901 H 0.86329 0.18395 0.0369 0.0
H902 H 0.91655 0.12289 0.97207 0.0
H903 H 0.90661 0.15767 0.04805 0.0
H904 H 0.96671 0.08847 0.07543 0.0
H905 H 0.92266 0.11061 0.06045 0.0
H906 H 0.96668 0.12552 0.98055 0.0
H907 H 0.01068 0.10169 0.99558 0.0
C908 C 0.88021 0.1522 0.97954 0.0
C909 C 0.86439 0.16924 0.99778 0.0
C910 C 0.9052 0.13636 0.98626 0.0
C911 C 0.91496 0.13751 0.01127 0.0
C912 C 0.89941 0.15528 0.02901 0.0
C913 C 0.87449 0.17062 0.02249 0.0
C914 C 0.96698 0.0963 0.05462 0.0
C915 C 0.99231 0.09367 0.03678 0.0
C916 C 0.94171 0.10922 0.04599 0.0
C917 C 0.94113 0.12061 0.01933 0.0
C918 C 0.96619 0.11699 1.0012 0.0
C919 C 0.99148 0.10347 0.00982 0.0
H920 H 0.07271 0.18086 0.31516 0.0
H921 H 0.03553 0.24761 0.26311 0.0
H922 H 0.07139 0.14609 0.28224 0.0
H923 H 0.03525 0.21363 0.22968 0.0
H924 H 1.00501 0.14172 0.18837 0.0
H925 H 1.00737 0.17251 0.22404 0.0
H926 H 0.08992 0.13233 0.23972 0.0
H927 H 0.08664 0.10052 0.20517 0.0
C928 C 0.06547 0.18832 0.29615 0.0
C929 C 0.05476 0.21687 0.29126 0.0
C930 C 0.0644 0.16843 0.2774 0.0
C931 C 0.05266 0.1769 0.25349 0.0
C932 C 0.04364 0.2061 0.24815 0.0
C933 C 0.04438 0.22577 0.26698 0.0
C934 C 0.02318 0.1389 0.19998 0.0
C935 C 0.0458 0.11899 0.19374 0.0
C936 C 0.02487 0.15691 0.22009 0.0
C937 C 0.04928 0.15548 0.23428 0.0
C938 C 0.07089 0.13415 0.22919 0.0
C939 C 0.06908 0.11602 0.20926 0.0
H940 H 0.03058 0.34181 0.29435 0.0
H941 H 0.94554 0.30865 0.28715 0.0
H942 H 0.029 0.37364 0.25335 0.0
H943 H 0.94381 0.34101 0.24616 0.0
H944 H 0.97385 0.36542 0.15747 0.0
H945 H 0.97176 0.3396 0.20172 0.0
H946 H 1.00436 0.41578 0.23056 0.0
H947 H 1.00627 0.44189 0.18597 0.0
C948 C 0.01129 0.34169 0.28425 0.0
C949 C 0.98832 0.32242 0.29378 0.0
C950 C 0.01035 0.36009 0.26083 0.0
C951 C 0.98647 0.35953 0.2464 0.0
C952 C 0.96273 0.3415 0.2567 0.0
C953 C 0.9636 0.32315 0.28025 0.0
C954 C 0.98039 0.37677 0.17328 0.0
C955 C 0.99001 0.40577 0.16832 0.0
C956 C 0.97903 0.36202 0.19865 0.0
C957 C 0.9874 0.37584 0.21969 0.0
C958 C 0.99774 0.40461 0.21468 0.0
C959 C 0.99901 0.41948 0.18919 0.0
H960 H 0.02173 0.75941 0.25667 0.0
H961 H 0.08538 0.81069 0.20358 0.0
H962 H 0.02522 0.79155 0.29093 0.0
H963 H 0.08803 0.84408 0.23751 0.0
H964 H 0.10013 0.88309 0.31525 0.0
H965 H 0.10161 0.851 0.28023 0.0
H966 H 1.00838 0.83967 0.29751 0.0
H967 H 1.00724 0.87005 0.33371 0.0
C968 C 0.03682 0.77744 0.2526 0.0
C969 C 0.05338 0.78272 0.22775 0.0
C970 C 0.0385 0.7961 0.272 0.0
C971 C 0.05626 0.82085 0.26668 0.0
C972 C 0.07413 0.8252 0.24221 0.0
C973 C 0.0728 0.80609 0.22287 0.0
C974 C 0.07996 0.87363 0.31162 0.0
C975 C 0.05364 0.87861 0.32763 0.0
C976 C 0.08079 0.85549 0.29135 0.0
C977 C 0.05525 0.84225 0.28647 0.0
C978 C 0.02863 0.84884 0.30131 0.0
C979 C 0.02785 0.86668 0.32178 0.0
H980 H 0.02625 0.66334 0.22771 0.0
H981 H 0.93789 0.69491 0.24499 0.0
H982 H 0.01965 0.62857 0.2672 0.0
H983 H 0.93143 0.66021 0.28502 0.0
H984 H 0.01115 0.60244 0.35722 0.0
H985 H 0.01583 0.63146 0.31429 0.0
H986 H 0.92826 0.60871 0.30353 0.0
H987 H 0.9234 0.57982 0.34694 0.0
C988 C 1.00528 0.66276 0.23983 0.0
C989 C 0.98266 0.68217 0.23317 0.0
C990 C 1.00157 0.64286 0.26264 0.0
C991 C 0.97514 0.64174 0.27958 0.0
C992 C 0.95204 0.66029 0.27238 0.0
C993 C 0.95576 0.68028 0.24945 0.0
C994 C 0.99297 0.60325 0.34561 0.0
C995 C 0.96691 0.58868 0.35561 0.0
C996 C 0.9957 0.61987 0.32085 0.0
C997 C 0.97242 0.62252 0.30532 0.0
C998 C 0.94653 0.60743 0.31504 0.0
C999 C 0.94385 0.59063 0.33983 0.0
H1000 H 0.23276 0.07993 0.19237 0.0
H1001 H 0.27878 1.00465 0.16361 0.0
H1002 H 0.19728 0.07652 0.16074 0.0
H1003 H 0.24379 1.00183 0.13167 0.0
H1004 H 0.17967 0.03897 0.06326 0.0
H1005 H 0.22104 0.04076 0.08941 0.0
H1006 H 0.16213 0.0266 0.16176 0.0
H1007 H 0.12149 0.02376 0.13623 0.0
C1008 C 0.23557 0.06305 0.17902 0.0
C1009 C 0.25825 0.04236 0.18068 0.0
C1010 C 0.21537 0.0611 0.16095 0.0
C1011 C 0.21799 0.03892 0.14383 0.0
C1012 C 0.24148 0.01919 0.14454 0.0
C1013 C 0.26127 0.02071 0.16297 0.0
C1014 C 0.17582 0.03525 0.0847 0.0
C1015 C 0.14732 0.03138 0.09766 0.0
C1016 C 0.19934 0.03664 0.09961 0.0
C1017 C 0.19443 0.03457 0.12751 0.0
C1018 C 0.16632 0.02887 0.14028 0.0
C1019 C 0.14313 0.02702 0.12558 0.0
H1020 H 0.78417 0.5601 0.17253 0.0
H1021 H 0.75628 0.47368 0.16209 0.0
H1022 H 0.82293 0.55727 0.13541 0.0
H1023 H 0.79432 0.47117 0.12509 0.0
H1024 H 0.89145 0.45898 0.09682 0.0
H1025 H 0.84721 0.46624 0.12609 0.0
H1026 H 0.83604 0.55215 0.0853 0.0
H1027 H 0.88125 0.54471 0.05544 0.0
C1028 C 0.78601 0.54073 0.16212 0.0
C1029 C 0.76748 0.51689 0.17064 0.0
C1030 C 0.80805 0.53922 0.14074 0.0
C1031 C 0.81188 0.51387 0.1275 0.0
C1032 C 0.79227 0.49081 0.13515 0.0
C1033 C 0.77046 0.49225 0.15644 0.0
C1034 C 0.87946 0.47935 0.09378 0.0
C1035 C 0.88984 0.5013 0.07384 0.0
C1036 C 0.85393 0.48344 0.11052 0.0
C1037 C 0.838 0.50973 0.10801 0.0
C1038 C 0.84795 0.53168 0.08772 0.0
C1039 C 0.87358 0.52736 0.07053 0.0
H1040 H 0.24741 0.03744 0.29958 0.0
H1041 H 0.27219 0.94614 0.30593 0.0
H1042 H 0.21236 0.02863 0.33907 0.0
H1043 H 0.23761 0.93743 0.34604 0.0
H1044 H 0.1443 0.92743 0.38891 0.0
H1045 H 0.1864 0.93518 0.35609 0.0
H1046 H 0.20304 0.01633 0.38665 0.0
H1047 H 0.15964 1.00864 0.41967 0.0
C1048 C 0.24559 0.01546 0.30953 0.0
C1049 C 0.26243 0.9924 0.29928 0.0
C1050 C 0.22564 0.0105 0.33245 0.0
C1051 C 0.22198 0.98232 0.34589 0.0
C1052 C 0.23945 0.95938 0.33605 0.0
C1053 C 0.25933 0.96433 0.31301 0.0
C1054 C 0.15712 0.9468 0.38898 0.0
C1055 C 0.14844 0.96758 0.40677 0.0
C1056 C 0.18155 0.95113 0.37018 0.0
C1057 C 0.19824 0.97645 0.36847 0.0
C1058 C 0.19048 0.99671 0.38717 0.0
C1059 C 0.16584 0.99223 0.40628 0.0
H1060 H 0.79531 0.47989 0.26422 0.0
H1061 H 0.72335 0.43557 0.31278 0.0
H1062 H 0.82294 0.47639 0.30238 0.0
H1063 H 0.75061 0.43315 0.35139 0.0
H1064 H 0.79372 0.50402 0.40275 0.0
H1065 H 0.76663 0.48544 0.36979 0.0
H1066 H 0.84258 0.43612 0.34155 0.0
H1067 H 0.86941 0.45399 0.37502 0.0
C1068 C 0.7859 0.4685 0.28288 0.0
C1069 C 0.75747 0.45776 0.28568 0.0
C1070 C 0.80163 0.4665 0.30465 0.0
C1071 C 0.78878 0.4545 0.32967 0.0
C1072 C 0.76094 0.44226 0.33218 0.0
C1073 C 0.74551 0.4435 0.31015 0.0
C1074 C 0.80419 0.48839 0.39011 0.0
C1075 C 0.83352 0.48035 0.39133 0.0
C1076 C 0.78874 0.47769 0.37141 0.0
C1077 C 0.80263 0.45935 0.35332 0.0
C1078 C 0.83144 0.45004 0.3555 0.0
C1079 C 0.84669 0.4602 0.37461 0.0
H1080 H 0.19999 0.26567 0.98187 0.0
H1081 H 0.21726 0.2523 0.06359 0.0
H1082 H 0.16659 0.22504 0.98965 0.0
H1083 H 0.18391 0.21089 0.0713 0.0
H1084 H 0.10142 0.15488 0.08106 0.0
H1085 H 0.13268 0.19761 0.07408 0.0
H1086 H 0.16797 0.17266 0.99729 0.0
H1087 H 0.13638 0.13027 0.00405 0.0
C1088 C 0.19673 0.25403 1.00157 0.0
C1089 C 0.21152 0.26228 0.02209 0.0
C1090 C 0.17762 0.23051 0.00597 0.0
C1091 C 0.17266 0.21442 0.03103 0.0
C1092 C 0.18701 0.22293 0.05177 0.0
C1093 C 0.20624 0.24659 0.04735 0.0
C1094 C 0.11562 0.15867 0.06254 0.0
C1095 C 0.11622 0.13916 0.04303 0.0
C1096 C 0.13378 0.18305 0.05867 0.0
C1097 C 0.15297 0.18864 0.03517 0.0
C1098 C 0.15324 0.16932 0.01552 0.0
C1099 C 0.13512 0.14492 0.0194 0.0
H1100 H 0.20179 0.76359 0.54393 0.0
H1101 H 0.22811 0.77532 0.45932 0.0
H1102 H 0.16004 0.79662 0.53796 0.0
H1103 H 0.18717 0.80817 0.45354 0.0
H1104 H 0.11565 0.88758 0.51531 0.0
H1105 H 0.15037 0.84859 0.52554 0.0
H1106 H 0.13464 0.80955 0.45544 0.0
H1107 H 0.10032 0.84895 0.44485 0.0
C1108 C 0.19874 0.77317 0.52413 0.0
C1109 C 0.21842 0.76681 0.50216 0.0
C1110 C 0.17484 0.79211 0.5207 0.0
C1111 C 0.17004 0.80487 0.49521 0.0
C1112 C 0.18972 0.79832 0.47337 0.0
C1113 C 0.2135 0.77963 0.47678 0.0
C1114 C 0.11918 0.87042 0.50228 0.0
C1115 C 0.10538 0.87161 0.47907 0.0
C1116 C 0.13905 0.84795 0.50825 0.0
C1117 C 0.14566 0.82612 0.49115 0.0
C1118 C 0.1305 0.82634 0.46879 0.0
C1119 C 0.11061 0.84881 0.46282 0.0
H1120 H 0.8286 0.77166 0.42693 0.0
H1121 H 0.80914 0.73811 0.5094 0.0
H1122 H 0.86162 0.72972 0.41969 0.0
H1123 H 0.8414 0.69637 0.50195 0.0
H1124 H 0.86579 0.60968 0.46394 0.0
H1125 H 0.83662 0.65385 0.46987 0.0
H1126 H 0.91204 0.70667 0.4414 0.0
H1127 H 0.94179 0.66209 0.43594 0.0
C1128 C 0.83133 0.75539 0.44343 0.0
C1129 C 0.81624 0.75815 0.46871 0.0
C1130 C 0.85033 0.7316 0.43934 0.0
C1131 C 0.85398 0.70996 0.46031 0.0
C1132 C 0.83892 0.71278 0.48549 0.0
C1133 C 0.82049 0.7367 0.4897 0.0
C1134 C 0.87626 0.63067 0.459 0.0
C1135 C 0.90612 0.63244 0.44958 0.0
C1136 C 0.85954 0.65591 0.46242 0.0
C1137 C 0.87211 0.68355 0.456 0.0
C1138 C 0.90189 0.68553 0.44633 0.0
C1139 C 0.91889 0.66011 0.44343 0.0
H1140 H 0.36585 0.78629 0.44152 0.0
H1141 H 0.34205 0.77518 0.52652 0.0
H1142 H 0.4006 0.824 0.44681 0.0
H1143 H 0.37604 0.81268 0.53164 0.0
H1144 H 0.42619 0.91558 0.47008 0.0
H1145 H 0.39929 0.87411 0.46006 0.0
H1146 H 0.42792 0.822 0.52781 0.0
H1147 H 0.4543 0.86362 0.53822 0.0
C1148 C 0.36802 0.79184 0.46126 0.0
C1149 C 0.35112 0.77774 0.48357 0.0
C1150 C 0.38786 0.81344 0.46429 0.0
C1151 C 0.39128 0.82114 0.48967 0.0
C1152 C 0.37445 0.80688 0.51186 0.0
C1153 C 0.35467 0.78551 0.50886 0.0
C1154 C 0.42714 0.89514 0.48261 0.0
C1155 C 0.44207 0.89302 0.50518 0.0
C1156 C 0.41182 0.87131 0.47676 0.0
C1157 C 0.41113 0.84489 0.49334 0.0
C1158 C 0.42756 0.84227 0.51495 0.0
C1159 C 0.44281 0.86608 0.52084 0.0
H1160 H 0.56835 0.68264 0.82921 0.0
H1161 H 0.53402 0.74449 0.77103 0.0
H1162 H 0.56787 0.64431 0.79946 0.0
H1163 H 0.53442 0.70685 0.74086 0.0
H1164 H 0.50329 0.63087 0.70615 0.0
H1165 H 0.5053 0.66471 0.73944 0.0
H1166 H 0.58761 0.62641 0.75813 0.0
H1167 H 0.58482 0.59168 0.72574 0.0
C1168 C 0.56198 0.68823 0.80955 0.0
C1169 C 0.5518 0.71645 0.80202 0.0
C1170 C 0.56136 0.6663 0.79264 0.0
C1171 C 0.55047 0.67237 0.76801 0.0
C1172 C 0.54213 0.70121 0.75997 0.0
C1173 C 0.5425 0.72294 0.77693 0.0
C1174 C 0.52128 0.62904 0.71799 0.0
C1175 C 0.54404 0.60886 0.71313 0.0
C1176 C 0.52278 0.6488 0.73671 0.0
C1177 C 0.5471 0.64885 0.75086 0.0
C1178 C 0.56869 0.62713 0.74748 0.0
C1179 C 0.56712 0.60728 0.72887 0.0
H1180 H 0.44183 0.80231 0.78764 0.0
H1181 H 0.52387 0.84204 0.79474 0.0
H1182 H 0.44074 0.82995 0.74412 0.0
H1183 H 0.52283 0.86937 0.75131 0.0
H1184 H 0.49855 0.93078 0.67988 0.0
H1185 H 0.49609 0.90804 0.72558 0.0
H1186 H 0.47106 0.82666 0.70045 0.0
H1187 H 0.47399 0.84909 0.65483 0.0
C1188 C 0.45934 0.81729 0.78014 0.0
C1189 C 0.48303 0.81983 0.79453 0.0
C1190 C 0.45885 0.83291 0.75515 0.0
C1191 C 0.48188 0.85156 0.74422 0.0
C1192 C 0.50473 0.85527 0.75925 0.0
C1193 C 0.50536 0.8395 0.78409 0.0
C1194 C 0.49291 0.90794 0.68405 0.0
C1195 C 0.48642 0.89178 0.66368 0.0
C1196 C 0.4913 0.89499 0.71024 0.0
C1197 C 0.48303 0.86568 0.71662 0.0
C1198 C 0.47684 0.84947 0.69624 0.0
C1199 C 0.47862 0.86232 0.67009 0.0
H1200 H 0.57846 0.316 0.68383 0.0
H1201 H 0.55614 0.25523 0.75321 0.0
H1202 H 0.57778 0.35598 0.71181 0.0
H1203 H 0.5564 0.29475 0.78144 0.0
H1204 H 0.51611 0.37097 0.8194 0.0
H1205 H 0.52159 0.33444 0.78801 0.0
H1206 H 0.5981 0.37834 0.74655 0.0
H1207 H 0.59176 0.41572 0.77728 0.0
C1208 C 0.57499 0.31107 0.70521 0.0
C1209 C 0.56792 0.28271 0.71661 0.0
C1210 C 0.57423 0.33393 0.7212 0.0
C1211 C 0.56629 0.32857 0.74874 0.0
C1212 C 0.56179 0.29964 0.76019 0.0
C1213 C 0.5623 0.27693 0.7442 0.0
C1214 C 0.53348 0.3734 0.80306 0.0
C1215 C 0.55367 0.39601 0.80093 0.0
C1216 C 0.53703 0.35213 0.78542 0.0
C1217 C 0.56088 0.35301 0.76539 0.0
C1218 C 0.57971 0.37691 0.76195 0.0
C1219 C 0.57607 0.39828 0.77953 0.0
H1220 H 0.44662 0.19368 0.75321 0.0
H1221 H 0.53716 0.16742 0.73985 0.0
H1222 H 0.44148 0.16337 0.79578 0.0
H1223 H 0.53192 0.13693 0.78214 0.0
H1224 H 0.51971 0.11502 0.87353 0.0
H1225 H 0.52536 0.14221 0.82944 0.0
H1226 H 0.44088 0.11302 0.81592 0.0
H1227 H 0.43507 0.0862 0.85998 0.0
C1228 C 0.46535 0.18122 0.75917 0.0
C1229 C 0.4923 0.18308 0.743 0.0
C1230 C 0.46239 0.16373 0.78359 0.0
C1231 C 0.48633 0.14771 0.79254 0.0
C1232 C 0.51312 0.14923 0.77613 0.0
C1233 C 0.51605 0.1666 0.75171 0.0
C1234 C 0.50248 0.11414 0.86106 0.0
C1235 C 0.47696 0.09836 0.87041 0.0
C1236 C 0.50573 0.1297 0.8357 0.0
C1237 C 0.4835 0.12999 0.81907 0.0
C1238 C 0.45826 0.11369 0.82826 0.0
C1239 C 0.45506 0.09807 0.85352 0.0
H1240 H 0.77322 0.58783 0.66259 0.0
H1241 H 0.7547 0.49705 0.68801 0.0
H1242 H 0.73726 0.58837 0.63116 0.0
H1243 H 0.71815 0.49779 0.6577 0.0
H1244 H 0.66355 0.49853 0.59156 0.0
H1245 H 0.70807 0.4995 0.61333 0.0
H1246 H 0.68681 0.58794 0.63089 0.0
H1247 H 0.64378 0.58712 0.60825 0.0
C1248 C 0.76124 0.56812 0.66168 0.0
C1249 C 0.76671 0.54249 0.67789 0.0
C1250 C 0.74065 0.56835 0.64364 0.0
C1251 C 0.72477 0.54304 0.64168 0.0
C1252 C 0.73034 0.5175 0.65803 0.0
C1253 C 0.7511 0.51719 0.67575 0.0
C1254 C 0.66913 0.51834 0.59937 0.0
C1255 C 0.6504 0.54269 0.59839 0.0
C1256 C 0.69432 0.51887 0.61217 0.0
C1257 C 0.70093 0.5437 0.62431 0.0
C1258 C 0.68285 0.56855 0.62169 0.0
C1259 C 0.65799 0.56802 0.60885 0.0
H1260 H 0.25353 0.9503 0.66304 0.0
H1261 H 0.2649 0.0437 0.64837 0.0
H1262 H 0.29329 0.94332 0.62801 0.0
H1263 H 0.30491 0.03669 0.61392 0.0
H1264 H 0.36929 0.01608 0.54342 0.0
H1265 H 0.32183 0.02071 0.57027 0.0
H1266 H 0.34533 0.94885 0.62555 0.0
H1267 H 0.39184 0.944 0.59892 0.0
C1268 C 0.26428 0.96934 0.6522 0.0
C1269 C 0.25625 0.99751 0.6588 0.0
C1270 C 0.28715 0.96536 0.63218 0.0
C1271 C 0.30253 0.98945 0.6183 0.0
C1272 C 0.29345 0.01767 0.62399 0.0
C1273 C 0.27062 0.02164 0.64398 0.0
C1274 C 0.36405 1.0011 0.56112 0.0
C1275 C 0.38447 0.9799 0.56913 0.0
C1276 C 0.33696 1.0038 0.57656 0.0
C1277 C 0.32973 0.98512 0.6001 0.0
C1278 C 0.34985 0.96332 0.60741 0.0
C1279 C 0.37677 0.96077 0.59219 0.0
H1280 H 0.76072 0.44797 0.7818 0.0
H1281 H 0.78504 0.53027 0.80561 0.0
H1282 H 0.72083 0.44406 0.81844 0.0
H1283 H 0.74566 0.52586 0.84252 0.0
H1284 H 0.67718 0.47806 0.91794 0.0
H1285 H 0.72364 0.48104 0.88814 0.0
H1286 H 0.67595 0.48971 0.82022 0.0
H1287 H 0.63028 0.48794 0.84918 0.0
C1288 C 0.75806 0.46478 0.79523 0.0
C1289 C 0.7758 0.48955 0.79066 0.0
C1290 C 0.73531 0.46253 0.81618 0.0
C1291 C 0.73039 0.48461 0.83331 0.0
C1292 C 0.74923 0.50844 0.82977 0.0
C1293 C 0.77157 0.51101 0.80852 0.0
C1294 C 0.67671 0.48134 0.89668 0.0
C1295 C 0.64994 0.48262 0.88604 0.0
C1296 C 0.70321 0.48274 0.87968 0.0
C1297 C 0.70317 0.48491 0.85196 0.0
C1298 C 0.67653 0.48746 0.8415 0.0
C1299 C 0.65036 0.48662 0.85823 0.0
H1300 H 0.27313 0.9932 0.76616 0.0
H1301 H 0.26024 0.08544 0.7734 0.0
H1302 H 0.29767 0.98781 0.80579 0.0
H1303 H 0.28586 0.08018 0.81277 0.0
H1304 H 0.29773 0.05597 0.8984 0.0
H1305 H 0.27385 0.05782 0.85816 0.0
H1306 H 0.34019 0.99973 0.82506 0.0
H1307 H 0.36349 0.99741 0.8656 0.0
C1308 C 0.27614 0.0125 0.7759 0.0
C1309 C 0.26443 0.03971 0.76688 0.0
C1310 C 0.29025 1.00936 0.79861 0.0
C1311 C 0.29311 0.03342 0.81272 0.0
C1312 C 0.28322 0.06107 0.80267 0.0
C1313 C 0.26898 0.06421 0.77991 0.0
C1314 C 0.30657 0.04293 0.88278 0.0
C1315 C 0.33226 0.02645 0.88501 0.0
C1316 C 0.29329 0.04438 0.85961 0.0
C1317 C 0.30561 0.02953 0.83821 0.0
C1318 C 0.33019 0.01142 0.84121 0.0
C1319 C 0.34336 1.00983 0.86449 0.0
H1320 H 0.69025 0.77095 0.57308 0.0
H1321 H 0.71261 0.74249 0.49526 0.0
H1322 H 0.65335 0.73295 0.58342 0.0
H1323 H 0.67742 0.70366 0.50587 0.0
H1324 H 0.59827 0.64886 0.52037 0.0
H1325 H 0.62914 0.69171 0.51136 0.0
H1326 H 0.6448 0.68355 0.59368 0.0
H1327 H 0.61234 0.64199 0.60282 0.0
C1328 C 0.68747 0.75636 0.55831 0.0
C1329 C 0.70419 0.75982 0.53333 0.0
C1330 C 0.66639 0.73444 0.56422 0.0
C1331 C 0.66197 0.71511 0.54544 0.0
C1332 C 0.67928 0.71846 0.52065 0.0
C1333 C 0.6998 0.74065 0.5146 0.0
C1334 C 0.60793 0.65662 0.53658 0.0
C1335 C 0.60283 0.64209 0.56227 0.0
C1336 C 0.62599 0.68102 0.53141 0.0
C1337 C 0.64013 0.69107 0.55165 0.0
C1338 C 0.63419 0.67693 0.57756 0.0
C1339 C 0.61557 0.65294 0.58283 0.0
H1340 H 0.70194 0.25206 0.9934 0.0
H1341 H 0.75207 0.28651 0.92026 0.0
H1342 H 0.66153 0.28442 0.98374 0.0
H1343 H 0.71141 0.32001 0.91077 0.0
H1344 H 0.62303 0.36614 0.89678 0.0
H1345 H 0.65962 0.32689 0.90132 0.0
H1346 H 0.65491 0.33604 0.98506 0.0
H1347 H 0.61846 0.37442 0.98067 0.0
C1348 C 0.70427 0.26656 0.97512 0.0
C1349 C 0.7304 0.26709 0.9578 0.0
C1350 C 0.68108 0.28522 0.96962 0.0
C1351 C 0.68339 0.30534 0.94679 0.0
C1352 C 0.70889 0.30477 0.92855 0.0
C1353 C 0.7322 0.28567 0.93397 0.0
C1354 C 0.62947 0.35932 0.91622 0.0
C1355 C 0.61766 0.37332 0.9384 0.0
C1356 C 0.65066 0.33707 0.91875 0.0
C1357 C 0.6602 0.32819 0.94355 0.0
C1358 C 0.6478 0.34186 0.96572 0.0
C1359 C 0.62689 0.36404 0.96318 0.0
H1360 H 0.3115 0.25953 0.92354 0.0
H1361 H 0.34994 0.28188 0.99156 0.0
H1362 H 0.34628 0.21865 0.91944 0.0
H1363 H 0.38436 0.24126 0.98757 0.0
H1364 H 0.45243 0.17047 0.96339 0.0
H1365 H 0.42593 0.2175 0.96002 0.0
H1366 H 0.3476 0.1727 0.95034 0.0
H1367 H 0.37336 0.12647 0.9539 0.0
C1368 C 0.32775 0.25612 0.93719 0.0
C1369 C 0.32771 0.27352 0.9581 0.0
C1370 C 0.34755 0.2327 0.93497 0.0
C1371 C 0.36782 0.22659 0.95341 0.0
C1372 C 0.36914 0.24543 0.97303 0.0
C1373 C 0.34921 0.26854 0.97542 0.0
C1374 C 0.42953 0.17077 0.96072 0.0
C1375 C 0.41509 0.14466 0.959 0.0
C1376 C 0.41442 0.19763 0.95862 0.0
C1377 C 0.38482 0.19878 0.95437 0.0
C1378 C 0.37053 0.17266 0.95288 0.0
C1379 C 0.38536 0.14604 0.95528 0.0
H1380 H 0.85275 0.29145 0.97411 0.0
H1381 H 0.82424 0.29212 0.05792 0.0
H1382 H 0.88693 0.33012 0.97607 0.0
H1383 H 0.85832 0.33143 0.05972 0.0
H1384 H 0.94358 0.37982 0.05862 0.0
H1385 H 0.91127 0.33947 0.05594 0.0
H1386 H 0.88665 0.38183 0.98214 0.0
H1387 H 0.91926 0.42195 0.98454 0.0
C1388 C 0.85361 0.29998 0.99297 0.0
C1389 C 0.8357 0.28868 0.01589 0.0
C1390 C 0.87318 0.32226 0.99402 0.0
C1391 C 0.87537 0.33382 0.01803 0.0
C1392 C 0.85739 0.32268 0.04098 0.0
C1393 C 0.8377 0.30035 0.03992 0.0
C1394 C 0.9316 0.38033 0.04161 0.0
C1395 C 0.93403 0.4041 0.02176 0.0
C1396 C 0.91285 0.35736 0.04025 0.0
C1397 C 0.8962 0.3576 0.01897 0.0
C1398 C 0.89934 0.3809 0.9987 0.0
C1399 C 0.91803 0.40391 1.00008 0.0
loop_
_geom_bond_atom_site_label_1
_geom_bond_atom_site_label_2
_geom_bond_distance
_geom_bond_site_symmetry_2
_ccdc_geom_bond_type
C0 O2 1.247 . S
C0 O4 1.258 1_455 S
C1 O8 1.247 . S
C1 O9 1.258 1_655 S
O2 C0 1.247 . S
O2 Zn3 2.028 . S
Zn3 O2 2.028 . S
Zn3 O7 2.035 . S
Zn3 O9 2.035 . S
Zn3 O10 2.028 . S
O4 C0 1.258 1_655 S
O4 Zn5 2.035 . S
Zn5 O4 2.035 . S
Zn5 O6 2.028 . S
Zn5 O8 2.028 . S
Zn5 O11 2.035 . S
O6 Zn5 2.028 . S
O6 C12 1.247 . S
O7 Zn3 2.035 . S
O7 C12 1.258 1_455 S
O8 C1 1.247 . S
O8 Zn5 2.028 . S
O9 C1 1.258 1_455 S
O9 Zn3 2.035 . S
O10 Zn3 2.028 . S
O10 C13 1.247 . S
O11 Zn5 2.035 . S
O11 C13 1.258 1_655 S
C12 O6 1.247 . S
C12 O7 1.258 1_655 S
C13 O10 1.247 . S
C13 O11 1.258 1_455 S
C14 O16 1.247 . S
C14 O18 1.258 1_455 S
C15 O22 1.247 . S
C15 O23 1.258 1_655 S
O16 C14 1.247 . S
O16 Zn17 2.028 . S
Zn17 O16 2.028 . S
Zn17 O21 2.035 . S
Zn17 O23 2.035 . S
Zn17 O24 2.028 . S
O18 C14 1.258 1_655 S
O18 Zn19 2.035 . S
Zn19 O18 2.035 . S
Zn19 O20 2.028 . S
Zn19 O22 2.028 . S
Zn19 O25 2.035 . S
O20 Zn19 2.028 . S
O20 C26 1.247 . S
O21 Zn17 2.035 . S
O21 C26 1.258 1_455 S
O22 C15 1.247 . S
O22 Zn19 2.028 . S
O23 C15 1.258 1_455 S
O23 Zn17 2.035 . S
O24 Zn17 2.028 . S
O24 C27 1.247 . S
O25 Zn19 2.035 . S
O25 C27 1.258 1_655 S
C26 O20 1.247 . S
C26 O21 1.258 1_655 S
C27 O24 1.247 . S
C27 O25 1.258 1_455 S
C28 O30 1.247 1_545 S
C28 O32 1.258 . S
C29 O36 1.247 . S
C29 O37 1.258 1_545 S
O30 C28 1.247 1_565 S
O30 Zn31 2.028 . S
Zn31 O30 2.028 . S
Zn31 O35 2.035 . S
Zn31 O37 2.035 . S
Zn31 O38 2.028 . S
O32 C28 1.258 . S
O32 Zn33 2.035 . S
Zn33 O32 2.035 . S
Zn33 O34 2.028 . S
Zn33 O36 2.028 . S
Zn33 O39 2.035 . S
O34 Zn33 2.028 . S
O34 C40 1.247 . S
O35 Zn31 2.035 . S
O35 C40 1.258 1_565 S
O36 C29 1.247 . S
O36 Zn33 2.028 . S
O37 C29 1.258 1_565 S
O37 Zn31 2.035 . S
O38 Zn31 2.028 . S
O38 C41 1.247 1_565 S
O39 Zn33 2.035 . S
O39 C41 1.258 . S
C40 O34 1.247 . S
C40 O35 1.258 1_545 S
C41 O38 1.247 1_545 S
C41 O39 1.258 . S
C42 O44 1.247 . S
C42 O46 1.258 . S
C43 O50 1.247 . S
C43 O51 1.258 . S
O44 C42 1.247 . S
O44 Zn45 2.028 . S
Zn45 O44 2.028 . S
Zn45 O49 2.035 . S
Zn45 O51 2.035 . S
Zn45 O52 2.028 . S
O46 C42 1.258 . S
O46 Zn47 2.035 . S
Zn47 O46 2.035 . S
Zn47 O48 2.028 . S
Zn47 O50 2.028 . S
Zn47 O53 2.035 . S
O48 Zn47 2.028 . S
O48 C54 1.247 . S
O49 Zn45 2.035 . S
O49 C54 1.258 . S
O50 C43 1.247 . S
O50 Zn47 2.028 . S
O51 C43 1.258 . S
O51 Zn45 2.035 . S
O52 Zn45 2.028 . S
O52 C55 1.247 . S
O53 Zn47 2.035 . S
O53 C55 1.258 . S
C54 O48 1.247 . S
C54 O49 1.258 . S
C55 O52 1.247 . S
C55 O53 1.258 . S
C56 O58 1.247 1_554 S
C56 O60 1.258 . S
C57 O64 1.247 1_556 S
C57 O65 1.258 . S
O58 C56 1.247 1_556 S
O58 Zn59 2.028 . S
Zn59 O58 2.028 . S
Zn59 O63 2.035 . S
Zn59 O65 2.035 . S
Zn59 O66 2.028 . S
O60 C56 1.258 . S
O60 Zn61 2.035 . S
Zn61 O60 2.035 . S
Zn61 O62 2.028 . S
Zn61 O64 2.028 . S
Zn61 O67 2.035 . S
O62 Zn61 2.028 . S
O62 C68 1.247 1_554 S
O63 Zn59 2.035 . S
O63 C68 1.258 . S
O64 C57 1.247 1_554 S
O64 Zn61 2.028 . S
O65 C57 1.258 . S
O65 Zn59 2.035 . S
O66 Zn59 2.028 . S
O66 C69 1.247 1_556 S
O67 Zn61 2.035 . S
O67 C69 1.258 . S
C68 O62 1.247 1_556 S
C68 O63 1.258 . S
C69 O66 1.247 1_554 S
C69 O67 1.258 . S
C70 O72 1.247 . S
C70 O74 1.258 . S
C71 O78 1.247 . S
C71 O79 1.258 . S
O72 C70 1.247 . S
O72 Zn73 2.028 . S
Zn73 O72 2.028 . S
Zn73 O77 2.035 . S
Zn73 O79 2.035 . S
Zn73 O80 2.028 . S
O74 C70 1.258 . S
O74 Zn75 2.035 . S
Zn75 O74 2.035 . S
Zn75 O76 2.028 . S
Zn75 O78 2.028 . S
Zn75 O81 2.035 . S
O76 Zn75 2.028 . S
O76 C82 1.247 . S
O77 Zn73 2.035 . S
O77 C82 1.258 . S
O78 C71 1.247 . S
O78 Zn75 2.028 . S
O79 C71 1.258 . S
O79 Zn73 2.035 . S
O80 Zn73 2.028 . S
O80 C83 1.247 . S
O81 Zn75 2.035 . S
O81 C83 1.258 . S
C82 O76 1.247 . S
C82 O77 1.258 . S
C83 O80 1.247 . S
C83 O81 1.258 . S
C84 O86 1.247 . S
C84 O88 1.258 . S
C85 O92 1.247 . S
C85 O93 1.258 . S
O86 C84 1.247 . S
O86 Zn87 2.028 . S
Zn87 O86 2.028 . S
Zn87 O91 2.035 . S
Zn87 O93 2.035 . S
Zn87 O94 2.028 . S
O88 C84 1.258 . S
O88 Zn89 2.035 . S
Zn89 O88 2.035 . S
Zn89 O90 2.028 . S
Zn89 O92 2.028 . S
Zn89 O95 2.035 . S
O90 Zn89 2.028 . S
O90 C96 1.247 . S
O91 Zn87 2.035 . S
O91 C96 1.258 . S
O92 C85 1.247 . S
O92 Zn89 2.028 . S
O93 C85 1.258 . S
O93 Zn87 2.035 . S
O94 Zn87 2.028 . S
O94 C97 1.247 . S
O95 Zn89 2.035 . S
O95 C97 1.258 . S
C96 O90 1.247 . S
C96 O91 1.258 . S
C97 O94 1.247 . S
C97 O95 1.258 . S
C98 O100 1.247 . S
C98 O102 1.258 . S
C99 O106 1.247 . S
C99 O107 1.258 . S
O100 C98 1.247 . S
O100 Zn101 2.028 . S
Zn101 O100 2.028 . S
Zn101 O105 2.035 . S
Zn101 O107 2.035 . S
Zn101 O108 2.028 . S
O102 C98 1.258 . S
O102 Zn103 2.035 . S
Zn103 O102 2.035 . S
Zn103 O104 2.028 . S
Zn103 O106 2.028 . S
Zn103 O109 2.035 . S
O104 Zn103 2.028 . S
O104 C110 1.247 . S
O105 Zn101 2.035 . S
O105 C110 1.258 . S
O106 C99 1.247 . S
O106 Zn103 2.028 . S
O107 C99 1.258 . S
O107 Zn101 2.035 . S
O108 Zn101 2.028 . S
O108 C111 1.247 . S
O109 Zn103 2.035 . S
O109 C111 1.258 . S
C110 O104 1.247 . S
C110 O105 1.258 . S
C111 O108 1.247 . S
C111 O109 1.258 . S
C112 O114 1.247 . S
C112 O116 1.258 . S
C113 O120 1.247 . S
C113 O121 1.258 . S
O114 C112 1.247 . S
O114 Zn115 2.028 . S
Zn115 O114 2.028 . S
Zn115 O119 2.035 . S
Zn115 O121 2.035 . S
Zn115 O122 2.028 . S
O116 C112 1.258 . S
O116 Zn117 2.035 . S
Zn117 O116 2.035 . S
Zn117 O118 2.028 . S
Zn117 O120 2.028 . S
Zn117 O123 2.035 . S
O118 Zn117 2.028 . S
O118 C124 1.247 . S
O119 Zn115 2.035 . S
O119 C124 1.258 . S
O120 C113 1.247 . S
O120 Zn117 2.028 . S
O121 C113 1.258 . S
O121 Zn115 2.035 . S
O122 Zn115 2.028 . S
O122 C125 1.247 . S
O123 Zn117 2.035 . S
O123 C125 1.258 . S
C124 O118 1.247 . S
C124 O119 1.258 . S
C125 O122 1.247 . S
C125 O123 1.258 . S
C126 O128 1.247 . S
C126 O130 1.258 . S
C127 O134 1.247 . S
C127 O135 1.258 . S
O128 C126 1.247 . S
O128 Zn129 2.028 . S
Zn129 O128 2.028 . S
Zn129 O133 2.035 . S
Zn129 O135 2.035 . S
Zn129 O136 2.028 . S
O130 C126 1.258 . S
O130 Zn131 2.035 . S
Zn131 O130 2.035 . S
Zn131 O132 2.028 . S
Zn131 O134 2.028 . S
Zn131 O137 2.035 . S
O132 Zn131 2.028 . S
O132 C138 1.247 . S
O133 Zn129 2.035 . S
O133 C138 1.258 . S
O134 C127 1.247 . S
O134 Zn131 2.028 . S
O135 C127 1.258 . S
O135 Zn129 2.035 . S
O136 Zn129 2.028 . S
O136 C139 1.247 . S
O137 Zn131 2.035 . S
O137 C139 1.258 . S
C138 O132 1.247 . S
C138 O133 1.258 . S
C139 O136 1.247 . S
C139 O137 1.258 . S
C140 O142 1.247 . S
C140 O144 1.258 1_565 S
C141 O148 1.247 . S
C141 O149 1.258 1_545 S
O142 C140 1.247 . S
O142 Zn143 2.028 . S
Zn143 O142 2.028 . S
Zn143 O147 2.035 . S
Zn143 O149 2.035 . S
Zn143 O150 2.028 . S
O144 C140 1.258 1_545 S
O144 Zn145 2.035 . S
Zn145 O144 2.035 . S
Zn145 O146 2.028 . S
Zn145 O148 2.028 . S
Zn145 O151 2.035 . S
O146 Zn145 2.028 . S
O146 C152 1.247 . S
O147 Zn143 2.035 . S
O147 C152 1.258 1_565 S
O148 C141 1.247 . S
O148 Zn145 2.028 . S
O149 C141 1.258 1_565 S
O149 Zn143 2.035 . S
O150 Zn143 2.028 . S
O150 C153 1.247 . S
O151 Zn145 2.035 . S
O151 C153 1.258 1_545 S
C152 O146 1.247 . S
C152 O147 1.258 1_545 S
C153 O150 1.247 . S
C153 O151 1.258 1_565 S
C154 O156 1.247 . S
C154 O158 1.258 1_554 S
C155 O162 1.247 1_554 S
C155 O163 1.258 . S
O156 C154 1.247 . S
O156 Zn157 2.028 . S
Zn157 O156 2.028 . S
Zn157 O161 2.035 . S
Zn157 O163 2.035 . S
Zn157 O164 2.028 . S
O158 C154 1.258 1_556 S
O158 Zn159 2.035 . S
Zn159 O158 2.035 . S
Zn159 O160 2.028 . S
Zn159 O162 2.028 . S
Zn159 O165 2.035 . S
O160 Zn159 2.028 . S
O160 C166 1.247 1_556 S
O161 Zn157 2.035 . S
O161 C166 1.258 . S
O162 C155 1.247 1_556 S
O162 Zn159 2.028 . S
O163 C155 1.258 . S
O163 Zn157 2.035 . S
O164 Zn157 2.028 . S
O164 C167 1.218 1_554 S
O165 Zn159 2.035 . S
O165 C167 1.280 . S
C166 O160 1.247 1_554 S
C166 O161 1.258 . S
C167 O164 1.218 1_556 S
C167 O165 1.280 . S
C168 O184 1.251 . S
C168 O186 1.254 . S
N169 C170 1.333 . S
N169 C174 1.307 . S
N169 Zn175 2.020 1_556 S
C170 N169 1.333 . S
C170 C171 1.379 . S
C170 H188 0.952 1_556 S
C171 C170 1.379 . S
C171 C172 1.390 . S
C171 H198 0.949 . S
C172 C171 1.390 . S
C172 C173 1.357 . S
C173 C172 1.357 . S
C173 C174 1.370 . S
C173 H199 0.950 1_545 S
C174 N169 1.307 . S
C174 C173 1.370 . S
C174 H192 0.948 . S
Zn175 N169 2.020 1_554 S
Zn175 O184 2.039 . S
Zn175 O190 2.034 . S
Zn175 O194 2.025 . S
Zn175 O196 2.024 . S
C176 O195 1.246 . S
C176 O196 1.249 . S
N177 C178 1.307 . S
N177 C179 1.344 . S
N177 Zn183 2.020 . S
C178 N177 1.307 . S
C178 C182 1.370 . S
C178 H189 0.948 . S
C179 N177 1.344 . S
C179 C180 1.376 1_455 S
C179 H187 0.943 1_455 S
C180 C179 1.376 1_655 S
C180 C181 1.390 1_655 S
C180 H200 0.949 . S
C181 C180 1.390 1_455 S
C181 C182 1.357 . S
C182 C178 1.370 . S
C182 C181 1.357 . S
C182 H201 0.950 . S
Zn183 N177 2.020 . S
Zn183 O186 2.025 . S
Zn183 O191 2.024 . S
Zn183 O193 2.039 . S
Zn183 O195 2.034 . S
O184 C168 1.251 . S
O184 Zn175 2.039 . S
C185 O190 1.246 . S
C185 O191 1.249 . S
O186 C168 1.254 . S
O186 Zn183 2.025 . S
H187 C179 0.943 1_655 S
H188 C170 0.952 1_554 S
H189 C178 0.948 . S
O190 Zn175 2.034 . S
O190 C185 1.246 . S
O191 Zn183 2.024 . S
O191 C185 1.249 . S
H192 C174 0.948 . S
O193 Zn183 2.039 . S
O193 C197 1.251 . S
O194 Zn175 2.025 . S
O194 C197 1.254 . S
O195 C176 1.246 . S
O195 Zn183 2.034 . S
O196 Zn175 2.024 . S
O196 C176 1.249 . S
C197 O193 1.251 . S
C197 O194 1.254 . S
H198 C171 0.949 . S
H199 C173 0.950 1_565 S
H200 C180 0.949 . S
H201 C182 0.950 . S
C202 O218 1.251 . S
C202 O220 1.254 . S
N203 C204 1.333 . S
N203 C208 1.307 . S
N203 Zn209 2.020 1_556 S
C204 N203 1.333 . S
C204 C205 1.379 . S
C204 H222 0.952 . S
C205 C204 1.379 . S
C205 C206 1.390 . S
C205 H232 0.949 . S
C206 C205 1.390 . S
C206 C207 1.357 . S
C207 C206 1.357 . S
C207 C208 1.370 . S
C207 H233 0.950 . S
C208 N203 1.307 . S
C208 C207 1.370 . S
C208 H226 0.948 . S
Zn209 N203 2.020 1_554 S
Zn209 O218 2.039 . S
Zn209 O224 2.034 . S
Zn209 O228 2.025 1_655 S
Zn209 O230 2.024 . S
C210 O229 1.246 . S
C210 O230 1.249 . S
N211 C212 1.307 . S
N211 C213 1.333 1_655 S
N211 Zn217 2.020 . S
C212 N211 1.307 . S
C212 C216 1.370 . S
C212 H223 0.948 . S
C213 N211 1.333 1_455 S
C213 C214 1.379 . S
C213 H221 0.952 . S
C214 C213 1.379 . S
C214 C215 1.390 . S
C214 H234 0.949 . S
C215 C214 1.390 . S
C215 C216 1.357 1_455 S
C216 C212 1.370 . S
C216 C215 1.357 1_655 S
C216 H235 0.950 . S
Zn217 N211 2.020 . S
Zn217 O220 2.025 . S
Zn217 O225 2.024 . S
Zn217 O227 2.039 1_655 S
Zn217 O229 2.034 . S
O218 C202 1.251 . S
O218 Zn209 2.039 . S
C219 O224 1.246 . S
C219 O225 1.249 . S
O220 C202 1.254 . S
O220 Zn217 2.025 . S
H221 C213 0.952 . S
H222 C204 0.952 . S
H223 C212 0.948 . S
O224 Zn209 2.034 . S
O224 C219 1.246 . S
O225 Zn217 2.024 . S
O225 C219 1.249 . S
H226 C208 0.948 . S
O227 Zn217 2.039 1_455 S
O227 C231 1.251 . S
O228 Zn209 2.025 1_455 S
O228 C231 1.254 . S
O229 C210 1.246 . S
O229 Zn217 2.034 . S
O230 Zn209 2.024 . S
O230 C210 1.249 . S
C231 O227 1.251 . S
C231 O228 1.254 . S
H232 C205 0.949 . S
H233 C207 0.950 . S
H234 C214 0.949 . S
H235 C216 0.950 . S
C236 O252 1.251 . S
C236 O254 1.254 . S
N237 C238 1.333 . S
N237 C242 1.307 . S
N237 Zn243 2.020 . S
C238 N237 1.333 . S
C238 C239 1.379 . S
C238 H256 0.952 . S
C239 C238 1.379 . S
C239 C240 1.390 . S
C239 H266 0.949 1_455 S
C240 C239 1.390 . S
C240 C241 1.357 . S
C241 C240 1.357 . S
C241 C242 1.370 . S
C241 H267 0.950 . S
C242 N237 1.307 . S
C242 C241 1.370 . S
C242 H260 0.948 . S
Zn243 N237 2.020 . S
Zn243 O252 2.039 . S
Zn243 O258 2.034 . S
Zn243 O262 2.025 . S
Zn243 O264 2.024 . S
C244 O263 1.246 . S
C244 O264 1.249 . S
N245 C246 1.307 . S
N245 C247 1.333 . S
N245 Zn251 2.020 . S
C246 N245 1.307 . S
C246 C250 1.370 1_565 S
C246 H257 0.948 1_565 S
C247 N245 1.333 . S
C247 C248 1.379 . S
C247 H255 0.952 . S
C248 C247 1.379 . S
C248 C249 1.396 . S
C248 H268 0.949 . S
C249 C248 1.396 . S
C249 C250 1.355 1_565 S
C250 C246 1.370 1_545 S
C250 C249 1.355 1_545 S
C250 H269 0.950 . S
Zn251 N245 2.020 . S
Zn251 O254 2.025 . S
Zn251 O259 2.024 . S
Zn251 O261 2.039 . S
Zn251 O263 2.034 . S
O252 C236 1.251 . S
O252 Zn243 2.039 . S
C253 O258 1.246 . S
C253 O259 1.249 . S
O254 C236 1.254 . S
O254 Zn251 2.025 . S
H255 C247 0.952 . S
H256 C238 0.952 . S
H257 C246 0.948 1_545 S
O258 Zn243 2.034 . S
O258 C253 1.246 . S
O259 Zn251 2.024 . S
O259 C253 1.249 . S
H260 C242 0.948 . S
O261 Zn251 2.039 . S
O261 C265 1.251 . S
O262 Zn243 2.025 . S
O262 C265 1.254 . S
O263 C244 1.246 . S
O263 Zn251 2.034 . S
O264 Zn243 2.024 . S
O264 C244 1.249 . S
C265 O261 1.251 . S
C265 O262 1.254 . S
H266 C239 0.949 1_655 S
H267 C241 0.950 . S
H268 C248 0.949 . S
H269 C250 0.950 . S
C270 O286 1.251 . S
C270 O288 1.254 . S
N271 C272 1.333 . S
N271 C276 1.307 . S
N271 Zn277 2.020 1_455 S
C272 N271 1.333 . S
C272 C273 1.379 . S
C272 H290 0.952 . S
C273 C272 1.379 . S
C273 C274 1.390 . S
C273 H300 0.949 . S
C274 C273 1.390 . S
C274 C275 1.357 . S
C275 C274 1.357 . S
C275 C276 1.370 . S
C275 H301 0.950 . S
C276 N271 1.307 . S
C276 C275 1.370 . S
C276 H294 0.948 . S
Zn277 N271 2.020 1_655 S
Zn277 O286 2.039 . S
Zn277 O292 2.034 . S
Zn277 O296 2.025 . S
Zn277 O298 2.024 . S
C278 O297 1.246 . S
C278 O298 1.249 . S
N279 C280 1.307 . S
N279 C281 1.333 . S
N279 Zn285 2.020 . S
C280 N279 1.307 . S
C280 C284 1.370 . S
C280 H291 0.948 . S
C281 N279 1.333 . S
C281 C282 1.379 . S
C281 H289 0.952 . S
C282 C281 1.379 . S
C282 C283 1.390 . S
C282 H302 0.949 . S
C283 C282 1.390 . S
C283 C284 1.357 . S
C284 C280 1.370 . S
C284 C283 1.357 . S
C284 H303 0.950 . S
Zn285 N279 2.020 . S
Zn285 O288 2.025 . S
Zn285 O293 2.024 . S
Zn285 O295 2.039 . S
Zn285 O297 2.034 . S
O286 C270 1.251 . S
O286 Zn277 2.039 . S
C287 O292 1.246 . S
C287 O293 1.249 . S
O288 C270 1.254 . S
O288 Zn285 2.025 . S
H289 C281 0.952 . S
H290 C272 0.952 . S
H291 C280 0.948 . S
O292 Zn277 2.034 . S
O292 C287 1.246 . S
O293 Zn285 2.024 . S
O293 C287 1.249 . S
H294 C276 0.948 . S
O295 Zn285 2.039 . S
O295 C299 1.251 . S
O296 Zn277 2.025 . S
O296 C299 1.254 . S
O297 C278 1.246 . S
O297 Zn285 2.034 . S
O298 Zn277 2.024 . S
O298 C278 1.249 . S
C299 O295 1.251 . S
C299 O296 1.254 . S
H300 C273 0.949 . S
H301 C275 0.950 . S
H302 C282 0.949 . S
H303 C284 0.950 . S
C304 O320 1.251 . S
C304 O322 1.254 . S
N305 C306 1.333 1_565 S
N305 C310 1.307 1_565 S
N305 Zn311 2.020 . S
C306 N305 1.333 1_545 S
C306 C307 1.379 . S
C306 H324 0.952 1_545 S
C307 C306 1.379 . S
C307 C308 1.390 . S
C307 H334 0.949 . S
C308 C307 1.390 . S
C308 C309 1.357 . S
C309 C308 1.357 . S
C309 C310 1.370 . S
C309 H335 0.950 . S
C310 N305 1.307 1_545 S
C310 C309 1.370 . S
C310 H328 0.948 . S
Zn311 N305 2.020 . S
Zn311 O320 2.039 . S
Zn311 O326 2.034 . S
Zn311 O330 2.025 . S
Zn311 O332 2.024 1_565 S
C312 O331 1.246 1_545 S
C312 O332 1.249 . S
N313 C314 1.307 . S
N313 C315 1.333 . S
N313 Zn319 2.020 . S
C314 N313 1.307 . S
C314 C318 1.370 . S
C314 H325 0.948 . S
C315 N313 1.333 . S
C315 C316 1.379 . S
C315 H323 0.952 . S
C316 C315 1.379 . S
C316 C317 1.390 . S
C316 H336 0.949 . S
C317 C316 1.390 . S
C317 C318 1.357 . S
C318 C314 1.370 . S
C318 C317 1.357 . S
C318 H337 0.950 . S
Zn319 N313 2.020 . S
Zn319 O322 2.025 . S
Zn319 O327 2.024 . S
Zn319 O329 2.039 . S
Zn319 O331 2.034 . S
O320 C304 1.251 . S
O320 Zn311 2.039 . S
C321 O326 1.246 . S
C321 O327 1.249 . S
O322 C304 1.254 . S
O322 Zn319 2.025 . S
H323 C315 0.952 . S
H324 C306 0.952 1_565 S
H325 C314 0.948 . S
O326 Zn311 2.034 . S
O326 C321 1.246 . S
O327 Zn319 2.024 . S
O327 C321 1.249 . S
H328 C310 0.948 . S
O329 Zn319 2.039 . S
O329 C333 1.251 . S
O330 Zn311 2.025 . S
O330 C333 1.254 . S
O331 C312 1.246 1_565 S
O331 Zn319 2.034 . S
O332 Zn311 2.024 1_545 S
O332 C312 1.249 . S
C333 O329 1.251 . S
C333 O330 1.254 . S
H334 C307 0.949 . S
H335 C309 0.950 . S
H336 C316 0.949 . S
H337 C318 0.950 . S
C338 O354 1.251 . S
C338 O356 1.254 . S
N339 C340 1.333 . S
N339 C344 1.307 . S
N339 Zn345 2.020 . S
C340 N339 1.333 . S
C340 C341 1.379 . S
C340 H358 0.952 . S
C341 C340 1.379 . S
C341 C342 1.390 . S
C341 H368 0.949 . S
C342 C341 1.390 . S
C342 C343 1.357 . S
C343 C342 1.357 . S
C343 C344 1.370 . S
C343 H369 0.950 . S
C344 N339 1.307 . S
C344 C343 1.370 . S
C344 H362 0.948 . S
Zn345 N339 2.020 . S
Zn345 O354 2.039 . S
Zn345 O360 2.034 . S
Zn345 O364 2.025 . S
Zn345 O366 2.024 . S
C346 O365 1.246 . S
C346 O366 1.249 . S
N347 C348 1.307 . S
N347 C349 1.333 . S
N347 Zn353 2.020 . S
C348 N347 1.307 . S
C348 C352 1.370 . S
C348 H359 0.948 . S
C349 N347 1.333 . S
C349 C350 1.379 . S
C349 H357 0.952 . S
C350 C349 1.379 . S
C350 C351 1.390 . S
C350 H370 0.949 . S
C351 C350 1.390 . S
C351 C352 1.357 . S
C352 C348 1.370 . S
C352 C351 1.357 . S
C352 H371 0.950 . S
Zn353 N347 2.020 . S
Zn353 O356 2.025 . S
Zn353 O361 2.024 . S
Zn353 O363 2.039 . S
Zn353 O365 2.034 . S
O354 C338 1.251 . S
O354 Zn345 2.039 . S
C355 O360 1.246 . S
C355 O361 1.249 . S
O356 C338 1.254 . S
O356 Zn353 2.025 . S
H357 C349 0.952 . S
H358 C340 0.952 . S
H359 C348 0.948 . S
O360 Zn345 2.034 . S
O360 C355 1.246 . S
O361 Zn353 2.024 . S
O361 C355 1.249 . S
H362 C344 0.948 . S
O363 Zn353 2.039 . S
O363 C367 1.251 . S
O364 Zn345 2.025 . S
O364 C367 1.254 . S
O365 C346 1.246 . S
O365 Zn353 2.034 . S
O366 Zn345 2.024 . S
O366 C346 1.249 . S
C367 O363 1.251 . S
C367 O364 1.254 . S
H368 C341 0.949 . S
H369 C343 0.950 . S
H370 C350 0.949 . S
H371 C352 0.950 . S
C372 O388 1.251 . S
C372 O390 1.254 . S
N373 C374 1.333 . S
N373 C378 1.307 . S
N373 Zn379 2.020 . S
C374 N373 1.333 . S
C374 C375 1.379 . S
C374 H392 0.952 . S
C375 C374 1.379 . S
C375 C376 1.390 . S
C375 H402 0.949 . S
C376 C375 1.390 . S
C376 C377 1.357 . S
C377 C376 1.357 . S
C377 C378 1.370 . S
C377 H403 0.950 . S
C378 N373 1.307 . S
C378 C377 1.370 . S
C378 H396 0.948 . S
Zn379 N373 2.020 . S
Zn379 O388 2.039 . S
Zn379 O394 2.034 . S
Zn379 O398 2.025 . S
Zn379 O400 2.024 . S
C380 O399 1.246 . S
C380 O400 1.249 . S
N381 C382 1.307 1_556 S
N381 C383 1.336 . S
N381 Zn387 2.020 . S
C382 N381 1.307 1_554 S
C382 C386 1.370 . S
C382 H393 0.948 1_554 S
C383 N381 1.336 . S
C383 C384 1.374 1_556 S
C383 H391 0.954 . S
C384 C383 1.374 1_554 S
C384 C385 1.390 . S
C384 H404 0.949 . S
C385 C384 1.390 . S
C385 C386 1.357 . S
C386 C382 1.370 . S
C386 C385 1.357 . S
C386 H405 0.950 . S
Zn387 N381 2.020 . S
Zn387 O390 2.025 . S
Zn387 O395 2.024 . S
Zn387 O397 2.039 . S
Zn387 O399 2.034 . S
O388 C372 1.251 . S
O388 Zn379 2.039 . S
C389 O394 1.246 . S
C389 O395 1.249 . S
O390 C372 1.254 . S
O390 Zn387 2.025 . S
H391 C383 0.954 . S
H392 C374 0.952 . S
H393 C382 0.948 1_556 S
O394 Zn379 2.034 . S
O394 C389 1.246 . S
O395 Zn387 2.024 . S
O395 C389 1.249 . S
H396 C378 0.948 . S
O397 Zn387 2.039 . S
O397 C401 1.251 . S
O398 Zn379 2.025 . S
O398 C401 1.254 . S
O399 C380 1.246 . S
O399 Zn387 2.034 . S
O400 Zn379 2.024 . S
O400 C380 1.249 . S
C401 O397 1.251 . S
C401 O398 1.254 . S
H402 C375 0.949 . S
H403 C377 0.950 . S
H404 C384 0.949 . S
H405 C386 0.950 . S
C406 O422 1.251 . S
C406 O424 1.254 . S
N407 C408 1.333 . S
N407 C412 1.307 . S
N407 Zn413 2.020 . S
C408 N407 1.333 . S
C408 C409 1.379 . S
C408 H426 0.952 . S
C409 C408 1.379 . S
C409 C410 1.390 . S
C409 H436 0.949 . S
C410 C409 1.390 . S
C410 C411 1.357 . S
C411 C410 1.357 . S
C411 C412 1.370 . S
C411 H437 0.950 . S
C412 N407 1.307 . S
C412 C411 1.370 . S
C412 H430 0.948 . S
Zn413 N407 2.020 . S
Zn413 O422 2.039 . S
Zn413 O428 2.034 . S
Zn413 O432 2.025 . S
Zn413 O434 2.024 . S
C414 O433 1.246 . S
C414 O434 1.249 . S
N415 C416 1.307 . S
N415 C417 1.333 1_545 S
N415 Zn421 2.020 . S
C416 N415 1.307 . S
C416 C420 1.370 . S
C416 H427 0.948 . S
C417 N415 1.333 1_565 S
C417 C418 1.379 . S
C417 H425 0.952 . S
C418 C417 1.379 . S
C418 C419 1.390 1_565 S
C418 H438 0.949 . S
C419 C418 1.390 1_545 S
C419 C420 1.357 . S
C420 C416 1.370 . S
C420 C419 1.357 . S
C420 H439 0.950 . S
Zn421 N415 2.020 . S
Zn421 O424 2.025 . S
Zn421 O429 2.024 . S
Zn421 O431 2.039 . S
Zn421 O433 2.034 . S
O422 C406 1.251 . S
O422 Zn413 2.039 . S
C423 O428 1.246 . S
C423 O429 1.249 . S
O424 C406 1.254 . S
O424 Zn421 2.025 . S
H425 C417 0.952 . S
H426 C408 0.952 . S
H427 C416 0.948 . S
O428 Zn413 2.034 . S
O428 C423 1.246 . S
O429 Zn421 2.024 . S
O429 C423 1.249 . S
H430 C412 0.948 . S
O431 Zn421 2.039 . S
O431 C435 1.251 1_545 S
O432 Zn413 2.025 . S
O432 C435 1.254 1_545 S
O433 C414 1.246 . S
O433 Zn421 2.034 . S
O434 Zn413 2.024 . S
O434 C414 1.249 . S
C435 O431 1.251 1_565 S
C435 O432 1.254 1_565 S
H436 C409 0.949 . S
H437 C411 0.950 . S
H438 C418 0.949 . S
H439 C420 0.950 . S
H440 C448 0.950 . S
H441 C453 0.950 . S
H442 C450 0.950 . S
H443 C452 0.950 . S
H444 C454 0.950 1_655 S
H445 C456 0.950 1_655 S
H446 C458 0.950 . S
H447 C459 0.950 . S
C448 H440 0.950 . S
C448 C449 1.386 . S
C448 C450 1.391 . S
C449 C448 1.386 . S
C449 C453 1.393 1_455 S
C450 H442 0.950 . S
C450 C448 1.391 . S
C450 C451 1.400 . S
C451 C450 1.400 . S
C451 C452 1.398 1_455 S
C451 C457 1.491 . S
C452 H443 0.950 . S
C452 C451 1.398 1_655 S
C452 C453 1.391 . S
C453 H441 0.950 . S
C453 C449 1.393 1_655 S
C453 C452 1.391 . S
C454 H444 0.950 1_455 S
C454 C455 1.386 . S
C454 C456 1.391 . S
C455 C454 1.386 . S
C455 C459 1.393 . S
C456 H445 0.950 1_455 S
C456 C454 1.391 . S
C456 C457 1.400 . S
C457 C451 1.491 . S
C457 C456 1.400 . S
C457 C458 1.398 . S
C458 H446 0.950 . S
C458 C457 1.398 . S
C458 C459 1.391 . S
C459 H447 0.950 . S
C459 C455 1.393 . S
C459 C458 1.391 . S
H460 C468 0.950 1_455 S
H461 C473 0.950 . S
H462 C470 0.950 1_455 S
H463 C472 0.950 . S
H464 C474 0.950 . S
H465 C476 0.950 . S
H466 C478 0.949 1_455 S
H467 C479 0.943 1_455 S
C468 H460 0.950 1_655 S
C468 C469 1.386 . S
C468 C470 1.391 . S
C469 C468 1.386 . S
C469 C473 1.393 . S
C470 H462 0.950 1_655 S
C470 C468 1.391 . S
C470 C471 1.400 . S
C471 C470 1.400 . S
C471 C472 1.398 . S
C471 C477 1.491 . S
C472 H463 0.950 . S
C472 C471 1.398 . S
C472 C473 1.391 . S
C473 H461 0.950 . S
C473 C469 1.393 . S
C473 C472 1.391 . S
C474 H464 0.950 . S
C474 C475 1.386 . S
C474 C476 1.391 . S
C475 C474 1.386 . S
C475 C479 1.400 . S
C476 H465 0.950 . S
C476 C474 1.391 . S
C476 C477 1.400 . S
C477 C471 1.491 . S
C477 C476 1.400 . S
C477 C478 1.399 . S
C478 H466 0.949 1_655 S
C478 C477 1.399 . S
C478 C479 1.392 . S
C479 H467 0.943 1_655 S
C479 C475 1.400 . S
C479 C478 1.392 . S
H480 C488 0.950 . S
H481 C493 0.950 1_655 S
H482 C490 0.950 . S
H483 C492 0.950 1_655 S
H484 C494 0.950 . S
H485 C496 0.950 . S
H486 C498 0.950 . S
H487 C499 0.950 . S
C488 H480 0.950 . S
C488 C489 1.386 . S
C488 C490 1.391 . S
C489 C488 1.386 . S
C489 C493 1.393 . S
C490 H482 0.950 . S
C490 C488 1.391 . S
C490 C491 1.400 . S
C491 C490 1.400 . S
C491 C492 1.398 . S
C491 C497 1.491 . S
C492 H483 0.950 1_455 S
C492 C491 1.398 . S
C492 C493 1.391 . S
C493 H481 0.950 1_455 S
C493 C489 1.393 . S
C493 C492 1.391 . S
C494 H484 0.950 . S
C494 C495 1.386 . S
C494 C496 1.391 . S
C495 C494 1.386 . S
C495 C499 1.393 . S
C496 H485 0.950 . S
C496 C494 1.391 . S
C496 C497 1.400 . S
C497 C491 1.491 . S
C497 C496 1.400 . S
C497 C498 1.398 . S
C498 H486 0.950 . S
C498 C497 1.398 . S
C498 C499 1.391 . S
C499 H487 0.950 . S
C499 C495 1.393 . S
C499 C498 1.391 . S
H500 C508 0.950 . S
H501 C513 0.950 . S
H502 C510 0.950 . S
H503 C512 0.950 . S
H504 C514 0.950 . S
H505 C516 0.950 . S
H506 C518 0.950 . S
H507 C519 0.950 . S
C508 H500 0.950 . S
C508 C509 1.386 1_455 S
C508 C510 1.391 . S
C509 C508 1.386 1_655 S
C509 C513 1.393 . S
C510 H502 0.950 . S
C510 C508 1.391 . S
C510 C511 1.400 1_455 S
C511 C510 1.400 1_655 S
C511 C512 1.398 . S
C511 C517 1.491 . S
C512 H503 0.950 . S
C512 C511 1.398 . S
C512 C513 1.391 . S
C513 H501 0.950 . S
C513 C509 1.393 . S
C513 C512 1.391 . S
C514 H504 0.950 . S
C514 C515 1.386 . S
C514 C516 1.391 . S
C515 C514 1.386 . S
C515 C519 1.393 1_655 S
C516 H505 0.950 . S
C516 C514 1.391 . S
C516 C517 1.400 . S
C517 C511 1.491 . S
C517 C516 1.400 . S
C517 C518 1.398 1_655 S
C518 H506 0.950 . S
C518 C517 1.398 1_455 S
C518 C519 1.391 . S
C519 H507 0.950 . S
C519 C515 1.393 1_455 S
C519 C518 1.391 . S
H520 C528 0.950 1_565 S
H521 C533 0.950 . S
H522 C530 0.950 1_565 S
H523 C532 0.950 . S
H524 C534 0.950 . S
H525 C536 0.950 . S
H526 C538 0.950 1_565 S
H527 C539 0.950 1_565 S
C528 H520 0.950 1_545 S
C528 C529 1.386 . S
C528 C530 1.391 . S
C529 C528 1.386 . S
C529 C533 1.393 . S
C530 H522 0.950 1_545 S
C530 C528 1.391 . S
C530 C531 1.400 . S
C531 C530 1.400 . S
C531 C532 1.398 . S
C531 C537 1.491 . S
C532 H523 0.950 . S
C532 C531 1.398 . S
C532 C533 1.391 . S
C533 H521 0.950 . S
C533 C529 1.393 . S
C533 C532 1.391 . S
C534 H524 0.950 . S
C534 C535 1.386 . S
C534 C536 1.391 . S
C535 C534 1.386 . S
C535 C539 1.393 . S
C536 H525 0.950 . S
C536 C534 1.391 . S
C536 C537 1.400 . S
C537 C531 1.491 . S
C537 C536 1.400 . S
C537 C538 1.398 . S
C538 H526 0.950 1_545 S
C538 C537 1.398 . S
C538 C539 1.391 . S
C539 H527 0.950 1_545 S
C539 C535 1.393 . S
C539 C538 1.391 . S
H540 C548 0.950 . S
H541 C553 0.950 . S
H542 C550 0.950 . S
H543 C552 0.950 . S
H544 C554 0.950 . S
H545 C556 0.950 . S
H546 C558 0.950 . S
H547 C559 0.950 . S
C548 H540 0.950 . S
C548 C549 1.386 . S
C548 C550 1.391 . S
C549 C548 1.386 . S
C549 C553 1.393 . S
C550 H542 0.950 . S
C550 C548 1.391 . S
C550 C551 1.400 . S
C551 C550 1.400 . S
C551 C552 1.398 . S
C551 C557 1.491 . S
C552 H543 0.950 . S
C552 C551 1.398 . S
C552 C553 1.391 . S
C553 H541 0.950 . S
C553 C549 1.393 . S
C553 C552 1.391 . S
C554 H544 0.950 . S
C554 C555 1.386 . S
C554 C556 1.391 . S
C555 C554 1.386 . S
C555 C559 1.393 . S
C556 H545 0.950 . S
C556 C554 1.391 . S
C556 C557 1.400 . S
C557 C551 1.491 . S
C557 C556 1.400 . S
C557 C558 1.398 . S
C558 H546 0.950 . S
C558 C557 1.398 . S
C558 C559 1.391 . S
C559 H547 0.950 . S
C559 C555 1.393 . S
C559 C558 1.391 . S
H560 C568 0.950 . S
H561 C573 0.950 . S
H562 C570 0.951 . S
H563 C572 0.950 . S
H564 C574 0.950 . S
H565 C576 0.950 . S
H566 C578 0.950 . S
H567 C579 0.950 . S
C568 H560 0.950 . S
C568 C569 1.385 1_565 S
C568 C570 1.391 1_565 S
C569 C568 1.385 1_545 S
C569 C573 1.393 . S
C570 H562 0.951 . S
C570 C568 1.391 1_545 S
C570 C571 1.400 . S
C571 C570 1.400 . S
C571 C572 1.398 . S
C571 C577 1.491 . S
C572 H563 0.950 . S
C572 C571 1.398 . S
C572 C573 1.391 . S
C573 H561 0.950 . S
C573 C569 1.393 . S
C573 C572 1.391 . S
C574 H564 0.950 . S
C574 C575 1.386 . S
C574 C576 1.391 . S
C575 C574 1.386 . S
C575 C579 1.393 . S
C576 H565 0.950 . S
C576 C574 1.391 . S
C576 C577 1.400 . S
C577 C571 1.491 . S
C577 C576 1.400 . S
C577 C578 1.398 . S
C578 H566 0.950 . S
C578 C577 1.398 . S
C578 C579 1.391 . S
C579 H567 0.950 . S
C579 C575 1.393 . S
C579 C578 1.391 . S
H580 C588 0.950 . S
H581 C593 0.950 . S
H582 C590 0.950 . S
H583 C592 0.950 . S
H584 C594 0.950 . S
H585 C596 0.950 . S
H586 C598 0.950 . S
H587 C599 0.950 . S
C588 H580 0.950 . S
C588 C589 1.386 . S
C588 C590 1.391 . S
C589 C588 1.386 . S
C589 C593 1.393 . S
C590 H582 0.950 . S
C590 C588 1.391 . S
C590 C591 1.400 . S
C591 C590 1.400 . S
C591 C592 1.398 . S
C591 C597 1.491 . S
C592 H583 0.950 . S
C592 C591 1.398 . S
C592 C593 1.391 . S
C593 H581 0.950 . S
C593 C589 1.393 . S
C593 C592 1.391 . S
C594 H584 0.950 . S
C594 C595 1.386 . S
C594 C596 1.391 . S
C595 C594 1.386 . S
C595 C599 1.393 . S
C596 H585 0.950 . S
C596 C594 1.391 . S
C596 C597 1.400 . S
C597 C591 1.491 . S
C597 C596 1.400 . S
C597 C598 1.398 . S
C598 H586 0.950 . S
C598 C597 1.398 . S
C598 C599 1.391 . S
C599 H587 0.950 . S
C599 C595 1.393 . S
C599 C598 1.391 . S
H600 C608 0.950 . S
H601 C613 0.950 . S
H602 C610 0.950 . S
H603 C612 0.950 . S
H604 C614 0.950 . S
H605 C616 0.950 . S
H606 C618 0.950 . S
H607 C619 0.950 . S
C608 H600 0.950 . S
C608 C609 1.386 . S
C608 C610 1.391 . S
C609 C608 1.386 . S
C609 C613 1.393 . S
C610 H602 0.950 . S
C610 C608 1.391 . S
C610 C611 1.400 . S
C611 C610 1.400 . S
C611 C612 1.398 . S
C611 C617 1.491 . S
C612 H603 0.950 . S
C612 C611 1.398 . S
C612 C613 1.391 . S
C613 H601 0.950 . S
C613 C609 1.393 . S
C613 C612 1.391 . S
C614 H604 0.950 . S
C614 C615 1.386 . S
C614 C616 1.391 . S
C615 C614 1.386 . S
C615 C619 1.393 . S
C616 H605 0.950 . S
C616 C614 1.391 . S
C616 C617 1.400 . S
C617 C611 1.491 . S
C617 C616 1.400 . S
C617 C618 1.398 . S
C618 H606 0.950 . S
C618 C617 1.398 . S
C618 C619 1.391 . S
C619 H607 0.950 . S
C619 C615 1.393 . S
C619 C618 1.391 . S
H620 C628 0.950 . S
H621 C633 0.950 . S
H622 C630 0.950 . S
H623 C632 0.950 . S
H624 C634 0.950 . S
H625 C636 0.950 . S
H626 C638 0.950 . S
H627 C639 0.950 . S
C628 H620 0.950 . S
C628 C629 1.386 . S
C628 C630 1.391 . S
C629 C628 1.386 . S
C629 C633 1.393 . S
C630 H622 0.950 . S
C630 C628 1.391 . S
C630 C631 1.400 . S
C631 C630 1.400 . S
C631 C632 1.398 . S
C631 C637 1.491 . S
C632 H623 0.950 . S
C632 C631 1.398 . S
C632 C633 1.391 . S
C633 H621 0.950 . S
C633 C629 1.393 . S
C633 C632 1.391 . S
C634 H624 0.950 . S
C634 C635 1.386 . S
C634 C636 1.391 . S
C635 C634 1.386 . S
C635 C639 1.393 . S
C636 H625 0.950 . S
C636 C634 1.391 . S
C636 C637 1.400 . S
C637 C631 1.491 . S
C637 C636 1.400 . S
C637 C638 1.398 . S
C638 H626 0.950 . S
C638 C637 1.398 . S
C638 C639 1.391 . S
C639 H627 0.950 . S
C639 C635 1.393 . S
C639 C638 1.391 . S
H640 C648 0.950 . S
H641 C653 0.950 . S
H642 C650 0.950 . S
H643 C652 0.950 . S
H644 C654 0.950 . S
H645 C656 0.950 . S
H646 C658 0.950 . S
H647 C659 0.950 . S
C648 H640 0.950 . S
C648 C649 1.386 . S
C648 C650 1.391 . S
C649 C648 1.386 . S
C649 C653 1.393 . S
C650 H642 0.950 . S
C650 C648 1.391 . S
C650 C651 1.400 . S
C651 C650 1.400 . S
C651 C652 1.398 . S
C651 C657 1.491 . S
C652 H643 0.950 . S
C652 C651 1.398 . S
C652 C653 1.391 . S
C653 H641 0.950 . S
C653 C649 1.393 . S
C653 C652 1.391 . S
C654 H644 0.950 . S
C654 C655 1.386 . S
C654 C656 1.391 . S
C655 C654 1.386 . S
C655 C659 1.393 . S
C656 H645 0.950 . S
C656 C654 1.391 . S
C656 C657 1.400 . S
C657 C651 1.491 . S
C657 C656 1.400 . S
C657 C658 1.398 . S
C658 H646 0.950 . S
C658 C657 1.398 . S
C658 C659 1.391 . S
C659 H647 0.950 . S
C659 C655 1.393 . S
C659 C658 1.391 . S
H660 C668 0.950 . S
H661 C673 0.950 . S
H662 C670 0.950 . S
H663 C672 0.950 . S
H664 C674 0.950 . S
H665 C676 0.950 . S
H666 C678 0.950 . S
H667 C679 0.950 . S
C668 H660 0.950 . S
C668 C669 1.386 . S
C668 C670 1.391 . S
C669 C668 1.386 . S
C669 C673 1.393 . S
C670 H662 0.950 . S
C670 C668 1.391 . S
C670 C671 1.400 . S
C671 C670 1.400 . S
C671 C672 1.398 . S
C671 C677 1.491 . S
C672 H663 0.950 . S
C672 C671 1.398 . S
C672 C673 1.391 . S
C673 H661 0.950 . S
C673 C669 1.393 . S
C673 C672 1.391 . S
C674 H664 0.950 . S
C674 C675 1.386 . S
C674 C676 1.391 . S
C675 C674 1.386 . S
C675 C679 1.393 . S
C676 H665 0.950 . S
C676 C674 1.391 . S
C676 C677 1.400 . S
C677 C671 1.491 . S
C677 C676 1.400 . S
C677 C678 1.398 . S
C678 H666 0.950 . S
C678 C677 1.398 . S
C678 C679 1.391 . S
C679 H667 0.950 . S
C679 C675 1.393 . S
C679 C678 1.391 . S
H680 C688 0.950 . S
H681 C693 0.950 . S
H682 C690 0.950 . S
H683 C692 0.950 . S
H684 C694 0.950 . S
H685 C696 0.950 . S
H686 C698 0.950 . S
H687 C699 0.950 . S
C688 H680 0.950 . S
C688 C689 1.386 . S
C688 C690 1.391 . S
C689 C688 1.386 . S
C689 C693 1.393 . S
C690 H682 0.950 . S
C690 C688 1.391 . S
C690 C691 1.400 . S
C691 C690 1.400 . S
C691 C692 1.398 . S
C691 C697 1.491 . S
C692 H683 0.950 . S
C692 C691 1.398 . S
C692 C693 1.391 . S
C693 H681 0.950 . S
C693 C689 1.393 . S
C693 C692 1.391 . S
C694 H684 0.950 . S
C694 C695 1.386 . S
C694 C696 1.391 . S
C695 C694 1.386 . S
C695 C699 1.393 . S
C696 H685 0.950 . S
C696 C694 1.391 . S
C696 C697 1.400 . S
C697 C691 1.491 . S
C697 C696 1.400 . S
C697 C698 1.398 . S
C698 H686 0.950 . S
C698 C697 1.398 . S
C698 C699 1.391 . S
C699 H687 0.950 . S
C699 C695 1.393 . S
C699 C698 1.391 . S
H700 C708 0.950 . S
H701 C713 0.950 . S
H702 C710 0.950 . S
H703 C712 0.950 . S
H704 C714 0.950 . S
H705 C716 0.950 . S
H706 C718 0.950 . S
H707 C719 0.950 . S
C708 H700 0.950 . S
C708 C709 1.386 . S
C708 C710 1.391 . S
C709 C708 1.386 . S
C709 C713 1.393 . S
C710 H702 0.950 . S
C710 C708 1.391 . S
C710 C711 1.400 . S
C711 C710 1.400 . S
C711 C712 1.398 . S
C711 C717 1.491 . S
C712 H703 0.950 . S
C712 C711 1.398 . S
C712 C713 1.391 . S
C713 H701 0.950 . S
C713 C709 1.393 . S
C713 C712 1.391 . S
C714 H704 0.950 . S
C714 C715 1.386 . S
C714 C716 1.391 . S
C715 C714 1.386 . S
C715 C719 1.393 . S
C716 H705 0.950 . S
C716 C714 1.391 . S
C716 C717 1.400 . S
C717 C711 1.491 . S
C717 C716 1.400 . S
C717 C718 1.398 . S
C718 H706 0.950 . S
C718 C717 1.398 . S
C718 C719 1.391 . S
C719 H707 0.950 . S
C719 C715 1.393 . S
C719 C718 1.391 . S
H720 C728 0.950 . S
H721 C733 0.950 . S
H722 C730 0.950 . S
H723 C732 0.950 . S
H724 C734 0.950 . S
H725 C736 0.950 . S
H726 C738 0.950 . S
H727 C739 0.950 . S
C728 H720 0.950 . S
C728 C729 1.386 . S
C728 C730 1.391 . S
C729 C728 1.386 . S
C729 C733 1.393 . S
C730 H722 0.950 . S
C730 C728 1.391 . S
C730 C731 1.400 . S
C731 C730 1.400 . S
C731 C732 1.398 . S
C731 C737 1.491 . S
C732 H723 0.950 . S
C732 C731 1.398 . S
C732 C733 1.391 . S
C733 H721 0.950 . S
C733 C729 1.393 . S
C733 C732 1.391 . S
C734 H724 0.950 . S
C734 C735 1.386 . S
C734 C736 1.391 . S
C735 C734 1.386 . S
C735 C739 1.393 . S
C736 H725 0.950 . S
C736 C734 1.391 . S
C736 C737 1.400 . S
C737 C731 1.491 . S
C737 C736 1.400 . S
C737 C738 1.398 . S
C738 H726 0.950 . S
C738 C737 1.398 . S
C738 C739 1.391 . S
C739 H727 0.950 . S
C739 C735 1.393 . S
C739 C738 1.391 . S
H740 C748 0.950 . S
H741 C753 0.950 . S
H742 C750 0.950 . S
H743 C752 0.950 . S
H744 C754 0.950 . S
H745 C756 0.950 . S
H746 C758 0.950 . S
H747 C759 0.950 . S
C748 H740 0.950 . S
C748 C749 1.386 . S
C748 C750 1.391 . S
C749 C748 1.386 . S
C749 C753 1.393 . S
C750 H742 0.950 . S
C750 C748 1.391 . S
C750 C751 1.400 . S
C751 C750 1.400 . S
C751 C752 1.398 . S
C751 C757 1.491 . S
C752 H743 0.950 . S
C752 C751 1.398 . S
C752 C753 1.391 . S
C753 H741 0.950 . S
C753 C749 1.393 . S
C753 C752 1.391 . S
C754 H744 0.950 . S
C754 C755 1.386 . S
C754 C756 1.391 . S
C755 C754 1.386 . S
C755 C759 1.393 . S
C756 H745 0.950 . S
C756 C754 1.391 . S
C756 C757 1.400 . S
C757 C751 1.491 . S
C757 C756 1.400 . S
C757 C758 1.398 . S
C758 H746 0.950 . S
C758 C757 1.398 . S
C758 C759 1.391 . S
C759 H747 0.950 . S
C759 C755 1.393 . S
C759 C758 1.391 . S
H760 C768 0.950 . S
H761 C773 0.950 . S
H762 C770 0.950 . S
H763 C772 0.950 . S
H764 C774 0.950 . S
H765 C776 0.950 . S
H766 C778 0.950 . S
H767 C779 0.950 . S
C768 H760 0.950 . S
C768 C769 1.386 . S
C768 C770 1.391 . S
C769 C768 1.386 . S
C769 C773 1.393 . S
C770 H762 0.950 . S
C770 C768 1.391 . S
C770 C771 1.400 . S
C771 C770 1.400 . S
C771 C772 1.398 . S
C771 C777 1.491 . S
C772 H763 0.950 . S
C772 C771 1.398 . S
C772 C773 1.391 . S
C773 H761 0.950 . S
C773 C769 1.393 . S
C773 C772 1.391 . S
C774 H764 0.950 . S
C774 C775 1.386 . S
C774 C776 1.391 . S
C775 C774 1.386 . S
C775 C779 1.393 . S
C776 H765 0.950 . S
C776 C774 1.391 . S
C776 C777 1.400 . S
C777 C771 1.491 . S
C777 C776 1.400 . S
C777 C778 1.398 . S
C778 H766 0.950 . S
C778 C777 1.398 . S
C778 C779 1.391 . S
C779 H767 0.950 . S
C779 C775 1.393 . S
C779 C778 1.391 . S
H780 C788 0.950 . S
H781 C793 0.950 . S
H782 C790 0.950 . S
H783 C792 0.950 . S
H784 C794 0.950 . S
H785 C796 0.950 . S
H786 C798 0.950 . S
H787 C799 0.950 . S
C788 H780 0.950 . S
C788 C789 1.386 . S
C788 C790 1.391 . S
C789 C788 1.386 . S
C789 C793 1.393 1_565 S
C790 H782 0.950 . S
C790 C788 1.391 . S
C790 C791 1.400 . S
C791 C790 1.400 . S
C791 C792 1.398 1_565 S
C791 C797 1.491 1_565 S
C792 H783 0.950 . S
C792 C791 1.398 1_545 S
C792 C793 1.391 . S
C793 H781 0.950 . S
C793 C789 1.393 1_545 S
C793 C792 1.391 . S
C794 H784 0.950 . S
C794 C795 1.386 . S
C794 C796 1.391 . S
C795 C794 1.386 . S
C795 C799 1.393 1_545 S
C796 H785 0.950 . S
C796 C794 1.391 . S
C796 C797 1.416 . S
C797 C791 1.491 1_545 S
C797 C796 1.416 . S
C797 C798 1.383 1_545 S
C798 H786 0.950 . S
C798 C797 1.383 1_565 S
C798 C799 1.391 . S
C799 H787 0.950 . S
C799 C795 1.393 1_565 S
C799 C798 1.391 . S
H800 C808 0.950 . S
H801 C813 0.950 . S
H802 C810 0.950 . S
H803 C812 0.950 . S
H804 C814 0.950 . S
H805 C816 0.950 . S
H806 C818 0.950 . S
H807 C819 0.950 . S
C808 H800 0.950 . S
C808 C809 1.386 . S
C808 C810 1.391 . S
C809 C808 1.386 . S
C809 C813 1.393 . S
C810 H802 0.950 . S
C810 C808 1.391 . S
C810 C811 1.400 . S
C811 C810 1.400 . S
C811 C812 1.398 . S
C811 C817 1.491 . S
C812 H803 0.950 . S
C812 C811 1.398 . S
C812 C813 1.391 . S
C813 H801 0.950 . S
C813 C809 1.393 . S
C813 C812 1.391 . S
C814 H804 0.950 . S
C814 C815 1.386 . S
C814 C816 1.391 . S
C815 C814 1.386 . S
C815 C819 1.393 . S
C816 H805 0.950 . S
C816 C814 1.391 . S
C816 C817 1.400 . S
C817 C811 1.491 . S
C817 C816 1.400 . S
C817 C818 1.398 . S
C818 H806 0.950 . S
C818 C817 1.398 . S
C818 C819 1.391 . S
C819 H807 0.950 . S
C819 C815 1.393 . S
C819 C818 1.391 . S
H820 C828 0.950 . S
H821 C833 0.950 . S
H822 C830 0.954 . S
H823 C832 0.950 . S
H824 C834 0.950 . S
H825 C836 0.950 . S
H826 C838 0.949 . S
H827 C839 0.950 . S
C828 H820 0.950 . S
C828 C829 1.386 . S
C828 C830 1.391 . S
C829 C828 1.386 . S
C829 C833 1.393 . S
C830 H822 0.954 . S
C830 C828 1.391 . S
C830 C831 1.400 . S
C831 C830 1.400 . S
C831 C832 1.398 . S
C831 C837 1.491 . S
C832 H823 0.950 . S
C832 C831 1.398 . S
C832 C833 1.391 . S
C833 H821 0.950 . S
C833 C829 1.393 . S
C833 C832 1.391 . S
C834 H824 0.950 . S
C834 C835 1.383 1_545 S
C834 C836 1.391 . S
C835 C834 1.383 1_565 S
C835 C839 1.396 . S
C836 H825 0.950 . S
C836 C834 1.391 . S
C836 C837 1.400 . S
C837 C831 1.491 . S
C837 C836 1.400 . S
C837 C838 1.401 . S
C838 H826 0.949 . S
C838 C837 1.401 . S
C838 C839 1.391 1_545 S
C839 H827 0.950 . S
C839 C835 1.396 . S
C839 C838 1.391 1_565 S
H840 C848 0.950 . S
H841 C853 0.950 . S
H842 C850 0.950 . S
H843 C852 0.950 . S
H844 C854 0.950 . S
H845 C856 0.950 . S
H846 C858 0.950 . S
H847 C859 0.950 . S
C848 H840 0.950 . S
C848 C849 1.386 . S
C848 C850 1.391 . S
C849 C848 1.386 . S
C849 C853 1.393 . S
C850 H842 0.950 . S
C850 C848 1.391 . S
C850 C851 1.400 . S
C851 C850 1.400 . S
C851 C852 1.398 . S
C851 C857 1.491 . S
C852 H843 0.950 . S
C852 C851 1.398 . S
C852 C853 1.391 . S
C853 H841 0.950 . S
C853 C849 1.393 . S
C853 C852 1.391 . S
C854 H844 0.950 . S
C854 C855 1.386 . S
C854 C856 1.391 . S
C855 C854 1.386 . S
C855 C859 1.393 . S
C856 H845 0.950 . S
C856 C854 1.391 . S
C856 C857 1.400 . S
C857 C851 1.491 . S
C857 C856 1.400 . S
C857 C858 1.398 . S
C858 H846 0.950 . S
C858 C857 1.398 . S
C858 C859 1.391 . S
C859 H847 0.950 . S
C859 C855 1.393 . S
C859 C858 1.391 . S
H860 C868 0.950 . S
H861 C873 0.950 . S
H862 C870 0.950 . S
H863 C872 0.950 . S
H864 C874 0.950 . S
H865 C876 0.950 . S
H866 C878 0.954 . S
H867 C879 0.950 . S
C868 H860 0.950 . S
C868 C869 1.385 1_554 S
C868 C870 1.391 . S
C869 C868 1.385 1_556 S
C869 C873 1.397 . S
C870 H862 0.950 . S
C870 C868 1.391 . S
C870 C871 1.400 1_554 S
C871 C870 1.400 1_556 S
C871 C872 1.398 . S
C871 C877 1.491 . S
C872 H863 0.950 . S
C872 C871 1.398 . S
C872 C873 1.391 . S
C873 H861 0.950 . S
C873 C869 1.397 . S
C873 C872 1.391 . S
C874 H864 0.950 . S
C874 C875 1.386 . S
C874 C876 1.391 . S
C875 C874 1.386 . S
C875 C879 1.393 . S
C876 H865 0.950 . S
C876 C874 1.391 . S
C876 C877 1.400 . S
C877 C871 1.491 . S
C877 C876 1.400 . S
C877 C878 1.398 . S
C878 H866 0.954 . S
C878 C877 1.398 . S
C878 C879 1.391 . S
C879 H867 0.950 . S
C879 C875 1.393 . S
C879 C878 1.391 . S
H880 C888 0.950 . S
H881 C893 0.950 1_554 S
H882 C890 0.950 . S
H883 C892 0.961 . S
H884 C894 0.950 . S
H885 C896 0.950 . S
H886 C898 0.950 . S
H887 C899 0.950 . S
C888 H880 0.950 . S
C888 C889 1.386 . S
C888 C890 1.391 . S
C889 C888 1.386 . S
C889 C893 1.393 . S
C890 H882 0.950 . S
C890 C888 1.391 . S
C890 C891 1.400 . S
C891 C890 1.400 . S
C891 C892 1.398 . S
C891 C897 1.491 . S
C892 H883 0.961 . S
C892 C891 1.398 . S
C892 C893 1.391 . S
C893 H881 0.950 1_556 S
C893 C889 1.393 . S
C893 C892 1.391 . S
C894 H884 0.950 . S
C894 C895 1.386 . S
C894 C896 1.391 . S
C895 C894 1.386 . S
C895 C899 1.393 . S
C896 H885 0.950 . S
C896 C894 1.391 . S
C896 C897 1.400 . S
C897 C891 1.491 . S
C897 C896 1.400 . S
C897 C898 1.398 . S
C898 H886 0.950 . S
C898 C897 1.398 . S
C898 C899 1.391 . S
C899 H887 0.950 . S
C899 C895 1.393 . S
C899 C898 1.391 . S
H900 C908 0.927 1_556 S
H901 C913 0.950 . S
H902 C910 0.950 1_556 S
H903 C912 0.950 . S
H904 C914 0.950 . S
H905 C916 0.950 . S
H906 C918 0.950 1_556 S
H907 C919 0.950 1_556 S
C908 H900 0.927 1_554 S
C908 C909 1.405 . S
C908 C910 1.394 . S
C909 C908 1.405 . S
C909 C913 1.393 . S
C910 H902 0.950 1_554 S
C910 C908 1.394 . S
C910 C911 1.400 . S
C911 C910 1.400 . S
C911 C912 1.398 . S
C911 C917 1.491 . S
C912 H903 0.950 . S
C912 C911 1.398 . S
C912 C913 1.391 . S
C913 H901 0.950 . S
C913 C909 1.393 . S
C913 C912 1.391 . S
C914 H904 0.950 . S
C914 C915 1.386 . S
C914 C916 1.391 . S
C915 C914 1.386 . S
C915 C919 1.393 . S
C916 H905 0.950 . S
C916 C914 1.391 . S
C916 C917 1.400 . S
C917 C911 1.491 . S
C917 C916 1.400 . S
C917 C918 1.398 . S
C918 H906 0.950 1_554 S
C918 C917 1.398 . S
C918 C919 1.391 . S
C919 H907 0.950 1_554 S
C919 C915 1.393 . S
C919 C918 1.391 . S
H920 C928 0.950 . S
H921 C933 0.954 . S
H922 C930 0.950 . S
H923 C932 0.950 . S
H924 C934 0.950 . S
H925 C936 0.950 . S
H926 C938 0.950 . S
H927 C939 0.950 . S
C928 H920 0.950 . S
C928 C929 1.386 . S
C928 C930 1.391 . S
C929 C928 1.386 . S
C929 C933 1.385 1_455 S
C930 H922 0.950 . S
C930 C928 1.391 . S
C930 C931 1.400 . S
C931 C930 1.400 . S
C931 C932 1.398 1_455 S
C931 C937 1.491 . S
C932 H923 0.950 . S
C932 C931 1.398 1_655 S
C932 C933 1.394 . S
C933 H921 0.954 . S
C933 C929 1.385 1_655 S
C933 C932 1.394 . S
C934 H924 0.950 . S
C934 C935 1.378 1_655 S
C934 C936 1.391 . S
C935 C934 1.378 1_455 S
C935 C939 1.408 . S
C936 H925 0.950 . S
C936 C934 1.391 . S
C936 C937 1.400 1_655 S
C937 C931 1.491 . S
C937 C936 1.400 1_455 S
C937 C938 1.398 . S
C938 H926 0.950 . S
C938 C937 1.398 . S
C938 C939 1.391 . S
C939 H927 0.950 . S
C939 C935 1.408 . S
C939 C938 1.391 . S
H940 C948 0.950 . S
H941 C953 0.950 . S
H942 C950 0.950 . S
H943 C952 0.950 . S
H944 C954 0.950 . S
H945 C956 0.950 . S
H946 C958 0.950 . S
H947 C959 0.950 . S
C948 H940 0.950 . S
C948 C949 1.386 1_455 S
C948 C950 1.391 . S
C949 C948 1.386 1_655 S
C949 C953 1.393 . S
C950 H942 0.950 . S
C950 C948 1.391 . S
C950 C951 1.400 1_455 S
C951 C950 1.400 1_655 S
C951 C952 1.398 . S
C951 C957 1.491 1_655 S
C952 H943 0.950 . S
C952 C951 1.398 . S
C952 C953 1.391 . S
C953 H941 0.950 . S
C953 C949 1.393 . S
C953 C952 1.391 . S
C954 H944 0.950 . S
C954 C955 1.386 1_655 S
C954 C956 1.391 . S
C955 C954 1.386 1_455 S
C955 C959 1.393 . S
C956 H945 0.950 . S
C956 C954 1.391 . S
C956 C957 1.395 1_655 S
C957 C951 1.491 1_455 S
C957 C956 1.395 1_455 S
C957 C958 1.403 . S
C958 H946 0.950 . S
C958 C957 1.403 . S
C958 C959 1.391 . S
C959 H947 0.950 . S
C959 C955 1.393 . S
C959 C958 1.391 . S
H960 C968 0.950 . S
H961 C973 0.950 . S
H962 C970 0.950 . S
H963 C972 0.950 . S
H964 C974 0.950 . S
H965 C976 0.950 . S
H966 C978 0.950 . S
H967 C979 0.950 . S
C968 H960 0.950 . S
C968 C969 1.386 1_655 S
C968 C970 1.391 . S
C969 C968 1.386 1_455 S
C969 C973 1.393 . S
C970 H962 0.950 . S
C970 C968 1.391 . S
C970 C971 1.400 1_655 S
C971 C970 1.400 1_455 S
C971 C972 1.398 . S
C971 C977 1.491 . S
C972 H963 0.950 . S
C972 C971 1.398 . S
C972 C973 1.391 . S
C973 H961 0.950 . S
C973 C969 1.393 . S
C973 C972 1.391 . S
C974 H964 0.950 . S
C974 C975 1.386 . S
C974 C976 1.391 . S
C975 C974 1.386 . S
C975 C979 1.393 1_455 S
C976 H965 0.950 . S
C976 C974 1.391 . S
C976 C977 1.400 . S
C977 C971 1.491 . S
C977 C976 1.400 . S
C977 C978 1.398 1_455 S
C978 H966 0.950 . S
C978 C977 1.398 1_655 S
C978 C979 1.391 . S
C979 H967 0.950 . S
C979 C975 1.393 1_655 S
C979 C978 1.391 . S
H980 C988 0.950 . S
H981 C993 0.950 . S
H982 C990 0.950 . S
H983 C992 0.950 . S
H984 C994 0.950 . S
H985 C996 0.950 . S
H986 C998 0.950 . S
H987 C999 0.950 . S
C988 H980 0.950 . S
C988 C989 1.386 . S
C988 C990 1.391 . S
C989 C988 1.386 . S
C989 C993 1.393 . S
C990 H982 0.950 . S
C990 C988 1.391 . S
C990 C991 1.400 . S
C991 C990 1.400 . S
C991 C992 1.398 . S
C991 C997 1.491 . S
C992 H983 0.950 . S
C992 C991 1.398 . S
C992 C993 1.391 . S
C993 H981 0.950 . S
C993 C989 1.393 . S
C993 C992 1.391 . S
C994 H984 0.950 . S
C994 C995 1.386 . S
C994 C996 1.391 . S
C995 C994 1.386 . S
C995 C999 1.393 . S
C996 H985 0.950 . S
C996 C994 1.391 . S
C996 C997 1.400 . S
C997 C991 1.491 . S
C997 C996 1.400 . S
C997 C998 1.398 . S
C998 H986 0.950 . S
C998 C997 1.398 . S
C998 C999 1.391 . S
C999 H987 0.950 . S
C999 C995 1.393 . S
C999 C998 1.391 . S
H1000 C1008 0.950 . S
H1001 C1013 0.950 . S
H1002 C1010 0.950 . S
H1003 C1012 0.950 . S
H1004 C1014 0.950 . S
H1005 C1016 0.950 . S
H1006 C1018 0.950 . S
H1007 C1019 0.950 . S
C1008 H1000 0.950 . S
C1008 C1009 1.386 . S
C1008 C1010 1.391 . S
C1009 C1008 1.386 . S
C1009 C1013 1.393 . S
C1010 H1002 0.950 . S
C1010 C1008 1.391 . S
C1010 C1011 1.400 . S
C1011 C1010 1.400 . S
C1011 C1012 1.398 . S
C1011 C1017 1.491 . S
C1012 H1003 0.950 . S
C1012 C1011 1.398 . S
C1012 C1013 1.391 . S
C1013 H1001 0.950 . S
C1013 C1009 1.393 . S
C1013 C1012 1.391 . S
C1014 H1004 0.950 . S
C1014 C1015 1.386 . S
C1014 C1016 1.391 . S
C1015 C1014 1.386 . S
C1015 C1019 1.393 . S
C1016 H1005 0.950 . S
C1016 C1014 1.391 . S
C1016 C1017 1.400 . S
C1017 C1011 1.491 . S
C1017 C1016 1.400 . S
C1017 C1018 1.398 . S
C1018 H1006 0.950 . S
C1018 C1017 1.398 . S
C1018 C1019 1.391 . S
C1019 H1007 0.950 . S
C1019 C1015 1.393 . S
C1019 C1018 1.391 . S
H1020 C1028 0.950 . S
H1021 C1033 0.950 . S
H1022 C1030 0.950 . S
H1023 C1032 0.950 . S
H1024 C1034 0.950 . S
H1025 C1036 0.950 . S
H1026 C1038 0.950 . S
H1027 C1039 0.950 . S
C1028 H1020 0.950 . S
C1028 C1029 1.386 . S
C1028 C1030 1.391 . S
C1029 C1028 1.386 . S
C1029 C1033 1.393 . S
C1030 H1022 0.950 . S
C1030 C1028 1.391 . S
C1030 C1031 1.400 . S
C1031 C1030 1.400 . S
C1031 C1032 1.398 . S
C1031 C1037 1.491 . S
C1032 H1023 0.950 . S
C1032 C1031 1.398 . S
C1032 C1033 1.391 . S
C1033 H1021 0.950 . S
C1033 C1029 1.393 . S
C1033 C1032 1.391 . S
C1034 H1024 0.950 . S
C1034 C1035 1.386 . S
C1034 C1036 1.391 . S
C1035 C1034 1.386 . S
C1035 C1039 1.393 . S
C1036 H1025 0.950 . S
C1036 C1034 1.391 . S
C1036 C1037 1.400 . S
C1037 C1031 1.491 . S
C1037 C1036 1.400 . S
C1037 C1038 1.398 . S
C1038 H1026 0.950 . S
C1038 C1037 1.398 . S
C1038 C1039 1.391 . S
C1039 H1027 0.950 . S
C1039 C1035 1.393 . S
C1039 C1038 1.391 . S
H1040 C1048 0.950 . S
H1041 C1053 0.950 . S
H1042 C1050 0.950 . S
H1043 C1052 0.950 . S
H1044 C1054 0.950 . S
H1045 C1056 0.950 . S
H1046 C1058 0.950 1_545 S
H1047 C1059 0.961 . S
C1048 H1040 0.950 . S
C1048 C1049 1.386 1_545 S
C1048 C1050 1.391 . S
C1049 C1048 1.386 1_565 S
C1049 C1053 1.393 . S
C1050 H1042 0.950 . S
C1050 C1048 1.391 . S
C1050 C1051 1.400 1_545 S
C1051 C1050 1.400 1_565 S
C1051 C1052 1.398 . S
C1051 C1057 1.491 . S
C1052 H1043 0.950 . S
C1052 C1051 1.398 . S
C1052 C1053 1.391 . S
C1053 H1041 0.950 . S
C1053 C1049 1.393 . S
C1053 C1052 1.391 . S
C1054 H1044 0.950 . S
C1054 C1055 1.386 . S
C1054 C1056 1.391 . S
C1055 C1054 1.386 . S
C1055 C1059 1.393 . S
C1056 H1045 0.950 . S
C1056 C1054 1.391 . S
C1056 C1057 1.400 . S
C1057 C1051 1.491 . S
C1057 C1056 1.400 . S
C1057 C1058 1.398 . S
C1058 H1046 0.950 1_565 S
C1058 C1057 1.398 . S
C1058 C1059 1.391 . S
C1059 H1047 0.961 . S
C1059 C1055 1.393 . S
C1059 C1058 1.391 . S
H1060 C1068 0.950 . S
H1061 C1073 0.950 . S
H1062 C1070 0.950 . S
H1063 C1072 0.950 . S
H1064 C1074 0.950 . S
H1065 C1076 0.950 . S
H1066 C1078 0.950 . S
H1067 C1079 0.950 . S
C1068 H1060 0.950 . S
C1068 C1069 1.386 . S
C1068 C1070 1.391 . S
C1069 C1068 1.386 . S
C1069 C1073 1.393 . S
C1070 H1062 0.950 . S
C1070 C1068 1.391 . S
C1070 C1071 1.400 . S
C1071 C1070 1.400 . S
C1071 C1072 1.398 . S
C1071 C1077 1.491 . S
C1072 H1063 0.950 . S
C1072 C1071 1.398 . S
C1072 C1073 1.391 . S
C1073 H1061 0.950 . S
C1073 C1069 1.393 . S
C1073 C1072 1.391 . S
C1074 H1064 0.950 . S
C1074 C1075 1.386 . S
C1074 C1076 1.391 . S
C1075 C1074 1.386 . S
C1075 C1079 1.393 . S
C1076 H1065 0.950 . S
C1076 C1074 1.391 . S
C1076 C1077 1.400 . S
C1077 C1071 1.491 . S
C1077 C1076 1.400 . S
C1077 C1078 1.398 . S
C1078 H1066 0.950 . S
C1078 C1077 1.398 . S
C1078 C1079 1.391 . S
C1079 H1067 0.950 . S
C1079 C1075 1.393 . S
C1079 C1078 1.391 . S
H1080 C1088 0.950 . S
H1081 C1093 0.950 . S
H1082 C1090 0.950 . S
H1083 C1092 0.950 . S
H1084 C1094 0.950 . S
H1085 C1096 0.950 . S
H1086 C1098 0.950 1_556 S
H1087 C1099 0.950 1_556 S
C1088 H1080 0.950 . S
C1088 C1089 1.386 1_556 S
C1088 C1090 1.391 . S
C1089 C1088 1.386 1_554 S
C1089 C1093 1.393 . S
C1090 H1082 0.950 . S
C1090 C1088 1.391 . S
C1090 C1091 1.400 1_556 S
C1091 C1090 1.400 1_554 S
C1091 C1092 1.398 . S
C1091 C1097 1.491 . S
C1092 H1083 0.950 . S
C1092 C1091 1.398 . S
C1092 C1093 1.391 . S
C1093 H1081 0.950 . S
C1093 C1089 1.393 . S
C1093 C1092 1.391 . S
C1094 H1084 0.950 . S
C1094 C1095 1.386 . S
C1094 C1096 1.391 . S
C1095 C1094 1.386 . S
C1095 C1099 1.393 . S
C1096 H1085 0.950 . S
C1096 C1094 1.391 . S
C1096 C1097 1.400 . S
C1097 C1091 1.491 . S
C1097 C1096 1.400 . S
C1097 C1098 1.398 . S
C1098 H1086 0.950 1_554 S
C1098 C1097 1.398 . S
C1098 C1099 1.391 . S
C1099 H1087 0.950 1_554 S
C1099 C1095 1.393 . S
C1099 C1098 1.391 . S
H1100 C1108 0.950 . S
H1101 C1113 0.950 . S
H1102 C1110 0.950 . S
H1103 C1112 0.950 . S
H1104 C1114 0.950 . S
H1105 C1116 0.950 . S
H1106 C1118 0.950 . S
H1107 C1119 0.950 . S
C1108 H1100 0.950 . S
C1108 C1109 1.386 . S
C1108 C1110 1.391 . S
C1109 C1108 1.386 . S
C1109 C1113 1.393 . S
C1110 H1102 0.950 . S
C1110 C1108 1.391 . S
C1110 C1111 1.400 . S
C1111 C1110 1.400 . S
C1111 C1112 1.398 . S
C1111 C1117 1.491 . S
C1112 H1103 0.950 . S
C1112 C1111 1.398 . S
C1112 C1113 1.391 . S
C1113 H1101 0.950 . S
C1113 C1109 1.393 . S
C1113 C1112 1.391 . S
C1114 H1104 0.950 . S
C1114 C1115 1.386 . S
C1114 C1116 1.391 . S
C1115 C1114 1.386 . S
C1115 C1119 1.393 . S
C1116 H1105 0.950 . S
C1116 C1114 1.391 . S
C1116 C1117 1.400 . S
C1117 C1111 1.491 . S
C1117 C1116 1.400 . S
C1117 C1118 1.398 . S
C1118 H1106 0.950 . S
C1118 C1117 1.398 . S
C1118 C1119 1.391 . S
C1119 H1107 0.950 . S
C1119 C1115 1.393 . S
C1119 C1118 1.391 . S
H1120 C1128 0.950 . S
H1121 C1133 0.950 . S
H1122 C1130 0.950 . S
H1123 C1132 0.950 . S
H1124 C1134 0.950 . S
H1125 C1136 0.950 . S
H1126 C1138 0.950 . S
H1127 C1139 0.950 . S
C1128 H1120 0.950 . S
C1128 C1129 1.386 . S
C1128 C1130 1.391 . S
C1129 C1128 1.386 . S
C1129 C1133 1.393 . S
C1130 H1122 0.950 . S
C1130 C1128 1.391 . S
C1130 C1131 1.400 . S
C1131 C1130 1.400 . S
C1131 C1132 1.398 . S
C1131 C1137 1.491 . S
C1132 H1123 0.950 . S
C1132 C1131 1.398 . S
C1132 C1133 1.391 . S
C1133 H1121 0.950 . S
C1133 C1129 1.393 . S
C1133 C1132 1.391 . S
C1134 H1124 0.950 . S
C1134 C1135 1.386 . S
C1134 C1136 1.391 . S
C1135 C1134 1.386 . S
C1135 C1139 1.393 . S
C1136 H1125 0.950 . S
C1136 C1134 1.391 . S
C1136 C1137 1.400 . S
C1137 C1131 1.491 . S
C1137 C1136 1.400 . S
C1137 C1138 1.398 . S
C1138 H1126 0.950 . S
C1138 C1137 1.398 . S
C1138 C1139 1.391 . S
C1139 H1127 0.950 . S
C1139 C1135 1.393 . S
C1139 C1138 1.391 . S
H1140 C1148 0.950 . S
H1141 C1153 0.950 . S
H1142 C1150 0.950 . S
H1143 C1152 0.950 . S
H1144 C1154 0.950 . S
H1145 C1156 0.950 . S
H1146 C1158 0.950 . S
H1147 C1159 0.950 . S
C1148 H1140 0.950 . S
C1148 C1149 1.386 . S
C1148 C1150 1.391 . S
C1149 C1148 1.386 . S
C1149 C1153 1.393 . S
C1150 H1142 0.950 . S
C1150 C1148 1.391 . S
C1150 C1151 1.400 . S
C1151 C1150 1.400 . S
C1151 C1152 1.398 . S
C1151 C1157 1.491 . S
C1152 H1143 0.950 . S
C1152 C1151 1.398 . S
C1152 C1153 1.391 . S
C1153 H1141 0.950 . S
C1153 C1149 1.393 . S
C1153 C1152 1.391 . S
C1154 H1144 0.950 . S
C1154 C1155 1.386 . S
C1154 C1156 1.391 . S
C1155 C1154 1.386 . S
C1155 C1159 1.393 . S
C1156 H1145 0.950 . S
C1156 C1154 1.391 . S
C1156 C1157 1.400 . S
C1157 C1151 1.491 . S
C1157 C1156 1.400 . S
C1157 C1158 1.398 . S
C1158 H1146 0.950 . S
C1158 C1157 1.398 . S
C1158 C1159 1.391 . S
C1159 H1147 0.950 . S
C1159 C1155 1.393 . S
C1159 C1158 1.391 . S
H1160 C1168 0.950 . S
H1161 C1173 0.950 . S
H1162 C1170 0.950 . S
H1163 C1172 0.950 . S
H1164 C1174 0.950 . S
H1165 C1176 0.950 . S
H1166 C1178 0.950 . S
H1167 C1179 0.950 . S
C1168 H1160 0.950 . S
C1168 C1169 1.386 . S
C1168 C1170 1.391 . S
C1169 C1168 1.386 . S
C1169 C1173 1.393 . S
C1170 H1162 0.950 . S
C1170 C1168 1.391 . S
C1170 C1171 1.400 . S
C1171 C1170 1.400 . S
C1171 C1172 1.398 . S
C1171 C1177 1.491 . S
C1172 H1163 0.950 . S
C1172 C1171 1.398 . S
C1172 C1173 1.391 . S
C1173 H1161 0.950 . S
C1173 C1169 1.393 . S
C1173 C1172 1.391 . S
C1174 H1164 0.950 . S
C1174 C1175 1.386 . S
C1174 C1176 1.391 . S
C1175 C1174 1.386 . S
C1175 C1179 1.393 . S
C1176 H1165 0.950 . S
C1176 C1174 1.391 . S
C1176 C1177 1.400 . S
C1177 C1171 1.491 . S
C1177 C1176 1.400 . S
C1177 C1178 1.398 . S
C1178 H1166 0.950 . S
C1178 C1177 1.398 . S
C1178 C1179 1.391 . S
C1179 H1167 0.950 . S
C1179 C1175 1.393 . S
C1179 C1178 1.391 . S
H1180 C1188 0.950 . S
H1181 C1193 0.950 . S
H1182 C1190 0.950 . S
H1183 C1192 0.950 . S
H1184 C1194 0.950 . S
H1185 C1196 0.950 . S
H1186 C1198 0.950 . S
H1187 C1199 0.950 . S
C1188 H1180 0.950 . S
C1188 C1189 1.386 . S
C1188 C1190 1.391 . S
C1189 C1188 1.386 . S
C1189 C1193 1.393 . S
C1190 H1182 0.950 . S
C1190 C1188 1.391 . S
C1190 C1191 1.400 . S
C1191 C1190 1.400 . S
C1191 C1192 1.398 . S
C1191 C1197 1.491 . S
C1192 H1183 0.950 . S
C1192 C1191 1.398 . S
C1192 C1193 1.391 . S
C1193 H1181 0.950 . S
C1193 C1189 1.393 . S
C1193 C1192 1.391 . S
C1194 H1184 0.950 . S
C1194 C1195 1.386 . S
C1194 C1196 1.391 . S
C1195 C1194 1.386 . S
C1195 C1199 1.393 . S
C1196 H1185 0.950 . S
C1196 C1194 1.391 . S
C1196 C1197 1.400 . S
C1197 C1191 1.491 . S
C1197 C1196 1.400 . S
C1197 C1198 1.398 . S
C1198 H1186 0.950 . S
C1198 C1197 1.398 . S
C1198 C1199 1.391 . S
C1199 H1187 0.950 . S
C1199 C1195 1.393 . S
C1199 C1198 1.391 . S
H1200 C1208 0.950 . S
H1201 C1213 0.950 . S
H1202 C1210 0.950 . S
H1203 C1212 0.950 . S
H1204 C1214 0.950 . S
H1205 C1216 0.950 . S
H1206 C1218 0.950 . S
H1207 C1219 0.950 . S
C1208 H1200 0.950 . S
C1208 C1209 1.386 . S
C1208 C1210 1.391 . S
C1209 C1208 1.386 . S
C1209 C1213 1.393 . S
C1210 H1202 0.950 . S
C1210 C1208 1.391 . S
C1210 C1211 1.400 . S
C1211 C1210 1.400 . S
C1211 C1212 1.398 . S
C1211 C1217 1.491 . S
C1212 H1203 0.950 . S
C1212 C1211 1.398 . S
C1212 C1213 1.391 . S
C1213 H1201 0.950 . S
C1213 C1209 1.393 . S
C1213 C1212 1.391 . S
C1214 H1204 0.950 . S
C1214 C1215 1.386 . S
C1214 C1216 1.391 . S
C1215 C1214 1.386 . S
C1215 C1219 1.393 . S
C1216 H1205 0.950 . S
C1216 C1214 1.391 . S
C1216 C1217 1.400 . S
C1217 C1211 1.491 . S
C1217 C1216 1.400 . S
C1217 C1218 1.398 . S
C1218 H1206 0.950 . S
C1218 C1217 1.398 . S
C1218 C1219 1.391 . S
C1219 H1207 0.950 . S
C1219 C1215 1.393 . S
C1219 C1218 1.391 . S
H1220 C1228 0.950 . S
H1221 C1233 0.950 . S
H1222 C1230 0.950 . S
H1223 C1232 0.950 . S
H1224 C1234 0.950 . S
H1225 C1236 0.950 . S
H1226 C1238 0.950 . S
H1227 C1239 0.950 . S
C1228 H1220 0.950 . S
C1228 C1229 1.386 . S
C1228 C1230 1.391 . S
C1229 C1228 1.386 . S
C1229 C1233 1.393 . S
C1230 H1222 0.950 . S
C1230 C1228 1.391 . S
C1230 C1231 1.400 . S
C1231 C1230 1.400 . S
C1231 C1232 1.398 . S
C1231 C1237 1.491 . S
C1232 H1223 0.950 . S
C1232 C1231 1.398 . S
C1232 C1233 1.391 . S
C1233 H1221 0.950 . S
C1233 C1229 1.393 . S
C1233 C1232 1.391 . S
C1234 H1224 0.950 . S
C1234 C1235 1.386 . S
C1234 C1236 1.391 . S
C1235 C1234 1.386 . S
C1235 C1239 1.393 . S
C1236 H1225 0.950 . S
C1236 C1234 1.391 . S
C1236 C1237 1.400 . S
C1237 C1231 1.491 . S
C1237 C1236 1.400 . S
C1237 C1238 1.398 . S
C1238 H1226 0.950 . S
C1238 C1237 1.398 . S
C1238 C1239 1.391 . S
C1239 H1227 0.950 . S
C1239 C1235 1.393 . S
C1239 C1238 1.391 . S
H1240 C1248 0.950 . S
H1241 C1253 0.950 . S
H1242 C1250 0.950 . S
H1243 C1252 0.950 . S
H1244 C1254 0.950 . S
H1245 C1256 0.950 . S
H1246 C1258 0.950 . S
H1247 C1259 0.950 . S
C1248 H1240 0.950 . S
C1248 C1249 1.386 . S
C1248 C1250 1.391 . S
C1249 C1248 1.386 . S
C1249 C1253 1.393 . S
C1250 H1242 0.950 . S
C1250 C1248 1.391 . S
C1250 C1251 1.400 . S
C1251 C1250 1.400 . S
C1251 C1252 1.398 . S
C1251 C1257 1.491 . S
C1252 H1243 0.950 . S
C1252 C1251 1.398 . S
C1252 C1253 1.391 . S
C1253 H1241 0.950 . S
C1253 C1249 1.393 . S
C1253 C1252 1.391 . S
C1254 H1244 0.950 . S
C1254 C1255 1.386 . S
C1254 C1256 1.391 . S
C1255 C1254 1.386 . S
C1255 C1259 1.393 . S
C1256 H1245 0.950 . S
C1256 C1254 1.391 . S
C1256 C1257 1.400 . S
C1257 C1251 1.491 . S
C1257 C1256 1.400 . S
C1257 C1258 1.398 . S
C1258 H1246 0.950 . S
C1258 C1257 1.398 . S
C1258 C1259 1.391 . S
C1259 H1247 0.950 . S
C1259 C1255 1.393 . S
C1259 C1258 1.391 . S
H1260 C1268 0.944 1_545 S
H1261 C1273 0.950 . S
H1262 C1270 0.941 1_545 S
H1263 C1272 0.950 . S
H1264 C1274 0.950 . S
H1265 C1276 0.950 . S
H1266 C1278 0.945 1_545 S
H1267 C1279 0.950 1_545 S
C1268 H1260 0.944 1_565 S
C1268 C1269 1.390 . S
C1268 C1270 1.390 . S
C1269 C1268 1.390 . S
C1269 C1273 1.393 . S
C1270 H1262 0.941 1_565 S
C1270 C1268 1.390 . S
C1270 C1271 1.413 . S
C1271 C1270 1.413 . S
C1271 C1272 1.398 . S
C1271 C1277 1.491 . S
C1272 H1263 0.950 . S
C1272 C1271 1.398 . S
C1272 C1273 1.391 . S
C1273 H1261 0.950 . S
C1273 C1269 1.393 . S
C1273 C1272 1.391 . S
C1274 H1264 0.950 . S
C1274 C1275 1.386 . S
C1274 C1276 1.391 . S
C1275 C1274 1.386 . S
C1275 C1279 1.393 . S
C1276 H1265 0.950 . S
C1276 C1274 1.391 . S
C1276 C1277 1.400 . S
C1277 C1271 1.491 . S
C1277 C1276 1.400 . S
C1277 C1278 1.402 . S
C1278 H1266 0.945 1_565 S
C1278 C1277 1.402 . S
C1278 C1279 1.392 . S
C1279 H1267 0.950 1_565 S
C1279 C1275 1.393 . S
C1279 C1278 1.392 . S
H1280 C1288 0.950 . S
H1281 C1293 0.950 . S
H1282 C1290 0.950 . S
H1283 C1292 0.950 . S
H1284 C1294 0.950 . S
H1285 C1296 0.950 . S
H1286 C1298 0.950 . S
H1287 C1299 0.950 . S
C1288 H1280 0.950 . S
C1288 C1289 1.386 . S
C1288 C1290 1.391 . S
C1289 C1288 1.386 . S
C1289 C1293 1.393 . S
C1290 H1282 0.950 . S
C1290 C1288 1.391 . S
C1290 C1291 1.400 . S
C1291 C1290 1.400 . S
C1291 C1292 1.398 . S
C1291 C1297 1.491 . S
C1292 H1283 0.950 . S
C1292 C1291 1.398 . S
C1292 C1293 1.391 . S
C1293 H1281 0.950 . S
C1293 C1289 1.393 . S
C1293 C1292 1.391 . S
C1294 H1284 0.950 . S
C1294 C1295 1.386 . S
C1294 C1296 1.391 . S
C1295 C1294 1.386 . S
C1295 C1299 1.393 . S
C1296 H1285 0.950 . S
C1296 C1294 1.391 . S
C1296 C1297 1.400 . S
C1297 C1291 1.491 . S
C1297 C1296 1.400 . S
C1297 C1298 1.398 . S
C1298 H1286 0.950 . S
C1298 C1297 1.398 . S
C1298 C1299 1.391 . S
C1299 H1287 0.950 . S
C1299 C1295 1.393 . S
C1299 C1298 1.391 . S
H1300 C1308 0.950 . S
H1301 C1313 0.950 . S
H1302 C1310 0.950 . S
H1303 C1312 0.950 . S
H1304 C1314 0.950 . S
H1305 C1316 0.950 . S
H1306 C1318 0.950 . S
H1307 C1319 0.950 . S
C1308 H1300 0.950 . S
C1308 C1309 1.386 1_565 S
C1308 C1310 1.391 . S
C1309 C1308 1.386 1_545 S
C1309 C1313 1.393 . S
C1310 H1302 0.950 . S
C1310 C1308 1.391 . S
C1310 C1311 1.400 1_565 S
C1311 C1310 1.400 1_545 S
C1311 C1312 1.398 . S
C1311 C1317 1.491 . S
C1312 H1303 0.950 . S
C1312 C1311 1.398 . S
C1312 C1313 1.391 . S
C1313 H1301 0.950 . S
C1313 C1309 1.393 . S
C1313 C1312 1.391 . S
C1314 H1304 0.950 . S
C1314 C1315 1.372 1_545 S
C1314 C1316 1.391 . S
C1315 C1314 1.372 1_565 S
C1315 C1319 1.406 . S
C1316 H1305 0.950 . S
C1316 C1314 1.391 . S
C1316 C1317 1.400 . S
C1317 C1311 1.491 . S
C1317 C1316 1.400 . S
C1317 C1318 1.398 1_545 S
C1318 H1306 0.950 . S
C1318 C1317 1.398 1_565 S
C1318 C1319 1.391 . S
C1319 H1307 0.950 . S
C1319 C1315 1.406 . S
C1319 C1318 1.391 . S
H1320 C1328 0.950 . S
H1321 C1333 0.950 . S
H1322 C1330 0.950 . S
H1323 C1332 0.950 . S
H1324 C1334 0.950 . S
H1325 C1336 0.950 . S
H1326 C1338 0.950 . S
H1327 C1339 0.950 . S
C1328 H1320 0.950 . S
C1328 C1329 1.386 . S
C1328 C1330 1.391 . S
C1329 C1328 1.386 . S
C1329 C1333 1.393 . S
C1330 H1322 0.950 . S
C1330 C1328 1.391 . S
C1330 C1331 1.400 . S
C1331 C1330 1.400 . S
C1331 C1332 1.398 . S
C1331 C1337 1.491 . S
C1332 H1323 0.950 . S
C1332 C1331 1.398 . S
C1332 C1333 1.391 . S
C1333 H1321 0.950 . S
C1333 C1329 1.393 . S
C1333 C1332 1.391 . S
C1334 H1324 0.950 . S
C1334 C1335 1.386 . S
C1334 C1336 1.391 . S
C1335 C1334 1.386 . S
C1335 C1339 1.393 . S
C1336 H1325 0.950 . S
C1336 C1334 1.391 . S
C1336 C1337 1.400 . S
C1337 C1331 1.491 . S
C1337 C1336 1.400 . S
C1337 C1338 1.398 . S
C1338 H1326 0.950 . S
C1338 C1337 1.398 . S
C1338 C1339 1.391 . S
C1339 H1327 0.950 . S
C1339 C1335 1.393 . S
C1339 C1338 1.391 . S
H1340 C1348 0.950 . S
H1341 C1353 0.950 . S
H1342 C1350 0.950 . S
H1343 C1352 0.950 . S
H1344 C1354 0.950 . S
H1345 C1356 0.950 . S
H1346 C1358 0.950 1_554 S
H1347 C1359 0.968 . S
C1348 H1340 0.950 . S
C1348 C1349 1.386 1_554 S
C1348 C1350 1.391 . S
C1349 C1348 1.386 1_556 S
C1349 C1353 1.393 . S
C1350 H1342 0.950 . S
C1350 C1348 1.391 . S
C1350 C1351 1.400 1_554 S
C1351 C1350 1.400 1_556 S
C1351 C1352 1.398 . S
C1351 C1357 1.491 . S
C1352 H1343 0.950 . S
C1352 C1351 1.398 . S
C1352 C1353 1.391 . S
C1353 H1341 0.950 . S
C1353 C1349 1.393 . S
C1353 C1352 1.391 . S
C1354 H1344 0.950 . S
C1354 C1355 1.386 . S
C1354 C1356 1.391 . S
C1355 C1354 1.386 . S
C1355 C1359 1.393 . S
C1356 H1345 0.950 . S
C1356 C1354 1.391 . S
C1356 C1357 1.400 . S
C1357 C1351 1.491 . S
C1357 C1356 1.400 . S
C1357 C1358 1.398 . S
C1358 H1346 0.950 1_556 S
C1358 C1357 1.398 . S
C1358 C1359 1.391 . S
C1359 H1347 0.968 . S
C1359 C1355 1.393 . S
C1359 C1358 1.391 . S
H1360 C1368 0.950 . S
H1361 C1373 0.950 . S
H1362 C1370 0.950 . S
H1363 C1372 0.950 . S
H1364 C1374 0.950 . S
H1365 C1376 0.950 . S
H1366 C1378 0.950 . S
H1367 C1379 0.950 . S
C1368 H1360 0.950 . S
C1368 C1369 1.386 . S
C1368 C1370 1.391 . S
C1369 C1368 1.386 . S
C1369 C1373 1.393 . S
C1370 H1362 0.950 . S
C1370 C1368 1.391 . S
C1370 C1371 1.400 . S
C1371 C1370 1.400 . S
C1371 C1372 1.398 . S
C1371 C1377 1.491 . S
C1372 H1363 0.950 . S
C1372 C1371 1.398 . S
C1372 C1373 1.391 . S
C1373 H1361 0.950 . S
C1373 C1369 1.393 . S
C1373 C1372 1.391 . S
C1374 H1364 0.950 . S
C1374 C1375 1.386 . S
C1374 C1376 1.391 . S
C1375 C1374 1.386 . S
C1375 C1379 1.393 . S
C1376 H1365 0.950 . S
C1376 C1374 1.391 . S
C1376 C1377 1.400 . S
C1377 C1371 1.491 . S
C1377 C1376 1.400 . S
C1377 C1378 1.398 . S
C1378 H1366 0.950 . S
C1378 C1377 1.398 . S
C1378 C1379 1.391 . S
C1379 H1367 0.950 . S
C1379 C1375 1.393 . S
C1379 C1378 1.391 . S
H1380 C1388 0.950 . S
H1381 C1393 0.950 . S
H1382 C1390 0.950 . S
H1383 C1392 0.950 . S
H1384 C1394 0.950 . S
H1385 C1396 0.950 . S
H1386 C1398 0.950 . S
H1387 C1399 0.982 . S
C1388 H1380 0.950 . S
C1388 C1389 1.386 1_556 S
C1388 C1390 1.391 . S
C1389 C1388 1.386 1_554 S
C1389 C1393 1.393 . S
C1390 H1382 0.950 . S
C1390 C1388 1.391 . S
C1390 C1391 1.400 1_556 S
C1391 C1390 1.400 1_554 S
C1391 C1392 1.398 . S
C1391 C1397 1.491 . S
C1392 H1383 0.950 . S
C1392 C1391 1.398 . S
C1392 C1393 1.391 . S
C1393 H1381 0.950 . S
C1393 C1389 1.393 . S
C1393 C1392 1.391 . S
C1394 H1384 0.950 . S
C1394 C1395 1.386 . S
C1394 C1396 1.391 . S
C1395 C1394 1.386 . S
C1395 C1399 1.355 1_554 S
C1396 H1385 0.950 . S
C1396 C1394 1.391 . S
C1396 C1397 1.400 . S
C1397 C1391 1.491 . S
C1397 C1396 1.400 . S
C1397 C1398 1.398 1_554 S
C1398 H1386 0.950 . S
C1398 C1397 1.398 1_556 S
C1398 C1399 1.398 . S
C1399 H1387 0.982 . S
C1399 C1395 1.355 1_556 S
C1399 C1398 1.398 . S
C449 C13 1.531 . S
C455 C236 1.530 1_545 S
C475 C299 1.757 . S
C469 C1 1.762 . S
C495 C176 1.779 1_565 S
C489 C27 1.776 . S
C509 C15 1.669 . S
C515 C210 1.668 . S
C529 C28 1.738 . S
C535 C414 1.730 1_554 S
C549 C55 1.085 . S
C555 C385 1.084 . S
C575 C308 1.932 . S
C569 C40 1.997 . S
C589 C43 1.347 . S
C595 C342 1.327 . S
C615 C231 1.897 . S
C609 C56 1.916 . S
C635 C274 1.320 . S
C629 C83 1.342 . S
C649 C96 1.881 . S
C655 C253 1.850 1_655 S
C669 C71 1.529 . S
C675 C367 1.514 . S
C695 C372 1.525 . S
C689 C99 1.523 . S
C715 C435 1.756 . S
C709 C111 1.760 . S
C729 C113 1.770 . S
C735 C346 1.783 . S
C755 C312 1.669 . S
C749 C125 1.672 . S
C769 C139 1.741 . S
C775 C278 1.729 . S
C789 C153 1.087 . S
C795 C249 1.078 1_545 S
C815 C206 1.924 . S
C809 C127 1.991 . S
C829 C141 1.330 . S
C835 C172 1.303 1_565 S
C855 C333 1.897 . S
C849 C84 1.916 . S
C875 C410 1.320 . S
C869 C154 1.337 1_556 S
C889 C68 1.887 . S
C895 C389 1.856 . S
C909 C166 1.530 . S
C915 C197 1.524 1_655 S
C935 C181 1.044 . S
C929 C0 1.069 . S
C949 C12 1.031 . S
C955 C215 1.029 . S
C975 C240 1.009 . S
C969 C14 1.010 . S
C995 C287 1.809 . S
C989 C26 1.824 . S
C1009 C41 1.494 . S
C1015 C168 1.466 . S
C1029 C42 1.391 . S
C1035 C202 1.376 . S
C1055 C244 1.506 . S
C1049 C29 1.542 1_565 S
C1069 C54 0.938 . S
C1075 C283 0.913 . S
C1089 C69 1.622 . S
C1095 C185 1.592 . S
C1115 C265 1.647 . S
C1109 C70 1.682 . S
C1129 C85 1.560 . S
C1135 C270 1.550 . S
C1149 C82 1.465 . S
C1155 C321 1.437 . S
C1175 C351 1.042 . S
C1169 C110 1.064 . S
C1189 C98 1.049 . S
C1195 C317 1.055 . S
C1209 C124 1.007 . S
C1215 C376 0.979 . S
C1229 C112 1.830 . S
C1235 C423 1.807 . S
C1249 C126 1.495 . S
C1255 C338 1.459 . S
C1275 C304 1.392 . S
C1269 C140 1.398 . S
C1289 C138 1.548 . S
C1295 C380 1.508 . S
C1315 C419 0.920 1_565 S
C1309 C152 0.935 . S
C1335 C355 1.583 . S
C1329 C97 1.632 . S
C1355 C401 1.657 . S
C1349 C167 1.689 . S
C1375 C406 1.556 . S
C1369 C57 1.560 . S
C1389 C155 1.463 . S
C1395 C219 1.452 . S
