# Generated by pormake.
# Topology ctn, (3,4)-cn, num edge types: 1
# Building blocks:
#     Node 0, Type 0, BuildingBlock: OLANEW_clean_sbu_2, # of connection points: 3
#     Node 1, Type 0, BuildingBlock: OLANEW_clean_sbu_2, # of connection points: 3
#     Node 2, Type 0, BuildingBlock: OLANEW_clean_sbu_2, # of connection points: 3
#     Node 3, Type 0, BuildingBlock: OLANEW_clean_sbu_2, # of connection points: 3
#     Node 4, Type 0, BuildingBlock: OLANEW_clean_sbu_2, # of connection points: 3
#     Node 5, Type 0, BuildingBlock: OLANEW_clean_sbu_2, # of connection points: 3
#     Node 6, Type 0, BuildingBlock: OLANEW_clean_sbu_2, # of connection points: 3
#     Node 7, Type 0, BuildingBlock: OLANEW_clean_sbu_2, # of connection points: 3
#     Node 8, Type 0, BuildingBlock: OLANEW_clean_sbu_2, # of connection points: 3
#     Node 9, Type 0, BuildingBlock: OLANEW_clean_sbu_2, # of connection points: 3
#     Node 10, Type 0, BuildingBlock: OLANEW_clean_sbu_2, # of connection points: 3
#     Node 11, Type 0, BuildingBlock: OLANEW_clean_sbu_2, # of connection points: 3
#     Node 12, Type 0, BuildingBlock: OLANEW_clean_sbu_2, # of connection points: 3
#     Node 13, Type 0, BuildingBlock: OLANEW_clean_sbu_2, # of connection points: 3
#     Node 14, Type 0, BuildingBlock: OLANEW_clean_sbu_2, # of connection points: 3
#     Node 15, Type 0, BuildingBlock: OLANEW_clean_sbu_2, # of connection points: 3
#     Node 16, Type 1, BuildingBlock: KUFVIS_clean_sbu_0, # of connection points: 4
#     Node 17, Type 1, BuildingBlock: KUFVIS_clean_sbu_0, # of connection points: 4
#     Node 18, Type 1, BuildingBlock: KUFVIS_clean_sbu_0, # of connection points: 4
#     Node 19, Type 1, BuildingBlock: KUFVIS_clean_sbu_0, # of connection points: 4
#     Node 20, Type 1, BuildingBlock: KUFVIS_clean_sbu_0, # of connection points: 4
#     Node 21, Type 1, BuildingBlock: KUFVIS_clean_sbu_0, # of connection points: 4
#     Node 22, Type 1, BuildingBlock: KUFVIS_clean_sbu_0, # of connection points: 4
#     Node 23, Type 1, BuildingBlock: KUFVIS_clean_sbu_0, # of connection points: 4
#     Node 24, Type 1, BuildingBlock: KUFVIS_clean_sbu_0, # of connection points: 4
#     Node 25, Type 1, BuildingBlock: KUFVIS_clean_sbu_0, # of connection points: 4
#     Node 26, Type 1, BuildingBlock: KUFVIS_clean_sbu_0, # of connection points: 4
#     Node 27, Type 1, BuildingBlock: KUFVIS_clean_sbu_0, # of connection points: 4
#     Edge 28, Type (0, 1), None
#     Edge 29, Type (0, 1), None
#     Edge 30, Type (0, 1), None
#     Edge 31, Type (0, 1), None
#     Edge 32, Type (0, 1), None
#     Edge 33, Type (0, 1), None
#     Edge 34, Type (0, 1), None
#     Edge 35, Type (0, 1), None
#     Edge 36, Type (0, 1), None
#     Edge 37, Type (0, 1), None
#     Edge 38, Type (0, 1), None
#     Edge 39, Type (0, 1), None
#     Edge 40, Type (0, 1), None
#     Edge 41, Type (0, 1), None
#     Edge 42, Type (0, 1), None
#     Edge 43, Type (0, 1), None
#     Edge 44, Type (0, 1), None
#     Edge 45, Type (0, 1), None
#     Edge 46, Type (0, 1), None
#     Edge 47, Type (0, 1), None
#     Edge 48, Type (0, 1), None
#     Edge 49, Type (0, 1), None
#     Edge 50, Type (0, 1), None
#     Edge 51, Type (0, 1), None
#     Edge 52, Type (0, 1), None
#     Edge 53, Type (0, 1), None
#     Edge 54, Type (0, 1), None
#     Edge 55, Type (0, 1), None
#     Edge 56, Type (0, 1), None
#     Edge 57, Type (0, 1), None
#     Edge 58, Type (0, 1), None
#     Edge 59, Type (0, 1), None
#     Edge 60, Type (0, 1), None
#     Edge 61, Type (0, 1), None
#     Edge 62, Type (0, 1), None
#     Edge 63, Type (0, 1), None
#     Edge 64, Type (0, 1), None
#     Edge 65, Type (0, 1), None
#     Edge 66, Type (0, 1), None
#     Edge 67, Type (0, 1), None
#     Edge 68, Type (0, 1), None
#     Edge 69, Type (0, 1), None
#     Edge 70, Type (0, 1), None
#     Edge 71, Type (0, 1), None
#     Edge 72, Type (0, 1), None
#     Edge 73, Type (0, 1), None
#     Edge 74, Type (0, 1), None
#     Edge 75, Type (0, 1), None
# Relax obj value: 0.080
# Max RMSD: 0.172
# Mean RMSD: 0.097
data_MOF--net-ctn--node1-OLANEW_clean_sbu_2--node2-KUFVIS_clean_sbu_0--edge1-none
_symmetry_space_group_name_H-M    P1
_symmetry_Int_Tables_number       1
_symmetry_cell_setting            triclinic
loop_
_symmetry_equiv_pos_as_xyz
'x, y, z'
_cell_length_a     27.050421
_cell_length_b     27.111182
_cell_length_c     25.865747
_cell_angle_alpha  91.449814
_cell_angle_beta   96.060295
_cell_angle_gamma 99.137851
loop_
_atom_site_label
_atom_site_type_symbol
_atom_site_fract_x
_atom_site_fract_y
_atom_site_fract_z
_atom_type_partial_charge
O0 O 0.0668 0.08793 0.98439 0.0
Cd1 Cd 0.07582 1.00361 0.0158 0.0
O2 O 0.01553 0.10089 0.04281 0.0
Cd3 Cd 0.01922 0.03792 0.09326 0.0
O4 O 0.98086 0.99778 0.15397 0.0
C5 C 0.95843 0.02308 0.18336 0.0
O6 O 0.96154 0.07145 0.17772 0.0
C7 C 0.03747 0.11451 0.00317 0.0
C8 C 0.1574 0.95439 -0.00165 0.0
O9 O 0.12298 0.95797 0.96124 0.0
O10 O 0.15492 0.9761 0.0424 0.0
O11 O 0.39017 0.72972 0.31125 0.0
Cd12 Cd 0.30925 0.72415 0.25578 0.0
O13 O 0.40014 0.65203 0.29445 0.0
Cd14 Cd 0.32353 0.63524 0.25352 0.0
O15 O 0.24459 0.59852 0.24653 0.0
C16 C 0.2081 0.61862 0.25978 0.0
O17 O 0.21623 0.66606 0.27433 0.0
C18 C 0.41603 0.69446 0.31732 0.0
C19 C 0.30087 0.78497 0.1699 0.0
O20 O 0.29161 0.79956 0.21486 0.0
O21 O 0.31641 0.74294 0.16575 0.0
O22 O 0.98784 0.55301 0.1421 0.0
Cd23 Cd 0.94987 0.55087 0.05221 0.0
O24 O 0.02248 0.48443 0.15509 0.0
Cd25 Cd 0.00887 0.43791 0.0833 0.0
O26 O 0.00273 0.36717 0.03825 0.0
C27 C 0.03795 0.34548 0.02414 0.0
O28 O 0.08521 0.36673 0.03452 0.0
C29 C 0.012 0.52587 0.17139 0.0
C30 C 0.86639 0.60079 0.04245 0.0
O31 O 0.86109 0.55304 0.03799 0.0
O32 O 0.91099 0.62553 0.05168 0.0
O33 O 0.74293 0.93383 0.14424 0.0
Cd34 Cd 0.66485 0.87604 0.11826 0.0
O35 O 0.73156 0.88302 0.20692 0.0
Cd36 Cd 0.73123 0.86054 0.28666 0.0
O37 O 0.68099 0.81781 0.3355 0.0
C38 C 0.63527 0.82436 0.33131 0.0
O39 O 0.62066 0.85822 0.30039 0.0
C40 C 0.75692 0.92123 0.18961 0.0
C41 C 0.67866 0.79077 0.06437 0.0
O42 O 0.66177 0.82681 0.04102 0.0
O43 O 0.68959 0.79475 0.11382 0.0
O44 O 0.10888 0.08025 0.56346 0.0
Cd45 Cd 0.0293 0.03224 0.58538 0.0
O46 O 0.10024 0.06404 0.47906 0.0
Cd47 Cd 0.02711 0.0197 0.48369 0.0
O48 O 0.9559 0.99914 0.43662 0.0
C49 C 0.95381 0.96467 0.40213 0.0
O50 O 0.9912 0.93913 0.40203 0.0
C51 C 0.1248 0.08695 0.5192 0.0
C52 C 0.02593 0.93308 0.61484 0.0
O53 O 0.00755 0.9431 0.56934 0.0
O54 O 0.04776 0.96948 0.64584 0.0
O55 O 0.24887 0.71992 0.97418 0.0
Cd56 Cd 0.25051 0.62968 0.96792 0.0
O57 O 0.17232 0.71723 0.93574 0.0
Cd58 Cd 0.1016 0.74037 0.90527 0.0
O59 O 0.04233 0.74717 0.84262 0.0
C60 C 0.03709 0.71887 0.80179 0.0
O61 O 0.06529 0.68395 0.79876 0.0
C62 C 0.21198 0.74216 0.96033 0.0
C63 C 0.28347 0.5845 0.88286 0.0
O64 O 0.31382 0.61609 0.91348 0.0
O65 O 0.23699 0.57577 0.8907 0.0
O66 O 0.00616 0.54114 0.44828 0.0
Cd67 Cd 0.96287 0.54217 0.52655 0.0
O68 O 0.97453 0.60563 0.41652 0.0
Cd69 Cd 0.93873 0.62198 0.48601 0.0
O70 O 0.93472 0.67287 0.55228 0.0
C71 C 0.97659 0.6872 0.57958 0.0
O72 O 0.01649 0.66974 0.56697 0.0
C73 C 0.0011 0.57133 0.41195 0.0
C74 C 0.87927 0.46725 0.51836 0.0
O75 O 0.87857 0.50829 0.49508 0.0
O76 O 0.91987 0.46081 0.54574 0.0
O77 O 0.84816 0.78333 0.91702 0.0
Cd78 Cd 0.87604 0.86337 0.87829 0.0
O79 O 0.78259 0.8195 0.90025 0.0
Cd80 Cd 0.70666 0.83556 0.90292 0.0
O81 O 0.65773 0.88995 0.88172 0.0
C82 C 0.67115 0.93605 0.89491 0.0
O83 O 0.71332 0.95075 0.92516 0.0
C84 C 0.80096 0.78151 0.91582 0.0
C85 C 0.90189 0.8402 0.78109 0.0
O86 O 0.9357 0.85699 0.81855 0.0
O87 O 0.8555 0.83646 0.78875 0.0
O88 O 0.34815 0.28335 0.41706 0.0
Cd89 Cd 0.37597 0.3634 0.37833 0.0
O90 O 0.28256 0.31948 0.40026 0.0
Cd91 Cd 0.20661 0.33551 0.40289 0.0
O92 O 0.1577 0.38991 0.38167 0.0
C93 C 0.17113 0.43601 0.39486 0.0
O94 O 0.2133 0.4507 0.42512 0.0
C95 C 0.30095 0.28151 0.41585 0.0
C96 C 0.4018 0.34026 0.28112 0.0
O97 O 0.43561 0.35707 0.31857 0.0
O98 O 0.35541 0.33648 0.2888 0.0
O99 O 0.48786 0.053 0.64212 0.0
Cd100 Cd 0.4499 0.05086 0.55222 0.0
O101 O 0.52249 0.98442 0.65513 0.0
Cd102 Cd 0.50888 0.93789 0.58334 0.0
O103 O 0.50275 0.86715 0.53827 0.0
C104 C 0.53797 0.84547 0.52415 0.0
O105 O 0.58522 0.86672 0.53453 0.0
C106 C 0.51201 0.02586 0.67141 0.0
C107 C 0.36643 0.10078 0.54245 0.0
O108 O 0.36113 0.05303 0.53799 0.0
O109 O 0.41103 0.12552 0.55169 0.0
O110 O 0.24289 0.43378 0.64421 0.0
Cd111 Cd 0.16482 0.37597 0.61826 0.0
O112 O 0.23154 0.38299 0.70691 0.0
Cd113 Cd 0.23122 0.36053 0.78665 0.0
O114 O 0.18098 0.3178 0.8355 0.0
C115 C 0.13525 0.32435 0.83131 0.0
O116 O 0.12064 0.3582 0.80038 0.0
C117 C 0.25689 0.4212 0.68958 0.0
C118 C 0.17864 0.2907 0.56437 0.0
O119 O 0.16173 0.32673 0.54102 0.0
O120 O 0.18958 0.29469 0.61381 0.0
O121 O 0.89016 0.22971 0.81128 0.0
Cd122 Cd 0.80923 0.22416 0.7558 0.0
O123 O 0.90013 0.15203 0.79445 0.0
Cd124 Cd 0.82352 0.13524 0.75352 0.0
O125 O 0.74458 0.09853 0.74654 0.0
C126 C 0.7081 0.11863 0.7598 0.0
O127 O 0.71623 0.16607 0.77435 0.0
C128 C 0.91601 0.19445 0.81733 0.0
C129 C 0.80088 0.28498 0.66993 0.0
O130 O 0.79162 0.29958 0.71489 0.0
O131 O 0.8164 0.24294 0.66578 0.0
O132 O 0.56682 0.58793 0.48436 0.0
Cd133 Cd 0.57586 0.5036 0.51576 0.0
O134 O 0.51554 0.60087 0.54278 0.0
Cd135 Cd 0.51922 0.5379 0.59323 0.0
O136 O 0.48085 0.49776 0.65393 0.0
C137 C 0.45841 0.52307 0.6833 0.0
O138 O 0.4615 0.57144 0.67765 0.0
C139 C 0.53749 0.6145 0.50315 0.0
C140 C 0.65745 0.4544 0.49833 0.0
O141 O 0.62303 0.45798 0.46121 0.0
O142 O 0.65496 0.47611 0.54237 0.0
O143 O 0.60884 0.5803 0.06344 0.0
Cd144 Cd 0.52925 0.53229 0.08533 0.0
O145 O 0.6002 0.56411 0.97905 0.0
Cd146 Cd 0.52707 0.51977 0.98365 0.0
O147 O 0.45587 0.49921 0.93656 0.0
C148 C 0.45379 0.46472 0.90209 0.0
O149 O 0.49118 0.43918 0.90201 0.0
C150 C 0.62477 0.58701 0.01919 0.0
C151 C 0.52587 0.43315 0.11485 0.0
O152 O 0.50752 0.44315 0.06933 0.0
O153 O 0.54768 0.46957 0.14584 0.0
O154 O 0.74887 0.21989 0.47422 0.0
Cd155 Cd 0.75049 0.12966 0.46797 0.0
O156 O 0.67232 0.21723 0.43577 0.0
Cd157 Cd 0.60164 0.24044 0.4053 0.0
O158 O 0.54241 0.24733 0.34264 0.0
C159 C 0.53703 0.21894 0.30186 0.0
O160 O 0.56504 0.18385 0.29889 0.0
C161 C 0.71199 0.24215 0.46036 0.0
C162 C 0.78349 0.08448 0.38293 0.0
O163 O 0.81382 0.11606 0.41357 0.0
O164 O 0.737 0.07575 0.39074 0.0
O165 O 0.50613 0.04115 0.9483 0.0
Cd166 Cd 0.46283 0.04219 0.02655 0.0
O167 O 0.47457 0.10569 0.91657 0.0
Cd168 Cd 0.43879 0.12206 0.98607 0.0
O169 O 0.43476 0.17295 0.05234 0.0
C170 C 0.47663 0.18729 0.07966 0.0
O171 O 0.51654 0.16984 0.06707 0.0
C172 C 0.5011 0.07137 0.91198 0.0
C173 C 0.37923 0.96727 0.01836 0.0
O174 O 0.37853 0.00832 0.99508 0.0
O175 O 0.41982 0.96083 0.04574 0.0
Mn176 Mn 0.25889 0.84956 0.04758 0.0
Mn177 Mn 0.25858 0.87563 0.92132 0.0
C178 C 0.21393 0.79285 0.98278 0.0
C179 C 0.28894 0.81303 0.12339 0.0
C180 C 0.19607 0.92246 0.99238 0.0
O181 O 0.32202 0.90199 0.04905 0.0
O182 O 0.31244 0.92144 0.96468 0.0
C183 C 0.35669 0.84338 0.90931 0.0
N184 N 0.30622 0.83911 0.89481 0.0
C185 C 0.30889 0.77338 0.83135 0.0
C186 C 0.36084 0.77707 0.84566 0.0
C187 C 0.38479 0.81213 0.88493 0.0
C188 C 0.28263 0.8047 0.85791 0.0
H189 H 0.37545 0.87033 0.93929 0.0
C190 C 0.33523 0.92787 0.01079 0.0
O191 O 0.26351 0.84965 0.12531 0.0
O192 O 0.2987 0.79887 0.07783 0.0
N193 N 0.20928 0.83441 0.87385 0.0
C194 C 0.16112 0.84136 0.85924 0.0
C195 C 0.13364 0.81424 0.81581 0.0
C196 C 0.15523 0.77902 0.78876 0.0
C197 C 0.20512 0.77307 0.80391 0.0
C198 C 0.23152 0.80299 0.846 0.0
H199 H 0.14451 0.86899 0.87919 0.0
O200 O 0.19988 0.79488 0.02915 0.0
O201 O 0.25191 0.82661 0.97534 0.0
O202 O 0.21427 0.90349 0.03332 0.0
O203 O 0.20741 0.91269 0.94686 0.0
C204 C 0.23058 0.74089 0.7769 0.0
C205 C 0.28232 0.74055 0.7911 0.0
H206 H 0.38275 0.75346 0.82648 0.0
H207 H 0.4249 0.81527 0.89617 0.0
H208 H 0.09619 0.82124 0.80272 0.0
H209 H 0.13388 0.75819 0.75517 0.0
H210 H 0.21097 0.71697 0.7445 0.0
H211 H 0.30161 0.71592 0.76983 0.0
Mn212 Mn 0.10942 0.52894 0.31536 0.0
Mn213 Mn 0.07696 0.64127 0.28613 0.0
C214 C 0.16322 0.58521 0.27314 0.0
C215 C 0.1447 0.47275 0.36805 0.0
C216 C 0.03584 0.54631 0.2225 0.0
O217 O 0.05601 0.53506 0.36335 0.0
O218 O 0.03613 0.60963 0.34026 0.0
C219 C 0.10767 0.69772 0.38701 0.0
N220 N 0.11082 0.69295 0.33494 0.0
C221 C 0.15661 0.77662 0.33414 0.0
C222 C 0.15349 0.78253 0.38768 0.0
C223 C 0.12931 0.74275 0.41429 0.0
C224 C 0.13449 0.73083 0.30908 0.0
H225 H 0.08822 0.66769 0.40749 0.0
C226 C 0.03144 0.57096 0.36796 0.0
O227 O 0.10858 0.45799 0.33143 0.0
O228 O 0.15953 0.52066 0.37577 0.0
N229 N 0.11345 0.67722 0.23566 0.0
C230 C 0.11443 0.66488 0.18441 0.0
C231 C 0.13957 0.69966 0.1528 0.0
C232 C 0.16263 0.74698 0.17396 0.0
C233 C 0.16105 0.75885 0.22679 0.0
C234 C 0.13606 0.72243 0.25654 0.0
H235 H 0.09604 0.62885 0.16777 0.0
O236 O 0.16382 0.53747 0.26969 0.0
O237 O 0.13063 0.5997 0.30187 0.0
O238 O 0.05794 0.51765 0.25147 0.0
O239 O 0.03975 0.59309 0.23196 0.0
C240 C 0.18329 0.80533 0.25113 0.0
C241 C 0.18099 0.81425 0.30473 0.0
H242 H 0.16997 0.81726 0.40883 0.0
H243 H 0.12693 0.74695 0.45563 0.0
H244 H 0.14067 0.69024 0.11207 0.0
H245 H 0.18144 0.77388 0.14929 0.0
H246 H 0.20234 0.83448 0.229 0.0
H247 H 0.19842 0.85006 0.32304 0.0
Mn248 Mn 0.75185 0.66522 0.01686 0.0
Mn249 Mn 0.65671 0.69122 0.9322 0.0
C250 C 0.67398 0.6176 0.01637 0.0
C251 C 0.8225 0.62624 0.0335 0.0
C252 C 0.68567 0.7467 0.03412 0.0
O253 O 0.78862 0.71211 0.9687 0.0
O254 O 0.7217 0.73312 0.92112 0.0
C255 C 0.69497 0.64615 0.84215 0.0
N256 N 0.6569 0.64901 0.87203 0.0
C257 C 0.59948 0.5896 0.81513 0.0
C258 C 0.63799 0.58601 0.78361 0.0
C259 C 0.68606 0.61421 0.79738 0.0
C260 C 0.61094 0.62121 0.85986 0.0
H261 H 0.73177 0.66821 0.85231 0.0
C262 C 0.76887 0.73907 0.93573 0.0
O263 O 0.81764 0.66576 0.06083 0.0
O264 O 0.78692 0.60979 0.9969 0.0
N265 N 0.59017 0.65643 0.93606 0.0
C266 C 0.55677 0.66578 0.96953 0.0
C267 C 0.50641 0.64203 0.9603 0.0
C268 C 0.49066 0.61 0.91608 0.0
C269 C 0.52561 0.60133 0.8819 0.0
C270 C 0.57526 0.62597 0.89315 0.0
H271 H 0.56841 0.69166 0.00263 0.0
O272 O 0.70785 0.6185 0.05583 0.0
O273 O 0.68745 0.64294 0.97618 0.0
O274 O 0.72355 0.72497 0.04769 0.0
O275 O 0.65518 0.73502 0.99295 0.0
C276 C 0.51294 0.57014 0.83646 0.0
C277 C 0.54999 0.56364 0.80356 0.0
H278 H 0.63103 0.56192 0.74868 0.0
H279 H 0.716 0.61169 0.77327 0.0
H280 H 0.47957 0.64913 0.98666 0.0
H281 H 0.45153 0.59268 0.90849 0.0
H282 H 0.47478 0.55125 0.82623 0.0
H283 H 0.53991 0.53915 0.76908 0.0
Mn284 Mn 0.84137 0.00755 0.28898 0.0
Mn285 Mn 0.87765 0.89838 0.25584 0.0
C286 C 0.79363 0.95533 0.22452 0.0
C287 C 0.80282 0.05558 0.34329 0.0
C288 C 0.92443 0.99795 0.21876 0.0
O289 O 0.8916 0.99702 0.3497 0.0
O290 O 0.91315 0.92401 0.32455 0.0
C291 C 0.83252 0.83729 0.33747 0.0
N292 N 0.83745 0.84491 0.28629 0.0
C293 C 0.78843 0.76448 0.2606 0.0
C294 C 0.78259 0.75575 0.313 0.0
C295 C 0.80439 0.79252 0.35157 0.0
C296 C 0.81538 0.81048 0.2488 0.0
H297 H 0.85011 0.86506 0.36725 0.0
C298 C 0.91603 0.96092 0.35694 0.0
O299 O 0.83936 0.07572 0.31814 0.0
O300 O 0.78775 0.00774 0.33618 0.0
N301 N 0.84745 0.86784 0.19046 0.0
C302 C 0.85722 0.88211 0.14194 0.0
C303 C 0.84063 0.84867 0.09915 0.0
C304 C 0.81499 0.80071 0.10682 0.0
C305 C 0.80418 0.78719 0.15695 0.0
C306 C 0.82159 0.8222 0.19809 0.0
H307 H 0.87881 0.91818 0.13608 0.0
O308 O 0.79 1.00254 0.22724 0.0
O309 O 0.82428 0.93968 0.26029 0.0
O310 O 0.89788 0.02423 0.24222 0.0
O311 O 0.92057 0.95063 0.2215 0.0
C312 C 0.77836 0.73992 0.16811 0.0
C313 C 0.76961 0.72896 0.21973 0.0
H314 H 0.76172 0.72087 0.32409 0.0
H315 H 0.80013 0.78605 0.39209 0.0
H316 H 0.849 0.85924 0.06055 0.0
H317 H 0.80503 0.77448 0.07392 0.0
H318 H 0.76517 0.71154 0.13751 0.0
H319 H 0.74927 0.6927 0.22767 0.0
Mn320 Mn 0.25187 0.16519 0.51686 0.0
Mn321 Mn 0.15672 0.19116 0.4322 0.0
C322 C 0.17401 0.11754 0.51637 0.0
C323 C 0.32253 0.12622 0.53351 0.0
C324 C 0.18566 0.24663 0.53412 0.0
O325 O 0.28863 0.21209 0.4687 0.0
O326 O 0.2217 0.23308 0.42113 0.0
C327 C 0.19502 0.14611 0.34216 0.0
N328 N 0.15694 0.14896 0.37203 0.0
C329 C 0.09954 0.08952 0.31513 0.0
C330 C 0.13807 0.08596 0.28362 0.0
C331 C 0.18612 0.11417 0.29739 0.0
C332 C 0.11098 0.12114 0.35986 0.0
H333 H 0.23181 0.16819 0.35232 0.0
C334 C 0.26887 0.23905 0.43574 0.0
O335 O 0.31766 0.16574 0.56083 0.0
O336 O 0.28695 0.10977 0.49689 0.0
N337 N 0.09019 0.15635 0.43605 0.0
C338 C 0.05677 0.16568 0.46951 0.0
C339 C 0.00642 0.14192 0.46027 0.0
C340 C 0.99069 0.10989 0.41604 0.0
C341 C 0.02565 0.10123 0.38187 0.0
C342 C 0.0753 0.12588 0.39314 0.0
H343 H 0.0684 0.19157 0.5026 0.0
O344 O 0.20789 0.11845 0.55584 0.0
O345 O 0.18747 0.14289 0.47618 0.0
O346 O 0.22355 0.22492 0.54769 0.0
O347 O 0.15517 0.23495 0.49296 0.0
C348 C 0.013 0.07003 0.33645 0.0
C349 C 0.05007 0.06354 0.30355 0.0
H350 H 0.13112 0.06186 0.24869 0.0
H351 H 0.21607 0.11167 0.27329 0.0
H352 H 0.97957 0.14902 0.48661 0.0
H353 H 0.95157 0.09256 0.40845 0.0
H354 H 0.97485 0.05113 0.32621 0.0
H355 H 0.04 0.03905 0.26907 0.0
Mn356 Mn 0.34133 0.50755 0.78892 0.0
Mn357 Mn 0.37763 0.39839 0.75582 0.0
C358 C 0.2936 0.45532 0.72447 0.0
C359 C 0.30279 0.5556 0.84321 0.0
C360 C 0.4244 0.49795 0.71871 0.0
O361 O 0.39157 0.49705 0.84964 0.0
O362 O 0.41313 0.42403 0.82452 0.0
C363 C 0.33251 0.33731 0.83745 0.0
N364 N 0.33744 0.34492 0.78628 0.0
C365 C 0.28843 0.26448 0.7606 0.0
C366 C 0.28259 0.25576 0.813 0.0
C367 C 0.30439 0.29254 0.85156 0.0
C368 C 0.31537 0.31048 0.74879 0.0
H369 H 0.3501 0.36509 0.86723 0.0
C370 C 0.41601 0.46096 0.8569 0.0
O371 O 0.33933 0.57573 0.81806 0.0
O372 O 0.28773 0.50776 0.83612 0.0
N373 N 0.34744 0.36783 0.69044 0.0
C374 C 0.35721 0.38209 0.64192 0.0
C375 C 0.34062 0.34864 0.59914 0.0
C376 C 0.31498 0.30069 0.60681 0.0
C377 C 0.30418 0.28717 0.65695 0.0
C378 C 0.32158 0.32219 0.69807 0.0
H379 H 0.37879 0.41817 0.63605 0.0
O380 O 0.28996 0.50253 0.72718 0.0
O381 O 0.32425 0.43968 0.76025 0.0
O382 O 0.39784 0.52423 0.74215 0.0
O383 O 0.42055 0.45063 0.72147 0.0
C384 C 0.27836 0.23991 0.66812 0.0
C385 C 0.26961 0.22895 0.71974 0.0
H386 H 0.26173 0.22088 0.8241 0.0
H387 H 0.30013 0.28607 0.89209 0.0
H388 H 0.34899 0.3592 0.56053 0.0
H389 H 0.30503 0.27445 0.57392 0.0
H390 H 0.26517 0.21152 0.63752 0.0
H391 H 0.24928 0.1927 0.72769 0.0
Mn392 Mn 0.75892 0.34956 0.54759 0.0
Mn393 Mn 0.75863 0.3756 0.42133 0.0
C394 C 0.71396 0.29285 0.4828 0.0
C395 C 0.78896 0.31304 0.62341 0.0
C396 C 0.69612 0.42246 0.49236 0.0
O397 O 0.82206 0.40198 0.54906 0.0
O398 O 0.81249 0.42141 0.46469 0.0
C399 C 0.85672 0.34331 0.40934 0.0
N400 N 0.80625 0.33906 0.39484 0.0
C401 C 0.8089 0.27327 0.33144 0.0
C402 C 0.86085 0.27694 0.34575 0.0
C403 C 0.88482 0.31203 0.38499 0.0
C404 C 0.78265 0.30462 0.35797 0.0
H405 H 0.87549 0.37028 0.43931 0.0
C406 C 0.83528 0.42785 0.51079 0.0
O407 O 0.76354 0.34966 0.62532 0.0
O408 O 0.79872 0.29887 0.57785 0.0
N409 N 0.70933 0.33439 0.37386 0.0
C410 C 0.66118 0.34137 0.35922 0.0
C411 C 0.6337 0.31424 0.3158 0.0
C412 C 0.65527 0.27897 0.2888 0.0
C413 C 0.70514 0.27299 0.30398 0.0
C414 C 0.73155 0.30293 0.34605 0.0
H415 H 0.64459 0.36904 0.37912 0.0
O416 O 0.6999 0.29489 0.52917 0.0
O417 O 0.75194 0.3266 0.47536 0.0
O418 O 0.71431 0.4035 0.53332 0.0
O419 O 0.70746 0.41269 0.44685 0.0
C420 C 0.73059 0.24077 0.277 0.0
C421 C 0.78232 0.24041 0.29121 0.0
H422 H 0.88275 0.25331 0.3266 0.0
H423 H 0.92492 0.31515 0.39624 0.0
H424 H 0.59627 0.32127 0.30267 0.0
H425 H 0.6339 0.25812 0.25523 0.0
H426 H 0.71097 0.21683 0.24461 0.0
H427 H 0.80161 0.21576 0.26996 0.0
Mn428 Mn 0.60942 0.02896 0.8154 0.0
Mn429 Mn 0.57696 0.14128 0.78614 0.0
C430 C 0.66322 0.08522 0.77317 0.0
C431 C 0.64471 0.97278 0.8681 0.0
C432 C 0.53584 0.04631 0.72253 0.0
O433 O 0.55601 0.03509 0.86339 0.0
O434 O 0.53613 0.10965 0.84028 0.0
C435 C 0.60767 0.19775 0.88701 0.0
N436 N 0.61082 0.19296 0.83494 0.0
C437 C 0.6566 0.27664 0.83413 0.0
C438 C 0.65349 0.28256 0.88766 0.0
C439 C 0.6293 0.24278 0.91428 0.0
C440 C 0.63449 0.23084 0.80908 0.0
H441 H 0.58821 0.16773 0.9075 0.0
C442 C 0.53144 0.07098 0.86799 0.0
O443 O 0.60859 0.95801 0.83149 0.0
O444 O 0.65953 0.02069 0.87581 0.0
N445 N 0.61344 0.17722 0.73566 0.0
C446 C 0.61442 0.16487 0.68442 0.0
C447 C 0.63957 0.19964 0.6528 0.0
C448 C 0.66263 0.24697 0.67396 0.0
C449 C 0.66105 0.25884 0.72678 0.0
C450 C 0.63605 0.22244 0.75654 0.0
H451 H 0.59604 0.12884 0.66778 0.0
O452 O 0.66382 0.03747 0.76973 0.0
O453 O 0.63062 0.09971 0.80189 0.0
O454 O 0.55794 0.01765 0.75151 0.0
O455 O 0.53975 0.09308 0.73198 0.0
C456 C 0.68329 0.30533 0.75111 0.0
C457 C 0.68099 0.31426 0.80471 0.0
H458 H 0.66996 0.31729 0.90881 0.0
H459 H 0.62692 0.24699 0.95562 0.0
H460 H 0.64068 0.19021 0.61208 0.0
H461 H 0.68144 0.27386 0.64928 0.0
H462 H 0.70234 0.33447 0.72898 0.0
H463 H 0.69842 0.35007 0.82301 0.0
Mn464 Mn 0.04047 0.23829 0.89857 0.0
Mn465 Mn 0.93595 0.21627 0.9586 0.0
C466 C 0.96408 0.20352 0.85112 0.0
C467 C 0.09845 0.29186 0.85792 0.0
C468 C 0.02331 0.15843 0.97626 0.0
O469 O 0.05639 0.2829 0.96595 0.0
O470 O 0.97799 0.27778 0.99046 0.0
C471 C 0.88476 0.30251 0.93261 0.0
N472 N 0.88441 0.25222 0.93192 0.0
C473 C 0.79659 0.23565 0.89962 0.0
C474 C 0.79588 0.28728 0.89996 0.0
C475 C 0.84028 0.32086 0.91603 0.0
C476 C 0.84228 0.21965 0.91515 0.0
H477 H 0.91859 0.32835 0.94612 0.0
C478 C 0.02411 0.29851 0.99261 0.0
O479 O 0.11109 0.25389 0.88242 0.0
O480 O 0.05196 0.29897 0.85673 0.0
N481 N 0.89191 0.15762 0.92931 0.0
C482 C 0.89962 0.10913 0.92806 0.0
C483 C 0.85939 0.07096 0.91073 0.0
C484 C 0.81141 0.08288 0.89596 0.0
C485 C 0.80443 0.133 0.89765 0.0
C486 C 0.8462 0.16955 0.91391 0.0
H487 H 0.93595 0.0994 0.94063 0.0
O488 O 0.00634 0.19797 0.83374 0.0
O489 O 0.96835 0.2282 0.89512 0.0
O490 O 0.04571 0.17446 0.93784 0.0
O491 O 0.98534 0.17574 0.99022 0.0
C492 C 0.75751 0.14811 0.88457 0.0
C493 C 0.75373 0.19936 0.8852 0.0
H494 H 0.76159 0.30162 0.88801 0.0
H495 H 0.84002 0.36075 0.9164 0.0
H496 H 0.86516 0.03237 0.90962 0.0
H497 H 0.78022 0.0533 0.88339 0.0
H498 H 0.72414 0.12063 0.87369 0.0
H499 H 0.71768 0.21031 0.87434 0.0
Mn500 Mn 0.54048 0.7383 0.39856 0.0
Mn501 Mn 0.43597 0.71626 0.45859 0.0
C502 C 0.46409 0.70353 0.35111 0.0
C503 C 0.59846 0.79187 0.35793 0.0
C504 C 0.52332 0.65842 0.47624 0.0
O505 O 0.5564 0.78289 0.46595 0.0
O506 O 0.478 0.77777 0.49046 0.0
C507 C 0.38477 0.80251 0.43261 0.0
N508 N 0.38442 0.75221 0.43191 0.0
C509 C 0.2966 0.73564 0.39961 0.0
C510 C 0.29589 0.78727 0.39996 0.0
C511 C 0.34029 0.82085 0.41604 0.0
C512 C 0.34229 0.71964 0.41514 0.0
H513 H 0.4186 0.82834 0.44612 0.0
C514 C 0.52411 0.7985 0.49261 0.0
O515 O 0.6111 0.7539 0.38241 0.0
O516 O 0.55197 0.79898 0.35673 0.0
N517 N 0.39193 0.65761 0.4293 0.0
C518 C 0.39964 0.60912 0.42804 0.0
C519 C 0.35941 0.57095 0.4107 0.0
C520 C 0.31142 0.58287 0.39593 0.0
C521 C 0.30445 0.63299 0.39763 0.0
C522 C 0.34621 0.66954 0.41389 0.0
H523 H 0.43596 0.59939 0.44061 0.0
O524 O 0.50635 0.69798 0.33373 0.0
O525 O 0.46836 0.7282 0.39511 0.0
O526 O 0.54572 0.67445 0.43783 0.0
O527 O 0.48535 0.67573 0.4902 0.0
C528 C 0.25753 0.6481 0.38455 0.0
C529 C 0.25374 0.69935 0.38519 0.0
H530 H 0.26159 0.80161 0.38801 0.0
H531 H 0.34002 0.86074 0.41641 0.0
H532 H 0.36518 0.53236 0.40958 0.0
H533 H 0.28024 0.5533 0.38336 0.0
H534 H 0.22416 0.62062 0.37366 0.0
H535 H 0.21769 0.71029 0.37432 0.0
Mn536 Mn 0.99698 0.80353 0.66781 0.0
Mn537 Mn 0.90541 0.70902 0.69015 0.0
C538 C 0.98388 0.73155 0.61497 0.0
C539 C 0.01741 0.88179 0.6329 0.0
C540 C 0.00701 0.73145 0.75525 0.0
O541 O 0.95832 0.83356 0.71988 0.0
O542 O 0.89196 0.77234 0.72193 0.0
C543 C 0.82079 0.74184 0.62528 0.0
N544 N 0.84961 0.70611 0.63781 0.0
C545 C 0.79559 0.64528 0.57941 0.0
C546 C 0.76521 0.68136 0.5658 0.0
C547 C 0.77814 0.73 0.5885 0.0
C548 C 0.83842 0.65976 0.61506 0.0
H549 H 0.83015 0.77892 0.64353 0.0
C550 C 0.91653 0.81572 0.73563 0.0
O551 O 0.04547 0.86774 0.67187 0.0
O552 O 0.9784 0.85016 0.61348 0.0
N553 N 0.91185 0.64453 0.66297 0.0
C554 C 0.94506 0.61426 0.68062 0.0
C555 C 0.93644 0.56375 0.6637 0.0
C556 C 0.89338 0.54479 0.62954 0.0
C557 C 0.8603 0.57684 0.61092 0.0
C558 C 0.87079 0.62677 0.62928 0.0
H559 H 0.97705 0.62818 0.70861 0.0
O560 O 0.02505 0.76367 0.61579 0.0
O561 O 0.95007 0.74399 0.64293 0.0
O562 O 0.02724 0.76581 0.72763 0.0
O563 O 0.96168 0.70869 0.7458 0.0
C564 C 0.81648 0.56093 0.57625 0.0
C565 C 0.7846 0.59532 0.55982 0.0
H566 H 0.73178 0.6721 0.53817 0.0
H567 H 0.75487 0.75804 0.57825 0.0
H568 H 0.96205 0.53912 0.6782 0.0
H569 H 0.88551 0.50533 0.61898 0.0
H570 H 0.80679 0.52233 0.56206 0.0
H571 H 0.75131 0.58274 0.53278 0.0
Mn572 Mn 0.49691 0.30363 0.16788 0.0
Mn573 Mn 0.40538 0.20906 0.19019 0.0
C574 C 0.48388 0.23162 0.11506 0.0
C575 C 0.51736 0.38187 0.13293 0.0
C576 C 0.50695 0.23153 0.25532 0.0
O577 O 0.4582 0.33367 0.21987 0.0
O578 O 0.39194 0.27235 0.22203 0.0
C579 C 0.32076 0.24193 0.12537 0.0
N580 N 0.34957 0.20619 0.13787 0.0
C581 C 0.29554 0.1454 0.07943 0.0
C582 C 0.26516 0.18149 0.06585 0.0
C583 C 0.2781 0.23011 0.08859 0.0
C584 C 0.33838 0.15985 0.11507 0.0
H585 H 0.33012 0.27899 0.14365 0.0
C586 C 0.41645 0.31578 0.23566 0.0
O587 O 0.54539 0.36784 0.17194 0.0
O588 O 0.47836 0.35022 0.11349 0.0
N589 N 0.41181 0.14458 0.16296 0.0
C590 C 0.44501 0.11429 0.18059 0.0
C591 C 0.43637 0.06379 0.16364 0.0
C592 C 0.39331 0.04486 0.12948 0.0
C593 C 0.36024 0.07693 0.11087 0.0
C594 C 0.37074 0.12685 0.12926 0.0
H595 H 0.477 0.12819 0.20858 0.0
O596 O 0.52505 0.26375 0.11592 0.0
O597 O 0.45004 0.24406 0.14298 0.0
O598 O 0.52715 0.26595 0.22775 0.0
O599 O 0.46166 0.20868 0.24582 0.0
C600 C 0.31642 0.06104 0.0762 0.0
C601 C 0.28455 0.09545 0.0598 0.0
H602 H 0.23173 0.17225 0.03823 0.0
H603 H 0.25484 0.25816 0.07837 0.0
H604 H 0.46197 0.03915 0.17812 0.0
H605 H 0.38542 1.0054 0.1189 0.0
H606 H 0.30672 0.02245 0.06198 0.0
H607 H 0.25125 0.08289 0.03276 0.0
loop_
_geom_bond_atom_site_label_1
_geom_bond_atom_site_label_2
_geom_bond_distance
_geom_bond_site_symmetry_2
_ccdc_geom_bond_type
O0 Cd1 2.300 1_556 S
O0 C7 1.275 1_556 S
Cd1 O0 2.300 1_554 S
Cd1 O9 2.381 1_544 S
Cd1 O10 2.378 1_545 S
O2 Cd3 2.385 . S
O2 C7 1.255 . S
Cd3 O2 2.385 . S
Cd3 O4 2.317 1_455 S
O4 Cd3 2.317 1_655 S
O4 C5 1.232 . S
C5 O4 1.232 . S
C5 O6 1.218 . S
O6 C5 1.218 . S
C7 O0 1.275 1_554 S
C7 O2 1.255 . S
C8 O9 1.258 1_554 S
C8 O10 1.256 . S
O9 Cd1 2.381 1_566 S
O9 C8 1.258 1_556 S
O10 Cd1 2.378 1_565 S
O10 C8 1.256 . S
O11 Cd12 2.300 . S
O11 C18 1.275 . S
Cd12 O11 2.300 . S
Cd12 O20 2.381 . S
Cd12 O21 2.378 . S
O13 Cd14 2.385 . S
O13 C18 1.255 . S
Cd14 O13 2.385 . S
Cd14 O15 2.317 . S
O15 Cd14 2.317 . S
O15 C16 1.232 . S
C16 O15 1.232 . S
C16 O17 1.218 . S
O17 C16 1.218 . S
C18 O11 1.275 . S
C18 O13 1.255 . S
C19 O20 1.258 . S
C19 O21 1.256 . S
O20 Cd12 2.381 . S
O20 C19 1.258 . S
O21 Cd12 2.378 . S
O21 C19 1.256 . S
O22 Cd23 2.300 . S
O22 C29 1.275 1_655 S
Cd23 O22 2.300 . S
Cd23 O31 2.381 . S
Cd23 O32 2.378 . S
O24 Cd25 2.385 . S
O24 C29 1.255 . S
Cd25 O24 2.385 . S
Cd25 O26 2.317 . S
O26 Cd25 2.317 . S
O26 C27 1.232 . S
C27 O26 1.232 . S
C27 O28 1.218 . S
O28 C27 1.218 . S
C29 O22 1.275 1_455 S
C29 O24 1.255 . S
C30 O31 1.258 . S
C30 O32 1.256 . S
O31 Cd23 2.381 . S
O31 C30 1.258 . S
O32 Cd23 2.378 . S
O32 C30 1.256 . S
O33 Cd34 2.300 . S
O33 C40 1.275 . S
Cd34 O33 2.300 . S
Cd34 O42 2.381 . S
Cd34 O43 2.378 . S
O35 Cd36 2.385 . S
O35 C40 1.255 . S
Cd36 O35 2.385 . S
Cd36 O37 2.317 . S
O37 Cd36 2.317 . S
O37 C38 1.232 . S
C38 O37 1.232 . S
C38 O39 1.218 . S
O39 C38 1.218 . S
C40 O33 1.275 . S
C40 O35 1.255 . S
C41 O42 1.258 . S
C41 O43 1.256 . S
O42 Cd34 2.381 . S
O42 C41 1.258 . S
O43 Cd34 2.378 . S
O43 C41 1.256 . S
O44 Cd45 2.300 1_545 S
O44 C51 1.275 . S
Cd45 O44 2.300 1_565 S
Cd45 O53 2.381 . S
Cd45 O54 2.378 . S
O46 Cd47 2.385 1_455 S
O46 C51 1.255 . S
Cd47 O46 2.385 1_655 S
Cd47 O48 2.317 . S
O48 Cd47 2.317 . S
O48 C49 1.232 . S
C49 O48 1.232 . S
C49 O50 1.218 . S
O50 C49 1.218 . S
C51 O44 1.275 . S
C51 O46 1.255 . S
C52 O53 1.258 . S
C52 O54 1.256 . S
O53 Cd45 2.381 . S
O53 C52 1.258 . S
O54 Cd45 2.378 . S
O54 C52 1.256 . S
O55 Cd56 2.300 . S
O55 C62 1.275 . S
Cd56 O55 2.300 . S
Cd56 O64 2.381 . S
Cd56 O65 2.378 . S
O57 Cd58 2.385 . S
O57 C62 1.255 . S
Cd58 O57 2.385 . S
Cd58 O59 2.317 . S
O59 Cd58 2.317 . S
O59 C60 1.232 . S
C60 O59 1.232 . S
C60 O61 1.218 . S
O61 C60 1.218 . S
C62 O55 1.275 . S
C62 O57 1.255 . S
C63 O64 1.258 . S
C63 O65 1.256 . S
O64 Cd56 2.381 . S
O64 C63 1.258 . S
O65 Cd56 2.378 . S
O65 C63 1.256 . S
O66 Cd67 2.300 1_455 S
O66 C73 1.275 . S
Cd67 O66 2.300 1_655 S
Cd67 O75 2.381 . S
Cd67 O76 2.378 . S
O68 Cd69 2.385 . S
O68 C73 1.255 . S
Cd69 O68 2.385 . S
Cd69 O70 2.317 . S
O70 Cd69 2.317 . S
O70 C71 1.232 . S
C71 O70 1.232 . S
C71 O72 1.218 . S
O72 C71 1.218 . S
C73 O66 1.275 . S
C73 O68 1.255 . S
C74 O75 1.258 . S
C74 O76 1.256 . S
O75 Cd67 2.381 . S
O75 C74 1.258 . S
O76 Cd67 2.378 . S
O76 C74 1.256 . S
O77 Cd78 2.300 . S
O77 C84 1.275 . S
Cd78 O77 2.300 . S
Cd78 O86 2.381 . S
Cd78 O87 2.378 . S
O79 Cd80 2.385 . S
O79 C84 1.255 . S
Cd80 O79 2.385 . S
Cd80 O81 2.317 . S
O81 Cd80 2.317 . S
O81 C82 1.232 . S
C82 O81 1.232 . S
C82 O83 1.218 . S
O83 C82 1.218 . S
C84 O77 1.275 . S
C84 O79 1.255 . S
C85 O86 1.258 . S
C85 O87 1.256 . S
O86 Cd78 2.381 . S
O86 C85 1.258 . S
O87 Cd78 2.378 . S
O87 C85 1.256 . S
O88 Cd89 2.300 . S
O88 C95 1.275 . S
Cd89 O88 2.300 . S
Cd89 O97 2.381 . S
Cd89 O98 2.378 . S
O90 Cd91 2.385 . S
O90 C95 1.255 . S
Cd91 O90 2.385 . S
Cd91 O92 2.317 . S
O92 Cd91 2.317 . S
O92 C93 1.232 . S
C93 O92 1.232 . S
C93 O94 1.218 . S
O94 C93 1.218 . S
C95 O88 1.275 . S
C95 O90 1.255 . S
C96 O97 1.258 . S
C96 O98 1.256 . S
O97 Cd89 2.381 . S
O97 C96 1.258 . S
O98 Cd89 2.378 . S
O98 C96 1.256 . S
O99 Cd100 2.300 . S
O99 C106 1.275 1_545 S
Cd100 O99 2.300 . S
Cd100 O108 2.381 . S
Cd100 O109 2.378 . S
O101 Cd102 2.385 . S
O101 C106 1.255 . S
Cd102 O101 2.385 . S
Cd102 O103 2.317 . S
O103 Cd102 2.317 . S
O103 C104 1.232 . S
C104 O103 1.232 . S
C104 O105 1.218 . S
O105 C104 1.218 . S
C106 O99 1.275 1_565 S
C106 O101 1.255 . S
C107 O108 1.258 . S
C107 O109 1.256 . S
O108 Cd100 2.381 . S
O108 C107 1.258 . S
O109 Cd100 2.378 . S
O109 C107 1.256 . S
O110 Cd111 2.300 . S
O110 C117 1.275 . S
Cd111 O110 2.300 . S
Cd111 O119 2.381 . S
Cd111 O120 2.378 . S
O112 Cd113 2.385 . S
O112 C117 1.255 . S
Cd113 O112 2.385 . S
Cd113 O114 2.317 . S
O114 Cd113 2.317 . S
O114 C115 1.232 . S
C115 O114 1.232 . S
C115 O116 1.218 . S
O116 C115 1.218 . S
C117 O110 1.275 . S
C117 O112 1.255 . S
C118 O119 1.258 . S
C118 O120 1.256 . S
O119 Cd111 2.381 . S
O119 C118 1.258 . S
O120 Cd111 2.378 . S
O120 C118 1.256 . S
O121 Cd122 2.300 . S
O121 C128 1.275 . S
Cd122 O121 2.300 . S
Cd122 O130 2.381 . S
Cd122 O131 2.378 . S
O123 Cd124 2.385 . S
O123 C128 1.255 . S
Cd124 O123 2.385 . S
Cd124 O125 2.317 . S
O125 Cd124 2.317 . S
O125 C126 1.232 . S
C126 O125 1.232 . S
C126 O127 1.218 . S
O127 C126 1.218 . S
C128 O121 1.275 . S
C128 O123 1.255 . S
C129 O130 1.258 . S
C129 O131 1.256 . S
O130 Cd122 2.381 . S
O130 C129 1.258 . S
O131 Cd122 2.378 . S
O131 C129 1.256 . S
O132 Cd133 2.300 . S
O132 C139 1.275 . S
Cd133 O132 2.300 . S
Cd133 O141 2.381 . S
Cd133 O142 2.378 . S
O134 Cd135 2.385 . S
O134 C139 1.255 . S
Cd135 O134 2.385 . S
Cd135 O136 2.317 . S
O136 Cd135 2.317 . S
O136 C137 1.232 . S
C137 O136 1.232 . S
C137 O138 1.218 . S
O138 C137 1.218 . S
C139 O132 1.275 . S
C139 O134 1.255 . S
C140 O141 1.258 . S
C140 O142 1.256 . S
O141 Cd133 2.381 . S
O141 C140 1.258 . S
O142 Cd133 2.378 . S
O142 C140 1.256 . S
O143 Cd144 2.300 . S
O143 C150 1.274 . S
Cd144 O143 2.300 . S
Cd144 O152 2.381 . S
Cd144 O153 2.378 . S
O145 Cd146 2.385 1_554 S
O145 C150 1.255 . S
Cd146 O145 2.385 1_556 S
Cd146 O147 2.317 . S
O147 Cd146 2.317 . S
O147 C148 1.232 . S
C148 O147 1.232 . S
C148 O149 1.218 . S
O149 C148 1.218 . S
C150 O143 1.274 . S
C150 O145 1.255 . S
C151 O152 1.258 . S
C151 O153 1.256 . S
O152 Cd144 2.381 . S
O152 C151 1.258 . S
O153 Cd144 2.378 . S
O153 C151 1.256 . S
O154 Cd155 2.300 . S
O154 C161 1.275 . S
Cd155 O154 2.300 . S
Cd155 O163 2.381 . S
Cd155 O164 2.378 . S
O156 Cd157 2.385 . S
O156 C161 1.255 . S
Cd157 O156 2.385 . S
Cd157 O158 2.317 . S
O158 Cd157 2.317 . S
O158 C159 1.232 . S
C159 O158 1.232 . S
C159 O160 1.218 . S
O160 C159 1.218 . S
C161 O154 1.275 . S
C161 O156 1.255 . S
C162 O163 1.258 . S
C162 O164 1.256 . S
O163 Cd155 2.381 . S
O163 C162 1.258 . S
O164 Cd155 2.378 . S
O164 C162 1.256 . S
O165 Cd166 2.300 1_546 S
O165 C172 1.275 . S
Cd166 O165 2.300 1_564 S
Cd166 O174 2.381 1_554 S
Cd166 O175 2.378 . S
O167 Cd168 2.385 1_556 S
O167 C172 1.255 . S
Cd168 O167 2.385 1_554 S
Cd168 O169 2.317 . S
O169 Cd168 2.317 . S
O169 C170 1.232 . S
C170 O169 1.232 . S
C170 O171 1.218 . S
O171 C170 1.218 . S
C172 O165 1.275 . S
C172 O167 1.255 . S
C173 O174 1.258 . S
C173 O175 1.256 1_556 S
O174 Cd166 2.381 1_556 S
O174 C173 1.258 . S
O175 Cd166 2.378 . S
O175 C173 1.256 1_554 S
Mn176 O181 2.095 . S
Mn176 O191 2.162 . S
Mn176 O192 2.297 . S
Mn176 O200 2.385 1_554 S
Mn176 O201 2.209 1_554 S
Mn176 O202 2.094 . S
Mn177 O182 2.121 . S
Mn177 N184 2.257 . S
Mn177 N193 2.282 . S
Mn177 O201 2.215 . S
Mn177 O203 2.117 . S
C178 O200 1.234 . S
C178 O201 1.283 . S
C179 O191 1.281 . S
C179 O192 1.236 . S
C180 O202 1.240 . S
C180 O203 1.264 1_554 S
O181 Mn176 2.095 . S
O181 C190 1.250 1_554 S
O182 Mn177 2.121 . S
O182 C190 1.258 . S
C183 N184 1.326 . S
C183 C187 1.460 . S
C183 H189 0.929 . S
N184 Mn177 2.257 . S
N184 C183 1.326 . S
N184 C188 1.362 . S
C185 C186 1.258 . S
C185 C188 1.431 . S
C185 C205 1.449 . S
C186 C185 1.258 . S
C186 C187 1.477 . S
C186 H206 0.931 . S
C187 C183 1.460 . S
C187 C186 1.477 . S
C187 H207 0.930 . S
C188 N184 1.362 . S
C188 C185 1.431 . S
C188 C198 1.476 . S
H189 C183 0.929 . S
C190 O181 1.250 1_556 S
C190 O182 1.258 . S
O191 Mn176 2.162 . S
O191 C179 1.281 . S
O192 Mn176 2.297 . S
O192 C179 1.236 . S
N193 Mn177 2.282 . S
N193 C194 1.328 . S
N193 C198 1.318 . S
C194 N193 1.328 . S
C194 C195 1.457 . S
C194 H199 0.929 . S
C195 C194 1.457 . S
C195 C196 1.291 . S
C195 H208 0.931 . S
C196 C195 1.291 . S
C196 C197 1.373 . S
C196 H209 0.929 . S
C197 C196 1.373 . S
C197 C198 1.396 . S
C197 C204 1.403 . S
C198 C188 1.476 . S
C198 N193 1.318 . S
C198 C197 1.396 . S
H199 C194 0.929 . S
O200 Mn176 2.385 1_556 S
O200 C178 1.234 . S
O201 Mn176 2.209 1_556 S
O201 Mn177 2.215 . S
O201 C178 1.283 . S
O202 Mn176 2.094 . S
O202 C180 1.240 . S
O203 Mn177 2.117 . S
O203 C180 1.264 1_556 S
C204 C197 1.403 . S
C204 C205 1.399 . S
C204 H210 0.929 . S
C205 C185 1.449 . S
C205 C204 1.399 . S
C205 H211 0.930 . S
H206 C186 0.931 . S
H207 C187 0.930 . S
H208 C195 0.931 . S
H209 C196 0.929 . S
H210 C204 0.929 . S
H211 C205 0.930 . S
Mn212 O217 2.095 . S
Mn212 O227 2.162 . S
Mn212 O228 2.297 . S
Mn212 O236 2.385 . S
Mn212 O237 2.209 . S
Mn212 O238 2.094 . S
Mn213 O218 2.121 . S
Mn213 N220 2.257 . S
Mn213 N229 2.282 . S
Mn213 O237 2.215 . S
Mn213 O239 2.117 . S
C214 O236 1.234 . S
C214 O237 1.283 . S
C215 O227 1.281 . S
C215 O228 1.236 . S
C216 O238 1.240 . S
C216 O239 1.264 . S
O217 Mn212 2.095 . S
O217 C226 1.250 . S
O218 Mn213 2.121 . S
O218 C226 1.258 . S
C219 N220 1.326 . S
C219 C223 1.460 . S
C219 H225 0.929 . S
N220 Mn213 2.257 . S
N220 C219 1.326 . S
N220 C224 1.362 . S
C221 C222 1.258 . S
C221 C224 1.431 . S
C221 C241 1.449 . S
C222 C221 1.258 . S
C222 C223 1.477 . S
C222 H242 0.931 . S
C223 C219 1.460 . S
C223 C222 1.477 . S
C223 H243 0.930 . S
C224 N220 1.362 . S
C224 C221 1.431 . S
C224 C234 1.476 . S
H225 C219 0.929 . S
C226 O217 1.250 . S
C226 O218 1.258 . S
O227 Mn212 2.162 . S
O227 C215 1.281 . S
O228 Mn212 2.297 . S
O228 C215 1.236 . S
N229 Mn213 2.282 . S
N229 C230 1.328 . S
N229 C234 1.318 . S
C230 N229 1.328 . S
C230 C231 1.457 . S
C230 H235 0.929 . S
C231 C230 1.457 . S
C231 C232 1.291 . S
C231 H244 0.931 . S
C232 C231 1.291 . S
C232 C233 1.373 . S
C232 H245 0.929 . S
C233 C232 1.373 . S
C233 C234 1.396 . S
C233 C240 1.403 . S
C234 C224 1.476 . S
C234 N229 1.318 . S
C234 C233 1.396 . S
H235 C230 0.929 . S
O236 Mn212 2.385 . S
O236 C214 1.234 . S
O237 Mn212 2.209 . S
O237 Mn213 2.215 . S
O237 C214 1.283 . S
O238 Mn212 2.094 . S
O238 C216 1.240 . S
O239 Mn213 2.117 . S
O239 C216 1.264 . S
C240 C233 1.403 . S
C240 C241 1.399 . S
C240 H246 0.929 . S
C241 C221 1.449 . S
C241 C240 1.399 . S
C241 H247 0.930 . S
H242 C222 0.931 . S
H243 C223 0.930 . S
H244 C231 0.931 . S
H245 C232 0.929 . S
H246 C240 0.929 . S
H247 C241 0.930 . S
Mn248 O253 2.095 1_554 S
Mn248 O263 2.162 . S
Mn248 O264 2.297 1_554 S
Mn248 O272 2.385 . S
Mn248 O273 2.209 1_554 S
Mn248 O274 2.094 . S
Mn249 O254 2.121 . S
Mn249 N256 2.257 . S
Mn249 N265 2.282 . S
Mn249 O273 2.215 . S
Mn249 O275 2.117 1_556 S
C250 O272 1.234 1_556 S
C250 O273 1.283 . S
C251 O263 1.281 . S
C251 O264 1.236 1_554 S
C252 O274 1.240 . S
C252 O275 1.264 . S
O253 Mn248 2.095 1_556 S
O253 C262 1.250 . S
O254 Mn249 2.121 . S
O254 C262 1.258 . S
C255 N256 1.326 . S
C255 C259 1.460 . S
C255 H261 0.929 . S
N256 Mn249 2.257 . S
N256 C255 1.326 . S
N256 C260 1.362 . S
C257 C258 1.258 . S
C257 C260 1.431 . S
C257 C277 1.449 . S
C258 C257 1.258 . S
C258 C259 1.477 . S
C258 H278 0.931 . S
C259 C255 1.460 . S
C259 C258 1.477 . S
C259 H279 0.930 . S
C260 N256 1.362 . S
C260 C257 1.431 . S
C260 C270 1.476 . S
H261 C255 0.929 . S
C262 O253 1.250 . S
C262 O254 1.258 . S
O263 Mn248 2.162 . S
O263 C251 1.281 . S
O264 Mn248 2.297 1_556 S
O264 C251 1.236 1_556 S
N265 Mn249 2.282 . S
N265 C266 1.328 1_556 S
N265 C270 1.318 . S
C266 N265 1.328 1_554 S
C266 C267 1.457 . S
C266 H271 0.929 . S
C267 C266 1.457 . S
C267 C268 1.291 1_554 S
C267 H280 0.931 . S
C268 C267 1.291 1_556 S
C268 C269 1.373 . S
C268 H281 0.929 1_556 S
C269 C268 1.373 . S
C269 C270 1.396 . S
C269 C276 1.403 . S
C270 C260 1.476 . S
C270 N265 1.318 . S
C270 C269 1.396 . S
H271 C266 0.929 . S
O272 Mn248 2.385 . S
O272 C250 1.234 1_554 S
O273 Mn248 2.209 1_556 S
O273 Mn249 2.215 . S
O273 C250 1.283 . S
O274 Mn248 2.094 . S
O274 C252 1.240 . S
O275 Mn249 2.117 1_554 S
O275 C252 1.264 . S
C276 C269 1.403 . S
C276 C277 1.399 . S
C276 H282 0.929 . S
C277 C257 1.449 . S
C277 C276 1.399 . S
C277 H283 0.930 . S
H278 C258 0.931 . S
H279 C259 0.930 . S
H280 C267 0.931 . S
H281 C268 0.929 1_554 S
H282 C276 0.929 . S
H283 C277 0.930 . S
Mn284 O289 2.095 . S
Mn284 O299 2.162 . S
Mn284 O300 2.297 . S
Mn284 O308 2.385 1_545 S
Mn284 O309 2.209 1_545 S
Mn284 O310 2.094 . S
Mn285 O290 2.121 . S
Mn285 N292 2.257 . S
Mn285 N301 2.282 . S
Mn285 O309 2.215 . S
Mn285 O311 2.117 . S
C286 O308 1.234 . S
C286 O309 1.283 . S
C287 O299 1.281 . S
C287 O300 1.236 . S
C288 O310 1.240 . S
C288 O311 1.264 1_545 S
O289 Mn284 2.095 . S
O289 C298 1.250 . S
O290 Mn285 2.121 . S
O290 C298 1.258 1_565 S
C291 N292 1.326 . S
C291 C295 1.460 . S
C291 H297 0.929 . S
N292 Mn285 2.257 . S
N292 C291 1.326 . S
N292 C296 1.362 . S
C293 C294 1.258 . S
C293 C296 1.431 . S
C293 C313 1.449 . S
C294 C293 1.258 . S
C294 C295 1.477 . S
C294 H314 0.931 . S
C295 C291 1.460 . S
C295 C294 1.477 . S
C295 H315 0.930 . S
C296 N292 1.362 . S
C296 C293 1.431 . S
C296 C306 1.476 . S
H297 C291 0.929 . S
C298 O289 1.250 . S
C298 O290 1.258 1_545 S
O299 Mn284 2.162 . S
O299 C287 1.281 . S
O300 Mn284 2.297 . S
O300 C287 1.236 . S
N301 Mn285 2.282 . S
N301 C302 1.328 . S
N301 C306 1.318 . S
C302 N301 1.328 . S
C302 C303 1.457 . S
C302 H307 0.929 . S
C303 C302 1.457 . S
C303 C304 1.291 . S
C303 H316 0.931 . S
C304 C303 1.291 . S
C304 C305 1.373 . S
C304 H317 0.929 . S
C305 C304 1.373 . S
C305 C306 1.396 . S
C305 C312 1.403 . S
C306 C296 1.476 . S
C306 N301 1.318 . S
C306 C305 1.396 . S
H307 C302 0.929 . S
O308 Mn284 2.385 1_565 S
O308 C286 1.234 . S
O309 Mn284 2.209 1_565 S
O309 Mn285 2.215 . S
O309 C286 1.283 . S
O310 Mn284 2.094 . S
O310 C288 1.240 . S
O311 Mn285 2.117 . S
O311 C288 1.264 1_565 S
C312 C305 1.403 . S
C312 C313 1.399 . S
C312 H318 0.929 . S
C313 C293 1.449 . S
C313 C312 1.399 . S
C313 H319 0.930 . S
H314 C294 0.931 . S
H315 C295 0.930 . S
H316 C303 0.931 . S
H317 C304 0.929 . S
H318 C312 0.929 . S
H319 C313 0.930 . S
Mn320 O325 2.095 . S
Mn320 O335 2.162 . S
Mn320 O336 2.297 . S
Mn320 O344 2.385 . S
Mn320 O345 2.209 . S
Mn320 O346 2.094 . S
Mn321 O326 2.121 . S
Mn321 N328 2.257 . S
Mn321 N337 2.282 . S
Mn321 O345 2.215 . S
Mn321 O347 2.117 . S
C322 O344 1.234 . S
C322 O345 1.283 . S
C323 O335 1.281 . S
C323 O336 1.236 . S
C324 O346 1.240 . S
C324 O347 1.264 . S
O325 Mn320 2.095 . S
O325 C334 1.250 . S
O326 Mn321 2.121 . S
O326 C334 1.258 . S
C327 N328 1.326 . S
C327 C331 1.460 . S
C327 H333 0.929 . S
N328 Mn321 2.257 . S
N328 C327 1.326 . S
N328 C332 1.362 . S
C329 C330 1.258 . S
C329 C332 1.431 . S
C329 C349 1.449 1_455 S
C330 C329 1.258 . S
C330 C331 1.477 . S
C330 H350 0.931 . S
C331 C327 1.460 . S
C331 C330 1.477 . S
C331 H351 0.930 . S
C332 N328 1.362 . S
C332 C329 1.431 . S
C332 C342 1.476 . S
H333 C327 0.929 . S
C334 O325 1.250 . S
C334 O326 1.258 . S
O335 Mn320 2.162 . S
O335 C323 1.281 . S
O336 Mn320 2.297 . S
O336 C323 1.236 . S
N337 Mn321 2.282 . S
N337 C338 1.328 . S
N337 C342 1.318 . S
C338 N337 1.328 . S
C338 C339 1.457 . S
C338 H343 0.929 . S
C339 C338 1.457 . S
C339 C340 1.291 1_455 S
C339 H352 0.931 . S
C340 C339 1.291 1_655 S
C340 C341 1.373 . S
C340 H353 0.929 . S
C341 C340 1.373 . S
C341 C342 1.396 1_655 S
C341 C348 1.403 . S
C342 C332 1.476 . S
C342 N337 1.318 . S
C342 C341 1.396 1_455 S
H343 C338 0.929 . S
O344 Mn320 2.385 . S
O344 C322 1.234 . S
O345 Mn320 2.209 . S
O345 Mn321 2.215 . S
O345 C322 1.283 . S
O346 Mn320 2.094 . S
O346 C324 1.240 . S
O347 Mn321 2.117 . S
O347 C324 1.264 . S
C348 C341 1.403 . S
C348 C349 1.399 . S
C348 H354 0.929 . S
C349 C329 1.449 1_655 S
C349 C348 1.399 . S
C349 H355 0.930 . S
H350 C330 0.931 . S
H351 C331 0.930 . S
H352 C339 0.931 . S
H353 C340 0.929 . S
H354 C348 0.929 . S
H355 C349 0.930 . S
Mn356 O361 2.095 . S
Mn356 O371 2.162 . S
Mn356 O372 2.297 . S
Mn356 O380 2.385 . S
Mn356 O381 2.209 . S
Mn356 O382 2.094 . S
Mn357 O362 2.121 . S
Mn357 N364 2.257 . S
Mn357 N373 2.282 . S
Mn357 O381 2.215 . S
Mn357 O383 2.117 . S
C358 O380 1.234 . S
C358 O381 1.283 . S
C359 O371 1.281 . S
C359 O372 1.236 . S
C360 O382 1.240 . S
C360 O383 1.264 . S
O361 Mn356 2.095 . S
O361 C370 1.250 . S
O362 Mn357 2.121 . S
O362 C370 1.258 . S
C363 N364 1.326 . S
C363 C367 1.460 . S
C363 H369 0.929 . S
N364 Mn357 2.257 . S
N364 C363 1.326 . S
N364 C368 1.362 . S
C365 C366 1.258 . S
C365 C368 1.431 . S
C365 C385 1.449 . S
C366 C365 1.258 . S
C366 C367 1.477 . S
C366 H386 0.931 . S
C367 C363 1.460 . S
C367 C366 1.477 . S
C367 H387 0.930 . S
C368 N364 1.362 . S
C368 C365 1.431 . S
C368 C378 1.476 . S
H369 C363 0.929 . S
C370 O361 1.250 . S
C370 O362 1.258 . S
O371 Mn356 2.162 . S
O371 C359 1.281 . S
O372 Mn356 2.297 . S
O372 C359 1.236 . S
N373 Mn357 2.282 . S
N373 C374 1.328 . S
N373 C378 1.318 . S
C374 N373 1.328 . S
C374 C375 1.457 . S
C374 H379 0.929 . S
C375 C374 1.457 . S
C375 C376 1.291 . S
C375 H388 0.931 . S
C376 C375 1.291 . S
C376 C377 1.373 . S
C376 H389 0.929 . S
C377 C376 1.373 . S
C377 C378 1.396 . S
C377 C384 1.403 . S
C378 C368 1.476 . S
C378 N373 1.318 . S
C378 C377 1.396 . S
H379 C374 0.929 . S
O380 Mn356 2.385 . S
O380 C358 1.234 . S
O381 Mn356 2.209 . S
O381 Mn357 2.215 . S
O381 C358 1.283 . S
O382 Mn356 2.094 . S
O382 C360 1.240 . S
O383 Mn357 2.117 . S
O383 C360 1.264 . S
C384 C377 1.403 . S
C384 C385 1.399 . S
C384 H390 0.929 . S
C385 C365 1.449 . S
C385 C384 1.399 . S
C385 H391 0.930 . S
H386 C366 0.931 . S
H387 C367 0.930 . S
H388 C375 0.931 . S
H389 C376 0.929 . S
H390 C384 0.929 . S
H391 C385 0.930 . S
Mn392 O397 2.095 . S
Mn392 O407 2.162 . S
Mn392 O408 2.297 . S
Mn392 O416 2.385 . S
Mn392 O417 2.209 . S
Mn392 O418 2.094 . S
Mn393 O398 2.121 . S
Mn393 N400 2.257 . S
Mn393 N409 2.282 . S
Mn393 O417 2.215 . S
Mn393 O419 2.117 . S
C394 O416 1.234 . S
C394 O417 1.283 . S
C395 O407 1.281 . S
C395 O408 1.236 . S
C396 O418 1.240 . S
C396 O419 1.264 . S
O397 Mn392 2.095 . S
O397 C406 1.250 . S
O398 Mn393 2.121 . S
O398 C406 1.258 . S
C399 N400 1.326 . S
C399 C403 1.460 . S
C399 H405 0.929 . S
N400 Mn393 2.257 . S
N400 C399 1.326 . S
N400 C404 1.362 . S
C401 C402 1.258 . S
C401 C404 1.431 . S
C401 C421 1.449 . S
C402 C401 1.258 . S
C402 C403 1.477 . S
C402 H422 0.931 . S
C403 C399 1.460 . S
C403 C402 1.477 . S
C403 H423 0.930 . S
C404 N400 1.362 . S
C404 C401 1.431 . S
C404 C414 1.476 . S
H405 C399 0.929 . S
C406 O397 1.250 . S
C406 O398 1.258 . S
O407 Mn392 2.162 . S
O407 C395 1.281 . S
O408 Mn392 2.297 . S
O408 C395 1.236 . S
N409 Mn393 2.282 . S
N409 C410 1.328 . S
N409 C414 1.318 . S
C410 N409 1.328 . S
C410 C411 1.457 . S
C410 H415 0.929 . S
C411 C410 1.457 . S
C411 C412 1.291 . S
C411 H424 0.931 . S
C412 C411 1.291 . S
C412 C413 1.373 . S
C412 H425 0.929 . S
C413 C412 1.373 . S
C413 C414 1.396 . S
C413 C420 1.403 . S
C414 C404 1.476 . S
C414 N409 1.318 . S
C414 C413 1.396 . S
H415 C410 0.929 . S
O416 Mn392 2.385 . S
O416 C394 1.234 . S
O417 Mn392 2.209 . S
O417 Mn393 2.215 . S
O417 C394 1.283 . S
O418 Mn392 2.094 . S
O418 C396 1.240 . S
O419 Mn393 2.117 . S
O419 C396 1.264 . S
C420 C413 1.403 . S
C420 C421 1.399 . S
C420 H426 0.929 . S
C421 C401 1.449 . S
C421 C420 1.399 . S
C421 H427 0.930 . S
H422 C402 0.931 . S
H423 C403 0.930 . S
H424 C411 0.931 . S
H425 C412 0.929 . S
H426 C420 0.929 . S
H427 C421 0.930 . S
Mn428 O433 2.095 . S
Mn428 O443 2.162 . S
Mn428 O444 2.297 . S
Mn428 O452 2.385 1_565 S
Mn428 O453 2.209 1_565 S
Mn428 O454 2.094 . S
Mn429 O434 2.121 . S
Mn429 N436 2.257 . S
Mn429 N445 2.282 . S
Mn429 O453 2.215 . S
Mn429 O455 2.117 . S
C430 O452 1.234 . S
C430 O453 1.283 . S
C431 O443 1.281 . S
C431 O444 1.236 . S
C432 O454 1.237 1_545 S
C432 O455 1.268 . S
O433 Mn428 2.095 . S
O433 C442 1.250 1_565 S
O434 Mn429 2.121 . S
O434 C442 1.258 . S
C435 N436 1.326 . S
C435 C439 1.460 . S
C435 H441 0.929 . S
N436 Mn429 2.257 . S
N436 C435 1.326 . S
N436 C440 1.362 . S
C437 C438 1.258 . S
C437 C440 1.431 . S
C437 C457 1.449 . S
C438 C437 1.258 . S
C438 C439 1.477 . S
C438 H458 0.931 . S
C439 C435 1.460 . S
C439 C438 1.477 . S
C439 H459 0.930 . S
C440 N436 1.362 . S
C440 C437 1.431 . S
C440 C450 1.476 . S
H441 C435 0.929 . S
C442 O433 1.250 1_545 S
C442 O434 1.258 . S
O443 Mn428 2.162 . S
O443 C431 1.281 . S
O444 Mn428 2.297 . S
O444 C431 1.236 . S
N445 Mn429 2.282 . S
N445 C446 1.328 . S
N445 C450 1.318 . S
C446 N445 1.328 . S
C446 C447 1.457 . S
C446 H451 0.929 . S
C447 C446 1.457 . S
C447 C448 1.291 . S
C447 H460 0.931 . S
C448 C447 1.291 . S
C448 C449 1.373 . S
C448 H461 0.929 . S
C449 C448 1.373 . S
C449 C450 1.396 . S
C449 C456 1.403 . S
C450 C440 1.476 . S
C450 N445 1.318 . S
C450 C449 1.396 . S
H451 C446 0.929 . S
O452 Mn428 2.385 1_545 S
O452 C430 1.234 . S
O453 Mn428 2.209 1_545 S
O453 Mn429 2.215 . S
O453 C430 1.283 . S
O454 Mn428 2.094 . S
O454 C432 1.237 1_565 S
O455 Mn429 2.117 . S
O455 C432 1.268 . S
C456 C449 1.403 . S
C456 C457 1.399 . S
C456 H462 0.929 . S
C457 C437 1.449 . S
C457 C456 1.399 . S
C457 H463 0.930 . S
H458 C438 0.931 . S
H459 C439 0.930 . S
H460 C447 0.931 . S
H461 C448 0.929 . S
H462 C456 0.929 . S
H463 C457 0.930 . S
Mn464 O469 2.095 . S
Mn464 O479 2.162 . S
Mn464 O480 2.297 . S
Mn464 O488 2.385 1_455 S
Mn464 O489 2.209 1_455 S
Mn464 O490 2.094 . S
Mn465 O470 2.121 1_556 S
Mn465 N472 2.257 . S
Mn465 N481 2.282 . S
Mn465 O489 2.215 . S
Mn465 O491 2.117 . S
C466 O488 1.234 . S
C466 O489 1.283 . S
C467 O479 1.281 . S
C467 O480 1.236 . S
C468 O490 1.240 . S
C468 O491 1.264 1_455 S
O469 Mn464 2.095 . S
O469 C478 1.250 1_456 S
O470 Mn465 2.121 1_554 S
O470 C478 1.258 . S
C471 N472 1.326 . S
C471 C475 1.460 . S
C471 H477 0.929 . S
N472 Mn465 2.257 . S
N472 C471 1.326 . S
N472 C476 1.362 . S
C473 C474 1.258 . S
C473 C476 1.431 . S
C473 C493 1.449 . S
C474 C473 1.258 . S
C474 C475 1.477 . S
C474 H494 0.931 . S
C475 C471 1.460 . S
C475 C474 1.477 . S
C475 H495 0.930 . S
C476 N472 1.362 . S
C476 C473 1.431 . S
C476 C486 1.476 . S
H477 C471 0.929 . S
C478 O469 1.250 1_654 S
C478 O470 1.258 . S
O479 Mn464 2.162 . S
O479 C467 1.281 . S
O480 Mn464 2.297 . S
O480 C467 1.236 . S
N481 Mn465 2.282 . S
N481 C482 1.328 . S
N481 C486 1.318 . S
C482 N481 1.328 . S
C482 C483 1.457 . S
C482 H487 0.929 . S
C483 C482 1.457 . S
C483 C484 1.291 . S
C483 H496 0.931 . S
C484 C483 1.291 . S
C484 C485 1.373 . S
C484 H497 0.929 . S
C485 C484 1.373 . S
C485 C486 1.396 . S
C485 C492 1.403 . S
C486 C476 1.476 . S
C486 N481 1.318 . S
C486 C485 1.396 . S
H487 C482 0.929 . S
O488 Mn464 2.385 1_655 S
O488 C466 1.234 . S
O489 Mn464 2.209 1_655 S
O489 Mn465 2.215 . S
O489 C466 1.283 . S
O490 Mn464 2.094 . S
O490 C468 1.240 . S
O491 Mn465 2.117 . S
O491 C468 1.264 1_655 S
C492 C485 1.403 . S
C492 C493 1.399 . S
C492 H498 0.929 . S
C493 C473 1.449 . S
C493 C492 1.399 . S
C493 H499 0.930 . S
H494 C474 0.931 . S
H495 C475 0.930 . S
H496 C483 0.931 . S
H497 C484 0.929 . S
H498 C492 0.929 . S
H499 C493 0.930 . S
Mn500 O505 2.095 . S
Mn500 O515 2.162 . S
Mn500 O516 2.297 . S
Mn500 O524 2.385 . S
Mn500 O525 2.209 . S
Mn500 O526 2.094 . S
Mn501 O506 2.121 . S
Mn501 N508 2.257 . S
Mn501 N517 2.282 . S
Mn501 O525 2.215 . S
Mn501 O527 2.117 . S
C502 O524 1.234 . S
C502 O525 1.283 . S
C503 O515 1.281 . S
C503 O516 1.236 . S
C504 O526 1.240 . S
C504 O527 1.264 . S
O505 Mn500 2.095 . S
O505 C514 1.250 . S
O506 Mn501 2.121 . S
O506 C514 1.258 . S
C507 N508 1.326 . S
C507 C511 1.460 . S
C507 H513 0.929 . S
N508 Mn501 2.257 . S
N508 C507 1.326 . S
N508 C512 1.362 . S
C509 C510 1.258 . S
C509 C512 1.431 . S
C509 C529 1.449 . S
C510 C509 1.258 . S
C510 C511 1.477 . S
C510 H530 0.931 . S
C511 C507 1.460 . S
C511 C510 1.477 . S
C511 H531 0.930 . S
C512 N508 1.362 . S
C512 C509 1.431 . S
C512 C522 1.476 . S
H513 C507 0.929 . S
C514 O505 1.250 . S
C514 O506 1.258 . S
O515 Mn500 2.162 . S
O515 C503 1.281 . S
O516 Mn500 2.297 . S
O516 C503 1.236 . S
N517 Mn501 2.282 . S
N517 C518 1.328 . S
N517 C522 1.318 . S
C518 N517 1.328 . S
C518 C519 1.457 . S
C518 H523 0.929 . S
C519 C518 1.457 . S
C519 C520 1.291 . S
C519 H532 0.931 . S
C520 C519 1.291 . S
C520 C521 1.373 . S
C520 H533 0.929 . S
C521 C520 1.373 . S
C521 C522 1.396 . S
C521 C528 1.403 . S
C522 C512 1.476 . S
C522 N517 1.318 . S
C522 C521 1.396 . S
H523 C518 0.929 . S
O524 Mn500 2.385 . S
O524 C502 1.234 . S
O525 Mn500 2.209 . S
O525 Mn501 2.215 . S
O525 C502 1.283 . S
O526 Mn500 2.094 . S
O526 C504 1.240 . S
O527 Mn501 2.117 . S
O527 C504 1.264 . S
C528 C521 1.403 . S
C528 C529 1.399 . S
C528 H534 0.929 . S
C529 C509 1.449 . S
C529 C528 1.399 . S
C529 H535 0.930 . S
H530 C510 0.931 . S
H531 C511 0.930 . S
H532 C519 0.931 . S
H533 C520 0.929 . S
H534 C528 0.929 . S
H535 C529 0.930 . S
Mn536 O541 2.095 . S
Mn536 O551 2.162 . S
Mn536 O552 2.297 . S
Mn536 O560 2.385 . S
Mn536 O561 2.209 1_455 S
Mn536 O562 2.094 . S
Mn537 O542 2.121 . S
Mn537 N544 2.257 . S
Mn537 N553 2.282 1_655 S
Mn537 O561 2.215 . S
Mn537 O563 2.117 1_655 S
C538 O560 1.234 . S
C538 O561 1.283 1_455 S
C539 O551 1.281 . S
C539 O552 1.236 . S
C540 O562 1.240 . S
C540 O563 1.264 . S
O541 Mn536 2.095 . S
O541 C550 1.250 1_455 S
O542 Mn537 2.121 . S
O542 C550 1.258 . S
C543 N544 1.326 . S
C543 C547 1.460 . S
C543 H549 0.929 . S
N544 Mn537 2.257 . S
N544 C543 1.326 . S
N544 C548 1.362 . S
C545 C546 1.258 . S
C545 C548 1.431 . S
C545 C565 1.449 . S
C546 C545 1.258 . S
C546 C547 1.477 . S
C546 H566 0.931 . S
C547 C543 1.460 . S
C547 C546 1.477 . S
C547 H567 0.930 . S
C548 N544 1.362 . S
C548 C545 1.431 . S
C548 C558 1.476 . S
H549 C543 0.929 . S
C550 O541 1.250 1_655 S
C550 O542 1.258 . S
O551 Mn536 2.162 . S
O551 C539 1.281 . S
O552 Mn536 2.297 . S
O552 C539 1.236 . S
N553 Mn537 2.282 1_455 S
N553 C554 1.328 . S
N553 C558 1.318 1_455 S
C554 N553 1.328 . S
C554 C555 1.457 . S
C554 H559 0.929 . S
C555 C554 1.457 . S
C555 C556 1.291 . S
C555 H568 0.931 . S
C556 C555 1.291 . S
C556 C557 1.373 1_455 S
C556 H569 0.929 . S
C557 C556 1.373 1_655 S
C557 C558 1.396 . S
C557 C564 1.403 . S
C558 C548 1.476 . S
C558 N553 1.318 1_655 S
C558 C557 1.396 . S
H559 C554 0.929 . S
O560 Mn536 2.385 . S
O560 C538 1.234 . S
O561 Mn536 2.209 1_655 S
O561 Mn537 2.215 . S
O561 C538 1.283 1_655 S
O562 Mn536 2.094 . S
O562 C540 1.240 . S
O563 Mn537 2.117 1_455 S
O563 C540 1.264 . S
C564 C557 1.403 . S
C564 C565 1.399 . S
C564 H570 0.929 . S
C565 C545 1.449 . S
C565 C564 1.399 . S
C565 H571 0.930 . S
H566 C546 0.931 . S
H567 C547 0.930 . S
H568 C555 0.931 . S
H569 C556 0.929 . S
H570 C564 0.929 . S
H571 C565 0.930 . S
Mn572 O577 2.095 . S
Mn572 O587 2.162 . S
Mn572 O588 2.297 . S
Mn572 O596 2.385 . S
Mn572 O597 2.209 . S
Mn572 O598 2.094 . S
Mn573 O578 2.121 . S
Mn573 N580 2.257 . S
Mn573 N589 2.282 . S
Mn573 O597 2.215 . S
Mn573 O599 2.117 . S
C574 O596 1.234 . S
C574 O597 1.283 . S
C575 O587 1.281 . S
C575 O588 1.236 . S
C576 O598 1.240 . S
C576 O599 1.264 . S
O577 Mn572 2.095 . S
O577 C586 1.250 . S
O578 Mn573 2.121 . S
O578 C586 1.258 . S
C579 N580 1.326 . S
C579 C583 1.460 . S
C579 H585 0.929 . S
N580 Mn573 2.257 . S
N580 C579 1.326 . S
N580 C584 1.362 . S
C581 C582 1.258 . S
C581 C584 1.431 . S
C581 C601 1.449 1_545 S
C582 C581 1.258 . S
C582 C583 1.477 . S
C582 H602 0.931 . S
C583 C579 1.460 . S
C583 C582 1.477 . S
C583 H603 0.930 . S
C584 N580 1.362 . S
C584 C581 1.431 . S
C584 C594 1.476 . S
H585 C579 0.929 . S
C586 O577 1.250 . S
C586 O578 1.258 . S
O587 Mn572 2.162 . S
O587 C575 1.281 . S
O588 Mn572 2.297 . S
O588 C575 1.236 . S
N589 Mn573 2.282 . S
N589 C590 1.328 . S
N589 C594 1.318 . S
C590 N589 1.328 . S
C590 C591 1.457 . S
C590 H595 0.929 . S
C591 C590 1.457 . S
C591 C592 1.291 . S
C591 H604 0.931 . S
C592 C591 1.291 . S
C592 C593 1.373 . S
C592 H605 0.929 . S
C593 C592 1.373 . S
C593 C594 1.396 . S
C593 C600 1.403 1_545 S
C594 C584 1.476 . S
C594 N589 1.318 . S
C594 C593 1.396 . S
H595 C590 0.929 . S
O596 Mn572 2.385 . S
O596 C574 1.234 . S
O597 Mn572 2.209 . S
O597 Mn573 2.215 . S
O597 C574 1.283 . S
O598 Mn572 2.094 . S
O598 C576 1.240 . S
O599 Mn573 2.117 . S
O599 C576 1.264 . S
C600 C593 1.403 1_565 S
C600 C601 1.399 . S
C600 H606 0.929 . S
C601 C581 1.449 1_565 S
C601 C600 1.399 . S
C601 H607 0.930 . S
H602 C582 0.931 . S
H603 C583 0.930 . S
H604 C591 0.931 . S
H605 C592 0.929 . S
H606 C600 0.929 . S
H607 C601 0.930 . S
C178 C62 1.508 . S
C226 C73 1.610 . S
C84 C262 1.323 . S
C298 C49 1.512 . S
C324 C118 1.353 . S
C360 C137 1.650 . S
C129 C395 1.715 . S
C432 C106 2.047 1_545 S
C128 C466 1.896 . S
C514 C104 1.701 . S
C115 C467 1.599 . S
C504 C139 1.978 . S
C85 C550 1.425 . S
C52 C539 1.290 . S
C60 C540 1.942 . S
C71 C538 2.030 . S
C40 C286 1.667 . S
C162 C287 1.697 . S
C190 C173 1.431 . S
C215 C93 1.579 . S
C51 C322 1.521 . S
C430 C126 1.888 . S
C323 C107 1.959 . S
C396 C140 1.785 . S
C394 C161 1.508 . S
C172 C442 1.607 . S
C95 C334 1.323 . S
C370 C148 1.512 . S
C41 C252 1.353 . S
C288 C5 1.650 . S
C179 C19 1.715 . S
C216 C29 2.047 . S
C18 C502 1.896 . S
C27 C478 1.701 1_455 S
C38 C503 1.599 . S
C7 C468 1.978 1_554 S
C586 C96 1.425 . S
C575 C151 1.290 . S
C576 C159 1.942 . S
C170 C574 2.031 . S
C117 C358 1.667 . S
C359 C63 1.697 . S
C406 C74 1.431 . S
C431 C82 1.578 . S
C150 C250 1.522 1_554 S
C214 C16 1.888 . S
C30 C251 1.959 . S
C180 C8 1.785 . S
