# Generated by pormake.
# Topology pyr, (3,6)-cn, num edge types: 1
# Building blocks:
#     Node 0, Type 0, BuildingBlock: OLANEW_clean_sbu_2, # of connection points: 3
#     Node 1, Type 0, BuildingBlock: OLANEW_clean_sbu_2, # of connection points: 3
#     Node 2, Type 0, BuildingBlock: OLANEW_clean_sbu_2, # of connection points: 3
#     Node 3, Type 0, BuildingBlock: OLANEW_clean_sbu_2, # of connection points: 3
#     Node 4, Type 0, BuildingBlock: OLANEW_clean_sbu_2, # of connection points: 3
#     Node 5, Type 0, BuildingBlock: OLANEW_clean_sbu_2, # of connection points: 3
#     Node 6, Type 0, BuildingBlock: OLANEW_clean_sbu_2, # of connection points: 3
#     Node 7, Type 0, BuildingBlock: OLANEW_clean_sbu_2, # of connection points: 3
#     Node 8, Type 1, BuildingBlock: BETFAJ_clean_sbu_0, # of connection points: 6
#     Node 9, Type 1, BuildingBlock: BETFAJ_clean_sbu_0, # of connection points: 6
#     Node 10, Type 1, BuildingBlock: BETFAJ_clean_sbu_0, # of connection points: 6
#     Node 11, Type 1, BuildingBlock: BETFAJ_clean_sbu_0, # of connection points: 6
#     Edge 12, Type (0, 1), BuildingBlock: XUDNAN_clean_linker_2, # of connection points: 2
#     Edge 13, Type (0, 1), BuildingBlock: XUDNAN_clean_linker_2, # of connection points: 2
#     Edge 14, Type (0, 1), BuildingBlock: XUDNAN_clean_linker_2, # of connection points: 2
#     Edge 15, Type (0, 1), BuildingBlock: XUDNAN_clean_linker_2, # of connection points: 2
#     Edge 16, Type (0, 1), BuildingBlock: XUDNAN_clean_linker_2, # of connection points: 2
#     Edge 17, Type (0, 1), BuildingBlock: XUDNAN_clean_linker_2, # of connection points: 2
#     Edge 18, Type (0, 1), BuildingBlock: XUDNAN_clean_linker_2, # of connection points: 2
#     Edge 19, Type (0, 1), BuildingBlock: XUDNAN_clean_linker_2, # of connection points: 2
#     Edge 20, Type (0, 1), BuildingBlock: XUDNAN_clean_linker_2, # of connection points: 2
#     Edge 21, Type (0, 1), BuildingBlock: XUDNAN_clean_linker_2, # of connection points: 2
#     Edge 22, Type (0, 1), BuildingBlock: XUDNAN_clean_linker_2, # of connection points: 2
#     Edge 23, Type (0, 1), BuildingBlock: XUDNAN_clean_linker_2, # of connection points: 2
#     Edge 24, Type (0, 1), BuildingBlock: XUDNAN_clean_linker_2, # of connection points: 2
#     Edge 25, Type (0, 1), BuildingBlock: XUDNAN_clean_linker_2, # of connection points: 2
#     Edge 26, Type (0, 1), BuildingBlock: XUDNAN_clean_linker_2, # of connection points: 2
#     Edge 27, Type (0, 1), BuildingBlock: XUDNAN_clean_linker_2, # of connection points: 2
#     Edge 28, Type (0, 1), BuildingBlock: XUDNAN_clean_linker_2, # of connection points: 2
#     Edge 29, Type (0, 1), BuildingBlock: XUDNAN_clean_linker_2, # of connection points: 2
#     Edge 30, Type (0, 1), BuildingBlock: XUDNAN_clean_linker_2, # of connection points: 2
#     Edge 31, Type (0, 1), BuildingBlock: XUDNAN_clean_linker_2, # of connection points: 2
#     Edge 32, Type (0, 1), BuildingBlock: XUDNAN_clean_linker_2, # of connection points: 2
#     Edge 33, Type (0, 1), BuildingBlock: XUDNAN_clean_linker_2, # of connection points: 2
#     Edge 34, Type (0, 1), BuildingBlock: XUDNAN_clean_linker_2, # of connection points: 2
#     Edge 35, Type (0, 1), BuildingBlock: XUDNAN_clean_linker_2, # of connection points: 2
# Relax obj value: 0.127
# Max RMSD: 0.168
# Mean RMSD: 0.121
data_MOF--net-pyr--node1-OLANEW_clean_sbu_2--node2-BETFAJ_clean_sbu_0--edge1-XUDNAN_clean_linker_2
_symmetry_space_group_name_H-M    P1
_symmetry_Int_Tables_number       1
_symmetry_cell_setting            triclinic
loop_
_symmetry_equiv_pos_as_xyz
'x, y, z'
_cell_length_a     40.607768
_cell_length_b     45.471322
_cell_length_c     40.126108
_cell_angle_alpha  96.544587
_cell_angle_beta   87.549694
_cell_angle_gamma 103.21202
loop_
_atom_site_label
_atom_site_type_symbol
_atom_site_fract_x
_atom_site_fract_y
_atom_site_fract_z
_atom_type_partial_charge
O0 O 0.36113 0.27137 0.18296 0.0
Cd1 Cd 0.34511 0.31529 0.21634 0.0
O2 O 0.36204 0.25636 0.23242 0.0
Cd3 Cd 0.35744 0.22556 0.27076 0.0
O4 O 0.31464 0.21857 0.30564 0.0
C5 C 0.31559 0.21792 0.33711 0.0
O6 O 0.34456 0.21964 0.35143 0.0
C7 C 0.36576 0.25134 0.20086 0.0
C8 C 0.30353 0.3475 0.18884 0.0
O9 O 0.33585 0.35503 0.1859 0.0
O10 O 0.29057 0.32389 0.20367 0.0
O11 O 0.30729 0.89919 0.66287 0.0
Cd12 Cd 0.27699 0.87525 0.61212 0.0
O13 O 0.28629 0.86188 0.69363 0.0
Cd14 Cd 0.24376 0.84659 0.66058 0.0
O15 O 0.20598 0.86931 0.64658 0.0
C16 C 0.20989 0.896 0.66157 0.0
O17 O 0.23465 0.90586 0.68292 0.0
C18 C 0.30726 0.88675 0.68971 0.0
C19 C 0.29987 0.82263 0.59313 0.0
O20 O 0.31662 0.84835 0.585 0.0
O21 O 0.2716 0.82164 0.60882 0.0
O22 O 0.7155 0.40952 0.86558 0.0
Cd23 Cd 0.66597 0.40598 0.82477 0.0
O24 O 0.69659 0.36766 0.89066 0.0
Cd25 Cd 0.68175 0.32589 0.92006 0.0
O26 O 0.65028 0.28027 0.93484 0.0
C27 C 0.64881 0.26871 0.96276 0.0
O28 O 0.66775 0.28394 0.98755 0.0
C29 C 0.71981 0.39178 0.88719 0.0
C30 C 0.65415 0.43589 0.76727 0.0
O31 O 0.6446 0.4445 0.79698 0.0
O32 O 0.67117 0.41512 0.76484 0.0
O33 O 0.92628 0.75566 0.36317 0.0
Cd34 Cd 0.90112 0.71175 0.32025 0.0
O35 O 0.89028 0.73777 0.40301 0.0
Cd36 Cd 0.85828 0.69574 0.38003 0.0
O37 O 0.81177 0.66273 0.39125 0.0
C38 C 0.7983 0.66844 0.41976 0.0
O39 O 0.81306 0.69266 0.43929 0.0
C40 C 0.91474 0.75808 0.39334 0.0
C41 C 0.93453 0.675 0.2741 0.0
O42 O 0.92469 0.6975 0.26448 0.0
O43 O 0.93063 0.67121 0.30536 0.0
O44 O 0.6958 0.76272 0.80233 0.0
Cd45 Cd 0.6681 0.73513 0.8477 0.0
O46 O 0.69188 0.80931 0.82193 0.0
Cd47 Cd 0.65656 0.80278 0.86449 0.0
O48 O 0.62854 0.83138 0.89659 0.0
C49 C 0.61777 0.8498 0.88065 0.0
O50 O 0.6227 0.84844 0.84798 0.0
C51 C 0.70306 0.79115 0.80024 0.0
C52 C 0.7206 0.71601 0.87481 0.0
O53 O 0.71373 0.74174 0.88488 0.0
O54 O 0.70141 0.69823 0.8529 0.0
O55 O 0.69053 0.13709 0.45744 0.0
Cd56 Cd 0.70826 0.12926 0.51141 0.0
O57 O 0.73296 0.17662 0.45779 0.0
Cd58 Cd 0.75953 0.2205 0.44282 0.0
O59 O 0.74315 0.26261 0.45377 0.0
C60 C 0.72669 0.26326 0.48137 0.0
O61 O 0.7241 0.24065 0.49973 0.0
C62 C 0.70758 0.15917 0.44292 0.0
C63 C 0.77245 0.1188 0.50197 0.0
O64 O 0.74615 0.09792 0.49412 0.0
O65 O 0.76855 0.14484 0.51517 0.0
O66 O 0.42733 0.78434 0.23414 0.0
Cd67 Cd 0.41449 0.73568 0.26685 0.0
O68 O 0.38322 0.76798 0.20112 0.0
Cd69 Cd 0.33761 0.73175 0.1853 0.0
O70 O 0.2903 0.69653 0.17224 0.0
C71 C 0.27554 0.69382 0.14424 0.0
O72 O 0.28879 0.71227 0.12184 0.0
C73 C 0.4093 0.78866 0.21021 0.0
C74 C 0.44097 0.70854 0.31968 0.0
O75 O 0.43069 0.73341 0.32521 0.0
O76 O 0.44118 0.69702 0.28898 0.0
O77 O 0.17203 0.42713 0.76441 0.0
Cd78 Cd 0.19507 0.40965 0.70856 0.0
O79 O 0.12435 0.39161 0.76725 0.0
Cd80 Cd 0.12868 0.3554 0.72652 0.0
O81 O 0.11512 0.31155 0.69418 0.0
C82 C 0.11056 0.28575 0.70542 0.0
O83 O 0.11506 0.28475 0.73747 0.0
C84 C 0.14376 0.4166 0.77886 0.0
C85 C 0.25532 0.44414 0.68077 0.0
O86 O 0.22797 0.45382 0.68366 0.0
O87 O 0.25499 0.41878 0.69193 0.0
Sm88 Sm 0.01791 0.0238 0.52937 0.0
Sm89 Sm 0.99109 0.00999 0.59702 0.0
C90 C 0.03947 0.04949 0.4746 0.0
C91 C 0.06575 0.07632 0.46757 0.0
C92 C 0.05828 0.10519 0.46955 0.0
C93 C 0.08329 0.1304 0.46246 0.0
C94 C 0.11611 0.12714 0.45336 0.0
C95 C 0.12368 0.09839 0.45196 0.0
C96 C 0.09874 0.07324 0.45892 0.0
C97 C 0.06002 1.00222 0.56686 0.0
C98 C 0.03059 0.07838 0.59241 0.0
C99 C 0.97095 0.98544 0.653 0.0
C100 C 0.94241 0.96168 0.66316 0.0
C101 C 0.94888 0.936 0.67554 0.0
C102 C 0.92219 0.91319 0.68526 0.0
C103 C 0.88858 0.9158 0.68287 0.0
C104 C 0.88209 0.94152 0.67047 0.0
C105 C 0.90876 0.96423 0.66055 0.0
C106 C 0.94965 0.03351 0.56132 0.0
C107 C 0.9776 0.95622 0.53117 0.0
O108 O 0.01285 0.05454 0.49183 0.0
O109 O 0.05016 0.02657 0.48359 0.0
O110 O 0.04421 0.02214 0.57752 0.0
O111 O 0.05447 0.99296 0.53548 0.0
O112 O 0.02597 0.07094 0.55992 0.0
O113 O 0.02458 0.05722 0.61325 0.0
O114 O 0.99345 0.97638 0.63245 0.0
O115 O 0.96376 0.01056 0.6458 0.0
O116 O 0.96486 0.01334 0.54951 0.0
O117 O 0.9539 0.04025 0.59326 0.0
O118 O 0.98072 0.96271 0.56419 0.0
O119 O 0.98517 0.97786 0.51121 0.0
H120 H 0.03307 0.10828 0.47624 0.0
H121 H 0.07688 0.15236 0.46365 0.0
H122 H 0.14858 0.09507 0.44423 0.0
H123 H 0.10527 0.05129 0.45705 0.0
H124 H 0.97462 0.93361 0.67777 0.0
H125 H 0.92788 0.89374 0.69513 0.0
H126 H 0.85638 0.94391 0.66809 0.0
H127 H 0.90292 0.98368 0.65084 0.0
Sm128 Sm 0.51911 0.04326 0.0983 0.0
Sm129 Sm 0.46031 0.02677 0.0541 0.0
C130 C 0.57488 0.07634 0.12643 0.0
C131 C 0.58787 0.09093 0.15913 0.0
C132 C 0.60197 0.12224 0.16241 0.0
C133 C 0.61525 0.13697 0.19284 0.0
C134 C 0.61481 0.12053 0.22045 0.0
C135 C 0.60008 0.08919 0.21731 0.0
C136 C 0.58658 0.07447 0.18685 0.0
C137 C 0.47898 0.99185 0.123 0.0
C138 C 0.45103 0.06939 0.11881 0.0
C139 C 0.40986 1.00106 0.01358 0.0
C140 C 0.40605 0.99217 0.97724 0.0
C141 C 0.41032 0.96354 0.96306 0.0
C142 C 0.40646 0.95511 0.92873 0.0
C143 C 0.39821 0.97511 0.90796 0.0
C144 C 0.39404 1.00376 0.92205 0.0
C145 C 0.39782 0.01218 0.95641 0.0
C146 C 0.50441 0.08135 0.04212 0.0
C147 C 0.52577 0.99953 0.0291 0.0
O148 O 0.55204 0.08796 0.11408 0.0
O149 O 0.56886 0.04664 0.12104 0.0
O150 O 0.47192 1.0041 0.09808 0.0
O151 O 0.50624 0.00818 0.13706 0.0
O152 O 0.48436 0.07556 0.1198 0.0
O153 O 0.43482 0.04502 0.10068 0.0
O154 O 0.42603 0.98558 0.02992 0.0
O155 O 0.41758 0.03017 0.02337 0.0
O156 O 0.51281 0.05702 0.04694 0.0
O157 O 0.47174 0.07677 0.04262 0.0
O158 O 0.49499 1.00146 0.02249 0.0
O159 O 0.5416 0.01389 0.05638 0.0
H160 H 0.6029 0.13531 0.14128 0.0
H161 H 0.62601 0.16118 0.1947 0.0
H162 H 0.59979 0.07588 0.2381 0.0
H163 H 0.57559 0.05029 0.18494 0.0
H164 H 0.41655 0.94756 0.97846 0.0
H165 H 0.40999 0.93294 0.91841 0.0
H166 H 0.3871 0.01939 0.90664 0.0
H167 H 0.39408 0.0343 0.96666 0.0
Sm168 Sm 0.51948 0.52554 0.51422 0.0
Sm169 Sm 0.52739 0.57831 0.56614 0.0
C170 C 0.52858 0.47748 0.47447 0.0
C171 C 0.54868 0.45465 0.47722 0.0
C172 C 0.58414 0.46199 0.47347 0.0
C173 C 0.60297 0.44082 0.47846 0.0
C174 C 0.58674 0.41206 0.48745 0.0
C175 C 0.55133 0.40451 0.49059 0.0
C176 C 0.53246 0.42557 0.48535 0.0
C177 C 0.46137 0.52695 0.5519 0.0
C178 C 0.55613 0.52359 0.58764 0.0
C179 C 0.51447 0.6247 0.60595 0.0
C180 C 0.48955 0.64273 0.60208 0.0
C181 C 0.46175 0.63049 0.58126 0.0
C182 C 0.43763 0.64707 0.57743 0.0
C183 C 0.44105 0.67636 0.59412 0.0
C184 C 0.46945 0.6891 0.61414 0.0
C185 C 0.49358 0.67227 0.61818 0.0
C186 C 0.58568 0.57684 0.5298 0.0
C187 C 0.49783 0.5838 0.49072 0.0
O188 O 0.54537 0.50513 0.47088 0.0
O189 O 0.50284 0.47678 0.49526 0.0
O190 O 0.49097 0.5329 0.56312 0.0
O191 O 0.46145 0.51859 0.51987 0.0
O192 O 0.55272 0.51358 0.55523 0.0
O193 O 0.54493 0.54766 0.60008 0.0
O194 O 0.50172 0.5964 0.61099 0.0
O195 O 0.53929 0.62763 0.58389 0.0
O196 O 0.55637 0.57079 0.51776 0.0
O197 O 0.58508 0.5857 0.56176 0.0
O198 O 0.49907 0.59244 0.52338 0.0
O199 O 0.5068 0.5584 0.47878 0.0
H200 H 0.59747 0.48423 0.46726 0.0
H201 H 0.63029 0.4472 0.47609 0.0
H202 H 0.53823 0.38229 0.49707 0.0
H203 H 0.50519 0.41926 0.48822 0.0
H204 H 0.4585 0.60799 0.56801 0.0
H205 H 0.41628 0.63699 0.5614 0.0
H206 H 0.47254 0.71171 0.62726 0.0
H207 H 0.51516 0.68216 0.63396 0.0
Sm208 Sm 0.01266 0.4892 0.03995 0.0
Sm209 Sm 0.99514 0.5499 0.0122 0.0
C210 C 0.04466 0.44532 0.04342 0.0
C211 C 0.07365 0.44078 0.06198 0.0
C212 C 0.10582 0.44477 0.04646 0.0
C213 C 0.13343 0.44038 0.06323 0.0
C214 C 0.12966 0.43176 0.09596 0.0
C215 C 0.09745 0.42749 0.11151 0.0
C216 C 0.06972 0.43201 0.09471 0.0
C217 C 0.98912 0.52564 0.09175 0.0
C218 C 0.0652 0.5571 0.05473 0.0
C219 C 0.96824 0.59633 0.00626 0.0
C220 C 0.94649 0.60625 0.98334 0.0
C221 C 0.91136 0.59406 0.98247 0.0
C222 C 0.89057 0.60684 0.96435 0.0
C223 C 0.90455 0.63198 0.94688 0.0
C224 C 0.93986 0.64271 0.94592 0.0
C225 C 0.96059 0.63008 0.96413 0.0
C226 C 0.02712 0.51632 0.96413 0.0
C227 C 0.94015 0.48228 1.00002 0.0
O228 O 0.05207 0.46488 0.02107 0.0
O229 O 0.0164 0.44656 0.06022 0.0
O230 O 0.99239 0.52974 0.06101 0.0
O231 O 0.99657 0.49977 0.09521 0.0
O232 O 0.05998 0.52713 0.05372 0.0
O233 O 0.04375 0.57117 0.0426 0.0
O234 O 0.95396 0.57398 0.02382 0.0
O235 O 0.99908 0.5954 0.9956 0.0
O236 O 0.01768 0.51148 0.99351 0.0
O237 O 0.01859 0.54108 0.9581 0.0
O238 O 0.94686 0.51218 0.99864 0.0
O239 O 0.96138 0.46844 0.01324 0.0
H240 H 0.10971 0.45114 0.02114 0.0
H241 H 0.15768 0.44321 0.0502 0.0
H242 H 0.09373 0.42092 0.13675 0.0
H243 H 0.04526 0.4286 0.10736 0.0
H244 H 0.8997 0.57556 0.9969 0.0
H245 H 0.86343 0.59821 0.96574 0.0
H246 H 0.95136 0.66179 0.93224 0.0
H247 H 0.98756 0.63981 0.96425 0.0
H248 H 0.30184 0.19609 0.39825 0.0
H249 H 0.25749 0.23223 0.32 0.0
H250 H 0.20248 0.22251 0.3498 0.0
H251 H 0.23791 0.13565 0.40544 0.0
H252 H 0.23904 0.13532 0.45027 0.0
H253 H 0.27653 0.15203 0.42778 0.0
H254 H 0.28126 0.20273 0.46616 0.0
H255 H 0.24355 0.18607 0.48884 0.0
H256 H 0.2459 0.22077 0.47024 0.0
H257 H 0.15133 0.20156 0.38162 0.0
H258 H 0.10684 0.16688 0.41075 0.0
H259 H 0.1832 0.14343 0.46855 0.0
C260 C 0.2808 0.20289 0.38806 0.0
C261 C 0.28389 0.21505 0.35701 0.0
C262 C 0.25562 0.22288 0.34383 0.0
C263 C 0.22436 0.21777 0.36074 0.0
C264 C 0.22181 0.20494 0.39085 0.0
C265 C 0.24925 0.1976 0.40448 0.0
C266 C 0.23857 0.17981 0.43428 0.0
C267 C 0.24858 0.14888 0.4291 0.0
C268 C 0.25319 0.19846 0.46682 0.0
C269 C 0.20065 0.1763 0.43352 0.0
C270 C 0.19164 0.192 0.40914 0.0
C271 C 0.15799 0.18979 0.4014 0.0
C272 C 0.13288 0.17012 0.41815 0.0
C273 C 0.14171 0.15268 0.44193 0.0
C274 C 0.17588 0.15673 0.45058 0.0
H275 H 0.31009 0.86858 0.75191 0.0
H276 H 0.35373 0.94097 0.69045 0.0
H277 H 0.38583 0.97 0.73903 0.0
H278 H 0.29696 0.91508 0.82326 0.0
H279 H 0.30716 0.89142 0.85261 0.0
H280 H 0.29096 0.87468 0.8121 0.0
H281 H 0.34359 0.85139 0.8 0.0
H282 H 0.35993 0.86791 0.84065 0.0
H283 H 0.38532 0.87584 0.80339 0.0
H284 H 0.40823 0.99331 0.79543 0.0
H285 H 0.42085 0.00842 0.85552 0.0
H286 H 0.36206 0.92076 0.8794 0.0
C287 C 0.32695 0.89023 0.74839 0.0
C288 C 0.3295 0.90248 0.71739 0.0
C289 C 0.3515 0.93108 0.71397 0.0
C290 C 0.36986 0.94774 0.74138 0.0
C291 C 0.36608 0.93531 0.77181 0.0
C292 C 0.34539 0.90712 0.77539 0.0
C293 C 0.34397 0.89973 0.81122 0.0
C294 C 0.30761 0.89496 0.82563 0.0
C295 C 0.3591 0.87207 0.81397 0.0
C296 C 0.36634 0.92853 0.82745 0.0
C297 C 0.37909 0.9487 0.8043 0.0
C298 C 0.39881 0.97755 0.81375 0.0
C299 C 0.40562 0.986 0.84786 0.0
C300 C 0.3926 0.96564 0.87191 0.0
C301 C 0.37296 0.9365 0.86144 0.0
H302 H 0.61102 0.47521 0.76198 0.0
H303 H 0.67422 0.42356 0.70202 0.0
H304 H 0.65623 0.44011 0.65063 0.0
H305 H 0.54217 0.45913 0.70311 0.0
H306 H 0.53302 0.49628 0.711 0.0
H307 H 0.55097 0.48084 0.74349 0.0
H308 H 0.60054 0.52831 0.74889 0.0
H309 H 0.58259 0.5439 0.71653 0.0
H310 H 0.62551 0.53918 0.71218 0.0
H311 H 0.62942 0.46049 0.60472 0.0
H312 H 0.59885 0.48559 0.56877 0.0
H313 H 0.554 0.52594 0.65744 0.0
C314 C 0.62138 0.46761 0.73809 0.0
C315 C 0.64438 0.44803 0.73646 0.0
C316 C 0.65679 0.43852 0.70436 0.0
C317 C 0.64661 0.44779 0.67484 0.0
C318 C 0.62378 0.46673 0.67731 0.0
C319 C 0.6114 0.4767 0.70814 0.0
C320 C 0.58689 0.49683 0.70357 0.0
C321 C 0.55115 0.48241 0.71605 0.0
C322 C 0.59966 0.52897 0.72135 0.0
C323 C 0.58785 0.49698 0.66554 0.0
C324 C 0.60897 0.47909 0.65088 0.0
C325 C 0.61306 0.47473 0.61605 0.0
C326 C 0.59543 0.48908 0.59573 0.0
C327 C 0.57407 0.50807 0.60999 0.0
C328 C 0.57038 0.51194 0.64555 0.0
H329 H 0.935 0.66844 0.20384 0.0
H330 H 0.96412 0.63044 0.28963 0.0
H331 H 0.9822 0.5905 0.25172 0.0
H332 H 0.90164 0.59768 0.15567 0.0
H333 H 0.91721 0.60974 0.11554 0.0
H334 H 0.90831 0.63712 0.1488 0.0
H335 H 0.96953 0.6692 0.14393 0.0
H336 H 0.97855 0.64197 0.11051 0.0
H337 H 0.00462 0.65158 0.14716 0.0
H338 H 0.9937 0.55306 0.20657 0.0
H339 H 1.00074 0.52008 0.15557 0.0
H340 H 0.96612 0.5805 0.09557 0.0
C341 C 0.94571 0.652 0.21458 0.0
C342 C 0.94819 0.65283 0.25 0.0
C343 C 0.96192 0.63053 0.26284 0.0
C344 C 0.9723 0.60765 0.24143 0.0
C345 C 0.96899 0.60713 0.20694 0.0
C346 C 0.95631 0.62872 0.19335 0.0
C347 C 0.95488 0.62192 0.15515 0.0
C348 C 0.91833 0.61628 0.14308 0.0
C349 C 0.97828 0.64771 0.13818 0.0
C350 C 0.96817 0.59288 0.14963 0.0
C351 C 0.97611 0.58509 0.18014 0.0
C352 C 0.98781 0.55904 0.18253 0.0
C353 C 0.99159 0.54032 0.15319 0.0
C354 C 0.98396 0.54742 0.1213 0.0
C355 C 0.97226 0.57437 0.11946 0.0
H356 H 0.40317 0.21533 0.22588 0.0
H357 H 0.34616 0.22268 0.13937 0.0
H358 H 0.35949 0.17554 0.11124 0.0
H359 H 0.47025 0.19012 0.17915 0.0
H360 H 0.47603 0.16432 0.20819 0.0
H361 H 0.45985 0.19727 0.22302 0.0
H362 H 0.40713 0.16288 0.24838 0.0
H363 H 0.42314 0.12976 0.23366 0.0
H364 H 0.38158 0.13218 0.22189 0.0
H365 H 0.37771 0.12779 0.09278 0.0
H366 H 0.40541 0.08483 0.08158 0.0
H367 H 0.45593 0.10977 0.1772 0.0
C368 C 0.39308 0.20669 0.20124 0.0
C369 C 0.37311 0.2224 0.18498 0.0
C370 C 0.36124 0.21091 0.15236 0.0
C371 C 0.3686 0.1841 0.13624 0.0
C372 C 0.38833 0.1692 0.15283 0.0
C373 C 0.40084 0.18019 0.18439 0.0
C374 C 0.42322 0.16059 0.19553 0.0
C375 C 0.45949 0.17919 0.20183 0.0
C376 C 0.40786 0.14545 0.22672 0.0
C377 C 0.42178 0.13723 0.16502 0.0
C378 C 0.40074 0.14235 0.14116 0.0
C379 C 0.3943 0.12358 0.11122 0.0
C380 C 0.41002 0.09909 0.10521 0.0
C381 C 0.43263 0.0938 0.12861 0.0
C382 C 0.43869 0.11324 0.15894 0.0
H383 H 0.15324 0.88155 0.62297 0.0
H384 H 0.21781 0.95621 0.68336 0.0
H385 H 0.18336 0.99091 0.66889 0.0
H386 H 0.14241 0.92064 0.55685 0.0
H387 H 0.09843 0.90268 0.55026 0.0
H388 H 0.12559 0.88284 0.5684 0.0
H389 H 0.08484 0.87548 0.61998 0.0
H390 H 0.0575 0.89533 0.60186 0.0
H391 H 0.07373 0.90819 0.64336 0.0
H392 H 0.14365 0.01786 0.64634 0.0
H393 H 0.103 0.03583 0.61382 0.0
H394 H 0.06673 0.94432 0.56601 0.0
C395 C 0.15988 0.90511 0.63348 0.0
C396 C 0.18811 0.9162 0.65432 0.0
C397 C 0.19612 0.9472 0.66749 0.0
C398 C 0.17669 0.96707 0.65953 0.0
C399 C 0.14921 0.95548 0.63868 0.0
C400 C 0.1407 0.92523 0.6259 0.0
C401 C 0.11095 0.91894 0.60271 0.0
C402 C 0.11991 0.9055 0.56747 0.0
C403 C 0.07992 0.89825 0.61788 0.0
C404 C 0.10565 0.95072 0.60269 0.0
C405 C 0.12714 0.97129 0.62453 0.0
C406 C 0.12662 1.002 0.6292 0.0
C407 C 0.10362 0.01198 0.61072 0.0
C408 C 0.0825 0.99137 0.58736 0.0
C409 C 0.08324 0.96042 0.58346 0.0
H410 H 0.76369 0.44798 0.90092 0.0
H411 H 0.74924 0.35363 0.91902 0.0
H412 H 0.80339 0.36624 0.94939 0.0
H413 H 0.85349 0.46426 0.8883 0.0
H414 H 0.86069 0.50198 0.91023 0.0
H415 H 0.82092 0.48554 0.89004 0.0
H416 H 0.78894 0.49441 0.94627 0.0
H417 H 0.82866 0.51096 0.96657 0.0
H418 H 0.79982 0.47932 0.98289 0.0
H419 H 0.86121 0.3893 0.97642 0.0
H420 H 0.91466 0.42064 1.00011 0.0
H421 H 0.89066 0.50068 0.9667 0.0
C422 C 0.7718 0.4299 0.91132 0.0
C423 C 0.75186 0.39963 0.90729 0.0
C424 C 0.76363 0.37693 0.92171 0.0
C425 C 0.79456 0.38391 0.93896 0.0
C426 C 0.81356 0.41389 0.94228 0.0
C427 C 0.80235 0.43659 0.92919 0.0
C428 C 0.82709 0.46713 0.93693 0.0
C429 C 0.84139 0.48052 0.90444 0.0
C430 C 0.81012 0.48927 0.9595 0.0
C431 C 0.85438 0.45805 0.95573 0.0
C432 C 0.84611 0.42721 0.95855 0.0
C433 C 0.86767 0.41349 0.97447 0.0
C434 C 0.89818 0.43159 0.98791 0.0
C435 C 0.90729 0.46337 0.98565 0.0
C436 C 0.88475 0.47657 0.9692 0.0
H437 H 0.76315 0.67685 0.47826 0.0
H438 H 0.76093 0.61585 0.38648 0.0
H439 H 0.70675 0.58425 0.4053 0.0
H440 H 0.72916 0.62042 0.53365 0.0
H441 H 0.70475 0.64386 0.55821 0.0
H442 H 0.74337 0.66122 0.53754 0.0
H443 H 0.71082 0.6931 0.50724 0.0
H444 H 0.67214 0.67583 0.52788 0.0
H445 H 0.67439 0.67398 0.48276 0.0
H446 H 0.65066 0.56126 0.43322 0.0
H447 H 0.59934 0.54774 0.46901 0.0
H448 H 0.64096 0.62253 0.54313 0.0
C449 C 0.75147 0.65677 0.46209 0.0
C450 C 0.7663 0.64883 0.43086 0.0
C451 C 0.75001 0.6224 0.4105 0.0
C452 C 0.71926 0.60432 0.42098 0.0
C453 C 0.70527 0.61299 0.45187 0.0
C454 C 0.72097 0.63855 0.47213 0.0
C455 C 0.70063 0.64337 0.50391 0.0
C456 C 0.72068 0.64213 0.53517 0.0
C457 C 0.68881 0.67335 0.50553 0.0
C458 C 0.6712 0.61631 0.49869 0.0
C459 C 0.67397 0.59922 0.46834 0.0
C460 C 0.6485 0.57425 0.45722 0.0
C461 C 0.61948 0.56673 0.47764 0.0
C462 C 0.6166 0.58377 0.50897 0.0
C463 C 0.64292 0.60867 0.51963 0.0
H464 H 0.23385 0.33572 0.18718 0.0
H465 H 0.3246 0.40142 0.16206 0.0
H466 H 0.28946 0.43246 0.14058 0.0
H467 H 0.18822 0.33815 0.11545 0.0
H468 H 0.14771 0.33488 0.13665 0.0
H469 H 0.17971 0.3191 0.15297 0.0
H470 H 0.17558 0.35097 0.21039 0.0
H471 H 0.14363 0.36692 0.19403 0.0
H472 H 0.18138 0.3916 0.21188 0.0
H473 H 0.24511 0.45495 0.11898 0.0
H474 H 0.19445 0.46626 0.09628 0.0
H475 H 0.13222 0.38558 0.13404 0.0
C476 C 0.24633 0.35676 0.17742 0.0
C477 C 0.28205 0.36607 0.17623 0.0
C478 C 0.29734 0.39371 0.16312 0.0
C479 C 0.27758 0.41163 0.15104 0.0
C480 C 0.24252 0.40171 0.15234 0.0
C481 C 0.22696 0.37495 0.16518 0.0
C482 C 0.18884 0.36874 0.16191 0.0
C483 C 0.17534 0.33842 0.14047 0.0
C484 C 0.17133 0.3696 0.19663 0.0
C485 C 0.18556 0.39553 0.14409 0.0
C486 C 0.2168 0.41456 0.13941 0.0
C487 C 0.22049 0.44028 0.12259 0.0
C488 C 0.19157 0.44639 0.1096 0.0
C489 C 0.15935 0.42671 0.11313 0.0
C490 C 0.15636 0.40127 0.13125 0.0
H491 H 0.64023 0.2378 0.01942 0.0
H492 H 0.6044 0.23069 0.91782 0.0
H493 H 0.56565 0.18151 0.92655 0.0
H494 H 0.63793 0.15774 0.02124 0.0
H495 H 0.62378 0.15731 0.06443 0.0
H496 H 0.64898 0.19173 0.0501 0.0
H497 H 0.60261 0.22048 0.07135 0.0
H498 H 0.57732 0.18619 0.0858 0.0
H499 H 0.55987 0.20606 0.05705 0.0
H500 H 0.52873 0.13371 0.94723 0.0
H501 H 0.49761 0.09114 0.9777 0.0
H502 H 0.55823 0.12782 0.06543 0.0
C503 C 0.62437 0.22593 0.99886 0.0
C504 C 0.62562 0.23846 0.96779 0.0
C505 C 0.60417 0.22187 0.9418 0.0
C506 C 0.582 0.1938 0.94655 0.0
C507 C 0.58142 0.18225 0.97744 0.0
C508 C 0.60212 0.19778 1.00315 0.0
C509 C 0.59628 0.18053 0.03408 0.0
C510 C 0.62867 0.17128 0.04299 0.0
C511 C 0.58325 0.19944 0.06383 0.0
C512 C 0.56906 0.15285 0.02184 0.0
C513 C 0.56077 0.15441 0.98909 0.0
C514 C 0.53534 0.13219 0.97272 0.0
C515 C 0.5178 0.10803 0.9902 0.0
C516 C 0.52582 0.1058 0.02368 0.0
C517 C 0.55203 0.12849 0.0396 0.0
H518 H 0.94234 0.81845 0.38277 0.0
H519 H 0.91546 0.75807 0.4608 0.0
H520 H 0.92902 0.80174 0.50401 0.0
H521 H 0.0123 0.87252 0.42815 0.0
H522 H 1.00228 0.90519 0.41293 0.0
H523 H 0.99285 0.86887 0.38788 0.0
H524 H 0.9301 0.87222 0.38528 0.0
H525 H 0.9392 0.90835 0.41065 0.0
H526 H 0.90664 0.87756 0.42381 0.0
H527 H 0.94249 0.85182 0.53927 0.0
H528 H 0.95729 0.90529 0.56401 0.0
H529 H 0.97481 0.93423 0.46401 0.0
C530 C 0.94016 0.8144 0.40893 0.0
C531 C 0.92812 0.78465 0.41827 0.0
C532 C 0.92476 0.78052 0.4529 0.0
C533 C 0.93235 0.80523 0.47774 0.0
C534 C 0.94326 0.83423 0.46782 0.0
C535 C 0.94741 0.83903 0.43431 0.0
C536 C 0.95835 0.8728 0.43077 0.0
C537 C 0.99354 0.88029 0.41393 0.0
C538 C 0.932 0.88335 0.41148 0.0
C539 C 0.9594 0.88605 0.46737 0.0
C540 C 0.95067 0.86334 0.4883 0.0
C541 C 0.94952 0.86983 0.52312 0.0
C542 C 0.95788 0.90033 0.53698 0.0
C543 C 0.96714 0.9241 0.51612 0.0
C544 C 0.96771 0.91669 0.48078 0.0
H545 H 0.36528 0.82013 0.57675 0.0
H546 H 0.26661 0.76392 0.5982 0.0
H547 H 0.29183 0.71929 0.59643 0.0
H548 H 0.39755 0.76073 0.52143 0.0
H549 H 0.43962 0.77381 0.53782 0.0
H550 H 0.41311 0.80037 0.53569 0.0
H551 H 0.42118 0.81707 0.5995 0.0
H552 H 0.4473 0.79033 0.60178 0.0
H553 H 0.41036 0.78881 0.62864 0.0
H554 H 0.328 0.68225 0.59763 0.0
H555 H 0.37326 0.6547 0.60149 0.0
H556 H 0.44865 0.73524 0.5808 0.0
C557 C 0.34882 0.79826 0.58009 0.0
C558 C 0.31395 0.79536 0.5873 0.0
C559 C 0.29336 0.76655 0.59243 0.0
C560 C 0.30742 0.74109 0.59142 0.0
C561 C 0.34204 0.7449 0.58522 0.0
C562 C 0.36248 0.77268 0.57944 0.0
C563 C 0.39934 0.77111 0.57615 0.0
C564 C 0.41322 0.77685 0.54066 0.0
C565 C 0.42079 0.79314 0.60313 0.0
C566 C 0.39648 0.73843 0.58215 0.0
C567 C 0.36316 0.72359 0.58675 0.0
C568 C 0.35416 0.69348 0.59364 0.0
C569 C 0.37997 0.67806 0.59577 0.0
C570 C 0.41427 0.69294 0.59136 0.0
C571 C 0.42259 0.72347 0.58441 0.0
H572 H 0.72375 0.85058 0.78807 0.0
H573 H 0.73887 0.7602 0.75492 0.0
H574 H 0.78562 0.78229 0.7176 0.0
H575 H 0.74488 0.88192 0.70666 0.0
H576 H 0.76559 0.9186 0.72679 0.0
H577 H 0.73076 0.89517 0.74765 0.0
H578 H 0.76838 0.89842 0.79908 0.0
H579 H 0.80346 0.92151 0.77841 0.0
H580 H 0.80798 0.88676 0.79337 0.0
H581 H 0.83458 0.81435 0.68932 0.0
H582 H 0.88066 0.85436 0.66931 0.0
H583 H 0.83332 0.92348 0.72121 0.0
C584 C 0.73633 0.8353 0.77243 0.0
C585 C 0.72759 0.80366 0.77438 0.0
C586 C 0.74496 0.78452 0.75371 0.0
C587 C 0.77157 0.79683 0.73245 0.0
C588 C 0.78018 0.82821 0.73197 0.0
C589 C 0.76283 0.84715 0.7511 0.0
C590 C 0.77832 0.88019 0.74756 0.0
C591 C 0.75341 0.89484 0.73118 0.0
C592 C 0.79025 0.89773 0.78163 0.0
C593 C 0.80783 0.87691 0.72431 0.0
C594 C 0.80831 0.84674 0.7154 0.0
C595 C 0.83425 0.83806 0.69569 0.0
C596 C 0.8604 0.86087 0.68471 0.0
C597 C 0.86037 0.89189 0.69362 0.0
C598 C 0.83361 0.89992 0.71349 0.0
H599 H 0.64595 0.13686 0.41505 0.0
H600 H 0.74675 0.18897 0.39388 0.0
H601 H 0.7301 0.19186 0.33639 0.0
H602 H 0.64118 0.09054 0.34075 0.0
H603 H 0.59647 0.0862 0.33514 0.0
H604 H 0.61353 0.094 0.37664 0.0
H605 H 0.58783 0.14163 0.38751 0.0
H606 H 0.57048 0.13381 0.34599 0.0
H607 H 0.59755 0.17032 0.35883 0.0
H608 H 0.70535 0.18322 0.27963 0.0
H609 H 0.67534 0.16173 0.22719 0.0
H610 H 0.59165 0.11278 0.28457 0.0
C611 C 0.66424 0.14973 0.39868 0.0
C612 C 0.6972 0.16401 0.40958 0.0
C613 C 0.72077 0.17957 0.38696 0.0
C614 C 0.71165 0.18094 0.354 0.0
C615 C 0.67906 0.16626 0.34401 0.0
C616 C 0.65576 0.15081 0.36565 0.0
C617 C 0.62415 0.13335 0.34765 0.0
C618 C 0.61853 0.099 0.3502 0.0
C619 C 0.59317 0.14552 0.36078 0.0
C620 C 0.63365 0.14077 0.31232 0.0
C621 C 0.66518 0.16017 0.31081 0.0
C622 C 0.68039 0.16847 0.28052 0.0
C623 C 0.66311 0.15621 0.25091 0.0
C624 C 0.63114 0.1357 0.25192 0.0
C625 C 0.61606 0.12839 0.28309 0.0
H626 H 0.45073 0.64905 0.32094 0.0
H627 H 0.45383 0.73377 0.38405 0.0
H628 H 0.46792 0.71065 0.43249 0.0
H629 H 0.41259 0.60004 0.385 0.0
H630 H 0.43607 0.57124 0.37284 0.0
H631 H 0.42677 0.59406 0.3421 0.0
H632 H 0.49051 0.61033 0.32741 0.0
H633 H 0.49999 0.58751 0.35803 0.0
H634 H 0.52001 0.62737 0.36027 0.0
H635 H 0.48009 0.67922 0.47483 0.0
H636 H 0.49219 0.64183 0.50892 0.0
H637 H 0.48304 0.57525 0.42105 0.0
C638 C 0.45472 0.66283 0.34488 0.0
C639 C 0.45125 0.69364 0.34826 0.0
C640 C 0.45626 0.7104 0.38038 0.0
C641 C 0.46429 0.69737 0.40824 0.0
C642 C 0.46722 0.6672 0.40419 0.0
C643 C 0.4627 0.64999 0.37341 0.0
C644 C 0.46687 0.61776 0.37678 0.0
C645 C 0.4336 0.59438 0.36869 0.0
C646 C 0.49609 0.61031 0.35428 0.0
C647 C 0.47514 0.61993 0.41402 0.0
C648 C 0.47471 0.64872 0.42912 0.0
C649 C 0.48061 0.65665 0.46322 0.0
C650 C 0.48738 0.63493 0.48252 0.0
C651 C 0.48866 0.60515 0.46816 0.0
C652 C 0.48238 0.59765 0.43311 0.0
H653 H 0.0812 0.42844 0.79339 0.0
H654 H 0.18141 0.44257 0.83406 0.0
H655 H 0.16182 0.46737 0.88717 0.0
H656 H 0.06711 0.50179 0.82919 0.0
H657 H 0.02249 0.48742 0.83631 0.0
H658 H 0.0442 0.46975 0.80242 0.0
H659 H 0.02339 0.41784 0.82606 0.0
H660 H 1.00193 0.43546 0.86021 0.0
H661 H 0.03253 0.4143 0.86882 0.0
H662 H 0.12933 0.48761 0.93765 0.0
H663 H 0.09015 0.50943 0.97708 0.0
H664 H 0.01344 0.48763 0.90089 0.0
C665 C 0.099 0.4368 0.81351 0.0
C666 C 0.13279 0.43335 0.8098 0.0
C667 C 0.15547 0.445 0.83642 0.0
C668 C 0.14447 0.45894 0.86672 0.0
C669 C 0.11087 0.46173 0.86973 0.0
C670 C 0.08872 0.45163 0.84348 0.0
C671 C 0.05457 0.45906 0.85226 0.0
C672 C 0.04664 0.4808 0.82864 0.0
C673 C 0.02645 0.42992 0.85181 0.0
C674 C 0.06072 0.4746 0.88767 0.0
C675 C 0.09314 0.47536 0.8976 0.0
C676 C 0.10408 0.48742 0.92989 0.0
C677 C 0.08163 0.49956 0.9522 0.0
C678 C 0.04891 0.50017 0.94193 0.0
C679 C 0.03839 0.48748 0.90928 0.0
H680 H 0.60823 0.86326 0.94898 0.0
H681 H 0.59253 0.89126 0.85199 0.0
H682 H 0.57009 0.93366 0.88008 0.0
H683 H 0.53188 0.88192 0.98885 0.0
H684 H 0.55147 0.89495 0.02894 0.0
H685 H 0.56577 0.86613 1.00127 0.0
H686 H 0.62691 0.89945 1.00369 0.0
H687 H 0.61267 0.92852 0.03099 0.0
H688 H 0.63474 0.93769 0.99226 0.0
H689 H 0.54932 0.9726 0.91752 0.0
H690 H 0.52881 1.00536 0.96315 0.0
H691 H 0.55879 0.95416 0.03678 0.0
C692 C 0.59989 0.87822 0.93368 0.0
C693 C 0.6023 0.87394 0.89822 0.0
C694 C 0.59108 0.89403 0.87914 0.0
C695 C 0.57832 0.91827 0.89485 0.0
C696 C 0.57687 0.92219 0.92971 0.0
C697 C 0.58702 0.90268 0.949 0.0
C698 C 0.58225 0.9121 0.98612 0.0
C699 C 0.55631 0.8873 1.00225 0.0
C700 C 0.61617 0.9199 1.00434 0.0
C701 C 0.56842 0.9402 0.98457 0.0
C702 C 0.56537 0.94536 0.95166 0.0
C703 C 0.55182 0.96898 0.94339 0.0
C704 C 0.54038 0.98749 0.96942 0.0
C705 C 0.5429 0.98253 1.00328 0.0
C706 C 0.55754 0.95887 0.01107 0.0
H707 H 0.82473 0.13809 0.54473 0.0
H708 H 0.79415 0.08247 0.45147 0.0
H709 H 0.84582 0.06249 0.45072 0.0
H710 H 0.92163 0.14867 0.53083 0.0
H711 H 0.9265 0.14494 0.57448 0.0
H712 H 0.89411 0.16264 0.56211 0.0
H713 H 0.8491 0.1245 0.59282 0.0
H714 H 0.88102 0.10645 0.60476 0.0
H715 H 0.84497 0.08429 0.5816 0.0
H716 H 0.89246 0.04053 0.46571 0.0
H717 H 0.92956 0.01713 0.49648 0.0
H718 H 0.92761 0.08445 0.58182 0.0
C719 C 0.82994 0.12288 0.52338 0.0
C720 C 0.80603 0.112 0.49795 0.0
C721 C 0.81255 0.09112 0.47102 0.0
C722 C 0.8419 0.07988 0.47027 0.0
C723 C 0.86423 0.08968 0.49673 0.0
C724 C 0.85874 0.11091 0.52276 0.0
C725 C 0.88264 0.11313 0.55129 0.0
C726 C 0.90771 0.1442 0.55487 0.0
C727 C 0.86326 0.10667 0.58454 0.0
C728 C 0.90034 0.08817 0.5384 0.0
C729 C 0.89044 0.07576 0.50634 0.0
C730 C 0.90103 0.05048 0.4905 0.0
C731 C 0.92181 0.03721 0.50816 0.0
C732 C 0.93091 0.04895 0.54143 0.0
C733 C 0.92083 0.07512 0.55633 0.0
H734 H 0.23721 0.68382 0.08736 0.0
H735 H 0.24098 0.65108 0.1843 0.0
H736 H 0.18763 0.61299 0.17191 0.0
H737 H 0.14761 0.67661 0.08628 0.0
H738 H 0.14404 0.66423 0.04201 0.0
H739 H 0.18283 0.68841 0.05821 0.0
H740 H 0.21628 0.64891 0.0319 0.0
H741 H 0.17758 0.62468 0.01552 0.0
H742 H 0.20365 0.61023 0.04194 0.0
H743 H 0.13445 0.57743 0.14809 0.0
H744 H 0.08453 0.54863 0.1159 0.0
H745 H 0.1135 0.60615 0.03565 0.0
C746 C 0.22691 0.66866 0.10606 0.0
C747 C 0.24349 0.67056 0.13688 0.0
C748 C 0.22893 0.65017 0.16053 0.0
C749 C 0.19859 0.62842 0.15369 0.0
C750 C 0.18295 0.62728 0.12311 0.0
C751 C 0.19659 0.64692 0.09972 0.0
C752 C 0.17471 0.64107 0.06882 0.0
C753 C 0.16152 0.66927 0.06353 0.0
C754 C 0.19422 0.63061 0.0377 0.0
C755 C 0.14624 0.61544 0.07864 0.0
C756 C 0.15179 0.60753 0.10987 0.0
C757 C 0.12981 0.58362 0.12375 0.0
C758 C 0.10157 0.56736 0.10526 0.0
C759 C 0.09507 0.57533 0.07347 0.0
C760 C 0.11761 0.59987 0.06012 0.0
H761 H 0.3 0.42265 0.6361 0.0
H762 H 0.2795 0.50544 0.68871 0.0
H763 H 0.33051 0.53544 0.66227 0.0
H764 H 0.39155 0.44388 0.63743 0.0
H765 H 0.3971 0.42695 0.59532 0.0
H766 H 0.36027 0.41161 0.61985 0.0
H767 H 0.32159 0.41845 0.57285 0.0
H768 H 0.3584 0.43379 0.54829 0.0
H769 H 0.32652 0.45537 0.55841 0.0
H770 H 0.38571 0.55603 0.63285 0.0
H771 H 0.437 0.56657 0.59674 0.0
H772 H 0.41794 0.47176 0.55716 0.0
C773 C 0.30652 0.44707 0.64223 0.0
C774 C 0.28617 0.46176 0.66491 0.0
C775 C 0.2949 0.49379 0.67163 0.0
C776 C 0.32385 0.51097 0.65679 0.0
C777 C 0.34338 0.49588 0.63455 0.0
C778 C 0.3348 0.4647 0.62676 0.0
C779 C 0.359 0.45443 0.60038 0.0
C780 C 0.3781 0.43294 0.61408 0.0
C781 C 0.34025 0.43963 0.56807 0.0
C782 C 0.38266 0.4846 0.59489 0.0
C783 C 0.37352 0.50814 0.61532 0.0
C784 C 0.3927 0.53786 0.61628 0.0
C785 C 0.42176 0.54371 0.59565 0.0
C786 C 0.43082 0.52023 0.5736 0.0
C787 C 0.41102 0.49027 0.57326 0.0
H788 H 0.73662 0.65973 0.87007 0.0
H789 H 0.77388 0.75494 0.90596 0.0
H790 H 0.82638 0.74365 0.92384 0.0
H791 H 0.76872 0.6306 0.93796 0.0
H792 H 0.77982 0.59883 0.9126 0.0
H793 H 0.74575 0.61437 0.90029 0.0
H794 H 0.77517 0.62244 0.84237 0.0
H795 H 0.80947 0.6071 0.85463 0.0
H796 H 0.8181 0.64437 0.84048 0.0
H797 H 0.87397 0.72317 0.9383 0.0
H798 H 0.91284 0.69325 0.95434 0.0
H799 H 0.84546 0.61039 0.91126 0.0
C800 C 0.75591 0.67815 0.88161 0.0
C801 C 0.75119 0.70825 0.88661 0.0
C802 C 0.77684 0.73172 0.90205 0.0
C803 C 0.80689 0.7256 0.91205 0.0
C804 C 0.81086 0.69586 0.90668 0.0
C805 C 0.78607 0.67238 0.89221 0.0
C806 C 0.79632 0.64222 0.89135 0.0
C807 C 0.77116 0.62021 0.91178 0.0
C808 C 0.79998 0.62821 0.85504 0.0
C809 C 0.83043 0.65254 0.9081 0.0
C810 C 0.83843 0.68367 0.91608 0.0
C811 C 0.8682 0.69878 0.93205 0.0
C812 C 0.89025 0.68157 0.9408 0.0
C813 C 0.88237 0.64953 0.93374 0.0
C814 C 0.85215 0.63486 0.91688 0.0
H815 H 0.44798 0.84747 0.23141 0.0
H816 H 0.38956 0.79499 0.14786 0.0
H817 H 0.39957 0.84049 0.1177 0.0
H818 H 0.41742 0.91635 0.22559 0.0
H819 H 0.45718 0.94196 0.23671 0.0
H820 H 0.44609 0.9052 0.25217 0.0
H821 H 0.50165 0.89274 0.22649 0.0
H822 H 0.51294 0.92956 0.21126 0.0
H823 H 0.51098 0.89574 0.18249 0.0
H824 H 0.41462 0.89249 0.09615 0.0
H825 H 0.43642 0.9459 0.0845 0.0
H826 H 0.48587 0.96581 0.18071 0.0
C827 C 0.43756 0.84546 0.20665 0.0
C828 C 0.4179 0.81712 0.19222 0.0
C829 C 0.40453 0.81607 0.15982 0.0
C830 C 0.41007 0.84196 0.14233 0.0
C831 C 0.42898 0.86944 0.15731 0.0
C832 C 0.44261 0.87144 0.18874 0.0
C833 C 0.46152 0.90408 0.19913 0.0
C834 C 0.44455 0.9177 0.23026 0.0
C835 C 0.49901 0.90561 0.2052 0.0
C836 C 0.4572 0.91972 0.16839 0.0
C837 C 0.43786 0.89937 0.14475 0.0
C838 C 0.42982 0.90856 0.11457 0.0
C839 C 0.44215 0.9391 0.10819 0.0
C840 C 0.46273 0.96035 0.13163 0.0
C841 C 0.47012 0.95029 0.16222 0.0
H842 H 0.10041 0.22668 0.72094 0.0
H843 H 0.09422 0.27986 0.63905 0.0
H844 H 0.07344 0.2326 0.60207 0.0
H845 H 0.12869 0.16551 0.66988 0.0
H846 H 0.1046 0.13631 0.69371 0.0
H847 H 0.11955 0.17433 0.71376 0.0
H848 H 0.05819 0.17632 0.73283 0.0
H849 H 0.04297 0.13837 0.71278 0.0
H850 H 0.02555 0.16904 0.70193 0.0
H851 H 0.05305 0.18037 0.57412 0.0
H852 H 0.03428 0.12593 0.55616 0.0
H853 H 0.05284 0.10521 0.65585 0.0
C854 C 0.09481 0.22843 0.6952 0.0
C855 C 0.09902 0.25714 0.68295 0.0
C856 C 0.09133 0.25827 0.64907 0.0
C857 C 0.07947 0.23153 0.62785 0.0
C858 C 0.07549 0.20373 0.64076 0.0
C859 C 0.08299 0.20191 0.67357 0.0
C860 C 0.0763 0.16901 0.68101 0.0
C861 C 0.10924 0.16081 0.69014 0.0
C862 C 0.04913 0.16282 0.70879 0.0
C863 C 0.06346 0.15264 0.64734 0.0
C864 C 0.06344 0.17326 0.62454 0.0
C865 C 0.05301 0.16401 0.59172 0.0
C866 C 0.04242 0.13289 0.58177 0.0
C867 C 0.04212 0.1111 0.60451 0.0
C868 C 0.0527 0.12122 0.63786 0.0
H869 H 0.7216 0.31029 0.44623 0.0
H870 H 0.68712 0.26865 0.53743 0.0
H871 H 0.64959 0.30419 0.55036 0.0
H872 H 0.71934 0.38842 0.48043 0.0
H873 H 0.70486 0.39701 0.44158 0.0
H874 H 0.73115 0.36992 0.44106 0.0
H875 H 0.68583 0.3295 0.40708 0.0
H876 H 0.6592 0.35621 0.40765 0.0
H877 H 0.64315 0.32004 0.42353 0.0
H878 H 0.61233 0.34075 0.55091 0.0
H879 H 0.57965 0.3783 0.54035 0.0
H880 H 0.6386 0.39627 0.44913 0.0
C881 C 0.70665 0.30901 0.46924 0.0
C882 C 0.70731 0.28675 0.49085 0.0
C883 C 0.68709 0.28559 0.52054 0.0
C884 C 0.66569 0.30566 0.52813 0.0
C885 C 0.66504 0.32684 0.50591 0.0
C886 C 0.68519 0.32887 0.47725 0.0
C887 C 0.67862 0.35283 0.45685 0.0
C888 C 0.71038 0.37858 0.45487 0.0
C889 C 0.66594 0.3388 0.4217 0.0
C890 C 0.65105 0.36344 0.47813 0.0
C891 C 0.64368 0.34822 0.50638 0.0
C892 C 0.61807 0.35309 0.52908 0.0
C893 C 0.59952 0.37422 0.52276 0.0
C894 C 0.60673 0.3901 0.494 0.0
C895 C 0.63294 0.38472 0.47156 0.0
loop_
_geom_bond_atom_site_label_1
_geom_bond_atom_site_label_2
_geom_bond_distance
_geom_bond_site_symmetry_2
_ccdc_geom_bond_type
O0 Cd1 2.300 . S
O0 C7 1.275 . S
Cd1 O0 2.300 . S
Cd1 O9 2.381 . S
Cd1 O10 2.378 . S
O2 Cd3 2.385 . S
O2 C7 1.255 . S
Cd3 O2 2.385 . S
Cd3 O4 2.317 . S
O4 Cd3 2.317 . S
O4 C5 1.232 . S
C5 O4 1.232 . S
C5 O6 1.218 . S
O6 C5 1.218 . S
C7 O0 1.275 . S
C7 O2 1.255 . S
C8 O9 1.258 . S
C8 O10 1.256 . S
O9 Cd1 2.381 . S
O9 C8 1.258 . S
O10 Cd1 2.378 . S
O10 C8 1.256 . S
O11 Cd12 2.300 . S
O11 C18 1.275 . S
Cd12 O11 2.300 . S
Cd12 O20 2.381 . S
Cd12 O21 2.378 . S
O13 Cd14 2.385 . S
O13 C18 1.255 . S
Cd14 O13 2.385 . S
Cd14 O15 2.317 . S
O15 Cd14 2.317 . S
O15 C16 1.232 . S
C16 O15 1.232 . S
C16 O17 1.218 . S
O17 C16 1.218 . S
C18 O11 1.275 . S
C18 O13 1.255 . S
C19 O20 1.258 . S
C19 O21 1.256 . S
O20 Cd12 2.381 . S
O20 C19 1.258 . S
O21 Cd12 2.378 . S
O21 C19 1.256 . S
O22 Cd23 2.300 . S
O22 C29 1.275 . S
Cd23 O22 2.300 . S
Cd23 O31 2.381 . S
Cd23 O32 2.378 . S
O24 Cd25 2.385 . S
O24 C29 1.255 . S
Cd25 O24 2.385 . S
Cd25 O26 2.317 . S
O26 Cd25 2.317 . S
O26 C27 1.232 . S
C27 O26 1.232 . S
C27 O28 1.218 . S
O28 C27 1.218 . S
C29 O22 1.275 . S
C29 O24 1.255 . S
C30 O31 1.258 . S
C30 O32 1.256 . S
O31 Cd23 2.381 . S
O31 C30 1.258 . S
O32 Cd23 2.378 . S
O32 C30 1.256 . S
O33 Cd34 2.300 . S
O33 C40 1.275 . S
Cd34 O33 2.300 . S
Cd34 O42 2.381 . S
Cd34 O43 2.378 . S
O35 Cd36 2.385 . S
O35 C40 1.255 . S
Cd36 O35 2.385 . S
Cd36 O37 2.317 . S
O37 Cd36 2.317 . S
O37 C38 1.232 . S
C38 O37 1.232 . S
C38 O39 1.218 . S
O39 C38 1.218 . S
C40 O33 1.275 . S
C40 O35 1.255 . S
C41 O42 1.258 . S
C41 O43 1.256 . S
O42 Cd34 2.381 . S
O42 C41 1.258 . S
O43 Cd34 2.378 . S
O43 C41 1.256 . S
O44 Cd45 2.300 . S
O44 C51 1.275 . S
Cd45 O44 2.300 . S
Cd45 O53 2.381 . S
Cd45 O54 2.378 . S
O46 Cd47 2.385 . S
O46 C51 1.255 . S
Cd47 O46 2.385 . S
Cd47 O48 2.317 . S
O48 Cd47 2.317 . S
O48 C49 1.232 . S
C49 O48 1.232 . S
C49 O50 1.218 . S
O50 C49 1.218 . S
C51 O44 1.275 . S
C51 O46 1.255 . S
C52 O53 1.258 . S
C52 O54 1.256 . S
O53 Cd45 2.381 . S
O53 C52 1.258 . S
O54 Cd45 2.378 . S
O54 C52 1.256 . S
O55 Cd56 2.300 . S
O55 C62 1.275 . S
Cd56 O55 2.300 . S
Cd56 O64 2.381 . S
Cd56 O65 2.378 . S
O57 Cd58 2.385 . S
O57 C62 1.255 . S
Cd58 O57 2.385 . S
Cd58 O59 2.317 . S
O59 Cd58 2.317 . S
O59 C60 1.232 . S
C60 O59 1.232 . S
C60 O61 1.218 . S
O61 C60 1.218 . S
C62 O55 1.275 . S
C62 O57 1.255 . S
C63 O64 1.258 . S
C63 O65 1.256 . S
O64 Cd56 2.381 . S
O64 C63 1.258 . S
O65 Cd56 2.378 . S
O65 C63 1.256 . S
O66 Cd67 2.300 . S
O66 C73 1.275 . S
Cd67 O66 2.300 . S
Cd67 O75 2.381 . S
Cd67 O76 2.378 . S
O68 Cd69 2.385 . S
O68 C73 1.255 . S
Cd69 O68 2.385 . S
Cd69 O70 2.317 . S
O70 Cd69 2.317 . S
O70 C71 1.232 . S
C71 O70 1.232 . S
C71 O72 1.218 . S
O72 C71 1.218 . S
C73 O66 1.275 . S
C73 O68 1.255 . S
C74 O75 1.258 . S
C74 O76 1.256 . S
O75 Cd67 2.381 . S
O75 C74 1.258 . S
O76 Cd67 2.378 . S
O76 C74 1.256 . S
O77 Cd78 2.300 . S
O77 C84 1.275 . S
Cd78 O77 2.300 . S
Cd78 O86 2.381 . S
Cd78 O87 2.378 . S
O79 Cd80 2.385 . S
O79 C84 1.255 . S
Cd80 O79 2.385 . S
Cd80 O81 2.317 . S
O81 Cd80 2.317 . S
O81 C82 1.232 . S
C82 O81 1.232 . S
C82 O83 1.218 . S
O83 C82 1.218 . S
C84 O77 1.275 . S
C84 O79 1.255 . S
C85 O86 1.258 . S
C85 O87 1.256 . S
O86 Cd78 2.381 . S
O86 C85 1.258 . S
O87 Cd78 2.378 . S
O87 C85 1.256 . S
Sm88 C90 2.846 . S
Sm88 O108 2.543 . S
Sm88 O109 2.450 . S
Sm88 O110 2.681 1_545 S
Sm88 O111 2.487 . S
Sm88 O112 2.396 . S
Sm88 O116 2.386 1_455 S
Sm88 O119 2.408 1_445 S
Sm89 C99 2.846 1_545 S
Sm89 O110 2.386 1_645 S
Sm89 O113 2.408 1_655 S
Sm89 O114 2.543 1_545 S
Sm89 O115 2.450 1_545 S
Sm89 O116 2.681 . S
Sm89 O117 2.464 . S
Sm89 O118 2.396 1_545 S
C90 Sm88 2.846 . S
C90 C91 1.506 . S
C90 O108 1.261 . S
C90 O109 1.242 . S
C91 C90 1.506 . S
C91 C92 1.358 . S
C91 C96 1.382 . S
C92 C91 1.358 . S
C92 C93 1.385 . S
C92 H120 0.930 . S
C93 C92 1.385 . S
C93 C94 1.395 . S
C93 H121 0.929 . S
C94 C93 1.395 . S
C94 C95 1.335 . S
C95 C94 1.335 . S
C95 C96 1.398 . S
C95 H122 0.930 . S
C96 C91 1.382 . S
C96 C95 1.398 . S
C96 H123 0.929 . S
C97 O110 1.271 . S
C97 O111 1.242 1_565 S
C98 O112 1.252 . S
C98 O113 1.272 . S
C99 Sm89 2.846 1_565 S
C99 C100 1.506 . S
C99 O114 1.261 . S
C99 O115 1.242 . S
C100 C99 1.506 . S
C100 C101 1.358 . S
C100 C105 1.382 . S
C101 C100 1.358 . S
C101 C102 1.385 . S
C101 H124 0.930 . S
C102 C101 1.385 . S
C102 C103 1.395 . S
C102 H125 0.929 . S
C103 C102 1.395 . S
C103 C104 1.335 . S
C104 C103 1.335 . S
C104 C105 1.398 . S
C104 H126 0.930 . S
C105 C100 1.382 . S
C105 C104 1.398 . S
C105 H127 0.929 . S
C106 O116 1.271 . S
C106 O117 1.251 . S
C107 O118 1.252 . S
C107 O119 1.272 . S
O108 Sm88 2.543 . S
O108 C90 1.261 . S
O109 Sm88 2.450 . S
O109 C90 1.242 . S
O110 Sm88 2.681 1_565 S
O110 Sm89 2.386 1_465 S
O110 C97 1.271 . S
O111 Sm88 2.487 . S
O111 C97 1.242 1_545 S
O112 Sm88 2.396 . S
O112 C98 1.252 . S
O113 Sm89 2.408 1_455 S
O113 C98 1.272 . S
O114 Sm89 2.543 1_565 S
O114 C99 1.261 . S
O115 Sm89 2.450 1_565 S
O115 C99 1.242 . S
O116 Sm88 2.386 1_655 S
O116 Sm89 2.681 . S
O116 C106 1.271 . S
O117 Sm89 2.464 . S
O117 C106 1.251 . S
O118 Sm89 2.396 1_565 S
O118 C107 1.252 . S
O119 Sm88 2.408 1_665 S
O119 C107 1.272 . S
H120 C92 0.930 . S
H121 C93 0.929 . S
H122 C95 0.930 . S
H123 C96 0.929 . S
H124 C101 0.930 . S
H125 C102 0.929 . S
H126 C104 0.930 . S
H127 C105 0.929 . S
Sm128 C130 2.846 . S
Sm128 O148 2.543 . S
Sm128 O149 2.450 . S
Sm128 O150 2.681 . S
Sm128 O151 2.464 1_545 S
Sm128 O152 2.396 . S
Sm128 O156 2.386 . S
Sm128 O159 2.408 . S
Sm129 C139 2.846 1_544 S
Sm129 O150 2.386 . S
Sm129 O153 2.408 . S
Sm129 O154 2.543 1_544 S
Sm129 O155 2.450 1_554 S
Sm129 O156 2.681 . S
Sm129 O157 2.464 . S
Sm129 O158 2.396 . S
C130 Sm128 2.846 . S
C130 C131 1.506 . S
C130 O148 1.261 . S
C130 O149 1.242 . S
C131 C130 1.506 . S
C131 C132 1.358 . S
C131 C136 1.382 . S
C132 C131 1.358 . S
C132 C133 1.385 . S
C132 H160 0.930 . S
C133 C132 1.385 . S
C133 C134 1.395 . S
C133 H161 0.929 . S
C134 C133 1.395 . S
C134 C135 1.335 . S
C135 C134 1.335 . S
C135 C136 1.398 . S
C135 H162 0.930 . S
C136 C131 1.382 . S
C136 C135 1.398 . S
C136 H163 0.929 . S
C137 O150 1.271 1_565 S
C137 O151 1.251 . S
C138 O152 1.252 . S
C138 O153 1.272 . S
C139 Sm129 2.846 1_566 S
C139 C140 1.506 . S
C139 O154 1.261 . S
C139 O155 1.242 1_565 S
C140 C139 1.506 . S
C140 C141 1.358 . S
C140 C145 1.382 . S
C141 C140 1.358 . S
C141 C142 1.385 . S
C141 H164 0.930 . S
C142 C141 1.385 . S
C142 C143 1.395 . S
C142 H165 0.929 . S
C143 C142 1.395 . S
C143 C144 1.335 . S
C144 C143 1.335 . S
C144 C145 1.398 . S
C144 H166 0.930 . S
C145 C140 1.382 . S
C145 C144 1.398 . S
C145 H167 0.929 1_565 S
C146 O156 1.271 . S
C146 O157 1.251 . S
C147 O158 1.262 . S
C147 O159 1.272 . S
O148 Sm128 2.543 . S
O148 C130 1.261 . S
O149 Sm128 2.450 . S
O149 C130 1.242 . S
O150 Sm128 2.681 . S
O150 Sm129 2.386 . S
O150 C137 1.271 1_545 S
O151 Sm128 2.464 1_565 S
O151 C137 1.251 . S
O152 Sm128 2.396 . S
O152 C138 1.252 . S
O153 Sm129 2.408 . S
O153 C138 1.272 . S
O154 Sm129 2.543 1_566 S
O154 C139 1.261 . S
O155 Sm129 2.450 1_556 S
O155 C139 1.242 1_545 S
O156 Sm128 2.386 . S
O156 Sm129 2.681 . S
O156 C146 1.271 . S
O157 Sm129 2.464 . S
O157 C146 1.251 . S
O158 Sm129 2.396 . S
O158 C147 1.262 . S
O159 Sm128 2.408 . S
O159 C147 1.272 . S
H160 C132 0.930 . S
H161 C133 0.929 . S
H162 C135 0.930 . S
H163 C136 0.929 . S
H164 C141 0.930 . S
H165 C142 0.929 . S
H166 C144 0.930 . S
H167 C145 0.929 1_545 S
Sm168 C170 2.846 . S
Sm168 O188 2.543 . S
Sm168 O189 2.450 . S
Sm168 O190 2.681 . S
Sm168 O191 2.464 . S
Sm168 O192 2.396 . S
Sm168 O196 2.386 . S
Sm168 O199 2.408 . S
Sm169 C179 2.846 . S
Sm169 O190 2.386 . S
Sm169 O193 2.408 . S
Sm169 O194 2.543 . S
Sm169 O195 2.450 . S
Sm169 O196 2.681 . S
Sm169 O197 2.464 . S
Sm169 O198 2.396 . S
C170 Sm168 2.846 . S
C170 C171 1.506 . S
C170 O188 1.261 . S
C170 O189 1.242 . S
C171 C170 1.506 . S
C171 C172 1.358 . S
C171 C176 1.382 . S
C172 C171 1.358 . S
C172 C173 1.385 . S
C172 H200 0.930 . S
C173 C172 1.385 . S
C173 C174 1.395 . S
C173 H201 0.929 . S
C174 C173 1.395 . S
C174 C175 1.335 . S
C175 C174 1.335 . S
C175 C176 1.398 . S
C175 H202 0.930 . S
C176 C171 1.382 . S
C176 C175 1.398 . S
C176 H203 0.929 . S
C177 O190 1.271 . S
C177 O191 1.251 . S
C178 O192 1.252 . S
C178 O193 1.272 . S
C179 Sm169 2.846 . S
C179 C180 1.506 . S
C179 O194 1.261 . S
C179 O195 1.242 . S
C180 C179 1.506 . S
C180 C181 1.358 . S
C180 C185 1.382 . S
C181 C180 1.358 . S
C181 C182 1.385 . S
C181 H204 0.930 . S
C182 C181 1.385 . S
C182 C183 1.395 . S
C182 H205 0.929 . S
C183 C182 1.395 . S
C183 C184 1.335 . S
C184 C183 1.335 . S
C184 C185 1.398 . S
C184 H206 0.930 . S
C185 C180 1.382 . S
C185 C184 1.398 . S
C185 H207 0.929 . S
C186 O196 1.271 . S
C186 O197 1.251 . S
C187 O198 1.252 . S
C187 O199 1.272 . S
O188 Sm168 2.543 . S
O188 C170 1.261 . S
O189 Sm168 2.450 . S
O189 C170 1.242 . S
O190 Sm168 2.681 . S
O190 Sm169 2.386 . S
O190 C177 1.271 . S
O191 Sm168 2.464 . S
O191 C177 1.251 . S
O192 Sm168 2.396 . S
O192 C178 1.252 . S
O193 Sm169 2.408 . S
O193 C178 1.272 . S
O194 Sm169 2.543 . S
O194 C179 1.261 . S
O195 Sm169 2.450 . S
O195 C179 1.242 . S
O196 Sm168 2.386 . S
O196 Sm169 2.681 . S
O196 C186 1.271 . S
O197 Sm169 2.464 . S
O197 C186 1.251 . S
O198 Sm169 2.396 . S
O198 C187 1.252 . S
O199 Sm168 2.408 . S
O199 C187 1.272 . S
H200 C172 0.930 . S
H201 C173 0.929 . S
H202 C175 0.930 . S
H203 C176 0.929 . S
H204 C181 0.930 . S
H205 C182 0.929 . S
H206 C184 0.930 . S
H207 C185 0.929 . S
Sm208 C210 2.846 . S
Sm208 O228 2.543 . S
Sm208 O229 2.450 . S
Sm208 O230 2.681 1_455 S
Sm208 O231 2.464 1_455 S
Sm208 O232 2.396 . S
Sm208 O236 2.386 1_554 S
Sm208 O239 2.408 1_455 S
Sm209 C219 2.846 1_455 S
Sm209 O230 2.386 1_456 S
Sm209 O233 2.408 1_556 S
Sm209 O234 2.543 1_455 S
Sm209 O235 2.450 1_455 S
Sm209 O236 2.681 . S
Sm209 O237 2.464 . S
Sm209 O238 2.396 1_455 S
C210 Sm208 2.846 . S
C210 C211 1.506 . S
C210 O228 1.261 . S
C210 O229 1.242 . S
C211 C210 1.506 . S
C211 C212 1.358 . S
C211 C216 1.382 . S
C212 C211 1.358 . S
C212 C213 1.385 . S
C212 H240 0.930 . S
C213 C212 1.385 . S
C213 C214 1.395 . S
C213 H241 0.929 . S
C214 C213 1.395 . S
C214 C215 1.335 . S
C215 C214 1.335 . S
C215 C216 1.398 . S
C215 H242 0.930 . S
C216 C211 1.382 . S
C216 C215 1.398 . S
C216 H243 0.929 . S
C217 O230 1.271 . S
C217 O231 1.251 . S
C218 O232 1.252 . S
C218 O233 1.272 . S
C219 Sm209 2.846 1_655 S
C219 C220 1.506 . S
C219 O234 1.261 . S
C219 O235 1.242 . S
C220 C219 1.506 . S
C220 C221 1.358 . S
C220 C225 1.382 . S
C221 C220 1.358 . S
C221 C222 1.385 . S
C221 H244 0.930 . S
C222 C221 1.385 . S
C222 C223 1.395 . S
C222 H245 0.929 . S
C223 C222 1.395 . S
C223 C224 1.335 . S
C224 C223 1.335 . S
C224 C225 1.398 . S
C224 H246 0.930 . S
C225 C220 1.382 . S
C225 C224 1.398 . S
C225 H247 0.929 . S
C226 O236 1.271 . S
C226 O237 1.251 . S
C227 O238 1.252 . S
C227 O239 1.272 1_556 S
O228 Sm208 2.543 . S
O228 C210 1.261 . S
O229 Sm208 2.450 . S
O229 C210 1.242 . S
O230 Sm208 2.681 1_655 S
O230 Sm209 2.386 1_654 S
O230 C217 1.271 . S
O231 Sm208 2.464 1_655 S
O231 C217 1.251 . S
O232 Sm208 2.396 . S
O232 C218 1.252 . S
O233 Sm209 2.408 1_554 S
O233 C218 1.272 . S
O234 Sm209 2.543 1_655 S
O234 C219 1.261 . S
O235 Sm209 2.450 1_655 S
O235 C219 1.242 . S
O236 Sm208 2.386 1_556 S
O236 Sm209 2.681 . S
O236 C226 1.271 . S
O237 Sm209 2.464 . S
O237 C226 1.251 . S
O238 Sm209 2.396 1_655 S
O238 C227 1.252 . S
O239 Sm208 2.408 1_655 S
O239 C227 1.272 1_554 S
H240 C212 0.930 . S
H241 C213 0.929 . S
H242 C215 0.930 . S
H243 C216 0.929 . S
H244 C221 0.930 . S
H245 C222 0.929 . S
H246 C224 0.930 . S
H247 C225 0.929 . S
H248 C260 0.930 . S
H249 C262 0.930 . S
H250 C263 0.930 . S
H251 C267 0.959 . S
H252 C267 0.959 . S
H253 C267 0.961 . S
H254 C268 0.960 . S
H255 C268 0.961 . S
H256 C268 0.959 . S
H257 C271 0.929 . S
H258 C272 0.931 . S
H259 C274 0.930 . S
C260 H248 0.930 . S
C260 C261 1.399 . S
C260 C265 1.399 . S
C261 C260 1.399 . S
C261 C262 1.376 . S
C262 H249 0.930 . S
C262 C261 1.376 . S
C262 C263 1.388 . S
C263 H250 0.930 . S
C263 C262 1.388 . S
C263 C264 1.390 . S
C264 C263 1.390 . S
C264 C265 1.394 . S
C264 C270 1.465 . S
C265 C260 1.399 . S
C265 C264 1.394 . S
C265 C266 1.516 . S
C266 C265 1.516 . S
C266 C267 1.502 . S
C266 C268 1.561 . S
C266 C269 1.526 . S
C267 H251 0.959 . S
C267 H252 0.959 . S
C267 H253 0.961 . S
C267 C266 1.502 . S
C268 H254 0.960 . S
C268 H255 0.961 . S
C268 H256 0.959 . S
C268 C266 1.561 . S
C269 C266 1.526 . S
C269 C270 1.396 . S
C269 C274 1.390 . S
C270 C264 1.465 . S
C270 C269 1.396 . S
C270 C271 1.399 . S
C271 H257 0.929 . S
C271 C270 1.399 . S
C271 C272 1.385 . S
C272 H258 0.931 . S
C272 C271 1.385 . S
C272 C273 1.389 . S
C273 C272 1.389 . S
C273 C274 1.387 . S
C274 H259 0.930 . S
C274 C269 1.390 . S
C274 C273 1.387 . S
H275 C287 0.930 . S
H276 C289 0.930 . S
H277 C290 0.930 . S
H278 C294 0.959 . S
H279 C294 0.959 . S
H280 C294 0.961 . S
H281 C295 0.960 . S
H282 C295 0.961 . S
H283 C295 0.959 . S
H284 C298 0.929 . S
H285 C299 0.931 . S
H286 C301 0.930 . S
C287 H275 0.930 . S
C287 C288 1.399 . S
C287 C292 1.399 . S
C288 C287 1.399 . S
C288 C289 1.376 . S
C289 H276 0.930 . S
C289 C288 1.376 . S
C289 C290 1.388 . S
C290 H277 0.930 . S
C290 C289 1.388 . S
C290 C291 1.390 . S
C291 C290 1.390 . S
C291 C292 1.394 . S
C291 C297 1.465 . S
C292 C287 1.399 . S
C292 C291 1.394 . S
C292 C293 1.516 . S
C293 C292 1.516 . S
C293 C294 1.502 . S
C293 C295 1.561 . S
C293 C296 1.526 . S
C294 H278 0.959 . S
C294 H279 0.959 . S
C294 H280 0.961 . S
C294 C293 1.502 . S
C295 H281 0.960 . S
C295 H282 0.961 . S
C295 H283 0.959 . S
C295 C293 1.561 . S
C296 C293 1.526 . S
C296 C297 1.396 . S
C296 C301 1.390 . S
C297 C291 1.465 . S
C297 C296 1.396 . S
C297 C298 1.399 . S
C298 H284 0.929 . S
C298 C297 1.399 . S
C298 C299 1.385 . S
C299 H285 0.931 . S
C299 C298 1.385 . S
C299 C300 1.389 . S
C300 C299 1.389 . S
C300 C301 1.387 . S
C301 H286 0.930 . S
C301 C296 1.390 . S
C301 C300 1.387 . S
H302 C314 0.930 . S
H303 C316 0.930 . S
H304 C317 0.930 . S
H305 C321 0.959 . S
H306 C321 0.959 . S
H307 C321 0.961 . S
H308 C322 0.960 . S
H309 C322 0.961 . S
H310 C322 0.959 . S
H311 C325 0.929 . S
H312 C326 0.931 . S
H313 C328 0.930 . S
C314 H302 0.930 . S
C314 C315 1.399 . S
C314 C319 1.399 . S
C315 C314 1.399 . S
C315 C316 1.376 . S
C316 H303 0.930 . S
C316 C315 1.376 . S
C316 C317 1.388 . S
C317 H304 0.930 . S
C317 C316 1.388 . S
C317 C318 1.390 . S
C318 C317 1.390 . S
C318 C319 1.394 . S
C318 C324 1.465 . S
C319 C314 1.399 . S
C319 C318 1.394 . S
C319 C320 1.516 . S
C320 C319 1.516 . S
C320 C321 1.502 . S
C320 C322 1.561 . S
C320 C323 1.526 . S
C321 H305 0.959 . S
C321 H306 0.959 . S
C321 H307 0.961 . S
C321 C320 1.502 . S
C322 H308 0.960 . S
C322 H309 0.961 . S
C322 H310 0.959 . S
C322 C320 1.561 . S
C323 C320 1.526 . S
C323 C324 1.396 . S
C323 C328 1.390 . S
C324 C318 1.465 . S
C324 C323 1.396 . S
C324 C325 1.399 . S
C325 H311 0.929 . S
C325 C324 1.399 . S
C325 C326 1.385 . S
C326 H312 0.931 . S
C326 C325 1.385 . S
C326 C327 1.389 . S
C327 C326 1.389 . S
C327 C328 1.387 . S
C328 H313 0.930 . S
C328 C323 1.390 . S
C328 C327 1.387 . S
H329 C341 0.930 . S
H330 C343 0.930 . S
H331 C344 0.930 . S
H332 C348 0.959 . S
H333 C348 0.959 . S
H334 C348 0.961 . S
H335 C349 0.960 . S
H336 C349 0.961 . S
H337 C349 0.959 . S
H338 C352 0.929 . S
H339 C353 0.931 . S
H340 C355 0.930 . S
C341 H329 0.930 . S
C341 C342 1.399 . S
C341 C346 1.399 . S
C342 C341 1.399 . S
C342 C343 1.376 . S
C343 H330 0.930 . S
C343 C342 1.376 . S
C343 C344 1.388 . S
C344 H331 0.930 . S
C344 C343 1.388 . S
C344 C345 1.390 . S
C345 C344 1.390 . S
C345 C346 1.394 . S
C345 C351 1.465 . S
C346 C341 1.399 . S
C346 C345 1.394 . S
C346 C347 1.516 . S
C347 C346 1.516 . S
C347 C348 1.502 . S
C347 C349 1.561 . S
C347 C350 1.526 . S
C348 H332 0.959 . S
C348 H333 0.959 . S
C348 H334 0.961 . S
C348 C347 1.502 . S
C349 H335 0.960 . S
C349 H336 0.961 . S
C349 H337 0.959 . S
C349 C347 1.561 . S
C350 C347 1.526 . S
C350 C351 1.396 . S
C350 C355 1.390 . S
C351 C345 1.465 . S
C351 C350 1.396 . S
C351 C352 1.399 . S
C352 H338 0.929 . S
C352 C351 1.399 . S
C352 C353 1.385 . S
C353 H339 0.931 . S
C353 C352 1.385 . S
C353 C354 1.389 . S
C354 C353 1.389 . S
C354 C355 1.387 . S
C355 H340 0.930 . S
C355 C350 1.390 . S
C355 C354 1.387 . S
H356 C368 0.930 . S
H357 C370 0.930 . S
H358 C371 0.930 . S
H359 C375 0.959 . S
H360 C375 0.959 . S
H361 C375 0.961 . S
H362 C376 0.960 . S
H363 C376 0.961 . S
H364 C376 0.959 . S
H365 C379 0.929 . S
H366 C380 0.931 . S
H367 C382 0.930 . S
C368 H356 0.930 . S
C368 C369 1.399 . S
C368 C373 1.399 . S
C369 C368 1.399 . S
C369 C370 1.376 . S
C370 H357 0.930 . S
C370 C369 1.376 . S
C370 C371 1.388 . S
C371 H358 0.930 . S
C371 C370 1.388 . S
C371 C372 1.390 . S
C372 C371 1.390 . S
C372 C373 1.394 . S
C372 C378 1.465 . S
C373 C368 1.399 . S
C373 C372 1.394 . S
C373 C374 1.516 . S
C374 C373 1.516 . S
C374 C375 1.502 . S
C374 C376 1.561 . S
C374 C377 1.526 . S
C375 H359 0.959 . S
C375 H360 0.959 . S
C375 H361 0.961 . S
C375 C374 1.502 . S
C376 H362 0.960 . S
C376 H363 0.961 . S
C376 H364 0.959 . S
C376 C374 1.561 . S
C377 C374 1.526 . S
C377 C378 1.396 . S
C377 C382 1.390 . S
C378 C372 1.465 . S
C378 C377 1.396 . S
C378 C379 1.399 . S
C379 H365 0.929 . S
C379 C378 1.399 . S
C379 C380 1.385 . S
C380 H366 0.931 . S
C380 C379 1.385 . S
C380 C381 1.389 . S
C381 C380 1.389 . S
C381 C382 1.387 . S
C382 H367 0.930 . S
C382 C377 1.390 . S
C382 C381 1.387 . S
H383 C395 0.930 . S
H384 C397 0.930 . S
H385 C398 0.930 . S
H386 C402 0.959 . S
H387 C402 0.959 . S
H388 C402 0.961 . S
H389 C403 0.960 . S
H390 C403 0.961 . S
H391 C403 0.959 . S
H392 C406 0.919 1_545 S
H393 C407 0.931 . S
H394 C409 0.930 . S
C395 H383 0.930 . S
C395 C396 1.399 . S
C395 C400 1.399 . S
C396 C395 1.399 . S
C396 C397 1.376 . S
C397 H384 0.930 . S
C397 C396 1.376 . S
C397 C398 1.388 . S
C398 H385 0.930 . S
C398 C397 1.388 . S
C398 C399 1.390 . S
C399 C398 1.390 . S
C399 C400 1.394 . S
C399 C405 1.465 . S
C400 C395 1.399 . S
C400 C399 1.394 . S
C400 C401 1.516 . S
C401 C400 1.516 . S
C401 C402 1.502 . S
C401 C403 1.561 . S
C401 C404 1.526 . S
C402 H386 0.959 . S
C402 H387 0.959 . S
C402 H388 0.961 . S
C402 C401 1.502 . S
C403 H389 0.960 . S
C403 H390 0.961 . S
C403 H391 0.959 . S
C403 C401 1.561 . S
C404 C401 1.526 . S
C404 C405 1.396 . S
C404 C409 1.390 . S
C405 C399 1.465 . S
C405 C404 1.396 . S
C405 C406 1.421 . S
C406 H392 0.919 1_565 S
C406 C405 1.421 . S
C406 C407 1.374 1_565 S
C407 H393 0.931 . S
C407 C406 1.374 1_545 S
C407 C408 1.389 1_545 S
C408 C407 1.389 1_565 S
C408 C409 1.387 . S
C409 H394 0.930 . S
C409 C404 1.390 . S
C409 C408 1.387 . S
H410 C422 0.930 . S
H411 C424 0.930 . S
H412 C425 0.930 . S
H413 C429 0.959 . S
H414 C429 0.959 . S
H415 C429 0.961 . S
H416 C430 0.960 . S
H417 C430 0.961 . S
H418 C430 0.959 . S
H419 C433 0.929 . S
H420 C434 0.931 . S
H421 C436 0.930 . S
C422 H410 0.930 . S
C422 C423 1.399 . S
C422 C427 1.399 . S
C423 C422 1.399 . S
C423 C424 1.376 . S
C424 H411 0.930 . S
C424 C423 1.376 . S
C424 C425 1.388 . S
C425 H412 0.930 . S
C425 C424 1.388 . S
C425 C426 1.390 . S
C426 C425 1.390 . S
C426 C427 1.394 . S
C426 C432 1.465 . S
C427 C422 1.399 . S
C427 C426 1.394 . S
C427 C428 1.516 . S
C428 C427 1.516 . S
C428 C429 1.502 . S
C428 C430 1.561 . S
C428 C431 1.526 . S
C429 H413 0.959 . S
C429 H414 0.959 . S
C429 H415 0.961 . S
C429 C428 1.502 . S
C430 H416 0.960 . S
C430 H417 0.961 . S
C430 H418 0.959 . S
C430 C428 1.561 . S
C431 C428 1.526 . S
C431 C432 1.396 . S
C431 C436 1.390 . S
C432 C426 1.465 . S
C432 C431 1.396 . S
C432 C433 1.399 . S
C433 H419 0.929 . S
C433 C432 1.399 . S
C433 C434 1.385 . S
C434 H420 0.931 . S
C434 C433 1.385 . S
C434 C435 1.389 . S
C435 C434 1.389 . S
C435 C436 1.387 . S
C436 H421 0.930 . S
C436 C431 1.390 . S
C436 C435 1.387 . S
H437 C449 0.930 . S
H438 C451 0.930 . S
H439 C452 0.930 . S
H440 C456 0.959 . S
H441 C456 0.959 . S
H442 C456 0.961 . S
H443 C457 0.960 . S
H444 C457 0.961 . S
H445 C457 0.959 . S
H446 C460 0.929 . S
H447 C461 0.931 . S
H448 C463 0.930 . S
C449 H437 0.930 . S
C449 C450 1.399 . S
C449 C454 1.399 . S
C450 C449 1.399 . S
C450 C451 1.376 . S
C451 H438 0.930 . S
C451 C450 1.376 . S
C451 C452 1.388 . S
C452 H439 0.930 . S
C452 C451 1.388 . S
C452 C453 1.390 . S
C453 C452 1.390 . S
C453 C454 1.394 . S
C453 C459 1.465 . S
C454 C449 1.399 . S
C454 C453 1.394 . S
C454 C455 1.516 . S
C455 C454 1.516 . S
C455 C456 1.502 . S
C455 C457 1.561 . S
C455 C458 1.526 . S
C456 H440 0.959 . S
C456 H441 0.959 . S
C456 H442 0.961 . S
C456 C455 1.502 . S
C457 H443 0.960 . S
C457 H444 0.961 . S
C457 H445 0.959 . S
C457 C455 1.561 . S
C458 C455 1.526 . S
C458 C459 1.396 . S
C458 C463 1.390 . S
C459 C453 1.465 . S
C459 C458 1.396 . S
C459 C460 1.399 . S
C460 H446 0.929 . S
C460 C459 1.399 . S
C460 C461 1.385 . S
C461 H447 0.931 . S
C461 C460 1.385 . S
C461 C462 1.389 . S
C462 C461 1.389 . S
C462 C463 1.387 . S
C463 H448 0.930 . S
C463 C458 1.390 . S
C463 C462 1.387 . S
H464 C476 0.930 . S
H465 C478 0.930 . S
H466 C479 0.930 . S
H467 C483 0.959 . S
H468 C483 0.959 . S
H469 C483 0.961 . S
H470 C484 0.960 . S
H471 C484 0.961 . S
H472 C484 0.959 . S
H473 C487 0.929 . S
H474 C488 0.931 . S
H475 C490 0.930 . S
C476 H464 0.930 . S
C476 C477 1.399 . S
C476 C481 1.399 . S
C477 C476 1.399 . S
C477 C478 1.376 . S
C478 H465 0.930 . S
C478 C477 1.376 . S
C478 C479 1.388 . S
C479 H466 0.930 . S
C479 C478 1.388 . S
C479 C480 1.390 . S
C480 C479 1.390 . S
C480 C481 1.394 . S
C480 C486 1.465 . S
C481 C476 1.399 . S
C481 C480 1.394 . S
C481 C482 1.516 . S
C482 C481 1.516 . S
C482 C483 1.502 . S
C482 C484 1.561 . S
C482 C485 1.526 . S
C483 H467 0.959 . S
C483 H468 0.959 . S
C483 H469 0.961 . S
C483 C482 1.502 . S
C484 H470 0.960 . S
C484 H471 0.961 . S
C484 H472 0.959 . S
C484 C482 1.561 . S
C485 C482 1.526 . S
C485 C486 1.396 . S
C485 C490 1.390 . S
C486 C480 1.465 . S
C486 C485 1.396 . S
C486 C487 1.399 . S
C487 H473 0.929 . S
C487 C486 1.399 . S
C487 C488 1.385 . S
C488 H474 0.931 . S
C488 C487 1.385 . S
C488 C489 1.389 . S
C489 C488 1.389 . S
C489 C490 1.387 . S
C490 H475 0.930 . S
C490 C485 1.390 . S
C490 C489 1.387 . S
H491 C503 0.930 . S
H492 C505 0.930 . S
H493 C506 0.930 . S
H494 C510 0.959 1_556 S
H495 C510 0.959 . S
H496 C510 0.961 . S
H497 C511 0.960 . S
H498 C511 0.961 . S
H499 C511 0.959 . S
H500 C514 0.929 . S
H501 C515 0.931 . S
H502 C517 0.930 . S
C503 H491 0.930 . S
C503 C504 1.399 . S
C503 C508 1.399 . S
C504 C503 1.399 . S
C504 C505 1.376 . S
C505 H492 0.930 . S
C505 C504 1.376 . S
C505 C506 1.388 . S
C506 H493 0.930 . S
C506 C505 1.388 . S
C506 C507 1.390 . S
C507 C506 1.390 . S
C507 C508 1.394 . S
C507 C513 1.465 . S
C508 C503 1.399 . S
C508 C507 1.394 . S
C508 C509 1.519 1_556 S
C509 C508 1.519 1_554 S
C509 C510 1.501 . S
C509 C511 1.559 . S
C509 C512 1.526 1_554 S
C510 H494 0.959 1_554 S
C510 H495 0.959 . S
C510 H496 0.961 . S
C510 C509 1.501 . S
C511 H497 0.960 . S
C511 H498 0.961 . S
C511 H499 0.959 . S
C511 C509 1.559 . S
C512 C509 1.526 1_556 S
C512 C513 1.396 . S
C512 C517 1.390 1_556 S
C513 C507 1.465 . S
C513 C512 1.396 . S
C513 C514 1.399 . S
C514 H500 0.929 . S
C514 C513 1.399 . S
C514 C515 1.385 . S
C515 H501 0.931 . S
C515 C514 1.385 . S
C515 C516 1.365 1_556 S
C516 C515 1.365 1_554 S
C516 C517 1.394 . S
C517 H502 0.930 . S
C517 C512 1.390 1_554 S
C517 C516 1.394 . S
H518 C530 0.930 . S
H519 C532 0.930 . S
H520 C533 0.930 . S
H521 C537 0.959 . S
H522 C537 0.959 . S
H523 C537 0.961 . S
H524 C538 0.960 . S
H525 C538 0.961 . S
H526 C538 0.959 . S
H527 C541 0.929 . S
H528 C542 0.931 . S
H529 C544 0.930 . S
C530 H518 0.930 . S
C530 C531 1.399 . S
C530 C535 1.399 . S
C531 C530 1.399 . S
C531 C532 1.376 . S
C532 H519 0.930 . S
C532 C531 1.376 . S
C532 C533 1.388 . S
C533 H520 0.930 . S
C533 C532 1.388 . S
C533 C534 1.390 . S
C534 C533 1.390 . S
C534 C535 1.394 . S
C534 C540 1.465 . S
C535 C530 1.399 . S
C535 C534 1.394 . S
C535 C536 1.516 . S
C536 C535 1.516 . S
C536 C537 1.502 . S
C536 C538 1.561 . S
C536 C539 1.526 . S
C537 H521 0.959 . S
C537 H522 0.959 . S
C537 H523 0.961 . S
C537 C536 1.502 . S
C538 H524 0.960 . S
C538 H525 0.961 . S
C538 H526 0.959 . S
C538 C536 1.561 . S
C539 C536 1.526 . S
C539 C540 1.396 . S
C539 C544 1.390 . S
C540 C534 1.465 . S
C540 C539 1.396 . S
C540 C541 1.399 . S
C541 H527 0.929 . S
C541 C540 1.399 . S
C541 C542 1.385 . S
C542 H528 0.931 . S
C542 C541 1.385 . S
C542 C543 1.389 . S
C543 C542 1.389 . S
C543 C544 1.387 . S
C544 H529 0.930 . S
C544 C539 1.390 . S
C544 C543 1.387 . S
H545 C557 0.930 . S
H546 C559 0.930 . S
H547 C560 0.930 . S
H548 C564 0.959 . S
H549 C564 0.959 . S
H550 C564 0.961 . S
H551 C565 0.960 . S
H552 C565 0.961 . S
H553 C565 0.959 . S
H554 C568 0.929 . S
H555 C569 0.931 . S
H556 C571 0.930 . S
C557 H545 0.930 . S
C557 C558 1.399 . S
C557 C562 1.399 . S
C558 C557 1.399 . S
C558 C559 1.376 . S
C559 H546 0.930 . S
C559 C558 1.376 . S
C559 C560 1.388 . S
C560 H547 0.930 . S
C560 C559 1.388 . S
C560 C561 1.390 . S
C561 C560 1.390 . S
C561 C562 1.394 . S
C561 C567 1.465 . S
C562 C557 1.399 . S
C562 C561 1.394 . S
C562 C563 1.516 . S
C563 C562 1.516 . S
C563 C564 1.502 . S
C563 C565 1.561 . S
C563 C566 1.526 . S
C564 H548 0.959 . S
C564 H549 0.959 . S
C564 H550 0.961 . S
C564 C563 1.502 . S
C565 H551 0.960 . S
C565 H552 0.961 . S
C565 H553 0.959 . S
C565 C563 1.561 . S
C566 C563 1.526 . S
C566 C567 1.396 . S
C566 C571 1.390 . S
C567 C561 1.465 . S
C567 C566 1.396 . S
C567 C568 1.399 . S
C568 H554 0.929 . S
C568 C567 1.399 . S
C568 C569 1.385 . S
C569 H555 0.931 . S
C569 C568 1.385 . S
C569 C570 1.389 . S
C570 C569 1.389 . S
C570 C571 1.387 . S
C571 H556 0.930 . S
C571 C566 1.390 . S
C571 C570 1.387 . S
H572 C584 0.930 . S
H573 C586 0.930 . S
H574 C587 0.930 . S
H575 C591 0.959 . S
H576 C591 0.959 . S
H577 C591 0.961 . S
H578 C592 0.960 . S
H579 C592 0.961 . S
H580 C592 0.959 . S
H581 C595 0.929 . S
H582 C596 0.931 . S
H583 C598 0.930 . S
C584 H572 0.930 . S
C584 C585 1.399 . S
C584 C589 1.399 . S
C585 C584 1.399 . S
C585 C586 1.376 . S
C586 H573 0.930 . S
C586 C585 1.376 . S
C586 C587 1.388 . S
C587 H574 0.930 . S
C587 C586 1.388 . S
C587 C588 1.390 . S
C588 C587 1.390 . S
C588 C589 1.394 . S
C588 C594 1.465 . S
C589 C584 1.399 . S
C589 C588 1.394 . S
C589 C590 1.516 . S
C590 C589 1.516 . S
C590 C591 1.502 . S
C590 C592 1.561 . S
C590 C593 1.526 . S
C591 H575 0.959 . S
C591 H576 0.959 . S
C591 H577 0.961 . S
C591 C590 1.502 . S
C592 H578 0.960 . S
C592 H579 0.961 . S
C592 H580 0.959 . S
C592 C590 1.561 . S
C593 C590 1.526 . S
C593 C594 1.396 . S
C593 C598 1.390 . S
C594 C588 1.465 . S
C594 C593 1.396 . S
C594 C595 1.399 . S
C595 H581 0.929 . S
C595 C594 1.399 . S
C595 C596 1.385 . S
C596 H582 0.931 . S
C596 C595 1.385 . S
C596 C597 1.389 . S
C597 C596 1.389 . S
C597 C598 1.387 . S
C598 H583 0.930 . S
C598 C593 1.390 . S
C598 C597 1.387 . S
H599 C611 0.930 . S
H600 C613 0.930 . S
H601 C614 0.930 . S
H602 C618 0.959 . S
H603 C618 0.959 . S
H604 C618 0.961 . S
H605 C619 0.960 . S
H606 C619 0.961 . S
H607 C619 0.959 . S
H608 C622 0.929 . S
H609 C623 0.931 . S
H610 C625 0.930 . S
C611 H599 0.930 . S
C611 C612 1.399 . S
C611 C616 1.399 . S
C612 C611 1.399 . S
C612 C613 1.376 . S
C613 H600 0.930 . S
C613 C612 1.376 . S
C613 C614 1.388 . S
C614 H601 0.930 . S
C614 C613 1.388 . S
C614 C615 1.390 . S
C615 C614 1.390 . S
C615 C616 1.394 . S
C615 C621 1.465 . S
C616 C611 1.399 . S
C616 C615 1.394 . S
C616 C617 1.516 . S
C617 C616 1.516 . S
C617 C618 1.502 . S
C617 C619 1.561 . S
C617 C620 1.526 . S
C618 H602 0.959 . S
C618 H603 0.959 . S
C618 H604 0.961 . S
C618 C617 1.502 . S
C619 H605 0.960 . S
C619 H606 0.961 . S
C619 H607 0.959 . S
C619 C617 1.561 . S
C620 C617 1.526 . S
C620 C621 1.396 . S
C620 C625 1.390 . S
C621 C615 1.465 . S
C621 C620 1.396 . S
C621 C622 1.399 . S
C622 H608 0.929 . S
C622 C621 1.399 . S
C622 C623 1.385 . S
C623 H609 0.931 . S
C623 C622 1.385 . S
C623 C624 1.389 . S
C624 C623 1.389 . S
C624 C625 1.387 . S
C625 H610 0.930 . S
C625 C620 1.390 . S
C625 C624 1.387 . S
H626 C638 0.930 . S
H627 C640 0.930 . S
H628 C641 0.930 . S
H629 C645 0.959 . S
H630 C645 0.959 . S
H631 C645 0.961 . S
H632 C646 0.960 . S
H633 C646 0.961 . S
H634 C646 0.959 . S
H635 C649 0.929 . S
H636 C650 0.931 . S
H637 C652 0.930 . S
C638 H626 0.930 . S
C638 C639 1.399 . S
C638 C643 1.399 . S
C639 C638 1.399 . S
C639 C640 1.376 . S
C640 H627 0.930 . S
C640 C639 1.376 . S
C640 C641 1.388 . S
C641 H628 0.930 . S
C641 C640 1.388 . S
C641 C642 1.390 . S
C642 C641 1.390 . S
C642 C643 1.394 . S
C642 C648 1.465 . S
C643 C638 1.399 . S
C643 C642 1.394 . S
C643 C644 1.516 . S
C644 C643 1.516 . S
C644 C645 1.502 . S
C644 C646 1.561 . S
C644 C647 1.526 . S
C645 H629 0.959 . S
C645 H630 0.959 . S
C645 H631 0.961 . S
C645 C644 1.502 . S
C646 H632 0.960 . S
C646 H633 0.961 . S
C646 H634 0.959 . S
C646 C644 1.561 . S
C647 C644 1.526 . S
C647 C648 1.396 . S
C647 C652 1.390 . S
C648 C642 1.465 . S
C648 C647 1.396 . S
C648 C649 1.399 . S
C649 H635 0.929 . S
C649 C648 1.399 . S
C649 C650 1.385 . S
C650 H636 0.931 . S
C650 C649 1.385 . S
C650 C651 1.389 . S
C651 C650 1.389 . S
C651 C652 1.387 . S
C652 H637 0.930 . S
C652 C647 1.390 . S
C652 C651 1.387 . S
H653 C665 0.930 . S
H654 C667 0.930 . S
H655 C668 0.930 . S
H656 C672 0.959 . S
H657 C672 0.959 . S
H658 C672 0.961 . S
H659 C673 0.960 . S
H660 C673 0.961 . S
H661 C673 0.959 . S
H662 C676 0.929 . S
H663 C677 0.931 . S
H664 C679 0.930 . S
C665 H653 0.930 . S
C665 C666 1.399 . S
C665 C670 1.399 . S
C666 C665 1.399 . S
C666 C667 1.376 . S
C667 H654 0.930 . S
C667 C666 1.376 . S
C667 C668 1.388 . S
C668 H655 0.930 . S
C668 C667 1.388 . S
C668 C669 1.390 . S
C669 C668 1.390 . S
C669 C670 1.394 . S
C669 C675 1.465 . S
C670 C665 1.399 . S
C670 C669 1.394 . S
C670 C671 1.516 . S
C671 C670 1.516 . S
C671 C672 1.502 . S
C671 C673 1.561 . S
C671 C674 1.526 . S
C672 H656 0.959 . S
C672 H657 0.959 . S
C672 H658 0.961 . S
C672 C671 1.502 . S
C673 H659 0.960 . S
C673 H660 0.961 . S
C673 H661 0.959 . S
C673 C671 1.561 . S
C674 C671 1.526 . S
C674 C675 1.396 . S
C674 C679 1.390 . S
C675 C669 1.465 . S
C675 C674 1.396 . S
C675 C676 1.399 . S
C676 H662 0.929 . S
C676 C675 1.399 . S
C676 C677 1.385 . S
C677 H663 0.931 . S
C677 C676 1.385 . S
C677 C678 1.389 . S
C678 C677 1.389 . S
C678 C679 1.387 . S
C679 H664 0.930 . S
C679 C674 1.390 . S
C679 C678 1.387 . S
H680 C692 0.930 . S
H681 C694 0.930 . S
H682 C695 0.930 . S
H683 C699 0.959 . S
H684 C699 0.959 1_554 S
H685 C699 0.961 . S
H686 C700 0.960 . S
H687 C700 0.961 1_554 S
H688 C700 0.959 . S
H689 C703 0.929 . S
H690 C704 0.931 . S
H691 C706 0.930 1_554 S
C692 H680 0.930 . S
C692 C693 1.399 . S
C692 C697 1.399 . S
C693 C692 1.399 . S
C693 C694 1.376 . S
C694 H681 0.930 . S
C694 C693 1.376 . S
C694 C695 1.388 . S
C695 H682 0.930 . S
C695 C694 1.388 . S
C695 C696 1.390 . S
C696 C695 1.390 . S
C696 C697 1.394 . S
C696 C702 1.465 . S
C697 C692 1.399 . S
C697 C696 1.394 . S
C697 C698 1.516 . S
C698 C697 1.516 . S
C698 C699 1.502 . S
C698 C700 1.561 . S
C698 C701 1.526 . S
C699 H683 0.959 . S
C699 H684 0.959 1_556 S
C699 H685 0.961 . S
C699 C698 1.502 . S
C700 H686 0.960 . S
C700 H687 0.961 1_556 S
C700 H688 0.959 . S
C700 C698 1.561 . S
C701 C698 1.526 . S
C701 C702 1.396 . S
C701 C706 1.390 . S
C702 C696 1.465 . S
C702 C701 1.396 . S
C702 C703 1.399 . S
C703 H689 0.929 . S
C703 C702 1.399 . S
C703 C704 1.385 . S
C704 H690 0.931 . S
C704 C703 1.385 . S
C704 C705 1.389 . S
C705 C704 1.389 . S
C705 C706 1.387 . S
C706 H691 0.930 1_556 S
C706 C701 1.390 . S
C706 C705 1.387 . S
H707 C719 0.930 . S
H708 C721 0.930 . S
H709 C722 0.930 . S
H710 C726 0.959 . S
H711 C726 0.959 . S
H712 C726 0.961 . S
H713 C727 0.960 . S
H714 C727 0.961 . S
H715 C727 0.959 . S
H716 C730 0.929 . S
H717 C731 0.931 . S
H718 C733 0.930 . S
C719 H707 0.930 . S
C719 C720 1.399 . S
C719 C724 1.399 . S
C720 C719 1.399 . S
C720 C721 1.376 . S
C721 H708 0.930 . S
C721 C720 1.376 . S
C721 C722 1.388 . S
C722 H709 0.930 . S
C722 C721 1.388 . S
C722 C723 1.390 . S
C723 C722 1.390 . S
C723 C724 1.394 . S
C723 C729 1.465 . S
C724 C719 1.399 . S
C724 C723 1.394 . S
C724 C725 1.516 . S
C725 C724 1.516 . S
C725 C726 1.502 . S
C725 C727 1.561 . S
C725 C728 1.526 . S
C726 H710 0.959 . S
C726 H711 0.959 . S
C726 H712 0.961 . S
C726 C725 1.502 . S
C727 H713 0.960 . S
C727 H714 0.961 . S
C727 H715 0.959 . S
C727 C725 1.561 . S
C728 C725 1.526 . S
C728 C729 1.396 . S
C728 C733 1.390 . S
C729 C723 1.465 . S
C729 C728 1.396 . S
C729 C730 1.399 . S
C730 H716 0.929 . S
C730 C729 1.399 . S
C730 C731 1.385 . S
C731 H717 0.931 . S
C731 C730 1.385 . S
C731 C732 1.389 . S
C732 C731 1.389 . S
C732 C733 1.387 . S
C733 H718 0.930 . S
C733 C728 1.390 . S
C733 C732 1.387 . S
H734 C746 0.930 . S
H735 C748 0.930 . S
H736 C749 0.930 . S
H737 C753 0.959 . S
H738 C753 0.959 . S
H739 C753 0.961 . S
H740 C754 0.960 . S
H741 C754 0.961 . S
H742 C754 0.959 . S
H743 C757 0.929 . S
H744 C758 0.931 . S
H745 C760 0.930 . S
C746 H734 0.930 . S
C746 C747 1.399 . S
C746 C751 1.399 . S
C747 C746 1.399 . S
C747 C748 1.376 . S
C748 H735 0.930 . S
C748 C747 1.376 . S
C748 C749 1.388 . S
C749 H736 0.930 . S
C749 C748 1.388 . S
C749 C750 1.390 . S
C750 C749 1.390 . S
C750 C751 1.394 . S
C750 C756 1.465 . S
C751 C746 1.399 . S
C751 C750 1.394 . S
C751 C752 1.516 . S
C752 C751 1.516 . S
C752 C753 1.502 . S
C752 C754 1.561 . S
C752 C755 1.526 . S
C753 H737 0.959 . S
C753 H738 0.959 . S
C753 H739 0.961 . S
C753 C752 1.502 . S
C754 H740 0.960 . S
C754 H741 0.961 . S
C754 H742 0.959 . S
C754 C752 1.561 . S
C755 C752 1.526 . S
C755 C756 1.396 . S
C755 C760 1.390 . S
C756 C750 1.465 . S
C756 C755 1.396 . S
C756 C757 1.399 . S
C757 H743 0.929 . S
C757 C756 1.399 . S
C757 C758 1.385 . S
C758 H744 0.931 . S
C758 C757 1.385 . S
C758 C759 1.389 . S
C759 C758 1.389 . S
C759 C760 1.387 . S
C760 H745 0.930 . S
C760 C755 1.390 . S
C760 C759 1.387 . S
H761 C773 0.930 . S
H762 C775 0.930 . S
H763 C776 0.930 . S
H764 C780 0.959 . S
H765 C780 0.959 . S
H766 C780 0.961 . S
H767 C781 0.960 . S
H768 C781 0.961 . S
H769 C781 0.959 . S
H770 C784 0.929 . S
H771 C785 0.931 . S
H772 C787 0.930 . S
C773 H761 0.930 . S
C773 C774 1.399 . S
C773 C778 1.399 . S
C774 C773 1.399 . S
C774 C775 1.376 . S
C775 H762 0.930 . S
C775 C774 1.376 . S
C775 C776 1.388 . S
C776 H763 0.930 . S
C776 C775 1.388 . S
C776 C777 1.390 . S
C777 C776 1.390 . S
C777 C778 1.394 . S
C777 C783 1.465 . S
C778 C773 1.399 . S
C778 C777 1.394 . S
C778 C779 1.516 . S
C779 C778 1.516 . S
C779 C780 1.502 . S
C779 C781 1.561 . S
C779 C782 1.526 . S
C780 H764 0.959 . S
C780 H765 0.959 . S
C780 H766 0.961 . S
C780 C779 1.502 . S
C781 H767 0.960 . S
C781 H768 0.961 . S
C781 H769 0.959 . S
C781 C779 1.561 . S
C782 C779 1.526 . S
C782 C783 1.396 . S
C782 C787 1.390 . S
C783 C777 1.465 . S
C783 C782 1.396 . S
C783 C784 1.399 . S
C784 H770 0.929 . S
C784 C783 1.399 . S
C784 C785 1.385 . S
C785 H771 0.931 . S
C785 C784 1.385 . S
C785 C786 1.389 . S
C786 C785 1.389 . S
C786 C787 1.387 . S
C787 H772 0.930 . S
C787 C782 1.390 . S
C787 C786 1.387 . S
H788 C800 0.930 . S
H789 C802 0.930 . S
H790 C803 0.930 . S
H791 C807 0.959 . S
H792 C807 0.959 . S
H793 C807 0.961 . S
H794 C808 0.960 . S
H795 C808 0.961 . S
H796 C808 0.959 . S
H797 C811 0.929 . S
H798 C812 0.931 . S
H799 C814 0.930 . S
C800 H788 0.930 . S
C800 C801 1.399 . S
C800 C805 1.399 . S
C801 C800 1.399 . S
C801 C802 1.376 . S
C802 H789 0.930 . S
C802 C801 1.376 . S
C802 C803 1.388 . S
C803 H790 0.930 . S
C803 C802 1.388 . S
C803 C804 1.390 . S
C804 C803 1.390 . S
C804 C805 1.394 . S
C804 C810 1.465 . S
C805 C800 1.399 . S
C805 C804 1.394 . S
C805 C806 1.516 . S
C806 C805 1.516 . S
C806 C807 1.502 . S
C806 C808 1.561 . S
C806 C809 1.526 . S
C807 H791 0.959 . S
C807 H792 0.959 . S
C807 H793 0.961 . S
C807 C806 1.502 . S
C808 H794 0.960 . S
C808 H795 0.961 . S
C808 H796 0.959 . S
C808 C806 1.561 . S
C809 C806 1.526 . S
C809 C810 1.396 . S
C809 C814 1.390 . S
C810 C804 1.465 . S
C810 C809 1.396 . S
C810 C811 1.399 . S
C811 H797 0.929 . S
C811 C810 1.399 . S
C811 C812 1.385 . S
C812 H798 0.931 . S
C812 C811 1.385 . S
C812 C813 1.389 . S
C813 C812 1.389 . S
C813 C814 1.387 . S
C814 H799 0.930 . S
C814 C809 1.390 . S
C814 C813 1.387 . S
H815 C827 0.930 . S
H816 C829 0.930 . S
H817 C830 0.930 . S
H818 C834 0.959 . S
H819 C834 0.959 . S
H820 C834 0.961 . S
H821 C835 0.960 . S
H822 C835 0.961 . S
H823 C835 0.959 . S
H824 C838 0.929 . S
H825 C839 0.931 . S
H826 C841 0.930 . S
C827 H815 0.930 . S
C827 C828 1.399 . S
C827 C832 1.399 . S
C828 C827 1.399 . S
C828 C829 1.376 . S
C829 H816 0.930 . S
C829 C828 1.376 . S
C829 C830 1.388 . S
C830 H817 0.930 . S
C830 C829 1.388 . S
C830 C831 1.390 . S
C831 C830 1.390 . S
C831 C832 1.394 . S
C831 C837 1.465 . S
C832 C827 1.399 . S
C832 C831 1.394 . S
C832 C833 1.516 . S
C833 C832 1.516 . S
C833 C834 1.502 . S
C833 C835 1.561 . S
C833 C836 1.526 . S
C834 H818 0.959 . S
C834 H819 0.959 . S
C834 H820 0.961 . S
C834 C833 1.502 . S
C835 H821 0.960 . S
C835 H822 0.961 . S
C835 H823 0.959 . S
C835 C833 1.561 . S
C836 C833 1.526 . S
C836 C837 1.396 . S
C836 C841 1.390 . S
C837 C831 1.465 . S
C837 C836 1.396 . S
C837 C838 1.399 . S
C838 H824 0.929 . S
C838 C837 1.399 . S
C838 C839 1.385 . S
C839 H825 0.931 . S
C839 C838 1.385 . S
C839 C840 1.389 . S
C840 C839 1.389 . S
C840 C841 1.387 . S
C841 H826 0.930 . S
C841 C836 1.390 . S
C841 C840 1.387 . S
H842 C854 0.930 . S
H843 C856 0.930 . S
H844 C857 0.930 . S
H845 C861 0.959 . S
H846 C861 0.959 . S
H847 C861 0.961 . S
H848 C862 0.960 . S
H849 C862 0.961 . S
H850 C862 0.959 . S
H851 C865 0.929 . S
H852 C866 0.931 . S
H853 C868 0.930 . S
C854 H842 0.930 . S
C854 C855 1.399 . S
C854 C859 1.399 . S
C855 C854 1.399 . S
C855 C856 1.376 . S
C856 H843 0.930 . S
C856 C855 1.376 . S
C856 C857 1.388 . S
C857 H844 0.930 . S
C857 C856 1.388 . S
C857 C858 1.390 . S
C858 C857 1.390 . S
C858 C859 1.394 . S
C858 C864 1.465 . S
C859 C854 1.399 . S
C859 C858 1.394 . S
C859 C860 1.516 . S
C860 C859 1.516 . S
C860 C861 1.502 . S
C860 C862 1.561 . S
C860 C863 1.526 . S
C861 H845 0.959 . S
C861 H846 0.959 . S
C861 H847 0.961 . S
C861 C860 1.502 . S
C862 H848 0.960 . S
C862 H849 0.961 . S
C862 H850 0.959 . S
C862 C860 1.561 . S
C863 C860 1.526 . S
C863 C864 1.396 . S
C863 C868 1.390 . S
C864 C858 1.465 . S
C864 C863 1.396 . S
C864 C865 1.399 . S
C865 H851 0.929 . S
C865 C864 1.399 . S
C865 C866 1.385 . S
C866 H852 0.931 . S
C866 C865 1.385 . S
C866 C867 1.389 . S
C867 C866 1.389 . S
C867 C868 1.387 . S
C868 H853 0.930 . S
C868 C863 1.390 . S
C868 C867 1.387 . S
H869 C881 0.930 . S
H870 C883 0.930 . S
H871 C884 0.930 . S
H872 C888 0.959 . S
H873 C888 0.959 . S
H874 C888 0.961 . S
H875 C889 0.960 . S
H876 C889 0.961 . S
H877 C889 0.959 . S
H878 C892 0.929 . S
H879 C893 0.931 . S
H880 C895 0.930 . S
C881 H869 0.930 . S
C881 C882 1.399 . S
C881 C886 1.399 . S
C882 C881 1.399 . S
C882 C883 1.376 . S
C883 H870 0.930 . S
C883 C882 1.376 . S
C883 C884 1.388 . S
C884 H871 0.930 . S
C884 C883 1.388 . S
C884 C885 1.390 . S
C885 C884 1.390 . S
C885 C886 1.394 . S
C885 C891 1.465 . S
C886 C881 1.399 . S
C886 C885 1.394 . S
C886 C887 1.516 . S
C887 C886 1.516 . S
C887 C888 1.502 . S
C887 C889 1.561 . S
C887 C890 1.526 . S
C888 H872 0.959 . S
C888 H873 0.959 . S
C888 H874 0.961 . S
C888 C887 1.502 . S
C889 H875 0.960 . S
C889 H876 0.961 . S
C889 H877 0.959 . S
C889 C887 1.561 . S
C890 C887 1.526 . S
C890 C891 1.396 . S
C890 C895 1.390 . S
C891 C885 1.465 . S
C891 C890 1.396 . S
C891 C892 1.399 . S
C892 H878 0.929 . S
C892 C891 1.399 . S
C892 C893 1.385 . S
C893 H879 0.931 . S
C893 C892 1.385 . S
C893 C894 1.389 . S
C894 C893 1.389 . S
C894 C895 1.387 . S
C895 H880 0.930 . S
C895 C890 1.390 . S
C895 C894 1.387 . S
C261 C5 0.972 . S
C273 C94 1.247 . S
C288 C18 1.062 . S
C300 C143 1.050 . S
C327 C178 2.343 . S
C315 C30 2.349 . S
C342 C41 2.061 . S
C354 C217 1.996 . S
C381 C138 2.334 . S
C369 C7 2.102 . S
C408 C97 0.928 . S
C396 C16 0.902 . S
C435 C227 1.935 . S
C423 C29 1.926 . S
C462 C186 1.264 . S
C450 C38 1.167 . S
C477 C8 1.543 . S
C489 C214 1.583 . S
C516 C146 2.533 . S
C504 C27 2.380 . S
C531 C40 2.435 . S
C543 C107 2.457 . S
C558 C19 0.669 . S
C570 C183 0.645 . S
C597 C103 1.169 . S
C585 C51 0.911 . S
C612 C62 1.330 . S
C624 C134 1.345 . S
C639 C74 2.450 . S
C651 C187 2.409 . S
C666 C84 2.144 . S
C678 C226 2.247 . S
C693 C49 1.929 . S
C705 C147 2.540 1_566 S
C732 C106 0.990 . S
C720 C63 0.957 . S
C759 C218 1.804 . S
C747 C71 1.695 . S
C786 C177 1.387 . S
C774 C85 1.384 . S
C801 C52 1.454 . S
C813 C223 1.605 . S
C840 C137 2.620 . S
C828 C73 2.691 . S
C867 C98 1.975 . S
C855 C82 1.744 . S
C882 C60 0.898 . S
C894 C174 0.828 . S
