# Generated by pormake.
# Topology gar, (4,6)-cn, num edge types: 1
# Building blocks:
#     Node 0, Type 0, BuildingBlock: QUQFOY_clean_sbu_3, # of connection points: 4
#     Node 1, Type 0, BuildingBlock: QUQFOY_clean_sbu_3, # of connection points: 4
#     Node 2, Type 0, BuildingBlock: QUQFOY_clean_sbu_3, # of connection points: 4
#     Node 3, Type 0, BuildingBlock: QUQFOY_clean_sbu_3, # of connection points: 4
#     Node 4, Type 0, BuildingBlock: QUQFOY_clean_sbu_3, # of connection points: 4
#     Node 5, Type 0, BuildingBlock: QUQFOY_clean_sbu_3, # of connection points: 4
#     Node 6, Type 0, BuildingBlock: QUQFOY_clean_sbu_3, # of connection points: 4
#     Node 7, Type 0, BuildingBlock: QUQFOY_clean_sbu_3, # of connection points: 4
#     Node 8, Type 0, BuildingBlock: QUQFOY_clean_sbu_3, # of connection points: 4
#     Node 9, Type 0, BuildingBlock: QUQFOY_clean_sbu_3, # of connection points: 4
#     Node 10, Type 0, BuildingBlock: QUQFOY_clean_sbu_3, # of connection points: 4
#     Node 11, Type 0, BuildingBlock: QUQFOY_clean_sbu_3, # of connection points: 4
#     Node 12, Type 0, BuildingBlock: QUQFOY_clean_sbu_3, # of connection points: 4
#     Node 13, Type 0, BuildingBlock: QUQFOY_clean_sbu_3, # of connection points: 4
#     Node 14, Type 0, BuildingBlock: QUQFOY_clean_sbu_3, # of connection points: 4
#     Node 15, Type 0, BuildingBlock: QUQFOY_clean_sbu_3, # of connection points: 4
#     Node 16, Type 0, BuildingBlock: QUQFOY_clean_sbu_3, # of connection points: 4
#     Node 17, Type 0, BuildingBlock: QUQFOY_clean_sbu_3, # of connection points: 4
#     Node 18, Type 0, BuildingBlock: QUQFOY_clean_sbu_3, # of connection points: 4
#     Node 19, Type 0, BuildingBlock: QUQFOY_clean_sbu_3, # of connection points: 4
#     Node 20, Type 0, BuildingBlock: QUQFOY_clean_sbu_3, # of connection points: 4
#     Node 21, Type 0, BuildingBlock: QUQFOY_clean_sbu_3, # of connection points: 4
#     Node 22, Type 0, BuildingBlock: QUQFOY_clean_sbu_3, # of connection points: 4
#     Node 23, Type 0, BuildingBlock: QUQFOY_clean_sbu_3, # of connection points: 4
#     Node 24, Type 1, BuildingBlock: BETGAK_clean_sbu_0, # of connection points: 6
#     Node 25, Type 1, BuildingBlock: BETGAK_clean_sbu_0, # of connection points: 6
#     Node 26, Type 1, BuildingBlock: BETGAK_clean_sbu_0, # of connection points: 6
#     Node 27, Type 1, BuildingBlock: BETGAK_clean_sbu_0, # of connection points: 6
#     Node 28, Type 1, BuildingBlock: BETGAK_clean_sbu_0, # of connection points: 6
#     Node 29, Type 1, BuildingBlock: BETGAK_clean_sbu_0, # of connection points: 6
#     Node 30, Type 1, BuildingBlock: BETGAK_clean_sbu_0, # of connection points: 6
#     Node 31, Type 1, BuildingBlock: BETGAK_clean_sbu_0, # of connection points: 6
#     Node 32, Type 1, BuildingBlock: BETGAK_clean_sbu_0, # of connection points: 6
#     Node 33, Type 1, BuildingBlock: BETGAK_clean_sbu_0, # of connection points: 6
#     Node 34, Type 1, BuildingBlock: BETGAK_clean_sbu_0, # of connection points: 6
#     Node 35, Type 1, BuildingBlock: BETGAK_clean_sbu_0, # of connection points: 6
#     Node 36, Type 1, BuildingBlock: BETGAK_clean_sbu_0, # of connection points: 6
#     Node 37, Type 1, BuildingBlock: BETGAK_clean_sbu_0, # of connection points: 6
#     Node 38, Type 1, BuildingBlock: BETGAK_clean_sbu_0, # of connection points: 6
#     Node 39, Type 1, BuildingBlock: BETGAK_clean_sbu_0, # of connection points: 6
#     Edge 40, Type (0, 1), BuildingBlock: ZUJKAS_clean_linker_0, # of connection points: 2
#     Edge 41, Type (0, 1), BuildingBlock: ZUJKAS_clean_linker_0, # of connection points: 2
#     Edge 42, Type (0, 1), BuildingBlock: ZUJKAS_clean_linker_0, # of connection points: 2
#     Edge 43, Type (0, 1), BuildingBlock: ZUJKAS_clean_linker_0, # of connection points: 2
#     Edge 44, Type (0, 1), BuildingBlock: ZUJKAS_clean_linker_0, # of connection points: 2
#     Edge 45, Type (0, 1), BuildingBlock: ZUJKAS_clean_linker_0, # of connection points: 2
#     Edge 46, Type (0, 1), BuildingBlock: ZUJKAS_clean_linker_0, # of connection points: 2
#     Edge 47, Type (0, 1), BuildingBlock: ZUJKAS_clean_linker_0, # of connection points: 2
#     Edge 48, Type (0, 1), BuildingBlock: ZUJKAS_clean_linker_0, # of connection points: 2
#     Edge 49, Type (0, 1), BuildingBlock: ZUJKAS_clean_linker_0, # of connection points: 2
#     Edge 50, Type (0, 1), BuildingBlock: ZUJKAS_clean_linker_0, # of connection points: 2
#     Edge 51, Type (0, 1), BuildingBlock: ZUJKAS_clean_linker_0, # of connection points: 2
#     Edge 52, Type (0, 1), BuildingBlock: ZUJKAS_clean_linker_0, # of connection points: 2
#     Edge 53, Type (0, 1), BuildingBlock: ZUJKAS_clean_linker_0, # of connection points: 2
#     Edge 54, Type (0, 1), BuildingBlock: ZUJKAS_clean_linker_0, # of connection points: 2
#     Edge 55, Type (0, 1), BuildingBlock: ZUJKAS_clean_linker_0, # of connection points: 2
#     Edge 56, Type (0, 1), BuildingBlock: ZUJKAS_clean_linker_0, # of connection points: 2
#     Edge 57, Type (0, 1), BuildingBlock: ZUJKAS_clean_linker_0, # of connection points: 2
#     Edge 58, Type (0, 1), BuildingBlock: ZUJKAS_clean_linker_0, # of connection points: 2
#     Edge 59, Type (0, 1), BuildingBlock: ZUJKAS_clean_linker_0, # of connection points: 2
#     Edge 60, Type (0, 1), BuildingBlock: ZUJKAS_clean_linker_0, # of connection points: 2
#     Edge 61, Type (0, 1), BuildingBlock: ZUJKAS_clean_linker_0, # of connection points: 2
#     Edge 62, Type (0, 1), BuildingBlock: ZUJKAS_clean_linker_0, # of connection points: 2
#     Edge 63, Type (0, 1), BuildingBlock: ZUJKAS_clean_linker_0, # of connection points: 2
#     Edge 64, Type (0, 1), BuildingBlock: ZUJKAS_clean_linker_0, # of connection points: 2
#     Edge 65, Type (0, 1), BuildingBlock: ZUJKAS_clean_linker_0, # of connection points: 2
#     Edge 66, Type (0, 1), BuildingBlock: ZUJKAS_clean_linker_0, # of connection points: 2
#     Edge 67, Type (0, 1), BuildingBlock: ZUJKAS_clean_linker_0, # of connection points: 2
#     Edge 68, Type (0, 1), BuildingBlock: ZUJKAS_clean_linker_0, # of connection points: 2
#     Edge 69, Type (0, 1), BuildingBlock: ZUJKAS_clean_linker_0, # of connection points: 2
#     Edge 70, Type (0, 1), BuildingBlock: ZUJKAS_clean_linker_0, # of connection points: 2
#     Edge 71, Type (0, 1), BuildingBlock: ZUJKAS_clean_linker_0, # of connection points: 2
#     Edge 72, Type (0, 1), BuildingBlock: ZUJKAS_clean_linker_0, # of connection points: 2
#     Edge 73, Type (0, 1), BuildingBlock: ZUJKAS_clean_linker_0, # of connection points: 2
#     Edge 74, Type (0, 1), BuildingBlock: ZUJKAS_clean_linker_0, # of connection points: 2
#     Edge 75, Type (0, 1), BuildingBlock: ZUJKAS_clean_linker_0, # of connection points: 2
#     Edge 76, Type (0, 1), BuildingBlock: ZUJKAS_clean_linker_0, # of connection points: 2
#     Edge 77, Type (0, 1), BuildingBlock: ZUJKAS_clean_linker_0, # of connection points: 2
#     Edge 78, Type (0, 1), BuildingBlock: ZUJKAS_clean_linker_0, # of connection points: 2
#     Edge 79, Type (0, 1), BuildingBlock: ZUJKAS_clean_linker_0, # of connection points: 2
#     Edge 80, Type (0, 1), BuildingBlock: ZUJKAS_clean_linker_0, # of connection points: 2
#     Edge 81, Type (0, 1), BuildingBlock: ZUJKAS_clean_linker_0, # of connection points: 2
#     Edge 82, Type (0, 1), BuildingBlock: ZUJKAS_clean_linker_0, # of connection points: 2
#     Edge 83, Type (0, 1), BuildingBlock: ZUJKAS_clean_linker_0, # of connection points: 2
#     Edge 84, Type (0, 1), BuildingBlock: ZUJKAS_clean_linker_0, # of connection points: 2
#     Edge 85, Type (0, 1), BuildingBlock: ZUJKAS_clean_linker_0, # of connection points: 2
#     Edge 86, Type (0, 1), BuildingBlock: ZUJKAS_clean_linker_0, # of connection points: 2
#     Edge 87, Type (0, 1), BuildingBlock: ZUJKAS_clean_linker_0, # of connection points: 2
#     Edge 88, Type (0, 1), BuildingBlock: ZUJKAS_clean_linker_0, # of connection points: 2
#     Edge 89, Type (0, 1), BuildingBlock: ZUJKAS_clean_linker_0, # of connection points: 2
#     Edge 90, Type (0, 1), BuildingBlock: ZUJKAS_clean_linker_0, # of connection points: 2
#     Edge 91, Type (0, 1), BuildingBlock: ZUJKAS_clean_linker_0, # of connection points: 2
#     Edge 92, Type (0, 1), BuildingBlock: ZUJKAS_clean_linker_0, # of connection points: 2
#     Edge 93, Type (0, 1), BuildingBlock: ZUJKAS_clean_linker_0, # of connection points: 2
#     Edge 94, Type (0, 1), BuildingBlock: ZUJKAS_clean_linker_0, # of connection points: 2
#     Edge 95, Type (0, 1), BuildingBlock: ZUJKAS_clean_linker_0, # of connection points: 2
#     Edge 96, Type (0, 1), BuildingBlock: ZUJKAS_clean_linker_0, # of connection points: 2
#     Edge 97, Type (0, 1), BuildingBlock: ZUJKAS_clean_linker_0, # of connection points: 2
#     Edge 98, Type (0, 1), BuildingBlock: ZUJKAS_clean_linker_0, # of connection points: 2
#     Edge 99, Type (0, 1), BuildingBlock: ZUJKAS_clean_linker_0, # of connection points: 2
#     Edge 100, Type (0, 1), BuildingBlock: ZUJKAS_clean_linker_0, # of connection points: 2
#     Edge 101, Type (0, 1), BuildingBlock: ZUJKAS_clean_linker_0, # of connection points: 2
#     Edge 102, Type (0, 1), BuildingBlock: ZUJKAS_clean_linker_0, # of connection points: 2
#     Edge 103, Type (0, 1), BuildingBlock: ZUJKAS_clean_linker_0, # of connection points: 2
#     Edge 104, Type (0, 1), BuildingBlock: ZUJKAS_clean_linker_0, # of connection points: 2
#     Edge 105, Type (0, 1), BuildingBlock: ZUJKAS_clean_linker_0, # of connection points: 2
#     Edge 106, Type (0, 1), BuildingBlock: ZUJKAS_clean_linker_0, # of connection points: 2
#     Edge 107, Type (0, 1), BuildingBlock: ZUJKAS_clean_linker_0, # of connection points: 2
#     Edge 108, Type (0, 1), BuildingBlock: ZUJKAS_clean_linker_0, # of connection points: 2
#     Edge 109, Type (0, 1), BuildingBlock: ZUJKAS_clean_linker_0, # of connection points: 2
#     Edge 110, Type (0, 1), BuildingBlock: ZUJKAS_clean_linker_0, # of connection points: 2
#     Edge 111, Type (0, 1), BuildingBlock: ZUJKAS_clean_linker_0, # of connection points: 2
#     Edge 112, Type (0, 1), BuildingBlock: ZUJKAS_clean_linker_0, # of connection points: 2
#     Edge 113, Type (0, 1), BuildingBlock: ZUJKAS_clean_linker_0, # of connection points: 2
#     Edge 114, Type (0, 1), BuildingBlock: ZUJKAS_clean_linker_0, # of connection points: 2
#     Edge 115, Type (0, 1), BuildingBlock: ZUJKAS_clean_linker_0, # of connection points: 2
#     Edge 116, Type (0, 1), BuildingBlock: ZUJKAS_clean_linker_0, # of connection points: 2
#     Edge 117, Type (0, 1), BuildingBlock: ZUJKAS_clean_linker_0, # of connection points: 2
#     Edge 118, Type (0, 1), BuildingBlock: ZUJKAS_clean_linker_0, # of connection points: 2
#     Edge 119, Type (0, 1), BuildingBlock: ZUJKAS_clean_linker_0, # of connection points: 2
#     Edge 120, Type (0, 1), BuildingBlock: ZUJKAS_clean_linker_0, # of connection points: 2
#     Edge 121, Type (0, 1), BuildingBlock: ZUJKAS_clean_linker_0, # of connection points: 2
#     Edge 122, Type (0, 1), BuildingBlock: ZUJKAS_clean_linker_0, # of connection points: 2
#     Edge 123, Type (0, 1), BuildingBlock: ZUJKAS_clean_linker_0, # of connection points: 2
#     Edge 124, Type (0, 1), BuildingBlock: ZUJKAS_clean_linker_0, # of connection points: 2
#     Edge 125, Type (0, 1), BuildingBlock: ZUJKAS_clean_linker_0, # of connection points: 2
#     Edge 126, Type (0, 1), BuildingBlock: ZUJKAS_clean_linker_0, # of connection points: 2
#     Edge 127, Type (0, 1), BuildingBlock: ZUJKAS_clean_linker_0, # of connection points: 2
#     Edge 128, Type (0, 1), BuildingBlock: ZUJKAS_clean_linker_0, # of connection points: 2
#     Edge 129, Type (0, 1), BuildingBlock: ZUJKAS_clean_linker_0, # of connection points: 2
#     Edge 130, Type (0, 1), BuildingBlock: ZUJKAS_clean_linker_0, # of connection points: 2
#     Edge 131, Type (0, 1), BuildingBlock: ZUJKAS_clean_linker_0, # of connection points: 2
#     Edge 132, Type (0, 1), BuildingBlock: ZUJKAS_clean_linker_0, # of connection points: 2
#     Edge 133, Type (0, 1), BuildingBlock: ZUJKAS_clean_linker_0, # of connection points: 2
#     Edge 134, Type (0, 1), BuildingBlock: ZUJKAS_clean_linker_0, # of connection points: 2
#     Edge 135, Type (0, 1), BuildingBlock: ZUJKAS_clean_linker_0, # of connection points: 2
# Relax obj value: 0.164
# Max RMSD: 0.293
# Mean RMSD: 0.148
data_MOF--net-gar--node1-QUQFOY_clean_sbu_3--node2-BETGAK_clean_sbu_0--edge1-ZUJKAS_clean_linker_0
_symmetry_space_group_name_H-M    P1
_symmetry_Int_Tables_number       1
_symmetry_cell_setting            triclinic
loop_
_symmetry_equiv_pos_as_xyz
'x, y, z'
_cell_length_a     78.739439
_cell_length_b     74.380419
_cell_length_c     74.043397
_cell_angle_alpha  98.741448
_cell_angle_beta   94.74718
_cell_angle_gamma 102.34665
loop_
_atom_site_label
_atom_site_type_symbol
_atom_site_fract_x
_atom_site_fract_y
_atom_site_fract_z
_atom_type_partial_charge
C0 C 0.05802 0.32075 0.35426 0.0
O1 O 0.06847 0.33054 0.34541 0.0
Cd2 Cd 0.09927 0.33872 0.35246 0.0
O3 O 0.06351 0.31365 0.36753 0.0
Cd4 Cd 0.09027 0.31141 0.38514 0.0
C5 C 0.0955 0.35771 0.39704 0.0
O6 O 0.1042 0.31026 0.35901 0.0
O7 O 0.12162 0.31258 0.38375 0.0
O8 O 0.07268 0.28069 0.38401 0.0
C9 C 0.11949 0.31155 0.36643 0.0
O10 O 0.09975 0.35965 0.38109 0.0
C11 C 0.07848 0.27938 0.40014 0.0
O12 O 0.09132 0.34171 0.40167 0.0
O13 O 0.08994 0.29311 0.40939 0.0
C14 C 0.96452 0.74793 0.67012 0.0
O15 O 0.9744 0.74085 0.67993 0.0
Cd16 Cd 0.00384 0.74028 0.67701 0.0
O17 O 0.96991 0.75586 0.65699 0.0
Cd18 Cd 0.99652 0.76071 0.64297 0.0
C19 C 0.99513 0.7162 0.63289 0.0
O20 O 0.01774 0.7692 0.66969 0.0
O21 O 0.02642 0.75832 0.64412 0.0
O22 O 0.99736 0.7925 0.64082 0.0
C23 C 0.03022 0.76622 0.6608 0.0
O24 O 1.00181 0.71791 0.64947 0.0
C25 C 0.99891 0.79047 0.62376 0.0
O26 O 0.98985 0.72933 0.62673 0.0
O27 O 0.99761 0.77399 0.6152 0.0
C28 C 0.5596 0.82134 0.85347 0.0
O29 O 0.57048 0.83244 0.84616 0.0
Cd30 Cd 0.60137 0.84184 0.85519 0.0
O31 O 0.56452 0.81366 0.86655 0.0
Cd32 Cd 0.59047 0.81271 0.886 0.0
C33 C 0.5948 0.85955 0.89857 0.0
O34 O 0.6071 0.81354 0.8617 0.0
O35 O 0.62194 0.81304 0.88751 0.0
O36 O 0.57838 0.78005 0.88407 0.0
C37 C 0.62155 0.8136 0.87044 0.0
O38 O 0.6007 0.86266 0.88356 0.0
C39 C 0.57806 0.78099 0.9013 0.0
O40 O 0.59014 0.84309 0.90202 0.0
O41 O 0.58376 0.79687 0.91157 0.0
C42 C 0.46437 0.24614 0.17011 0.0
O43 O 0.47486 0.24022 0.18039 0.0
Cd44 Cd 0.50435 0.23995 0.17771 0.0
O45 O 0.46909 0.25311 0.15618 0.0
Cd46 Cd 0.49558 0.2582 0.14155 0.0
C47 C 0.49642 0.21351 0.13429 0.0
O48 O 0.5164 0.26837 0.16866 0.0
O49 O 0.52616 0.25882 0.14345 0.0
O50 O 0.49268 0.2888 0.13657 0.0
C51 C 0.52936 0.26603 0.16034 0.0
O52 O 0.50265 0.21639 0.15117 0.0
C53 C 0.49738 0.2866 0.12055 0.0
O54 O 0.49059 0.22588 0.12718 0.0
O55 O 0.49904 0.27046 0.11364 0.0
C56 C 0.03873 0.78962 0.14178 0.0
O57 O 0.04829 0.7805 0.14945 0.0
Cd58 Cd 0.0783 0.77987 0.14696 0.0
O59 O 0.04492 0.80049 0.13086 0.0
Cd60 Cd 0.07372 0.80832 0.11693 0.0
C61 C 0.07097 0.76184 0.10081 0.0
O62 O 0.09389 0.81017 0.14487 0.0
O63 O 0.10662 0.81032 0.12043 0.0
O64 O 0.07404 0.84164 0.11495 0.0
C65 C 0.10801 0.81051 0.13769 0.0
O66 O 0.07608 0.76045 0.11719 0.0
C67 C 0.06989 0.83903 0.09763 0.0
O68 O 0.06774 0.777 0.09688 0.0
O69 O 0.06798 0.82242 0.08913 0.0
C70 C 0.47717 0.77097 0.37775 0.0
O71 O 0.48922 0.77999 0.37003 0.0
Cd72 Cd 0.5201 0.78815 0.37754 0.0
O73 O 0.48119 0.76297 0.39123 0.0
Cd74 Cd 0.51173 0.7614 0.40833 0.0
C75 C 0.51903 0.80823 0.42251 0.0
O76 O 0.53064 0.76199 0.38311 0.0
O77 O 0.5443 0.76999 0.41041 0.0
O78 O 0.50508 0.7276 0.41131 0.0
C79 C 0.5452 0.76686 0.39328 0.0
O80 O 0.52242 0.80939 0.40616 0.0
C81 C 0.51053 0.73031 0.4284 0.0
O82 O 0.51401 0.7924 0.42744 0.0
O83 O 0.51519 0.74726 0.43637 0.0
C84 C 0.53927 0.29047 0.64363 0.0
O85 O 0.54962 0.28312 0.65256 0.0
Cd86 Cd 0.57831 0.2808 0.64688 0.0
O87 O 0.54455 0.29933 0.63083 0.0
Cd88 Cd 0.57355 0.30805 0.61689 0.0
C89 C 0.56807 0.26188 0.60062 0.0
O90 O 0.59442 0.31099 0.64455 0.0
O91 O 0.6059 0.30801 0.61941 0.0
O92 O 0.5712 0.34072 0.61585 0.0
C93 C 0.60805 0.31003 0.63685 0.0
O94 O 0.57231 0.26024 0.61714 0.0
C95 C 0.57031 0.33936 0.59845 0.0
O96 O 0.56699 0.27757 0.59631 0.0
O97 O 0.57138 0.32369 0.58958 0.0
C98 C 0.97793 0.26909 0.87712 0.0
O99 O 0.98987 0.27813 0.86931 0.0
Cd100 Cd 0.02056 0.28671 0.8793 0.0
O101 O 0.98207 0.26196 0.89116 0.0
Cd102 Cd 0.01246 0.26116 0.90834 0.0
C103 C 0.02051 0.30694 0.92431 0.0
O104 O 0.03239 0.26093 0.88405 0.0
O105 O 0.04464 0.27471 0.91103 0.0
O106 O 0.01088 0.22772 0.90997 0.0
C107 C 0.04648 0.26845 0.89457 0.0
O108 O 0.02483 0.30837 0.9083 0.0
C109 C 0.01232 0.22947 0.9274 0.0
O110 O 0.0137 0.2911 0.92829 0.0
O111 O 0.01259 0.24564 0.93613 0.0
C112 C 0.45086 0.02654 0.31214 0.0
O113 O 0.45858 0.01871 0.29986 0.0
Cd114 Cd 0.45658 0.01736 0.26724 0.0
O115 O 0.43927 0.03532 0.30837 0.0
Cd116 Cd 0.42379 0.03839 0.28069 0.0
C117 C 0.41571 0.99144 0.26444 0.0
O118 O 0.44701 0.04438 0.2628 0.0
O119 O 0.42135 0.04179 0.24885 0.0
O120 O 0.41473 0.06617 0.29187 0.0
C121 C 0.43739 0.04238 0.24775 0.0
O122 O 0.43077 0.99213 0.2591 0.0
C123 C 0.39868 0.0583 0.28664 0.0
O124 O 0.41169 1.00574 0.27311 0.0
O125 O 0.39461 0.04076 0.28104 0.0
C126 C 0.30948 0.1561 0.50589 0.0
O127 O 0.29765 0.14564 0.51265 0.0
Cd128 Cd 0.26941 0.15085 0.51697 0.0
O129 O 0.30622 0.16988 0.49886 0.0
Cd130 Cd 0.27879 0.18247 0.49231 0.0
C131 C 0.28137 0.19746 0.53783 0.0
O132 O 0.25538 0.15317 0.4882 0.0
O133 O 0.24684 0.17849 0.49556 0.0
O134 O 0.28638 0.18492 0.46065 0.0
C135 C 0.24272 0.16083 0.49117 0.0
O136 O 0.27436 0.18046 0.53826 0.0
C137 C 0.28358 0.2011 0.46048 0.0
O138 O 0.28604 0.20265 0.52299 0.0
O139 O 0.27869 0.2088 0.47505 0.0
C140 C 0.13179 0.01746 0.80543 0.0
O141 O 0.12433 0.02656 0.79531 0.0
Cd142 Cd 0.13205 0.03351 0.76539 0.0
O143 O 0.14444 0.01038 0.79924 0.0
Cd144 Cd 0.16078 0.00806 0.76633 0.0
C145 C 0.17491 0.05928 0.76806 0.0
O146 O 0.13252 1.00579 0.74413 0.0
O147 O 0.15592 0.00834 0.7313 0.0
O148 O 0.16334 0.97255 0.76476 0.0
C149 C 0.13952 0.00709 0.72933 0.0
O150 O 0.15849 0.05842 0.76638 0.0
C151 C 0.1798 0.9744 0.76456 0.0
O152 O 0.18019 0.0441 0.76949 0.0
O153 O 0.18782 0.99142 0.76543 0.0
C154 C 0.33866 0.93925 0.00937 0.0
O155 O 0.33354 0.9541 0.01372 0.0
Cd156 Cd 0.30969 0.95091 0.99065 0.0
O157 O 0.3286 0.92584 0.99836 0.0
Cd158 Cd 0.29794 0.92312 0.0041 0.0
C159 C 0.30082 0.90701 0.96408 0.0
O160 O 0.28646 0.9512 0.00854 0.0
O161 O 0.2684 0.92484 0.99598 0.0
O162 O 0.31054 0.92813 0.03498 0.0
C163 C 0.27088 0.94176 0.00376 0.0
O164 O 0.3076 0.92438 0.96542 0.0
C165 C 0.30278 0.91229 0.038 0.0
O166 O 0.29395 0.90074 0.97738 0.0
O167 O 0.29155 0.90167 0.02535 0.0
C168 C 0.33721 0.41914 0.02308 0.0
O169 O 0.3272 0.42639 0.01359 0.0
Cd170 Cd 0.29602 0.41886 0.00742 0.0
O171 O 0.33066 0.40599 0.03161 0.0
Cd172 Cd 0.29878 0.3881 0.03338 0.0
C173 C 0.29213 0.37325 0.987 0.0
O174 O 0.28286 0.41347 0.03417 0.0
O175 O 0.26678 0.3857 0.02654 0.0
O176 O 0.30323 0.38658 0.0666 0.0
C177 C 0.26759 0.40311 0.02978 0.0
O178 O 0.29003 0.38962 0.98613 0.0
C179 C 0.29819 0.36893 0.06492 0.0
O180 O 0.29688 0.36891 1.00238 0.0
O181 O 0.29397 0.35999 0.04855 0.0
C182 C 0.80594 0.11947 0.02456 0.0
O183 O 0.79457 0.10871 0.03158 0.0
Cd184 Cd 0.76692 0.11649 0.03612 0.0
O185 O 0.80297 0.13434 0.0201 0.0
Cd186 Cd 0.78069 0.1509 0.01971 0.0
C187 C 0.77974 0.15926 0.06353 0.0
O188 O 0.75578 0.12559 0.00879 0.0
O189 O 0.75086 0.15195 0.0216 0.0
O190 O 0.78637 0.15349 0.98926 0.0
C191 C 0.74514 0.13606 0.01155 0.0
O192 O 0.77013 0.14279 0.06093 0.0
C193 C 0.78566 0.1705 0.99092 0.0
O194 O 0.78806 0.16553 0.051 0.0
O195 O 0.78498 0.17912 0.00695 0.0
C196 C 0.13533 0.54407 0.27098 0.0
O197 O 0.12256 0.54469 0.25964 0.0
Cd198 Cd 0.12601 0.54985 0.22927 0.0
O199 O 0.15012 0.54298 0.26598 0.0
Cd200 Cd 0.16526 0.539 0.23947 0.0
C201 C 0.1636 0.5837 0.24606 0.0
O202 O 0.14223 0.52905 0.21697 0.0
O203 O 0.16682 0.5409 0.20747 0.0
O204 O 0.16697 0.50999 0.24553 0.0
C205 C 0.15034 0.53468 0.20407 0.0
O206 O 0.14786 0.57925 0.23829 0.0
C207 C 0.18359 0.51342 0.24729 0.0
O208 O 0.17254 0.57176 0.24865 0.0
O209 O 0.19204 0.52946 0.24513 0.0
C210 C 0.83589 0.91862 0.52185 0.0
O211 O 0.82533 0.92463 0.51173 0.0
Cd212 Cd 0.79417 0.91512 0.50622 0.0
O213 O 0.82999 0.9059 0.53114 0.0
Cd214 Cd 0.79866 0.88709 0.53324 0.0
C215 C 0.79316 0.87005 0.48773 0.0
O216 O 0.78233 0.91216 0.53425 0.0
O217 O 0.76686 0.88435 0.52492 0.0
O218 O 0.80671 0.88455 0.56589 0.0
C219 C 0.76722 0.90156 0.52941 0.0
O220 O 0.78848 0.88506 0.48579 0.0
C221 C 0.79786 0.8679 0.56473 0.0
O222 O 0.79956 0.86765 0.50334 0.0
O223 O 0.78991 0.85997 0.549 0.0
C224 C 0.94963 0.05419 0.2939 0.0
O225 O 0.95472 0.0423 0.28273 0.0
Cd226 Cd 0.94552 0.03399 0.25001 0.0
O227 O 0.93854 0.06307 0.28763 0.0
Cd228 Cd 0.92056 0.06185 0.25358 0.0
C229 C 0.90371 0.01032 0.25134 0.0
O230 O 0.94758 0.06109 0.23469 0.0
O231 O 0.92344 0.05578 0.21767 0.0
O232 O 0.91887 0.09795 0.25853 0.0
C233 C 0.94001 0.05821 0.21828 0.0
O234 O 0.91871 0.00909 0.24679 0.0
C235 C 0.90232 0.09634 0.25713 0.0
O236 O 0.90058 0.02684 0.25534 0.0
O237 O 0.89391 0.07927 0.25426 0.0
C238 C 0.30645 0.61968 0.52364 0.0
O239 O 0.29504 0.60995 0.53151 0.0
Cd240 Cd 0.26754 0.61816 0.5353 0.0
O241 O 0.30402 0.63423 0.51802 0.0
Cd242 Cd 0.28316 0.65228 0.51593 0.0
C243 C 0.28085 0.66291 0.55979 0.0
O244 O 0.2577 0.62767 0.50781 0.0
O245 O 0.2541 0.65543 0.51823 0.0
O246 O 0.28583 0.64938 0.4844 0.0
C247 C 0.2476 0.63878 0.51023 0.0
O248 O 0.27222 0.64607 0.55816 0.0
C249 C 0.28749 0.66659 0.48391 0.0
O250 O 0.28876 0.66881 0.54678 0.0
O251 O 0.28962 0.67784 0.49915 0.0
C252 C 0.44945 0.55415 0.79404 0.0
O253 O 0.456 0.5435 0.78301 0.0
Cd254 Cd 0.44519 0.53485 0.75068 0.0
O255 O 0.43726 0.56154 0.78756 0.0
Cd256 Cd 0.41994 0.56097 0.75344 0.0
C257 C 0.40354 0.51029 0.75229 0.0
O258 O 0.44731 0.56179 0.73484 0.0
O259 O 0.4231 0.55322 0.71773 0.0
O260 O 0.4176 0.59657 0.76282 0.0
C261 C 0.43971 0.55754 0.7184 0.0
O262 O 0.41863 0.50919 0.74793 0.0
C263 C 0.40162 0.59527 0.75687 0.0
O264 O 0.40015 0.52667 0.75593 0.0
O265 O 0.39383 0.57858 0.74944 0.0
C266 C 0.63218 0.03985 0.76973 0.0
O267 O 0.61917 0.03831 0.75783 0.0
Cd268 Cd 0.6253 0.04935 0.73041 0.0
O269 O 0.64741 0.04052 0.76508 0.0
Cd270 Cd 0.66246 0.03665 0.73803 0.0
C271 C 0.66295 0.08105 0.75132 0.0
O272 O 0.64026 0.02934 0.71415 0.0
O273 O 0.66571 0.0422 0.70702 0.0
O274 O 0.6635 0.00719 0.74391 0.0
C275 C 0.64933 0.03617 0.70241 0.0
O276 O 0.64718 0.07773 0.74381 0.0
C277 C 0.68009 0.01025 0.74492 0.0
O278 O 0.67154 0.06839 0.75125 0.0
O279 O 0.68864 0.02585 0.74182 0.0
C280 C 0.80921 0.6577 0.00941 0.0
O281 O 0.79761 0.64835 0.01741 0.0
Cd282 Cd 0.76772 0.64957 0.01874 0.0
O283 O 0.80546 0.66962 0.99986 0.0
Cd284 Cd 0.77808 0.68203 0.9928 0.0
C285 C 0.77797 0.6961 0.03896 0.0
O286 O 0.75542 0.65269 0.98964 0.0
O287 O 0.74541 0.67744 0.99158 0.0
O288 O 0.78497 0.68378 0.96095 0.0
C289 C 0.74215 0.65979 0.99005 0.0
O290 O 0.77122 0.67897 0.03911 0.0
C291 C 0.78403 0.70067 0.96125 0.0
O292 O 0.78323 0.70148 0.02436 0.0
O293 O 0.78065 0.70915 0.97631 0.0
C294 C 0.9541 0.531 0.81222 0.0
O295 O 0.96378 0.5266 0.80019 0.0
Cd296 Cd 0.9569 0.51977 0.76788 0.0
O297 O 0.93947 0.53468 0.80787 0.0
Cd298 Cd 0.92154 0.5353 0.78062 0.0
C299 C 0.91967 0.48934 0.77421 0.0
O300 O 0.94104 0.54089 0.75859 0.0
O301 O 0.91398 0.52822 0.74803 0.0
O302 O 0.91471 0.56477 0.78971 0.0
C303 C 0.92954 0.53408 0.74481 0.0
O304 O 0.93418 0.49179 0.76746 0.0
C305 C 0.89831 0.55793 0.78594 0.0
O306 O 0.91318 0.50286 0.78076 0.0
O307 O 0.89296 0.54025 0.78212 0.0
C308 C 0.83562 0.43661 0.50957 0.0
O309 O 0.8303 0.45082 0.51601 0.0
Cd310 Cd 0.80692 0.44968 0.49284 0.0
O311 O 0.82544 0.424 0.49788 0.0
Cd312 Cd 0.79506 0.41941 0.5043 0.0
C313 C 0.79938 0.40789 0.46315 0.0
O314 O 0.78368 0.44722 0.51048 0.0
O315 O 0.76539 0.4214 0.49692 0.0
O316 O 0.80544 0.42222 0.53553 0.0
C317 C 0.76806 0.43819 0.50525 0.0
O318 O 0.80512 0.42554 0.46539 0.0
C319 C 0.79917 0.40523 0.53641 0.0
O320 O 0.79312 0.40024 0.47605 0.0
O321 O 0.78998 0.39474 0.5222 0.0
C322 C 0.6314 0.51848 0.30437 0.0
O323 O 0.6251 0.52832 0.29415 0.0
Cd324 Cd 0.63202 0.5335 0.26365 0.0
O325 O 0.64326 0.51006 0.29821 0.0
Cd326 Cd 0.66004 0.50784 0.26561 0.0
C327 C 0.67462 0.55894 0.26661 0.0
O328 O 0.63207 0.50533 0.24283 0.0
O329 O 0.65595 0.50963 0.23088 0.0
O330 O 0.66251 0.47215 0.26272 0.0
C331 C 0.63943 0.50741 0.22835 0.0
O332 O 0.65827 0.55816 0.26394 0.0
C333 C 0.67908 0.47411 0.26381 0.0
O334 O 0.67967 0.54387 0.2691 0.0
O335 O 0.68719 0.49124 0.26594 0.0
La336 La 0.02256 0.02652 0.00506 0.0
La337 La 0.05949 0.04461 0.02467 0.0
C338 C 0.98989 0.01717 0.99829 0.0
C339 C 0.97694 0.02826 0.9955 0.0
C340 C 0.96629 0.02445 0.97858 0.0
C341 C 0.95408 0.035 0.97544 0.0
C342 C 0.9524 0.04936 0.98923 0.0
C343 C 0.96337 0.05366 0.00592 0.0
C344 C 0.97572 0.04327 0.009 0.0
C345 C 0.04561 0.0251 0.9795 0.0
C346 C 0.03816 0.07014 0.00716 0.0
C347 C 0.09226 0.05379 0.0311 0.0
C348 C 0.10484 0.0421 0.03232 0.0
C349 C 0.12047 0.0489 0.0441 0.0
C350 C 0.13193 0.0373 0.04641 0.0
C351 C 0.12775 0.01868 0.03711 0.0
C352 C 0.11187 0.01183 0.02558 0.0
C353 C 0.10055 0.02349 0.02312 0.0
C354 C 0.03619 0.0463 0.05003 0.0
C355 C 0.04394 1.00078 0.02232 0.0
O356 O 1.00039 0.01658 0.98561 0.0
O357 O 0.99817 0.01966 0.01487 0.0
O358 O 0.02886 0.01843 0.97688 0.0
O359 O 0.04875 0.03171 0.99685 0.0
O360 O 0.02404 0.05621 0.0044 0.0
O361 O 0.05368 0.06858 0.01408 0.0
O362 O 0.0819 0.05325 0.04396 0.0
O363 O 0.08375 0.05237 0.01482 0.0
O364 O 0.05293 0.05318 0.05279 0.0
O365 O 0.03331 0.03959 0.03273 0.0
O366 O 0.05782 0.015 0.02558 0.0
O367 O 0.0285 1.00225 0.01502 0.0
H368 H 0.96729 0.01315 0.9679 0.0
H369 H 0.94546 0.03147 0.9626 0.0
H370 H 0.96196 0.06464 0.01673 0.0
H371 H 0.98407 0.04681 0.022 0.0
H372 H 0.12378 0.06315 0.05151 0.0
H373 H 0.14421 0.04305 0.05516 0.0
H374 H 0.10821 0.99748 0.01844 0.0
H375 H 0.08841 0.01793 0.0141 0.0
La376 La 0.29492 0.78031 0.24446 0.0
La377 La 0.27968 0.78728 0.2833 0.0
C378 C 0.29906 0.77802 0.21129 0.0
C379 C 0.30723 0.79301 0.20199 0.0
C380 C 0.31903 0.78982 0.18941 0.0
C381 C 0.32692 0.80422 0.18067 0.0
C382 C 0.32312 0.82191 0.1846 0.0
C383 C 0.3123 0.82539 0.19819 0.0
C384 C 0.30429 0.81101 0.2067 0.0
C385 C 0.3195 0.78578 0.2735 0.0
C386 C 0.29872 0.82073 0.26598 0.0
C387 C 0.27555 0.79077 0.31653 0.0
C388 C 0.26437 0.77838 0.32653 0.0
C389 C 0.25269 0.78528 0.33746 0.0
C390 C 0.24263 0.77374 0.34769 0.0
C391 C 0.24409 0.75519 0.34689 0.0
C392 C 0.25506 0.74801 0.33517 0.0
C393 C 0.26512 0.75952 0.32505 0.0
C394 C 0.25501 0.783 0.25439 0.0
C395 C 0.28125 0.7466 0.26391 0.0
O396 O 0.30978 0.77347 0.22333 0.0
O397 O 0.2842 0.77957 0.21748 0.0
O398 O 0.32252 0.78371 0.25646 0.0
O399 O 0.30341 0.78537 0.27293 0.0
O400 O 0.29683 0.80989 0.24975 0.0
O401 O 0.29422 0.81483 0.28123 0.0
O402 O 0.26733 0.79858 0.3049 0.0
O403 O 0.28843 0.78439 0.3098 0.0
O404 O 0.25227 0.78504 0.2715 0.0
O405 O 0.27097 0.78256 0.25469 0.0
O406 O 0.27895 0.75774 0.27884 0.0
O407 O 0.28496 0.75208 0.24822 0.0
H408 H 0.32181 0.77613 0.18604 0.0
H409 H 0.33517 0.80122 0.17013 0.0
H410 H 0.30935 0.839 0.20156 0.0
H411 H 0.29546 0.81394 0.21659 0.0
H412 H 0.25173 0.79971 0.33847 0.0
H413 H 0.2343 0.77948 0.3568 0.0
H414 H 0.25669 0.73385 0.33469 0.0
H415 H 0.27388 0.75375 0.31656 0.0
La416 La 0.5607 0.03496 0.5125 0.0
La417 La 0.52107 0.03199 0.51546 0.0
C418 C 0.59164 0.03073 0.51127 0.0
C419 C 0.60184 0.01599 0.50952 0.0
C420 C 0.60612 0.00884 0.49216 0.0
C421 C 0.61775 0.99697 0.49059 0.0
C422 C 0.62559 0.99219 0.50636 0.0
C423 C 0.62084 0.99876 0.52363 0.0
C424 C 0.6091 0.0105 0.5252 0.0
C425 C 0.54081 0.03767 0.48365 0.0
C426 C 0.53363 0.99532 0.50716 0.0
C427 C 0.49045 0.03689 0.51023 0.0
C428 C 0.48051 0.05136 0.51571 0.0
C429 C 0.46847 0.0486 0.5286 0.0
C430 C 0.45741 0.06084 0.53222 0.0
C431 C 0.45809 0.07615 0.52303 0.0
C432 C 0.47068 0.07941 0.51076 0.0
C433 C 0.48171 0.06713 0.50708 0.0
C434 C 0.53905 0.0279 0.54467 0.0
C435 C 0.54915 0.07194 0.52435 0.0
O436 O 0.58097 0.03099 0.49686 0.0
O437 O 0.58503 0.03472 0.52668 0.0
O438 O 0.55668 0.04753 0.48795 0.0
O439 O 0.53708 0.02692 0.49478 0.0
O440 O 0.5498 1.00527 0.51305 0.0
O441 O 0.52036 1.00321 0.50388 0.0
O442 O 0.49561 0.02828 0.52313 0.0
O443 O 0.5023 0.04053 0.49901 0.0
O444 O 0.52227 0.02132 0.54116 0.0
O445 O 0.54445 0.03861 0.53375 0.0
O446 O 0.53265 0.06216 0.52067 0.0
O447 O 0.56274 0.06408 0.52379 0.0
H448 H 0.60097 0.01296 0.47979 0.0
H449 H 0.62124 0.99225 0.47711 0.0
H450 H 0.62652 0.99512 0.53601 0.0
H451 H 0.60618 0.01577 0.53877 0.0
H452 H 0.46719 0.03661 0.53548 0.0
H453 H 0.44801 0.05806 0.54192 0.0
H454 H 0.47145 0.09095 0.5033 0.0
H455 H 0.49077 0.06968 0.49702 0.0
La456 La 0.27331 0.29088 0.76258 0.0
La457 La 0.30894 0.28185 0.76538 0.0
C458 C 0.24245 0.29416 0.76715 0.0
C459 C 0.23031 0.29454 0.78158 0.0
C460 C 0.22361 0.31049 0.78616 0.0
C461 C 0.21077 0.31067 0.7982 0.0
C462 C 0.20416 0.29483 0.80595 0.0
C463 C 0.21131 0.27904 0.80182 0.0
C464 C 0.2242 0.27888 0.78979 0.0
C465 C 0.29986 0.31908 0.75862 0.0
C466 C 0.29449 0.2928 0.80203 0.0
C467 C 0.34111 0.28612 0.76146 0.0
C468 C 0.35224 0.28101 0.74702 0.0
C469 C 0.36026 0.26587 0.74738 0.0
C470 C 0.37238 0.26255 0.73509 0.0
C471 C 0.37695 0.27439 0.72221 0.0
C472 C 0.36841 0.28912 0.72148 0.0
C473 C 0.35627 0.29237 0.73367 0.0
C474 C 0.28464 0.24933 0.76375 0.0
C475 C 0.2868 0.27676 0.72619 0.0
O476 O 0.25596 0.30826 0.76899 0.0
O477 O 0.24645 0.27831 0.761 0.0
O478 O 0.28449 0.31444 0.74911 0.0
O479 O 0.29992 0.3077 0.76994 0.0
O480 O 0.27961 0.29246 0.79214 0.0
O481 O 0.30859 0.29002 0.79463 0.0
O482 O 0.33257 0.27297 0.76946 0.0
O483 O 0.33167 0.298 0.75811 0.0
O484 O 0.3015 0.2514 0.76512 0.0
O485 O 0.28213 0.2657 0.76331 0.0
O486 O 0.30213 0.27928 0.73599 0.0
O487 O 0.27253 0.27846 0.73387 0.0
H488 H 0.22795 0.32272 0.77997 0.0
H489 H 0.20553 0.32302 0.80083 0.0
H490 H 0.20679 0.26668 0.80773 0.0
H491 H 0.22909 0.26635 0.78664 0.0
H492 H 0.35753 0.25686 0.75749 0.0
H493 H 0.3784 0.25086 0.73593 0.0
H494 H 0.37166 0.29876 0.71204 0.0
H495 H 0.35052 0.30427 0.733 0.0
La496 La 0.03952 0.052 0.52166 0.0
La497 La 0.04559 0.01702 0.50535 0.0
C498 C 0.03791 0.08565 0.5278 0.0
C499 C 0.0378 0.09894 0.51512 0.0
C500 C 0.02668 0.11132 0.51697 0.0
C501 C 0.02636 0.12384 0.50477 0.0
C502 C 0.03718 0.12409 0.49061 0.0
C503 C 0.04783 0.1112 0.48839 0.0
C504 C 0.04813 0.09869 0.50053 0.0
C505 C 0.01379 0.02319 0.52363 0.0
C506 C 0.03025 0.03836 0.47734 0.0
C507 C 0.04564 0.98298 0.49941 0.0
C508 C 0.04816 0.97032 0.5122 0.0
C509 C 0.0594 0.95831 0.50864 0.0
C510 C 0.06172 0.94601 0.52058 0.0
C511 C 0.05268 0.94546 0.53616 0.0
C512 C 0.04198 0.95809 0.54009 0.0
C513 C 0.03981 0.97049 0.52827 0.0
C514 C 0.07159 0.04539 0.5029 0.0
C515 C 0.05562 0.03105 0.54976 0.0
O516 O 0.02412 0.07182 0.52528 0.0
O517 O 0.05247 0.08007 0.53026 0.0
O518 O 0.01969 0.03735 0.53678 0.0
O519 O 0.02206 0.02578 0.51001 0.0
O520 O 0.03474 0.05258 0.49142 0.0
O521 O 0.03197 0.02161 0.47994 0.0
O522 O 0.05937 0.99614 0.49858 0.0
O523 O 0.03136 0.98923 0.5001 0.0
O524 O 0.06572 0.03074 0.49022 0.0
O525 O 0.06321 0.04347 0.51664 0.0
O526 O 0.05268 0.01719 0.53536 0.0
O527 O 0.0522 0.0473 0.54757 0.0
H528 H 0.0184 0.11141 0.52794 0.0
H529 H 0.01811 0.13373 0.5068 0.0
H530 H 0.05608 0.11094 0.47738 0.0
H531 H 0.05651 0.08892 0.49855 0.0
H532 H 0.06621 0.95828 0.49651 0.0
H533 H 0.07027 0.93664 0.5174 0.0
H534 H 0.03467 0.95787 0.55186 0.0
H535 H 0.03131 0.97992 0.53152 0.0
La536 La 0.30844 0.80004 0.76168 0.0
La537 La 0.2757 0.77216 0.76129 0.0
C538 C 0.33883 0.82004 0.76914 0.0
C539 C 0.35569 0.81498 0.77231 0.0
C540 C 0.36711 0.8159 0.75872 0.0
C541 C 0.38261 0.80992 0.76102 0.0
C542 C 0.38698 0.80311 0.77702 0.0
C543 C 0.37552 0.80212 0.79056 0.0
C544 C 0.36 0.80798 0.78823 0.0
C545 C 0.29281 0.7841 0.72902 0.0
C546 C 0.31014 0.75615 0.76315 0.0
C547 C 0.2453 0.75246 0.75233 0.0
C548 C 0.22806 0.75703 0.75112 0.0
C549 C 0.21743 0.75447 0.76528 0.0
C550 C 0.20095 0.75855 0.76395 0.0
C551 C 0.19511 0.76536 0.74856 0.0
C552 C 0.2058 0.76839 0.73465 0.0
C553 C 0.22215 0.76418 0.73585 0.0
C554 C 0.29152 0.78739 0.79414 0.0
C555 C 0.27391 0.81605 0.76005 0.0
O556 O 0.33088 0.81463 0.75236 0.0
O557 O 0.32808 0.81701 0.78149 0.0
O558 O 0.30099 0.80152 0.73301 0.0
O559 O 0.29439 0.77635 0.74275 0.0
O560 O 0.31859 0.77429 0.76629 0.0
O561 O 0.29279 0.75183 0.75902 0.0
O562 O 0.25365 0.75489 0.76888 0.0
O563 O 0.25556 0.75866 0.74052 0.0
O564 O 0.28246 0.77029 0.78988 0.0
O565 O 0.29002 0.79557 0.78064 0.0
O566 O 0.26543 0.79806 0.75828 0.0
O567 O 0.29135 0.82037 0.76278 0.0
H568 H 0.36397 0.8211 0.74626 0.0
H569 H 0.39125 0.81077 0.75037 0.0
H570 H 0.37877 0.79733 0.80323 0.0
H571 H 0.35145 0.807 0.79894 0.0
H572 H 0.22171 0.74903 0.77719 0.0
H573 H 0.19259 0.75595 0.77463 0.0
H574 H 0.20119 0.7733 0.72251 0.0
H575 H 0.22999 0.76627 0.72467 0.0
La576 La 0.53959 0.03633 0.02933 0.0
La577 La 0.53598 0.03562 0.98913 0.0
C578 C 0.53672 0.03888 0.0629 0.0
C579 C 0.52595 0.02588 0.07281 0.0
C580 C 0.53225 0.01106 0.0785 0.0
C581 C 0.52231 0.99911 0.08839 0.0
C582 C 0.50595 1.00177 0.09263 0.0
C583 C 0.49916 0.01584 0.08611 0.0
C584 C 0.50913 0.0279 0.07632 0.0
C585 C 0.53937 1.00379 0.00897 0.0
C586 C 0.50231 0.02866 0.00658 0.0
C587 C 0.53961 0.03211 0.95576 0.0
C588 C 0.55247 0.0442 0.94698 0.0
C589 C 0.55273 0.06335 0.94811 0.0
C590 C 0.56609 0.07512 0.94145 0.0
C591 C 0.57947 0.068 0.93375 0.0
C592 C 0.57923 0.0489 0.93272 0.0
C593 C 0.56583 0.03711 0.93926 0.0
C594 C 0.53589 0.06807 0.00913 0.0
C595 C 0.57335 0.04497 0.01269 0.0
O596 O 0.54936 0.03289 0.05537 0.0
O597 O 0.52827 0.04716 0.05198 0.0
O598 O 0.5485 0.01025 0.02475 0.0
O599 O 0.5301 0.01484 0.00569 0.0
O600 O 0.51214 0.03625 0.02233 0.0
O601 O 0.50931 0.023 0.99181 0.0
O602 O 0.52762 0.03975 0.96284 0.0
O603 O 0.54622 0.0225 0.9668 0.0
O604 O 0.52731 0.06185 0.99301 0.0
O605 O 0.54516 0.05709 0.0127 0.0
O606 O 0.56387 0.03719 0.99674 0.0
O607 O 0.5659 0.05028 0.0272 0.0
H608 H 0.54507 0.00898 0.07582 0.0
H609 H 0.52776 0.98843 0.09359 0.0
H610 H 0.48667 0.0183 0.08967 0.0
H611 H 0.50389 0.0391 0.07197 0.0
H612 H 0.54275 0.06934 0.95429 0.0
H613 H 0.56593 0.08975 0.94223 0.0
H614 H 0.58914 0.04292 0.92636 0.0
H615 H 0.56599 0.02248 0.93846 0.0
La616 La 0.29331 0.30143 0.26897 0.0
La617 La 0.28174 0.26293 0.2524 0.0
C618 C 0.29862 0.33601 0.27957 0.0
C619 C 0.28725 0.34878 0.2833 0.0
C620 C 0.29226 0.36331 0.29841 0.0
C621 C 0.2817 0.37583 0.30214 0.0
C622 C 0.26608 0.37397 0.2907 0.0
C623 C 0.26073 0.3589 0.27598 0.0
C624 C 0.27123 0.34629 0.27235 0.0
C625 C 0.29523 0.27817 0.29249 0.0
C626 C 0.25308 0.2824 0.26251 0.0
C627 C 0.27724 0.22833 0.24251 0.0
C628 C 0.2894 0.21616 0.2418 0.0
C629 C 0.28636 0.20053 0.22782 0.0
C630 C 0.29802 0.18886 0.227 0.0
C631 C 0.3128 0.19285 0.24017 0.0
C632 C 0.31618 0.20898 0.25368 0.0
C633 C 0.30451 0.22056 0.25453 0.0
C634 C 0.27989 0.28577 0.22854 0.0
C635 C 0.32189 0.28236 0.25819 0.0
O636 O 0.2984 0.32405 0.29077 0.0
O637 O 0.298 0.32828 0.26238 0.0
O638 O 0.30715 0.29293 0.29194 0.0
O639 O 0.2828 0.27682 0.28012 0.0
O640 O 0.26499 0.29808 0.26368 0.0
O641 O 0.25716 0.26614 0.26073 0.0
O642 O 0.27939 0.24018 0.23114 0.0
O643 O 0.27515 0.23612 0.25898 0.0
O644 O 0.26822 0.27074 0.22896 0.0
O645 O 0.29216 0.28755 0.24125 0.0
O646 O 0.31014 0.26675 0.25807 0.0
O647 O 0.3175 0.29845 0.25958 0.0
H648 H 0.30445 0.3651 0.30715 0.0
H649 H 0.28594 0.38727 0.31367 0.0
H650 H 0.24884 0.35732 0.26681 0.0
H651 H 0.26704 0.33491 0.26077 0.0
H652 H 0.27487 0.19725 0.21773 0.0
H653 H 0.29516 0.17639 0.21654 0.0
H654 H 0.32765 0.21241 0.26381 0.0
H655 H 0.30719 0.23276 0.26528 0.0
La656 La 0.53894 0.55321 0.02078 0.0
La657 La 0.54556 0.51503 0.00511 0.0
C658 C 0.53716 0.58674 0.02516 0.0
C659 C 0.53597 0.59953 0.01203 0.0
C660 C 0.52103 0.60683 0.01021 0.0
C661 C 0.51937 0.61849 0.99742 0.0
C662 C 0.53271 0.62316 0.98633 0.0
C663 C 0.54753 0.61555 0.98793 0.0
C664 C 0.54911 0.60382 1.00063 0.0
C665 C 0.51437 0.52375 0.02361 0.0
C666 C 0.53072 0.53698 0.97635 0.0
C667 C 0.54065 0.48024 1.0003 0.0
C668 C 0.5439 0.46833 0.01365 0.0
C669 C 0.55157 0.45324 0.00869 0.0
C670 C 0.55386 0.44145 0.02123 0.0
C671 C 0.54851 0.4447 0.03886 0.0
C672 C 0.54178 0.46044 0.0441 0.0
C673 C 0.53944 0.47212 0.03161 0.0
C674 C 0.57449 0.54167 0.00608 0.0
C675 C 0.5564 0.53248 0.04884 0.0
O676 O 0.52346 0.57286 0.02383 0.0
O677 O 0.55198 0.58146 0.02739 0.0
O678 O 0.51904 0.5388 0.03598 0.0
O679 O 0.52307 0.52602 0.01021 0.0
O680 O 0.53284 0.55128 0.99032 0.0
O681 O 0.53443 0.52084 0.97891 0.0
O682 O 0.55454 0.49095 0.99574 0.0
O683 O 0.52828 0.48914 0.00359 0.0
O684 O 0.5731 0.5241 0.9998 0.0
O685 O 0.55981 0.54312 0.01089 0.0
O686 O 0.55292 0.51763 0.03537 0.0
O687 O 0.55328 0.54876 0.04597 0.0
H688 H 0.51061 0.60348 0.01869 0.0
H689 H 0.50771 0.62396 0.99632 0.0
H690 H 0.55818 0.61912 0.97981 0.0
H691 H 0.56073 0.59832 1.0016 0.0
H692 H 0.55535 0.45032 0.995 0.0
H693 H 0.55905 0.42934 0.01685 0.0
H694 H 0.53784 0.46343 0.05771 0.0
H695 H 0.53374 0.48385 0.03595 0.0
La696 La 0.80835 0.30072 0.26125 0.0
La697 La 0.77625 0.27231 0.26268 0.0
C698 C 0.83842 0.32107 0.26975 0.0
C699 C 0.85537 0.3161 0.27261 0.0
C700 C 0.86681 0.31757 0.25906 0.0
C701 C 0.88238 0.31166 0.26109 0.0
C702 C 0.88674 0.30429 0.27673 0.0
C703 C 0.87528 0.30277 0.29024 0.0
C704 C 0.85974 0.30863 0.28822 0.0
C705 C 0.79131 0.28486 0.22928 0.0
C706 C 0.81107 0.25698 0.26358 0.0
C707 C 0.74618 0.25178 0.25568 0.0
C708 C 0.72942 0.25624 0.25063 0.0
C709 C 0.71597 0.25284 0.26181 0.0
C710 C 0.70012 0.25752 0.25739 0.0
C711 C 0.69761 0.26543 0.24166 0.0
C712 C 0.71123 0.26943 0.23085 0.0
C713 C 0.72708 0.26497 0.23536 0.0
C714 C 0.79306 0.28975 0.29439 0.0
C715 C 0.77335 0.31571 0.2596 0.0
O716 O 0.83063 0.31661 0.25282 0.0
O717 O 0.82759 0.31698 0.28185 0.0
O718 O 0.80018 0.30208 0.23292 0.0
O719 O 0.79369 0.27693 0.2428 0.0
O720 O 0.81921 0.27498 0.26415 0.0
O721 O 0.79366 0.25243 0.26221 0.0
O722 O 0.75346 0.25909 0.27245 0.0
O723 O 0.75738 0.2533 0.24353 0.0
O724 O 0.78535 0.27214 0.29145 0.0
O725 O 0.79035 0.29655 0.28031 0.0
O726 O 0.76525 0.29754 0.2579 0.0
O727 O 0.79078 0.32049 0.26247 0.0
H728 H 0.86365 0.32316 0.24685 0.0
H729 H 0.89107 0.31297 0.25052 0.0
H730 H 0.87856 0.29755 0.30265 0.0
H731 H 0.8512 0.30725 0.29891 0.0
H732 H 0.71769 0.24645 0.27384 0.0
H733 H 0.68961 0.2543 0.26579 0.0
H734 H 0.70945 0.27566 0.21871 0.0
H735 H 0.73739 0.26823 0.22678 0.0
La736 La 0.04319 0.53115 0.53064 0.0
La737 La 0.03619 0.5403 0.49277 0.0
C738 C 0.05046 0.53097 0.56392 0.0
C739 C 0.0385 0.52291 0.57625 0.0
C740 C 0.03719 0.50425 0.57847 0.0
C741 C 0.02363 0.49525 0.58707 0.0
C742 C 0.01133 0.50482 0.59375 0.0
C743 C 0.01291 0.52364 0.59207 0.0
C744 C 0.02641 0.53264 0.58342 0.0
C745 C 0.03898 0.50333 0.50324 0.0
C746 C 0.0046 0.52463 0.5143 0.0
C747 C 0.02938 0.54081 0.45943 0.0
C748 C 0.0424 0.54572 0.44706 0.0
C749 C 0.03992 0.55756 0.43461 0.0
C750 C 0.05383 0.56527 0.42556 0.0
C751 C 0.0704 0.56142 0.42921 0.0
C752 C 0.07275 0.54962 0.44178 0.0
C753 C 0.05883 0.54164 0.45038 0.0
C754 C 0.04018 0.5678 0.5204 0.0
C755 C 0.07453 0.5477 0.51007 0.0
O756 O 0.05403 0.5188 0.55089 0.0
O757 O 0.04697 0.54557 0.55775 0.0
O758 O 0.03397 0.5014 0.51923 0.0
O759 O 0.04686 0.51991 0.50363 0.0
O760 O 0.01533 0.52721 0.52958 0.0
O761 O 0.01018 0.52675 0.49821 0.0
O762 O 0.02901 0.55477 0.47236 0.0
O763 O 0.02941 0.5253 0.46583 0.0
O764 O 0.04534 0.57011 0.50456 0.0
O765 O 0.03247 0.5512 0.51955 0.0
O766 O 0.0641 0.54342 0.49442 0.0
O767 O 0.06856 0.54668 0.52606 0.0
H768 H 0.04628 0.4964 0.57299 0.0
H769 H 0.02269 0.48077 0.58841 0.0
H770 H 0.00384 0.53148 0.59767 0.0
H771 H 0.02705 0.54703 0.58193 0.0
H772 H 0.02741 0.56122 0.43227 0.0
H773 H 0.05159 0.57411 0.41569 0.0
H774 H 0.0854 0.54663 0.4451 0.0
H775 H 0.06118 0.5328 0.46014 0.0
La776 La 0.77224 0.78919 0.26269 0.0
La777 La 0.80771 0.7794 0.26352 0.0
C778 C 0.74005 0.78512 0.26677 0.0
C779 C 0.72835 0.78934 0.28097 0.0
C780 C 0.72123 0.80525 0.28214 0.0
C781 C 0.7086 0.80773 0.29412 0.0
C782 C 0.70264 0.79431 0.30513 0.0
C783 C 0.71011 0.77864 0.30416 0.0
C784 C 0.72271 0.77621 0.29232 0.0
C785 C 0.79728 0.82132 0.2643 0.0
C786 C 0.79581 0.79333 0.30075 0.0
C787 C 0.83757 0.77336 0.25845 0.0
C788 C 0.85075 0.77367 0.24532 0.0
C789 C 0.86215 0.76164 0.24621 0.0
C790 C 0.87511 0.76153 0.23441 0.0
C791 C 0.87699 0.77342 0.22126 0.0
C792 C 0.86531 0.78536 0.22022 0.0
C793 C 0.85229 0.78547 0.23213 0.0
C794 C 0.78105 0.75142 0.2681 0.0
C795 C 0.78672 0.7808 0.22545 0.0
O796 O 0.74878 0.79868 0.2594 0.0
O797 O 0.74944 0.77313 0.26985 0.0
O798 O 0.78058 0.82007 0.26422 0.0
O799 O 0.79907 0.80464 0.26393 0.0
O800 O 0.78003 0.79051 0.29176 0.0
O801 O 0.80973 0.79216 0.29224 0.0
O802 O 0.82286 0.76083 0.25362 0.0
O803 O 0.83514 0.7893 0.26679 0.0
O804 O 0.79668 0.75582 0.27689 0.0
O805 O 0.78073 0.76306 0.25708 0.0
O806 O 0.80209 0.7827 0.23507 0.0
O807 O 0.77222 0.78079 0.23328 0.0
H808 H 0.72511 0.81557 0.27351 0.0
H809 H 0.70337 0.8201 0.29457 0.0
H810 H 0.70573 0.76774 0.31202 0.0
H811 H 0.7276 0.76361 0.29164 0.0
H812 H 0.86117 0.7524 0.25626 0.0
H813 H 0.88394 0.75238 0.23595 0.0
H814 H 0.86617 0.79455 0.21014 0.0
H815 H 0.84351 0.79476 0.23108 0.0
La816 La 0.79515 0.28296 0.74623 0.0
La817 La 0.78194 0.29044 0.78015 0.0
C818 C 0.80443 0.28205 0.71451 0.0
C819 C 0.81378 0.29618 0.70495 0.0
C820 C 0.82849 0.29301 0.6967 0.0
C821 C 0.83741 0.30608 0.68717 0.0
C822 C 0.83165 0.32246 0.68575 0.0
C823 C 0.81737 0.326 0.69473 0.0
C824 C 0.80849 0.31295 0.70429 0.0
C825 C 0.8177 0.28199 0.77477 0.0
C826 C 0.79768 0.32451 0.76502 0.0
C827 C 0.77252 0.29103 0.81175 0.0
C828 C 0.76413 0.27649 0.82142 0.0
C829 C 0.7488 0.27829 0.82913 0.0
C830 C 0.74046 0.26462 0.83836 0.0
C831 C 0.7475 0.2491 0.84023 0.0
C832 C 0.76249 0.24695 0.83181 0.0
C833 C 0.77069 0.2605 0.82236 0.0
C834 C 0.7595 0.29144 0.75164 0.0
C835 C 0.77858 0.24904 0.7611 0.0
O836 O 0.81371 0.27851 0.72836 0.0
O837 O 0.78878 0.28339 0.71828 0.0
O838 O 0.81444 0.27049 0.75933 0.0
O839 O 0.80849 0.29399 0.774 0.0
O840 O 0.79651 0.31282 0.74949 0.0
O841 O 0.79553 0.31851 0.78058 0.0
O842 O 0.76277 0.29335 0.79761 0.0
O843 O 0.78855 0.29117 0.80831 0.0
O844 O 0.76267 0.30293 0.76708 0.0
O845 O 0.76868 0.27943 0.75244 0.0
O846 O 0.78079 0.26064 0.77682 0.0
O847 O 0.78044 0.25518 0.74558 0.0
H848 H 0.83288 0.28025 0.69736 0.0
H849 H 0.84842 0.30312 0.68037 0.0
H850 H 0.81245 0.33837 0.69356 0.0
H851 H 0.79725 0.31578 0.71071 0.0
H852 H 0.7434 0.29039 0.82816 0.0
H853 H 0.72884 0.26651 0.84458 0.0
H854 H 0.76843 0.23532 0.83328 0.0
H855 H 0.78234 0.25865 0.81619 0.0
La856 La 0.79415 0.80161 0.77077 0.0
La857 La 0.78138 0.76317 0.75325 0.0
C858 C 0.8001 0.83602 0.78222 0.0
C859 C 0.78908 0.84938 0.78336 0.0
C860 C 0.79039 0.86187 0.79986 0.0
C861 C 0.77993 0.87474 0.8013 0.0
C862 C 0.76831 0.87523 0.78616 0.0
C863 C 0.7665 0.86232 0.76986 0.0
C864 C 0.77675 0.84927 0.76851 0.0
C865 C 0.7957 0.77744 0.79338 0.0
C866 C 0.75363 0.78424 0.76368 0.0
C867 C 0.77591 0.7284 0.74332 0.0
C868 C 0.78753 0.71556 0.74221 0.0
C869 C 0.78263 0.69867 0.72983 0.0
C870 C 0.79381 0.68644 0.72859 0.0
C871 C 0.81009 0.69117 0.73958 0.0
C872 C 0.81513 0.70843 0.75157 0.0
C873 C 0.80382 0.72042 0.75304 0.0
C874 C 0.78038 0.78698 0.73023 0.0
C875 C 0.82208 0.78179 0.75932 0.0
O876 O 0.79662 0.82355 0.79282 0.0
O877 O 0.80254 0.82879 0.76565 0.0
O878 O 0.80743 0.79256 0.79359 0.0
O879 O 0.78331 0.77664 0.78113 0.0
O880 O 0.76613 0.79944 0.76465 0.0
O881 O 0.75701 0.76758 0.76167 0.0
O882 O 0.77815 0.74025 0.73194 0.0
O883 O 0.77448 0.73641 0.75993 0.0
O884 O 0.7683 0.77211 0.73016 0.0
O885 O 0.79253 0.78796 0.74284 0.0
O886 O 0.80982 0.7663 0.75803 0.0
O887 O 0.8184 0.79824 0.76199 0.0
H888 H 0.79963 0.86178 0.81152 0.0
H889 H 0.78141 0.88478 0.8139 0.0
H890 H 0.75744 0.86264 0.75812 0.0
H891 H 0.77522 0.83936 0.75581 0.0
H892 H 0.7701 0.69485 0.72132 0.0
H893 H 0.78947 0.6731 0.71945 0.0
H894 H 0.82769 0.71256 0.76001 0.0
H895 H 0.80774 0.73334 0.76282 0.0
La896 La 0.52427 0.52621 0.50502 0.0
La897 La 0.55691 0.54498 0.52572 0.0
C898 C 0.49155 0.51657 0.49799 0.0
C899 C 0.47905 0.52817 0.4954 0.0
C900 C 0.46441 0.52148 0.48218 0.0
C901 C 0.45242 0.53251 0.47977 0.0
C902 C 0.45505 0.55034 0.49057 0.0
C903 C 0.47018 0.55734 0.50318 0.0
C904 C 0.48208 0.54631 0.50562 0.0
C905 C 0.54709 0.52617 0.47963 0.0
C906 C 0.53766 0.56977 0.50595 0.0
C907 C 0.5885 0.55425 0.5392 0.0
C908 C 0.60202 0.54351 0.53971 0.0
C909 C 0.6121 0.54443 0.55643 0.0
C910 C 0.62455 0.53375 0.55741 0.0
C911 C 0.62725 0.52215 0.54159 0.0
C912 C 0.6169 0.52101 0.52487 0.0
C913 C 0.60427 0.53149 0.52397 0.0
C914 C 0.53041 0.54723 0.54633 0.0
C915 C 0.54498 0.50039 0.52115 0.0
O916 O 0.5021 0.51569 0.48541 0.0
O917 O 0.49979 0.51929 0.51455 0.0
O918 O 0.53054 0.51858 0.47688 0.0
O919 O 0.55078 0.53321 0.49685 0.0
O920 O 0.52411 0.55541 0.50371 0.0
O921 O 0.55303 0.56859 0.51332 0.0
O922 O 0.57566 0.54917 0.54873 0.0
O923 O 0.58294 0.55716 0.52302 0.0
O924 O 0.54364 0.56071 0.54541 0.0
O925 O 0.53213 0.53311 0.53487 0.0
O926 O 0.55731 0.51579 0.52699 0.0
O927 O 0.53025 0.50069 0.5116 0.0
H928 H 0.46209 0.50763 0.47398 0.0
H929 H 0.44073 0.52677 0.47009 0.0
H930 H 0.47255 0.57113 0.51151 0.0
H931 H 0.49345 0.55188 0.51576 0.0
H932 H 0.61025 0.55333 0.56877 0.0
H933 H 0.6321 0.53462 0.57055 0.0
H934 H 0.6188 0.51237 0.51239 0.0
H935 H 0.59635 0.53024 0.51095 0.0
La936 La 0.06029 0.53498 0.01236 0.0
La937 La 0.02074 0.53172 0.01734 0.0
C938 C 0.09122 0.53029 0.01609 0.0
C939 C 0.10125 0.5158 0.01066 0.0
C940 C 0.11269 0.51812 0.99714 0.0
C941 C 0.12378 0.50591 0.99339 0.0
C942 C 0.12396 0.49118 1.00324 0.0
C943 C 0.11197 0.48834 0.01621 0.0
C944 C 0.10081 0.50052 0.01992 0.0
C945 C 0.0403 0.53699 0.98359 0.0
C946 C 0.0327 0.49478 0.00623 0.0
C947 C 0.98971 0.53528 0.01951 0.0
C948 C 0.97919 0.54962 0.02075 0.0
C949 C 0.96693 0.54921 0.03348 0.0
C950 C 0.95605 0.56184 0.03462 0.0
C951 C 0.95716 0.57532 0.02305 0.0
C952 C 0.96988 0.57606 0.01064 0.0
C953 C 0.98078 0.56334 0.0095 0.0
C954 C 0.0419 0.52986 0.04548 0.0
C955 C 0.0471 0.57155 0.02015 0.0
O956 O 0.08519 0.53824 1.00309 0.0
O957 O 0.08006 0.52709 0.02807 0.0
O958 O 0.05708 0.54376 0.98574 0.0
O959 O 0.03602 0.52718 0.99552 0.0
O960 O 0.04911 0.50485 0.00903 0.0
O961 O 0.01896 0.50244 0.00686 0.0
O962 O 1.00113 0.53651 0.03375 0.0
O963 O 0.99572 0.53051 0.00392 0.0
O964 O 0.02586 0.52029 0.04218 0.0
O965 O 0.04513 0.54031 0.03392 0.0
O966 O 0.03093 0.56113 0.01548 0.0
O967 O 0.06086 0.56413 0.02267 0.0
H968 H 0.11347 0.52975 0.9898 0.0
H969 H 0.13258 0.50834 0.98307 0.0
H970 H 0.11179 0.47725 0.02418 0.0
H971 H 0.09228 0.49832 0.03051 0.0
H972 H 0.96552 0.53882 0.04238 0.0
H973 H 0.94635 0.56059 0.04419 0.0
H974 H 0.97139 0.58643 1.00173 0.0
H975 H 0.99029 0.56415 0.99973 0.0
H976 H 0.0237 0.19849 0.91371 0.0
H977 H 0.02909 0.17327 0.92959 0.0
H978 H 0.01222 0.19953 0.9787 0.0
H979 H 0.00715 0.22514 0.963 0.0
H980 H 0.05192 0.17922 0.96883 0.0
H981 H 0.98192 0.14156 0.96248 0.0
H982 H 0.98979 0.15692 0.94674 0.0
H983 H 0.98775 0.16654 0.96995 0.0
C984 C 0.02101 0.19887 0.92785 0.0
C985 C 0.01479 0.21377 0.93699 0.0
C986 C 0.02421 0.18449 0.93695 0.0
C987 C 0.02101 0.18446 0.95531 0.0
C988 C 0.01476 0.19925 0.96452 0.0
H989 H 0.01513 0.09172 0.01645 0.0
H990 H 0.01253 0.12084 0.00595 0.0
C991 C 0.01183 0.21385 0.95551 0.0
C992 C 0.02399 0.16879 0.96463 0.0
H993 H 1.00262 0.12794 0.97625 0.0
C994 C 0.04118 0.16802 0.9706 0.0
C995 C 0.00997 0.15435 0.96712 0.0
C996 C 0.99127 0.15468 0.96123 0.0
C997 C 0.04471 0.15323 0.97905 0.0
C998 C 0.03068 0.13823 0.98084 0.0
C999 C 0.01347 0.13924 0.97498 0.0
C1000 C 0.03334 0.12126 0.98844 0.0
C1001 C 0.06343 0.1543 0.9864 0.0
C1002 C 0.04595 0.11158 0.98236 0.0
C1003 C 0.0479 0.09539 0.98903 0.0
C1004 C 0.03675 0.08795 1.00125 0.0
C1005 C 0.02391 0.09724 0.00707 0.0
C1006 C 0.02241 0.11386 1.00097 0.0
H1007 H 0.07095 0.16905 0.9903 0.0
H1008 H 0.06421 0.14741 0.99863 0.0
H1009 H 0.06991 0.1474 0.97549 0.0
H1010 H 0.05405 0.11624 0.9721 0.0
H1011 H 0.05771 0.08827 0.98408 0.0
H1012 H 0.14186 0.81604 0.12854 0.0
H1013 H 0.1679 0.81064 0.14576 0.0
H1014 H 0.13662 0.79239 0.18747 0.0
H1015 H 0.11074 0.79807 0.17059 0.0
H1016 H 0.18284 0.82657 0.18533 0.0
H1017 H 0.16228 0.7491 0.1714 0.0
H1018 H 0.15359 0.76349 0.15714 0.0
H1019 H 0.14598 0.76122 0.17905 0.0
C1020 C 0.14053 0.81094 0.14141 0.0
C1021 C 0.12412 0.80761 0.14816 0.0
C1022 C 0.15547 0.80785 0.15128 0.0
C1023 C 0.15433 0.80094 0.16794 0.0
C1024 C 0.13794 0.79757 0.17464 0.0
H1025 H 0.21994 0.771 0.25285 0.0
H1026 H 0.19683 0.77509 0.23079 0.0
C1027 C 0.12311 0.80095 0.16497 0.0
C1028 C 0.17017 0.79739 0.17847 0.0
H1029 H 0.18693 0.76265 0.19362 0.0
C1030 C 0.18383 0.81257 0.18696 0.0
C1031 C 0.17155 0.77916 0.18077 0.0
C1032 C 0.15767 0.76223 0.17153 0.0
C1033 C 0.1984 0.81009 0.19808 0.0
C1034 C 0.19973 0.79184 0.20056 0.0
C1035 C 0.18615 0.77665 0.19179 0.0
C1036 C 0.21433 0.78834 0.21321 0.0
C1037 C 0.21187 0.82715 0.20779 0.0
C1038 C 0.23218 0.79391 0.21069 0.0
C1039 C 0.24559 0.79138 0.22336 0.0
C1040 C 0.2415 0.78315 0.23885 0.0
C1041 C 0.22366 0.77719 0.24101 0.0
C1042 C 0.21034 0.77958 0.22836 0.0
H1043 H 0.20711 0.84017 0.2077 0.0
H1044 H 0.21548 0.82591 0.2223 0.0
H1045 H 0.22387 0.82846 0.20076 0.0
H1046 H 0.23578 0.80049 0.19905 0.0
H1047 H 0.25911 0.7967 0.2215 0.0
H1048 H 0.52822 0.81657 0.46012 0.0
H1049 H 0.53093 0.84713 0.48003 0.0
H1050 H 0.51426 0.86958 0.43301 0.0
H1051 H 0.5118 0.83961 0.41322 0.0
H1052 H 0.55228 0.88641 0.46849 0.0
H1053 H 0.48184 0.87828 0.47797 0.0
H1054 H 0.49196 0.85857 0.47428 0.0
H1055 H 0.48697 0.86988 0.45542 0.0
C1056 C 0.52503 0.82804 0.45415 0.0
C1057 C 0.51986 0.8258 0.43516 0.0
C1058 C 0.52665 0.8454 0.46546 0.0
C1059 C 0.52274 0.86044 0.45787 0.0
C1060 C 0.51731 0.85808 0.43903 0.0
H1061 H 0.51136 0.97206 0.47917 0.0
H1062 H 0.50929 0.93865 0.46931 0.0
C1063 C 0.51596 0.84097 0.42778 0.0
C1064 C 0.52445 0.87894 0.46921 0.0
H1065 H 0.49979 0.90897 0.48528 0.0
C1066 C 0.54093 0.89134 0.4726 0.0
C1067 C 0.5095 0.88522 0.47407 0.0
C1068 C 0.49153 0.87232 0.47038 0.0
C1069 C 0.54275 0.91026 0.48005 0.0
C1070 C 0.52769 0.91667 0.48464 0.0
C1071 C 0.5113 0.90401 0.48181 0.0
C1072 C 0.52841 0.93663 0.49127 0.0
C1073 C 0.56058 0.92336 0.48185 0.0
C1074 C 0.53953 0.94644 0.50709 0.0
C1075 C 0.54099 0.96556 0.51247 0.0
C1076 C 0.53093 0.97498 0.50245 0.0
C1077 C 0.51915 0.96501 0.48718 0.0
C1078 C 0.518 0.94598 0.48154 0.0
H1079 H 0.56963 0.91719 0.47342 0.0
H1080 H 0.55959 0.93682 0.4776 0.0
H1081 H 0.56649 0.92632 0.49643 0.0
H1082 H 0.54725 0.93938 0.51513 0.0
H1083 H 0.55003 0.973 0.52443 0.0
H1084 H 0.52616 0.27521 0.6721 0.0
H1085 H 0.49665 0.27066 0.68058 0.0
H1086 H 0.48057 0.29502 0.6347 0.0
H1087 H 0.51054 0.29964 0.62584 0.0
H1088 H 0.48008 0.30127 0.68935 0.0
H1089 H 0.4411 0.24558 0.63332 0.0
H1090 H 0.46454 0.249 0.63838 0.0
H1091 H 0.45573 0.26519 0.627 0.0
C1092 C 0.51645 0.27959 0.66363 0.0
C1093 C 0.52091 0.28799 0.64833 0.0
C1094 C 0.49948 0.27687 0.66852 0.0
C1095 C 0.48633 0.28234 0.65825 0.0
C1096 C 0.49048 0.29047 0.64273 0.0
H1097 H 0.37974 0.28084 0.68661 0.0
H1098 H 0.40539 0.28211 0.66983 0.0
C1099 C 0.50765 0.29328 0.63779 0.0
C1100 C 0.46891 0.28092 0.66514 0.0
H1101 H 0.42613 0.25645 0.65755 0.0
C1102 C 0.46826 0.29157 0.68231 0.0
C1103 C 0.45348 0.26826 0.65596 0.0
C1104 C 0.4536 0.25622 0.63767 0.0
C1105 C 0.45277 0.28979 0.69069 0.0
C1106 C 0.43744 0.27668 0.68187 0.0
C1107 C 0.43789 0.26637 0.6644 0.0
C1108 C 0.42104 0.27357 0.6909 0.0
C1109 C 0.453 0.30208 0.70895 0.0
C1110 C 0.421 0.26768 0.70806 0.0
C1111 C 0.40648 0.26724 0.71785 0.0
C1112 C 0.39147 0.27246 0.71064 0.0
C1113 C 0.39115 0.27717 0.69287 0.0
C1114 C 0.40577 0.27772 0.68313 0.0
H1115 H 0.46402 0.31464 0.71132 0.0
H1116 H 0.44055 0.30673 0.70981 0.0
H1117 H 0.45466 0.29406 0.72019 0.0
H1118 H 0.43249 0.26405 0.71421 0.0
H1119 H 0.4074 0.26362 0.73145 0.0
H1120 H 1.00171 0.79091 0.58737 0.0
H1121 H 0.01468 0.81786 0.57371 0.0
H1122 H 0.02258 0.85341 0.62688 0.0
H1123 H 0.00964 0.82669 0.64067 0.0
H1124 H 1.00219 0.85182 0.5759 0.0
H1125 H 0.07137 0.8636 0.60691 0.0
H1126 H 0.05565 0.84163 0.60531 0.0
H1127 H 0.0551 0.86116 0.62261 0.0
C1128 C 0.00605 0.80451 0.59609 0.0
C1129 C 0.00455 0.80678 0.61502 0.0
C1130 C 0.01358 0.81978 0.58833 0.0
C1131 C 0.01984 0.83737 0.59945 0.0
C1132 C 0.01809 0.83978 0.61824 0.0
H1133 H 0.0535 0.94775 0.5736 0.0
H1134 H 0.04751 0.92138 0.5902 0.0
C1135 C 0.01046 0.82458 0.626 0.0
C1136 C 0.02713 0.85352 0.59115 0.0
H1137 H 0.06438 0.88651 0.59032 0.0
C1138 C 0.01579 0.85938 0.57896 0.0
C1139 C 0.04485 0.86327 0.59542 0.0
C1140 C 0.05754 0.85707 0.60817 0.0
C1141 C 0.02169 0.87496 0.5709 0.0
C1142 C 0.03942 0.88464 0.57502 0.0
C1143 C 0.0508 0.87891 0.58731 0.0
C1144 C 0.04624 0.90046 0.56609 0.0
C1145 C 0.00894 0.88106 0.55809 0.0
C1146 C 0.04803 0.89718 0.54734 0.0
C1147 C 0.05117 0.91203 0.53781 0.0
C1148 C 0.05269 0.93039 0.547 0.0
C1149 C 0.05214 0.93371 0.56614 0.0
C1150 C 0.04888 0.91876 0.57565 0.0
H1151 H 0.99514 0.87411 0.55897 0.0
H1152 H 0.01043 0.89643 0.56128 0.0
H1153 H 0.01173 0.87746 0.54371 0.0
H1154 H 0.04598 0.88303 0.53987 0.0
H1155 H 0.05126 0.90897 0.52305 0.0
H1156 H 0.54309 0.84185 0.83365 0.0
H1157 H 0.51206 0.83484 0.82189 0.0
H1158 H 0.5028 0.78573 0.84734 0.0
H1159 H 0.53381 0.7927 0.8594 0.0
H1160 H 0.49698 0.79857 0.79814 0.0
H1161 H 0.46195 0.81276 0.85938 0.0
H1162 H 0.48452 0.82426 0.85877 0.0
H1163 H 0.47901 0.80018 0.86126 0.0
C1164 C 0.53444 0.82961 0.83682 0.0
C1165 C 0.54085 0.81763 0.84712 0.0
C1166 C 0.51676 0.82574 0.83026 0.0
C1167 C 0.50534 0.80985 0.83387 0.0
C1168 C 0.51151 0.79819 0.84468 0.0
H1169 H 0.39458 0.77379 0.79171 0.0
H1170 H 0.42369 0.77122 0.80398 0.0
C1171 C 0.52919 0.80211 0.85138 0.0
C1172 C 0.4875 0.80436 0.82439 0.0
H1173 H 0.44482 0.802 0.83061 0.0
C1174 C 0.48551 0.79911 0.80521 0.0
C1175 C 0.47276 0.80499 0.83384 0.0
C1176 C 0.47452 0.81092 0.85445 0.0
C1177 C 0.46904 0.79503 0.79502 0.0
C1178 C 0.45436 0.79637 0.80435 0.0
C1179 C 0.45622 0.80084 0.82363 0.0
C1180 C 0.43737 0.79572 0.79431 0.0
C1181 C 0.46752 0.78981 0.77436 0.0
C1182 C 0.43574 0.81006 0.78452 0.0
C1183 C 0.41927 0.81166 0.77769 0.0
C1184 C 0.40425 0.79897 0.78068 0.0
C1185 C 0.40601 0.78387 0.78945 0.0
C1186 C 0.42253 0.78233 0.79638 0.0
H1187 H 0.47873 0.78409 0.76993 0.0
H1188 H 0.45514 0.77935 0.76891 0.0
H1189 H 0.46751 0.80249 0.76816 0.0
H1190 H 0.44711 0.82069 0.78314 0.0
H1191 H 0.41827 0.82358 0.77123 0.0
H1192 H 0.47871 0.19768 0.10028 0.0
H1193 H 0.48367 0.17054 0.0799 0.0
H1194 H 0.52325 0.16465 0.12111 0.0
H1195 H 0.51796 0.19103 0.14166 0.0
H1196 H 0.51457 0.16906 0.06688 0.0
H1197 H 0.49606 0.11153 0.1063 0.0
H1198 H 0.49001 0.13363 0.11181 0.0
H1199 H 0.51165 0.13136 0.11936 0.0
C1200 C 0.48817 0.1903 0.10508 0.0
C1201 C 0.49783 0.1963 0.12256 0.0
C1202 C 0.49099 0.17488 0.09348 0.0
C1203 C 0.50357 0.16546 0.09922 0.0
C1204 C 0.51307 0.17135 0.11671 0.0
H1205 H 0.55299 0.08272 0.04342 0.0
H1206 H 0.54542 0.10659 0.0661 0.0
C1207 C 0.51008 0.1865 0.12838 0.0
C1208 C 0.50804 0.15062 0.08635 0.0
H1209 H 0.51254 0.10562 0.0812 0.0
C1210 C 0.51395 0.15512 0.0699 0.0
C1211 C 0.50749 0.13262 0.0906 0.0
C1212 C 0.50081 0.12694 0.10791 0.0
C1213 C 0.51945 0.14206 0.05752 0.0
C1214 C 0.51875 0.12403 0.06168 0.0
C1215 C 0.51303 0.11954 0.0782 0.0
C1216 C 0.52311 0.10941 0.04852 0.0
C1217 C 0.52618 0.1477 0.04021 0.0
C1218 C 0.51284 0.10309 0.03146 0.0
C1219 C 0.51722 0.08977 0.01854 0.0
C1220 C 0.53177 0.08244 0.02266 0.0
C1221 C 0.54182 0.08841 0.03994 0.0
C1222 C 0.53749 0.10188 0.05286 0.0
H1223 H 0.53013 0.16313 0.0414 0.0
H1224 H 0.53756 0.1417 0.03695 0.0
H1225 H 0.51565 0.14231 0.02851 0.0
H1226 H 0.50148 0.10853 0.02813 0.0
H1227 H 0.50911 0.08509 0.00541 0.0
H1228 H 0.11815 0.31706 0.33116 0.0
H1229 H 0.14087 0.31583 0.311 0.0
H1230 H 0.17635 0.31026 0.35632 0.0
H1231 H 0.15355 0.31146 0.37686 0.0
H1232 H 0.18164 0.33555 0.31552 0.0
H1233 H 0.16001 0.25893 0.31493 0.0
H1234 H 0.14634 0.27491 0.32144 0.0
H1235 H 0.16496 0.27435 0.33685 0.0
C1236 C 0.13089 0.31595 0.33698 0.0
C1237 C 0.13407 0.31386 0.35542 0.0
C1238 C 0.14384 0.31548 0.32548 0.0
C1239 C 0.16001 0.31288 0.33233 0.0
C1240 C 0.16379 0.31232 0.35103 0.0
H1241 H 0.24121 0.27075 0.29207 0.0
H1242 H 0.21623 0.27794 0.30634 0.0
C1243 C 0.15081 0.31287 0.36263 0.0
C1244 C 0.17152 0.30732 0.31929 0.0
H1245 H 0.18277 0.26876 0.29759 0.0
C1246 C 0.18204 0.32101 0.31151 0.0
C1247 C 0.17141 0.28827 0.31406 0.0
C1248 C 0.16003 0.27318 0.32213 0.0
C1249 C 0.19352 0.31615 0.29921 0.0
C1250 C 0.19373 0.29705 0.29426 0.0
C1251 C 0.18243 0.28335 0.30139 0.0
C1252 C 0.20742 0.29117 0.28426 0.0
C1253 C 0.20586 0.33155 0.29248 0.0
C1254 C 0.21039 0.29579 0.26693 0.0
C1255 C 0.22516 0.29238 0.25916 0.0
C1256 C 0.23632 0.28354 0.26837 0.0
C1257 C 0.23254 0.27753 0.28486 0.0
C1258 C 0.21831 0.28159 0.29294 0.0
H1259 H 0.20627 0.34554 0.30055 0.0
H1260 H 0.21937 0.32927 0.29328 0.0
H1261 H 0.20141 0.33171 0.27791 0.0
H1262 H 0.20173 0.30262 0.25981 0.0
H1263 H 0.22806 0.29692 0.24631 0.0
H1264 H 0.92693 0.05172 0.18087 0.0
H1265 H 0.94234 0.04927 0.15338 0.0
H1266 H 0.99137 0.06003 0.18794 0.0
H1267 H 0.97591 0.06199 0.21537 0.0
H1268 H 0.96438 0.06976 0.13686 0.0
H1269 H 1.00111 0.01833 0.15489 0.0
H1270 H 0.9844 0.02446 0.1682 0.0
H1271 H 0.00621 0.03921 0.17184 0.0
C1272 C 0.94101 0.05346 0.18277 0.0
C1273 C 0.94984 0.05694 0.20089 0.0
C1274 C 0.94999 0.05207 0.16675 0.0
C1275 C 0.9684 0.05392 0.16778 0.0
C1276 C 0.97727 0.05777 0.18595 0.0
H1277 H 0.04712 0.05404 0.08693 0.0
H1278 H 0.03098 0.05556 0.11362 0.0
C1279 C 0.96828 0.05913 0.20198 0.0
C1280 C 0.97801 0.05221 0.15008 0.0
H1281 H 0.00915 0.03242 0.12924 0.0
C1282 C 0.97402 0.06138 0.13533 0.0
C1283 C 0.99097 0.0415 0.14726 0.0
C1284 C 0.99583 0.03017 0.16128 0.0
C1285 C 0.98243 0.0605 0.1188 0.0
C1286 C 0.99529 0.04972 0.11596 0.0
C1287 C 0.99937 0.04065 0.13073 0.0
C1288 C 0.00512 0.04832 0.09845 0.0
C1289 C 0.97785 0.07189 0.10473 0.0
C1290 C 0.99658 0.04337 0.08003 0.0
C1291 C 0.00606 0.04226 0.06423 0.0
C1292 C 0.0246 0.04619 0.06604 0.0
C1293 C 0.03296 0.05092 0.08445 0.0
C1294 C 0.02358 0.05179 0.10007 0.0
H1295 H 0.97187 0.08329 0.11083 0.0
H1296 H 0.98962 0.07816 0.09859 0.0
H1297 H 0.96822 0.06268 0.09355 0.0
H1298 H 0.98243 0.04011 0.07773 0.0
H1299 H 0.99881 0.03853 0.05063 0.0
H1300 H 0.26436 0.64524 0.45611 0.0
H1301 H 0.24977 0.656 0.43091 0.0
H1302 H 0.28275 0.71134 0.44822 0.0
H1303 H 0.29726 0.70078 0.47399 0.0
H1304 H 0.24094 0.70345 0.44402 0.0
H1305 H 0.27233 0.67598 0.38411 0.0
H1306 H 0.26715 0.66235 0.40193 0.0
H1307 H 0.28442 0.68306 0.40683 0.0
C1308 C 0.26896 0.65956 0.45419 0.0
C1309 C 0.28211 0.67223 0.46674 0.0
C1310 C 0.26048 0.66565 0.43994 0.0
C1311 C 0.2653 0.68434 0.43793 0.0
C1312 C 0.27898 0.69684 0.44981 0.0
H1313 H 0.25027 0.76626 0.38346 0.0
H1314 H 0.24843 0.74575 0.4061 0.0
C1315 C 0.28731 0.69082 0.46431 0.0
C1316 C 0.25539 0.69113 0.42402 0.0
H1317 H 0.25327 0.69554 0.37903 0.0
C1318 C 0.24333 0.70153 0.42971 0.0
C1319 C 0.25842 0.68807 0.40547 0.0
C1320 C 0.27127 0.67677 0.39906 0.0
C1321 C 0.23487 0.71006 0.41729 0.0
C1322 C 0.23891 0.70825 0.39899 0.0
C1323 C 0.25009 0.69673 0.39308 0.0
C1324 C 0.23476 0.72092 0.38682 0.0
C1325 C 0.2223 0.72157 0.424 0.0
C1326 C 0.22731 0.7138 0.3686 0.0
C1327 C 0.22861 0.72552 0.35554 0.0
C1328 C 0.23727 0.7444 0.36073 0.0
C1329 C 0.24314 0.75183 0.37929 0.0
C1330 C 0.24203 0.74011 0.39225 0.0
H1331 H 0.21592 0.71626 0.4356 0.0
H1332 H 0.22961 0.73621 0.42913 0.0
H1333 H 0.21202 0.72157 0.41278 0.0
H1334 H 0.22186 0.69895 0.36421 0.0
H1335 H 0.22419 0.71957 0.34121 0.0
H1336 H 0.66176 0.04032 0.66972 0.0
H1337 H 0.64515 0.04573 0.64221 0.0
H1338 H 0.60187 0.051 0.67315 0.0
H1339 H 0.61744 0.04426 0.69969 0.0
H1340 H 0.60945 0.01646 0.63567 0.0
H1341 H 0.60476 0.09023 0.63584 0.0
H1342 H 0.62407 0.0843 0.64606 0.0
H1343 H 0.60464 0.08174 0.65737 0.0
C1344 C 0.64885 0.04302 0.67062 0.0
C1345 C 0.64075 0.04162 0.68666 0.0
C1346 C 0.63958 0.04642 0.65513 0.0
C1347 C 0.62257 0.0491 0.65604 0.0
C1348 C 0.61519 0.0494 0.6725 0.0
H1349 H 0.53084 0.03759 0.57889 0.0
H1350 H 0.55052 0.04217 0.60765 0.0
C1351 C 0.62408 0.04531 0.68762 0.0
C1352 C 0.61062 0.04604 0.63934 0.0
H1353 H 0.58445 0.0666 0.61456 0.0
C1354 C 0.60418 0.02742 0.63076 0.0
C1355 C 0.60332 0.06036 0.63395 0.0
C1356 C 0.60954 0.08034 0.6437 0.0
C1357 C 0.59047 0.02266 0.61659 0.0
C1358 C 0.58368 0.03706 0.61057 0.0
C1359 C 0.58991 0.0557 0.61934 0.0
C1360 C 0.57132 0.03315 0.59401 0.0
C1361 C 0.58317 1.0023 0.6084 0.0
C1362 C 0.57662 0.02623 0.57728 0.0
C1363 C 0.56542 0.02332 0.5612 0.0
C1364 C 0.54913 0.02777 0.56173 0.0
C1365 C 0.54348 0.03406 0.57848 0.0
C1366 C 0.55466 0.03684 0.5947 0.0
H1367 H 0.5858 0.99304 0.61822 0.0
H1368 H 0.56882 0.99938 0.60432 0.0
H1369 H 0.58954 0.99869 0.59596 0.0
H1370 H 0.58954 0.02344 0.57665 0.0
H1371 H 0.56951 0.01777 0.54837 0.0
H1372 H 0.30161 0.33938 0.98084 0.0
H1373 H 0.30217 0.32035 0.95072 0.0
H1374 H 0.27904 0.35822 0.92368 0.0
H1375 H 0.27832 0.37713 0.95332 0.0
H1376 H 0.26986 0.30717 0.91469 0.0
H1377 H 0.33292 0.35606 0.90945 0.0
H1378 H 0.32587 0.35183 0.93136 0.0
H1379 H 0.31568 0.36596 0.91834 0.0
C1380 C 0.29634 0.34343 0.9685 0.0
C1381 C 0.29019 0.35994 0.96949 0.0
C1382 C 0.29666 0.33255 0.95135 0.0
C1383 C 0.29076 0.33805 0.9351 0.0
C1384 C 0.28368 0.35383 0.93612 0.0
H1385 H 0.28129 0.31991 0.82008 0.0
H1386 H 0.28168 0.32873 0.85334 0.0
C1387 C 0.28336 0.36465 0.95311 0.0
C1388 C 0.29346 0.32864 0.9169 0.0
H1389 H 0.3189 0.3353 0.88226 0.0
C1390 C 0.28078 0.31298 0.90771 0.0
C1391 C 0.30761 0.33651 0.90785 0.0
C1392 C 0.3214 0.35348 0.91721 0.0
C1393 C 0.28161 0.30539 0.88931 0.0
C1394 C 0.29548 0.31365 0.88013 0.0
C1395 C 0.30844 0.3289 0.88952 0.0
C1396 C 0.29558 0.3081 0.86019 0.0
C1397 C 0.26733 0.28916 0.87942 0.0
C1398 C 0.30359 0.2938 0.85321 0.0
C1399 C 0.30364 0.28892 0.83418 0.0
C1400 C 0.29541 0.29812 0.82207 0.0
C1401 C 0.28752 0.31247 0.82919 0.0
C1402 C 0.28774 0.31753 0.84811 0.0
H1403 H 0.25766 0.28395 0.88863 0.0
H1404 H 0.26036 0.29349 0.86775 0.0
H1405 H 0.27317 0.27755 0.87359 0.0
H1406 H 0.30973 0.28645 0.86245 0.0
H1407 H 0.30972 0.27775 0.82892 0.0
H1408 H 0.9687 0.08469 0.32049 0.0
H1409 H 0.98278 0.08361 0.35135 0.0
H1410 H 0.95902 0.02482 0.34415 0.0
H1411 H 0.94556 0.0258 0.31348 0.0
H1412 H 0.97291 0.07468 0.38426 0.0
H1413 H 0.0084 0.02207 0.35679 0.0
H1414 H 0.99711 0.03401 0.342 0.0
H1415 H 0.98522 0.01415 0.35052 0.0
C1416 C 0.96618 0.07162 0.32563 0.0
C1417 C 0.95566 0.05536 0.31428 0.0
C1418 C 0.97443 0.07093 0.34336 0.0
C1419 C 0.97259 0.05397 0.35036 0.0
C1420 C 0.96141 0.03804 0.33928 0.0
H1421 H 0.01149 0.01185 0.448 0.0
H1422 H 0.99823 0.01642 0.41839 0.0
C1423 C 0.95338 0.03868 0.32166 0.0
C1424 C 0.98225 0.05261 0.36888 0.0
H1425 H 0.00806 0.02738 0.38921 0.0
C1426 C 0.9807 0.0644 0.38522 0.0
C1427 C 0.99261 0.03928 0.37071 0.0
C1428 C 0.99611 0.02679 0.35406 0.0
C1429 C 0.98838 0.06279 0.4029 0.0
C1430 C 0.99855 0.04926 0.40474 0.0
C1431 C 1.00032 0.0377 0.38833 0.0
C1432 C 0.00713 0.04658 0.42333 0.0
C1433 C 0.98477 0.07523 0.41951 0.0
C1434 C 0.01717 0.06174 0.43652 0.0
C1435 C 0.02457 0.05913 0.45381 0.0
C1436 C 0.02274 0.04118 0.45855 0.0
C1437 C 0.0133 0.02594 0.44513 0.0
C1438 C 0.00563 0.02858 0.42798 0.0
H1439 H 0.97267 0.08022 0.41663 0.0
H1440 H 0.98335 0.06785 0.43145 0.0
H1441 H 0.99579 0.08772 0.42333 0.0
H1442 H 0.01948 0.07576 0.43348 0.0
H1443 H 0.03191 0.07127 0.46345 0.0
H1444 H 0.30122 0.69808 0.57095 0.0
H1445 H 0.29974 0.72004 0.59863 0.0
H1446 H 0.25717 0.67982 0.61308 0.0
H1447 H 0.25863 0.65768 0.58568 0.0
H1448 H 0.26897 0.73379 0.61148 0.0
H1449 H 0.29774 0.69156 0.65649 0.0
H1450 H 0.29887 0.68844 0.63199 0.0
H1451 H 0.27873 0.67952 0.64069 0.0
C1452 C 0.29159 0.69392 0.58005 0.0
C1453 C 0.28031 0.67607 0.57643 0.0
C1454 C 0.29067 0.70649 0.59569 0.0
C1455 C 0.27844 0.70133 0.60773 0.0
C1456 C 0.26679 0.68381 0.60389 0.0
H1457 H 0.27471 0.74827 0.71927 0.0
H1458 H 0.26798 0.72963 0.68875 0.0
C1459 C 0.26776 0.67119 0.58836 0.0
C1460 C 0.27876 0.71379 0.62504 0.0
H1461 H 0.29052 0.71874 0.67096 0.0
C1462 C 0.27355 0.73058 0.62458 0.0
C1463 C 0.28473 0.70928 0.64187 0.0
C1464 C 0.29046 0.69129 0.6429 0.0
C1465 C 0.27396 0.74311 0.64082 0.0
C1466 C 0.28032 0.73882 0.6577 0.0
C1467 C 0.28556 0.72195 0.658 0.0
C1468 C 0.28175 0.75141 0.67537 0.0
C1469 C 0.26728 0.76052 0.63971 0.0
C1470 C 0.29127 0.77005 0.67792 0.0
C1471 C 0.29403 0.7812 0.6953 0.0
C1472 C 0.28799 0.77351 0.71037 0.0
C1473 C 0.2787 0.75484 0.70779 0.0
C1474 C 0.27517 0.74405 0.69037 0.0
H1475 H 0.25773 0.75858 0.62726 0.0
H1476 H 0.26091 0.7646 0.65203 0.0
H1477 H 0.27843 0.77217 0.63874 0.0
H1478 H 0.29712 0.77578 0.6667 0.0
H1479 H 0.30167 0.79544 0.69711 0.0
H1480 H 0.65128 0.03473 0.80037 0.0
H1481 H 0.64964 0.04845 0.83248 0.0
H1482 H 0.61003 0.07569 0.81365 0.0
H1483 H 0.61098 0.06156 0.78206 0.0
H1484 H 0.65065 0.08936 0.8512 0.0
H1485 H 0.58766 0.03686 0.84588 0.0
H1486 H 0.60392 0.03429 0.83049 0.0
H1487 H 0.58961 0.04967 0.82718 0.0
C1488 C 0.64208 0.04344 0.80325 0.0
C1489 C 0.63067 0.04645 0.78898 0.0
C1490 C 0.64143 0.05152 0.82141 0.0
C1491 C 0.62969 0.06295 0.82518 0.0
C1492 C 0.61907 0.06676 0.81084 0.0
H1493 H 0.57306 0.09107 0.91023 0.0
H1494 H 0.59076 0.09883 0.88591 0.0
C1495 C 0.61936 0.05837 0.7929 0.0
C1496 C 0.62627 0.06873 0.84401 0.0
H1497 H 0.59359 0.06181 0.87109 0.0
C1498 C 0.63827 0.08335 0.85574 0.0
C1499 C 0.61014 0.06066 0.84966 0.0
C1500 C 0.59714 0.04439 0.83773 0.0
C1501 C 0.63415 0.09055 0.87307 0.0
C1502 C 0.61772 0.08291 0.87835 0.0
C1503 C 0.606 0.06799 0.86669 0.0
C1504 C 0.61253 0.08847 0.89654 0.0
C1505 C 0.64715 0.10627 0.88552 0.0
C1506 C 0.61975 0.08183 0.91141 0.0
C1507 C 0.60968 0.07744 0.9254 0.0
C1508 C 0.59234 0.07956 0.92443 0.0
C1509 C 0.58637 0.08923 0.91126 0.0
C1510 C 0.59652 0.09377 0.89738 0.0
H1511 H 0.65744 0.11336 0.87793 0.0
H1512 H 0.64043 0.11672 0.89224 0.0
H1513 H 0.65359 0.10054 0.89653 0.0
H1514 H 0.63205 0.07756 0.91091 0.0
H1515 H 0.61465 0.07038 0.93572 0.0
H1516 H 0.28624 0.33147 0.06573 0.0
H1517 H 0.28272 0.31633 0.09287 0.0
H1518 H 0.30353 0.36958 0.1282 0.0
H1519 H 0.30679 0.38479 0.10127 0.0
H1520 H 0.30617 0.31359 0.12134 0.0
H1521 H 0.25809 0.3517 0.14878 0.0
H1522 H 0.26398 0.3518 0.12576 0.0
H1523 H 0.27775 0.36727 0.14501 0.0
C1524 C 0.29008 0.33996 0.07928 0.0
C1525 C 0.29674 0.35941 0.08127 0.0
C1526 C 0.28806 0.33127 0.0948 0.0
C1527 C 0.29254 0.34184 0.11266 0.0
C1528 C 0.29956 0.36115 0.11463 0.0
H1529 H 0.30183 0.31847 0.22435 0.0
H1530 H 0.30511 0.33148 0.19582 0.0
C1531 C 0.30155 0.36984 0.09917 0.0
C1532 C 0.29004 0.3328 0.12926 0.0
H1533 H 0.2713 0.33549 0.16941 0.0
C1534 C 0.29845 0.31831 0.13177 0.0
C1535 C 0.27977 0.33872 0.14284 0.0
C1536 C 0.26923 0.35308 0.1404 0.0
C1537 C 0.29736 0.31014 0.14774 0.0
C1538 C 0.28769 0.31665 0.16157 0.0
C1539 C 0.27898 0.33078 0.15892 0.0
C1540 C 0.28608 0.30863 0.17872 0.0
C1541 C 0.30667 0.29473 0.14993 0.0
C1542 C 0.27418 0.29163 0.17856 0.0
C1543 C 0.27203 0.28441 0.19483 0.0
C1544 C 0.28192 0.29395 0.21157 0.0
C1545 C 0.29399 0.31089 0.21168 0.0
C1546 C 0.29591 0.31827 0.19541 0.0
H1547 H 0.31502 0.29244 0.13881 0.0
H1548 H 0.31495 0.29806 0.16343 0.0
H1549 H 0.29685 0.28151 0.14972 0.0
H1550 H 0.26644 0.284 0.16585 0.0
H1551 H 0.26276 0.27122 0.19424 0.0
H1552 H 0.23774 0.93428 0.98665 0.0
H1553 H 0.21329 0.94635 0.99809 0.0
H1554 H 0.24697 0.97638 0.04726 0.0
H1555 H 0.27157 0.96532 0.03536 0.0
H1556 H 0.19806 0.94166 0.02851 0.0
H1557 H 0.22731 0.01719 0.03086 0.0
H1558 H 0.23675 0.99903 0.01974 0.0
H1559 H 0.24018 1.00576 0.04439 0.0
C1560 C 0.23986 0.94367 0.99975 0.0
C1561 C 0.25639 0.94923 0.01003 0.0
C1562 C 0.22598 0.95044 0.00631 0.0
C1563 C 0.22851 0.96245 0.02336 0.0
C1564 C 0.24495 0.96758 0.03384 0.0
H1565 H 0.14859 0.01615 0.06769 0.0
H1566 H 0.1729 1.00037 0.06836 0.0
C1567 C 0.25892 0.96126 0.02705 0.0
C1568 C 0.21381 0.96954 0.03009 0.0
H1569 H 0.19954 0.00947 0.04096 0.0
C1570 C 0.19841 0.95649 0.03141 0.0
C1571 C 0.21449 0.98891 0.03396 0.0
C1572 C 0.2305 1.00354 0.03202 0.0
C1573 C 0.18329 0.96232 0.03568 0.0
C1574 C 0.18382 0.98158 0.03888 0.0
C1575 C 0.19944 0.99468 0.03864 0.0
C1576 C 0.1678 0.9884 0.03943 0.0
C1577 C 0.16665 0.94794 0.03596 0.0
C1578 C 0.15707 0.98659 0.02293 0.0
C1579 C 0.14352 0.99582 0.02238 0.0
C1580 C 0.14052 0.00693 0.03837 0.0
C1581 C 0.1508 0.0079 0.05512 0.0
C1582 C 0.16452 0.9988 0.05559 0.0
H1583 H 0.16925 0.93404 0.03714 0.0
H1584 H 0.15958 0.95246 0.04757 0.0
H1585 H 0.15795 0.94647 0.02297 0.0
H1586 H 0.15978 0.97886 0.01028 0.0
H1587 H 0.13605 0.99506 0.00922 0.0
H1588 H 0.71023 0.66809 0.9828 0.0
H1589 H 0.68123 0.65013 0.98712 0.0
H1590 H 0.70511 0.60904 0.00756 0.0
H1591 H 0.73406 0.62665 1.00283 0.0
H1592 H 0.66651 0.60723 0.97114 0.0
H1593 H 0.67164 0.62796 0.04719 0.0
H1594 H 0.6838 0.64251 0.03295 0.0
H1595 H 0.69037 0.62186 0.03754 0.0
C1596 C 0.7093 0.65519 0.98815 0.0
C1597 C 0.72448 0.64874 0.99231 0.0
C1598 C 0.69271 0.64495 0.99064 0.0
C1599 C 0.69095 0.62826 0.99776 0.0
C1600 C 0.7061 0.62188 1.0021 0.0
H1601 H 0.60753 0.53897 0.01636 0.0
H1602 H 0.63516 0.56138 0.01547 0.0
C1603 C 0.72265 0.63192 0.99927 0.0
C1604 C 0.67327 0.61722 1.0002 0.0
H1605 H 0.64675 0.60469 0.03282 0.0
C1606 C 0.66212 0.60682 0.98461 0.0
C1607 C 0.66755 0.6166 0.01778 0.0
C1608 C 0.67884 0.62787 0.0349 0.0
C1609 C 0.64562 0.59555 0.98616 0.0
C1610 C 0.63992 0.5948 0.00373 0.0
C1611 C 0.65101 0.60533 0.01934 0.0
C1612 C 0.62293 0.58221 0.00605 0.0
C1613 C 0.63453 0.58401 0.96903 0.0
C1614 C 0.60673 0.58657 1.00146 0.0
C1615 C 0.59084 0.57386 1.00233 0.0
C1616 C 0.59087 0.55646 0.0075 0.0
C1617 C 0.60708 0.55231 0.01238 0.0
C1618 C 0.6229 0.56511 0.01189 0.0
H1619 H 0.64147 0.58475 0.9566 0.0
H1620 H 0.63062 0.56917 0.97075 0.0
H1621 H 0.62237 0.58907 0.9668 0.0
H1622 H 0.60638 0.59962 0.99681 0.0
H1623 H 0.57858 0.57719 0.99808 0.0
H1624 H 0.71496 0.47402 0.26655 0.0
H1625 H 0.72951 0.44778 0.26481 0.0
H1626 H 0.67925 0.40916 0.25716 0.0
H1627 H 0.66475 0.43535 0.25847 0.0
H1628 H 0.73424 0.42259 0.28316 0.0
H1629 H 0.69774 0.37933 0.21897 0.0
H1630 H 0.69544 0.4028 0.2265 0.0
H1631 H 0.68338 0.38357 0.23585 0.0
C1632 C 0.70686 0.45997 0.26436 0.0
C1633 C 0.68835 0.4574 0.26263 0.0
C1634 C 0.71534 0.44465 0.26338 0.0
C1635 C 0.70593 0.42566 0.26042 0.0
C1636 C 0.6874 0.42312 0.25883 0.0
H1637 H 0.73679 0.31381 0.25542 0.0
H1638 H 0.72117 0.33928 0.25565 0.0
C1639 C 0.67891 0.43845 0.25982 0.0
C1640 C 0.71546 0.40901 0.25975 0.0
H1641 H 0.7156 0.36473 0.2366 0.0
C1642 C 0.73006 0.41008 0.27278 0.0
C1643 C 0.71058 0.39204 0.24648 0.0
C1644 C 0.69606 0.38938 0.23105 0.0
C1645 C 0.73921 0.39533 0.27327 0.0
C1646 C 0.73438 0.37838 0.26001 0.0
C1647 C 0.71976 0.37725 0.24697 0.0
C1648 C 0.74423 0.36203 0.25943 0.0
C1649 C 0.75373 0.39803 0.28873 0.0
C1650 C 0.76277 0.36522 0.26095 0.0
C1651 C 0.77182 0.35047 0.26092 0.0
C1652 C 0.76301 0.33139 0.25908 0.0
C1653 C 0.74443 0.32803 0.25701 0.0
C1654 C 0.73534 0.34287 0.25712 0.0
H1655 H 0.75195 0.40797 0.30084 0.0
H1656 H 0.75446 0.38462 0.29323 0.0
H1657 H 0.7664 0.40401 0.28399 0.0
H1658 H 0.77052 0.37929 0.262 0.0
H1659 H 0.78599 0.35417 0.26235 0.0
H1660 H 0.85599 0.43316 0.48265 0.0
H1661 H 0.88714 0.44765 0.48616 0.0
H1662 H 0.88793 0.45704 0.54527 0.0
H1663 H 0.85644 0.44326 0.5417 0.0
H1664 H 0.89333 0.48924 0.52927 0.0
H1665 H 0.93588 0.44248 0.50369 0.0
H1666 H 0.91537 0.43902 0.48961 0.0
H1667 H 0.91555 0.43397 0.5126 0.0
C1668 C 0.86306 0.43736 0.49637 0.0
C1669 C 0.85415 0.4375 0.51194 0.0
C1670 C 0.88082 0.44556 0.49838 0.0
C1671 C 0.88961 0.45336 0.51597 0.0
C1672 C 0.88116 0.45103 0.53164 0.0
H1673 H 0.98867 0.52186 0.54521 0.0
H1674 H 0.95745 0.51165 0.54658 0.0
C1675 C 0.86332 0.44321 0.52961 0.0
C1676 C 0.90574 0.46761 0.51758 0.0
H1677 H 0.94677 0.47507 0.50519 0.0
C1678 C 0.90516 0.48619 0.52429 0.0
C1679 C 0.9208 0.46341 0.51071 0.0
C1680 C 0.92206 0.44362 0.50388 0.0
C1681 C 0.91949 0.50086 0.5241 0.0
C1682 C 0.93433 0.49658 0.51689 0.0
C1683 C 0.93497 0.47807 0.51033 0.0
C1684 C 0.95035 0.51058 0.51752 0.0
C1685 C 0.91875 0.52074 0.53128 0.0
C1686 C 0.95624 0.51416 0.50084 0.0
C1687 C 0.97406 0.51954 0.49987 0.0
C1688 C 0.98592 0.52139 0.51563 0.0
C1689 C 0.97977 0.52 0.53274 0.0
C1690 C 0.96197 0.51465 0.53368 0.0
H1691 H 0.90557 0.52182 0.53498 0.0
H1692 H 0.92846 0.52637 0.54368 0.0
H1693 H 0.92234 0.52961 0.52077 0.0
H1694 H 0.94724 0.51083 0.48828 0.0
H1695 H 0.9785 0.52108 0.48661 0.0
H1696 H 0.38923 0.088 0.30616 0.0
H1697 H 0.37463 0.10982 0.29272 0.0
H1698 H 0.37128 0.07669 0.23873 0.0
H1699 H 0.38421 0.05426 0.25227 0.0
H1700 H 0.38787 0.13024 0.26904 0.0
H1701 H 0.3236 0.08526 0.23603 0.0
H1702 H 0.33781 0.07746 0.25197 0.0
H1703 H 0.34214 0.07726 0.22845 0.0
C1704 C 0.38457 0.0851 0.2916 0.0
C1705 C 0.38716 0.06936 0.28026 0.0
C1706 C 0.37649 0.09753 0.2839 0.0
C1707 C 0.37163 0.09459 0.26478 0.0
C1708 C 0.37425 0.07878 0.25354 0.0
H1709 H 0.32624 0.17473 0.2118 0.0
H1710 H 0.34327 0.15079 0.2137 0.0
C1711 C 0.38162 0.06602 0.26131 0.0
C1712 C 0.36513 0.10883 0.25648 0.0
H1713 H 0.33007 0.11648 0.23124 0.0
C1714 C 0.37528 0.1272 0.26066 0.0
C1715 C 0.34895 0.10463 0.24511 0.0
C1716 C 0.33743 0.08511 0.24024 0.0
C1717 C 0.36905 0.14181 0.2549 0.0
C1718 C 0.35243 0.13774 0.24463 0.0
C1719 C 0.34289 0.11928 0.23909 0.0
C1720 C 0.3432 0.1525 0.2431 0.0
C1721 C 0.37972 0.16159 0.26078 0.0
C1722 C 0.33752 0.16081 0.25901 0.0
C1723 C 0.32784 0.17417 0.25799 0.0
C1724 C 0.32372 0.17934 0.24101 0.0
C1725 C 0.32937 0.17092 0.22502 0.0
C1726 C 0.33907 0.15742 0.22606 0.0
H1727 H 0.39383 0.162 0.26411 0.0
H1728 H 0.37821 0.17005 0.24987 0.0
H1729 H 0.37502 0.16814 0.27332 0.0
H1730 H 0.34031 0.15668 0.27216 0.0
H1731 H 0.3232 0.18012 0.27039 0.0
H1732 H 0.3164 0.12206 0.49743 0.0
H1733 H 0.34439 0.11331 0.5023 0.0
H1734 H 0.37016 0.17113 0.52178 0.0
H1735 H 0.34191 0.18004 0.51661 0.0
H1736 H 0.37636 0.12594 0.48724 0.0
H1737 H 0.38343 0.14233 0.56382 0.0
H1738 H 0.36286 0.13999 0.54991 0.0
H1739 H 0.38002 0.16055 0.55143 0.0
C1740 C 0.32807 0.13296 0.50251 0.0
C1741 C 0.327 0.15173 0.5065 0.0
C1742 C 0.34405 0.12793 0.50536 0.0
C1743 C 0.35934 0.1415 0.51264 0.0
C1744 C 0.35848 0.1604 0.51632 0.0
H1745 H 0.46301 0.11439 0.52689 0.0
H1746 H 0.44032 0.13254 0.52634 0.0
C1747 C 0.34241 0.1655 0.51315 0.0
C1748 C 0.37599 0.13545 0.51611 0.0
H1749 H 0.4046 0.12832 0.55029 0.0
C1750 C 0.38268 0.12674 0.50101 0.0
C1751 C 0.38416 0.13634 0.53412 0.0
C1752 C 0.37727 0.14519 0.55083 0.0
C1753 C 0.39702 0.11855 0.50343 0.0
C1754 C 0.40483 0.11892 0.52139 0.0
C1755 C 0.39856 0.1281 0.53653 0.0
C1756 C 0.41871 0.1086 0.52442 0.0
C1757 C 0.40348 0.109 0.48677 0.0
C1758 C 0.41406 0.08923 0.52388 0.0
C1759 C 0.42693 0.07886 0.52419 0.0
C1760 C 0.44474 0.08764 0.52493 0.0
C1761 C 0.4494 0.1072 0.52614 0.0
C1762 C 0.43649 0.11759 0.52596 0.0
H1763 H 0.3975 0.11191 0.47373 0.0
H1764 H 0.41794 0.11359 0.48762 0.0
H1765 H 0.40019 0.09366 0.48643 0.0
H1766 H 0.4004 0.08203 0.52254 0.0
H1767 H 0.42284 0.06383 0.523 0.0
H1768 H 0.66686 0.58804 0.25142 0.0
H1769 H 0.68452 0.61896 0.25091 0.0
H1770 H 0.72814 0.60566 0.28086 0.0
H1771 H 0.71045 0.57396 0.28068 0.0
H1772 H 0.6975 0.64811 0.27298 0.0
H1773 H 0.75596 0.6295 0.24627 0.0
H1774 H 0.73641 0.61202 0.24699 0.0
H1775 H 0.75206 0.621 0.26727 0.0
C1776 C 0.68029 0.59142 0.25783 0.0
C1777 C 0.68696 0.57791 0.26604 0.0
C1778 C 0.69053 0.60949 0.25757 0.0
C1779 C 0.70813 0.61535 0.2656 0.0
C1780 C 0.71492 0.60191 0.27394 0.0
H1781 H 0.78685 0.72335 0.28609 0.0
H1782 H 0.76924 0.69183 0.28485 0.0
C1783 C 0.70465 0.58354 0.27398 0.0
C1784 C 0.71871 0.63548 0.26551 0.0
H1785 H 0.75851 0.66167 0.25792 0.0
C1786 C 0.7108 0.65084 0.26951 0.0
C1787 C 0.73621 0.63988 0.26094 0.0
C1788 C 0.7456 0.62473 0.25493 0.0
C1789 C 0.71966 0.66975 0.2695 0.0
C1790 C 0.73724 0.67412 0.26528 0.0
C1791 C 0.74515 0.65883 0.26125 0.0
C1792 C 0.74789 0.69425 0.26577 0.0
C1793 C 0.71013 0.685 0.27457 0.0
C1794 C 0.74231 0.70698 0.2554 0.0
C1795 C 0.75267 0.72542 0.25597 0.0
C1796 C 0.76903 0.73196 0.26704 0.0
C1797 C 0.77444 0.71921 0.27737 0.0
C1798 C 0.76426 0.70088 0.27664 0.0
H1799 H 0.69873 0.68021 0.28195 0.0
H1800 H 0.719 0.69743 0.28338 0.0
H1801 H 0.70518 0.68934 0.26183 0.0
H1802 H 0.73001 0.70257 0.24653 0.0
H1803 H 0.74788 0.7345 0.24769 0.0
H1804 H 0.91758 0.45934 0.74745 0.0
H1805 H 0.89487 0.43015 0.74234 0.0
H1806 H 0.87549 0.44837 0.79318 0.0
H1807 H 0.89788 0.47748 0.79831 0.0
H1808 H 0.8838 0.40233 0.76831 0.0
H1809 H 0.83548 0.44248 0.74822 0.0
H1810 H 0.85876 0.4504 0.74758 0.0
H1811 H 0.84973 0.45319 0.76907 0.0
C1812 C 0.90876 0.4568 0.75774 0.0
C1813 C 0.90915 0.47054 0.77312 0.0
C1814 C 0.89584 0.4403 0.75475 0.0
C1815 C 0.88352 0.43764 0.76722 0.0
C1816 C 0.88486 0.4506 0.78335 0.0
H1817 H 0.81056 0.35171 0.79472 0.0
H1818 H 0.82886 0.38226 0.79342 0.0
C1819 C 0.89759 0.46708 0.78625 0.0
C1820 C 0.86838 0.42204 0.76307 0.0
H1821 H 0.82386 0.41279 0.75658 0.0
C1822 C 0.8707 0.40441 0.76537 0.0
C1823 C 0.85148 0.42509 0.75905 0.0
C1824 C 0.84866 0.44379 0.75566 0.0
C1825 C 0.85622 0.38979 0.76493 0.0
C1826 C 0.83931 0.39331 0.76243 0.0
C1827 C 0.83698 0.41056 0.75889 0.0
C1828 C 0.82402 0.37903 0.76378 0.0
C1829 C 0.85905 0.3709 0.76775 0.0
C1830 C 0.81434 0.36829 0.74763 0.0
C1831 C 0.80392 0.35092 0.7483 0.0
C1832 C 0.80343 0.34438 0.76509 0.0
C1833 C 0.81108 0.35639 0.78156 0.0
C1834 C 0.82145 0.37378 0.78088 0.0
H1835 H 0.87255 0.36952 0.76557 0.0
H1836 H 0.85699 0.36902 0.78206 0.0
H1837 H 0.84957 0.3595 0.75825 0.0
H1838 H 0.8162 0.37247 0.7344 0.0
H1839 H 0.79757 0.34203 0.73553 0.0
H1840 H 0.04619 0.837 0.06768 0.0
H1841 H 0.04041 0.86277 0.05263 0.0
H1842 H 0.08129 0.90158 0.09026 0.0
H1843 H 0.08673 0.87602 0.10574 0.0
H1844 H 0.03499 0.90228 0.07649 0.0
H1845 H 0.08773 0.90474 0.03071 0.0
H1846 H 0.07738 0.88344 0.03816 0.0
H1847 H 0.09265 0.9014 0.05403 0.0
C1848 C 0.05401 0.85102 0.07268 0.0
C1849 C 0.06693 0.85447 0.08792 0.0
C1850 C 0.05065 0.86573 0.0641 0.0
C1851 C 0.06045 0.8841 0.07029 0.0
C1852 C 0.07356 0.88753 0.08527 0.0
H1853 H 0.07318 0.99248 0.03863 0.0
H1854 H 0.0758 0.96361 0.04924 0.0
C1855 C 0.07664 0.87291 0.09412 0.0
C1856 C 0.05682 0.89985 0.06145 0.0
H1857 H 0.0725 0.92886 0.03196 0.0
C1858 C 0.04307 0.90803 0.06664 0.0
C1859 C 0.06739 0.90733 0.04862 0.0
C1860 C 0.0821 0.89881 0.04238 0.0
C1861 C 0.03998 0.92391 0.05983 0.0
C1862 C 0.05074 0.93161 0.04714 0.0
C1863 C 0.06425 0.92307 0.04167 0.0
C1864 C 0.04888 0.94903 0.04011 0.0
C1865 C 0.02569 0.93269 0.06692 0.0
C1866 C 0.03294 0.95052 0.03104 0.0
C1867 C 0.03135 0.96717 0.02503 0.0
C1868 C 0.04574 0.98267 0.02772 0.0
C1869 C 0.06179 0.98093 0.03632 0.0
C1870 C 0.06332 0.96435 0.04241 0.0
H1871 H 0.02195 0.9283 0.08001 0.0
H1872 H 0.02978 0.94818 0.06924 0.0
H1873 H 0.01387 0.92821 0.05662 0.0
H1874 H 0.0217 0.9388 0.02859 0.0
H1875 H 0.0188 0.9679 0.01839 0.0
H1876 H 0.94871 0.27096 0.89555 0.0
H1877 H 0.91974 0.27379 0.88216 0.0
H1878 H 0.93673 0.26825 0.82818 0.0
H1879 H 0.96534 0.26561 0.84132 0.0
H1880 H 0.91259 0.30205 0.85837 0.0
H1881 H 0.8893 0.22867 0.82261 0.0
H1882 H 0.90644 0.2356 0.84178 0.0
H1883 H 0.91119 0.23949 0.81916 0.0
C1884 C 0.94609 0.26993 0.8808 0.0
C1885 C 0.95936 0.26779 0.86951 0.0
C1886 C 0.92959 0.27178 0.87316 0.0
C1887 C 0.92591 0.27118 0.85407 0.0
C1888 C 0.93905 0.26863 0.84288 0.0
H1889 H 0.84741 0.27124 0.76696 0.0
H1890 H 0.87271 0.27049 0.7878 0.0
C1891 C 0.95546 0.26705 0.85045 0.0
C1892 C 0.90861 0.27332 0.84543 0.0
H1893 H 0.87439 0.25064 0.81272 0.0
C1894 C 0.90406 0.29075 0.84857 0.0
C1895 C 0.89744 0.25868 0.83257 0.0
C1896 C 0.9012 0.23949 0.82889 0.0
C1897 C 0.88926 0.29415 0.83852 0.0
C1898 C 0.87839 0.2796 0.82514 0.0
C1899 C 0.88263 0.26198 0.82271 0.0
C1900 C 0.86329 0.28226 0.81254 0.0
C1901 C 0.88601 0.31357 0.84173 0.0
C1902 C 0.84938 0.28964 0.8191 0.0
C1903 C 0.83487 0.29053 0.80691 0.0
C1904 C 0.8337 0.2836 0.78795 0.0
C1905 C 0.84773 0.27659 0.78146 0.0
C1906 C 0.86228 0.2761 0.79347 0.0
H1907 H 0.89787 0.32413 0.84861 0.0
H1908 H 0.88173 0.31766 0.82859 0.0
H1909 H 0.87551 0.31393 0.85081 0.0
H1910 H 0.8494 0.29414 0.8337 0.0
H1911 H 0.82427 0.29588 0.81242 0.0
H1912 H 0.588 0.25214 0.57427 0.0
H1913 H 0.58468 0.22067 0.55627 0.0
H1914 H 0.53634 0.20195 0.5785 0.0
H1915 H 0.53981 0.23323 0.59668 0.0
H1916 H 0.58192 0.18949 0.57767 0.0
H1917 H 0.52693 0.17826 0.52189 0.0
H1918 H 0.53983 0.20128 0.53211 0.0
H1919 H 0.52361 0.1891 0.54435 0.0
C1920 C 0.57639 0.24143 0.57473 0.0
C1921 C 0.56405 0.24494 0.5866 0.0
C1922 C 0.57453 0.22353 0.56456 0.0
C1923 C 0.5602 0.20912 0.566 0.0
C1924 C 0.54733 0.21299 0.57701 0.0
H1925 H 0.52588 0.09074 0.5383 0.0
H1926 H 0.53006 0.12428 0.54806 0.0
C1927 C 0.54931 0.23078 0.58736 0.0
C1928 C 0.55998 0.18957 0.55834 0.0
H1929 H 0.53673 0.15153 0.52788 0.0
C1930 C 0.57223 0.1812 0.56659 0.0
C1931 C 0.54709 0.17885 0.54417 0.0
C1932 C 0.53364 0.18729 0.53498 0.0
C1933 C 0.57162 0.16212 0.56141 0.0
C1934 C 0.55873 0.15136 0.54719 0.0
C1935 C 0.54668 0.15987 0.5387 0.0
C1936 C 0.55676 0.13101 0.54164 0.0
C1937 C 0.58419 0.15351 0.57184 0.0
C1938 C 0.57046 0.12365 0.53488 0.0
C1939 C 0.56819 0.10435 0.52948 0.0
C1940 C 0.55207 0.09225 0.53046 0.0
C1941 C 0.53841 0.09972 0.53722 0.0
C1942 C 0.54076 0.11889 0.54281 0.0
H1943 H 0.59016 0.16256 0.58517 0.0
H1944 H 0.57749 0.13964 0.57459 0.0
H1945 H 0.59492 0.15155 0.56348 0.0
H1946 H 0.5828 0.13282 0.53354 0.0
H1947 H 0.57889 0.09896 0.52422 0.0
H1948 H 0.5777 0.76534 0.40817 0.0
H1949 H 0.60567 0.77373 0.39551 0.0
H1950 H 0.57911 0.78961 0.34933 0.0
H1951 H 0.55104 0.78076 0.36163 0.0
H1952 H 0.60764 0.75697 0.35164 0.0
H1953 H 0.62772 0.83377 0.37696 0.0
H1954 H 0.61517 0.81805 0.38993 0.0
H1955 H 0.60492 0.82301 0.36934 0.0
C1956 C 0.57784 0.77065 0.39533 0.0
C1957 C 0.56214 0.77212 0.38574 0.0
C1958 C 0.59383 0.77552 0.38817 0.0
C1959 C 0.59448 0.78241 0.37154 0.0
C1960 C 0.5789 0.78437 0.3622 0.0
H1961 H 0.67356 0.80856 0.29808 0.0
H1962 H 0.6483 0.80757 0.31542 0.0
C1963 C 0.56286 0.77915 0.36916 0.0
C1964 C 0.61114 0.78603 0.36312 0.0
H1965 H 0.64566 0.82054 0.35718 0.0
C1966 C 0.61599 0.77085 0.35291 0.0
C1967 C 0.62196 0.80416 0.36476 0.0
C1968 C 0.61734 0.82079 0.37586 0.0
C1969 C 0.63129 0.77331 0.34413 0.0
C1970 C 0.64218 0.79142 0.34573 0.0
C1971 C 0.63733 0.80667 0.35596 0.0
C1972 C 0.65855 0.79449 0.33669 0.0
C1973 C 0.63559 0.75654 0.3329 0.0
C1974 C 0.67299 0.78803 0.34318 0.0
C1975 C 0.68759 0.78878 0.33344 0.0
C1976 C 0.68807 0.79584 0.3168 0.0
C1977 C 0.67386 0.80313 0.31083 0.0
C1978 C 0.6593 0.80251 0.3207 0.0
H1979 H 0.62444 0.74411 0.3305 0.0
H1980 H 0.63928 0.75972 0.31938 0.0
H1981 H 0.64695 0.75299 0.34027 0.0
H1982 H 0.67278 0.78195 0.35558 0.0
H1983 H 0.69837 0.78347 0.33884 0.0
H1984 H 0.09664 0.26407 0.42389 0.0
H1985 H 0.08565 0.23615 0.43694 0.0
H1986 H 0.03439 0.23007 0.40766 0.0
H1987 H 0.0457 0.2573 0.39366 0.0
H1988 H 0.0614 0.23169 0.45901 0.0
H1989 H 0.03968 0.1778 0.39577 0.0
H1990 H 0.05265 0.20081 0.39526 0.0
H1991 H 0.02948 0.19723 0.39658 0.0
C1992 C 0.08309 0.25661 0.42014 0.0
C1993 C 0.07197 0.26264 0.40784 0.0
C1994 C 0.07683 0.24071 0.42754 0.0
C1995 C 0.05927 0.23093 0.42305 0.0
C1996 C 0.0481 0.23708 0.41086 0.0
H1997 H 0.01048 0.13616 0.47374 0.0
H1998 H 0.01332 0.16243 0.45679 0.0
C1999 C 0.05451 0.25268 0.40303 0.0
C2000 C 0.05261 0.21496 0.43208 0.0
H2001 H 0.03425 0.16816 0.42414 0.0
C2002 C 0.05539 0.21782 0.45136 0.0
C2003 C 0.04454 0.19696 0.42203 0.0
C2004 C 0.04153 0.19294 0.40127 0.0
C2005 C 0.05105 0.203 0.46088 0.0
C2006 C 0.04367 0.18495 0.45082 0.0
C2007 C 0.03994 0.18215 0.43165 0.0
C2008 C 0.04163 0.1686 0.45989 0.0
C2009 C 0.05493 0.20662 0.48159 0.0
C2010 C 0.05663 0.16339 0.46672 0.0
C2011 C 0.05508 0.14859 0.47632 0.0
C2012 C 0.03849 0.13875 0.47916 0.0
C2013 C 0.02341 0.14368 0.47184 0.0
C2014 C 0.02499 0.15853 0.46215 0.0
H2015 H 0.05648 0.22162 0.48748 0.0
H2016 H 0.04437 0.19814 0.48786 0.0
H2017 H 0.06734 0.20261 0.48548 0.0
H2018 H 0.06955 0.17104 0.46491 0.0
H2019 H 0.06691 0.14523 0.48202 0.0
H2020 H 0.55539 0.25069 0.14789 0.0
H2021 H 0.58321 0.25108 0.16516 0.0
H2022 H 0.56902 0.28294 0.21297 0.0
H2023 H 0.54085 0.28228 0.19588 0.0
H2024 H 0.60738 0.28464 0.18044 0.0
H2025 H 0.58719 0.24051 0.23287 0.0
H2026 H 0.57325 0.23968 0.21198 0.0
H2027 H 0.57577 0.25875 0.23077 0.0
C2028 C 0.55817 0.25777 0.16209 0.0
C2029 C 0.54615 0.26666 0.17058 0.0
C2030 C 0.57396 0.25784 0.17192 0.0
C2031 C 0.5779 0.26688 0.19027 0.0
C2032 C 0.56591 0.27563 0.19887 0.0
H2033 H 0.677 0.28499 0.26032 0.0
H2034 H 0.64735 0.28733 0.24904 0.0
C2035 C 0.55 0.27542 0.18908 0.0
C2036 C 0.59528 0.26855 0.19977 0.0
H2037 H 0.61725 0.2552 0.23504 0.0
C2038 C 0.60958 0.27832 0.19246 0.0
C2039 C 0.59785 0.26027 0.21539 0.0
C2040 C 0.58274 0.24908 0.22319 0.0
C2041 C 0.62663 0.2798 0.20025 0.0
C2042 C 0.62925 0.2712 0.21563 0.0
C2043 C 0.61496 0.26189 0.22332 0.0
C2044 C 0.64676 0.27005 0.2226 0.0
C2045 C 0.6417 0.29017 0.19175 0.0
C2046 C 0.65578 0.25944 0.21137 0.0
C2047 C 0.67251 0.25827 0.21762 0.0
C2048 C 0.68024 0.26748 0.23524 0.0
C2049 C 0.67112 0.27787 0.24665 0.0
C2050 C 0.65435 0.27918 0.24029 0.0
H2051 H 0.6375 0.29989 0.18324 0.0
H2052 H 0.65241 0.29824 0.20252 0.0
H2053 H 0.64701 0.27995 0.18268 0.0
H2054 H 0.64984 0.25203 0.19781 0.0
H2055 H 0.6793 0.24991 0.20881 0.0
H2056 H 0.61072 0.89668 0.90459 0.0
H2057 H 0.60016 0.92221 0.92175 0.0
H2058 H 0.55611 0.88213 0.93391 0.0
H2059 H 0.56705 0.85672 0.91783 0.0
H2060 H 0.56976 0.93299 0.916 0.0
H2061 H 0.57496 0.91078 0.98412 0.0
H2062 H 0.58448 0.90063 0.96491 0.0
H2063 H 0.56148 0.89292 0.96667 0.0
C2064 C 0.59904 0.8934 0.91135 0.0
C2065 C 0.58996 0.87481 0.91039 0.0
C2066 C 0.59293 0.90792 0.92094 0.0
C2067 C 0.57755 0.90395 0.92934 0.0
C2068 C 0.56831 0.88541 0.92804 0.0
H2069 H 0.51774 0.97885 0.98171 0.0
H2070 H 0.52611 0.95513 0.95936 0.0
C2071 C 0.57462 0.87092 0.91891 0.0
C2072 C 0.57108 0.91918 0.93952 0.0
H2073 H 0.55989 0.93485 0.98151 0.0
C2074 C 0.56762 0.93344 0.93033 0.0
C2075 C 0.56836 0.91966 0.95821 0.0
C2076 C 0.57268 0.90528 0.9691 0.0
C2077 C 0.5615 0.94828 0.93948 0.0
C2078 C 0.5587 0.94858 0.95804 0.0
C2079 C 0.56196 0.93428 0.96715 0.0
C2080 C 0.55379 0.96434 0.96898 0.0
C2081 C 0.55849 0.9638 0.92957 0.0
C2082 C 0.56667 0.97715 0.9815 0.0
C2083 C 0.56191 0.99018 0.99443 0.0
C2084 C 0.54425 0.99063 0.9948 0.0
C2085 C 0.53142 0.9785 0.98162 0.0
C2086 C 0.53617 0.96517 0.96885 0.0
H2087 H 0.56108 0.96135 0.91498 0.0
H2088 H 0.54476 0.96519 0.93 0.0
H2089 H 0.56716 0.97726 0.93669 0.0
H2090 H 0.58032 0.97656 0.98168 0.0
H2091 H 0.57202 0.99976 0.00426 0.0
H2092 H 0.94558 0.773 0.66279 0.0
H2093 H 0.92052 0.77906 0.67798 0.0
H2094 H 0.91958 0.73096 0.7043 0.0
H2095 H 0.94495 0.72506 0.68958 0.0
H2096 H 0.88684 0.75859 0.68108 0.0
H2097 H 0.93108 0.77594 0.74688 0.0
H2098 H 0.93898 0.77268 0.7247 0.0
H2099 H 0.92943 0.75278 0.73457 0.0
C2100 C 0.93975 0.76345 0.67146 0.0
C2101 C 0.94732 0.74884 0.67546 0.0
C2102 C 0.92552 0.76695 0.68009 0.0
C2103 C 0.91875 0.75572 0.69254 0.0
C2104 C 0.92509 0.73997 0.69502 0.0
H2105 H 0.83745 0.75248 0.76012 0.0
H2106 H 0.86319 0.74811 0.74515 0.0
C2107 C 0.93946 0.73661 0.68662 0.0
C2108 C 0.90624 0.7615 0.70425 0.0
H2109 H 0.90094 0.77484 0.74909 0.0
C2110 C 0.88987 0.76224 0.69592 0.0
C2111 C 0.91063 0.76657 0.72354 0.0
C2112 C 0.92855 0.76715 0.73296 0.0
C2113 C 0.87733 0.76729 0.70662 0.0
C2114 C 0.88153 0.77164 0.72592 0.0
C2115 C 0.898 0.77134 0.73422 0.0
C2116 C 0.86853 0.77562 0.7377 0.0
C2117 C 0.8596 0.7676 0.69737 0.0
C2118 C 0.86395 0.79285 0.73904 0.0
C2119 C 0.84944 0.79541 0.7476 0.0
C2120 C 0.83939 0.78061 0.75461 0.0
C2121 C 0.8449 0.76391 0.75454 0.0
C2122 C 0.85952 0.76144 0.7461 0.0
H2123 H 0.85784 0.76175 0.68243 0.0
H2124 H 0.84903 0.75953 0.70396 0.0
H2125 H 0.85809 0.78224 0.69901 0.0
H2126 H 0.87099 0.80386 0.73259 0.0
H2127 H 0.84542 0.80845 0.74749 0.0
H2128 H 0.09749 0.01059 0.81272 0.0
H2129 H 0.08507 0.01147 0.84203 0.0
H2130 H 0.13682 0.02216 0.87101 0.0
H2131 H 0.14935 0.02088 0.84141 0.0
H2132 H 0.08452 0.99129 0.87092 0.0
H2133 H 0.11823 0.0646 0.89922 0.0
H2134 H 0.11705 0.05467 0.8752 0.0
H2135 H 0.13249 0.04969 0.8919 0.0
C2136 C 0.10638 0.01286 0.82525 0.0
C2137 C 0.12464 0.01541 0.82412 0.0
C2138 C 0.09913 0.01346 0.84229 0.0
C2139 C 0.1097 0.01725 0.85943 0.0
C2140 C 0.128 0.01952 0.85841 0.0
H2141 H 0.08291 0.03576 0.9776 0.0
H2142 H 0.09839 0.03371 0.94975 0.0
C2143 C 0.13528 0.01851 0.84122 0.0
C2144 C 0.1015 0.0187 0.87793 0.0
H2145 H 0.10138 0.04813 0.919 0.0
C2146 C 0.08835 1.0038 0.88135 0.0
C2147 C 0.10599 0.03486 0.89209 0.0
C2148 C 0.11908 0.05198 0.88948 0.0
C2149 C 0.0802 1.00433 0.898 0.0
C2150 C 0.08455 0.02058 0.91217 0.0
C2151 C 0.09774 0.0355 0.90873 0.0
C2152 C 0.0752 0.02246 0.92999 0.0
C2153 C 0.06728 0.9869 0.9003 0.0
C2154 C 0.05676 0.01753 0.92911 0.0
C2155 C 0.04794 0.01858 0.94507 0.0
C2156 C 0.0568 0.02501 0.96317 0.0
C2157 C 0.07529 0.03062 0.96426 0.0
C2158 C 0.08424 0.02942 0.94806 0.0
H2159 H 0.0701 0.9742 0.89229 0.0
H2160 H 0.06746 0.98522 0.91495 0.0
H2161 H 0.05391 0.9877 0.895 0.0
H2162 H 0.04889 0.0129 0.91586 0.0
H2163 H 0.03378 0.01431 0.94307 0.0
H2164 H 0.79782 0.3689 0.53916 0.0
H2165 H 0.80911 0.35735 0.56595 0.0
H2166 H 0.82308 0.41352 0.59685 0.0
H2167 H 0.81193 0.42521 0.57027 0.0
H2168 H 0.84672 0.37366 0.58734 0.0
H2169 H 0.78935 0.37744 0.62594 0.0
H2170 H 0.78793 0.37555 0.60123 0.0
H2171 H 0.79833 0.39736 0.61576 0.0
C2172 C 0.80305 0.3787 0.55177 0.0
C2173 C 0.80391 0.39787 0.55281 0.0
C2174 C 0.80964 0.37215 0.56688 0.0
C2175 C 0.8169 0.38471 0.5831 0.0
C2176 C 0.81751 0.40376 0.58429 0.0
H2177 H 0.84031 0.36059 0.69065 0.0
H2178 H 0.84264 0.37908 0.66593 0.0
C2179 C 0.81107 0.41034 0.5692 0.0
C2180 C 0.82346 0.3779 0.5991 0.0
H2181 H 0.81315 0.36891 0.64092 0.0
C2182 C 0.83952 0.37267 0.59916 0.0
C2183 C 0.8139 0.37682 0.6143 0.0
C2184 C 0.79635 0.38196 0.61439 0.0
C2185 C 0.84633 0.36616 0.6143 0.0
C2186 C 0.83664 0.36482 0.62944 0.0
C2187 C 0.82069 0.37036 0.62939 0.0
C2188 C 0.84132 0.3554 0.64446 0.0
C2189 C 0.86365 0.36061 0.61393 0.0
C2190 C 0.84066 0.33624 0.64051 0.0
C2191 C 0.83932 0.32572 0.6545 0.0
C2192 C 0.83845 0.33425 0.67256 0.0
C2193 C 0.84085 0.35374 0.67678 0.0
C2194 C 0.84228 0.36429 0.66275 0.0
H2195 H 0.87188 0.36802 0.60464 0.0
H2196 H 0.871 0.36358 0.62792 0.0
H2197 H 0.86124 0.34538 0.60869 0.0
H2198 H 0.83943 0.32909 0.62641 0.0
H2199 H 0.83721 0.31067 0.65084 0.0
H2200 H 0.45637 0.9957 0.32439 0.0
H2201 H 0.46493 0.99318 0.35627 0.0
H2202 H 0.46279 0.05073 0.37374 0.0
H2203 H 0.45329 0.0529 0.34213 0.0
H2204 H 0.49523 0.01373 0.37167 0.0
H2205 H 0.44511 0.02839 0.41615 0.0
H2206 H 0.44029 0.02206 0.39142 0.0
H2207 H 0.44992 0.04595 0.40206 0.0
C2208 C 0.45745 0.00763 0.33519 0.0
C2209 C 0.4547 0.02463 0.33109 0.0
C2210 C 0.46205 1.00611 0.35328 0.0
C2211 C 0.46429 0.02171 0.36723 0.0
C2212 C 0.46062 0.03839 0.3632 0.0
H2213 H 0.54045 0.0638 0.46161 0.0
H2214 H 0.52065 0.05978 0.43293 0.0
C2215 C 0.45555 0.03975 0.34518 0.0
C2216 C 0.47396 0.02197 0.38495 0.0
H2217 H 0.47523 0.03635 0.43099 0.0
C2218 C 0.49071 0.01832 0.38467 0.0
C2219 C 0.46799 0.02805 0.40176 0.0
C2220 C 0.44975 0.03113 0.40285 0.0
C2221 C 0.502 0.02137 0.40083 0.0
C2222 C 0.49635 0.02844 0.4174 0.0
C2223 C 0.47945 0.03141 0.41792 0.0
C2224 C 0.50754 0.03145 0.43456 0.0
C2225 C 0.5199 0.01718 0.40021 0.0
C2226 C 0.50636 0.01676 0.44436 0.0
C2227 C 0.5174 0.019 0.46039 0.0
C2228 C 0.52975 0.03592 0.46664 0.0
C2229 C 0.53101 0.05067 0.45679 0.0
C2230 C 0.51976 0.04844 0.44068 0.0
H2231 H 0.52243 0.01224 0.38597 0.0
H2232 H 0.53017 0.02988 0.40629 0.0
H2233 H 0.52109 1.00624 0.40861 0.0
H2234 H 0.49703 1.00355 0.43948 0.0
H2235 H 0.51641 0.00736 0.46775 0.0
H2236 H 0.80309 0.72887 0.05154 0.0
H2237 H 0.80812 0.74739 0.08294 0.0
H2238 H 0.76254 0.71116 0.09713 0.0
H2239 H 0.7576 0.69275 0.06634 0.0
H2240 H 0.78586 0.76622 0.10437 0.0
H2241 H 0.80204 0.7081 0.13565 0.0
H2242 H 0.80222 0.70879 0.11139 0.0
H2243 H 0.78195 0.70076 0.12043 0.0
C2244 C 0.79404 0.72511 0.06133 0.0
C2245 C 0.78004 0.70927 0.05655 0.0
C2246 C 0.79697 0.73559 0.07924 0.0
C2247 C 0.78593 0.73032 0.09246 0.0
C2248 C 0.77148 0.71517 0.0873 0.0
H2249 H 0.75988 0.75924 0.20047 0.0
H2250 H 0.76108 0.74888 0.16757 0.0
C2251 C 0.76863 0.70472 0.06964 0.0
C2252 C 0.7892 0.7402 0.1118 0.0
H2253 H 0.79254 0.73162 0.15582 0.0
C2254 C 0.78766 0.75882 0.11566 0.0
C2255 C 0.79173 0.73054 0.12651 0.0
C2256 C 0.79477 0.71101 0.12332 0.0
C2257 C 0.78746 0.7676 0.13383 0.0
C2258 C 0.78872 0.75743 0.14832 0.0
C2259 C 0.79118 0.7392 0.14457 0.0
C2260 C 0.7873 0.76533 0.16753 0.0
C2261 C 0.78523 0.7874 0.13748 0.0
C2262 C 0.80156 0.77815 0.1782 0.0
C2263 C 0.80096 0.78394 0.19693 0.0
C2264 C 0.78602 0.77712 0.20524 0.0
C2265 C 0.77143 0.76492 0.19434 0.0
C2266 C 0.77215 0.75892 0.17563 0.0
H2267 H 0.78297 0.79289 0.12457 0.0
H2268 H 0.77405 0.78818 0.14555 0.0
H2269 H 0.79717 0.79655 0.14584 0.0
H2270 H 0.81339 0.78312 0.17219 0.0
H2271 H 0.8124 0.79334 0.20504 0.0
H2272 H 0.14811 0.99944 0.69383 0.0
H2273 H 0.13292 1.00282 0.66456 0.0
H2274 H 0.09338 0.02225 0.69361 0.0
H2275 H 0.10826 0.01834 0.72292 0.0
H2276 H 0.09236 0.98635 0.64876 0.0
H2277 H 0.11473 0.06372 0.66023 0.0
H2278 H 0.12678 0.04947 0.67136 0.0
H2279 H 0.10641 0.05275 0.67882 0.0
C2280 C 0.13612 1.00433 0.69409 0.0
C2281 C 0.12958 0.00853 0.71109 0.0
C2282 C 0.12736 1.00627 0.67718 0.0
C2283 C 0.11187 0.01295 0.67649 0.0
C2284 C 0.10525 0.01712 0.69343 0.0
H2285 H 0.05575 0.05143 0.58468 0.0
H2286 H 0.06814 0.04663 0.61465 0.0
C2287 C 0.11381 0.01479 0.71033 0.0
C2288 C 0.1029 0.0157 0.65823 0.0
H2289 H 0.09697 0.04933 0.63258 0.0
C2290 C 0.09342 1.00015 0.64527 0.0
C2291 C 0.10376 0.03362 0.65339 0.0
C2292 C 0.11349 0.05095 0.66655 0.0
C2293 C 0.08487 1.00198 0.6281 0.0
C2294 C 0.08635 0.01991 0.62283 0.0
C2295 C 0.0957 0.03548 0.63599 0.0
C2296 C 0.07839 0.02282 0.604 0.0
C2297 C 0.07369 0.98448 0.6162 0.0
C2298 C 0.07985 0.01146 0.58729 0.0
C2299 C 0.07225 0.0139 0.57004 0.0
C2300 C 0.06335 0.02828 0.56849 0.0
C2301 C 0.06235 0.0401 0.58506 0.0
C2302 C 0.06959 0.03736 0.6024 0.0
H2303 H 0.06866 0.97379 0.62462 0.0
H2304 H 0.06232 0.98742 0.60824 0.0
H2305 H 0.08174 0.9783 0.60648 0.0
H2306 H 0.08714 1.0007 0.5874 0.0
H2307 H 0.07371 1.00464 0.55778 0.0
H2308 H 0.79972 0.41623 0.42858 0.0
H2309 H 0.8029 0.39539 0.4006 0.0
H2310 H 0.80908 0.35296 0.43281 0.0
H2311 H 0.80518 0.37325 0.46049 0.0
H2312 H 0.8293 0.37765 0.39111 0.0
H2313 H 0.76766 0.32632 0.39523 0.0
H2314 H 0.77357 0.34927 0.40924 0.0
H2315 H 0.78327 0.33089 0.41539 0.0
C2316 C 0.80166 0.4024 0.42955 0.0
C2317 C 0.80171 0.39603 0.44642 0.0
C2318 C 0.80357 0.39062 0.4137 0.0
C2319 C 0.80579 0.37258 0.41474 0.0
C2320 C 0.80683 0.36665 0.43175 0.0
H2321 H 0.80053 0.2787 0.32707 0.0
H2322 H 0.80727 0.29879 0.35755 0.0
C2323 C 0.80457 0.37821 0.44747 0.0
C2324 C 0.80635 0.35961 0.39794 0.0
H2325 H 0.78476 0.31793 0.37206 0.0
C2326 C 0.81964 0.36454 0.38693 0.0
C2327 C 0.79368 0.34257 0.39269 0.0
C2328 C 0.77865 0.337 0.40366 0.0
C2329 C 0.82055 0.35281 0.37058 0.0
C2330 C 0.80774 0.3359 0.36521 0.0
C2331 C 0.79469 0.33081 0.37644 0.0
C2332 C 0.8063 0.32425 0.34706 0.0
C2333 C 0.83511 0.35873 0.35918 0.0
C2334 C 0.8036 0.33204 0.33132 0.0
C2335 C 0.80004 0.32076 0.31412 0.0
C2336 C 0.79868 0.30144 0.31246 0.0
C2337 C 0.80159 0.2936 0.32814 0.0
C2338 C 0.80545 0.30501 0.34542 0.0
H2339 H 0.84683 0.36795 0.3679 0.0
H2340 H 0.83899 0.34649 0.35155 0.0
H2341 H 0.8306 0.36681 0.34906 0.0
H2342 H 0.80353 0.34671 0.33236 0.0
H2343 H 0.79763 0.32712 0.30222 0.0
H2344 H 0.46953 0.0467 0.23624 0.0
H2345 H 0.47785 0.0279 0.20968 0.0
H2346 H 0.42478 0.99483 0.19745 0.0
H2347 H 0.41626 0.01395 0.22336 0.0
H2348 H 0.47479 0.98861 0.19979 0.0
H2349 H 0.43381 0.01674 0.15094 0.0
H2350 H 0.43869 0.02679 0.17504 0.0
H2351 H 0.42273 1.00512 0.16767 0.0
C2352 C 0.45965 0.03563 0.22763 0.0
C2353 C 0.44219 0.03224 0.23125 0.0
C2354 C 0.46442 0.02476 0.21274 0.0
C2355 C 0.45181 0.01023 0.20161 0.0
C2356 C 0.43453 1.00628 0.20572 0.0
H2357 H 0.47358 0.97866 0.09082 0.0
H2358 H 0.45841 0.97137 0.11742 0.0
C2359 C 0.42969 0.01735 0.22034 0.0
C2360 C 0.4565 1.00036 0.18479 0.0
H2361 H 0.45178 0.9983 0.1385 0.0
C2362 C 0.46956 0.99033 0.1863 0.0
C2363 C 0.44939 1.00251 0.16732 0.0
C2364 C 0.43546 0.01346 0.16504 0.0
C2365 C 0.47654 0.98329 0.1707 0.0
C2366 C 0.47045 0.9868 0.15335 0.0
C2367 C 0.45637 0.9955 0.15177 0.0
C2368 C 0.48063 0.98548 0.13759 0.0
C2369 C 0.49086 0.97296 0.17313 0.0
C2370 C 0.49827 0.99512 0.14013 0.0
C2371 C 0.50696 0.9987 0.12508 0.0
C2372 C 0.498 0.99322 0.1073 0.0
C2373 C 0.48069 0.98272 0.10452 0.0
C2374 C 0.47209 0.9786 0.11964 0.0
H2375 H 0.48835 0.96418 0.18392 0.0
H2376 H 0.49211 0.96392 0.16015 0.0
H2377 H 0.50351 0.98322 0.17785 0.0
H2378 H 0.50493 1.00138 0.15373 0.0
H2379 H 0.5202 0.00726 0.12744 0.0
H2380 H 0.794 0.68674 0.92841 0.0
H2381 H 0.79646 0.70095 0.90077 0.0
H2382 H 0.78073 0.749 0.92843 0.0
H2383 H 0.77875 0.73508 0.95634 0.0
H2384 H 0.77163 0.70974 0.87955 0.0
H2385 H 0.8222 0.77472 0.90673 0.0
H2386 H 0.8174 0.75579 0.9195 0.0
H2387 H 0.80346 0.77204 0.91914 0.0
C2388 C 0.79126 0.70043 0.92871 0.0
C2389 C 0.78624 0.70977 0.94468 0.0
C2390 C 0.79264 0.70855 0.91285 0.0
C2391 C 0.78904 0.72622 0.91247 0.0
C2392 C 0.78404 0.7356 0.92842 0.0
H2393 H 0.786 0.79325 0.82516 0.0
H2394 H 0.78385 0.78074 0.85396 0.0
C2395 C 0.78279 0.72754 0.94437 0.0
C2396 C 0.78966 0.7342 0.89508 0.0
H2397 H 0.80806 0.7722 0.87658 0.0
C2398 C 0.77968 0.72337 0.87893 0.0
C2399 C 0.80001 0.75209 0.89417 0.0
C2400 C 0.8115 0.76428 0.91077 0.0
C2401 C 0.77964 0.72988 0.86205 0.0
C2402 C 0.79018 0.74763 0.86107 0.0
C2403 C 0.80002 0.75858 0.87725 0.0
C2404 C 0.79119 0.75504 0.84343 0.0
C2405 C 0.76794 0.71781 0.84552 0.0
C2406 C 0.79612 0.74487 0.82786 0.0
C2407 C 0.79703 0.75188 0.81134 0.0
C2408 C 0.79334 0.7693 0.81019 0.0
C2409 C 0.78867 0.77963 0.82573 0.0
C2410 C 0.78756 0.77255 0.84218 0.0
H2411 H 0.75703 0.70771 0.84966 0.0
H2412 H 0.7623 0.72641 0.8367 0.0
H2413 H 0.77572 0.70965 0.8372 0.0
H2414 H 0.79951 0.73162 0.82855 0.0
H2415 H 0.801 0.74389 0.79959 0.0
H2416 H 0.81809 0.08919 0.03192 0.0
H2417 H 0.84379 0.07952 0.02079 0.0
H2418 H 0.85485 0.12761 0.99394 0.0
H2419 H 0.82981 0.13768 0.00531 0.0
H2420 H 0.84911 0.07176 0.98337 0.0
H2421 H 0.90159 0.1301 0.02328 0.0
H2422 H 0.87943 0.12537 0.02903 0.0
H2423 H 0.88471 0.13694 0.00994 0.0
C2424 C 0.82619 0.09782 0.02391 0.0
C2425 C 0.82202 0.11419 0.01958 0.0
C2426 C 0.84074 0.09227 0.01752 0.0
C2427 C 0.85114 0.10303 0.00676 0.0
C2428 C 0.8471 0.1194 1.00254 0.0
H2429 H 0.94812 0.07728 0.97052 0.0
H2430 H 0.92239 0.09132 0.96932 0.0
C2431 C 0.83275 0.12505 0.00905 0.0
C2432 C 0.86595 0.0968 0.99939 0.0
H2433 H 0.91043 0.10749 1.00269 0.0
C2434 C 0.86252 0.07962 0.98742 0.0
C2435 C 0.8833 0.10741 0.00447 0.0
C2436 C 0.88756 0.12592 0.01748 0.0
C2437 C 0.87622 0.0722 0.98113 0.0
C2438 C 0.89359 0.08222 0.98717 0.0
C2439 C 0.89699 0.1 0.99806 0.0
C2440 C 0.90813 0.07297 0.98579 0.0
C2441 C 0.87205 0.05331 0.96883 0.0
C2442 C 0.90844 0.0584 0.99566 0.0
C2443 C 0.92295 0.05071 0.99655 0.0
C2444 C 0.93728 0.05754 0.98758 0.0
C2445 C 0.937 0.07194 0.97744 0.0
C2446 C 0.92243 0.07981 0.97669 0.0
H2447 H 0.85897 0.05046 0.96069 0.0
H2448 H 0.88208 0.05227 0.95925 0.0
H2449 H 0.87186 0.04232 0.97746 0.0
H2450 H 0.89766 0.05336 1.00317 0.0
H2451 H 0.92313 0.0396 0.00443 0.0
H2452 H 0.36481 0.41972 0.04957 0.0
H2453 H 0.39604 0.43474 0.0497 0.0
H2454 H 0.38435 0.44829 0.99619 0.0
H2455 H 0.35355 0.43394 0.99615 0.0
H2456 H 0.42236 0.43054 0.02549 0.0
H2457 H 0.40596 0.49954 0.02688 0.0
H2458 H 0.39065 0.47949 0.03157 0.0
H2459 H 0.39381 0.48207 0.00822 0.0
C2460 C 0.36896 0.42579 0.03781 0.0
C2461 C 0.35654 0.42597 0.02305 0.0
C2462 C 0.38683 0.43438 0.03788 0.0
C2463 C 0.39257 0.44318 0.02315 0.0
C2464 C 0.3803 0.44219 0.00797 0.0
H2465 H 0.49102 0.5055 0.99339 0.0
H2466 H 0.46195 0.48488 0.99307 0.0
C2467 C 0.3626 0.43389 0.00798 0.0
C2468 C 0.41104 0.45421 0.02372 0.0
H2469 H 0.43482 0.49785 0.02083 0.0
C2470 C 0.42507 0.44528 0.02464 0.0
C2471 C 0.41475 0.47351 0.02255 0.0
C2472 C 0.40053 0.48429 0.02242 0.0
C2473 C 0.4425 0.45503 0.02404 0.0
C2474 C 0.44606 0.47419 0.02258 0.0
C2475 C 0.4321 0.48313 0.02179 0.0
C2476 C 0.46425 0.48544 0.02248 0.0
C2477 C 0.45706 0.44481 0.02471 0.0
C2478 C 0.47527 0.49265 0.03907 0.0
C2479 C 0.49171 0.5047 0.03931 0.0
C2480 C 0.49768 0.50956 0.02293 0.0
C2481 C 0.48689 0.50185 0.00622 0.0
C2482 C 0.47026 0.49011 0.00603 0.0
H2483 H 0.45206 0.42955 0.02403 0.0
H2484 H 0.46489 0.4471 0.01311 0.0
H2485 H 0.46597 0.4505 0.03768 0.0
H2486 H 0.47093 0.48935 0.05194 0.0
H2487 H 0.49972 0.51041 0.05238 0.0
H2488 H 0.36763 0.59712 0.74344 0.0
H2489 H 0.35366 0.62381 0.74544 0.0
H2490 H 0.40053 0.65927 0.77672 0.0
H2491 H 0.41465 0.63276 0.77416 0.0
H2492 H 0.34256 0.646 0.76913 0.0
H2493 H 0.39521 0.69577 0.74573 0.0
H2494 H 0.39576 0.67155 0.74468 0.0
H2495 H 0.40242 0.68784 0.76605 0.0
C2496 C 0.37515 0.61059 0.75065 0.0
C2497 C 0.39265 0.61222 0.7584 0.0
C2498 C 0.36699 0.62617 0.75186 0.0
C2499 C 0.37576 0.6445 0.76084 0.0
C2500 C 0.39314 0.646 0.76898 0.0
H2501 H 0.34535 0.75713 0.77604 0.0
H2502 H 0.36033 0.73128 0.77642 0.0
C2503 C 0.40134 0.63044 0.76768 0.0
C2504 C 0.36661 0.66146 0.76191 0.0
H2505 H 0.37194 0.7079 0.75664 0.0
C2506 C 0.34915 0.65942 0.76623 0.0
C2507 C 0.37462 0.6797 0.75859 0.0
C2508 C 0.39297 0.68387 0.75335 0.0
C2509 C 0.33998 0.67429 0.76752 0.0
C2510 C 0.34778 0.69237 0.76363 0.0
C2511 C 0.36534 0.69449 0.75955 0.0
C2512 C 0.33819 0.70894 0.76363 0.0
C2513 C 0.3221 0.67038 0.77398 0.0
C2514 C 0.32043 0.70623 0.75613 0.0
C2515 C 0.31164 0.72121 0.75627 0.0
C2516 C 0.32009 0.74012 0.7634 0.0
C2517 C 0.33799 0.74306 0.77044 0.0
C2518 C 0.34673 0.72796 0.77059 0.0
H2519 H 0.32082 0.65945 0.7828 0.0
H2520 H 0.31935 0.68311 0.78197 0.0
H2521 H 0.31202 0.66504 0.76187 0.0
H2522 H 0.31315 0.6924 0.74971 0.0
H2523 H 0.29806 0.71786 0.75038 0.0
H2524 H 0.22712 0.62056 0.47919 0.0
H2525 H 0.19616 0.60446 0.477 0.0
H2526 H 0.19674 0.62314 0.53532 0.0
H2527 H 0.22715 0.6401 0.53718 0.0
H2528 H 0.18611 0.5763 0.49473 0.0
H2529 H 0.15096 0.63156 0.51597 0.0
H2530 H 0.17279 0.63684 0.50936 0.0
H2531 H 0.16942 0.63306 0.53241 0.0
C2532 C 0.2203 0.62159 0.4913 0.0
C2533 C 0.22901 0.63146 0.50828 0.0
C2534 C 0.20281 0.61249 0.49007 0.0
C2535 C 0.19428 0.61295 0.50595 0.0
C2536 C 0.203 0.62322 0.52284 0.0
H2537 H 0.09973 0.55768 0.53943 0.0
H2538 H 0.13106 0.5686 0.53857 0.0
C2539 C 0.22029 0.63274 0.52393 0.0
C2540 C 0.17709 0.6008 0.50554 0.0
H2541 H 0.13694 0.60039 0.51908 0.0
C2542 C 0.17524 0.58152 0.49981 0.0
C2543 C 0.16315 0.60783 0.5123 0.0
C2544 C 0.16414 0.62848 0.51767 0.0
C2545 C 0.15971 0.56892 0.50111 0.0
C2546 C 0.14607 0.57598 0.5084 0.0
C2547 C 0.14781 0.59521 0.51391 0.0
C2548 C 0.12903 0.56411 0.50884 0.0
C2549 C 0.15796 0.54826 0.4949 0.0
C2550 C 0.11798 0.55763 0.49232 0.0
C2551 C 0.10015 0.55167 0.49272 0.0
C2552 C 0.09334 0.55227 0.50965 0.0
C2553 C 0.10466 0.5574 0.52618 0.0
C2554 C 0.12251 0.56334 0.52576 0.0
H2555 H 0.17084 0.54485 0.49304 0.0
H2556 H 0.15166 0.5402 0.50499 0.0
H2557 H 0.14948 0.54367 0.48154 0.0
H2558 H 0.12296 0.55854 0.4792 0.0
H2559 H 0.09169 0.5474 0.4798 0.0
H2560 H 0.71182 1.00434 0.73714 0.0
H2561 H 0.72658 0.9818 0.74887 0.0
H2562 H 0.68349 0.96505 0.77981 0.0
H2563 H 0.66839 0.98666 0.76749 0.0
H2564 H 0.73696 0.97985 0.78458 0.0
H2565 H 0.68719 0.91589 0.75113 0.0
H2566 H 0.68757 0.93851 0.74499 0.0
H2567 H 0.67842 0.93257 0.76536 0.0
C2568 C 0.70552 0.99564 0.74628 0.0
C2569 C 0.68897 0.99682 0.75125 0.0
C2570 C 0.7139 0.98294 0.75298 0.0
C2571 C 0.70585 0.97169 0.76488 0.0
C2572 C 0.68956 0.97329 0.77022 0.0
H2573 H 0.7439 0.88287 0.80808 0.0
H2574 H 0.72865 0.9085 0.8075 0.0
C2575 C 0.68102 0.9856 0.7632 0.0
C2576 C 0.71449 0.95825 0.7718 0.0
H2577 H 0.71011 0.91176 0.77155 0.0
C2578 C 0.73109 0.96497 0.78187 0.0
C2579 C 0.70656 0.93894 0.76821 0.0
C2580 C 0.68903 0.93101 0.75669 0.0
C2581 C 0.74034 0.95264 0.78805 0.0
C2582 C 0.7326 0.93337 0.78407 0.0
C2583 C 0.7157 0.9267 0.77474 0.0
C2584 C 0.74286 0.91968 0.78636 0.0
C2585 C 0.75854 0.96014 0.79813 0.0
C2586 C 0.7555 0.91774 0.77445 0.0
C2587 C 0.76382 0.90316 0.77453 0.0
C2588 C 0.75958 0.89053 0.78656 0.0
C2589 C 0.74722 0.89266 0.79878 0.0
C2590 C 0.73868 0.90719 0.79854 0.0
H2591 H 0.76073 0.97515 0.80428 0.0
H2592 H 0.76093 0.95208 0.80916 0.0
H2593 H 0.76826 0.95874 0.78828 0.0
H2594 H 0.75847 0.92714 0.76471 0.0
H2595 H 0.77346 0.90162 0.76512 0.0
H2596 H 0.76355 0.9374 0.5389 0.0
H2597 H 0.73837 0.95018 0.53065 0.0
H2598 H 0.71112 0.89612 0.50021 0.0
H2599 H 0.73596 0.88311 0.50906 0.0
H2600 H 0.72325 0.95371 0.49837 0.0
H2601 H 0.67413 0.90738 0.53067 0.0
H2602 H 0.69721 0.90815 0.53443 0.0
H2603 H 0.68428 0.89518 0.51346 0.0
C2604 C 0.7521 0.92818 0.53064 0.0
C2605 C 0.7517 0.90918 0.52489 0.0
C2606 C 0.73773 0.93552 0.52583 0.0
C2607 C 0.72263 0.92408 0.51506 0.0
C2608 C 0.72233 0.90516 0.50899 0.0
H2609 H 0.62541 0.95967 0.48282 0.0
H2610 H 0.64862 0.94208 0.48159 0.0
C2611 C 0.73662 0.89774 0.51401 0.0
C2612 C 0.70739 0.93216 0.51021 0.0
H2613 H 0.66399 0.92894 0.51484 0.0
C2614 C 0.71029 0.9482 0.50193 0.0
C2615 C 0.69033 0.9249 0.51457 0.0
C2616 C 0.68628 0.90806 0.52391 0.0
C2617 C 0.69686 0.95747 0.49851 0.0
C2618 C 0.68009 0.95063 0.50358 0.0
C2619 C 0.67689 0.93413 0.51099 0.0
C2620 C 0.66634 0.96153 0.50329 0.0
C2621 C 0.70073 0.97472 0.48978 0.0
C2622 C 0.66859 0.97818 0.51593 0.0
C2623 C 0.65535 0.98803 0.51684 0.0
C2624 C 0.63957 0.98152 0.50504 0.0
C2625 C 0.63743 0.96501 0.49209 0.0
C2626 C 0.65065 0.95497 0.49137 0.0
H2627 H 0.71277 0.97568 0.4828 0.0
H2628 H 0.68958 0.97485 0.47962 0.0
H2629 H 0.70267 0.9873 0.5006 0.0
H2630 H 0.68053 0.9834 0.52535 0.0
H2631 H 0.65749 1.00083 0.52676 0.0
H2632 H 0.38639 0.49899 0.78184 0.0
H2633 H 0.37032 0.46738 0.7846 0.0
H2634 H 0.37523 0.44793 0.72786 0.0
H2635 H 0.39225 0.47892 0.72563 0.0
H2636 H 0.34263 0.44285 0.77389 0.0
H2637 H 0.39088 0.40708 0.74457 0.0
H2638 H 0.39497 0.43217 0.74932 0.0
H2639 H 0.38275 0.41913 0.72785 0.0
C2640 C 0.38387 0.48803 0.76986 0.0
C2641 C 0.39063 0.49194 0.75339 0.0
C2642 C 0.37468 0.46966 0.77147 0.0
C2643 C 0.37172 0.45433 0.75667 0.0
C2644 C 0.37774 0.45866 0.73999 0.0
H2645 H 0.30654 0.33878 0.73054 0.0
H2646 H 0.3241 0.3705 0.73133 0.0
C2647 C 0.38728 0.47679 0.73854 0.0
C2648 C 0.36238 0.43414 0.75848 0.0
H2649 H 0.36264 0.38747 0.74553 0.0
C2650 C 0.34728 0.4309 0.76779 0.0
C2651 C 0.36811 0.41783 0.75102 0.0
C2652 C 0.38517 0.41924 0.74285 0.0
C2653 C 0.33774 0.41253 0.76909 0.0
C2654 C 0.34297 0.39636 0.76073 0.0
C2655 C 0.35819 0.39953 0.75178 0.0
C2656 C 0.33256 0.37622 0.76055 0.0
C2657 C 0.32174 0.41048 0.77912 0.0
C2658 C 0.33143 0.36795 0.77658 0.0
C2659 C 0.32161 0.3493 0.77606 0.0
C2660 C 0.31222 0.33827 0.75952 0.0
C2661 C 0.31351 0.34656 0.74357 0.0
C2662 C 0.32361 0.36493 0.74401 0.0
H2663 H 0.31788 0.42397 0.7828 0.0
H2664 H 0.31056 0.40021 0.77057 0.0
H2665 H 0.32446 0.40508 0.79198 0.0
H2666 H 0.33816 0.37593 0.78962 0.0
H2667 H 0.32094 0.34375 0.78874 0.0
H2668 H 0.17297 0.60258 0.28069 0.0
H2669 H 0.19406 0.63287 0.2897 0.0
H2670 H 0.1961 0.63698 0.23229 0.0
H2671 H 0.17464 0.60729 0.22346 0.0
H2672 H 0.22666 0.63604 0.27962 0.0
H2673 H 0.19722 0.68996 0.25441 0.0
H2674 H 0.18411 0.66808 0.25825 0.0
H2675 H 0.19347 0.66957 0.23697 0.0
C2676 C 0.17744 0.61052 0.27017 0.0
C2677 C 0.17226 0.60315 0.25148 0.0
C2678 C 0.18941 0.62763 0.27527 0.0
C2679 C 0.19633 0.63716 0.26165 0.0
C2680 C 0.19041 0.6301 0.24299 0.0
H2681 H 0.27362 0.71773 0.23488 0.0
H2682 H 0.25771 0.68624 0.23647 0.0
C2683 C 0.17826 0.6132 0.23793 0.0
C2684 C 0.21174 0.65263 0.26633 0.0
H2685 H 0.22873 0.69455 0.25466 0.0
C2686 C 0.22714 0.64905 0.27453 0.0
C2687 C 0.21213 0.66952 0.25982 0.0
C2688 C 0.19577 0.67457 0.25206 0.0
C2689 C 0.24332 0.66141 0.27497 0.0
C2690 C 0.24379 0.67743 0.26694 0.0
C2691 C 0.22824 0.68169 0.26007 0.0
C2692 C 0.26002 0.69091 0.26624 0.0
C2693 C 0.25977 0.65704 0.28332 0.0
C2694 C 0.26798 0.70293 0.28251 0.0
C2695 C 0.27714 0.72082 0.28164 0.0
C2696 C 0.27793 0.72671 0.26454 0.0
C2697 C 0.2727 0.71361 0.24825 0.0
C2698 C 0.26377 0.69559 0.24913 0.0
H2699 H 0.25761 0.64226 0.28534 0.0
H2700 H 0.27046 0.6599 0.27454 0.0
H2701 H 0.26415 0.66616 0.29695 0.0
H2702 H 0.2652 0.69946 0.29581 0.0
H2703 H 0.28188 0.73056 0.29437 0.0
H2704 H 0.49715 0.69263 0.41698 0.0
H2705 H 0.50239 0.66695 0.43215 0.0
H2706 H 0.53553 0.70667 0.47635 0.0
H2707 H 0.52956 0.73236 0.46172 0.0
H2708 H 0.53037 0.65551 0.43905 0.0
H2709 H 0.50828 0.67524 0.5069 0.0
H2710 H 0.50451 0.68701 0.48791 0.0
H2711 H 0.52549 0.69307 0.5018 0.0
C2712 C 0.50528 0.69591 0.43011 0.0
C2713 C 0.51271 0.71462 0.4382 0.0
C2714 C 0.50837 0.68118 0.43877 0.0
C2715 C 0.51914 0.68468 0.45568 0.0
C2716 C 0.52669 0.7034 0.46371 0.0
H2717 H 0.5598 0.60475 0.51443 0.0
H2718 H 0.55634 0.63322 0.5029 0.0
C2719 C 0.52334 0.71816 0.45522 0.0
C2720 C 0.52303 0.66871 0.46427 0.0
H2721 H 0.52285 0.65027 0.50403 0.0
C2722 C 0.52861 0.65442 0.45325 0.0
C2723 C 0.52098 0.66715 0.48291 0.0
C2724 C 0.51433 0.68134 0.49551 0.0
C2725 C 0.53195 0.63874 0.46017 0.0
C2726 C 0.52971 0.63716 0.47864 0.0
C2727 C 0.52458 0.65154 0.48986 0.0
C2728 C 0.5317 0.62014 0.48615 0.0
C2729 C 0.53784 0.62385 0.44769 0.0
C2730 C 0.5189 0.60341 0.48077 0.0
C2731 C 0.52071 0.58722 0.48748 0.0
C2732 C 0.53549 0.58731 0.49961 0.0
C2733 C 0.54828 0.60415 0.50508 0.0
C2734 C 0.54632 0.62045 0.49853 0.0
H2735 H 0.54183 0.62854 0.43481 0.0
H2736 H 0.549 0.61975 0.45487 0.0
H2737 H 0.52693 0.61124 0.44396 0.0
H2738 H 0.50749 0.60287 0.47129 0.0
H2739 H 0.51064 0.57452 0.4829 0.0
H2740 H 0.63713 0.30029 0.62332 0.0
H2741 H 0.66259 0.29406 0.64065 0.0
H2742 H 0.64124 0.30778 0.69136 0.0
H2743 H 0.61566 0.31348 0.67415 0.0
H2744 H 0.68799 0.3149 0.66616 0.0
H2745 H 0.65112 0.25865 0.69813 0.0
H2746 H 0.64109 0.26763 0.67972 0.0
H2747 H 0.64344 0.27966 0.70315 0.0
C2748 C 0.63785 0.30199 0.63817 0.0
C2749 C 0.62421 0.30734 0.64728 0.0
C2750 C 0.65246 0.29839 0.6481 0.0
C2751 C 0.65381 0.29997 0.66741 0.0
C2752 C 0.64041 0.30582 0.6765 0.0
H2753 H 0.73088 0.30515 0.75805 0.0
H2754 H 0.70567 0.305 0.73644 0.0
C2755 C 0.62579 0.3093 0.6666 0.0
C2756 C 0.66932 0.29597 0.6781 0.0
H2757 H 0.68072 0.27231 0.71182 0.0
C2758 C 0.68636 0.30536 0.67592 0.0
C2759 C 0.66742 0.28339 0.69084 0.0
C2760 C 0.6498 0.27161 0.69297 0.0
C2761 C 0.70129 0.30321 0.68662 0.0
C2762 C 0.69928 0.29129 0.69988 0.0
C2763 C 0.68233 0.2815 0.70172 0.0
C2764 C 0.71444 0.29008 0.71298 0.0
C2765 C 0.71912 0.31428 0.68422 0.0
C2766 C 0.72776 0.28132 0.70719 0.0
C2767 C 0.74222 0.28109 0.71973 0.0
C2768 C 0.74377 0.28991 0.7382 0.0
C2769 C 0.73025 0.29834 0.74392 0.0
C2770 C 0.71574 0.29825 0.73156 0.0
H2771 H 0.71837 0.32452 0.6749 0.0
H2772 H 0.72615 0.32188 0.69777 0.0
H2773 H 0.72698 0.30457 0.67838 0.0
H2774 H 0.72703 0.27478 0.69296 0.0
H2775 H 0.75236 0.27445 0.71488 0.0
H2776 H 0.04645 0.33807 0.9279 0.0
H2777 H 0.04775 0.36866 0.9461 0.0
H2778 H 1.00051 0.34588 0.96847 0.0
H2779 H 0.99954 0.31492 0.9507 0.0
H2780 H 0.02263 0.38697 0.93989 0.0
H2781 H 0.0297 0.3797 0.01355 0.0
H2782 H 0.03398 0.36263 0.99546 0.0
H2783 H 0.01185 0.36283 0.99963 0.0
C2784 C 0.03658 0.33949 0.93705 0.0
C2785 C 0.0228 0.32424 0.93781 0.0
C2786 C 0.03734 0.35695 0.94743 0.0
C2787 C 0.02422 0.35956 0.9586 0.0
C2788 C 0.01093 0.34411 0.96017 0.0
H2789 H 1.00181 0.46806 1.00068 0.0
H2790 H 0.99788 0.4344 0.98957 0.0
C2791 C 0.01034 0.32647 0.94998 0.0
C2792 C 0.02343 0.37878 0.96662 0.0
H2793 H 0.024 0.40824 0.00694 0.0
C2794 C 0.02287 0.39157 0.95456 0.0
C2795 C 0.02371 0.38474 0.98575 0.0
C2796 C 0.025 0.37182 0.99939 0.0
C2797 C 0.02289 0.41022 0.96112 0.0
C2798 C 0.02328 0.41614 0.98018 0.0
C2799 C 0.02345 0.4034 0.99228 0.0
C2800 C 0.02542 0.436 0.98782 0.0
C2801 C 0.023 0.42367 0.94776 0.0
C2802 C 0.04219 0.44771 0.99054 0.0
C2803 C 0.04449 0.46674 0.99688 0.0
C2804 C 0.03002 0.47442 1.00052 0.0
C2805 C 0.01319 0.46255 0.99799 0.0
C2806 C 0.01092 0.44338 0.9917 0.0
H2807 H 0.02057 0.41642 0.9332 0.0
H2808 H 0.01291 0.43185 0.95032 0.0
H2809 H 0.03594 0.43372 0.94988 0.0
H2810 H 0.05347 0.44214 0.98749 0.0
H2811 H 0.05764 0.47544 0.99857 0.0
H2812 H 0.01891 0.75882 0.15148 0.0
H2813 H 0.98932 0.75413 0.16011 0.0
H2814 H 0.98654 0.8089 0.1494 0.0
H2815 H 0.0162 0.81342 0.14004 0.0
H2816 H 0.97983 0.77284 0.18855 0.0
H2817 H 0.93845 0.77959 0.12697 0.0
H2818 H 0.96056 0.77665 0.12616 0.0
H2819 H 0.9566 0.79935 0.13395 0.0
C2820 C 0.01197 0.76984 0.15075 0.0
C2821 C 0.02006 0.78664 0.14532 0.0
C2822 C 0.99497 0.7671 0.15565 0.0
C2823 C 0.98555 0.7811 0.15544 0.0
C2824 C 0.99333 0.79769 0.14939 0.0
H2825 H 0.89713 0.80361 0.2096 0.0
H2826 H 0.92229 0.80425 0.19219 0.0
C2827 C 0.01036 0.80035 0.14418 0.0
C2828 C 0.96847 0.77891 0.16333 0.0
H2829 H 0.92564 0.78143 0.15527 0.0
C2830 C 0.96797 0.77456 0.18114 0.0
C2831 C 0.95286 0.78097 0.15371 0.0
C2832 C 0.95205 0.78419 0.13407 0.0
C2833 C 0.95259 0.77276 0.18975 0.0
C2834 C 0.93719 0.77546 0.1804 0.0
C2835 C 0.93752 0.77954 0.1625 0.0
C2836 C 0.92084 0.77459 0.18933 0.0
C2837 C 0.95301 0.76835 0.209 0.0
C2838 C 0.91137 0.75762 0.19313 0.0
C2839 C 0.89683 0.75715 0.20292 0.0
C2840 C 0.89146 0.77368 0.20926 0.0
C2841 C 0.90067 0.79056 0.20484 0.0
C2842 C 0.91515 0.79099 0.19494 0.0
H2843 H 0.96657 0.76959 0.21542 0.0
H2844 H 0.94677 0.77784 0.21788 0.0
H2845 H 0.94549 0.75382 0.20852 0.0
H2846 H 0.9154 0.74475 0.18876 0.0
H2847 H 0.8899 0.7438 0.20565 0.0
H2848 H 0.48544 0.31847 0.12095 0.0
H2849 H 0.49957 0.34665 0.10958 0.0
H2850 H 0.541 0.32015 0.09337 0.0
H2851 H 0.52626 0.29169 0.10332 0.0
H2852 H 0.53055 0.36996 0.11939 0.0
H2853 H 0.52762 0.33582 0.04662 0.0
H2854 H 0.51631 0.32402 0.06318 0.0
H2855 H 0.53943 0.3258 0.06263 0.0
C2856 C 0.49728 0.31859 0.11444 0.0
C2857 C 0.50444 0.30281 0.11227 0.0
C2858 C 0.50545 0.33468 0.1082 0.0
C2859 C 0.5211 0.33527 0.10022 0.0
C2860 C 0.52858 0.31971 0.09876 0.0
H2861 H 0.57383 0.42591 0.04683 0.0
H2862 H 0.57128 0.40039 0.06473 0.0
C2863 C 0.52012 0.30347 0.10439 0.0
C2864 C 0.52949 0.35212 0.09326 0.0
H2865 H 0.54206 0.36755 0.05429 0.0
C2866 C 0.53317 0.36942 0.10519 0.0
C2867 C 0.53308 0.35131 0.07476 0.0
C2868 C 0.52877 0.33327 0.06102 0.0
C2869 C 0.53967 0.38605 0.09887 0.0
C2870 C 0.54259 0.38522 0.08026 0.0
C2871 C 0.53991 0.36794 0.06862 0.0
C2872 C 0.54546 0.402 0.07177 0.0
C2873 C 0.5428 0.40444 0.11187 0.0
C2874 C 0.53172 0.41103 0.06985 0.0
C2875 C 0.53302 0.42528 0.05958 0.0
C2876 C 0.54812 0.43073 0.05103 0.0
C2877 C 0.56206 0.4219 0.05327 0.0
C2878 C 0.56069 0.40751 0.06355 0.0
H2879 H 0.54446 0.4026 0.12648 0.0
H2880 H 0.55458 0.41438 0.10909 0.0
H2881 H 0.53137 0.41074 0.10985 0.0
H2882 H 0.51965 0.40648 0.07564 0.0
H2883 H 0.52189 0.43149 0.05768 0.0
H2884 H 0.04109 0.34312 0.33786 0.0
H2885 H 0.01008 0.33628 0.32614 0.0
H2886 H 1.00158 0.28437 0.34699 0.0
H2887 H 0.03263 0.29128 0.35914 0.0
H2888 H 0.997 0.30183 0.29967 0.0
H2889 H 0.95887 0.30786 0.35967 0.0
H2890 H 0.98138 0.32044 0.36083 0.0
H2891 H 0.97636 0.29577 0.3608 0.0
C2892 C 0.03256 0.33037 0.34014 0.0
C2893 C 0.03918 0.31753 0.34903 0.0
C2894 C 0.01491 0.32658 0.33361 0.0
C2895 C 0.00375 0.30986 0.33577 0.0
C2896 C 0.01008 0.29744 0.34547 0.0
H2897 H 0.89424 0.27394 0.28942 0.0
H2898 H 0.92323 0.27105 0.30171 0.0
C2899 C 0.02776 0.30134 0.35224 0.0
C2900 C 0.98624 0.30438 0.32553 0.0
H2901 H 0.94297 0.29935 0.33012 0.0
C2902 C 0.98513 0.30107 0.30628 0.0
C2903 C 0.97098 0.30329 0.33436 0.0
C2904 C 0.97181 0.30709 0.35506 0.0
C2905 C 0.96901 0.2973 0.29547 0.0
C2906 C 0.95376 0.29699 0.30425 0.0
C2907 C 0.95479 0.29947 0.32353 0.0
C2908 C 0.93699 0.29661 0.29392 0.0
C2909 C 0.96848 0.29422 0.27479 0.0
C2910 C 0.93543 0.31167 0.28511 0.0
C2911 C 0.91903 0.31338 0.27818 0.0
C2912 C 0.904 0.30014 0.28017 0.0
C2913 C 0.9057 0.2844 0.28792 0.0
C2914 C 0.92215 0.28271 0.29487 0.0
H2915 H 0.97993 0.28899 0.27032 0.0
H2916 H 0.95628 0.28413 0.26804 0.0
H2917 H 0.96891 0.30772 0.26998 0.0
H2918 H 0.94677 0.32272 0.28464 0.0
H2919 H 0.91804 0.32577 0.27252 0.0
H2920 H 0.02534 0.71267 0.62131 0.0
H2921 H 0.03118 0.68557 0.6019 0.0
H2922 H 0.97652 0.65762 0.59707 0.0
H2923 H 0.97058 0.68519 0.61632 0.0
H2924 H 0.02439 0.6495 0.61136 0.0
H2925 H 0.98944 0.65245 0.54355 0.0
H2926 H 0.99494 0.67221 0.56216 0.0
H2927 H 0.97715 0.65284 0.56297 0.0
C2928 C 0.01459 0.70081 0.61579 0.0
C2929 C 0.99758 0.70069 0.61996 0.0
C2930 C 0.0179 0.68544 0.60487 0.0
C2931 C 0.00424 0.66982 0.59817 0.0
C2932 C 0.9871 0.66978 0.60205 0.0
H2933 H 0.01666 0.56355 0.54473 0.0
H2934 H 0.00813 0.58816 0.56497 0.0
C2935 C 0.98373 0.68535 0.61293 0.0
C2936 C 0.00842 0.65339 0.5878 0.0
H2937 H 0.00464 0.62847 0.54461 0.0
C2938 C 0.01999 0.64474 0.5968 0.0
C2939 C 1.00261 0.64752 0.56887 0.0
C2940 C 0.99043 0.65676 0.55871 0.0
C2941 C 0.0263 0.63049 0.5871 0.0
C2942 C 0.0208 0.62497 0.56814 0.0
C2943 C 0.00886 0.63316 0.55921 0.0
C2944 C 0.02714 0.61041 0.55729 0.0
C2945 C 0.03907 0.62165 0.5969 0.0
C2946 C 0.04074 0.61514 0.54659 0.0
C2947 C 0.04558 0.60115 0.53483 0.0
C2948 C 0.03686 0.58251 0.53395 0.0
C2949 C 0.02368 0.57787 0.54528 0.0
C2950 C 0.01875 0.59181 0.5568 0.0
H2951 H 0.04241 0.62797 0.61171 0.0
H2952 H 0.03339 0.60645 0.59577 0.0
H2953 H 0.05129 0.62318 0.59022 0.0
H2954 H 0.04723 0.62963 0.54704 0.0
H2955 H 0.05579 0.60487 0.52621 0.0
H2956 H 0.6328 0.83705 0.84745 0.0
H2957 H 0.65437 0.83358 0.8259 0.0
H2958 H 0.66483 0.78652 0.8488 0.0
H2959 H 0.64348 0.7902 0.87072 0.0
H2960 H 0.69415 0.82662 0.8374 0.0
H2961 H 0.64393 0.77396 0.7877 0.0
H2962 H 0.63822 0.79213 0.80352 0.0
H2963 H 0.64447 0.77283 0.8119 0.0
C2964 C 0.64009 0.82632 0.84816 0.0
C2965 C 0.63682 0.81398 0.86069 0.0
C2966 C 0.65223 0.8243 0.83586 0.0
C2967 C 0.66085 0.80972 0.83584 0.0
C2968 C 0.65815 0.79784 0.84882 0.0
H2969 H 0.72894 0.75924 0.77607 0.0
H2970 H 0.70378 0.76608 0.79046 0.0
C2971 C 0.6462 0.80005 0.86136 0.0
C2972 C 0.6722 0.80644 0.82172 0.0
H2973 H 0.67312 0.7792 0.78065 0.0
C2974 C 0.68963 0.81644 0.82487 0.0
C2975 C 0.66593 0.79315 0.80555 0.0
C2976 C 0.64709 0.78238 0.80179 0.0
C2977 C 0.70135 0.81295 0.81238 0.0
C2978 C 0.69518 0.79941 0.79626 0.0
C2979 C 0.67761 0.78971 0.79295 0.0
C2980 C 0.70732 0.79388 0.78378 0.0
C2981 C 0.72038 0.8231 0.81694 0.0
C2982 C 0.71683 0.80692 0.77444 0.0
C2983 C 0.73135 0.80319 0.76644 0.0
C2984 C 0.73621 0.78627 0.76754 0.0
C2985 C 0.72547 0.77242 0.7751 0.0
C2986 C 0.71111 0.77628 0.78331 0.0
H2987 H 0.72341 0.83062 0.8314 0.0
H2988 H 0.72902 0.81316 0.81473 0.0
H2989 H 0.72355 0.83353 0.80776 0.0
H2990 H 0.71377 0.82045 0.77448 0.0
H2991 H 0.73934 0.81394 0.76042 0.0
H2992 H 0.42832 0.53707 0.68294 0.0
H2993 H 0.44395 0.53441 0.65575 0.0
H2994 H 0.48907 0.57404 0.68617 0.0
H2995 H 0.4739 0.57529 0.71372 0.0
H2996 H 0.45466 0.5502 0.63198 0.0
H2997 H 0.5189 0.54576 0.66428 0.0
H2998 H 0.50044 0.54481 0.67715 0.0
H2999 H 0.51354 0.56703 0.67405 0.0
C3000 C 0.44169 0.54509 0.68402 0.0
C3001 C 0.4496 0.5563 0.70109 0.0
C3002 C 0.45081 0.54362 0.66813 0.0
C3003 C 0.46838 0.55355 0.66809 0.0
C3004 C 0.47608 0.56523 0.68514 0.0
H3005 H 0.53752 0.57304 0.57871 0.0
H3006 H 0.52323 0.57378 0.60688 0.0
C3007 C 0.46712 0.56625 0.7012 0.0
C3008 C 0.47796 0.55207 0.65028 0.0
H3009 H 0.51787 0.55149 0.63361 0.0
C3010 C 0.46846 0.55023 0.63266 0.0
C3011 C 0.49621 0.55212 0.65004 0.0
C3012 C 0.50782 0.55234 0.66736 0.0
C3013 C 0.47621 0.54879 0.61576 0.0
C3014 C 0.49438 0.54918 0.61562 0.0
C3015 C 0.504 0.55116 0.63313 0.0
C3016 C 0.5036 0.54808 0.59774 0.0
C3017 C 0.46473 0.54737 0.59804 0.0
C3018 C 0.49808 0.53321 0.58244 0.0
C3019 C 0.50657 0.53261 0.56601 0.0
C3020 C 0.52094 0.54696 0.5639 0.0
C3021 C 0.52651 0.56166 0.57928 0.0
C3022 C 0.51824 0.5621 0.59572 0.0
H3023 H 0.45246 0.55197 0.60048 0.0
H3024 H 0.47175 0.55593 0.58871 0.0
H3025 H 0.46109 0.53259 0.59096 0.0
H3026 H 0.48719 0.5218 0.5832 0.0
H3027 H 0.50174 0.52089 0.55488 0.0
H3028 H 0.77991 0.20511 0.98979 0.0
H3029 H 0.76686 0.21531 0.96316 0.0
H3030 H 0.76798 0.16332 0.92888 0.0
H3031 H 0.78105 0.15294 0.95531 0.0
H3032 H 0.78283 0.21673 0.92914 0.0
H3033 H 0.71601 0.17008 0.91975 0.0
H3034 H 0.73002 0.17564 0.9414 0.0
H3035 H 0.7343 0.15942 0.92277 0.0
C3036 C 0.77769 0.196 0.97652 0.0
C3037 C 0.78159 0.17832 0.97457 0.0
C3038 C 0.77 0.2017 0.96147 0.0
C3039 C 0.76609 0.18975 0.9444 0.0
C3040 C 0.77055 0.17242 0.94218 0.0
H3041 H 0.74361 0.21119 0.83662 0.0
H3042 H 0.74336 0.19399 0.8623 0.0
C3043 C 0.77832 0.16673 0.95719 0.0
C3044 C 0.75886 0.19622 0.92849 0.0
H3045 H 0.72276 0.18918 0.8972 0.0
C3046 C 0.76969 0.2108 0.92217 0.0
C3047 C 0.74177 0.18815 0.91955 0.0
C3048 C 0.72974 0.17251 0.92622 0.0
C3049 C 0.76391 0.21764 0.90691 0.0
C3050 C 0.74672 0.20982 0.89809 0.0
C3051 C 0.73586 0.19509 0.90426 0.0
C3052 C 0.74026 0.21708 0.88233 0.0
C3053 C 0.77628 0.2331 0.90028 0.0
C3054 C 0.73747 0.23518 0.88518 0.0
C3055 C 0.73804 0.24514 0.87077 0.0
C3056 C 0.74118 0.23693 0.85334 0.0
C3057 C 0.74153 0.2179 0.85003 0.0
C3058 C 0.74118 0.20801 0.86457 0.0
H3059 H 0.79003 0.23493 0.90643 0.0
H3060 H 0.77579 0.23026 0.88507 0.0
H3061 H 0.7723 0.24647 0.90421 0.0
H3062 H 0.73686 0.24228 0.89894 0.0
H3063 H 0.73788 0.2598 0.87383 0.0
H3064 H 0.16341 0.55049 0.1757 0.0
H3065 H 0.14632 0.55788 0.14977 0.0
H3066 H 0.09867 0.53879 0.17308 0.0
H3067 H 0.11524 0.53058 0.19833 0.0
H3068 H 0.1191 0.52306 0.1315 0.0
H3069 H 0.0927 0.58645 0.14943 0.0
H3070 H 0.11354 0.58427 0.16006 0.0
H3071 H 0.09352 0.57186 0.16665 0.0
C3072 C 0.14931 0.54804 0.17532 0.0
C3073 C 0.14059 0.53965 0.18875 0.0
C3074 C 0.1397 0.55263 0.16082 0.0
C3075 C 0.12145 0.54918 0.15999 0.0
C3076 C 0.11284 0.54193 0.17394 0.0
H3077 H 0.03597 0.5109 0.07378 0.0
H3078 H 0.05544 0.51576 0.10269 0.0
C3079 C 0.12233 0.53696 0.18813 0.0
C3080 C 0.11102 0.54799 0.14265 0.0
H3081 H 0.07889 0.56485 0.12239 0.0
C3082 C 0.11051 0.53235 0.12928 0.0
C3083 C 0.09965 0.55993 0.14043 0.0
C3084 C 0.09986 0.57667 0.15484 0.0
C3085 C 0.09851 0.52809 0.11356 0.0
C3086 C 0.08708 0.53995 0.11137 0.0
C3087 C 0.08774 0.5558 0.12454 0.0
C3088 C 0.07537 0.53691 0.09458 0.0
C3089 C 0.09797 0.51098 0.09944 0.0
C3090 C 0.08058 0.54718 0.08094 0.0
C3091 C 0.06967 0.54451 0.06473 0.0
C3092 C 0.05356 0.53143 0.06205 0.0
C3093 C 0.04844 0.52095 0.07567 0.0
C3094 C 0.05938 0.52374 0.09204 0.0
H3095 H 0.108 0.50332 0.10329 0.0
H3096 H 0.08485 0.50135 0.09787 0.0
H3097 H 0.1001 0.51511 0.08586 0.0
H3098 H 0.09303 0.55728 0.08291 0.0
H3099 H 0.07376 0.5529 0.05444 0.0
H3100 H 0.82093 0.85848 0.4749 0.0
H3101 H 0.82204 0.84248 0.44368 0.0
H3102 H 0.76611 0.83508 0.43189 0.0
H3103 H 0.76526 0.85229 0.46267 0.0
H3104 H 0.80885 0.80998 0.42256 0.0
H3105 H 0.78163 0.86335 0.39273 0.0
H3106 H 0.78756 0.86554 0.41712 0.0
H3107 H 0.76685 0.85095 0.40615 0.0
C3108 C 0.80886 0.85306 0.46571 0.0
C3109 C 0.79302 0.85656 0.47102 0.0
C3110 C 0.80949 0.84401 0.44787 0.0
C3111 C 0.79425 0.83811 0.43522 0.0
C3112 C 0.77815 0.84015 0.44115 0.0
H3113 H 0.76954 0.78677 0.32203 0.0
H3114 H 0.77069 0.79664 0.35504 0.0
C3115 C 0.77761 0.8497 0.45879 0.0
C3116 C 0.79539 0.83084 0.41564 0.0
H3117 H 0.78487 0.8372 0.37172 0.0
C3118 C 0.80371 0.81603 0.41147 0.0
C3119 C 0.78886 0.83888 0.40112 0.0
C3120 C 0.7809 0.85567 0.4045 0.0
C3121 C 0.80528 0.80876 0.39318 0.0
C3122 C 0.79833 0.81649 0.3788 0.0
C3123 C 0.79016 0.83134 0.3829 0.0
C3124 C 0.7985 0.80884 0.35925 0.0
C3125 C 0.81396 0.79261 0.38922 0.0
C3126 C 0.8139 0.81224 0.35076 0.0
C3127 C 0.81333 0.80663 0.33172 0.0
C3128 C 0.79731 0.79772 0.32103 0.0
C3129 C 0.78208 0.79382 0.3298 0.0
C3130 C 0.78268 0.79936 0.34869 0.0
H3131 H 0.81727 0.78706 0.40184 0.0
H3132 H 0.80524 0.78116 0.37905 0.0
H3133 H 0.82619 0.79726 0.38307 0.0
H3134 H 0.82621 0.81975 0.35875 0.0
H3135 H 0.82524 0.80985 0.32532 0.0
H3136 H 0.43697 0.53116 0.81798 0.0
H3137 H 0.4506 0.52927 0.84852 0.0
H3138 H 0.49098 0.57784 0.84641 0.0
H3139 H 0.47734 0.57963 0.81577 0.0
H3140 H 0.48397 0.52365 0.85807 0.0
H3141 H 0.47907 0.59088 0.89883 0.0
H3142 H 0.4664 0.5814 0.87666 0.0
H3143 H 0.48916 0.59276 0.8781 0.0
C3144 C 0.44841 0.54187 0.82426 0.0
C3145 C 0.4555 0.55602 0.81446 0.0
C3146 C 0.45641 0.54063 0.84178 0.0
C3147 C 0.4719 0.55351 0.85036 0.0
C3148 C 0.47889 0.56788 0.84069 0.0
H3149 H 0.53592 0.56797 0.95911 0.0
H3150 H 0.52299 0.57118 0.92881 0.0
C3151 C 0.47094 0.569 0.82305 0.0
C3152 C 0.48108 0.55121 0.86872 0.0
H3153 H 0.49524 0.57291 0.91355 0.0
C3154 C 0.48638 0.53447 0.87019 0.0
C3155 C 0.48469 0.56522 0.88479 0.0
C3156 C 0.47945 0.58354 0.88468 0.0
C3157 C 0.49525 0.53152 0.88669 0.0
C3158 C 0.49838 0.54531 0.90305 0.0
C3159 C 0.49307 0.56209 0.90148 0.0
C3160 C 0.5071 0.54286 0.92171 0.0
C3161 C 0.50183 0.51382 0.88586 0.0
C3162 C 0.50295 0.52592 0.92868 0.0
C3163 C 0.51101 0.52388 0.94588 0.0
C3164 C 0.52302 0.53891 0.95737 0.0
C3165 C 0.52684 0.55599 0.95078 0.0
C3166 C 0.51926 0.55784 0.93328 0.0
H3167 H 0.5044 0.50865 0.87169 0.0
H3168 H 0.51409 0.51594 0.89525 0.0
H3169 H 0.49165 0.50273 0.88971 0.0
H3170 H 0.49312 0.5142 0.92105 0.0
H3171 H 0.50732 0.51059 0.95049 0.0
H3172 H 0.80738 0.18333 0.08474 0.0
H3173 H 0.80628 0.20596 0.11213 0.0
H3174 H 0.74985 0.18801 0.10548 0.0
H3175 H 0.75108 0.16453 0.07896 0.0
H3176 H 0.79174 0.23477 0.11551 0.0
H3177 H 0.76022 0.18456 0.15802 0.0
H3178 H 0.76837 0.17703 0.1368 0.0
H3179 H 0.74754 0.18337 0.13645 0.0
C3180 C 0.79484 0.18406 0.08946 0.0
C3181 C 0.77936 0.17206 0.08029 0.0
C3182 C 0.79418 0.19699 0.10492 0.0
C3183 C 0.778 0.19832 0.111 0.0
C3184 C 0.76248 0.18669 0.1014 0.0
H3185 H 0.76035 0.27234 0.2077 0.0
H3186 H 0.75522 0.2523 0.17716 0.0
C3187 C 0.76319 0.17337 0.08632 0.0
C3188 C 0.77747 0.21213 0.12725 0.0
H3189 H 0.76501 0.21664 0.17038 0.0
C3190 C 0.78584 0.23083 0.12748 0.0
C3191 C 0.76963 0.20687 0.14276 0.0
C3192 C 0.76108 0.18684 0.14361 0.0
C3193 C 0.78706 0.24439 0.14308 0.0
C3194 C 0.7796 0.23903 0.15866 0.0
C3195 C 0.77058 0.22055 0.15822 0.0
C3196 C 0.78255 0.25193 0.17619 0.0
C3197 C 0.79664 0.26424 0.14297 0.0
C3198 C 0.79953 0.25801 0.18551 0.0
C3199 C 0.80239 0.26929 0.20273 0.0
C3200 C 0.78827 0.27445 0.21072 0.0
C3201 C 0.7713 0.26847 0.20147 0.0
C3202 C 0.76842 0.25714 0.18419 0.0
H3203 H 0.79743 0.2671 0.12873 0.0
H3204 H 0.79016 0.27438 0.15062 0.0
H3205 H 0.81021 0.26657 0.14981 0.0
H3206 H 0.81048 0.25365 0.17965 0.0
H3207 H 0.81552 0.27362 0.21 0.0
H3208 H 0.13628 0.52568 0.30009 0.0
H3209 H 0.13453 0.53898 0.33232 0.0
H3210 H 0.13422 0.59247 0.31654 0.0
H3211 H 0.13535 0.57912 0.28451 0.0
H3212 H 0.154 0.5752 0.35905 0.0
H3213 H 0.08441 0.56954 0.33194 0.0
H3214 H 0.09844 0.55709 0.31969 0.0
H3215 H 0.10096 0.58169 0.31996 0.0
C3216 C 0.13585 0.54023 0.3037 0.0
C3217 C 0.13506 0.55131 0.29014 0.0
C3218 C 0.1352 0.54787 0.32196 0.0
C3219 C 0.13415 0.56659 0.3265 0.0
C3220 C 0.13495 0.57798 0.31309 0.0
H3221 H 0.07965 0.59598 0.41936 0.0
H3222 H 0.10058 0.60496 0.39775 0.0
C3223 C 0.13526 0.57031 0.29492 0.0
C3224 C 0.12877 0.57317 0.34418 0.0
H3225 H 0.0924 0.57959 0.36347 0.0
C3226 C 0.14066 0.57655 0.36012 0.0
C3227 C 0.11135 0.57487 0.34522 0.0
C3228 C 0.09796 0.57051 0.32835 0.0
C3229 C 0.13517 0.58075 0.37743 0.0
C3230 C 0.11753 0.58148 0.37849 0.0
C3231 C 0.10603 0.57939 0.36246 0.0
C3232 C 0.10943 0.57919 0.39527 0.0
C3233 C 0.14789 0.58331 0.39449 0.0
C3234 C 0.10776 0.56186 0.40093 0.0
C3235 C 0.09554 0.55648 0.41262 0.0
C3236 C 0.08492 0.56845 0.419 0.0
C3237 C 0.0875 0.5864 0.41438 0.0
C3238 C 0.09963 0.59169 0.40239 0.0
H3239 H 0.16162 0.58804 0.39166 0.0
H3240 H 0.14504 0.59358 0.40569 0.0
H3241 H 0.14665 0.56974 0.39936 0.0
H3242 H 0.11476 0.55179 0.39499 0.0
H3243 H 0.09363 0.54241 0.41558 0.0
H3244 H 0.82295 0.87075 0.59349 0.0
H3245 H 0.82032 0.85547 0.62051 0.0
H3246 H 0.76608 0.83003 0.60069 0.0
H3247 H 0.76921 0.84402 0.57296 0.0
H3248 H 0.80341 0.85932 0.64724 0.0
H3249 H 0.77774 0.7854 0.61441 0.0
H3250 H 0.78544 0.80326 0.60116 0.0
H3251 H 0.76358 0.79975 0.60779 0.0
C3252 C 0.81056 0.86163 0.59479 0.0
C3253 C 0.79636 0.85842 0.58102 0.0
C3254 C 0.80902 0.8529 0.61029 0.0
C3255 C 0.79308 0.84113 0.61268 0.0
C3256 C 0.77875 0.83829 0.59902 0.0
H3257 H 0.75513 0.78687 0.70285 0.0
H3258 H 0.75858 0.80019 0.67473 0.0
C3259 C 0.78049 0.8465 0.58321 0.0
C3260 C 0.79133 0.83288 0.62994 0.0
H3261 H 0.77622 0.79264 0.64661 0.0
C3262 C 0.79762 0.84467 0.64699 0.0
C3263 C 0.78365 0.81376 0.62989 0.0
C3264 C 0.77739 0.7998 0.61231 0.0
C3265 C 0.79628 0.83811 0.66379 0.0
C3266 C 0.78851 0.81907 0.66372 0.0
C3267 C 0.78216 0.80724 0.64674 0.0
C3268 C 0.78657 0.81121 0.68108 0.0
C3269 C 0.80281 0.85185 0.68146 0.0
C3270 C 0.80113 0.8128 0.69411 0.0
C3271 C 0.7991 0.80552 0.71041 0.0
C3272 C 0.78253 0.79607 0.71381 0.0
C3273 C 0.76804 0.79422 0.70068 0.0
C3274 C 0.77002 0.80174 0.68454 0.0
H3275 H 0.80347 0.86647 0.67943 0.0
H3276 H 0.7943 0.84884 0.69237 0.0
H3277 H 0.81624 0.85088 0.68634 0.0
H3278 H 0.81413 0.81948 0.69159 0.0
H3279 H 0.81057 0.80684 0.72011 0.0
H3280 H 0.77087 0.47015 0.52935 0.0
H3281 H 0.74718 0.48355 0.54009 0.0
H3282 H 0.70943 0.43866 0.50478 0.0
H3283 H 0.73316 0.42474 0.49419 0.0
H3284 H 0.72329 0.49508 0.5179 0.0
H3285 H 0.69073 0.44035 0.55506 0.0
H3286 H 0.71278 0.44221 0.54917 0.0
H3287 H 0.69437 0.43162 0.53206 0.0
C3288 C 0.75752 0.46307 0.52387 0.0
C3289 C 0.75373 0.44641 0.51094 0.0
C3290 C 0.74407 0.4707 0.53011 0.0
C3291 C 0.72671 0.46182 0.52344 0.0
C3292 C 0.72284 0.44533 0.51036 0.0
H3293 H 0.62697 0.48689 0.52404 0.0
H3294 H 0.652 0.47243 0.52203 0.0
C3295 C 0.73632 0.43755 0.50421 0.0
C3296 C 0.71272 0.47061 0.5292 0.0
H3297 H 0.67484 0.46318 0.5488 0.0
C3298 C 0.71276 0.48827 0.52484 0.0
C3299 C 0.69925 0.46155 0.53834 0.0
C3300 C 0.69931 0.44296 0.54411 0.0
C3301 C 0.69908 0.49688 0.52863 0.0
C3302 C 0.68527 0.48758 0.53728 0.0
C3303 C 0.68551 0.47014 0.54214 0.0
C3304 C 0.66996 0.49531 0.54032 0.0
C3305 C 0.6992 0.51545 0.52269 0.0
C3306 C 0.67186 0.51262 0.55167 0.0
C3307 C 0.65779 0.52111 0.55249 0.0
C3308 C 0.64153 0.51219 0.54224 0.0
C3309 C 0.63944 0.49426 0.53177 0.0
C3310 C 0.65362 0.48591 0.53077 0.0
H3311 H 0.70873 0.51857 0.51269 0.0
H3312 H 0.68602 0.51576 0.51633 0.0
H3313 H 0.70298 0.52675 0.53491 0.0
H3314 H 0.68441 0.51987 0.55932 0.0
H3315 H 0.65988 0.53499 0.56053 0.0
H3316 H 0.22926 0.1231 0.48041 0.0
H3317 H 0.20047 0.10478 0.48452 0.0
H3318 H 0.18783 0.15468 0.5123 0.0
H3319 H 0.21624 0.17313 0.5075 0.0
H3320 H 0.1849 0.09702 0.51331 0.0
H3321 H 0.14511 0.13634 0.47655 0.0
H3322 H 0.16844 0.14003 0.47614 0.0
H3323 H 0.15969 0.15087 0.49559 0.0
C3324 C 0.22025 0.13022 0.48719 0.0
C3325 C 0.22501 0.14968 0.49332 0.0
C3326 C 0.20377 0.11969 0.48963 0.0
C3327 C 0.1916 0.12828 0.49837 0.0
C3328 C 0.19656 0.14767 0.50494 0.0
H3329 H 0.08614 0.07887 0.52605 0.0
H3330 H 0.11536 0.09931 0.52663 0.0
C3331 C 0.21293 0.15825 0.50226 0.0
C3332 C 0.17389 0.11691 0.50069 0.0
H3333 H 0.12973 0.11363 0.49219 0.0
C3334 C 0.17288 0.10071 0.50863 0.0
C3335 C 0.15801 0.12155 0.4947 0.0
C3336 C 0.15782 0.13803 0.48511 0.0
C3337 C 0.15664 0.08916 0.51063 0.0
C3338 C 0.14086 0.0938 0.50454 0.0
C3339 C 0.14181 0.11012 0.49697 0.0
C3340 C 0.12328 0.08125 0.50477 0.0
C3341 C 0.15641 0.072 0.51922 0.0
C3342 C 0.11789 0.06438 0.4922 0.0
C3343 C 0.1011 0.05294 0.49157 0.0
C3344 C 0.08932 0.05791 0.50369 0.0
C3345 C 0.09482 0.07466 0.51649 0.0
C3346 C 0.11155 0.08633 0.51686 0.0
H3347 H 0.16944 0.07219 0.52636 0.0
H3348 H 0.14663 0.07076 0.52922 0.0
H3349 H 0.15253 0.05939 0.5083 0.0
H3350 H 0.12661 0.06018 0.48266 0.0
H3351 H 0.0974 0.04008 0.48163 0.0
H3352 H 0.2153 0.97397 0.76293 0.0
H3353 H 0.22987 0.94774 0.76105 0.0
H3354 H 0.18041 0.90994 0.76213 0.0
H3355 H 0.16582 0.93606 0.76344 0.0
H3356 H 0.23748 0.92486 0.78063 0.0
H3357 H 0.19407 0.87637 0.72339 0.0
H3358 H 0.19223 0.90019 0.72963 0.0
H3359 H 0.18219 0.88248 0.7421 0.0
C3360 C 0.20737 0.96009 0.76264 0.0
C3361 C 0.18906 0.95771 0.76333 0.0
C3362 C 0.21586 0.94478 0.76158 0.0
C3363 C 0.20664 0.926 0.76101 0.0
C3364 C 0.18833 0.92368 0.76186 0.0
H3365 H 0.23771 0.8149 0.75922 0.0
H3366 H 0.22231 0.84047 0.75954 0.0
C3367 C 0.17982 0.93898 0.76286 0.0
C3368 C 0.21624 0.90943 0.7603 0.0
H3369 H 0.21424 0.86359 0.74007 0.0
C3370 C 0.23226 0.91158 0.77157 0.0
C3371 C 0.21006 0.89149 0.74873 0.0
C3372 C 0.1938 0.8875 0.73514 0.0
C3373 C 0.24162 0.897 0.77201 0.0
C3374 C 0.23547 0.87906 0.76044 0.0
C3375 C 0.21944 0.87688 0.74914 0.0
C3376 C 0.24527 0.86267 0.7599 0.0
C3377 C 0.25782 0.90103 0.78569 0.0
C3378 C 0.26365 0.86546 0.7595 0.0
C3379 C 0.27262 0.85066 0.75958 0.0
C3380 C 0.26381 0.8319 0.75961 0.0
C3381 C 0.24535 0.82888 0.75934 0.0
C3382 C 0.23638 0.84379 0.75948 0.0
H3383 H 0.25743 0.91209 0.79745 0.0
H3384 H 0.25943 0.88836 0.79122 0.0
H3385 H 0.26947 0.90618 0.77884 0.0
H3386 H 0.27132 0.87922 0.75891 0.0
H3387 H 0.28669 0.85401 0.75949 0.0
H3388 H 0.36038 0.92208 0.99019 0.0
H3389 H 0.39226 0.93186 0.99582 0.0
H3390 H 0.38864 0.96429 0.04821 0.0
H3391 H 0.3568 0.9549 0.04253 0.0
H3392 H 0.39094 0.97642 0.00423 0.0
H3393 H 0.44261 0.95192 0.04355 0.0
H3394 H 0.42401 0.93543 0.02998 0.0
H3395 H 0.42096 0.94963 0.0507 0.0
C3396 C 0.36644 0.93043 1.00334 0.0
C3397 C 0.35646 0.93855 0.0156 0.0
C3398 C 0.38462 0.93575 0.00667 0.0
C3399 C 0.39255 0.94905 0.02222 0.0
C3400 C 0.38259 0.95404 0.03613 0.0
H3401 H 0.48399 0.03823 0.03458 0.0
H3402 H 0.45448 0.022 0.03826 0.0
C3403 C 0.36446 0.94899 0.0327 0.0
C3404 C 0.40765 0.96329 0.01988 0.0
H3405 H 0.45155 0.9792 0.03072 0.0
C3406 C 0.40425 0.97706 0.00996 0.0
C3407 C 0.42466 0.96406 0.02779 0.0
C3408 C 0.42845 0.94951 0.03864 0.0
C3409 C 0.41772 0.9916 0.0074 0.0
C3410 C 0.43481 0.9921 0.01489 0.0
C3411 C 0.43821 0.97859 0.02515 0.0
C3412 C 0.4497 1.00553 0.0109 0.0
C3413 C 0.41375 1.00625 0.99673 0.0
C3414 C 0.45601 1.00216 0.99389 0.0
C3415 C 0.47288 0.01118 0.99176 0.0
C3416 C 0.48342 0.02348 0.00672 0.0
C3417 C 0.47621 0.02846 0.02297 0.0
C3418 C 0.4594 0.01934 0.02511 0.0
H3419 H 0.39947 1.00542 0.99427 0.0
H3420 H 0.42042 0.02044 0.00422 0.0
H3421 H 0.41886 1.00431 0.98321 0.0
H3422 H 0.4485 0.99141 0.98287 0.0
H3423 H 0.47809 0.00732 0.97901 0.0
H3424 H 0.87093 0.54829 0.75935 0.0
H3425 H 0.85737 0.5697 0.74469 0.0
H3426 H 0.88623 0.61578 0.78617 0.0
H3427 H 0.90087 0.59448 0.80015 0.0
H3428 H 0.83737 0.59094 0.75445 0.0
H3429 H 0.89883 0.6361 0.74136 0.0
H3430 H 0.89833 0.61421 0.74923 0.0
H3431 H 0.8993 0.63526 0.76542 0.0
C3432 C 0.87409 0.56293 0.7656 0.0
C3433 C 0.88685 0.56983 0.78092 0.0
C3434 C 0.86651 0.57516 0.75706 0.0
C3435 C 0.87131 0.59436 0.76398 0.0
C3436 C 0.88297 0.60108 0.78018 0.0
H3437 H 0.82802 0.68361 0.76936 0.0
H3438 H 0.84432 0.65937 0.77009 0.0
C3439 C 0.89098 0.58891 0.78841 0.0
C3440 C 0.86359 0.60729 0.75463 0.0
H3441 H 0.87348 0.65007 0.74187 0.0
C3442 C 0.84528 0.60361 0.7512 0.0
C3443 C 0.87398 0.62359 0.75001 0.0
C3444 C 0.8937 0.62737 0.7515 0.0
C3445 C 0.83704 0.61664 0.74479 0.0
C3446 C 0.84744 0.63372 0.74209 0.0
C3447 C 0.86569 0.63687 0.74414 0.0
C3448 C 0.83959 0.64955 0.7407 0.0
C3449 C 0.81731 0.61275 0.74221 0.0
C3450 C 0.83195 0.65202 0.7238 0.0
C3451 C 0.8228 0.66606 0.72326 0.0
C3452 C 0.82117 0.67756 0.73965 0.0
C3453 C 0.82933 0.67524 0.75646 0.0
C3454 C 0.83855 0.66137 0.75695 0.0
H3455 H 0.81117 0.59814 0.74342 0.0
H3456 H 0.81282 0.6224 0.75274 0.0
H3457 H 0.81267 0.61533 0.72848 0.0
H3458 H 0.83268 0.64281 0.71121 0.0
H3459 H 0.81678 0.66771 0.71011 0.0
H3460 H 0.82486 0.65 0.04025 0.0
H3461 H 0.85279 0.64125 0.04475 0.0
H3462 H 0.86234 0.64936 0.98969 0.0
H3463 H 0.8344 0.65887 0.98535 0.0
H3464 H 0.85978 0.61129 0.02677 0.0
H3465 H 0.91043 0.67206 0.01703 0.0
H3466 H 0.88834 0.67366 0.02051 0.0
H3467 H 0.89333 0.66471 0.99808 0.0
C3468 C 0.83303 0.65023 0.02916 0.0
C3469 C 0.82731 0.65491 0.01235 0.0
C3470 C 0.84904 0.64524 0.03178 0.0
C3471 C 0.85978 0.64459 0.0176 0.0
C3472 C 0.8545 0.65005 1.001 0.0
H3473 H 0.94182 0.58742 0.99387 0.0
H3474 H 0.91944 0.60566 0.99403 0.0
C3475 C 0.83847 0.65538 0.99846 0.0
C3476 C 0.87534 0.63623 0.01968 0.0
H3477 H 0.9192 0.64301 0.0159 0.0
C3478 C 0.87279 0.61837 0.02457 0.0
C3479 C 0.89241 0.64542 0.01697 0.0
C3480 C 0.89637 0.6651 0.01305 0.0
C3481 C 0.8866 0.60927 0.02626 0.0
C3482 C 0.9035 0.61819 0.02293 0.0
C3483 C 0.90619 0.63615 0.01832 0.0
C3484 C 0.91827 0.60864 0.02336 0.0
C3485 C 0.88292 0.58996 0.03116 0.0
C3486 C 0.92538 0.60463 0.03989 0.0
C3487 C 0.93838 0.59437 0.03991 0.0
C3488 C 0.94452 0.58779 0.02336 0.0
C3489 C 0.93768 0.59239 0.00692 0.0
C3490 C 0.92478 0.60275 0.00695 0.0
H3491 H 0.86866 0.5838 0.03036 0.0
H3492 H 0.88882 0.58046 0.02187 0.0
H3493 H 0.88892 0.59072 0.04545 0.0
H3494 H 0.9207 0.60924 0.05276 0.0
H3495 H 0.94353 0.59148 0.05291 0.0
H3496 H 0.21216 0.07186 0.7735 0.0
H3497 H 0.22994 0.10348 0.77285 0.0
H3498 H 0.18291 0.12197 0.75994 0.0
H3499 H 0.1654 0.09123 0.76107 0.0
H3500 H 0.236 0.12637 0.74813 0.0
H3501 H 0.20371 0.16405 0.79993 0.0
H3502 H 0.19983 0.13891 0.79571 0.0
H3503 H 0.18833 0.15072 0.78095 0.0
C3504 C 0.20555 0.08267 0.7707 0.0
C3505 C 0.18702 0.07849 0.76767 0.0
C3506 C 0.21583 0.10098 0.77028 0.0
C3507 C 0.20807 0.11594 0.76691 0.0
C3508 C 0.18964 0.11147 0.76336 0.0
H3509 H 0.24722 0.23792 0.75856 0.0
H3510 H 0.22879 0.20641 0.75868 0.0
C3511 C 0.17948 0.09343 0.76387 0.0
C3512 C 0.21887 0.13591 0.76661 0.0
H3513 H 0.22195 0.18286 0.78257 0.0
C3514 C 0.23291 0.13861 0.75586 0.0
C3515 C 0.21514 0.15249 0.77634 0.0
C3516 C 0.20105 0.15143 0.78901 0.0
C3517 C 0.24277 0.15674 0.75431 0.0
C3518 C 0.23916 0.17332 0.76418 0.0
C3519 C 0.22505 0.17062 0.77484 0.0
C3520 C 0.25028 0.19324 0.7642 0.0
C3521 C 0.25666 0.15777 0.7414 0.0
C3522 C 0.2687 0.19728 0.7677 0.0
C3523 C 0.27921 0.21524 0.76749 0.0
C3524 C 0.27202 0.23049 0.76412 0.0
C3525 C 0.25351 0.22681 0.76113 0.0
C3526 C 0.24288 0.20857 0.76122 0.0
H3527 H 0.25367 0.1453 0.73029 0.0
H3528 H 0.25799 0.17045 0.73495 0.0
H3529 H 0.26941 0.1581 0.74919 0.0
H3530 H 0.27518 0.18648 0.77082 0.0
H3531 H 0.29327 0.21716 0.77011 0.0
H3532 H 0.41953 0.95695 0.24881 0.0
H3533 H 0.39881 0.92701 0.24789 0.0
H3534 H 0.36265 0.956 0.27347 0.0
H3535 H 0.3828 0.98572 0.27417 0.0
H3536 H 0.38771 0.91536 0.28032 0.0
H3537 H 0.33172 0.91847 0.23124 0.0
H3538 H 0.35338 0.93305 0.23201 0.0
H3539 H 0.33888 0.93936 0.24817 0.0
C3540 C 0.40701 0.95692 0.25387 0.0
C3541 C 0.4028 0.97361 0.26164 0.0
C3542 C 0.39527 0.93989 0.25333 0.0
C3543 C 0.37928 0.93955 0.26042 0.0
C3544 C 0.37483 0.95617 0.26759 0.0
H3545 H 0.29679 0.85341 0.2874 0.0
H3546 H 0.31776 0.8838 0.28981 0.0
C3547 C 0.38644 0.9731 0.26809 0.0
C3548 C 0.36784 0.92193 0.26225 0.0
H3549 H 0.32573 0.89695 0.25208 0.0
C3550 C 0.37419 0.91119 0.27406 0.0
C3551 C 0.35028 0.91683 0.25408 0.0
C3552 C 0.34321 0.92744 0.24052 0.0
C3553 C 0.36317 0.89538 0.27814 0.0
C3554 C 0.34556 0.89061 0.27029 0.0
C3555 C 0.33921 0.90127 0.25847 0.0
C3556 C 0.33433 0.87272 0.27121 0.0
C3557 C 0.37032 0.88372 0.29054 0.0
C3558 C 0.33697 0.85706 0.25985 0.0
C3559 C 0.32499 0.84025 0.25804 0.0
C3560 C 0.31032 0.83892 0.2677 0.0
C3561 C 0.30795 0.85444 0.27966 0.0
C3562 C 0.31988 0.87153 0.28119 0.0
H3563 H 0.38316 0.89128 0.29835 0.0
H3564 H 0.36096 0.87953 0.3004 0.0
H3565 H 0.37212 0.87076 0.28205 0.0
H3566 H 0.34803 0.85801 0.25195 0.0
H3567 H 0.32731 0.82822 0.24917 0.0
H3568 H 0.5719 0.37565 0.61399 0.0
H3569 H 0.56701 0.40132 0.59858 0.0
H3570 H 0.55777 0.36459 0.54607 0.0
H3571 H 0.56271 0.33879 0.56138 0.0
H3572 H 0.58584 0.41577 0.56992 0.0
H3573 H 0.51466 0.38874 0.54661 0.0
H3574 H 0.52592 0.37983 0.56431 0.0
H3575 H 0.5288 0.37327 0.54062 0.0
C3576 C 0.5688 0.37298 0.59916 0.0
C3577 C 0.56769 0.3551 0.58897 0.0
C3578 C 0.566 0.3877 0.59036 0.0
C3579 C 0.56177 0.38487 0.57118 0.0
C3580 C 0.56072 0.36707 0.56091 0.0
H3581 H 0.53367 0.46409 0.50268 0.0
H3582 H 0.53808 0.43556 0.51355 0.0
C3583 C 0.56368 0.35235 0.56969 0.0
C3584 C 0.55907 0.40078 0.56203 0.0
H3585 H 0.52809 0.41755 0.53886 0.0
C3586 C 0.57322 0.41615 0.56309 0.0
C3587 C 0.5427 0.40114 0.55278 0.0
C3588 C 0.52707 0.38495 0.55103 0.0
C3589 C 0.57149 0.43187 0.55529 0.0
C3590 C 0.55487 0.43275 0.54689 0.0
C3591 C 0.5408 0.41711 0.54542 0.0
C3592 C 0.55179 0.44995 0.54015 0.0
C3593 C 0.58773 0.44711 0.55581 0.0
C3594 C 0.55751 0.46757 0.5515 0.0
C3595 C 0.55561 0.48382 0.54504 0.0
C3596 C 0.54721 0.48288 0.52733 0.0
C3597 C 0.54048 0.46524 0.51627 0.0
C3598 C 0.54293 0.44894 0.52254 0.0
H3599 H 0.59968 0.44142 0.55602 0.0
H3600 H 0.58713 0.45433 0.54379 0.0
H3601 H 0.5892 0.45752 0.56861 0.0
H3602 H 0.56349 0.46883 0.56547 0.0
H3603 H 0.5604 0.49716 0.55412 0.0
H3604 H 0.44482 0.74819 0.38246 0.0
H3605 H 0.41537 0.74933 0.36864 0.0
H3606 H 0.43846 0.79669 0.34472 0.0
H3607 H 0.46728 0.79564 0.35801 0.0
H3608 H 0.39594 0.78135 0.36949 0.0
H3609 H 0.41232 0.75635 0.30013 0.0
H3610 H 0.42425 0.75334 0.32095 0.0
H3611 H 0.4286 0.77554 0.31334 0.0
C3612 C 0.44358 0.75887 0.37433 0.0
C3613 C 0.45867 0.77152 0.3711 0.0
C3614 C 0.42671 0.75956 0.36645 0.0
C3615 C 0.42462 0.77293 0.35528 0.0
C3616 C 0.43959 0.78601 0.35292 0.0
H3617 H 0.35352 0.80375 0.27764 0.0
H3618 H 0.37738 0.80058 0.29927 0.0
C3619 C 0.45621 0.7853 0.36058 0.0
C3620 C 0.40729 0.77304 0.34503 0.0
H3621 H 0.38772 0.76997 0.30126 0.0
C3622 C 0.39399 0.77857 0.35457 0.0
C3623 C 0.40467 0.76961 0.32553 0.0
C3624 C 0.41813 0.76323 0.31434 0.0
C3625 C 0.37861 0.7815 0.34516 0.0
C3626 C 0.37625 0.77857 0.3256 0.0
C3627 C 0.38937 0.77243 0.31619 0.0
C3628 C 0.36093 0.7825 0.31436 0.0
C3629 C 0.36546 0.78857 0.3563 0.0
C3630 C 0.34334 0.77398 0.31574 0.0
C3631 C 0.32947 0.77618 0.30345 0.0
C3632 C 0.33291 0.78673 0.28935 0.0
C3633 C 0.35037 0.79569 0.28843 0.0
C3634 C 0.3641 0.79375 0.30078 0.0
H3635 H 0.3712 0.79477 0.37069 0.0
H3636 H 0.36028 0.79924 0.34999 0.0
H3637 H 0.35432 0.77673 0.35676 0.0
H3638 H 0.34034 0.76485 0.32568 0.0
H3639 H 0.31626 0.76858 0.30419 0.0
H3640 H 0.0411 0.74418 0.07784 0.0
H3641 H 0.03494 0.71204 0.06039 0.0
H3642 H 0.08844 0.70955 0.07518 0.0
H3643 H 0.09438 0.74115 0.093 0.0
H3644 H 0.05006 0.69251 0.03163 0.0
H3645 H 0.0596 0.6677 0.09774 0.0
H3646 H 0.05683 0.69097 0.09652 0.0
H3647 H 0.07787 0.68552 0.09454 0.0
C3648 C 0.05161 0.73689 0.07685 0.0
C3649 C 0.06822 0.745 0.08668 0.0
C3650 C 0.04807 0.71856 0.06701 0.0
C3651 C 0.06116 0.70833 0.06688 0.0
C3652 C 0.07808 0.71708 0.07547 0.0
H3653 H 0.07689 0.59819 0.03449 0.0
H3654 H 0.07935 0.63169 0.04416 0.0
C3655 C 0.08151 0.73515 0.08548 0.0
C3656 C 0.05713 0.68815 0.05907 0.0
H3657 H 0.05984 0.64604 0.07054 0.0
C3658 C 0.05202 0.68228 0.04011 0.0
C3659 C 0.05941 0.67482 0.07026 0.0
C3660 C 0.06354 0.68001 0.09092 0.0
C3661 C 0.05011 0.66352 0.03188 0.0
C3662 C 0.05335 0.65044 0.04299 0.0
C3663 C 0.05775 0.65621 0.06202 0.0
C3664 C 0.05219 0.63061 0.03531 0.0
C3665 C 0.04519 0.65795 0.01135 0.0
C3666 C 0.03616 0.619 0.02702 0.0
C3667 C 0.03473 0.59992 0.02143 0.0
C3668 C 0.04928 0.59204 0.02422 0.0
C3669 C 0.06546 0.6038 0.0321 0.0
C3670 C 0.06688 0.62293 0.03766 0.0
H3671 H 0.04715 0.67027 0.0043 0.0
H3672 H 0.05297 0.64821 0.00537 0.0
H3673 H 0.03115 0.65066 0.00847 0.0
H3674 H 0.0246 0.62458 0.02544 0.0
H3675 H 0.02205 0.59128 0.01541 0.0
H3676 H 0.07571 0.2959 0.90943 0.0
H3677 H 0.10319 0.3045 0.89607 0.0
H3678 H 0.08374 0.25942 0.85019 0.0
H3679 H 0.05603 0.2515 0.86296 0.0
H3680 H 0.12852 0.28868 0.88838 0.0
H3681 H 0.0989 0.29985 0.82225 0.0
H3682 H 0.08642 0.29668 0.84132 0.0
H3683 H 0.08937 0.27673 0.82574 0.0
C3684 C 0.0773 0.28787 0.89644 0.0
C3685 C 0.0636 0.2731 0.88715 0.0
C3686 C 0.09304 0.29281 0.8888 0.0
C3687 C 0.0955 0.28299 0.87178 0.0
C3688 C 0.08203 0.26777 0.86292 0.0
H3689 H 0.17591 0.26583 0.80571 0.0
H3690 H 0.1508 0.26546 0.82307 0.0
C3691 C 0.06621 0.26309 0.87034 0.0
C3692 C 0.11218 0.28819 0.86338 0.0
H3693 H 0.12785 0.29363 0.82228 0.0
C3694 C 0.12835 0.29005 0.874 0.0
C3695 C 0.11222 0.29052 0.8447 0.0
C3696 C 0.0958 0.29107 0.83295 0.0
C3697 C 0.14425 0.29286 0.86614 0.0
C3698 C 0.14399 0.29354 0.84714 0.0
C3699 C 0.128 0.29267 0.83677 0.0
C3700 C 0.1599 0.29392 0.83744 0.0
C3701 C 0.16118 0.29442 0.87802 0.0
C3702 C 0.17348 0.31008 0.83975 0.0
C3703 C 0.18797 0.31034 0.82982 0.0
C3704 C 0.18924 0.29443 0.81738 0.0
C3705 C 0.17564 0.27825 0.81533 0.0
C3706 C 0.16116 0.27804 0.82516 0.0
H3707 H 0.15907 0.29221 0.89224 0.0
H3708 H 0.16824 0.28406 0.8718 0.0
H3709 H 0.16972 0.30854 0.87876 0.0
H3710 H 0.17274 0.32256 0.84903 0.0
H3711 H 0.1982 0.32303 0.83189 0.0
H3712 H 0.56156 0.77903 0.93197 0.0
H3713 H 0.55002 0.75075 0.94454 0.0
H3714 H 0.56796 0.71735 0.9005 0.0
H3715 H 0.57919 0.74544 0.88764 0.0
H3716 H 0.52598 0.7103 0.9182 0.0
H3717 H 0.59024 0.71462 0.95861 0.0
H3718 H 0.58364 0.73521 0.95326 0.0
H3719 H 0.58994 0.71962 0.9355 0.0
C3720 C 0.563 0.76563 0.92501 0.0
C3721 C 0.57126 0.76427 0.90894 0.0
C3722 C 0.55633 0.74959 0.93209 0.0
C3723 C 0.55815 0.73219 0.92329 0.0
C3724 C 0.56635 0.73077 0.90725 0.0
H3725 H 0.54284 0.62284 0.95179 0.0
H3726 H 0.54663 0.64882 0.93465 0.0
C3727 C 0.57277 0.74674 0.90001 0.0
C3728 C 0.5524 0.71554 0.93143 0.0
H3729 H 0.56747 0.68846 0.95919 0.0
C3730 C 0.53496 0.70547 0.9272 0.0
C3731 C 0.5643 0.70954 0.9431 0.0
C3732 C 0.58309 0.72027 0.94803 0.0
C3733 C 0.5291 0.68919 0.93441 0.0
C3734 C 0.54106 0.68312 0.94593 0.0
C3735 C 0.55846 0.69326 0.95018 0.0
C3736 C 0.5358 0.6665 0.95428 0.0
C3737 C 0.51032 0.67844 0.92966 0.0
C3738 C 0.52821 0.668 0.97069 0.0
C3739 C 0.52632 0.65341 0.98065 0.0
C3740 C 0.532 0.63715 0.97427 0.0
C3741 C 0.53862 0.63532 0.95718 0.0
C3742 C 0.54063 0.65 0.94731 0.0
H3743 H 0.50293 0.68441 0.91957 0.0
H3744 H 0.50985 0.66363 0.9239 0.0
H3745 H 0.50375 0.67854 0.94237 0.0
H3746 H 0.52465 0.68083 0.97628 0.0
H3747 H 0.5214 0.65536 0.99387 0.0
H3748 H 0.04679 0.79223 0.68989 0.0
H3749 H 0.07521 0.79375 0.70697 0.0
H3750 H 0.07937 0.74345 0.67157 0.0
H3751 H 0.05148 0.74249 0.6539 0.0
H3752 H 0.08463 0.76903 0.72614 0.0
H3753 H 0.12565 0.77741 0.66911 0.0
H3754 H 0.10328 0.77982 0.6673 0.0
H3755 H 0.10803 0.75699 0.66393 0.0
C3756 C 0.05398 0.78171 0.68568 0.0
C3757 C 0.04732 0.76746 0.67054 0.0
C3758 C 0.07007 0.78253 0.69541 0.0
C3759 C 0.07944 0.76893 0.69022 0.0
C3760 C 0.07256 0.75441 0.67533 0.0
H3761 H 0.16769 0.73675 0.73658 0.0
H3762 H 0.1383 0.73874 0.72464 0.0
C3763 C 0.05668 0.75384 0.66533 0.0
C3764 C 0.09622 0.76966 0.70076 0.0
H3765 H 0.13908 0.77051 0.69655 0.0
C3766 C 0.09659 0.76957 0.71974 0.0
C3767 C 0.11171 0.77039 0.69225 0.0
C3768 C 0.11222 0.77134 0.67206 0.0
C3769 C 0.11212 0.76978 0.73042 0.0
C3770 C 0.12739 0.77002 0.7218 0.0
C3771 C 0.12715 0.77037 0.70294 0.0
C3772 C 0.14369 0.76886 0.73185 0.0
C3773 C 0.11222 0.76943 0.75073 0.0
C3774 C 0.15603 0.78521 0.73999 0.0
C3775 C 0.17276 0.7841 0.74669 0.0
C3776 C 0.17699 0.76663 0.74537 0.0
C3777 C 0.16435 0.75026 0.73803 0.0
C3778 C 0.14773 0.75138 0.73121 0.0
H3779 H 0.09912 0.76923 0.75536 0.0
H3780 H 0.11654 0.7569 0.75398 0.0
H3781 H 0.12176 0.78192 0.75863 0.0
H3782 H 0.15296 0.79877 0.74031 0.0
H3783 H 0.18259 0.79682 0.75209 0.0
H3784 H 0.10358 0.39424 0.39267 0.0
H3785 H 0.09358 0.42003 0.40979 0.0
H3786 H 0.06882 0.38312 0.44447 0.0
H3787 H 0.079 0.35744 0.42786 0.0
H3788 H 0.05846 0.42091 0.41346 0.0
H3789 H 0.0978 0.42808 0.48096 0.0
H3790 H 0.10277 0.41549 0.45997 0.0
H3791 H 0.08572 0.40459 0.47219 0.0
C3792 C 0.09638 0.39174 0.40423 0.0
C3793 C 0.09225 0.37389 0.40907 0.0
C3794 C 0.09058 0.40641 0.41385 0.0
C3795 C 0.08068 0.40337 0.4284 0.0
C3796 C 0.07679 0.38571 0.43347 0.0
H3797 H 0.02792 0.46594 0.50274 0.0
H3798 H 0.03637 0.44093 0.48233 0.0
C3799 C 0.08267 0.3711 0.424 0.0
C3800 C 0.07386 0.41848 0.43806 0.0
H3801 H 0.07386 0.44306 0.48071 0.0
C3802 C 0.06188 0.42591 0.42813 0.0
C3803 C 0.07851 0.42486 0.45713 0.0
C3804 C 0.09204 0.41798 0.46816 0.0
C3805 C 0.05398 0.43935 0.43703 0.0
C3806 C 0.05825 0.44526 0.45619 0.0
C3807 C 0.07044 0.43808 0.46603 0.0
C3808 C 0.0509 0.45961 0.46635 0.0
C3809 C 0.04099 0.44697 0.42606 0.0
C3810 C 0.05621 0.47811 0.46377 0.0
C3811 C 0.05147 0.49225 0.47532 0.0
C3812 C 0.04145 0.48805 0.4896 0.0
C3813 C 0.03556 0.46943 0.49172 0.0
C3814 C 0.04035 0.45523 0.48014 0.0
H3815 H 0.03655 0.43833 0.41219 0.0
H3816 H 0.02938 0.44773 0.43346 0.0
H3817 H 0.04722 0.46136 0.42429 0.0
H3818 H 0.06471 0.48169 0.45344 0.0
H3819 H 0.05642 0.50653 0.47365 0.0
H3820 H 0.44242 0.26697 0.15859 0.0
H3821 H 0.41738 0.27367 0.17353 0.0
H3822 H 0.42273 0.23401 0.2093 0.0
H3823 H 0.44783 0.2273 0.19466 0.0
H3824 H 0.38503 0.25043 0.18174 0.0
H3825 H 0.43239 0.28667 0.24301 0.0
H3826 H 0.43909 0.28029 0.22064 0.0
H3827 H 0.43354 0.26297 0.23498 0.0
C3828 C 0.43798 0.25933 0.16931 0.0
C3829 C 0.44721 0.24694 0.17581 0.0
C3830 C 0.42376 0.2632 0.1778 0.0
C3831 C 0.41874 0.25461 0.19267 0.0
C3832 C 0.42684 0.24095 0.198 0.0
H3833 H 0.33895 0.25487 0.26217 0.0
H3834 H 0.36468 0.2501 0.24729 0.0
C3835 C 0.44108 0.23715 0.18964 0.0
C3836 C 0.40611 0.26109 0.20374 0.0
H3837 H 0.40216 0.28234 0.24676 0.0
C3838 C 0.3887 0.2575 0.19591 0.0
C3839 C 0.41129 0.27055 0.22207 0.0
C3840 C 0.43013 0.27553 0.23065 0.0
C3841 C 0.37599 0.26257 0.20635 0.0
C3842 C 0.3811 0.27135 0.22485 0.0
C3843 C 0.39855 0.27542 0.23254 0.0
C3844 C 0.3682 0.27592 0.2365 0.0
C3845 C 0.35719 0.25834 0.19777 0.0
C3846 C 0.36261 0.29241 0.23583 0.0
C3847 C 0.34818 0.29525 0.24439 0.0
C3848 C 0.33919 0.28142 0.25336 0.0
C3849 C 0.34566 0.26556 0.25515 0.0
C3850 C 0.36025 0.26285 0.24674 0.0
H3851 H 0.35531 0.25047 0.18346 0.0
H3852 H 0.34857 0.25006 0.20616 0.0
H3853 H 0.35296 0.27162 0.19754 0.0
H3854 H 0.36878 0.30251 0.22786 0.0
H3855 H 0.34334 0.30757 0.24277 0.0
H3856 H 0.60779 0.53721 0.31926 0.0
H3857 H 0.59544 0.53734 0.3482 0.0
H3858 H 0.62467 0.49778 0.36247 0.0
H3859 H 0.63764 0.49796 0.33321 0.0
H3860 H 0.57452 0.51525 0.36353 0.0
H3861 H 0.63575 0.53025 0.411 0.0
H3862 H 0.63591 0.53138 0.38686 0.0
H3863 H 0.63261 0.50916 0.39452 0.0
C3864 C 0.61191 0.5285 0.32843 0.0
C3865 C 0.62418 0.5177 0.32328 0.0
C3866 C 0.60458 0.52858 0.34534 0.0
C3867 C 0.609 0.51792 0.35849 0.0
C3868 C 0.6211 0.50679 0.35337 0.0
H3869 H 0.57495 0.5092 0.47171 0.0
H3870 H 0.58898 0.50653 0.44314 0.0
C3871 C 0.62855 0.50674 0.33627 0.0
C3872 C 0.60057 0.51851 0.37691 0.0
H3873 H 0.6094 0.52459 0.42435 0.0
C3874 C 0.58235 0.51736 0.37675 0.0
C3875 C 0.61014 0.52109 0.39474 0.0
C3876 C 0.6297 0.52322 0.39691 0.0
C3877 C 0.57373 0.51844 0.39308 0.0
C3878 C 0.58337 0.52151 0.41099 0.0
C3879 C 0.60156 0.52239 0.41113 0.0
C3880 C 0.57501 0.52378 0.42942 0.0
C3881 C 0.55406 0.51552 0.39061 0.0
C3882 C 0.56253 0.53481 0.4325 0.0
C3883 C 0.5543 0.53612 0.44894 0.0
C3884 C 0.55856 0.52724 0.46374 0.0
C3885 C 0.57149 0.51679 0.46112 0.0
C3886 C 0.57951 0.51513 0.44444 0.0
H3887 H 0.54826 0.50688 0.37703 0.0
H3888 H 0.54801 0.50855 0.4015 0.0
H3889 H 0.55059 0.52926 0.39106 0.0
H3890 H 0.55894 0.54251 0.4221 0.0
H3891 H 0.54429 0.54408 0.44998 0.0
H3892 H 0.33548 0.921 0.05576 0.0
H3893 H 0.34629 0.9071 0.08092 0.0
H3894 H 0.29381 0.87551 0.08274 0.0
H3895 H 0.28308 0.8886 0.05679 0.0
H3896 H 0.33894 0.90745 0.11539 0.0
H3897 H 0.32014 0.83486 0.07708 0.0
H3898 H 0.32009 0.8548 0.0659 0.0
H3899 H 0.30176 0.84548 0.07744 0.0
C3900 C 0.32624 0.91118 0.06167 0.0
C3901 C 0.30849 0.90568 0.05446 0.0
C3902 C 0.33245 0.90324 0.07592 0.0
C3903 C 0.32091 0.88994 0.08321 0.0
C3904 C 0.30298 0.88526 0.07673 0.0
H3905 H 0.30126 0.83986 0.16885 0.0
H3906 H 0.30671 0.85835 0.14471 0.0
C3907 C 0.29683 0.89284 0.06214 0.0
C3908 C 0.32754 0.88099 0.09773 0.0
H3909 H 0.32447 0.83846 0.11038 0.0
C3910 C 0.33623 0.89236 0.11418 0.0
C3911 C 0.32433 0.86132 0.09584 0.0
C3912 C 0.31624 0.84844 0.07802 0.0
C3913 C 0.34024 0.88447 0.12949 0.0
C3914 C 0.33538 0.86494 0.12807 0.0
C3915 C 0.32815 0.85351 0.11121 0.0
C3916 C 0.33372 0.85645 0.14447 0.0
C3917 C 0.34839 0.89691 0.14747 0.0
C3918 C 0.34737 0.84978 0.15238 0.0
C3919 C 0.34434 0.83928 0.16638 0.0
C3920 C 0.32767 0.83548 0.17235 0.0
C3921 C 0.31434 0.84296 0.16481 0.0
C3922 C 0.31737 0.85339 0.15097 0.0
H3923 H 0.35304 0.9117 0.14585 0.0
H3924 H 0.33861 0.89623 0.15747 0.0
H3925 H 0.35959 0.89187 0.15334 0.0
H3926 H 0.36002 0.85209 0.14728 0.0
H3927 H 0.35476 0.83361 0.17207 0.0
H3928 H 0.93625 0.53839 0.84148 0.0
H3929 H 0.94415 0.53512 0.87325 0.0
H3930 H 0.9891 0.51497 0.85724 0.0
H3931 H 0.9816 0.51832 0.82558 0.0
H3932 H 0.9605 0.49965 0.88947 0.0
H3933 H 0.99978 0.57241 0.89297 0.0
H3934 H 0.97943 0.56334 0.87805 0.0
H3935 H 0.99877 0.55579 0.8723 0.0
C3936 C 0.9478 0.53321 0.84472 0.0
C3937 C 0.95868 0.52919 0.83124 0.0
C3938 C 0.95201 0.53101 0.86271 0.0
C3939 C 0.96702 0.52471 0.86719 0.0
C3940 C 0.97733 0.51966 0.85368 0.0
H3941 H 0.04537 0.5248 0.94879 0.0
H3942 H 0.02397 0.52 0.92136 0.0
C3943 C 0.97323 0.52196 0.83577 0.0
C3944 C 0.9742 0.52712 0.88625 0.0
H3945 H 0.00638 0.55649 0.91687 0.0
C3946 C 0.97024 0.51217 0.89577 0.0
C3947 C 0.98686 0.54354 0.89402 0.0
C3948 C 0.99148 0.55977 0.8839 0.0
C3949 C 0.9795 0.513 0.91292 0.0
C3950 C 0.99277 0.52905 0.92013 0.0
C3951 C 0.99607 0.54428 0.911 0.0
C3952 C 0.00447 0.53001 0.93652 0.0
C3953 C 0.97571 0.49665 0.92292 0.0
C3954 C 1.00052 0.53789 0.95353 0.0
C3955 C 0.01279 0.54107 0.96887 0.0
C3956 C 0.02881 0.53614 0.9672 0.0
C3957 C 0.03295 0.52864 0.95011 0.0
C3958 C 0.02074 0.52559 0.9347 0.0
H3959 H 0.96457 0.48537 0.9156 0.0
H3960 H 0.98752 0.49084 0.92444 0.0
H3961 H 0.97265 0.50143 0.93698 0.0
H3962 H 0.98818 0.54194 0.95481 0.0
H3963 H 0.00997 0.5477 0.98191 0.0
H3964 H 0.31158 0.21859 0.55829 0.0
H3965 H 0.31408 0.23571 0.59003 0.0
H3966 H 0.25775 0.22357 0.58726 0.0
H3967 H 0.2553 0.20605 0.55605 0.0
H3968 H 0.30046 0.26583 0.6079 0.0
H3969 H 0.27282 0.19863 0.62966 0.0
H3970 H 0.28083 0.1999 0.60764 0.0
H3971 H 0.25927 0.20326 0.61102 0.0
C3972 C 0.2998 0.22003 0.56439 0.0
C3973 C 0.28324 0.21108 0.55489 0.0
C3974 C 0.30122 0.22971 0.58248 0.0
C3975 C 0.28608 0.23053 0.5911 0.0
C3976 C 0.26959 0.22275 0.58101 0.0
H3977 H 0.25804 0.26403 0.69988 0.0
H3978 H 0.25824 0.25448 0.66663 0.0
C3979 C 0.26818 0.21289 0.56317 0.0
C3980 C 0.28721 0.23818 0.61097 0.0
H3981 H 0.274 0.2262 0.65117 0.0
C3982 C 0.29478 0.25719 0.61742 0.0
C3983 C 0.28002 0.22679 0.62341 0.0
C3984 C 0.27294 0.20597 0.61765 0.0
C3985 C 0.29463 0.26527 0.63585 0.0
C3986 C 0.28676 0.25398 0.64806 0.0
C3987 C 0.27964 0.2349 0.64168 0.0
C3988 C 0.2865 0.26133 0.66776 0.0
C3989 C 0.30256 0.28587 0.642 0.0
C3990 C 0.30227 0.26829 0.67932 0.0
C3991 C 0.30219 0.27369 0.69816 0.0
C3992 C 0.28631 0.2721 0.70595 0.0
C3993 C 0.27046 0.26546 0.69432 0.0
C3994 C 0.27057 0.26 0.67535 0.0
H3995 H 0.3037 0.29342 0.63016 0.0
H3996 H 0.29467 0.29234 0.65173 0.0
H3997 H 0.31593 0.28774 0.64919 0.0
H3998 H 0.3147 0.26904 0.67387 0.0
H3999 H 0.31469 0.27882 0.70665 0.0
H4000 H 0.60435 0.50824 0.21955 0.0
H4001 H 0.58946 0.51202 0.19022 0.0
H4002 H 0.63763 0.51498 0.16605 0.0
H4003 H 0.65242 0.51107 0.19512 0.0
H4004 H 0.59319 0.53928 0.16929 0.0
H4005 H 0.60601 0.47737 0.12632 0.0
H4006 H 0.60986 0.48125 0.15111 0.0
H4007 H 0.62584 0.49278 0.13804 0.0
C4008 C 0.6118 0.50952 0.20797 0.0
C4009 C 0.62976 0.50914 0.21004 0.0
C4010 C 0.6032 0.51177 0.19104 0.0
C4011 C 0.61209 0.5135 0.1753 0.0
C4012 C 0.63004 0.51322 0.17745 0.0
H4013 H 0.58892 0.52673 0.05938 0.0
H4014 H 0.60147 0.52313 0.08975 0.0
C4015 C 0.63863 0.51108 0.19435 0.0
C4016 C 0.6029 0.516 0.15695 0.0
H4017 H 0.59606 0.49918 0.11028 0.0
C4018 C 0.59379 0.53039 0.15644 0.0
C4019 C 0.60331 0.50456 0.13978 0.0
C4020 C 0.61161 0.488 0.1388 0.0
C4021 C 0.58595 0.53407 0.13968 0.0
C4022 C 0.58664 0.52279 0.12244 0.0
C4023 C 0.59546 0.50817 0.12307 0.0
C4024 C 0.57877 0.52589 0.10367 0.0
C4025 C 0.57762 0.55061 0.14078 0.0
C4026 C 0.5616 0.52873 0.10055 0.0
C4027 C 0.55456 0.53133 0.08307 0.0
C4028 C 0.56414 0.5306 0.06779 0.0
C4029 C 0.58109 0.52742 0.07072 0.0
C4030 C 0.58829 0.52527 0.08826 0.0
H4031 H 0.58297 0.56104 0.15346 0.0
H4032 H 0.57966 0.55768 0.1287 0.0
H4033 H 0.56335 0.54576 0.14123 0.0
H4034 H 0.55336 0.52859 0.11152 0.0
H4035 H 0.54137 0.53344 0.0814 0.0
H4036 H 0.27894 0.87316 0.95117 0.0
H4037 H 0.2801 0.85172 0.92295 0.0
H4038 H 0.32591 0.88992 0.91175 0.0
H4039 H 0.32478 0.9116 0.93986 0.0
H4040 H 0.28495 0.87093 0.88457 0.0
H4041 H 0.33023 0.82874 0.90859 0.0
H4042 H 0.31594 0.8377 0.9237 0.0
H4043 H 0.33412 0.85348 0.91738 0.0
C4044 C 0.2893 0.87691 0.94273 0.0
C4045 C 0.30163 0.89406 0.94742 0.0
C4046 C 0.28997 0.86468 0.92676 0.0
C4047 C 0.30313 0.86939 0.91558 0.0
C4048 C 0.31573 0.88623 0.92042 0.0
H4049 H 0.32162 0.81007 0.81213 0.0
H4050 H 0.32496 0.83086 0.84186 0.0
C4051 C 0.31496 0.89858 0.93629 0.0
C4052 C 0.30272 0.8574 0.89798 0.0
H4053 H 0.31782 0.82077 0.87751 0.0
C4054 C 0.29213 0.85997 0.88291 0.0
C4055 C 0.31229 0.84339 0.89617 0.0
C4056 C 0.32383 0.84052 0.91227 0.0
C4057 C 0.29068 0.84853 0.86581 0.0
C4058 C 0.29985 0.83411 0.86408 0.0
C4059 C 0.31075 0.83182 0.8791 0.0
C4060 C 0.2981 0.82111 0.84676 0.0
C4061 C 0.27945 0.85199 0.84974 0.0
C4062 C 0.28203 0.8086 0.84014 0.0
C4063 C 0.28013 0.79686 0.82322 0.0
C4064 C 0.2943 0.79761 0.81288 0.0
C4065 C 0.31051 0.80964 0.8198 0.0
C4066 C 0.31244 0.82134 0.83675 0.0
H4067 H 0.27646 0.86603 0.8524 0.0
H4068 H 0.28602 0.85075 0.83705 0.0
H4069 H 0.26687 0.84135 0.84722 0.0
H4070 H 0.27092 0.80818 0.84791 0.0
H4071 H 0.26746 0.78773 0.81791 0.0
H4072 H 0.92545 0.54498 0.71193 0.0
H4073 H 0.93429 0.53095 0.68297 0.0
H4074 H 0.95278 0.49048 0.71069 0.0
H4075 H 0.94346 0.50396 0.73911 0.0
H4076 H 0.97012 0.53037 0.68257 0.0
H4077 H 0.92682 0.45912 0.66159 0.0
H4078 H 0.92107 0.47721 0.67751 0.0
H4079 H 0.937 0.46505 0.68501 0.0
C4080 C 0.93131 0.53304 0.71165 0.0
C4081 C 0.93455 0.52594 0.72766 0.0
C4082 C 0.93613 0.52495 0.69524 0.0
C4083 C 0.94396 0.50964 0.69488 0.0
C4084 C 0.94648 0.50209 0.71076 0.0
H4085 H 0.01625 0.48536 0.62097 0.0
H4086 H 0.99705 0.4799 0.64473 0.0
C4087 C 0.94162 0.51013 0.72706 0.0
C4088 C 0.95201 0.50356 0.67874 0.0
H4089 H 0.95089 0.46695 0.64452 0.0
C4090 C 0.96588 0.51656 0.67417 0.0
C4091 C 0.94661 0.48533 0.66835 0.0
C4092 C 0.93198 0.47087 0.67326 0.0
C4093 C 0.9743 0.512 0.65896 0.0
C4094 C 0.96852 0.494 0.64814 0.0
C4095 C 0.95501 0.48074 0.65295 0.0
C4096 C 0.97615 0.48957 0.63129 0.0
C4097 C 0.98913 0.52654 0.65436 0.0
C4098 C 0.97002 0.49567 0.61555 0.0
C4099 C 0.98096 0.49892 0.60204 0.0
C4100 C 0.99799 0.49603 0.60432 0.0
C4101 C 1.00312 0.4876 0.61893 0.0
C4102 C 0.99219 0.48438 0.63244 0.0
H4103 H 0.99233 0.53962 0.66472 0.0
H4104 H 1.00107 0.52092 0.65355 0.0
H4105 H 0.98557 0.53004 0.64071 0.0
H4106 H 0.95766 0.49986 0.61472 0.0
H4107 H 0.97672 0.50521 0.5907 0.0
H4108 H 0.30294 0.19389 0.4323 0.0
H4109 H 0.30584 0.20852 0.40493 0.0
H4110 H 0.27057 0.24276 0.42317 0.0
H4111 H 0.26858 0.22899 0.45111 0.0
H4112 H 0.28439 0.20782 0.37751 0.0
H4113 H 0.3058 0.28243 0.40942 0.0
H4114 H 0.30466 0.26403 0.42286 0.0
H4115 H 0.28527 0.27191 0.41633 0.0
C4116 C 0.29598 0.20472 0.4306 0.0
C4117 C 0.28561 0.21033 0.44399 0.0
C4118 C 0.29762 0.21309 0.41487 0.0
C4119 C 0.2887 0.22711 0.41192 0.0
C4120 C 0.27814 0.23254 0.42523 0.0
H4121 H 0.2678 0.27412 0.31301 0.0
H4122 H 0.26633 0.26223 0.34224 0.0
C4123 C 0.27686 0.22449 0.4412 0.0
C4124 C 0.28975 0.23513 0.39448 0.0
H4125 H 0.29624 0.27596 0.37709 0.0
C4126 C 0.28714 0.22275 0.37756 0.0
C4127 C 0.29336 0.25466 0.39425 0.0
C4128 C 0.29761 0.26901 0.4117 0.0
C4129 C 0.28784 0.22923 0.36067 0.0
C4130 C 0.29103 0.24861 0.36049 0.0
C4131 C 0.29362 0.26107 0.37726 0.0
C4132 C 0.29199 0.25608 0.34294 0.0
C4133 C 0.28511 0.21531 0.343 0.0
C4134 C 0.30691 0.25665 0.33368 0.0
C4135 C 0.30782 0.26361 0.31712 0.0
C4136 C 0.29367 0.26972 0.30931 0.0
C4137 C 0.27869 0.26904 0.3185 0.0
C4138 C 0.27792 0.26244 0.33527 0.0
H4139 H 0.28053 0.2007 0.3452 0.0
H4140 H 0.27542 0.21843 0.33286 0.0
H4141 H 0.29765 0.21649 0.33695 0.0
H4142 H 0.31792 0.25184 0.33934 0.0
H4143 H 0.31957 0.26417 0.31036 0.0
H4144 H 0.32852 0.60482 0.54405 0.0
H4145 H 0.35446 0.5946 0.53395 0.0
H4146 H 0.34296 0.60839 0.48035 0.0
H4147 H 0.31772 0.6193 0.49058 0.0
H4148 H 0.35463 0.56672 0.50507 0.0
H4149 H 0.3939 0.63485 0.49351 0.0
H4150 H 0.3751 0.63321 0.50607 0.0
H4151 H 0.37222 0.62768 0.48137 0.0
C4152 C 0.3317 0.60567 0.53019 0.0
C4153 C 0.32148 0.61289 0.51809 0.0
C4154 C 0.3464 0.59996 0.52447 0.0
C4155 C 0.35066 0.60118 0.50657 0.0
C4156 C 0.34013 0.60794 0.49437 0.0
H4157 H 0.43568 0.55654 0.46066 0.0
H4158 H 0.40948 0.56958 0.46111 0.0
C4159 C 0.32572 0.61399 0.50018 0.0
C4160 C 0.36568 0.59448 0.50037 0.0
H4161 H 0.40579 0.60839 0.48632 0.0
C4162 C 0.36576 0.57577 0.50083 0.0
C4163 C 0.37993 0.60638 0.49455 0.0
C4164 C 0.38041 0.62669 0.49395 0.0
C4165 C 0.38022 0.56876 0.49642 0.0
C4166 C 0.3948 0.58088 0.49153 0.0
C4167 C 0.3944 0.5993 0.49005 0.0
C4168 C 0.41141 0.57534 0.49081 0.0
C4169 C 0.38018 0.54874 0.49789 0.0
C4170 C 0.42107 0.57494 0.50739 0.0
C4171 C 0.4358 0.56757 0.5072 0.0
C4172 C 0.44104 0.56055 0.4904 0.0
C4173 C 0.43176 0.56178 0.47375 0.0
C4174 C 0.41695 0.56924 0.47397 0.0
H4175 H 0.36668 0.54021 0.49759 0.0
H4176 H 0.38648 0.54226 0.48654 0.0
H4177 H 0.38776 0.54841 0.51111 0.0
H4178 H 0.41677 0.57964 0.52046 0.0
H4179 H 0.44255 0.5665 0.52021 0.0
H4180 H 0.85141 0.93884 0.49756 0.0
H4181 H 0.88207 0.95352 0.49771 0.0
H4182 H 0.89518 0.93168 0.5464 0.0
H4183 H 0.86409 0.91642 0.54615 0.0
H4184 H 0.90213 0.98058 0.5231 0.0
H4185 H 0.93273 0.91968 0.51511 0.0
H4186 H 0.90936 0.91726 0.51095 0.0
H4187 H 0.91998 0.92099 0.5341 0.0
C4188 C 0.86072 0.93699 0.50834 0.0
C4189 C 0.8551 0.92652 0.52198 0.0
C4190 C 0.87838 0.94544 0.50835 0.0
C4191 C 0.89113 0.94378 0.522 0.0
C4192 C 0.88571 0.933 0.53551 0.0
H4193 H 0.99876 0.00946 0.55203 0.0
H4194 H 0.96947 0.98928 0.55129 0.0
C4195 C 0.86789 0.92435 0.53544 0.0
C4196 C 0.90974 0.95435 0.52242 0.0
H4197 H 0.95209 0.94978 0.52126 0.0
C4198 C 0.91301 0.97377 0.52268 0.0
C4199 C 0.92405 0.94558 0.52168 0.0
C4200 C 0.92141 0.92471 0.52026 0.0
C4201 C 0.93001 0.98455 0.52244 0.0
C4202 C 0.94429 0.97585 0.52196 0.0
C4203 C 0.94114 0.95647 0.52169 0.0
C4204 C 0.96257 0.98687 0.52202 0.0
C4205 C 0.93267 1.00529 0.52273 0.0
C4206 C 0.96858 0.99204 0.50575 0.0
C4207 C 0.98545 1.00331 0.5061 0.0
C4208 C 0.99652 0.00994 0.52279 0.0
C4209 C 0.99052 1.0046 0.53899 0.0
C4210 C 0.97381 0.99304 0.53858 0.0
H4211 H 0.92051 0.01027 0.52474 0.0
H4212 H 0.9431 0.01308 0.53391 0.0
H4213 H 0.93706 0.00862 0.5095 0.0
H4214 H 0.96011 0.98757 0.49283 0.0
H4215 H 0.98962 0.00734 0.49342 0.0
H4216 H 0.91553 0.13355 0.25278 0.0
H4217 H 0.90125 0.1601 0.25448 0.0
H4218 H 0.85426 0.12527 0.26706 0.0
H4219 H 0.86834 0.0986 0.26485 0.0
H4220 H 0.87155 0.16704 0.23476 0.0
H4221 H 0.85925 0.17116 0.30746 0.0
H4222 H 0.87433 0.15825 0.29781 0.0
H4223 H 0.85116 0.14823 0.29391 0.0
C4224 C 0.90214 0.13137 0.25594 0.0
C4225 C 0.89339 0.11333 0.25862 0.0
C4226 C 0.89382 0.14684 0.2569 0.0
C4227 C 0.87636 0.14546 0.26114 0.0
C4228 C 0.86768 0.12748 0.26401 0.0
H4229 H 0.79974 0.22027 0.26959 0.0
H4230 H 0.81533 0.19494 0.26939 0.0
C4231 C 0.87586 0.1119 0.26262 0.0
C4232 C 0.86728 0.1624 0.26214 0.0
H4233 H 0.84542 0.18943 0.29003 0.0
C4234 C 0.866 0.17186 0.24699 0.0
C4235 C 0.85972 0.16944 0.27788 0.0
C4236 C 0.86127 0.16143 0.29529 0.0
C4237 C 0.85734 0.18709 0.24695 0.0
C4238 C 0.84966 0.19402 0.26262 0.0
C4239 C 0.85101 0.18463 0.27781 0.0
C4240 C 0.84005 0.21051 0.26329 0.0
C4241 C 0.85594 0.19526 0.22962 0.0
C4242 C 0.84822 0.22866 0.26033 0.0
C4243 C 0.83923 0.24359 0.26076 0.0
C4244 C 0.8214 0.24124 0.26391 0.0
C4245 C 0.81331 0.22313 0.267 0.0
C4246 C 0.82239 0.20836 0.26692 0.0
H4247 H 0.85859 0.18592 0.21751 0.0
H4248 H 0.84271 0.1979 0.22675 0.0
H4249 H 0.86566 0.2088 0.2314 0.0
H4250 H 0.8618 0.23147 0.25781 0.0
H4251 H 0.8463 0.25702 0.25835 0.0
H4252 H 0.73005 0.10724 0.98407 0.0
H4253 H 0.69902 0.09158 0.97831 0.0
H4254 H 0.6877 0.13306 0.02018 0.0
H4255 H 0.7185 0.14909 0.02554 0.0
H4256 H 0.68698 0.0778 0.00795 0.0
H4257 H 0.6443 0.12168 0.98344 0.0
H4258 H 0.66738 0.12595 0.98089 0.0
H4259 H 0.66016 0.13415 1.00243 0.0
C4260 C 0.72081 0.11328 0.99161 0.0
C4261 C 0.72652 0.12899 0.00555 0.0
C4262 C 0.70317 0.10448 0.98819 0.0
C4263 C 0.69124 0.11124 0.99883 0.0
C4264 C 0.69672 0.1279 0.01159 0.0
H4265 H 0.59619 0.06938 0.03945 0.0
H4266 H 0.62688 0.08293 0.0372 0.0
C4267 C 0.71432 0.13688 0.01481 0.0
C4268 C 0.67437 0.09891 0.99982 0.0
H4269 H 0.63096 0.09752 0.9996 0.0
C4270 C 0.67465 0.08189 0.00574 0.0
C4271 C 0.65851 0.10461 0.99727 0.0
C4272 C 0.65754 0.12253 0.99049 0.0
C4273 C 0.65939 0.07055 0.00967 0.0
C4274 C 0.64371 0.07651 0.00756 0.0
C4275 C 0.64328 0.09329 1.00131 0.0
C4276 C 0.62728 0.06534 0.01121 0.0
C4277 C 0.66008 0.05261 0.01655 0.0
C4278 C 0.61796 0.05062 0.99762 0.0
C4279 C 0.60047 0.043 0.99872 0.0
C4280 C 0.59232 0.05017 0.01342 0.0
C4281 C 0.60219 0.06376 0.02789 0.0
C4282 C 0.61965 0.07145 0.02669 0.0
H4283 H 0.67368 0.05078 0.0189 0.0
H4284 H 0.65412 0.05238 0.02962 0.0
H4285 H 0.65229 0.04057 0.00634 0.0
H4286 H 0.62386 0.04594 0.98558 0.0
H4287 H 0.59313 0.03227 0.98759 0.0
H4288 H 0.21879 0.51639 0.25416 0.0
H4289 H 0.2329 0.49269 0.26443 0.0
H4290 H 0.18222 0.45573 0.26277 0.0
H4291 H 0.16808 0.47884 0.25231 0.0
H4292 H 0.22527 0.47546 0.29721 0.0
H4293 H 0.21087 0.42525 0.23099 0.0
H4294 H 0.21054 0.44963 0.23241 0.0
H4295 H 0.19249 0.43359 0.2388 0.0
C4296 C 0.21074 0.50313 0.25583 0.0
C4297 C 0.19242 0.49935 0.25243 0.0
C4298 C 0.21876 0.48975 0.26173 0.0
C4299 C 0.20845 0.47265 0.2641 0.0
C4300 C 0.19024 0.46887 0.26071 0.0
H4301 H 0.23072 0.37037 0.28852 0.0
H4302 H 0.21525 0.39528 0.28583 0.0
C4303 C 0.18225 0.48209 0.25478 0.0
C4304 C 0.21655 0.45857 0.27039 0.0
H4305 H 0.22151 0.41447 0.25721 0.0
C4306 C 0.22459 0.46212 0.28854 0.0
C4307 C 0.21526 0.44129 0.2589 0.0
C4308 C 0.20695 0.4372 0.23913 0.0
C4309 C 0.23141 0.44849 0.29568 0.0
C4310 C 0.23021 0.43122 0.28417 0.0
C4311 C 0.22208 0.4277 0.26601 0.0
C4312 C 0.23893 0.41721 0.28982 0.0
C4313 C 0.23974 0.45263 0.3154 0.0
C4314 C 0.2572 0.42161 0.29322 0.0
C4315 C 0.26599 0.40753 0.29468 0.0
C4316 C 0.25657 0.38891 0.29261 0.0
C4317 C 0.2382 0.38466 0.29014 0.0
C4318 C 0.2294 0.3988 0.28872 0.0
H4319 H 0.23467 0.46358 0.32379 0.0
H4320 H 0.23742 0.43988 0.32178 0.0
H4321 H 0.25408 0.45788 0.31579 0.0
H4322 H 0.26471 0.43569 0.2935 0.0
H4323 H 0.28017 0.41109 0.29615 0.0
H4324 H 0.26694 0.43948 0.02793 0.0
H4325 H 0.24163 0.45201 0.01933 0.0
H4326 H 0.20813 0.39674 0.01137 0.0
H4327 H 0.23335 0.38409 0.02 0.0
H4328 H 0.21637 0.44174 0.98589 0.0
H4329 H 0.18581 0.42883 0.04924 0.0
H4330 H 0.20841 0.42844 0.04716 0.0
H4331 H 0.19122 0.40907 0.03577 0.0
C4332 C 0.25418 0.42999 0.02445 0.0
C4333 C 0.25216 0.41081 0.02492 0.0
C4334 C 0.23974 0.43716 0.0194 0.0
C4335 C 0.22295 0.42536 0.01487 0.0
C4336 C 0.22092 0.40616 0.01503 0.0
H4337 H 0.12072 0.45334 1.0028 0.0
H4338 H 0.1441 0.43624 1.00248 0.0
C4339 C 0.23537 0.39895 0.01999 0.0
C4340 C 0.20752 0.43331 0.01073 0.0
H4341 H 0.17058 0.44185 0.02802 0.0
C4342 C 0.2063 0.44173 0.99505 0.0
C4343 C 0.19431 0.43315 0.02257 0.0
C4344 C 0.19497 0.42452 0.03971 0.0
C4345 C 0.19222 0.44996 0.99093 0.0
C4346 C 0.17926 0.45028 1.00313 0.0
C4347 C 0.18042 0.44161 0.01862 0.0
C4348 C 0.16475 0.46013 1.00074 0.0
C4349 C 0.19124 0.45789 0.97339 0.0
C4350 C 0.16843 0.47924 0.99968 0.0
C4351 C 0.15508 0.48902 0.99981 0.0
C4352 C 0.13769 0.48004 1.00122 0.0
C4353 C 0.13394 0.46078 1.00186 0.0
C4354 C 0.14731 0.45096 1.00159 0.0
H4355 H 0.19795 0.45077 0.96281 0.0
H4356 H 0.17747 0.45655 0.96761 0.0
H4357 H 0.19795 0.47292 0.9763 0.0
H4358 H 0.18176 0.48684 0.99955 0.0
H4359 H 0.15857 0.50389 0.99967 0.0
H4360 H 0.87998 1.00114 0.27706 0.0
H4361 H 0.86346 0.96985 0.28042 0.0
H4362 H 0.88153 0.94577 0.23108 0.0
H4363 H 0.89858 0.97651 0.22838 0.0
H4364 H 0.83793 0.94321 0.2647 0.0
H4365 H 0.89332 0.90928 0.25894 0.0
H4366 H 0.89626 0.93415 0.26045 0.0
H4367 H 0.88913 0.91866 0.23861 0.0
C4368 C 0.88031 0.98923 0.26679 0.0
C4369 C 0.89079 0.99183 0.25233 0.0
C4370 C 0.87086 0.97105 0.26879 0.0
C4371 C 0.87137 0.95459 0.25642 0.0
C4372 C 0.88119 0.9575 0.24153 0.0
H4373 H 0.82204 0.83141 0.24021 0.0
H4374 H 0.83944 0.86288 0.23878 0.0
C4375 C 0.89083 0.97546 0.23975 0.0
C4376 C 0.86156 0.9347 0.25871 0.0
H4377 H 0.86511 0.88876 0.25593 0.0
C4378 C 0.84407 0.93144 0.26289 0.0
C4379 C 0.86904 0.91867 0.25652 0.0
C4380 C 0.88801 0.92038 0.25359 0.0
C4381 C 0.83401 0.91331 0.26423 0.0
C4382 C 0.8414 0.89723 0.26174 0.0
C4383 C 0.85895 0.90052 0.25775 0.0
C4384 C 0.8313 0.87717 0.26319 0.0
C4385 C 0.81516 0.9117 0.26761 0.0
C4386 C 0.82105 0.87359 0.27766 0.0
C4387 C 0.81079 0.85551 0.27825 0.0
C4388 C 0.81079 0.83972 0.26493 0.0
C4389 C 0.82177 0.84291 0.25099 0.0
C4390 C 0.83174 0.86119 0.25013 0.0
H4391 H 0.80992 0.92321 0.26303 0.0
H4392 H 0.8067 0.89821 0.26035 0.0
H4393 H 0.8143 0.91276 0.28261 0.0
H4394 H 0.82077 0.88487 0.28863 0.0
H4395 H 0.80261 0.8539 0.28922 0.0
H4396 H 0.65825 0.11306 0.74059 0.0
H4397 H 0.67877 0.14354 0.74916 0.0
H4398 H 0.70796 0.12208 0.78948 0.0
H4399 H 0.6878 0.09146 0.78067 0.0
H4400 H 0.69639 0.1704 0.78243 0.0
H4401 H 0.73767 0.12835 0.7453 0.0
H4402 H 0.71444 0.11979 0.74521 0.0
H4403 H 0.72927 0.12004 0.76509 0.0
C4404 C 0.66868 0.11509 0.75172 0.0
C4405 C 0.67191 0.10003 0.75965 0.0
C4406 C 0.68028 0.13244 0.75665 0.0
C4407 C 0.69488 0.13467 0.76964 0.0
C4408 C 0.69676 0.12032 0.77928 0.0
H4409 H 0.78299 0.22986 0.78857 0.0
H4410 H 0.76411 0.20002 0.79164 0.0
C4411 C 0.68538 0.10292 0.77415 0.0
C4412 C 0.70978 0.15017 0.77006 0.0
H4413 H 0.74985 0.16035 0.75496 0.0
C4414 C 0.70821 0.16828 0.77674 0.0
C4415 C 0.72489 0.14706 0.76214 0.0
C4416 C 0.7267 0.12779 0.75387 0.0
C4417 C 0.72155 0.18361 0.77558 0.0
C4418 C 0.73653 0.18041 0.76761 0.0
C4419 C 0.73826 0.16237 0.76122 0.0
C4420 C 0.74993 0.19585 0.7645 0.0
C4421 C 0.71938 0.20314 0.78215 0.0
C4422 C 0.74853 0.20232 0.74779 0.0
C4423 C 0.75929 0.21914 0.74594 0.0
C4424 C 0.77122 0.22947 0.76092 0.0
C4425 C 0.77365 0.22206 0.777 0.0
C4426 C 0.76297 0.20518 0.77878 0.0
H4427 H 0.70712 0.20313 0.78859 0.0
H4428 H 0.73068 0.211 0.79231 0.0
H4429 H 0.71916 0.2107 0.77033 0.0
H4430 H 0.7384 0.195 0.73672 0.0
H4431 H 0.75722 0.22475 0.73347 0.0
loop_
_geom_bond_atom_site_label_1
_geom_bond_atom_site_label_2
_geom_bond_distance
_geom_bond_site_symmetry_2
_ccdc_geom_bond_type
C0 O1 1.306 . S
C0 O3 1.160 . S
O1 C0 1.306 . S
O1 Cd2 2.228 . S
Cd2 O1 2.228 . S
Cd2 O6 2.273 . S
Cd2 O10 2.277 . S
O3 C0 1.160 . S
O3 Cd4 2.203 . S
Cd4 O3 2.203 . S
Cd4 O6 2.411 . S
Cd4 O7 2.333 . S
Cd4 O8 2.352 . S
Cd4 O12 2.277 . S
Cd4 O13 2.356 . S
C5 O10 1.209 . S
C5 O12 1.226 . S
O6 Cd2 2.273 . S
O6 Cd4 2.411 . S
O6 C9 1.320 . S
O7 Cd4 2.333 . S
O7 C9 1.214 . S
O8 Cd4 2.352 . S
O8 C11 1.258 . S
C9 O6 1.320 . S
C9 O7 1.214 . S
O10 Cd2 2.277 . S
O10 C5 1.209 . S
C11 O8 1.258 . S
C11 O13 1.282 . S
O12 Cd4 2.277 . S
O12 C5 1.226 . S
O13 Cd4 2.356 . S
O13 C11 1.282 . S
C14 O15 1.306 . S
C14 O17 1.160 . S
O15 C14 1.306 . S
O15 Cd16 2.228 1_655 S
Cd16 O15 2.228 1_455 S
Cd16 O20 2.273 . S
Cd16 O24 2.277 1_455 S
O17 C14 1.160 . S
O17 Cd18 2.148 1_655 S
Cd18 O17 2.148 1_455 S
Cd18 O20 2.438 . S
Cd18 O21 2.389 . S
Cd18 O22 2.343 . S
Cd18 O26 2.281 1_455 S
Cd18 O27 2.360 . S
C19 O24 1.209 . S
C19 O26 1.226 . S
O20 Cd16 2.273 . S
O20 Cd18 2.438 . S
O20 C23 1.320 . S
O21 Cd18 2.389 . S
O21 C23 1.214 . S
O22 Cd18 2.343 . S
O22 C25 1.258 . S
C23 O20 1.320 . S
C23 O21 1.214 . S
O24 Cd16 2.277 1_655 S
O24 C19 1.209 . S
C25 O22 1.258 . S
C25 O27 1.282 . S
O26 Cd18 2.281 1_655 S
O26 C19 1.226 . S
O27 Cd18 2.360 . S
O27 C25 1.282 . S
C28 O29 1.306 . S
C28 O31 1.160 . S
O29 C28 1.306 . S
O29 Cd30 2.228 . S
Cd30 O29 2.228 . S
Cd30 O34 2.273 . S
Cd30 O38 2.277 . S
O31 C28 1.160 . S
O31 Cd32 2.203 . S
Cd32 O31 2.203 . S
Cd32 O34 2.411 . S
Cd32 O35 2.333 . S
Cd32 O36 2.352 . S
Cd32 O40 2.277 . S
Cd32 O41 2.356 . S
C33 O38 1.209 . S
C33 O40 1.226 . S
O34 Cd30 2.273 . S
O34 Cd32 2.411 . S
O34 C37 1.320 . S
O35 Cd32 2.333 . S
O35 C37 1.214 . S
O36 Cd32 2.352 . S
O36 C39 1.258 . S
C37 O34 1.320 . S
C37 O35 1.214 . S
O38 Cd30 2.277 . S
O38 C33 1.209 . S
C39 O36 1.258 . S
C39 O41 1.282 . S
O40 Cd32 2.277 . S
O40 C33 1.226 . S
O41 Cd32 2.356 . S
O41 C39 1.282 . S
C42 O43 1.306 . S
C42 O45 1.160 . S
O43 C42 1.306 . S
O43 Cd44 2.228 . S
Cd44 O43 2.228 . S
Cd44 O48 2.273 . S
Cd44 O52 2.277 . S
O45 C42 1.160 . S
O45 Cd46 2.203 . S
Cd46 O45 2.203 . S
Cd46 O48 2.411 . S
Cd46 O49 2.333 . S
Cd46 O50 2.352 . S
Cd46 O54 2.277 . S
Cd46 O55 2.356 . S
C47 O52 1.209 . S
C47 O54 1.226 . S
O48 Cd44 2.273 . S
O48 Cd46 2.411 . S
O48 C51 1.320 . S
O49 Cd46 2.333 . S
O49 C51 1.214 . S
O50 Cd46 2.352 . S
O50 C53 1.258 . S
C51 O48 1.320 . S
C51 O49 1.214 . S
O52 Cd44 2.277 . S
O52 C47 1.209 . S
C53 O50 1.258 . S
C53 O55 1.282 . S
O54 Cd46 2.277 . S
O54 C47 1.226 . S
O55 Cd46 2.356 . S
O55 C53 1.282 . S
C56 O57 1.306 . S
C56 O59 1.160 . S
O57 C56 1.306 . S
O57 Cd58 2.228 . S
Cd58 O57 2.228 . S
Cd58 O62 2.273 . S
Cd58 O66 2.277 . S
O59 C56 1.160 . S
O59 Cd60 2.203 . S
Cd60 O59 2.203 . S
Cd60 O62 2.411 . S
Cd60 O63 2.333 . S
Cd60 O64 2.352 . S
Cd60 O68 2.277 . S
Cd60 O69 2.356 . S
C61 O66 1.209 . S
C61 O68 1.226 . S
O62 Cd58 2.273 . S
O62 Cd60 2.411 . S
O62 C65 1.320 . S
O63 Cd60 2.333 . S
O63 C65 1.214 . S
O64 Cd60 2.352 . S
O64 C67 1.258 . S
C65 O62 1.320 . S
C65 O63 1.214 . S
O66 Cd58 2.277 . S
O66 C61 1.209 . S
C67 O64 1.258 . S
C67 O69 1.282 . S
O68 Cd60 2.277 . S
O68 C61 1.226 . S
O69 Cd60 2.356 . S
O69 C67 1.282 . S
C70 O71 1.306 . S
C70 O73 1.160 . S
O71 C70 1.306 . S
O71 Cd72 2.228 . S
Cd72 O71 2.228 . S
Cd72 O76 2.273 . S
Cd72 O80 2.277 . S
O73 C70 1.160 . S
O73 Cd74 2.203 . S
Cd74 O73 2.203 . S
Cd74 O76 2.411 . S
Cd74 O77 2.333 . S
Cd74 O78 2.352 . S
Cd74 O82 2.277 . S
Cd74 O83 2.356 . S
C75 O80 1.209 . S
C75 O82 1.226 . S
O76 Cd72 2.273 . S
O76 Cd74 2.411 . S
O76 C79 1.320 . S
O77 Cd74 2.333 . S
O77 C79 1.214 . S
O78 Cd74 2.352 . S
O78 C81 1.258 . S
C79 O76 1.320 . S
C79 O77 1.214 . S
O80 Cd72 2.277 . S
O80 C75 1.209 . S
C81 O78 1.258 . S
C81 O83 1.282 . S
O82 Cd74 2.277 . S
O82 C75 1.226 . S
O83 Cd74 2.356 . S
O83 C81 1.282 . S
C84 O85 1.306 . S
C84 O87 1.160 . S
O85 C84 1.306 . S
O85 Cd86 2.228 . S
Cd86 O85 2.228 . S
Cd86 O90 2.273 . S
Cd86 O94 2.277 . S
O87 C84 1.160 . S
O87 Cd88 2.203 . S
Cd88 O87 2.203 . S
Cd88 O90 2.411 . S
Cd88 O91 2.333 . S
Cd88 O92 2.352 . S
Cd88 O96 2.277 . S
Cd88 O97 2.356 . S
C89 O94 1.209 . S
C89 O96 1.226 . S
O90 Cd86 2.273 . S
O90 Cd88 2.411 . S
O90 C93 1.320 . S
O91 Cd88 2.333 . S
O91 C93 1.214 . S
O92 Cd88 2.352 . S
O92 C95 1.258 . S
C93 O90 1.320 . S
C93 O91 1.214 . S
O94 Cd86 2.277 . S
O94 C89 1.209 . S
C95 O92 1.258 . S
C95 O97 1.282 . S
O96 Cd88 2.277 . S
O96 C89 1.226 . S
O97 Cd88 2.356 . S
O97 C95 1.282 . S
C98 O99 1.306 . S
C98 O101 1.160 . S
O99 C98 1.306 . S
O99 Cd100 2.228 1_655 S
Cd100 O99 2.228 1_455 S
Cd100 O104 2.273 . S
Cd100 O108 2.277 . S
O101 C98 1.160 . S
O101 Cd102 2.203 1_655 S
Cd102 O101 2.203 1_455 S
Cd102 O104 2.411 . S
Cd102 O105 2.333 . S
Cd102 O106 2.352 . S
Cd102 O110 2.277 . S
Cd102 O111 2.356 . S
C103 O108 1.209 . S
C103 O110 1.226 . S
O104 Cd100 2.273 . S
O104 Cd102 2.411 . S
O104 C107 1.320 . S
O105 Cd102 2.333 . S
O105 C107 1.214 . S
O106 Cd102 2.352 . S
O106 C109 1.258 . S
C107 O104 1.320 . S
C107 O105 1.214 . S
O108 Cd100 2.277 . S
O108 C103 1.209 . S
C109 O106 1.258 . S
C109 O111 1.282 . S
O110 Cd102 2.277 . S
O110 C103 1.226 . S
O111 Cd102 2.356 . S
O111 C109 1.282 . S
C112 O113 1.322 . S
C112 O115 1.160 . S
O113 C112 1.322 . S
O113 Cd114 2.210 1_545 S
Cd114 O113 2.210 1_565 S
Cd114 O118 2.273 1_565 S
Cd114 O122 2.277 . S
O115 C112 1.160 . S
O115 Cd116 2.203 . S
Cd116 O115 2.203 . S
Cd116 O118 2.411 . S
Cd116 O119 2.333 . S
Cd116 O120 2.352 . S
Cd116 O124 2.277 1_545 S
Cd116 O125 2.356 . S
C117 O122 1.209 . S
C117 O124 1.226 . S
O118 Cd114 2.273 1_545 S
O118 Cd116 2.411 . S
O118 C121 1.320 . S
O119 Cd116 2.333 . S
O119 C121 1.214 . S
O120 Cd116 2.352 . S
O120 C123 1.258 . S
C121 O118 1.320 . S
C121 O119 1.214 . S
O122 Cd114 2.277 . S
O122 C117 1.209 . S
C123 O120 1.258 . S
C123 O125 1.282 . S
O124 Cd116 2.277 1_565 S
O124 C117 1.226 . S
O125 Cd116 2.356 . S
O125 C123 1.282 . S
C126 O127 1.306 . S
C126 O129 1.160 . S
O127 C126 1.306 . S
O127 Cd128 2.228 . S
Cd128 O127 2.228 . S
Cd128 O132 2.273 . S
Cd128 O136 2.277 . S
O129 C126 1.160 . S
O129 Cd130 2.203 . S
Cd130 O129 2.203 . S
Cd130 O132 2.411 . S
Cd130 O133 2.333 . S
Cd130 O134 2.352 . S
Cd130 O138 2.277 . S
Cd130 O139 2.356 . S
C131 O136 1.209 . S
C131 O138 1.226 . S
O132 Cd128 2.273 . S
O132 Cd130 2.411 . S
O132 C135 1.320 . S
O133 Cd130 2.333 . S
O133 C135 1.214 . S
O134 Cd130 2.352 . S
O134 C137 1.258 . S
C135 O132 1.320 . S
C135 O133 1.214 . S
O136 Cd128 2.277 . S
O136 C131 1.209 . S
C137 O134 1.258 . S
C137 O139 1.282 . S
O138 Cd130 2.277 . S
O138 C131 1.226 . S
O139 Cd130 2.356 . S
O139 C137 1.282 . S
C140 O141 1.306 . S
C140 O143 1.160 . S
O141 C140 1.306 . S
O141 Cd142 2.228 . S
Cd142 O141 2.228 . S
Cd142 O146 2.273 1_545 S
Cd142 O150 2.277 . S
O143 C140 1.160 . S
O143 Cd144 2.205 1_545 S
Cd144 O143 2.205 1_565 S
Cd144 O146 2.402 . S
Cd144 O147 2.329 . S
Cd144 O148 2.390 . S
Cd144 O152 2.249 1_565 S
Cd144 O153 2.384 . S
C145 O150 1.209 . S
C145 O152 1.226 . S
O146 Cd142 2.273 1_565 S
O146 Cd144 2.402 . S
O146 C149 1.320 . S
O147 Cd144 2.329 . S
O147 C149 1.214 . S
O148 Cd144 2.390 . S
O148 C151 1.258 . S
C149 O146 1.320 . S
C149 O147 1.214 . S
O150 Cd142 2.277 . S
O150 C145 1.209 . S
C151 O148 1.258 . S
C151 O153 1.282 . S
O152 Cd144 2.249 1_545 S
O152 C145 1.226 . S
O153 Cd144 2.384 . S
O153 C151 1.282 . S
C154 O155 1.306 . S
C154 O157 1.160 . S
O155 C154 1.306 . S
O155 Cd156 2.228 1_554 S
Cd156 O155 2.228 1_556 S
Cd156 O160 2.273 1_556 S
Cd156 O164 2.277 . S
O157 C154 1.160 . S
O157 Cd158 2.203 . S
Cd158 O157 2.203 . S
Cd158 O160 2.411 . S
Cd158 O161 2.333 . S
Cd158 O162 2.352 . S
Cd158 O166 2.277 1_554 S
Cd158 O167 2.356 . S
C159 O164 1.209 . S
C159 O166 1.226 . S
O160 Cd156 2.273 1_554 S
O160 Cd158 2.411 . S
O160 C163 1.320 . S
O161 Cd158 2.333 . S
O161 C163 1.214 . S
O162 Cd158 2.352 . S
O162 C165 1.258 . S
C163 O160 1.320 . S
C163 O161 1.214 . S
O164 Cd156 2.277 . S
O164 C159 1.209 . S
C165 O162 1.258 . S
C165 O167 1.282 . S
O166 Cd158 2.277 1_556 S
O166 C159 1.226 . S
O167 Cd158 2.356 . S
O167 C165 1.282 . S
C168 O169 1.306 . S
C168 O171 1.160 . S
O169 C168 1.306 . S
O169 Cd170 2.228 1_554 S
Cd170 O169 2.228 1_556 S
Cd170 O174 2.273 1_556 S
Cd170 O178 2.277 . S
O171 C168 1.160 . S
O171 Cd172 2.203 . S
Cd172 O171 2.203 . S
Cd172 O174 2.411 . S
Cd172 O175 2.333 . S
Cd172 O176 2.352 . S
Cd172 O180 2.277 1_554 S
Cd172 O181 2.356 . S
C173 O178 1.209 . S
C173 O180 1.226 . S
O174 Cd170 2.273 1_554 S
O174 Cd172 2.411 . S
O174 C177 1.320 . S
O175 Cd172 2.333 . S
O175 C177 1.214 . S
O176 Cd172 2.352 . S
O176 C179 1.258 . S
C177 O174 1.320 . S
C177 O175 1.214 . S
O178 Cd170 2.277 . S
O178 C173 1.209 . S
C179 O176 1.258 . S
C179 O181 1.282 . S
O180 Cd172 2.277 1_556 S
O180 C173 1.226 . S
O181 Cd172 2.356 . S
O181 C179 1.282 . S
C182 O183 1.306 . S
C182 O185 1.160 . S
O183 C182 1.306 . S
O183 Cd184 2.228 . S
Cd184 O183 2.228 . S
Cd184 O188 2.273 . S
Cd184 O192 2.277 . S
O185 C182 1.160 . S
O185 Cd186 2.203 . S
Cd186 O185 2.203 . S
Cd186 O188 2.411 . S
Cd186 O189 2.333 . S
Cd186 O190 2.352 1_554 S
Cd186 O194 2.277 . S
Cd186 O195 2.356 1_554 S
C187 O192 1.209 . S
C187 O194 1.226 . S
O188 Cd184 2.273 . S
O188 Cd186 2.411 . S
O188 C191 1.320 . S
O189 Cd186 2.333 . S
O189 C191 1.214 . S
O190 Cd186 2.352 1_556 S
O190 C193 1.258 . S
C191 O188 1.320 . S
C191 O189 1.214 . S
O192 Cd184 2.277 . S
O192 C187 1.209 . S
C193 O190 1.258 . S
C193 O195 1.282 . S
O194 Cd186 2.277 . S
O194 C187 1.226 . S
O195 Cd186 2.356 1_556 S
O195 C193 1.282 . S
C196 O197 1.306 . S
C196 O199 1.160 . S
O197 C196 1.306 . S
O197 Cd198 2.228 . S
Cd198 O197 2.228 . S
Cd198 O202 2.273 . S
Cd198 O206 2.277 . S
O199 C196 1.160 . S
O199 Cd200 2.203 . S
Cd200 O199 2.203 . S
Cd200 O202 2.411 . S
Cd200 O203 2.333 . S
Cd200 O204 2.352 . S
Cd200 O208 2.277 . S
Cd200 O209 2.356 . S
C201 O206 1.209 . S
C201 O208 1.226 . S
O202 Cd198 2.273 . S
O202 Cd200 2.411 . S
O202 C205 1.320 . S
O203 Cd200 2.333 . S
O203 C205 1.214 . S
O204 Cd200 2.352 . S
O204 C207 1.258 . S
C205 O202 1.320 . S
C205 O203 1.214 . S
O206 Cd198 2.277 . S
O206 C201 1.209 . S
C207 O204 1.258 . S
C207 O209 1.282 . S
O208 Cd200 2.277 . S
O208 C201 1.226 . S
O209 Cd200 2.356 . S
O209 C207 1.282 . S
C210 O211 1.306 . S
C210 O213 1.160 . S
O211 C210 1.306 . S
O211 Cd212 2.228 . S
Cd212 O211 2.228 . S
Cd212 O216 2.273 . S
Cd212 O220 2.277 . S
O213 C210 1.160 . S
O213 Cd214 2.203 . S
Cd214 O213 2.203 . S
Cd214 O216 2.411 . S
Cd214 O217 2.333 . S
Cd214 O218 2.352 . S
Cd214 O222 2.277 . S
Cd214 O223 2.356 . S
C215 O220 1.209 . S
C215 O222 1.226 . S
O216 Cd212 2.273 . S
O216 Cd214 2.411 . S
O216 C219 1.320 . S
O217 Cd214 2.333 . S
O217 C219 1.214 . S
O218 Cd214 2.352 . S
O218 C221 1.258 . S
C219 O216 1.320 . S
C219 O217 1.214 . S
O220 Cd212 2.277 . S
O220 C215 1.209 . S
C221 O218 1.258 . S
C221 O223 1.282 . S
O222 Cd214 2.277 . S
O222 C215 1.226 . S
O223 Cd214 2.356 . S
O223 C221 1.282 . S
C224 O225 1.306 . S
C224 O227 1.160 . S
O225 C224 1.306 . S
O225 Cd226 2.228 . S
Cd226 O225 2.228 . S
Cd226 O230 2.273 . S
Cd226 O234 2.277 . S
O227 C224 1.160 . S
O227 Cd228 2.203 . S
Cd228 O227 2.203 . S
Cd228 O230 2.411 . S
Cd228 O231 2.333 . S
Cd228 O232 2.352 . S
Cd228 O236 2.277 . S
Cd228 O237 2.356 . S
C229 O234 1.209 . S
C229 O236 1.226 . S
O230 Cd226 2.273 . S
O230 Cd228 2.411 . S
O230 C233 1.320 . S
O231 Cd228 2.333 . S
O231 C233 1.214 . S
O232 Cd228 2.352 . S
O232 C235 1.258 . S
C233 O230 1.320 . S
C233 O231 1.214 . S
O234 Cd226 2.277 . S
O234 C229 1.209 . S
C235 O232 1.258 . S
C235 O237 1.282 . S
O236 Cd228 2.277 . S
O236 C229 1.226 . S
O237 Cd228 2.356 . S
O237 C235 1.282 . S
C238 O239 1.306 . S
C238 O241 1.160 . S
O239 C238 1.306 . S
O239 Cd240 2.228 . S
Cd240 O239 2.228 . S
Cd240 O244 2.273 . S
Cd240 O248 2.277 . S
O241 C238 1.160 . S
O241 Cd242 2.203 . S
Cd242 O241 2.203 . S
Cd242 O244 2.411 . S
Cd242 O245 2.333 . S
Cd242 O246 2.352 . S
Cd242 O250 2.277 . S
Cd242 O251 2.356 . S
C243 O248 1.209 . S
C243 O250 1.226 . S
O244 Cd240 2.273 . S
O244 Cd242 2.411 . S
O244 C247 1.320 . S
O245 Cd242 2.333 . S
O245 C247 1.214 . S
O246 Cd242 2.352 . S
O246 C249 1.258 . S
C247 O244 1.320 . S
C247 O245 1.214 . S
O248 Cd240 2.277 . S
O248 C243 1.209 . S
C249 O246 1.258 . S
C249 O251 1.282 . S
O250 Cd242 2.277 . S
O250 C243 1.226 . S
O251 Cd242 2.356 . S
O251 C249 1.282 . S
C252 O253 1.306 . S
C252 O255 1.160 . S
O253 C252 1.306 . S
O253 Cd254 2.228 . S
Cd254 O253 2.228 . S
Cd254 O258 2.273 . S
Cd254 O262 2.277 . S
O255 C252 1.160 . S
O255 Cd256 2.203 . S
Cd256 O255 2.203 . S
Cd256 O258 2.411 . S
Cd256 O259 2.333 . S
Cd256 O260 2.352 . S
Cd256 O264 2.277 . S
Cd256 O265 2.356 . S
C257 O262 1.209 . S
C257 O264 1.226 . S
O258 Cd254 2.273 . S
O258 Cd256 2.411 . S
O258 C261 1.320 . S
O259 Cd256 2.333 . S
O259 C261 1.214 . S
O260 Cd256 2.352 . S
O260 C263 1.258 . S
C261 O258 1.320 . S
C261 O259 1.214 . S
O262 Cd254 2.277 . S
O262 C257 1.209 . S
C263 O260 1.258 . S
C263 O265 1.282 . S
O264 Cd256 2.277 . S
O264 C257 1.226 . S
O265 Cd256 2.356 . S
O265 C263 1.282 . S
C266 O267 1.306 . S
C266 O269 1.160 . S
O267 C266 1.306 . S
O267 Cd268 2.228 . S
Cd268 O267 2.228 . S
Cd268 O272 2.273 . S
Cd268 O276 2.277 . S
O269 C266 1.160 . S
O269 Cd270 2.203 . S
Cd270 O269 2.203 . S
Cd270 O272 2.411 . S
Cd270 O273 2.333 . S
Cd270 O274 2.352 . S
Cd270 O278 2.277 . S
Cd270 O279 2.356 . S
C271 O276 1.209 . S
C271 O278 1.226 . S
O272 Cd268 2.273 . S
O272 Cd270 2.411 . S
O272 C275 1.320 . S
O273 Cd270 2.333 . S
O273 C275 1.214 . S
O274 Cd270 2.352 . S
O274 C277 1.258 . S
C275 O272 1.320 . S
C275 O273 1.214 . S
O276 Cd268 2.277 . S
O276 C271 1.209 . S
C277 O274 1.258 . S
C277 O279 1.282 . S
O278 Cd270 2.277 . S
O278 C271 1.226 . S
O279 Cd270 2.356 . S
O279 C277 1.282 . S
C280 O281 1.306 . S
C280 O283 1.160 . S
O281 C280 1.306 . S
O281 Cd282 2.228 . S
Cd282 O281 2.228 . S
Cd282 O286 2.273 . S
Cd282 O290 2.277 . S
O283 C280 1.160 . S
O283 Cd284 2.203 . S
Cd284 O283 2.203 . S
Cd284 O286 2.411 . S
Cd284 O287 2.332 1_554 S
Cd284 O288 2.352 1_554 S
Cd284 O292 2.277 . S
Cd284 O293 2.356 1_554 S
C285 O290 1.209 . S
C285 O292 1.226 . S
O286 Cd282 2.273 . S
O286 Cd284 2.411 . S
O286 C289 1.323 . S
O287 Cd284 2.332 1_556 S
O287 C289 1.209 1_556 S
O288 Cd284 2.352 1_556 S
O288 C291 1.258 . S
C289 O286 1.323 . S
C289 O287 1.209 1_554 S
O290 Cd282 2.277 . S
O290 C285 1.209 . S
C291 O288 1.258 . S
C291 O293 1.282 . S
O292 Cd284 2.277 . S
O292 C285 1.226 . S
O293 Cd284 2.356 1_556 S
O293 C291 1.282 . S
C294 O295 1.306 . S
C294 O297 1.160 . S
O295 C294 1.306 . S
O295 Cd296 2.228 . S
Cd296 O295 2.228 . S
Cd296 O300 2.273 . S
Cd296 O304 2.277 . S
O297 C294 1.160 . S
O297 Cd298 2.203 . S
Cd298 O297 2.203 . S
Cd298 O300 2.411 . S
Cd298 O301 2.333 . S
Cd298 O302 2.352 . S
Cd298 O306 2.277 . S
Cd298 O307 2.356 . S
C299 O304 1.209 . S
C299 O306 1.226 . S
O300 Cd296 2.273 . S
O300 Cd298 2.411 . S
O300 C303 1.320 . S
O301 Cd298 2.333 . S
O301 C303 1.214 . S
O302 Cd298 2.352 . S
O302 C305 1.258 . S
C303 O300 1.320 . S
C303 O301 1.214 . S
O304 Cd296 2.277 . S
O304 C299 1.209 . S
C305 O302 1.258 . S
C305 O307 1.282 . S
O306 Cd298 2.277 . S
O306 C299 1.226 . S
O307 Cd298 2.356 . S
O307 C305 1.282 . S
C308 O309 1.306 . S
C308 O311 1.160 . S
O309 C308 1.306 . S
O309 Cd310 2.228 . S
Cd310 O309 2.228 . S
Cd310 O314 2.273 . S
Cd310 O318 2.277 . S
O311 C308 1.160 . S
O311 Cd312 2.203 . S
Cd312 O311 2.203 . S
Cd312 O314 2.411 . S
Cd312 O315 2.333 . S
Cd312 O316 2.352 . S
Cd312 O320 2.277 . S
Cd312 O321 2.356 . S
C313 O318 1.209 . S
C313 O320 1.226 . S
O314 Cd310 2.273 . S
O314 Cd312 2.411 . S
O314 C317 1.320 . S
O315 Cd312 2.333 . S
O315 C317 1.214 . S
O316 Cd312 2.352 . S
O316 C319 1.258 . S
C317 O314 1.320 . S
C317 O315 1.214 . S
O318 Cd310 2.277 . S
O318 C313 1.209 . S
C319 O316 1.258 . S
C319 O321 1.282 . S
O320 Cd312 2.277 . S
O320 C313 1.226 . S
O321 Cd312 2.356 . S
O321 C319 1.282 . S
C322 O323 1.306 . S
C322 O325 1.160 . S
O323 C322 1.306 . S
O323 Cd324 2.228 . S
Cd324 O323 2.228 . S
Cd324 O328 2.273 . S
Cd324 O332 2.277 . S
O325 C322 1.160 . S
O325 Cd326 2.203 . S
Cd326 O325 2.203 . S
Cd326 O328 2.411 . S
Cd326 O329 2.333 . S
Cd326 O330 2.352 . S
Cd326 O334 2.277 . S
Cd326 O335 2.356 . S
C327 O332 1.209 . S
C327 O334 1.226 . S
O328 Cd324 2.273 . S
O328 Cd326 2.411 . S
O328 C331 1.320 . S
O329 Cd326 2.333 . S
O329 C331 1.214 . S
O330 Cd326 2.352 . S
O330 C333 1.258 . S
C331 O328 1.320 . S
C331 O329 1.214 . S
O332 Cd324 2.277 . S
O332 C327 1.209 . S
C333 O330 1.258 . S
C333 O335 1.282 . S
O334 Cd326 2.277 . S
O334 C327 1.226 . S
O335 Cd326 2.356 . S
O335 C333 1.282 . S
La336 C338 2.929 1_454 S
La336 O356 2.522 1_454 S
La336 O357 2.627 1_455 S
La336 O358 2.556 1_554 S
La336 O359 2.757 1_554 S
La336 O360 2.471 1_554 S
La336 O365 2.480 . S
La336 O367 2.502 1_545 S
La337 C347 2.928 . S
La337 O359 2.482 1_554 S
La337 O361 2.503 . S
La337 O362 2.521 . S
La337 O363 2.628 . S
La337 O364 2.554 . S
La337 O365 2.757 . S
La337 O366 2.470 . S
C338 La336 2.929 1_656 S
C338 C339 1.503 . S
C338 O356 1.261 . S
C338 O357 1.243 1_556 S
C339 C338 1.503 . S
C339 C340 1.394 . S
C339 C344 1.373 1_556 S
C340 C339 1.394 . S
C340 C341 1.380 . S
C340 H368 0.930 . S
C341 C340 1.380 . S
C341 C342 1.376 . S
C341 H369 0.930 . S
C342 C341 1.376 . S
C342 C343 1.370 . S
C343 C342 1.370 . S
C343 C344 1.396 1_556 S
C343 H370 0.929 1_556 S
C344 C339 1.373 1_554 S
C344 C343 1.396 1_554 S
C344 H371 0.929 . S
C345 O358 1.240 . S
C345 O359 1.289 . S
C346 O360 1.258 1_554 S
C346 O361 1.256 . S
C347 La337 2.928 . S
C347 C348 1.503 . S
C347 O362 1.261 . S
C347 O363 1.243 . S
C348 C347 1.503 . S
C348 C349 1.394 . S
C348 C353 1.373 . S
C349 C348 1.394 . S
C349 C350 1.380 . S
C349 H372 0.930 . S
C350 C349 1.380 . S
C350 C351 1.406 . S
C350 H373 0.930 . S
C351 C350 1.406 . S
C351 C352 1.369 1_545 S
C352 C351 1.369 1_565 S
C352 C353 1.396 1_565 S
C352 H374 0.929 . S
C353 C348 1.373 . S
C353 C352 1.396 1_545 S
C353 H375 0.929 1_545 S
C354 O364 1.240 . S
C354 O365 1.289 . S
C355 O366 1.258 1_565 S
C355 O367 1.256 . S
O356 La336 2.522 1_656 S
O356 C338 1.261 . S
O357 La336 2.627 1_655 S
O357 C338 1.243 1_554 S
O358 La336 2.556 1_556 S
O358 C345 1.240 . S
O359 La336 2.757 1_556 S
O359 La337 2.482 1_556 S
O359 C345 1.289 . S
O360 La336 2.471 1_556 S
O360 C346 1.258 1_556 S
O361 La337 2.503 . S
O361 C346 1.256 . S
O362 La337 2.521 . S
O362 C347 1.261 . S
O363 La337 2.628 . S
O363 C347 1.243 . S
O364 La337 2.554 . S
O364 C354 1.240 . S
O365 La336 2.480 . S
O365 La337 2.757 . S
O365 C354 1.289 . S
O366 La337 2.470 . S
O366 C355 1.258 1_545 S
O367 La336 2.502 1_565 S
O367 C355 1.256 . S
H368 C340 0.930 . S
H369 C341 0.930 . S
H370 C343 0.929 1_554 S
H371 C344 0.929 . S
H372 C349 0.930 . S
H373 C350 0.930 . S
H374 C352 0.929 . S
H375 C353 0.929 1_565 S
La376 C378 2.928 . S
La376 O396 2.521 . S
La376 O397 2.628 . S
La376 O398 2.554 . S
La376 O399 2.757 . S
La376 O400 2.470 . S
La376 O405 2.482 . S
La376 O407 2.503 . S
La377 C387 2.928 . S
La377 O399 2.482 . S
La377 O401 2.503 . S
La377 O402 2.521 . S
La377 O403 2.628 . S
La377 O404 2.554 . S
La377 O405 2.757 . S
La377 O406 2.470 . S
C378 La376 2.928 . S
C378 C379 1.503 . S
C378 O396 1.261 . S
C378 O397 1.243 . S
C379 C378 1.503 . S
C379 C380 1.394 . S
C379 C384 1.373 . S
C380 C379 1.394 . S
C380 C381 1.380 . S
C380 H408 0.930 . S
C381 C380 1.380 . S
C381 C382 1.376 . S
C381 H409 0.930 . S
C382 C381 1.376 . S
C382 C383 1.370 . S
C383 C382 1.370 . S
C383 C384 1.396 . S
C383 H410 0.929 . S
C384 C379 1.373 . S
C384 C383 1.396 . S
C384 H411 0.929 . S
C385 O398 1.240 . S
C385 O399 1.289 . S
C386 O400 1.258 . S
C386 O401 1.256 . S
C387 La377 2.928 . S
C387 C388 1.503 . S
C387 O402 1.261 . S
C387 O403 1.243 . S
C388 C387 1.503 . S
C388 C389 1.394 . S
C388 C393 1.373 . S
C389 C388 1.394 . S
C389 C390 1.380 . S
C389 H412 0.930 . S
C390 C389 1.380 . S
C390 C391 1.376 . S
C390 H413 0.930 . S
C391 C390 1.376 . S
C391 C392 1.370 . S
C392 C391 1.370 . S
C392 C393 1.396 . S
C392 H414 0.929 . S
C393 C388 1.373 . S
C393 C392 1.396 . S
C393 H415 0.929 . S
C394 O404 1.240 . S
C394 O405 1.289 . S
C395 O406 1.258 . S
C395 O407 1.256 . S
O396 La376 2.521 . S
O396 C378 1.261 . S
O397 La376 2.628 . S
O397 C378 1.243 . S
O398 La376 2.554 . S
O398 C385 1.240 . S
O399 La376 2.757 . S
O399 La377 2.482 . S
O399 C385 1.289 . S
O400 La376 2.470 . S
O400 C386 1.258 . S
O401 La377 2.503 . S
O401 C386 1.256 . S
O402 La377 2.521 . S
O402 C387 1.261 . S
O403 La377 2.628 . S
O403 C387 1.243 . S
O404 La377 2.554 . S
O404 C394 1.240 . S
O405 La376 2.482 . S
O405 La377 2.757 . S
O405 C394 1.289 . S
O406 La377 2.470 . S
O406 C395 1.258 . S
O407 La376 2.503 . S
O407 C395 1.256 . S
H408 C380 0.930 . S
H409 C381 0.930 . S
H410 C383 0.929 . S
H411 C384 0.929 . S
H412 C389 0.930 . S
H413 C390 0.930 . S
H414 C392 0.929 . S
H415 C393 0.929 . S
La416 C418 2.928 . S
La416 O436 2.521 . S
La416 O437 2.628 . S
La416 O438 2.554 . S
La416 O439 2.757 . S
La416 O440 2.470 1_545 S
La416 O445 2.482 . S
La416 O447 2.503 . S
La417 C427 2.928 . S
La417 O439 2.482 . S
La417 O441 2.503 1_545 S
La417 O442 2.521 . S
La417 O443 2.628 . S
La417 O444 2.554 . S
La417 O445 2.757 . S
La417 O446 2.470 . S
C418 La416 2.928 . S
C418 C419 1.503 1_545 S
C418 O436 1.261 . S
C418 O437 1.243 . S
C419 C418 1.503 1_565 S
C419 C420 1.394 . S
C419 C424 1.373 . S
C420 C419 1.394 . S
C420 C421 1.380 . S
C420 H448 0.930 1_565 S
C421 C420 1.380 . S
C421 C422 1.376 . S
C421 H449 0.930 . S
C422 C421 1.376 . S
C422 C423 1.370 . S
C423 C422 1.370 . S
C423 C424 1.396 . S
C423 H450 0.929 . S
C424 C419 1.373 . S
C424 C423 1.396 . S
C424 H451 0.929 . S
C425 O438 1.240 . S
C425 O439 1.289 . S
C426 O440 1.258 . S
C426 O441 1.256 . S
C427 La417 2.928 . S
C427 C428 1.503 . S
C427 O442 1.261 . S
C427 O443 1.243 . S
C428 C427 1.503 . S
C428 C429 1.394 . S
C428 C433 1.373 . S
C429 C428 1.394 . S
C429 C430 1.380 . S
C429 H452 0.930 . S
C430 C429 1.380 . S
C430 C431 1.376 . S
C430 H453 0.930 . S
C431 C430 1.376 . S
C431 C432 1.370 . S
C432 C431 1.370 . S
C432 C433 1.396 . S
C432 H454 0.929 . S
C433 C428 1.373 . S
C433 C432 1.396 . S
C433 H455 0.929 . S
C434 O444 1.240 . S
C434 O445 1.289 . S
C435 O446 1.258 . S
C435 O447 1.256 . S
O436 La416 2.521 . S
O436 C418 1.261 . S
O437 La416 2.628 . S
O437 C418 1.243 . S
O438 La416 2.554 . S
O438 C425 1.240 . S
O439 La416 2.757 . S
O439 La417 2.482 . S
O439 C425 1.289 . S
O440 La416 2.470 1_565 S
O440 C426 1.258 . S
O441 La417 2.503 1_565 S
O441 C426 1.256 . S
O442 La417 2.521 . S
O442 C427 1.261 . S
O443 La417 2.628 . S
O443 C427 1.243 . S
O444 La417 2.554 . S
O444 C434 1.240 . S
O445 La416 2.482 . S
O445 La417 2.757 . S
O445 C434 1.289 . S
O446 La417 2.470 . S
O446 C435 1.258 . S
O447 La416 2.503 . S
O447 C435 1.256 . S
H448 C420 0.930 1_545 S
H449 C421 0.930 . S
H450 C423 0.929 . S
H451 C424 0.929 . S
H452 C429 0.930 . S
H453 C430 0.930 . S
H454 C432 0.929 . S
H455 C433 0.929 . S
La456 C458 2.928 . S
La456 O476 2.521 . S
La456 O477 2.628 . S
La456 O478 2.554 . S
La456 O479 2.757 . S
La456 O480 2.470 . S
La456 O485 2.482 . S
La456 O487 2.503 . S
La457 C467 2.928 . S
La457 O479 2.482 . S
La457 O481 2.503 . S
La457 O482 2.521 . S
La457 O483 2.628 . S
La457 O484 2.554 . S
La457 O485 2.757 . S
La457 O486 2.470 . S
C458 La456 2.928 . S
C458 C459 1.503 . S
C458 O476 1.261 . S
C458 O477 1.243 . S
C459 C458 1.503 . S
C459 C460 1.394 . S
C459 C464 1.373 . S
C460 C459 1.394 . S
C460 C461 1.380 . S
C460 H488 0.930 . S
C461 C460 1.380 . S
C461 C462 1.376 . S
C461 H489 0.930 . S
C462 C461 1.376 . S
C462 C463 1.370 . S
C463 C462 1.370 . S
C463 C464 1.396 . S
C463 H490 0.929 . S
C464 C459 1.373 . S
C464 C463 1.396 . S
C464 H491 0.929 . S
C465 O478 1.240 . S
C465 O479 1.289 . S
C466 O480 1.258 . S
C466 O481 1.256 . S
C467 La457 2.928 . S
C467 C468 1.503 . S
C467 O482 1.261 . S
C467 O483 1.243 . S
C468 C467 1.503 . S
C468 C469 1.394 . S
C468 C473 1.373 . S
C469 C468 1.394 . S
C469 C470 1.380 . S
C469 H492 0.930 . S
C470 C469 1.380 . S
C470 C471 1.376 . S
C470 H493 0.930 . S
C471 C470 1.376 . S
C471 C472 1.370 . S
C472 C471 1.370 . S
C472 C473 1.396 . S
C472 H494 0.929 . S
C473 C468 1.373 . S
C473 C472 1.396 . S
C473 H495 0.929 . S
C474 O484 1.240 . S
C474 O485 1.289 . S
C475 O486 1.258 . S
C475 O487 1.256 . S
O476 La456 2.521 . S
O476 C458 1.261 . S
O477 La456 2.628 . S
O477 C458 1.243 . S
O478 La456 2.554 . S
O478 C465 1.240 . S
O479 La456 2.757 . S
O479 La457 2.482 . S
O479 C465 1.289 . S
O480 La456 2.470 . S
O480 C466 1.258 . S
O481 La457 2.503 . S
O481 C466 1.256 . S
O482 La457 2.521 . S
O482 C467 1.261 . S
O483 La457 2.628 . S
O483 C467 1.243 . S
O484 La457 2.554 . S
O484 C474 1.240 . S
O485 La456 2.482 . S
O485 La457 2.757 . S
O485 C474 1.289 . S
O486 La457 2.470 . S
O486 C475 1.258 . S
O487 La456 2.503 . S
O487 C475 1.256 . S
H488 C460 0.930 . S
H489 C461 0.930 . S
H490 C463 0.929 . S
H491 C464 0.929 . S
H492 C469 0.930 . S
H493 C470 0.930 . S
H494 C472 0.929 . S
H495 C473 0.929 . S
La496 C498 2.928 . S
La496 O516 2.521 . S
La496 O517 2.628 . S
La496 O518 2.554 . S
La496 O519 2.757 . S
La496 O520 2.470 . S
La496 O525 2.482 . S
La496 O527 2.503 . S
La497 C507 2.928 1_545 S
La497 O519 2.482 . S
La497 O521 2.503 . S
La497 O522 2.521 1_545 S
La497 O523 2.628 1_545 S
La497 O524 2.554 . S
La497 O525 2.757 . S
La497 O526 2.470 . S
C498 La496 2.928 . S
C498 C499 1.503 . S
C498 O516 1.261 . S
C498 O517 1.243 . S
C499 C498 1.503 . S
C499 C500 1.394 . S
C499 C504 1.373 . S
C500 C499 1.394 . S
C500 C501 1.380 . S
C500 H528 0.930 . S
C501 C500 1.380 . S
C501 C502 1.376 . S
C501 H529 0.930 . S
C502 C501 1.376 . S
C502 C503 1.370 . S
C503 C502 1.370 . S
C503 C504 1.396 . S
C503 H530 0.929 . S
C504 C499 1.373 . S
C504 C503 1.396 . S
C504 H531 0.929 . S
C505 O518 1.240 . S
C505 O519 1.289 . S
C506 O520 1.258 . S
C506 O521 1.256 . S
C507 La497 2.928 1_565 S
C507 C508 1.503 . S
C507 O522 1.261 . S
C507 O523 1.243 . S
C508 C507 1.503 . S
C508 C509 1.394 . S
C508 C513 1.373 . S
C509 C508 1.394 . S
C509 C510 1.380 . S
C509 H532 0.930 . S
C510 C509 1.380 . S
C510 C511 1.376 . S
C510 H533 0.930 . S
C511 C510 1.376 . S
C511 C512 1.370 . S
C512 C511 1.370 . S
C512 C513 1.396 . S
C512 H534 0.929 . S
C513 C508 1.373 . S
C513 C512 1.396 . S
C513 H535 0.929 . S
C514 O524 1.240 . S
C514 O525 1.289 . S
C515 O526 1.258 . S
C515 O527 1.256 . S
O516 La496 2.521 . S
O516 C498 1.261 . S
O517 La496 2.628 . S
O517 C498 1.243 . S
O518 La496 2.554 . S
O518 C505 1.240 . S
O519 La496 2.757 . S
O519 La497 2.482 . S
O519 C505 1.289 . S
O520 La496 2.470 . S
O520 C506 1.258 . S
O521 La497 2.503 . S
O521 C506 1.256 . S
O522 La497 2.521 1_565 S
O522 C507 1.261 . S
O523 La497 2.628 1_565 S
O523 C507 1.243 . S
O524 La497 2.554 . S
O524 C514 1.240 . S
O525 La496 2.482 . S
O525 La497 2.757 . S
O525 C514 1.289 . S
O526 La497 2.470 . S
O526 C515 1.258 . S
O527 La496 2.503 . S
O527 C515 1.256 . S
H528 C500 0.930 . S
H529 C501 0.930 . S
H530 C503 0.929 . S
H531 C504 0.929 . S
H532 C509 0.930 . S
H533 C510 0.930 . S
H534 C512 0.929 . S
H535 C513 0.929 . S
La536 C538 2.928 . S
La536 O556 2.521 . S
La536 O557 2.628 . S
La536 O558 2.554 . S
La536 O559 2.757 . S
La536 O560 2.470 . S
La536 O565 2.482 . S
La536 O567 2.503 . S
La537 C547 2.928 . S
La537 O559 2.482 . S
La537 O561 2.503 . S
La537 O562 2.521 . S
La537 O563 2.628 . S
La537 O564 2.554 . S
La537 O565 2.757 . S
La537 O566 2.470 . S
C538 La536 2.928 . S
C538 C539 1.503 . S
C538 O556 1.261 . S
C538 O557 1.243 . S
C539 C538 1.503 . S
C539 C540 1.394 . S
C539 C544 1.373 . S
C540 C539 1.394 . S
C540 C541 1.380 . S
C540 H568 0.930 . S
C541 C540 1.380 . S
C541 C542 1.376 . S
C541 H569 0.930 . S
C542 C541 1.376 . S
C542 C543 1.370 . S
C543 C542 1.370 . S
C543 C544 1.396 . S
C543 H570 0.929 . S
C544 C539 1.373 . S
C544 C543 1.396 . S
C544 H571 0.929 . S
C545 O558 1.240 . S
C545 O559 1.289 . S
C546 O560 1.258 . S
C546 O561 1.256 . S
C547 La537 2.928 . S
C547 C548 1.503 . S
C547 O562 1.261 . S
C547 O563 1.243 . S
C548 C547 1.503 . S
C548 C549 1.394 . S
C548 C553 1.373 . S
C549 C548 1.394 . S
C549 C550 1.380 . S
C549 H572 0.930 . S
C550 C549 1.380 . S
C550 C551 1.376 . S
C550 H573 0.930 . S
C551 C550 1.376 . S
C551 C552 1.370 . S
C552 C551 1.370 . S
C552 C553 1.396 . S
C552 H574 0.929 . S
C553 C548 1.373 . S
C553 C552 1.396 . S
C553 H575 0.929 . S
C554 O564 1.240 . S
C554 O565 1.289 . S
C555 O566 1.258 . S
C555 O567 1.256 . S
O556 La536 2.521 . S
O556 C538 1.261 . S
O557 La536 2.628 . S
O557 C538 1.243 . S
O558 La536 2.554 . S
O558 C545 1.240 . S
O559 La536 2.757 . S
O559 La537 2.482 . S
O559 C545 1.289 . S
O560 La536 2.470 . S
O560 C546 1.258 . S
O561 La537 2.503 . S
O561 C546 1.256 . S
O562 La537 2.521 . S
O562 C547 1.261 . S
O563 La537 2.628 . S
O563 C547 1.243 . S
O564 La537 2.554 . S
O564 C554 1.240 . S
O565 La536 2.482 . S
O565 La537 2.757 . S
O565 C554 1.289 . S
O566 La537 2.470 . S
O566 C555 1.258 . S
O567 La536 2.503 . S
O567 C555 1.256 . S
H568 C540 0.930 . S
H569 C541 0.930 . S
H570 C543 0.929 . S
H571 C544 0.929 . S
H572 C549 0.930 . S
H573 C550 0.930 . S
H574 C552 0.929 . S
H575 C553 0.929 . S
La576 C578 2.928 . S
La576 O596 2.521 . S
La576 O597 2.628 . S
La576 O598 2.554 1_545 S
La576 O599 2.757 1_554 S
La576 O600 2.470 . S
La576 O605 2.482 . S
La576 O607 2.503 . S
La577 C587 2.928 . S
La577 O599 2.482 . S
La577 O601 2.503 . S
La577 O602 2.521 . S
La577 O603 2.628 . S
La577 O604 2.554 1_556 S
La577 O605 2.757 1_556 S
La577 O606 2.491 . S
C578 La576 2.928 . S
C578 C579 1.503 . S
C578 O596 1.261 . S
C578 O597 1.243 . S
C579 C578 1.503 . S
C579 C580 1.394 1_545 S
C579 C584 1.373 . S
C580 C579 1.394 1_565 S
C580 C581 1.380 . S
C580 H608 0.930 . S
C581 C580 1.380 . S
C581 C582 1.376 . S
C581 H609 0.930 . S
C582 C581 1.376 . S
C582 C583 1.370 1_565 S
C583 C582 1.370 1_545 S
C583 C584 1.396 . S
C583 H610 0.929 . S
C584 C579 1.373 . S
C584 C583 1.396 . S
C584 H611 0.929 . S
C585 O598 1.237 . S
C585 O599 1.291 1_564 S
C586 O600 1.258 . S
C586 O601 1.256 1_554 S
C587 La577 2.928 . S
C587 C588 1.503 . S
C587 O602 1.261 . S
C587 O603 1.243 . S
C588 C587 1.503 . S
C588 C589 1.394 . S
C588 C593 1.373 . S
C589 C588 1.394 . S
C589 C590 1.380 . S
C589 H612 0.930 . S
C590 C589 1.380 . S
C590 C591 1.376 . S
C590 H613 0.930 . S
C591 C590 1.376 . S
C591 C592 1.370 . S
C592 C591 1.370 . S
C592 C593 1.396 . S
C592 H614 0.929 . S
C593 C588 1.373 . S
C593 C592 1.396 . S
C593 H615 0.929 . S
C594 O604 1.240 . S
C594 O605 1.289 . S
C595 O606 1.220 1_554 S
C595 O607 1.256 . S
O596 La576 2.521 . S
O596 C578 1.261 . S
O597 La576 2.628 . S
O597 C578 1.243 . S
O598 La576 2.554 1_565 S
O598 C585 1.237 . S
O599 La576 2.757 1_556 S
O599 La577 2.482 . S
O599 C585 1.291 1_546 S
O600 La576 2.470 . S
O600 C586 1.258 . S
O601 La577 2.503 . S
O601 C586 1.256 1_556 S
O602 La577 2.521 . S
O602 C587 1.261 . S
O603 La577 2.628 . S
O603 C587 1.243 . S
O604 La577 2.554 1_554 S
O604 C594 1.240 . S
O605 La576 2.482 . S
O605 La577 2.757 1_554 S
O605 C594 1.289 . S
O606 La577 2.491 . S
O606 C595 1.220 1_556 S
O607 La576 2.503 . S
O607 C595 1.256 . S
H608 C580 0.930 . S
H609 C581 0.930 . S
H610 C583 0.929 . S
H611 C584 0.929 . S
H612 C589 0.930 . S
H613 C590 0.930 . S
H614 C592 0.929 . S
H615 C593 0.929 . S
La616 C618 2.928 . S
La616 O636 2.521 . S
La616 O637 2.628 . S
La616 O638 2.554 . S
La616 O639 2.757 . S
La616 O640 2.470 . S
La616 O645 2.482 . S
La616 O647 2.503 . S
La617 C627 2.928 . S
La617 O639 2.482 . S
La617 O641 2.503 . S
La617 O642 2.521 . S
La617 O643 2.628 . S
La617 O644 2.554 . S
La617 O645 2.757 . S
La617 O646 2.470 . S
C618 La616 2.928 . S
C618 C619 1.503 . S
C618 O636 1.261 . S
C618 O637 1.243 . S
C619 C618 1.503 . S
C619 C620 1.394 . S
C619 C624 1.373 . S
C620 C619 1.394 . S
C620 C621 1.380 . S
C620 H648 0.930 . S
C621 C620 1.380 . S
C621 C622 1.376 . S
C621 H649 0.930 . S
C622 C621 1.376 . S
C622 C623 1.370 . S
C623 C622 1.370 . S
C623 C624 1.396 . S
C623 H650 0.929 . S
C624 C619 1.373 . S
C624 C623 1.396 . S
C624 H651 0.929 . S
C625 O638 1.240 . S
C625 O639 1.289 . S
C626 O640 1.258 . S
C626 O641 1.256 . S
C627 La617 2.928 . S
C627 C628 1.503 . S
C627 O642 1.261 . S
C627 O643 1.243 . S
C628 C627 1.503 . S
C628 C629 1.394 . S
C628 C633 1.373 . S
C629 C628 1.394 . S
C629 C630 1.380 . S
C629 H652 0.930 . S
C630 C629 1.380 . S
C630 C631 1.376 . S
C630 H653 0.930 . S
C631 C630 1.376 . S
C631 C632 1.370 . S
C632 C631 1.370 . S
C632 C633 1.396 . S
C632 H654 0.929 . S
C633 C628 1.373 . S
C633 C632 1.396 . S
C633 H655 0.929 . S
C634 O644 1.240 . S
C634 O645 1.289 . S
C635 O646 1.258 . S
C635 O647 1.256 . S
O636 La616 2.521 . S
O636 C618 1.261 . S
O637 La616 2.628 . S
O637 C618 1.243 . S
O638 La616 2.554 . S
O638 C625 1.240 . S
O639 La616 2.757 . S
O639 La617 2.482 . S
O639 C625 1.289 . S
O640 La616 2.470 . S
O640 C626 1.258 . S
O641 La617 2.503 . S
O641 C626 1.256 . S
O642 La617 2.521 . S
O642 C627 1.261 . S
O643 La617 2.628 . S
O643 C627 1.243 . S
O644 La617 2.554 . S
O644 C634 1.240 . S
O645 La616 2.482 . S
O645 La617 2.757 . S
O645 C634 1.289 . S
O646 La617 2.470 . S
O646 C635 1.258 . S
O647 La616 2.503 . S
O647 C635 1.256 . S
H648 C620 0.930 . S
H649 C621 0.930 . S
H650 C623 0.929 . S
H651 C624 0.929 . S
H652 C629 0.930 . S
H653 C630 0.930 . S
H654 C632 0.929 . S
H655 C633 0.929 . S
La656 C658 2.928 1_554 S
La656 O676 2.521 . S
La656 O677 2.628 1_554 S
La656 O678 2.554 . S
La656 O679 2.757 . S
La656 O680 2.470 1_554 S
La656 O685 2.482 . S
La656 O687 2.503 . S
La657 C667 2.951 . S
La657 O679 2.497 . S
La657 O681 2.471 1_554 S
La657 O682 2.534 . S
La657 O683 2.656 . S
La657 O684 2.553 . S
La657 O685 2.753 . S
La657 O686 2.504 . S
C658 La656 2.928 1_556 S
C658 C659 1.503 . S
C658 O676 1.261 1_556 S
C658 O677 1.243 . S
C659 C658 1.503 . S
C659 C660 1.394 . S
C659 C664 1.373 . S
C660 C659 1.394 . S
C660 C661 1.380 . S
C660 H688 0.908 1_556 S
C661 C660 1.380 . S
C661 C662 1.376 . S
C661 H689 0.930 . S
C662 C661 1.376 . S
C662 C663 1.370 . S
C663 C662 1.370 . S
C663 C664 1.396 . S
C663 H690 0.929 . S
C664 C659 1.373 . S
C664 C663 1.396 . S
C664 H691 0.929 . S
C665 O678 1.240 . S
C665 O679 1.289 . S
C666 O680 1.258 . S
C666 O681 1.256 . S
C667 La657 2.951 . S
C667 C668 1.503 . S
C667 O682 1.261 . S
C667 O683 1.243 . S
C668 C667 1.503 . S
C668 C669 1.394 . S
C668 C673 1.373 . S
C669 C668 1.394 . S
C669 C670 1.380 . S
C669 H692 0.930 . S
C670 C669 1.380 . S
C670 C671 1.376 . S
C670 H693 0.930 . S
C671 C670 1.376 . S
C671 C672 1.370 . S
C672 C671 1.370 . S
C672 C673 1.396 . S
C672 H694 0.929 . S
C673 C668 1.373 . S
C673 C672 1.396 . S
C673 H695 0.929 . S
C674 O684 1.240 . S
C674 O685 1.289 . S
C675 O686 1.258 . S
C675 O687 1.256 . S
O676 La656 2.521 . S
O676 C658 1.261 1_554 S
O677 La656 2.628 1_556 S
O677 C658 1.243 . S
O678 La656 2.554 . S
O678 C665 1.240 . S
O679 La656 2.757 . S
O679 La657 2.497 . S
O679 C665 1.289 . S
O680 La656 2.470 1_556 S
O680 C666 1.258 . S
O681 La657 2.471 1_556 S
O681 C666 1.256 . S
O682 La657 2.534 . S
O682 C667 1.261 . S
O683 La657 2.656 . S
O683 C667 1.243 . S
O684 La657 2.553 . S
O684 C674 1.240 . S
O685 La656 2.482 . S
O685 La657 2.753 . S
O685 C674 1.289 . S
O686 La657 2.504 . S
O686 C675 1.258 . S
O687 La656 2.503 . S
O687 C675 1.256 . S
H688 C660 0.908 1_554 S
H689 C661 0.930 . S
H690 C663 0.929 . S
H691 C664 0.929 . S
H692 C669 0.930 . S
H693 C670 0.930 . S
H694 C672 0.929 . S
H695 C673 0.929 . S
La696 C698 2.928 . S
La696 O716 2.521 . S
La696 O717 2.628 . S
La696 O718 2.554 . S
La696 O719 2.757 . S
La696 O720 2.470 . S
La696 O725 2.482 . S
La696 O727 2.503 . S
La697 C707 2.928 . S
La697 O719 2.482 . S
La697 O721 2.503 . S
La697 O722 2.521 . S
La697 O723 2.628 . S
La697 O724 2.554 . S
La697 O725 2.757 . S
La697 O726 2.470 . S
C698 La696 2.928 . S
C698 C699 1.503 . S
C698 O716 1.261 . S
C698 O717 1.243 . S
C699 C698 1.503 . S
C699 C700 1.394 . S
C699 C704 1.373 . S
C700 C699 1.394 . S
C700 C701 1.380 . S
C700 H728 0.930 . S
C701 C700 1.380 . S
C701 C702 1.376 . S
C701 H729 0.930 . S
C702 C701 1.376 . S
C702 C703 1.370 . S
C703 C702 1.370 . S
C703 C704 1.396 . S
C703 H730 0.929 . S
C704 C699 1.373 . S
C704 C703 1.396 . S
C704 H731 0.929 . S
C705 O718 1.240 . S
C705 O719 1.289 . S
C706 O720 1.258 . S
C706 O721 1.256 . S
C707 La697 2.928 . S
C707 C708 1.503 . S
C707 O722 1.261 . S
C707 O723 1.243 . S
C708 C707 1.503 . S
C708 C709 1.394 . S
C708 C713 1.373 . S
C709 C708 1.394 . S
C709 C710 1.380 . S
C709 H732 0.930 . S
C710 C709 1.380 . S
C710 C711 1.376 . S
C710 H733 0.930 . S
C711 C710 1.376 . S
C711 C712 1.370 . S
C712 C711 1.370 . S
C712 C713 1.396 . S
C712 H734 0.929 . S
C713 C708 1.373 . S
C713 C712 1.396 . S
C713 H735 0.929 . S
C714 O724 1.240 . S
C714 O725 1.289 . S
C715 O726 1.258 . S
C715 O727 1.256 . S
O716 La696 2.521 . S
O716 C698 1.261 . S
O717 La696 2.628 . S
O717 C698 1.243 . S
O718 La696 2.554 . S
O718 C705 1.240 . S
O719 La696 2.757 . S
O719 La697 2.482 . S
O719 C705 1.289 . S
O720 La696 2.470 . S
O720 C706 1.258 . S
O721 La697 2.503 . S
O721 C706 1.256 . S
O722 La697 2.521 . S
O722 C707 1.261 . S
O723 La697 2.628 . S
O723 C707 1.243 . S
O724 La697 2.554 . S
O724 C714 1.240 . S
O725 La696 2.482 . S
O725 La697 2.757 . S
O725 C714 1.289 . S
O726 La697 2.470 . S
O726 C715 1.258 . S
O727 La696 2.503 . S
O727 C715 1.256 . S
H728 C700 0.930 . S
H729 C701 0.930 . S
H730 C703 0.929 . S
H731 C704 0.929 . S
H732 C709 0.930 . S
H733 C710 0.930 . S
H734 C712 0.929 . S
H735 C713 0.929 . S
La736 C738 2.928 . S
La736 O756 2.521 . S
La736 O757 2.628 . S
La736 O758 2.554 . S
La736 O759 2.757 . S
La736 O760 2.470 . S
La736 O765 2.482 . S
La736 O767 2.503 . S
La737 C747 2.928 . S
La737 O759 2.482 . S
La737 O761 2.503 . S
La737 O762 2.521 . S
La737 O763 2.628 . S
La737 O764 2.554 . S
La737 O765 2.757 . S
La737 O766 2.470 . S
C738 La736 2.928 . S
C738 C739 1.503 . S
C738 O756 1.261 . S
C738 O757 1.243 . S
C739 C738 1.503 . S
C739 C740 1.394 . S
C739 C744 1.373 1_455 S
C740 C739 1.394 . S
C740 C741 1.380 . S
C740 H768 0.930 . S
C741 C740 1.380 . S
C741 C742 1.376 1_455 S
C741 H769 0.930 . S
C742 C741 1.376 1_655 S
C742 C743 1.370 . S
C743 C742 1.370 . S
C743 C744 1.396 . S
C743 H770 0.929 . S
C744 C739 1.373 1_655 S
C744 C743 1.396 . S
C744 H771 0.929 . S
C745 O758 1.240 . S
C745 O759 1.289 . S
C746 O760 1.262 . S
C746 O761 1.257 . S
C747 La737 2.928 . S
C747 C748 1.503 . S
C747 O762 1.261 . S
C747 O763 1.243 . S
C748 C747 1.503 . S
C748 C749 1.394 . S
C748 C753 1.373 . S
C749 C748 1.394 . S
C749 C750 1.380 . S
C749 H772 0.930 . S
C750 C749 1.380 . S
C750 C751 1.376 . S
C750 H773 0.930 . S
C751 C750 1.376 . S
C751 C752 1.370 . S
C752 C751 1.370 . S
C752 C753 1.396 . S
C752 H774 0.929 . S
C753 C748 1.373 . S
C753 C752 1.396 . S
C753 H775 0.929 . S
C754 O764 1.240 . S
C754 O765 1.289 . S
C755 O766 1.258 . S
C755 O767 1.256 . S
O756 La736 2.521 . S
O756 C738 1.261 . S
O757 La736 2.628 . S
O757 C738 1.243 . S
O758 La736 2.554 . S
O758 C745 1.240 . S
O759 La736 2.757 . S
O759 La737 2.482 . S
O759 C745 1.289 . S
O760 La736 2.470 . S
O760 C746 1.262 . S
O761 La737 2.503 . S
O761 C746 1.257 . S
O762 La737 2.521 . S
O762 C747 1.261 . S
O763 La737 2.628 . S
O763 C747 1.243 . S
O764 La737 2.554 . S
O764 C754 1.240 . S
O765 La736 2.482 . S
O765 La737 2.757 . S
O765 C754 1.289 . S
O766 La737 2.470 . S
O766 C755 1.258 . S
O767 La736 2.503 . S
O767 C755 1.256 . S
H768 C740 0.930 . S
H769 C741 0.930 . S
H770 C743 0.929 . S
H771 C744 0.929 . S
H772 C749 0.930 . S
H773 C750 0.930 . S
H774 C752 0.929 . S
H775 C753 0.929 . S
La776 C778 2.928 . S
La776 O796 2.521 . S
La776 O797 2.628 . S
La776 O798 2.554 . S
La776 O799 2.757 . S
La776 O800 2.470 . S
La776 O805 2.482 . S
La776 O807 2.503 . S
La777 C787 2.928 . S
La777 O799 2.482 . S
La777 O801 2.503 . S
La777 O802 2.521 . S
La777 O803 2.628 . S
La777 O804 2.554 . S
La777 O805 2.757 . S
La777 O806 2.470 . S
C778 La776 2.928 . S
C778 C779 1.503 . S
C778 O796 1.261 . S
C778 O797 1.243 . S
C779 C778 1.503 . S
C779 C780 1.394 . S
C779 C784 1.373 . S
C780 C779 1.394 . S
C780 C781 1.380 . S
C780 H808 0.930 . S
C781 C780 1.380 . S
C781 C782 1.376 . S
C781 H809 0.930 . S
C782 C781 1.376 . S
C782 C783 1.370 . S
C783 C782 1.370 . S
C783 C784 1.396 . S
C783 H810 0.929 . S
C784 C779 1.373 . S
C784 C783 1.396 . S
C784 H811 0.929 . S
C785 O798 1.240 . S
C785 O799 1.289 . S
C786 O800 1.258 . S
C786 O801 1.256 . S
C787 La777 2.928 . S
C787 C788 1.503 . S
C787 O802 1.261 . S
C787 O803 1.243 . S
C788 C787 1.503 . S
C788 C789 1.394 . S
C788 C793 1.373 . S
C789 C788 1.394 . S
C789 C790 1.380 . S
C789 H812 0.930 . S
C790 C789 1.380 . S
C790 C791 1.376 . S
C790 H813 0.930 . S
C791 C790 1.376 . S
C791 C792 1.370 . S
C792 C791 1.370 . S
C792 C793 1.396 . S
C792 H814 0.929 . S
C793 C788 1.373 . S
C793 C792 1.396 . S
C793 H815 0.929 . S
C794 O804 1.240 . S
C794 O805 1.289 . S
C795 O806 1.258 . S
C795 O807 1.256 . S
O796 La776 2.521 . S
O796 C778 1.261 . S
O797 La776 2.628 . S
O797 C778 1.243 . S
O798 La776 2.554 . S
O798 C785 1.240 . S
O799 La776 2.757 . S
O799 La777 2.482 . S
O799 C785 1.289 . S
O800 La776 2.470 . S
O800 C786 1.258 . S
O801 La777 2.503 . S
O801 C786 1.256 . S
O802 La777 2.521 . S
O802 C787 1.261 . S
O803 La777 2.628 . S
O803 C787 1.243 . S
O804 La777 2.554 . S
O804 C794 1.240 . S
O805 La776 2.482 . S
O805 La777 2.757 . S
O805 C794 1.289 . S
O806 La777 2.470 . S
O806 C795 1.258 . S
O807 La776 2.503 . S
O807 C795 1.256 . S
H808 C780 0.930 . S
H809 C781 0.930 . S
H810 C783 0.929 . S
H811 C784 0.929 . S
H812 C789 0.930 . S
H813 C790 0.930 . S
H814 C792 0.929 . S
H815 C793 0.929 . S
La816 C818 2.928 . S
La816 O836 2.521 . S
La816 O837 2.628 . S
La816 O838 2.554 . S
La816 O839 2.757 . S
La816 O840 2.470 . S
La816 O845 2.482 . S
La816 O847 2.503 . S
La817 C827 2.928 . S
La817 O839 2.482 . S
La817 O841 2.503 . S
La817 O842 2.521 . S
La817 O843 2.628 . S
La817 O844 2.554 . S
La817 O845 2.757 . S
La817 O846 2.470 . S
C818 La816 2.928 . S
C818 C819 1.503 . S
C818 O836 1.261 . S
C818 O837 1.243 . S
C819 C818 1.503 . S
C819 C820 1.394 . S
C819 C824 1.373 . S
C820 C819 1.394 . S
C820 C821 1.380 . S
C820 H848 0.930 . S
C821 C820 1.380 . S
C821 C822 1.376 . S
C821 H849 0.930 . S
C822 C821 1.376 . S
C822 C823 1.370 . S
C823 C822 1.370 . S
C823 C824 1.396 . S
C823 H850 0.929 . S
C824 C819 1.373 . S
C824 C823 1.396 . S
C824 H851 0.929 . S
C825 O838 1.240 . S
C825 O839 1.289 . S
C826 O840 1.258 . S
C826 O841 1.256 . S
C827 La817 2.928 . S
C827 C828 1.503 . S
C827 O842 1.261 . S
C827 O843 1.243 . S
C828 C827 1.503 . S
C828 C829 1.394 . S
C828 C833 1.373 . S
C829 C828 1.394 . S
C829 C830 1.380 . S
C829 H852 0.930 . S
C830 C829 1.380 . S
C830 C831 1.376 . S
C830 H853 0.930 . S
C831 C830 1.376 . S
C831 C832 1.370 . S
C832 C831 1.370 . S
C832 C833 1.396 . S
C832 H854 0.929 . S
C833 C828 1.373 . S
C833 C832 1.396 . S
C833 H855 0.929 . S
C834 O844 1.240 . S
C834 O845 1.289 . S
C835 O846 1.258 . S
C835 O847 1.256 . S
O836 La816 2.521 . S
O836 C818 1.261 . S
O837 La816 2.628 . S
O837 C818 1.243 . S
O838 La816 2.554 . S
O838 C825 1.240 . S
O839 La816 2.757 . S
O839 La817 2.482 . S
O839 C825 1.289 . S
O840 La816 2.470 . S
O840 C826 1.258 . S
O841 La817 2.503 . S
O841 C826 1.256 . S
O842 La817 2.521 . S
O842 C827 1.261 . S
O843 La817 2.628 . S
O843 C827 1.243 . S
O844 La817 2.554 . S
O844 C834 1.240 . S
O845 La816 2.482 . S
O845 La817 2.757 . S
O845 C834 1.289 . S
O846 La817 2.470 . S
O846 C835 1.258 . S
O847 La816 2.503 . S
O847 C835 1.256 . S
H848 C820 0.930 . S
H849 C821 0.930 . S
H850 C823 0.929 . S
H851 C824 0.929 . S
H852 C829 0.930 . S
H853 C830 0.930 . S
H854 C832 0.929 . S
H855 C833 0.929 . S
La856 C858 2.928 . S
La856 O876 2.521 . S
La856 O877 2.628 . S
La856 O878 2.554 . S
La856 O879 2.757 . S
La856 O880 2.470 . S
La856 O885 2.482 . S
La856 O887 2.503 . S
La857 C867 2.928 . S
La857 O879 2.482 . S
La857 O881 2.503 . S
La857 O882 2.521 . S
La857 O883 2.628 . S
La857 O884 2.554 . S
La857 O885 2.757 . S
La857 O886 2.470 . S
C858 La856 2.928 . S
C858 C859 1.503 . S
C858 O876 1.261 . S
C858 O877 1.243 . S
C859 C858 1.503 . S
C859 C860 1.394 . S
C859 C864 1.373 . S
C860 C859 1.394 . S
C860 C861 1.380 . S
C860 H888 0.930 . S
C861 C860 1.380 . S
C861 C862 1.376 . S
C861 H889 0.930 . S
C862 C861 1.376 . S
C862 C863 1.370 . S
C863 C862 1.370 . S
C863 C864 1.396 . S
C863 H890 0.929 . S
C864 C859 1.373 . S
C864 C863 1.396 . S
C864 H891 0.929 . S
C865 O878 1.240 . S
C865 O879 1.289 . S
C866 O880 1.258 . S
C866 O881 1.256 . S
C867 La857 2.928 . S
C867 C868 1.503 . S
C867 O882 1.261 . S
C867 O883 1.243 . S
C868 C867 1.503 . S
C868 C869 1.394 . S
C868 C873 1.373 . S
C869 C868 1.394 . S
C869 C870 1.380 . S
C869 H892 0.930 . S
C870 C869 1.380 . S
C870 C871 1.376 . S
C870 H893 0.930 . S
C871 C870 1.376 . S
C871 C872 1.370 . S
C872 C871 1.370 . S
C872 C873 1.396 . S
C872 H894 0.929 . S
C873 C868 1.373 . S
C873 C872 1.396 . S
C873 H895 0.929 . S
C874 O884 1.240 . S
C874 O885 1.289 . S
C875 O886 1.258 . S
C875 O887 1.256 . S
O876 La856 2.521 . S
O876 C858 1.261 . S
O877 La856 2.628 . S
O877 C858 1.243 . S
O878 La856 2.554 . S
O878 C865 1.240 . S
O879 La856 2.757 . S
O879 La857 2.482 . S
O879 C865 1.289 . S
O880 La856 2.470 . S
O880 C866 1.258 . S
O881 La857 2.503 . S
O881 C866 1.256 . S
O882 La857 2.521 . S
O882 C867 1.261 . S
O883 La857 2.628 . S
O883 C867 1.243 . S
O884 La857 2.554 . S
O884 C874 1.240 . S
O885 La856 2.482 . S
O885 La857 2.757 . S
O885 C874 1.289 . S
O886 La857 2.470 . S
O886 C875 1.258 . S
O887 La856 2.503 . S
O887 C875 1.256 . S
H888 C860 0.930 . S
H889 C861 0.930 . S
H890 C863 0.929 . S
H891 C864 0.929 . S
H892 C869 0.930 . S
H893 C870 0.930 . S
H894 C872 0.929 . S
H895 C873 0.929 . S
La896 C898 2.928 . S
La896 O916 2.521 . S
La896 O917 2.628 . S
La896 O918 2.554 . S
La896 O919 2.757 . S
La896 O920 2.470 . S
La896 O925 2.482 . S
La896 O927 2.503 . S
La897 C907 2.928 . S
La897 O919 2.482 . S
La897 O921 2.503 . S
La897 O922 2.521 . S
La897 O923 2.628 . S
La897 O924 2.554 . S
La897 O925 2.757 . S
La897 O926 2.470 . S
C898 La896 2.928 . S
C898 C899 1.503 . S
C898 O916 1.261 . S
C898 O917 1.243 . S
C899 C898 1.503 . S
C899 C900 1.394 . S
C899 C904 1.373 . S
C900 C899 1.394 . S
C900 C901 1.380 . S
C900 H928 0.930 . S
C901 C900 1.380 . S
C901 C902 1.376 . S
C901 H929 0.930 . S
C902 C901 1.376 . S
C902 C903 1.370 . S
C903 C902 1.370 . S
C903 C904 1.396 . S
C903 H930 0.929 . S
C904 C899 1.373 . S
C904 C903 1.396 . S
C904 H931 0.929 . S
C905 O918 1.240 . S
C905 O919 1.289 . S
C906 O920 1.258 . S
C906 O921 1.256 . S
C907 La897 2.928 . S
C907 C908 1.503 . S
C907 O922 1.261 . S
C907 O923 1.243 . S
C908 C907 1.503 . S
C908 C909 1.394 . S
C908 C913 1.373 . S
C909 C908 1.394 . S
C909 C910 1.380 . S
C909 H932 0.930 . S
C910 C909 1.380 . S
C910 C911 1.376 . S
C910 H933 0.930 . S
C911 C910 1.376 . S
C911 C912 1.370 . S
C912 C911 1.370 . S
C912 C913 1.396 . S
C912 H934 0.929 . S
C913 C908 1.373 . S
C913 C912 1.396 . S
C913 H935 0.929 . S
C914 O924 1.240 . S
C914 O925 1.289 . S
C915 O926 1.258 . S
C915 O927 1.256 . S
O916 La896 2.521 . S
O916 C898 1.261 . S
O917 La896 2.628 . S
O917 C898 1.243 . S
O918 La896 2.554 . S
O918 C905 1.240 . S
O919 La896 2.757 . S
O919 La897 2.482 . S
O919 C905 1.289 . S
O920 La896 2.470 . S
O920 C906 1.258 . S
O921 La897 2.503 . S
O921 C906 1.256 . S
O922 La897 2.521 . S
O922 C907 1.261 . S
O923 La897 2.628 . S
O923 C907 1.243 . S
O924 La897 2.554 . S
O924 C914 1.240 . S
O925 La896 2.482 . S
O925 La897 2.757 . S
O925 C914 1.289 . S
O926 La897 2.470 . S
O926 C915 1.258 . S
O927 La896 2.503 . S
O927 C915 1.256 . S
H928 C900 0.930 . S
H929 C901 0.930 . S
H930 C903 0.929 . S
H931 C904 0.929 . S
H932 C909 0.930 . S
H933 C910 0.930 . S
H934 C912 0.929 . S
H935 C913 0.929 . S
La936 C938 2.928 1_554 S
La936 O956 2.521 1_554 S
La936 O957 2.628 . S
La936 O958 2.554 1_554 S
La936 O959 2.757 1_554 S
La936 O960 2.470 1_554 S
La936 O965 2.482 . S
La936 O967 2.503 . S
La937 C947 2.928 1_455 S
La937 O959 2.482 1_554 S
La937 O961 2.503 . S
La937 O962 2.521 1_455 S
La937 O963 2.628 1_455 S
La937 O964 2.554 . S
La937 O965 2.757 . S
La937 O966 2.470 . S
C938 La936 2.928 1_556 S
C938 C939 1.503 . S
C938 O956 1.261 . S
C938 O957 1.243 1_556 S
C939 C938 1.503 . S
C939 C940 1.394 . S
C939 C944 1.373 1_556 S
C940 C939 1.394 . S
C940 C941 1.380 . S
C940 H968 0.930 . S
C941 C940 1.380 . S
C941 C942 1.376 . S
C941 H969 0.930 . S
C942 C941 1.376 . S
C942 C943 1.370 1_556 S
C943 C942 1.370 1_554 S
C943 C944 1.396 . S
C943 H970 0.929 . S
C944 C939 1.373 1_554 S
C944 C943 1.396 . S
C944 H971 0.929 . S
C945 O958 1.240 . S
C945 O959 1.289 . S
C946 O960 1.258 1_554 S
C946 O961 1.256 . S
C947 La937 2.928 1_655 S
C947 C948 1.503 . S
C947 O962 1.261 . S
C947 O963 1.243 . S
C948 C947 1.503 . S
C948 C949 1.394 . S
C948 C953 1.373 . S
C949 C948 1.394 . S
C949 C950 1.380 . S
C949 H972 0.930 . S
C950 C949 1.380 . S
C950 C951 1.376 . S
C950 H973 0.930 . S
C951 C950 1.376 . S
C951 C952 1.370 . S
C952 C951 1.370 . S
C952 C953 1.396 . S
C952 H974 0.929 . S
C953 C948 1.373 . S
C953 C952 1.396 . S
C953 H975 0.929 . S
C954 O964 1.240 . S
C954 O965 1.289 . S
C955 O966 1.258 . S
C955 O967 1.256 . S
O956 La936 2.521 1_556 S
O956 C938 1.261 . S
O957 La936 2.628 . S
O957 C938 1.243 1_554 S
O958 La936 2.554 1_556 S
O958 C945 1.240 . S
O959 La936 2.757 1_556 S
O959 La937 2.482 1_556 S
O959 C945 1.289 . S
O960 La936 2.470 1_556 S
O960 C946 1.258 1_556 S
O961 La937 2.503 . S
O961 C946 1.256 . S
O962 La937 2.521 1_655 S
O962 C947 1.261 . S
O963 La937 2.628 1_655 S
O963 C947 1.243 . S
O964 La937 2.554 . S
O964 C954 1.240 . S
O965 La936 2.482 . S
O965 La937 2.757 . S
O965 C954 1.289 . S
O966 La937 2.470 . S
O966 C955 1.258 . S
O967 La936 2.503 . S
O967 C955 1.256 . S
H968 C940 0.930 . S
H969 C941 0.930 . S
H970 C943 0.929 . S
H971 C944 0.929 . S
H972 C949 0.930 . S
H973 C950 0.930 . S
H974 C952 0.929 . S
H975 C953 0.929 . S
H976 C984 0.929 . S
H977 C986 0.930 . S
H978 C988 0.930 . S
H979 C991 0.929 1_655 S
H980 C994 0.930 . S
H981 C996 0.960 . S
H982 C996 0.960 . S
H983 C996 0.960 . S
C984 H976 0.929 . S
C984 C985 1.377 . S
C984 C986 1.384 . S
C985 C984 1.377 . S
C985 C991 1.390 . S
C986 H977 0.930 . S
C986 C984 1.384 . S
C986 C987 1.372 . S
C987 C986 1.372 . S
C987 C988 1.400 . S
C987 C992 1.490 . S
C988 H978 0.930 . S
C988 C987 1.400 . S
C988 C991 1.386 . S
H989 C1005 0.930 . S
H990 C1006 0.950 . S
C991 H979 0.929 1_455 S
C991 C985 1.390 . S
C991 C988 1.386 . S
C992 C987 1.490 . S
C992 C994 1.395 . S
C992 C995 1.403 . S
H993 C999 0.930 . S
C994 H980 0.930 . S
C994 C992 1.395 . S
C994 C997 1.403 . S
C995 C992 1.403 . S
C995 C996 1.524 1_455 S
C995 C999 1.400 . S
C996 H981 0.960 . S
C996 H982 0.960 . S
C996 H983 0.960 . S
C996 C995 1.524 1_655 S
C997 C994 1.403 . S
C997 C998 1.392 . S
C997 C1001 1.495 . S
C998 C997 1.392 . S
C998 C999 1.385 . S
C998 C1000 1.478 . S
C999 H993 0.930 . S
C999 C995 1.400 . S
C999 C998 1.385 . S
C1000 C998 1.478 . S
C1000 C1002 1.381 . S
C1000 C1006 1.343 1_556 S
C1001 C997 1.495 . S
C1001 H1007 0.959 . S
C1001 H1008 0.961 . S
C1001 H1009 0.960 . S
C1002 C1000 1.381 . S
C1002 C1003 1.394 . S
C1002 H1010 0.930 . S
C1003 C1002 1.394 . S
C1003 C1004 1.383 . S
C1003 H1011 0.929 . S
C1004 C1003 1.383 . S
C1004 C1005 1.377 1_556 S
C1005 H989 0.930 . S
C1005 C1004 1.377 1_554 S
C1005 C1006 1.402 . S
C1006 H990 0.950 . S
C1006 C1000 1.343 1_554 S
C1006 C1005 1.402 . S
H1007 C1001 0.959 . S
H1008 C1001 0.961 . S
H1009 C1001 0.960 . S
H1010 C1002 0.930 . S
H1011 C1003 0.929 . S
H1012 C1020 0.929 . S
H1013 C1022 0.930 . S
H1014 C1024 0.930 . S
H1015 C1027 0.929 . S
H1016 C1030 0.930 . S
H1017 C1032 0.960 . S
H1018 C1032 0.960 . S
H1019 C1032 0.960 . S
C1020 H1012 0.929 . S
C1020 C1021 1.377 . S
C1020 C1022 1.384 . S
C1021 C1020 1.377 . S
C1021 C1027 1.390 . S
C1022 H1013 0.930 . S
C1022 C1020 1.384 . S
C1022 C1023 1.372 . S
C1023 C1022 1.372 . S
C1023 C1024 1.400 . S
C1023 C1028 1.490 . S
C1024 H1014 0.930 . S
C1024 C1023 1.400 . S
C1024 C1027 1.386 . S
H1025 C1041 0.930 . S
H1026 C1042 0.931 . S
C1027 H1015 0.929 . S
C1027 C1021 1.390 . S
C1027 C1024 1.386 . S
C1028 C1023 1.490 . S
C1028 C1030 1.395 . S
C1028 C1031 1.403 . S
H1029 C1035 0.930 . S
C1030 H1016 0.930 . S
C1030 C1028 1.395 . S
C1030 C1033 1.403 . S
C1031 C1028 1.403 . S
C1031 C1032 1.524 . S
C1031 C1035 1.400 . S
C1032 H1017 0.960 . S
C1032 H1018 0.960 . S
C1032 H1019 0.960 . S
C1032 C1031 1.524 . S
C1033 C1030 1.403 . S
C1033 C1034 1.392 . S
C1033 C1037 1.495 . S
C1034 C1033 1.392 . S
C1034 C1035 1.385 . S
C1034 C1036 1.478 . S
C1035 H1029 0.930 . S
C1035 C1031 1.400 . S
C1035 C1034 1.385 . S
C1036 C1034 1.478 . S
C1036 C1038 1.381 . S
C1036 C1042 1.383 . S
C1037 C1033 1.495 . S
C1037 H1043 0.959 . S
C1037 H1044 0.961 . S
C1037 H1045 0.960 . S
C1038 C1036 1.381 . S
C1038 C1039 1.394 . S
C1038 H1046 0.930 . S
C1039 C1038 1.394 . S
C1039 C1040 1.383 . S
C1039 H1047 0.929 . S
C1040 C1039 1.383 . S
C1040 C1041 1.377 . S
C1041 H1025 0.930 . S
C1041 C1040 1.377 . S
C1041 C1042 1.379 . S
C1042 H1026 0.931 . S
C1042 C1036 1.383 . S
C1042 C1041 1.379 . S
H1043 C1037 0.959 . S
H1044 C1037 0.961 . S
H1045 C1037 0.960 . S
H1046 C1038 0.930 . S
H1047 C1039 0.929 . S
H1048 C1056 0.929 . S
H1049 C1058 0.930 . S
H1050 C1060 0.930 . S
H1051 C1063 0.929 . S
H1052 C1066 0.930 . S
H1053 C1068 0.960 . S
H1054 C1068 0.960 . S
H1055 C1068 0.960 . S
C1056 H1048 0.929 . S
C1056 C1057 1.377 . S
C1056 C1058 1.384 . S
C1057 C1056 1.377 . S
C1057 C1063 1.390 . S
C1058 H1049 0.930 . S
C1058 C1056 1.384 . S
C1058 C1059 1.372 . S
C1059 C1058 1.372 . S
C1059 C1060 1.400 . S
C1059 C1064 1.490 . S
C1060 H1050 0.930 . S
C1060 C1059 1.400 . S
C1060 C1063 1.386 . S
H1061 C1077 0.930 . S
H1062 C1078 0.931 . S
C1063 H1051 0.929 . S
C1063 C1057 1.390 . S
C1063 C1060 1.386 . S
C1064 C1059 1.490 . S
C1064 C1066 1.395 . S
C1064 C1067 1.403 . S
H1065 C1071 0.930 . S
C1066 H1052 0.930 . S
C1066 C1064 1.395 . S
C1066 C1069 1.403 . S
C1067 C1064 1.403 . S
C1067 C1068 1.524 . S
C1067 C1071 1.400 . S
C1068 H1053 0.960 . S
C1068 H1054 0.960 . S
C1068 H1055 0.960 . S
C1068 C1067 1.524 . S
C1069 C1066 1.403 . S
C1069 C1070 1.392 . S
C1069 C1073 1.495 . S
C1070 C1069 1.392 . S
C1070 C1071 1.385 . S
C1070 C1072 1.478 . S
C1071 H1065 0.930 . S
C1071 C1067 1.400 . S
C1071 C1070 1.385 . S
C1072 C1070 1.478 . S
C1072 C1074 1.381 . S
C1072 C1078 1.383 . S
C1073 C1069 1.495 . S
C1073 H1079 0.959 . S
C1073 H1080 0.961 . S
C1073 H1081 0.960 . S
C1074 C1072 1.381 . S
C1074 C1075 1.394 . S
C1074 H1082 0.930 . S
C1075 C1074 1.394 . S
C1075 C1076 1.383 . S
C1075 H1083 0.929 . S
C1076 C1075 1.383 . S
C1076 C1077 1.377 . S
C1077 H1061 0.930 . S
C1077 C1076 1.377 . S
C1077 C1078 1.379 . S
C1078 H1062 0.931 . S
C1078 C1072 1.383 . S
C1078 C1077 1.379 . S
H1079 C1073 0.959 . S
H1080 C1073 0.961 . S
H1081 C1073 0.960 . S
H1082 C1074 0.930 . S
H1083 C1075 0.929 . S
H1084 C1092 0.929 . S
H1085 C1094 0.930 . S
H1086 C1096 0.930 . S
H1087 C1099 0.929 . S
H1088 C1102 0.930 . S
H1089 C1104 0.960 . S
H1090 C1104 0.960 . S
H1091 C1104 0.960 . S
C1092 H1084 0.929 . S
C1092 C1093 1.377 . S
C1092 C1094 1.384 . S
C1093 C1092 1.377 . S
C1093 C1099 1.390 . S
C1094 H1085 0.930 . S
C1094 C1092 1.384 . S
C1094 C1095 1.372 . S
C1095 C1094 1.372 . S
C1095 C1096 1.400 . S
C1095 C1100 1.490 . S
C1096 H1086 0.930 . S
C1096 C1095 1.400 . S
C1096 C1099 1.386 . S
H1097 C1113 0.930 . S
H1098 C1114 0.931 . S
C1099 H1087 0.929 . S
C1099 C1093 1.390 . S
C1099 C1096 1.386 . S
C1100 C1095 1.490 . S
C1100 C1102 1.395 . S
C1100 C1103 1.403 . S
H1101 C1107 0.930 . S
C1102 H1088 0.930 . S
C1102 C1100 1.395 . S
C1102 C1105 1.403 . S
C1103 C1100 1.403 . S
C1103 C1104 1.524 . S
C1103 C1107 1.400 . S
C1104 H1089 0.960 . S
C1104 H1090 0.960 . S
C1104 H1091 0.960 . S
C1104 C1103 1.524 . S
C1105 C1102 1.403 . S
C1105 C1106 1.392 . S
C1105 C1109 1.495 . S
C1106 C1105 1.392 . S
C1106 C1107 1.385 . S
C1106 C1108 1.478 . S
C1107 H1101 0.930 . S
C1107 C1103 1.400 . S
C1107 C1106 1.385 . S
C1108 C1106 1.478 . S
C1108 C1110 1.381 . S
C1108 C1114 1.383 . S
C1109 C1105 1.495 . S
C1109 H1115 0.959 . S
C1109 H1116 0.961 . S
C1109 H1117 0.960 . S
C1110 C1108 1.381 . S
C1110 C1111 1.394 . S
C1110 H1118 0.930 . S
C1111 C1110 1.394 . S
C1111 C1112 1.383 . S
C1111 H1119 0.929 . S
C1112 C1111 1.383 . S
C1112 C1113 1.377 . S
C1113 H1097 0.930 . S
C1113 C1112 1.377 . S
C1113 C1114 1.379 . S
C1114 H1098 0.931 . S
C1114 C1108 1.383 . S
C1114 C1113 1.379 . S
H1115 C1109 0.959 . S
H1116 C1109 0.961 . S
H1117 C1109 0.960 . S
H1118 C1110 0.930 . S
H1119 C1111 0.929 . S
H1120 C1128 0.931 . S
H1121 C1130 0.930 . S
H1122 C1132 0.930 . S
H1123 C1135 0.929 . S
H1124 C1138 0.946 . S
H1125 C1140 0.960 . S
H1126 C1140 0.960 . S
H1127 C1140 0.960 . S
C1128 H1120 0.931 . S
C1128 C1129 1.377 . S
C1128 C1130 1.384 . S
C1129 C1128 1.377 . S
C1129 C1135 1.390 . S
C1130 H1121 0.930 . S
C1130 C1128 1.384 . S
C1130 C1131 1.372 . S
C1131 C1130 1.372 . S
C1131 C1132 1.400 . S
C1131 C1136 1.490 . S
C1132 H1122 0.930 . S
C1132 C1131 1.400 . S
C1132 C1135 1.386 . S
H1133 C1149 0.930 . S
H1134 C1150 0.931 . S
C1135 H1123 0.929 . S
C1135 C1129 1.390 . S
C1135 C1132 1.386 . S
C1136 C1131 1.490 . S
C1136 C1138 1.395 . S
C1136 C1139 1.403 . S
H1137 C1143 0.930 . S
C1138 H1124 0.946 . S
C1138 C1136 1.395 . S
C1138 C1141 1.403 . S
C1139 C1136 1.403 . S
C1139 C1140 1.524 . S
C1139 C1143 1.400 . S
C1140 H1125 0.960 . S
C1140 H1126 0.960 . S
C1140 H1127 0.960 . S
C1140 C1139 1.524 . S
C1141 C1138 1.403 . S
C1141 C1142 1.392 . S
C1141 C1145 1.495 . S
C1142 C1141 1.392 . S
C1142 C1143 1.385 . S
C1142 C1144 1.478 . S
C1143 H1137 0.930 . S
C1143 C1139 1.400 . S
C1143 C1142 1.385 . S
C1144 C1142 1.478 . S
C1144 C1146 1.381 . S
C1144 C1150 1.383 . S
C1145 C1141 1.495 . S
C1145 H1151 0.959 1_455 S
C1145 H1152 0.961 . S
C1145 H1153 0.960 . S
C1146 C1144 1.381 . S
C1146 C1147 1.394 . S
C1146 H1154 0.930 . S
C1147 C1146 1.394 . S
C1147 C1148 1.383 . S
C1147 H1155 0.929 . S
C1148 C1147 1.383 . S
C1148 C1149 1.377 . S
C1149 H1133 0.930 . S
C1149 C1148 1.377 . S
C1149 C1150 1.379 . S
C1150 H1134 0.931 . S
C1150 C1144 1.383 . S
C1150 C1149 1.379 . S
H1151 C1145 0.959 1_655 S
H1152 C1145 0.961 . S
H1153 C1145 0.960 . S
H1154 C1146 0.930 . S
H1155 C1147 0.929 . S
H1156 C1164 0.929 . S
H1157 C1166 0.930 . S
H1158 C1168 0.930 . S
H1159 C1171 0.929 . S
H1160 C1174 0.930 . S
H1161 C1176 0.960 . S
H1162 C1176 0.960 . S
H1163 C1176 0.960 . S
C1164 H1156 0.929 . S
C1164 C1165 1.377 . S
C1164 C1166 1.384 . S
C1165 C1164 1.377 . S
C1165 C1171 1.390 . S
C1166 H1157 0.930 . S
C1166 C1164 1.384 . S
C1166 C1167 1.372 . S
C1167 C1166 1.372 . S
C1167 C1168 1.400 . S
C1167 C1172 1.490 . S
C1168 H1158 0.930 . S
C1168 C1167 1.400 . S
C1168 C1171 1.386 . S
H1169 C1185 0.930 . S
H1170 C1186 0.931 . S
C1171 H1159 0.929 . S
C1171 C1165 1.390 . S
C1171 C1168 1.386 . S
C1172 C1167 1.490 . S
C1172 C1174 1.395 . S
C1172 C1175 1.403 . S
H1173 C1179 0.930 . S
C1174 H1160 0.930 . S
C1174 C1172 1.395 . S
C1174 C1177 1.403 . S
C1175 C1172 1.403 . S
C1175 C1176 1.524 . S
C1175 C1179 1.400 . S
C1176 H1161 0.960 . S
C1176 H1162 0.960 . S
C1176 H1163 0.960 . S
C1176 C1175 1.524 . S
C1177 C1174 1.403 . S
C1177 C1178 1.392 . S
C1177 C1181 1.495 . S
C1178 C1177 1.392 . S
C1178 C1179 1.385 . S
C1178 C1180 1.478 . S
C1179 H1173 0.930 . S
C1179 C1175 1.400 . S
C1179 C1178 1.385 . S
C1180 C1178 1.478 . S
C1180 C1182 1.381 . S
C1180 C1186 1.383 . S
C1181 C1177 1.495 . S
C1181 H1187 0.959 . S
C1181 H1188 0.961 . S
C1181 H1189 0.960 . S
C1182 C1180 1.381 . S
C1182 C1183 1.394 . S
C1182 H1190 0.930 . S
C1183 C1182 1.394 . S
C1183 C1184 1.383 . S
C1183 H1191 0.929 . S
C1184 C1183 1.383 . S
C1184 C1185 1.377 . S
C1185 H1169 0.930 . S
C1185 C1184 1.377 . S
C1185 C1186 1.379 . S
C1186 H1170 0.931 . S
C1186 C1180 1.383 . S
C1186 C1185 1.379 . S
H1187 C1181 0.959 . S
H1188 C1181 0.961 . S
H1189 C1181 0.960 . S
H1190 C1182 0.930 . S
H1191 C1183 0.929 . S
H1192 C1200 0.929 . S
H1193 C1202 0.930 . S
H1194 C1204 0.930 . S
H1195 C1207 0.929 . S
H1196 C1210 0.930 . S
H1197 C1212 0.960 . S
H1198 C1212 0.960 . S
H1199 C1212 0.960 . S
C1200 H1192 0.929 . S
C1200 C1201 1.377 . S
C1200 C1202 1.384 . S
C1201 C1200 1.377 . S
C1201 C1207 1.390 . S
C1202 H1193 0.930 . S
C1202 C1200 1.384 . S
C1202 C1203 1.372 . S
C1203 C1202 1.372 . S
C1203 C1204 1.400 . S
C1203 C1208 1.490 . S
C1204 H1194 0.930 . S
C1204 C1203 1.400 . S
C1204 C1207 1.386 . S
H1205 C1221 0.930 . S
H1206 C1222 0.931 . S
C1207 H1195 0.929 . S
C1207 C1201 1.390 . S
C1207 C1204 1.386 . S
C1208 C1203 1.490 . S
C1208 C1210 1.395 . S
C1208 C1211 1.403 . S
H1209 C1215 0.930 . S
C1210 H1196 0.930 . S
C1210 C1208 1.395 . S
C1210 C1213 1.403 . S
C1211 C1208 1.403 . S
C1211 C1212 1.524 . S
C1211 C1215 1.400 . S
C1212 H1197 0.960 . S
C1212 H1198 0.960 . S
C1212 H1199 0.960 . S
C1212 C1211 1.524 . S
C1213 C1210 1.403 . S
C1213 C1214 1.392 . S
C1213 C1217 1.495 . S
C1214 C1213 1.392 . S
C1214 C1215 1.385 . S
C1214 C1216 1.478 . S
C1215 H1209 0.930 . S
C1215 C1211 1.400 . S
C1215 C1214 1.385 . S
C1216 C1214 1.478 . S
C1216 C1218 1.381 . S
C1216 C1222 1.383 . S
C1217 C1213 1.495 . S
C1217 H1223 0.959 . S
C1217 H1224 0.961 . S
C1217 H1225 0.960 . S
C1218 C1216 1.381 . S
C1218 C1219 1.394 . S
C1218 H1226 0.930 . S
C1219 C1218 1.394 . S
C1219 C1220 1.383 . S
C1219 H1227 0.929 . S
C1220 C1219 1.383 . S
C1220 C1221 1.377 . S
C1221 H1205 0.930 . S
C1221 C1220 1.377 . S
C1221 C1222 1.379 . S
C1222 H1206 0.931 . S
C1222 C1216 1.383 . S
C1222 C1221 1.379 . S
H1223 C1217 0.959 . S
H1224 C1217 0.961 . S
H1225 C1217 0.960 . S
H1226 C1218 0.930 . S
H1227 C1219 0.929 . S
H1228 C1236 0.929 . S
H1229 C1238 0.930 . S
H1230 C1240 0.930 . S
H1231 C1243 0.929 . S
H1232 C1246 0.930 . S
H1233 C1248 0.960 . S
H1234 C1248 0.960 . S
H1235 C1248 0.960 . S
C1236 H1228 0.929 . S
C1236 C1237 1.377 . S
C1236 C1238 1.384 . S
C1237 C1236 1.377 . S
C1237 C1243 1.390 . S
C1238 H1229 0.930 . S
C1238 C1236 1.384 . S
C1238 C1239 1.372 . S
C1239 C1238 1.372 . S
C1239 C1240 1.400 . S
C1239 C1244 1.490 . S
C1240 H1230 0.930 . S
C1240 C1239 1.400 . S
C1240 C1243 1.386 . S
H1241 C1257 0.930 . S
H1242 C1258 0.931 . S
C1243 H1231 0.929 . S
C1243 C1237 1.390 . S
C1243 C1240 1.386 . S
C1244 C1239 1.490 . S
C1244 C1246 1.395 . S
C1244 C1247 1.403 . S
H1245 C1251 0.930 . S
C1246 H1232 0.930 . S
C1246 C1244 1.395 . S
C1246 C1249 1.403 . S
C1247 C1244 1.403 . S
C1247 C1248 1.524 . S
C1247 C1251 1.400 . S
C1248 H1233 0.960 . S
C1248 H1234 0.960 . S
C1248 H1235 0.960 . S
C1248 C1247 1.524 . S
C1249 C1246 1.403 . S
C1249 C1250 1.392 . S
C1249 C1253 1.495 . S
C1250 C1249 1.392 . S
C1250 C1251 1.385 . S
C1250 C1252 1.478 . S
C1251 H1245 0.930 . S
C1251 C1247 1.400 . S
C1251 C1250 1.385 . S
C1252 C1250 1.478 . S
C1252 C1254 1.381 . S
C1252 C1258 1.383 . S
C1253 C1249 1.495 . S
C1253 H1259 0.959 . S
C1253 H1260 0.961 . S
C1253 H1261 0.960 . S
C1254 C1252 1.381 . S
C1254 C1255 1.394 . S
C1254 H1262 0.930 . S
C1255 C1254 1.394 . S
C1255 C1256 1.383 . S
C1255 H1263 0.929 . S
C1256 C1255 1.383 . S
C1256 C1257 1.377 . S
C1257 H1241 0.930 . S
C1257 C1256 1.377 . S
C1257 C1258 1.379 . S
C1258 H1242 0.931 . S
C1258 C1252 1.383 . S
C1258 C1257 1.379 . S
H1259 C1253 0.959 . S
H1260 C1253 0.961 . S
H1261 C1253 0.960 . S
H1262 C1254 0.930 . S
H1263 C1255 0.929 . S
H1264 C1272 0.929 . S
H1265 C1274 0.930 . S
H1266 C1276 0.930 . S
H1267 C1279 0.929 . S
H1268 C1282 0.930 . S
H1269 C1284 0.940 1_455 S
H1270 C1284 0.960 . S
H1271 C1284 0.960 . S
C1272 H1264 0.929 . S
C1272 C1273 1.377 . S
C1272 C1274 1.384 . S
C1273 C1272 1.377 . S
C1273 C1279 1.390 . S
C1274 H1265 0.930 . S
C1274 C1272 1.384 . S
C1274 C1275 1.372 . S
C1275 C1274 1.372 . S
C1275 C1276 1.400 . S
C1275 C1280 1.490 . S
C1276 H1266 0.930 . S
C1276 C1275 1.400 . S
C1276 C1279 1.386 . S
H1277 C1293 0.930 . S
H1278 C1294 0.931 . S
C1279 H1267 0.929 . S
C1279 C1273 1.390 . S
C1279 C1276 1.386 . S
C1280 C1275 1.490 . S
C1280 C1282 1.395 . S
C1280 C1283 1.403 . S
H1281 C1287 0.930 1_455 S
C1282 H1268 0.930 . S
C1282 C1280 1.395 . S
C1282 C1285 1.403 . S
C1283 C1280 1.403 . S
C1283 C1284 1.524 . S
C1283 C1287 1.400 . S
C1284 H1269 0.940 1_655 S
C1284 H1270 0.960 . S
C1284 H1271 0.960 . S
C1284 C1283 1.524 . S
C1285 C1282 1.403 . S
C1285 C1286 1.392 . S
C1285 C1289 1.495 . S
C1286 C1285 1.392 . S
C1286 C1287 1.385 . S
C1286 C1288 1.478 1_655 S
C1287 H1281 0.930 1_655 S
C1287 C1283 1.400 . S
C1287 C1286 1.385 . S
C1288 C1286 1.478 1_455 S
C1288 C1290 1.381 1_455 S
C1288 C1294 1.383 . S
C1289 C1285 1.495 . S
C1289 H1295 0.959 . S
C1289 H1296 0.961 . S
C1289 H1297 0.960 . S
C1290 C1288 1.381 1_655 S
C1290 C1291 1.359 1_655 S
C1290 H1298 0.930 . S
C1291 C1290 1.359 1_455 S
C1291 C1292 1.444 . S
C1291 H1299 0.907 1_455 S
C1292 C1291 1.444 . S
C1292 C1293 1.377 . S
C1293 H1277 0.930 . S
C1293 C1292 1.377 . S
C1293 C1294 1.379 . S
C1294 H1278 0.931 . S
C1294 C1288 1.383 . S
C1294 C1293 1.379 . S
H1295 C1289 0.959 . S
H1296 C1289 0.961 . S
H1297 C1289 0.960 . S
H1298 C1290 0.930 . S
H1299 C1291 0.907 1_655 S
H1300 C1308 0.929 . S
H1301 C1310 0.930 . S
H1302 C1312 0.930 . S
H1303 C1315 0.929 . S
H1304 C1318 0.930 . S
H1305 C1320 0.960 . S
H1306 C1320 0.960 . S
H1307 C1320 0.960 . S
C1308 H1300 0.929 . S
C1308 C1309 1.377 . S
C1308 C1310 1.384 . S
C1309 C1308 1.377 . S
C1309 C1315 1.390 . S
C1310 H1301 0.930 . S
C1310 C1308 1.384 . S
C1310 C1311 1.372 . S
C1311 C1310 1.372 . S
C1311 C1312 1.400 . S
C1311 C1316 1.490 . S
C1312 H1302 0.930 . S
C1312 C1311 1.400 . S
C1312 C1315 1.386 . S
H1313 C1329 0.930 . S
H1314 C1330 0.931 . S
C1315 H1303 0.929 . S
C1315 C1309 1.390 . S
C1315 C1312 1.386 . S
C1316 C1311 1.490 . S
C1316 C1318 1.395 . S
C1316 C1319 1.403 . S
H1317 C1323 0.930 . S
C1318 H1304 0.930 . S
C1318 C1316 1.395 . S
C1318 C1321 1.403 . S
C1319 C1316 1.403 . S
C1319 C1320 1.524 . S
C1319 C1323 1.400 . S
C1320 H1305 0.960 . S
C1320 H1306 0.960 . S
C1320 H1307 0.960 . S
C1320 C1319 1.524 . S
C1321 C1318 1.403 . S
C1321 C1322 1.392 . S
C1321 C1325 1.495 . S
C1322 C1321 1.392 . S
C1322 C1323 1.385 . S
C1322 C1324 1.478 . S
C1323 H1317 0.930 . S
C1323 C1319 1.400 . S
C1323 C1322 1.385 . S
C1324 C1322 1.478 . S
C1324 C1326 1.381 . S
C1324 C1330 1.383 . S
C1325 C1321 1.495 . S
C1325 H1331 0.959 . S
C1325 H1332 0.961 . S
C1325 H1333 0.960 . S
C1326 C1324 1.381 . S
C1326 C1327 1.394 . S
C1326 H1334 0.930 . S
C1327 C1326 1.394 . S
C1327 C1328 1.383 . S
C1327 H1335 0.929 . S
C1328 C1327 1.383 . S
C1328 C1329 1.377 . S
C1329 H1313 0.930 . S
C1329 C1328 1.377 . S
C1329 C1330 1.379 . S
C1330 H1314 0.931 . S
C1330 C1324 1.383 . S
C1330 C1329 1.379 . S
H1331 C1325 0.959 . S
H1332 C1325 0.961 . S
H1333 C1325 0.960 . S
H1334 C1326 0.930 . S
H1335 C1327 0.929 . S
H1336 C1344 0.929 . S
H1337 C1346 0.930 . S
H1338 C1348 0.930 . S
H1339 C1351 0.929 . S
H1340 C1354 0.930 . S
H1341 C1356 0.960 . S
H1342 C1356 0.960 . S
H1343 C1356 0.960 . S
C1344 H1336 0.929 . S
C1344 C1345 1.377 . S
C1344 C1346 1.384 . S
C1345 C1344 1.377 . S
C1345 C1351 1.390 . S
C1346 H1337 0.930 . S
C1346 C1344 1.384 . S
C1346 C1347 1.372 . S
C1347 C1346 1.372 . S
C1347 C1348 1.400 . S
C1347 C1352 1.490 . S
C1348 H1338 0.930 . S
C1348 C1347 1.400 . S
C1348 C1351 1.386 . S
H1349 C1365 0.930 . S
H1350 C1366 0.931 . S
C1351 H1339 0.929 . S
C1351 C1345 1.390 . S
C1351 C1348 1.386 . S
C1352 C1347 1.490 . S
C1352 C1354 1.395 . S
C1352 C1355 1.403 . S
H1353 C1359 0.930 . S
C1354 H1340 0.930 . S
C1354 C1352 1.395 . S
C1354 C1357 1.403 . S
C1355 C1352 1.403 . S
C1355 C1356 1.524 . S
C1355 C1359 1.400 . S
C1356 H1341 0.960 . S
C1356 H1342 0.960 . S
C1356 H1343 0.960 . S
C1356 C1355 1.524 . S
C1357 C1354 1.403 . S
C1357 C1358 1.392 . S
C1357 C1361 1.495 1_545 S
C1358 C1357 1.392 . S
C1358 C1359 1.385 . S
C1358 C1360 1.478 . S
C1359 H1353 0.930 . S
C1359 C1355 1.400 . S
C1359 C1358 1.385 . S
C1360 C1358 1.478 . S
C1360 C1362 1.381 . S
C1360 C1366 1.383 . S
C1361 C1357 1.495 1_565 S
C1361 H1367 0.959 . S
C1361 H1368 0.961 . S
C1361 H1369 0.960 . S
C1362 C1360 1.381 . S
C1362 C1363 1.394 . S
C1362 H1370 0.930 . S
C1363 C1362 1.394 . S
C1363 C1364 1.383 . S
C1363 H1371 0.929 . S
C1364 C1363 1.383 . S
C1364 C1365 1.377 . S
C1365 H1349 0.930 . S
C1365 C1364 1.377 . S
C1365 C1366 1.379 . S
C1366 H1350 0.931 . S
C1366 C1360 1.383 . S
C1366 C1365 1.379 . S
H1367 C1361 0.959 . S
H1368 C1361 0.961 . S
H1369 C1361 0.960 . S
H1370 C1362 0.930 . S
H1371 C1363 0.929 . S
H1372 C1380 0.929 . S
H1373 C1382 0.930 . S
H1374 C1384 0.930 . S
H1375 C1387 0.929 . S
H1376 C1390 0.930 . S
H1377 C1392 0.960 . S
H1378 C1392 0.960 . S
H1379 C1392 0.960 . S
C1380 H1372 0.929 . S
C1380 C1381 1.377 . S
C1380 C1382 1.384 . S
C1381 C1380 1.377 . S
C1381 C1387 1.390 . S
C1382 H1373 0.930 . S
C1382 C1380 1.384 . S
C1382 C1383 1.372 . S
C1383 C1382 1.372 . S
C1383 C1384 1.400 . S
C1383 C1388 1.490 . S
C1384 H1374 0.930 . S
C1384 C1383 1.400 . S
C1384 C1387 1.386 . S
H1385 C1401 0.930 . S
H1386 C1402 0.931 . S
C1387 H1375 0.929 . S
C1387 C1381 1.390 . S
C1387 C1384 1.386 . S
C1388 C1383 1.490 . S
C1388 C1390 1.395 . S
C1388 C1391 1.403 . S
H1389 C1395 0.930 . S
C1390 H1376 0.930 . S
C1390 C1388 1.395 . S
C1390 C1393 1.403 . S
C1391 C1388 1.403 . S
C1391 C1392 1.524 . S
C1391 C1395 1.400 . S
C1392 H1377 0.960 . S
C1392 H1378 0.960 . S
C1392 H1379 0.960 . S
C1392 C1391 1.524 . S
C1393 C1390 1.403 . S
C1393 C1394 1.392 . S
C1393 C1397 1.495 . S
C1394 C1393 1.392 . S
C1394 C1395 1.385 . S
C1394 C1396 1.478 . S
C1395 H1389 0.930 . S
C1395 C1391 1.400 . S
C1395 C1394 1.385 . S
C1396 C1394 1.478 . S
C1396 C1398 1.381 . S
C1396 C1402 1.383 . S
C1397 C1393 1.495 . S
C1397 H1403 0.959 . S
C1397 H1404 0.961 . S
C1397 H1405 0.960 . S
C1398 C1396 1.381 . S
C1398 C1399 1.394 . S
C1398 H1406 0.930 . S
C1399 C1398 1.394 . S
C1399 C1400 1.383 . S
C1399 H1407 0.929 . S
C1400 C1399 1.383 . S
C1400 C1401 1.377 . S
C1401 H1385 0.930 . S
C1401 C1400 1.377 . S
C1401 C1402 1.379 . S
C1402 H1386 0.931 . S
C1402 C1396 1.383 . S
C1402 C1401 1.379 . S
H1403 C1397 0.959 . S
H1404 C1397 0.961 . S
H1405 C1397 0.960 . S
H1406 C1398 0.930 . S
H1407 C1399 0.929 . S
H1408 C1416 0.929 . S
H1409 C1418 0.930 . S
H1410 C1420 0.930 . S
H1411 C1423 0.929 . S
H1412 C1426 0.930 . S
H1413 C1428 0.960 1_455 S
H1414 C1428 0.935 1_455 S
H1415 C1428 0.960 . S
C1416 H1408 0.929 . S
C1416 C1417 1.377 . S
C1416 C1418 1.384 . S
C1417 C1416 1.377 . S
C1417 C1423 1.390 . S
C1418 H1409 0.930 . S
C1418 C1416 1.384 . S
C1418 C1419 1.372 . S
C1419 C1418 1.372 . S
C1419 C1420 1.400 . S
C1419 C1424 1.490 . S
C1420 H1410 0.930 . S
C1420 C1419 1.400 . S
C1420 C1423 1.386 . S
H1421 C1437 0.930 . S
H1422 C1438 0.971 . S
C1423 H1411 0.929 . S
C1423 C1417 1.390 . S
C1423 C1420 1.386 . S
C1424 C1419 1.490 . S
C1424 C1426 1.395 . S
C1424 C1427 1.403 . S
H1425 C1431 0.930 1_455 S
C1426 H1412 0.930 . S
C1426 C1424 1.395 . S
C1426 C1429 1.403 . S
C1427 C1424 1.403 . S
C1427 C1428 1.524 . S
C1427 C1431 1.400 . S
C1428 H1413 0.960 1_655 S
C1428 H1414 0.935 1_655 S
C1428 H1415 0.960 . S
C1428 C1427 1.524 . S
C1429 C1426 1.403 . S
C1429 C1430 1.392 . S
C1429 C1433 1.495 . S
C1430 C1429 1.392 . S
C1430 C1431 1.385 . S
C1430 C1432 1.478 1_655 S
C1431 H1425 0.930 1_655 S
C1431 C1427 1.400 . S
C1431 C1430 1.385 . S
C1432 C1430 1.478 1_455 S
C1432 C1434 1.381 . S
C1432 C1438 1.376 1_455 S
C1433 C1429 1.495 . S
C1433 H1439 0.959 . S
C1433 H1440 0.961 . S
C1433 H1441 0.960 . S
C1434 C1432 1.381 . S
C1434 C1435 1.394 . S
C1434 H1442 0.930 . S
C1435 C1434 1.394 . S
C1435 C1436 1.383 . S
C1435 H1443 0.929 . S
C1436 C1435 1.383 . S
C1436 C1437 1.377 . S
C1437 H1421 0.930 . S
C1437 C1436 1.377 . S
C1437 C1438 1.351 1_455 S
C1438 H1422 0.971 . S
C1438 C1432 1.376 1_655 S
C1438 C1437 1.351 1_655 S
H1439 C1433 0.959 . S
H1440 C1433 0.961 . S
H1441 C1433 0.960 . S
H1442 C1434 0.930 . S
H1443 C1435 0.929 . S
H1444 C1452 0.929 . S
H1445 C1454 0.930 . S
H1446 C1456 0.930 . S
H1447 C1459 0.929 . S
H1448 C1462 0.930 . S
H1449 C1464 0.960 . S
H1450 C1464 0.960 . S
H1451 C1464 0.960 . S
C1452 H1444 0.929 . S
C1452 C1453 1.377 . S
C1452 C1454 1.384 . S
C1453 C1452 1.377 . S
C1453 C1459 1.390 . S
C1454 H1445 0.930 . S
C1454 C1452 1.384 . S
C1454 C1455 1.372 . S
C1455 C1454 1.372 . S
C1455 C1456 1.400 . S
C1455 C1460 1.490 . S
C1456 H1446 0.930 . S
C1456 C1455 1.400 . S
C1456 C1459 1.386 . S
H1457 C1473 0.930 . S
H1458 C1474 0.931 . S
C1459 H1447 0.929 . S
C1459 C1453 1.390 . S
C1459 C1456 1.386 . S
C1460 C1455 1.490 . S
C1460 C1462 1.395 . S
C1460 C1463 1.403 . S
H1461 C1467 0.930 . S
C1462 H1448 0.930 . S
C1462 C1460 1.395 . S
C1462 C1465 1.403 . S
C1463 C1460 1.403 . S
C1463 C1464 1.524 . S
C1463 C1467 1.400 . S
C1464 H1449 0.960 . S
C1464 H1450 0.960 . S
C1464 H1451 0.960 . S
C1464 C1463 1.524 . S
C1465 C1462 1.403 . S
C1465 C1466 1.392 . S
C1465 C1469 1.495 . S
C1466 C1465 1.392 . S
C1466 C1467 1.385 . S
C1466 C1468 1.478 . S
C1467 H1461 0.930 . S
C1467 C1463 1.400 . S
C1467 C1466 1.385 . S
C1468 C1466 1.478 . S
C1468 C1470 1.381 . S
C1468 C1474 1.383 . S
C1469 C1465 1.495 . S
C1469 H1475 0.959 . S
C1469 H1476 0.961 . S
C1469 H1477 0.960 . S
C1470 C1468 1.381 . S
C1470 C1471 1.394 . S
C1470 H1478 0.930 . S
C1471 C1470 1.394 . S
C1471 C1472 1.383 . S
C1471 H1479 0.929 . S
C1472 C1471 1.383 . S
C1472 C1473 1.377 . S
C1473 H1457 0.930 . S
C1473 C1472 1.377 . S
C1473 C1474 1.379 . S
C1474 H1458 0.931 . S
C1474 C1468 1.383 . S
C1474 C1473 1.379 . S
H1475 C1469 0.959 . S
H1476 C1469 0.961 . S
H1477 C1469 0.960 . S
H1478 C1470 0.930 . S
H1479 C1471 0.929 . S
H1480 C1488 0.929 . S
H1481 C1490 0.930 . S
H1482 C1492 0.930 . S
H1483 C1495 0.929 . S
H1484 C1498 0.930 . S
H1485 C1500 0.960 . S
H1486 C1500 0.960 . S
H1487 C1500 0.960 . S
C1488 H1480 0.929 . S
C1488 C1489 1.377 . S
C1488 C1490 1.384 . S
C1489 C1488 1.377 . S
C1489 C1495 1.390 . S
C1490 H1481 0.930 . S
C1490 C1488 1.384 . S
C1490 C1491 1.372 . S
C1491 C1490 1.372 . S
C1491 C1492 1.400 . S
C1491 C1496 1.490 . S
C1492 H1482 0.930 . S
C1492 C1491 1.400 . S
C1492 C1495 1.386 . S
H1493 C1509 0.930 . S
H1494 C1510 0.931 . S
C1495 H1483 0.929 . S
C1495 C1489 1.390 . S
C1495 C1492 1.386 . S
C1496 C1491 1.490 . S
C1496 C1498 1.395 . S
C1496 C1499 1.403 . S
H1497 C1503 0.930 . S
C1498 H1484 0.930 . S
C1498 C1496 1.395 . S
C1498 C1501 1.403 . S
C1499 C1496 1.403 . S
C1499 C1500 1.524 . S
C1499 C1503 1.400 . S
C1500 H1485 0.960 . S
C1500 H1486 0.960 . S
C1500 H1487 0.960 . S
C1500 C1499 1.524 . S
C1501 C1498 1.403 . S
C1501 C1502 1.392 . S
C1501 C1505 1.495 . S
C1502 C1501 1.392 . S
C1502 C1503 1.385 . S
C1502 C1504 1.478 . S
C1503 H1497 0.930 . S
C1503 C1499 1.400 . S
C1503 C1502 1.385 . S
C1504 C1502 1.478 . S
C1504 C1506 1.381 . S
C1504 C1510 1.383 . S
C1505 C1501 1.495 . S
C1505 H1511 0.959 . S
C1505 H1512 0.961 . S
C1505 H1513 0.960 . S
C1506 C1504 1.381 . S
C1506 C1507 1.394 . S
C1506 H1514 0.930 . S
C1507 C1506 1.394 . S
C1507 C1508 1.383 . S
C1507 H1515 0.929 . S
C1508 C1507 1.383 . S
C1508 C1509 1.377 . S
C1509 H1493 0.930 . S
C1509 C1508 1.377 . S
C1509 C1510 1.379 . S
C1510 H1494 0.931 . S
C1510 C1504 1.383 . S
C1510 C1509 1.379 . S
H1511 C1505 0.959 . S
H1512 C1505 0.961 . S
H1513 C1505 0.960 . S
H1514 C1506 0.930 . S
H1515 C1507 0.929 . S
H1516 C1524 0.929 . S
H1517 C1526 0.930 . S
H1518 C1528 0.930 . S
H1519 C1531 0.929 . S
H1520 C1534 0.930 . S
H1521 C1536 0.960 . S
H1522 C1536 0.960 . S
H1523 C1536 0.960 . S
C1524 H1516 0.929 . S
C1524 C1525 1.377 . S
C1524 C1526 1.384 . S
C1525 C1524 1.377 . S
C1525 C1531 1.390 . S
C1526 H1517 0.930 . S
C1526 C1524 1.384 . S
C1526 C1527 1.372 . S
C1527 C1526 1.372 . S
C1527 C1528 1.400 . S
C1527 C1532 1.490 . S
C1528 H1518 0.930 . S
C1528 C1527 1.400 . S
C1528 C1531 1.386 . S
H1529 C1545 0.930 . S
H1530 C1546 0.931 . S
C1531 H1519 0.929 . S
C1531 C1525 1.390 . S
C1531 C1528 1.386 . S
C1532 C1527 1.490 . S
C1532 C1534 1.395 . S
C1532 C1535 1.403 . S
H1533 C1539 0.930 . S
C1534 H1520 0.930 . S
C1534 C1532 1.395 . S
C1534 C1537 1.403 . S
C1535 C1532 1.403 . S
C1535 C1536 1.524 . S
C1535 C1539 1.400 . S
C1536 H1521 0.960 . S
C1536 H1522 0.960 . S
C1536 H1523 0.960 . S
C1536 C1535 1.524 . S
C1537 C1534 1.403 . S
C1537 C1538 1.392 . S
C1537 C1541 1.495 . S
C1538 C1537 1.392 . S
C1538 C1539 1.385 . S
C1538 C1540 1.478 . S
C1539 H1533 0.930 . S
C1539 C1535 1.400 . S
C1539 C1538 1.385 . S
C1540 C1538 1.478 . S
C1540 C1542 1.381 . S
C1540 C1546 1.383 . S
C1541 C1537 1.495 . S
C1541 H1547 0.959 . S
C1541 H1548 0.961 . S
C1541 H1549 0.960 . S
C1542 C1540 1.381 . S
C1542 C1543 1.394 . S
C1542 H1550 0.930 . S
C1543 C1542 1.394 . S
C1543 C1544 1.383 . S
C1543 H1551 0.929 . S
C1544 C1543 1.383 . S
C1544 C1545 1.377 . S
C1545 H1529 0.930 . S
C1545 C1544 1.377 . S
C1545 C1546 1.379 . S
C1546 H1530 0.931 . S
C1546 C1540 1.383 . S
C1546 C1545 1.379 . S
H1547 C1541 0.959 . S
H1548 C1541 0.961 . S
H1549 C1541 0.960 . S
H1550 C1542 0.930 . S
H1551 C1543 0.929 . S
H1552 C1560 0.929 . S
H1553 C1562 0.930 1_556 S
H1554 C1564 0.930 . S
H1555 C1567 0.929 . S
H1556 C1570 0.930 . S
H1557 C1572 0.960 1_545 S
H1558 C1572 0.960 . S
H1559 C1572 0.960 . S
C1560 H1552 0.929 . S
C1560 C1561 1.377 1_556 S
C1560 C1562 1.384 1_556 S
C1561 C1560 1.377 1_554 S
C1561 C1567 1.390 . S
C1562 H1553 0.930 1_554 S
C1562 C1560 1.384 1_554 S
C1562 C1563 1.372 . S
C1563 C1562 1.372 . S
C1563 C1564 1.400 . S
C1563 C1568 1.490 . S
C1564 H1554 0.930 . S
C1564 C1563 1.400 . S
C1564 C1567 1.386 . S
H1565 C1581 0.930 1_545 S
H1566 C1582 0.931 . S
C1567 H1555 0.929 . S
C1567 C1561 1.390 . S
C1567 C1564 1.386 . S
C1568 C1563 1.490 . S
C1568 C1570 1.395 . S
C1568 C1571 1.403 . S
H1569 C1575 0.930 . S
C1570 H1556 0.930 . S
C1570 C1568 1.395 . S
C1570 C1573 1.403 . S
C1571 C1568 1.403 . S
C1571 C1572 1.524 . S
C1571 C1575 1.400 . S
C1572 H1557 0.960 1_565 S
C1572 H1558 0.960 . S
C1572 H1559 0.960 . S
C1572 C1571 1.524 . S
C1573 C1570 1.403 . S
C1573 C1574 1.392 . S
C1573 C1577 1.495 . S
C1574 C1573 1.392 . S
C1574 C1575 1.385 . S
C1574 C1576 1.478 . S
C1575 H1569 0.930 . S
C1575 C1571 1.400 . S
C1575 C1574 1.385 . S
C1576 C1574 1.478 . S
C1576 C1578 1.381 . S
C1576 C1582 1.383 . S
C1577 C1573 1.495 . S
C1577 H1583 0.959 . S
C1577 H1584 0.961 . S
C1577 H1585 0.960 . S
C1578 C1576 1.381 . S
C1578 C1579 1.394 . S
C1578 H1586 0.930 . S
C1579 C1578 1.394 . S
C1579 C1580 1.383 . S
C1579 H1587 0.929 . S
C1580 C1579 1.383 . S
C1580 C1581 1.377 . S
C1581 H1565 0.930 1_565 S
C1581 C1580 1.377 . S
C1581 C1582 1.379 . S
C1582 H1566 0.931 . S
C1582 C1576 1.383 . S
C1582 C1581 1.379 . S
H1583 C1577 0.959 . S
H1584 C1577 0.961 . S
H1585 C1577 0.960 . S
H1586 C1578 0.930 . S
H1587 C1579 0.929 . S
H1588 C1596 0.929 . S
H1589 C1598 0.930 . S
H1590 C1600 0.930 . S
H1591 C1603 0.929 . S
H1592 C1606 0.930 . S
H1593 C1608 0.960 . S
H1594 C1608 0.960 . S
H1595 C1608 0.960 . S
C1596 H1588 0.929 . S
C1596 C1597 1.354 1_556 S
C1596 C1598 1.384 . S
C1597 C1596 1.354 1_554 S
C1597 C1603 1.423 . S
C1598 H1589 0.930 . S
C1598 C1596 1.384 . S
C1598 C1599 1.341 1_556 S
C1599 C1598 1.341 1_554 S
C1599 C1600 1.423 . S
C1599 C1604 1.495 . S
C1600 H1590 0.930 . S
C1600 C1599 1.423 . S
C1600 C1603 1.386 . S
H1601 C1617 0.930 . S
H1602 C1618 0.931 . S
C1603 H1591 0.929 . S
C1603 C1597 1.423 . S
C1603 C1600 1.386 . S
C1604 C1599 1.495 . S
C1604 C1606 1.382 1_554 S
C1604 C1607 1.417 . S
H1605 C1611 0.930 . S
C1606 H1592 0.930 . S
C1606 C1604 1.382 1_556 S
C1606 C1609 1.403 . S
C1607 C1604 1.417 . S
C1607 C1608 1.524 . S
C1607 C1611 1.400 . S
C1608 H1593 0.960 . S
C1608 H1594 0.960 . S
C1608 H1595 0.960 . S
C1608 C1607 1.524 . S
C1609 C1606 1.403 . S
C1609 C1610 1.392 . S
C1609 C1613 1.495 . S
C1610 C1609 1.392 . S
C1610 C1611 1.385 1_556 S
C1610 C1612 1.478 . S
C1611 H1605 0.930 . S
C1611 C1607 1.400 . S
C1611 C1610 1.385 1_554 S
C1612 C1610 1.478 . S
C1612 C1614 1.381 . S
C1612 C1618 1.383 1_556 S
C1613 C1609 1.495 . S
C1613 H1619 0.959 . S
C1613 H1620 0.961 . S
C1613 H1621 0.960 . S
C1614 C1612 1.381 . S
C1614 C1615 1.394 . S
C1614 H1622 0.930 . S
C1615 C1614 1.394 . S
C1615 C1616 1.383 1_556 S
C1615 H1623 0.929 . S
C1616 C1615 1.383 1_554 S
C1616 C1617 1.377 . S
C1617 H1601 0.930 . S
C1617 C1616 1.377 . S
C1617 C1618 1.379 . S
C1618 H1602 0.931 . S
C1618 C1612 1.383 1_554 S
C1618 C1617 1.379 . S
H1619 C1613 0.959 . S
H1620 C1613 0.961 . S
H1621 C1613 0.960 . S
H1622 C1614 0.930 . S
H1623 C1615 0.929 . S
H1624 C1632 0.929 . S
H1625 C1634 0.930 . S
H1626 C1636 0.930 . S
H1627 C1639 0.929 . S
H1628 C1642 0.930 . S
H1629 C1644 0.960 . S
H1630 C1644 0.960 . S
H1631 C1644 0.960 . S
C1632 H1624 0.929 . S
C1632 C1633 1.377 . S
C1632 C1634 1.384 . S
C1633 C1632 1.377 . S
C1633 C1639 1.390 . S
C1634 H1625 0.930 . S
C1634 C1632 1.384 . S
C1634 C1635 1.372 . S
C1635 C1634 1.372 . S
C1635 C1636 1.400 . S
C1635 C1640 1.490 . S
C1636 H1626 0.930 . S
C1636 C1635 1.400 . S
C1636 C1639 1.386 . S
H1637 C1653 0.930 . S
H1638 C1654 0.931 . S
C1639 H1627 0.929 . S
C1639 C1633 1.390 . S
C1639 C1636 1.386 . S
C1640 C1635 1.490 . S
C1640 C1642 1.395 . S
C1640 C1643 1.403 . S
H1641 C1647 0.930 . S
C1642 H1628 0.930 . S
C1642 C1640 1.395 . S
C1642 C1645 1.403 . S
C1643 C1640 1.403 . S
C1643 C1644 1.524 . S
C1643 C1647 1.400 . S
C1644 H1629 0.960 . S
C1644 H1630 0.960 . S
C1644 H1631 0.960 . S
C1644 C1643 1.524 . S
C1645 C1642 1.403 . S
C1645 C1646 1.392 . S
C1645 C1649 1.495 . S
C1646 C1645 1.392 . S
C1646 C1647 1.385 . S
C1646 C1648 1.478 . S
C1647 H1641 0.930 . S
C1647 C1643 1.400 . S
C1647 C1646 1.385 . S
C1648 C1646 1.478 . S
C1648 C1650 1.381 . S
C1648 C1654 1.383 . S
C1649 C1645 1.495 . S
C1649 H1655 0.959 . S
C1649 H1656 0.961 . S
C1649 H1657 0.960 . S
C1650 C1648 1.381 . S
C1650 C1651 1.394 . S
C1650 H1658 0.930 . S
C1651 C1650 1.394 . S
C1651 C1652 1.383 . S
C1651 H1659 0.929 . S
C1652 C1651 1.383 . S
C1652 C1653 1.377 . S
C1653 H1637 0.930 . S
C1653 C1652 1.377 . S
C1653 C1654 1.379 . S
C1654 H1638 0.931 . S
C1654 C1648 1.383 . S
C1654 C1653 1.379 . S
H1655 C1649 0.959 . S
H1656 C1649 0.961 . S
H1657 C1649 0.960 . S
H1658 C1650 0.930 . S
H1659 C1651 0.929 . S
H1660 C1668 0.929 . S
H1661 C1670 0.930 . S
H1662 C1672 0.930 . S
H1663 C1675 0.929 . S
H1664 C1678 0.930 . S
H1665 C1680 0.960 . S
H1666 C1680 0.960 . S
H1667 C1680 0.960 . S
C1668 H1660 0.929 . S
C1668 C1669 1.377 . S
C1668 C1670 1.384 . S
C1669 C1668 1.377 . S
C1669 C1675 1.390 . S
C1670 H1661 0.930 . S
C1670 C1668 1.384 . S
C1670 C1671 1.372 . S
C1671 C1670 1.372 . S
C1671 C1672 1.400 . S
C1671 C1676 1.490 . S
C1672 H1662 0.930 . S
C1672 C1671 1.400 . S
C1672 C1675 1.386 . S
H1673 C1689 0.930 . S
H1674 C1690 0.931 . S
C1675 H1663 0.929 . S
C1675 C1669 1.390 . S
C1675 C1672 1.386 . S
C1676 C1671 1.490 . S
C1676 C1678 1.395 . S
C1676 C1679 1.403 . S
H1677 C1683 0.930 . S
C1678 H1664 0.930 . S
C1678 C1676 1.395 . S
C1678 C1681 1.403 . S
C1679 C1676 1.403 . S
C1679 C1680 1.524 . S
C1679 C1683 1.400 . S
C1680 H1665 0.960 . S
C1680 H1666 0.960 . S
C1680 H1667 0.960 . S
C1680 C1679 1.524 . S
C1681 C1678 1.403 . S
C1681 C1682 1.392 . S
C1681 C1685 1.495 . S
C1682 C1681 1.392 . S
C1682 C1683 1.385 . S
C1682 C1684 1.478 . S
C1683 H1677 0.930 . S
C1683 C1679 1.400 . S
C1683 C1682 1.385 . S
C1684 C1682 1.478 . S
C1684 C1686 1.381 . S
C1684 C1690 1.383 . S
C1685 C1681 1.495 . S
C1685 H1691 0.959 . S
C1685 H1692 0.961 . S
C1685 H1693 0.960 . S
C1686 C1684 1.381 . S
C1686 C1687 1.394 . S
C1686 H1694 0.930 . S
C1687 C1686 1.394 . S
C1687 C1688 1.383 . S
C1687 H1695 0.929 . S
C1688 C1687 1.383 . S
C1688 C1689 1.377 . S
C1689 H1673 0.930 . S
C1689 C1688 1.377 . S
C1689 C1690 1.379 . S
C1690 H1674 0.931 . S
C1690 C1684 1.383 . S
C1690 C1689 1.379 . S
H1691 C1685 0.959 . S
H1692 C1685 0.961 . S
H1693 C1685 0.960 . S
H1694 C1686 0.930 . S
H1695 C1687 0.929 . S
H1696 C1704 0.929 . S
H1697 C1706 0.930 . S
H1698 C1708 0.930 . S
H1699 C1711 0.929 . S
H1700 C1714 0.930 . S
H1701 C1716 0.960 . S
H1702 C1716 0.960 . S
H1703 C1716 0.960 . S
C1704 H1696 0.929 . S
C1704 C1705 1.377 . S
C1704 C1706 1.384 . S
C1705 C1704 1.377 . S
C1705 C1711 1.390 . S
C1706 H1697 0.930 . S
C1706 C1704 1.384 . S
C1706 C1707 1.372 . S
C1707 C1706 1.372 . S
C1707 C1708 1.400 . S
C1707 C1712 1.490 . S
C1708 H1698 0.930 . S
C1708 C1707 1.400 . S
C1708 C1711 1.386 . S
H1709 C1725 0.930 . S
H1710 C1726 0.931 . S
C1711 H1699 0.929 . S
C1711 C1705 1.390 . S
C1711 C1708 1.386 . S
C1712 C1707 1.490 . S
C1712 C1714 1.395 . S
C1712 C1715 1.403 . S
H1713 C1719 0.930 . S
C1714 H1700 0.930 . S
C1714 C1712 1.395 . S
C1714 C1717 1.403 . S
C1715 C1712 1.403 . S
C1715 C1716 1.524 . S
C1715 C1719 1.400 . S
C1716 H1701 0.960 . S
C1716 H1702 0.960 . S
C1716 H1703 0.960 . S
C1716 C1715 1.524 . S
C1717 C1714 1.403 . S
C1717 C1718 1.392 . S
C1717 C1721 1.495 . S
C1718 C1717 1.392 . S
C1718 C1719 1.385 . S
C1718 C1720 1.478 . S
C1719 H1713 0.930 . S
C1719 C1715 1.400 . S
C1719 C1718 1.385 . S
C1720 C1718 1.478 . S
C1720 C1722 1.381 . S
C1720 C1726 1.383 . S
C1721 C1717 1.495 . S
C1721 H1727 0.959 . S
C1721 H1728 0.961 . S
C1721 H1729 0.960 . S
C1722 C1720 1.381 . S
C1722 C1723 1.394 . S
C1722 H1730 0.930 . S
C1723 C1722 1.394 . S
C1723 C1724 1.383 . S
C1723 H1731 0.929 . S
C1724 C1723 1.383 . S
C1724 C1725 1.377 . S
C1725 H1709 0.930 . S
C1725 C1724 1.377 . S
C1725 C1726 1.379 . S
C1726 H1710 0.931 . S
C1726 C1720 1.383 . S
C1726 C1725 1.379 . S
H1727 C1721 0.959 . S
H1728 C1721 0.961 . S
H1729 C1721 0.960 . S
H1730 C1722 0.930 . S
H1731 C1723 0.929 . S
H1732 C1740 0.929 . S
H1733 C1742 0.930 . S
H1734 C1744 0.930 . S
H1735 C1747 0.929 . S
H1736 C1750 0.930 . S
H1737 C1752 0.960 . S
H1738 C1752 0.960 . S
H1739 C1752 0.960 . S
C1740 H1732 0.929 . S
C1740 C1741 1.377 . S
C1740 C1742 1.384 . S
C1741 C1740 1.377 . S
C1741 C1747 1.390 . S
C1742 H1733 0.930 . S
C1742 C1740 1.384 . S
C1742 C1743 1.372 . S
C1743 C1742 1.372 . S
C1743 C1744 1.400 . S
C1743 C1748 1.490 . S
C1744 H1734 0.930 . S
C1744 C1743 1.400 . S
C1744 C1747 1.386 . S
H1745 C1761 0.930 . S
H1746 C1762 0.931 . S
C1747 H1735 0.929 . S
C1747 C1741 1.390 . S
C1747 C1744 1.386 . S
C1748 C1743 1.490 . S
C1748 C1750 1.395 . S
C1748 C1751 1.403 . S
H1749 C1755 0.930 . S
C1750 H1736 0.930 . S
C1750 C1748 1.395 . S
C1750 C1753 1.403 . S
C1751 C1748 1.403 . S
C1751 C1752 1.524 . S
C1751 C1755 1.400 . S
C1752 H1737 0.960 . S
C1752 H1738 0.960 . S
C1752 H1739 0.960 . S
C1752 C1751 1.524 . S
C1753 C1750 1.403 . S
C1753 C1754 1.392 . S
C1753 C1757 1.495 . S
C1754 C1753 1.392 . S
C1754 C1755 1.385 . S
C1754 C1756 1.478 . S
C1755 H1749 0.930 . S
C1755 C1751 1.400 . S
C1755 C1754 1.385 . S
C1756 C1754 1.478 . S
C1756 C1758 1.381 . S
C1756 C1762 1.383 . S
C1757 C1753 1.495 . S
C1757 H1763 0.959 . S
C1757 H1764 0.961 . S
C1757 H1765 0.960 . S
C1758 C1756 1.381 . S
C1758 C1759 1.394 . S
C1758 H1766 0.930 . S
C1759 C1758 1.394 . S
C1759 C1760 1.383 . S
C1759 H1767 0.929 . S
C1760 C1759 1.383 . S
C1760 C1761 1.377 . S
C1761 H1745 0.930 . S
C1761 C1760 1.377 . S
C1761 C1762 1.379 . S
C1762 H1746 0.931 . S
C1762 C1756 1.383 . S
C1762 C1761 1.379 . S
H1763 C1757 0.959 . S
H1764 C1757 0.961 . S
H1765 C1757 0.960 . S
H1766 C1758 0.930 . S
H1767 C1759 0.929 . S
H1768 C1776 0.929 . S
H1769 C1778 0.930 . S
H1770 C1780 0.930 . S
H1771 C1783 0.929 . S
H1772 C1786 0.930 . S
H1773 C1788 0.960 . S
H1774 C1788 0.960 . S
H1775 C1788 0.960 . S
C1776 H1768 0.929 . S
C1776 C1777 1.377 . S
C1776 C1778 1.384 . S
C1777 C1776 1.377 . S
C1777 C1783 1.390 . S
C1778 H1769 0.930 . S
C1778 C1776 1.384 . S
C1778 C1779 1.372 . S
C1779 C1778 1.372 . S
C1779 C1780 1.400 . S
C1779 C1784 1.490 . S
C1780 H1770 0.930 . S
C1780 C1779 1.400 . S
C1780 C1783 1.386 . S
H1781 C1797 0.930 . S
H1782 C1798 0.931 . S
C1783 H1771 0.929 . S
C1783 C1777 1.390 . S
C1783 C1780 1.386 . S
C1784 C1779 1.490 . S
C1784 C1786 1.395 . S
C1784 C1787 1.403 . S
H1785 C1791 0.930 . S
C1786 H1772 0.930 . S
C1786 C1784 1.395 . S
C1786 C1789 1.403 . S
C1787 C1784 1.403 . S
C1787 C1788 1.524 . S
C1787 C1791 1.400 . S
C1788 H1773 0.960 . S
C1788 H1774 0.960 . S
C1788 H1775 0.960 . S
C1788 C1787 1.524 . S
C1789 C1786 1.403 . S
C1789 C1790 1.392 . S
C1789 C1793 1.495 . S
C1790 C1789 1.392 . S
C1790 C1791 1.385 . S
C1790 C1792 1.478 . S
C1791 H1785 0.930 . S
C1791 C1787 1.400 . S
C1791 C1790 1.385 . S
C1792 C1790 1.478 . S
C1792 C1794 1.381 . S
C1792 C1798 1.383 . S
C1793 C1789 1.495 . S
C1793 H1799 0.959 . S
C1793 H1800 0.961 . S
C1793 H1801 0.960 . S
C1794 C1792 1.381 . S
C1794 C1795 1.394 . S
C1794 H1802 0.930 . S
C1795 C1794 1.394 . S
C1795 C1796 1.383 . S
C1795 H1803 0.929 . S
C1796 C1795 1.383 . S
C1796 C1797 1.377 . S
C1797 H1781 0.930 . S
C1797 C1796 1.377 . S
C1797 C1798 1.379 . S
C1798 H1782 0.931 . S
C1798 C1792 1.383 . S
C1798 C1797 1.379 . S
H1799 C1793 0.959 . S
H1800 C1793 0.961 . S
H1801 C1793 0.960 . S
H1802 C1794 0.930 . S
H1803 C1795 0.929 . S
H1804 C1812 0.929 . S
H1805 C1814 0.930 . S
H1806 C1816 0.930 . S
H1807 C1819 0.929 . S
H1808 C1822 0.930 . S
H1809 C1824 0.960 . S
H1810 C1824 0.960 . S
H1811 C1824 0.960 . S
C1812 H1804 0.929 . S
C1812 C1813 1.377 . S
C1812 C1814 1.384 . S
C1813 C1812 1.377 . S
C1813 C1819 1.390 . S
C1814 H1805 0.930 . S
C1814 C1812 1.384 . S
C1814 C1815 1.372 . S
C1815 C1814 1.372 . S
C1815 C1816 1.400 . S
C1815 C1820 1.490 . S
C1816 H1806 0.930 . S
C1816 C1815 1.400 . S
C1816 C1819 1.386 . S
H1817 C1833 0.930 . S
H1818 C1834 0.931 . S
C1819 H1807 0.929 . S
C1819 C1813 1.390 . S
C1819 C1816 1.386 . S
C1820 C1815 1.490 . S
C1820 C1822 1.395 . S
C1820 C1823 1.403 . S
H1821 C1827 0.930 . S
C1822 H1808 0.930 . S
C1822 C1820 1.395 . S
C1822 C1825 1.403 . S
C1823 C1820 1.403 . S
C1823 C1824 1.524 . S
C1823 C1827 1.400 . S
C1824 H1809 0.960 . S
C1824 H1810 0.960 . S
C1824 H1811 0.960 . S
C1824 C1823 1.524 . S
C1825 C1822 1.403 . S
C1825 C1826 1.392 . S
C1825 C1829 1.495 . S
C1826 C1825 1.392 . S
C1826 C1827 1.385 . S
C1826 C1828 1.478 . S
C1827 H1821 0.930 . S
C1827 C1823 1.400 . S
C1827 C1826 1.385 . S
C1828 C1826 1.478 . S
C1828 C1830 1.381 . S
C1828 C1834 1.383 . S
C1829 C1825 1.495 . S
C1829 H1835 0.959 . S
C1829 H1836 0.961 . S
C1829 H1837 0.960 . S
C1830 C1828 1.381 . S
C1830 C1831 1.394 . S
C1830 H1838 0.930 . S
C1831 C1830 1.394 . S
C1831 C1832 1.383 . S
C1831 H1839 0.929 . S
C1832 C1831 1.383 . S
C1832 C1833 1.377 . S
C1833 H1817 0.930 . S
C1833 C1832 1.377 . S
C1833 C1834 1.379 . S
C1834 H1818 0.931 . S
C1834 C1828 1.383 . S
C1834 C1833 1.379 . S
H1835 C1829 0.959 . S
H1836 C1829 0.961 . S
H1837 C1829 0.960 . S
H1838 C1830 0.930 . S
H1839 C1831 0.929 . S
H1840 C1848 0.929 . S
H1841 C1850 0.930 . S
H1842 C1852 0.930 . S
H1843 C1855 0.929 . S
H1844 C1858 0.930 . S
H1845 C1860 0.960 . S
H1846 C1860 0.960 . S
H1847 C1860 0.960 . S
C1848 H1840 0.929 . S
C1848 C1849 1.377 . S
C1848 C1850 1.384 . S
C1849 C1848 1.377 . S
C1849 C1855 1.390 . S
C1850 H1841 0.930 . S
C1850 C1848 1.384 . S
C1850 C1851 1.372 . S
C1851 C1850 1.372 . S
C1851 C1852 1.400 . S
C1851 C1856 1.490 . S
C1852 H1842 0.930 . S
C1852 C1851 1.400 . S
C1852 C1855 1.386 . S
H1853 C1869 0.930 . S
H1854 C1870 0.931 . S
C1855 H1843 0.929 . S
C1855 C1849 1.390 . S
C1855 C1852 1.386 . S
C1856 C1851 1.490 . S
C1856 C1858 1.395 . S
C1856 C1859 1.403 . S
H1857 C1863 0.930 . S
C1858 H1844 0.930 . S
C1858 C1856 1.395 . S
C1858 C1861 1.403 . S
C1859 C1856 1.403 . S
C1859 C1860 1.524 . S
C1859 C1863 1.400 . S
C1860 H1845 0.960 . S
C1860 H1846 0.960 . S
C1860 H1847 0.960 . S
C1860 C1859 1.524 . S
C1861 C1858 1.403 . S
C1861 C1862 1.392 . S
C1861 C1865 1.495 . S
C1862 C1861 1.392 . S
C1862 C1863 1.385 . S
C1862 C1864 1.478 . S
C1863 H1857 0.930 . S
C1863 C1859 1.400 . S
C1863 C1862 1.385 . S
C1864 C1862 1.478 . S
C1864 C1866 1.381 . S
C1864 C1870 1.383 . S
C1865 C1861 1.495 . S
C1865 H1871 0.959 . S
C1865 H1872 0.961 . S
C1865 H1873 0.960 . S
C1866 C1864 1.381 . S
C1866 C1867 1.394 . S
C1866 H1874 0.930 . S
C1867 C1866 1.394 . S
C1867 C1868 1.383 . S
C1867 H1875 0.929 . S
C1868 C1867 1.383 . S
C1868 C1869 1.377 . S
C1869 H1853 0.930 . S
C1869 C1868 1.377 . S
C1869 C1870 1.379 . S
C1870 H1854 0.931 . S
C1870 C1864 1.383 . S
C1870 C1869 1.379 . S
H1871 C1865 0.959 . S
H1872 C1865 0.961 . S
H1873 C1865 0.960 . S
H1874 C1866 0.930 . S
H1875 C1867 0.929 . S
H1876 C1884 0.929 . S
H1877 C1886 0.930 . S
H1878 C1888 0.930 . S
H1879 C1891 0.929 . S
H1880 C1894 0.930 . S
H1881 C1896 0.960 . S
H1882 C1896 0.960 . S
H1883 C1896 0.960 . S
C1884 H1876 0.929 . S
C1884 C1885 1.377 . S
C1884 C1886 1.384 . S
C1885 C1884 1.377 . S
C1885 C1891 1.390 . S
C1886 H1877 0.930 . S
C1886 C1884 1.384 . S
C1886 C1887 1.372 . S
C1887 C1886 1.372 . S
C1887 C1888 1.400 . S
C1887 C1892 1.490 . S
C1888 H1878 0.930 . S
C1888 C1887 1.400 . S
C1888 C1891 1.386 . S
H1889 C1905 0.930 . S
H1890 C1906 0.931 . S
C1891 H1879 0.929 . S
C1891 C1885 1.390 . S
C1891 C1888 1.386 . S
C1892 C1887 1.490 . S
C1892 C1894 1.395 . S
C1892 C1895 1.403 . S
H1893 C1899 0.930 . S
C1894 H1880 0.930 . S
C1894 C1892 1.395 . S
C1894 C1897 1.403 . S
C1895 C1892 1.403 . S
C1895 C1896 1.524 . S
C1895 C1899 1.400 . S
C1896 H1881 0.960 . S
C1896 H1882 0.960 . S
C1896 H1883 0.960 . S
C1896 C1895 1.524 . S
C1897 C1894 1.403 . S
C1897 C1898 1.392 . S
C1897 C1901 1.495 . S
C1898 C1897 1.392 . S
C1898 C1899 1.385 . S
C1898 C1900 1.478 . S
C1899 H1893 0.930 . S
C1899 C1895 1.400 . S
C1899 C1898 1.385 . S
C1900 C1898 1.478 . S
C1900 C1902 1.381 . S
C1900 C1906 1.383 . S
C1901 C1897 1.495 . S
C1901 H1907 0.959 . S
C1901 H1908 0.961 . S
C1901 H1909 0.960 . S
C1902 C1900 1.381 . S
C1902 C1903 1.394 . S
C1902 H1910 0.930 . S
C1903 C1902 1.394 . S
C1903 C1904 1.383 . S
C1903 H1911 0.929 . S
C1904 C1903 1.383 . S
C1904 C1905 1.377 . S
C1905 H1889 0.930 . S
C1905 C1904 1.377 . S
C1905 C1906 1.379 . S
C1906 H1890 0.931 . S
C1906 C1900 1.383 . S
C1906 C1905 1.379 . S
H1907 C1901 0.959 . S
H1908 C1901 0.961 . S
H1909 C1901 0.960 . S
H1910 C1902 0.930 . S
H1911 C1903 0.929 . S
H1912 C1920 0.929 . S
H1913 C1922 0.930 . S
H1914 C1924 0.930 . S
H1915 C1927 0.929 . S
H1916 C1930 0.930 . S
H1917 C1932 0.960 . S
H1918 C1932 0.960 . S
H1919 C1932 0.960 . S
C1920 H1912 0.929 . S
C1920 C1921 1.377 . S
C1920 C1922 1.384 . S
C1921 C1920 1.377 . S
C1921 C1927 1.390 . S
C1922 H1913 0.930 . S
C1922 C1920 1.384 . S
C1922 C1923 1.372 . S
C1923 C1922 1.372 . S
C1923 C1924 1.400 . S
C1923 C1928 1.490 . S
C1924 H1914 0.930 . S
C1924 C1923 1.400 . S
C1924 C1927 1.386 . S
H1925 C1941 0.930 . S
H1926 C1942 0.931 . S
C1927 H1915 0.929 . S
C1927 C1921 1.390 . S
C1927 C1924 1.386 . S
C1928 C1923 1.490 . S
C1928 C1930 1.395 . S
C1928 C1931 1.403 . S
H1929 C1935 0.930 . S
C1930 H1916 0.930 . S
C1930 C1928 1.395 . S
C1930 C1933 1.403 . S
C1931 C1928 1.403 . S
C1931 C1932 1.524 . S
C1931 C1935 1.400 . S
C1932 H1917 0.960 . S
C1932 H1918 0.960 . S
C1932 H1919 0.960 . S
C1932 C1931 1.524 . S
C1933 C1930 1.403 . S
C1933 C1934 1.392 . S
C1933 C1937 1.495 . S
C1934 C1933 1.392 . S
C1934 C1935 1.385 . S
C1934 C1936 1.478 . S
C1935 H1929 0.930 . S
C1935 C1931 1.400 . S
C1935 C1934 1.385 . S
C1936 C1934 1.478 . S
C1936 C1938 1.381 . S
C1936 C1942 1.383 . S
C1937 C1933 1.495 . S
C1937 H1943 0.959 . S
C1937 H1944 0.961 . S
C1937 H1945 0.960 . S
C1938 C1936 1.381 . S
C1938 C1939 1.394 . S
C1938 H1946 0.930 . S
C1939 C1938 1.394 . S
C1939 C1940 1.383 . S
C1939 H1947 0.929 . S
C1940 C1939 1.383 . S
C1940 C1941 1.377 . S
C1941 H1925 0.930 . S
C1941 C1940 1.377 . S
C1941 C1942 1.379 . S
C1942 H1926 0.931 . S
C1942 C1936 1.383 . S
C1942 C1941 1.379 . S
H1943 C1937 0.959 . S
H1944 C1937 0.961 . S
H1945 C1937 0.960 . S
H1946 C1938 0.930 . S
H1947 C1939 0.929 . S
H1948 C1956 0.929 . S
H1949 C1958 0.930 . S
H1950 C1960 0.930 . S
H1951 C1963 0.929 . S
H1952 C1966 0.930 . S
H1953 C1968 0.960 . S
H1954 C1968 0.960 . S
H1955 C1968 0.960 . S
C1956 H1948 0.929 . S
C1956 C1957 1.377 . S
C1956 C1958 1.384 . S
C1957 C1956 1.377 . S
C1957 C1963 1.390 . S
C1958 H1949 0.930 . S
C1958 C1956 1.384 . S
C1958 C1959 1.372 . S
C1959 C1958 1.372 . S
C1959 C1960 1.400 . S
C1959 C1964 1.490 . S
C1960 H1950 0.930 . S
C1960 C1959 1.400 . S
C1960 C1963 1.386 . S
H1961 C1977 0.930 . S
H1962 C1978 0.931 . S
C1963 H1951 0.929 . S
C1963 C1957 1.390 . S
C1963 C1960 1.386 . S
C1964 C1959 1.490 . S
C1964 C1966 1.395 . S
C1964 C1967 1.403 . S
H1965 C1971 0.930 . S
C1966 H1952 0.930 . S
C1966 C1964 1.395 . S
C1966 C1969 1.403 . S
C1967 C1964 1.403 . S
C1967 C1968 1.524 . S
C1967 C1971 1.400 . S
C1968 H1953 0.960 . S
C1968 H1954 0.960 . S
C1968 H1955 0.960 . S
C1968 C1967 1.524 . S
C1969 C1966 1.403 . S
C1969 C1970 1.392 . S
C1969 C1973 1.495 . S
C1970 C1969 1.392 . S
C1970 C1971 1.385 . S
C1970 C1972 1.478 . S
C1971 H1965 0.930 . S
C1971 C1967 1.400 . S
C1971 C1970 1.385 . S
C1972 C1970 1.478 . S
C1972 C1974 1.381 . S
C1972 C1978 1.383 . S
C1973 C1969 1.495 . S
C1973 H1979 0.959 . S
C1973 H1980 0.961 . S
C1973 H1981 0.960 . S
C1974 C1972 1.381 . S
C1974 C1975 1.394 . S
C1974 H1982 0.930 . S
C1975 C1974 1.394 . S
C1975 C1976 1.383 . S
C1975 H1983 0.929 . S
C1976 C1975 1.383 . S
C1976 C1977 1.377 . S
C1977 H1961 0.930 . S
C1977 C1976 1.377 . S
C1977 C1978 1.379 . S
C1978 H1962 0.931 . S
C1978 C1972 1.383 . S
C1978 C1977 1.379 . S
H1979 C1973 0.959 . S
H1980 C1973 0.961 . S
H1981 C1973 0.960 . S
H1982 C1974 0.930 . S
H1983 C1975 0.929 . S
H1984 C1992 0.929 . S
H1985 C1994 0.930 . S
H1986 C1996 0.930 . S
H1987 C1999 0.929 . S
H1988 C2002 0.930 . S
H1989 C2004 0.960 . S
H1990 C2004 0.960 . S
H1991 C2004 0.960 . S
C1992 H1984 0.929 . S
C1992 C1993 1.377 . S
C1992 C1994 1.384 . S
C1993 C1992 1.377 . S
C1993 C1999 1.390 . S
C1994 H1985 0.930 . S
C1994 C1992 1.384 . S
C1994 C1995 1.372 . S
C1995 C1994 1.372 . S
C1995 C1996 1.400 . S
C1995 C2000 1.490 . S
C1996 H1986 0.930 . S
C1996 C1995 1.400 . S
C1996 C1999 1.386 . S
H1997 C2013 0.928 . S
H1998 C2014 0.931 . S
C1999 H1987 0.929 . S
C1999 C1993 1.390 . S
C1999 C1996 1.386 . S
C2000 C1995 1.490 . S
C2000 C2002 1.395 . S
C2000 C2003 1.403 . S
H2001 C2007 0.930 . S
C2002 H1988 0.930 . S
C2002 C2000 1.395 . S
C2002 C2005 1.403 . S
C2003 C2000 1.403 . S
C2003 C2004 1.524 . S
C2003 C2007 1.400 . S
C2004 H1989 0.960 . S
C2004 H1990 0.960 . S
C2004 H1991 0.960 . S
C2004 C2003 1.524 . S
C2005 C2002 1.403 . S
C2005 C2006 1.392 . S
C2005 C2009 1.495 . S
C2006 C2005 1.392 . S
C2006 C2007 1.385 . S
C2006 C2008 1.478 . S
C2007 H2001 0.930 . S
C2007 C2003 1.400 . S
C2007 C2006 1.385 . S
C2008 C2006 1.478 . S
C2008 C2010 1.381 . S
C2008 C2014 1.383 . S
C2009 C2005 1.495 . S
C2009 H2015 0.959 . S
C2009 H2016 0.961 . S
C2009 H2017 0.960 . S
C2010 C2008 1.381 . S
C2010 C2011 1.394 . S
C2010 H2018 0.930 . S
C2011 C2010 1.394 . S
C2011 C2012 1.383 . S
C2011 H2019 0.929 . S
C2012 C2011 1.383 . S
C2012 C2013 1.377 . S
C2013 H1997 0.928 . S
C2013 C2012 1.377 . S
C2013 C2014 1.379 . S
C2014 H1998 0.931 . S
C2014 C2008 1.383 . S
C2014 C2013 1.379 . S
H2015 C2009 0.959 . S
H2016 C2009 0.961 . S
H2017 C2009 0.960 . S
H2018 C2010 0.930 . S
H2019 C2011 0.929 . S
H2020 C2028 0.929 . S
H2021 C2030 0.930 . S
H2022 C2032 0.930 . S
H2023 C2035 0.929 . S
H2024 C2038 0.930 . S
H2025 C2040 0.960 . S
H2026 C2040 0.960 . S
H2027 C2040 0.960 . S
C2028 H2020 0.929 . S
C2028 C2029 1.377 . S
C2028 C2030 1.384 . S
C2029 C2028 1.377 . S
C2029 C2035 1.390 . S
C2030 H2021 0.930 . S
C2030 C2028 1.384 . S
C2030 C2031 1.372 . S
C2031 C2030 1.372 . S
C2031 C2032 1.400 . S
C2031 C2036 1.490 . S
C2032 H2022 0.930 . S
C2032 C2031 1.400 . S
C2032 C2035 1.386 . S
H2033 C2049 0.930 . S
H2034 C2050 0.931 . S
C2035 H2023 0.929 . S
C2035 C2029 1.390 . S
C2035 C2032 1.386 . S
C2036 C2031 1.490 . S
C2036 C2038 1.395 . S
C2036 C2039 1.403 . S
H2037 C2043 0.930 . S
C2038 H2024 0.930 . S
C2038 C2036 1.395 . S
C2038 C2041 1.403 . S
C2039 C2036 1.403 . S
C2039 C2040 1.524 . S
C2039 C2043 1.400 . S
C2040 H2025 0.960 . S
C2040 H2026 0.960 . S
C2040 H2027 0.960 . S
C2040 C2039 1.524 . S
C2041 C2038 1.403 . S
C2041 C2042 1.392 . S
C2041 C2045 1.495 . S
C2042 C2041 1.392 . S
C2042 C2043 1.385 . S
C2042 C2044 1.478 . S
C2043 H2037 0.930 . S
C2043 C2039 1.400 . S
C2043 C2042 1.385 . S
C2044 C2042 1.478 . S
C2044 C2046 1.381 . S
C2044 C2050 1.383 . S
C2045 C2041 1.495 . S
C2045 H2051 0.959 . S
C2045 H2052 0.961 . S
C2045 H2053 0.960 . S
C2046 C2044 1.381 . S
C2046 C2047 1.394 . S
C2046 H2054 0.930 . S
C2047 C2046 1.394 . S
C2047 C2048 1.383 . S
C2047 H2055 0.929 . S
C2048 C2047 1.383 . S
C2048 C2049 1.377 . S
C2049 H2033 0.930 . S
C2049 C2048 1.377 . S
C2049 C2050 1.379 . S
C2050 H2034 0.931 . S
C2050 C2044 1.383 . S
C2050 C2049 1.379 . S
H2051 C2045 0.959 . S
H2052 C2045 0.961 . S
H2053 C2045 0.960 . S
H2054 C2046 0.930 . S
H2055 C2047 0.929 . S
H2056 C2064 0.929 . S
H2057 C2066 0.930 . S
H2058 C2068 0.930 . S
H2059 C2071 0.929 . S
H2060 C2074 0.930 . S
H2061 C2076 0.960 . S
H2062 C2076 0.960 . S
H2063 C2076 0.960 . S
C2064 H2056 0.929 . S
C2064 C2065 1.377 . S
C2064 C2066 1.384 . S
C2065 C2064 1.377 . S
C2065 C2071 1.390 . S
C2066 H2057 0.930 . S
C2066 C2064 1.384 . S
C2066 C2067 1.372 . S
C2067 C2066 1.372 . S
C2067 C2068 1.400 . S
C2067 C2072 1.490 . S
C2068 H2058 0.930 . S
C2068 C2067 1.400 . S
C2068 C2071 1.386 . S
H2069 C2085 0.930 . S
H2070 C2086 0.931 . S
C2071 H2059 0.929 . S
C2071 C2065 1.390 . S
C2071 C2068 1.386 . S
C2072 C2067 1.490 . S
C2072 C2074 1.395 . S
C2072 C2075 1.403 . S
H2073 C2079 0.930 . S
C2074 H2060 0.930 . S
C2074 C2072 1.395 . S
C2074 C2077 1.403 . S
C2075 C2072 1.403 . S
C2075 C2076 1.524 . S
C2075 C2079 1.400 . S
C2076 H2061 0.960 . S
C2076 H2062 0.960 . S
C2076 H2063 0.960 . S
C2076 C2075 1.524 . S
C2077 C2074 1.403 . S
C2077 C2078 1.392 . S
C2077 C2081 1.495 . S
C2078 C2077 1.392 . S
C2078 C2079 1.385 . S
C2078 C2080 1.478 . S
C2079 H2073 0.930 . S
C2079 C2075 1.400 . S
C2079 C2078 1.385 . S
C2080 C2078 1.478 . S
C2080 C2082 1.381 . S
C2080 C2086 1.383 . S
C2081 C2077 1.495 . S
C2081 H2087 0.959 . S
C2081 H2088 0.961 . S
C2081 H2089 0.960 . S
C2082 C2080 1.381 . S
C2082 C2083 1.394 . S
C2082 H2090 0.930 . S
C2083 C2082 1.394 . S
C2083 C2084 1.383 . S
C2083 H2091 0.929 . S
C2084 C2083 1.383 . S
C2084 C2085 1.377 . S
C2085 H2069 0.930 . S
C2085 C2084 1.377 . S
C2085 C2086 1.379 . S
C2086 H2070 0.931 . S
C2086 C2080 1.383 . S
C2086 C2085 1.379 . S
H2087 C2081 0.959 . S
H2088 C2081 0.961 . S
H2089 C2081 0.960 . S
H2090 C2082 0.930 . S
H2091 C2083 0.929 . S
H2092 C2100 0.929 . S
H2093 C2102 0.930 . S
H2094 C2104 0.930 . S
H2095 C2107 0.929 . S
H2096 C2110 0.930 . S
H2097 C2112 0.960 . S
H2098 C2112 0.960 . S
H2099 C2112 0.960 . S
C2100 H2092 0.929 . S
C2100 C2101 1.377 . S
C2100 C2102 1.384 . S
C2101 C2100 1.377 . S
C2101 C2107 1.390 . S
C2102 H2093 0.930 . S
C2102 C2100 1.384 . S
C2102 C2103 1.372 . S
C2103 C2102 1.372 . S
C2103 C2104 1.400 . S
C2103 C2108 1.490 . S
C2104 H2094 0.930 . S
C2104 C2103 1.400 . S
C2104 C2107 1.386 . S
H2105 C2121 0.930 . S
H2106 C2122 0.931 . S
C2107 H2095 0.929 . S
C2107 C2101 1.390 . S
C2107 C2104 1.386 . S
C2108 C2103 1.490 . S
C2108 C2110 1.395 . S
C2108 C2111 1.403 . S
H2109 C2115 0.930 . S
C2110 H2096 0.930 . S
C2110 C2108 1.395 . S
C2110 C2113 1.403 . S
C2111 C2108 1.403 . S
C2111 C2112 1.524 . S
C2111 C2115 1.400 . S
C2112 H2097 0.960 . S
C2112 H2098 0.960 . S
C2112 H2099 0.960 . S
C2112 C2111 1.524 . S
C2113 C2110 1.403 . S
C2113 C2114 1.392 . S
C2113 C2117 1.495 . S
C2114 C2113 1.392 . S
C2114 C2115 1.385 . S
C2114 C2116 1.478 . S
C2115 H2109 0.930 . S
C2115 C2111 1.400 . S
C2115 C2114 1.385 . S
C2116 C2114 1.478 . S
C2116 C2118 1.381 . S
C2116 C2122 1.383 . S
C2117 C2113 1.495 . S
C2117 H2123 0.959 . S
C2117 H2124 0.961 . S
C2117 H2125 0.960 . S
C2118 C2116 1.381 . S
C2118 C2119 1.394 . S
C2118 H2126 0.930 . S
C2119 C2118 1.394 . S
C2119 C2120 1.383 . S
C2119 H2127 0.929 . S
C2120 C2119 1.383 . S
C2120 C2121 1.377 . S
C2121 H2105 0.930 . S
C2121 C2120 1.377 . S
C2121 C2122 1.379 . S
C2122 H2106 0.931 . S
C2122 C2116 1.383 . S
C2122 C2121 1.379 . S
H2123 C2117 0.959 . S
H2124 C2117 0.961 . S
H2125 C2117 0.960 . S
H2126 C2118 0.930 . S
H2127 C2119 0.929 . S
H2128 C2136 0.929 1_565 S
H2129 C2138 0.930 1_565 S
H2130 C2140 0.930 . S
H2131 C2143 0.929 . S
H2132 C2146 0.930 . S
H2133 C2148 0.960 . S
H2134 C2148 0.960 . S
H2135 C2148 0.960 . S
C2136 H2128 0.929 1_545 S
C2136 C2137 1.377 . S
C2136 C2138 1.384 . S
C2137 C2136 1.377 . S
C2137 C2143 1.390 . S
C2138 H2129 0.930 1_545 S
C2138 C2136 1.384 . S
C2138 C2139 1.372 . S
C2139 C2138 1.372 . S
C2139 C2140 1.400 . S
C2139 C2144 1.490 . S
C2140 H2130 0.930 . S
C2140 C2139 1.400 . S
C2140 C2143 1.386 . S
H2141 C2157 0.930 . S
H2142 C2158 0.931 . S
C2143 H2131 0.929 . S
C2143 C2137 1.390 . S
C2143 C2140 1.386 . S
C2144 C2139 1.490 . S
C2144 C2146 1.395 1_545 S
C2144 C2147 1.403 . S
H2145 C2151 0.930 . S
C2146 H2132 0.930 . S
C2146 C2144 1.395 1_565 S
C2146 C2149 1.403 . S
C2147 C2144 1.403 . S
C2147 C2148 1.524 . S
C2147 C2151 1.400 . S
C2148 H2133 0.960 . S
C2148 H2134 0.960 . S
C2148 H2135 0.960 . S
C2148 C2147 1.524 . S
C2149 C2146 1.403 . S
C2149 C2150 1.392 1_565 S
C2149 C2153 1.495 . S
C2150 C2149 1.392 1_545 S
C2150 C2151 1.385 . S
C2150 C2152 1.478 . S
C2151 H2145 0.930 . S
C2151 C2147 1.400 . S
C2151 C2150 1.385 . S
C2152 C2150 1.478 . S
C2152 C2154 1.381 . S
C2152 C2158 1.383 . S
C2153 C2149 1.495 . S
C2153 H2159 0.959 . S
C2153 H2160 0.961 . S
C2153 H2161 0.960 . S
C2154 C2152 1.381 . S
C2154 C2155 1.394 . S
C2154 H2162 0.930 . S
C2155 C2154 1.394 . S
C2155 C2156 1.383 . S
C2155 H2163 0.929 . S
C2156 C2155 1.383 . S
C2156 C2157 1.377 . S
C2157 H2141 0.930 . S
C2157 C2156 1.377 . S
C2157 C2158 1.379 . S
C2158 H2142 0.931 . S
C2158 C2152 1.383 . S
C2158 C2157 1.379 . S
H2159 C2153 0.959 . S
H2160 C2153 0.961 . S
H2161 C2153 0.960 . S
H2162 C2154 0.930 . S
H2163 C2155 0.929 . S
H2164 C2172 0.929 . S
H2165 C2174 0.930 . S
H2166 C2176 0.930 . S
H2167 C2179 0.929 . S
H2168 C2182 0.930 . S
H2169 C2184 0.960 . S
H2170 C2184 0.960 . S
H2171 C2184 0.960 . S
C2172 H2164 0.929 . S
C2172 C2173 1.377 . S
C2172 C2174 1.384 . S
C2173 C2172 1.377 . S
C2173 C2179 1.390 . S
C2174 H2165 0.930 . S
C2174 C2172 1.384 . S
C2174 C2175 1.372 . S
C2175 C2174 1.372 . S
C2175 C2176 1.400 . S
C2175 C2180 1.490 . S
C2176 H2166 0.930 . S
C2176 C2175 1.400 . S
C2176 C2179 1.386 . S
H2177 C2193 0.930 . S
H2178 C2194 0.931 . S
C2179 H2167 0.929 . S
C2179 C2173 1.390 . S
C2179 C2176 1.386 . S
C2180 C2175 1.490 . S
C2180 C2182 1.395 . S
C2180 C2183 1.403 . S
H2181 C2187 0.930 . S
C2182 H2168 0.930 . S
C2182 C2180 1.395 . S
C2182 C2185 1.403 . S
C2183 C2180 1.403 . S
C2183 C2184 1.524 . S
C2183 C2187 1.400 . S
C2184 H2169 0.960 . S
C2184 H2170 0.960 . S
C2184 H2171 0.960 . S
C2184 C2183 1.524 . S
C2185 C2182 1.403 . S
C2185 C2186 1.392 . S
C2185 C2189 1.495 . S
C2186 C2185 1.392 . S
C2186 C2187 1.385 . S
C2186 C2188 1.478 . S
C2187 H2181 0.930 . S
C2187 C2183 1.400 . S
C2187 C2186 1.385 . S
C2188 C2186 1.478 . S
C2188 C2190 1.381 . S
C2188 C2194 1.383 . S
C2189 C2185 1.495 . S
C2189 H2195 0.959 . S
C2189 H2196 0.961 . S
C2189 H2197 0.960 . S
C2190 C2188 1.381 . S
C2190 C2191 1.394 . S
C2190 H2198 0.930 . S
C2191 C2190 1.394 . S
C2191 C2192 1.383 . S
C2191 H2199 0.929 . S
C2192 C2191 1.383 . S
C2192 C2193 1.377 . S
C2193 H2177 0.930 . S
C2193 C2192 1.377 . S
C2193 C2194 1.379 . S
C2194 H2178 0.931 . S
C2194 C2188 1.383 . S
C2194 C2193 1.379 . S
H2195 C2189 0.959 . S
H2196 C2189 0.961 . S
H2197 C2189 0.960 . S
H2198 C2190 0.930 . S
H2199 C2191 0.929 . S
H2200 C2208 0.929 . S
H2201 C2210 0.930 . S
H2202 C2212 0.930 . S
H2203 C2215 0.929 . S
H2204 C2218 0.930 . S
H2205 C2220 0.960 . S
H2206 C2220 0.960 . S
H2207 C2220 0.960 . S
C2208 H2200 0.929 . S
C2208 C2209 1.377 1_565 S
C2208 C2210 1.384 . S
C2209 C2208 1.377 1_545 S
C2209 C2215 1.390 . S
C2210 H2201 0.930 . S
C2210 C2208 1.384 . S
C2210 C2211 1.372 1_565 S
C2211 C2210 1.372 1_545 S
C2211 C2212 1.400 . S
C2211 C2216 1.490 . S
C2212 H2202 0.930 . S
C2212 C2211 1.400 . S
C2212 C2215 1.386 . S
H2213 C2229 0.930 . S
H2214 C2230 0.931 . S
C2215 H2203 0.929 . S
C2215 C2209 1.390 . S
C2215 C2212 1.386 . S
C2216 C2211 1.490 . S
C2216 C2218 1.395 . S
C2216 C2219 1.403 . S
H2217 C2223 0.930 . S
C2218 H2204 0.930 . S
C2218 C2216 1.395 . S
C2218 C2221 1.403 . S
C2219 C2216 1.403 . S
C2219 C2220 1.524 . S
C2219 C2223 1.400 . S
C2220 H2205 0.960 . S
C2220 H2206 0.960 . S
C2220 H2207 0.960 . S
C2220 C2219 1.524 . S
C2221 C2218 1.403 . S
C2221 C2222 1.392 . S
C2221 C2225 1.495 . S
C2222 C2221 1.392 . S
C2222 C2223 1.385 . S
C2222 C2224 1.478 . S
C2223 H2217 0.930 . S
C2223 C2219 1.400 . S
C2223 C2222 1.385 . S
C2224 C2222 1.478 . S
C2224 C2226 1.381 . S
C2224 C2230 1.383 . S
C2225 C2221 1.495 . S
C2225 H2231 0.959 . S
C2225 H2232 0.961 . S
C2225 H2233 0.960 1_545 S
C2226 C2224 1.381 . S
C2226 C2227 1.394 . S
C2226 H2234 0.930 1_545 S
C2227 C2226 1.394 . S
C2227 C2228 1.383 . S
C2227 H2235 0.929 1_545 S
C2228 C2227 1.383 . S
C2228 C2229 1.377 . S
C2229 H2213 0.930 . S
C2229 C2228 1.377 . S
C2229 C2230 1.379 . S
C2230 H2214 0.931 . S
C2230 C2224 1.383 . S
C2230 C2229 1.379 . S
H2231 C2225 0.959 . S
H2232 C2225 0.961 . S
H2233 C2225 0.960 1_565 S
H2234 C2226 0.930 1_565 S
H2235 C2227 0.929 1_565 S
H2236 C2244 0.929 . S
H2237 C2246 0.930 . S
H2238 C2248 0.930 . S
H2239 C2251 0.929 . S
H2240 C2254 0.930 . S
H2241 C2256 0.960 . S
H2242 C2256 0.960 . S
H2243 C2256 0.960 . S
C2244 H2236 0.929 . S
C2244 C2245 1.377 . S
C2244 C2246 1.384 . S
C2245 C2244 1.377 . S
C2245 C2251 1.390 . S
C2246 H2237 0.930 . S
C2246 C2244 1.384 . S
C2246 C2247 1.372 . S
C2247 C2246 1.372 . S
C2247 C2248 1.400 . S
C2247 C2252 1.490 . S
C2248 H2238 0.930 . S
C2248 C2247 1.400 . S
C2248 C2251 1.386 . S
H2249 C2265 0.930 . S
H2250 C2266 0.931 . S
C2251 H2239 0.929 . S
C2251 C2245 1.390 . S
C2251 C2248 1.386 . S
C2252 C2247 1.490 . S
C2252 C2254 1.395 . S
C2252 C2255 1.403 . S
H2253 C2259 0.930 . S
C2254 H2240 0.930 . S
C2254 C2252 1.395 . S
C2254 C2257 1.403 . S
C2255 C2252 1.403 . S
C2255 C2256 1.524 . S
C2255 C2259 1.400 . S
C2256 H2241 0.960 . S
C2256 H2242 0.960 . S
C2256 H2243 0.960 . S
C2256 C2255 1.524 . S
C2257 C2254 1.403 . S
C2257 C2258 1.392 . S
C2257 C2261 1.495 . S
C2258 C2257 1.392 . S
C2258 C2259 1.385 . S
C2258 C2260 1.478 . S
C2259 H2253 0.930 . S
C2259 C2255 1.400 . S
C2259 C2258 1.385 . S
C2260 C2258 1.478 . S
C2260 C2262 1.381 . S
C2260 C2266 1.383 . S
C2261 C2257 1.495 . S
C2261 H2267 0.959 . S
C2261 H2268 0.961 . S
C2261 H2269 0.960 . S
C2262 C2260 1.381 . S
C2262 C2263 1.394 . S
C2262 H2270 0.930 . S
C2263 C2262 1.394 . S
C2263 C2264 1.383 . S
C2263 H2271 0.929 . S
C2264 C2263 1.383 . S
C2264 C2265 1.377 . S
C2265 H2249 0.930 . S
C2265 C2264 1.377 . S
C2265 C2266 1.379 . S
C2266 H2250 0.931 . S
C2266 C2260 1.383 . S
C2266 C2265 1.379 . S
H2267 C2261 0.959 . S
H2268 C2261 0.961 . S
H2269 C2261 0.960 . S
H2270 C2262 0.930 . S
H2271 C2263 0.929 . S
H2272 C2280 0.929 . S
H2273 C2282 0.930 . S
H2274 C2284 0.930 . S
H2275 C2287 0.929 . S
H2276 C2290 0.930 . S
H2277 C2292 0.960 . S
H2278 C2292 0.960 . S
H2279 C2292 0.960 . S
C2280 H2272 0.929 . S
C2280 C2281 1.377 . S
C2280 C2282 1.384 . S
C2281 C2280 1.377 . S
C2281 C2287 1.390 1_565 S
C2282 H2273 0.930 . S
C2282 C2280 1.384 . S
C2282 C2283 1.372 1_565 S
C2283 C2282 1.372 1_545 S
C2283 C2284 1.400 . S
C2283 C2288 1.490 . S
C2284 H2274 0.930 . S
C2284 C2283 1.400 . S
C2284 C2287 1.386 . S
H2285 C2301 0.930 . S
H2286 C2302 0.931 . S
C2287 H2275 0.929 . S
C2287 C2281 1.390 1_545 S
C2287 C2284 1.386 . S
C2288 C2283 1.490 . S
C2288 C2290 1.395 1_545 S
C2288 C2291 1.403 . S
H2289 C2295 0.930 . S
C2290 H2276 0.930 . S
C2290 C2288 1.395 1_565 S
C2290 C2293 1.403 . S
C2291 C2288 1.403 . S
C2291 C2292 1.524 . S
C2291 C2295 1.400 . S
C2292 H2277 0.960 . S
C2292 H2278 0.960 . S
C2292 H2279 0.960 . S
C2292 C2291 1.524 . S
C2293 C2290 1.403 . S
C2293 C2294 1.392 1_565 S
C2293 C2297 1.495 . S
C2294 C2293 1.392 1_545 S
C2294 C2295 1.385 . S
C2294 C2296 1.478 . S
C2295 H2289 0.930 . S
C2295 C2291 1.400 . S
C2295 C2294 1.385 . S
C2296 C2294 1.478 . S
C2296 C2298 1.381 . S
C2296 C2302 1.383 . S
C2297 C2293 1.495 . S
C2297 H2303 0.959 . S
C2297 H2304 0.961 . S
C2297 H2305 0.960 . S
C2298 C2296 1.381 . S
C2298 C2299 1.394 . S
C2298 H2306 0.930 1_545 S
C2299 C2298 1.394 . S
C2299 C2300 1.383 . S
C2299 H2307 0.929 . S
C2300 C2299 1.383 . S
C2300 C2301 1.377 . S
C2301 H2285 0.930 . S
C2301 C2300 1.377 . S
C2301 C2302 1.379 . S
C2302 H2286 0.931 . S
C2302 C2296 1.383 . S
C2302 C2301 1.379 . S
H2303 C2297 0.959 . S
H2304 C2297 0.961 . S
H2305 C2297 0.960 . S
H2306 C2298 0.930 1_565 S
H2307 C2299 0.929 . S
H2308 C2316 0.929 . S
H2309 C2318 0.930 . S
H2310 C2320 0.930 . S
H2311 C2323 0.929 . S
H2312 C2326 0.930 . S
H2313 C2328 0.960 . S
H2314 C2328 0.960 . S
H2315 C2328 0.960 . S
C2316 H2308 0.929 . S
C2316 C2317 1.377 . S
C2316 C2318 1.384 . S
C2317 C2316 1.377 . S
C2317 C2323 1.390 . S
C2318 H2309 0.930 . S
C2318 C2316 1.384 . S
C2318 C2319 1.372 . S
C2319 C2318 1.372 . S
C2319 C2320 1.400 . S
C2319 C2324 1.490 . S
C2320 H2310 0.930 . S
C2320 C2319 1.400 . S
C2320 C2323 1.386 . S
H2321 C2337 0.930 . S
H2322 C2338 0.931 . S
C2323 H2311 0.929 . S
C2323 C2317 1.390 . S
C2323 C2320 1.386 . S
C2324 C2319 1.490 . S
C2324 C2326 1.395 . S
C2324 C2327 1.403 . S
H2325 C2331 0.930 . S
C2326 H2312 0.930 . S
C2326 C2324 1.395 . S
C2326 C2329 1.403 . S
C2327 C2324 1.403 . S
C2327 C2328 1.524 . S
C2327 C2331 1.400 . S
C2328 H2313 0.960 . S
C2328 H2314 0.960 . S
C2328 H2315 0.960 . S
C2328 C2327 1.524 . S
C2329 C2326 1.403 . S
C2329 C2330 1.392 . S
C2329 C2333 1.495 . S
C2330 C2329 1.392 . S
C2330 C2331 1.385 . S
C2330 C2332 1.478 . S
C2331 H2325 0.930 . S
C2331 C2327 1.400 . S
C2331 C2330 1.385 . S
C2332 C2330 1.478 . S
C2332 C2334 1.381 . S
C2332 C2338 1.383 . S
C2333 C2329 1.495 . S
C2333 H2339 0.959 . S
C2333 H2340 0.961 . S
C2333 H2341 0.960 . S
C2334 C2332 1.381 . S
C2334 C2335 1.394 . S
C2334 H2342 0.930 . S
C2335 C2334 1.394 . S
C2335 C2336 1.383 . S
C2335 H2343 0.929 . S
C2336 C2335 1.383 . S
C2336 C2337 1.377 . S
C2337 H2321 0.930 . S
C2337 C2336 1.377 . S
C2337 C2338 1.379 . S
C2338 H2322 0.931 . S
C2338 C2332 1.383 . S
C2338 C2337 1.379 . S
H2339 C2333 0.959 . S
H2340 C2333 0.961 . S
H2341 C2333 0.960 . S
H2342 C2334 0.930 . S
H2343 C2335 0.929 . S
H2344 C2352 0.929 . S
H2345 C2354 0.930 . S
H2346 C2356 0.930 . S
H2347 C2359 0.929 . S
H2348 C2362 0.930 . S
H2349 C2364 0.960 . S
H2350 C2364 0.960 . S
H2351 C2364 0.960 . S
C2352 H2344 0.929 . S
C2352 C2353 1.377 . S
C2352 C2354 1.384 . S
C2353 C2352 1.377 . S
C2353 C2359 1.390 1_545 S
C2354 H2345 0.930 . S
C2354 C2352 1.384 . S
C2354 C2355 1.372 . S
C2355 C2354 1.372 . S
C2355 C2356 1.400 1_545 S
C2355 C2360 1.489 1_545 S
C2356 H2346 0.930 . S
C2356 C2355 1.400 1_565 S
C2356 C2359 1.386 . S
H2357 C2373 0.930 . S
H2358 C2374 0.931 . S
C2359 H2347 0.929 . S
C2359 C2353 1.390 1_565 S
C2359 C2356 1.386 . S
C2360 C2355 1.489 1_565 S
C2360 C2362 1.402 . S
C2360 C2363 1.396 1_565 S
H2361 C2367 0.930 . S
C2362 H2348 0.930 . S
C2362 C2360 1.402 . S
C2362 C2365 1.403 . S
C2363 C2360 1.396 1_545 S
C2363 C2364 1.524 . S
C2363 C2367 1.400 . S
C2364 H2349 0.960 . S
C2364 H2350 0.960 . S
C2364 H2351 0.960 . S
C2364 C2363 1.524 . S
C2365 C2362 1.403 . S
C2365 C2366 1.392 . S
C2365 C2369 1.495 . S
C2366 C2365 1.392 . S
C2366 C2367 1.385 1_565 S
C2366 C2368 1.478 . S
C2367 H2361 0.930 . S
C2367 C2363 1.400 . S
C2367 C2366 1.385 1_545 S
C2368 C2366 1.478 . S
C2368 C2370 1.381 1_565 S
C2368 C2374 1.383 . S
C2369 C2365 1.495 . S
C2369 H2375 0.959 . S
C2369 H2376 0.961 . S
C2369 H2377 0.960 . S
C2370 C2368 1.381 1_545 S
C2370 C2371 1.394 . S
C2370 H2378 0.930 . S
C2371 C2370 1.394 . S
C2371 C2372 1.383 1_545 S
C2371 H2379 0.929 . S
C2372 C2371 1.383 1_565 S
C2372 C2373 1.377 . S
C2373 H2357 0.930 . S
C2373 C2372 1.377 . S
C2373 C2374 1.379 . S
C2374 H2358 0.931 . S
C2374 C2368 1.383 . S
C2374 C2373 1.379 . S
H2375 C2369 0.959 . S
H2376 C2369 0.961 . S
H2377 C2369 0.960 . S
H2378 C2370 0.930 . S
H2379 C2371 0.929 . S
H2380 C2388 0.929 . S
H2381 C2390 0.930 . S
H2382 C2392 0.930 . S
H2383 C2395 0.929 . S
H2384 C2398 0.930 . S
H2385 C2400 0.960 . S
H2386 C2400 0.960 . S
H2387 C2400 0.960 . S
C2388 H2380 0.929 . S
C2388 C2389 1.377 . S
C2388 C2390 1.384 . S
C2389 C2388 1.377 . S
C2389 C2395 1.390 . S
C2390 H2381 0.930 . S
C2390 C2388 1.384 . S
C2390 C2391 1.372 . S
C2391 C2390 1.372 . S
C2391 C2392 1.400 . S
C2391 C2396 1.490 . S
C2392 H2382 0.930 . S
C2392 C2391 1.400 . S
C2392 C2395 1.386 . S
H2393 C2409 0.930 . S
H2394 C2410 0.931 . S
C2395 H2383 0.929 . S
C2395 C2389 1.390 . S
C2395 C2392 1.386 . S
C2396 C2391 1.490 . S
C2396 C2398 1.395 . S
C2396 C2399 1.403 . S
H2397 C2403 0.930 . S
C2398 H2384 0.930 . S
C2398 C2396 1.395 . S
C2398 C2401 1.403 . S
C2399 C2396 1.403 . S
C2399 C2400 1.524 . S
C2399 C2403 1.400 . S
C2400 H2385 0.960 . S
C2400 H2386 0.960 . S
C2400 H2387 0.960 . S
C2400 C2399 1.524 . S
C2401 C2398 1.403 . S
C2401 C2402 1.392 . S
C2401 C2405 1.495 . S
C2402 C2401 1.392 . S
C2402 C2403 1.385 . S
C2402 C2404 1.478 . S
C2403 H2397 0.930 . S
C2403 C2399 1.400 . S
C2403 C2402 1.385 . S
C2404 C2402 1.478 . S
C2404 C2406 1.381 . S
C2404 C2410 1.383 . S
C2405 C2401 1.495 . S
C2405 H2411 0.959 . S
C2405 H2412 0.961 . S
C2405 H2413 0.960 . S
C2406 C2404 1.381 . S
C2406 C2407 1.394 . S
C2406 H2414 0.930 . S
C2407 C2406 1.394 . S
C2407 C2408 1.383 . S
C2407 H2415 0.929 . S
C2408 C2407 1.383 . S
C2408 C2409 1.377 . S
C2409 H2393 0.930 . S
C2409 C2408 1.377 . S
C2409 C2410 1.379 . S
C2410 H2394 0.931 . S
C2410 C2404 1.383 . S
C2410 C2409 1.379 . S
H2411 C2405 0.959 . S
H2412 C2405 0.961 . S
H2413 C2405 0.960 . S
H2414 C2406 0.930 . S
H2415 C2407 0.929 . S
H2416 C2424 0.929 . S
H2417 C2426 0.930 . S
H2418 C2428 0.930 . S
H2419 C2431 0.944 . S
H2420 C2434 0.930 . S
H2421 C2436 0.960 . S
H2422 C2436 0.960 . S
H2423 C2436 0.960 . S
C2424 H2416 0.929 . S
C2424 C2425 1.377 . S
C2424 C2426 1.384 . S
C2425 C2424 1.377 . S
C2425 C2431 1.370 1_554 S
C2426 H2417 0.930 . S
C2426 C2424 1.384 . S
C2426 C2427 1.372 . S
C2427 C2426 1.372 . S
C2427 C2428 1.400 1_554 S
C2427 C2432 1.490 1_554 S
C2428 H2418 0.930 . S
C2428 C2427 1.400 1_556 S
C2428 C2431 1.392 . S
H2429 C2445 0.930 . S
H2430 C2446 0.931 . S
C2431 H2419 0.944 . S
C2431 C2425 1.370 1_556 S
C2431 C2428 1.392 . S
C2432 C2427 1.490 1_556 S
C2432 C2434 1.395 . S
C2432 C2435 1.403 1_556 S
H2433 C2439 0.925 1_554 S
C2434 H2420 0.930 . S
C2434 C2432 1.395 . S
C2434 C2437 1.403 . S
C2435 C2432 1.403 1_554 S
C2435 C2436 1.524 . S
C2435 C2439 1.387 1_554 S
C2436 H2421 0.960 . S
C2436 H2422 0.960 . S
C2436 H2423 0.960 . S
C2436 C2435 1.524 . S
C2437 C2434 1.403 . S
C2437 C2438 1.392 . S
C2437 C2441 1.495 . S
C2438 C2437 1.392 . S
C2438 C2439 1.406 . S
C2438 C2440 1.478 . S
C2439 H2433 0.925 1_556 S
C2439 C2435 1.387 1_556 S
C2439 C2438 1.406 . S
C2440 C2438 1.478 . S
C2440 C2442 1.381 . S
C2440 C2446 1.383 . S
C2441 C2437 1.495 . S
C2441 H2447 0.959 . S
C2441 H2448 0.961 . S
C2441 H2449 0.960 . S
C2442 C2440 1.381 . S
C2442 C2443 1.394 . S
C2442 H2450 0.970 . S
C2443 C2442 1.394 . S
C2443 C2444 1.383 . S
C2443 H2451 0.929 . S
C2444 C2443 1.383 . S
C2444 C2445 1.377 . S
C2445 H2429 0.930 . S
C2445 C2444 1.377 . S
C2445 C2446 1.379 . S
C2446 H2430 0.931 . S
C2446 C2440 1.383 . S
C2446 C2445 1.379 . S
H2447 C2441 0.959 . S
H2448 C2441 0.961 . S
H2449 C2441 0.960 . S
H2450 C2442 0.970 . S
H2451 C2443 0.929 . S
H2452 C2460 0.929 . S
H2453 C2462 0.930 . S
H2454 C2464 0.930 1_556 S
H2455 C2467 0.929 1_556 S
H2456 C2470 0.930 . S
H2457 C2472 0.960 . S
H2458 C2472 0.960 . S
H2459 C2472 0.960 . S
C2460 H2452 0.929 . S
C2460 C2461 1.377 . S
C2460 C2462 1.384 . S
C2461 C2460 1.377 . S
C2461 C2467 1.390 . S
C2462 H2453 0.930 . S
C2462 C2460 1.384 . S
C2462 C2463 1.372 . S
C2463 C2462 1.372 . S
C2463 C2464 1.400 . S
C2463 C2468 1.490 . S
C2464 H2454 0.930 1_554 S
C2464 C2463 1.400 . S
C2464 C2467 1.386 . S
H2465 C2481 0.930 . S
H2466 C2482 0.919 1_556 S
C2467 H2455 0.929 1_554 S
C2467 C2461 1.390 . S
C2467 C2464 1.386 . S
C2468 C2463 1.490 . S
C2468 C2470 1.395 . S
C2468 C2471 1.403 . S
H2469 C2475 0.930 . S
C2470 H2456 0.930 . S
C2470 C2468 1.395 . S
C2470 C2473 1.403 . S
C2471 C2468 1.403 . S
C2471 C2472 1.524 . S
C2471 C2475 1.400 . S
C2472 H2457 0.960 . S
C2472 H2458 0.960 . S
C2472 H2459 0.960 . S
C2472 C2471 1.524 . S
C2473 C2470 1.403 . S
C2473 C2474 1.392 . S
C2473 C2477 1.495 . S
C2474 C2473 1.392 . S
C2474 C2475 1.385 . S
C2474 C2476 1.478 . S
C2475 H2469 0.930 . S
C2475 C2471 1.400 . S
C2475 C2474 1.385 . S
C2476 C2474 1.478 . S
C2476 C2478 1.381 . S
C2476 C2482 1.398 . S
C2477 C2473 1.495 . S
C2477 H2483 0.959 . S
C2477 H2484 0.961 . S
C2477 H2485 0.960 . S
C2478 C2476 1.381 . S
C2478 C2479 1.394 . S
C2478 H2486 0.930 . S
C2479 C2478 1.394 . S
C2479 C2480 1.383 . S
C2479 H2487 0.929 . S
C2480 C2479 1.383 . S
C2480 C2481 1.377 1_554 S
C2481 H2465 0.930 . S
C2481 C2480 1.377 1_556 S
C2481 C2482 1.376 1_556 S
C2482 H2466 0.919 1_554 S
C2482 C2476 1.398 . S
C2482 C2481 1.376 1_554 S
H2483 C2477 0.959 . S
H2484 C2477 0.961 . S
H2485 C2477 0.960 . S
H2486 C2478 0.930 . S
H2487 C2479 0.929 . S
H2488 C2496 0.929 . S
H2489 C2498 0.930 . S
H2490 C2500 0.930 . S
H2491 C2503 0.929 . S
H2492 C2506 0.930 . S
H2493 C2508 0.960 . S
H2494 C2508 0.960 . S
H2495 C2508 0.960 . S
C2496 H2488 0.929 . S
C2496 C2497 1.377 . S
C2496 C2498 1.384 . S
C2497 C2496 1.377 . S
C2497 C2503 1.390 . S
C2498 H2489 0.930 . S
C2498 C2496 1.384 . S
C2498 C2499 1.372 . S
C2499 C2498 1.372 . S
C2499 C2500 1.400 . S
C2499 C2504 1.490 . S
C2500 H2490 0.930 . S
C2500 C2499 1.400 . S
C2500 C2503 1.386 . S
H2501 C2517 0.930 . S
H2502 C2518 0.931 . S
C2503 H2491 0.929 . S
C2503 C2497 1.390 . S
C2503 C2500 1.386 . S
C2504 C2499 1.490 . S
C2504 C2506 1.395 . S
C2504 C2507 1.403 . S
H2505 C2511 0.930 . S
C2506 H2492 0.930 . S
C2506 C2504 1.395 . S
C2506 C2509 1.403 . S
C2507 C2504 1.403 . S
C2507 C2508 1.524 . S
C2507 C2511 1.400 . S
C2508 H2493 0.960 . S
C2508 H2494 0.960 . S
C2508 H2495 0.960 . S
C2508 C2507 1.524 . S
C2509 C2506 1.403 . S
C2509 C2510 1.392 . S
C2509 C2513 1.495 . S
C2510 C2509 1.392 . S
C2510 C2511 1.385 . S
C2510 C2512 1.478 . S
C2511 H2505 0.930 . S
C2511 C2507 1.400 . S
C2511 C2510 1.385 . S
C2512 C2510 1.478 . S
C2512 C2514 1.381 . S
C2512 C2518 1.383 . S
C2513 C2509 1.495 . S
C2513 H2519 0.959 . S
C2513 H2520 0.961 . S
C2513 H2521 0.960 . S
C2514 C2512 1.381 . S
C2514 C2515 1.394 . S
C2514 H2522 0.930 . S
C2515 C2514 1.394 . S
C2515 C2516 1.383 . S
C2515 H2523 0.929 . S
C2516 C2515 1.383 . S
C2516 C2517 1.377 . S
C2517 H2501 0.930 . S
C2517 C2516 1.377 . S
C2517 C2518 1.379 . S
C2518 H2502 0.931 . S
C2518 C2512 1.383 . S
C2518 C2517 1.379 . S
H2519 C2513 0.959 . S
H2520 C2513 0.961 . S
H2521 C2513 0.960 . S
H2522 C2514 0.930 . S
H2523 C2515 0.929 . S
H2524 C2532 0.929 . S
H2525 C2534 0.930 . S
H2526 C2536 0.930 . S
H2527 C2539 0.929 . S
H2528 C2542 0.930 . S
H2529 C2544 0.960 . S
H2530 C2544 0.960 . S
H2531 C2544 0.960 . S
C2532 H2524 0.929 . S
C2532 C2533 1.377 . S
C2532 C2534 1.384 . S
C2533 C2532 1.377 . S
C2533 C2539 1.390 . S
C2534 H2525 0.930 . S
C2534 C2532 1.384 . S
C2534 C2535 1.372 . S
C2535 C2534 1.372 . S
C2535 C2536 1.400 . S
C2535 C2540 1.490 . S
C2536 H2526 0.930 . S
C2536 C2535 1.400 . S
C2536 C2539 1.386 . S
H2537 C2553 0.930 . S
H2538 C2554 0.931 . S
C2539 H2527 0.929 . S
C2539 C2533 1.390 . S
C2539 C2536 1.386 . S
C2540 C2535 1.490 . S
C2540 C2542 1.395 . S
C2540 C2543 1.403 . S
H2541 C2547 0.930 . S
C2542 H2528 0.930 . S
C2542 C2540 1.395 . S
C2542 C2545 1.403 . S
C2543 C2540 1.403 . S
C2543 C2544 1.524 . S
C2543 C2547 1.400 . S
C2544 H2529 0.960 . S
C2544 H2530 0.960 . S
C2544 H2531 0.960 . S
C2544 C2543 1.524 . S
C2545 C2542 1.403 . S
C2545 C2546 1.392 . S
C2545 C2549 1.495 . S
C2546 C2545 1.392 . S
C2546 C2547 1.385 . S
C2546 C2548 1.478 . S
C2547 H2541 0.930 . S
C2547 C2543 1.400 . S
C2547 C2546 1.385 . S
C2548 C2546 1.478 . S
C2548 C2550 1.381 . S
C2548 C2554 1.383 . S
C2549 C2545 1.495 . S
C2549 H2555 0.959 . S
C2549 H2556 0.961 . S
C2549 H2557 0.960 . S
C2550 C2548 1.381 . S
C2550 C2551 1.394 . S
C2550 H2558 0.930 . S
C2551 C2550 1.394 . S
C2551 C2552 1.383 . S
C2551 H2559 0.929 . S
C2552 C2551 1.383 . S
C2552 C2553 1.377 . S
C2553 H2537 0.930 . S
C2553 C2552 1.377 . S
C2553 C2554 1.379 . S
C2554 H2538 0.931 . S
C2554 C2548 1.383 . S
C2554 C2553 1.379 . S
H2555 C2549 0.959 . S
H2556 C2549 0.961 . S
H2557 C2549 0.960 . S
H2558 C2550 0.930 . S
H2559 C2551 0.929 . S
H2560 C2568 0.958 . S
H2561 C2570 0.930 . S
H2562 C2572 0.930 . S
H2563 C2575 0.929 . S
H2564 C2578 0.930 . S
H2565 C2580 0.960 . S
H2566 C2580 0.960 . S
H2567 C2580 0.960 . S
C2568 H2560 0.958 . S
C2568 C2569 1.389 . S
C2568 C2570 1.346 1_545 S
C2569 C2568 1.389 . S
C2569 C2575 1.390 1_545 S
C2570 H2561 0.930 . S
C2570 C2568 1.346 1_565 S
C2570 C2571 1.372 . S
C2571 C2570 1.372 . S
C2571 C2572 1.400 . S
C2571 C2576 1.490 . S
C2572 H2562 0.930 . S
C2572 C2571 1.400 . S
C2572 C2575 1.386 . S
H2573 C2589 0.930 . S
H2574 C2590 0.931 . S
C2575 H2563 0.929 . S
C2575 C2569 1.390 1_565 S
C2575 C2572 1.386 . S
C2576 C2571 1.490 . S
C2576 C2578 1.395 . S
C2576 C2579 1.403 . S
H2577 C2583 0.930 . S
C2578 H2564 0.930 . S
C2578 C2576 1.395 . S
C2578 C2581 1.403 . S
C2579 C2576 1.403 . S
C2579 C2580 1.524 . S
C2579 C2583 1.400 . S
C2580 H2565 0.960 . S
C2580 H2566 0.960 . S
C2580 H2567 0.960 . S
C2580 C2579 1.524 . S
C2581 C2578 1.403 . S
C2581 C2582 1.392 . S
C2581 C2585 1.495 . S
C2582 C2581 1.392 . S
C2582 C2583 1.385 . S
C2582 C2584 1.478 . S
C2583 H2577 0.930 . S
C2583 C2579 1.400 . S
C2583 C2582 1.385 . S
C2584 C2582 1.478 . S
C2584 C2586 1.381 . S
C2584 C2590 1.383 . S
C2585 C2581 1.495 . S
C2585 H2591 0.959 . S
C2585 H2592 0.961 . S
C2585 H2593 0.960 . S
C2586 C2584 1.381 . S
C2586 C2587 1.394 . S
C2586 H2594 0.930 . S
C2587 C2586 1.394 . S
C2587 C2588 1.383 . S
C2587 H2595 0.929 . S
C2588 C2587 1.383 . S
C2588 C2589 1.377 . S
C2589 H2573 0.930 . S
C2589 C2588 1.377 . S
C2589 C2590 1.379 . S
C2590 H2574 0.931 . S
C2590 C2584 1.383 . S
C2590 C2589 1.379 . S
H2591 C2585 0.959 . S
H2592 C2585 0.961 . S
H2593 C2585 0.960 . S
H2594 C2586 0.930 . S
H2595 C2587 0.929 . S
H2596 C2604 0.929 . S
H2597 C2606 0.930 . S
H2598 C2608 0.930 . S
H2599 C2611 0.929 . S
H2600 C2614 0.930 . S
H2601 C2616 0.960 . S
H2602 C2616 0.960 . S
H2603 C2616 0.960 . S
C2604 H2596 0.929 . S
C2604 C2605 1.377 . S
C2604 C2606 1.384 . S
C2605 C2604 1.377 . S
C2605 C2611 1.390 . S
C2606 H2597 0.930 . S
C2606 C2604 1.384 . S
C2606 C2607 1.372 . S
C2607 C2606 1.372 . S
C2607 C2608 1.400 . S
C2607 C2612 1.490 . S
C2608 H2598 0.930 . S
C2608 C2607 1.400 . S
C2608 C2611 1.386 . S
H2609 C2625 0.930 . S
H2610 C2626 0.931 . S
C2611 H2599 0.929 . S
C2611 C2605 1.390 . S
C2611 C2608 1.386 . S
C2612 C2607 1.490 . S
C2612 C2614 1.395 . S
C2612 C2615 1.403 . S
H2613 C2619 0.930 . S
C2614 H2600 0.930 . S
C2614 C2612 1.395 . S
C2614 C2617 1.403 . S
C2615 C2612 1.403 . S
C2615 C2616 1.524 . S
C2615 C2619 1.400 . S
C2616 H2601 0.960 . S
C2616 H2602 0.960 . S
C2616 H2603 0.960 . S
C2616 C2615 1.524 . S
C2617 C2614 1.403 . S
C2617 C2618 1.392 . S
C2617 C2621 1.495 . S
C2618 C2617 1.392 . S
C2618 C2619 1.385 . S
C2618 C2620 1.478 . S
C2619 H2613 0.930 . S
C2619 C2615 1.400 . S
C2619 C2618 1.385 . S
C2620 C2618 1.478 . S
C2620 C2622 1.381 . S
C2620 C2626 1.383 . S
C2621 C2617 1.495 . S
C2621 H2627 0.959 . S
C2621 H2628 0.961 . S
C2621 H2629 0.960 . S
C2622 C2620 1.381 . S
C2622 C2623 1.394 . S
C2622 H2630 0.930 . S
C2623 C2622 1.394 . S
C2623 C2624 1.383 . S
C2623 H2631 0.929 . S
C2624 C2623 1.383 . S
C2624 C2625 1.377 . S
C2625 H2609 0.930 . S
C2625 C2624 1.377 . S
C2625 C2626 1.379 . S
C2626 H2610 0.931 . S
C2626 C2620 1.383 . S
C2626 C2625 1.379 . S
H2627 C2621 0.959 . S
H2628 C2621 0.961 . S
H2629 C2621 0.960 . S
H2630 C2622 0.930 . S
H2631 C2623 0.929 . S
H2632 C2640 0.929 . S
H2633 C2642 0.930 . S
H2634 C2644 0.930 . S
H2635 C2647 0.929 . S
H2636 C2650 0.930 . S
H2637 C2652 0.960 . S
H2638 C2652 0.960 . S
H2639 C2652 0.960 . S
C2640 H2632 0.929 . S
C2640 C2641 1.377 . S
C2640 C2642 1.384 . S
C2641 C2640 1.377 . S
C2641 C2647 1.390 . S
C2642 H2633 0.930 . S
C2642 C2640 1.384 . S
C2642 C2643 1.372 . S
C2643 C2642 1.372 . S
C2643 C2644 1.400 . S
C2643 C2648 1.490 . S
C2644 H2634 0.930 . S
C2644 C2643 1.400 . S
C2644 C2647 1.386 . S
H2645 C2661 0.930 . S
H2646 C2662 0.931 . S
C2647 H2635 0.929 . S
C2647 C2641 1.390 . S
C2647 C2644 1.386 . S
C2648 C2643 1.490 . S
C2648 C2650 1.395 . S
C2648 C2651 1.403 . S
H2649 C2655 0.930 . S
C2650 H2636 0.930 . S
C2650 C2648 1.395 . S
C2650 C2653 1.403 . S
C2651 C2648 1.403 . S
C2651 C2652 1.524 . S
C2651 C2655 1.400 . S
C2652 H2637 0.960 . S
C2652 H2638 0.960 . S
C2652 H2639 0.960 . S
C2652 C2651 1.524 . S
C2653 C2650 1.403 . S
C2653 C2654 1.392 . S
C2653 C2657 1.495 . S
C2654 C2653 1.392 . S
C2654 C2655 1.385 . S
C2654 C2656 1.478 . S
C2655 H2649 0.930 . S
C2655 C2651 1.400 . S
C2655 C2654 1.385 . S
C2656 C2654 1.478 . S
C2656 C2658 1.381 . S
C2656 C2662 1.383 . S
C2657 C2653 1.495 . S
C2657 H2663 0.959 . S
C2657 H2664 0.961 . S
C2657 H2665 0.960 . S
C2658 C2656 1.381 . S
C2658 C2659 1.394 . S
C2658 H2666 0.930 . S
C2659 C2658 1.394 . S
C2659 C2660 1.383 . S
C2659 H2667 0.929 . S
C2660 C2659 1.383 . S
C2660 C2661 1.377 . S
C2661 H2645 0.930 . S
C2661 C2660 1.377 . S
C2661 C2662 1.379 . S
C2662 H2646 0.931 . S
C2662 C2656 1.383 . S
C2662 C2661 1.379 . S
H2663 C2657 0.959 . S
H2664 C2657 0.961 . S
H2665 C2657 0.960 . S
H2666 C2658 0.930 . S
H2667 C2659 0.929 . S
H2668 C2676 0.929 . S
H2669 C2678 0.930 . S
H2670 C2680 0.930 . S
H2671 C2683 0.929 . S
H2672 C2686 0.930 . S
H2673 C2688 0.960 . S
H2674 C2688 0.960 . S
H2675 C2688 0.960 . S
C2676 H2668 0.929 . S
C2676 C2677 1.377 . S
C2676 C2678 1.384 . S
C2677 C2676 1.377 . S
C2677 C2683 1.390 . S
C2678 H2669 0.930 . S
C2678 C2676 1.384 . S
C2678 C2679 1.372 . S
C2679 C2678 1.372 . S
C2679 C2680 1.400 . S
C2679 C2684 1.490 . S
C2680 H2670 0.930 . S
C2680 C2679 1.400 . S
C2680 C2683 1.386 . S
H2681 C2697 0.930 . S
H2682 C2698 0.931 . S
C2683 H2671 0.929 . S
C2683 C2677 1.390 . S
C2683 C2680 1.386 . S
C2684 C2679 1.490 . S
C2684 C2686 1.395 . S
C2684 C2687 1.403 . S
H2685 C2691 0.930 . S
C2686 H2672 0.930 . S
C2686 C2684 1.395 . S
C2686 C2689 1.403 . S
C2687 C2684 1.403 . S
C2687 C2688 1.524 . S
C2687 C2691 1.400 . S
C2688 H2673 0.960 . S
C2688 H2674 0.960 . S
C2688 H2675 0.960 . S
C2688 C2687 1.524 . S
C2689 C2686 1.403 . S
C2689 C2690 1.392 . S
C2689 C2693 1.495 . S
C2690 C2689 1.392 . S
C2690 C2691 1.385 . S
C2690 C2692 1.478 . S
C2691 H2685 0.930 . S
C2691 C2687 1.400 . S
C2691 C2690 1.385 . S
C2692 C2690 1.478 . S
C2692 C2694 1.381 . S
C2692 C2698 1.383 . S
C2693 C2689 1.495 . S
C2693 H2699 0.959 . S
C2693 H2700 0.961 . S
C2693 H2701 0.960 . S
C2694 C2692 1.381 . S
C2694 C2695 1.394 . S
C2694 H2702 0.930 . S
C2695 C2694 1.394 . S
C2695 C2696 1.383 . S
C2695 H2703 0.929 . S
C2696 C2695 1.383 . S
C2696 C2697 1.377 . S
C2697 H2681 0.930 . S
C2697 C2696 1.377 . S
C2697 C2698 1.379 . S
C2698 H2682 0.931 . S
C2698 C2692 1.383 . S
C2698 C2697 1.379 . S
H2699 C2693 0.959 . S
H2700 C2693 0.961 . S
H2701 C2693 0.960 . S
H2702 C2694 0.930 . S
H2703 C2695 0.929 . S
H2704 C2712 0.929 . S
H2705 C2714 0.930 . S
H2706 C2716 0.930 . S
H2707 C2719 0.929 . S
H2708 C2722 0.930 . S
H2709 C2724 0.960 . S
H2710 C2724 0.960 . S
H2711 C2724 0.960 . S
C2712 H2704 0.929 . S
C2712 C2713 1.377 . S
C2712 C2714 1.384 . S
C2713 C2712 1.377 . S
C2713 C2719 1.390 . S
C2714 H2705 0.930 . S
C2714 C2712 1.384 . S
C2714 C2715 1.372 . S
C2715 C2714 1.372 . S
C2715 C2716 1.400 . S
C2715 C2720 1.490 . S
C2716 H2706 0.930 . S
C2716 C2715 1.400 . S
C2716 C2719 1.386 . S
H2717 C2733 0.930 . S
H2718 C2734 0.931 . S
C2719 H2707 0.929 . S
C2719 C2713 1.390 . S
C2719 C2716 1.386 . S
C2720 C2715 1.490 . S
C2720 C2722 1.395 . S
C2720 C2723 1.403 . S
H2721 C2727 0.930 . S
C2722 H2708 0.930 . S
C2722 C2720 1.395 . S
C2722 C2725 1.403 . S
C2723 C2720 1.403 . S
C2723 C2724 1.524 . S
C2723 C2727 1.400 . S
C2724 H2709 0.960 . S
C2724 H2710 0.960 . S
C2724 H2711 0.960 . S
C2724 C2723 1.524 . S
C2725 C2722 1.403 . S
C2725 C2726 1.392 . S
C2725 C2729 1.495 . S
C2726 C2725 1.392 . S
C2726 C2727 1.385 . S
C2726 C2728 1.478 . S
C2727 H2721 0.930 . S
C2727 C2723 1.400 . S
C2727 C2726 1.385 . S
C2728 C2726 1.478 . S
C2728 C2730 1.381 . S
C2728 C2734 1.383 . S
C2729 C2725 1.495 . S
C2729 H2735 0.959 . S
C2729 H2736 0.961 . S
C2729 H2737 0.960 . S
C2730 C2728 1.381 . S
C2730 C2731 1.394 . S
C2730 H2738 0.930 . S
C2731 C2730 1.394 . S
C2731 C2732 1.383 . S
C2731 H2739 0.929 . S
C2732 C2731 1.383 . S
C2732 C2733 1.377 . S
C2733 H2717 0.930 . S
C2733 C2732 1.377 . S
C2733 C2734 1.379 . S
C2734 H2718 0.931 . S
C2734 C2728 1.383 . S
C2734 C2733 1.379 . S
H2735 C2729 0.959 . S
H2736 C2729 0.961 . S
H2737 C2729 0.960 . S
H2738 C2730 0.930 . S
H2739 C2731 0.929 . S
H2740 C2748 0.929 . S
H2741 C2750 0.930 . S
H2742 C2752 0.930 . S
H2743 C2755 0.929 . S
H2744 C2758 0.930 . S
H2745 C2760 0.960 . S
H2746 C2760 0.960 . S
H2747 C2760 0.960 . S
C2748 H2740 0.929 . S
C2748 C2749 1.377 . S
C2748 C2750 1.384 . S
C2749 C2748 1.377 . S
C2749 C2755 1.390 . S
C2750 H2741 0.930 . S
C2750 C2748 1.384 . S
C2750 C2751 1.372 . S
C2751 C2750 1.372 . S
C2751 C2752 1.400 . S
C2751 C2756 1.490 . S
C2752 H2742 0.930 . S
C2752 C2751 1.400 . S
C2752 C2755 1.386 . S
H2753 C2769 0.930 . S
H2754 C2770 0.931 . S
C2755 H2743 0.929 . S
C2755 C2749 1.390 . S
C2755 C2752 1.386 . S
C2756 C2751 1.490 . S
C2756 C2758 1.395 . S
C2756 C2759 1.403 . S
H2757 C2763 0.930 . S
C2758 H2744 0.930 . S
C2758 C2756 1.395 . S
C2758 C2761 1.403 . S
C2759 C2756 1.403 . S
C2759 C2760 1.524 . S
C2759 C2763 1.400 . S
C2760 H2745 0.960 . S
C2760 H2746 0.960 . S
C2760 H2747 0.960 . S
C2760 C2759 1.524 . S
C2761 C2758 1.403 . S
C2761 C2762 1.392 . S
C2761 C2765 1.495 . S
C2762 C2761 1.392 . S
C2762 C2763 1.385 . S
C2762 C2764 1.478 . S
C2763 H2757 0.930 . S
C2763 C2759 1.400 . S
C2763 C2762 1.385 . S
C2764 C2762 1.478 . S
C2764 C2766 1.381 . S
C2764 C2770 1.383 . S
C2765 C2761 1.495 . S
C2765 H2771 0.959 . S
C2765 H2772 0.961 . S
C2765 H2773 0.960 . S
C2766 C2764 1.381 . S
C2766 C2767 1.394 . S
C2766 H2774 0.930 . S
C2767 C2766 1.394 . S
C2767 C2768 1.383 . S
C2767 H2775 0.929 . S
C2768 C2767 1.383 . S
C2768 C2769 1.377 . S
C2769 H2753 0.930 . S
C2769 C2768 1.377 . S
C2769 C2770 1.379 . S
C2770 H2754 0.931 . S
C2770 C2764 1.383 . S
C2770 C2769 1.379 . S
H2771 C2765 0.959 . S
H2772 C2765 0.961 . S
H2773 C2765 0.960 . S
H2774 C2766 0.930 . S
H2775 C2767 0.929 . S
H2776 C2784 0.929 . S
H2777 C2786 0.930 . S
H2778 C2788 0.968 . S
H2779 C2791 0.929 1_655 S
H2780 C2794 0.930 . S
H2781 C2796 0.960 1_554 S
H2782 C2796 0.960 . S
H2783 C2796 0.960 . S
C2784 H2776 0.929 . S
C2784 C2785 1.377 . S
C2784 C2786 1.384 . S
C2785 C2784 1.377 . S
C2785 C2791 1.390 . S
C2786 H2777 0.930 . S
C2786 C2784 1.384 . S
C2786 C2787 1.372 . S
C2787 C2786 1.372 . S
C2787 C2788 1.400 . S
C2787 C2792 1.490 . S
C2788 H2778 0.968 . S
C2788 C2787 1.400 . S
C2788 C2791 1.386 . S
H2789 C2805 0.913 1_554 S
H2790 C2806 0.931 . S
C2791 H2779 0.929 1_455 S
C2791 C2785 1.390 . S
C2791 C2788 1.386 . S
C2792 C2787 1.490 . S
C2792 C2794 1.395 . S
C2792 C2795 1.403 . S
H2793 C2799 0.930 . S
C2794 H2780 0.930 . S
C2794 C2792 1.395 . S
C2794 C2797 1.403 . S
C2795 C2792 1.403 . S
C2795 C2796 1.524 . S
C2795 C2799 1.400 . S
C2796 H2781 0.960 1_556 S
C2796 H2782 0.960 . S
C2796 H2783 0.960 . S
C2796 C2795 1.524 . S
C2797 C2794 1.403 . S
C2797 C2798 1.392 . S
C2797 C2801 1.495 . S
C2798 C2797 1.392 . S
C2798 C2799 1.385 . S
C2798 C2800 1.478 . S
C2799 H2793 0.930 . S
C2799 C2795 1.400 . S
C2799 C2798 1.385 . S
C2800 C2798 1.478 . S
C2800 C2802 1.381 . S
C2800 C2806 1.383 . S
C2801 C2797 1.495 . S
C2801 H2807 0.959 . S
C2801 H2808 0.961 . S
C2801 H2809 0.960 . S
C2802 C2800 1.381 . S
C2802 C2803 1.394 . S
C2802 H2810 0.930 . S
C2803 C2802 1.394 . S
C2803 C2804 1.395 . S
C2803 H2811 0.929 . S
C2804 C2803 1.395 . S
C2804 C2805 1.379 . S
C2805 H2789 0.913 1_556 S
C2805 C2804 1.379 . S
C2805 C2806 1.390 . S
C2806 H2790 0.931 . S
C2806 C2800 1.383 . S
C2806 C2805 1.390 . S
H2807 C2801 0.959 . S
H2808 C2801 0.961 . S
H2809 C2801 0.960 . S
H2810 C2802 0.930 . S
H2811 C2803 0.929 . S
H2812 C2820 0.929 . S
H2813 C2822 0.930 . S
H2814 C2824 0.930 . S
H2815 C2827 0.929 . S
H2816 C2830 0.930 . S
H2817 C2832 0.960 . S
H2818 C2832 0.960 . S
H2819 C2832 0.960 . S
C2820 H2812 0.929 . S
C2820 C2821 1.377 . S
C2820 C2822 1.384 1_455 S
C2821 C2820 1.377 . S
C2821 C2827 1.390 . S
C2822 H2813 0.930 . S
C2822 C2820 1.384 1_655 S
C2822 C2823 1.372 . S
C2823 C2822 1.372 . S
C2823 C2824 1.400 . S
C2823 C2828 1.490 . S
C2824 H2814 0.930 . S
C2824 C2823 1.400 . S
C2824 C2827 1.386 1_655 S
H2825 C2841 0.930 . S
H2826 C2842 0.931 . S
C2827 H2815 0.929 . S
C2827 C2821 1.390 . S
C2827 C2824 1.386 1_455 S
C2828 C2823 1.490 . S
C2828 C2830 1.395 . S
C2828 C2831 1.403 . S
H2829 C2835 0.930 . S
C2830 H2816 0.930 . S
C2830 C2828 1.395 . S
C2830 C2833 1.403 . S
C2831 C2828 1.403 . S
C2831 C2832 1.524 . S
C2831 C2835 1.400 . S
C2832 H2817 0.960 . S
C2832 H2818 0.960 . S
C2832 H2819 0.960 . S
C2832 C2831 1.524 . S
C2833 C2830 1.403 . S
C2833 C2834 1.392 . S
C2833 C2837 1.495 . S
C2834 C2833 1.392 . S
C2834 C2835 1.385 . S
C2834 C2836 1.478 . S
C2835 H2829 0.930 . S
C2835 C2831 1.400 . S
C2835 C2834 1.385 . S
C2836 C2834 1.478 . S
C2836 C2838 1.381 . S
C2836 C2842 1.383 . S
C2837 C2833 1.495 . S
C2837 H2843 0.959 . S
C2837 H2844 0.961 . S
C2837 H2845 0.960 . S
C2838 C2836 1.381 . S
C2838 C2839 1.394 . S
C2838 H2846 0.930 . S
C2839 C2838 1.394 . S
C2839 C2840 1.383 . S
C2839 H2847 0.929 . S
C2840 C2839 1.383 . S
C2840 C2841 1.377 . S
C2841 H2825 0.930 . S
C2841 C2840 1.377 . S
C2841 C2842 1.379 . S
C2842 H2826 0.931 . S
C2842 C2836 1.383 . S
C2842 C2841 1.379 . S
H2843 C2837 0.959 . S
H2844 C2837 0.961 . S
H2845 C2837 0.960 . S
H2846 C2838 0.930 . S
H2847 C2839 0.929 . S
H2848 C2856 0.929 . S
H2849 C2858 0.930 . S
H2850 C2860 0.930 . S
H2851 C2863 0.929 . S
H2852 C2866 0.930 . S
H2853 C2868 0.960 . S
H2854 C2868 0.960 . S
H2855 C2868 0.960 . S
C2856 H2848 0.929 . S
C2856 C2857 1.377 . S
C2856 C2858 1.384 . S
C2857 C2856 1.377 . S
C2857 C2863 1.390 . S
C2858 H2849 0.930 . S
C2858 C2856 1.384 . S
C2858 C2859 1.372 . S
C2859 C2858 1.372 . S
C2859 C2860 1.400 . S
C2859 C2864 1.490 . S
C2860 H2850 0.930 . S
C2860 C2859 1.400 . S
C2860 C2863 1.386 . S
H2861 C2877 0.930 . S
H2862 C2878 0.931 . S
C2863 H2851 0.929 . S
C2863 C2857 1.390 . S
C2863 C2860 1.386 . S
C2864 C2859 1.490 . S
C2864 C2866 1.395 . S
C2864 C2867 1.403 . S
H2865 C2871 0.930 . S
C2866 H2852 0.930 . S
C2866 C2864 1.395 . S
C2866 C2869 1.403 . S
C2867 C2864 1.403 . S
C2867 C2868 1.524 . S
C2867 C2871 1.400 . S
C2868 H2853 0.960 . S
C2868 H2854 0.960 . S
C2868 H2855 0.960 . S
C2868 C2867 1.524 . S
C2869 C2866 1.403 . S
C2869 C2870 1.392 . S
C2869 C2873 1.495 . S
C2870 C2869 1.392 . S
C2870 C2871 1.385 . S
C2870 C2872 1.478 . S
C2871 H2865 0.930 . S
C2871 C2867 1.400 . S
C2871 C2870 1.385 . S
C2872 C2870 1.478 . S
C2872 C2874 1.381 . S
C2872 C2878 1.383 . S
C2873 C2869 1.495 . S
C2873 H2879 0.959 . S
C2873 H2880 0.961 . S
C2873 H2881 0.960 . S
C2874 C2872 1.381 . S
C2874 C2875 1.394 . S
C2874 H2882 0.930 . S
C2875 C2874 1.394 . S
C2875 C2876 1.383 . S
C2875 H2883 0.929 . S
C2876 C2875 1.383 . S
C2876 C2877 1.377 . S
C2877 H2861 0.930 . S
C2877 C2876 1.377 . S
C2877 C2878 1.379 . S
C2878 H2862 0.931 . S
C2878 C2872 1.383 . S
C2878 C2877 1.379 . S
H2879 C2873 0.959 . S
H2880 C2873 0.961 . S
H2881 C2873 0.960 . S
H2882 C2874 0.930 . S
H2883 C2875 0.929 . S
H2884 C2892 0.929 . S
H2885 C2894 0.930 . S
H2886 C2896 0.887 1_655 S
H2887 C2899 0.929 . S
H2888 C2902 0.930 . S
H2889 C2904 0.960 . S
H2890 C2904 0.960 . S
H2891 C2904 0.960 . S
C2892 H2884 0.929 . S
C2892 C2893 1.377 . S
C2892 C2894 1.384 . S
C2893 C2892 1.377 . S
C2893 C2899 1.390 . S
C2894 H2885 0.930 . S
C2894 C2892 1.384 . S
C2894 C2895 1.372 . S
C2895 C2894 1.372 . S
C2895 C2896 1.400 . S
C2895 C2900 1.490 1_455 S
C2896 H2886 0.887 1_455 S
C2896 C2895 1.400 . S
C2896 C2899 1.386 . S
H2897 C2913 0.930 . S
H2898 C2914 0.931 . S
C2899 H2887 0.929 . S
C2899 C2893 1.390 . S
C2899 C2896 1.386 . S
C2900 C2895 1.490 1_655 S
C2900 C2902 1.395 . S
C2900 C2903 1.403 . S
H2901 C2907 0.930 . S
C2902 H2888 0.930 . S
C2902 C2900 1.395 . S
C2902 C2905 1.403 . S
C2903 C2900 1.403 . S
C2903 C2904 1.524 . S
C2903 C2907 1.400 . S
C2904 H2889 0.960 . S
C2904 H2890 0.960 . S
C2904 H2891 0.960 . S
C2904 C2903 1.524 . S
C2905 C2902 1.403 . S
C2905 C2906 1.392 . S
C2905 C2909 1.495 . S
C2906 C2905 1.392 . S
C2906 C2907 1.385 . S
C2906 C2908 1.478 . S
C2907 H2901 0.930 . S
C2907 C2903 1.400 . S
C2907 C2906 1.385 . S
C2908 C2906 1.478 . S
C2908 C2910 1.381 . S
C2908 C2914 1.383 . S
C2909 C2905 1.495 . S
C2909 H2915 0.959 . S
C2909 H2916 0.961 . S
C2909 H2917 0.960 . S
C2910 C2908 1.381 . S
C2910 C2911 1.394 . S
C2910 H2918 0.930 . S
C2911 C2910 1.394 . S
C2911 C2912 1.383 . S
C2911 H2919 0.929 . S
C2912 C2911 1.383 . S
C2912 C2913 1.377 . S
C2913 H2897 0.930 . S
C2913 C2912 1.377 . S
C2913 C2914 1.379 . S
C2914 H2898 0.931 . S
C2914 C2908 1.383 . S
C2914 C2913 1.379 . S
H2915 C2909 0.959 . S
H2916 C2909 0.961 . S
H2917 C2909 0.960 . S
H2918 C2910 0.930 . S
H2919 C2911 0.929 . S
H2920 C2928 0.929 . S
H2921 C2930 0.930 . S
H2922 C2932 0.930 . S
H2923 C2935 0.929 . S
H2924 C2938 0.930 . S
H2925 C2940 0.960 . S
H2926 C2940 0.960 . S
H2927 C2940 0.960 . S
C2928 H2920 0.929 . S
C2928 C2929 1.377 1_455 S
C2928 C2930 1.384 . S
C2929 C2928 1.377 1_655 S
C2929 C2935 1.390 . S
C2930 H2921 0.930 . S
C2930 C2928 1.384 . S
C2930 C2931 1.372 . S
C2931 C2930 1.372 . S
C2931 C2932 1.400 1_455 S
C2931 C2936 1.490 . S
C2932 H2922 0.930 . S
C2932 C2931 1.400 1_655 S
C2932 C2935 1.386 . S
H2933 C2949 0.930 . S
H2934 C2950 0.931 1_655 S
C2935 H2923 0.929 . S
C2935 C2929 1.390 . S
C2935 C2932 1.386 . S
C2936 C2931 1.490 . S
C2936 C2938 1.395 . S
C2936 C2939 1.403 . S
H2937 C2943 0.930 . S
C2938 H2924 0.930 . S
C2938 C2936 1.395 . S
C2938 C2941 1.403 . S
C2939 C2936 1.403 . S
C2939 C2940 1.524 1_455 S
C2939 C2943 1.400 . S
C2940 H2925 0.960 . S
C2940 H2926 0.960 . S
C2940 H2927 0.960 . S
C2940 C2939 1.524 1_655 S
C2941 C2938 1.403 . S
C2941 C2942 1.392 . S
C2941 C2945 1.495 . S
C2942 C2941 1.392 . S
C2942 C2943 1.385 . S
C2942 C2944 1.478 . S
C2943 H2937 0.930 . S
C2943 C2939 1.400 . S
C2943 C2942 1.385 . S
C2944 C2942 1.478 . S
C2944 C2946 1.381 . S
C2944 C2950 1.383 . S
C2945 C2941 1.495 . S
C2945 H2951 0.959 . S
C2945 H2952 0.961 . S
C2945 H2953 0.960 . S
C2946 C2944 1.381 . S
C2946 C2947 1.394 . S
C2946 H2954 0.930 . S
C2947 C2946 1.394 . S
C2947 C2948 1.383 . S
C2947 H2955 0.929 . S
C2948 C2947 1.383 . S
C2948 C2949 1.377 . S
C2949 H2933 0.930 . S
C2949 C2948 1.377 . S
C2949 C2950 1.379 . S
C2950 H2934 0.931 1_455 S
C2950 C2944 1.383 . S
C2950 C2949 1.379 . S
H2951 C2945 0.959 . S
H2952 C2945 0.961 . S
H2953 C2945 0.960 . S
H2954 C2946 0.930 . S
H2955 C2947 0.929 . S
H2956 C2964 0.929 . S
H2957 C2966 0.930 . S
H2958 C2968 0.930 . S
H2959 C2971 0.929 . S
H2960 C2974 0.930 . S
H2961 C2976 0.960 . S
H2962 C2976 0.960 . S
H2963 C2976 0.960 . S
C2964 H2956 0.929 . S
C2964 C2965 1.377 . S
C2964 C2966 1.384 . S
C2965 C2964 1.377 . S
C2965 C2971 1.390 . S
C2966 H2957 0.930 . S
C2966 C2964 1.384 . S
C2966 C2967 1.372 . S
C2967 C2966 1.372 . S
C2967 C2968 1.400 . S
C2967 C2972 1.490 . S
C2968 H2958 0.930 . S
C2968 C2967 1.400 . S
C2968 C2971 1.386 . S
H2969 C2985 0.930 . S
H2970 C2986 0.931 . S
C2971 H2959 0.929 . S
C2971 C2965 1.390 . S
C2971 C2968 1.386 . S
C2972 C2967 1.490 . S
C2972 C2974 1.395 . S
C2972 C2975 1.403 . S
H2973 C2979 0.930 . S
C2974 H2960 0.930 . S
C2974 C2972 1.395 . S
C2974 C2977 1.403 . S
C2975 C2972 1.403 . S
C2975 C2976 1.524 . S
C2975 C2979 1.400 . S
C2976 H2961 0.960 . S
C2976 H2962 0.960 . S
C2976 H2963 0.960 . S
C2976 C2975 1.524 . S
C2977 C2974 1.403 . S
C2977 C2978 1.392 . S
C2977 C2981 1.495 . S
C2978 C2977 1.392 . S
C2978 C2979 1.385 . S
C2978 C2980 1.478 . S
C2979 H2973 0.930 . S
C2979 C2975 1.400 . S
C2979 C2978 1.385 . S
C2980 C2978 1.478 . S
C2980 C2982 1.381 . S
C2980 C2986 1.383 . S
C2981 C2977 1.495 . S
C2981 H2987 0.959 . S
C2981 H2988 0.961 . S
C2981 H2989 0.960 . S
C2982 C2980 1.381 . S
C2982 C2983 1.394 . S
C2982 H2990 0.930 . S
C2983 C2982 1.394 . S
C2983 C2984 1.383 . S
C2983 H2991 0.929 . S
C2984 C2983 1.383 . S
C2984 C2985 1.377 . S
C2985 H2969 0.930 . S
C2985 C2984 1.377 . S
C2985 C2986 1.379 . S
C2986 H2970 0.931 . S
C2986 C2980 1.383 . S
C2986 C2985 1.379 . S
H2987 C2981 0.959 . S
H2988 C2981 0.961 . S
H2989 C2981 0.960 . S
H2990 C2982 0.930 . S
H2991 C2983 0.929 . S
H2992 C3000 0.929 . S
H2993 C3002 0.930 . S
H2994 C3004 0.930 . S
H2995 C3007 0.929 . S
H2996 C3010 0.930 . S
H2997 C3012 0.960 . S
H2998 C3012 0.960 . S
H2999 C3012 0.960 . S
C3000 H2992 0.929 . S
C3000 C3001 1.377 . S
C3000 C3002 1.384 . S
C3001 C3000 1.377 . S
C3001 C3007 1.390 . S
C3002 H2993 0.930 . S
C3002 C3000 1.384 . S
C3002 C3003 1.372 . S
C3003 C3002 1.372 . S
C3003 C3004 1.400 . S
C3003 C3008 1.490 . S
C3004 H2994 0.930 . S
C3004 C3003 1.400 . S
C3004 C3007 1.386 . S
H3005 C3021 0.930 . S
H3006 C3022 0.931 . S
C3007 H2995 0.929 . S
C3007 C3001 1.390 . S
C3007 C3004 1.386 . S
C3008 C3003 1.490 . S
C3008 C3010 1.395 . S
C3008 C3011 1.403 . S
H3009 C3015 0.930 . S
C3010 H2996 0.930 . S
C3010 C3008 1.395 . S
C3010 C3013 1.403 . S
C3011 C3008 1.403 . S
C3011 C3012 1.524 . S
C3011 C3015 1.400 . S
C3012 H2997 0.960 . S
C3012 H2998 0.960 . S
C3012 H2999 0.960 . S
C3012 C3011 1.524 . S
C3013 C3010 1.403 . S
C3013 C3014 1.392 . S
C3013 C3017 1.495 . S
C3014 C3013 1.392 . S
C3014 C3015 1.385 . S
C3014 C3016 1.478 . S
C3015 H3009 0.930 . S
C3015 C3011 1.400 . S
C3015 C3014 1.385 . S
C3016 C3014 1.478 . S
C3016 C3018 1.381 . S
C3016 C3022 1.383 . S
C3017 C3013 1.495 . S
C3017 H3023 0.959 . S
C3017 H3024 0.961 . S
C3017 H3025 0.960 . S
C3018 C3016 1.381 . S
C3018 C3019 1.394 . S
C3018 H3026 0.930 . S
C3019 C3018 1.394 . S
C3019 C3020 1.383 . S
C3019 H3027 0.929 . S
C3020 C3019 1.383 . S
C3020 C3021 1.377 . S
C3021 H3005 0.930 . S
C3021 C3020 1.377 . S
C3021 C3022 1.379 . S
C3022 H3006 0.931 . S
C3022 C3016 1.383 . S
C3022 C3021 1.379 . S
H3023 C3017 0.959 . S
H3024 C3017 0.961 . S
H3025 C3017 0.960 . S
H3026 C3018 0.930 . S
H3027 C3019 0.929 . S
H3028 C3036 0.929 . S
H3029 C3038 0.930 . S
H3030 C3040 0.930 . S
H3031 C3043 0.929 . S
H3032 C3046 0.930 . S
H3033 C3048 0.960 . S
H3034 C3048 0.960 . S
H3035 C3048 0.960 . S
C3036 H3028 0.929 . S
C3036 C3037 1.377 . S
C3036 C3038 1.384 . S
C3037 C3036 1.377 . S
C3037 C3043 1.390 . S
C3038 H3029 0.930 . S
C3038 C3036 1.384 . S
C3038 C3039 1.372 . S
C3039 C3038 1.372 . S
C3039 C3040 1.400 . S
C3039 C3044 1.490 . S
C3040 H3030 0.930 . S
C3040 C3039 1.400 . S
C3040 C3043 1.386 . S
H3041 C3057 0.930 . S
H3042 C3058 0.931 . S
C3043 H3031 0.929 . S
C3043 C3037 1.390 . S
C3043 C3040 1.386 . S
C3044 C3039 1.490 . S
C3044 C3046 1.395 . S
C3044 C3047 1.403 . S
H3045 C3051 0.930 . S
C3046 H3032 0.930 . S
C3046 C3044 1.395 . S
C3046 C3049 1.403 . S
C3047 C3044 1.403 . S
C3047 C3048 1.524 . S
C3047 C3051 1.400 . S
C3048 H3033 0.960 . S
C3048 H3034 0.960 . S
C3048 H3035 0.960 . S
C3048 C3047 1.524 . S
C3049 C3046 1.403 . S
C3049 C3050 1.392 . S
C3049 C3053 1.495 . S
C3050 C3049 1.392 . S
C3050 C3051 1.385 . S
C3050 C3052 1.478 . S
C3051 H3045 0.930 . S
C3051 C3047 1.400 . S
C3051 C3050 1.385 . S
C3052 C3050 1.478 . S
C3052 C3054 1.381 . S
C3052 C3058 1.383 . S
C3053 C3049 1.495 . S
C3053 H3059 0.959 . S
C3053 H3060 0.961 . S
C3053 H3061 0.960 . S
C3054 C3052 1.381 . S
C3054 C3055 1.394 . S
C3054 H3062 0.930 . S
C3055 C3054 1.394 . S
C3055 C3056 1.383 . S
C3055 H3063 0.929 . S
C3056 C3055 1.383 . S
C3056 C3057 1.377 . S
C3057 H3041 0.930 . S
C3057 C3056 1.377 . S
C3057 C3058 1.379 . S
C3058 H3042 0.931 . S
C3058 C3052 1.383 . S
C3058 C3057 1.379 . S
H3059 C3053 0.959 . S
H3060 C3053 0.961 . S
H3061 C3053 0.960 . S
H3062 C3054 0.930 . S
H3063 C3055 0.929 . S
H3064 C3072 0.929 . S
H3065 C3074 0.930 . S
H3066 C3076 0.930 . S
H3067 C3079 0.929 . S
H3068 C3082 0.930 . S
H3069 C3084 0.960 . S
H3070 C3084 0.960 . S
H3071 C3084 0.960 . S
C3072 H3064 0.929 . S
C3072 C3073 1.377 . S
C3072 C3074 1.384 . S
C3073 C3072 1.377 . S
C3073 C3079 1.390 . S
C3074 H3065 0.930 . S
C3074 C3072 1.384 . S
C3074 C3075 1.372 . S
C3075 C3074 1.372 . S
C3075 C3076 1.400 . S
C3075 C3080 1.490 . S
C3076 H3066 0.930 . S
C3076 C3075 1.400 . S
C3076 C3079 1.386 . S
H3077 C3093 0.930 . S
H3078 C3094 0.931 . S
C3079 H3067 0.929 . S
C3079 C3073 1.390 . S
C3079 C3076 1.386 . S
C3080 C3075 1.490 . S
C3080 C3082 1.395 . S
C3080 C3083 1.403 . S
H3081 C3087 0.930 . S
C3082 H3068 0.930 . S
C3082 C3080 1.395 . S
C3082 C3085 1.403 . S
C3083 C3080 1.403 . S
C3083 C3084 1.524 . S
C3083 C3087 1.400 . S
C3084 H3069 0.960 . S
C3084 H3070 0.960 . S
C3084 H3071 0.960 . S
C3084 C3083 1.524 . S
C3085 C3082 1.403 . S
C3085 C3086 1.392 . S
C3085 C3089 1.495 . S
C3086 C3085 1.392 . S
C3086 C3087 1.385 . S
C3086 C3088 1.478 . S
C3087 H3081 0.930 . S
C3087 C3083 1.400 . S
C3087 C3086 1.385 . S
C3088 C3086 1.478 . S
C3088 C3090 1.381 . S
C3088 C3094 1.383 . S
C3089 C3085 1.495 . S
C3089 H3095 0.959 . S
C3089 H3096 0.961 . S
C3089 H3097 0.960 . S
C3090 C3088 1.381 . S
C3090 C3091 1.394 . S
C3090 H3098 0.930 . S
C3091 C3090 1.394 . S
C3091 C3092 1.383 . S
C3091 H3099 0.929 . S
C3092 C3091 1.383 . S
C3092 C3093 1.377 . S
C3093 H3077 0.930 . S
C3093 C3092 1.377 . S
C3093 C3094 1.379 . S
C3094 H3078 0.931 . S
C3094 C3088 1.383 . S
C3094 C3093 1.379 . S
H3095 C3089 0.959 . S
H3096 C3089 0.961 . S
H3097 C3089 0.960 . S
H3098 C3090 0.930 . S
H3099 C3091 0.929 . S
H3100 C3108 0.929 . S
H3101 C3110 0.930 . S
H3102 C3112 0.930 . S
H3103 C3115 0.929 . S
H3104 C3118 0.930 . S
H3105 C3120 0.960 . S
H3106 C3120 0.960 . S
H3107 C3120 0.960 . S
C3108 H3100 0.929 . S
C3108 C3109 1.377 . S
C3108 C3110 1.384 . S
C3109 C3108 1.377 . S
C3109 C3115 1.390 . S
C3110 H3101 0.930 . S
C3110 C3108 1.384 . S
C3110 C3111 1.372 . S
C3111 C3110 1.372 . S
C3111 C3112 1.400 . S
C3111 C3116 1.490 . S
C3112 H3102 0.930 . S
C3112 C3111 1.400 . S
C3112 C3115 1.386 . S
H3113 C3129 0.930 . S
H3114 C3130 0.931 . S
C3115 H3103 0.929 . S
C3115 C3109 1.390 . S
C3115 C3112 1.386 . S
C3116 C3111 1.490 . S
C3116 C3118 1.395 . S
C3116 C3119 1.403 . S
H3117 C3123 0.930 . S
C3118 H3104 0.930 . S
C3118 C3116 1.395 . S
C3118 C3121 1.403 . S
C3119 C3116 1.403 . S
C3119 C3120 1.524 . S
C3119 C3123 1.400 . S
C3120 H3105 0.960 . S
C3120 H3106 0.960 . S
C3120 H3107 0.960 . S
C3120 C3119 1.524 . S
C3121 C3118 1.403 . S
C3121 C3122 1.392 . S
C3121 C3125 1.495 . S
C3122 C3121 1.392 . S
C3122 C3123 1.385 . S
C3122 C3124 1.478 . S
C3123 H3117 0.930 . S
C3123 C3119 1.400 . S
C3123 C3122 1.385 . S
C3124 C3122 1.478 . S
C3124 C3126 1.381 . S
C3124 C3130 1.383 . S
C3125 C3121 1.495 . S
C3125 H3131 0.959 . S
C3125 H3132 0.961 . S
C3125 H3133 0.960 . S
C3126 C3124 1.381 . S
C3126 C3127 1.394 . S
C3126 H3134 0.930 . S
C3127 C3126 1.394 . S
C3127 C3128 1.383 . S
C3127 H3135 0.929 . S
C3128 C3127 1.383 . S
C3128 C3129 1.377 . S
C3129 H3113 0.930 . S
C3129 C3128 1.377 . S
C3129 C3130 1.379 . S
C3130 H3114 0.931 . S
C3130 C3124 1.383 . S
C3130 C3129 1.379 . S
H3131 C3125 0.959 . S
H3132 C3125 0.961 . S
H3133 C3125 0.960 . S
H3134 C3126 0.930 . S
H3135 C3127 0.929 . S
H3136 C3144 0.929 . S
H3137 C3146 0.930 . S
H3138 C3148 0.930 . S
H3139 C3151 0.929 . S
H3140 C3154 0.930 . S
H3141 C3156 0.960 . S
H3142 C3156 0.960 . S
H3143 C3156 0.960 . S
C3144 H3136 0.929 . S
C3144 C3145 1.377 . S
C3144 C3146 1.384 . S
C3145 C3144 1.377 . S
C3145 C3151 1.390 . S
C3146 H3137 0.930 . S
C3146 C3144 1.384 . S
C3146 C3147 1.372 . S
C3147 C3146 1.372 . S
C3147 C3148 1.400 . S
C3147 C3152 1.490 . S
C3148 H3138 0.930 . S
C3148 C3147 1.400 . S
C3148 C3151 1.386 . S
H3149 C3165 0.930 . S
H3150 C3166 0.931 . S
C3151 H3139 0.929 . S
C3151 C3145 1.390 . S
C3151 C3148 1.386 . S
C3152 C3147 1.490 . S
C3152 C3154 1.395 . S
C3152 C3155 1.403 . S
H3153 C3159 0.930 . S
C3154 H3140 0.930 . S
C3154 C3152 1.395 . S
C3154 C3157 1.403 . S
C3155 C3152 1.403 . S
C3155 C3156 1.524 . S
C3155 C3159 1.400 . S
C3156 H3141 0.960 . S
C3156 H3142 0.960 . S
C3156 H3143 0.960 . S
C3156 C3155 1.524 . S
C3157 C3154 1.403 . S
C3157 C3158 1.392 . S
C3157 C3161 1.495 . S
C3158 C3157 1.392 . S
C3158 C3159 1.385 . S
C3158 C3160 1.478 . S
C3159 H3153 0.930 . S
C3159 C3155 1.400 . S
C3159 C3158 1.385 . S
C3160 C3158 1.478 . S
C3160 C3162 1.381 . S
C3160 C3166 1.383 . S
C3161 C3157 1.495 . S
C3161 H3167 0.959 . S
C3161 H3168 0.961 . S
C3161 H3169 0.960 . S
C3162 C3160 1.381 . S
C3162 C3163 1.394 . S
C3162 H3170 0.930 . S
C3163 C3162 1.394 . S
C3163 C3164 1.383 . S
C3163 H3171 0.929 . S
C3164 C3163 1.383 . S
C3164 C3165 1.377 . S
C3165 H3149 0.930 . S
C3165 C3164 1.377 . S
C3165 C3166 1.379 . S
C3166 H3150 0.931 . S
C3166 C3160 1.383 . S
C3166 C3165 1.379 . S
H3167 C3161 0.959 . S
H3168 C3161 0.961 . S
H3169 C3161 0.960 . S
H3170 C3162 0.930 . S
H3171 C3163 0.929 . S
H3172 C3180 0.929 . S
H3173 C3182 0.930 . S
H3174 C3184 0.930 . S
H3175 C3187 0.929 . S
H3176 C3190 0.930 . S
H3177 C3192 0.960 . S
H3178 C3192 0.960 . S
H3179 C3192 0.960 . S
C3180 H3172 0.929 . S
C3180 C3181 1.377 . S
C3180 C3182 1.384 . S
C3181 C3180 1.377 . S
C3181 C3187 1.390 . S
C3182 H3173 0.930 . S
C3182 C3180 1.384 . S
C3182 C3183 1.372 . S
C3183 C3182 1.372 . S
C3183 C3184 1.400 . S
C3183 C3188 1.490 . S
C3184 H3174 0.930 . S
C3184 C3183 1.400 . S
C3184 C3187 1.386 . S
H3185 C3201 0.930 . S
H3186 C3202 0.931 . S
C3187 H3175 0.929 . S
C3187 C3181 1.390 . S
C3187 C3184 1.386 . S
C3188 C3183 1.490 . S
C3188 C3190 1.395 . S
C3188 C3191 1.403 . S
H3189 C3195 0.930 . S
C3190 H3176 0.930 . S
C3190 C3188 1.395 . S
C3190 C3193 1.403 . S
C3191 C3188 1.403 . S
C3191 C3192 1.524 . S
C3191 C3195 1.400 . S
C3192 H3177 0.960 . S
C3192 H3178 0.960 . S
C3192 H3179 0.960 . S
C3192 C3191 1.524 . S
C3193 C3190 1.403 . S
C3193 C3194 1.392 . S
C3193 C3197 1.495 . S
C3194 C3193 1.392 . S
C3194 C3195 1.385 . S
C3194 C3196 1.478 . S
C3195 H3189 0.930 . S
C3195 C3191 1.400 . S
C3195 C3194 1.385 . S
C3196 C3194 1.478 . S
C3196 C3198 1.381 . S
C3196 C3202 1.383 . S
C3197 C3193 1.495 . S
C3197 H3203 0.959 . S
C3197 H3204 0.961 . S
C3197 H3205 0.960 . S
C3198 C3196 1.381 . S
C3198 C3199 1.394 . S
C3198 H3206 0.930 . S
C3199 C3198 1.394 . S
C3199 C3200 1.383 . S
C3199 H3207 0.929 . S
C3200 C3199 1.383 . S
C3200 C3201 1.377 . S
C3201 H3185 0.930 . S
C3201 C3200 1.377 . S
C3201 C3202 1.379 . S
C3202 H3186 0.931 . S
C3202 C3196 1.383 . S
C3202 C3201 1.379 . S
H3203 C3197 0.959 . S
H3204 C3197 0.961 . S
H3205 C3197 0.960 . S
H3206 C3198 0.930 . S
H3207 C3199 0.929 . S
H3208 C3216 0.929 . S
H3209 C3218 0.930 . S
H3210 C3220 0.930 . S
H3211 C3223 0.929 . S
H3212 C3226 0.930 . S
H3213 C3228 0.960 . S
H3214 C3228 0.960 . S
H3215 C3228 0.960 . S
C3216 H3208 0.929 . S
C3216 C3217 1.377 . S
C3216 C3218 1.384 . S
C3217 C3216 1.377 . S
C3217 C3223 1.390 . S
C3218 H3209 0.930 . S
C3218 C3216 1.384 . S
C3218 C3219 1.372 . S
C3219 C3218 1.372 . S
C3219 C3220 1.400 . S
C3219 C3224 1.490 . S
C3220 H3210 0.930 . S
C3220 C3219 1.400 . S
C3220 C3223 1.386 . S
H3221 C3237 0.930 . S
H3222 C3238 0.931 . S
C3223 H3211 0.929 . S
C3223 C3217 1.390 . S
C3223 C3220 1.386 . S
C3224 C3219 1.490 . S
C3224 C3226 1.395 . S
C3224 C3227 1.403 . S
H3225 C3231 0.930 . S
C3226 H3212 0.930 . S
C3226 C3224 1.395 . S
C3226 C3229 1.403 . S
C3227 C3224 1.403 . S
C3227 C3228 1.524 . S
C3227 C3231 1.400 . S
C3228 H3213 0.960 . S
C3228 H3214 0.960 . S
C3228 H3215 0.960 . S
C3228 C3227 1.524 . S
C3229 C3226 1.403 . S
C3229 C3230 1.392 . S
C3229 C3233 1.495 . S
C3230 C3229 1.392 . S
C3230 C3231 1.385 . S
C3230 C3232 1.478 . S
C3231 H3225 0.930 . S
C3231 C3227 1.400 . S
C3231 C3230 1.385 . S
C3232 C3230 1.478 . S
C3232 C3234 1.381 . S
C3232 C3238 1.383 . S
C3233 C3229 1.495 . S
C3233 H3239 0.959 . S
C3233 H3240 0.961 . S
C3233 H3241 0.960 . S
C3234 C3232 1.381 . S
C3234 C3235 1.394 . S
C3234 H3242 0.930 . S
C3235 C3234 1.394 . S
C3235 C3236 1.383 . S
C3235 H3243 0.929 . S
C3236 C3235 1.383 . S
C3236 C3237 1.377 . S
C3237 H3221 0.930 . S
C3237 C3236 1.377 . S
C3237 C3238 1.379 . S
C3238 H3222 0.931 . S
C3238 C3232 1.383 . S
C3238 C3237 1.379 . S
H3239 C3233 0.959 . S
H3240 C3233 0.961 . S
H3241 C3233 0.960 . S
H3242 C3234 0.930 . S
H3243 C3235 0.929 . S
H3244 C3252 0.929 . S
H3245 C3254 0.930 . S
H3246 C3256 0.930 . S
H3247 C3259 0.929 . S
H3248 C3262 0.930 . S
H3249 C3264 0.960 . S
H3250 C3264 0.960 . S
H3251 C3264 0.960 . S
C3252 H3244 0.929 . S
C3252 C3253 1.377 . S
C3252 C3254 1.384 . S
C3253 C3252 1.377 . S
C3253 C3259 1.390 . S
C3254 H3245 0.930 . S
C3254 C3252 1.384 . S
C3254 C3255 1.372 . S
C3255 C3254 1.372 . S
C3255 C3256 1.400 . S
C3255 C3260 1.490 . S
C3256 H3246 0.930 . S
C3256 C3255 1.400 . S
C3256 C3259 1.386 . S
H3257 C3273 0.930 . S
H3258 C3274 0.931 . S
C3259 H3247 0.929 . S
C3259 C3253 1.390 . S
C3259 C3256 1.386 . S
C3260 C3255 1.490 . S
C3260 C3262 1.395 . S
C3260 C3263 1.403 . S
H3261 C3267 0.930 . S
C3262 H3248 0.930 . S
C3262 C3260 1.395 . S
C3262 C3265 1.403 . S
C3263 C3260 1.403 . S
C3263 C3264 1.524 . S
C3263 C3267 1.400 . S
C3264 H3249 0.960 . S
C3264 H3250 0.960 . S
C3264 H3251 0.960 . S
C3264 C3263 1.524 . S
C3265 C3262 1.403 . S
C3265 C3266 1.392 . S
C3265 C3269 1.495 . S
C3266 C3265 1.392 . S
C3266 C3267 1.385 . S
C3266 C3268 1.478 . S
C3267 H3261 0.930 . S
C3267 C3263 1.400 . S
C3267 C3266 1.385 . S
C3268 C3266 1.478 . S
C3268 C3270 1.381 . S
C3268 C3274 1.383 . S
C3269 C3265 1.495 . S
C3269 H3275 0.959 . S
C3269 H3276 0.961 . S
C3269 H3277 0.960 . S
C3270 C3268 1.381 . S
C3270 C3271 1.394 . S
C3270 H3278 0.930 . S
C3271 C3270 1.394 . S
C3271 C3272 1.383 . S
C3271 H3279 0.929 . S
C3272 C3271 1.383 . S
C3272 C3273 1.377 . S
C3273 H3257 0.930 . S
C3273 C3272 1.377 . S
C3273 C3274 1.379 . S
C3274 H3258 0.931 . S
C3274 C3268 1.383 . S
C3274 C3273 1.379 . S
H3275 C3269 0.959 . S
H3276 C3269 0.961 . S
H3277 C3269 0.960 . S
H3278 C3270 0.930 . S
H3279 C3271 0.929 . S
H3280 C3288 0.929 . S
H3281 C3290 0.930 . S
H3282 C3292 0.930 . S
H3283 C3295 0.929 . S
H3284 C3298 0.930 . S
H3285 C3300 0.960 . S
H3286 C3300 0.960 . S
H3287 C3300 0.960 . S
C3288 H3280 0.929 . S
C3288 C3289 1.377 . S
C3288 C3290 1.384 . S
C3289 C3288 1.377 . S
C3289 C3295 1.390 . S
C3290 H3281 0.930 . S
C3290 C3288 1.384 . S
C3290 C3291 1.372 . S
C3291 C3290 1.372 . S
C3291 C3292 1.400 . S
C3291 C3296 1.490 . S
C3292 H3282 0.930 . S
C3292 C3291 1.400 . S
C3292 C3295 1.386 . S
H3293 C3309 0.930 . S
H3294 C3310 0.931 . S
C3295 H3283 0.929 . S
C3295 C3289 1.390 . S
C3295 C3292 1.386 . S
C3296 C3291 1.490 . S
C3296 C3298 1.395 . S
C3296 C3299 1.403 . S
H3297 C3303 0.930 . S
C3298 H3284 0.930 . S
C3298 C3296 1.395 . S
C3298 C3301 1.403 . S
C3299 C3296 1.403 . S
C3299 C3300 1.524 . S
C3299 C3303 1.400 . S
C3300 H3285 0.960 . S
C3300 H3286 0.960 . S
C3300 H3287 0.960 . S
C3300 C3299 1.524 . S
C3301 C3298 1.403 . S
C3301 C3302 1.392 . S
C3301 C3305 1.495 . S
C3302 C3301 1.392 . S
C3302 C3303 1.385 . S
C3302 C3304 1.478 . S
C3303 H3297 0.930 . S
C3303 C3299 1.400 . S
C3303 C3302 1.385 . S
C3304 C3302 1.478 . S
C3304 C3306 1.381 . S
C3304 C3310 1.383 . S
C3305 C3301 1.495 . S
C3305 H3311 0.959 . S
C3305 H3312 0.961 . S
C3305 H3313 0.960 . S
C3306 C3304 1.381 . S
C3306 C3307 1.394 . S
C3306 H3314 0.930 . S
C3307 C3306 1.394 . S
C3307 C3308 1.383 . S
C3307 H3315 0.929 . S
C3308 C3307 1.383 . S
C3308 C3309 1.377 . S
C3309 H3293 0.930 . S
C3309 C3308 1.377 . S
C3309 C3310 1.379 . S
C3310 H3294 0.931 . S
C3310 C3304 1.383 . S
C3310 C3309 1.379 . S
H3311 C3305 0.959 . S
H3312 C3305 0.961 . S
H3313 C3305 0.960 . S
H3314 C3306 0.930 . S
H3315 C3307 0.929 . S
H3316 C3324 0.929 . S
H3317 C3326 0.930 . S
H3318 C3328 0.930 . S
H3319 C3331 0.929 . S
H3320 C3334 0.930 . S
H3321 C3336 0.960 . S
H3322 C3336 0.960 . S
H3323 C3336 0.960 . S
C3324 H3316 0.929 . S
C3324 C3325 1.377 . S
C3324 C3326 1.384 . S
C3325 C3324 1.377 . S
C3325 C3331 1.390 . S
C3326 H3317 0.930 . S
C3326 C3324 1.384 . S
C3326 C3327 1.372 . S
C3327 C3326 1.372 . S
C3327 C3328 1.400 . S
C3327 C3332 1.490 . S
C3328 H3318 0.930 . S
C3328 C3327 1.400 . S
C3328 C3331 1.386 . S
H3329 C3345 0.930 . S
H3330 C3346 0.931 . S
C3331 H3319 0.929 . S
C3331 C3325 1.390 . S
C3331 C3328 1.386 . S
C3332 C3327 1.490 . S
C3332 C3334 1.395 . S
C3332 C3335 1.403 . S
H3333 C3339 0.930 . S
C3334 H3320 0.930 . S
C3334 C3332 1.395 . S
C3334 C3337 1.403 . S
C3335 C3332 1.403 . S
C3335 C3336 1.524 . S
C3335 C3339 1.400 . S
C3336 H3321 0.960 . S
C3336 H3322 0.960 . S
C3336 H3323 0.960 . S
C3336 C3335 1.524 . S
C3337 C3334 1.403 . S
C3337 C3338 1.392 . S
C3337 C3341 1.495 . S
C3338 C3337 1.392 . S
C3338 C3339 1.385 . S
C3338 C3340 1.478 . S
C3339 H3333 0.930 . S
C3339 C3335 1.400 . S
C3339 C3338 1.385 . S
C3340 C3338 1.478 . S
C3340 C3342 1.381 . S
C3340 C3346 1.383 . S
C3341 C3337 1.495 . S
C3341 H3347 0.959 . S
C3341 H3348 0.961 . S
C3341 H3349 0.960 . S
C3342 C3340 1.381 . S
C3342 C3343 1.394 . S
C3342 H3350 0.930 . S
C3343 C3342 1.394 . S
C3343 C3344 1.383 . S
C3343 H3351 0.929 . S
C3344 C3343 1.383 . S
C3344 C3345 1.377 . S
C3345 H3329 0.930 . S
C3345 C3344 1.377 . S
C3345 C3346 1.379 . S
C3346 H3330 0.931 . S
C3346 C3340 1.383 . S
C3346 C3345 1.379 . S
H3347 C3341 0.959 . S
H3348 C3341 0.961 . S
H3349 C3341 0.960 . S
H3350 C3342 0.930 . S
H3351 C3343 0.929 . S
H3352 C3360 0.929 . S
H3353 C3362 0.930 . S
H3354 C3364 0.930 . S
H3355 C3367 0.929 . S
H3356 C3370 0.930 . S
H3357 C3372 0.960 . S
H3358 C3372 0.960 . S
H3359 C3372 0.960 . S
C3360 H3352 0.929 . S
C3360 C3361 1.377 . S
C3360 C3362 1.384 . S
C3361 C3360 1.377 . S
C3361 C3367 1.390 . S
C3362 H3353 0.930 . S
C3362 C3360 1.384 . S
C3362 C3363 1.372 . S
C3363 C3362 1.372 . S
C3363 C3364 1.400 . S
C3363 C3368 1.490 . S
C3364 H3354 0.930 . S
C3364 C3363 1.400 . S
C3364 C3367 1.386 . S
H3365 C3381 0.930 . S
H3366 C3382 0.931 . S
C3367 H3355 0.929 . S
C3367 C3361 1.390 . S
C3367 C3364 1.386 . S
C3368 C3363 1.490 . S
C3368 C3370 1.395 . S
C3368 C3371 1.403 . S
H3369 C3375 0.930 . S
C3370 H3356 0.930 . S
C3370 C3368 1.395 . S
C3370 C3373 1.403 . S
C3371 C3368 1.403 . S
C3371 C3372 1.524 . S
C3371 C3375 1.400 . S
C3372 H3357 0.960 . S
C3372 H3358 0.960 . S
C3372 H3359 0.960 . S
C3372 C3371 1.524 . S
C3373 C3370 1.403 . S
C3373 C3374 1.392 . S
C3373 C3377 1.495 . S
C3374 C3373 1.392 . S
C3374 C3375 1.385 . S
C3374 C3376 1.478 . S
C3375 H3369 0.930 . S
C3375 C3371 1.400 . S
C3375 C3374 1.385 . S
C3376 C3374 1.478 . S
C3376 C3378 1.381 . S
C3376 C3382 1.383 . S
C3377 C3373 1.495 . S
C3377 H3383 0.959 . S
C3377 H3384 0.961 . S
C3377 H3385 0.960 . S
C3378 C3376 1.381 . S
C3378 C3379 1.394 . S
C3378 H3386 0.930 . S
C3379 C3378 1.394 . S
C3379 C3380 1.383 . S
C3379 H3387 0.929 . S
C3380 C3379 1.383 . S
C3380 C3381 1.377 . S
C3381 H3365 0.930 . S
C3381 C3380 1.377 . S
C3381 C3382 1.379 . S
C3382 H3366 0.931 . S
C3382 C3376 1.383 . S
C3382 C3381 1.379 . S
H3383 C3377 0.959 . S
H3384 C3377 0.961 . S
H3385 C3377 0.960 . S
H3386 C3378 0.930 . S
H3387 C3379 0.929 . S
H3388 C3396 0.929 . S
H3389 C3398 0.930 . S
H3390 C3400 0.930 . S
H3391 C3403 0.929 . S
H3392 C3406 0.909 1_556 S
H3393 C3408 0.960 . S
H3394 C3408 0.960 . S
H3395 C3408 0.960 . S
C3396 H3388 0.929 . S
C3396 C3397 1.377 1_556 S
C3396 C3398 1.384 . S
C3397 C3396 1.377 1_554 S
C3397 C3403 1.390 . S
C3398 H3389 0.930 . S
C3398 C3396 1.384 . S
C3398 C3399 1.372 1_556 S
C3399 C3398 1.372 1_554 S
C3399 C3400 1.400 . S
C3399 C3404 1.490 . S
C3400 H3390 0.930 . S
C3400 C3399 1.400 . S
C3400 C3403 1.386 . S
H3401 C3417 0.930 . S
H3402 C3418 0.931 . S
C3403 H3391 0.929 . S
C3403 C3397 1.390 . S
C3403 C3400 1.386 . S
C3404 C3399 1.490 . S
C3404 C3406 1.427 . S
C3404 C3407 1.403 . S
H3405 C3411 0.930 . S
C3406 H3392 0.909 1_554 S
C3406 C3404 1.427 . S
C3406 C3409 1.392 1_554 S
C3407 C3404 1.403 . S
C3407 C3408 1.524 . S
C3407 C3411 1.400 . S
C3408 H3393 0.960 . S
C3408 H3394 0.960 . S
C3408 H3395 0.960 . S
C3408 C3407 1.524 . S
C3409 C3406 1.392 1_556 S
C3409 C3410 1.389 1_556 S
C3409 C3413 1.500 1_565 S
C3410 C3409 1.389 1_554 S
C3410 C3411 1.385 . S
C3410 C3412 1.478 . S
C3411 H3405 0.930 . S
C3411 C3407 1.400 . S
C3411 C3410 1.385 . S
C3412 C3410 1.478 . S
C3412 C3414 1.381 1_554 S
C3412 C3418 1.383 1_565 S
C3413 C3409 1.500 1_545 S
C3413 H3419 0.959 . S
C3413 H3420 0.961 . S
C3413 H3421 0.960 . S
C3414 C3412 1.381 1_556 S
C3414 C3415 1.394 1_565 S
C3414 H3422 0.930 . S
C3415 C3414 1.394 1_545 S
C3415 C3416 1.383 1_556 S
C3415 H3423 0.929 . S
C3416 C3415 1.383 1_554 S
C3416 C3417 1.377 . S
C3417 H3401 0.930 . S
C3417 C3416 1.377 . S
C3417 C3418 1.379 . S
C3418 H3402 0.931 . S
C3418 C3412 1.383 1_545 S
C3418 C3417 1.379 . S
H3419 C3413 0.959 . S
H3420 C3413 0.961 . S
H3421 C3413 0.960 . S
H3422 C3414 0.930 . S
H3423 C3415 0.929 . S
H3424 C3432 0.929 . S
H3425 C3434 0.930 . S
H3426 C3436 0.930 . S
H3427 C3439 0.929 . S
H3428 C3442 0.930 . S
H3429 C3444 0.960 . S
H3430 C3444 0.960 . S
H3431 C3444 0.960 . S
C3432 H3424 0.929 . S
C3432 C3433 1.377 . S
C3432 C3434 1.384 . S
C3433 C3432 1.377 . S
C3433 C3439 1.390 . S
C3434 H3425 0.930 . S
C3434 C3432 1.384 . S
C3434 C3435 1.372 . S
C3435 C3434 1.372 . S
C3435 C3436 1.400 . S
C3435 C3440 1.490 . S
C3436 H3426 0.930 . S
C3436 C3435 1.400 . S
C3436 C3439 1.386 . S
H3437 C3453 0.930 . S
H3438 C3454 0.931 . S
C3439 H3427 0.929 . S
C3439 C3433 1.390 . S
C3439 C3436 1.386 . S
C3440 C3435 1.490 . S
C3440 C3442 1.395 . S
C3440 C3443 1.403 . S
H3441 C3447 0.930 . S
C3442 H3428 0.930 . S
C3442 C3440 1.395 . S
C3442 C3445 1.403 . S
C3443 C3440 1.403 . S
C3443 C3444 1.524 . S
C3443 C3447 1.400 . S
C3444 H3429 0.960 . S
C3444 H3430 0.960 . S
C3444 H3431 0.960 . S
C3444 C3443 1.524 . S
C3445 C3442 1.403 . S
C3445 C3446 1.392 . S
C3445 C3449 1.495 . S
C3446 C3445 1.392 . S
C3446 C3447 1.385 . S
C3446 C3448 1.478 . S
C3447 H3441 0.930 . S
C3447 C3443 1.400 . S
C3447 C3446 1.385 . S
C3448 C3446 1.478 . S
C3448 C3450 1.381 . S
C3448 C3454 1.383 . S
C3449 C3445 1.495 . S
C3449 H3455 0.959 . S
C3449 H3456 0.961 . S
C3449 H3457 0.960 . S
C3450 C3448 1.381 . S
C3450 C3451 1.394 . S
C3450 H3458 0.930 . S
C3451 C3450 1.394 . S
C3451 C3452 1.383 . S
C3451 H3459 0.929 . S
C3452 C3451 1.383 . S
C3452 C3453 1.377 . S
C3453 H3437 0.930 . S
C3453 C3452 1.377 . S
C3453 C3454 1.379 . S
C3454 H3438 0.931 . S
C3454 C3448 1.383 . S
C3454 C3453 1.379 . S
H3455 C3449 0.959 . S
H3456 C3449 0.961 . S
H3457 C3449 0.960 . S
H3458 C3450 0.930 . S
H3459 C3451 0.929 . S
H3460 C3468 0.929 . S
H3461 C3470 0.930 . S
H3462 C3472 0.930 . S
H3463 C3475 0.929 . S
H3464 C3478 0.930 . S
H3465 C3480 0.960 . S
H3466 C3480 0.960 . S
H3467 C3480 0.960 . S
C3468 H3460 0.929 . S
C3468 C3469 1.377 . S
C3468 C3470 1.384 . S
C3469 C3468 1.377 . S
C3469 C3475 1.390 1_554 S
C3470 H3461 0.930 . S
C3470 C3468 1.384 . S
C3470 C3471 1.372 . S
C3471 C3470 1.372 . S
C3471 C3472 1.400 1_554 S
C3471 C3476 1.490 . S
C3472 H3462 0.930 . S
C3472 C3471 1.400 1_556 S
C3472 C3475 1.386 . S
H3473 C3489 0.930 . S
H3474 C3490 0.931 . S
C3475 H3463 0.929 . S
C3475 C3469 1.390 1_556 S
C3475 C3472 1.386 . S
C3476 C3471 1.490 . S
C3476 C3478 1.395 . S
C3476 C3479 1.403 . S
H3477 C3483 0.930 . S
C3478 H3464 0.930 . S
C3478 C3476 1.395 . S
C3478 C3481 1.403 . S
C3479 C3476 1.403 . S
C3479 C3480 1.524 . S
C3479 C3483 1.400 . S
C3480 H3465 0.960 . S
C3480 H3466 0.960 . S
C3480 H3467 0.960 . S
C3480 C3479 1.524 . S
C3481 C3478 1.403 . S
C3481 C3482 1.392 . S
C3481 C3485 1.495 . S
C3482 C3481 1.392 . S
C3482 C3483 1.385 . S
C3482 C3484 1.478 . S
C3483 H3477 0.930 . S
C3483 C3479 1.400 . S
C3483 C3482 1.385 . S
C3484 C3482 1.478 . S
C3484 C3486 1.381 . S
C3484 C3490 1.383 . S
C3485 C3481 1.495 . S
C3485 H3491 0.959 . S
C3485 H3492 0.961 . S
C3485 H3493 0.960 . S
C3486 C3484 1.381 . S
C3486 C3487 1.394 . S
C3486 H3494 0.930 . S
C3487 C3486 1.394 . S
C3487 C3488 1.383 . S
C3487 H3495 0.929 . S
C3488 C3487 1.383 . S
C3488 C3489 1.377 . S
C3489 H3473 0.930 . S
C3489 C3488 1.377 . S
C3489 C3490 1.379 . S
C3490 H3474 0.931 . S
C3490 C3484 1.383 . S
C3490 C3489 1.379 . S
H3491 C3485 0.959 . S
H3492 C3485 0.961 . S
H3493 C3485 0.960 . S
H3494 C3486 0.930 . S
H3495 C3487 0.929 . S
H3496 C3504 0.929 . S
H3497 C3506 0.930 . S
H3498 C3508 0.930 . S
H3499 C3511 0.929 . S
H3500 C3514 0.930 . S
H3501 C3516 0.960 . S
H3502 C3516 0.960 . S
H3503 C3516 0.960 . S
C3504 H3496 0.929 . S
C3504 C3505 1.377 . S
C3504 C3506 1.384 . S
C3505 C3504 1.377 . S
C3505 C3511 1.390 . S
C3506 H3497 0.930 . S
C3506 C3504 1.384 . S
C3506 C3507 1.372 . S
C3507 C3506 1.372 . S
C3507 C3508 1.400 . S
C3507 C3512 1.490 . S
C3508 H3498 0.930 . S
C3508 C3507 1.400 . S
C3508 C3511 1.386 . S
H3509 C3525 0.930 . S
H3510 C3526 0.931 . S
C3511 H3499 0.929 . S
C3511 C3505 1.390 . S
C3511 C3508 1.386 . S
C3512 C3507 1.490 . S
C3512 C3514 1.395 . S
C3512 C3515 1.403 . S
H3513 C3519 0.930 . S
C3514 H3500 0.930 . S
C3514 C3512 1.395 . S
C3514 C3517 1.403 . S
C3515 C3512 1.403 . S
C3515 C3516 1.524 . S
C3515 C3519 1.400 . S
C3516 H3501 0.960 . S
C3516 H3502 0.960 . S
C3516 H3503 0.960 . S
C3516 C3515 1.524 . S
C3517 C3514 1.403 . S
C3517 C3518 1.392 . S
C3517 C3521 1.495 . S
C3518 C3517 1.392 . S
C3518 C3519 1.385 . S
C3518 C3520 1.478 . S
C3519 H3513 0.930 . S
C3519 C3515 1.400 . S
C3519 C3518 1.385 . S
C3520 C3518 1.478 . S
C3520 C3522 1.381 . S
C3520 C3526 1.383 . S
C3521 C3517 1.495 . S
C3521 H3527 0.959 . S
C3521 H3528 0.961 . S
C3521 H3529 0.960 . S
C3522 C3520 1.381 . S
C3522 C3523 1.394 . S
C3522 H3530 0.930 . S
C3523 C3522 1.394 . S
C3523 C3524 1.383 . S
C3523 H3531 0.929 . S
C3524 C3523 1.383 . S
C3524 C3525 1.377 . S
C3525 H3509 0.930 . S
C3525 C3524 1.377 . S
C3525 C3526 1.379 . S
C3526 H3510 0.931 . S
C3526 C3520 1.383 . S
C3526 C3525 1.379 . S
H3527 C3521 0.959 . S
H3528 C3521 0.961 . S
H3529 C3521 0.960 . S
H3530 C3522 0.930 . S
H3531 C3523 0.929 . S
H3532 C3540 0.929 . S
H3533 C3542 0.930 . S
H3534 C3544 0.930 . S
H3535 C3547 0.929 . S
H3536 C3550 0.930 . S
H3537 C3552 0.960 . S
H3538 C3552 0.960 . S
H3539 C3552 0.960 . S
C3540 H3532 0.929 . S
C3540 C3541 1.377 . S
C3540 C3542 1.384 . S
C3541 C3540 1.377 . S
C3541 C3547 1.390 . S
C3542 H3533 0.930 . S
C3542 C3540 1.384 . S
C3542 C3543 1.372 . S
C3543 C3542 1.372 . S
C3543 C3544 1.400 . S
C3543 C3548 1.490 . S
C3544 H3534 0.930 . S
C3544 C3543 1.400 . S
C3544 C3547 1.386 . S
H3545 C3561 0.930 . S
H3546 C3562 0.931 . S
C3547 H3535 0.929 . S
C3547 C3541 1.390 . S
C3547 C3544 1.386 . S
C3548 C3543 1.490 . S
C3548 C3550 1.395 . S
C3548 C3551 1.403 . S
H3549 C3555 0.930 . S
C3550 H3536 0.930 . S
C3550 C3548 1.395 . S
C3550 C3553 1.403 . S
C3551 C3548 1.403 . S
C3551 C3552 1.524 . S
C3551 C3555 1.400 . S
C3552 H3537 0.960 . S
C3552 H3538 0.960 . S
C3552 H3539 0.960 . S
C3552 C3551 1.524 . S
C3553 C3550 1.403 . S
C3553 C3554 1.392 . S
C3553 C3557 1.495 . S
C3554 C3553 1.392 . S
C3554 C3555 1.385 . S
C3554 C3556 1.478 . S
C3555 H3549 0.930 . S
C3555 C3551 1.400 . S
C3555 C3554 1.385 . S
C3556 C3554 1.478 . S
C3556 C3558 1.381 . S
C3556 C3562 1.383 . S
C3557 C3553 1.495 . S
C3557 H3563 0.959 . S
C3557 H3564 0.961 . S
C3557 H3565 0.960 . S
C3558 C3556 1.381 . S
C3558 C3559 1.394 . S
C3558 H3566 0.930 . S
C3559 C3558 1.394 . S
C3559 C3560 1.383 . S
C3559 H3567 0.929 . S
C3560 C3559 1.383 . S
C3560 C3561 1.377 . S
C3561 H3545 0.930 . S
C3561 C3560 1.377 . S
C3561 C3562 1.379 . S
C3562 H3546 0.931 . S
C3562 C3556 1.383 . S
C3562 C3561 1.379 . S
H3563 C3557 0.959 . S
H3564 C3557 0.961 . S
H3565 C3557 0.960 . S
H3566 C3558 0.930 . S
H3567 C3559 0.929 . S
H3568 C3576 0.929 . S
H3569 C3578 0.930 . S
H3570 C3580 0.930 . S
H3571 C3583 0.929 . S
H3572 C3586 0.930 . S
H3573 C3588 0.960 . S
H3574 C3588 0.960 . S
H3575 C3588 0.960 . S
C3576 H3568 0.929 . S
C3576 C3577 1.377 . S
C3576 C3578 1.384 . S
C3577 C3576 1.377 . S
C3577 C3583 1.390 . S
C3578 H3569 0.930 . S
C3578 C3576 1.384 . S
C3578 C3579 1.372 . S
C3579 C3578 1.372 . S
C3579 C3580 1.400 . S
C3579 C3584 1.490 . S
C3580 H3570 0.930 . S
C3580 C3579 1.400 . S
C3580 C3583 1.386 . S
H3581 C3597 0.930 . S
H3582 C3598 0.931 . S
C3583 H3571 0.929 . S
C3583 C3577 1.390 . S
C3583 C3580 1.386 . S
C3584 C3579 1.490 . S
C3584 C3586 1.395 . S
C3584 C3587 1.403 . S
H3585 C3591 0.930 . S
C3586 H3572 0.930 . S
C3586 C3584 1.395 . S
C3586 C3589 1.403 . S
C3587 C3584 1.403 . S
C3587 C3588 1.524 . S
C3587 C3591 1.400 . S
C3588 H3573 0.960 . S
C3588 H3574 0.960 . S
C3588 H3575 0.960 . S
C3588 C3587 1.524 . S
C3589 C3586 1.403 . S
C3589 C3590 1.392 . S
C3589 C3593 1.495 . S
C3590 C3589 1.392 . S
C3590 C3591 1.385 . S
C3590 C3592 1.478 . S
C3591 H3585 0.930 . S
C3591 C3587 1.400 . S
C3591 C3590 1.385 . S
C3592 C3590 1.478 . S
C3592 C3594 1.381 . S
C3592 C3598 1.383 . S
C3593 C3589 1.495 . S
C3593 H3599 0.959 . S
C3593 H3600 0.961 . S
C3593 H3601 0.960 . S
C3594 C3592 1.381 . S
C3594 C3595 1.394 . S
C3594 H3602 0.930 . S
C3595 C3594 1.394 . S
C3595 C3596 1.383 . S
C3595 H3603 0.929 . S
C3596 C3595 1.383 . S
C3596 C3597 1.377 . S
C3597 H3581 0.930 . S
C3597 C3596 1.377 . S
C3597 C3598 1.379 . S
C3598 H3582 0.931 . S
C3598 C3592 1.383 . S
C3598 C3597 1.379 . S
H3599 C3593 0.959 . S
H3600 C3593 0.961 . S
H3601 C3593 0.960 . S
H3602 C3594 0.930 . S
H3603 C3595 0.929 . S
H3604 C3612 0.929 . S
H3605 C3614 0.930 . S
H3606 C3616 0.930 . S
H3607 C3619 0.929 . S
H3608 C3622 0.930 . S
H3609 C3624 0.960 . S
H3610 C3624 0.960 . S
H3611 C3624 0.960 . S
C3612 H3604 0.929 . S
C3612 C3613 1.377 . S
C3612 C3614 1.384 . S
C3613 C3612 1.377 . S
C3613 C3619 1.390 . S
C3614 H3605 0.930 . S
C3614 C3612 1.384 . S
C3614 C3615 1.372 . S
C3615 C3614 1.372 . S
C3615 C3616 1.400 . S
C3615 C3620 1.490 . S
C3616 H3606 0.930 . S
C3616 C3615 1.400 . S
C3616 C3619 1.386 . S
H3617 C3633 0.930 . S
H3618 C3634 0.931 . S
C3619 H3607 0.929 . S
C3619 C3613 1.390 . S
C3619 C3616 1.386 . S
C3620 C3615 1.490 . S
C3620 C3622 1.395 . S
C3620 C3623 1.403 . S
H3621 C3627 0.930 . S
C3622 H3608 0.930 . S
C3622 C3620 1.395 . S
C3622 C3625 1.403 . S
C3623 C3620 1.403 . S
C3623 C3624 1.524 . S
C3623 C3627 1.400 . S
C3624 H3609 0.960 . S
C3624 H3610 0.960 . S
C3624 H3611 0.960 . S
C3624 C3623 1.524 . S
C3625 C3622 1.403 . S
C3625 C3626 1.392 . S
C3625 C3629 1.495 . S
C3626 C3625 1.392 . S
C3626 C3627 1.385 . S
C3626 C3628 1.478 . S
C3627 H3621 0.930 . S
C3627 C3623 1.400 . S
C3627 C3626 1.385 . S
C3628 C3626 1.478 . S
C3628 C3630 1.381 . S
C3628 C3634 1.383 . S
C3629 C3625 1.495 . S
C3629 H3635 0.959 . S
C3629 H3636 0.961 . S
C3629 H3637 0.960 . S
C3630 C3628 1.381 . S
C3630 C3631 1.394 . S
C3630 H3638 0.930 . S
C3631 C3630 1.394 . S
C3631 C3632 1.383 . S
C3631 H3639 0.929 . S
C3632 C3631 1.383 . S
C3632 C3633 1.377 . S
C3633 H3617 0.930 . S
C3633 C3632 1.377 . S
C3633 C3634 1.379 . S
C3634 H3618 0.931 . S
C3634 C3628 1.383 . S
C3634 C3633 1.379 . S
H3635 C3629 0.959 . S
H3636 C3629 0.961 . S
H3637 C3629 0.960 . S
H3638 C3630 0.930 . S
H3639 C3631 0.929 . S
H3640 C3648 0.929 . S
H3641 C3650 0.930 . S
H3642 C3652 0.930 . S
H3643 C3655 0.929 . S
H3644 C3658 0.930 . S
H3645 C3660 0.960 . S
H3646 C3660 0.960 . S
H3647 C3660 0.960 . S
C3648 H3640 0.929 . S
C3648 C3649 1.377 . S
C3648 C3650 1.384 . S
C3649 C3648 1.377 . S
C3649 C3655 1.390 . S
C3650 H3641 0.930 . S
C3650 C3648 1.384 . S
C3650 C3651 1.372 . S
C3651 C3650 1.372 . S
C3651 C3652 1.400 . S
C3651 C3656 1.490 . S
C3652 H3642 0.930 . S
C3652 C3651 1.400 . S
C3652 C3655 1.386 . S
H3653 C3669 0.930 . S
H3654 C3670 0.931 . S
C3655 H3643 0.929 . S
C3655 C3649 1.390 . S
C3655 C3652 1.386 . S
C3656 C3651 1.490 . S
C3656 C3658 1.395 . S
C3656 C3659 1.403 . S
H3657 C3663 0.930 . S
C3658 H3644 0.930 . S
C3658 C3656 1.395 . S
C3658 C3661 1.403 . S
C3659 C3656 1.403 . S
C3659 C3660 1.524 . S
C3659 C3663 1.400 . S
C3660 H3645 0.960 . S
C3660 H3646 0.960 . S
C3660 H3647 0.960 . S
C3660 C3659 1.524 . S
C3661 C3658 1.403 . S
C3661 C3662 1.392 . S
C3661 C3665 1.495 . S
C3662 C3661 1.392 . S
C3662 C3663 1.385 . S
C3662 C3664 1.478 . S
C3663 H3657 0.930 . S
C3663 C3659 1.400 . S
C3663 C3662 1.385 . S
C3664 C3662 1.478 . S
C3664 C3666 1.381 . S
C3664 C3670 1.383 . S
C3665 C3661 1.495 . S
C3665 H3671 0.959 . S
C3665 H3672 0.961 . S
C3665 H3673 0.960 . S
C3666 C3664 1.381 . S
C3666 C3667 1.394 . S
C3666 H3674 0.930 . S
C3667 C3666 1.394 . S
C3667 C3668 1.383 . S
C3667 H3675 0.929 . S
C3668 C3667 1.383 . S
C3668 C3669 1.377 . S
C3669 H3653 0.930 . S
C3669 C3668 1.377 . S
C3669 C3670 1.379 . S
C3670 H3654 0.931 . S
C3670 C3664 1.383 . S
C3670 C3669 1.379 . S
H3671 C3665 0.959 . S
H3672 C3665 0.961 . S
H3673 C3665 0.960 . S
H3674 C3666 0.930 . S
H3675 C3667 0.929 . S
H3676 C3684 0.929 . S
H3677 C3686 0.930 . S
H3678 C3688 0.930 . S
H3679 C3691 0.929 . S
H3680 C3694 0.930 . S
H3681 C3696 0.960 . S
H3682 C3696 0.960 . S
H3683 C3696 0.960 . S
C3684 H3676 0.929 . S
C3684 C3685 1.377 . S
C3684 C3686 1.384 . S
C3685 C3684 1.377 . S
C3685 C3691 1.390 . S
C3686 H3677 0.930 . S
C3686 C3684 1.384 . S
C3686 C3687 1.372 . S
C3687 C3686 1.372 . S
C3687 C3688 1.400 . S
C3687 C3692 1.490 . S
C3688 H3678 0.930 . S
C3688 C3687 1.400 . S
C3688 C3691 1.386 . S
H3689 C3705 0.930 . S
H3690 C3706 0.931 . S
C3691 H3679 0.929 . S
C3691 C3685 1.390 . S
C3691 C3688 1.386 . S
C3692 C3687 1.490 . S
C3692 C3694 1.395 . S
C3692 C3695 1.403 . S
H3693 C3699 0.930 . S
C3694 H3680 0.930 . S
C3694 C3692 1.395 . S
C3694 C3697 1.403 . S
C3695 C3692 1.403 . S
C3695 C3696 1.524 . S
C3695 C3699 1.400 . S
C3696 H3681 0.960 . S
C3696 H3682 0.960 . S
C3696 H3683 0.960 . S
C3696 C3695 1.524 . S
C3697 C3694 1.403 . S
C3697 C3698 1.392 . S
C3697 C3701 1.495 . S
C3698 C3697 1.392 . S
C3698 C3699 1.385 . S
C3698 C3700 1.478 . S
C3699 H3693 0.930 . S
C3699 C3695 1.400 . S
C3699 C3698 1.385 . S
C3700 C3698 1.478 . S
C3700 C3702 1.381 . S
C3700 C3706 1.383 . S
C3701 C3697 1.495 . S
C3701 H3707 0.959 . S
C3701 H3708 0.961 . S
C3701 H3709 0.960 . S
C3702 C3700 1.381 . S
C3702 C3703 1.394 . S
C3702 H3710 0.930 . S
C3703 C3702 1.394 . S
C3703 C3704 1.383 . S
C3703 H3711 0.929 . S
C3704 C3703 1.383 . S
C3704 C3705 1.377 . S
C3705 H3689 0.930 . S
C3705 C3704 1.377 . S
C3705 C3706 1.379 . S
C3706 H3690 0.931 . S
C3706 C3700 1.383 . S
C3706 C3705 1.379 . S
H3707 C3701 0.959 . S
H3708 C3701 0.961 . S
H3709 C3701 0.960 . S
H3710 C3702 0.930 . S
H3711 C3703 0.929 . S
H3712 C3720 0.929 . S
H3713 C3722 0.930 . S
H3714 C3724 0.930 . S
H3715 C3727 0.929 . S
H3716 C3730 0.930 . S
H3717 C3732 0.960 . S
H3718 C3732 0.960 . S
H3719 C3732 0.960 . S
C3720 H3712 0.929 . S
C3720 C3721 1.377 . S
C3720 C3722 1.384 . S
C3721 C3720 1.377 . S
C3721 C3727 1.390 . S
C3722 H3713 0.930 . S
C3722 C3720 1.384 . S
C3722 C3723 1.372 . S
C3723 C3722 1.372 . S
C3723 C3724 1.400 . S
C3723 C3728 1.490 . S
C3724 H3714 0.930 . S
C3724 C3723 1.400 . S
C3724 C3727 1.386 . S
H3725 C3741 0.930 . S
H3726 C3742 0.931 . S
C3727 H3715 0.929 . S
C3727 C3721 1.390 . S
C3727 C3724 1.386 . S
C3728 C3723 1.490 . S
C3728 C3730 1.395 . S
C3728 C3731 1.403 . S
H3729 C3735 0.930 . S
C3730 H3716 0.930 . S
C3730 C3728 1.395 . S
C3730 C3733 1.403 . S
C3731 C3728 1.403 . S
C3731 C3732 1.524 . S
C3731 C3735 1.400 . S
C3732 H3717 0.960 . S
C3732 H3718 0.960 . S
C3732 H3719 0.960 . S
C3732 C3731 1.524 . S
C3733 C3730 1.403 . S
C3733 C3734 1.392 . S
C3733 C3737 1.495 . S
C3734 C3733 1.392 . S
C3734 C3735 1.385 . S
C3734 C3736 1.478 . S
C3735 H3729 0.930 . S
C3735 C3731 1.400 . S
C3735 C3734 1.385 . S
C3736 C3734 1.478 . S
C3736 C3738 1.381 . S
C3736 C3742 1.383 . S
C3737 C3733 1.495 . S
C3737 H3743 0.959 . S
C3737 H3744 0.961 . S
C3737 H3745 0.960 . S
C3738 C3736 1.381 . S
C3738 C3739 1.394 . S
C3738 H3746 0.930 . S
C3739 C3738 1.394 . S
C3739 C3740 1.383 . S
C3739 H3747 0.929 . S
C3740 C3739 1.383 . S
C3740 C3741 1.377 . S
C3741 H3725 0.930 . S
C3741 C3740 1.377 . S
C3741 C3742 1.379 . S
C3742 H3726 0.931 . S
C3742 C3736 1.383 . S
C3742 C3741 1.379 . S
H3743 C3737 0.959 . S
H3744 C3737 0.961 . S
H3745 C3737 0.960 . S
H3746 C3738 0.930 . S
H3747 C3739 0.929 . S
H3748 C3756 0.929 . S
H3749 C3758 0.930 . S
H3750 C3760 0.930 . S
H3751 C3763 0.929 . S
H3752 C3766 0.930 . S
H3753 C3768 0.960 . S
H3754 C3768 0.960 . S
H3755 C3768 0.960 . S
C3756 H3748 0.929 . S
C3756 C3757 1.377 . S
C3756 C3758 1.384 . S
C3757 C3756 1.377 . S
C3757 C3763 1.390 . S
C3758 H3749 0.930 . S
C3758 C3756 1.384 . S
C3758 C3759 1.372 . S
C3759 C3758 1.372 . S
C3759 C3760 1.400 . S
C3759 C3764 1.490 . S
C3760 H3750 0.930 . S
C3760 C3759 1.400 . S
C3760 C3763 1.386 . S
H3761 C3777 0.930 . S
H3762 C3778 0.931 . S
C3763 H3751 0.929 . S
C3763 C3757 1.390 . S
C3763 C3760 1.386 . S
C3764 C3759 1.490 . S
C3764 C3766 1.395 . S
C3764 C3767 1.403 . S
H3765 C3771 0.930 . S
C3766 H3752 0.930 . S
C3766 C3764 1.395 . S
C3766 C3769 1.403 . S
C3767 C3764 1.403 . S
C3767 C3768 1.524 . S
C3767 C3771 1.400 . S
C3768 H3753 0.960 . S
C3768 H3754 0.960 . S
C3768 H3755 0.960 . S
C3768 C3767 1.524 . S
C3769 C3766 1.403 . S
C3769 C3770 1.392 . S
C3769 C3773 1.495 . S
C3770 C3769 1.392 . S
C3770 C3771 1.385 . S
C3770 C3772 1.478 . S
C3771 H3765 0.930 . S
C3771 C3767 1.400 . S
C3771 C3770 1.385 . S
C3772 C3770 1.478 . S
C3772 C3774 1.381 . S
C3772 C3778 1.383 . S
C3773 C3769 1.495 . S
C3773 H3779 0.959 . S
C3773 H3780 0.961 . S
C3773 H3781 0.960 . S
C3774 C3772 1.381 . S
C3774 C3775 1.394 . S
C3774 H3782 0.930 . S
C3775 C3774 1.394 . S
C3775 C3776 1.383 . S
C3775 H3783 0.929 . S
C3776 C3775 1.383 . S
C3776 C3777 1.377 . S
C3777 H3761 0.930 . S
C3777 C3776 1.377 . S
C3777 C3778 1.379 . S
C3778 H3762 0.931 . S
C3778 C3772 1.383 . S
C3778 C3777 1.379 . S
H3779 C3773 0.959 . S
H3780 C3773 0.961 . S
H3781 C3773 0.960 . S
H3782 C3774 0.930 . S
H3783 C3775 0.929 . S
H3784 C3792 0.929 . S
H3785 C3794 0.930 . S
H3786 C3796 0.930 . S
H3787 C3799 0.929 . S
H3788 C3802 0.930 . S
H3789 C3804 0.960 . S
H3790 C3804 0.960 . S
H3791 C3804 0.960 . S
C3792 H3784 0.929 . S
C3792 C3793 1.377 . S
C3792 C3794 1.384 . S
C3793 C3792 1.377 . S
C3793 C3799 1.390 . S
C3794 H3785 0.930 . S
C3794 C3792 1.384 . S
C3794 C3795 1.372 . S
C3795 C3794 1.372 . S
C3795 C3796 1.400 . S
C3795 C3800 1.490 . S
C3796 H3786 0.930 . S
C3796 C3795 1.400 . S
C3796 C3799 1.386 . S
H3797 C3813 0.930 . S
H3798 C3814 0.931 . S
C3799 H3787 0.929 . S
C3799 C3793 1.390 . S
C3799 C3796 1.386 . S
C3800 C3795 1.490 . S
C3800 C3802 1.395 . S
C3800 C3803 1.403 . S
H3801 C3807 0.930 . S
C3802 H3788 0.930 . S
C3802 C3800 1.395 . S
C3802 C3805 1.403 . S
C3803 C3800 1.403 . S
C3803 C3804 1.524 . S
C3803 C3807 1.400 . S
C3804 H3789 0.960 . S
C3804 H3790 0.960 . S
C3804 H3791 0.960 . S
C3804 C3803 1.524 . S
C3805 C3802 1.403 . S
C3805 C3806 1.392 . S
C3805 C3809 1.495 . S
C3806 C3805 1.392 . S
C3806 C3807 1.385 . S
C3806 C3808 1.478 . S
C3807 H3801 0.930 . S
C3807 C3803 1.400 . S
C3807 C3806 1.385 . S
C3808 C3806 1.478 . S
C3808 C3810 1.381 . S
C3808 C3814 1.383 . S
C3809 C3805 1.495 . S
C3809 H3815 0.959 . S
C3809 H3816 0.961 . S
C3809 H3817 0.960 . S
C3810 C3808 1.381 . S
C3810 C3811 1.394 . S
C3810 H3818 0.930 . S
C3811 C3810 1.394 . S
C3811 C3812 1.383 . S
C3811 H3819 0.929 . S
C3812 C3811 1.383 . S
C3812 C3813 1.377 . S
C3813 H3797 0.930 . S
C3813 C3812 1.377 . S
C3813 C3814 1.379 . S
C3814 H3798 0.931 . S
C3814 C3808 1.383 . S
C3814 C3813 1.379 . S
H3815 C3809 0.959 . S
H3816 C3809 0.961 . S
H3817 C3809 0.960 . S
H3818 C3810 0.930 . S
H3819 C3811 0.929 . S
H3820 C3828 0.929 . S
H3821 C3830 0.930 . S
H3822 C3832 0.930 . S
H3823 C3835 0.929 . S
H3824 C3838 0.930 . S
H3825 C3840 0.960 . S
H3826 C3840 0.960 . S
H3827 C3840 0.960 . S
C3828 H3820 0.929 . S
C3828 C3829 1.377 . S
C3828 C3830 1.384 . S
C3829 C3828 1.377 . S
C3829 C3835 1.390 . S
C3830 H3821 0.930 . S
C3830 C3828 1.384 . S
C3830 C3831 1.372 . S
C3831 C3830 1.372 . S
C3831 C3832 1.400 . S
C3831 C3836 1.490 . S
C3832 H3822 0.930 . S
C3832 C3831 1.400 . S
C3832 C3835 1.386 . S
H3833 C3849 0.930 . S
H3834 C3850 0.931 . S
C3835 H3823 0.929 . S
C3835 C3829 1.390 . S
C3835 C3832 1.386 . S
C3836 C3831 1.490 . S
C3836 C3838 1.395 . S
C3836 C3839 1.403 . S
H3837 C3843 0.930 . S
C3838 H3824 0.930 . S
C3838 C3836 1.395 . S
C3838 C3841 1.403 . S
C3839 C3836 1.403 . S
C3839 C3840 1.524 . S
C3839 C3843 1.400 . S
C3840 H3825 0.960 . S
C3840 H3826 0.960 . S
C3840 H3827 0.960 . S
C3840 C3839 1.524 . S
C3841 C3838 1.403 . S
C3841 C3842 1.392 . S
C3841 C3845 1.495 . S
C3842 C3841 1.392 . S
C3842 C3843 1.385 . S
C3842 C3844 1.478 . S
C3843 H3837 0.930 . S
C3843 C3839 1.400 . S
C3843 C3842 1.385 . S
C3844 C3842 1.478 . S
C3844 C3846 1.381 . S
C3844 C3850 1.383 . S
C3845 C3841 1.495 . S
C3845 H3851 0.959 . S
C3845 H3852 0.961 . S
C3845 H3853 0.960 . S
C3846 C3844 1.381 . S
C3846 C3847 1.394 . S
C3846 H3854 0.930 . S
C3847 C3846 1.394 . S
C3847 C3848 1.383 . S
C3847 H3855 0.929 . S
C3848 C3847 1.383 . S
C3848 C3849 1.377 . S
C3849 H3833 0.930 . S
C3849 C3848 1.377 . S
C3849 C3850 1.379 . S
C3850 H3834 0.931 . S
C3850 C3844 1.383 . S
C3850 C3849 1.379 . S
H3851 C3845 0.959 . S
H3852 C3845 0.961 . S
H3853 C3845 0.960 . S
H3854 C3846 0.930 . S
H3855 C3847 0.929 . S
H3856 C3864 0.929 . S
H3857 C3866 0.930 . S
H3858 C3868 0.930 . S
H3859 C3871 0.929 . S
H3860 C3874 0.930 . S
H3861 C3876 0.960 . S
H3862 C3876 0.960 . S
H3863 C3876 0.960 . S
C3864 H3856 0.929 . S
C3864 C3865 1.377 . S
C3864 C3866 1.384 . S
C3865 C3864 1.377 . S
C3865 C3871 1.390 . S
C3866 H3857 0.930 . S
C3866 C3864 1.384 . S
C3866 C3867 1.372 . S
C3867 C3866 1.372 . S
C3867 C3868 1.400 . S
C3867 C3872 1.490 . S
C3868 H3858 0.930 . S
C3868 C3867 1.400 . S
C3868 C3871 1.386 . S
H3869 C3885 0.930 . S
H3870 C3886 0.931 . S
C3871 H3859 0.929 . S
C3871 C3865 1.390 . S
C3871 C3868 1.386 . S
C3872 C3867 1.490 . S
C3872 C3874 1.395 . S
C3872 C3875 1.403 . S
H3873 C3879 0.930 . S
C3874 H3860 0.930 . S
C3874 C3872 1.395 . S
C3874 C3877 1.403 . S
C3875 C3872 1.403 . S
C3875 C3876 1.524 . S
C3875 C3879 1.400 . S
C3876 H3861 0.960 . S
C3876 H3862 0.960 . S
C3876 H3863 0.960 . S
C3876 C3875 1.524 . S
C3877 C3874 1.403 . S
C3877 C3878 1.392 . S
C3877 C3881 1.495 . S
C3878 C3877 1.392 . S
C3878 C3879 1.385 . S
C3878 C3880 1.478 . S
C3879 H3873 0.930 . S
C3879 C3875 1.400 . S
C3879 C3878 1.385 . S
C3880 C3878 1.478 . S
C3880 C3882 1.381 . S
C3880 C3886 1.383 . S
C3881 C3877 1.495 . S
C3881 H3887 0.959 . S
C3881 H3888 0.961 . S
C3881 H3889 0.960 . S
C3882 C3880 1.381 . S
C3882 C3883 1.394 . S
C3882 H3890 0.930 . S
C3883 C3882 1.394 . S
C3883 C3884 1.383 . S
C3883 H3891 0.929 . S
C3884 C3883 1.383 . S
C3884 C3885 1.377 . S
C3885 H3869 0.930 . S
C3885 C3884 1.377 . S
C3885 C3886 1.379 . S
C3886 H3870 0.931 . S
C3886 C3880 1.383 . S
C3886 C3885 1.379 . S
H3887 C3881 0.959 . S
H3888 C3881 0.961 . S
H3889 C3881 0.960 . S
H3890 C3882 0.930 . S
H3891 C3883 0.929 . S
H3892 C3900 0.929 . S
H3893 C3902 0.930 . S
H3894 C3904 0.930 . S
H3895 C3907 0.929 . S
H3896 C3910 0.930 . S
H3897 C3912 0.960 . S
H3898 C3912 0.960 . S
H3899 C3912 0.960 . S
C3900 H3892 0.929 . S
C3900 C3901 1.377 . S
C3900 C3902 1.384 . S
C3901 C3900 1.377 . S
C3901 C3907 1.390 . S
C3902 H3893 0.930 . S
C3902 C3900 1.384 . S
C3902 C3903 1.372 . S
C3903 C3902 1.372 . S
C3903 C3904 1.400 . S
C3903 C3908 1.490 . S
C3904 H3894 0.930 . S
C3904 C3903 1.400 . S
C3904 C3907 1.386 . S
H3905 C3921 0.930 . S
H3906 C3922 0.931 . S
C3907 H3895 0.929 . S
C3907 C3901 1.390 . S
C3907 C3904 1.386 . S
C3908 C3903 1.490 . S
C3908 C3910 1.395 . S
C3908 C3911 1.403 . S
H3909 C3915 0.930 . S
C3910 H3896 0.930 . S
C3910 C3908 1.395 . S
C3910 C3913 1.403 . S
C3911 C3908 1.403 . S
C3911 C3912 1.524 . S
C3911 C3915 1.400 . S
C3912 H3897 0.960 . S
C3912 H3898 0.960 . S
C3912 H3899 0.960 . S
C3912 C3911 1.524 . S
C3913 C3910 1.403 . S
C3913 C3914 1.392 . S
C3913 C3917 1.495 . S
C3914 C3913 1.392 . S
C3914 C3915 1.385 . S
C3914 C3916 1.478 . S
C3915 H3909 0.930 . S
C3915 C3911 1.400 . S
C3915 C3914 1.385 . S
C3916 C3914 1.478 . S
C3916 C3918 1.381 . S
C3916 C3922 1.383 . S
C3917 C3913 1.495 . S
C3917 H3923 0.959 . S
C3917 H3924 0.961 . S
C3917 H3925 0.960 . S
C3918 C3916 1.381 . S
C3918 C3919 1.394 . S
C3918 H3926 0.930 . S
C3919 C3918 1.394 . S
C3919 C3920 1.383 . S
C3919 H3927 0.929 . S
C3920 C3919 1.383 . S
C3920 C3921 1.377 . S
C3921 H3905 0.930 . S
C3921 C3920 1.377 . S
C3921 C3922 1.379 . S
C3922 H3906 0.931 . S
C3922 C3916 1.383 . S
C3922 C3921 1.379 . S
H3923 C3917 0.959 . S
H3924 C3917 0.961 . S
H3925 C3917 0.960 . S
H3926 C3918 0.930 . S
H3927 C3919 0.929 . S
H3928 C3936 0.929 . S
H3929 C3938 0.930 . S
H3930 C3940 0.930 . S
H3931 C3943 0.929 . S
H3932 C3946 0.930 . S
H3933 C3948 0.944 1_455 S
H3934 C3948 0.960 . S
H3935 C3948 0.960 . S
C3936 H3928 0.929 . S
C3936 C3937 1.377 . S
C3936 C3938 1.384 . S
C3937 C3936 1.377 . S
C3937 C3943 1.390 . S
C3938 H3929 0.930 . S
C3938 C3936 1.384 . S
C3938 C3939 1.372 . S
C3939 C3938 1.372 . S
C3939 C3940 1.400 . S
C3939 C3944 1.490 . S
C3940 H3930 0.930 . S
C3940 C3939 1.400 . S
C3940 C3943 1.386 . S
H3941 C3957 0.930 . S
H3942 C3958 0.931 . S
C3943 H3931 0.929 . S
C3943 C3937 1.390 . S
C3943 C3940 1.386 . S
C3944 C3939 1.490 . S
C3944 C3946 1.395 . S
C3944 C3947 1.403 . S
H3945 C3951 0.930 1_455 S
C3946 H3932 0.930 . S
C3946 C3944 1.395 . S
C3946 C3949 1.403 . S
C3947 C3944 1.403 . S
C3947 C3948 1.524 . S
C3947 C3951 1.400 . S
C3948 H3933 0.944 1_655 S
C3948 H3934 0.960 . S
C3948 H3935 0.960 . S
C3948 C3947 1.524 . S
C3949 C3946 1.403 . S
C3949 C3950 1.392 . S
C3949 C3953 1.495 . S
C3950 C3949 1.392 . S
C3950 C3951 1.385 . S
C3950 C3952 1.478 . S
C3951 H3945 0.930 1_655 S
C3951 C3947 1.400 . S
C3951 C3950 1.385 . S
C3952 C3950 1.478 . S
C3952 C3954 1.381 . S
C3952 C3958 1.383 1_655 S
C3953 C3949 1.495 . S
C3953 H3959 0.959 . S
C3953 H3960 0.961 . S
C3953 H3961 0.960 . S
C3954 C3952 1.381 . S
C3954 C3955 1.394 1_655 S
C3954 H3962 0.930 . S
C3955 C3954 1.394 1_455 S
C3955 C3956 1.383 . S
C3955 H3963 0.929 1_455 S
C3956 C3955 1.383 . S
C3956 C3957 1.377 . S
C3957 H3941 0.930 . S
C3957 C3956 1.377 . S
C3957 C3958 1.379 . S
C3958 H3942 0.931 . S
C3958 C3952 1.383 1_455 S
C3958 C3957 1.379 . S
H3959 C3953 0.959 . S
H3960 C3953 0.961 . S
H3961 C3953 0.960 . S
H3962 C3954 0.930 . S
H3963 C3955 0.929 1_655 S
H3964 C3972 0.929 . S
H3965 C3974 0.930 . S
H3966 C3976 0.930 . S
H3967 C3979 0.929 . S
H3968 C3982 0.930 . S
H3969 C3984 0.960 . S
H3970 C3984 0.960 . S
H3971 C3984 0.960 . S
C3972 H3964 0.929 . S
C3972 C3973 1.377 . S
C3972 C3974 1.384 . S
C3973 C3972 1.377 . S
C3973 C3979 1.390 . S
C3974 H3965 0.930 . S
C3974 C3972 1.384 . S
C3974 C3975 1.372 . S
C3975 C3974 1.372 . S
C3975 C3976 1.400 . S
C3975 C3980 1.490 . S
C3976 H3966 0.930 . S
C3976 C3975 1.400 . S
C3976 C3979 1.386 . S
H3977 C3993 0.930 . S
H3978 C3994 0.931 . S
C3979 H3967 0.929 . S
C3979 C3973 1.390 . S
C3979 C3976 1.386 . S
C3980 C3975 1.490 . S
C3980 C3982 1.395 . S
C3980 C3983 1.403 . S
H3981 C3987 0.930 . S
C3982 H3968 0.930 . S
C3982 C3980 1.395 . S
C3982 C3985 1.403 . S
C3983 C3980 1.403 . S
C3983 C3984 1.524 . S
C3983 C3987 1.400 . S
C3984 H3969 0.960 . S
C3984 H3970 0.960 . S
C3984 H3971 0.960 . S
C3984 C3983 1.524 . S
C3985 C3982 1.403 . S
C3985 C3986 1.392 . S
C3985 C3989 1.495 . S
C3986 C3985 1.392 . S
C3986 C3987 1.385 . S
C3986 C3988 1.478 . S
C3987 H3981 0.930 . S
C3987 C3983 1.400 . S
C3987 C3986 1.385 . S
C3988 C3986 1.478 . S
C3988 C3990 1.381 . S
C3988 C3994 1.383 . S
C3989 C3985 1.495 . S
C3989 H3995 0.959 . S
C3989 H3996 0.961 . S
C3989 H3997 0.960 . S
C3990 C3988 1.381 . S
C3990 C3991 1.394 . S
C3990 H3998 0.930 . S
C3991 C3990 1.394 . S
C3991 C3992 1.383 . S
C3991 H3999 0.929 . S
C3992 C3991 1.383 . S
C3992 C3993 1.377 . S
C3993 H3977 0.930 . S
C3993 C3992 1.377 . S
C3993 C3994 1.379 . S
C3994 H3978 0.931 . S
C3994 C3988 1.383 . S
C3994 C3993 1.379 . S
H3995 C3989 0.959 . S
H3996 C3989 0.961 . S
H3997 C3989 0.960 . S
H3998 C3990 0.930 . S
H3999 C3991 0.929 . S
H4000 C4008 0.929 . S
H4001 C4010 0.930 . S
H4002 C4012 0.930 . S
H4003 C4015 0.929 . S
H4004 C4018 0.930 . S
H4005 C4020 0.960 . S
H4006 C4020 0.960 . S
H4007 C4020 0.960 . S
C4008 H4000 0.929 . S
C4008 C4009 1.377 . S
C4008 C4010 1.384 . S
C4009 C4008 1.377 . S
C4009 C4015 1.390 . S
C4010 H4001 0.930 . S
C4010 C4008 1.384 . S
C4010 C4011 1.372 . S
C4011 C4010 1.372 . S
C4011 C4012 1.400 . S
C4011 C4016 1.490 . S
C4012 H4002 0.930 . S
C4012 C4011 1.400 . S
C4012 C4015 1.386 . S
H4013 C4029 0.930 . S
H4014 C4030 0.931 . S
C4015 H4003 0.929 . S
C4015 C4009 1.390 . S
C4015 C4012 1.386 . S
C4016 C4011 1.490 . S
C4016 C4018 1.395 . S
C4016 C4019 1.403 . S
H4017 C4023 0.930 . S
C4018 H4004 0.930 . S
C4018 C4016 1.395 . S
C4018 C4021 1.403 . S
C4019 C4016 1.403 . S
C4019 C4020 1.524 . S
C4019 C4023 1.400 . S
C4020 H4005 0.960 . S
C4020 H4006 0.960 . S
C4020 H4007 0.960 . S
C4020 C4019 1.524 . S
C4021 C4018 1.403 . S
C4021 C4022 1.392 . S
C4021 C4025 1.495 . S
C4022 C4021 1.392 . S
C4022 C4023 1.385 . S
C4022 C4024 1.478 . S
C4023 H4017 0.930 . S
C4023 C4019 1.400 . S
C4023 C4022 1.385 . S
C4024 C4022 1.478 . S
C4024 C4026 1.381 . S
C4024 C4030 1.383 . S
C4025 C4021 1.495 . S
C4025 H4031 0.959 . S
C4025 H4032 0.961 . S
C4025 H4033 0.960 . S
C4026 C4024 1.381 . S
C4026 C4027 1.394 . S
C4026 H4034 0.930 . S
C4027 C4026 1.394 . S
C4027 C4028 1.383 . S
C4027 H4035 0.929 . S
C4028 C4027 1.383 . S
C4028 C4029 1.377 . S
C4029 H4013 0.930 . S
C4029 C4028 1.377 . S
C4029 C4030 1.379 . S
C4030 H4014 0.931 . S
C4030 C4024 1.383 . S
C4030 C4029 1.379 . S
H4031 C4025 0.959 . S
H4032 C4025 0.961 . S
H4033 C4025 0.960 . S
H4034 C4026 0.930 . S
H4035 C4027 0.929 . S
H4036 C4044 0.929 . S
H4037 C4046 0.930 . S
H4038 C4048 0.930 . S
H4039 C4051 0.929 . S
H4040 C4054 0.930 . S
H4041 C4056 0.960 . S
H4042 C4056 0.960 . S
H4043 C4056 0.960 . S
C4044 H4036 0.929 . S
C4044 C4045 1.377 . S
C4044 C4046 1.384 . S
C4045 C4044 1.377 . S
C4045 C4051 1.390 . S
C4046 H4037 0.930 . S
C4046 C4044 1.384 . S
C4046 C4047 1.372 . S
C4047 C4046 1.372 . S
C4047 C4048 1.400 . S
C4047 C4052 1.490 . S
C4048 H4038 0.930 . S
C4048 C4047 1.400 . S
C4048 C4051 1.386 . S
H4049 C4065 0.930 . S
H4050 C4066 0.931 . S
C4051 H4039 0.929 . S
C4051 C4045 1.390 . S
C4051 C4048 1.386 . S
C4052 C4047 1.490 . S
C4052 C4054 1.395 . S
C4052 C4055 1.403 . S
H4053 C4059 0.930 . S
C4054 H4040 0.930 . S
C4054 C4052 1.395 . S
C4054 C4057 1.403 . S
C4055 C4052 1.403 . S
C4055 C4056 1.524 . S
C4055 C4059 1.400 . S
C4056 H4041 0.960 . S
C4056 H4042 0.960 . S
C4056 H4043 0.960 . S
C4056 C4055 1.524 . S
C4057 C4054 1.403 . S
C4057 C4058 1.392 . S
C4057 C4061 1.495 . S
C4058 C4057 1.392 . S
C4058 C4059 1.385 . S
C4058 C4060 1.478 . S
C4059 H4053 0.930 . S
C4059 C4055 1.400 . S
C4059 C4058 1.385 . S
C4060 C4058 1.478 . S
C4060 C4062 1.381 . S
C4060 C4066 1.383 . S
C4061 C4057 1.495 . S
C4061 H4067 0.959 . S
C4061 H4068 0.961 . S
C4061 H4069 0.960 . S
C4062 C4060 1.381 . S
C4062 C4063 1.394 . S
C4062 H4070 0.930 . S
C4063 C4062 1.394 . S
C4063 C4064 1.383 . S
C4063 H4071 0.929 . S
C4064 C4063 1.383 . S
C4064 C4065 1.377 . S
C4065 H4049 0.930 . S
C4065 C4064 1.377 . S
C4065 C4066 1.379 . S
C4066 H4050 0.931 . S
C4066 C4060 1.383 . S
C4066 C4065 1.379 . S
H4067 C4061 0.959 . S
H4068 C4061 0.961 . S
H4069 C4061 0.960 . S
H4070 C4062 0.930 . S
H4071 C4063 0.929 . S
H4072 C4080 0.929 . S
H4073 C4082 0.930 . S
H4074 C4084 0.930 . S
H4075 C4087 0.929 . S
H4076 C4090 0.930 . S
H4077 C4092 0.960 . S
H4078 C4092 0.960 . S
H4079 C4092 0.960 . S
C4080 H4072 0.929 . S
C4080 C4081 1.377 . S
C4080 C4082 1.384 . S
C4081 C4080 1.377 . S
C4081 C4087 1.390 . S
C4082 H4073 0.930 . S
C4082 C4080 1.384 . S
C4082 C4083 1.372 . S
C4083 C4082 1.372 . S
C4083 C4084 1.400 . S
C4083 C4088 1.490 . S
C4084 H4074 0.930 . S
C4084 C4083 1.400 . S
C4084 C4087 1.386 . S
H4085 C4101 0.930 1_455 S
H4086 C4102 0.931 . S
C4087 H4075 0.929 . S
C4087 C4081 1.390 . S
C4087 C4084 1.386 . S
C4088 C4083 1.490 . S
C4088 C4090 1.395 . S
C4088 C4091 1.403 . S
H4089 C4095 0.930 . S
C4090 H4076 0.930 . S
C4090 C4088 1.395 . S
C4090 C4093 1.403 . S
C4091 C4088 1.403 . S
C4091 C4092 1.524 . S
C4091 C4095 1.400 . S
C4092 H4077 0.960 . S
C4092 H4078 0.960 . S
C4092 H4079 0.960 . S
C4092 C4091 1.524 . S
C4093 C4090 1.403 . S
C4093 C4094 1.392 . S
C4093 C4097 1.495 . S
C4094 C4093 1.392 . S
C4094 C4095 1.385 . S
C4094 C4096 1.478 . S
C4095 H4089 0.930 . S
C4095 C4091 1.400 . S
C4095 C4094 1.385 . S
C4096 C4094 1.478 . S
C4096 C4098 1.381 . S
C4096 C4102 1.383 . S
C4097 C4093 1.495 . S
C4097 H4103 0.959 . S
C4097 H4104 0.961 . S
C4097 H4105 0.960 . S
C4098 C4096 1.381 . S
C4098 C4099 1.394 . S
C4098 H4106 0.930 . S
C4099 C4098 1.394 . S
C4099 C4100 1.383 . S
C4099 H4107 0.929 . S
C4100 C4099 1.383 . S
C4100 C4101 1.377 . S
C4101 H4085 0.930 1_655 S
C4101 C4100 1.377 . S
C4101 C4102 1.379 . S
C4102 H4086 0.931 . S
C4102 C4096 1.383 . S
C4102 C4101 1.379 . S
H4103 C4097 0.959 . S
H4104 C4097 0.961 . S
H4105 C4097 0.960 . S
H4106 C4098 0.930 . S
H4107 C4099 0.929 . S
H4108 C4116 0.929 . S
H4109 C4118 0.930 . S
H4110 C4120 0.930 . S
H4111 C4123 0.929 . S
H4112 C4126 0.930 . S
H4113 C4128 0.960 . S
H4114 C4128 0.960 . S
H4115 C4128 0.960 . S
C4116 H4108 0.929 . S
C4116 C4117 1.377 . S
C4116 C4118 1.384 . S
C4117 C4116 1.377 . S
C4117 C4123 1.390 . S
C4118 H4109 0.930 . S
C4118 C4116 1.384 . S
C4118 C4119 1.372 . S
C4119 C4118 1.372 . S
C4119 C4120 1.400 . S
C4119 C4124 1.490 . S
C4120 H4110 0.930 . S
C4120 C4119 1.400 . S
C4120 C4123 1.386 . S
H4121 C4137 0.930 . S
H4122 C4138 0.931 . S
C4123 H4111 0.929 . S
C4123 C4117 1.390 . S
C4123 C4120 1.386 . S
C4124 C4119 1.490 . S
C4124 C4126 1.395 . S
C4124 C4127 1.403 . S
H4125 C4131 0.930 . S
C4126 H4112 0.930 . S
C4126 C4124 1.395 . S
C4126 C4129 1.403 . S
C4127 C4124 1.403 . S
C4127 C4128 1.524 . S
C4127 C4131 1.400 . S
C4128 H4113 0.960 . S
C4128 H4114 0.960 . S
C4128 H4115 0.960 . S
C4128 C4127 1.524 . S
C4129 C4126 1.403 . S
C4129 C4130 1.392 . S
C4129 C4133 1.495 . S
C4130 C4129 1.392 . S
C4130 C4131 1.385 . S
C4130 C4132 1.478 . S
C4131 H4125 0.930 . S
C4131 C4127 1.400 . S
C4131 C4130 1.385 . S
C4132 C4130 1.478 . S
C4132 C4134 1.381 . S
C4132 C4138 1.383 . S
C4133 C4129 1.495 . S
C4133 H4139 0.959 . S
C4133 H4140 0.961 . S
C4133 H4141 0.960 . S
C4134 C4132 1.381 . S
C4134 C4135 1.394 . S
C4134 H4142 0.930 . S
C4135 C4134 1.394 . S
C4135 C4136 1.383 . S
C4135 H4143 0.929 . S
C4136 C4135 1.383 . S
C4136 C4137 1.377 . S
C4137 H4121 0.930 . S
C4137 C4136 1.377 . S
C4137 C4138 1.379 . S
C4138 H4122 0.931 . S
C4138 C4132 1.383 . S
C4138 C4137 1.379 . S
H4139 C4133 0.959 . S
H4140 C4133 0.961 . S
H4141 C4133 0.960 . S
H4142 C4134 0.930 . S
H4143 C4135 0.929 . S
H4144 C4152 0.929 . S
H4145 C4154 0.930 . S
H4146 C4156 0.930 . S
H4147 C4159 0.929 . S
H4148 C4162 0.930 . S
H4149 C4164 0.960 . S
H4150 C4164 0.960 . S
H4151 C4164 0.960 . S
C4152 H4144 0.929 . S
C4152 C4153 1.377 . S
C4152 C4154 1.384 . S
C4153 C4152 1.377 . S
C4153 C4159 1.390 . S
C4154 H4145 0.930 . S
C4154 C4152 1.384 . S
C4154 C4155 1.372 . S
C4155 C4154 1.372 . S
C4155 C4156 1.400 . S
C4155 C4160 1.490 . S
C4156 H4146 0.930 . S
C4156 C4155 1.400 . S
C4156 C4159 1.386 . S
H4157 C4173 0.930 . S
H4158 C4174 0.931 . S
C4159 H4147 0.929 . S
C4159 C4153 1.390 . S
C4159 C4156 1.386 . S
C4160 C4155 1.490 . S
C4160 C4162 1.395 . S
C4160 C4163 1.403 . S
H4161 C4167 0.930 . S
C4162 H4148 0.930 . S
C4162 C4160 1.395 . S
C4162 C4165 1.403 . S
C4163 C4160 1.403 . S
C4163 C4164 1.524 . S
C4163 C4167 1.400 . S
C4164 H4149 0.960 . S
C4164 H4150 0.960 . S
C4164 H4151 0.960 . S
C4164 C4163 1.524 . S
C4165 C4162 1.403 . S
C4165 C4166 1.392 . S
C4165 C4169 1.495 . S
C4166 C4165 1.392 . S
C4166 C4167 1.385 . S
C4166 C4168 1.478 . S
C4167 H4161 0.930 . S
C4167 C4163 1.400 . S
C4167 C4166 1.385 . S
C4168 C4166 1.478 . S
C4168 C4170 1.381 . S
C4168 C4174 1.383 . S
C4169 C4165 1.495 . S
C4169 H4175 0.959 . S
C4169 H4176 0.961 . S
C4169 H4177 0.960 . S
C4170 C4168 1.381 . S
C4170 C4171 1.394 . S
C4170 H4178 0.930 . S
C4171 C4170 1.394 . S
C4171 C4172 1.383 . S
C4171 H4179 0.929 . S
C4172 C4171 1.383 . S
C4172 C4173 1.377 . S
C4173 H4157 0.930 . S
C4173 C4172 1.377 . S
C4173 C4174 1.379 . S
C4174 H4158 0.931 . S
C4174 C4168 1.383 . S
C4174 C4173 1.379 . S
H4175 C4169 0.959 . S
H4176 C4169 0.961 . S
H4177 C4169 0.960 . S
H4178 C4170 0.930 . S
H4179 C4171 0.929 . S
H4180 C4188 0.929 . S
H4181 C4190 0.930 . S
H4182 C4192 0.930 . S
H4183 C4195 0.929 . S
H4184 C4198 0.930 . S
H4185 C4200 0.960 . S
H4186 C4200 0.960 . S
H4187 C4200 0.960 . S
C4188 H4180 0.929 . S
C4188 C4189 1.377 . S
C4188 C4190 1.384 . S
C4189 C4188 1.377 . S
C4189 C4195 1.390 . S
C4190 H4181 0.930 . S
C4190 C4188 1.384 . S
C4190 C4191 1.372 . S
C4191 C4190 1.372 . S
C4191 C4192 1.400 . S
C4191 C4196 1.490 . S
C4192 H4182 0.930 . S
C4192 C4191 1.400 . S
C4192 C4195 1.386 . S
H4193 C4209 0.930 . S
H4194 C4210 0.931 . S
C4195 H4183 0.929 . S
C4195 C4189 1.390 . S
C4195 C4192 1.386 . S
C4196 C4191 1.490 . S
C4196 C4198 1.395 . S
C4196 C4199 1.403 . S
H4197 C4203 0.930 . S
C4198 H4184 0.930 . S
C4198 C4196 1.395 . S
C4198 C4201 1.403 . S
C4199 C4196 1.403 . S
C4199 C4200 1.524 . S
C4199 C4203 1.400 . S
C4200 H4185 0.960 . S
C4200 H4186 0.960 . S
C4200 H4187 0.960 . S
C4200 C4199 1.524 . S
C4201 C4198 1.403 . S
C4201 C4202 1.392 . S
C4201 C4205 1.495 . S
C4202 C4201 1.392 . S
C4202 C4203 1.385 . S
C4202 C4204 1.478 . S
C4203 H4197 0.930 . S
C4203 C4199 1.400 . S
C4203 C4202 1.385 . S
C4204 C4202 1.478 . S
C4204 C4206 1.381 . S
C4204 C4210 1.383 . S
C4205 C4201 1.495 . S
C4205 H4211 0.959 . S
C4205 H4212 0.961 1_565 S
C4205 H4213 0.982 . S
C4206 C4204 1.381 . S
C4206 C4207 1.394 1_565 S
C4206 H4214 0.930 . S
C4207 C4206 1.394 1_545 S
C4207 C4208 1.383 . S
C4207 H4215 0.930 . S
C4208 C4207 1.383 . S
C4208 C4209 1.377 1_545 S
C4209 H4193 0.930 . S
C4209 C4208 1.377 1_565 S
C4209 C4210 1.379 . S
C4210 H4194 0.931 . S
C4210 C4204 1.383 . S
C4210 C4209 1.379 . S
H4211 C4205 0.959 . S
H4212 C4205 0.961 1_545 S
H4213 C4205 0.982 . S
H4214 C4206 0.930 . S
H4215 C4207 0.930 . S
H4216 C4224 0.929 . S
H4217 C4226 0.930 . S
H4218 C4228 0.930 . S
H4219 C4231 0.929 . S
H4220 C4234 0.930 . S
H4221 C4236 0.960 . S
H4222 C4236 0.960 . S
H4223 C4236 0.960 . S
C4224 H4216 0.929 . S
C4224 C4225 1.377 . S
C4224 C4226 1.384 . S
C4225 C4224 1.377 . S
C4225 C4231 1.390 . S
C4226 H4217 0.930 . S
C4226 C4224 1.384 . S
C4226 C4227 1.372 . S
C4227 C4226 1.372 . S
C4227 C4228 1.400 . S
C4227 C4232 1.490 . S
C4228 H4218 0.930 . S
C4228 C4227 1.400 . S
C4228 C4231 1.386 . S
H4229 C4245 0.930 . S
H4230 C4246 0.931 . S
C4231 H4219 0.929 . S
C4231 C4225 1.390 . S
C4231 C4228 1.386 . S
C4232 C4227 1.490 . S
C4232 C4234 1.395 . S
C4232 C4235 1.403 . S
H4233 C4239 0.930 . S
C4234 H4220 0.930 . S
C4234 C4232 1.395 . S
C4234 C4237 1.403 . S
C4235 C4232 1.403 . S
C4235 C4236 1.524 . S
C4235 C4239 1.400 . S
C4236 H4221 0.960 . S
C4236 H4222 0.960 . S
C4236 H4223 0.960 . S
C4236 C4235 1.524 . S
C4237 C4234 1.403 . S
C4237 C4238 1.392 . S
C4237 C4241 1.495 . S
C4238 C4237 1.392 . S
C4238 C4239 1.385 . S
C4238 C4240 1.478 . S
C4239 H4233 0.930 . S
C4239 C4235 1.400 . S
C4239 C4238 1.385 . S
C4240 C4238 1.478 . S
C4240 C4242 1.381 . S
C4240 C4246 1.383 . S
C4241 C4237 1.495 . S
C4241 H4247 0.959 . S
C4241 H4248 0.961 . S
C4241 H4249 0.960 . S
C4242 C4240 1.381 . S
C4242 C4243 1.394 . S
C4242 H4250 0.930 . S
C4243 C4242 1.394 . S
C4243 C4244 1.383 . S
C4243 H4251 0.929 . S
C4244 C4243 1.383 . S
C4244 C4245 1.377 . S
C4245 H4229 0.930 . S
C4245 C4244 1.377 . S
C4245 C4246 1.379 . S
C4246 H4230 0.931 . S
C4246 C4240 1.383 . S
C4246 C4245 1.379 . S
H4247 C4241 0.959 . S
H4248 C4241 0.961 . S
H4249 C4241 0.960 . S
H4250 C4242 0.930 . S
H4251 C4243 0.929 . S
H4252 C4260 0.929 . S
H4253 C4262 0.930 . S
H4254 C4264 0.930 . S
H4255 C4267 0.929 . S
H4256 C4270 0.930 . S
H4257 C4272 0.960 . S
H4258 C4272 0.960 . S
H4259 C4272 0.960 1_554 S
C4260 H4252 0.929 . S
C4260 C4261 1.377 1_556 S
C4260 C4262 1.384 . S
C4261 C4260 1.377 1_554 S
C4261 C4267 1.390 . S
C4262 H4253 0.930 . S
C4262 C4260 1.384 . S
C4262 C4263 1.372 1_556 S
C4263 C4262 1.372 1_554 S
C4263 C4264 1.400 . S
C4263 C4268 1.490 . S
C4264 H4254 0.930 . S
C4264 C4263 1.400 . S
C4264 C4267 1.386 . S
H4265 C4281 0.930 . S
H4266 C4282 0.931 . S
C4267 H4255 0.929 . S
C4267 C4261 1.390 . S
C4267 C4264 1.386 . S
C4268 C4263 1.490 . S
C4268 C4270 1.395 . S
C4268 C4271 1.403 . S
H4269 C4275 0.937 . S
C4270 H4256 0.930 . S
C4270 C4268 1.395 . S
C4270 C4273 1.403 . S
C4271 C4268 1.403 . S
C4271 C4272 1.524 1_554 S
C4271 C4275 1.400 . S
C4272 H4257 0.960 . S
C4272 H4258 0.960 . S
C4272 H4259 0.960 1_556 S
C4272 C4271 1.524 1_556 S
C4273 C4270 1.403 . S
C4273 C4274 1.392 . S
C4273 C4277 1.495 . S
C4274 C4273 1.392 . S
C4274 C4275 1.385 . S
C4274 C4276 1.478 . S
C4275 H4269 0.937 . S
C4275 C4271 1.400 . S
C4275 C4274 1.385 . S
C4276 C4274 1.478 . S
C4276 C4278 1.381 1_554 S
C4276 C4282 1.383 . S
C4277 C4273 1.495 . S
C4277 H4283 0.959 . S
C4277 H4284 0.961 . S
C4277 H4285 0.960 . S
C4278 C4276 1.381 1_556 S
C4278 C4279 1.394 . S
C4278 H4286 0.930 . S
C4279 C4278 1.394 . S
C4279 C4280 1.383 1_556 S
C4279 H4287 0.929 . S
C4280 C4279 1.383 1_554 S
C4280 C4281 1.377 . S
C4281 H4265 0.930 . S
C4281 C4280 1.377 . S
C4281 C4282 1.379 . S
C4282 H4266 0.931 . S
C4282 C4276 1.383 . S
C4282 C4281 1.379 . S
H4283 C4277 0.959 . S
H4284 C4277 0.961 . S
H4285 C4277 0.960 . S
H4286 C4278 0.930 . S
H4287 C4279 0.929 . S
H4288 C4296 0.929 . S
H4289 C4298 0.930 . S
H4290 C4300 0.930 . S
H4291 C4303 0.929 . S
H4292 C4306 0.930 . S
H4293 C4308 0.960 . S
H4294 C4308 0.960 . S
H4295 C4308 0.960 . S
C4296 H4288 0.929 . S
C4296 C4297 1.377 . S
C4296 C4298 1.384 . S
C4297 C4296 1.377 . S
C4297 C4303 1.390 . S
C4298 H4289 0.930 . S
C4298 C4296 1.384 . S
C4298 C4299 1.372 . S
C4299 C4298 1.372 . S
C4299 C4300 1.400 . S
C4299 C4304 1.490 . S
C4300 H4290 0.930 . S
C4300 C4299 1.400 . S
C4300 C4303 1.386 . S
H4301 C4317 0.930 . S
H4302 C4318 0.931 . S
C4303 H4291 0.929 . S
C4303 C4297 1.390 . S
C4303 C4300 1.386 . S
C4304 C4299 1.490 . S
C4304 C4306 1.395 . S
C4304 C4307 1.403 . S
H4305 C4311 0.930 . S
C4306 H4292 0.930 . S
C4306 C4304 1.395 . S
C4306 C4309 1.403 . S
C4307 C4304 1.403 . S
C4307 C4308 1.524 . S
C4307 C4311 1.400 . S
C4308 H4293 0.960 . S
C4308 H4294 0.960 . S
C4308 H4295 0.960 . S
C4308 C4307 1.524 . S
C4309 C4306 1.403 . S
C4309 C4310 1.392 . S
C4309 C4313 1.495 . S
C4310 C4309 1.392 . S
C4310 C4311 1.385 . S
C4310 C4312 1.478 . S
C4311 H4305 0.930 . S
C4311 C4307 1.400 . S
C4311 C4310 1.385 . S
C4312 C4310 1.478 . S
C4312 C4314 1.381 . S
C4312 C4318 1.383 . S
C4313 C4309 1.495 . S
C4313 H4319 0.959 . S
C4313 H4320 0.961 . S
C4313 H4321 0.960 . S
C4314 C4312 1.381 . S
C4314 C4315 1.394 . S
C4314 H4322 0.930 . S
C4315 C4314 1.394 . S
C4315 C4316 1.383 . S
C4315 H4323 0.929 . S
C4316 C4315 1.383 . S
C4316 C4317 1.377 . S
C4317 H4301 0.930 . S
C4317 C4316 1.377 . S
C4317 C4318 1.379 . S
C4318 H4302 0.931 . S
C4318 C4312 1.383 . S
C4318 C4317 1.379 . S
H4319 C4313 0.959 . S
H4320 C4313 0.961 . S
H4321 C4313 0.960 . S
H4322 C4314 0.930 . S
H4323 C4315 0.929 . S
H4324 C4332 0.929 . S
H4325 C4334 0.930 . S
H4326 C4336 0.930 . S
H4327 C4339 0.929 . S
H4328 C4342 0.930 . S
H4329 C4344 0.960 . S
H4330 C4344 0.960 . S
H4331 C4344 0.960 . S
C4332 H4324 0.929 . S
C4332 C4333 1.377 . S
C4332 C4334 1.384 . S
C4333 C4332 1.377 . S
C4333 C4339 1.390 . S
C4334 H4325 0.930 . S
C4334 C4332 1.384 . S
C4334 C4335 1.372 . S
C4335 C4334 1.372 . S
C4335 C4336 1.400 . S
C4335 C4340 1.490 . S
C4336 H4326 0.930 . S
C4336 C4335 1.400 . S
C4336 C4339 1.386 . S
H4337 C4353 0.930 . S
H4338 C4354 0.931 . S
C4339 H4327 0.929 . S
C4339 C4333 1.390 . S
C4339 C4336 1.386 . S
C4340 C4335 1.490 . S
C4340 C4342 1.395 1_554 S
C4340 C4343 1.403 . S
H4341 C4347 0.930 . S
C4342 H4328 0.930 . S
C4342 C4340 1.395 1_556 S
C4342 C4345 1.403 . S
C4343 C4340 1.403 . S
C4343 C4344 1.524 . S
C4343 C4347 1.400 . S
C4344 H4329 0.960 . S
C4344 H4330 0.960 . S
C4344 H4331 0.960 . S
C4344 C4343 1.524 . S
C4345 C4342 1.403 . S
C4345 C4346 1.392 . S
C4345 C4349 1.495 . S
C4346 C4345 1.392 . S
C4346 C4347 1.385 1_556 S
C4346 C4348 1.478 . S
C4347 H4341 0.930 . S
C4347 C4343 1.400 . S
C4347 C4346 1.385 1_554 S
C4348 C4346 1.478 . S
C4348 C4350 1.381 . S
C4348 C4354 1.383 . S
C4349 C4345 1.495 . S
C4349 H4355 0.959 . S
C4349 H4356 0.961 . S
C4349 H4357 0.960 . S
C4350 C4348 1.381 . S
C4350 C4351 1.394 . S
C4350 H4358 0.930 . S
C4351 C4350 1.394 . S
C4351 C4352 1.383 . S
C4351 H4359 0.929 . S
C4352 C4351 1.383 . S
C4352 C4353 1.377 . S
C4353 H4337 0.930 . S
C4353 C4352 1.377 . S
C4353 C4354 1.379 . S
C4354 H4338 0.931 . S
C4354 C4348 1.383 . S
C4354 C4353 1.379 . S
H4355 C4349 0.959 . S
H4356 C4349 0.961 . S
H4357 C4349 0.960 . S
H4358 C4350 0.930 . S
H4359 C4351 0.929 . S
H4360 C4368 0.929 . S
H4361 C4370 0.930 . S
H4362 C4372 0.930 . S
H4363 C4375 0.929 . S
H4364 C4378 0.930 . S
H4365 C4380 0.960 . S
H4366 C4380 0.960 . S
H4367 C4380 0.960 . S
C4368 H4360 0.929 . S
C4368 C4369 1.377 . S
C4368 C4370 1.384 . S
C4369 C4368 1.377 . S
C4369 C4375 1.390 . S
C4370 H4361 0.930 . S
C4370 C4368 1.384 . S
C4370 C4371 1.372 . S
C4371 C4370 1.372 . S
C4371 C4372 1.400 . S
C4371 C4376 1.490 . S
C4372 H4362 0.930 . S
C4372 C4371 1.400 . S
C4372 C4375 1.386 . S
H4373 C4389 0.930 . S
H4374 C4390 0.931 . S
C4375 H4363 0.929 . S
C4375 C4369 1.390 . S
C4375 C4372 1.386 . S
C4376 C4371 1.490 . S
C4376 C4378 1.395 . S
C4376 C4379 1.403 . S
H4377 C4383 0.930 . S
C4378 H4364 0.930 . S
C4378 C4376 1.395 . S
C4378 C4381 1.403 . S
C4379 C4376 1.403 . S
C4379 C4380 1.524 . S
C4379 C4383 1.400 . S
C4380 H4365 0.960 . S
C4380 H4366 0.960 . S
C4380 H4367 0.960 . S
C4380 C4379 1.524 . S
C4381 C4378 1.403 . S
C4381 C4382 1.392 . S
C4381 C4385 1.495 . S
C4382 C4381 1.392 . S
C4382 C4383 1.385 . S
C4382 C4384 1.478 . S
C4383 H4377 0.930 . S
C4383 C4379 1.400 . S
C4383 C4382 1.385 . S
C4384 C4382 1.478 . S
C4384 C4386 1.381 . S
C4384 C4390 1.383 . S
C4385 C4381 1.495 . S
C4385 H4391 0.959 . S
C4385 H4392 0.961 . S
C4385 H4393 0.960 . S
C4386 C4384 1.381 . S
C4386 C4387 1.394 . S
C4386 H4394 0.930 . S
C4387 C4386 1.394 . S
C4387 C4388 1.383 . S
C4387 H4395 0.929 . S
C4388 C4387 1.383 . S
C4388 C4389 1.377 . S
C4389 H4373 0.930 . S
C4389 C4388 1.377 . S
C4389 C4390 1.379 . S
C4390 H4374 0.931 . S
C4390 C4384 1.383 . S
C4390 C4389 1.379 . S
H4391 C4385 0.959 . S
H4392 C4385 0.961 . S
H4393 C4385 0.960 . S
H4394 C4386 0.930 . S
H4395 C4387 0.929 . S
H4396 C4404 0.929 . S
H4397 C4406 0.930 . S
H4398 C4408 0.930 . S
H4399 C4411 0.929 . S
H4400 C4414 0.930 . S
H4401 C4416 0.960 . S
H4402 C4416 0.960 . S
H4403 C4416 0.960 . S
C4404 H4396 0.929 . S
C4404 C4405 1.377 . S
C4404 C4406 1.384 . S
C4405 C4404 1.377 . S
C4405 C4411 1.390 . S
C4406 H4397 0.930 . S
C4406 C4404 1.384 . S
C4406 C4407 1.372 . S
C4407 C4406 1.372 . S
C4407 C4408 1.400 . S
C4407 C4412 1.490 . S
C4408 H4398 0.930 . S
C4408 C4407 1.400 . S
C4408 C4411 1.386 . S
H4409 C4425 0.930 . S
H4410 C4426 0.931 . S
C4411 H4399 0.929 . S
C4411 C4405 1.390 . S
C4411 C4408 1.386 . S
C4412 C4407 1.490 . S
C4412 C4414 1.395 . S
C4412 C4415 1.403 . S
H4413 C4419 0.930 . S
C4414 H4400 0.930 . S
C4414 C4412 1.395 . S
C4414 C4417 1.403 . S
C4415 C4412 1.403 . S
C4415 C4416 1.524 . S
C4415 C4419 1.400 . S
C4416 H4401 0.960 . S
C4416 H4402 0.960 . S
C4416 H4403 0.960 . S
C4416 C4415 1.524 . S
C4417 C4414 1.403 . S
C4417 C4418 1.392 . S
C4417 C4421 1.495 . S
C4418 C4417 1.392 . S
C4418 C4419 1.385 . S
C4418 C4420 1.478 . S
C4419 H4413 0.930 . S
C4419 C4415 1.400 . S
C4419 C4418 1.385 . S
C4420 C4418 1.478 . S
C4420 C4422 1.381 . S
C4420 C4426 1.383 . S
C4421 C4417 1.495 . S
C4421 H4427 0.959 . S
C4421 H4428 0.961 . S
C4421 H4429 0.960 . S
C4422 C4420 1.381 . S
C4422 C4423 1.394 . S
C4422 H4430 0.930 . S
C4423 C4422 1.394 . S
C4423 C4424 1.383 . S
C4423 H4431 0.929 . S
C4424 C4423 1.383 . S
C4424 C4425 1.377 . S
C4425 H4409 0.930 . S
C4425 C4424 1.377 . S
C4425 C4426 1.379 . S
C4426 H4410 0.931 . S
C4426 C4420 1.383 . S
C4426 C4425 1.379 . S
H4427 C4421 0.959 . S
H4428 C4421 0.961 . S
H4429 C4421 0.960 . S
H4430 C4422 0.930 . S
H4431 C4423 0.929 . S
C985 C109 2.182 . S
C1004 C346 2.125 1_556 S
C1021 C65 2.067 . S
C1040 C394 2.053 . S
C1057 C75 1.044 . S
C1076 C426 1.026 . S
C1112 C471 1.399 . S
C1093 C84 1.411 . S
C1129 C25 1.182 . S
C1148 C511 1.143 . S
C1184 C542 0.362 . S
C1165 C28 0.259 . S
C1220 C594 1.177 . S
C1201 C47 1.183 . S
C1237 C9 1.740 . S
C1256 C626 1.680 . S
C1292 C354 2.513 . S
C1273 C233 2.531 . S
C1309 C249 0.309 . S
C1328 C391 0.457 . S
C1364 C434 1.365 . S
C1345 C275 1.379 . S
C1400 C466 1.177 . S
C1381 C173 1.177 . S
C1417 C224 1.801 . S
C1436 C506 1.776 . S
C1472 C545 1.453 . S
C1453 C243 1.476 . S
C1508 C591 0.350 . S
C1489 C266 0.205 . S
C1544 C634 1.916 . S
C1525 C179 1.945 . S
C1580 C351 1.432 1_565 S
C1561 C163 1.481 . S
C1597 C289 1.979 . S
C1616 C674 1.962 . S
C1652 C715 2.512 . S
C1633 C333 2.585 . S
C1688 C746 0.550 1_655 S
C1669 C308 0.471 . S
C1705 C123 1.339 . S
C1724 C631 1.304 . S
C1741 C126 1.544 . S
C1760 C431 1.528 . S
C1777 C327 2.331 . S
C1796 C794 2.313 . S
C1832 C826 0.484 . S
C1813 C299 0.505 . S
C1868 C355 2.123 . S
C1849 C67 2.200 . S
C1904 C825 2.096 . S
C1885 C98 2.072 . S
C1921 C89 1.084 . S
C1940 C435 1.023 . S
C1957 C79 1.475 . S
C1976 C782 1.445 . S
C2012 C502 1.172 . S
C1993 C11 1.198 . S
C2029 C51 0.269 . S
C2048 C711 0.258 . S
C2084 C585 1.280 1_556 S
C2065 C33 1.258 . S
C2120 C875 1.635 . S
C2101 C14 1.746 . S
C2156 C345 2.492 . S
C2137 C140 2.506 . S
C2192 C822 0.454 . S
C2173 C319 0.259 . S
C2209 C112 1.396 . S
C2228 C425 1.372 . S
C2245 C285 1.209 . S
C2264 C795 1.203 . S
C2281 C149 1.857 . S
C2300 C515 1.825 . S
C2336 C714 1.502 . S
C2317 C313 1.518 . S
C2353 C121 0.128 . S
C2372 C582 0.335 . S
C2389 C291 1.987 . S
C2408 C865 1.968 . S
C2425 C182 1.485 . S
C2444 C342 1.461 . S
C2461 C168 1.984 . S
C2480 C665 2.002 . S
C2497 C263 2.640 . S
C2516 C546 2.587 . S
C2533 C247 0.550 . S
C2552 C755 0.616 . S
C2588 C862 1.322 . S
C2569 C277 1.333 . S
C2605 C219 1.596 . S
C2624 C422 1.577 . S
C2660 C465 2.343 . S
C2641 C257 2.382 . S
C2696 C395 0.631 . S
C2677 C201 0.519 . S
C2713 C81 2.183 . S
C2732 C906 2.109 . S
C2768 C834 2.059 . S
C2749 C93 2.066 . S
C2785 C103 1.044 . S
C2804 C946 0.982 1_556 S
C2821 C56 1.413 . S
C2840 C791 1.412 . S
C2857 C53 1.189 . S
C2876 C671 1.159 . S
C2912 C702 0.364 . S
C2893 C0 0.260 . S
C2948 C754 1.206 . S
C2929 C19 1.171 . S
C2984 C866 1.652 . S
C2965 C37 1.743 . S
C3020 C914 2.516 . S
C3001 C261 2.531 . S
C3037 C193 0.281 . S
C3056 C831 0.303 . S
C3092 C954 1.372 . S
C3073 C205 1.380 . S
C3128 C786 1.167 . S
C3109 C215 1.176 . S
C3164 C666 1.792 . S
C3145 C252 1.802 . S
C3181 C187 1.476 . S
C3200 C705 1.438 . S
C3236 C751 0.302 . S
C3217 C196 0.197 . S
C3253 C221 1.946 . S
C3272 C874 1.935 . S
C3308 C911 1.449 . S
C3289 C317 1.474 . S
C3325 C135 1.981 . S
C3344 C514 1.961 . S
C3380 C555 2.514 . S
C3361 C151 2.585 . S
C3416 C586 0.527 . S
C3397 C154 0.477 . S
C3452 C871 1.326 . S
C3433 C305 1.335 . S
C3469 C280 1.547 . S
C3488 C951 1.550 . S
C3524 C474 2.297 . S
C3505 C145 2.332 . S
C3560 C386 0.486 . S
C3541 C117 0.508 . S
C3577 C95 2.201 . S
C3596 C915 2.142 . S
C3632 C385 2.102 . S
C3613 C70 2.071 . S
C3649 C61 1.082 . S
C3668 C955 1.087 . S
C3685 C107 1.476 . S
C3704 C462 1.456 . S
C3721 C39 1.191 . S
C3740 C662 1.192 . S
C3776 C551 0.370 . S
C3757 C23 0.258 . S
C3793 C5 1.259 . S
C3812 C745 1.280 . S
C3829 C42 1.739 . S
C3848 C635 1.638 . S
C3884 C905 2.486 . S
C3865 C322 2.506 . S
C3901 C165 0.250 . S
C3920 C382 0.388 . S
C3956 C945 1.393 . S
C3937 C294 1.399 . S
C3973 C131 1.208 . S
C3992 C475 1.210 . S
C4009 C331 1.861 . S
C4028 C675 1.821 . S
C4064 C554 1.475 . S
C4045 C159 1.516 . S
C4081 C303 0.118 . S
C4100 C742 0.189 . S
C4136 C625 1.972 . S
C4117 C137 1.987 . S
C4172 C902 1.443 . S
C4153 C238 1.486 . S
C4208 C505 1.985 1_655 S
C4189 C210 1.982 . S
C4225 C235 2.642 . S
C4244 C706 2.567 . S
C4280 C595 0.597 . S
C4261 C191 0.553 . S
C4297 C207 1.330 . S
C4316 C622 1.332 . S
C4333 C177 1.596 . S
C4352 C942 1.583 . S
C4388 C785 2.343 . S
C4369 C229 2.383 1_565 S
C4424 C835 0.518 . S
C4405 C271 0.511 . S
