# Generated by pormake.
# Topology pth, (4,4)-cn, num edge types: 1
# Building blocks:
#     Node 0, Type 0, BuildingBlock: QUQFOY_clean_sbu_3, # of connection points: 4
#     Node 1, Type 0, BuildingBlock: QUQFOY_clean_sbu_3, # of connection points: 4
#     Node 2, Type 0, BuildingBlock: QUQFOY_clean_sbu_3, # of connection points: 4
#     Node 3, Type 1, BuildingBlock: MUDLON_clean_sbu_0, # of connection points: 4
#     Node 4, Type 1, BuildingBlock: MUDLON_clean_sbu_0, # of connection points: 4
#     Node 5, Type 1, BuildingBlock: MUDLON_clean_sbu_0, # of connection points: 4
#     Edge 6, Type (0, 1), BuildingBlock: KIFKEQ_clean_linker_1, # of connection points: 2
#     Edge 7, Type (0, 1), BuildingBlock: KIFKEQ_clean_linker_1, # of connection points: 2
#     Edge 8, Type (0, 1), BuildingBlock: KIFKEQ_clean_linker_1, # of connection points: 2
#     Edge 9, Type (0, 1), BuildingBlock: KIFKEQ_clean_linker_1, # of connection points: 2
#     Edge 10, Type (0, 1), BuildingBlock: KIFKEQ_clean_linker_1, # of connection points: 2
#     Edge 11, Type (0, 1), BuildingBlock: KIFKEQ_clean_linker_1, # of connection points: 2
#     Edge 12, Type (0, 1), BuildingBlock: KIFKEQ_clean_linker_1, # of connection points: 2
#     Edge 13, Type (0, 1), BuildingBlock: KIFKEQ_clean_linker_1, # of connection points: 2
#     Edge 14, Type (0, 1), BuildingBlock: KIFKEQ_clean_linker_1, # of connection points: 2
#     Edge 15, Type (0, 1), BuildingBlock: KIFKEQ_clean_linker_1, # of connection points: 2
#     Edge 16, Type (0, 1), BuildingBlock: KIFKEQ_clean_linker_1, # of connection points: 2
#     Edge 17, Type (0, 1), BuildingBlock: KIFKEQ_clean_linker_1, # of connection points: 2
# Relax obj value: 0.015
# Max RMSD: 0.070
# Mean RMSD: 0.054
data_MOF--net-pth--node1-QUQFOY_clean_sbu_3--node2-MUDLON_clean_sbu_0--edge1-KIFKEQ_clean_linker_1
_symmetry_space_group_name_H-M    P1
_symmetry_Int_Tables_number       1
_symmetry_cell_setting            triclinic
loop_
_symmetry_equiv_pos_as_xyz
'x, y, z'
_cell_length_a     23.315444
_cell_length_b     23.35237
_cell_length_c     62.841331
_cell_angle_alpha  90.284866
_cell_angle_beta   90.573444
_cell_angle_gamma 120.35706
loop_
_atom_site_label
_atom_site_type_symbol
_atom_site_fract_x
_atom_site_fract_y
_atom_site_fract_z
_atom_type_partial_charge
C0 C 0.99379 0.21611 0.10623 0.0
O1 O 0.96357 0.21247 0.08891 0.0
Cd2 Cd 0.96031 0.147 0.05876 0.0
O3 O 0.02343 0.18312 0.10855 0.0
Cd4 Cd 0.04133 0.10014 0.08895 0.0
C5 C 0.12657 0.2032 0.04878 0.0
O6 O 0.92995 0.04039 0.07223 0.0
O7 O -7e-05 0.01182 0.06196 0.0
O8 O 0.02046 0.04386 0.12287 0.0
C9 C 0.94169 0.00288 0.06071 0.0
O10 O 0.07063 0.19635 0.0433 0.0
C11 C 0.07048 0.03603 0.12284 0.0
O12 O 0.13264 0.17764 0.06593 0.0
O13 O 0.10884 0.05924 0.10702 0.0
C14 C 0.1906 0.16448 0.44367 0.0
O15 O 0.21232 0.18899 0.42548 0.0
Cd16 Cd 0.14736 0.19333 0.39634 0.0
O17 O 0.12868 0.13705 0.44762 0.0
Cd18 Cd 0.02476 0.11372 0.42809 0.0
C19 C 0.03819 0.0282 0.38589 0.0
O20 O 0.07338 0.22324 0.41184 0.0
O21 O 0.97471 0.15139 0.40092 0.0
O22 O 0.97332 0.13301 0.45904 0.0
C23 C 0.02338 0.21037 0.40029 0.0
O24 O 0.0852 0.08373 0.37949 0.0
C25 C 0.92559 0.07366 0.46045 0.0
O26 O 0.01104 0.02389 0.40379 0.0
O27 O 0.92403 0.03224 0.44695 0.0
C28 C 0.93217 0.13372 0.7349 0.0
O29 O 0.92813 0.15811 0.75254 0.0
Cd30 Cd 0.99199 0.16725 0.78341 0.0
O31 O 0.97154 0.11093 0.73296 0.0
Cd32 Cd 0.05549 0.09989 0.7558 0.0
C33 C 0.94377 0.00428 0.79328 0.0
O34 O 0.10227 0.21372 0.76953 0.0
O35 O 0.14324 0.15825 0.7835 0.0
O36 O 0.10199 0.10029 0.72063 0.0
C37 C 0.14476 0.21305 0.78201 0.0
O38 O 0.94204 0.056 0.79867 0.0
C39 C 0.12582 0.06414 0.72606 0.0
O40 O 0.97888 0.00553 0.77772 0.0
O41 O 0.11742 0.04499 0.74521 0.0
Mg42 Mg 0.02898 0.60725 0.2572 0.0
C43 C 0.01908 0.52377 0.29126 0.0
O44 O 0.95935 0.51112 0.28556 0.0
C45 C 0.04215 0.69517 0.22513 0.0
O46 O 0.97989 0.64792 0.22723 0.0
C47 C 0.00092 0.48634 0.23261 0.0
O48 O 0.04755 0.49359 0.24609 0.0
O49 O 0.97834 0.52581 0.23392 0.0
O50 O 0.06874 0.56855 0.28126 0.0
O51 O 0.97245 0.64059 0.2761 0.0
C52 C 0.00106 0.66677 0.29383 0.0
O53 O 0.05657 0.66823 0.29884 0.0
O54 O 0.08583 0.69349 0.23707 0.0
Mg55 Mg 0.5145 0.06128 0.58895 0.0
C56 C 0.47917 0.10408 0.54923 0.0
O57 O 0.48122 0.05117 0.54334 0.0
C58 C 0.6528 0.13023 0.61019 0.0
O59 O 0.67305 0.13291 0.59059 0.0
C60 C 0.41862 -0.00605 0.62534 0.0
O61 O 0.47171 -0.00063 0.63477 0.0
O62 O 0.42098 0.00787 0.60571 0.0
O63 O 0.49525 0.1252 0.56834 0.0
O64 O 0.54546 0.00857 0.5674 0.0
C65 C 0.58551 0.98797 0.57141 0.0
O66 O 0.60196 0.98516 0.59127 0.0
O67 O 0.59153 0.10889 0.61344 0.0
Mg68 Mg 0.54738 0.59481 0.91633 0.0
C69 C 0.46713 0.5864 0.87693 0.0
O70 O 0.52636 0.62048 0.86859 0.0
C71 C 0.62157 0.66686 0.95399 0.0
O72 O 0.61749 0.6087 0.95447 0.0
C73 C 0.49956 0.46369 0.94625 0.0
O74 O 0.55039 0.45542 0.94279 0.0
O75 O 0.49578 0.51025 0.93721 0.0
O76 O 0.4626 0.57917 0.89701 0.0
O77 O 0.62197 0.60609 0.89333 0.0
C78 C 0.68349 0.64741 0.89645 0.0
O79 O 0.70426 0.67146 0.91572 0.0
O80 O 0.59403 0.67912 0.93846 0.0
H81 H 0.91291 0.26894 0.11072 0.0
H82 H 0.06938 0.25355 0.1427 0.0
H83 H 0.90482 0.32882 0.14138 0.0
H84 H 0.0633 0.31552 0.1729 0.0
H85 H 0.00287 0.37151 0.23245 0.0
H86 H 0.99544 0.30397 0.20183 0.0
H87 H 0.95861 0.4307 0.16093 0.0
H88 H 0.96319 0.49661 0.19197 0.0
C89 C 0.94613 0.27899 0.1242 0.0
C90 C 0.99163 0.25616 0.12429 0.0
C91 C 0.9416 0.31353 0.14178 0.0
C92 C 0.98283 0.32655 0.1598 0.0
C93 C 0.02938 0.30497 0.1596 0.0
C94 C 0.0334 0.26988 0.14216 0.0
C95 C 0.99185 0.38411 0.21696 0.0
C96 C 0.98386 0.43941 0.21457 0.0
C97 C 0.9884 0.34588 0.19933 0.0
C98 C 0.97812 0.3627 0.17875 0.0
C99 C 0.96645 0.41603 0.17651 0.0
C100 C 0.96892 0.45382 0.19429 0.0
H101 H 0.83924 0.94918 0.47531 0.0
H102 H 0.89394 0.15489 0.48207 0.0
H103 H 0.75174 0.91849 0.50179 0.0
H104 H 0.80567 0.12383 0.50793 0.0
H105 H 0.58915 0.02698 0.53031 0.0
H106 H 0.66954 0.0419 0.50329 0.0
H107 H 0.75416 0.95709 0.54501 0.0
H108 H 0.67448 0.94342 0.5726 0.0
C109 C 0.83252 0.98771 0.48241 0.0
C110 C 0.87343 0.05446 0.47664 0.0
C111 C 0.7827 0.97013 0.49755 0.0
C112 C 0.77201 0.01882 0.50674 0.0
C113 C 0.81279 0.08539 0.50095 0.0
C114 C 0.86341 0.10312 0.48623 0.0
C115 C 0.6239 0.01023 0.53371 0.0
C116 C 0.62557 0.98438 0.55376 0.0
C117 C 0.67012 0.01914 0.51822 0.0
C118 C 0.71818 0.00116 0.52219 0.0
C119 C 0.7174 0.97126 0.54161 0.0
C120 C 0.67182 0.96345 0.55736 0.0
H121 H 0.97431 0.90727 0.80091 0.0
H122 H 0.82717 0.96288 0.81371 0.0
H123 H 0.91416 0.8096 0.82366 0.0
H124 H 0.76629 0.86437 0.83569 0.0
H125 H 0.64529 0.64458 0.85488 0.0
H126 H 0.70963 0.72453 0.82743 0.0
H127 H 0.88291 0.8102 0.86857 0.0
H128 H 0.81819 0.73191 0.89651 0.0
C129 C 0.92866 0.89803 0.80829 0.0
C130 C 0.90544 0.94271 0.8056 0.0
C131 C 0.89451 0.8424 0.82128 0.0
C132 C 0.8356 0.82959 0.83123 0.0
C133 C 0.81136 0.87306 0.82801 0.0
C134 C 0.84633 0.92947 0.81554 0.0
C135 C 0.69742 0.67934 0.85799 0.0
C136 C 0.72625 0.68256 0.87808 0.0
C137 C 0.73413 0.72511 0.84224 0.0
C138 C 0.80084 0.77358 0.84604 0.0
C139 C 0.83149 0.77307 0.86531 0.0
C140 C 0.79439 0.72827 0.88127 0.0
H141 H 0.16306 -0.00412 0.1251 0.0
H142 H -0.00054 0.98911 0.15902 0.0
H143 H 0.16677 0.91902 0.15092 0.0
H144 H 0.00352 0.91328 0.18453 0.0
H145 H 0.95509 0.70309 0.19839 0.0
H146 H 0.97301 0.79284 0.17531 0.0
H147 H 0.18059 0.90109 0.19349 0.0
H148 H 0.16262 0.80978 0.21729 0.0
C149 C 0.12883 0.97908 0.13824 0.0
C150 C 0.08024 -0.00227 0.13982 0.0
C151 C 0.13124 0.93543 0.15304 0.0
C152 C 0.08494 0.90973 0.16954 0.0
C153 C 0.03929 0.93174 0.1718 0.0
C154 C 0.03696 0.97517 0.15715 0.0
C155 C 0.00486 0.74568 0.19761 0.0
C156 C 0.05732 0.7494 0.20996 0.0
C157 C 0.01494 0.79733 0.18436 0.0
C158 C 0.07785 0.85434 0.18289 0.0
C159 C 0.13146 0.85762 0.19447 0.0
C160 C 0.12118 0.80555 0.20805 0.0
H161 H 0.16539 0.1242 0.48526 0.0
H162 H 0.32368 0.21203 0.43957 0.0
H163 H 0.2431 0.12367 0.51157 0.0
H164 H 0.4009 0.21192 0.46587 0.0
H165 H 0.47591 0.09587 0.50628 0.0
H166 H 0.4106 0.12067 0.48167 0.0
H167 H 0.34701 0.19575 0.53376 0.0
H168 H 0.41295 0.17049 0.55865 0.0
C169 C 0.21676 0.1439 0.48087 0.0
C170 C 0.238 0.16738 0.46019 0.0
C171 C 0.2614 0.14417 0.49602 0.0
C172 C 0.32808 0.16756 0.49077 0.0
C173 C 0.34969 0.19296 0.47033 0.0
C174 C 0.30531 0.193 0.45526 0.0
C175 C 0.4491 0.11891 0.51247 0.0
C176 C 0.44946 0.13115 0.53439 0.0
C177 C 0.4118 0.13334 0.49834 0.0
C178 C 0.37337 0.15989 0.50577 0.0
C179 C 0.37576 0.17479 0.52762 0.0
C180 C 0.41398 0.16101 0.54181 0.0
H181 H 0.21385 0.21552 0.81769 0.0
H182 H 0.17461 0.34153 0.77739 0.0
H183 H 0.28426 0.31067 0.84078 0.0
H184 H 0.24612 0.43706 0.80039 0.0
H185 H 0.45553 0.59005 0.83363 0.0
H186 H 0.37256 0.50188 0.81048 0.0
H187 H 0.26793 0.39011 0.86567 0.0
H188 H 0.34996 0.47821 0.88884 0.0
C189 C 0.22041 0.26355 0.81373 0.0
C190 C 0.18873 0.27104 0.79572 0.0
C191 C 0.26028 0.31789 0.82703 0.0
C192 C 0.27022 0.38111 0.82244 0.0
C193 C 0.23926 0.38888 0.80429 0.0
C194 C 0.19836 0.33422 0.79117 0.0
C195 C 0.4139 0.54748 0.84083 0.0
C196 C 0.40975 0.54108 0.86309 0.0
C197 C 0.36646 0.497 0.82757 0.0
C198 C 0.3145 0.43878 0.83631 0.0
C199 C 0.30807 0.4341 0.85853 0.0
C200 C 0.35481 0.48494 0.87178 0.0
H201 H 0.85124 0.18656 0.73344 0.0
H202 H 0.92374 0.08437 0.69437 0.0
H203 H 0.78839 0.192 0.70332 0.0
H204 H 0.85894 0.08833 0.66417 0.0
H205 H 0.78288 0.16089 0.60925 0.0
H206 H 0.85215 0.16398 0.63914 0.0
H207 H 0.69222 0.12069 0.6822 0.0
H208 H 0.62384 0.11922 0.65253 0.0
C209 C 0.85345 0.16472 0.71845 0.0
C210 C 0.89247 0.13472 0.71641 0.0
C211 C 0.81706 0.16767 0.70115 0.0
C212 C 0.81832 0.14046 0.68129 0.0
C213 C 0.85746 0.11055 0.67917 0.0
C214 C 0.89418 0.10775 0.69653 0.0
C215 C 0.76287 0.15301 0.62514 0.0
C216 C 0.69777 0.1399 0.62847 0.0
C217 C 0.80236 0.15406 0.64225 0.0
C218 C 0.7777 0.14212 0.66309 0.0
C219 C 0.71323 0.13083 0.66643 0.0
C220 C 0.67385 0.12984 0.64937 0.0
H221 H 0.82094 0.98795 0.0493 0.0
H222 H 0.95079 0.91002 0.03705 0.0
H223 H 0.73984 0.90842 0.0235 0.0
H224 H 0.87024 0.83123 0.0114 0.0
H225 H 0.6821 0.64968 0.98839 0.0
H226 H 0.75628 0.73203 0.01419 0.0
H227 H 0.7288 0.88117 0.98318 0.0
H228 H 0.65344 0.79782 0.95696 0.0
C229 C 0.8321 0.95385 0.04114 0.0
C230 C 0.89204 0.95489 0.04531 0.0
C231 C 0.78594 0.90877 0.02628 0.0
C232 C 0.79862 0.86349 0.01554 0.0
C233 C 0.85875 0.86501 0.01964 0.0
C234 C 0.90498 0.91027 0.03429 0.0
C235 C 0.69137 0.69986 0.987 0.0
C236 C 0.66228 0.71729 0.97044 0.0
C237 C 0.73421 0.74714 1.00179 0.0
C238 C 0.74903 0.81316 1.00053 0.0
C239 C 0.71812 0.83049 0.98451 0.0
C240 C 0.67521 0.78293 0.96951 0.0
H241 H 0.96187 0.8972 0.39695 0.0
H242 H 0.06276 0.0238 0.34376 0.0
H243 H 0.93185 0.7994 0.37467 0.0
H244 H 0.0327 0.92652 0.32166 0.0
H245 H 0.94552 0.74131 0.28217 0.0
H246 H 0.93769 0.82323 0.3047 0.0
H247 H 0.00304 0.7577 0.3591 0.0
H248 H 0.01117 0.67683 0.33667 0.0
C249 C 0.97695 0.90418 0.38048 0.0
C250 C 0.01545 0.96835 0.37222 0.0
C251 C 0.95972 0.8482 0.36773 0.0
C252 C 0.97973 0.85526 0.34639 0.0
C253 C 0.01571 0.91932 0.33793 0.0
C254 C 0.03363 0.97515 0.35071 0.0
C255 C 0.95594 0.74306 0.29907 0.0
C256 C 0.97929 0.70316 0.3077 0.0
C257 C 0.95207 0.79024 0.31192 0.0
C258 C 0.97039 0.79731 0.33363 0.0
C259 C 0.98819 0.7533 0.3425 0.0
C260 C 0.99307 0.70712 0.32964 0.0
H261 H 0.10853 0.04855 0.683 0.0
H262 H 0.22444 0.03754 0.73502 0.0
H263 H 0.16805 0.01808 0.65805 0.0
H264 H 0.28816 0.01259 0.71014 0.0
H265 H 0.37709 0.93517 0.6641 0.0
H266 H 0.29833 0.94183 0.68772 0.0
H267 H 0.26423 0.05602 0.64043 0.0
H268 H 0.33837 0.04435 0.6165 0.0
C269 C 0.14742 0.0403 0.68904 0.0
C270 C 0.16205 0.04562 0.71091 0.0
C271 C 0.18211 0.02323 0.67471 0.0
C272 C 0.23389 0.0131 0.68182 0.0
C273 C 0.24799 0.01832 0.70386 0.0
C274 C 0.2119 0.03342 0.71822 0.0
C275 C 0.35133 0.96023 0.65866 0.0
C276 C 0.36382 0.98901 0.63844 0.0
C277 C 0.30675 0.96502 0.67232 0.0
C278 C 0.27506 0.00056 0.66635 0.0
C279 C 0.28617 0.02725 0.64572 0.0
C280 C 0.32921 0.0208 0.63189 0.0
H281 H 0.25677 0.23402 0.05467 0.0
H282 H 0.12561 0.25293 0.00983 0.0
H283 H 0.34964 0.2944 0.03028 0.0
H284 H 0.21689 0.311 0.98563 0.0
H285 H 0.40048 0.48283 0.95997 0.0
H286 H 0.31509 0.41949 0.98539 0.0
H287 H 0.39359 0.28857 0.99415 0.0
H288 H 0.48178 0.35399 0.9686 0.0
C289 C 0.24766 0.25083 0.03966 0.0
C290 C 0.18382 0.23936 0.03438 0.0
C291 C 0.3007 0.28489 0.02564 0.0
C292 C 0.2908 0.3081 0.00612 0.0
C293 C 0.22665 0.29509 1.00073 0.0
C294 C 0.1741 0.26154 0.01465 0.0
C295 C 0.39999 0.44053 0.96716 0.0
C296 C 0.44783 0.42314 0.96198 0.0
C297 C 0.35057 0.40396 0.98177 0.0
C298 C 0.3468 0.34834 0.99158 0.0
C299 C 0.3953 0.33132 0.98685 0.0
C300 C 0.44546 0.36845 0.97215 0.0
H301 H 0.12452 0.33757 0.39385 0.0
H302 H 0.92707 0.19279 0.37162 0.0
H303 H 0.12784 0.4172 0.36805 0.0
H304 H 0.93092 0.27158 0.34565 0.0
H305 H 0.92455 0.44616 0.31925 0.0
H306 H 0.92873 0.37393 0.34595 0.0
H307 H 0.13157 0.43815 0.32923 0.0
H308 H 0.12774 0.51236 0.3024 0.0
C309 C 0.08189 0.32274 0.38346 0.0
C310 C 0.02532 0.25903 0.38488 0.0
C311 C 0.08401 0.36816 0.36857 0.0
C312 C 0.02954 0.35089 0.35487 0.0
C313 C 0.97329 0.28692 0.35621 0.0
C314 C 0.97117 0.24163 0.37106 0.0
C315 C 0.97031 0.44529 0.32124 0.0
C316 C 0.02567 0.48454 0.30853 0.0
C317 C 0.97251 0.40346 0.33651 0.0
C318 C 0.03002 0.39932 0.33948 0.0
C319 C 0.08649 0.44032 0.32733 0.0
C320 C 0.08434 0.48269 0.31197 0.0
loop_
_geom_bond_atom_site_label_1
_geom_bond_atom_site_label_2
_geom_bond_distance
_geom_bond_site_symmetry_2
_ccdc_geom_bond_type
C0 O1 1.306 . S
C0 O3 1.160 . S
O1 C0 1.306 . S
O1 Cd2 2.228 1_455 S
Cd2 O1 2.228 1_655 S
Cd2 O6 2.273 . S
Cd2 O10 2.277 1_655 S
O3 C0 1.160 . S
O3 Cd4 2.203 . S
Cd4 O3 2.203 . S
Cd4 O6 2.411 1_455 S
Cd4 O7 2.333 . S
Cd4 O8 2.352 . S
Cd4 O12 2.277 . S
Cd4 O13 2.356 . S
C5 O10 1.209 . S
C5 O12 1.226 . S
O6 Cd2 2.273 . S
O6 Cd4 2.411 1_655 S
O6 C9 1.320 . S
O7 Cd4 2.333 . S
O7 C9 1.214 1_455 S
O8 Cd4 2.352 . S
O8 C11 1.258 . S
C9 O6 1.320 . S
C9 O7 1.214 1_655 S
O10 Cd2 2.277 1_455 S
O10 C5 1.209 . S
C11 O8 1.258 . S
C11 O13 1.282 . S
O12 Cd4 2.277 . S
O12 C5 1.226 . S
O13 Cd4 2.356 . S
O13 C11 1.282 . S
C14 O15 1.306 . S
C14 O17 1.160 . S
O15 C14 1.306 . S
O15 Cd16 2.228 . S
Cd16 O15 2.228 . S
Cd16 O20 2.273 . S
Cd16 O24 2.277 . S
O17 C14 1.160 . S
O17 Cd18 2.203 . S
Cd18 O17 2.203 . S
Cd18 O20 2.411 . S
Cd18 O21 2.333 1_455 S
Cd18 O22 2.352 1_455 S
Cd18 O26 2.277 1_445 S
Cd18 O27 2.356 1_455 S
C19 O24 1.208 . S
C19 O26 1.226 1_445 S
O20 Cd16 2.273 . S
O20 Cd18 2.411 . S
O20 C23 1.320 . S
O21 Cd18 2.333 1_655 S
O21 C23 1.214 1_655 S
O22 Cd18 2.352 1_655 S
O22 C25 1.258 . S
C23 O20 1.320 . S
C23 O21 1.214 1_455 S
O24 Cd16 2.277 . S
O24 C19 1.208 . S
C25 O22 1.258 . S
C25 O27 1.282 . S
O26 Cd18 2.277 1_665 S
O26 C19 1.226 1_665 S
O27 Cd18 2.356 1_655 S
O27 C25 1.282 . S
C28 O29 1.306 . S
C28 O31 1.160 . S
O29 C28 1.306 . S
O29 Cd30 2.228 . S
Cd30 O29 2.228 . S
Cd30 O34 2.273 1_655 S
Cd30 O38 2.277 . S
O31 C28 1.160 . S
O31 Cd32 2.203 1_655 S
Cd32 O31 2.203 1_455 S
Cd32 O34 2.411 . S
Cd32 O35 2.333 . S
Cd32 O36 2.352 . S
Cd32 O40 2.277 1_445 S
Cd32 O41 2.356 . S
C33 O38 1.209 . S
C33 O40 1.226 1_545 S
O34 Cd30 2.273 1_455 S
O34 Cd32 2.411 . S
O34 C37 1.320 . S
O35 Cd32 2.333 . S
O35 C37 1.214 . S
O36 Cd32 2.352 . S
O36 C39 1.258 . S
C37 O34 1.320 . S
C37 O35 1.214 . S
O38 Cd30 2.277 . S
O38 C33 1.209 . S
C39 O36 1.258 . S
C39 O41 1.282 . S
O40 Cd32 2.277 1_665 S
O40 C33 1.226 1_565 S
O41 Cd32 2.356 . S
O41 C39 1.282 . S
Mg42 O49 2.141 . S
Mg42 O50 2.048 . S
Mg42 O51 2.048 . S
Mg42 O54 2.141 . S
C43 O44 1.313 1_455 S
C43 O50 1.195 . S
O44 C43 1.313 1_655 S
C45 O46 1.245 1_455 S
C45 O54 1.289 . S
O46 C45 1.245 1_655 S
C47 O48 1.245 1_455 S
C47 O49 1.289 . S
O48 C47 1.245 1_655 S
O49 Mg42 2.141 . S
O49 C47 1.289 . S
O50 Mg42 2.048 . S
O50 C43 1.195 . S
O51 Mg42 2.048 . S
O51 C52 1.195 . S
C52 O51 1.195 . S
C52 O53 1.313 1_455 S
O53 C52 1.313 1_655 S
O54 Mg42 2.141 . S
O54 C45 1.289 . S
Mg55 O62 2.141 . S
Mg55 O63 2.048 . S
Mg55 O64 2.048 . S
Mg55 O67 2.141 . S
C56 O57 1.313 . S
C56 O63 1.195 . S
O57 C56 1.313 . S
C58 O59 1.245 . S
C58 O67 1.289 . S
O59 C58 1.245 . S
C60 O61 1.245 . S
C60 O62 1.289 . S
O61 C60 1.245 . S
O62 Mg55 2.141 . S
O62 C60 1.289 . S
O63 Mg55 2.048 . S
O63 C56 1.195 . S
O64 Mg55 2.048 . S
O64 C65 1.195 . S
C65 O64 1.195 . S
C65 O66 1.313 . S
O66 C65 1.313 . S
O67 Mg55 2.141 . S
O67 C58 1.289 . S
Mg68 O75 2.141 . S
Mg68 O76 2.048 . S
Mg68 O77 2.048 . S
Mg68 O80 2.141 . S
C69 O70 1.313 . S
C69 O76 1.195 . S
O70 C69 1.313 . S
C71 O72 1.245 . S
C71 O80 1.289 . S
O72 C71 1.245 . S
C73 O74 1.245 . S
C73 O75 1.289 . S
O74 C73 1.245 . S
O75 Mg68 2.141 . S
O75 C73 1.289 . S
O76 Mg68 2.048 . S
O76 C69 1.195 . S
O77 Mg68 2.048 . S
O77 C78 1.195 . S
C78 O77 1.195 . S
C78 O79 1.313 . S
O79 C78 1.313 . S
O80 Mg68 2.141 . S
O80 C71 1.289 . S
H81 C89 0.950 . S
H82 C94 0.950 . S
H83 C91 0.950 . S
H84 C93 0.950 . S
H85 C95 0.950 . S
H86 C97 0.950 . S
H87 C99 0.950 . S
H88 C100 0.950 . S
C89 H81 0.950 . S
C89 C90 1.386 . S
C89 C91 1.391 . S
C90 C89 1.386 . S
C90 C94 1.393 . S
C91 H83 0.950 . S
C91 C89 1.391 . S
C91 C92 1.400 . S
C92 C91 1.400 . S
C92 C93 1.398 . S
C92 C98 1.491 . S
C93 H84 0.950 . S
C93 C92 1.398 . S
C93 C94 1.391 . S
C94 H82 0.950 . S
C94 C90 1.393 . S
C94 C93 1.391 . S
C95 H85 0.950 . S
C95 C96 1.386 . S
C95 C97 1.391 . S
C96 C95 1.386 . S
C96 C100 1.393 . S
C97 H86 0.950 . S
C97 C95 1.391 . S
C97 C98 1.400 . S
C98 C92 1.491 . S
C98 C97 1.400 . S
C98 C99 1.398 . S
C99 H87 0.950 . S
C99 C98 1.398 . S
C99 C100 1.391 . S
C100 H88 0.950 . S
C100 C96 1.393 . S
C100 C99 1.391 . S
H101 C109 0.950 . S
H102 C114 0.950 . S
H103 C111 0.950 . S
H104 C113 0.950 . S
H105 C115 0.950 . S
H106 C117 0.950 . S
H107 C119 0.950 . S
H108 C120 0.950 . S
C109 H101 0.950 . S
C109 C110 1.386 . S
C109 C111 1.391 . S
C110 C109 1.386 . S
C110 C114 1.393 . S
C111 H103 0.950 . S
C111 C109 1.391 . S
C111 C112 1.400 . S
C112 C111 1.400 . S
C112 C113 1.398 . S
C112 C118 1.491 . S
C113 H104 0.950 . S
C113 C112 1.398 . S
C113 C114 1.391 . S
C114 H102 0.950 . S
C114 C110 1.393 . S
C114 C113 1.391 . S
C115 H105 0.950 . S
C115 C116 1.386 . S
C115 C117 1.391 . S
C116 C115 1.386 . S
C116 C120 1.393 . S
C117 H106 0.950 . S
C117 C115 1.391 . S
C117 C118 1.400 . S
C118 C112 1.491 . S
C118 C117 1.400 . S
C118 C119 1.398 . S
C119 H107 0.950 . S
C119 C118 1.398 . S
C119 C120 1.391 . S
C120 H108 0.950 . S
C120 C116 1.393 . S
C120 C119 1.391 . S
H121 C129 0.950 . S
H122 C134 0.950 . S
H123 C131 0.950 . S
H124 C133 0.950 . S
H125 C135 0.950 . S
H126 C137 0.950 . S
H127 C139 0.950 . S
H128 C140 0.950 . S
C129 H121 0.950 . S
C129 C130 1.386 . S
C129 C131 1.391 . S
C130 C129 1.386 . S
C130 C134 1.393 . S
C131 H123 0.950 . S
C131 C129 1.391 . S
C131 C132 1.400 . S
C132 C131 1.400 . S
C132 C133 1.398 . S
C132 C138 1.491 . S
C133 H124 0.950 . S
C133 C132 1.398 . S
C133 C134 1.391 . S
C134 H122 0.950 . S
C134 C130 1.393 . S
C134 C133 1.391 . S
C135 H125 0.950 . S
C135 C136 1.386 . S
C135 C137 1.391 . S
C136 C135 1.386 . S
C136 C140 1.393 . S
C137 H126 0.950 . S
C137 C135 1.391 . S
C137 C138 1.400 . S
C138 C132 1.491 . S
C138 C137 1.400 . S
C138 C139 1.398 . S
C139 H127 0.950 . S
C139 C138 1.398 . S
C139 C140 1.391 . S
C140 H128 0.950 . S
C140 C136 1.393 . S
C140 C139 1.391 . S
H141 C149 0.950 . S
H142 C154 0.950 1_545 S
H143 C151 0.950 . S
H144 C153 0.950 . S
H145 C155 0.950 . S
H146 C157 0.950 . S
H147 C159 0.950 . S
H148 C160 0.950 . S
C149 H141 0.950 . S
C149 C150 1.386 . S
C149 C151 1.391 . S
C150 C149 1.386 . S
C150 C154 1.393 . S
C151 H143 0.950 . S
C151 C149 1.391 . S
C151 C152 1.400 . S
C152 C151 1.400 . S
C152 C153 1.398 . S
C152 C158 1.491 . S
C153 H144 0.950 . S
C153 C152 1.398 . S
C153 C154 1.391 . S
C154 H142 0.950 1_565 S
C154 C150 1.393 . S
C154 C153 1.391 . S
C155 H145 0.950 . S
C155 C156 1.386 . S
C155 C157 1.391 . S
C156 C155 1.386 . S
C156 C160 1.393 . S
C157 H146 0.950 . S
C157 C155 1.391 . S
C157 C158 1.400 . S
C158 C152 1.491 . S
C158 C157 1.400 . S
C158 C159 1.398 . S
C159 H147 0.950 . S
C159 C158 1.398 . S
C159 C160 1.391 . S
C160 H148 0.950 . S
C160 C156 1.393 . S
C160 C159 1.391 . S
H161 C169 0.950 . S
H162 C174 0.950 . S
H163 C171 0.950 . S
H164 C173 0.950 . S
H165 C175 0.950 . S
H166 C177 0.950 . S
H167 C179 0.950 . S
H168 C180 0.950 . S
C169 H161 0.950 . S
C169 C170 1.386 . S
C169 C171 1.391 . S
C170 C169 1.386 . S
C170 C174 1.393 . S
C171 H163 0.950 . S
C171 C169 1.391 . S
C171 C172 1.400 . S
C172 C171 1.400 . S
C172 C173 1.398 . S
C172 C178 1.491 . S
C173 H164 0.950 . S
C173 C172 1.398 . S
C173 C174 1.391 . S
C174 H162 0.950 . S
C174 C170 1.393 . S
C174 C173 1.391 . S
C175 H165 0.950 . S
C175 C176 1.386 . S
C175 C177 1.391 . S
C176 C175 1.386 . S
C176 C180 1.393 . S
C177 H166 0.950 . S
C177 C175 1.391 . S
C177 C178 1.400 . S
C178 C172 1.491 . S
C178 C177 1.400 . S
C178 C179 1.398 . S
C179 H167 0.950 . S
C179 C178 1.398 . S
C179 C180 1.391 . S
C180 H168 0.950 . S
C180 C176 1.393 . S
C180 C179 1.391 . S
H181 C189 0.950 . S
H182 C194 0.950 . S
H183 C191 0.950 . S
H184 C193 0.950 . S
H185 C195 0.950 . S
H186 C197 0.950 . S
H187 C199 0.950 . S
H188 C200 0.950 . S
C189 H181 0.950 . S
C189 C190 1.386 . S
C189 C191 1.391 . S
C190 C189 1.386 . S
C190 C194 1.393 . S
C191 H183 0.950 . S
C191 C189 1.391 . S
C191 C192 1.400 . S
C192 C191 1.400 . S
C192 C193 1.398 . S
C192 C198 1.491 . S
C193 H184 0.950 . S
C193 C192 1.398 . S
C193 C194 1.391 . S
C194 H182 0.950 . S
C194 C190 1.393 . S
C194 C193 1.391 . S
C195 H185 0.950 . S
C195 C196 1.386 . S
C195 C197 1.391 . S
C196 C195 1.386 . S
C196 C200 1.393 . S
C197 H186 0.950 . S
C197 C195 1.391 . S
C197 C198 1.400 . S
C198 C192 1.491 . S
C198 C197 1.400 . S
C198 C199 1.398 . S
C199 H187 0.950 . S
C199 C198 1.398 . S
C199 C200 1.391 . S
C200 H188 0.950 . S
C200 C196 1.393 . S
C200 C199 1.391 . S
H201 C209 0.950 . S
H202 C214 0.950 . S
H203 C211 0.950 . S
H204 C213 0.950 . S
H205 C215 0.950 . S
H206 C217 0.950 . S
H207 C219 0.950 . S
H208 C220 0.950 . S
C209 H201 0.950 . S
C209 C210 1.386 . S
C209 C211 1.391 . S
C210 C209 1.386 . S
C210 C214 1.393 . S
C211 H203 0.950 . S
C211 C209 1.391 . S
C211 C212 1.400 . S
C212 C211 1.400 . S
C212 C213 1.398 . S
C212 C218 1.491 . S
C213 H204 0.950 . S
C213 C212 1.398 . S
C213 C214 1.391 . S
C214 H202 0.950 . S
C214 C210 1.393 . S
C214 C213 1.391 . S
C215 H205 0.950 . S
C215 C216 1.386 . S
C215 C217 1.391 . S
C216 C215 1.386 . S
C216 C220 1.393 . S
C217 H206 0.950 . S
C217 C215 1.391 . S
C217 C218 1.400 . S
C218 C212 1.491 . S
C218 C217 1.400 . S
C218 C219 1.398 . S
C219 H207 0.950 . S
C219 C218 1.398 . S
C219 C220 1.391 . S
C220 H208 0.950 . S
C220 C216 1.393 . S
C220 C219 1.391 . S
H221 C229 0.950 1_545 S
H222 C234 0.950 . S
H223 C231 0.950 . S
H224 C233 0.950 . S
H225 C235 0.950 . S
H226 C237 0.950 . S
H227 C239 0.950 . S
H228 C240 0.950 . S
C229 H221 0.950 1_565 S
C229 C230 1.386 . S
C229 C231 1.391 . S
C230 C229 1.386 . S
C230 C234 1.393 . S
C231 H223 0.950 . S
C231 C229 1.391 . S
C231 C232 1.400 . S
C232 C231 1.400 . S
C232 C233 1.398 . S
C232 C238 1.491 1_554 S
C233 H224 0.950 . S
C233 C232 1.398 . S
C233 C234 1.391 . S
C234 H222 0.950 . S
C234 C230 1.393 . S
C234 C233 1.391 . S
C235 H225 0.950 . S
C235 C236 1.386 . S
C235 C237 1.391 . S
C236 C235 1.386 . S
C236 C240 1.393 . S
C237 H226 0.950 . S
C237 C235 1.391 . S
C237 C238 1.400 . S
C238 C232 1.491 1_556 S
C238 C237 1.400 . S
C238 C239 1.398 . S
C239 H227 0.950 . S
C239 C238 1.398 . S
C239 C240 1.391 . S
C240 H228 0.950 . S
C240 C236 1.393 . S
C240 C239 1.391 . S
H241 C249 0.950 . S
H242 C254 0.950 . S
H243 C251 0.950 . S
H244 C253 0.950 . S
H245 C255 0.950 . S
H246 C257 0.950 . S
H247 C259 0.950 . S
H248 C260 0.950 . S
C249 H241 0.950 . S
C249 C250 1.386 1_655 S
C249 C251 1.391 . S
C250 C249 1.386 1_455 S
C250 C254 1.393 . S
C251 H243 0.950 . S
C251 C249 1.391 . S
C251 C252 1.400 1_655 S
C252 C251 1.400 1_455 S
C252 C253 1.398 . S
C252 C258 1.491 . S
C253 H244 0.950 . S
C253 C252 1.398 . S
C253 C254 1.391 . S
C254 H242 0.950 . S
C254 C250 1.393 . S
C254 C253 1.391 . S
C255 H245 0.950 . S
C255 C256 1.386 . S
C255 C257 1.391 . S
C256 C255 1.386 . S
C256 C260 1.393 1_455 S
C257 H246 0.950 . S
C257 C255 1.391 . S
C257 C258 1.400 . S
C258 C252 1.491 . S
C258 C257 1.400 . S
C258 C259 1.398 1_455 S
C259 H247 0.950 . S
C259 C258 1.398 1_655 S
C259 C260 1.391 . S
C260 H248 0.950 . S
C260 C256 1.393 1_655 S
C260 C259 1.391 . S
H261 C269 0.950 . S
H262 C274 0.950 . S
H263 C271 0.950 . S
H264 C273 0.950 . S
H265 C275 0.950 . S
H266 C277 0.950 . S
H267 C279 0.950 . S
H268 C280 0.950 . S
C269 H261 0.950 . S
C269 C270 1.386 . S
C269 C271 1.391 . S
C270 C269 1.386 . S
C270 C274 1.393 . S
C271 H263 0.950 . S
C271 C269 1.391 . S
C271 C272 1.400 . S
C272 C271 1.400 . S
C272 C273 1.398 . S
C272 C278 1.491 . S
C273 H264 0.950 . S
C273 C272 1.398 . S
C273 C274 1.391 . S
C274 H262 0.950 . S
C274 C270 1.393 . S
C274 C273 1.391 . S
C275 H265 0.950 . S
C275 C276 1.386 . S
C275 C277 1.391 . S
C276 C275 1.386 . S
C276 C280 1.393 . S
C277 H266 0.950 . S
C277 C275 1.391 . S
C277 C278 1.400 . S
C278 C272 1.491 . S
C278 C277 1.400 . S
C278 C279 1.398 . S
C279 H267 0.950 . S
C279 C278 1.398 . S
C279 C280 1.391 . S
C280 H268 0.950 . S
C280 C276 1.393 . S
C280 C279 1.391 . S
H281 C289 0.950 . S
H282 C294 0.950 . S
H283 C291 0.950 . S
H284 C293 0.950 1_556 S
H285 C295 0.950 . S
H286 C297 0.950 . S
H287 C299 0.950 1_554 S
H288 C300 0.950 . S
C289 H281 0.950 . S
C289 C290 1.386 . S
C289 C291 1.391 . S
C290 C289 1.386 . S
C290 C294 1.393 . S
C291 H283 0.950 . S
C291 C289 1.391 . S
C291 C292 1.400 . S
C292 C291 1.400 . S
C292 C293 1.398 . S
C292 C298 1.491 1_554 S
C293 H284 0.950 1_554 S
C293 C292 1.398 . S
C293 C294 1.391 . S
C294 H282 0.950 . S
C294 C290 1.393 . S
C294 C293 1.391 . S
C295 H285 0.950 . S
C295 C296 1.386 . S
C295 C297 1.391 . S
C296 C295 1.386 . S
C296 C300 1.393 . S
C297 H286 0.950 . S
C297 C295 1.391 . S
C297 C298 1.400 . S
C298 C292 1.491 1_556 S
C298 C297 1.400 . S
C298 C299 1.398 . S
C299 H287 0.950 1_556 S
C299 C298 1.398 . S
C299 C300 1.391 . S
C300 H288 0.950 . S
C300 C296 1.393 . S
C300 C299 1.391 . S
H301 C309 0.950 . S
H302 C314 0.950 . S
H303 C311 0.950 . S
H304 C313 0.950 . S
H305 C315 0.950 . S
H306 C317 0.950 . S
H307 C319 0.950 . S
H308 C320 0.950 . S
C309 H301 0.950 . S
C309 C310 1.386 . S
C309 C311 1.391 . S
C310 C309 1.386 . S
C310 C314 1.393 1_455 S
C311 H303 0.950 . S
C311 C309 1.391 . S
C311 C312 1.400 . S
C312 C311 1.400 . S
C312 C313 1.398 1_455 S
C312 C318 1.491 . S
C313 H304 0.950 . S
C313 C312 1.398 1_655 S
C313 C314 1.391 . S
C314 H302 0.950 . S
C314 C310 1.393 1_655 S
C314 C313 1.391 . S
C315 H305 0.950 . S
C315 C316 1.386 1_655 S
C315 C317 1.391 . S
C316 C315 1.386 1_455 S
C316 C320 1.393 . S
C317 H306 0.950 . S
C317 C315 1.391 . S
C317 C318 1.400 1_655 S
C318 C312 1.491 . S
C318 C317 1.400 1_455 S
C318 C319 1.398 . S
C319 H307 0.950 . S
C319 C318 1.398 . S
C319 C320 1.391 . S
C320 H308 0.950 . S
C320 C316 1.393 . S
C320 C319 1.391 . S
C96 C47 1.398 . S
C90 C0 1.404 . S
C110 C25 1.483 . S
C116 C65 1.479 . S
C130 C33 1.501 1_565 S
C136 C78 1.492 . S
C150 C11 1.370 1_565 S
C156 C45 1.353 . S
C176 C56 1.487 . S
C170 C14 1.485 . S
C190 C37 1.489 . S
C196 C69 1.496 . S
C216 C58 1.406 . S
C210 C28 1.418 . S
C230 C9 1.427 1_565 S
C236 C71 1.419 . S
C256 C52 1.507 . S
C250 C19 1.515 1_565 S
C276 C60 1.396 . S
C270 C39 1.414 . S
C296 C73 1.426 . S
C290 C5 1.436 . S
C310 C23 1.534 . S
C316 C43 1.539 . S
