# Generated by pormake.
# Topology rtl, (3,6)-cn, num edge types: 1
# Building blocks:
#     Node 0, Type 0, BuildingBlock: WUSLED_clean_sbu_0, # of connection points: 3
#     Node 1, Type 0, BuildingBlock: WUSLED_clean_sbu_0, # of connection points: 3
#     Node 2, Type 0, BuildingBlock: WUSLED_clean_sbu_0, # of connection points: 3
#     Node 3, Type 0, BuildingBlock: WUSLED_clean_sbu_0, # of connection points: 3
#     Node 4, Type 1, BuildingBlock: VOLQOD_clean_sbu_1, # of connection points: 6
#     Node 5, Type 1, BuildingBlock: VOLQOD_clean_sbu_1, # of connection points: 6
#     Edge 6, Type (0, 1), BuildingBlock: FUNLAD_clean_linker_0, # of connection points: 2
#     Edge 7, Type (0, 1), BuildingBlock: FUNLAD_clean_linker_0, # of connection points: 2
#     Edge 8, Type (0, 1), BuildingBlock: FUNLAD_clean_linker_0, # of connection points: 2
#     Edge 9, Type (0, 1), BuildingBlock: FUNLAD_clean_linker_0, # of connection points: 2
#     Edge 10, Type (0, 1), BuildingBlock: FUNLAD_clean_linker_0, # of connection points: 2
#     Edge 11, Type (0, 1), BuildingBlock: FUNLAD_clean_linker_0, # of connection points: 2
#     Edge 12, Type (0, 1), BuildingBlock: FUNLAD_clean_linker_0, # of connection points: 2
#     Edge 13, Type (0, 1), BuildingBlock: FUNLAD_clean_linker_0, # of connection points: 2
#     Edge 14, Type (0, 1), BuildingBlock: FUNLAD_clean_linker_0, # of connection points: 2
#     Edge 15, Type (0, 1), BuildingBlock: FUNLAD_clean_linker_0, # of connection points: 2
#     Edge 16, Type (0, 1), BuildingBlock: FUNLAD_clean_linker_0, # of connection points: 2
#     Edge 17, Type (0, 1), BuildingBlock: FUNLAD_clean_linker_0, # of connection points: 2
# Relax obj value: 0.076
# Max RMSD: 0.155
# Mean RMSD: 0.086
data_MOF--net-rtl--node1-WUSLED_clean_sbu_0--node2-VOLQOD_clean_sbu_1--edge1-FUNLAD_clean_linker_0
_symmetry_space_group_name_H-M    P1
_symmetry_Int_Tables_number       1
_symmetry_cell_setting            triclinic
loop_
_symmetry_equiv_pos_as_xyz
'x, y, z'
_cell_length_a     53.778794
_cell_length_b     46.782705
_cell_length_c     34.587264
_cell_angle_alpha  90.300528
_cell_angle_beta   90.588285
_cell_angle_gamma 90.185074
loop_
_atom_site_label
_atom_site_type_symbol
_atom_site_fract_x
_atom_site_fract_y
_atom_site_fract_z
_atom_type_partial_charge
C0 C 0.10637 0.79651 0.07265 0.0
C1 C 0.08395 0.81114 0.07746 0.0
C2 C 0.09437 0.82028 0.14506 0.0
C3 C 0.07796 0.8229 0.11335 0.0
C4 C 0.11657 0.80485 0.14034 0.0
C5 C 0.1225 0.79299 0.10439 0.0
U6 U 0.14653 0.75255 0.00369 0.0
O7 O 0.15569 0.71427 0.03765 0.0
O8 O 0.1812 0.75101 0.03768 0.0
C9 C 0.17773 0.72425 0.04773 0.0
C10 C 0.11326 0.78669 0.03388 0.0
C11 C 0.19872 0.70525 0.03974 0.0
C12 C 0.23244 0.67546 0.0631 0.0
C13 C 0.21165 0.69245 0.07037 0.0
C14 C 0.22732 0.68366 0.99434 0.0
C15 C 0.24065 0.67109 0.02502 0.0
C16 C 0.2065 0.70058 0.00165 0.0
C17 C 0.13531 0.76351 0.89734 0.0
C18 C 0.13344 0.78155 0.83173 0.0
C19 C 0.1013 0.79422 0.87729 0.0
C20 C 0.11315 0.77791 0.90566 0.0
C21 C 0.11153 0.79665 0.84017 0.0
C22 C 0.14524 0.76514 0.86015 0.0
C23 C 0.14914 0.74894 0.92823 0.0
O24 O 0.10877 0.75964 0.02591 0.0
O25 O 0.13512 0.79544 0.02204 0.0
O26 O 0.13612 0.731 0.94915 0.0
O27 O 0.16349 0.76589 0.94911 0.0
H28 H 0.07135 0.81412 0.05317 0.0
H29 H 0.06088 0.83495 0.11587 0.0
H30 H 0.12945 0.80219 0.16433 0.0
H31 H 0.1399 0.78164 0.10114 0.0
H32 H 0.24246 0.66636 0.08739 0.0
H33 H 0.2059 0.69595 0.09995 0.0
H34 H 0.23298 0.68042 0.96468 0.0
H35 H 0.19664 0.71031 0.97764 0.0
H36 H 0.14199 0.78324 0.80362 0.0
H37 H 0.08428 0.80523 0.88459 0.0
H38 H 0.10531 0.77705 0.93438 0.0
H39 H 0.16249 0.75439 0.85341 0.0
C40 C 0.6423 0.74432 0.63403 0.0
C41 C 0.62051 0.72827 0.62798 0.0
C42 C 0.62022 0.71498 0.69605 0.0
C43 C 0.60952 0.71381 0.65873 0.0
C44 C 0.64195 0.73137 0.70191 0.0
C45 C 0.65286 0.7459 0.67115 0.0
U46 U 0.65152 0.75333 0.52607 0.0
O47 O 0.65852 0.79156 0.49107 0.0
O48 O 0.68601 0.75694 0.49272 0.0
C49 C 0.68095 0.78309 0.48149 0.0
C50 C 0.65479 0.75829 0.60156 0.0
C51 C 0.70124 0.804 0.48694 0.0
C52 C 0.72019 0.8445 0.52055 0.0
C53 C 0.70054 0.82502 0.51607 0.0
C54 C 0.74159 0.82188 0.4673 0.0
C55 C 0.74099 0.84317 0.4962 0.0
C56 C 0.72189 0.80261 0.46268 0.0
C57 C 0.61275 0.70734 0.45625 0.0
C58 C 0.62283 0.7001 0.38854 0.0
C59 C 0.58406 0.68185 0.41378 0.0
C60 C 0.59018 0.69293 0.45024 0.0
C61 C 0.60047 0.68489 0.3826 0.0
C62 C 0.62891 0.71126 0.42509 0.0
C63 C 0.61947 0.71715 0.49543 0.0
O64 O 0.66924 0.74148 0.58124 0.0
O65 O 0.64075 0.77494 0.58001 0.0
O66 O 0.61385 0.74379 0.50375 0.0
O67 O 0.64174 0.70973 0.50764 0.0
H68 H 0.61216 0.7267 0.5994 0.0
H69 H 0.59263 0.70172 0.65325 0.0
H70 H 0.65092 0.73242 0.73005 0.0
H71 H 0.66981 0.758 0.67623 0.0
H72 H 0.71896 0.86075 0.54285 0.0
H73 H 0.68482 0.82641 0.53533 0.0
H74 H 0.75748 0.81976 0.44854 0.0
H75 H 0.72286 0.78641 0.44023 0.0
H76 H 0.63596 0.70267 0.36527 0.0
H77 H 0.56648 0.67077 0.41006 0.0
H78 H 0.57743 0.68988 0.47393 0.0
H79 H 0.64642 0.72244 0.42922 0.0
C80 C 0.86291 0.24034 0.12429 0.0
C81 C 0.87058 0.21208 0.11763 0.0
C82 C 0.88311 0.20759 0.18511 0.0
C83 C 0.88044 0.19581 0.14782 0.0
C84 C 0.87602 0.23613 0.19145 0.0
C85 C 0.86589 0.25233 0.16128 0.0
U86 U 0.85619 0.25695 0.0176 0.0
O87 O 0.82295 0.26363 0.98144 0.0
O88 O 0.8509 0.29774 0.9871 0.0
C89 C 0.82878 0.29031 0.97389 0.0
C90 C 0.85158 0.25723 0.09298 0.0
C91 C 0.80877 0.311 0.98032 0.0
C92 C 0.77834 0.33319 0.02224 0.0
C93 C 0.79866 0.31497 0.01718 0.0
C94 C 0.77853 0.3441 0.95382 0.0
C95 C 0.76781 0.34763 0.99048 0.0
C96 C 0.79881 0.32591 0.94882 0.0
C97 C 0.89543 0.21364 0.94603 0.0
C98 C 0.88619 0.19377 0.8823 0.0
C99 C 0.9287 0.2052 0.90034 0.0
C100 C 0.9207 0.21472 0.93649 0.0
C101 C 0.9116 0.1941 0.87303 0.0
C102 C 0.87817 0.20351 0.91835 0.0
C103 C 0.88777 0.22167 0.98552 0.0
O104 O 0.86674 0.27454 0.07476 0.0
O105 O 0.83662 0.24293 0.06956 0.0
O106 O 0.86517 0.21418 0.99562 0.0
O107 O 0.89403 0.24751 0.99727 0.0
H108 H 0.86874 0.20251 0.08914 0.0
H109 H 0.88607 0.17401 0.14198 0.0
H110 H 0.87776 0.24569 0.21995 0.0
H111 H 0.86017 0.27413 0.1669 0.0
H112 H 0.7704 0.33523 0.05077 0.0
H113 H 0.80613 0.30351 0.04182 0.0
H114 H 0.77112 0.35525 0.92889 0.0
H115 H 0.80645 0.32311 0.92018 0.0
H116 H 0.87251 0.1851 0.86222 0.0
H117 H 0.94835 0.2063 0.89396 0.0
H118 H 0.93434 0.22251 0.9573 0.0
H119 H 0.85852 0.20246 0.92479 0.0
C120 C 0.37127 0.26082 0.39311 0.0
C121 C 0.38394 0.28684 0.39831 0.0
C122 C 0.39485 0.28736 0.33007 0.0
C123 C 0.3955 0.30004 0.36709 0.0
C124 C 0.38244 0.26099 0.32523 0.0
C125 C 0.37073 0.24789 0.35648 0.0
U126 U 0.36337 0.25111 0.50103 0.0
O127 O 0.32984 0.24943 0.5366 0.0
O128 O 0.35513 0.21266 0.53527 0.0
C129 C 0.33364 0.22274 0.54679 0.0
C130 C 0.35851 0.24719 0.42565 0.0
C131 C 0.31217 0.20333 0.54237 0.0
C132 C 0.27379 0.18893 0.50987 0.0
C133 C 0.29488 0.20649 0.512 0.0
C134 C 0.28752 0.16418 0.56757 0.0
C135 C 0.26969 0.16776 0.53792 0.0
C136 C 0.3085 0.18185 0.5698 0.0
C137 C 0.40626 0.2935 0.56936 0.0
C138 C 0.39813 0.30142 0.63757 0.0
C139 C 0.43751 0.31609 0.61048 0.0
C140 C 0.42987 0.30573 0.57429 0.0
C141 C 0.42157 0.31451 0.64244 0.0
C142 C 0.39054 0.29098 0.60132 0.0
C143 C 0.39803 0.28457 0.53047 0.0
O144 O 0.37209 0.22939 0.44614 0.0
O145 O 0.34509 0.26445 0.44703 0.0
O146 O 0.37595 0.29372 0.5197 0.0
O147 O 0.40194 0.25765 0.52142 0.0
H148 H 0.38466 0.29711 0.42646 0.0
H149 H 0.40453 0.3205 0.37187 0.0
H150 H 0.38188 0.25038 0.29734 0.0
H151 H 0.36119 0.22769 0.35203 0.0
H152 H 0.26038 0.19249 0.48685 0.0
H153 H 0.29742 0.22287 0.49037 0.0
H154 H 0.28526 0.14775 0.5892 0.0
H155 H 0.32173 0.17896 0.59328 0.0
H156 H 0.38532 0.30006 0.66146 0.0
H157 H 0.45585 0.32553 0.61335 0.0
H158 H 0.4423 0.30767 0.54997 0.0
H159 H 0.37222 0.2815 0.59803 0.0
O160 O 0.94318 0.99816 0.51279 0.0
Zn161 Zn 0.97212 0.02617 0.51426 0.0
O162 O 0.00421 0.00627 0.51019 0.0
Zn163 Zn 0.02483 0.01473 0.55568 0.0
Zn164 Zn 0.99832 0.96506 0.50728 0.0
Zn165 Zn 0.02186 0.01867 0.4638 0.0
O166 O 0.05689 0.03429 0.54133 0.0
O167 O 0.05487 0.03703 0.47737 0.0
O168 O 0.97022 0.04904 0.56416 0.0
O169 O 0.00673 0.04052 0.59232 0.0
O170 O 0.03338 0.97892 0.58495 0.0
O171 O 0.01366 0.94448 0.55259 0.0
O172 O 0.01279 0.94823 0.45905 0.0
O173 O 0.96739 0.05315 0.46927 0.0
O174 O 0.02874 0.98531 0.42807 0.0
O175 O 0.00157 0.04768 0.43444 0.0
C176 C 0.94214 0.97109 0.50871 0.0
C177 C 0.06628 0.04172 0.50924 0.0
C178 C 0.02737 0.95272 0.58075 0.0
C179 C 0.98548 0.05246 0.59228 0.0
C180 C 0.02414 0.95863 0.43022 0.0
C181 C 0.98051 0.05933 0.43995 0.0
O182 O 0.96181 0.95619 0.50594 0.0
O183 O 0.56235 0.4941 0.01395 0.0
Zn184 Zn 0.5348 0.52347 0.0161 0.0
O185 O 0.50207 0.50438 0.01351 0.0
Zn186 Zn 0.48317 0.5183 0.96885 0.0
Zn187 Zn 0.50587 0.46264 0.0094 0.0
Zn188 Zn 0.48371 0.51335 0.06018 0.0
O189 O 0.45073 0.53658 0.98437 0.0
O190 O 0.45097 0.53195 0.04814 0.0
O191 O 0.53919 0.55015 0.97057 0.0
O192 O 0.5032 0.54682 0.93879 0.0
O193 O 0.4749 0.48607 0.93232 0.0
O194 O 0.49018 0.4471 0.95994 0.0
O195 O 0.4907 0.44214 0.05524 0.0
O196 O 0.53916 0.54673 0.0657 0.0
O197 O 0.47683 0.47811 0.09099 0.0
O198 O 0.50302 0.53993 0.09465 0.0
C199 C 0.56246 0.46694 0.0106 0.0
C200 C 0.4404 0.54009 0.01702 0.0
C201 C 0.47866 0.45922 0.93214 0.0
C202 C 0.52503 0.5572 0.94242 0.0
C203 C 0.48025 0.45148 0.0857 0.0
C204 C 0.52456 0.55124 0.0939 0.0
O205 O 0.54227 0.45265 0.00839 0.0
C206 C 0.23621 0.14041 0.50183 0.0
C207 C 0.24655 0.15015 0.53705 0.0
C208 C 0.21414 0.12446 0.50119 0.0
C209 C 0.20186 0.11796 0.53584 0.0
C210 C 0.21246 0.12723 0.57098 0.0
C211 C 0.23441 0.14327 0.57162 0.0
C212 C 0.17829 0.10123 0.53684 0.0
C213 C 0.16177 0.10004 0.50726 0.0
C214 C 0.13758 0.08444 0.50885 0.0
C215 C 0.12518 0.07776 0.474 0.0
C216 C 0.10215 0.06379 0.47405 0.0
C217 C 0.09086 0.05625 0.50906 0.0
H218 H 0.1345 0.08256 0.57157 0.0
C219 C 0.10318 0.06305 0.54398 0.0
C220 C 0.12617 0.07707 0.54394 0.0
H221 H 0.09494 0.05782 0.57151 0.0
H222 H 0.24533 0.1448 0.47472 0.0
H223 H 0.20708 0.11691 0.47356 0.0
H224 H 0.20349 0.12244 0.59812 0.0
H225 H 0.24159 0.15071 0.59926 0.0
H226 H 0.1743 0.0903 0.56364 0.0
H227 H 0.16589 0.11107 0.48053 0.0
H228 H 0.13335 0.08336 0.44654 0.0
H229 H 0.09319 0.05897 0.44658 0.0
C230 C 0.26821 0.62889 0.03791 0.0
C231 C 0.26348 0.65424 0.01753 0.0
C232 C 0.29025 0.61376 0.03217 0.0
C233 C 0.30819 0.62385 0.00615 0.0
C234 C 0.30308 0.64866 0.98491 0.0
C235 C 0.28103 0.66376 0.9906 0.0
C236 C 0.33237 0.60915 1.00037 0.0
C237 C 0.34322 0.59276 0.02765 0.0
C238 C 0.36813 0.5794 0.02355 0.0
C239 C 0.38086 0.57092 0.05718 0.0
C240 C 0.40429 0.5583 0.05503 0.0
C241 C 0.41557 0.55366 0.01906 0.0
H242 H 0.36981 0.57983 0.96069 0.0
C243 C 0.40275 0.56183 0.98526 0.0
C244 C 0.37924 0.57445 0.98742 0.0
H245 H 0.41077 0.5583 0.95704 0.0
H246 H 0.25479 0.62065 0.0582 0.0
H247 H 0.29297 0.59412 0.048 0.0
H248 H 0.31645 0.65679 0.96444 0.0
H249 H 0.27803 0.68332 0.97461 0.0
H250 H 0.34223 0.61379 0.9739 0.0
H251 H 0.33424 0.59034 0.05541 0.0
H252 H 0.37272 0.57425 0.08538 0.0
H253 H 0.41354 0.5522 0.08169 0.0
C254 C 0.77491 0.87377 0.46853 0.0
C255 C 0.7622 0.86352 0.50103 0.0
C256 C 0.79582 0.89131 0.47294 0.0
C257 C 0.8045 0.89914 0.51 0.0
C258 C 0.7912 0.89007 0.54242 0.0
C259 C 0.77039 0.87225 0.53805 0.0
C260 C 0.82752 0.91637 0.51547 0.0
C261 C 0.84728 0.91316 0.49227 0.0
C262 C 0.87127 0.9284 0.49819 0.0
C263 C 0.89317 0.91498 0.48616 0.0
C264 C 0.91612 0.9287 0.49025 0.0
C265 C 0.91769 0.9565 0.50576 0.0
H266 H 0.85611 0.96734 0.52278 0.0
C267 C 0.89573 0.97013 0.51752 0.0
C268 C 0.87272 0.95615 0.51399 0.0
H269 H 0.89631 0.99158 0.52946 0.0
H270 H 0.76872 0.86824 0.43955 0.0
H271 H 0.80514 0.89875 0.44727 0.0
H272 H 0.79741 0.896 0.57128 0.0
H273 H 0.7612 0.86467 0.56376 0.0
H274 H 0.82894 0.93011 0.54083 0.0
H275 H 0.84654 0.89713 0.46941 0.0
H276 H 0.89254 0.8937 0.47366 0.0
H277 H 0.93262 0.91764 0.4806 0.0
C278 C 0.72576 0.36371 0.96753 0.0
C279 C 0.74509 0.3653 0.99515 0.0
C280 C 0.70405 0.3796 0.97216 0.0
C281 C 0.70105 0.39736 0.00474 0.0
C282 C 0.72057 0.39947 0.03189 0.0
C283 C 0.7423 0.38346 0.02732 0.0
C284 C 0.67801 0.41429 0.01069 0.0
C285 C 0.65561 0.40577 0.997 0.0
C286 C 0.63219 0.42206 0.00235 0.0
C287 C 0.60947 0.40739 0.99869 0.0
C288 C 0.58693 0.42188 0.0019 0.0
C289 C 0.58651 0.45156 0.00847 0.0
H290 H 0.64892 0.46402 0.01105 0.0
C291 C 0.60925 0.46633 0.01215 0.0
C292 C 0.63186 0.45177 0.00908 0.0
H293 H 0.60963 0.48922 0.01701 0.0
H294 H 0.72723 0.34982 0.94252 0.0
H295 H 0.68981 0.37808 0.94992 0.0
H296 H 0.71888 0.41326 0.05699 0.0
H297 H 0.75698 0.38546 0.04884 0.0
H298 H 0.67947 0.43341 0.02851 0.0
H299 H 0.654 0.3852 0.98246 0.0
H300 H 0.60914 0.38456 0.99323 0.0
H301 H 0.56982 0.40978 0.99879 0.0
C302 C 0.06459 0.83521 0.19678 0.0
C303 C 0.08887 0.83496 0.18216 0.0
C304 C 0.05898 0.85105 0.22991 0.0
C305 C 0.07763 0.86692 0.24931 0.0
C306 C 0.10196 0.86626 0.23502 0.0
C307 C 0.10757 0.85036 0.20195 0.0
C308 C 0.07211 0.88584 0.28279 0.0
C309 C 0.05232 0.88226 0.30584 0.0
C310 C 0.04616 0.90215 0.33796 0.0
C311 C 0.03192 0.89197 0.36875 0.0
C312 C 0.025 0.91021 0.39884 0.0
C313 C 0.03192 0.93924 0.39857 0.0
H314 H 0.06338 0.9401 0.31376 0.0
C315 C 0.04605 0.94952 0.36759 0.0
C316 C 0.05308 0.9312 0.33758 0.0
H317 H 0.05156 0.97178 0.36633 0.0
H318 H 0.04979 0.82346 0.18226 0.0
H319 H 0.03986 0.85151 0.23928 0.0
H320 H 0.11664 0.87846 0.24916 0.0
H321 H 0.12639 0.85097 0.19111 0.0
H322 H 0.08525 0.90297 0.28905 0.0
H323 H 0.0405 0.86358 0.30206 0.0
H324 H 0.02613 0.86977 0.36958 0.0
H325 H 0.01402 0.90156 0.42213 0.0
C326 C 0.59954 0.67091 0.72219 0.0
C327 C 0.60917 0.69856 0.72848 0.0
C328 C 0.58973 0.65516 0.75272 0.0
C329 C 0.58922 0.66672 0.79036 0.0
C330 C 0.59898 0.69422 0.79672 0.0
C331 C 0.6087 0.71005 0.76615 0.0
C332 C 0.57965 0.65022 0.82378 0.0
C333 C 0.56216 0.62965 0.82012 0.0
C334 C 0.55271 0.61254 0.85304 0.0
C335 C 0.5292 0.59964 0.84954 0.0
C336 C 0.52004 0.58224 0.87888 0.0
C337 C 0.53434 0.57698 0.91236 0.0
H338 H 0.58548 0.61647 0.89007 0.0
C339 C 0.55788 0.58997 0.916 0.0
C340 C 0.56699 0.60756 0.88668 0.0
H341 H 0.56946 0.58626 0.94127 0.0
H342 H 0.60014 0.6611 0.69379 0.0
H343 H 0.58319 0.63366 0.74682 0.0
H344 H 0.59896 0.70359 0.82544 0.0
H345 H 0.61572 0.73137 0.77202 0.0
H346 H 0.58654 0.65612 0.85234 0.0
H347 H 0.55358 0.62577 0.792 0.0
H348 H 0.51787 0.60292 0.82386 0.0
H349 H 0.50188 0.57252 0.87492 0.0
C350 C 0.91104 0.20057 0.24295 0.0
C351 C 0.89275 0.18987 0.21737 0.0
C352 C 0.92018 0.18362 0.2731 0.0
C353 C 0.91105 0.15569 0.27838 0.0
C354 C 0.89244 0.14528 0.25325 0.0
C355 C 0.88354 0.16206 0.22286 0.0
C356 C 0.91999 0.13711 0.31028 0.0
C357 C 0.9433 0.13838 0.32481 0.0
C358 C 0.95247 0.11853 0.35512 0.0
C359 C 0.97762 0.11069 0.3555 0.0
C360 C 0.98674 0.09151 0.38303 0.0
C361 C 0.97095 0.08016 0.41131 0.0
H362 H 0.91738 0.11381 0.385 0.0
C363 C 0.94589 0.08866 0.4116 0.0
C364 C 0.93672 0.10759 0.38376 0.0
H365 H 0.93325 0.08047 0.43309 0.0
H366 H 0.91845 0.22194 0.23939 0.0
H367 H 0.93408 0.19261 0.29253 0.0
H368 H 0.88492 0.12396 0.2569 0.0
H369 H 0.86919 0.1534 0.20392 0.0
H370 H 0.90742 0.12052 0.32018 0.0
H371 H 0.95669 0.15297 0.31221 0.0
H372 H 0.99019 0.11903 0.33399 0.0
H373 H 0.00618 0.08561 0.38215 0.0
C374 C 0.44139 0.35413 0.68114 0.0
C375 C 0.42898 0.32763 0.68015 0.0
C376 C 0.4478 0.36706 0.71632 0.0
C377 C 0.44175 0.35396 0.75155 0.0
C378 C 0.4299 0.32716 0.75063 0.0
C379 C 0.42343 0.3142 0.71533 0.0
C380 C 0.44798 0.36753 0.78948 0.0
C381 C 0.44947 0.39612 0.79412 0.0
C382 C 0.45594 0.41088 0.83113 0.0
C383 C 0.4505 0.4401 0.83449 0.0
C384 C 0.45742 0.45552 0.86754 0.0
C385 C 0.47016 0.44216 0.89816 0.0
H386 H 0.47349 0.37498 0.86026 0.0
C387 C 0.47538 0.41278 0.89514 0.0
C388 C 0.46841 0.39729 0.86194 0.0
H389 H 0.48528 0.40183 0.91808 0.0
H390 H 0.44583 0.36519 0.65465 0.0
H391 H 0.4577 0.38723 0.71568 0.0
H392 H 0.42532 0.3164 0.77731 0.0
H393 H 0.41422 0.29358 0.71561 0.0
H394 H 0.45014 0.3536 0.81427 0.0
H395 H 0.44494 0.40976 0.76974 0.0
H396 H 0.44102 0.4512 0.81123 0.0
H397 H 0.45305 0.47809 0.86875 0.0
C398 C 0.58377 0.64395 0.34301 0.0
C399 C 0.59454 0.67135 0.34455 0.0
C400 C 0.57774 0.63115 0.30759 0.0
C401 C 0.5822 0.64551 0.27268 0.0
C402 C 0.59365 0.67252 0.27407 0.0
C403 C 0.59966 0.6854 0.30963 0.0
C404 C 0.57543 0.63248 0.23464 0.0
C405 C 0.55585 0.61464 0.23043 0.0
C406 C 0.54825 0.60044 0.19357 0.0
C407 C 0.52406 0.58929 0.19075 0.0
C408 C 0.51634 0.57397 0.15808 0.0
C409 C 0.53271 0.56913 0.12729 0.0
H410 H 0.58358 0.60387 0.16387 0.0
C411 C 0.55687 0.58068 0.12967 0.0
C412 C 0.56462 0.59615 0.16252 0.0
H413 H 0.56998 0.57727 0.10655 0.0
H414 H 0.58026 0.63214 0.36926 0.0
H415 H 0.56991 0.60981 0.30773 0.0
H416 H 0.59754 0.68391 0.2476 0.0
H417 H 0.6079 0.70655 0.30977 0.0
H418 H 0.58605 0.63883 0.20958 0.0
H419 H 0.54406 0.61076 0.25521 0.0
H420 H 0.51107 0.59216 0.21419 0.0
H421 H 0.49757 0.56551 0.15736 0.0
C422 C 0.94234 0.16543 0.83491 0.0
C423 C 0.92034 0.18155 0.83591 0.0
C424 C 0.95 0.15231 0.80071 0.0
C425 C 0.93562 0.15459 0.7666 0.0
C426 C 0.91404 0.17142 0.7673 0.0
C427 C 0.90644 0.1847 0.80152 0.0
C428 C 0.9425 0.13993 0.72987 0.0
C429 C 0.95775 0.11713 0.72846 0.0
C430 C 0.96463 0.10199 0.69225 0.0
C431 C 0.98685 0.08639 0.69195 0.0
C432 C 0.99374 0.07078 0.65933 0.0
C433 C 0.97836 0.07003 0.62621 0.0
H434 H 0.93163 0.11262 0.65847 0.0
C435 C 0.95605 0.08565 0.62639 0.0
C436 C 0.94923 0.1015 0.65906 0.0
H437 H 0.94371 0.08543 0.60144 0.0
H438 H 0.95348 0.16236 0.86081 0.0
H439 H 0.96726 0.14056 0.80141 0.0
H440 H 0.90278 0.17396 0.74139 0.0
H441 H 0.88965 0.19741 0.80101 0.0
H442 H 0.93425 0.14797 0.7033 0.0
H443 H 0.96595 0.10894 0.75492 0.0
H444 H 0.99898 0.08623 0.71717 0.0
H445 H 0.01101 0.05895 0.66037 0.0
C446 C 0.42904 0.31716 0.30147 0.0
C447 C 0.40659 0.30196 0.29665 0.0
C448 C 0.43931 0.33229 0.27073 0.0
C449 C 0.42736 0.33256 0.23435 0.0
C450 C 0.40553 0.31646 0.22904 0.0
C451 C 0.39513 0.3015 0.25988 0.0
C452 C 0.43707 0.34964 0.20162 0.0
C453 C 0.44903 0.37471 0.20706 0.0
C454 C 0.45694 0.39359 0.17501 0.0
C455 C 0.45854 0.42308 0.18202 0.0
C456 C 0.46588 0.44175 0.15292 0.0
C457 C 0.47226 0.43131 0.11614 0.0
H458 H 0.46299 0.36027 0.13215 0.0
C459 C 0.47109 0.40168 0.10919 0.0
C460 C 0.46341 0.38298 0.1383 0.0
H461 H 0.47601 0.39294 0.08125 0.0
H462 H 0.43876 0.31736 0.32905 0.0
H463 H 0.45665 0.34362 0.27552 0.0
H464 H 0.39605 0.31614 0.20124 0.0
H465 H 0.37774 0.29024 0.25509 0.0
H466 H 0.43234 0.34262 0.17247 0.0
H467 H 0.45145 0.38297 0.23628 0.0
H468 H 0.45384 0.43181 0.21009 0.0
H469 H 0.46676 0.4644 0.15947 0.0
C470 C 0.0989 0.80828 0.77178 0.0
C471 C 0.1001 0.81601 0.81109 0.0
C472 C 0.0891 0.82714 0.74436 0.0
C473 C 0.08012 0.85413 0.75575 0.0
C474 C 0.08128 0.86173 0.79504 0.0
C475 C 0.09109 0.84293 0.82238 0.0
C476 C 0.07058 0.87556 0.72768 0.0
C477 C 0.06281 0.86919 0.69147 0.0
C478 C 0.05381 0.89113 0.66371 0.0
C479 C 0.03802 0.88267 0.63314 0.0
C480 C 0.02938 0.90261 0.60624 0.0
C481 C 0.0365 0.9315 0.60918 0.0
H482 H 0.0741 0.92725 0.68853 0.0
C483 C 0.05258 0.93991 0.63949 0.0
C484 C 0.06124 0.91997 0.66632 0.0
H485 H 0.05868 0.96191 0.64241 0.0
H486 H 0.1056 0.78766 0.76215 0.0
H487 H 0.08919 0.82061 0.71433 0.0
H488 H 0.07477 0.88245 0.80466 0.0
H489 H 0.09217 0.84982 0.8523 0.0
H490 H 0.06921 0.89744 0.73802 0.0
H491 H 0.06194 0.84705 0.68203 0.0
H492 H 0.03221 0.86056 0.63017 0.0
H493 H 0.0171 0.89533 0.58318 0.0
loop_
_geom_bond_atom_site_label_1
_geom_bond_atom_site_label_2
_geom_bond_distance
_geom_bond_site_symmetry_2
_ccdc_geom_bond_type
C0 C1 1.264 . S
C0 C5 1.479 . S
C0 C10 1.465 . S
C1 C0 1.264 . S
C1 C3 1.339 . S
C1 H28 0.931 . S
C2 C3 1.395 . S
C2 C4 1.320 . S
C3 C1 1.339 . S
C3 C2 1.395 . S
C3 H29 0.929 . S
C4 C2 1.320 . S
C4 C5 1.405 . S
C4 H30 0.930 . S
C5 C0 1.479 . S
C5 C4 1.405 . S
C5 H31 0.931 . S
U6 O7 2.454 . S
U6 O8 2.458 1_554 S
U6 C9 2.984 . S
U6 C10 2.847 . S
U6 C23 2.882 1_554 S
U6 O24 2.441 . S
U6 O25 2.420 . S
U6 O26 2.455 1_554 S
U6 O27 2.449 1_554 S
O7 U6 2.454 . S
O7 C9 1.353 . S
O8 U6 2.458 1_556 S
O8 C9 1.286 1_556 S
C9 U6 2.984 . S
C9 O7 1.353 . S
C9 O8 1.286 1_554 S
C9 C11 1.363 . S
C10 C0 1.465 . S
C10 U6 2.847 . S
C10 O24 1.249 . S
C10 O25 1.202 . S
C11 C9 1.363 . S
C11 C13 1.408 . S
C11 C16 1.342 1_554 S
C12 C13 1.310 . S
C12 C15 1.461 . S
C12 H32 0.932 . S
C13 C11 1.408 . S
C13 C12 1.310 . S
C13 H33 0.930 . S
C14 C15 1.474 1_556 S
C14 C16 1.285 . S
C14 H34 0.929 . S
C15 C12 1.461 . S
C15 C14 1.474 1_554 S
C16 C11 1.342 1_556 S
C16 C14 1.285 . S
C16 H35 0.930 . S
C17 C20 1.424 . S
C17 C22 1.245 . S
C17 C23 1.428 . S
C18 C21 1.260 . S
C18 C22 1.477 . S
C18 H36 0.932 . S
C19 C20 1.384 . S
C19 C21 1.479 . S
C19 H37 0.929 . S
C20 C17 1.424 . S
C20 C19 1.384 . S
C20 H38 0.928 . S
C21 C18 1.260 . S
C21 C19 1.479 . S
C22 C17 1.245 . S
C22 C18 1.477 . S
C22 H39 0.932 . S
C23 U6 2.882 1_556 S
C23 C17 1.428 . S
C23 O26 1.301 . S
C23 O27 1.282 . S
O24 U6 2.441 . S
O24 C10 1.249 . S
O25 U6 2.420 . S
O25 C10 1.202 . S
O26 U6 2.455 1_556 S
O26 C23 1.301 . S
O27 U6 2.449 1_556 S
O27 C23 1.282 . S
H28 C1 0.931 . S
H29 C3 0.929 . S
H30 C4 0.930 . S
H31 C5 0.931 . S
H32 C12 0.932 . S
H33 C13 0.930 . S
H34 C14 0.929 . S
H35 C16 0.930 . S
H36 C18 0.932 . S
H37 C19 0.929 . S
H38 C20 0.928 . S
H39 C22 0.932 . S
C40 C41 1.264 . S
C40 C45 1.479 . S
C40 C50 1.465 . S
C41 C40 1.264 . S
C41 C43 1.339 . S
C41 H68 0.931 . S
C42 C43 1.395 . S
C42 C44 1.320 . S
C43 C41 1.339 . S
C43 C42 1.395 . S
C43 H69 0.929 . S
C44 C42 1.320 . S
C44 C45 1.405 . S
C44 H70 0.930 . S
C45 C40 1.479 . S
C45 C44 1.405 . S
C45 H71 0.931 . S
U46 O47 2.454 . S
U46 O48 2.458 . S
U46 C49 2.984 . S
U46 C50 2.847 . S
U46 C63 2.882 . S
U46 O64 2.441 . S
U46 O65 2.420 . S
U46 O66 2.455 . S
U46 O67 2.449 . S
O47 U46 2.454 . S
O47 C49 1.353 . S
O48 U46 2.458 . S
O48 C49 1.286 . S
C49 U46 2.984 . S
C49 O47 1.353 . S
C49 O48 1.286 . S
C49 C51 1.363 . S
C50 C40 1.465 . S
C50 U46 2.847 . S
C50 O64 1.249 . S
C50 O65 1.202 . S
C51 C49 1.363 . S
C51 C53 1.408 . S
C51 C56 1.342 . S
C52 C53 1.310 . S
C52 C55 1.461 . S
C52 H72 0.932 . S
C53 C51 1.408 . S
C53 C52 1.310 . S
C53 H73 0.930 . S
C54 C55 1.474 . S
C54 C56 1.285 . S
C54 H74 0.929 . S
C55 C52 1.461 . S
C55 C54 1.474 . S
C56 C51 1.342 . S
C56 C54 1.285 . S
C56 H75 0.930 . S
C57 C60 1.424 . S
C57 C62 1.245 . S
C57 C63 1.428 . S
C58 C61 1.260 . S
C58 C62 1.477 . S
C58 H76 0.932 . S
C59 C60 1.384 . S
C59 C61 1.479 . S
C59 H77 0.929 . S
C60 C57 1.424 . S
C60 C59 1.384 . S
C60 H78 0.928 . S
C61 C58 1.260 . S
C61 C59 1.479 . S
C62 C57 1.245 . S
C62 C58 1.477 . S
C62 H79 0.932 . S
C63 U46 2.882 . S
C63 C57 1.428 . S
C63 O66 1.301 . S
C63 O67 1.282 . S
O64 U46 2.441 . S
O64 C50 1.249 . S
O65 U46 2.420 . S
O65 C50 1.202 . S
O66 U46 2.455 . S
O66 C63 1.301 . S
O67 U46 2.449 . S
O67 C63 1.282 . S
H68 C41 0.931 . S
H69 C43 0.929 . S
H70 C44 0.930 . S
H71 C45 0.931 . S
H72 C52 0.932 . S
H73 C53 0.930 . S
H74 C54 0.929 . S
H75 C56 0.930 . S
H76 C58 0.932 . S
H77 C59 0.929 . S
H78 C60 0.928 . S
H79 C62 0.932 . S
C80 C81 1.264 . S
C80 C85 1.479 . S
C80 C90 1.465 . S
C81 C80 1.264 . S
C81 C83 1.339 . S
C81 H108 0.931 . S
C82 C83 1.395 . S
C82 C84 1.320 . S
C83 C81 1.339 . S
C83 C82 1.395 . S
C83 H109 0.929 . S
C84 C82 1.320 . S
C84 C85 1.405 . S
C84 H110 0.930 . S
C85 C80 1.479 . S
C85 C84 1.405 . S
C85 H111 0.931 . S
U86 O87 2.454 . S
U86 O88 2.458 1_554 S
U86 C89 2.984 . S
U86 C90 2.847 . S
U86 C103 2.882 1_554 S
U86 O104 2.441 . S
U86 O105 2.420 . S
U86 O106 2.455 1_554 S
U86 O107 2.449 1_554 S
O87 U86 2.454 . S
O87 C89 1.353 . S
O88 U86 2.458 1_556 S
O88 C89 1.286 1_556 S
C89 U86 2.984 . S
C89 O87 1.353 . S
C89 O88 1.286 1_554 S
C89 C91 1.363 . S
C90 C80 1.465 . S
C90 U86 2.847 . S
C90 O104 1.249 . S
C90 O105 1.202 . S
C91 C89 1.363 . S
C91 C93 1.408 . S
C91 C96 1.342 1_554 S
C92 C93 1.310 . S
C92 C95 1.461 . S
C92 H112 0.932 . S
C93 C91 1.408 . S
C93 C92 1.310 . S
C93 H113 0.930 . S
C94 C95 1.474 1_556 S
C94 C96 1.285 . S
C94 H114 0.929 . S
C95 C92 1.461 . S
C95 C94 1.474 1_554 S
C96 C91 1.342 1_556 S
C96 C94 1.285 . S
C96 H115 0.930 . S
C97 C100 1.424 . S
C97 C102 1.245 . S
C97 C103 1.428 . S
C98 C101 1.260 . S
C98 C102 1.477 . S
C98 H116 0.932 . S
C99 C100 1.384 . S
C99 C101 1.479 . S
C99 H117 0.929 . S
C100 C97 1.424 . S
C100 C99 1.384 . S
C100 H118 0.928 . S
C101 C98 1.260 . S
C101 C99 1.479 . S
C102 C97 1.245 . S
C102 C98 1.477 . S
C102 H119 0.932 . S
C103 U86 2.882 1_556 S
C103 C97 1.428 . S
C103 O106 1.301 . S
C103 O107 1.282 . S
O104 U86 2.441 . S
O104 C90 1.249 . S
O105 U86 2.420 . S
O105 C90 1.202 . S
O106 U86 2.455 1_556 S
O106 C103 1.301 . S
O107 U86 2.449 1_556 S
O107 C103 1.282 . S
H108 C81 0.931 . S
H109 C83 0.929 . S
H110 C84 0.930 . S
H111 C85 0.931 . S
H112 C92 0.932 . S
H113 C93 0.930 . S
H114 C94 0.929 . S
H115 C96 0.930 . S
H116 C98 0.932 . S
H117 C99 0.929 . S
H118 C100 0.928 . S
H119 C102 0.932 . S
C120 C121 1.264 . S
C120 C125 1.479 . S
C120 C130 1.465 . S
C121 C120 1.264 . S
C121 C123 1.339 . S
C121 H148 0.931 . S
C122 C123 1.395 . S
C122 C124 1.320 . S
C123 C121 1.339 . S
C123 C122 1.395 . S
C123 H149 0.929 . S
C124 C122 1.320 . S
C124 C125 1.405 . S
C124 H150 0.930 . S
C125 C120 1.479 . S
C125 C124 1.405 . S
C125 H151 0.931 . S
U126 O127 2.454 . S
U126 O128 2.458 . S
U126 C129 2.984 . S
U126 C130 2.847 . S
U126 C143 2.882 . S
U126 O144 2.441 . S
U126 O145 2.420 . S
U126 O146 2.455 . S
U126 O147 2.449 . S
O127 U126 2.454 . S
O127 C129 1.353 . S
O128 U126 2.458 . S
O128 C129 1.286 . S
C129 U126 2.984 . S
C129 O127 1.353 . S
C129 O128 1.286 . S
C129 C131 1.363 . S
C130 C120 1.465 . S
C130 U126 2.847 . S
C130 O144 1.249 . S
C130 O145 1.202 . S
C131 C129 1.363 . S
C131 C133 1.408 . S
C131 C136 1.342 . S
C132 C133 1.310 . S
C132 C135 1.461 . S
C132 H152 0.932 . S
C133 C131 1.408 . S
C133 C132 1.310 . S
C133 H153 0.930 . S
C134 C135 1.474 . S
C134 C136 1.285 . S
C134 H154 0.929 . S
C135 C132 1.461 . S
C135 C134 1.474 . S
C136 C131 1.342 . S
C136 C134 1.285 . S
C136 H155 0.930 . S
C137 C140 1.424 . S
C137 C142 1.245 . S
C137 C143 1.428 . S
C138 C141 1.260 . S
C138 C142 1.477 . S
C138 H156 0.932 . S
C139 C140 1.384 . S
C139 C141 1.479 . S
C139 H157 0.929 . S
C140 C137 1.424 . S
C140 C139 1.384 . S
C140 H158 0.928 . S
C141 C138 1.260 . S
C141 C139 1.479 . S
C142 C137 1.245 . S
C142 C138 1.477 . S
C142 H159 0.932 . S
C143 U126 2.882 . S
C143 C137 1.428 . S
C143 O146 1.301 . S
C143 O147 1.282 . S
O144 U126 2.441 . S
O144 C130 1.249 . S
O145 U126 2.420 . S
O145 C130 1.202 . S
O146 U126 2.455 . S
O146 C143 1.301 . S
O147 U126 2.449 . S
O147 C143 1.282 . S
H148 C121 0.931 . S
H149 C123 0.929 . S
H150 C124 0.930 . S
H151 C125 0.931 . S
H152 C132 0.932 . S
H153 C133 0.930 . S
H154 C134 0.929 . S
H155 C136 0.930 . S
H156 C138 0.932 . S
H157 C139 0.929 . S
H158 C140 0.928 . S
H159 C142 0.932 . S
O160 Zn161 1.953 1_565 S
O160 C176 1.225 . S
Zn161 O160 1.953 1_545 S
Zn161 O162 1.949 1_655 S
Zn161 O168 1.919 . S
Zn161 O173 1.924 . S
O162 Zn161 1.949 1_455 S
O162 Zn163 1.923 . S
O162 Zn164 1.944 1_445 S
O162 Zn165 1.945 . S
Zn163 O162 1.923 . S
Zn163 O166 1.933 . S
Zn163 O169 1.941 . S
Zn163 O170 1.965 1_545 S
Zn164 O162 1.944 1_665 S
Zn164 O171 1.929 1_655 S
Zn164 O172 1.884 1_655 S
Zn164 O182 1.991 . S
Zn165 O162 1.945 . S
Zn165 O167 1.932 . S
Zn165 O174 1.977 1_545 S
Zn165 O175 1.910 1_455 S
O166 Zn163 1.933 . S
O166 C177 1.226 . S
O167 Zn165 1.932 . S
O167 C177 1.307 . S
O168 Zn161 1.919 . S
O168 C179 1.253 . S
O169 Zn163 1.941 . S
O169 C179 1.283 1_455 S
O170 Zn163 1.965 1_565 S
O170 C178 1.303 . S
O171 Zn164 1.929 1_455 S
O171 C178 1.247 . S
O172 Zn164 1.884 1_455 S
O172 C180 1.304 . S
O173 Zn161 1.924 . S
O173 C181 1.311 . S
O174 Zn165 1.977 1_565 S
O174 C180 1.272 . S
O175 Zn165 1.910 1_655 S
O175 C181 1.231 . S
C176 O160 1.225 . S
C176 O182 1.298 . S
C177 O166 1.226 . S
C177 O167 1.307 . S
C178 O170 1.303 . S
C178 O171 1.247 . S
C179 O168 1.253 . S
C179 O169 1.283 1_655 S
C180 O172 1.304 . S
C180 O174 1.272 . S
C181 O173 1.311 . S
C181 O175 1.231 . S
O182 Zn164 1.991 . S
O182 C176 1.298 . S
O183 Zn184 1.952 1_556 S
O183 C199 1.225 1_556 S
Zn184 O183 1.952 1_554 S
Zn184 O185 1.951 . S
Zn184 O191 1.909 1_554 S
Zn184 O196 1.934 . S
O185 Zn184 1.951 . S
O185 Zn186 1.923 1_554 S
O185 Zn187 1.950 . S
O185 Zn188 1.945 . S
Zn186 O185 1.923 1_556 S
Zn186 O189 1.933 . S
Zn186 O192 1.941 . S
Zn186 O193 1.965 . S
Zn187 O185 1.950 . S
Zn187 O194 1.938 1_554 S
Zn187 O195 1.906 . S
Zn187 O205 1.953 . S
Zn188 O185 1.945 . S
Zn188 O190 1.932 . S
Zn188 O197 1.977 . S
Zn188 O198 1.910 . S
O189 Zn186 1.933 . S
O189 C200 1.226 1_556 S
O190 Zn188 1.932 . S
O190 C200 1.307 . S
O191 Zn184 1.909 1_556 S
O191 C202 1.253 . S
O192 Zn186 1.941 . S
O192 C202 1.283 . S
O193 Zn186 1.965 . S
O193 C201 1.303 . S
O194 Zn187 1.938 1_556 S
O194 C201 1.247 . S
O195 Zn187 1.906 . S
O195 C203 1.304 . S
O196 Zn184 1.934 . S
O196 C204 1.311 . S
O197 Zn188 1.977 . S
O197 C203 1.272 . S
O198 Zn188 1.910 . S
O198 C204 1.231 . S
C199 O183 1.225 1_554 S
C199 O205 1.298 . S
C200 O189 1.226 1_554 S
C200 O190 1.307 . S
C201 O193 1.303 . S
C201 O194 1.247 . S
C202 O191 1.253 . S
C202 O192 1.283 . S
C203 O195 1.304 . S
C203 O197 1.272 . S
C204 O196 1.311 . S
C204 O198 1.231 . S
O205 Zn187 1.953 . S
O205 C199 1.298 . S
C206 C207 1.386 . S
C206 C208 1.383 . S
C206 H222 0.951 . S
C207 C206 1.386 . S
C207 C211 1.383 . S
C208 C206 1.383 . S
C208 C209 1.402 . S
C208 H223 0.951 . S
C209 C208 1.402 . S
C209 C210 1.375 . S
C209 C212 1.481 . S
C210 C209 1.375 . S
C210 C211 1.367 . S
C210 H224 0.951 . S
C211 C207 1.383 . S
C211 C210 1.367 . S
C211 H225 0.950 . S
C212 C209 1.481 . S
C212 C213 1.297 . S
C212 H226 0.950 . S
C213 C212 1.297 . S
C213 C214 1.479 . S
C213 H227 0.950 . S
C214 C213 1.479 . S
C214 C215 1.375 . S
C214 C220 1.404 . S
C215 C214 1.375 . S
C215 C216 1.369 . S
C215 H228 0.950 . S
C216 C215 1.369 . S
C216 C217 1.392 . S
C216 H229 0.951 . S
C217 C216 1.392 . S
C217 C219 1.384 . S
H218 C220 0.949 . S
C219 C217 1.384 . S
C219 C220 1.385 . S
C219 H221 0.950 . S
C220 C214 1.404 . S
C220 H218 0.949 . S
C220 C219 1.385 . S
H221 C219 0.950 . S
H222 C206 0.951 . S
H223 C208 0.951 . S
H224 C210 0.951 . S
H225 C211 0.950 . S
H226 C212 0.950 . S
H227 C213 0.950 . S
H228 C215 0.950 . S
H229 C216 0.951 . S
C230 C231 1.386 . S
C230 C232 1.383 . S
C230 H246 0.951 . S
C231 C230 1.386 . S
C231 C235 1.383 1_554 S
C232 C230 1.383 . S
C232 C233 1.402 1_554 S
C232 H247 0.951 . S
C233 C232 1.402 1_556 S
C233 C234 1.375 . S
C233 C236 1.481 . S
C234 C233 1.375 . S
C234 C235 1.367 . S
C234 H248 0.951 . S
C235 C231 1.383 1_556 S
C235 C234 1.367 . S
C235 H249 0.950 . S
C236 C233 1.481 . S
C236 C237 1.297 1_556 S
C236 H250 0.950 . S
C237 C236 1.297 1_554 S
C237 C238 1.479 . S
C237 H251 0.950 . S
C238 C237 1.479 . S
C238 C239 1.375 . S
C238 C244 1.404 1_554 S
C239 C238 1.375 . S
C239 C240 1.369 . S
C239 H252 0.950 . S
C240 C239 1.369 . S
C240 C241 1.392 . S
C240 H253 0.951 . S
C241 C240 1.392 . S
C241 C243 1.384 1_554 S
H242 C244 0.949 . S
C243 C241 1.384 1_556 S
C243 C244 1.385 . S
C243 H245 0.950 . S
C244 C238 1.404 1_556 S
C244 H242 0.949 . S
C244 C243 1.385 . S
H245 C243 0.950 . S
H246 C230 0.951 . S
H247 C232 0.951 . S
H248 C234 0.951 . S
H249 C235 0.950 . S
H250 C236 0.950 . S
H251 C237 0.950 . S
H252 C239 0.950 . S
H253 C240 0.951 . S
C254 C255 1.386 . S
C254 C256 1.383 . S
C254 H270 0.951 . S
C255 C254 1.386 . S
C255 C259 1.383 . S
C256 C254 1.383 . S
C256 C257 1.402 . S
C256 H271 0.951 . S
C257 C256 1.402 . S
C257 C258 1.375 . S
C257 C260 1.481 . S
C258 C257 1.375 . S
C258 C259 1.367 . S
C258 H272 0.951 . S
C259 C255 1.383 . S
C259 C258 1.367 . S
C259 H273 0.950 . S
C260 C257 1.481 . S
C260 C261 1.297 . S
C260 H274 0.950 . S
C261 C260 1.297 . S
C261 C262 1.479 . S
C261 H275 0.950 . S
C262 C261 1.479 . S
C262 C263 1.375 . S
C262 C268 1.404 . S
C263 C262 1.375 . S
C263 C264 1.369 . S
C263 H276 0.950 . S
C264 C263 1.369 . S
C264 C265 1.392 . S
C264 H277 0.951 . S
C265 C264 1.392 . S
C265 C267 1.384 . S
H266 C268 0.949 . S
C267 C265 1.384 . S
C267 C268 1.385 . S
C267 H269 0.950 . S
C268 C262 1.404 . S
C268 H266 0.949 . S
C268 C267 1.385 . S
H269 C267 0.950 . S
H270 C254 0.951 . S
H271 C256 0.951 . S
H272 C258 0.951 . S
H273 C259 0.950 . S
H274 C260 0.950 . S
H275 C261 0.950 . S
H276 C263 0.950 . S
H277 C264 0.951 . S
C278 C279 1.386 1_556 S
C278 C280 1.383 . S
C278 H294 0.951 . S
C279 C278 1.386 1_554 S
C279 C283 1.383 . S
C280 C278 1.383 . S
C280 C281 1.402 1_556 S
C280 H295 0.951 . S
C281 C280 1.402 1_554 S
C281 C282 1.375 . S
C281 C284 1.481 . S
C282 C281 1.375 . S
C282 C283 1.367 . S
C282 H296 0.951 . S
C283 C279 1.383 . S
C283 C282 1.367 . S
C283 H297 0.950 . S
C284 C281 1.481 . S
C284 C285 1.297 . S
C284 H298 0.950 . S
C285 C284 1.297 . S
C285 C286 1.479 . S
C285 H299 0.950 1_554 S
C286 C285 1.479 . S
C286 C287 1.375 1_554 S
C286 C292 1.404 . S
C287 C286 1.375 1_556 S
C287 C288 1.369 . S
C287 H300 0.950 . S
C288 C287 1.369 . S
C288 C289 1.392 1_556 S
C288 H301 0.951 . S
C289 C288 1.392 1_554 S
C289 C291 1.384 . S
H290 C292 0.949 . S
C291 C289 1.384 . S
C291 C292 1.385 . S
C291 H293 0.950 . S
C292 C286 1.404 . S
C292 H290 0.949 . S
C292 C291 1.385 . S
H293 C291 0.950 . S
H294 C278 0.951 . S
H295 C280 0.951 . S
H296 C282 0.951 . S
H297 C283 0.950 . S
H298 C284 0.950 . S
H299 C285 0.950 1_556 S
H300 C287 0.950 . S
H301 C288 0.951 . S
C302 C303 1.386 . S
C302 C304 1.383 . S
C302 H318 0.951 . S
C303 C302 1.386 . S
C303 C307 1.383 . S
C304 C302 1.383 . S
C304 C305 1.402 . S
C304 H319 0.951 . S
C305 C304 1.402 . S
C305 C306 1.375 . S
C305 C308 1.481 . S
C306 C305 1.375 . S
C306 C307 1.367 . S
C306 H320 0.951 . S
C307 C303 1.383 . S
C307 C306 1.367 . S
C307 H321 0.950 . S
C308 C305 1.481 . S
C308 C309 1.297 . S
C308 H322 0.950 . S
C309 C308 1.297 . S
C309 C310 1.479 . S
C309 H323 0.950 . S
C310 C309 1.479 . S
C310 C311 1.375 . S
C310 C316 1.404 . S
C311 C310 1.375 . S
C311 C312 1.369 . S
C311 H324 0.950 . S
C312 C311 1.369 . S
C312 C313 1.392 . S
C312 H325 0.951 . S
C313 C312 1.392 . S
C313 C315 1.384 . S
H314 C316 0.949 . S
C315 C313 1.384 . S
C315 C316 1.385 . S
C315 H317 0.950 . S
C316 C310 1.404 . S
C316 H314 0.949 . S
C316 C315 1.385 . S
H317 C315 0.950 . S
H318 C302 0.951 . S
H319 C304 0.951 . S
H320 C306 0.951 . S
H321 C307 0.950 . S
H322 C308 0.950 . S
H323 C309 0.950 . S
H324 C311 0.950 . S
H325 C312 0.951 . S
C326 C327 1.386 . S
C326 C328 1.383 . S
C326 H342 0.951 . S
C327 C326 1.386 . S
C327 C331 1.383 . S
C328 C326 1.383 . S
C328 C329 1.402 . S
C328 H343 0.951 . S
C329 C328 1.402 . S
C329 C330 1.375 . S
C329 C332 1.481 . S
C330 C329 1.375 . S
C330 C331 1.367 . S
C330 H344 0.951 . S
C331 C327 1.383 . S
C331 C330 1.367 . S
C331 H345 0.950 . S
C332 C329 1.481 . S
C332 C333 1.297 . S
C332 H346 0.950 . S
C333 C332 1.297 . S
C333 C334 1.479 . S
C333 H347 0.950 . S
C334 C333 1.479 . S
C334 C335 1.375 . S
C334 C340 1.404 . S
C335 C334 1.375 . S
C335 C336 1.369 . S
C335 H348 0.950 . S
C336 C335 1.369 . S
C336 C337 1.392 . S
C336 H349 0.951 . S
C337 C336 1.392 . S
C337 C339 1.384 . S
H338 C340 0.949 . S
C339 C337 1.384 . S
C339 C340 1.385 . S
C339 H341 0.950 . S
C340 C334 1.404 . S
C340 H338 0.949 . S
C340 C339 1.385 . S
H341 C339 0.950 . S
H342 C326 0.951 . S
H343 C328 0.951 . S
H344 C330 0.951 . S
H345 C331 0.950 . S
H346 C332 0.950 . S
H347 C333 0.950 . S
H348 C335 0.950 . S
H349 C336 0.951 . S
C350 C351 1.386 . S
C350 C352 1.383 . S
C350 H366 0.951 . S
C351 C350 1.386 . S
C351 C355 1.383 . S
C352 C350 1.383 . S
C352 C353 1.402 . S
C352 H367 0.951 . S
C353 C352 1.402 . S
C353 C354 1.375 . S
C353 C356 1.481 . S
C354 C353 1.375 . S
C354 C355 1.367 . S
C354 H368 0.951 . S
C355 C351 1.383 . S
C355 C354 1.367 . S
C355 H369 0.950 . S
C356 C353 1.481 . S
C356 C357 1.297 . S
C356 H370 0.950 . S
C357 C356 1.297 . S
C357 C358 1.479 . S
C357 H371 0.950 . S
C358 C357 1.479 . S
C358 C359 1.375 . S
C358 C364 1.404 . S
C359 C358 1.375 . S
C359 C360 1.369 . S
C359 H372 0.950 . S
C360 C359 1.369 . S
C360 C361 1.392 . S
C360 H373 0.951 . S
C361 C360 1.392 . S
C361 C363 1.384 . S
H362 C364 0.949 . S
C363 C361 1.384 . S
C363 C364 1.385 . S
C363 H365 0.950 . S
C364 C358 1.404 . S
C364 H362 0.949 . S
C364 C363 1.385 . S
H365 C363 0.950 . S
H366 C350 0.951 . S
H367 C352 0.951 . S
H368 C354 0.951 . S
H369 C355 0.950 . S
H370 C356 0.950 . S
H371 C357 0.950 . S
H372 C359 0.950 . S
H373 C360 0.951 . S
C374 C375 1.386 . S
C374 C376 1.383 . S
C374 H390 0.951 . S
C375 C374 1.386 . S
C375 C379 1.383 . S
C376 C374 1.383 . S
C376 C377 1.402 . S
C376 H391 0.951 . S
C377 C376 1.402 . S
C377 C378 1.375 . S
C377 C380 1.481 . S
C378 C377 1.375 . S
C378 C379 1.367 . S
C378 H392 0.951 . S
C379 C375 1.383 . S
C379 C378 1.367 . S
C379 H393 0.950 . S
C380 C377 1.481 . S
C380 C381 1.297 . S
C380 H394 0.950 . S
C381 C380 1.297 . S
C381 C382 1.479 . S
C381 H395 0.950 . S
C382 C381 1.479 . S
C382 C383 1.375 . S
C382 C388 1.404 . S
C383 C382 1.375 . S
C383 C384 1.369 . S
C383 H396 0.950 . S
C384 C383 1.369 . S
C384 C385 1.392 . S
C384 H397 0.951 . S
C385 C384 1.392 . S
C385 C387 1.384 . S
H386 C388 0.949 . S
C387 C385 1.384 . S
C387 C388 1.385 . S
C387 H389 0.950 . S
C388 C382 1.404 . S
C388 H386 0.949 . S
C388 C387 1.385 . S
H389 C387 0.950 . S
H390 C374 0.951 . S
H391 C376 0.951 . S
H392 C378 0.951 . S
H393 C379 0.950 . S
H394 C380 0.950 . S
H395 C381 0.950 . S
H396 C383 0.950 . S
H397 C384 0.951 . S
C398 C399 1.386 . S
C398 C400 1.383 . S
C398 H414 0.951 . S
C399 C398 1.386 . S
C399 C403 1.383 . S
C400 C398 1.383 . S
C400 C401 1.402 . S
C400 H415 0.951 . S
C401 C400 1.402 . S
C401 C402 1.375 . S
C401 C404 1.481 . S
C402 C401 1.375 . S
C402 C403 1.367 . S
C402 H416 0.951 . S
C403 C399 1.383 . S
C403 C402 1.367 . S
C403 H417 0.950 . S
C404 C401 1.481 . S
C404 C405 1.297 . S
C404 H418 0.950 . S
C405 C404 1.297 . S
C405 C406 1.479 . S
C405 H419 0.950 . S
C406 C405 1.479 . S
C406 C407 1.375 . S
C406 C412 1.404 . S
C407 C406 1.375 . S
C407 C408 1.369 . S
C407 H420 0.950 . S
C408 C407 1.369 . S
C408 C409 1.392 . S
C408 H421 0.951 . S
C409 C408 1.392 . S
C409 C411 1.384 . S
H410 C412 0.949 . S
C411 C409 1.384 . S
C411 C412 1.385 . S
C411 H413 0.950 . S
C412 C406 1.404 . S
C412 H410 0.949 . S
C412 C411 1.385 . S
H413 C411 0.950 . S
H414 C398 0.951 . S
H415 C400 0.951 . S
H416 C402 0.951 . S
H417 C403 0.950 . S
H418 C404 0.950 . S
H419 C405 0.950 . S
H420 C407 0.950 . S
H421 C408 0.951 . S
C422 C423 1.386 . S
C422 C424 1.383 . S
C422 H438 0.951 . S
C423 C422 1.386 . S
C423 C427 1.383 . S
C424 C422 1.383 . S
C424 C425 1.402 . S
C424 H439 0.951 . S
C425 C424 1.402 . S
C425 C426 1.375 . S
C425 C428 1.481 . S
C426 C425 1.375 . S
C426 C427 1.367 . S
C426 H440 0.951 . S
C427 C423 1.383 . S
C427 C426 1.367 . S
C427 H441 0.950 . S
C428 C425 1.481 . S
C428 C429 1.297 . S
C428 H442 0.950 . S
C429 C428 1.297 . S
C429 C430 1.479 . S
C429 H443 0.950 . S
C430 C429 1.479 . S
C430 C431 1.375 . S
C430 C436 1.404 . S
C431 C430 1.375 . S
C431 C432 1.369 . S
C431 H444 0.950 . S
C432 C431 1.369 . S
C432 C433 1.392 . S
C432 H445 0.951 . S
C433 C432 1.392 . S
C433 C435 1.384 . S
H434 C436 0.949 . S
C435 C433 1.384 . S
C435 C436 1.385 . S
C435 H437 0.950 . S
C436 C430 1.404 . S
C436 H434 0.949 . S
C436 C435 1.385 . S
H437 C435 0.950 . S
H438 C422 0.951 . S
H439 C424 0.951 . S
H440 C426 0.951 . S
H441 C427 0.950 . S
H442 C428 0.950 . S
H443 C429 0.950 . S
H444 C431 0.950 . S
H445 C432 0.951 . S
C446 C447 1.386 . S
C446 C448 1.383 . S
C446 H462 0.951 . S
C447 C446 1.386 . S
C447 C451 1.383 . S
C448 C446 1.383 . S
C448 C449 1.402 . S
C448 H463 0.951 . S
C449 C448 1.402 . S
C449 C450 1.375 . S
C449 C452 1.481 . S
C450 C449 1.375 . S
C450 C451 1.367 . S
C450 H464 0.951 . S
C451 C447 1.383 . S
C451 C450 1.367 . S
C451 H465 0.950 . S
C452 C449 1.481 . S
C452 C453 1.297 . S
C452 H466 0.950 . S
C453 C452 1.297 . S
C453 C454 1.479 . S
C453 H467 0.950 . S
C454 C453 1.479 . S
C454 C455 1.375 . S
C454 C460 1.404 . S
C455 C454 1.375 . S
C455 C456 1.369 . S
C455 H468 0.950 . S
C456 C455 1.369 . S
C456 C457 1.392 . S
C456 H469 0.951 . S
C457 C456 1.392 . S
C457 C459 1.384 . S
H458 C460 0.949 . S
C459 C457 1.384 . S
C459 C460 1.385 . S
C459 H461 0.950 . S
C460 C454 1.404 . S
C460 H458 0.949 . S
C460 C459 1.385 . S
H461 C459 0.950 . S
H462 C446 0.951 . S
H463 C448 0.951 . S
H464 C450 0.951 . S
H465 C451 0.950 . S
H466 C452 0.950 . S
H467 C453 0.950 . S
H468 C455 0.950 . S
H469 C456 0.951 . S
C470 C471 1.386 . S
C470 C472 1.383 . S
C470 H486 0.951 . S
C471 C470 1.386 . S
C471 C475 1.383 . S
C472 C470 1.383 . S
C472 C473 1.402 . S
C472 H487 0.951 . S
C473 C472 1.402 . S
C473 C474 1.375 . S
C473 C476 1.481 . S
C474 C473 1.375 . S
C474 C475 1.367 . S
C474 H488 0.951 . S
C475 C471 1.383 . S
C475 C474 1.367 . S
C475 H489 0.950 . S
C476 C473 1.481 . S
C476 C477 1.297 . S
C476 H490 0.950 . S
C477 C476 1.297 . S
C477 C478 1.479 . S
C477 H491 0.950 . S
C478 C477 1.479 . S
C478 C479 1.375 . S
C478 C484 1.404 . S
C479 C478 1.375 . S
C479 C480 1.369 . S
C479 H492 0.950 . S
C480 C479 1.369 . S
C480 C481 1.392 . S
C480 H493 0.951 . S
C481 C480 1.392 . S
C481 C483 1.384 . S
H482 C484 0.949 . S
C483 C481 1.384 . S
C483 C484 1.385 . S
C483 H485 0.950 . S
C484 C478 1.404 . S
C484 H482 0.949 . S
C484 C483 1.385 . S
H485 C483 0.950 . S
H486 C470 0.951 . S
H487 C472 0.951 . S
H488 C474 0.951 . S
H489 C475 0.950 . S
H490 C476 0.950 . S
H491 C477 0.950 . S
H492 C479 0.950 . S
H493 C480 0.951 . S
C217 C177 1.639 . S
C207 C135 1.655 . S
C231 C15 1.645 . S
C241 C200 1.642 . S
C255 C55 1.678 . S
C265 C176 1.667 . S
C279 C95 1.651 . S
C289 C199 1.697 . S
C313 C180 1.598 . S
C303 C2 1.585 . S
C337 C202 1.600 . S
C327 C42 1.669 . S
C351 C82 1.583 . S
C361 C181 1.602 . S
C375 C141 1.570 . S
C385 C201 1.581 . S
C409 C204 1.608 . S
C399 C61 1.732 . S
C433 C179 1.644 . S
C423 C101 1.643 . S
C457 C203 1.610 . S
C447 C122 1.631 . S
C471 C21 1.596 . S
C481 C178 1.662 . S
