# Generated by pormake.
# Topology nia, (6,6)-cn, num edge types: 1
# Building blocks:
#     Node 0, Type 0, BuildingBlock: BETGAK_clean_sbu_0, # of connection points: 6
#     Node 1, Type 0, BuildingBlock: BETGAK_clean_sbu_0, # of connection points: 6
#     Node 2, Type 1, BuildingBlock: MIDCAF_clean_sbu_0, # of connection points: 6
#     Node 3, Type 1, BuildingBlock: MIDCAF_clean_sbu_0, # of connection points: 6
#     Edge 4, Type (0, 1), BuildingBlock: AJUNOK_clean_linker_0, # of connection points: 2
#     Edge 5, Type (0, 1), BuildingBlock: AJUNOK_clean_linker_0, # of connection points: 2
#     Edge 6, Type (0, 1), BuildingBlock: AJUNOK_clean_linker_0, # of connection points: 2
#     Edge 7, Type (0, 1), BuildingBlock: AJUNOK_clean_linker_0, # of connection points: 2
#     Edge 8, Type (0, 1), BuildingBlock: AJUNOK_clean_linker_0, # of connection points: 2
#     Edge 9, Type (0, 1), BuildingBlock: AJUNOK_clean_linker_0, # of connection points: 2
#     Edge 10, Type (0, 1), BuildingBlock: AJUNOK_clean_linker_0, # of connection points: 2
#     Edge 11, Type (0, 1), BuildingBlock: AJUNOK_clean_linker_0, # of connection points: 2
#     Edge 12, Type (0, 1), BuildingBlock: AJUNOK_clean_linker_0, # of connection points: 2
#     Edge 13, Type (0, 1), BuildingBlock: AJUNOK_clean_linker_0, # of connection points: 2
#     Edge 14, Type (0, 1), BuildingBlock: AJUNOK_clean_linker_0, # of connection points: 2
#     Edge 15, Type (0, 1), BuildingBlock: AJUNOK_clean_linker_0, # of connection points: 2
# Relax obj value: 0.379
# Max RMSD: 0.283
# Mean RMSD: 0.264
data_MOF--net-nia--node1-BETGAK_clean_sbu_0--node2-MIDCAF_clean_sbu_0--edge1-AJUNOK_clean_linker_0
_symmetry_space_group_name_H-M    P1
_symmetry_Int_Tables_number       1
_symmetry_cell_setting            triclinic
loop_
_symmetry_equiv_pos_as_xyz
'x, y, z'
_cell_length_a     19.288694
_cell_length_b     22.048388
_cell_length_c     26.499332
_cell_angle_alpha  64.677114
_cell_angle_beta   104.30556
_cell_angle_gamma 127.99229
loop_
_atom_site_label
_atom_site_type_symbol
_atom_site_fract_x
_atom_site_fract_y
_atom_site_fract_z
_atom_type_partial_charge
La0 La 0.10815 0.06216 0.05862 0.0
La1 La 0.98698 0.93359 1.01808 0.0
C2 C 0.22946 0.19331 0.07506 0.0
C3 C 0.23065 0.23944 0.1012 0.0
C4 C 0.15154 0.21421 0.11965 0.0
C5 C 0.15351 0.25017 0.15267 0.0
C6 C 0.23458 0.31076 0.16763 0.0
C7 C 0.31341 0.33686 0.14789 0.0
C8 C 0.31138 0.30091 0.11505 0.0
C9 C 0.95511 0.95077 0.11813 0.0
C10 C 0.97366 0.08162 0.96756 0.0
C11 C 0.86389 0.8008 1.00491 0.0
C12 C 0.85935 0.74033 0.99323 0.0
C13 C 0.93634 0.7484 0.9899 0.0
C14 C 0.93164 0.69404 0.97323 0.0
C15 C 0.85 0.63208 0.95993 0.0
C16 C 0.77346 0.62464 0.96342 0.0
C17 C 0.77816 0.67856 0.98011 0.0
C18 C 0.13778 0.04731 0.95652 0.0
C19 C 0.12585 0.91594 0.10595 0.0
O20 O 0.20734 0.1204 0.10972 0.0
O21 O 0.18866 0.19178 1.02772 0.0
O22 O 0.03195 -0.00911 0.13838 0.0
O23 O 0.96713 0.97821 0.06643 0.0
O24 O 0.05352 0.12212 0.98772 0.0
O25 O 0.92856 0.0011 0.98297 0.0
O26 O 0.8997 0.87263 0.96441 0.0
O27 O 0.89311 0.80608 0.05406 0.0
O28 O 0.06009 0.00534 0.93771 0.0
O29 O 0.12791 0.01943 1.00862 0.0
O30 O 0.04691 0.87533 0.08488 0.0
O31 O 0.16871 -0.00409 0.09237 0.0
H32 H 0.08871 0.16548 0.10965 0.0
H33 H 0.09224 0.23064 0.1667 0.0
H34 H 0.37665 0.38586 0.15727 0.0
H35 H 0.37263 0.31985 0.10143 0.0
H36 H 0.99969 0.79725 0.99935 0.0
H37 H 0.99096 0.69993 0.971 0.0
H38 H 0.71001 0.57734 0.95274 0.0
H39 H 0.71884 0.67306 0.98176 0.0
La40 La 0.99188 0.01536 0.55973 0.0
La41 La 0.10742 0.98764 0.52626 0.0
C42 C 0.9235 0.08055 0.5621 0.0
C43 C 0.89621 0.08647 0.60566 0.0
C44 C 0.95514 0.11759 0.6461 0.0
C45 C 0.93067 0.13225 0.68258 0.0
C46 C 0.84682 0.11476 0.6795 0.0
C47 C 0.78613 0.07834 0.6417 0.0
C48 C 0.81084 0.06455 0.60488 0.0
C49 C 0.94065 0.85975 0.62054 0.0
C50 C 0.93586 0.94664 0.462 0.0
C51 C 0.20181 0.94783 0.52068 0.0
C52 C 0.22757 0.93723 0.47927 0.0
C53 C 0.17303 0.91579 0.43476 0.0
C54 C 0.19555 0.89806 0.39921 0.0
C55 C 0.27318 0.90252 0.40754 0.0
C56 C 0.32899 0.92724 0.45086 0.0
C57 C 0.30636 0.9446 0.48634 0.0
C58 C 0.13249 0.13421 0.46573 0.0
C59 C 0.15716 0.04402 0.63152 0.0
O60 O 1.00817 0.12022 0.55557 0.0
O61 O 0.87755 0.00711 0.55949 0.0
O62 O 0.90933 0.89419 0.62638 0.0
O63 O 1.00127 0.91536 0.58357 0.0
O64 O 0.93842 -0.00469 0.48029 0.0
O65 O 0.99103 0.92563 0.48014 0.0
O66 O 0.11909 0.8946 0.53714 0.0
O67 O 0.23204 0.02336 0.51195 0.0
O68 O 0.13795 0.09238 0.44609 0.0
O69 O 0.116 0.09302 0.51728 0.0
O70 O 0.16831 0.01294 0.60344 0.0
O71 O 0.09294 0.05342 0.62078 0.0
H72 H 0.02116 0.13391 0.64799 0.0
H73 H 0.97844 0.161 0.71123 0.0
H74 H 0.7217 0.06604 0.63785 0.0
H75 H 0.76453 0.04018 0.57412 0.0
H76 H 0.11197 0.91027 0.42865 0.0
H77 H 0.15129 0.87856 0.36634 0.0
H78 H 0.38796 0.92897 0.45923 0.0
H79 H 0.34893 0.96093 0.52059 0.0
Zn80 Zn 0.43085 0.74328 0.17903 0.0
Zn81 Zn 0.4312 0.64787 0.3931 0.0
Zn82 Zn 0.4384 0.69633 0.28558 0.0
C83 C 0.61121 0.7622 0.35918 0.0
C84 C 0.33968 0.49867 0.38351 0.0
O85 O 0.36049 0.75583 0.24451 0.0
O86 O 0.36621 0.79363 0.15294 0.0
C87 C 0.61031 0.81091 0.20088 0.0
O88 O 0.57906 0.7659 0.3099 0.0
O89 O 0.56088 0.71343 0.40184 0.0
O90 O 0.36422 0.52656 0.42212 0.0
O91 O 0.36005 0.5507 0.3321 0.0
O92 O 0.55805 0.81015 0.16108 0.0
O93 O 0.57995 0.77357 0.25175 0.0
O94 O 0.36649 0.58234 0.27362 0.0
O95 O 0.35852 0.62871 0.18142 0.0
C96 C 0.34034 0.56977 0.22738 0.0
O97 O 0.38172 0.74668 0.30144 0.0
O98 O 0.37318 0.69686 0.39395 0.0
C99 C 0.33861 0.78693 0.19474 0.0
C100 C 0.36152 0.73961 0.34736 0.0
Zn101 Zn 0.63828 0.20978 0.89922 0.0
Zn102 Zn 0.66236 0.35621 0.69033 0.0
Zn103 Zn 0.65942 0.30165 0.79941 0.0
C104 C 0.76095 0.5004 0.71364 0.0
C105 C 0.48463 0.24129 0.72487 0.0
O106 O 0.74202 0.24591 0.83463 0.0
O107 O 0.69529 0.15359 0.92002 0.0
C108 C 0.74593 0.38857 0.87765 0.0
O109 O 0.7378 0.44588 0.76419 0.0
O110 O 0.73611 0.47634 0.67299 0.0
O111 O 0.53204 0.2935 0.68104 0.0
O112 O 0.52024 0.23531 0.77322 0.0
O113 O 0.71459 0.31586 0.91223 0.0
O114 O 0.73091 0.40253 0.82545 0.0
O115 O 0.51534 0.22125 0.83197 0.0
O116 O 0.51386 0.1442 0.91933 0.0
C117 C 0.47343 0.1662 0.87925 0.0
O118 O 0.71778 0.25999 0.77671 0.0
O119 O 0.72022 0.30983 0.68421 0.0
C120 C 0.74808 0.19333 0.87968 0.0
C121 C 0.73585 0.26856 0.72969 0.0
C122 C 0.1453 0.8012 0.1358 0.0
C123 C 0.17351 0.87645 0.1374 0.0
C124 C 0.19661 0.77003 0.15802 0.0
C125 C 0.27755 0.81145 0.18398 0.0
H126 H 0.0854 0.76814 0.11465 0.0
H127 H 0.17436 0.71444 0.1528 0.0
S128 S 0.38028 0.0086 0.20153 0.0
N129 N 0.28731 0.98952 0.16989 0.0
N130 N 0.38264 0.93107 0.21037 0.0
C131 C 0.30487 0.88475 0.18785 0.0
C132 C 0.25315 0.91696 0.16506 0.0
C133 C 0.25476 0.15736 0.67 0.0
C134 C 0.22807 0.08199 0.6695 0.0
C135 C 0.33532 0.20634 0.69296 0.0
C136 C 0.39032 0.18026 0.7181 0.0
H137 H 0.21717 0.18229 0.64817 0.0
H138 H 0.3573 0.26727 0.68782 0.0
S139 S 0.34516 0.98305 0.73516 0.0
N140 N 0.25953 0.98035 0.70122 0.0
N141 N 0.40889 0.07103 0.74617 0.0
C142 C 0.3607 0.1019 0.72247 0.0
C143 C 0.27999 0.05302 0.69779 0.0
C144 C 0.19934 0.39719 0.17394 0.0
C145 C 0.23878 0.35515 0.19771 0.0
C146 C 0.22738 0.46311 0.18797 0.0
C147 C 0.29496 0.48795 0.22619 0.0
H148 H 0.15328 0.38474 0.14037 0.0
H149 H 0.20093 0.49877 0.16566 0.0
S150 S 0.40552 0.38625 0.30792 0.0
N151 N 0.3364 0.33235 0.26814 0.0
N152 N 0.39244 0.45942 0.29288 0.0
C153 C 0.32793 0.44073 0.25466 0.0
C154 C 0.29851 0.37295 0.24091 0.0
C155 C 0.88159 0.23562 0.69159 0.0
C156 C 0.82813 0.14946 0.70635 0.0
C157 C 0.85315 0.27413 0.702 0.0
C158 C 0.77159 0.22728 0.72848 0.0
H159 H 0.94235 0.27395 0.66782 0.0
H160 H 0.89312 0.34094 0.687 0.0
S161 S 0.61221 -5e-05 0.78093 0.0
N162 N 0.69369 0.01819 0.7528 0.0
N163 N 0.64085 0.09114 0.77339 0.0
C164 C 0.72069 0.14103 0.74739 0.0
C165 C 0.74898 0.1018 0.73611 0.0
C166 C 0.81423 0.93763 0.10903 0.0
C167 C 0.8716 0.91846 0.14323 0.0
C168 C 0.73343 0.90623 0.12955 0.0
C169 C 0.70406 0.85245 0.18537 0.0
H170 H 0.83154 0.97725 0.0655 0.0
H171 H 0.69239 0.92301 0.10044 0.0
S172 S 0.83019 0.78303 0.29277 0.0
N173 N 0.89512 0.84435 0.23651 0.0
N174 N 0.74126 0.78219 0.27471 0.0
C175 C 0.76174 0.83403 0.22059 0.0
C176 C 0.84559 0.86757 0.19968 0.0
C177 C 0.92307 0.73074 0.63123 0.0
C178 C 0.90512 0.76988 0.65084 0.0
C179 C 0.87994 0.64433 0.65453 0.0
C180 C 0.81733 0.59248 0.69906 0.0
H181 H 0.9676 0.76643 0.59585 0.0
H182 H 0.89363 0.61732 0.63599 0.0
S183 S 0.75121 0.66426 0.76896 0.0
N184 N 0.82362 0.74975 0.72039 0.0
N185 N 0.74297 0.58833 0.76322 0.0
C186 C 0.80148 0.63112 0.72066 0.0
C187 C 0.84519 0.71925 0.69685 0.0
C188 C 0.2261 0.78934 0.37808 0.0
C189 C 0.29067 0.87041 0.37709 0.0
C190 C 0.24767 0.7485 0.36374 0.0
C191 C 0.33381 0.78819 0.34706 0.0
H192 H 0.16046 0.7549 0.39445 0.0
H193 H 0.19826 0.68408 0.36905 0.0
S194 S 0.52359 0.00297 0.33042 0.0
N195 N 0.44169 -0.00847 0.35225 0.0
N196 N 0.48204 0.91399 0.32575 0.0
C197 C 0.39711 0.8709 0.34171 0.0
C198 C 0.37545 0.91243 0.35643 0.0
C199 C 0.26576 0.14944 0.88655 0.0
C200 C 0.21698 0.07341 0.93074 0.0
C201 C 0.34603 0.17736 0.86651 0.0
C202 C 0.38013 0.13009 0.89008 0.0
H203 H 0.24364 0.18902 0.86893 0.0
H204 H 0.38382 0.2381 0.83464 0.0
S205 S 0.26973 0.92079 1.00069 0.0
N206 N 0.2035 0.94773 0.99272 0.0
N207 N 0.35231 -0.00106 0.95579 0.0
C208 C 0.32835 0.05159 0.93174 0.0
C209 C 0.24751 0.02366 0.95193 0.0
C210 C 0.16985 0.27209 0.3905 0.0
C211 C 0.18725 0.22719 0.44239 0.0
C212 C 0.21971 0.35975 0.37039 0.0
C213 C 0.29072 0.40634 0.40055 0.0
H214 H 0.11568 0.23915 0.36605 0.0
H215 H 0.20084 0.39085 0.33185 0.0
S216 S 0.36864 0.3186 0.53605 0.0
N217 N 0.28343 0.23691 0.52171 0.0
N218 N 0.37805 0.39904 0.48377 0.0
C219 C 0.31005 0.36157 0.45151 0.0
C220 C 0.25855 0.27308 0.47229 0.0
C221 C 0.84322 0.07358 0.9128 0.0
C222 C 0.92662 0.12103 0.93461 0.0
C223 C 0.78881 0.10084 0.8903 0.0
C224 C 0.81578 0.17796 0.88678 0.0
H225 H 0.81715 0.0124 0.91573 0.0
H226 H 0.72288 0.05898 0.87854 0.0
S227 S 0.02908 0.32934 0.93406 0.0
N228 N 0.03461 0.25174 0.94839 0.0
N229 N 0.93276 0.30326 0.90499 0.0
C230 C 0.90069 0.22835 0.90528 0.0
C231 C 0.95607 0.2001 0.92912 0.0
C232 C 0.8308 0.82983 0.42699 0.0
C233 C 0.86402 0.90879 0.42417 0.0
C234 C 0.75227 0.78508 0.4008 0.0
C235 C 0.70573 0.81866 0.36886 0.0
H236 H 0.86188 0.79963 0.45308 0.0
H237 H 0.72495 0.72178 0.40829 0.0
S238 S 0.76923 0.02613 0.34269 0.0
N239 N 0.84721 0.02102 0.3831 0.0
N240 N 0.70138 0.93752 0.33256 0.0
C241 C 0.7416 0.89973 0.36206 0.0
C242 C 0.82036 0.9447 0.38993 0.0
C243 C 0.77954 0.48856 0.97315 0.0
C244 C 0.84131 0.57232 0.94374 0.0
C245 C 0.7525 0.42969 0.95199 0.0
C246 C 0.78654 0.45268 0.90074 0.0
H247 H 0.74817 0.46892 1.01121 0.0
H248 H 0.70087 0.36608 0.97465 0.0
S249 S 0.96608 0.66237 0.81525 0.0
N250 N 0.9466 0.67523 0.86594 0.0
N251 N 0.89686 0.56251 0.82645 0.0
C252 C 0.85456 0.53541 0.87351 0.0
C253 C 0.88214 0.59593 0.8952 0.0
loop_
_geom_bond_atom_site_label_1
_geom_bond_atom_site_label_2
_geom_bond_distance
_geom_bond_site_symmetry_2
_ccdc_geom_bond_type
La0 C2 2.928 . S
La0 O20 2.521 . S
La0 O21 2.628 . S
La0 O22 2.554 1_445 S
La0 O23 2.757 1_445 S
La0 O24 2.470 . S
La0 O29 2.482 1_554 S
La0 O31 2.503 1_545 S
La1 C11 2.928 . S
La1 O23 2.482 1_556 S
La1 O25 2.503 1_565 S
La1 O26 2.521 . S
La1 O27 2.628 . S
La1 O28 2.554 1_665 S
La1 O29 2.757 1_665 S
La1 O30 2.470 1_656 S
C2 La0 2.928 . S
C2 C3 1.503 . S
C2 O20 1.261 . S
C2 O21 1.243 . S
C3 C2 1.503 . S
C3 C4 1.394 . S
C3 C8 1.373 . S
C4 C3 1.394 . S
C4 C5 1.380 . S
C4 H32 0.930 . S
C5 C4 1.380 . S
C5 C6 1.376 . S
C5 H33 0.930 . S
C6 C5 1.376 . S
C6 C7 1.370 . S
C7 C6 1.370 . S
C7 C8 1.396 . S
C7 H34 0.929 . S
C8 C3 1.373 . S
C8 C7 1.396 . S
C8 H35 0.929 . S
C9 O22 1.240 . S
C9 O23 1.289 . S
C10 O24 1.258 1_656 S
C10 O25 1.256 . S
C11 La1 2.928 . S
C11 C12 1.503 . S
C11 O26 1.261 . S
C11 O27 1.243 . S
C12 C11 1.503 . S
C12 C13 1.394 . S
C12 C17 1.373 . S
C13 C12 1.394 . S
C13 C14 1.380 . S
C13 H36 0.930 . S
C14 C13 1.380 . S
C14 C15 1.376 . S
C14 H37 0.930 . S
C15 C14 1.376 . S
C15 C16 1.370 . S
C16 C15 1.370 . S
C16 C17 1.396 . S
C16 H38 0.929 1_556 S
C17 C12 1.373 . S
C17 C16 1.396 . S
C17 H39 0.929 1_556 S
C18 O28 1.240 . S
C18 O29 1.289 . S
C19 O30 1.258 . S
C19 O31 1.256 . S
O20 La0 2.521 . S
O20 C2 1.261 . S
O21 La0 2.628 . S
O21 C2 1.243 . S
O22 La0 2.554 1_665 S
O22 C9 1.240 . S
O23 La0 2.757 1_665 S
O23 La1 2.482 1_554 S
O23 C9 1.289 . S
O24 La0 2.470 . S
O24 C10 1.258 1_454 S
O25 La1 2.503 1_545 S
O25 C10 1.256 . S
O26 La1 2.521 . S
O26 C11 1.261 . S
O27 La1 2.628 . S
O27 C11 1.243 . S
O28 La1 2.554 1_445 S
O28 C18 1.240 . S
O29 La0 2.482 1_556 S
O29 La1 2.757 1_445 S
O29 C18 1.289 . S
O30 La1 2.470 1_454 S
O30 C19 1.258 . S
O31 La0 2.503 1_565 S
O31 C19 1.256 . S
H32 C4 0.930 . S
H33 C5 0.930 . S
H34 C7 0.929 . S
H35 C8 0.929 . S
H36 C13 0.930 . S
H37 C14 0.930 . S
H38 C16 0.929 1_554 S
H39 C17 0.929 1_554 S
La40 C42 2.928 1_455 S
La40 O60 2.521 1_455 S
La40 O61 2.628 1_455 S
La40 O62 2.554 1_445 S
La40 O63 2.757 1_545 S
La40 O64 2.470 1_445 S
La40 O69 2.482 . S
La40 O71 2.503 . S
La41 C51 2.928 . S
La41 O63 2.482 . S
La41 O65 2.503 1_455 S
La41 O66 2.521 1_565 S
La41 O67 2.628 . S
La41 O68 2.554 1_565 S
La41 O69 2.757 1_565 S
La41 O70 2.470 1_565 S
C42 La40 2.928 1_655 S
C42 C43 1.503 . S
C42 O60 1.261 . S
C42 O61 1.243 . S
C43 C42 1.503 . S
C43 C44 1.394 . S
C43 C48 1.373 . S
C44 C43 1.394 . S
C44 C45 1.380 . S
C44 H72 0.930 1_545 S
C45 C44 1.380 . S
C45 C46 1.376 . S
C45 H73 0.930 . S
C46 C45 1.376 . S
C46 C47 1.370 . S
C47 C46 1.370 . S
C47 C48 1.396 . S
C47 H74 0.929 . S
C48 C43 1.373 . S
C48 C47 1.396 . S
C48 H75 0.929 . S
C49 O62 1.240 . S
C49 O63 1.289 1_655 S
C50 O64 1.258 . S
C50 O65 1.256 . S
C51 La41 2.928 . S
C51 C52 1.503 . S
C51 O66 1.261 1_565 S
C51 O67 1.243 . S
C52 C51 1.503 . S
C52 C53 1.394 1_565 S
C52 C57 1.373 . S
C53 C52 1.394 1_545 S
C53 C54 1.380 . S
C53 H76 0.930 . S
C54 C53 1.380 . S
C54 C55 1.376 1_545 S
C54 H77 0.930 . S
C55 C54 1.376 1_565 S
C55 C56 1.370 . S
C56 C55 1.370 . S
C56 C57 1.396 . S
C56 H78 0.929 . S
C57 C52 1.373 . S
C57 C56 1.396 . S
C57 H79 0.929 . S
C58 O68 1.240 . S
C58 O69 1.289 . S
C59 O70 1.258 . S
C59 O71 1.256 . S
O60 La40 2.521 1_655 S
O60 C42 1.261 . S
O61 La40 2.628 1_655 S
O61 C42 1.243 . S
O62 La40 2.554 1_665 S
O62 C49 1.240 . S
O63 La40 2.757 1_565 S
O63 La41 2.482 . S
O63 C49 1.289 1_455 S
O64 La40 2.470 1_665 S
O64 C50 1.258 . S
O65 La41 2.503 1_655 S
O65 C50 1.256 . S
O66 La41 2.521 1_545 S
O66 C51 1.261 1_545 S
O67 La41 2.628 . S
O67 C51 1.243 . S
O68 La41 2.554 1_545 S
O68 C58 1.240 . S
O69 La40 2.482 . S
O69 La41 2.757 1_545 S
O69 C58 1.289 . S
O70 La41 2.470 1_545 S
O70 C59 1.258 . S
O71 La40 2.503 . S
O71 C59 1.256 . S
H72 C44 0.930 1_565 S
H73 C45 0.930 . S
H74 C47 0.929 . S
H75 C48 0.929 . S
H76 C53 0.930 . S
H77 C54 0.930 . S
H78 C56 0.929 . S
H79 C57 0.929 . S
Zn80 O86 1.920 . S
Zn80 O92 1.898 . S
Zn80 O95 1.905 . S
Zn81 O89 1.905 . S
Zn81 O90 1.898 . S
Zn81 O98 1.920 . S
Zn82 O85 2.080 . S
Zn82 O88 2.114 . S
Zn82 O91 2.120 . S
Zn82 O93 2.120 . S
Zn82 O94 2.114 . S
Zn82 O97 2.080 . S
C83 O88 1.166 . S
C83 O89 1.182 . S
C84 O90 1.167 . S
C84 O91 1.299 . S
O85 Zn82 2.080 . S
O85 C99 1.305 . S
O86 Zn80 1.920 . S
O86 C99 1.234 . S
C87 O92 1.167 . S
C87 O93 1.299 . S
O88 Zn82 2.114 . S
O88 C83 1.166 . S
O89 Zn81 1.905 . S
O89 C83 1.182 . S
O90 Zn81 1.898 . S
O90 C84 1.167 . S
O91 Zn82 2.120 . S
O91 C84 1.299 . S
O92 Zn80 1.898 . S
O92 C87 1.167 . S
O93 Zn82 2.120 . S
O93 C87 1.299 . S
O94 Zn82 2.114 . S
O94 C96 1.166 . S
O95 Zn80 1.905 . S
O95 C96 1.182 . S
C96 O94 1.166 . S
C96 O95 1.182 . S
O97 Zn82 2.080 . S
O97 C100 1.305 . S
O98 Zn81 1.920 . S
O98 C100 1.234 . S
C99 O85 1.305 . S
C99 O86 1.234 . S
C100 O97 1.305 . S
C100 O98 1.234 . S
Zn101 O107 1.920 . S
Zn101 O113 1.898 . S
Zn101 O116 1.905 . S
Zn102 O110 1.905 . S
Zn102 O111 1.898 . S
Zn102 O119 1.920 . S
Zn103 O106 2.080 . S
Zn103 O109 2.114 . S
Zn103 O112 2.120 . S
Zn103 O114 2.120 . S
Zn103 O115 2.114 . S
Zn103 O118 2.080 . S
C104 O109 1.166 . S
C104 O110 1.182 . S
C105 O111 1.167 . S
C105 O112 1.299 . S
O106 Zn103 2.080 . S
O106 C120 1.305 . S
O107 Zn101 1.920 . S
O107 C120 1.234 . S
C108 O113 1.167 . S
C108 O114 1.299 . S
O109 Zn103 2.114 . S
O109 C104 1.166 . S
O110 Zn102 1.905 . S
O110 C104 1.182 . S
O111 Zn102 1.898 . S
O111 C105 1.167 . S
O112 Zn103 2.120 . S
O112 C105 1.299 . S
O113 Zn101 1.898 . S
O113 C108 1.167 . S
O114 Zn103 2.120 . S
O114 C108 1.299 . S
O115 Zn103 2.114 . S
O115 C117 1.166 . S
O116 Zn101 1.905 . S
O116 C117 1.182 . S
C117 O115 1.166 . S
C117 O116 1.182 . S
O118 Zn103 2.080 . S
O118 C121 1.305 . S
O119 Zn102 1.920 . S
O119 C121 1.234 . S
C120 O106 1.305 . S
C120 O107 1.234 . S
C121 O118 1.305 . S
C121 O119 1.234 . S
C122 C123 1.369 . S
C122 C124 1.419 . S
C122 H126 0.930 . S
C123 C122 1.369 . S
C123 C132 1.429 . S
C124 C122 1.419 . S
C124 C125 1.363 . S
C124 H127 0.929 . S
C125 C124 1.363 . S
C125 C131 1.428 . S
H126 C122 0.930 . S
H127 C124 0.929 . S
S128 N129 1.613 . S
S128 N130 1.610 . S
N129 S128 1.613 . S
N129 C132 1.350 . S
N130 S128 1.610 . S
N130 C131 1.351 . S
C131 C125 1.428 . S
C131 N130 1.351 . S
C131 C132 1.434 . S
C132 C123 1.429 . S
C132 N129 1.350 . S
C132 C131 1.434 . S
C133 C134 1.369 . S
C133 C135 1.419 . S
C133 H137 0.930 . S
C134 C133 1.369 . S
C134 C143 1.429 . S
C135 C133 1.419 . S
C135 C136 1.363 . S
C135 H138 0.929 . S
C136 C135 1.363 . S
C136 C142 1.428 . S
H137 C133 0.930 . S
H138 C135 0.929 . S
S139 N140 1.613 . S
S139 N141 1.610 1_565 S
N140 S139 1.613 . S
N140 C143 1.350 1_565 S
N141 S139 1.610 1_545 S
N141 C142 1.351 . S
C142 C136 1.428 . S
C142 N141 1.351 . S
C142 C143 1.434 . S
C143 C134 1.429 . S
C143 N140 1.350 1_545 S
C143 C142 1.434 . S
C144 C145 1.369 . S
C144 C146 1.419 . S
C144 H148 0.930 . S
C145 C144 1.369 . S
C145 C154 1.429 . S
C146 C144 1.419 . S
C146 C147 1.363 . S
C146 H149 0.929 . S
C147 C146 1.363 . S
C147 C153 1.428 . S
H148 C144 0.930 . S
H149 C146 0.929 . S
S150 N151 1.613 . S
S150 N152 1.610 . S
N151 S150 1.613 . S
N151 C154 1.350 . S
N152 S150 1.610 . S
N152 C153 1.351 . S
C153 C147 1.428 . S
C153 N152 1.351 . S
C153 C154 1.434 . S
C154 C145 1.429 . S
C154 N151 1.350 . S
C154 C153 1.434 . S
C155 C156 1.369 . S
C155 C157 1.419 . S
C155 H159 0.930 . S
C156 C155 1.369 . S
C156 C165 1.429 . S
C157 C155 1.419 . S
C157 C158 1.363 . S
C157 H160 0.929 . S
C158 C157 1.363 . S
C158 C164 1.428 . S
H159 C155 0.930 . S
H160 C157 0.929 . S
S161 N162 1.613 . S
S161 N163 1.610 . S
N162 S161 1.613 . S
N162 C165 1.350 . S
N163 S161 1.610 . S
N163 C164 1.351 . S
C164 C158 1.428 . S
C164 N163 1.351 . S
C164 C165 1.434 . S
C165 C156 1.429 . S
C165 N162 1.350 . S
C165 C164 1.434 . S
C166 C167 1.369 . S
C166 C168 1.419 . S
C166 H170 0.930 . S
C167 C166 1.369 . S
C167 C176 1.429 . S
C168 C166 1.419 . S
C168 C169 1.363 . S
C168 H171 0.929 . S
C169 C168 1.363 . S
C169 C175 1.428 . S
H170 C166 0.930 . S
H171 C168 0.929 . S
S172 N173 1.613 . S
S172 N174 1.610 . S
N173 S172 1.613 . S
N173 C176 1.350 . S
N174 S172 1.610 . S
N174 C175 1.351 . S
C175 C169 1.428 . S
C175 N174 1.351 . S
C175 C176 1.434 . S
C176 C167 1.429 . S
C176 N173 1.350 . S
C176 C175 1.434 . S
C177 C178 1.369 . S
C177 C179 1.419 . S
C177 H181 0.930 . S
C178 C177 1.369 . S
C178 C187 1.429 . S
C179 C177 1.419 . S
C179 C180 1.363 . S
C179 H182 0.929 . S
C180 C179 1.363 . S
C180 C186 1.428 . S
H181 C177 0.930 . S
H182 C179 0.929 . S
S183 N184 1.613 . S
S183 N185 1.610 . S
N184 S183 1.613 . S
N184 C187 1.350 . S
N185 S183 1.610 . S
N185 C186 1.351 . S
C186 C180 1.428 . S
C186 N185 1.351 . S
C186 C187 1.434 . S
C187 C178 1.429 . S
C187 N184 1.350 . S
C187 C186 1.434 . S
C188 C189 1.369 . S
C188 C190 1.419 . S
C188 H192 0.930 . S
C189 C188 1.369 . S
C189 C198 1.429 . S
C190 C188 1.419 . S
C190 C191 1.363 . S
C190 H193 0.929 . S
C191 C190 1.363 . S
C191 C197 1.428 . S
H192 C188 0.930 . S
H193 C190 0.929 . S
S194 N195 1.613 . S
S194 N196 1.610 1_545 S
N195 S194 1.613 . S
N195 C198 1.350 1_545 S
N196 S194 1.610 1_565 S
N196 C197 1.351 . S
C197 C191 1.428 . S
C197 N196 1.351 . S
C197 C198 1.434 . S
C198 C189 1.429 . S
C198 N195 1.350 1_565 S
C198 C197 1.434 . S
C199 C200 1.369 . S
C199 C201 1.419 . S
C199 H203 0.930 . S
C200 C199 1.369 . S
C200 C209 1.429 . S
C201 C199 1.419 . S
C201 C202 1.363 . S
C201 H204 0.929 . S
C202 C201 1.363 . S
C202 C208 1.428 . S
H203 C199 0.930 . S
H204 C201 0.929 . S
S205 N206 1.613 1_565 S
S205 N207 1.610 1_565 S
N206 S205 1.613 1_545 S
N206 C209 1.350 . S
N207 S205 1.610 1_545 S
N207 C208 1.351 . S
C208 C202 1.428 . S
C208 N207 1.351 . S
C208 C209 1.434 . S
C209 C200 1.429 . S
C209 N206 1.350 . S
C209 C208 1.434 . S
C210 C211 1.369 . S
C210 C212 1.419 . S
C210 H214 0.930 . S
C211 C210 1.369 . S
C211 C220 1.429 . S
C212 C210 1.419 . S
C212 C213 1.363 . S
C212 H215 0.929 . S
C213 C212 1.363 . S
C213 C219 1.428 . S
H214 C210 0.930 . S
H215 C212 0.929 . S
S216 N217 1.613 . S
S216 N218 1.610 . S
N217 S216 1.613 . S
N217 C220 1.350 . S
N218 S216 1.610 . S
N218 C219 1.351 . S
C219 C213 1.428 . S
C219 N218 1.351 . S
C219 C220 1.434 . S
C220 C211 1.429 . S
C220 N217 1.350 . S
C220 C219 1.434 . S
C221 C222 1.369 . S
C221 C223 1.419 . S
C221 H225 0.930 . S
C222 C221 1.369 . S
C222 C231 1.429 . S
C223 C221 1.419 . S
C223 C224 1.363 . S
C223 H226 0.929 . S
C224 C223 1.363 . S
C224 C230 1.428 . S
H225 C221 0.930 . S
H226 C223 0.929 . S
S227 N228 1.613 . S
S227 N229 1.610 1_554 S
N228 S227 1.613 . S
N228 C231 1.350 1_554 S
N229 S227 1.610 1_556 S
N229 C230 1.351 . S
C230 C224 1.428 . S
C230 N229 1.351 . S
C230 C231 1.434 . S
C231 C222 1.429 . S
C231 N228 1.350 1_556 S
C231 C230 1.434 . S
C232 C233 1.369 . S
C232 C234 1.419 . S
C232 H236 0.930 . S
C233 C232 1.369 . S
C233 C242 1.429 . S
C234 C232 1.419 . S
C234 C235 1.363 . S
C234 H237 0.929 . S
C235 C234 1.363 . S
C235 C241 1.428 . S
H236 C232 0.930 . S
H237 C234 0.929 . S
S238 N239 1.613 . S
S238 N240 1.610 . S
N239 S238 1.613 . S
N239 C242 1.350 . S
N240 S238 1.610 . S
N240 C241 1.351 . S
C241 C235 1.428 . S
C241 N240 1.351 . S
C241 C242 1.434 . S
C242 C233 1.429 . S
C242 N239 1.350 . S
C242 C241 1.434 . S
C243 C244 1.369 . S
C243 C245 1.419 . S
C243 H247 0.930 . S
C244 C243 1.369 . S
C244 C253 1.429 . S
C245 C243 1.419 . S
C245 C246 1.363 . S
C245 H248 0.929 . S
C246 C245 1.363 . S
C246 C252 1.428 . S
H247 C243 0.930 . S
H248 C245 0.929 . S
S249 N250 1.613 . S
S249 N251 1.610 . S
N250 S249 1.613 . S
N250 C253 1.350 . S
N251 S249 1.610 . S
N251 C252 1.351 . S
C252 C246 1.428 . S
C252 N251 1.351 . S
C252 C253 1.434 . S
C253 C244 1.429 . S
C253 N250 1.350 . S
C253 C252 1.434 . S
C123 C19 1.887 . S
C125 C99 1.908 . S
C134 C59 1.297 . S
C136 C105 1.225 . S
C145 C6 1.087 . S
C147 C96 0.973 . S
C156 C46 1.643 . S
C158 C121 1.465 . S
C167 C9 2.164 . S
C169 C87 2.057 . S
C180 C104 2.322 . S
C178 C49 2.364 . S
C189 C55 1.416 . S
C191 C100 1.318 . S
C202 C117 1.739 . S
C200 C18 1.775 . S
C213 C84 2.103 . S
C211 C58 2.174 . S
C224 C120 2.186 . S
C222 C10 2.149 . S
C235 C83 1.560 . S
C233 C50 1.613 . S
C246 C108 0.939 . S
C244 C15 1.056 . S
