# Generated by pormake.
# Topology gar, (4,6)-cn, num edge types: 1
# Building blocks:
#     Node 0, Type 0, BuildingBlock: QUQFOY_clean_sbu_1, # of connection points: 4
#     Node 1, Type 0, BuildingBlock: QUQFOY_clean_sbu_1, # of connection points: 4
#     Node 2, Type 0, BuildingBlock: QUQFOY_clean_sbu_1, # of connection points: 4
#     Node 3, Type 0, BuildingBlock: QUQFOY_clean_sbu_1, # of connection points: 4
#     Node 4, Type 0, BuildingBlock: QUQFOY_clean_sbu_1, # of connection points: 4
#     Node 5, Type 0, BuildingBlock: QUQFOY_clean_sbu_1, # of connection points: 4
#     Node 6, Type 0, BuildingBlock: QUQFOY_clean_sbu_1, # of connection points: 4
#     Node 7, Type 0, BuildingBlock: QUQFOY_clean_sbu_1, # of connection points: 4
#     Node 8, Type 0, BuildingBlock: QUQFOY_clean_sbu_1, # of connection points: 4
#     Node 9, Type 0, BuildingBlock: QUQFOY_clean_sbu_1, # of connection points: 4
#     Node 10, Type 0, BuildingBlock: QUQFOY_clean_sbu_1, # of connection points: 4
#     Node 11, Type 0, BuildingBlock: QUQFOY_clean_sbu_1, # of connection points: 4
#     Node 12, Type 0, BuildingBlock: QUQFOY_clean_sbu_1, # of connection points: 4
#     Node 13, Type 0, BuildingBlock: QUQFOY_clean_sbu_1, # of connection points: 4
#     Node 14, Type 0, BuildingBlock: QUQFOY_clean_sbu_1, # of connection points: 4
#     Node 15, Type 0, BuildingBlock: QUQFOY_clean_sbu_1, # of connection points: 4
#     Node 16, Type 0, BuildingBlock: QUQFOY_clean_sbu_1, # of connection points: 4
#     Node 17, Type 0, BuildingBlock: QUQFOY_clean_sbu_1, # of connection points: 4
#     Node 18, Type 0, BuildingBlock: QUQFOY_clean_sbu_1, # of connection points: 4
#     Node 19, Type 0, BuildingBlock: QUQFOY_clean_sbu_1, # of connection points: 4
#     Node 20, Type 0, BuildingBlock: QUQFOY_clean_sbu_1, # of connection points: 4
#     Node 21, Type 0, BuildingBlock: QUQFOY_clean_sbu_1, # of connection points: 4
#     Node 22, Type 0, BuildingBlock: QUQFOY_clean_sbu_1, # of connection points: 4
#     Node 23, Type 0, BuildingBlock: QUQFOY_clean_sbu_1, # of connection points: 4
#     Node 24, Type 1, BuildingBlock: MIFKUJ_clean_sbu_0, # of connection points: 6
#     Node 25, Type 1, BuildingBlock: MIFKUJ_clean_sbu_0, # of connection points: 6
#     Node 26, Type 1, BuildingBlock: MIFKUJ_clean_sbu_0, # of connection points: 6
#     Node 27, Type 1, BuildingBlock: MIFKUJ_clean_sbu_0, # of connection points: 6
#     Node 28, Type 1, BuildingBlock: MIFKUJ_clean_sbu_0, # of connection points: 6
#     Node 29, Type 1, BuildingBlock: MIFKUJ_clean_sbu_0, # of connection points: 6
#     Node 30, Type 1, BuildingBlock: MIFKUJ_clean_sbu_0, # of connection points: 6
#     Node 31, Type 1, BuildingBlock: MIFKUJ_clean_sbu_0, # of connection points: 6
#     Node 32, Type 1, BuildingBlock: MIFKUJ_clean_sbu_0, # of connection points: 6
#     Node 33, Type 1, BuildingBlock: MIFKUJ_clean_sbu_0, # of connection points: 6
#     Node 34, Type 1, BuildingBlock: MIFKUJ_clean_sbu_0, # of connection points: 6
#     Node 35, Type 1, BuildingBlock: MIFKUJ_clean_sbu_0, # of connection points: 6
#     Node 36, Type 1, BuildingBlock: MIFKUJ_clean_sbu_0, # of connection points: 6
#     Node 37, Type 1, BuildingBlock: MIFKUJ_clean_sbu_0, # of connection points: 6
#     Node 38, Type 1, BuildingBlock: MIFKUJ_clean_sbu_0, # of connection points: 6
#     Node 39, Type 1, BuildingBlock: MIFKUJ_clean_sbu_0, # of connection points: 6
#     Edge 40, Type (0, 1), BuildingBlock: TEMPAE_clean_linker_10, # of connection points: 2
#     Edge 41, Type (0, 1), BuildingBlock: TEMPAE_clean_linker_10, # of connection points: 2
#     Edge 42, Type (0, 1), BuildingBlock: TEMPAE_clean_linker_10, # of connection points: 2
#     Edge 43, Type (0, 1), BuildingBlock: TEMPAE_clean_linker_10, # of connection points: 2
#     Edge 44, Type (0, 1), BuildingBlock: TEMPAE_clean_linker_10, # of connection points: 2
#     Edge 45, Type (0, 1), BuildingBlock: TEMPAE_clean_linker_10, # of connection points: 2
#     Edge 46, Type (0, 1), BuildingBlock: TEMPAE_clean_linker_10, # of connection points: 2
#     Edge 47, Type (0, 1), BuildingBlock: TEMPAE_clean_linker_10, # of connection points: 2
#     Edge 48, Type (0, 1), BuildingBlock: TEMPAE_clean_linker_10, # of connection points: 2
#     Edge 49, Type (0, 1), BuildingBlock: TEMPAE_clean_linker_10, # of connection points: 2
#     Edge 50, Type (0, 1), BuildingBlock: TEMPAE_clean_linker_10, # of connection points: 2
#     Edge 51, Type (0, 1), BuildingBlock: TEMPAE_clean_linker_10, # of connection points: 2
#     Edge 52, Type (0, 1), BuildingBlock: TEMPAE_clean_linker_10, # of connection points: 2
#     Edge 53, Type (0, 1), BuildingBlock: TEMPAE_clean_linker_10, # of connection points: 2
#     Edge 54, Type (0, 1), BuildingBlock: TEMPAE_clean_linker_10, # of connection points: 2
#     Edge 55, Type (0, 1), BuildingBlock: TEMPAE_clean_linker_10, # of connection points: 2
#     Edge 56, Type (0, 1), BuildingBlock: TEMPAE_clean_linker_10, # of connection points: 2
#     Edge 57, Type (0, 1), BuildingBlock: TEMPAE_clean_linker_10, # of connection points: 2
#     Edge 58, Type (0, 1), BuildingBlock: TEMPAE_clean_linker_10, # of connection points: 2
#     Edge 59, Type (0, 1), BuildingBlock: TEMPAE_clean_linker_10, # of connection points: 2
#     Edge 60, Type (0, 1), BuildingBlock: TEMPAE_clean_linker_10, # of connection points: 2
#     Edge 61, Type (0, 1), BuildingBlock: TEMPAE_clean_linker_10, # of connection points: 2
#     Edge 62, Type (0, 1), BuildingBlock: TEMPAE_clean_linker_10, # of connection points: 2
#     Edge 63, Type (0, 1), BuildingBlock: TEMPAE_clean_linker_10, # of connection points: 2
#     Edge 64, Type (0, 1), BuildingBlock: TEMPAE_clean_linker_10, # of connection points: 2
#     Edge 65, Type (0, 1), BuildingBlock: TEMPAE_clean_linker_10, # of connection points: 2
#     Edge 66, Type (0, 1), BuildingBlock: TEMPAE_clean_linker_10, # of connection points: 2
#     Edge 67, Type (0, 1), BuildingBlock: TEMPAE_clean_linker_10, # of connection points: 2
#     Edge 68, Type (0, 1), BuildingBlock: TEMPAE_clean_linker_10, # of connection points: 2
#     Edge 69, Type (0, 1), BuildingBlock: TEMPAE_clean_linker_10, # of connection points: 2
#     Edge 70, Type (0, 1), BuildingBlock: TEMPAE_clean_linker_10, # of connection points: 2
#     Edge 71, Type (0, 1), BuildingBlock: TEMPAE_clean_linker_10, # of connection points: 2
#     Edge 72, Type (0, 1), BuildingBlock: TEMPAE_clean_linker_10, # of connection points: 2
#     Edge 73, Type (0, 1), BuildingBlock: TEMPAE_clean_linker_10, # of connection points: 2
#     Edge 74, Type (0, 1), BuildingBlock: TEMPAE_clean_linker_10, # of connection points: 2
#     Edge 75, Type (0, 1), BuildingBlock: TEMPAE_clean_linker_10, # of connection points: 2
#     Edge 76, Type (0, 1), BuildingBlock: TEMPAE_clean_linker_10, # of connection points: 2
#     Edge 77, Type (0, 1), BuildingBlock: TEMPAE_clean_linker_10, # of connection points: 2
#     Edge 78, Type (0, 1), BuildingBlock: TEMPAE_clean_linker_10, # of connection points: 2
#     Edge 79, Type (0, 1), BuildingBlock: TEMPAE_clean_linker_10, # of connection points: 2
#     Edge 80, Type (0, 1), BuildingBlock: TEMPAE_clean_linker_10, # of connection points: 2
#     Edge 81, Type (0, 1), BuildingBlock: TEMPAE_clean_linker_10, # of connection points: 2
#     Edge 82, Type (0, 1), BuildingBlock: TEMPAE_clean_linker_10, # of connection points: 2
#     Edge 83, Type (0, 1), BuildingBlock: TEMPAE_clean_linker_10, # of connection points: 2
#     Edge 84, Type (0, 1), BuildingBlock: TEMPAE_clean_linker_10, # of connection points: 2
#     Edge 85, Type (0, 1), BuildingBlock: TEMPAE_clean_linker_10, # of connection points: 2
#     Edge 86, Type (0, 1), BuildingBlock: TEMPAE_clean_linker_10, # of connection points: 2
#     Edge 87, Type (0, 1), BuildingBlock: TEMPAE_clean_linker_10, # of connection points: 2
#     Edge 88, Type (0, 1), BuildingBlock: TEMPAE_clean_linker_10, # of connection points: 2
#     Edge 89, Type (0, 1), BuildingBlock: TEMPAE_clean_linker_10, # of connection points: 2
#     Edge 90, Type (0, 1), BuildingBlock: TEMPAE_clean_linker_10, # of connection points: 2
#     Edge 91, Type (0, 1), BuildingBlock: TEMPAE_clean_linker_10, # of connection points: 2
#     Edge 92, Type (0, 1), BuildingBlock: TEMPAE_clean_linker_10, # of connection points: 2
#     Edge 93, Type (0, 1), BuildingBlock: TEMPAE_clean_linker_10, # of connection points: 2
#     Edge 94, Type (0, 1), BuildingBlock: TEMPAE_clean_linker_10, # of connection points: 2
#     Edge 95, Type (0, 1), BuildingBlock: TEMPAE_clean_linker_10, # of connection points: 2
#     Edge 96, Type (0, 1), BuildingBlock: TEMPAE_clean_linker_10, # of connection points: 2
#     Edge 97, Type (0, 1), BuildingBlock: TEMPAE_clean_linker_10, # of connection points: 2
#     Edge 98, Type (0, 1), BuildingBlock: TEMPAE_clean_linker_10, # of connection points: 2
#     Edge 99, Type (0, 1), BuildingBlock: TEMPAE_clean_linker_10, # of connection points: 2
#     Edge 100, Type (0, 1), BuildingBlock: TEMPAE_clean_linker_10, # of connection points: 2
#     Edge 101, Type (0, 1), BuildingBlock: TEMPAE_clean_linker_10, # of connection points: 2
#     Edge 102, Type (0, 1), BuildingBlock: TEMPAE_clean_linker_10, # of connection points: 2
#     Edge 103, Type (0, 1), BuildingBlock: TEMPAE_clean_linker_10, # of connection points: 2
#     Edge 104, Type (0, 1), BuildingBlock: TEMPAE_clean_linker_10, # of connection points: 2
#     Edge 105, Type (0, 1), BuildingBlock: TEMPAE_clean_linker_10, # of connection points: 2
#     Edge 106, Type (0, 1), BuildingBlock: TEMPAE_clean_linker_10, # of connection points: 2
#     Edge 107, Type (0, 1), BuildingBlock: TEMPAE_clean_linker_10, # of connection points: 2
#     Edge 108, Type (0, 1), BuildingBlock: TEMPAE_clean_linker_10, # of connection points: 2
#     Edge 109, Type (0, 1), BuildingBlock: TEMPAE_clean_linker_10, # of connection points: 2
#     Edge 110, Type (0, 1), BuildingBlock: TEMPAE_clean_linker_10, # of connection points: 2
#     Edge 111, Type (0, 1), BuildingBlock: TEMPAE_clean_linker_10, # of connection points: 2
#     Edge 112, Type (0, 1), BuildingBlock: TEMPAE_clean_linker_10, # of connection points: 2
#     Edge 113, Type (0, 1), BuildingBlock: TEMPAE_clean_linker_10, # of connection points: 2
#     Edge 114, Type (0, 1), BuildingBlock: TEMPAE_clean_linker_10, # of connection points: 2
#     Edge 115, Type (0, 1), BuildingBlock: TEMPAE_clean_linker_10, # of connection points: 2
#     Edge 116, Type (0, 1), BuildingBlock: TEMPAE_clean_linker_10, # of connection points: 2
#     Edge 117, Type (0, 1), BuildingBlock: TEMPAE_clean_linker_10, # of connection points: 2
#     Edge 118, Type (0, 1), BuildingBlock: TEMPAE_clean_linker_10, # of connection points: 2
#     Edge 119, Type (0, 1), BuildingBlock: TEMPAE_clean_linker_10, # of connection points: 2
#     Edge 120, Type (0, 1), BuildingBlock: TEMPAE_clean_linker_10, # of connection points: 2
#     Edge 121, Type (0, 1), BuildingBlock: TEMPAE_clean_linker_10, # of connection points: 2
#     Edge 122, Type (0, 1), BuildingBlock: TEMPAE_clean_linker_10, # of connection points: 2
#     Edge 123, Type (0, 1), BuildingBlock: TEMPAE_clean_linker_10, # of connection points: 2
#     Edge 124, Type (0, 1), BuildingBlock: TEMPAE_clean_linker_10, # of connection points: 2
#     Edge 125, Type (0, 1), BuildingBlock: TEMPAE_clean_linker_10, # of connection points: 2
#     Edge 126, Type (0, 1), BuildingBlock: TEMPAE_clean_linker_10, # of connection points: 2
#     Edge 127, Type (0, 1), BuildingBlock: TEMPAE_clean_linker_10, # of connection points: 2
#     Edge 128, Type (0, 1), BuildingBlock: TEMPAE_clean_linker_10, # of connection points: 2
#     Edge 129, Type (0, 1), BuildingBlock: TEMPAE_clean_linker_10, # of connection points: 2
#     Edge 130, Type (0, 1), BuildingBlock: TEMPAE_clean_linker_10, # of connection points: 2
#     Edge 131, Type (0, 1), BuildingBlock: TEMPAE_clean_linker_10, # of connection points: 2
#     Edge 132, Type (0, 1), BuildingBlock: TEMPAE_clean_linker_10, # of connection points: 2
#     Edge 133, Type (0, 1), BuildingBlock: TEMPAE_clean_linker_10, # of connection points: 2
#     Edge 134, Type (0, 1), BuildingBlock: TEMPAE_clean_linker_10, # of connection points: 2
#     Edge 135, Type (0, 1), BuildingBlock: TEMPAE_clean_linker_10, # of connection points: 2
# Relax obj value: 0.116
# Max RMSD: 0.291
# Mean RMSD: 0.169
data_MOF--net-gar--node1-QUQFOY_clean_sbu_1--node2-MIFKUJ_clean_sbu_0--edge1-TEMPAE_clean_linker_10
_symmetry_space_group_name_H-M    P1
_symmetry_Int_Tables_number       1
_symmetry_cell_setting            triclinic
loop_
_symmetry_equiv_pos_as_xyz
'x, y, z'
_cell_length_a     58.12634
_cell_length_b     58.140329
_cell_length_c     55.855248
_cell_angle_alpha  95.22106
_cell_angle_beta   95.216505
_cell_angle_gamma 101.97812
loop_
_atom_site_label
_atom_site_type_symbol
_atom_site_fract_x
_atom_site_fract_y
_atom_site_fract_z
_atom_type_partial_charge
O0 O 0.02345 0.22473 0.40001 0.0
Cd1 Cd 0.02468 0.24905 0.37528 0.0
Cd2 Cd 0.00985 0.27476 0.41498 0.0
O3 O 0.01124 0.24425 0.43041 0.0
O4 O 0.04108 0.23546 0.34948 0.0
O5 O 0.05627 0.26967 0.37161 0.0
C6 C 0.05846 0.25349 0.35504 0.0
C7 C 0.02181 0.30994 0.44082 0.0
C8 C 0.01743 0.226 0.4213 0.0
C9 C 0.97873 0.26504 0.36695 0.0
O10 O 0.9824 0.27421 0.38886 0.0
O11 O 0.99337 0.25415 0.35799 0.0
O12 O 0.0027 0.29482 0.44281 0.0
O13 O 0.03454 0.3051 0.42406 0.0
O14 O 0.98705 0.70299 0.61886 0.0
Cd15 Cd 0.9944 0.72888 0.64791 0.0
Cd16 Cd 0.01988 0.75388 0.61797 0.0
O17 O 0.00961 0.72303 0.59479 0.0
O18 O 0.96919 0.72066 0.66931 0.0
O19 O 0.9756 0.754 0.65221 0.0
C20 C 0.96364 0.74061 0.66606 0.0
C21 C 0.0167 0.78912 0.60264 0.0
C22 C 0.99584 0.70412 0.59887 0.0
C23 C 0.04567 0.74451 0.66417 0.0
O24 O 0.0466 0.7552 0.6453 0.0
O25 O 0.02614 0.73231 0.66879 0.0
O26 O 0.03364 0.7788 0.59801 0.0
O27 O 0.00132 0.77933 0.61601 0.0
O28 O 0.5778 0.76754 0.90163 0.0
Cd29 Cd 0.55307 0.77025 0.92549 0.0
Cd30 Cd 0.5305 0.78464 0.8875 0.0
O31 O 0.55542 0.7723 0.86925 0.0
O32 O 0.56073 0.75202 0.95232 0.0
O33 O 0.52768 0.74141 0.92717 0.0
C34 C 0.54092 0.73721 0.9454 0.0
C35 C 0.49118 0.771 0.87234 0.0
C36 C 0.57413 0.76728 0.87882 0.0
C37 C 0.54507 0.81959 0.9313 0.0
O38 O 0.53868 0.81687 0.90867 0.0
O39 O 0.55034 0.80259 0.94178 0.0
O40 O 0.50506 0.78644 0.86208 0.0
O41 O 0.49975 0.76307 0.89129 0.0
O42 O 0.48795 0.19978 0.12645 0.0
Cd43 Cd 0.49405 0.22599 0.15516 0.0
Cd44 Cd 0.51745 0.25255 0.12423 0.0
O45 O 0.50859 0.22099 0.10175 0.0
O46 O 0.4684 0.21817 0.17632 0.0
O47 O 0.47423 0.2504 0.15736 0.0
C48 C 0.46213 0.23744 0.17147 0.0
C49 C 0.51343 0.28687 0.10708 0.0
C50 C 0.4962 0.20144 0.10621 0.0
C51 C 0.54493 0.24569 0.17088 0.0
O52 O 0.54448 0.25629 0.15197 0.0
O53 O 0.52645 0.23178 0.17573 0.0
O54 O 0.53073 0.27683 0.10327 0.0
O55 O 0.49808 0.27728 0.12058 0.0
O56 O 0.01337 0.72916 0.13515 0.0
Cd57 Cd 0.01736 0.75635 0.16275 0.0
Cd58 Cd 0.04306 0.78 0.13115 0.0
O59 O 0.03758 0.7473 0.11118 0.0
O60 O 0.99339 0.74319 0.18407 0.0
O61 O 0.99263 0.77571 0.16659 0.0
C62 C 0.98323 0.76042 0.18025 0.0
C63 C 0.03317 0.81186 0.11327 0.0
C64 C 0.02392 0.72874 0.11621 0.0
C65 C 0.06845 0.77842 0.17991 0.0
O66 O 0.0694 0.78685 0.15973 0.0
O67 O 0.04932 0.76544 0.18465 0.0
O68 O 0.05212 0.80461 0.10916 0.0
O69 O 0.01951 0.80071 0.12744 0.0
O70 O 0.55076 0.74787 0.38856 0.0
Cd71 Cd 0.52717 0.74777 0.41402 0.0
Cd72 Cd 0.49813 0.75909 0.37372 0.0
O73 O 0.52803 0.75557 0.35779 0.0
O74 O 0.53961 0.73193 0.44106 0.0
O75 O 0.50551 0.71704 0.41861 0.0
C76 C 0.52097 0.71512 0.43605 0.0
C77 C 0.46294 0.74852 0.34737 0.0
C78 C 0.54749 0.75134 0.36649 0.0
C79 C 0.51045 0.79346 0.42004 0.0
O80 O 0.49975 0.78797 0.39875 0.0
O81 O 0.52244 0.77992 0.42943 0.0
O82 O 0.479 0.7669 0.34544 0.0
O83 O 0.46674 0.73575 0.36443 0.0
O84 O 0.53149 0.22704 0.64565 0.0
Cd85 Cd 0.53154 0.2582 0.66646 0.0
Cd86 Cd 0.54983 0.27686 0.62857 0.0
O87 O 0.53921 0.24248 0.61178 0.0
O88 O 0.51051 0.24978 0.69208 0.0
O89 O 0.50253 0.27194 0.66354 0.0
C90 C 0.49653 0.2617 0.6823 0.0
C91 C 0.53845 0.30818 0.61071 0.0
C92 C 0.53394 0.22453 0.62325 0.0
C93 C 0.58188 0.28359 0.67535 0.0
O94 O 0.58057 0.2847 0.65264 0.0
O95 O 0.56342 0.27543 0.68505 0.0
O96 O 0.55525 0.29893 0.60329 0.0
O97 O 0.52767 0.29924 0.62807 0.0
O98 O 0.017 0.21156 0.90204 0.0
Cd99 Cd 0.01417 0.23589 0.87748 0.0
Cd100 Cd 0.98874 0.2513 0.91495 0.0
O101 O 0.99724 0.22334 0.93112 0.0
O102 O 0.03276 0.22585 0.85177 0.0
O103 O 0.04341 0.26059 0.87379 0.0
C104 C 0.04762 0.24582 0.85691 0.0
C105 C 0.99653 0.28893 0.93637 0.0
C106 C 0.0092 0.20927 0.92245 0.0
C107 C 0.96276 0.23863 0.86503 0.0
O108 O 0.9616 0.24413 0.88734 0.0
O109 O 0.98206 0.23552 0.85764 0.0
O110 O 0.97894 0.27262 0.94017 0.0
O111 O 0.01017 0.28365 0.92064 0.0
O112 O 0.398 0.02857 0.2295 0.0
Cd113 Cd 0.37356 0.02718 0.25394 0.0
Cd114 Cd 0.41268 0.02172 0.2858 0.0
O115 O 0.42896 0.0282 0.25521 0.0
O116 O 0.34731 0.03805 0.23631 0.0
O117 O 0.36737 0.05694 0.27057 0.0
C118 C 0.35101 0.05571 0.25291 0.0
C119 C 0.43808 0.03543 0.32139 0.0
C120 C 0.41999 0.02953 0.23397 0.0
C121 C 0.36832 0.98217 0.27685 0.0
O122 O 0.38954 0.98954 0.28658 0.0
O123 O 0.35852 0.9949 0.26368 0.0
O124 O 0.44064 0.01794 0.30685 0.0
O125 O 0.42067 0.04534 0.31597 0.0
O126 O 0.27802 0.14327 0.53897 0.0
Cd127 Cd 0.27257 0.11554 0.51172 0.0
Cd128 Cd 0.25081 0.14739 0.48775 0.0
O129 O 0.25613 0.16552 0.52201 0.0
O130 O 0.29155 0.09428 0.52625 0.0
O131 O 0.29867 0.1093 0.49206 0.0
C132 C 0.30413 0.09644 0.50845 0.0
C133 C 0.2603 0.1694 0.45549 0.0
C134 C 0.26868 0.1612 0.54018 0.0
C135 C 0.22116 0.09896 0.49092 0.0
O136 O 0.22304 0.11828 0.48151 0.0
O137 O 0.23859 0.09484 0.50405 0.0
O138 O 0.24158 0.17012 0.46599 0.0
O139 O 0.27382 0.15599 0.4633 0.0
O140 O 0.12705 0.00047 0.73906 0.0
Cd141 Cd 0.15217 0.00478 0.76865 0.0
Cd142 Cd 0.12033 0.02695 0.79008 0.0
O143 O 0.10324 0.02107 0.75526 0.0
O144 O 0.17523 0.98568 0.75876 0.0
O145 O 0.15335 0.97779 0.78869 0.0
C146 C 0.16925 0.97276 0.77565 0.0
C147 C 0.09838 0.01631 0.82201 0.0
C148 C 0.10881 0.00935 0.73716 0.0
C149 C 0.1692 0.0561 0.78944 0.0
O150 O 0.14909 0.05512 0.79702 0.0
O151 O 0.17366 0.03805 0.77773 0.0
O152 O 0.09698 0.035 0.81169 0.0
O153 O 0.11227 0.00337 0.81405 0.0
O154 O 0.24585 0.88471 0.04941 0.0
Cd155 Cd 0.24586 0.90861 0.0244 0.0
Cd156 Cd 0.25314 0.86947 0.99397 0.0
O157 O 0.24581 0.85297 0.02445 0.0
O158 O 0.2351 0.93516 0.04176 0.0
O159 O 0.21555 0.91447 0.00822 0.0
C160 C 0.21725 0.93141 0.02539 0.0
C161 C 0.24191 0.84521 0.95707 0.0
C162 C 0.24502 0.86267 0.04558 0.0
C163 C 0.29196 0.91451 0.00383 0.0
O164 O 0.28548 0.89292 0.99504 0.0
O165 O 0.27809 0.92452 0.01513 0.0
O166 O 0.25871 0.84256 0.97247 0.0
O167 O 0.23084 0.86167 0.96271 0.0
O168 O 0.25182 0.37902 0.07949 0.0
Cd169 Cd 0.2573 0.40349 0.05428 0.0
Cd170 Cd 0.27574 0.3664 0.03189 0.0
O171 O 0.26538 0.3499 0.06124 0.0
O172 O 0.24107 0.42908 0.06512 0.0
O173 O 0.22956 0.40591 0.03069 0.0
C174 C 0.22671 0.42321 0.04553 0.0
C175 C 0.26881 0.34598 0.99306 0.0
C176 C 0.25622 0.35841 0.07886 0.0
C177 C 0.30887 0.41385 0.04502 0.0
O178 O 0.30618 0.39206 0.03774 0.0
O179 O 0.29147 0.42218 0.05131 0.0
O180 O 0.28447 0.34207 0.00912 0.0
O181 O 0.25614 0.36084 0.9994 0.0
O182 O 0.78963 0.14274 0.07128 0.0
Cd183 Cd 0.77957 0.11663 0.04217 0.0
Cd184 Cd 0.76376 0.1508 0.02046 0.0
O185 O 0.77771 0.17064 0.05251 0.0
O186 O 0.79832 0.0922 0.0465 0.0
O187 O 0.80081 0.11429 0.01611 0.0
C188 C 0.80734 0.09757 0.02693 0.0
C189 C 0.76953 0.16959 0.98587 0.0
C190 C 0.78723 0.164 0.07125 0.0
C191 C 0.728 0.10678 0.02675 0.0
O192 O 0.73202 0.1272 0.01963 0.0
O193 O 0.74481 0.09852 0.03614 0.0
O194 O 0.75446 0.17425 7e-05 0.0
O195 O 0.78164 0.15416 0.99136 0.0
O196 O 0.12566 0.47734 0.21305 0.0
Cd197 Cd 0.15308 0.48893 0.24013 0.0
Cd198 Cd 0.12136 0.50314 0.26659 0.0
O199 O 0.10053 0.49141 0.2342 0.0
O200 O 0.17735 0.47015 0.23541 0.0
O201 O 0.15749 0.46986 0.26754 0.0
C202 C 0.17327 0.46241 0.25591 0.0
C203 C 0.10107 0.49487 0.29984 0.0
C204 C 0.10511 0.48111 0.21475 0.0
C205 C 0.16365 0.53989 0.25794 0.0
O206 O 0.14584 0.53484 0.26963 0.0
O207 O 0.16931 0.52412 0.24385 0.0
O208 O 0.09652 0.51042 0.28624 0.0
O209 O 0.11782 0.48424 0.29512 0.0
O210 O 0.75863 0.88622 0.59072 0.0
Cd211 Cd 0.7599 0.90744 0.56256 0.0
Cd212 Cd 0.77299 0.86868 0.54009 0.0
O213 O 0.7614 0.85288 0.5698 0.0
O214 O 0.74337 0.93322 0.57193 0.0
O215 O 0.73025 0.90645 0.54031 0.0
C216 C 0.72772 0.92492 0.55366 0.0
C217 C 0.76367 0.84929 0.5007 0.0
C218 C 0.75817 0.86416 0.58936 0.0
C219 C 0.80921 0.91469 0.54933 0.0
O220 O 0.80531 0.89231 0.545 0.0
O221 O 0.79267 0.92478 0.55469 0.0
O222 O 0.77858 0.84332 0.51617 0.0
O223 O 0.75289 0.86551 0.50802 0.0
O224 O 0.89312 0.02059 0.20127 0.0
Cd225 Cd 0.86949 0.01593 0.22739 0.0
Cd226 Cd 0.90651 0.00032 0.25069 0.0
O227 O 0.92371 0.0117 0.22196 0.0
O228 O 0.84377 0.03262 0.21834 0.0
O229 O 0.86877 0.04366 0.25167 0.0
C230 C 0.85077 0.04676 0.23798 0.0
C231 C 0.9252 0.00929 0.29024 0.0
C232 C 0.91459 0.01847 0.203 0.0
C233 C 0.86036 0.96516 0.23809 0.0
O234 O 0.88236 0.96856 0.2448 0.0
O235 O 0.85133 0.9821 0.23176 0.0
O236 O 0.93092 0.99396 0.27507 0.0
O237 O 0.90945 0.02049 0.28261 0.0
O238 O 0.29116 0.64302 0.57457 0.0
Cd239 Cd 0.28435 0.61703 0.54541 0.0
Cd240 Cd 0.2694 0.65178 0.52247 0.0
O241 O 0.28233 0.67191 0.55498 0.0
O242 O 0.30535 0.59482 0.55203 0.0
O243 O 0.30654 0.61499 0.52012 0.0
C244 C 0.31438 0.59984 0.53239 0.0
C245 C 0.27399 0.6707 0.48756 0.0
C246 C 0.28957 0.66448 0.57434 0.0
C247 C 0.23363 0.60628 0.52747 0.0
O248 O 0.23809 0.62692 0.52081 0.0
O249 O 0.25007 0.59793 0.53756 0.0
O250 O 0.25888 0.67471 0.50198 0.0
O251 O 0.28712 0.65616 0.49317 0.0
O252 O 0.39794 0.52078 0.70284 0.0
Cd253 Cd 0.37296 0.51566 0.72679 0.0
Cd254 Cd 0.40975 0.5031 0.75527 0.0
O255 O 0.42712 0.51111 0.72513 0.0
O256 O 0.34755 0.53153 0.71509 0.0
O257 O 0.36994 0.5431 0.75008 0.0
C258 C 0.35303 0.54594 0.7347 0.0
C259 C 0.42884 0.51526 0.79437 0.0
C260 C 0.41904 0.51783 0.70562 0.0
C261 C 0.36371 0.46687 0.74207 0.0
O262 O 0.38445 0.47217 0.75325 0.0
O263 O 0.35571 0.48151 0.72996 0.0
O264 O 0.43493 0.4992 0.78041 0.0
O265 O 0.41259 0.52537 0.78572 0.0
O266 O 0.62447 0.98015 0.71357 0.0
Cd267 Cd 0.65191 0.99266 0.74043 0.0
Cd268 Cd 0.61964 0.00648 0.76672 0.0
O269 O 0.59892 0.99393 0.73436 0.0
O270 O 0.6764 0.974 0.73613 0.0
O271 O 0.65677 0.97441 0.76841 0.0
C272 C 0.67257 0.96685 0.75692 0.0
C273 C 0.59921 0.99792 0.79986 0.0
C274 C 0.60372 0.9834 0.71515 0.0
C275 C 0.66177 0.0437 0.75802 0.0
O276 O 0.64399 0.03839 0.76972 0.0
O277 O 0.66759 0.02806 0.74387 0.0
O278 O 0.5946 0.01346 0.78626 0.0
O279 O 0.61619 0.98759 0.79527 0.0
O280 O 0.77595 0.64719 0.05022 0.0
Cd281 Cd 0.77239 0.61921 0.02351 0.0
Cd282 Cd 0.749 0.64909 0.99808 0.0
O283 O 0.75292 0.66776 0.03212 0.0
O284 O 0.79332 0.59967 0.03809 0.0
O285 O 0.79894 0.61485 0.00369 0.0
C286 C 0.80558 0.60254 0.02009 0.0
C287 C 0.75727 0.67081 0.96528 0.0
C288 C 0.76556 0.66441 0.05074 0.0
C289 C 0.72182 0.59947 0.00173 0.0
O290 O 0.72292 0.61846 0.99183 0.0
O291 O 0.73933 0.59663 0.01567 0.0
O292 O 0.73801 0.6701 0.9752 0.0
O293 O 0.77211 0.65914 0.97403 0.0
O294 O 0.89882 0.52819 0.72673 0.0
Cd295 Cd 0.8754 0.52673 0.75224 0.0
Cd296 Cd 0.91338 0.52191 0.78349 0.0
O297 O 0.92972 0.52927 0.7531 0.0
O298 O 0.84904 0.54093 0.74 0.0
O299 O 0.87473 0.5569 0.77208 0.0
C300 C 0.85658 0.55785 0.75729 0.0
C301 C 0.93811 0.53569 0.81952 0.0
C302 C 0.92094 0.53008 0.73163 0.0
C303 C 0.87027 0.48131 0.77396 0.0
O304 O 0.89143 0.48901 0.78373 0.0
O305 O 0.8601 0.49412 0.76126 0.0
O306 O 0.94147 0.51876 0.80473 0.0
O307 O 0.92037 0.54509 0.81399 0.0
O308 O 0.74379 0.37796 0.56473 0.0
Cd309 Cd 0.74835 0.40559 0.54372 0.0
Cd310 Cd 0.7577 0.36961 0.50823 0.0
O311 O 0.74977 0.35098 0.53698 0.0
O312 O 0.73539 0.43083 0.56071 0.0
O313 O 0.72036 0.41274 0.52435 0.0
C314 C 0.7198 0.42838 0.54217 0.0
C315 C 0.74973 0.34478 0.47157 0.0
C316 C 0.745 0.3568 0.5581 0.0
C317 C 0.79575 0.41457 0.5245 0.0
O318 O 0.78886 0.39493 0.51122 0.0
O319 O 0.78227 0.42186 0.53872 0.0
O320 O 0.76672 0.34398 0.48763 0.0
O321 O 0.73709 0.36015 0.47602 0.0
O322 O 0.63552 0.49817 0.24015 0.0
Cd323 Cd 0.66125 0.50223 0.26916 0.0
Cd324 Cd 0.62805 0.52235 0.29256 0.0
O325 O 0.61059 0.51628 0.25786 0.0
O326 O 0.68484 0.4842 0.25812 0.0
O327 O 0.66313 0.47425 0.28763 0.0
C328 C 0.67907 0.47013 0.27415 0.0
C329 C 0.60571 0.51297 0.32464 0.0
C330 C 0.61651 0.5058 0.23916 0.0
C331 C 0.67647 0.55322 0.29168 0.0
O332 O 0.65634 0.551 0.29948 0.0
O333 O 0.68171 0.53597 0.27928 0.0
O334 O 0.60466 0.53131 0.31364 0.0
O335 O 0.61942 0.49957 0.31728 0.0
Zn336 Zn 0.03339 0.00538 0.02904 0.0
Zn337 Zn 0.98756 0.01195 0.00091 0.0
C338 C 0.02198 0.96809 0.05685 0.0
O339 O 0.03171 0.98617 0.07302 0.0
C340 C 0.00379 0.05044 0.97765 0.0
O341 O 0.99115 0.03413 0.96102 0.0
O342 O 0.06721 0.00797 0.04221 0.0
O343 O 0.03489 0.00757 0.99327 0.0
O344 O 0.99894 0.99058 0.97631 0.0
C345 C 0.08462 0.01745 0.03164 0.0
O346 O 0.08104 0.03047 0.01422 0.0
O347 O 0.01915 0.97172 0.03475 0.0
C348 C 0.95087 0.0333 0.00583 0.0
O349 O 0.96791 0.04374 0.02282 0.0
O350 O 0.95435 0.01631 0.99151 0.0
O351 O 0.9855 0.0024 0.03462 0.0
O352 O 0.01821 0.02723 0.04992 0.0
O353 O 0.00705 0.04505 0.99911 0.0
C354 C 0.02104 0.99689 0.97485 0.0
C355 C 0.9973 0.01652 0.05223 0.0
Zn356 Zn 0.26331 0.7583 0.28781 0.0
Zn357 Zn 0.26821 0.76485 0.23702 0.0
C358 C 0.23259 0.71344 0.27647 0.0
O359 O 0.21894 0.72484 0.28813 0.0
C360 C 0.29758 0.80984 0.2446 0.0
O361 O 0.30765 0.79888 0.22827 0.0
O362 O 0.26489 0.75482 0.32343 0.0
O363 O 0.29686 0.77081 0.28212 0.0
O364 O 0.2936 0.74758 0.24819 0.0
C365 C 0.27622 0.73908 0.32868 0.0
O366 O 0.28606 0.72874 0.31171 0.0
O367 O 0.25306 0.72437 0.2729 0.0
C368 C 0.25124 0.78022 0.19518 0.0
O369 O 0.23938 0.78805 0.2119 0.0
O370 O 0.26625 0.76802 0.20117 0.0
O371 O 0.23455 0.75256 0.24294 0.0
O372 O 0.23785 0.77554 0.27698 0.0
O373 O 0.27904 0.79858 0.25223 0.0
C374 C 0.30592 0.75804 0.26764 0.0
C375 C 0.22548 0.7652 0.25754 0.0
Zn376 Zn 0.48932 0.01126 0.5235 0.0
Zn377 Zn 0.53996 0.00517 0.51888 0.0
C378 C 0.49785 0.05372 0.55375 0.0
O379 O 0.48146 0.03979 0.56366 0.0
C380 C 0.53117 0.96318 0.488 0.0
O381 O 0.54605 0.97785 0.47712 0.0
O382 O 0.45468 0.01325 0.52013 0.0
O383 O 0.49621 0.00219 0.48998 0.0
O384 O 0.53147 0.02562 0.49347 0.0
C385 C 0.45124 0.03017 0.50824 0.0
O386 O 0.46905 0.04231 0.49861 0.0
O387 O 0.50603 0.04518 0.53538 0.0
C388 C 0.57983 0.98984 0.53656 0.0
O389 O 0.56322 0.9798 0.54909 0.0
O390 O 0.57475 0.00382 0.52159 0.0
O391 O 0.53296 0.01398 0.55258 0.0
O392 O 0.49733 0.99103 0.54926 0.0
O393 O 0.52407 0.97107 0.50735 0.0
C394 C 0.5117 0.01664 0.48105 0.0
C395 C 0.51694 0.0004 0.56183 0.0
Zn396 Zn 0.2945 0.25358 0.75794 0.0
Zn397 Zn 0.24594 0.26495 0.77121 0.0
C398 C 0.27857 0.22441 0.71396 0.0
O399 O 0.28481 0.20908 0.72773 0.0
C400 C 0.2617 0.2932 0.81565 0.0
O401 O 0.25571 0.30887 0.80219 0.0
O402 O 0.32815 0.25039 0.75523 0.0
O403 O 0.29682 0.28815 0.76812 0.0
O404 O 0.26142 0.29052 0.75215 0.0
C405 C 0.33894 0.26475 0.74197 0.0
O406 O 0.32781 0.27959 0.73207 0.0
O407 O 0.27975 0.24546 0.72329 0.0
C408 C 0.20354 0.25458 0.79062 0.0
O409 O 0.21625 0.24098 0.80058 0.0
O410 O 0.21222 0.26731 0.77487 0.0
O411 O 0.24422 0.23082 0.75934 0.0
O412 O 0.27853 0.22932 0.77841 0.0
O413 O 0.26083 0.27236 0.80589 0.0
C414 C 0.2832 0.29991 0.7582 0.0
C415 C 0.25713 0.21948 0.77096 0.0
Zn416 Zn 0.01704 0.98577 0.51885 0.0
Zn417 Zn 0.00914 0.03361 0.51285 0.0
C418 C 0.04671 0.00107 0.56312 0.0
O419 O 0.0617 0.9935 0.54979 0.0
C420 C 0.97831 0.02227 0.46862 0.0
O421 O 0.96351 0.0287 0.48296 0.0
O422 O 0.01808 0.95179 0.52228 0.0
O423 O 0.98287 0.98514 0.50837 0.0
O424 O 0.98488 0.01715 0.53311 0.0
C425 C 0.00756 0.9442 0.53996 0.0
O426 O 0.99645 0.95796 0.55228 0.0
O427 O 0.02602 0.00101 0.55349 0.0
C428 C 0.01831 0.07722 0.49664 0.0
O429 O 0.02988 0.06489 0.48321 0.0
O430 O 0.00734 0.06773 0.51315 0.0
O431 O 0.04382 0.03416 0.52037 0.0
O432 O 0.04228 0.00033 0.49867 0.0
O433 O 0.999 0.02139 0.47752 0.0
C434 C 0.97309 0.99735 0.52265 0.0
C435 C 0.05376 0.02094 0.50731 0.0
Zn436 Zn 0.25134 0.78818 0.75777 0.0
Zn437 Zn 0.27946 0.73338 0.77386 0.0
C438 C 0.20768 0.75224 0.74283 0.0
O439 O 0.22116 0.73964 0.73255 0.0
C440 C 0.32035 0.72927 0.80313 0.0
O441 O 0.30641 0.70891 0.80548 0.0
O442 O 0.2518 0.82311 0.7637 0.0
O443 O 0.2691 0.77606 0.78438 0.0
O444 O 0.25845 0.74225 0.79844 0.0
C445 C 0.23782 0.82858 0.77844 0.0
O446 O 0.22565 0.8119 0.78948 0.0
O447 O 0.21707 0.77216 0.75469 0.0
C448 C 0.28887 0.69332 0.74954 0.0
O449 O 0.3025 0.7108 0.74084 0.0
O450 O 0.27457 0.69823 0.76414 0.0
O451 O 0.27631 0.75061 0.74404 0.0
O452 O 0.26409 0.77915 0.72668 0.0
O453 O 0.31266 0.74361 0.79027 0.0
C454 C 0.25745 0.76387 0.79874 0.0
C455 C 0.27417 0.76167 0.72561 0.0
Zn456 Zn 0.50937 0.00603 0.9915 0.0
Zn457 Zn 0.51238 0.009 0.04326 0.0
C458 C 0.55766 0.02685 0.98749 0.0
O459 O 0.54783 0.03408 0.9683 0.0
C460 C 0.46465 0.98455 0.04274 0.0
O461 O 0.47464 0.97535 0.06048 0.0
O462 O 0.50635 0.0018 0.95518 0.0
O463 O 0.49755 0.97397 0.00246 0.0
O464 O 0.52659 0.98176 0.03189 0.0
C465 C 0.51032 0.98294 0.94457 0.0
O466 O 0.51208 0.96525 0.95715 0.0
O467 O 0.54466 0.01446 0.00075 0.0
C468 C 0.50733 0.03115 0.08833 0.0
O469 O 0.50221 0.04637 0.07384 0.0
O470 O 0.51402 0.01303 0.07948 0.0
O471 O 0.52567 0.04076 0.03299 0.0
O472 O 0.49684 0.03471 0.00351 0.0
O473 O 0.47738 0.00015 0.03224 0.0
C474 C 0.51324 0.96706 0.0156 0.0
C475 C 0.51102 0.04885 0.0197 0.0
Zn476 Zn 0.27006 0.24125 0.25093 0.0
Zn477 Zn 0.25943 0.28471 0.28134 0.0
C478 C 0.30678 0.25711 0.22387 0.0
O479 O 0.28901 0.2469 0.20753 0.0
C480 C 0.22055 0.26318 0.30368 0.0
O481 O 0.23621 0.27216 0.32241 0.0
O482 O 0.27056 0.20776 0.2384 0.0
O483 O 0.26595 0.2376 0.28585 0.0
O484 O 0.28239 0.27303 0.30407 0.0
C485 C 0.28931 0.20246 0.24773 0.0
O486 O 0.30432 0.2182 0.2631 0.0
O487 O 0.3029 0.25925 0.24595 0.0
C488 C 0.23637 0.32069 0.2822 0.0
O489 O 0.22487 0.30472 0.26467 0.0
O490 O 0.25481 0.31691 0.29392 0.0
O491 O 0.2662 0.28905 0.24711 0.0
O492 O 0.24654 0.25417 0.23015 0.0
O493 O 0.22686 0.26426 0.28252 0.0
C494 C 0.27661 0.25079 0.30464 0.0
C495 C 0.25337 0.27625 0.22915 0.0
Zn496 Zn 0.51657 0.48409 0.02349 0.0
Zn497 Zn 0.5108 0.53349 0.01738 0.0
C498 C 0.54656 0.49718 0.06756 0.0
O499 O 0.56075 0.48888 0.05371 0.0
C500 C 0.48403 0.53077 0.97215 0.0
O501 O 0.47461 0.54527 0.98557 0.0
O502 O 0.51567 0.44946 0.02607 0.0
O503 O 0.48291 0.48588 0.01271 0.0
O504 O 0.48553 0.51837 0.03707 0.0
C505 C 0.50491 0.44192 0.04364 0.0
O506 O 0.4945 0.45608 0.05634 0.0
O507 O 0.526 0.49828 0.05848 0.0
C508 C 0.5257 0.57777 0.00354 0.0
O509 O 0.53778 0.56456 0.99181 0.0
O510 O 0.51215 0.56847 0.01833 0.0
O511 O 0.54468 0.53169 0.02601 0.0
O512 O 0.54294 0.49801 0.00403 0.0
O513 O 0.50017 0.52167 0.98186 0.0
C514 C 0.47326 0.49892 0.0263 0.0
C515 C 0.55466 0.51838 0.01314 0.0
Zn516 Zn 0.75839 0.28146 0.26252 0.0
Zn517 Zn 0.76604 0.23108 0.27169 0.0
C518 C 0.71397 0.26429 0.23468 0.0
O519 O 0.72667 0.27311 0.21805 0.0
C520 C 0.80954 0.24017 0.29874 0.0
O521 O 0.79548 0.22623 0.31106 0.0
O522 O 0.75623 0.31569 0.26111 0.0
O523 O 0.77099 0.27845 0.2963 0.0
O524 O 0.74909 0.24322 0.2988 0.0
C525 C 0.74786 0.32503 0.27895 0.0
O526 O 0.74305 0.31282 0.2972 0.0
O527 O 0.72397 0.26464 0.25596 0.0
C528 C 0.77969 0.19003 0.25544 0.0
O529 O 0.7884 0.20559 0.24116 0.0
O530 O 0.76708 0.1962 0.27136 0.0
O531 O 0.75455 0.23505 0.23757 0.0
O532 O 0.77688 0.27034 0.23664 0.0
O533 O 0.80065 0.2468 0.27959 0.0
C534 C 0.75862 0.26414 0.30844 0.0
C535 C 0.76808 0.24952 0.22656 0.0
Zn536 Zn 0.01346 0.50796 0.49207 0.0
Zn537 Zn 0.01637 0.51145 0.54425 0.0
C538 C 0.06301 0.52524 0.48728 0.0
O539 O 0.05438 0.52883 0.46575 0.0
C540 C 0.96989 0.48666 0.54752 0.0
O541 O 0.98216 0.47723 0.56335 0.0
O542 O 0.01002 0.50281 0.45578 0.0
O543 O 0.00046 0.47665 0.50349 0.0
O544 O 0.02946 0.48321 0.53283 0.0
C545 C 0.01423 0.4838 0.44582 0.0
O546 O 0.01703 0.46696 0.45922 0.0
O547 O 0.04897 0.51655 0.50193 0.0
C548 C 0.01337 0.53465 0.58953 0.0
O549 O 0.00826 0.54994 0.57512 0.0
O550 O 0.0198 0.51643 0.58054 0.0
O551 O 0.02874 0.54306 0.53276 0.0
O552 O 0.00011 0.53603 0.50301 0.0
O553 O 0.98084 0.50255 0.53594 0.0
C554 C 0.01539 0.46888 0.51675 0.0
C555 C 0.01387 0.55056 0.51913 0.0
Zn556 Zn 0.78735 0.75896 0.26738 0.0
Zn557 Zn 0.73837 0.76717 0.27693 0.0
C558 C 0.77148 0.72953 0.22328 0.0
O559 O 0.77951 0.71483 0.23666 0.0
C560 C 0.75166 0.79737 0.32186 0.0
O561 O 0.74702 0.81325 0.30794 0.0
O562 O 0.8214 0.75823 0.26311 0.0
O563 O 0.78794 0.79292 0.27888 0.0
O564 O 0.75452 0.79163 0.25664 0.0
C565 C 0.8287 0.76868 0.24526 0.0
O566 O 0.81463 0.77952 0.23299 0.0
O567 O 0.77138 0.75021 0.23287 0.0
C568 C 0.68693 0.7521 0.2725 0.0
O569 O 0.69053 0.73175 0.26318 0.0
O570 O 0.70438 0.76967 0.27746 0.0
O571 O 0.73835 0.73265 0.26851 0.0
O572 O 0.77338 0.73337 0.28749 0.0
O573 O 0.75059 0.77636 0.31242 0.0
C574 C 0.775 0.80297 0.26571 0.0
C575 C 0.75234 0.72226 0.28 0.0
Zn576 Zn 0.77271 0.26021 0.78878 0.0
Zn577 Zn 0.77761 0.26077 0.73859 0.0
C578 C 0.73965 0.2162 0.78022 0.0
O579 O 0.72703 0.22929 0.79127 0.0
C580 C 0.80728 0.30686 0.74295 0.0
O581 O 0.81797 0.29595 0.72718 0.0
O582 O 0.77314 0.25867 0.82457 0.0
O583 O 0.80688 0.27037 0.7835 0.0
O584 O 0.802 0.24351 0.7522 0.0
C585 C 0.78396 0.24283 0.83068 0.0
O586 O 0.79425 0.23204 0.81445 0.0
O587 O 0.76041 0.22562 0.77595 0.0
C588 C 0.75806 0.25223 0.6885 0.0
O589 O 0.7399 0.23926 0.69687 0.0
O590 O 0.77698 0.26056 0.70261 0.0
O591 O 0.74353 0.25206 0.74459 0.0
O592 O 0.74922 0.27889 0.77596 0.0
O593 O 0.78907 0.29528 0.75084 0.0
C594 C 0.81517 0.25587 0.77024 0.0
C595 C 0.73611 0.2676 0.75734 0.0
Zn596 Zn 0.78056 0.74729 0.76311 0.0
Zn597 Zn 0.75215 0.78989 0.78962 0.0
C598 C 0.81578 0.75921 0.73414 0.0
O599 O 0.79744 0.74738 0.71934 0.0
C600 C 0.71023 0.75136 0.78951 0.0
O601 O 0.72414 0.73974 0.80084 0.0
O602 O 0.77966 0.71278 0.75362 0.0
O603 O 0.77805 0.74885 0.79906 0.0
O604 O 0.76746 0.77879 0.81883 0.0
C605 C 0.79351 0.70517 0.76842 0.0
O606 O 0.80591 0.71972 0.7866 0.0
O607 O 0.81332 0.76296 0.75646 0.0
C608 C 0.75646 0.8412 0.80169 0.0
O609 O 0.77898 0.84406 0.79863 0.0
O610 O 0.7437 0.82047 0.8 0.0
O611 O 0.76874 0.79565 0.75994 0.0
O612 O 0.75783 0.75982 0.74048 0.0
O613 O 0.71935 0.77002 0.78059 0.0
C614 C 0.77466 0.75965 0.81876 0.0
C615 C 0.76069 0.78212 0.74053 0.0
Zn616 Zn 0.53533 0.50313 0.53057 0.0
Zn617 Zn 0.48909 0.513 0.50146 0.0
C618 C 0.5243 0.46553 0.55781 0.0
O619 O 0.53362 0.48368 0.57403 0.0
C620 C 0.49913 0.563 0.51266 0.0
O621 O 0.4806 0.55738 0.5245 0.0
O622 O 0.56885 0.50575 0.54507 0.0
O623 O 0.53815 0.50613 0.49515 0.0
O624 O 0.50206 0.49368 0.47631 0.0
C625 C 0.58698 0.5147 0.5352 0.0
O626 O 0.58448 0.52715 0.51704 0.0
O627 O 0.52107 0.46926 0.53575 0.0
C628 C 0.43785 0.50868 0.49683 0.0
O629 O 0.43761 0.49171 0.51088 0.0
O630 O 0.45704 0.51777 0.48883 0.0
O631 O 0.48556 0.50229 0.53457 0.0
O632 O 0.51951 0.52461 0.55083 0.0
O633 O 0.50806 0.5465 0.50345 0.0
C634 C 0.52437 0.49819 0.47585 0.0
C635 C 0.49815 0.51497 0.55273 0.0
Zn636 Zn 0.99084 0.51591 0.02478 0.0
Zn637 Zn 0.04096 0.50638 0.01735 0.0
C638 C 0.00829 0.55945 0.05465 0.0
O639 O 0.9976 0.54669 0.0703 0.0
C640 C 0.02747 0.45574 0.0192 0.0
O641 O 0.04095 0.46106 0.03995 0.0
O642 O 0.95687 0.5198 0.02444 0.0
O643 O 0.99497 0.50481 0.99086 0.0
O644 O 0.03112 0.52608 0.9918 0.0
C645 C 0.95304 0.53709 0.01334 0.0
O646 O 0.97001 0.54879 0.00228 0.0
O647 O 0.00934 0.54967 0.0336 0.0
C648 C 0.08666 0.50035 0.03692 0.0
O649 O 0.07662 0.50144 0.05699 0.0
O650 O 0.07565 0.50415 0.01738 0.0
O651 O 0.03585 0.5167 0.05143 0.0
O652 O 0.99947 0.49597 0.0505 0.0
O653 O 0.02359 0.47237 0.00716 0.0
C654 C 0.01052 0.518 0.9807 0.0
C655 C 0.02 0.504 0.0617 0.0
C656 C 0.03328 0.18003 0.93344 0.0
C657 C 0.01286 0.18903 0.93538 0.0
C658 C 0.03578 0.15929 0.94351 0.0
C659 C 0.01701 0.14682 0.95493 0.0
C660 C 0.99679 0.15642 0.95781 0.0
C661 C 0.99514 0.17763 0.94832 0.0
C662 C 0.05798 0.15011 0.94084 0.0
C663 C 0.97612 0.14343 0.96934 0.0
C664 C 0.00488 0.07996 0.94803 0.0
C665 C 0.0106 0.0751 0.97173 0.0
C666 C 0.0076 0.10321 0.94228 0.0
C667 C 0.0168 0.12225 0.96055 0.0
C668 C 0.0241 0.11754 0.98418 0.0
C669 C 0.0207 0.09395 0.98959 0.0
C670 C 0.99943 0.10736 0.91687 0.0
C671 C 0.03465 0.13738 0.00394 0.0
H672 H 0.04716 0.18902 0.92371 0.0
H673 H 0.97931 0.18454 0.94978 0.0
H674 H 0.06428 0.144 0.958 0.0
H675 H 0.05412 0.1347 0.92672 0.0
H676 H 0.07242 0.16378 0.93555 0.0
H677 H 0.96257 0.15412 0.9719 0.0
H678 H 0.96761 0.12678 0.95769 0.0
H679 H 0.98224 0.1385 0.98715 0.0
H680 H 0.9973 0.06554 0.93401 0.0
H681 H 0.0253 0.09034 0.0079 0.0
H682 H 0.01404 0.11861 0.90904 0.0
H683 H 0.98477 0.11691 0.91728 0.0
H684 H 0.99314 0.0906 0.90466 0.0
H685 H 0.04833 0.1508 0.99723 0.0
H686 H 0.04272 0.13087 0.02007 0.0
H687 H 0.02064 0.14637 0.0096 0.0
C688 C 0.11186 0.79487 0.1909 0.0
C689 C 0.09044 0.78163 0.19674 0.0
C690 C 0.13347 0.79466 0.20421 0.0
C691 C 0.13366 0.78092 0.22386 0.0
C692 C 0.11199 0.76903 0.23101 0.0
C693 C 0.09062 0.76953 0.21737 0.0
C694 C 0.15619 0.80769 0.19604 0.0
C695 C 0.11146 0.75428 0.25193 0.0
C696 C 0.18694 0.75331 0.23163 0.0
C697 C 0.20114 0.76823 0.25093 0.0
C698 C 0.16473 0.75696 0.22318 0.0
C699 C 0.1564 0.77604 0.23428 0.0
C700 C 0.17025 0.79075 0.25431 0.0
C701 C 0.19252 0.78663 0.26247 0.0
C702 C 0.1505 0.74076 0.20184 0.0
C703 C 0.1619 0.81125 0.26656 0.0
H704 H 0.11192 0.80451 0.17518 0.0
H705 H 0.07417 0.75941 0.22218 0.0
H706 H 0.16826 0.81783 0.21173 0.0
H707 H 0.16541 0.79473 0.1875 0.0
H708 H 0.15297 0.82006 0.18272 0.0
H709 H 0.0934 0.74928 0.25755 0.0
H710 H 0.11746 0.73783 0.24655 0.0
H711 H 0.12372 0.76394 0.26772 0.0
H712 H 0.19338 0.73892 0.22273 0.0
H713 H 0.20345 0.79826 0.27735 0.0
H714 H 0.14825 0.75104 0.18632 0.0
H715 H 0.13257 0.733 0.20644 0.0
H716 H 0.15905 0.72611 0.19599 0.0
H717 H 0.16131 0.82481 0.25391 0.0
H718 H 0.17369 0.81965 0.2832 0.0
H719 H 0.14368 0.8053 0.27139 0.0
C720 C 0.49274 0.829 0.42605 0.0
C721 C 0.51002 0.81662 0.43328 0.0
C722 C 0.49357 0.85205 0.43659 0.0
C723 C 0.51238 0.86315 0.45451 0.0
C724 C 0.52928 0.85038 0.46265 0.0
C725 C 0.52779 0.82718 0.45207 0.0
C726 C 0.47498 0.86492 0.4277 0.0
C727 C 0.54974 0.86168 0.48154 0.0
C728 C 0.53356 0.92969 0.45782 0.0
C729 C 0.52473 0.93769 0.47884 0.0
C730 C 0.52939 0.90553 0.44964 0.0
C731 C 0.51591 0.88886 0.4627 0.0
C732 C 0.50639 0.89679 0.48359 0.0
C733 C 0.51096 0.92116 0.49147 0.0
C734 C 0.53988 0.89783 0.42727 0.0
C735 C 0.49174 0.87953 0.49783 0.0
H736 H 0.47879 0.82084 0.41173 0.0
H737 H 0.54121 0.81774 0.45775 0.0
H738 H 0.46795 0.87342 0.4432 0.0
H739 H 0.48304 0.87916 0.41715 0.0
H740 H 0.46 0.85292 0.416 0.0
H741 H 0.5601 0.84876 0.48748 0.0
H742 H 0.56175 0.876 0.47405 0.0
H743 H 0.54327 0.86987 0.4976 0.0
H744 H 0.54417 0.9423 0.44788 0.0
H745 H 0.50408 0.9272 0.50773 0.0
H746 H 0.52568 0.8874 0.41353 0.0
H747 H 0.55216 0.8862 0.43188 0.0
H748 H 0.54973 0.91306 0.41904 0.0
H749 H 0.47679 0.86797 0.48575 0.0
H750 H 0.48455 0.8886 0.51288 0.0
H751 H 0.50272 0.86789 0.5055 0.0
C752 C 0.45397 0.2638 0.67666 0.0
C753 C 0.47408 0.26302 0.69214 0.0
C754 C 0.43215 0.26357 0.68566 0.0
C755 C 0.43067 0.26343 0.71084 0.0
C756 C 0.45112 0.26326 0.7266 0.0
C757 C 0.4725 0.26262 0.71699 0.0
C758 C 0.4106 0.26311 0.66819 0.0
C759 C 0.45046 0.26395 0.75362 0.0
C760 C 0.37868 0.28552 0.7335 0.0
C761 C 0.36315 0.26433 0.73642 0.0
C762 C 0.40109 0.28554 0.7261 0.0
C763 C 0.40776 0.26374 0.72066 0.0
C764 C 0.3922 0.24226 0.72385 0.0
C765 C 0.37017 0.24284 0.7321 0.0
C766 C 0.41745 0.30886 0.72371 0.0
C767 C 0.3984 0.21864 0.7176 0.0
H768 H 0.45516 0.26386 0.6574 0.0
H769 H 0.48811 0.26215 0.72897 0.0
H770 H 0.39642 0.24758 0.67014 0.0
H771 H 0.40356 0.27916 0.67238 0.0
H772 H 0.41453 0.26225 0.64907 0.0
H773 H 0.46811 0.26456 0.76345 0.0
H774 H 0.44405 0.27971 0.76054 0.0
H775 H 0.43787 0.24812 0.75785 0.0
H776 H 0.37322 0.30215 0.73695 0.0
H777 H 0.35799 0.22645 0.73408 0.0
H778 H 0.42013 0.31021 0.70444 0.0
H779 H 0.43506 0.30993 0.7338 0.0
H780 H 0.41039 0.32424 0.73059 0.0
H781 H 0.40078 0.21634 0.6981 0.0
H782 H 0.38453 0.2036 0.72147 0.0
H783 H 0.4154 0.21793 0.72794 0.0
C784 C 0.03575 0.82648 0.58725 0.0
C785 C 0.01522 0.81159 0.59293 0.0
C786 C 0.03485 0.84804 0.57821 0.0
C787 C 0.01277 0.8545 0.57413 0.0
C788 C 0.9919 0.83931 0.57944 0.0
C789 C 0.99343 0.81816 0.58913 0.0
C790 C 0.05757 0.8641 0.5735 0.0
C791 C 0.96798 0.8454 0.57484 0.0
C792 C 0.01127 0.91924 0.57312 0.0
C793 C 0.00939 0.92129 0.54827 0.0
C794 C 0.01281 0.89769 0.58178 0.0
C795 C 0.01165 0.87754 0.5651 0.0
C796 C 0.00958 0.87949 0.53991 0.0
C797 C 0.00889 0.90154 0.53178 0.0
C798 C 0.01583 0.89656 0.60877 0.0
C799 C 0.00775 0.85825 0.5216 0.0
H800 H 0.05265 0.8215 0.59036 0.0
H801 H 0.97752 0.80656 0.59335 0.0
H802 H 0.05665 0.86747 0.55425 0.0
H803 H 0.06007 0.88146 0.58457 0.0
H804 H 0.0733 0.85652 0.5778 0.0
H805 H 0.95335 0.8311 0.57869 0.0
H806 H 0.96754 0.86187 0.58633 0.0
H807 H 0.96479 0.84878 0.55571 0.0
H808 H 0.01195 0.93466 0.58587 0.0
H809 H 0.0073 0.90319 0.51255 0.0
H810 H 0.03181 0.88969 0.61391 0.0
H811 H 0.00042 0.88415 0.61409 0.0
H812 H 0.01754 0.91413 0.61926 0.0
H813 H 0.02382 0.85089 0.52424 0.0
H814 H 0.00562 0.86262 0.50269 0.0
H815 H 0.99241 0.84415 0.52427 0.0
C816 C 0.44886 0.75637 0.87826 0.0
C817 C 0.46606 0.76314 0.86276 0.0
C818 C 0.42473 0.75055 0.86949 0.0
C819 C 0.41787 0.75088 0.84456 0.0
C820 C 0.43528 0.75699 0.82874 0.0
C821 C 0.45918 0.7634 0.83811 0.0
C822 C 0.40658 0.74471 0.88697 0.0
C823 C 0.42866 0.7569 0.80193 0.0
C824 C 0.35701 0.71655 0.81727 0.0
C825 C 0.34499 0.73482 0.81441 0.0
C826 C 0.38078 0.7215 0.82714 0.0
C827 C 0.39246 0.74523 0.83497 0.0
C828 C 0.38015 0.76368 0.83273 0.0
C829 C 0.3566 0.75828 0.82208 0.0
C830 C 0.39353 0.70144 0.82858 0.0
C831 C 0.39189 0.78913 0.84144 0.0
H832 H 0.45422 0.75639 0.89737 0.0
H833 H 0.47254 0.76849 0.82611 0.0
H834 H 0.3948 0.75748 0.88675 0.0
H835 H 0.39527 0.72684 0.88135 0.0
H836 H 0.41486 0.74524 0.9058 0.0
H837 H 0.44443 0.76077 0.79193 0.0
H838 H 0.41757 0.73942 0.79422 0.0
H839 H 0.41799 0.77033 0.79886 0.0
H840 H 0.34802 0.6984 0.81112 0.0
H841 H 0.34717 0.77235 0.82001 0.0
H842 H 0.40067 0.70085 0.84756 0.0
H843 H 0.40881 0.70441 0.81782 0.0
H844 H 0.38183 0.68398 0.82173 0.0
H845 H 0.39956 0.79069 0.8606 0.0
H846 H 0.37935 0.80112 0.83994 0.0
H847 H 0.40665 0.79523 0.83067 0.0
C848 C 0.50235 0.18144 0.06632 0.0
C849 C 0.49338 0.17995 0.08877 0.0
C850 C 0.50308 0.16095 0.05128 0.0
C851 C 0.49482 0.13847 0.05896 0.0
C852 C 0.48437 0.13683 0.08085 0.0
C853 C 0.48367 0.15758 0.09543 0.0
C854 C 0.51409 0.16341 0.02793 0.0
C855 C 0.47546 0.11318 0.08977 0.0
C856 C 0.48745 0.08048 0.01851 0.0
C857 C 0.50816 0.07325 0.02639 0.0
C858 C 0.4832 0.10224 0.02814 0.0
C859 C 0.50003 0.11692 0.04606 0.0
C860 C 0.52149 0.11022 0.05307 0.0
C861 C 0.52533 0.08857 0.04306 0.0
C862 C 0.46025 0.10895 0.02003 0.0
C863 C 0.53993 0.12531 0.07214 0.0
H864 H 0.50968 0.19863 0.06087 0.0
H865 H 0.47657 0.1562 0.11265 0.0
H866 H 0.53178 0.15896 0.03 0.0
H867 H 0.50315 0.1509 0.01299 0.0
H868 H 0.51629 0.18167 0.02274 0.0
H869 H 0.46562 0.11478 0.10578 0.0
H870 H 0.46372 0.10083 0.07524 0.0
H871 H 0.49069 0.10518 0.09487 0.0
H872 H 0.4741 0.06873 0.00564 0.0
H873 H 0.54149 0.08322 0.04908 0.0
H874 H 0.46358 0.12756 0.01583 0.0
H875 H 0.44876 0.10761 0.03488 0.0
H876 H 0.45051 0.09729 0.00383 0.0
H877 H 0.54485 0.14364 0.06732 0.0
H878 H 0.55623 0.11822 0.07451 0.0
H879 H 0.53254 0.12623 0.08975 0.0
C880 C 0.08425 0.23466 0.32965 0.0
C881 C 0.08075 0.25458 0.34386 0.0
C882 C 0.10606 0.2344 0.32085 0.0
C883 C 0.12474 0.25465 0.32613 0.0
C884 C 0.12103 0.27516 0.33962 0.0
C885 C 0.09911 0.27483 0.34846 0.0
C886 C 0.10938 0.21216 0.30669 0.0
C887 C 0.14044 0.29723 0.3453 0.0
C888 C 0.18884 0.24932 0.32934 0.0
C889 C 0.19531 0.25706 0.30739 0.0
C890 C 0.16561 0.24744 0.33517 0.0
C891 C 0.14861 0.25397 0.31885 0.0
C892 C 0.15483 0.26093 0.29624 0.0
C893 C 0.17811 0.26217 0.29066 0.0
C894 C 0.15957 0.23944 0.35925 0.0
C895 C 0.13731 0.26836 0.27852 0.0
H896 H 0.07017 0.21891 0.32603 0.0
H897 H 0.0965 0.29031 0.35932 0.0
H898 H 0.11611 0.21624 0.28926 0.0
H899 H 0.1228 0.20474 0.31703 0.0
H900 H 0.09269 0.19841 0.30291 0.0
H901 H 0.13419 0.31221 0.35443 0.0
H902 H 0.15525 0.29354 0.35726 0.0
H903 H 0.14759 0.30271 0.32845 0.0
H904 H 0.20215 0.24536 0.34228 0.0
H905 H 0.18316 0.26849 0.27381 0.0
H906 H 0.14347 0.22496 0.35665 0.0
H907 H 0.15564 0.25433 0.37089 0.0
H908 H 0.17422 0.23312 0.36893 0.0
H909 H 0.1443 0.27135 0.26094 0.0
H910 H 0.13302 0.28501 0.28629 0.0
H911 H 0.12055 0.25477 0.27519 0.0
C912 C 0.95059 0.01554 0.18242 0.0
C913 C 0.92874 0.02231 0.18225 0.0
C914 C 0.96317 0.0167 0.1621 0.0
C915 C 0.95388 0.02511 0.14112 0.0
C916 C 0.93243 0.03307 0.14121 0.0
C917 C 0.92004 0.03144 0.16171 0.0
C918 C 0.98581 0.00776 0.16268 0.0
C919 C 0.9221 0.04245 0.1193 0.0
C920 C 0.9944 0.03935 0.09189 0.0
C921 C 0.98695 0.01892 0.07535 0.0
C922 C 0.98359 0.04185 0.11328 0.0
C923 C 0.96532 0.02328 0.11839 0.0
C924 C 0.95809 0.00248 0.10189 0.0
C925 C 0.96882 0.00067 0.08052 0.0
C926 C 0.99151 0.06442 0.13025 0.0
C927 C 0.93905 0.98204 0.10682 0.0
H928 H 0.95755 0.00849 0.19816 0.0
H929 H 0.90328 0.03688 0.16144 0.0
H930 H 0.98316 0.99155 0.14972 0.0
H931 H 0.00021 0.02111 0.15696 0.0
H932 H 0.99162 0.0035 0.18095 0.0
H933 H 0.90679 0.05035 0.12315 0.0
H934 H 0.93575 0.05603 0.11278 0.0
H935 H 0.91609 0.02786 0.1044 0.0
H936 H 0.00828 0.05356 0.08786 0.0
H937 H 0.96312 0.98475 0.0679 0.0
H938 H 0.99809 0.06045 0.14835 0.0
H939 H 0.97626 0.07283 0.13264 0.0
H940 H 0.00573 0.0773 0.12355 0.0
H941 H 0.94416 0.9757 0.12426 0.0
H942 H 0.93579 0.96694 0.09234 0.0
H943 H 0.92224 0.98793 0.10845 0.0
C944 C 0.25516 0.68809 0.454 0.0
C945 C 0.27534 0.68187 0.46492 0.0
C946 C 0.25557 0.69811 0.43212 0.0
C947 C 0.2769 0.70268 0.4213 0.0
C948 C 0.29752 0.69697 0.43256 0.0
C949 C 0.29639 0.68624 0.4541 0.0
C950 C 0.23302 0.70318 0.42026 0.0
C951 C 0.32071 0.70212 0.42181 0.0
C952 C 0.27283 0.70585 0.35368 0.0
C953 C 0.27621 0.73025 0.35248 0.0
C954 C 0.27285 0.69665 0.37598 0.0
C955 C 0.27721 0.71235 0.3976 0.0
C956 C 0.28104 0.7371 0.39647 0.0
C957 C 0.28004 0.74578 0.3738 0.0
C958 C 0.26781 0.67014 0.37635 0.0
C959 C 0.28638 0.75436 0.41916 0.0
H960 H 0.23879 0.68452 0.46225 0.0
H961 H 0.31203 0.68157 0.46265 0.0
H962 H 0.23561 0.7222 0.41768 0.0
H963 H 0.22829 0.69297 0.40207 0.0
H964 H 0.21791 0.69854 0.43105 0.0
H965 H 0.33546 0.69815 0.43366 0.0
H966 H 0.31904 0.69141 0.40401 0.0
H967 H 0.32531 0.72101 0.41863 0.0
H968 H 0.26966 0.69389 0.33707 0.0
H969 H 0.28286 0.76467 0.37273 0.0
H970 H 0.25233 0.66447 0.38635 0.0
H971 H 0.28313 0.66491 0.38599 0.0
H972 H 0.26411 0.66041 0.35787 0.0
H973 H 0.27116 0.75155 0.42999 0.0
H974 H 0.29014 0.77306 0.41515 0.0
H975 H 0.30188 0.75128 0.43054 0.0
C976 C 0.59197 0.97079 0.67097 0.0
C977 C 0.58565 0.97737 0.69382 0.0
C978 C 0.5765 0.97 0.64999 0.0
C979 C 0.55423 0.97587 0.65202 0.0
C980 C 0.5468 0.97998 0.67513 0.0
C981 C 0.56264 0.98074 0.6958 0.0
C982 C 0.58497 0.96523 0.62563 0.0
C983 C 0.52303 0.98587 0.67804 0.0
C984 C 0.53836 0.01182 0.60274 0.0
C985 C 0.52251 0.99478 0.58652 0.0
C986 C 0.54779 0.00605 0.6247 0.0
C987 C 0.54133 0.98254 0.63051 0.0
C988 C 0.52417 0.96556 0.61489 0.0
C989 C 0.51483 0.97194 0.59296 0.0
C990 C 0.56575 0.02485 0.64102 0.0
C991 C 0.51679 0.94039 0.62057 0.0
H992 H 0.60958 0.9678 0.66929 0.0
H993 H 0.55741 0.98534 0.71344 0.0
H994 H 0.57079 0.95317 0.61305 0.0
H995 H 0.58968 0.9821 0.61755 0.0
H996 H 0.6008 0.95732 0.62708 0.0
H997 H 0.51797 0.98374 0.69656 0.0
H998 H 0.52381 0.00453 0.67471 0.0
H999 H 0.50901 0.97453 0.66472 0.0
H1000 H 0.54408 0.02956 0.5978 0.0
H1001 H 0.50267 0.95873 0.58028 0.0
H1002 H 0.5833 0.02006 0.64193 0.0
H1003 H 0.56062 0.02603 0.65966 0.0
H1004 H 0.5676 0.04259 0.63455 0.0
H1005 H 0.53103 0.93087 0.617 0.0
H1006 H 0.50027 0.9308 0.60927 0.0
H1007 H 0.51409 0.93983 0.63993 0.0
C1008 C 0.28539 0.32536 0.95978 0.0
C1009 C 0.26687 0.33506 0.96776 0.0
C1010 C 0.28519 0.31704 0.93537 0.0
C1011 C 0.26576 0.318 0.91859 0.0
C1012 C 0.24651 0.32684 0.9267 0.0
C1013 C 0.24742 0.33552 0.95117 0.0
C1014 C 0.30623 0.30815 0.92739 0.0
C1015 C 0.22524 0.32766 0.90941 0.0
C1016 C 0.27431 0.32222 0.85244 0.0
C1017 C 0.26529 0.29882 0.84219 0.0
C1018 C 0.2752 0.32852 0.8774 0.0
C1019 C 0.26623 0.31111 0.89234 0.0
C1020 C 0.25743 0.28735 0.88211 0.0
C1021 C 0.25734 0.28142 0.85714 0.0
C1022 C 0.28529 0.35393 0.88769 0.0
C1023 C 0.24726 0.26841 0.89735 0.0
H1024 H 0.30056 0.32506 0.97247 0.0
H1025 H 0.233 0.34288 0.95725 0.0
H1026 H 0.3004 0.29016 0.91744 0.0
H1027 H 0.31503 0.31988 0.91477 0.0
H1028 H 0.31945 0.30755 0.94286 0.0
H1029 H 0.21092 0.33312 0.9189 0.0
H1030 H 0.23055 0.34037 0.89621 0.0
H1031 H 0.21811 0.31005 0.89897 0.0
H1032 H 0.28044 0.33567 0.84085 0.0
H1033 H 0.24998 0.26338 0.84916 0.0
H1034 H 0.29934 0.35478 0.90279 0.0
H1035 H 0.27122 0.36174 0.89517 0.0
H1036 H 0.29287 0.36495 0.87388 0.0
H1037 H 0.26042 0.26755 0.91274 0.0
H1038 H 0.24179 0.25065 0.88677 0.0
H1039 H 0.23161 0.27286 0.9051 0.0
C1040 C 0.94611 0.99527 0.32518 0.0
C1041 C 0.93527 0.01254 0.31596 0.0
C1042 C 0.95401 0.99676 0.34987 0.0
C1043 C 0.95147 0.01628 0.3657 0.0
C1044 C 0.94131 0.03424 0.35638 0.0
C1045 C 0.93307 0.03202 0.33163 0.0
C1046 C 0.96435 0.97704 0.35914 0.0
C1047 C 0.93882 0.0556 0.37262 0.0
C1048 C 0.94855 0.00932 0.43242 0.0
C1049 C 0.9719 0.01929 0.44222 0.0
C1050 C 0.94177 0.00786 0.40746 0.0
C1051 C 0.95859 0.01736 0.39213 0.0
C1052 C 0.9822 0.0276 0.40204 0.0
C1053 C 0.98866 0.02812 0.42696 0.0
C1054 C 0.9166 0.99621 0.39752 0.0
C1055 C 0.00047 0.0385 0.38642 0.0
H1056 H 0.94775 0.98007 0.3132 0.0
H1057 H 0.9248 0.04547 0.32459 0.0
H1058 H 0.98234 0.98425 0.36871 0.0
H1059 H 0.95327 0.9685 0.37241 0.0
H1060 H 0.9655 0.9633 0.34439 0.0
H1061 H 0.93219 0.06881 0.36229 0.0
H1062 H 0.92636 0.05001 0.38596 0.0
H1063 H 0.95614 0.06426 0.38297 0.0
H1064 H 0.93561 0.00254 0.44429 0.0
H1065 H 0.00663 0.03624 0.43466 0.0
H1066 H 0.91647 0.98165 0.38318 0.0
H1067 H 0.90788 0.00921 0.3891 0.0
H1068 H 0.90597 0.98889 0.41173 0.0
H1069 H 0.01798 0.04601 0.39699 0.0
H1070 H 0.9944 0.05282 0.37749 0.0
H1071 H 0.00266 0.02505 0.37191 0.0
C1072 C 0.30139 0.70475 0.59744 0.0
C1073 C 0.29334 0.68027 0.59722 0.0
C1074 C 0.30193 0.7202 0.61843 0.0
C1075 C 0.29332 0.71096 0.63928 0.0
C1076 C 0.28595 0.68616 0.63937 0.0
C1077 C 0.28642 0.67109 0.61843 0.0
C1078 C 0.31088 0.74644 0.61799 0.0
C1079 C 0.27615 0.6756 0.66105 0.0
C1080 C 0.3024 0.74532 0.70172 0.0
C1081 C 0.28082 0.75231 0.70251 0.0
C1082 C 0.30738 0.73298 0.68071 0.0
C1083 C 0.29007 0.7271 0.66031 0.0
C1084 C 0.26864 0.73508 0.66076 0.0
C1085 C 0.26441 0.74789 0.68182 0.0
C1086 C 0.33069 0.7254 0.68071 0.0
C1087 C 0.24954 0.72882 0.63956 0.0
H1088 H 0.3069 0.71184 0.58107 0.0
H1089 H 0.27997 0.65217 0.6182 0.0
H1090 H 0.29582 0.75544 0.61796 0.0
H1091 H 0.32327 0.75406 0.63443 0.0
H1092 H 0.32005 0.75042 0.60176 0.0
H1093 H 0.27235 0.65594 0.65866 0.0
H1094 H 0.28875 0.682 0.67757 0.0
H1095 H 0.25951 0.68135 0.66415 0.0
H1096 H 0.31519 0.74913 0.71772 0.0
H1097 H 0.24765 0.7532 0.68259 0.0
H1098 H 0.33875 0.72947 0.6639 0.0
H1099 H 0.32773 0.70599 0.6812 0.0
H1100 H 0.34343 0.73419 0.69655 0.0
H1101 H 0.25679 0.73446 0.62283 0.0
H1102 H 0.23432 0.73717 0.64247 0.0
H1103 H 0.24297 0.70933 0.63654 0.0
C1104 C 0.59524 0.98838 0.84214 0.0
C1105 C 0.5848 0.99199 0.81963 0.0
C1106 C 0.58174 0.98519 0.86168 0.0
C1107 C 0.55718 0.98479 0.85818 0.0
C1108 C 0.5464 0.98706 0.83504 0.0
C1109 C 0.56046 0.99108 0.81613 0.0
C1110 C 0.59395 0.98347 0.88629 0.0
C1111 C 0.52016 0.98594 0.83042 0.0
C1112 C 0.52076 0.96191 0.90752 0.0
C1113 C 0.51891 0.98311 0.92053 0.0
C1114 C 0.5325 0.96208 0.88665 0.0
C1115 C 0.54316 0.984 0.8791 0.0
C1116 C 0.54076 0.00543 0.8918 0.0
C1117 C 0.52827 0.0047 0.91209 0.0
C1118 C 0.53406 0.93887 0.87312 0.0
C1119 C 0.5523 0.02919 0.88462 0.0
H1120 H 0.61412 0.9892 0.84476 0.0
H1121 H 0.5524 0.9936 0.79855 0.0
H1122 H 0.59273 0.99889 0.89901 0.0
H1123 H 0.58504 0.96732 0.8937 0.0
H1124 H 0.61293 0.98308 0.88574 0.0
H1125 H 0.51417 0.98535 0.81086 0.0
H1126 H 0.51001 0.97009 0.83741 0.0
H1127 H 0.51582 0.0017 0.84017 0.0
H1128 H 0.51347 0.94518 0.91396 0.0
H1129 H 0.52695 0.02116 0.92208 0.0
H1130 H 0.55261 0.93666 0.87528 0.0
H1131 H 0.52882 0.93869 0.85349 0.0
H1132 H 0.52265 0.9235 0.87975 0.0
H1133 H 0.57172 0.03077 0.88542 0.0
H1134 H 0.54889 0.04419 0.89656 0.0
H1135 H 0.54572 0.03079 0.86572 0.0
C1136 C 0.27164 0.33638 0.11034 0.0
C1137 C 0.25277 0.34494 0.09983 0.0
C1138 C 0.26944 0.32442 0.13098 0.0
C1139 C 0.24751 0.32013 0.14079 0.0
C1140 C 0.2281 0.32805 0.12967 0.0
C1141 C 0.23112 0.34085 0.10956 0.0
C1142 C 0.29081 0.31701 0.1427 0.0
C1143 C 0.20425 0.32311 0.13912 0.0
C1144 C 0.24219 0.27302 0.18422 0.0
C1145 C 0.24889 0.28697 0.20659 0.0
C1146 C 0.2405 0.28355 0.1626 0.0
C1147 C 0.24557 0.30856 0.16346 0.0
C1148 C 0.2511 0.32263 0.18611 0.0
C1149 C 0.2527 0.31167 0.20735 0.0
C1150 C 0.23429 0.26795 0.1388 0.0
C1151 C 0.25658 0.34933 0.18792 0.0
H1152 H 0.28843 0.33975 0.10283 0.0
H1153 H 0.21651 0.34736 0.10122 0.0
H1154 H 0.29536 0.32577 0.16153 0.0
H1155 H 0.2868 0.29764 0.14367 0.0
H1156 H 0.30653 0.32162 0.13275 0.0
H1157 H 0.19055 0.3289 0.12738 0.0
H1158 H 0.19836 0.30389 0.14043 0.0
H1159 H 0.20559 0.33239 0.1576 0.0
H1160 H 0.23914 0.25392 0.18349 0.0
H1161 H 0.25753 0.32257 0.22461 0.0
H1162 H 0.2501 0.26961 0.12882 0.0
H1163 H 0.22036 0.27365 0.12733 0.0
H1164 H 0.22802 0.24902 0.14131 0.0
H1165 H 0.27329 0.35563 0.18001 0.0
H1166 H 0.25856 0.35762 0.20693 0.0
H1167 H 0.2424 0.35557 0.17743 0.0
C1168 C 0.17938 0.94159 0.00936 0.0
C1169 C 0.19928 0.94603 0.02664 0.0
C1170 C 0.16193 0.95495 0.01097 0.0
C1171 C 0.16451 0.9732 0.03029 0.0
C1172 C 0.18477 0.97805 0.04751 0.0
C1173 C 0.20189 0.96439 0.0455 0.0
C1174 C 0.1405 0.94925 0.99227 0.0
C1175 C 0.18816 0.99741 0.06829 0.0
C1176 C 0.12595 0.01787 0.02207 0.0
C1177 C 0.10682 0.00878 0.03456 0.0
C1178 C 0.14536 0.00702 0.02129 0.0
C1179 C 0.14545 0.98645 0.03303 0.0
C1180 C 0.1267 0.97782 0.04656 0.0
C1181 C 0.10773 0.98922 0.04734 0.0
C1182 C 0.16528 0.01696 0.00706 0.0
C1183 C 0.12605 0.95584 0.0592 0.0
H1184 H 0.17727 0.92748 0.99472 0.0
H1185 H 0.21726 0.96801 0.0589 0.0
H1186 H 0.12427 0.94354 0.00115 0.0
H1187 H 0.13863 0.96527 0.98357 0.0
H1188 H 0.14152 0.93501 0.97797 0.0
H1189 H 0.20548 0.99973 0.07944 0.0
H1190 H 0.18695 0.01445 0.06136 0.0
H1191 H 0.17387 0.99322 0.08012 0.0
H1192 H 0.12542 0.033 0.0122 0.0
H1193 H 0.09303 0.982 0.05702 0.0
H1194 H 0.16532 0.00435 0.99091 0.0
H1195 H 0.1826 0.01926 0.01814 0.0
H1196 H 0.16364 0.03426 0.00092 0.0
H1197 H 0.12487 0.94036 0.04561 0.0
H1198 H 0.11077 0.9521 0.06992 0.0
H1199 H 0.1426 0.95766 0.07146 0.0
C1200 C 0.68043 0.58369 0.98191 0.0
C1201 C 0.69898 0.58185 0.99905 0.0
C1202 C 0.6575 0.56999 0.98192 0.0
C1203 C 0.65292 0.55418 -0.00038 0.0
C1204 C 0.67191 0.55097 0.01583 0.0
C1205 C 0.69474 0.56477 0.01528 0.0
C1206 C 0.63783 0.57377 0.96412 0.0
C1207 C 0.66781 0.53432 0.03499 0.0
C1208 C 0.59259 0.54852 0.02196 0.0
C1209 C 0.58003 0.52663 0.00998 0.0
C1210 C 0.61634 0.55734 0.01899 0.0
C1211 C 0.628 0.54404 0.00357 0.0
C1212 C 0.61563 0.52176 0.99164 0.0
C1213 C 0.59174 0.51328 0.995 0.0
C1214 C 0.62884 0.58115 0.03215 0.0
C1215 C 0.6275 0.5071 0.97507 0.0
H1216 H 0.68357 0.5966 0.96908 0.0
H1217 H 0.70896 0.56313 0.02855 0.0
H1218 H 0.62655 0.55657 0.95591 0.0
H1219 H 0.6264 0.58369 0.97375 0.0
H1220 H 0.64474 0.58394 0.94943 0.0
H1221 H 0.68466 0.53108 0.04362 0.0
H1222 H 0.65865 0.54206 0.04925 0.0
H1223 H 0.65625 0.51711 0.0272 0.0
H1224 H 0.5838 0.55899 0.03365 0.0
H1225 H 0.58219 0.49635 0.9857 0.0
H1226 H 0.6345 0.59368 0.01887 0.0
H1227 H 0.64502 0.57945 0.0434 0.0
H1228 H 0.61744 0.58893 0.04404 0.0
H1229 H 0.63265 0.51679 0.95949 0.0
H1230 H 0.61583 0.48967 0.96806 0.0
H1231 H 0.64396 0.5041 0.98475 0.0
C1232 C 0.67667 0.42763 0.27984 0.0
C1233 C 0.69023 0.44973 0.27647 0.0
C1234 C 0.68681 0.40768 0.28001 0.0
C1235 C 0.71128 0.41018 0.27771 0.0
C1236 C 0.72518 0.43271 0.27515 0.0
C1237 C 0.71437 0.45212 0.27405 0.0
C1238 C 0.67123 0.38384 0.28203 0.0
C1239 C 0.75145 0.4363 0.27356 0.0
C1240 C 0.73942 0.36149 0.30007 0.0
C1241 C 0.74091 0.34804 0.27834 0.0
C1242 C 0.73052 0.38215 0.3001 0.0
C1243 C 0.72227 0.38919 0.27787 0.0
C1244 C 0.72404 0.37584 0.25583 0.0
C1245 C 0.73365 0.35557 0.25632 0.0
C1246 C 0.72956 0.39622 0.32395 0.0
C1247 C 0.71496 0.38245 0.23178 0.0
H1248 H 0.65793 0.42577 0.28142 0.0
H1249 H 0.72487 0.46929 0.27156 0.0
H1250 H 0.6721 0.37124 0.26614 0.0
H1251 H 0.67765 0.3765 0.29837 0.0
H1252 H 0.65245 0.3848 0.28308 0.0
H1253 H 0.75996 0.45518 0.27297 0.0
H1254 H 0.76013 0.42985 0.28935 0.0
H1255 H 0.75472 0.42585 0.25709 0.0
H1256 H 0.74508 0.35571 0.31713 0.0
H1257 H 0.73448 0.34503 0.23951 0.0
H1258 H 0.71088 0.39571 0.32697 0.0
H1259 H 0.73834 0.41504 0.32363 0.0
H1260 H 0.73823 0.38931 0.33947 0.0
H1261 H 0.69572 0.38193 0.23125 0.0
H1262 H 0.71784 0.37037 0.21629 0.0
H1263 H 0.72385 0.40079 0.22946 0.0
C1264 C 0.82855 0.44968 0.53953 0.0
C1265 C 0.82034 0.42821 0.52462 0.0
C1266 C 0.85247 0.46135 0.54185 0.0
C1267 C 0.86856 0.45127 0.52903 0.0
C1268 C 0.86018 0.43025 0.51304 0.0
C1269 C 0.83617 0.41901 0.51099 0.0
C1270 C 0.86073 0.48385 0.55892 0.0
C1271 C 0.87679 0.41895 0.49906 0.0
C1272 C 0.93062 0.48671 0.5248 0.0
C1273 C 0.94387 0.47839 0.54306 0.0
C1274 C 0.90598 0.47832 0.52018 0.0
C1275 C 0.89442 0.46126 0.53416 0.0
C1276 C 0.90768 0.4531 0.55283 0.0
C1277 C 0.93221 0.46176 0.55704 0.0
C1278 C 0.89238 0.48745 0.50016 0.0
C1279 C 0.896 0.43496 0.5682 0.0
H1280 H 0.81644 0.45704 0.54999 0.0
H1281 H 0.83002 0.40251 0.49931 0.0
H1282 H 0.87188 0.48044 0.57485 0.0
H1283 H 0.87181 0.49771 0.54996 0.0
H1284 H 0.84571 0.49079 0.56541 0.0
H1285 H 0.86718 0.40391 0.48572 0.0
H1286 H 0.8878 0.43217 0.48934 0.0
H1287 H 0.88899 0.4123 0.51181 0.0
H1288 H 0.93952 0.49959 0.51395 0.0
H1289 H 0.94228 0.45532 0.57128 0.0
H1290 H 0.87787 0.49476 0.50731 0.0
H1291 H 0.88409 0.47267 0.486 0.0
H1292 H 0.90384 0.50141 0.49162 0.0
H1293 H 0.88195 0.44146 0.57719 0.0
H1294 H 0.90879 0.43083 0.58233 0.0
H1295 H 0.88741 0.41833 0.55659 0.0
C1296 C 0.32657 0.07743 0.22833 0.0
C1297 C 0.33768 0.07457 0.2509 0.0
C1298 C 0.31581 0.09661 0.22548 0.0
C1299 C 0.3158 0.11301 0.24578 0.0
C1300 C 0.32584 0.10946 0.26887 0.0
C1301 C 0.33694 0.0904 0.2711 0.0
C1302 C 0.30567 0.10004 0.20052 0.0
C1303 C 0.32574 0.12636 0.29104 0.0
C1304 C 0.31771 0.17744 0.23955 0.0
C1305 C 0.29445 0.17899 0.24263 0.0
C1306 C 0.32451 0.15573 0.23917 0.0
C1307 C 0.30771 0.13522 0.24258 0.0
C1308 C 0.28388 0.13652 0.24461 0.0
C1309 C 0.27743 0.1585 0.24436 0.0
C1310 C 0.34995 0.15498 0.23632 0.0
C1311 C 0.26561 0.11507 0.24864 0.0
H1312 H 0.32715 0.06523 0.21263 0.0
H1313 H 0.34531 0.08808 0.28861 0.0
H1314 H 0.28758 0.10336 0.20089 0.0
H1315 H 0.31679 0.11582 0.19431 0.0
H1316 H 0.30492 0.0845 0.18711 0.0
H1317 H 0.33184 0.11966 0.30797 0.0
H1318 H 0.33757 0.14368 0.28959 0.0
H1319 H 0.30769 0.12949 0.29238 0.0
H1320 H 0.33079 0.19342 0.23816 0.0
H1321 H 0.25952 0.1599 0.24709 0.0
H1322 H 0.35077 0.14096 0.22176 0.0
H1323 H 0.35861 0.15061 0.25333 0.0
H1324 H 0.36024 0.17212 0.23198 0.0
H1325 H 0.26605 0.09975 0.23545 0.0
H1326 H 0.24742 0.11841 0.2471 0.0
H1327 H 0.26973 0.11006 0.26699 0.0
C1328 C 0.3324 0.07855 0.48542 0.0
C1329 C 0.32459 0.08504 0.50753 0.0
C1330 C 0.3519 0.06775 0.48466 0.0
C1331 C 0.36429 0.06413 0.50656 0.0
C1332 C 0.35644 0.07072 0.52892 0.0
C1333 C 0.33647 0.08075 0.5291 0.0
C1334 C 0.35939 0.06042 0.46044 0.0
C1335 C 0.36958 0.06792 0.55271 0.0
C1336 C 0.40706 0.02247 0.50803 0.0
C1337 C 0.42873 0.03825 0.50749 0.0
C1338 C 0.38577 0.0305 0.50703 0.0
C1339 C 0.38638 0.05494 0.50628 0.0
C1340 C 0.40832 0.07091 0.50605 0.0
C1341 C 0.42914 0.06231 0.5063 0.0
C1342 C 0.36265 0.01287 0.50671 0.0
C1343 C 0.40991 0.09718 0.50604 0.0
H1344 H 0.32311 0.08166 0.46871 0.0
H1345 H 0.33057 0.0859 0.54625 0.0
H1346 H 0.37709 0.07121 0.45847 0.0
H1347 H 0.36091 0.04165 0.45927 0.0
H1348 H 0.34674 0.06259 0.44511 0.0
H1349 H 0.36096 0.07361 0.5685 0.0
H1350 H 0.37073 0.04919 0.55345 0.0
H1351 H 0.38796 0.07859 0.55435 0.0
H1352 H 0.40672 0.00384 0.50883 0.0
H1353 H 0.44592 0.07462 0.50616 0.0
H1354 H 0.35036 0.01428 0.49077 0.0
H1355 H 0.35408 0.01685 0.52308 0.0
H1356 H 0.36507 0.99437 0.50607 0.0
H1357 H 0.39935 0.10062 0.48972 0.0
H1358 H 0.42842 0.10726 0.50637 0.0
H1359 H 0.40236 0.10406 0.52205 0.0
C1360 C 0.71033 0.58204 0.2791 0.0
C1361 C 0.69267 0.5769 0.29458 0.0
C1362 C 0.72286 0.60536 0.27849 0.0
C1363 C 0.71785 0.62394 0.29397 0.0
C1364 C 0.70137 0.6186 0.31093 0.0
C1365 C 0.68885 0.59518 0.31091 0.0
C1366 C 0.74016 0.61029 0.26003 0.0
C1367 C 0.69581 0.63783 0.32803 0.0
C1368 C 0.75735 0.6858 0.29917 0.0
C1369 C 0.74418 0.69696 0.28341 0.0
C1370 C 0.74912 0.66197 0.30281 0.0
C1371 C 0.72735 0.64904 0.29025 0.0
C1372 C 0.71421 0.66016 0.27406 0.0
C1373 C 0.72274 0.68393 0.27091 0.0
C1374 C 0.76353 0.65074 0.32031 0.0
C1375 C 0.69101 0.64698 0.26012 0.0
H1376 H 0.71342 0.56805 0.26641 0.0
H1377 H 0.67543 0.59134 0.3231 0.0
H1378 H 0.7325 0.61929 0.24557 0.0
H1379 H 0.75688 0.62233 0.26844 0.0
H1380 H 0.74432 0.59383 0.25155 0.0
H1381 H 0.6852 0.63051 0.34225 0.0
H1382 H 0.71235 0.64988 0.33689 0.0
H1383 H 0.68564 0.6486 0.3177 0.0
H1384 H 0.77392 0.69575 0.30891 0.0
H1385 H 0.71253 0.69229 0.25851 0.0
H1386 H 0.76783 0.63473 0.31101 0.0
H1387 H 0.75304 0.64495 0.33516 0.0
H1388 H 0.7803 0.66304 0.3283 0.0
H1389 H 0.69363 0.63101 0.24918 0.0
H1390 H 0.68324 0.65806 0.24783 0.0
H1391 H 0.67807 0.64092 0.27288 0.0
C1392 C 0.83656 0.44668 0.76129 0.0
C1393 C 0.8583 0.45642 0.77526 0.0
C1394 C 0.82691 0.4223 0.75903 0.0
C1395 C 0.8392 0.40736 0.77117 0.0
C1396 C 0.86016 0.41729 0.7868 0.0
C1397 C 0.86952 0.44173 0.7886 0.0
C1398 C 0.80445 0.41239 0.74224 0.0
C1399 C 0.87352 0.40194 0.8004 0.0
C1400 C 0.8072 0.34327 0.77054 0.0
C1401 C 0.81604 0.33235 0.751 0.0
C1402 C 0.81501 0.36763 0.77782 0.0
C1403 C 0.83177 0.38132 0.76503 0.0
C1404 C 0.84095 0.3703 0.74551 0.0
C1405 C 0.83307 0.34593 0.73882 0.0
C1406 C 0.8051 0.37875 0.79894 0.0
C1407 C 0.85875 0.38435 0.73131 0.0
H1408 H 0.82762 0.4579 0.7511 0.0
H1409 H 0.88617 0.44913 0.79969 0.0
H1410 H 0.80867 0.40239 0.72593 0.0
H1411 H 0.79179 0.39986 0.75115 0.0
H1412 H 0.79566 0.4265 0.73635 0.0
H1413 H 0.8873 0.41256 0.8145 0.0
H1414 H 0.86123 0.38886 0.80911 0.0
H1415 H 0.88228 0.3919 0.78753 0.0
H1416 H 0.79415 0.3328 0.78013 0.0
H1417 H 0.83995 0.3376 0.7237 0.0
H1418 H 0.79482 0.39156 0.79264 0.0
H1419 H 0.81971 0.38875 0.81249 0.0
H1420 H 0.79337 0.36539 0.80794 0.0
H1421 H 0.85101 0.39798 0.72283 0.0
H1422 H 0.8644 0.37303 0.71686 0.0
H1423 H 0.87466 0.39375 0.74359 0.0
C1424 C 0.00566 0.8386 0.10331 0.0
C1425 C 0.02792 0.83291 0.10267 0.0
C1426 C 0.00112 0.85923 0.09431 0.0
C1427 C 0.01941 0.87472 0.08492 0.0
C1428 C 0.04174 0.86877 0.08378 0.0
C1429 C 0.04564 0.84787 0.09247 0.0
C1430 C 0.97696 0.86477 0.0954 0.0
C1431 C 0.06185 0.88495 0.07423 0.0
C1432 C 0.01043 0.92388 0.04697 0.0
C1433 C 0.01758 0.94383 0.06419 0.0
C1434 C 0.00952 0.90098 0.05367 0.0
C1435 C 0.01612 0.89808 0.07808 0.0
C1436 C 0.02205 0.91807 0.0957 0.0
C1437 C 0.02256 0.94064 0.08857 0.0
C1438 C 0.00268 0.88005 0.03443 0.0
C1439 C 0.0293 0.91582 0.12191 0.0
H1440 H 0.99183 0.82701 0.11099 0.0
H1441 H 0.0629 0.84363 0.09194 0.0
H1442 H 0.97826 0.88053 0.10864 0.0
H1443 H 0.97013 0.8691 0.07754 0.0
H1444 H 0.96399 0.8498 0.10082 0.0
H1445 H 0.07783 0.87732 0.07371 0.0
H1446 H 0.05628 0.88864 0.0557 0.0
H1447 H 0.06673 0.90214 0.08585 0.0
H1448 H 0.00638 0.92617 0.02812 0.0
H1449 H 0.02787 0.95591 0.10207 0.0
H1450 H 0.98984 0.86553 0.04069 0.0
H1451 H 0.0186 0.87316 0.03083 0.0
H1452 H 0.99479 0.8848 0.01719 0.0
H1453 H 0.01594 0.90224 0.1288 0.0
H1454 H 0.03154 0.93279 0.13365 0.0
H1455 H 0.04631 0.90995 0.1235 0.0
C1456 C 0.9191 0.23344 0.85544 0.0
C1457 C 0.94163 0.23694 0.84751 0.0
C1458 C 0.89909 0.2341 0.83972 0.0
C1459 C 0.90172 0.2388 0.81557 0.0
C1460 C 0.92426 0.24134 0.80713 0.0
C1461 C 0.94396 0.2402 0.82318 0.0
C1462 C 0.87528 0.23089 0.84933 0.0
C1463 C 0.9278 0.2466 0.78159 0.0
C1464 C 0.84404 0.22957 0.77435 0.0
C1465 C 0.83892 0.25206 0.77789 0.0
C1466 C 0.86509 0.2251 0.78556 0.0
C1467 C 0.88136 0.24367 0.80027 0.0
C1468 C 0.87692 0.26677 0.80241 0.0
C1469 C 0.85568 0.27062 0.79135 0.0
C1470 C 0.86914 0.20023 0.78296 0.0
C1471 C 0.89396 0.28717 0.81758 0.0
H1472 H 0.91714 0.2306 0.87413 0.0
H1473 H 0.96135 0.24293 0.81695 0.0
H1474 H 0.86943 0.24792 0.85031 0.0
H1475 H 0.86178 0.2178 0.83695 0.0
H1476 H 0.8758 0.22489 0.86766 0.0
H1477 H 0.94569 0.2452 0.77697 0.0
H1478 H 0.91432 0.23433 0.76843 0.0
H1479 H 0.92554 0.26482 0.77946 0.0
H1480 H 0.83101 0.21517 0.76405 0.0
H1481 H 0.85181 0.28809 0.79389 0.0
H1482 H 0.86667 0.1925 0.80024 0.0
H1483 H 0.88754 0.20026 0.77912 0.0
H1484 H 0.85668 0.18865 0.76835 0.0
H1485 H 0.89407 0.28439 0.83698 0.0
H1486 H 0.88914 0.30442 0.81525 0.0
H1487 H 0.91222 0.28812 0.81281 0.0
C1488 C 0.51811 0.19379 0.58812 0.0
C1489 C 0.53124 0.2005 0.61087 0.0
C1490 C 0.5138 0.17027 0.57733 0.0
C1491 C 0.52359 0.15341 0.58927 0.0
C1492 C 0.53795 0.16054 0.61166 0.0
C1493 C 0.54122 0.1839 0.6224 0.0
C1494 C 0.49785 0.1632 0.5538 0.0
C1495 C 0.54926 0.14331 0.62465 0.0
C1496 C 0.49179 0.08888 0.57933 0.0
C1497 C 0.50494 0.0792 0.56278 0.0
C1498 C 0.49749 0.11304 0.58771 0.0
C1499 C 0.51706 0.12793 0.57963 0.0
C1500 C 0.53053 0.1183 0.56301 0.0
C1501 C 0.52419 0.09403 0.55462 0.0
C1502 C 0.4825 0.12263 0.60522 0.0
C1503 C 0.55173 0.13359 0.55432 0.0
H1504 H 0.51033 0.20668 0.5793 0.0
H1505 H 0.55162 0.18924 0.6399 0.0
H1506 H 0.50664 0.15393 0.5403 0.0
H1507 H 0.48146 0.15064 0.55682 0.0
H1508 H 0.49283 0.17865 0.54609 0.0
H1509 H 0.56203 0.15225 0.64042 0.0
H1510 H 0.53537 0.12998 0.63118 0.0
H1511 H 0.55866 0.13364 0.61209 0.0
H1512 H 0.47676 0.0776 0.58559 0.0
H1513 H 0.53441 0.08665 0.54182 0.0
H1514 H 0.47563 0.13732 0.59793 0.0
H1515 H 0.49344 0.12992 0.62263 0.0
H1516 H 0.46727 0.10887 0.60889 0.0
H1517 H 0.54636 0.14823 0.54539 0.0
H1518 H 0.56033 0.1234 0.54136 0.0
H1519 H 0.56495 0.14175 0.56998 0.0
C1520 C 0.5873 0.74388 0.35902 0.0
C1521 C 0.56666 0.75104 0.35076 0.0
C1522 C 0.6058 0.7441 0.3445 0.0
C1523 C 0.60368 0.7518 0.32122 0.0
C1524 C 0.58285 0.75887 0.31268 0.0
C1525 C 0.56456 0.75833 0.32752 0.0
C1526 C 0.62773 0.7363 0.35418 0.0
C1527 C 0.58002 0.76732 0.28802 0.0
C1528 C 0.66188 0.77352 0.29634 0.0
C1529 C 0.66408 0.75329 0.28177 0.0
C1530 C 0.64188 0.77356 0.30861 0.0
C1531 C 0.62358 0.75293 0.30613 0.0
C1532 C 0.62507 0.73292 0.29038 0.0
C1533 C 0.64533 0.73333 0.2784 0.0
C1534 C 0.6409 0.79529 0.32518 0.0
C1535 C 0.60579 0.71068 0.28711 0.0
H1536 H 0.58906 0.73813 0.37689 0.0
H1537 H 0.54871 0.76396 0.32098 0.0
H1538 H 0.63092 0.72163 0.34166 0.0
H1539 H 0.6434 0.75114 0.3553 0.0
H1540 H 0.62636 0.73026 0.3724 0.0
H1541 H 0.56245 0.77162 0.28381 0.0
H1542 H 0.59396 0.78334 0.28706 0.0
H1543 H 0.5823 0.75357 0.27385 0.0
H1544 H 0.67624 0.78906 0.29904 0.0
H1545 H 0.64683 0.71765 0.2671 0.0
H1546 H 0.64192 0.79121 0.34422 0.0
H1547 H 0.62386 0.80065 0.32108 0.0
H1548 H 0.65562 0.81049 0.32362 0.0
H1549 H 0.60517 0.70252 0.30431 0.0
H1550 H 0.60864 0.69745 0.27266 0.0
H1551 H 0.58827 0.71492 0.28257 0.0
C1552 C 0.99994 0.19987 0.45098 0.0
C1553 C 0.01731 0.20583 0.43543 0.0
C1554 C 0.9987 0.17969 0.46324 0.0
C1555 C 0.01571 0.1657 0.46037 0.0
C1556 C 0.03391 0.1723 0.4455 0.0
C1557 C 0.03425 0.19209 0.43288 0.0
C1558 C 0.97867 0.1728 0.47839 0.0
C1559 C 0.05274 0.15817 0.4425 0.0
C1560 C 0.0253 0.12106 0.50375 0.0
C1561 C 0.0148 0.09988 0.4894 0.0
C1562 C 0.02506 0.14288 0.49489 0.0
C1563 C 0.01366 0.1432 0.47142 0.0
C1564 C 0.00189 0.1217 0.45752 0.0
C1565 C 0.00293 0.10024 0.46658 0.0
C1566 C 0.03819 0.16541 0.50999 0.0
C1567 C 0.98909 0.12128 0.43264 0.0
H1568 H 0.98676 0.21046 0.45282 0.0
H1569 H 0.04784 0.19689 0.42104 0.0
H1570 H 0.96709 0.15575 0.47016 0.0
H1571 H 0.98567 0.17012 0.49683 0.0
H1572 H 0.96774 0.18633 0.47992 0.0
H1573 H 0.06686 0.16694 0.43215 0.0
H1574 H 0.06097 0.15551 0.46046 0.0
H1575 H 0.04461 0.14042 0.43282 0.0
H1576 H 0.0347 0.12053 0.5213 0.0
H1577 H 0.99488 0.08366 0.45559 0.0
H1578 H 0.02684 0.17854 0.51112 0.0
H1579 H 0.0539 0.17336 0.50125 0.0
H1580 H 0.04425 0.16229 0.52862 0.0
H1581 H 0.97873 0.10331 0.42541 0.0
H1582 H 0.0021 0.12723 0.41992 0.0
H1583 H 0.97692 0.13367 0.43312 0.0
C1584 C 0.57278 0.22915 0.19768 0.0
C1585 C 0.56776 0.24814 0.18592 0.0
C1586 C 0.59572 0.22987 0.20859 0.0
C1587 C 0.61382 0.25027 0.20814 0.0
C1588 C 0.60836 0.27009 0.19774 0.0
C1589 C 0.58547 0.26866 0.18649 0.0
C1590 C 0.60092 0.20827 0.21918 0.0
C1591 C 0.62699 0.2924 0.19742 0.0
C1592 C 0.67323 0.26155 0.24667 0.0
C1593 C 0.68804 0.25701 0.22919 0.0
C1594 C 0.64874 0.25853 0.24039 0.0
C1595 C 0.63891 0.25025 0.21623 0.0
C1596 C 0.65367 0.24409 0.19898 0.0
C1597 C 0.67811 0.24787 0.2056 0.0
C1598 C 0.63369 0.26568 0.25918 0.0
C1599 C 0.64383 0.23463 0.17319 0.0
H1600 H 0.55915 0.21318 0.19713 0.0
H1601 H 0.58157 0.28345 0.17759 0.0
H1602 H 0.61194 0.19983 0.20741 0.0
H1603 H 0.61115 0.21326 0.23732 0.0
H1604 H 0.5845 0.19502 0.22075 0.0
H1605 H 0.61929 0.30708 0.19116 0.0
H1606 H 0.63665 0.29827 0.21574 0.0
H1607 H 0.64012 0.28885 0.18513 0.0
H1608 H 0.68096 0.26883 0.26489 0.0
H1609 H 0.68958 0.24419 0.19214 0.0
H1610 H 0.61732 0.25188 0.25902 0.0
H1611 H 0.62824 0.28217 0.25487 0.0
H1612 H 0.64334 0.2689 0.2777 0.0
H1613 H 0.62813 0.21994 0.1728 0.0
H1614 H 0.65711 0.22812 0.16287 0.0
H1615 H 0.63797 0.24882 0.16385 0.0
C1616 C 0.54184 0.84193 0.97068 0.0
C1617 C 0.54418 0.84184 0.94589 0.0
C1618 C 0.53805 0.86201 0.9843 0.0
C1619 C 0.53709 0.88261 0.97295 0.0
C1620 C 0.54062 0.88303 0.94822 0.0
C1621 C 0.54387 0.86252 0.9349 0.0
C1622 C 0.53392 0.86077 0.01051 0.0
C1623 C 0.54013 0.90487 0.9356 0.0
C1624 C 0.50121 0.92571 0.9958 0.0
C1625 C 0.51891 0.94412 0.00815 0.0
C1626 C 0.50682 0.90513 0.9851 0.0
C1627 C 0.53077 0.90319 0.98643 0.0
C1628 C 0.54863 0.92138 -0.00035 0.0
C1629 C 0.54244 0.94158 0.0106 0.0
C1630 C 0.48721 0.88588 0.97161 0.0
C1631 C 0.57438 0.92007 0.00113 0.0
H1632 H 0.5419 0.82595 0.97926 0.0
H1633 H 0.54582 0.86257 0.91578 0.0
H1634 H 0.54583 0.87582 0.02213 0.0
H1635 H 0.51548 0.86218 0.01277 0.0
H1636 H 0.53682 0.844 0.01705 0.0
H1637 H 0.54557 0.9031 0.91708 0.0
H1638 H 0.52198 0.9082 0.93424 0.0
H1639 H 0.55202 0.92062 0.94623 0.0
H1640 H 0.483 0.92769 0.99395 0.0
H1641 H 0.55619 0.95596 0.0199 0.0
H1642 H 0.4883 0.86849 0.97777 0.0
H1643 H 0.48918 0.88464 0.95199 0.0
H1644 H 0.46939 0.88921 0.9741 0.0
H1645 H 0.57681 0.90308 0.00741 0.0
H1646 H 0.58588 0.93485 0.01353 0.0
H1647 H 0.58038 0.92069 0.98285 0.0
C1648 C 0.92785 0.73052 0.68758 0.0
C1649 C 0.94387 0.74754 0.67769 0.0
C1650 C 0.90842 0.73628 0.6979 0.0
C1651 C 0.90511 0.75978 0.69872 0.0
C1652 C 0.92166 0.77729 0.68951 0.0
C1653 C 0.94077 0.7709 0.67885 0.0
C1654 C 0.89101 0.71698 0.70723 0.0
C1655 C 0.91892 0.8026 0.69051 0.0
C1656 C 0.84074 0.76137 0.70023 0.0
C1657 C 0.83926 0.76452 0.72519 0.0
C1658 C 0.86247 0.76158 0.69122 0.0
C1659 C 0.88327 0.7652 0.70759 0.0
C1660 C 0.88221 0.77051 0.73267 0.0
C1661 C 0.86013 0.77005 0.74123 0.0
C1662 C 0.86279 0.75591 0.66433 0.0
C1663 C 0.9041 0.77494 0.75063 0.0
H1664 H 0.93014 0.71243 0.68673 0.0
H1665 H 0.95325 0.78418 0.67144 0.0
H1666 H 0.88904 0.72207 0.72643 0.0
H1667 H 0.87334 0.71453 0.69676 0.0
H1668 H 0.89652 0.69976 0.70585 0.0
H1669 H 0.93459 0.81453 0.68497 0.0
H1670 H 0.90308 0.80361 0.67834 0.0
H1671 H 0.91616 0.80915 0.70909 0.0
H1672 H 0.8247 0.75751 0.68768 0.0
H1673 H 0.85913 0.7727 0.76054 0.0
H1674 H 0.86627 0.73794 0.66063 0.0
H1675 H 0.87718 0.76854 0.65765 0.0
H1676 H 0.84573 0.75641 0.65388 0.0
H1677 H 0.90932 0.75792 0.75304 0.0
H1678 H 0.90111 0.78299 0.76858 0.0
H1679 H 0.91912 0.78674 0.74391 0.0
C1680 C 0.07506 0.02769 0.85481 0.0
C1681 C 0.0849 0.01046 0.84277 0.0
C1682 C 0.06325 0.02311 0.87526 0.0
C1683 C 0.06083 0.00058 0.88369 0.0
C1684 C 0.07 0.98282 0.87113 0.0
C1685 C 0.08215 0.98804 0.85094 0.0
C1686 C 0.05415 0.04271 0.88836 0.0
C1687 C 0.06743 0.95848 0.87934 0.0
C1688 C 0.05548 0.00089 0.9508 0.0
C1689 C 0.03085 0.99478 0.9513 0.0
C1690 C 0.06544 0.00196 0.92891 0.0
C1691 C 0.05048 0.9965 0.9068 0.0
C1692 C 0.02569 0.98909 0.90707 0.0
C1693 C 0.01612 0.98839 0.92935 0.0
C1694 C 0.09196 0.01007 0.92955 0.0
C1695 C 0.00921 0.98278 0.88385 0.0
H1696 H 0.07715 0.04508 0.84866 0.0
H1697 H 0.08955 0.97459 0.8416 0.0
H1698 H 0.03506 0.0367 0.89023 0.0
H1699 H 0.06362 0.0474 0.9069 0.0
H1700 H 0.05656 0.0589 0.87891 0.0
H1701 H 0.0735 0.94601 0.86634 0.0
H1702 H 0.07795 0.95965 0.89717 0.0
H1703 H 0.04868 0.9511 0.8817 0.0
H1704 H 0.06709 0.00557 0.96762 0.0
H1705 H 0.99711 0.98357 0.92954 0.0
H1706 H 0.09615 0.02726 0.92197 0.0
H1707 H 0.09914 0.9972 0.91818 0.0
H1708 H 0.1012 0.0123 0.9482 0.0
H1709 H 0.00894 0.99895 0.8748 0.0
H1710 H 0.99082 0.97475 0.88702 0.0
H1711 H 0.01557 0.97024 0.87124 0.0
C1712 C 0.74062 0.34526 0.59987 0.0
C1713 C 0.74251 0.33886 0.57543 0.0
C1714 C 0.74107 0.32895 0.61685 0.0
C1715 C 0.74343 0.30574 0.60915 0.0
C1716 C 0.7441 0.29882 0.58435 0.0
C1717 C 0.74363 0.31546 0.56779 0.0
C1718 C 0.74011 0.33687 0.64319 0.0
C1719 C 0.74643 0.27417 0.57547 0.0
C1720 C 0.77393 0.27647 0.65669 0.0
C1721 C 0.75463 0.26234 0.66545 0.0
C1722 C 0.77053 0.29004 0.63774 0.0
C1723 C 0.74725 0.28944 0.62732 0.0
C1724 C 0.72777 0.27421 0.63515 0.0
C1725 C 0.7317 0.26075 0.6541 0.0
C1726 C 0.79177 0.30596 0.62974 0.0
C1727 C 0.70271 0.27309 0.6244 0.0
H1728 H 0.73962 0.36324 0.60592 0.0
H1729 H 0.74486 0.31025 0.5489 0.0
H1730 H 0.7262 0.32434 0.65066 0.0
H1731 H 0.75726 0.33693 0.65373 0.0
H1732 H 0.73648 0.35489 0.64595 0.0
H1733 H 0.74434 0.27091 0.5554 0.0
H1734 H 0.76412 0.27157 0.58235 0.0
H1735 H 0.73303 0.26074 0.5825 0.0
H1736 H 0.79169 0.27772 0.66533 0.0
H1737 H 0.71666 0.24994 0.66084 0.0
H1738 H 0.79088 0.32474 0.63408 0.0
H1739 H 0.79177 0.30272 0.60986 0.0
H1740 H 0.80874 0.30329 0.63867 0.0
H1741 H 0.69783 0.29025 0.62919 0.0
H1742 H 0.68975 0.25888 0.63102 0.0
H1743 H 0.70124 0.27003 0.60437 0.0
C1744 C 0.47613 0.03647 0.34585 0.0
C1745 C 0.4539 0.04237 0.34419 0.0
C1746 C 0.48936 0.03763 0.3683 0.0
C1747 C 0.47992 0.04457 0.38957 0.0
C1748 C 0.4587 0.05302 0.3878 0.0
C1749 C 0.4459 0.0519 0.36499 0.0
C1750 C 0.5121 0.02887 0.36934 0.0
C1751 C 0.44824 0.06084 0.4101 0.0
C1752 C 0.48786 0.00817 0.44106 0.0
C1753 C 0.50552 0.0236 0.45701 0.0
C1754 C 0.47957 0.0149 0.4191 0.0
C1755 C 0.48907 0.03777 0.41295 0.0
C1756 C 0.50725 0.05338 0.42876 0.0
C1757 C 0.51539 0.04603 0.45068 0.0
C1758 C 0.46042 0.99751 0.4026 0.0
C1759 C 0.51759 0.07795 0.42285 0.0
H1760 H 0.48259 0.02958 0.32967 0.0
H1761 H 0.4288 0.05668 0.36371 0.0
H1762 H 0.52574 0.04014 0.38308 0.0
H1763 H 0.50872 0.01064 0.37465 0.0
H1764 H 0.51924 0.0285 0.35155 0.0
H1765 H 0.43455 0.07107 0.40576 0.0
H1766 H 0.43986 0.04502 0.41843 0.0
H1767 H 0.4622 0.07181 0.42374 0.0
H1768 H 0.4803 0.99076 0.44588 0.0
H1769 H 0.52885 0.05809 0.46319 0.0
H1770 H 0.46665 0.99397 0.38471 0.0
H1771 H 0.44453 0.0051 0.39958 0.0
H1772 H 0.4551 0.98038 0.4101 0.0
H1773 H 0.52286 0.07732 0.40425 0.0
H1774 H 0.53323 0.08694 0.43575 0.0
H1775 H 0.50398 0.08877 0.4235 0.0
C1776 C 0.74687 0.6881 0.07984 0.0
C1777 C 0.76655 0.67918 0.07399 0.0
C1778 C 0.74611 0.69883 0.10327 0.0
C1779 C 0.76573 0.70119 0.12101 0.0
C1780 C 0.78626 0.69367 0.11465 0.0
C1781 C 0.78628 0.68243 0.09132 0.0
C1782 C 0.72377 0.70627 0.10941 0.0
C1783 C 0.80783 0.69649 0.13281 0.0
C1784 C 0.77206 0.74013 0.1809 0.0
C1785 C 0.76638 0.72307 0.19686 0.0
C1786 C 0.77122 0.73343 0.15594 0.0
C1787 C 0.76406 0.70919 0.14679 0.0
C1788 C 0.75693 0.69212 0.16274 0.0
C1789 C 0.75847 0.69924 0.18761 0.0
C1790 C 0.77936 0.75212 0.13965 0.0
C1791 C 0.74869 0.66615 0.1537 0.0
H1792 H 0.73151 0.68547 0.06653 0.0
H1793 H 0.8016 0.67574 0.08678 0.0
H1794 H 0.71497 0.69435 0.12188 0.0
H1795 H 0.72796 0.72449 0.11891 0.0
H1796 H 0.71111 0.70557 0.09308 0.0
H1797 H 0.82323 0.6923 0.12428 0.0
H1798 H 0.81289 0.71485 0.14199 0.0
H1799 H 0.80372 0.68449 0.14694 0.0
H1800 H 0.77848 0.75855 0.18808 0.0
H1801 H 0.75399 0.68605 0.19994 0.0
H1802 H 0.76664 0.74998 0.12314 0.0
H1803 H 0.79662 0.7501 0.13373 0.0
H1804 H 0.78156 0.77031 0.14892 0.0
H1805 H 0.73478 0.66358 0.13812 0.0
H1806 H 0.74153 0.65552 0.16798 0.0
H1807 H 0.76371 0.6592 0.14729 0.0
C1808 C 0.08436 0.026 0.70695 0.0
C1809 C 0.09523 0.00763 0.71314 0.0
C1810 C 0.07422 0.02621 0.68318 0.0
C1811 C 0.07446 0.0073 0.66542 0.0
C1812 C 0.08415 0.98802 0.67197 0.0
C1813 C 0.09474 0.98859 0.69568 0.0
C1814 C 0.06444 0.04726 0.6768 0.0
C1815 C 0.08414 0.96718 0.65372 0.0
C1816 C 0.03595 0.9982 0.6051 0.0
C1817 C 0.05283 0.00589 0.58952 0.0
C1818 C 0.04255 0.99907 0.63005 0.0
C1819 C 0.06643 0.00844 0.63958 0.0
C1820 C 0.0832 0.01751 0.62401 0.0
C1821 C 0.07626 0.01576 0.5991 0.0
C1822 C 0.02429 0.98868 0.64591 0.0
C1823 C 0.1087 0.02821 0.63353 0.0
H1824 H 0.08486 0.04084 0.72037 0.0
H1825 H 0.10296 0.97427 0.70048 0.0
H1826 H 0.0757 0.05711 0.66444 0.0
H1827 H 0.04635 0.04138 0.6671 0.0
H1828 H 0.06381 0.05956 0.69304 0.0
H1829 H 0.09006 0.95257 0.66227 0.0
H1830 H 0.06614 0.96027 0.64403 0.0
H1831 H 0.09612 0.97291 0.64 0.0
H1832 H 0.01788 0.99023 0.59761 0.0
H1833 H 0.08927 0.02174 0.58699 0.0
H1834 H 0.02473 0.00109 0.66233 0.0
H1835 H 0.02842 0.9722 0.65201 0.0
H1836 H 0.00609 0.98438 0.63625 0.0
H1837 H 0.10969 0.04171 0.64918 0.0
H1838 H 0.11886 0.0366 0.61951 0.0
H1839 H 0.11736 0.01425 0.63998 0.0
C1840 C 0.73047 0.33225 0.42899 0.0
C1841 C 0.74576 0.32894 0.44863 0.0
C1842 C 0.72908 0.31896 0.40638 0.0
C1843 C 0.74332 0.30207 0.40351 0.0
C1844 C 0.75752 0.29757 0.42372 0.0
C1845 C 0.75856 0.31106 0.44602 0.0
C1846 C 0.71361 0.32413 0.38522 0.0
C1847 C 0.77302 0.27977 0.42144 0.0
C1848 C 0.73705 0.26042 0.34544 0.0
C1849 C 0.75481 0.27283 0.33316 0.0
C1850 C 0.7327 0.26983 0.36828 0.0
C1851 C 0.74651 0.29202 0.37895 0.0
C1852 C 0.76451 0.30447 0.36664 0.0
C1853 C 0.76846 0.29471 0.344 0.0
C1854 C 0.71334 0.25614 0.38096 0.0
C1855 C 0.77976 0.32814 0.3774 0.0
H1856 H 0.72037 0.34589 0.43096 0.0
H1857 H 0.77016 0.30812 0.46122 0.0
H1858 H 0.7249 0.33412 0.37297 0.0
H1859 H 0.70356 0.30744 0.3746 0.0
H1860 H 0.70092 0.33479 0.39111 0.0
H1861 H 0.78053 0.27613 0.43936 0.0
H1862 H 0.7629 0.26286 0.41135 0.0
H1863 H 0.78789 0.28666 0.41108 0.0
H1864 H 0.72635 0.24358 0.33707 0.0
H1865 H 0.78229 0.30441 0.3347 0.0
H1866 H 0.70035 0.26712 0.38495 0.0
H1867 H 0.72092 0.25187 0.39853 0.0
H1868 H 0.70385 0.23939 0.37 0.0
H1869 H 0.76849 0.34095 0.38128 0.0
H1870 H 0.79273 0.33569 0.36522 0.0
H1871 H 0.78962 0.32623 0.39481 0.0
C1872 C 0.45995 0.03746 0.21931 0.0
C1873 C 0.43521 0.0314 0.21416 0.0
C1874 C 0.4746 0.03858 0.20065 0.0
C1875 C 0.46423 0.03319 0.17635 0.0
C1876 C 0.43928 0.0271 0.17104 0.0
C1877 C 0.42507 0.02644 0.19002 0.0
C1878 C 0.50113 0.04544 0.2069 0.0
C1879 C 0.42759 0.02102 0.1453 0.0
C1880 C 0.4954 0.05385 0.12321 0.0
C1881 C 0.50076 0.03286 0.1132 0.0
C1882 C 0.48475 0.05463 0.14468 0.0
C1883 C 0.47927 0.03386 0.15628 0.0
C1884 C 0.4861 0.01305 0.14716 0.0
C1885 C 0.49689 0.01282 0.12571 0.0
C1886 C 0.47799 0.07724 0.15401 0.0
C1887 C 0.4805 0.99055 0.15906 0.0
H1888 H 0.46789 0.04142 0.23795 0.0
H1889 H 0.40598 0.02159 0.18593 0.0
H1890 H 0.5093 0.03089 0.2 0.0
H1891 H 0.50852 0.06121 0.19799 0.0
H1892 H 0.50637 0.04948 0.22671 0.0
H1893 H 0.40797 0.01643 0.14429 0.0
H1894 H 0.43282 0.03619 0.13479 0.0
H1895 H 0.43363 0.0058 0.13643 0.0
H1896 H 0.49862 0.06946 0.11372 0.0
H1897 H 0.50099 0.99654 0.11803 0.0
H1898 H 0.48336 0.08143 0.17376 0.0
H1899 H 0.45847 0.07497 0.15102 0.0
H1900 H 0.48618 0.09251 0.14476 0.0
H1901 H 0.48607 0.99413 0.17881 0.0
H1902 H 0.48928 0.97677 0.15134 0.0
H1903 H 0.46109 0.98339 0.15657 0.0
C1904 C 0.78492 0.69236 0.93861 0.0
C1905 C 0.76183 0.68448 0.94441 0.0
C1906 C 0.78922 0.70577 0.91908 0.0
C1907 C 0.76993 0.71088 0.9047 0.0
C1908 C 0.74658 0.70273 0.91039 0.0
C1909 C 0.74286 0.6899 0.93032 0.0
C1910 C 0.81438 0.71456 0.9139 0.0
C1911 C 0.72544 0.70721 0.89516 0.0
C1912 C 0.77658 0.76049 0.86404 0.0
C1913 C 0.77631 0.74801 0.84127 0.0
C1914 C 0.77565 0.74883 0.88505 0.0
C1915 C 0.77387 0.72402 0.88318 0.0
C1916 C 0.77414 0.71145 0.86032 0.0
C1917 C 0.7756 0.72361 0.83975 0.0
C1918 C 0.77581 0.76292 0.90915 0.0
C1919 C 0.77185 0.68495 0.85741 0.0
H1920 H 0.79966 0.68837 0.94956 0.0
H1921 H 0.72496 0.68373 0.93461 0.0
H1922 H 0.81686 0.70676 0.8957 0.0
H1923 H 0.81815 0.73406 0.91377 0.0
H1924 H 0.82747 0.71004 0.92744 0.0
H1925 H 0.70843 0.69948 0.90188 0.0
H1926 H 0.72683 0.72651 0.89499 0.0
H1927 H 0.72507 0.69951 0.87617 0.0
H1928 H 0.77715 0.77933 0.8654 0.0
H1929 H 0.7751 0.7137 0.82224 0.0
H1930 H 0.78921 0.75894 0.92269 0.0
H1931 H 0.75832 0.75783 0.91593 0.0
H1932 H 0.77968 0.78229 0.90794 0.0
H1933 H 0.78662 0.68027 0.86857 0.0
H1934 H 0.77191 0.67773 0.83832 0.0
H1935 H 0.75514 0.67611 0.86392 0.0
C1936 C 0.83947 0.09452 0.00056 0.0
C1937 C 0.82515 0.08524 0.0178 0.0
C1938 C 0.85832 0.08441 0.99417 0.0
C1939 C 0.86275 0.06453 0.0052 0.0
C1940 C 0.84722 0.05406 0.0212 0.0
C1941 C 0.82867 0.06461 0.02738 0.0
C1942 C 0.8745 0.09605 0.97701 0.0
C1943 C 0.85122 0.03277 0.03325 0.0
C1944 C 0.90942 0.03118 0.98664 0.0
C1945 C 0.92842 0.04153 0.00423 0.0
C1946 C 0.88799 0.03893 0.9861 0.0
C1947 C 0.88566 0.05729 0.00361 0.0
C1948 C 0.90499 0.06808 0.021 0.0
C1949 C 0.92606 0.06011 0.02106 0.0
C1950 C 0.86772 0.02715 0.96723 0.0
C1951 C 0.90328 0.08766 0.04008 0.0
H1952 H 0.8367 0.11035 0.99293 0.0
H1953 H 0.81739 0.05708 0.0404 0.0
H1954 H 0.89137 0.10595 0.98742 0.0
H1955 H 0.87885 0.08259 0.96383 0.0
H1956 H 0.86653 0.10864 0.96695 0.0
H1957 H 0.83579 0.02479 0.04239 0.0
H1958 H 0.85485 0.01907 0.01985 0.0
H1959 H 0.86693 0.03816 0.047 0.0
H1960 H 0.91118 0.01691 0.97352 0.0
H1961 H 0.94064 0.06834 0.03469 0.0
H1962 H 0.86069 0.04065 0.95778 0.0
H1963 H 0.85307 0.01719 0.97611 0.0
H1964 H 0.87303 0.0147 0.9536 0.0
H1965 H 0.89774 0.10238 0.03144 0.0
H1966 H 0.92032 0.09485 0.05163 0.0
H1967 H 0.88966 0.08091 0.05191 0.0
C1968 C 0.35272 0.4198 0.04838 0.0
C1969 C 0.33256 0.42942 0.04561 0.0
C1970 C 0.37531 0.43351 0.04699 0.0
C1971 C 0.37779 0.45732 0.04214 0.0
C1972 C 0.35759 0.46738 0.04 0.0
C1973 C 0.33517 0.45334 0.04203 0.0
C1974 C 0.39645 0.42223 0.0499 0.0
C1975 C 0.3595 0.49258 0.03443 0.0
C1976 C 0.44053 0.49467 0.05268 0.0
C1977 C 0.4482 0.49088 0.02989 0.0
C1978 C 0.41731 0.48453 0.05686 0.0
C1979 C 0.40135 0.47088 0.03757 0.0
C1980 C 0.40871 0.46824 0.01418 0.0
C1981 C 0.43217 0.47796 0.01072 0.0
C1982 C 0.4103 0.48727 0.08215 0.0
C1983 C 0.39211 0.45431 0.993 0.0
H1984 H 0.35081 0.40137 0.05142 0.0
H1985 H 0.31959 0.46079 0.03978 0.0
H1986 H 0.40398 0.42071 0.03242 0.0
H1987 H 0.4105 0.43344 0.06329 0.0
H1988 H 0.39179 0.40428 0.05585 0.0
H1989 H 0.34248 0.49832 0.0352 0.0
H1990 H 0.37328 0.50479 0.04732 0.0
H1991 H 0.36499 0.49425 0.01604 0.0
H1992 H 0.45302 0.50455 0.06753 0.0
H1993 H 0.43809 0.47526 0.99302 0.0
H1994 H 0.40768 0.4699 0.08946 0.0
H1995 H 0.39327 0.49304 0.08198 0.0
H1996 H 0.42394 0.50021 0.09458 0.0
H1997 H 0.38818 0.43527 0.99563 0.0
H1998 H 0.39971 0.45628 0.97556 0.0
H1999 H 0.37506 0.46012 0.99178 0.0
C2000 C 0.35096 0.58541 0.75536 0.0
C2001 C 0.34068 0.56555 0.7388 0.0
C2002 C 0.34042 0.60506 0.75759 0.0
C2003 C 0.31892 0.60462 0.7432 0.0
C2004 C 0.30791 0.58415 0.72733 0.0
C2005 C 0.31903 0.56494 0.72517 0.0
C2006 C 0.35283 0.62667 0.77457 0.0
C2007 C 0.28478 0.58284 0.71201 0.0
C2008 C 0.28557 0.65218 0.76115 0.0
C2009 C 0.2936 0.66928 0.74588 0.0
C2010 C 0.29314 0.63069 0.76008 0.0
C2011 C 0.30902 0.62626 0.74333 0.0
C2012 C 0.31628 0.64302 0.72714 0.0
C2013 C 0.30849 0.66429 0.72862 0.0
C2014 C 0.28486 0.61314 0.77748 0.0
C2015 C 0.33306 0.63893 0.70887 0.0
H2016 H 0.36771 0.58598 0.76592 0.0
H2017 H 0.31086 0.54952 0.71252 0.0
H2018 H 0.35857 0.64169 0.76399 0.0
H2019 H 0.34052 0.63202 0.78696 0.0
H2020 H 0.36861 0.62366 0.78557 0.0
H2021 H 0.2774 0.56487 0.70238 0.0
H2022 H 0.27154 0.58785 0.72341 0.0
H2023 H 0.28751 0.5956 0.69839 0.0
H2024 H 0.27414 0.65595 0.7746 0.0
H2025 H 0.31469 0.67738 0.71669 0.0
H2026 H 0.30006 0.61189 0.79046 0.0
H2027 H 0.27782 0.59527 0.76759 0.0
H2028 H 0.27094 0.61826 0.78788 0.0
H2029 H 0.35036 0.63792 0.71843 0.0
H2030 H 0.33609 0.65322 0.69685 0.0
H2031 H 0.32602 0.62182 0.69749 0.0
C2032 C 0.19036 0.60346 0.51785 0.0
C2033 C 0.209 0.59223 0.52344 0.0
C2034 C 0.16691 0.59062 0.51339 0.0
C2035 C 0.16195 0.56584 0.51423 0.0
C2036 C 0.1806 0.55437 0.5201 0.0
C2037 C 0.20396 0.56775 0.52481 0.0
C2038 C 0.14747 0.60357 0.50744 0.0
C2039 C 0.17594 0.52793 0.52086 0.0
C2040 C 0.09753 0.53879 0.51911 0.0
C2041 C 0.08869 0.53273 0.49466 0.0
C2042 C 0.12166 0.54865 0.52594 0.0
C2043 C 0.13725 0.55208 0.50787 0.0
C2044 C 0.12859 0.5446 0.48328 0.0
C2045 C 0.10436 0.53522 0.47696 0.0
C2046 C 0.1302 0.55666 0.55231 0.0
C2047 C 0.14469 0.54757 0.46351 0.0
H2048 H 0.19407 0.6224 0.51697 0.0
H2049 H 0.21829 0.55896 0.52907 0.0
H2050 H 0.13881 0.59723 0.4888 0.0
H2051 H 0.13369 0.59982 0.51992 0.0
H2052 H 0.15419 0.62302 0.50872 0.0
H2053 H 0.19226 0.52183 0.52663 0.0
H2054 H 0.16265 0.52253 0.53347 0.0
H2055 H 0.16846 0.51874 0.50268 0.0
H2056 H 0.08541 0.53689 0.53283 0.0
H2057 H 0.09759 0.53023 0.45804 0.0
H2058 H 0.13513 0.57628 0.55515 0.0
H2059 H 0.14626 0.55008 0.55782 0.0
H2060 H 0.11648 0.5505 0.56428 0.0
H2061 H 0.15057 0.56665 0.46156 0.0
H2062 H 0.13576 0.5383 0.44576 0.0
H2063 H 0.16076 0.5407 0.46822 0.0
C2064 C 0.68698 0.94723 0.79166 0.0
C2065 C 0.6858 0.95015 0.76697 0.0
C2066 C 0.69944 0.93119 0.80114 0.0
C2067 C 0.71043 0.91747 0.78541 0.0
C2068 C 0.70935 0.92046 0.76049 0.0
C2069 C 0.69726 0.93695 0.75164 0.0
C2070 C 0.70062 0.92874 0.82788 0.0
C2071 C 0.72043 0.90579 0.74301 0.0
C2072 C 0.75792 0.88477 0.80419 0.0
C2073 C 0.7447 0.86146 0.80213 0.0
C2074 C 0.74675 0.90362 0.80064 0.0
C2075 C 0.72192 0.89888 0.7944 0.0
C2076 C 0.70838 0.87559 0.79379 0.0
C2077 C 0.71991 0.85721 0.79793 0.0
C2078 C 0.76166 0.92838 0.80215 0.0
C2079 C 0.6819 0.86968 0.78686 0.0
H2080 H 0.67829 0.95757 0.8036 0.0
H2081 H 0.69632 0.93908 0.73252 0.0
H2082 H 0.69097 0.91083 0.83076 0.0
H2083 H 0.71928 0.93072 0.83564 0.0
H2084 H 0.6928 0.94205 0.83794 0.0
H2085 H 0.71818 0.91048 0.72422 0.0
H2086 H 0.73963 0.90823 0.74881 0.0
H2087 H 0.71232 0.88673 0.74295 0.0
H2088 H 0.77704 0.8882 0.80771 0.0
H2089 H 0.70947 0.83927 0.79643 0.0
H2090 H 0.75338 0.94116 0.81237 0.0
H2091 H 0.76291 0.9337 0.78366 0.0
H2092 H 0.77988 0.92969 0.81098 0.0
H2093 H 0.67335 0.88189 0.79752 0.0
H2094 H 0.67372 0.85122 0.78964 0.0
H2095 H 0.67804 0.87193 0.76749 0.0
C2096 C 0.6871 0.92399 0.53346 0.0
C2097 C 0.70733 0.93613 0.54866 0.0
C2098 C 0.66706 0.93388 0.53014 0.0
C2099 C 0.66741 0.95659 0.54201 0.0
C2100 C 0.68816 0.96931 0.55655 0.0
C2101 C 0.70778 0.95886 0.55984 0.0
C2102 C 0.64519 0.91963 0.51471 0.0
C2103 C 0.6894 0.99367 0.56925 0.0
C2104 C 0.61917 0.98851 0.52159 0.0
C2105 C 0.6031 0.98301 0.53859 0.0
C2106 C 0.64031 0.98021 0.52253 0.0
C2107 C 0.64547 0.96616 0.54091 0.0
C2108 C 0.62952 0.96102 0.55838 0.0
C2109 C 0.60861 0.9695 0.55702 0.0
C2110 C 0.65691 0.98611 0.50363 0.0
C2111 C 0.63439 0.94626 0.57839 0.0
H2112 H 0.68662 0.90643 0.52478 0.0
H2113 H 0.72344 0.96847 0.57141 0.0
H2114 H 0.63066 0.91506 0.52619 0.0
H2115 H 0.6391 0.93023 0.50087 0.0
H2116 H 0.64826 0.90299 0.50543 0.0
H2117 H 0.70748 0.00207 0.57808 0.0
H2118 H 0.68385 0.00533 0.55623 0.0
H2119 H 0.677 0.99246 0.58329 0.0
H2120 H 0.61499 0.99883 0.50724 0.0
H2121 H 0.59638 0.96525 0.57032 0.0
H2122 H 0.6585 0.9696 0.4929 0.0
H2123 H 0.67486 0.99484 0.51246 0.0
H2124 H 0.65078 0.99792 0.49107 0.0
H2125 H 0.63681 0.9288 0.57058 0.0
H2126 H 0.61986 0.9433 0.59013 0.0
H2127 H 0.65104 0.95513 0.58982 0.0
C2128 C 0.33739 0.42917 0.72261 0.0
C2129 C 0.34875 0.44349 0.7436 0.0
C2130 C 0.32487 0.40598 0.72384 0.0
C2131 C 0.32302 0.39742 0.7467 0.0
C2132 C 0.33341 0.41241 0.76803 0.0
C2133 C 0.3466 0.43513 0.76617 0.0
C2134 C 0.31476 0.39025 0.70067 0.0
C2135 C 0.33118 0.40422 0.79279 0.0
C2136 C 0.27817 0.34088 0.75225 0.0
C2137 C 0.29288 0.32471 0.75437 0.0
C2138 C 0.28766 0.3647 0.74965 0.0
C2139 C 0.31226 0.37218 0.74833 0.0
C2140 C 0.32702 0.35572 0.74971 0.0
C2141 C 0.31724 0.33236 0.75327 0.0
C2142 C 0.27153 0.38196 0.74909 0.0
C2143 C 0.35325 0.3628 0.74772 0.0
H2144 H 0.33925 0.43575 0.70517 0.0
H2145 H 0.35526 0.44642 0.78239 0.0
H2146 H 0.32423 0.37558 0.69858 0.0
H2147 H 0.29583 0.38215 0.70129 0.0
H2148 H 0.31641 0.40003 0.68451 0.0
H2149 H 0.33766 0.41895 0.80753 0.0
H2150 H 0.31246 0.39612 0.79455 0.0
H2151 H 0.34159 0.39047 0.79527 0.0
H2152 H 0.25937 0.3351 0.75336 0.0
H2153 H 0.32876 0.32005 0.75511 0.0
H2154 H 0.27291 0.3911 0.73253 0.0
H2155 H 0.2771 0.39575 0.76482 0.0
H2156 H 0.25272 0.37319 0.74965 0.0
H2157 H 0.35635 0.372 0.73137 0.0
H2158 H 0.36175 0.34734 0.74673 0.0
H2159 H 0.36211 0.37533 0.76364 0.0
C2160 C 0.18811 0.5733 0.24034 0.0
C2161 C 0.17713 0.56455 0.25999 0.0
C2162 C 0.19901 0.59731 0.24123 0.0
C2163 C 0.19938 0.61266 0.26249 0.0
C2164 C 0.18933 0.60363 0.2828 0.0
C2165 C 0.17801 0.57971 0.28117 0.0
C2166 C 0.20912 0.60644 0.21908 0.0
C2167 C 0.18995 0.61937 0.30602 0.0
C2168 C 0.24083 0.67313 0.27385 0.0
C2169 C 0.22494 0.68783 0.26984 0.0
C2170 C 0.23293 0.64845 0.27092 0.0
C2171 C 0.20875 0.63847 0.26312 0.0
C2172 C 0.19299 0.65334 0.25767 0.0
C2173 C 0.20122 0.67793 0.26153 0.0
C2174 C 0.2501 0.6332 0.27752 0.0
C2175 C 0.16724 0.64332 0.24865 0.0
H2176 H 0.18731 0.56158 0.22389 0.0
H2177 H 0.16972 0.57288 0.29646 0.0
H2178 H 0.19873 0.61879 0.21185 0.0
H2179 H 0.22763 0.61653 0.22384 0.0
H2180 H 0.20881 0.59195 0.20457 0.0
H2181 H 0.18335 0.60915 0.32081 0.0
H2182 H 0.20828 0.62945 0.31205 0.0
H2183 H 0.17885 0.63243 0.30291 0.0
H2184 H 0.25915 0.68095 0.28058 0.0
H2185 H 0.18905 0.68945 0.25832 0.0
H2186 H 0.24908 0.61869 0.26287 0.0
H2187 H 0.24529 0.62488 0.29401 0.0
H2188 H 0.26865 0.64353 0.28111 0.0
H2189 H 0.16558 0.62938 0.23325 0.0
H2190 H 0.15805 0.65714 0.24274 0.0
H2191 H 0.15805 0.63497 0.26326 0.0
C2192 C 0.49948 0.67429 0.44196 0.0
C2193 C 0.51795 0.69404 0.44952 0.0
C2194 C 0.49729 0.65377 0.45383 0.0
C2195 C 0.51386 0.65302 0.47383 0.0
C2196 C 0.5322 0.67309 0.48189 0.0
C2197 C 0.53408 0.69331 0.46959 0.0
C2198 C 0.4775 0.63269 0.44464 0.0
C2199 C 0.55003 0.6731 0.50332 0.0
C2200 C 0.49487 0.60507 0.51441 0.0
C2201 C 0.50583 0.58723 0.50545 0.0
C2202 C 0.498 0.62692 0.50491 0.0
C2203 C 0.5123 0.63098 0.48585 0.0
C2204 C 0.52423 0.61344 0.47745 0.0
C2205 C 0.52096 0.59184 0.48744 0.0
C2206 C 0.48521 0.64526 0.51459 0.0
C2207 C 0.53958 0.61704 0.45711 0.0
H2208 H 0.48696 0.67469 0.42647 0.0
H2209 H 0.54836 0.70852 0.47564 0.0
H2210 H 0.48501 0.61732 0.43877 0.0
H2211 H 0.46657 0.62756 0.45937 0.0
H2212 H 0.46582 0.63626 0.42918 0.0
H2213 H 0.56261 0.69048 0.50796 0.0
H2214 H 0.5408 0.66861 0.51936 0.0
H2215 H 0.56027 0.65936 0.49937 0.0
H2216 H 0.48316 0.6017 0.52834 0.0
H2217 H 0.52947 0.57817 0.48034 0.0
H2218 H 0.47135 0.64743 0.50047 0.0
H2219 H 0.49768 0.66269 0.51917 0.0
H2220 H 0.47666 0.64032 0.53093 0.0
H2221 H 0.52854 0.61861 0.4403 0.0
H2222 H 0.54862 0.60222 0.45353 0.0
H2223 H 0.55317 0.63375 0.46139 0.0
C2224 C 0.62627 0.29357 0.67915 0.0
C2225 C 0.60528 0.28867 0.69014 0.0
C2226 C 0.64822 0.2937 0.69204 0.0
C2227 C 0.64915 0.28879 0.71644 0.0
C2228 C 0.62831 0.28568 0.72814 0.0
C2229 C 0.60664 0.28573 0.71487 0.0
C2230 C 0.67013 0.29738 0.67899 0.0
C2231 C 0.62853 0.28037 0.75411 0.0
C2232 C 0.69569 0.25514 0.73552 0.0
C2233 C 0.71307 0.27287 0.74934 0.0
C2234 C 0.67463 0.26007 0.72524 0.0
C2235 C 0.67101 0.28344 0.72852 0.0
C2236 C 0.6883 0.30137 0.7429 0.0
C2237 C 0.70912 0.29581 0.75337 0.0
C2238 C 0.65648 0.2403 0.71041 0.0
C2239 C 0.68518 0.32654 0.74648 0.0
H2240 H 0.62546 0.29605 0.66012 0.0
H2241 H 0.59059 0.28217 0.72363 0.0
H2242 H 0.68508 0.30977 0.69031 0.0
H2243 H 0.67552 0.28026 0.67548 0.0
H2244 H 0.66715 0.3044 0.6614 0.0
H2245 H 0.61167 0.28166 0.7615 0.0
H2246 H 0.63128 0.26215 0.75524 0.0
H2247 H 0.64333 0.29265 0.76571 0.0
H2248 H 0.69869 0.23735 0.73249 0.0
H2249 H 0.72271 0.30959 0.76382 0.0
H2250 H 0.65433 0.2442 0.69136 0.0
H2251 H 0.63902 0.23892 0.71737 0.0
H2252 H 0.66153 0.2229 0.71066 0.0
H2253 H 0.68503 0.33393 0.72886 0.0
H2254 H 0.69954 0.33807 0.75936 0.0
H2255 H 0.66793 0.32708 0.75328 0.0
C2256 C 0.02079 0.33022 0.94709 0.0
C2257 C 0.00043 0.31309 0.94926 0.0
C2258 C 0.02434 0.35327 0.95891 0.0
C2259 C 0.00701 0.35939 0.97307 0.0
C2260 C 0.98642 0.34219 0.9753 0.0
C2261 C 0.98343 0.31924 0.96347 0.0
C2262 C 0.04664 0.37109 0.95627 0.0
C2263 C 0.96748 0.34807 0.99009 0.0
C2264 C 0.02689 0.41274 0.02049 0.0
C2265 C 0.01994 0.43073 0.00837 0.0
C2266 C 0.0224 0.38937 0.00939 0.0
C2267 C 0.01054 0.38379 0.98563 0.0
C2268 C 0.00269 0.40167 0.97364 0.0
C2269 C 0.0075 0.42494 0.98514 0.0
C2270 C 0.03101 0.3708 0.0228 0.0
C2271 C 0.98979 0.39636 0.94838 0.0
H2272 H 0.03401 0.32561 0.93618 0.0
H2273 H 0.96758 0.30615 0.96516 0.0
H2274 H 0.04204 0.38651 0.94817 0.0
H2275 H 0.05655 0.37778 0.97433 0.0
H2276 H 0.05845 0.3635 0.94476 0.0
H2277 H 0.95244 0.33271 0.9899 0.0
H2278 H 0.9751 0.35408 0.00912 0.0
H2279 H 0.96059 0.36284 0.983 0.0
H2280 H 0.03649 0.41702 0.03845 0.0
H2281 H 0.00201 0.4387 0.97565 0.0
H2282 H 0.04444 0.36404 0.01297 0.0
H2283 H 0.01616 0.35554 0.02359 0.0
H2284 H 0.03902 0.37778 0.04155 0.0
H2285 H 0.00162 0.39073 0.93558 0.0
H2286 H 0.98373 0.41192 0.94208 0.0
H2287 H 0.97419 0.38152 0.94768 0.0
C2288 C 0.94621 0.7415 0.19638 0.0
C2289 C 0.96118 0.76206 0.19085 0.0
C2290 C 0.92487 0.74243 0.20589 0.0
C2291 C 0.91867 0.76456 0.21065 0.0
C2292 C 0.93401 0.78548 0.20563 0.0
C2293 C 0.95494 0.78393 0.19542 0.0
C2294 C 0.90866 0.71966 0.21025 0.0
C2295 C 0.92826 0.80945 0.21097 0.0
C2296 C 0.85389 0.76609 0.212 0.0
C2297 C 0.85173 0.76726 0.23684 0.0
C2298 C 0.87549 0.76489 0.20325 0.0
C2299 C 0.89563 0.76565 0.21983 0.0
C2300 C 0.8936 0.76706 0.245 0.0
C2301 C 0.8715 0.76745 0.25321 0.0
C2302 C 0.87668 0.76258 0.17626 0.0
C2303 C 0.91481 0.76845 0.26322 0.0
H2304 H 0.95092 0.72454 0.19268 0.0
H2305 H 0.96659 0.79986 0.19132 0.0
H2306 H 0.90526 0.72029 0.22949 0.0
H2307 H 0.89133 0.71742 0.19919 0.0
H2308 H 0.91613 0.70392 0.20565 0.0
H2309 H 0.94277 0.8241 0.20756 0.0
H2310 H 0.91191 0.8104 0.19955 0.0
H2311 H 0.92481 0.81217 0.23013 0.0
H2312 H 0.83849 0.76567 0.19931 0.0
H2313 H 0.86981 0.7685 0.27243 0.0
H2314 H 0.88338 0.74661 0.17064 0.0
H2315 H 0.88925 0.77809 0.17135 0.0
H2316 H 0.85916 0.76126 0.16581 0.0
H2317 H 0.92205 0.75234 0.26023 0.0
H2318 H 0.91043 0.77025 0.28216 0.0
H2319 H 0.92901 0.78381 0.26083 0.0
C2320 C 0.53204 0.32354 0.09014 0.0
C2321 C 0.51168 0.30894 0.09657 0.0
C2322 C 0.53101 0.34491 0.08074 0.0
C2323 C 0.50897 0.35153 0.07708 0.0
C2324 C 0.48824 0.33656 0.083 0.0
C2325 C 0.4899 0.31558 0.09302 0.0
C2326 C 0.55362 0.36069 0.07533 0.0
C2327 C 0.46434 0.3428 0.07888 0.0
C2328 C 0.50836 0.41656 0.07653 0.0
C2329 C 0.50615 0.41874 0.0517 0.0
C2330 C 0.50962 0.39486 0.085 0.0
C2331 C 0.50784 0.37466 0.06818 0.0
C2332 C 0.50535 0.37672 0.04302 0.0
C2333 C 0.50495 0.39891 0.03505 0.0
C2334 C 0.51312 0.39364 0.11195 0.0
C2335 C 0.50283 0.35545 0.02457 0.0
H2336 H 0.54895 0.31854 0.09303 0.0
H2337 H 0.4741 0.30423 0.09781 0.0
H2338 H 0.55215 0.36413 0.05611 0.0
H2339 H 0.55665 0.37805 0.08652 0.0
H2340 H 0.56929 0.35286 0.07901 0.0
H2341 H 0.44975 0.32851 0.08286 0.0
H2342 H 0.46415 0.35922 0.09057 0.0
H2343 H 0.46087 0.34632 0.05984 0.0
H2344 H 0.50958 0.43202 0.08941 0.0
H2345 H 0.50312 0.40065 0.01585 0.0
H2346 H 0.52913 0.38666 0.11669 0.0
H2347 H 0.49782 0.38128 0.11752 0.0
H2348 H 0.51511 0.4112 0.12256 0.0
H2349 H 0.51881 0.34788 0.02667 0.0
H2350 H 0.50025 0.35988 0.00572 0.0
H2351 H 0.48751 0.34149 0.0276 0.0
C2352 C 0.942 0.28072 0.3609 0.0
C2353 C 0.95624 0.26566 0.3525 0.0
C2354 C 0.91913 0.27918 0.34955 0.0
C2355 C 0.91019 0.26202 0.32944 0.0
C2356 C 0.92503 0.24786 0.31986 0.0
C2357 C 0.94796 0.24992 0.33147 0.0
C2358 C 0.90397 0.29479 0.36016 0.0
C2359 C 0.91613 0.22933 0.29847 0.0
C2360 C 0.84463 0.23519 0.32504 0.0
C2361 C 0.83531 0.24631 0.30636 0.0
C2362 C 0.86896 0.23997 0.33238 0.0
C2363 C 0.88446 0.2565 0.32093 0.0
C2364 C 0.87526 0.26787 0.30205 0.0
C2365 C 0.85073 0.26255 0.29488 0.0
C2366 C 0.87805 0.22731 0.35248 0.0
C2367 C 0.89129 0.28572 0.2896 0.0
H2368 H 0.94839 0.29319 0.37693 0.0
H2369 H 0.95889 0.2383 0.32479 0.0
H2370 H 0.89476 0.30254 0.34568 0.0
H2371 H 0.89018 0.28401 0.36946 0.0
H2372 H 0.9145 0.30939 0.37347 0.0
H2373 H 0.93071 0.22223 0.29112 0.0
H2374 H 0.90327 0.21443 0.30409 0.0
H2375 H 0.90674 0.23669 0.28382 0.0
H2376 H 0.83289 0.22248 0.3339 0.0
H2377 H 0.84362 0.27117 0.2804 0.0
H2378 H 0.88704 0.24036 0.36797 0.0
H2379 H 0.89129 0.2176 0.34611 0.0
H2380 H 0.86367 0.21451 0.35906 0.0
H2381 H 0.90069 0.30078 0.30297 0.0
H2382 H 0.88141 0.29267 0.27494 0.0
H2383 H 0.90498 0.27757 0.28176 0.0
C2384 C 0.98204 0.66039 0.58848 0.0
C2385 C 0.99256 0.68245 0.58166 0.0
C2386 C 0.98312 0.63931 0.57474 0.0
C2387 C 0.99477 0.64034 0.55355 0.0
C2388 C 0.00358 0.6625 0.54545 0.0
C2389 C 0.00245 0.68333 0.55967 0.0
C2390 C 0.97352 0.616 0.58401 0.0
C2391 C 0.01583 0.6643 0.52278 0.0
C2392 C 0.02658 0.59062 0.54215 0.0
C2393 C 0.01037 0.57483 0.52498 0.0
C2394 C 0.02199 0.61233 0.55094 0.0
C2395 C 0.00079 0.6186 0.54213 0.0
C2396 C 0.98497 0.60341 0.52377 0.0
C2397 C 0.98993 0.5816 0.51542 0.0
C2398 C 0.03935 0.62803 0.57054 0.0
C2399 C 0.96232 0.60966 0.5138 0.0
H2400 H 0.9742 0.6595 0.60534 0.0
H2401 H 0.01038 0.7003 0.5541 0.0
H2402 H 0.96275 0.60318 0.56923 0.0
H2403 H 0.98846 0.60829 0.59083 0.0
H2404 H 0.96247 0.61804 0.59897 0.0
H2405 H 0.01808 0.68227 0.51682 0.0
H2406 H 0.0336 0.66027 0.52625 0.0
H2407 H 0.00575 0.6512 0.50783 0.0
H2408 H 0.04252 0.58561 0.54947 0.0
H2409 H 0.97734 0.5695 0.50212 0.0
H2410 H 0.03083 0.62948 0.58745 0.0
H2411 H 0.04461 0.64613 0.56521 0.0
H2412 H 0.05557 0.62113 0.57448 0.0
H2413 H 0.94994 0.60869 0.52784 0.0
H2414 H 0.95348 0.5975 0.49756 0.0
H2415 H 0.96585 0.62806 0.50898 0.0
C2416 C 0.58454 0.75148 0.83909 0.0
C2417 C 0.59164 0.7611 0.86324 0.0
C2418 C 0.60109 0.74605 0.82391 0.0
C2419 C 0.62534 0.75106 0.83295 0.0
C2420 C 0.63253 0.76044 0.85745 0.0
C2421 C 0.61553 0.76503 0.87239 0.0
C2422 C 0.5927 0.73536 0.79814 0.0
C2423 C 0.65831 0.76643 0.86767 0.0
C2424 C 0.67445 0.72829 0.80511 0.0
C2425 C 0.68529 0.74817 0.7946 0.0
C2426 C 0.65345 0.72802 0.81582 0.0
C2427 C 0.64359 0.74836 0.81658 0.0
C2428 C 0.65336 0.76763 0.80422 0.0
C2429 C 0.67384 0.76709 0.793 0.0
C2430 C 0.6429 0.70671 0.82789 0.0
C2431 C 0.64367 0.78985 0.8049 0.0
H2432 H 0.566 0.7481 0.83207 0.0
H2433 H 0.62104 0.77247 0.89105 0.0
H2434 H 0.59894 0.74835 0.78551 0.0
H2435 H 0.60026 0.71965 0.7938 0.0
H2436 H 0.5731 0.72998 0.79479 0.0
H2437 H 0.6609 0.77347 0.88712 0.0
H2438 H 0.66593 0.75048 0.86564 0.0
H2439 H 0.66843 0.77985 0.85745 0.0
H2440 H 0.68302 0.71347 0.80614 0.0
H2441 H 0.68195 0.78252 0.78479 0.0
H2442 H 0.62329 0.70263 0.82451 0.0
H2443 H 0.64781 0.7105 0.84773 0.0
H2444 H 0.64943 0.69085 0.82144 0.0
H2445 H 0.62425 0.78548 0.79992 0.0
H2446 H 0.65189 0.80227 0.79253 0.0
H2447 H 0.64714 0.79907 0.82359 0.0
C2448 C 0.42747 0.53335 0.66624 0.0
C2449 C 0.43368 0.52081 0.68525 0.0
C2450 C 0.43965 0.53436 0.64565 0.0
C2451 C 0.45825 0.52218 0.64381 0.0
C2452 C 0.46516 0.51018 0.66328 0.0
C2453 C 0.45292 0.50981 0.68387 0.0
C2454 C 0.432 0.54769 0.62546 0.0
C2455 C 0.48467 0.49672 0.66187 0.0
C2456 C 0.46799 0.50059 0.58012 0.0
C2457 C 0.48838 0.51688 0.57624 0.0
C2458 C 0.4583 0.50194 0.60215 0.0
C2459 C 0.469 0.5203 0.62069 0.0
C2460 C 0.48957 0.53687 0.6169 0.0
C2461 C 0.49916 0.53483 0.59477 0.0
C2462 C 0.43656 0.4837 0.60556 0.0
C2463 C 0.50122 0.55691 0.63609 0.0
H2464 H 0.41276 0.54209 0.66726 0.0
H2465 H 0.45779 0.50002 0.69843 0.0
H2466 H 0.44755 0.5598 0.61998 0.0
H2467 H 0.42385 0.53503 0.60938 0.0
H2468 H 0.41895 0.5582 0.63071 0.0
H2469 H 0.4891 0.48979 0.6792 0.0
H2470 H 0.47914 0.48158 0.64747 0.0
H2471 H 0.50089 0.50821 0.65694 0.0
H2472 H 0.45966 0.48655 0.56595 0.0
H2473 H 0.51485 0.54754 0.59182 0.0
H2474 H 0.42169 0.49247 0.60862 0.0
H2475 H 0.44006 0.47475 0.62181 0.0
H2476 H 0.43091 0.47005 0.58969 0.0
H2477 H 0.48848 0.5681 0.64032 0.0
H2478 H 0.51718 0.56823 0.63039 0.0
H2479 H 0.50642 0.54979 0.65304 0.0
C2480 C 0.79386 0.18514 0.9539 0.0
C2481 C 0.7723 0.18143 0.96382 0.0
C2482 C 0.79653 0.19676 0.93305 0.0
C2483 C 0.77694 0.20409 0.92158 0.0
C2484 C 0.75512 0.20025 0.93151 0.0
C2485 C 0.75317 0.18926 0.95274 0.0
C2486 C 0.82022 0.20106 0.92321 0.0
C2487 C 0.73362 0.20709 0.91933 0.0
C2488 C 0.78543 0.24861 0.87566 0.0
C2489 C 0.78177 0.23352 0.85406 0.0
C2490 C 0.78442 0.23929 0.89797 0.0
C2491 C 0.77879 0.21441 0.89835 0.0
C2492 C 0.77446 0.1992 0.87641 0.0
C2493 C 0.77642 0.20898 0.85454 0.0
C2494 C 0.7897 0.25596 0.92109 0.0
C2495 C 0.76757 0.17262 0.87599 0.0
H2496 H 0.8087 0.17926 0.96264 0.0
H2497 H 0.73644 0.18624 0.96035 0.0
H2498 H 0.81866 0.19075 0.90521 0.0
H2499 H 0.82599 0.22003 0.9207 0.0
H2500 H 0.83412 0.19597 0.93531 0.0
H2501 H 0.71805 0.20315 0.92961 0.0
H2502 H 0.73758 0.22625 0.91724 0.0
H2503 H 0.72886 0.19738 0.90091 0.0
H2504 H 0.78972 0.2676 0.8751 0.0
H2505 H 0.77334 0.19738 0.83768 0.0
H2506 H 0.80453 0.2519 0.93272 0.0
H2507 H 0.7741 0.2535 0.93138 0.0
H2508 H 0.79448 0.2748 0.91767 0.0
H2509 H 0.78199 0.1661 0.88575 0.0
H2510 H 0.76385 0.16341 0.85728 0.0
H2511 H 0.75159 0.16767 0.88545 0.0
C2512 C 0.06506 0.48201 0.19503 0.0
C2513 C 0.08721 0.4763 0.19329 0.0
C2514 C 0.04988 0.4826 0.17423 0.0
C2515 C 0.05702 0.47726 0.15123 0.0
C2516 C 0.07819 0.46908 0.14942 0.0
C2517 C 0.09309 0.46873 0.17053 0.0
C2518 C 0.02736 0.49119 0.17691 0.0
C2519 C 0.08624 0.46289 0.12516 0.0
C2520 C 0.0172 0.47568 0.09293 0.0
C2521 C 0.02646 0.49801 0.08604 0.0
C2522 C 0.02645 0.46871 0.11457 0.0
C2523 C 0.0451 0.48461 0.12952 0.0
C2524 C 0.0535 0.50764 0.12316 0.0
C2525 C 0.04414 0.51399 0.10144 0.0
C2526 C 0.01715 0.444 0.12075 0.0
C2527 C 0.07311 0.5253 0.13879 0.0
H2528 H 0.06014 0.48748 0.21257 0.0
H2529 H 0.11 0.46394 0.16903 0.0
H2530 H 0.03002 0.50987 0.17294 0.0
H2531 H 0.01258 0.48066 0.16387 0.0
H2532 H 0.02216 0.49033 0.19552 0.0
H2533 H 0.10062 0.45298 0.12678 0.0
H2534 H 0.07127 0.45214 0.11249 0.0
H2535 H 0.09297 0.4794 0.1171 0.0
H2536 H 0.00366 0.46326 0.08085 0.0
H2537 H 0.05113 0.53135 0.09615 0.0
H2538 H 0.01399 0.44429 0.14005 0.0
H2539 H 0.03056 0.43323 0.11794 0.0
H2540 H 0.00046 0.43516 0.10932 0.0
H2541 H 0.06857 0.52759 0.1576 0.0
H2542 H 0.07657 0.5429 0.13192 0.0
H2543 H 0.08969 0.51864 0.13943 0.0
C2544 C 0.77754 0.82748 0.46616 0.0
C2545 C 0.76063 0.83913 0.47497 0.0
C2546 C 0.77643 0.81969 0.44146 0.0
C2547 C 0.75767 0.82317 0.42516 0.0
C2548 C 0.74006 0.83416 0.43406 0.0
C2549 C 0.74189 0.84225 0.45883 0.0
C2550 C 0.79581 0.80848 0.43268 0.0
C2551 C 0.71949 0.83773 0.41735 0.0
C2552 C 0.76594 0.82628 0.35865 0.0
C2553 C 0.75495 0.8033 0.34841 0.0
C2554 C 0.76747 0.8328 0.38368 0.0
C2555 C 0.75701 0.81613 0.39871 0.0
C2556 C 0.74592 0.79284 0.38841 0.0
C2557 C 0.74535 0.7866 0.36341 0.0
C2558 C 0.78008 0.85758 0.39401 0.0
C2559 C 0.73404 0.77475 0.40367 0.0
H2560 H 0.79219 0.82514 0.47847 0.0
H2561 H 0.72874 0.85119 0.46551 0.0
H2562 H 0.78814 0.79074 0.42275 0.0
H2563 H 0.80526 0.81944 0.41984 0.0
H2564 H 0.8089 0.80656 0.44774 0.0
H2565 H 0.7064 0.84497 0.42732 0.0
H2566 H 0.72604 0.85012 0.40427 0.0
H2567 H 0.71038 0.82069 0.40672 0.0
H2568 H 0.77338 0.83919 0.34703 0.0
H2569 H 0.73651 0.76891 0.35545 0.0
H2570 H 0.79405 0.85692 0.4087 0.0
H2571 H 0.76741 0.86704 0.40205 0.0
H2572 H 0.78838 0.86797 0.38009 0.0
H2573 H 0.74695 0.77203 0.41845 0.0
H2574 H 0.72622 0.75741 0.39291 0.0
H2575 H 0.7198 0.78131 0.41227 0.0
C2576 C 0.46156 0.51675 0.8271 0.0
C2577 C 0.4389 0.52028 0.82005 0.0
C2578 C 0.47045 0.51915 0.85165 0.0
C2579 C 0.45599 0.5244 0.86957 0.0
C2580 C 0.43316 0.5282 0.86251 0.0
C2581 C 0.42503 0.52646 0.8378 0.0
C2582 C 0.49518 0.51578 0.85842 0.0
C2583 C 0.41698 0.53329 0.88105 0.0
C2584 C 0.46851 0.50654 0.9326 0.0
C2585 C 0.47852 0.52851 0.94575 0.0
C2586 C 0.46112 0.5049 0.9077 0.0
C2587 C 0.46458 0.52566 0.89572 0.0
C2588 C 0.47561 0.54776 0.90893 0.0
C2589 C 0.48206 0.54895 0.9339 0.0
C2590 C 0.4489 0.48112 0.89439 0.0
C2591 C 0.48034 0.57017 0.89679 0.0
H2592 H 0.47233 0.51201 0.81338 0.0
H2593 H 0.40737 0.52888 0.83239 0.0
H2594 H 0.50555 0.53128 0.87068 0.0
H2595 H 0.49443 0.50001 0.86835 0.0
H2596 H 0.50472 0.5134 0.84232 0.0
H2597 H 0.39968 0.53561 0.87258 0.0
H2598 H 0.41371 0.51854 0.89246 0.0
H2599 H 0.4255 0.54956 0.89322 0.0
H2600 H 0.46563 0.49084 0.94198 0.0
H2601 H 0.48994 0.56592 0.94424 0.0
H2602 H 0.45856 0.47668 0.87899 0.0
H2603 H 0.43077 0.4818 0.88677 0.0
H2604 H 0.44761 0.46672 0.9063 0.0
H2605 H 0.4902 0.56771 0.88098 0.0
H2606 H 0.49067 0.58556 0.90928 0.0
H2607 H 0.46334 0.57436 0.88992 0.0
C2608 C 0.78894 0.20357 0.09356 0.0
C2609 C 0.79282 0.18054 0.09378 0.0
C2610 C 0.78902 0.21786 0.11515 0.0
C2611 C 0.79331 0.20897 0.13747 0.0
C2612 C 0.7997 0.18677 0.13783 0.0
C2613 C 0.79928 0.17273 0.11592 0.0
C2614 C 0.78221 0.24146 0.11397 0.0
C2615 C 0.80493 0.17691 0.16131 0.0
C2616 C 0.79701 0.24878 0.19624 0.0
C2617 C 0.77418 0.24127 0.20279 0.0
C2618 C 0.80368 0.23848 0.17494 0.0
C2619 C 0.7869 0.22071 0.15982 0.0
C2620 C 0.76357 0.21378 0.16603 0.0
C2621 C 0.75759 0.22397 0.18757 0.0
C2622 C 0.82881 0.24593 0.1691 0.0
C2623 C 0.74499 0.19524 0.15013 0.0
H2624 H 0.78435 0.20998 0.07652 0.0
H2625 H 0.80266 0.1551 0.11626 0.0
H2626 H 0.76376 0.23989 0.1184 0.0
H2627 H 0.79376 0.25521 0.12742 0.0
H2628 H 0.78327 0.24748 0.09571 0.0
H2629 H 0.81432 0.16222 0.15869 0.0
H2630 H 0.81583 0.19088 0.175 0.0
H2631 H 0.78807 0.17 0.16867 0.0
H2632 H 0.80992 0.26192 0.20827 0.0
H2633 H 0.73991 0.21825 0.19268 0.0
H2634 H 0.82905 0.25067 0.15032 0.0
H2635 H 0.83776 0.2309 0.17026 0.0
H2636 H 0.83914 0.26123 0.18169 0.0
H2637 H 0.74309 0.20033 0.1315 0.0
H2638 H 0.72742 0.19269 0.15706 0.0
H2639 H 0.75051 0.17805 0.14897 0.0
C2640 C 0.09779 0.48809 0.34289 0.0
C2641 C 0.08691 0.48931 0.31981 0.0
C2642 C 0.08439 0.48561 0.36255 0.0
C2643 C 0.05954 0.48342 0.35865 0.0
C2644 C 0.04841 0.48332 0.33504 0.0
C2645 C 0.06233 0.48675 0.31596 0.0
C2646 C 0.09693 0.4865 0.38763 0.0
C2647 C 0.02191 0.48028 0.33006 0.0
C2648 C 0.02507 0.46173 0.40968 0.0
C2649 C 0.02203 0.48308 0.42142 0.0
C2650 C 0.03646 0.46141 0.3886 0.0
C2651 C 0.04544 0.48301 0.37949 0.0
C2652 C 0.04161 0.50449 0.39074 0.0
C2653 C 0.02957 0.50421 0.41135 0.0
C2654 C 0.03958 0.43809 0.37661 0.0
C2655 C 0.0513 0.52795 0.3818 0.0
H2656 H 0.11685 0.49028 0.34575 0.0
H2657 H 0.054 0.48753 0.29795 0.0
H2658 H 0.09443 0.50219 0.39915 0.0
H2659 H 0.08922 0.47062 0.3962 0.0
H2660 H 0.11622 0.48753 0.38747 0.0
H2661 H 0.01585 0.47802 0.31038 0.0
H2662 H 0.01274 0.46467 0.33818 0.0
H2663 H 0.01645 0.49601 0.33854 0.0
H2664 H 0.01916 0.44533 0.41735 0.0
H2665 H 0.02731 0.52078 0.42035 0.0
H2666 H 0.05861 0.43751 0.37849 0.0
H2667 H 0.03353 0.43621 0.35697 0.0
H2668 H 0.02967 0.42275 0.38464 0.0
H2669 H 0.07089 0.5311 0.38296 0.0
H2670 H 0.04647 0.54301 0.39242 0.0
H2671 H 0.04459 0.52771 0.36253 0.0
C2672 C 0.77598 0.85648 0.62905 0.0
C2673 C 0.75647 0.85206 0.61137 0.0
C2674 C 0.77539 0.84443 0.64974 0.0
C2675 C 0.75451 0.82805 0.6531 0.0
C2676 C 0.73455 0.82393 0.63542 0.0
C2677 C 0.73591 0.83575 0.61452 0.0
C2678 C 0.79726 0.84893 0.66777 0.0
C2679 C 0.71177 0.80713 0.63865 0.0
C2680 C 0.76104 0.78158 0.6956 0.0
C2681 C 0.757 0.79268 0.71769 0.0
C2682 C 0.76007 0.79278 0.67437 0.0
C2683 C 0.75385 0.81513 0.67503 0.0
C2684 C 0.74842 0.82577 0.69704 0.0
C2685 C 0.75052 0.81463 0.71819 0.0
C2686 C 0.76675 0.78116 0.6515 0.0
C2687 C 0.74088 0.84915 0.69841 0.0
H2688 H 0.79191 0.86903 0.6264 0.0
H2689 H 0.72085 0.83243 0.60074 0.0
H2690 H 0.79334 0.85603 0.68569 0.0
H2691 H 0.80285 0.83206 0.67009 0.0
H2692 H 0.81227 0.86167 0.6621 0.0
H2693 H 0.69753 0.80677 0.62385 0.0
H2694 H 0.71478 0.78896 0.63919 0.0
H2695 H 0.70561 0.81234 0.65617 0.0
H2696 H 0.7659 0.76457 0.69507 0.0
H2697 H 0.74708 0.82314 0.73519 0.0
H2698 H 0.78252 0.79272 0.64575 0.0
H2699 H 0.75218 0.77884 0.63663 0.0
H2700 H 0.77083 0.76361 0.6539 0.0
H2701 H 0.75588 0.86344 0.69542 0.0
H2702 H 0.73488 0.85378 0.7162 0.0
H2703 H 0.72629 0.84862 0.68395 0.0
C2704 C 0.68254 0.43789 0.52356 0.0
C2705 C 0.70179 0.44302 0.54166 0.0
C2706 C 0.66496 0.45121 0.52349 0.0
C2707 C 0.66683 0.47024 0.54182 0.0
C2708 C 0.68648 0.47581 0.55984 0.0
C2709 C 0.70366 0.46206 0.55961 0.0
C2710 C 0.64413 0.44461 0.50408 0.0
C2711 C 0.6892 0.49611 0.57952 0.0
C2712 C 0.62886 0.51436 0.52818 0.0
C2713 C 0.60904 0.50612 0.54009 0.0
C2714 C 0.6483 0.50346 0.52939 0.0
C2715 C 0.64773 0.48371 0.54258 0.0
C2716 C 0.62827 0.47601 0.55555 0.0
C2717 C 0.60927 0.48744 0.55432 0.0
C2718 C 0.66895 0.51241 0.51568 0.0
C2719 C 0.62692 0.45492 0.5697 0.0
H2720 H 0.68097 0.4232 0.50966 0.0
H2721 H 0.71857 0.46623 0.57359 0.0
H2722 H 0.62749 0.43961 0.5125 0.0
H2723 H 0.64273 0.46003 0.49415 0.0
H2724 H 0.64553 0.42962 0.49087 0.0
H2725 H 0.7061 0.49884 0.5915 0.0
H2726 H 0.6885 0.51271 0.5714 0.0
H2727 H 0.67433 0.49271 0.59075 0.0
H2728 H 0.62887 0.52881 0.51722 0.0
H2729 H 0.59404 0.48089 0.56358 0.0
H2730 H 0.66956 0.499 0.50043 0.0
H2731 H 0.68586 0.51519 0.5276 0.0
H2732 H 0.66773 0.52928 0.50827 0.0
H2733 H 0.6261 0.43876 0.55716 0.0
H2734 H 0.61115 0.45197 0.57982 0.0
H2735 H 0.64303 0.45729 0.58273 0.0
C2736 C 0.19337 0.0647 0.50425 0.0
C2737 C 0.19766 0.08249 0.48881 0.0
C2738 C 0.1703 0.0518 0.50549 0.0
C2739 C 0.15112 0.05668 0.49079 0.0
C2740 C 0.15557 0.07335 0.47389 0.0
C2741 C 0.17876 0.08611 0.47316 0.0
C2742 C 0.16631 0.03418 0.52376 0.0
C2743 C 0.13564 0.07888 0.45769 0.0
C2744 C 0.08965 0.01666 0.48675 0.0
C2745 C 0.07883 0.02941 0.50326 0.0
C2746 C 0.11327 0.02515 0.48255 0.0
C2747 C 0.12633 0.04678 0.49527 0.0
C2748 C 0.11556 0.05951 0.51219 0.0
C2749 C 0.09199 0.05072 0.5159 0.0
C2750 C 0.12414 0.01118 0.4643 0.0
C2751 C 0.12889 0.08258 0.52627 0.0
H2752 H 0.20784 0.06169 0.51637 0.0
H2753 H 0.18191 0.09963 0.46097 0.0
H2754 H 0.15774 0.04147 0.53879 0.0
H2755 H 0.15424 0.01745 0.51542 0.0
H2756 H 0.18313 0.03012 0.53146 0.0
H2757 H 0.14226 0.08986 0.44345 0.0
H2758 H 0.1236 0.06233 0.44886 0.0
H2759 H 0.12506 0.08865 0.46873 0.0
H2760 H 0.0796 0.00019 0.47689 0.0
H2761 H 0.08386 0.06067 0.52878 0.0
H2762 H 0.14055 0.00705 0.47289 0.0
H2763 H 0.1292 0.02192 0.44941 0.0
H2764 H 0.11186 0.99436 0.45643 0.0
H2765 H 0.14523 0.07995 0.53653 0.0
H2766 H 0.11814 0.08997 0.53921 0.0
H2767 H 0.13437 0.09582 0.51363 0.0
C2768 C 0.20455 0.95667 0.787 0.0
C2769 C 0.18029 0.95268 0.77947 0.0
C2770 C 0.21583 0.93766 0.78885 0.0
C2771 C 0.20263 0.91424 0.78208 0.0
C2772 C 0.17803 0.91021 0.77448 0.0
C2773 C 0.16707 0.92954 0.77362 0.0
C2774 C 0.24188 0.94263 0.79775 0.0
C2775 C 0.16346 0.88556 0.76653 0.0
C2776 C 0.2337 0.86584 0.76116 0.0
C2777 C 0.23237 0.85231 0.7807 0.0
C2778 C 0.22463 0.88645 0.76161 0.0
C2779 C 0.21454 0.89392 0.78232 0.0
C2780 C 0.21455 0.88109 0.80268 0.0
C2781 C 0.2232 0.86026 0.8015 0.0
C2782 C 0.22464 0.89944 0.7394 0.0
C2783 C 0.20456 0.8888 0.82535 0.0
H2784 H 0.21467 0.9747 0.7914 0.0
H2785 H 0.14835 0.92664 0.76746 0.0
H2786 H 0.24491 0.93223 0.81298 0.0
H2787 H 0.25188 0.93705 0.78309 0.0
H2788 H 0.24919 0.96168 0.80388 0.0
H2789 H 0.14461 0.88548 0.76093 0.0
H2790 H 0.17083 0.87736 0.75108 0.0
H2791 H 0.1643 0.87429 0.78143 0.0
H2792 H 0.2406 0.85961 0.74498 0.0
H2793 H 0.22232 0.84988 0.8167 0.0
H2794 H 0.23292 0.91846 0.74426 0.0
H2795 H 0.20613 0.89828 0.73158 0.0
H2796 H 0.23425 0.89208 0.72529 0.0
H2797 H 0.21159 0.90796 0.83099 0.0
H2798 H 0.20875 0.87879 0.84058 0.0
H2799 H 0.18504 0.88598 0.82171 0.0
C2800 C 0.33335 0.91559 0.99412 0.0
C2801 C 0.31671 0.92735 0.00334 0.0
C2802 C 0.35757 0.9262 0.99744 0.0
C2803 C 0.36526 0.94908 0.01027 0.0
C2804 C 0.34843 0.96172 0.01797 0.0
C2805 C 0.32434 0.95071 0.01439 0.0
C2806 C 0.37501 0.91227 0.98871 0.0
C2807 C 0.35593 0.98622 0.03156 0.0
C2808 C 0.42466 0.96168 0.04844 0.0
C2809 C 0.43918 0.97602 0.03447 0.0
C2810 C 0.40058 0.95291 0.04072 0.0
C2811 C 0.3908 0.95847 0.01839 0.0
C2812 C 0.40533 0.97295 0.00417 0.0
C2813 C 0.42938 0.98167 0.01245 0.0
C2814 C 0.38559 0.93767 0.05651 0.0
C2815 C 0.3955 0.97908 0.98019 0.0
H2816 H 0.32763 0.89762 0.98534 0.0
H2817 H 0.3116 0.96007 0.02133 0.0
H2818 H 0.38848 0.92343 0.97938 0.0
H2819 H 0.38447 0.90651 0.00446 0.0
H2820 H 0.36616 0.89631 0.97616 0.0
H2821 H 0.34071 0.99481 0.03349 0.0
H2822 H 0.36439 0.98509 0.04992 0.0
H2823 H 0.3692 0.99767 0.02227 0.0
H2824 H 0.43211 0.95733 0.06552 0.0
H2825 H 0.44058 0.99266 0.00151 0.0
H2826 H 0.37772 0.92003 0.04645 0.0
H2827 H 0.37076 0.94584 0.06139 0.0
H2828 H 0.3959 0.93516 0.07345 0.0
H2829 H 0.38811 0.96265 0.96779 0.0
H2830 H 0.40915 0.99065 0.97137 0.0
H2831 H 0.38078 0.98819 0.98277 0.0
C2832 C 0.82077 0.57497 0.75279 0.0
C2833 C 0.84516 0.57817 0.75936 0.0
C2834 C 0.80978 0.59431 0.75377 0.0
C2835 C 0.82373 0.61738 0.76062 0.0
C2836 C 0.84844 0.62068 0.76704 0.0
C2837 C 0.85881 0.60093 0.76675 0.0
C2838 C 0.78329 0.59005 0.74767 0.0
C2839 C 0.864 0.64508 0.77386 0.0
C2840 C 0.80184 0.67125 0.74274 0.0
C2841 C 0.79711 0.68091 0.76513 0.0
C2842 C 0.80993 0.65007 0.74077 0.0
C2843 C 0.81256 0.63815 0.76157 0.0
C2844 C 0.80621 0.64716 0.78383 0.0
C2845 C 0.79899 0.66871 0.78543 0.0
C2846 C 0.81712 0.64133 0.71689 0.0
C2847 C 0.80808 0.63465 0.80624 0.0
H2848 H 0.81024 0.55728 0.74716 0.0
H2849 H 0.87772 0.60337 0.77154 0.0
H2850 H 0.77528 0.59741 0.7631 0.0
H2851 H 0.77904 0.59935 0.73192 0.0
H2852 H 0.77493 0.57095 0.74337 0.0
H2853 H 0.88303 0.64465 0.77724 0.0
H2854 H 0.86178 0.65636 0.75919 0.0
H2855 H 0.85865 0.65362 0.7904 0.0
H2856 H 0.80071 0.681 0.72718 0.0
H2857 H 0.79535 0.67636 0.80274 0.0
H2858 H 0.80858 0.62242 0.71168 0.0
H2859 H 0.83655 0.64272 0.71869 0.0
H2860 H 0.8124 0.65165 0.7021 0.0
H2861 H 0.79964 0.61557 0.8021 0.0
H2862 H 0.79963 0.64236 0.82117 0.0
H2863 H 0.82698 0.63596 0.81266 0.0
C2864 C 0.83917 0.58802 0.04 0.0
C2865 C 0.82672 0.59222 0.01871 0.0
C2866 C 0.85945 0.57852 0.03929 0.0
C2867 C 0.86708 0.5724 0.01668 0.0
C2868 C 0.85428 0.57616 0.99507 0.0
C2869 C 0.83445 0.58638 0.99637 0.0
C2870 C 0.873 0.57553 0.06277 0.0
C2871 C 0.86156 0.56938 0.97059 0.0
C2872 C 0.93161 0.5699 0.01425 0.0
C2873 C 0.9309 0.54566 0.01445 0.0
C2874 C 0.91104 0.57881 0.01526 0.0
C2875 C 0.88904 0.56302 0.01574 0.0
C2876 C 0.88816 0.53845 0.01573 0.0
C2877 C 0.90921 0.53008 0.01548 0.0
C2878 C 0.91295 0.60519 0.01605 0.0
C2879 C 0.86497 0.52101 0.01572 0.0
H2880 H 0.83334 0.59268 0.05734 0.0
H2881 H 0.82474 0.58943 0.97987 0.0
H2882 H 0.87404 0.55675 0.06328 0.0
H2883 H 0.89141 0.58607 0.0641 0.0
H2884 H 0.86475 0.58121 0.07884 0.0
H2885 H 0.84892 0.5721 0.95551 0.0
H2886 H 0.87934 0.58007 0.96875 0.0
H2887 H 0.8628 0.55052 0.96883 0.0
H2888 H 0.94843 0.58203 0.01376 0.0
H2889 H 0.90864 0.51133 0.01552 0.0
H2890 H 0.90556 0.61178 0.03232 0.0
H2891 H 0.9024 0.60917 -0.0 0.0
H2892 H 0.93153 0.61512 0.01647 0.0
H2893 H 0.85672 0.52504 0.0323 0.0
H2894 H 0.86719 0.50244 0.01487 0.0
H2895 H 0.85249 0.52261 2e-05 0.0
C2896 C 0.18249 0.09893 0.80563 0.0
C2897 C 0.18649 0.07909 0.79173 0.0
C2898 C 0.19651 0.12157 0.80475 0.0
C2899 C 0.21477 0.12444 0.78942 0.0
C2900 C 0.21985 0.10431 0.77657 0.0
C2901 C 0.20574 0.08185 0.77799 0.0
C2902 C 0.19079 0.14257 0.81907 0.0
C2903 C 0.23908 0.10662 0.75993 0.0
C2904 C 0.22612 0.18226 0.76164 0.0
C2905 C 0.24712 0.19485 0.77529 0.0
C2906 C 0.21572 0.15923 0.76586 0.0
C2907 C 0.22638 0.14858 0.78445 0.0
C2908 C 0.24769 0.16108 0.79821 0.0
C2909 C 0.25793 0.18407 0.79334 0.0
C2910 C 0.19318 0.14637 0.75051 0.0
C2911 C 0.25941 0.15037 0.81832 0.0
H2912 H 0.16783 0.09695 0.8165 0.0
H2913 H 0.20905 0.06664 0.76724 0.0
H2914 H 0.20718 0.15428 0.82869 0.0
H2915 H 0.18259 0.15312 0.80655 0.0
H2916 H 0.17834 0.13713 0.83251 0.0
H2917 H 0.24279 0.0892 0.75365 0.0
H2918 H 0.23358 0.11489 0.74384 0.0
H2919 H 0.2557 0.11828 0.76909 0.0
H2920 H 0.21776 0.19041 0.74753 0.0
H2921 H 0.2741 0.19377 0.80403 0.0
H2922 H 0.17867 0.14228 0.76209 0.0
H2923 H 0.1956 0.12929 0.74166 0.0
H2924 H 0.1876 0.15687 0.73626 0.0
H2925 H 0.24728 0.14675 0.83242 0.0
H2926 H 0.27627 0.16213 0.82688 0.0
H2927 H 0.26308 0.13319 0.81127 0.0
C2928 C 0.36696 0.94223 0.29087 0.0
C2929 C 0.3556 0.9577 0.27887 0.0
C2930 C 0.35654 0.91804 0.28935 0.0
C2931 C 0.33435 0.90918 0.27542 0.0
C2932 C 0.322 0.92499 0.2649 0.0
C2933 C 0.33275 0.94908 0.26681 0.0
C2934 C 0.37006 0.90175 0.30116 0.0
C2935 C 0.29825 0.91624 0.24996 0.0
C2936 C 0.32383 0.84848 0.2404 0.0
C2937 C 0.30746 0.83498 0.25333 0.0
C2938 C 0.33294 0.87256 0.24771 0.0
C2939 C 0.32575 0.88334 0.26868 0.0
C2940 C 0.30969 0.86969 0.28222 0.0
C2941 C 0.30055 0.84563 0.27424 0.0
C2942 C 0.34986 0.88658 0.23262 0.0
C2943 C 0.30198 0.88056 0.30488 0.0
H2944 H 0.38449 0.94878 0.3005 0.0
H2945 H 0.32366 0.96093 0.25776 0.0
H2946 H 0.35816 0.88868 0.31027 0.0
H2947 H 0.37757 0.89172 0.2871 0.0
H2948 H 0.38485 0.91165 0.31463 0.0
H2949 H 0.28965 0.93098 0.24568 0.0
H2950 H 0.30065 0.90644 0.23269 0.0
H2951 H 0.28618 0.90382 0.25954 0.0
H2952 H 0.32919 0.84035 0.22419 0.0
H2953 H 0.28803 0.83516 0.2844 0.0
H2954 H 0.36668 0.8951 0.24393 0.0
H2955 H 0.34213 0.90089 0.22556 0.0
H2956 H 0.35395 0.87541 0.21704 0.0
H2957 H 0.31767 0.88979 0.31755 0.0
H2958 H 0.29078 0.86716 0.3143 0.0
H2959 H 0.29178 0.89401 0.30026 0.0
C2960 C 0.51184 0.33665 0.6048 0.0
C2961 C 0.53266 0.32917 0.60037 0.0
C2962 C 0.50714 0.35748 0.59639 0.0
C2963 C 0.5239 0.3714 0.58373 0.0
C2964 C 0.54465 0.36358 0.57868 0.0
C2965 C 0.54865 0.34247 0.58685 0.0
C2966 C 0.4846 0.36497 0.60171 0.0
C2967 C 0.5632 0.37808 0.56562 0.0
C2968 C 0.51126 0.42127 0.54831 0.0
C2969 C 0.52125 0.4412 0.56494 0.0
C2970 C 0.51086 0.39826 0.55454 0.0
C2971 C 0.52107 0.3952 0.57774 0.0
C2972 C 0.53038 0.41523 0.59482 0.0
C2973 C 0.53015 0.4379 0.5883 0.0
C2974 C 0.50028 0.3773 0.53602 0.0
C2975 C 0.54172 0.41285 0.61966 0.0
H2976 H 0.49931 0.32635 0.61508 0.0
H2977 H 0.5648 0.33686 0.58338 0.0
H2978 H 0.48886 0.38101 0.61506 0.0
H2979 H 0.47558 0.36963 0.58504 0.0
H2980 H 0.47216 0.3509 0.60913 0.0
H2981 H 0.57777 0.36897 0.56205 0.0
H2982 H 0.55509 0.38199 0.54813 0.0
H2983 H 0.57091 0.39528 0.57665 0.0
H2984 H 0.50422 0.42365 0.53028 0.0
H2985 H 0.53789 0.45314 0.60133 0.0
H2986 H 0.48801 0.36372 0.54419 0.0
H2987 H 0.51456 0.369 0.52979 0.0
H2988 H 0.49054 0.38241 0.52002 0.0
H2989 H 0.52934 0.40045 0.62898 0.0
H2990 H 0.54711 0.43008 0.63122 0.0
H2991 H 0.55765 0.40537 0.61789 0.0
C2992 C 0.41947 0.73115 0.33882 0.0
C2993 C 0.44044 0.74348 0.33129 0.0
C2994 C 0.39748 0.7302 0.32559 0.0
C2995 C 0.3966 0.74157 0.30421 0.0
C2996 C 0.41791 0.7522 0.29548 0.0
C2997 C 0.43956 0.7532 0.30923 0.0
C2998 C 0.37513 0.71877 0.33554 0.0
C2999 C 0.4178 0.76418 0.2726 0.0
C3000 C 0.33746 0.7344 0.26558 0.0
C3001 C 0.3299 0.75445 0.27489 0.0
C3002 C 0.35929 0.72992 0.27474 0.0
C3003 C 0.37376 0.74595 0.29347 0.0
C3004 C 0.36646 0.76656 0.30232 0.0
C3005 C 0.34466 0.77051 0.29295 0.0
C3006 C 0.36657 0.7078 0.26485 0.0
C3007 C 0.38146 0.7843 0.32207 0.0
H3008 H 0.4201 0.72357 0.35583 0.0
H3009 H 0.4558 0.76244 0.30315 0.0
H3010 H 0.36643 0.73271 0.34295 0.0
H3011 H 0.36245 0.70741 0.321 0.0
H3012 H 0.37876 0.70788 0.35021 0.0
H3013 H 0.4356 0.76806 0.26619 0.0
H3014 H 0.40507 0.75303 0.25796 0.0
H3015 H 0.41206 0.78112 0.27604 0.0
H3016 H 0.32601 0.72186 0.25173 0.0
H3017 H 0.339 0.78615 0.30009 0.0
H3018 H 0.36714 0.69589 0.27922 0.0
H3019 H 0.38463 0.7123 0.25922 0.0
H3020 H 0.35418 0.69805 0.24915 0.0
H3021 H 0.38422 0.77558 0.33864 0.0
H3022 H 0.37328 0.79953 0.32673 0.0
H3023 H 0.39914 0.79116 0.31635 0.0
C3024 C 0.04163 0.70057 0.09126 0.0
C3025 C 0.02193 0.70586 0.10149 0.0
C3026 C 0.04126 0.67752 0.08091 0.0
C3027 C 0.0205 0.65961 0.08027 0.0
C3028 C 1.00003 0.66536 0.08902 0.0
C3029 C 0.00112 0.68833 0.09988 0.0
C3030 C 0.06354 0.67202 0.07214 0.0
C3031 C 0.97731 0.64695 0.08799 0.0
C3032 C 0.01175 0.60011 0.04237 0.0
C3033 C 0.01514 0.58537 0.0603 0.0
C3034 C 0.01418 0.62455 0.04839 0.0
C3035 C 0.02071 0.63444 0.0728 0.0
C3036 C 0.02561 0.61977 0.09066 0.0
C3037 C 0.02242 0.59534 0.08424 0.0
C3038 C 0.00827 0.63946 0.02893 0.0
C3039 C 0.03318 0.62968 0.11679 0.0
H3040 H 0.0578 0.71407 0.09266 0.0
H3041 H 0.98581 0.69247 0.10762 0.0
H3042 H 0.07083 0.6607 0.08447 0.0
H3043 H 0.05963 0.66198 0.05385 0.0
H3044 H 0.07733 0.68829 0.07151 0.0
H3045 H 0.96231 0.65487 0.09287 0.0
H3046 H 0.97258 0.6372 0.06959 0.0
H3047 H 0.97974 0.63385 0.10073 0.0
H3048 H 0.0058 0.59235 0.02387 0.0
H3049 H 0.02512 0.58393 0.09807 0.0
H3050 H 0.02203 0.65599 0.02993 0.0
H3051 H 0.99128 0.64461 0.03172 0.0
H3052 H 0.00649 0.62982 0.01051 0.0
H3053 H 0.04807 0.64533 0.1181 0.0
H3054 H 0.03875 0.61643 0.12786 0.0
H3055 H 0.01827 0.63564 0.12469 0.0
C3056 C 0.08774 0.27037 0.85273 0.0
C3057 C 0.06927 0.25081 0.84446 0.0
C3058 C 0.10931 0.27353 0.8426 0.0
C3059 C 0.11238 0.25677 0.82377 0.0
C3060 C 0.09333 0.23773 0.81452 0.0
C3061 C 0.07205 0.23497 0.82499 0.0
C3062 C 0.12922 0.29408 0.85293 0.0
C3063 C 0.09583 0.21949 0.79442 0.0
C3064 C 0.16524 0.26843 0.7875 0.0
C3065 C 0.18028 0.25573 0.79892 0.0
C3066 C 0.14318 0.26935 0.7956 0.0
C3067 C 0.13616 0.25741 0.81564 0.0
C3068 C 0.15147 0.24491 0.82742 0.0
C3069 C 0.17324 0.24417 0.81889 0.0
C3070 C 0.12726 0.28276 0.78254 0.0
C3071 C 0.14472 0.232 0.8489 0.0
H3072 H 0.08568 0.28273 0.86771 0.0
H3073 H 0.05779 0.21993 0.81831 0.0
H3074 H 0.14336 0.28741 0.86301 0.0
H3075 H 0.13719 0.30338 0.83819 0.0
H3076 H 0.12319 0.30701 0.86544 0.0
H3077 H 0.07868 0.20722 0.7876 0.0
H3078 H 0.10317 0.22826 0.77909 0.0
H3079 H 0.10841 0.20892 0.80112 0.0
H3080 H 0.1706 0.27747 0.77211 0.0
H3081 H 0.1848 0.23448 0.82799 0.0
H3082 H 0.12231 0.29602 0.79552 0.0
H3083 H 0.11063 0.27038 0.7744 0.0
H3084 H 0.13574 0.29198 0.76798 0.0
H3085 H 0.14047 0.24436 0.86333 0.0
H3086 H 0.15903 0.22388 0.85659 0.0
H3087 H 0.12862 0.21781 0.84345 0.0
C3088 C 0.5484 0.71236 0.97811 0.0
C3089 C 0.53454 0.71538 0.95721 0.0
C3090 C 0.54476 0.69069 0.98783 0.0
C3091 C 0.52688 0.67154 0.9763 0.0
C3092 C 0.51187 0.67489 0.95608 0.0
C3093 C 0.51586 0.69684 0.94677 0.0
C3094 C 0.56107 0.68786 0.00949 0.0
C3095 C 0.4926 0.65486 0.94333 0.0
C3096 C 0.54012 0.61085 0.97966 0.0
C3097 C 0.5262 0.60206 0.99741 0.0
C3098 C 0.5402 0.6333 0.9725 0.0
C3099 C 0.52608 0.64743 0.98343 0.0
C3100 C 0.51198 0.63875 0.0014 0.0
C3101 C 0.51218 0.61609 0.0082 0.0
C3102 C 0.55547 0.64188 0.95321 0.0
C3103 C 0.49673 0.6534 0.01341 0.0
H3104 H 0.56271 0.72671 0.98645 0.0
H3105 H 0.50501 0.6991 0.93069 0.0
H3106 H 0.55076 0.67921 0.02323 0.0
H3107 H 0.57301 0.67629 0.00376 0.0
H3108 H 0.57211 0.70509 0.01806 0.0
H3109 H 0.48057 0.66109 0.93 0.0
H3110 H 0.5007 0.64159 0.93364 0.0
H3111 H 0.48196 0.64575 0.9566 0.0
H3112 H 0.55093 0.60011 0.97113 0.0
H3113 H 0.50127 0.60933 0.02183 0.0
H3114 H 0.5686 0.65828 0.96059 0.0
H3115 H 0.54437 0.64628 0.93779 0.0
H3116 H 0.56513 0.62853 0.94627 0.0
H3117 H 0.50794 0.6702 0.02271 0.0
H3118 H 0.48656 0.64397 0.02684 0.0
H3119 H 0.48411 0.65812 0.99957 0.0
C3120 C 0.08896 0.75999 0.67571 0.0
C3121 C 0.06778 0.74505 0.67978 0.0
C3122 C 0.1105 0.75928 0.68873 0.0
C3123 C 0.1109 0.7432 0.70625 0.0
C3124 C 0.08954 0.72855 0.71101 0.0
C3125 C 0.06817 0.72967 0.69772 0.0
C3126 C 0.13292 0.77539 0.6833 0.0
C3127 C 0.08935 0.71125 0.72962 0.0
C3128 C 0.17131 0.72907 0.71728 0.0
C3129 C 0.1817 0.746 0.73682 0.0
C3130 C 0.14754 0.7267 0.70814 0.0
C3131 C 0.13396 0.74154 0.71894 0.0
C3132 C 0.14378 0.75713 0.73999 0.0
C3133 C 0.16757 0.75919 0.74868 0.0
C3134 C 0.1376 0.70972 0.68575 0.0
C3135 C 0.12979 0.77305 0.75219 0.0
H3136 H 0.08881 0.77203 0.662 0.0
H3137 H 0.05188 0.71803 0.70096 0.0
H3138 H 0.14213 0.78637 0.70008 0.0
H3139 H 0.14513 0.76464 0.67644 0.0
H3140 H 0.12944 0.78734 0.66962 0.0
H3141 H 0.07109 0.70241 0.73246 0.0
H3142 H 0.09893 0.69748 0.7237 0.0
H3143 H 0.09873 0.72042 0.74719 0.0
H3144 H 0.18208 0.71871 0.70812 0.0
H3145 H 0.17542 0.77208 0.76405 0.0
H3146 H 0.1357 0.71987 0.67006 0.0
H3147 H 0.11976 0.69935 0.6879 0.0
H3148 H 0.14921 0.69727 0.68156 0.0
H3149 H 0.12788 0.78741 0.74086 0.0
H3150 H 0.13859 0.78126 0.77035 0.0
H3151 H 0.11173 0.76307 0.75415 0.0
C3152 C 0.01942 0.33414 0.47913 0.0
C3153 C 0.02764 0.33271 0.45634 0.0
C3154 C 0.0208 0.3561 0.49244 0.0
C3155 C 0.03008 0.37707 0.48239 0.0
C3156 C 0.03989 0.37568 0.46011 0.0
C3157 C 0.03878 0.35341 0.44742 0.0
C3158 C 0.01061 0.35682 0.51635 0.0
C3159 C 0.04969 0.39768 0.44866 0.0
C3160 C 0.00093 0.42866 0.49465 0.0
C3161 C 0.01832 0.44448 0.51062 0.0
C3162 C 0.00453 0.40662 0.48564 0.0
C3163 C 0.02595 0.4 0.49303 0.0
C3164 C 0.04317 0.41538 0.51004 0.0
C3165 C 0.03917 0.43755 0.51864 0.0
C3166 C 0.98565 0.39072 0.46756 0.0
C3167 C 0.06606 0.40874 0.51855 0.0
H3168 H 0.01105 0.31809 0.48617 0.0
H3169 H 0.04509 0.3523 0.42977 0.0
H3170 H 0.0224 0.3702 0.52998 0.0
H3171 H 0.99328 0.362 0.51398 0.0
H3172 H 0.00784 0.33936 0.52351 0.0
H3173 H 0.05937 0.39376 0.43306 0.0
H3174 H 0.03493 0.40579 0.44217 0.0
H3175 H 0.0618 0.41097 0.46211 0.0
H3176 H 0.98468 0.43383 0.48855 0.0
H3177 H 0.05269 0.44972 0.53097 0.0
H3178 H 0.97981 0.37332 0.47431 0.0
H3179 H 0.99299 0.38744 0.45021 0.0
H3180 H 0.96991 0.39845 0.46391 0.0
H3181 H 0.06246 0.39094 0.52491 0.0
H3182 H 0.07663 0.42168 0.53341 0.0
H3183 H 0.07685 0.40786 0.50323 0.0
C3184 C 0.43703 0.2668 0.1804 0.0
C3185 C 0.44123 0.24397 0.18127 0.0
C3186 C 0.41667 0.2727 0.18881 0.0
C3187 C 0.39992 0.2552 0.19779 0.0
C3188 C 0.40432 0.23226 0.19911 0.0
C3189 C 0.425 0.227 0.19105 0.0
C3190 C 0.41283 0.29748 0.18759 0.0
C3191 C 0.38677 0.21296 0.20823 0.0
C3192 C 0.35092 0.26721 0.23461 0.0
C3193 C 0.33122 0.26115 0.21699 0.0
C3194 C 0.37379 0.26687 0.2284 0.0
C3195 C 0.3769 0.26005 0.20411 0.0
C3196 C 0.35727 0.25536 0.18608 0.0
C3197 C 0.33475 0.25616 0.19271 0.0
C3198 C 0.39436 0.27248 0.24807 0.0
C3199 C 0.35973 0.24787 0.15998 0.0
H3200 H 0.44962 0.28006 0.17306 0.0
H3201 H 0.42809 0.20931 0.19175 0.0
H3202 H 0.39751 0.29713 0.17408 0.0
H3203 H 0.40859 0.30473 0.20532 0.0
H3204 H 0.42857 0.30962 0.18245 0.0
H3205 H 0.39316 0.19626 0.20873 0.0
H3206 H 0.38312 0.21879 0.2267 0.0
H3207 H 0.36973 0.20922 0.19638 0.0
H3208 H 0.3484 0.27121 0.2534 0.0
H3209 H 0.31969 0.25166 0.1789 0.0
H3210 H 0.40981 0.28433 0.2421 0.0
H3211 H 0.39982 0.2559 0.25199 0.0
H3212 H 0.38978 0.28101 0.26508 0.0
H3213 H 0.37426 0.26044 0.15345 0.0
H3214 H 0.34318 0.24676 0.14788 0.0
H3215 H 0.36433 0.23023 0.15848 0.0
C3216 C 0.58811 0.48574 0.35387 0.0
C3217 C 0.59205 0.50808 0.34546 0.0
C3218 C 0.57552 0.48136 0.37396 0.0
C3219 C 0.56717 0.49991 0.38619 0.0
C3220 C 0.57096 0.52241 0.3776 0.0
C3221 C 0.58312 0.52614 0.35724 0.0
C3222 C 0.57149 0.45702 0.38233 0.0
C3223 C 0.56281 0.54283 0.39038 0.0
C3224 C 0.52073 0.49026 0.43036 0.0
C3225 C 0.5349 0.49598 0.45269 0.0
C3226 C 0.53099 0.49036 0.40846 0.0
C3227 C 0.55596 0.49651 0.40895 0.0
C3228 C 0.57031 0.50138 0.43144 0.0
C3229 C 0.55964 0.50093 0.45294 0.0
C3230 C 0.51511 0.48471 0.38482 0.0
C3231 C 0.59698 0.50816 0.43286 0.0
H3232 H 0.59481 0.47166 0.34473 0.0
H3233 H 0.58618 0.54349 0.35092 0.0
H3234 H 0.58129 0.45788 0.40049 0.0
H3235 H 0.55243 0.45048 0.38404 0.0
H3236 H 0.57738 0.44405 0.36975 0.0
H3237 H 0.56654 0.55903 0.381 0.0
H3238 H 0.54351 0.53791 0.39167 0.0
H3239 H 0.57184 0.54704 0.40912 0.0
H3240 H 0.50163 0.48628 0.42994 0.0
H3241 H 0.57083 0.50511 0.47004 0.0
H3242 H 0.52102 0.47147 0.37264 0.0
H3243 H 0.51623 0.50094 0.37556 0.0
H3244 H 0.49632 0.4778 0.38745 0.0
H3245 H 0.60375 0.49471 0.42183 0.0
H3246 H 0.60563 0.51004 0.45172 0.0
H3247 H 0.60235 0.52524 0.42532 0.0
C3248 C 0.25638 0.85904 0.08884 0.0
C3249 C 0.24481 0.84851 0.06619 0.0
C3250 C 0.2574 0.84577 0.10847 0.0
C3251 C 0.24598 0.82152 0.10554 0.0
C3252 C 0.2341 0.8108 0.08273 0.0
C3253 C 0.23395 0.82438 0.06318 0.0
C3254 C 0.27066 0.85774 0.13238 0.0
C3255 C 0.22126 0.78515 0.07911 0.0
C3256 C 0.26514 0.78588 0.15444 0.0
C3257 C 0.24843 0.78771 0.17069 0.0
C3258 C 0.26399 0.7959 0.13251 0.0
C3259 C 0.24566 0.80787 0.12678 0.0
C3260 C 0.22805 0.80861 0.14254 0.0
C3261 C 0.22967 0.79855 0.16429 0.0
C3262 C 0.28308 0.79478 0.11611 0.0
C3263 C 0.20811 0.82103 0.13702 0.0
H3264 H 0.26511 0.87762 0.09109 0.0
H3265 H 0.22499 0.81624 0.04564 0.0
H3266 H 0.25825 0.85755 0.14635 0.0
H3267 H 0.28417 0.84795 0.13855 0.0
H3268 H 0.27964 0.87639 0.13127 0.0
H3269 H 0.21331 0.77935 0.06011 0.0
H3270 H 0.23359 0.77372 0.08419 0.0
H3271 H 0.20697 0.78233 0.09112 0.0
H3272 H 0.27965 0.7775 0.15929 0.0
H3273 H 0.21651 0.79979 0.17664 0.0
H3274 H 0.29421 0.81277 0.11613 0.0
H3275 H 0.27513 0.78857 0.09722 0.0
H3276 H 0.29467 0.78286 0.12191 0.0
H3277 H 0.21533 0.84036 0.138 0.0
H3278 H 0.19459 0.81796 0.14991 0.0
H3279 H 0.19931 0.81496 0.11839 0.0
C3280 C 0.97532 0.536 0.84516 0.0
C3281 C 0.95336 0.54244 0.84272 0.0
C3282 C 0.9879 0.5371 0.86796 0.0
C3283 C 0.97816 0.5447 0.88878 0.0
C3284 C 0.95726 0.55363 0.88623 0.0
C3285 C 0.94504 0.55242 0.8631 0.0
C3286 C 0.01025 0.52767 0.86982 0.0
C3287 C 0.94655 0.56224 0.90803 0.0
C3288 C 0.98528 0.50953 0.94149 0.0
C3289 C 0.00361 0.52479 0.9568 0.0
C3290 C 0.97688 0.51598 0.91942 0.0
C3291 C 0.98685 0.53846 0.9126 0.0
C3292 C 0.0054 0.55404 0.92797 0.0
C3293 C 0.01375 0.5469 0.94992 0.0
C3294 C 0.95734 0.49862 0.90336 0.0
C3295 C 0.01607 0.57829 0.92146 0.0
H3296 H 0.98206 0.52874 0.82934 0.0
H3297 H 0.92816 0.55763 0.86123 0.0
H3298 H 0.02398 0.53908 0.88339 0.0
H3299 H 0.0063 0.50974 0.87587 0.0
H3300 H 0.01759 0.52637 0.85219 0.0
H3301 H 0.93339 0.57289 0.90307 0.0
H3302 H 0.93746 0.54679 0.91644 0.0
H3303 H 0.96046 0.57306 0.92183 0.0
H3304 H 0.97746 0.49241 0.94681 0.0
H3305 H 0.02767 0.55887 0.96199 0.0
H3306 H 0.9634 0.49436 0.88554 0.0
H3307 H 0.94175 0.5066 0.90007 0.0
H3308 H 0.95164 0.48184 0.91138 0.0
H3309 H 0.02231 0.57692 0.9033 0.0
H3310 H 0.03113 0.58781 0.93481 0.0
H3311 H 0.00237 0.58902 0.92056 0.0
C3312 C 0.29073 0.17842 0.58035 0.0
C3313 C 0.27052 0.17557 0.56373 0.0
C3314 C 0.29148 0.18927 0.60398 0.0
C3315 C 0.27123 0.19669 0.61136 0.0
C3316 C 0.2511 0.19464 0.59436 0.0
C3317 C 0.25112 0.18439 0.5706 0.0
C3318 C 0.31356 0.19178 0.62136 0.0
C3319 C 0.229 0.20186 0.60164 0.0
C3320 C 0.26577 0.19413 0.6782 0.0
C3321 C 0.27361 0.21795 0.68754 0.0
C3322 C 0.26385 0.18716 0.65328 0.0
C3323 C 0.27044 0.2044 0.63736 0.0
C3324 C 0.27763 0.2286 0.6466 0.0
C3325 C 0.2789 0.23513 0.67162 0.0
C3326 C 0.2556 0.16122 0.6441 0.0
C3327 C 0.28517 0.24743 0.63027 0.0
H3328 H 0.3058 0.17174 0.57499 0.0
H3329 H 0.23538 0.18199 0.55782 0.0
H3330 H 0.31884 0.21 0.63087 0.0
H3331 H 0.30999 0.17948 0.63531 0.0
H3332 H 0.32863 0.18781 0.61208 0.0
H3333 H 0.21577 0.2013 0.58582 0.0
H3334 H 0.22079 0.18973 0.61423 0.0
H3335 H 0.23338 0.21998 0.61138 0.0
H3336 H 0.26154 0.18083 0.69047 0.0
H3337 H 0.28519 0.25356 0.67882 0.0
H3338 H 0.27044 0.15446 0.63698 0.0
H3339 H 0.24123 0.15869 0.62898 0.0
H3340 H 0.24906 0.15041 0.65849 0.0
H3341 H 0.3018 0.24504 0.62307 0.0
H3342 H 0.28824 0.26557 0.6399 0.0
H3343 H 0.27161 0.24579 0.61454 0.0
C3344 C 0.60224 0.48558 0.19749 0.0
C3345 C 0.6021 0.5039 0.21556 0.0
C3346 C 0.5905 0.48481 0.17425 0.0
C3347 C 0.57897 0.50321 0.16876 0.0
C3348 C 0.57819 0.52139 0.18714 0.0
C3349 C 0.58953 0.52135 0.21044 0.0
C3350 C 0.59116 0.46473 0.15534 0.0
C3351 C 0.56648 0.54154 0.18188 0.0
C3352 C 0.57692 0.51304 0.10253 0.0
C3353 C 0.55357 0.50193 0.09381 0.0
C3354 C 0.58499 0.51476 0.12719 0.0
C3355 C 0.56953 0.50433 0.14331 0.0
C3356 C 0.54568 0.49361 0.13464 0.0
C3357 C 0.53787 0.49285 0.10996 0.0
C3358 C 0.61036 0.52692 0.1358 0.0
C3359 C 0.52884 0.48169 0.15107 0.0
H3360 H 0.61177 0.47195 0.20147 0.0
H3361 H 0.58952 0.53563 0.22434 0.0
H3362 H 0.57308 0.45685 0.14628 0.0
H3363 H 0.60215 0.47156 0.14123 0.0
H3364 H 0.59861 0.45058 0.16316 0.0
H3365 H 0.56582 0.55328 0.19853 0.0
H3366 H 0.57643 0.55227 0.16919 0.0
H3367 H 0.5482 0.53464 0.17295 0.0
H3368 H 0.58901 0.52002 0.08993 0.0
H3369 H 0.5199 0.48389 0.10306 0.0
H3370 H 0.62042 0.51367 0.14136 0.0
H3371 H 0.61114 0.53991 0.15185 0.0
H3372 H 0.61926 0.53626 0.12153 0.0
H3373 H 0.53454 0.46565 0.15649 0.0
H3374 H 0.51037 0.4763 0.14214 0.0
H3375 H 0.52915 0.49356 0.16785 0.0
C3376 C 0.22064 0.83479 0.91489 0.0
C3377 C 0.23691 0.83064 0.93327 0.0
C3378 C 0.21836 0.8228 0.89144 0.0
C3379 C 0.23296 0.80665 0.88635 0.0
C3380 C 0.24836 0.80146 0.90522 0.0
C3381 C 0.25 0.81337 0.92841 0.0
C3382 C 0.20127 0.82827 0.87191 0.0
C3383 C 0.26438 0.78448 0.90061 0.0
C3384 C 0.22955 0.76352 0.83045 0.0
C3385 C 0.24767 0.77583 0.81859 0.0
C3386 C 0.22272 0.77422 0.85147 0.0
C3387 C 0.23482 0.79743 0.86107 0.0
C3388 C 0.25207 0.81037 0.84822 0.0
C3389 C 0.25827 0.7994 0.82717 0.0
C3390 C 0.20364 0.76016 0.8642 0.0
C3391 C 0.26548 0.83514 0.85774 0.0
H3392 H 0.21028 0.84794 0.91858 0.0
H3393 H 0.26241 0.8098 0.94255 0.0
H3394 H 0.21119 0.83975 0.8598 0.0
H3395 H 0.19158 0.8118 0.86064 0.0
H3396 H 0.18825 0.83757 0.87955 0.0
H3397 H 0.27437 0.78142 0.91753 0.0
H3398 H 0.25393 0.76719 0.89169 0.0
H3399 H 0.2773 0.79164 0.88823 0.0
H3400 H 0.2212 0.74534 0.82371 0.0
H3401 H 0.27234 0.80899 0.81807 0.0
H3402 H 0.19214 0.77155 0.87139 0.0
H3403 H 0.21193 0.75303 0.87975 0.0
H3404 H 0.19248 0.74505 0.85195 0.0
H3405 H 0.2531 0.84648 0.86262 0.0
H3406 H 0.27654 0.84357 0.84436 0.0
H3407 H 0.27722 0.83452 0.87439 0.0
C3408 C 0.96137 0.53791 0.71813 0.0
C3409 C 0.9367 0.53249 0.71226 0.0
C3410 C 0.97661 0.53936 0.70001 0.0
C3411 C 0.96691 0.5351 0.67547 0.0
C3412 C 0.94204 0.52978 0.6694 0.0
C3413 C 0.92722 0.52867 0.68789 0.0
C3414 C 0.00304 0.54527 0.7071 0.0
C3415 C 0.93108 0.52496 0.64336 0.0
C3416 C 0.001 0.55687 0.62448 0.0
C3417 C 0.00614 0.53589 0.61415 0.0
C3418 C 0.9894 0.55721 0.64537 0.0
C3419 C 0.98264 0.53599 0.65598 0.0
C3420 C 0.98915 0.51512 0.64655 0.0
C3421 C 0.001 0.51535 0.62577 0.0
C3422 C 0.98307 0.5799 0.65515 0.0
C3423 C 0.98216 0.49214 0.65735 0.0
H3424 H 0.96884 0.54099 0.73694 0.0
H3425 H 0.90819 0.52438 0.68323 0.0
H3426 H 0.01085 0.5305 0.70005 0.0
H3427 H 0.01131 0.56118 0.69888 0.0
H3428 H 0.00773 0.5486 0.72702 0.0
H3429 H 0.91143 0.52104 0.64173 0.0
H3430 H 0.93726 0.54048 0.6336 0.0
H3431 H 0.93678 0.50969 0.63417 0.0
H3432 H 0.00512 0.57284 0.61562 0.0
H3433 H 0.00485 0.49906 0.6178 0.0
H3434 H 0.98814 0.58347 0.67499 0.0
H3435 H 0.96364 0.57814 0.6519 0.0
H3436 H 0.99184 0.59534 0.64648 0.0
H3437 H 0.987 0.49484 0.67723 0.0
H3438 H 0.99065 0.4782 0.64948 0.0
H3439 H 0.96267 0.48567 0.654 0.0
C3440 C 0.28727 0.18501 0.42517 0.0
C3441 C 0.26563 0.18329 0.43489 0.0
C3442 C 0.29196 0.19757 0.40515 0.0
C3443 C 0.27448 0.20837 0.39443 0.0
C3444 C 0.25281 0.20708 0.40448 0.0
C3445 C 0.24872 0.19469 0.42464 0.0
C3446 C 0.31536 0.19878 0.39508 0.0
C3447 C 0.23356 0.21805 0.39341 0.0
C3448 C 0.28705 0.25408 0.34984 0.0
C3449 C 0.27874 0.24012 0.32769 0.0
C3450 C 0.28678 0.24387 0.37176 0.0
C3451 C 0.27779 0.21922 0.37148 0.0
C3452 C 0.27023 0.20499 0.34911 0.0
C3453 C 0.27094 0.21556 0.32757 0.0
C3454 C 0.29534 0.25955 0.39526 0.0
C3455 C 0.26035 0.17867 0.34793 0.0
H3456 H 0.30049 0.17641 0.4331 0.0
H3457 H 0.23196 0.19349 0.43202 0.0
H3458 H 0.31246 0.18863 0.37686 0.0
H3459 H 0.32364 0.21737 0.39297 0.0
H3460 H 0.32791 0.19145 0.4068 0.0
H3461 H 0.21821 0.21649 0.4041 0.0
H3462 H 0.24061 0.23705 0.39192 0.0
H3463 H 0.2272 0.20926 0.37481 0.0
H3464 H 0.2932 0.27303 0.35012 0.0
H3465 H 0.26467 0.20451 0.31057 0.0
H3466 H 0.30798 0.25197 0.40653 0.0
H3467 H 0.28013 0.26054 0.40566 0.0
H3468 H 0.30409 0.27779 0.39231 0.0
H3469 H 0.27302 0.17014 0.35796 0.0
H3470 H 0.25642 0.16992 0.32904 0.0
H3471 H 0.24376 0.17549 0.35669 0.0
C3472 C 0.33286 0.58063 0.49957 0.0
C3473 C 0.33286 0.58805 0.52414 0.0
C3474 C 0.3491 0.56739 0.49193 0.0
C3475 C 0.36615 0.56226 0.50925 0.0
C3476 C 0.36674 0.57061 0.53398 0.0
C3477 C 0.34979 0.58302 0.54116 0.0
C3478 C 0.34748 0.55821 0.46554 0.0
C3479 C 0.38511 0.56621 0.55293 0.0
C3480 C 0.39567 0.51012 0.50105 0.0
C3481 C 0.41806 0.52113 0.49552 0.0
C3482 C 0.37799 0.52303 0.50393 0.0
C3483 C 0.38307 0.54764 0.50188 0.0
C3484 C 0.40529 0.5586 0.49518 0.0
C3485 C 0.42239 0.54513 0.49175 0.0
C3486 C 0.35429 0.51056 0.51042 0.0
C3487 C 0.41168 0.58488 0.49335 0.0
H3488 H 0.31956 0.58433 0.48645 0.0
H3489 H 0.34984 0.58891 0.56016 0.0
H3490 H 0.36474 0.56399 0.4585 0.0
H3491 H 0.34329 0.53858 0.46347 0.0
H3492 H 0.33368 0.56434 0.45427 0.0
H3493 H 0.38421 0.57537 0.57105 0.0
H3494 H 0.38256 0.54696 0.55436 0.0
H3495 H 0.40313 0.57233 0.54762 0.0
H3496 H 0.3922 0.49157 0.50386 0.0
H3497 H 0.43971 0.55385 0.48762 0.0
H3498 H 0.33971 0.51536 0.49907 0.0
H3499 H 0.35258 0.51625 0.52956 0.0
H3500 H 0.35203 0.49101 0.50812 0.0
H3501 H 0.39766 0.59035 0.48182 0.0
H3502 H 0.4288 0.59027 0.48583 0.0
H3503 H 0.41306 0.59467 0.51161 0.0
C3504 C 0.83613 0.95226 0.54175 0.0
C3505 C 0.8331 0.92893 0.54754 0.0
C3506 C 0.85857 0.96527 0.53828 0.0
C3507 C 0.87847 0.95486 0.54125 0.0
C3508 C 0.87561 0.93162 0.54799 0.0
C3509 C 0.85292 0.91884 0.55076 0.0
C3510 C 0.86086 0.9898 0.53058 0.0
C3511 C 0.89645 0.92007 0.55183 0.0
C3512 C 0.9325 0.97381 0.50862 0.0
C3513 C 0.94838 0.98829 0.527 0.0
C3514 C 0.90934 0.96368 0.51275 0.0
C3515 C 0.90212 0.96761 0.53604 0.0
C3516 C 0.91798 0.98259 0.55457 0.0
C3517 C 0.94088 0.99303 0.54971 0.0
C3518 C 0.8928 0.94831 0.49235 0.0
C3519 C 0.91109 0.98678 0.57975 0.0
H3520 H 0.82082 0.96007 0.53911 0.0
H3521 H 0.85068 0.90089 0.55545 0.0
H3522 H 0.87437 0.0027 0.54312 0.0
H3523 H 0.86694 0.99006 0.51232 0.0
H3524 H 0.84387 0.99574 0.53004 0.0
H3525 H 0.89151 0.90266 0.55888 0.0
H3526 H 0.90394 0.91738 0.53448 0.0
H3527 H 0.91064 0.93174 0.56475 0.0
H3528 H 0.93824 0.97035 0.49096 0.0
H3529 H 0.95324 0.00411 0.56396 0.0
H3530 H 0.87577 0.95409 0.49027 0.0
H3531 H 0.88883 0.92972 0.49656 0.0
H3532 H 0.90044 0.94881 0.47482 0.0
H3533 H 0.8944 0.99322 0.57907 0.0
H3534 H 0.92502 -0.00017 0.59176 0.0
H3535 H 0.90783 0.96985 0.58789 0.0
C3536 C 0.85084 0.08729 0.25761 0.0
C3537 C 0.83853 0.06607 0.24419 0.0
C3538 C 0.83988 0.10653 0.26139 0.0
C3539 C 0.81589 0.10424 0.25207 0.0
C3540 C 0.80304 0.08235 0.23975 0.0
C3541 C 0.81461 0.06365 0.23566 0.0
C3542 C 0.85436 0.12972 0.27417 0.0
C3543 C 0.77732 0.07895 0.23003 0.0
C3544 C 0.7842 0.15257 0.27299 0.0
C3545 C 0.78674 0.16689 0.25407 0.0
C3546 C 0.79327 0.13187 0.27252 0.0
C3547 C 0.80512 0.12543 0.2527 0.0
C3548 C 0.80711 0.13951 0.2333 0.0
C3549 C 0.79787 0.15995 0.2342 0.0
C3550 C 0.79067 0.1172 0.29344 0.0
C3551 C 0.81946 0.13325 0.21174 0.0
H3552 H 0.86935 0.08922 0.26417 0.0
H3553 H 0.80495 0.04715 0.22554 0.0
H3554 H 0.85666 0.14315 0.26118 0.0
H3555 H 0.84502 0.1364 0.28887 0.0
H3556 H 0.87214 0.12811 0.28199 0.0
H3557 H 0.76909 0.0601 0.22374 0.0
H3558 H 0.76715 0.08539 0.24411 0.0
H3559 H 0.77576 0.08946 0.21459 0.0
H3560 H 0.77573 0.15786 0.28844 0.0
H3561 H 0.79976 0.17079 0.21939 0.0
H3562 H 0.80838 0.11755 0.30291 0.0
H3563 H 0.78248 0.09847 0.28674 0.0
H3564 H 0.77972 0.12373 0.30672 0.0
H3565 H 0.83778 0.13184 0.2178 0.0
H3566 H 0.8203 0.14655 0.19862 0.0
H3567 H 0.81004 0.11578 0.20227 0.0
C3568 C 0.68465 0.1043 0.02319 0.0
C3569 C 0.70353 0.09273 0.02382 0.0
C3570 C 0.66121 0.09148 0.01901 0.0
C3571 C 0.65657 0.06649 0.0148 0.0
C3572 C 0.67553 0.05464 0.01599 0.0
C3573 C 0.69887 0.06794 0.02076 0.0
C3574 C 0.64143 0.10474 0.0184 0.0
C3575 C 0.6712 0.02803 0.01122 0.0
C3576 C 0.59303 0.03564 0.01836 0.0
C3577 C 0.58338 0.03432 0.99423 0.0
C3578 C 0.61719 0.04519 0.02529 0.0
C3579 C 0.63192 0.05315 0.00754 0.0
C3580 C 0.62245 0.05053 0.98294 0.0
C3581 C 0.59821 0.04135 0.97662 0.0
C3582 C 0.62662 0.04799 0.05173 0.0
C3583 C 0.6377 0.05841 0.96343 0.0
H3584 H 0.68823 0.12348 0.02587 0.0
H3585 H 0.71349 0.05899 0.02118 0.0
H3586 H 0.63211 0.10233 -0.00019 0.0
H3587 H 0.62825 0.09759 0.03052 0.0
H3588 H 0.64797 0.12401 0.02399 0.0
H3589 H 0.68769 0.02144 0.0146 0.0
H3590 H 0.65808 0.01959 0.02277 0.0
H3591 H 0.66367 0.02229 0.99212 0.0
H3592 H 0.58154 0.0302 0.03201 0.0
H3593 H 0.59079 0.04001 0.95788 0.0
H3594 H 0.63121 0.06706 0.05869 0.0
H3595 H 0.64304 0.04118 0.05416 0.0
H3596 H 0.61353 0.03864 0.06283 0.0
H3597 H 0.64333 0.07799 0.96572 0.0
H3598 H 0.62822 0.0527 0.94498 0.0
H3599 H 0.65396 0.05121 0.96493 0.0
C3600 C 0.18351 0.43807 0.28848 0.0
C3601 C 0.18574 0.44476 0.26515 0.0
C3602 C 0.19377 0.41987 0.29644 0.0
C3603 C 0.20612 0.40789 0.2805 0.0
C3604 C 0.20934 0.41534 0.25737 0.0
C3605 C 0.19924 0.43378 0.25006 0.0
C3606 C 0.19041 0.4127 0.32141 0.0
C3607 C 0.22219 0.40288 0.2397 0.0
C3608 C 0.24368 0.36409 0.29605 0.0
C3609 C 0.22807 0.34278 0.28671 0.0
C3610 C 0.23631 0.38565 0.29595 0.0
C3611 C 0.21289 0.38562 0.28629 0.0
C3612 C 0.19662 0.3639 0.27878 0.0
C3613 C 0.20443 0.34277 0.2791 0.0
C3614 C 0.25399 0.40847 0.30453 0.0
C3615 C 0.17143 0.363 0.26851 0.0
H3616 H 0.17333 0.44671 0.30034 0.0
H3617 H 0.20116 0.43894 0.23205 0.0
H3618 H 0.17709 0.39579 0.31994 0.0
H3619 H 0.20718 0.40975 0.33047 0.0
H3620 H 0.18419 0.42623 0.33297 0.0
H3621 H 0.22472 0.412 0.22319 0.0
H3622 H 0.23978 0.4017 0.24837 0.0
H3623 H 0.21194 0.38453 0.23413 0.0
H3624 H 0.26194 0.36409 0.30209 0.0
H3625 H 0.19218 0.32621 0.27234 0.0
H3626 H 0.24577 0.42089 0.31534 0.0
H3627 H 0.26006 0.41714 0.28864 0.0
H3628 H 0.26972 0.40541 0.3156 0.0
H3629 H 0.16045 0.34469 0.26587 0.0
H3630 H 0.17143 0.37015 0.25075 0.0
H3631 H 0.16299 0.37414 0.2806 0.0
C3632 C 0.20981 0.45917 0.05128 0.0
C3633 C 0.2074 0.43583 0.04076 0.0
C3634 C 0.19114 0.47098 0.04855 0.0
C3635 C 0.16925 0.45894 0.03557 0.0
C3636 C 0.16691 0.43556 0.02436 0.0
C3637 C 0.18614 0.42438 0.02683 0.0
C3638 C 0.1946 0.49608 0.06029 0.0
C3639 C 0.14372 0.42191 0.01083 0.0
C3640 C 0.11471 0.47813 0.05545 0.0
C3641 C 0.10848 0.4909 0.03665 0.0
C3642 C 0.13421 0.46745 0.05509 0.0
C3643 C 0.14828 0.47001 0.0357 0.0
C3644 C 0.14241 0.48327 0.01685 0.0
C3645 C 0.12237 0.49332 0.01739 0.0
C3646 C 0.13954 0.45315 0.07535 0.0
C3647 C 0.15732 0.48686 0.99619 0.0
H3648 H 0.22631 0.46818 0.06185 0.0
H3649 H 0.18419 0.40631 0.01875 0.0
H3650 H 0.1886 0.50743 0.04717 0.0
H3651 H 0.18372 0.49647 0.07558 0.0
H3652 H 0.21338 0.50383 0.06731 0.0
H3653 H 0.14522 0.40453 0.00182 0.0
H3654 H 0.13014 0.41881 0.02361 0.0
H3655 H 0.13729 0.43227 0.99695 0.0
H3656 H 0.10393 0.47589 0.07028 0.0
H3657 H 0.11764 0.50316 0.00281 0.0
H3658 H 0.15732 0.46107 0.08507 0.0
H3659 H 0.13979 0.43487 0.06784 0.0
H3660 H 0.12635 0.45219 0.08863 0.0
H3661 H 0.1759 0.49524 0.00333 0.0
H3662 H 0.15075 0.49813 0.98329 0.0
H3663 H 0.15746 0.46952 0.9862 0.0
C3664 C 0.85479 0.92131 0.23569 0.0
C3665 C 0.84523 0.94147 0.23877 0.0
C3666 C 0.84142 0.89883 0.23828 0.0
C3667 C 0.81814 0.89655 0.24478 0.0
C3668 C 0.80817 0.91678 0.24734 0.0
C3669 C 0.82176 0.939 0.24398 0.0
C3670 C 0.85251 0.87763 0.23477 0.0
C3671 C 0.7836 0.91513 0.25478 0.0
C3672 C 0.77924 0.8345 0.23789 0.0
C3673 C 0.78409 0.82749 0.26082 0.0
C3674 C 0.78985 0.85714 0.23244 0.0
C3675 C 0.80505 0.87326 0.2506 0.0
C3676 C 0.80903 0.86655 0.27412 0.0
C3677 C 0.7988 0.84361 0.27882 0.0
C3678 C 0.78567 0.86341 0.20701 0.0
C3679 C 0.8246 0.8834 0.29417 0.0
H3680 H 0.87287 0.92315 0.23143 0.0
H3681 H 0.81438 0.9546 0.24653 0.0
H3682 H 0.85534 0.87057 0.25235 0.0
H3683 H 0.84049 0.8633 0.22229 0.0
H3684 H 0.86981 0.88204 0.2274 0.0
H3685 H 0.77784 0.93217 0.25442 0.0
H3686 H 0.77064 0.90127 0.2427 0.0
H3687 H 0.78323 0.90992 0.27339 0.0
H3688 H 0.768 0.82192 0.22393 0.0
H3689 H 0.80235 0.83821 0.29663 0.0
H3690 H 0.80251 0.86591 0.19869 0.0
H3691 H 0.77973 0.88036 0.20723 0.0
H3692 H 0.77226 0.84948 0.19541 0.0
H3693 H 0.8432 0.88691 0.28993 0.0
H3694 H 0.82399 0.87626 0.31195 0.0
H3695 H 0.8191 0.90059 0.29573 0.0
C3696 C 0.67674 0.08301 0.78225 0.0
C3697 C 0.67541 0.06837 0.7606 0.0
C3698 C 0.68892 0.10674 0.78473 0.0
C3699 C 0.69938 0.11618 0.76481 0.0
C3700 C 0.69828 0.10141 0.74295 0.0
C3701 C 0.68656 0.07754 0.74122 0.0
C3702 C 0.69027 0.12179 0.80855 0.0
C3703 C 0.70873 0.11101 0.72116 0.0
C3704 C 0.70594 0.18248 0.76607 0.0
C3705 C 0.73003 0.19072 0.77398 0.0
C3706 C 0.69598 0.15817 0.7619 0.0
C3707 C 0.71036 0.14182 0.76658 0.0
C3708 C 0.73484 0.15011 0.77422 0.0
C3709 C 0.74449 0.17456 0.77749 0.0
C3710 C 0.66995 0.15001 0.75309 0.0
C3711 C 0.7506 0.13327 0.78003 0.0
H3712 H 0.66832 0.07586 0.79733 0.0
H3713 H 0.68542 0.06625 0.72441 0.0
H3714 H 0.70892 0.13064 0.8149 0.0
H3715 H 0.68027 0.13587 0.80613 0.0
H3716 H 0.6829 0.11127 0.82281 0.0
H3717 H 0.7071 0.097 0.7058 0.0
H3718 H 0.69961 0.1248 0.71512 0.0
H3719 H 0.72772 0.11954 0.72594 0.0
H3720 H 0.69486 0.19509 0.76323 0.0
H3721 H 0.7631 0.18106 0.78389 0.0
H3722 H 0.66043 0.14151 0.76742 0.0
H3723 H 0.6673 0.13657 0.73708 0.0
H3724 H 0.66181 0.16486 0.74814 0.0
H3725 H 0.74476 0.12411 0.79573 0.0
H3726 H 0.76947 0.14247 0.78445 0.0
H3727 H 0.74913 0.11946 0.76457 0.0
loop_
_geom_bond_atom_site_label_1
_geom_bond_atom_site_label_2
_geom_bond_distance
_geom_bond_site_symmetry_2
_ccdc_geom_bond_type
O0 Cd1 2.223 . S
O0 C8 1.315 . S
Cd1 O0 2.223 . S
Cd1 O4 2.297 . S
Cd1 O5 2.439 . S
Cd1 O11 2.240 1_455 S
Cd2 O3 2.240 . S
Cd2 O10 2.223 1_455 S
Cd2 O12 2.297 . S
Cd2 O13 2.439 . S
O3 Cd2 2.240 . S
O3 C8 1.279 . S
O4 Cd1 2.297 . S
O4 C6 1.247 . S
O5 Cd1 2.439 . S
O5 C6 1.208 . S
C6 O4 1.247 . S
C6 O5 1.208 . S
C7 O12 1.247 . S
C7 O13 1.208 . S
C8 O0 1.315 . S
C8 O3 1.279 . S
C9 O10 1.315 . S
C9 O11 1.279 . S
O10 Cd2 2.223 1_655 S
O10 C9 1.315 . S
O11 Cd1 2.240 1_655 S
O11 C9 1.279 . S
O12 Cd2 2.297 . S
O12 C7 1.247 . S
O13 Cd2 2.439 . S
O13 C7 1.208 . S
O14 Cd15 2.223 1_455 S
O14 C22 1.315 1_455 S
Cd15 O14 2.223 1_655 S
Cd15 O18 2.297 . S
Cd15 O19 2.439 . S
Cd15 O25 2.240 1_655 S
Cd16 O17 2.240 1_455 S
Cd16 O24 2.223 . S
Cd16 O26 2.297 . S
Cd16 O27 2.439 . S
O17 Cd16 2.240 1_655 S
O17 C22 1.279 . S
O18 Cd15 2.297 . S
O18 C20 1.247 . S
O19 Cd15 2.439 . S
O19 C20 1.208 . S
C20 O18 1.247 . S
C20 O19 1.208 . S
C21 O26 1.247 . S
C21 O27 1.208 . S
C22 O14 1.315 1_655 S
C22 O17 1.279 . S
C23 O24 1.315 . S
C23 O25 1.279 . S
O24 Cd16 2.223 . S
O24 C23 1.315 . S
O25 Cd15 2.240 1_455 S
O25 C23 1.279 . S
O26 Cd16 2.297 . S
O26 C21 1.247 . S
O27 Cd16 2.439 . S
O27 C21 1.208 . S
O28 Cd29 2.223 . S
O28 C36 1.315 . S
Cd29 O28 2.223 . S
Cd29 O32 2.297 . S
Cd29 O33 2.439 . S
Cd29 O39 2.240 . S
Cd30 O31 2.240 . S
Cd30 O38 2.223 . S
Cd30 O40 2.297 . S
Cd30 O41 2.439 . S
O31 Cd30 2.240 . S
O31 C36 1.279 . S
O32 Cd29 2.297 . S
O32 C34 1.247 . S
O33 Cd29 2.439 . S
O33 C34 1.208 . S
C34 O32 1.247 . S
C34 O33 1.208 . S
C35 O40 1.247 . S
C35 O41 1.208 . S
C36 O28 1.315 . S
C36 O31 1.279 . S
C37 O38 1.315 . S
C37 O39 1.279 . S
O38 Cd30 2.223 . S
O38 C37 1.315 . S
O39 Cd29 2.240 . S
O39 C37 1.279 . S
O40 Cd30 2.297 . S
O40 C35 1.247 . S
O41 Cd30 2.439 . S
O41 C35 1.208 . S
O42 Cd43 2.223 . S
O42 C50 1.315 . S
Cd43 O42 2.223 . S
Cd43 O46 2.297 . S
Cd43 O47 2.439 . S
Cd43 O53 2.240 . S
Cd44 O45 2.240 . S
Cd44 O52 2.223 . S
Cd44 O54 2.297 . S
Cd44 O55 2.439 . S
O45 Cd44 2.240 . S
O45 C50 1.279 . S
O46 Cd43 2.297 . S
O46 C48 1.247 . S
O47 Cd43 2.439 . S
O47 C48 1.208 . S
C48 O46 1.247 . S
C48 O47 1.208 . S
C49 O54 1.247 . S
C49 O55 1.208 . S
C50 O42 1.315 . S
C50 O45 1.279 . S
C51 O52 1.315 . S
C51 O53 1.279 . S
O52 Cd44 2.223 . S
O52 C51 1.315 . S
O53 Cd43 2.240 . S
O53 C51 1.279 . S
O54 Cd44 2.297 . S
O54 C49 1.247 . S
O55 Cd44 2.439 . S
O55 C49 1.208 . S
O56 Cd57 2.223 . S
O56 C64 1.315 . S
Cd57 O56 2.223 . S
Cd57 O60 2.297 1_455 S
Cd57 O61 2.439 1_455 S
Cd57 O67 2.240 . S
Cd58 O59 2.240 . S
Cd58 O66 2.223 . S
Cd58 O68 2.297 . S
Cd58 O69 2.439 . S
O59 Cd58 2.240 . S
O59 C64 1.279 . S
O60 Cd57 2.297 1_655 S
O60 C62 1.247 . S
O61 Cd57 2.439 1_655 S
O61 C62 1.208 . S
C62 O60 1.247 . S
C62 O61 1.208 . S
C63 O68 1.247 . S
C63 O69 1.208 . S
C64 O56 1.315 . S
C64 O59 1.279 . S
C65 O66 1.315 . S
C65 O67 1.279 . S
O66 Cd58 2.223 . S
O66 C65 1.315 . S
O67 Cd57 2.240 . S
O67 C65 1.279 . S
O68 Cd58 2.297 . S
O68 C63 1.247 . S
O69 Cd58 2.439 . S
O69 C63 1.208 . S
O70 Cd71 2.223 . S
O70 C78 1.315 . S
Cd71 O70 2.223 . S
Cd71 O74 2.297 . S
Cd71 O75 2.439 . S
Cd71 O81 2.240 . S
Cd72 O73 2.240 . S
Cd72 O80 2.223 . S
Cd72 O82 2.297 . S
Cd72 O83 2.439 . S
O73 Cd72 2.240 . S
O73 C78 1.279 . S
O74 Cd71 2.297 . S
O74 C76 1.247 . S
O75 Cd71 2.439 . S
O75 C76 1.208 . S
C76 O74 1.247 . S
C76 O75 1.208 . S
C77 O82 1.247 . S
C77 O83 1.208 . S
C78 O70 1.315 . S
C78 O73 1.279 . S
C79 O80 1.315 . S
C79 O81 1.279 . S
O80 Cd72 2.223 . S
O80 C79 1.315 . S
O81 Cd71 2.240 . S
O81 C79 1.279 . S
O82 Cd72 2.297 . S
O82 C77 1.247 . S
O83 Cd72 2.439 . S
O83 C77 1.208 . S
O84 Cd85 2.223 . S
O84 C92 1.315 . S
Cd85 O84 2.223 . S
Cd85 O88 2.297 . S
Cd85 O89 2.439 . S
Cd85 O95 2.240 . S
Cd86 O87 2.240 . S
Cd86 O94 2.223 . S
Cd86 O96 2.297 . S
Cd86 O97 2.439 . S
O87 Cd86 2.240 . S
O87 C92 1.279 . S
O88 Cd85 2.297 . S
O88 C90 1.247 . S
O89 Cd85 2.439 . S
O89 C90 1.208 . S
C90 O88 1.247 . S
C90 O89 1.208 . S
C91 O96 1.247 . S
C91 O97 1.208 . S
C92 O84 1.315 . S
C92 O87 1.279 . S
C93 O94 1.315 . S
C93 O95 1.279 . S
O94 Cd86 2.223 . S
O94 C93 1.315 . S
O95 Cd85 2.240 . S
O95 C93 1.279 . S
O96 Cd86 2.297 . S
O96 C91 1.247 . S
O97 Cd86 2.439 . S
O97 C91 1.208 . S
O98 Cd99 2.223 1_655 S
O98 C106 1.315 . S
Cd99 O98 2.223 1_455 S
Cd99 O102 2.297 . S
Cd99 O103 2.439 . S
Cd99 O109 2.240 1_455 S
Cd100 O101 2.240 1_655 S
Cd100 O108 2.223 . S
Cd100 O110 2.297 . S
Cd100 O111 2.439 1_655 S
O101 Cd100 2.240 1_455 S
O101 C106 1.279 1_455 S
O102 Cd99 2.297 . S
O102 C104 1.247 . S
O103 Cd99 2.439 . S
O103 C104 1.208 . S
C104 O102 1.247 . S
C104 O103 1.208 . S
C105 O110 1.234 1_455 S
C105 O111 1.222 . S
C106 O98 1.315 . S
C106 O101 1.279 1_655 S
C107 O108 1.315 . S
C107 O109 1.279 . S
O108 Cd100 2.223 . S
O108 C107 1.315 . S
O109 Cd99 2.240 1_655 S
O109 C107 1.279 . S
O110 Cd100 2.297 . S
O110 C105 1.234 1_655 S
O111 Cd100 2.439 1_455 S
O111 C105 1.222 . S
O112 Cd113 2.223 . S
O112 C120 1.315 . S
Cd113 O112 2.223 . S
Cd113 O116 2.297 . S
Cd113 O117 2.439 . S
Cd113 O123 2.206 1_545 S
Cd114 O115 2.240 . S
Cd114 O122 2.223 1_545 S
Cd114 O124 2.297 . S
Cd114 O125 2.439 . S
O115 Cd114 2.240 . S
O115 C120 1.279 . S
O116 Cd113 2.297 . S
O116 C118 1.247 . S
O117 Cd113 2.439 . S
O117 C118 1.208 . S
C118 O116 1.247 . S
C118 O117 1.208 . S
C119 O124 1.247 . S
C119 O125 1.208 . S
C120 O112 1.315 . S
C120 O115 1.279 . S
C121 O122 1.315 . S
C121 O123 1.316 . S
O122 Cd114 2.223 1_565 S
O122 C121 1.315 . S
O123 Cd113 2.206 1_565 S
O123 C121 1.316 . S
O124 Cd114 2.297 . S
O124 C119 1.247 . S
O125 Cd114 2.439 . S
O125 C119 1.208 . S
O126 Cd127 2.223 . S
O126 C134 1.315 . S
Cd127 O126 2.223 . S
Cd127 O130 2.297 . S
Cd127 O131 2.439 . S
Cd127 O137 2.240 . S
Cd128 O129 2.240 . S
Cd128 O136 2.223 . S
Cd128 O138 2.297 . S
Cd128 O139 2.439 . S
O129 Cd128 2.240 . S
O129 C134 1.279 . S
O130 Cd127 2.297 . S
O130 C132 1.247 . S
O131 Cd127 2.439 . S
O131 C132 1.208 . S
C132 O130 1.247 . S
C132 O131 1.208 . S
C133 O138 1.247 . S
C133 O139 1.208 . S
C134 O126 1.315 . S
C134 O129 1.279 . S
C135 O136 1.315 . S
C135 O137 1.279 . S
O136 Cd128 2.223 . S
O136 C135 1.315 . S
O137 Cd127 2.240 . S
O137 C135 1.279 . S
O138 Cd128 2.297 . S
O138 C133 1.247 . S
O139 Cd128 2.439 . S
O139 C133 1.208 . S
O140 Cd141 2.223 . S
O140 C148 1.315 . S
Cd141 O140 2.223 . S
Cd141 O144 2.297 1_545 S
Cd141 O145 2.439 1_545 S
Cd141 O151 2.240 . S
Cd142 O143 2.240 1_545 S
Cd142 O150 2.223 . S
Cd142 O152 2.297 . S
Cd142 O153 2.439 . S
O143 Cd142 2.240 1_565 S
O143 C148 1.279 1_565 S
O144 Cd141 2.297 1_565 S
O144 C146 1.247 . S
O145 Cd141 2.439 1_565 S
O145 C146 1.208 . S
C146 O144 1.247 . S
C146 O145 1.208 . S
C147 O152 1.247 . S
C147 O153 1.208 . S
C148 O140 1.315 . S
C148 O143 1.279 1_545 S
C149 O150 1.315 . S
C149 O151 1.279 . S
O150 Cd142 2.223 . S
O150 C149 1.315 . S
O151 Cd141 2.240 . S
O151 C149 1.279 . S
O152 Cd142 2.297 . S
O152 C147 1.247 . S
O153 Cd142 2.439 . S
O153 C147 1.208 . S
O154 Cd155 2.223 . S
O154 C162 1.315 . S
Cd155 O154 2.223 . S
Cd155 O158 2.297 . S
Cd155 O159 2.439 1_554 S
Cd155 O165 2.254 . S
Cd156 O157 2.240 1_556 S
Cd156 O164 2.223 1_556 S
Cd156 O166 2.297 . S
Cd156 O167 2.439 . S
O157 Cd156 2.240 1_554 S
O157 C162 1.279 . S
O158 Cd155 2.297 . S
O158 C160 1.247 . S
O159 Cd155 2.439 1_556 S
O159 C160 1.208 1_556 S
C160 O158 1.247 . S
C160 O159 1.208 1_554 S
C161 O166 1.247 . S
C161 O167 1.208 . S
C162 O154 1.315 . S
C162 O157 1.279 . S
C163 O164 1.315 . S
C163 O165 1.287 . S
O164 Cd156 2.223 1_554 S
O164 C163 1.315 . S
O165 Cd155 2.254 . S
O165 C163 1.287 . S
O166 Cd156 2.297 . S
O166 C161 1.247 . S
O167 Cd156 2.439 . S
O167 C161 1.208 . S
O168 Cd169 2.223 . S
O168 C176 1.315 . S
Cd169 O168 2.223 . S
Cd169 O172 2.297 . S
Cd169 O173 2.439 . S
Cd169 O179 2.240 . S
Cd170 O171 2.240 . S
Cd170 O178 2.223 . S
Cd170 O180 2.297 1_554 S
Cd170 O181 2.439 1_554 S
O171 Cd170 2.240 . S
O171 C176 1.279 . S
O172 Cd169 2.297 . S
O172 C174 1.247 . S
O173 Cd169 2.439 . S
O173 C174 1.208 . S
C174 O172 1.247 . S
C174 O173 1.208 . S
C175 O180 1.247 . S
C175 O181 1.208 . S
C176 O168 1.315 . S
C176 O171 1.279 . S
C177 O178 1.315 . S
C177 O179 1.279 . S
O178 Cd170 2.223 . S
O178 C177 1.315 . S
O179 Cd169 2.240 . S
O179 C177 1.279 . S
O180 Cd170 2.297 1_556 S
O180 C175 1.247 . S
O181 Cd170 2.439 1_556 S
O181 C175 1.208 . S
O182 Cd183 2.223 . S
O182 C190 1.315 . S
Cd183 O182 2.223 . S
Cd183 O186 2.297 . S
Cd183 O187 2.439 . S
Cd183 O193 2.240 . S
Cd184 O185 2.240 . S
Cd184 O192 2.223 . S
Cd184 O194 2.297 1_554 S
Cd184 O195 2.439 1_554 S
O185 Cd184 2.240 . S
O185 C190 1.279 . S
O186 Cd183 2.297 . S
O186 C188 1.247 . S
O187 Cd183 2.439 . S
O187 C188 1.208 . S
C188 O186 1.247 . S
C188 O187 1.208 . S
C189 O194 1.247 . S
C189 O195 1.208 . S
C190 O182 1.315 . S
C190 O185 1.279 . S
C191 O192 1.315 . S
C191 O193 1.279 . S
O192 Cd184 2.223 . S
O192 C191 1.315 . S
O193 Cd183 2.240 . S
O193 C191 1.279 . S
O194 Cd184 2.297 1_556 S
O194 C189 1.247 . S
O195 Cd184 2.439 1_556 S
O195 C189 1.208 . S
O196 Cd197 2.223 . S
O196 C204 1.315 . S
Cd197 O196 2.223 . S
Cd197 O200 2.297 . S
Cd197 O201 2.439 . S
Cd197 O207 2.240 . S
Cd198 O199 2.240 . S
Cd198 O206 2.223 . S
Cd198 O208 2.297 . S
Cd198 O209 2.439 . S
O199 Cd198 2.240 . S
O199 C204 1.279 . S
O200 Cd197 2.297 . S
O200 C202 1.247 . S
O201 Cd197 2.439 . S
O201 C202 1.208 . S
C202 O200 1.247 . S
C202 O201 1.208 . S
C203 O208 1.247 . S
C203 O209 1.208 . S
C204 O196 1.315 . S
C204 O199 1.279 . S
C205 O206 1.315 . S
C205 O207 1.279 . S
O206 Cd198 2.223 . S
O206 C205 1.315 . S
O207 Cd197 2.240 . S
O207 C205 1.279 . S
O208 Cd198 2.297 . S
O208 C203 1.247 . S
O209 Cd198 2.439 . S
O209 C203 1.208 . S
O210 Cd211 2.223 . S
O210 C218 1.315 . S
Cd211 O210 2.223 . S
Cd211 O214 2.297 . S
Cd211 O215 2.439 . S
Cd211 O221 2.240 . S
Cd212 O213 2.240 . S
Cd212 O220 2.223 . S
Cd212 O222 2.297 . S
Cd212 O223 2.439 . S
O213 Cd212 2.240 . S
O213 C218 1.279 . S
O214 Cd211 2.297 . S
O214 C216 1.247 . S
O215 Cd211 2.439 . S
O215 C216 1.208 . S
C216 O214 1.247 . S
C216 O215 1.208 . S
C217 O222 1.247 . S
C217 O223 1.208 . S
C218 O210 1.315 . S
C218 O213 1.279 . S
C219 O220 1.315 . S
C219 O221 1.279 . S
O220 Cd212 2.223 . S
O220 C219 1.315 . S
O221 Cd211 2.240 . S
O221 C219 1.279 . S
O222 Cd212 2.297 . S
O222 C217 1.247 . S
O223 Cd212 2.439 . S
O223 C217 1.208 . S
O224 Cd225 2.219 1_565 S
O224 C232 1.315 1_565 S
Cd225 O224 2.219 1_545 S
Cd225 O228 2.297 . S
Cd225 O229 2.439 . S
Cd225 O235 2.240 1_545 S
Cd226 O227 2.232 1_565 S
Cd226 O234 2.235 . S
Cd226 O236 2.303 . S
Cd226 O237 2.433 1_565 S
O227 Cd226 2.232 1_545 S
O227 C232 1.279 . S
O228 Cd225 2.297 . S
O228 C230 1.247 . S
O229 Cd225 2.439 . S
O229 C230 1.208 . S
C230 O228 1.247 . S
C230 O229 1.208 . S
C231 O236 1.247 1_545 S
C231 O237 1.208 . S
C232 O224 1.315 1_545 S
C232 O227 1.279 . S
C233 O234 1.315 . S
C233 O235 1.279 . S
O234 Cd226 2.235 . S
O234 C233 1.315 . S
O235 Cd225 2.240 1_565 S
O235 C233 1.279 . S
O236 Cd226 2.303 . S
O236 C231 1.247 1_565 S
O237 Cd226 2.433 1_545 S
O237 C231 1.208 . S
O238 Cd239 2.223 . S
O238 C246 1.315 . S
Cd239 O238 2.223 . S
Cd239 O242 2.297 . S
Cd239 O243 2.439 . S
Cd239 O249 2.240 . S
Cd240 O241 2.240 . S
Cd240 O248 2.223 . S
Cd240 O250 2.297 . S
Cd240 O251 2.439 . S
O241 Cd240 2.240 . S
O241 C246 1.279 . S
O242 Cd239 2.297 . S
O242 C244 1.247 . S
O243 Cd239 2.439 . S
O243 C244 1.208 . S
C244 O242 1.247 . S
C244 O243 1.208 . S
C245 O250 1.247 . S
C245 O251 1.208 . S
C246 O238 1.315 . S
C246 O241 1.279 . S
C247 O248 1.315 . S
C247 O249 1.279 . S
O248 Cd240 2.223 . S
O248 C247 1.315 . S
O249 Cd239 2.240 . S
O249 C247 1.279 . S
O250 Cd240 2.297 . S
O250 C245 1.247 . S
O251 Cd240 2.439 . S
O251 C245 1.208 . S
O252 Cd253 2.223 . S
O252 C260 1.315 . S
Cd253 O252 2.223 . S
Cd253 O256 2.297 . S
Cd253 O257 2.439 . S
Cd253 O263 2.240 . S
Cd254 O255 2.240 . S
Cd254 O262 2.223 . S
Cd254 O264 2.297 . S
Cd254 O265 2.439 . S
O255 Cd254 2.240 . S
O255 C260 1.279 . S
O256 Cd253 2.297 . S
O256 C258 1.247 . S
O257 Cd253 2.439 . S
O257 C258 1.208 . S
C258 O256 1.247 . S
C258 O257 1.208 . S
C259 O264 1.247 . S
C259 O265 1.208 . S
C260 O252 1.315 . S
C260 O255 1.279 . S
C261 O262 1.315 . S
C261 O263 1.279 . S
O262 Cd254 2.223 . S
O262 C261 1.315 . S
O263 Cd253 2.240 . S
O263 C261 1.279 . S
O264 Cd254 2.297 . S
O264 C259 1.247 . S
O265 Cd254 2.439 . S
O265 C259 1.208 . S
O266 Cd267 2.223 1_545 S
O266 C274 1.315 1_545 S
Cd267 O266 2.223 1_565 S
Cd267 O270 2.297 . S
Cd267 O271 2.439 . S
Cd267 O277 2.240 1_565 S
Cd268 O269 2.240 1_545 S
Cd268 O276 2.223 . S
Cd268 O278 2.297 . S
Cd268 O279 2.439 1_545 S
O269 Cd268 2.240 1_565 S
O269 C274 1.279 . S
O270 Cd267 2.297 . S
O270 C272 1.247 . S
O271 Cd267 2.439 . S
O271 C272 1.208 . S
C272 O270 1.247 . S
C272 O271 1.208 . S
C273 O278 1.247 . S
C273 O279 1.208 1_545 S
C274 O266 1.315 1_565 S
C274 O269 1.279 . S
C275 O276 1.315 . S
C275 O277 1.279 . S
O276 Cd268 2.223 . S
O276 C275 1.315 . S
O277 Cd267 2.240 1_545 S
O277 C275 1.279 . S
O278 Cd268 2.297 . S
O278 C273 1.247 . S
O279 Cd268 2.439 1_565 S
O279 C273 1.208 1_565 S
O280 Cd281 2.223 . S
O280 C288 1.315 . S
Cd281 O280 2.223 . S
Cd281 O284 2.297 . S
Cd281 O285 2.439 1_554 S
Cd281 O291 2.240 1_554 S
Cd282 O283 2.240 1_556 S
Cd282 O290 2.223 1_556 S
Cd282 O292 2.297 . S
Cd282 O293 2.439 . S
O283 Cd282 2.240 1_554 S
O283 C288 1.279 . S
O284 Cd281 2.297 . S
O284 C286 1.247 . S
O285 Cd281 2.439 1_556 S
O285 C286 1.208 1_556 S
C286 O284 1.247 . S
C286 O285 1.208 1_554 S
C287 O292 1.247 . S
C287 O293 1.208 . S
C288 O280 1.315 . S
C288 O283 1.279 . S
C289 O290 1.315 1_556 S
C289 O291 1.279 . S
O290 Cd282 2.223 1_554 S
O290 C289 1.315 1_554 S
O291 Cd281 2.240 1_556 S
O291 C289 1.279 . S
O292 Cd282 2.297 . S
O292 C287 1.247 . S
O293 Cd282 2.439 . S
O293 C287 1.208 . S
O294 Cd295 2.223 . S
O294 C302 1.315 . S
Cd295 O294 2.223 . S
Cd295 O298 2.297 . S
Cd295 O299 2.439 . S
Cd295 O305 2.240 . S
Cd296 O297 2.240 . S
Cd296 O304 2.223 . S
Cd296 O306 2.297 . S
Cd296 O307 2.439 . S
O297 Cd296 2.240 . S
O297 C302 1.279 . S
O298 Cd295 2.297 . S
O298 C300 1.247 . S
O299 Cd295 2.439 . S
O299 C300 1.208 . S
C300 O298 1.247 . S
C300 O299 1.208 . S
C301 O306 1.247 . S
C301 O307 1.208 . S
C302 O294 1.315 . S
C302 O297 1.279 . S
C303 O304 1.315 . S
C303 O305 1.279 . S
O304 Cd296 2.223 . S
O304 C303 1.315 . S
O305 Cd295 2.240 . S
O305 C303 1.279 . S
O306 Cd296 2.297 . S
O306 C301 1.247 . S
O307 Cd296 2.439 . S
O307 C301 1.208 . S
O308 Cd309 2.223 . S
O308 C316 1.315 . S
Cd309 O308 2.223 . S
Cd309 O312 2.297 . S
Cd309 O313 2.439 . S
Cd309 O319 2.240 . S
Cd310 O311 2.240 . S
Cd310 O318 2.223 . S
Cd310 O320 2.297 . S
Cd310 O321 2.439 . S
O311 Cd310 2.240 . S
O311 C316 1.279 . S
O312 Cd309 2.297 . S
O312 C314 1.247 . S
O313 Cd309 2.439 . S
O313 C314 1.208 . S
C314 O312 1.247 . S
C314 O313 1.208 . S
C315 O320 1.247 . S
C315 O321 1.208 . S
C316 O308 1.315 . S
C316 O311 1.279 . S
C317 O318 1.315 . S
C317 O319 1.279 . S
O318 Cd310 2.223 . S
O318 C317 1.315 . S
O319 Cd309 2.240 . S
O319 C317 1.279 . S
O320 Cd310 2.297 . S
O320 C315 1.247 . S
O321 Cd310 2.439 . S
O321 C315 1.208 . S
O322 Cd323 2.223 . S
O322 C330 1.315 . S
Cd323 O322 2.223 . S
Cd323 O326 2.297 . S
Cd323 O327 2.439 . S
Cd323 O333 2.240 . S
Cd324 O325 2.240 . S
Cd324 O332 2.223 . S
Cd324 O334 2.297 . S
Cd324 O335 2.439 . S
O325 Cd324 2.240 . S
O325 C330 1.279 . S
O326 Cd323 2.297 . S
O326 C328 1.247 . S
O327 Cd323 2.439 . S
O327 C328 1.208 . S
C328 O326 1.247 . S
C328 O327 1.208 . S
C329 O334 1.247 . S
C329 O335 1.208 . S
C330 O322 1.315 . S
C330 O325 1.279 . S
C331 O332 1.315 . S
C331 O333 1.279 . S
O332 Cd324 2.223 . S
O332 C331 1.315 . S
O333 Cd323 2.240 . S
O333 C331 1.279 . S
O334 Cd324 2.297 . S
O334 C329 1.247 . S
O335 Cd324 2.439 . S
O335 C329 1.208 . S
Zn336 O342 1.969 1_565 S
Zn336 O343 1.965 1_565 S
Zn336 O347 2.024 . S
Zn336 O352 1.969 1_565 S
Zn337 O344 1.969 1_654 S
Zn337 O350 1.969 1_554 S
Zn337 O351 1.965 . S
Zn337 O353 2.024 1_655 S
C338 O339 1.229 . S
C338 O347 1.058 . S
O339 C338 1.229 . S
C340 O341 1.251 1_554 S
C340 O353 1.058 . S
O341 C340 1.251 1_556 S
O342 Zn336 1.969 1_545 S
O342 C345 1.267 1_545 S
O343 Zn336 1.965 1_545 S
O343 C354 1.260 1_554 S
O344 Zn337 1.969 1_456 S
O344 C354 1.258 . S
C345 O342 1.267 1_565 S
C345 O346 1.228 . S
O346 C345 1.228 . S
O347 Zn336 2.024 . S
O347 C338 1.058 . S
C348 O349 1.228 . S
C348 O350 1.267 1_554 S
O349 C348 1.228 . S
O350 Zn337 1.969 1_556 S
O350 C348 1.267 1_556 S
O351 Zn337 1.965 . S
O351 C355 1.260 1_655 S
O352 Zn336 1.969 1_545 S
O352 C355 1.258 . S
O353 Zn337 2.024 1_455 S
O353 C340 1.058 . S
C354 O343 1.260 1_556 S
C354 O344 1.258 . S
C355 O351 1.260 1_455 S
C355 O352 1.258 . S
Zn356 O362 1.969 . S
Zn356 O363 1.965 . S
Zn356 O367 2.024 . S
Zn356 O372 1.969 . S
Zn357 O364 1.969 . S
Zn357 O370 1.969 . S
Zn357 O371 1.965 . S
Zn357 O373 2.024 . S
C358 O359 1.229 . S
C358 O367 1.058 . S
O359 C358 1.229 . S
C360 O361 1.229 . S
C360 O373 1.058 . S
O361 C360 1.229 . S
O362 Zn356 1.969 . S
O362 C365 1.267 . S
O363 Zn356 1.965 . S
O363 C374 1.260 . S
O364 Zn357 1.969 . S
O364 C374 1.258 . S
C365 O362 1.267 . S
C365 O366 1.228 . S
O366 C365 1.228 . S
O367 Zn356 2.024 . S
O367 C358 1.058 . S
C368 O369 1.228 . S
C368 O370 1.267 . S
O369 C368 1.228 . S
O370 Zn357 1.969 . S
O370 C368 1.267 . S
O371 Zn357 1.965 . S
O371 C375 1.260 . S
O372 Zn356 1.969 . S
O372 C375 1.258 . S
O373 Zn357 2.024 . S
O373 C360 1.058 . S
C374 O363 1.260 . S
C374 O364 1.258 . S
C375 O371 1.260 . S
C375 O372 1.258 . S
Zn376 O382 1.969 . S
Zn376 O383 1.965 . S
Zn376 O387 2.024 . S
Zn376 O392 1.969 . S
Zn377 O384 1.969 . S
Zn377 O390 1.969 . S
Zn377 O391 1.965 1_565 S
Zn377 O393 2.024 . S
C378 O379 1.229 . S
C378 O387 1.058 . S
O379 C378 1.229 . S
C380 O381 1.229 . S
C380 O393 1.058 . S
O381 C380 1.229 . S
O382 Zn376 1.969 . S
O382 C385 1.267 . S
O383 Zn376 1.965 . S
O383 C394 1.260 . S
O384 Zn377 1.969 . S
O384 C394 1.258 1_565 S
C385 O382 1.267 . S
C385 O386 1.228 . S
O386 C385 1.228 . S
O387 Zn376 2.024 . S
O387 C378 1.058 . S
C388 O389 1.228 . S
C388 O390 1.267 . S
O389 C388 1.228 . S
O390 Zn377 1.969 . S
O390 C388 1.267 . S
O391 Zn377 1.965 1_545 S
O391 C395 1.260 . S
O392 Zn376 1.969 . S
O392 C395 1.258 . S
O393 Zn377 2.024 . S
O393 C380 1.058 . S
C394 O383 1.260 . S
C394 O384 1.258 1_545 S
C395 O391 1.260 . S
C395 O392 1.258 . S
Zn396 O402 1.969 . S
Zn396 O403 1.965 . S
Zn396 O407 2.024 . S
Zn396 O412 1.969 . S
Zn397 O404 1.969 . S
Zn397 O410 1.969 . S
Zn397 O411 1.965 . S
Zn397 O413 2.024 . S
C398 O399 1.229 . S
C398 O407 1.058 . S
O399 C398 1.229 . S
C400 O401 1.229 . S
C400 O413 1.058 . S
O401 C400 1.229 . S
O402 Zn396 1.969 . S
O402 C405 1.267 . S
O403 Zn396 1.965 . S
O403 C414 1.260 . S
O404 Zn397 1.969 . S
O404 C414 1.258 . S
C405 O402 1.267 . S
C405 O406 1.228 . S
O406 C405 1.228 . S
O407 Zn396 2.024 . S
O407 C398 1.058 . S
C408 O409 1.228 . S
C408 O410 1.267 . S
O409 C408 1.228 . S
O410 Zn397 1.969 . S
O410 C408 1.267 . S
O411 Zn397 1.965 . S
O411 C415 1.260 . S
O412 Zn396 1.969 . S
O412 C415 1.258 . S
O413 Zn397 2.024 . S
O413 C400 1.058 . S
C414 O403 1.260 . S
C414 O404 1.258 . S
C415 O411 1.260 . S
C415 O412 1.258 . S
Zn416 O422 1.969 . S
Zn416 O423 1.965 . S
Zn416 O427 2.024 1_565 S
Zn416 O432 1.969 1_565 S
Zn417 O424 1.969 1_455 S
Zn417 O430 1.969 . S
Zn417 O431 1.965 . S
Zn417 O433 2.024 . S
C418 O419 1.229 1_545 S
C418 O427 1.058 . S
O419 C418 1.229 1_565 S
C420 O421 1.229 . S
C420 O433 1.058 1_655 S
O421 C420 1.229 . S
O422 Zn416 1.969 . S
O422 C425 1.267 . S
O423 Zn416 1.965 . S
O423 C434 1.289 1_455 S
O424 Zn417 1.969 1_655 S
O424 C434 1.222 1_545 S
C425 O422 1.267 . S
C425 O426 1.228 . S
O426 C425 1.228 . S
O427 Zn416 2.024 1_545 S
O427 C418 1.058 . S
C428 O429 1.228 . S
C428 O430 1.267 . S
O429 C428 1.228 . S
O430 Zn417 1.969 . S
O430 C428 1.267 . S
O431 Zn417 1.965 . S
O431 C435 1.260 . S
O432 Zn416 1.969 1_545 S
O432 C435 1.258 . S
O433 Zn417 2.024 . S
O433 C420 1.058 1_455 S
C434 O423 1.289 1_655 S
C434 O424 1.222 1_565 S
C435 O431 1.260 . S
C435 O432 1.258 . S
Zn436 O442 1.969 . S
Zn436 O443 1.965 . S
Zn436 O447 2.024 . S
Zn436 O452 1.969 . S
Zn437 O444 1.969 . S
Zn437 O450 1.969 . S
Zn437 O451 1.965 . S
Zn437 O453 2.024 . S
C438 O439 1.229 . S
C438 O447 1.058 . S
O439 C438 1.229 . S
C440 O441 1.229 . S
C440 O453 1.058 . S
O441 C440 1.229 . S
O442 Zn436 1.969 . S
O442 C445 1.267 . S
O443 Zn436 1.965 . S
O443 C454 1.260 . S
O444 Zn437 1.969 . S
O444 C454 1.258 . S
C445 O442 1.267 . S
C445 O446 1.228 . S
O446 C445 1.228 . S
O447 Zn436 2.024 . S
O447 C438 1.058 . S
C448 O449 1.228 . S
C448 O450 1.267 . S
O449 C448 1.228 . S
O450 Zn437 1.969 . S
O450 C448 1.267 . S
O451 Zn437 1.965 . S
O451 C455 1.260 . S
O452 Zn436 1.969 . S
O452 C455 1.258 . S
O453 Zn437 2.024 . S
O453 C440 1.058 . S
C454 O443 1.260 . S
C454 O444 1.258 . S
C455 O451 1.260 . S
C455 O452 1.258 . S
Zn456 O462 1.969 1_554 S
Zn456 O463 1.965 1_545 S
Zn456 O467 2.024 . S
Zn456 O472 1.969 . S
Zn457 O464 1.969 . S
Zn457 O470 1.969 . S
Zn457 O471 1.965 1_565 S
Zn457 O473 2.024 . S
C458 O459 1.229 . S
C458 O467 1.058 . S
O459 C458 1.229 . S
C460 O461 1.229 . S
C460 O473 1.058 . S
O461 C460 1.229 . S
O462 Zn456 1.969 1_556 S
O462 C465 1.267 . S
O463 Zn456 1.965 1_565 S
O463 C474 1.260 . S
O464 Zn457 1.969 . S
O464 C474 1.258 . S
C465 O462 1.267 . S
C465 O466 1.228 . S
O466 C465 1.228 . S
O467 Zn456 2.024 . S
O467 C458 1.058 . S
C468 O469 1.228 1_565 S
C468 O470 1.267 . S
O469 C468 1.228 1_545 S
O470 Zn457 1.969 . S
O470 C468 1.267 . S
O471 Zn457 1.965 1_545 S
O471 C475 1.260 . S
O472 Zn456 1.969 . S
O472 C475 1.258 . S
O473 Zn457 2.024 . S
O473 C460 1.058 . S
C474 O463 1.260 . S
C474 O464 1.258 . S
C475 O471 1.260 . S
C475 O472 1.258 . S
Zn476 O482 1.969 . S
Zn476 O483 1.965 . S
Zn476 O487 2.024 . S
Zn476 O492 1.969 . S
Zn477 O484 1.969 . S
Zn477 O490 1.969 . S
Zn477 O491 1.965 . S
Zn477 O493 2.024 . S
C478 O479 1.229 . S
C478 O487 1.058 . S
O479 C478 1.229 . S
C480 O481 1.229 . S
C480 O493 1.058 . S
O481 C480 1.229 . S
O482 Zn476 1.969 . S
O482 C485 1.267 . S
O483 Zn476 1.965 . S
O483 C494 1.260 . S
O484 Zn477 1.969 . S
O484 C494 1.258 . S
C485 O482 1.267 . S
C485 O486 1.228 . S
O486 C485 1.228 . S
O487 Zn476 2.024 . S
O487 C478 1.058 . S
C488 O489 1.228 . S
C488 O490 1.267 . S
O489 C488 1.228 . S
O490 Zn477 1.969 . S
O490 C488 1.267 . S
O491 Zn477 1.965 . S
O491 C495 1.260 . S
O492 Zn476 1.969 . S
O492 C495 1.258 . S
O493 Zn477 2.024 . S
O493 C480 1.058 . S
C494 O483 1.260 . S
C494 O484 1.258 . S
C495 O491 1.260 . S
C495 O492 1.258 . S
Zn496 O502 1.969 . S
Zn496 O503 1.965 . S
Zn496 O507 2.024 . S
Zn496 O512 1.969 . S
Zn497 O504 1.969 1_556 S
Zn497 O510 1.969 1_556 S
Zn497 O511 1.965 1_556 S
Zn497 O513 2.024 . S
C498 O499 1.229 . S
C498 O507 1.058 . S
O499 C498 1.229 . S
C500 O501 1.229 . S
C500 O513 1.058 . S
O501 C500 1.229 . S
O502 Zn496 1.969 . S
O502 C505 1.267 . S
O503 Zn496 1.965 . S
O503 C514 1.260 . S
O504 Zn497 1.969 1_554 S
O504 C514 1.258 . S
C505 O502 1.267 . S
C505 O506 1.228 . S
O506 C505 1.228 . S
O507 Zn496 2.024 . S
O507 C498 1.058 . S
C508 O509 1.228 . S
C508 O510 1.267 1_556 S
O509 C508 1.228 . S
O510 Zn497 1.969 1_554 S
O510 C508 1.267 1_554 S
O511 Zn497 1.965 1_554 S
O511 C515 1.260 . S
O512 Zn496 1.969 . S
O512 C515 1.258 . S
O513 Zn497 2.024 . S
O513 C500 1.058 . S
C514 O503 1.260 . S
C514 O504 1.258 . S
C515 O511 1.260 . S
C515 O512 1.258 . S
Zn516 O522 1.969 . S
Zn516 O523 1.965 . S
Zn516 O527 2.024 . S
Zn516 O532 1.969 . S
Zn517 O524 1.969 . S
Zn517 O530 1.969 . S
Zn517 O531 1.965 . S
Zn517 O533 2.024 . S
C518 O519 1.229 . S
C518 O527 1.058 . S
O519 C518 1.229 . S
C520 O521 1.229 . S
C520 O533 1.058 . S
O521 C520 1.229 . S
O522 Zn516 1.969 . S
O522 C525 1.267 . S
O523 Zn516 1.965 . S
O523 C534 1.260 . S
O524 Zn517 1.969 . S
O524 C534 1.258 . S
C525 O522 1.267 . S
C525 O526 1.228 . S
O526 C525 1.228 . S
O527 Zn516 2.024 . S
O527 C518 1.058 . S
C528 O529 1.228 . S
C528 O530 1.267 . S
O529 C528 1.228 . S
O530 Zn517 1.969 . S
O530 C528 1.267 . S
O531 Zn517 1.965 . S
O531 C535 1.260 . S
O532 Zn516 1.969 . S
O532 C535 1.258 . S
O533 Zn517 2.024 . S
O533 C520 1.058 . S
C534 O523 1.260 . S
C534 O524 1.258 . S
C535 O531 1.260 . S
C535 O532 1.258 . S
Zn536 O542 1.969 . S
Zn536 O543 1.965 . S
Zn536 O547 2.024 . S
Zn536 O552 1.969 . S
Zn537 O544 1.969 . S
Zn537 O550 1.969 . S
Zn537 O551 1.965 1_655 S
Zn537 O553 2.024 . S
C538 O539 1.229 . S
C538 O547 1.058 . S
O539 C538 1.229 . S
C540 O541 1.229 . S
C540 O553 1.058 . S
O541 C540 1.229 . S
O542 Zn536 1.969 . S
O542 C545 1.267 . S
O543 Zn536 1.965 . S
O543 C554 1.260 . S
O544 Zn537 1.969 . S
O544 C554 1.258 1_655 S
C545 O542 1.267 . S
C545 O546 1.228 . S
O546 C545 1.228 . S
O547 Zn536 2.024 . S
O547 C538 1.058 . S
C548 O549 1.228 . S
C548 O550 1.267 . S
O549 C548 1.228 . S
O550 Zn537 1.969 . S
O550 C548 1.267 . S
O551 Zn537 1.965 1_455 S
O551 C555 1.260 . S
O552 Zn536 1.969 . S
O552 C555 1.258 . S
O553 Zn537 2.024 . S
O553 C540 1.058 . S
C554 O543 1.260 . S
C554 O544 1.258 1_455 S
C555 O551 1.260 . S
C555 O552 1.258 . S
Zn556 O562 1.969 . S
Zn556 O563 1.965 . S
Zn556 O567 2.024 . S
Zn556 O572 1.969 . S
Zn557 O564 1.969 . S
Zn557 O570 1.969 . S
Zn557 O571 1.965 . S
Zn557 O573 2.024 . S
C558 O559 1.229 . S
C558 O567 1.058 . S
O559 C558 1.229 . S
C560 O561 1.229 . S
C560 O573 1.058 . S
O561 C560 1.229 . S
O562 Zn556 1.969 . S
O562 C565 1.267 . S
O563 Zn556 1.965 . S
O563 C574 1.260 . S
O564 Zn557 1.969 . S
O564 C574 1.258 . S
C565 O562 1.267 . S
C565 O566 1.228 . S
O566 C565 1.228 . S
O567 Zn556 2.024 . S
O567 C558 1.058 . S
C568 O569 1.228 . S
C568 O570 1.267 . S
O569 C568 1.228 . S
O570 Zn557 1.969 . S
O570 C568 1.267 . S
O571 Zn557 1.965 . S
O571 C575 1.260 . S
O572 Zn556 1.969 . S
O572 C575 1.258 . S
O573 Zn557 2.024 . S
O573 C560 1.058 . S
C574 O563 1.260 . S
C574 O564 1.258 . S
C575 O571 1.260 . S
C575 O572 1.258 . S
Zn576 O582 1.969 . S
Zn576 O583 1.965 . S
Zn576 O587 2.024 . S
Zn576 O592 1.969 . S
Zn577 O584 1.969 . S
Zn577 O590 1.969 . S
Zn577 O591 1.965 . S
Zn577 O593 2.024 . S
C578 O579 1.229 . S
C578 O587 1.058 . S
O579 C578 1.229 . S
C580 O581 1.229 . S
C580 O593 1.058 . S
O581 C580 1.229 . S
O582 Zn576 1.969 . S
O582 C585 1.267 . S
O583 Zn576 1.965 . S
O583 C594 1.260 . S
O584 Zn577 1.969 . S
O584 C594 1.258 . S
C585 O582 1.267 . S
C585 O586 1.228 . S
O586 C585 1.228 . S
O587 Zn576 2.024 . S
O587 C578 1.058 . S
C588 O589 1.228 . S
C588 O590 1.267 . S
O589 C588 1.228 . S
O590 Zn577 1.969 . S
O590 C588 1.267 . S
O591 Zn577 1.965 . S
O591 C595 1.260 . S
O592 Zn576 1.969 . S
O592 C595 1.258 . S
O593 Zn577 2.024 . S
O593 C580 1.058 . S
C594 O583 1.260 . S
C594 O584 1.258 . S
C595 O591 1.260 . S
C595 O592 1.258 . S
Zn596 O602 1.969 . S
Zn596 O603 1.965 . S
Zn596 O607 2.024 . S
Zn596 O612 1.969 . S
Zn597 O604 1.969 . S
Zn597 O610 1.969 . S
Zn597 O611 1.965 . S
Zn597 O613 2.024 . S
C598 O599 1.229 . S
C598 O607 1.058 . S
O599 C598 1.229 . S
C600 O601 1.229 . S
C600 O613 1.058 . S
O601 C600 1.229 . S
O602 Zn596 1.969 . S
O602 C605 1.267 . S
O603 Zn596 1.965 . S
O603 C614 1.260 . S
O604 Zn597 1.969 . S
O604 C614 1.258 . S
C605 O602 1.267 . S
C605 O606 1.228 . S
O606 C605 1.228 . S
O607 Zn596 2.024 . S
O607 C598 1.058 . S
C608 O609 1.228 . S
C608 O610 1.267 . S
O609 C608 1.228 . S
O610 Zn597 1.969 . S
O610 C608 1.267 . S
O611 Zn597 1.965 . S
O611 C615 1.260 . S
O612 Zn596 1.969 . S
O612 C615 1.258 . S
O613 Zn597 2.024 . S
O613 C600 1.058 . S
C614 O603 1.260 . S
C614 O604 1.258 . S
C615 O611 1.260 . S
C615 O612 1.258 . S
Zn616 O622 1.969 . S
Zn616 O623 1.965 . S
Zn616 O627 2.024 . S
Zn616 O632 1.969 . S
Zn617 O624 1.969 . S
Zn617 O630 1.969 . S
Zn617 O631 1.965 . S
Zn617 O633 2.024 . S
C618 O619 1.229 . S
C618 O627 1.058 . S
O619 C618 1.229 . S
C620 O621 1.229 . S
C620 O633 1.058 . S
O621 C620 1.229 . S
O622 Zn616 1.969 . S
O622 C625 1.267 . S
O623 Zn616 1.965 . S
O623 C634 1.260 . S
O624 Zn617 1.969 . S
O624 C634 1.258 . S
C625 O622 1.267 . S
C625 O626 1.228 . S
O626 C625 1.228 . S
O627 Zn616 2.024 . S
O627 C618 1.058 . S
C628 O629 1.228 . S
C628 O630 1.267 . S
O629 C628 1.228 . S
O630 Zn617 1.969 . S
O630 C628 1.267 . S
O631 Zn617 1.965 . S
O631 C635 1.260 . S
O632 Zn616 1.969 . S
O632 C635 1.258 . S
O633 Zn617 2.024 . S
O633 C620 1.058 . S
C634 O623 1.260 . S
C634 O624 1.258 . S
C635 O631 1.260 . S
C635 O632 1.258 . S
Zn636 O642 1.969 . S
Zn636 O643 1.965 . S
Zn636 O647 2.024 1_655 S
Zn636 O652 1.969 1_655 S
Zn637 O644 1.980 . S
Zn637 O650 1.969 . S
Zn637 O651 1.965 . S
Zn637 O653 2.024 . S
C638 O639 1.229 . S
C638 O647 1.058 . S
O639 C638 1.229 . S
C640 O641 1.229 1_554 S
C640 O653 1.058 . S
O641 C640 1.229 1_556 S
O642 Zn636 1.969 . S
O642 C645 1.267 . S
O643 Zn636 1.965 . S
O643 C654 1.260 1_655 S
O644 Zn637 1.980 . S
O644 C654 1.259 . S
C645 O642 1.267 . S
C645 O646 1.228 . S
O646 C645 1.228 . S
O647 Zn636 2.024 1_455 S
O647 C638 1.058 . S
C648 O649 1.228 . S
C648 O650 1.267 . S
O649 C648 1.228 . S
O650 Zn637 1.969 . S
O650 C648 1.267 . S
O651 Zn637 1.965 . S
O651 C655 1.260 . S
O652 Zn636 1.969 1_455 S
O652 C655 1.258 . S
O653 Zn637 2.024 . S
O653 C640 1.058 . S
C654 O643 1.260 1_455 S
C654 O644 1.259 . S
C655 O651 1.260 . S
C655 O652 1.258 . S
C656 C657 1.391 1_455 S
C656 C658 1.394 . S
C656 H672 0.931 . S
C657 C656 1.391 1_655 S
C657 C661 1.376 . S
C658 C656 1.394 . S
C658 C659 1.369 . S
C658 C662 1.531 . S
C659 C658 1.369 . S
C659 C660 1.410 1_455 S
C659 C667 1.503 . S
C660 C659 1.410 1_655 S
C660 C661 1.392 . S
C660 C663 1.511 . S
C661 C657 1.376 . S
C661 C660 1.392 . S
C661 H673 0.929 . S
C662 C658 1.531 . S
C662 H674 0.960 . S
C662 H675 0.962 . S
C662 H676 0.960 . S
C663 C660 1.511 . S
C663 H677 0.961 . S
C663 H678 0.961 . S
C663 H679 0.961 . S
C664 C665 1.384 . S
C664 C666 1.363 . S
C664 H680 0.931 . S
C665 C664 1.384 . S
C665 C669 1.403 1_556 S
C666 C664 1.363 . S
C666 C667 1.370 . S
C666 C670 1.524 . S
C667 C659 1.503 . S
C667 C666 1.370 . S
C667 C668 1.403 . S
C668 C667 1.403 . S
C668 C669 1.404 1_556 S
C668 C671 1.539 1_556 S
C669 C665 1.403 1_554 S
C669 C668 1.404 1_554 S
C669 H681 0.930 . S
C670 C666 1.524 . S
C670 H682 0.956 . S
C670 H683 0.961 1_455 S
C670 H684 0.961 . S
C671 C668 1.539 1_554 S
C671 H685 0.958 . S
C671 H686 0.961 1_455 S
C671 H687 0.960 1_454 S
H672 C656 0.931 . S
H673 C661 0.929 . S
H674 C662 0.960 . S
H675 C662 0.962 . S
H676 C662 0.960 . S
H677 C663 0.961 . S
H678 C663 0.961 . S
H679 C663 0.961 . S
H680 C664 0.931 . S
H681 C669 0.930 . S
H682 C670 0.956 . S
H683 C670 0.961 1_655 S
H684 C670 0.961 . S
H685 C671 0.958 . S
H686 C671 0.961 1_655 S
H687 C671 0.960 1_656 S
C688 C689 1.391 . S
C688 C690 1.394 . S
C688 H704 0.931 . S
C689 C688 1.391 . S
C689 C693 1.376 . S
C690 C688 1.394 . S
C690 C691 1.369 . S
C690 C694 1.531 . S
C691 C690 1.369 . S
C691 C692 1.410 . S
C691 C699 1.503 . S
C692 C691 1.410 . S
C692 C693 1.392 . S
C692 C695 1.511 . S
C693 C689 1.376 . S
C693 C692 1.392 . S
C693 H705 0.929 . S
C694 C690 1.531 . S
C694 H706 0.960 . S
C694 H707 0.962 . S
C694 H708 0.960 . S
C695 C692 1.511 . S
C695 H709 0.961 . S
C695 H710 0.961 . S
C695 H711 0.961 . S
C696 C697 1.370 . S
C696 C698 1.363 . S
C696 H712 0.931 . S
C697 C696 1.370 . S
C697 C701 1.408 . S
C698 C696 1.363 . S
C698 C699 1.370 . S
C698 C702 1.524 . S
C699 C691 1.503 . S
C699 C698 1.370 . S
C699 C700 1.403 . S
C700 C699 1.403 . S
C700 C701 1.404 . S
C700 C703 1.539 . S
C701 C697 1.408 . S
C701 C700 1.404 . S
C701 H713 0.930 . S
C702 C698 1.524 . S
C702 H714 0.956 . S
C702 H715 0.961 . S
C702 H716 0.961 . S
C703 C700 1.539 . S
C703 H717 0.958 . S
C703 H718 0.961 . S
C703 H719 0.960 . S
H704 C688 0.931 . S
H705 C693 0.929 . S
H706 C694 0.960 . S
H707 C694 0.962 . S
H708 C694 0.960 . S
H709 C695 0.961 . S
H710 C695 0.961 . S
H711 C695 0.961 . S
H712 C696 0.931 . S
H713 C701 0.930 . S
H714 C702 0.956 . S
H715 C702 0.961 . S
H716 C702 0.961 . S
H717 C703 0.958 . S
H718 C703 0.961 . S
H719 C703 0.960 . S
C720 C721 1.391 . S
C720 C722 1.394 . S
C720 H736 0.931 . S
C721 C720 1.391 . S
C721 C725 1.376 . S
C722 C720 1.394 . S
C722 C723 1.369 . S
C722 C726 1.531 . S
C723 C722 1.369 . S
C723 C724 1.410 . S
C723 C731 1.503 . S
C724 C723 1.410 . S
C724 C725 1.392 . S
C724 C727 1.511 . S
C725 C721 1.376 . S
C725 C724 1.392 . S
C725 H737 0.929 . S
C726 C722 1.531 . S
C726 H738 0.960 . S
C726 H739 0.962 . S
C726 H740 0.960 . S
C727 C724 1.511 . S
C727 H741 0.961 . S
C727 H742 0.961 . S
C727 H743 0.961 . S
C728 C729 1.370 . S
C728 C730 1.363 . S
C728 H744 0.931 . S
C729 C728 1.370 . S
C729 C733 1.408 . S
C730 C728 1.363 . S
C730 C731 1.370 . S
C730 C734 1.524 . S
C731 C723 1.503 . S
C731 C730 1.370 . S
C731 C732 1.403 . S
C732 C731 1.403 . S
C732 C733 1.404 . S
C732 C735 1.539 . S
C733 C729 1.408 . S
C733 C732 1.404 . S
C733 H745 0.930 . S
C734 C730 1.524 . S
C734 H746 0.956 . S
C734 H747 0.961 . S
C734 H748 0.961 . S
C735 C732 1.539 . S
C735 H749 0.958 . S
C735 H750 0.961 . S
C735 H751 0.960 . S
H736 C720 0.931 . S
H737 C725 0.929 . S
H738 C726 0.960 . S
H739 C726 0.962 . S
H740 C726 0.960 . S
H741 C727 0.961 . S
H742 C727 0.961 . S
H743 C727 0.961 . S
H744 C728 0.931 . S
H745 C733 0.930 . S
H746 C734 0.956 . S
H747 C734 0.961 . S
H748 C734 0.961 . S
H749 C735 0.958 . S
H750 C735 0.961 . S
H751 C735 0.960 . S
C752 C753 1.391 . S
C752 C754 1.394 . S
C752 H768 0.931 . S
C753 C752 1.391 . S
C753 C757 1.376 . S
C754 C752 1.394 . S
C754 C755 1.369 . S
C754 C758 1.531 . S
C755 C754 1.369 . S
C755 C756 1.410 . S
C755 C763 1.503 . S
C756 C755 1.410 . S
C756 C757 1.392 . S
C756 C759 1.511 . S
C757 C753 1.376 . S
C757 C756 1.392 . S
C757 H769 0.929 . S
C758 C754 1.531 . S
C758 H770 0.960 . S
C758 H771 0.962 . S
C758 H772 0.960 . S
C759 C756 1.511 . S
C759 H773 0.961 . S
C759 H774 0.961 . S
C759 H775 0.961 . S
C760 C761 1.370 . S
C760 C762 1.363 . S
C760 H776 0.931 . S
C761 C760 1.370 . S
C761 C765 1.408 . S
C762 C760 1.363 . S
C762 C763 1.370 . S
C762 C766 1.524 . S
C763 C755 1.503 . S
C763 C762 1.370 . S
C763 C764 1.403 . S
C764 C763 1.403 . S
C764 C765 1.404 . S
C764 C767 1.539 . S
C765 C761 1.408 . S
C765 C764 1.404 . S
C765 H777 0.930 . S
C766 C762 1.524 . S
C766 H778 0.956 . S
C766 H779 0.961 . S
C766 H780 0.961 . S
C767 C764 1.539 . S
C767 H781 0.958 . S
C767 H782 0.961 . S
C767 H783 0.960 . S
H768 C752 0.931 . S
H769 C757 0.929 . S
H770 C758 0.960 . S
H771 C758 0.962 . S
H772 C758 0.960 . S
H773 C759 0.961 . S
H774 C759 0.961 . S
H775 C759 0.961 . S
H776 C760 0.931 . S
H777 C765 0.930 . S
H778 C766 0.956 . S
H779 C766 0.961 . S
H780 C766 0.961 . S
H781 C767 0.958 . S
H782 C767 0.961 . S
H783 C767 0.960 . S
C784 C785 1.391 . S
C784 C786 1.394 . S
C784 H800 0.931 . S
C785 C784 1.391 . S
C785 C789 1.376 1_455 S
C786 C784 1.394 . S
C786 C787 1.369 . S
C786 C790 1.531 . S
C787 C786 1.369 . S
C787 C788 1.410 1_455 S
C787 C795 1.503 . S
C788 C787 1.410 1_655 S
C788 C789 1.392 . S
C788 C791 1.511 . S
C789 C785 1.376 1_655 S
C789 C788 1.392 . S
C789 H801 0.929 . S
C790 C786 1.531 . S
C790 H802 0.960 . S
C790 H803 0.962 . S
C790 H804 0.960 . S
C791 C788 1.511 . S
C791 H805 0.961 . S
C791 H806 0.961 . S
C791 H807 0.961 . S
C792 C793 1.370 . S
C792 C794 1.363 . S
C792 H808 0.931 . S
C793 C792 1.370 . S
C793 C797 1.408 . S
C794 C792 1.363 . S
C794 C795 1.370 . S
C794 C798 1.524 . S
C795 C787 1.503 . S
C795 C794 1.370 . S
C795 C796 1.403 . S
C796 C795 1.403 . S
C796 C797 1.404 . S
C796 C799 1.539 . S
C797 C793 1.408 . S
C797 C796 1.404 . S
C797 H809 0.930 . S
C798 C794 1.524 . S
C798 H810 0.956 . S
C798 H811 0.961 . S
C798 H812 0.961 . S
C799 C796 1.539 . S
C799 H813 0.958 . S
C799 H814 0.961 . S
C799 H815 0.960 . S
H800 C784 0.931 . S
H801 C789 0.929 . S
H802 C790 0.960 . S
H803 C790 0.962 . S
H804 C790 0.960 . S
H805 C791 0.961 . S
H806 C791 0.961 . S
H807 C791 0.961 . S
H808 C792 0.931 . S
H809 C797 0.930 . S
H810 C798 0.956 . S
H811 C798 0.961 . S
H812 C798 0.961 . S
H813 C799 0.958 . S
H814 C799 0.961 . S
H815 C799 0.960 . S
C816 C817 1.391 . S
C816 C818 1.394 . S
C816 H832 0.931 . S
C817 C816 1.391 . S
C817 C821 1.376 . S
C818 C816 1.394 . S
C818 C819 1.369 . S
C818 C822 1.531 . S
C819 C818 1.369 . S
C819 C820 1.410 . S
C819 C827 1.503 . S
C820 C819 1.410 . S
C820 C821 1.392 . S
C820 C823 1.511 . S
C821 C817 1.376 . S
C821 C820 1.392 . S
C821 H833 0.929 . S
C822 C818 1.531 . S
C822 H834 0.960 . S
C822 H835 0.962 . S
C822 H836 0.960 . S
C823 C820 1.511 . S
C823 H837 0.961 . S
C823 H838 0.961 . S
C823 H839 0.961 . S
C824 C825 1.370 . S
C824 C826 1.363 . S
C824 H840 0.931 . S
C825 C824 1.370 . S
C825 C829 1.408 . S
C826 C824 1.363 . S
C826 C827 1.370 . S
C826 C830 1.524 . S
C827 C819 1.503 . S
C827 C826 1.370 . S
C827 C828 1.403 . S
C828 C827 1.403 . S
C828 C829 1.404 . S
C828 C831 1.539 . S
C829 C825 1.408 . S
C829 C828 1.404 . S
C829 H841 0.930 . S
C830 C826 1.524 . S
C830 H842 0.956 . S
C830 H843 0.961 . S
C830 H844 0.961 . S
C831 C828 1.539 . S
C831 H845 0.958 . S
C831 H846 0.961 . S
C831 H847 0.960 . S
H832 C816 0.931 . S
H833 C821 0.929 . S
H834 C822 0.960 . S
H835 C822 0.962 . S
H836 C822 0.960 . S
H837 C823 0.961 . S
H838 C823 0.961 . S
H839 C823 0.961 . S
H840 C824 0.931 . S
H841 C829 0.930 . S
H842 C830 0.956 . S
H843 C830 0.961 . S
H844 C830 0.961 . S
H845 C831 0.958 . S
H846 C831 0.961 . S
H847 C831 0.960 . S
C848 C849 1.391 . S
C848 C850 1.394 . S
C848 H864 0.931 . S
C849 C848 1.391 . S
C849 C853 1.376 . S
C850 C848 1.394 . S
C850 C851 1.369 . S
C850 C854 1.531 . S
C851 C850 1.369 . S
C851 C852 1.410 . S
C851 C859 1.503 . S
C852 C851 1.410 . S
C852 C853 1.392 . S
C852 C855 1.511 . S
C853 C849 1.376 . S
C853 C852 1.392 . S
C853 H865 0.929 . S
C854 C850 1.531 . S
C854 H866 0.960 . S
C854 H867 0.962 . S
C854 H868 0.960 . S
C855 C852 1.511 . S
C855 H869 0.961 . S
C855 H870 0.961 . S
C855 H871 0.961 . S
C856 C857 1.370 . S
C856 C858 1.363 . S
C856 H872 0.931 . S
C857 C856 1.370 . S
C857 C861 1.408 . S
C858 C856 1.363 . S
C858 C859 1.370 . S
C858 C862 1.524 . S
C859 C851 1.503 . S
C859 C858 1.370 . S
C859 C860 1.403 . S
C860 C859 1.403 . S
C860 C861 1.404 . S
C860 C863 1.539 . S
C861 C857 1.408 . S
C861 C860 1.404 . S
C861 H873 0.930 . S
C862 C858 1.524 . S
C862 H874 0.956 . S
C862 H875 0.961 . S
C862 H876 0.961 . S
C863 C860 1.539 . S
C863 H877 0.958 . S
C863 H878 0.961 . S
C863 H879 0.960 . S
H864 C848 0.931 . S
H865 C853 0.929 . S
H866 C854 0.960 . S
H867 C854 0.962 . S
H868 C854 0.960 . S
H869 C855 0.961 . S
H870 C855 0.961 . S
H871 C855 0.961 . S
H872 C856 0.931 . S
H873 C861 0.930 . S
H874 C862 0.956 . S
H875 C862 0.961 . S
H876 C862 0.961 . S
H877 C863 0.958 . S
H878 C863 0.961 . S
H879 C863 0.960 . S
C880 C881 1.391 . S
C880 C882 1.394 . S
C880 H896 0.931 . S
C881 C880 1.391 . S
C881 C885 1.376 . S
C882 C880 1.394 . S
C882 C883 1.369 . S
C882 C886 1.531 . S
C883 C882 1.369 . S
C883 C884 1.410 . S
C883 C891 1.503 . S
C884 C883 1.410 . S
C884 C885 1.392 . S
C884 C887 1.511 . S
C885 C881 1.376 . S
C885 C884 1.392 . S
C885 H897 0.929 . S
C886 C882 1.531 . S
C886 H898 0.960 . S
C886 H899 0.962 . S
C886 H900 0.960 . S
C887 C884 1.511 . S
C887 H901 0.961 . S
C887 H902 0.961 . S
C887 H903 0.961 . S
C888 C889 1.370 . S
C888 C890 1.363 . S
C888 H904 0.931 . S
C889 C888 1.370 . S
C889 C893 1.408 . S
C890 C888 1.363 . S
C890 C891 1.370 . S
C890 C894 1.524 . S
C891 C883 1.503 . S
C891 C890 1.370 . S
C891 C892 1.403 . S
C892 C891 1.403 . S
C892 C893 1.404 . S
C892 C895 1.539 . S
C893 C889 1.408 . S
C893 C892 1.404 . S
C893 H905 0.930 . S
C894 C890 1.524 . S
C894 H906 0.956 . S
C894 H907 0.961 . S
C894 H908 0.961 . S
C895 C892 1.539 . S
C895 H909 0.958 . S
C895 H910 0.961 . S
C895 H911 0.960 . S
H896 C880 0.931 . S
H897 C885 0.929 . S
H898 C886 0.960 . S
H899 C886 0.962 . S
H900 C886 0.960 . S
H901 C887 0.961 . S
H902 C887 0.961 . S
H903 C887 0.961 . S
H904 C888 0.931 . S
H905 C893 0.930 . S
H906 C894 0.956 . S
H907 C894 0.961 . S
H908 C894 0.961 . S
H909 C895 0.958 . S
H910 C895 0.961 . S
H911 C895 0.960 . S
C912 C913 1.391 . S
C912 C914 1.394 . S
C912 H928 0.931 . S
C913 C912 1.391 . S
C913 C917 1.376 . S
C914 C912 1.394 . S
C914 C915 1.369 . S
C914 C918 1.531 . S
C915 C914 1.369 . S
C915 C916 1.410 . S
C915 C923 1.503 . S
C916 C915 1.410 . S
C916 C917 1.392 . S
C916 C919 1.511 . S
C917 C913 1.376 . S
C917 C916 1.392 . S
C917 H929 0.929 . S
C918 C914 1.531 . S
C918 H930 0.960 . S
C918 H931 0.962 . S
C918 H932 0.948 1_545 S
C919 C916 1.511 . S
C919 H933 0.961 . S
C919 H934 0.961 . S
C919 H935 0.961 1_545 S
C920 C921 1.370 . S
C920 C922 1.363 . S
C920 H936 0.931 . S
C921 C920 1.370 . S
C921 C925 1.408 . S
C922 C920 1.363 . S
C922 C923 1.370 . S
C922 C926 1.524 . S
C923 C915 1.503 . S
C923 C922 1.370 . S
C923 C924 1.403 1_545 S
C924 C923 1.403 1_565 S
C924 C925 1.404 1_565 S
C924 C927 1.539 . S
C925 C921 1.408 . S
C925 C924 1.404 1_545 S
C925 H937 0.930 1_545 S
C926 C922 1.524 . S
C926 H938 0.956 . S
C926 H939 0.961 . S
C926 H940 0.961 . S
C927 C924 1.539 . S
C927 H941 0.958 . S
C927 H942 0.961 . S
C927 H943 0.960 . S
H928 C912 0.931 . S
H929 C917 0.929 . S
H930 C918 0.960 . S
H931 C918 0.962 . S
H932 C918 0.948 1_565 S
H933 C919 0.961 . S
H934 C919 0.961 . S
H935 C919 0.961 1_565 S
H936 C920 0.931 . S
H937 C925 0.930 1_565 S
H938 C926 0.956 . S
H939 C926 0.961 . S
H940 C926 0.961 . S
H941 C927 0.958 . S
H942 C927 0.961 . S
H943 C927 0.960 . S
C944 C945 1.391 . S
C944 C946 1.394 . S
C944 H960 0.931 . S
C945 C944 1.391 . S
C945 C949 1.376 . S
C946 C944 1.394 . S
C946 C947 1.369 . S
C946 C950 1.531 . S
C947 C946 1.369 . S
C947 C948 1.410 . S
C947 C955 1.503 . S
C948 C947 1.410 . S
C948 C949 1.392 . S
C948 C951 1.511 . S
C949 C945 1.376 . S
C949 C948 1.392 . S
C949 H961 0.929 . S
C950 C946 1.531 . S
C950 H962 0.960 . S
C950 H963 0.962 . S
C950 H964 0.960 . S
C951 C948 1.511 . S
C951 H965 0.961 . S
C951 H966 0.961 . S
C951 H967 0.961 . S
C952 C953 1.370 . S
C952 C954 1.363 . S
C952 H968 0.931 . S
C953 C952 1.370 . S
C953 C957 1.408 . S
C954 C952 1.363 . S
C954 C955 1.370 . S
C954 C958 1.524 . S
C955 C947 1.503 . S
C955 C954 1.370 . S
C955 C956 1.403 . S
C956 C955 1.403 . S
C956 C957 1.404 . S
C956 C959 1.539 . S
C957 C953 1.408 . S
C957 C956 1.404 . S
C957 H969 0.930 . S
C958 C954 1.524 . S
C958 H970 0.956 . S
C958 H971 0.961 . S
C958 H972 0.961 . S
C959 C956 1.539 . S
C959 H973 0.958 . S
C959 H974 0.961 . S
C959 H975 0.960 . S
H960 C944 0.931 . S
H961 C949 0.929 . S
H962 C950 0.960 . S
H963 C950 0.962 . S
H964 C950 0.960 . S
H965 C951 0.961 . S
H966 C951 0.961 . S
H967 C951 0.961 . S
H968 C952 0.931 . S
H969 C957 0.930 . S
H970 C958 0.956 . S
H971 C958 0.961 . S
H972 C958 0.961 . S
H973 C959 0.958 . S
H974 C959 0.961 . S
H975 C959 0.960 . S
C976 C977 1.391 1_545 S
C976 C978 1.394 . S
C976 H992 0.931 . S
C977 C976 1.391 1_565 S
C977 C981 1.376 . S
C978 C976 1.394 . S
C978 C979 1.369 1_545 S
C978 C982 1.531 . S
C979 C978 1.369 1_565 S
C979 C980 1.410 . S
C979 C987 1.503 . S
C980 C979 1.410 . S
C980 C981 1.392 . S
C980 C983 1.511 . S
C981 C977 1.376 . S
C981 C980 1.392 . S
C981 H993 0.929 . S
C982 C978 1.531 . S
C982 H994 0.960 1_545 S
C982 H995 0.962 . S
C982 H996 0.943 1_545 S
C983 C980 1.511 . S
C983 H997 0.961 . S
C983 H998 0.961 . S
C983 H999 0.961 . S
C984 C985 1.370 . S
C984 C986 1.363 . S
C984 H1000 0.931 . S
C985 C984 1.370 . S
C985 C989 1.408 1_545 S
C986 C984 1.363 . S
C986 C987 1.370 1_545 S
C986 C990 1.524 . S
C987 C979 1.503 . S
C987 C986 1.370 1_565 S
C987 C988 1.403 . S
C988 C987 1.403 . S
C988 C989 1.404 . S
C988 C991 1.539 . S
C989 C985 1.408 1_565 S
C989 C988 1.404 . S
C989 H1001 0.930 . S
C990 C986 1.524 . S
C990 H1002 0.956 . S
C990 H1003 0.961 . S
C990 H1004 0.961 . S
C991 C988 1.539 . S
C991 H1005 0.958 . S
C991 H1006 0.961 . S
C991 H1007 0.960 . S
H992 C976 0.931 . S
H993 C981 0.929 . S
H994 C982 0.960 1_565 S
H995 C982 0.962 . S
H996 C982 0.943 1_565 S
H997 C983 0.961 . S
H998 C983 0.961 . S
H999 C983 0.961 . S
H1000 C984 0.931 . S
H1001 C989 0.930 . S
H1002 C990 0.956 . S
H1003 C990 0.961 . S
H1004 C990 0.961 . S
H1005 C991 0.958 . S
H1006 C991 0.961 . S
H1007 C991 0.960 . S
C1008 C1009 1.391 . S
C1008 C1010 1.394 . S
C1008 H1024 0.931 . S
C1009 C1008 1.391 . S
C1009 C1013 1.376 . S
C1010 C1008 1.394 . S
C1010 C1011 1.369 . S
C1010 C1014 1.531 . S
C1011 C1010 1.369 . S
C1011 C1012 1.410 . S
C1011 C1019 1.503 . S
C1012 C1011 1.410 . S
C1012 C1013 1.392 . S
C1012 C1015 1.511 . S
C1013 C1009 1.376 . S
C1013 C1012 1.392 . S
C1013 H1025 0.929 . S
C1014 C1010 1.531 . S
C1014 H1026 0.960 . S
C1014 H1027 0.962 . S
C1014 H1028 0.960 . S
C1015 C1012 1.511 . S
C1015 H1029 0.961 . S
C1015 H1030 0.961 . S
C1015 H1031 0.961 . S
C1016 C1017 1.370 . S
C1016 C1018 1.363 . S
C1016 H1032 0.931 . S
C1017 C1016 1.370 . S
C1017 C1021 1.408 . S
C1018 C1016 1.363 . S
C1018 C1019 1.370 . S
C1018 C1022 1.524 . S
C1019 C1011 1.503 . S
C1019 C1018 1.370 . S
C1019 C1020 1.403 . S
C1020 C1019 1.403 . S
C1020 C1021 1.404 . S
C1020 C1023 1.539 . S
C1021 C1017 1.408 . S
C1021 C1020 1.404 . S
C1021 H1033 0.930 . S
C1022 C1018 1.524 . S
C1022 H1034 0.956 . S
C1022 H1035 0.961 . S
C1022 H1036 0.961 . S
C1023 C1020 1.539 . S
C1023 H1037 0.958 . S
C1023 H1038 0.961 . S
C1023 H1039 0.960 . S
H1024 C1008 0.931 . S
H1025 C1013 0.929 . S
H1026 C1014 0.960 . S
H1027 C1014 0.962 . S
H1028 C1014 0.960 . S
H1029 C1015 0.961 . S
H1030 C1015 0.961 . S
H1031 C1015 0.961 . S
H1032 C1016 0.931 . S
H1033 C1021 0.930 . S
H1034 C1022 0.956 . S
H1035 C1022 0.961 . S
H1036 C1022 0.961 . S
H1037 C1023 0.958 . S
H1038 C1023 0.961 . S
H1039 C1023 0.960 . S
C1040 C1041 1.391 . S
C1040 C1042 1.394 . S
C1040 H1056 0.931 . S
C1041 C1040 1.391 . S
C1041 C1045 1.376 . S
C1042 C1040 1.394 . S
C1042 C1043 1.369 . S
C1042 C1046 1.531 . S
C1043 C1042 1.369 . S
C1043 C1044 1.410 . S
C1043 C1051 1.503 . S
C1044 C1043 1.410 . S
C1044 C1045 1.392 . S
C1044 C1047 1.511 . S
C1045 C1041 1.376 . S
C1045 C1044 1.392 . S
C1045 H1057 0.929 . S
C1046 C1042 1.531 . S
C1046 H1058 0.960 . S
C1046 H1059 0.962 1_545 S
C1046 H1060 0.960 . S
C1047 C1044 1.511 . S
C1047 H1061 0.961 . S
C1047 H1062 0.961 . S
C1047 H1063 0.961 . S
C1048 C1049 1.370 1_565 S
C1048 C1050 1.363 . S
C1048 H1064 0.931 . S
C1049 C1048 1.370 1_545 S
C1049 C1053 1.408 . S
C1050 C1048 1.363 . S
C1050 C1051 1.370 1_565 S
C1050 C1054 1.524 . S
C1051 C1043 1.503 . S
C1051 C1050 1.370 1_545 S
C1051 C1052 1.403 . S
C1052 C1051 1.403 . S
C1052 C1053 1.404 . S
C1052 C1055 1.539 . S
C1053 C1049 1.408 . S
C1053 C1052 1.404 . S
C1053 H1065 0.930 1_655 S
C1054 C1050 1.524 . S
C1054 H1066 0.956 . S
C1054 H1067 0.961 . S
C1054 H1068 0.961 . S
C1055 C1052 1.539 . S
C1055 H1069 0.958 . S
C1055 H1070 0.961 . S
C1055 H1071 0.960 . S
H1056 C1040 0.931 . S
H1057 C1045 0.929 . S
H1058 C1046 0.960 . S
H1059 C1046 0.962 1_565 S
H1060 C1046 0.960 . S
H1061 C1047 0.961 . S
H1062 C1047 0.961 . S
H1063 C1047 0.961 . S
H1064 C1048 0.931 . S
H1065 C1053 0.930 1_455 S
H1066 C1054 0.956 . S
H1067 C1054 0.961 . S
H1068 C1054 0.961 . S
H1069 C1055 0.958 . S
H1070 C1055 0.961 . S
H1071 C1055 0.960 . S
C1072 C1073 1.391 . S
C1072 C1074 1.394 . S
C1072 H1088 0.931 . S
C1073 C1072 1.391 . S
C1073 C1077 1.376 . S
C1074 C1072 1.394 . S
C1074 C1075 1.369 . S
C1074 C1078 1.531 . S
C1075 C1074 1.369 . S
C1075 C1076 1.410 . S
C1075 C1083 1.503 . S
C1076 C1075 1.410 . S
C1076 C1077 1.392 . S
C1076 C1079 1.511 . S
C1077 C1073 1.376 . S
C1077 C1076 1.392 . S
C1077 H1089 0.929 . S
C1078 C1074 1.531 . S
C1078 H1090 0.960 . S
C1078 H1091 0.962 . S
C1078 H1092 0.960 . S
C1079 C1076 1.511 . S
C1079 H1093 0.961 . S
C1079 H1094 0.961 . S
C1079 H1095 0.961 . S
C1080 C1081 1.370 . S
C1080 C1082 1.363 . S
C1080 H1096 0.931 . S
C1081 C1080 1.370 . S
C1081 C1085 1.408 . S
C1082 C1080 1.363 . S
C1082 C1083 1.370 . S
C1082 C1086 1.524 . S
C1083 C1075 1.503 . S
C1083 C1082 1.370 . S
C1083 C1084 1.403 . S
C1084 C1083 1.403 . S
C1084 C1085 1.404 . S
C1084 C1087 1.539 . S
C1085 C1081 1.408 . S
C1085 C1084 1.404 . S
C1085 H1097 0.930 . S
C1086 C1082 1.524 . S
C1086 H1098 0.956 . S
C1086 H1099 0.961 . S
C1086 H1100 0.961 . S
C1087 C1084 1.539 . S
C1087 H1101 0.958 . S
C1087 H1102 0.961 . S
C1087 H1103 0.960 . S
H1088 C1072 0.931 . S
H1089 C1077 0.929 . S
H1090 C1078 0.960 . S
H1091 C1078 0.962 . S
H1092 C1078 0.960 . S
H1093 C1079 0.961 . S
H1094 C1079 0.961 . S
H1095 C1079 0.961 . S
H1096 C1080 0.931 . S
H1097 C1085 0.930 . S
H1098 C1086 0.956 . S
H1099 C1086 0.961 . S
H1100 C1086 0.961 . S
H1101 C1087 0.958 . S
H1102 C1087 0.961 . S
H1103 C1087 0.960 . S
C1104 C1105 1.391 . S
C1104 C1106 1.394 . S
C1104 H1120 0.931 . S
C1105 C1104 1.391 . S
C1105 C1109 1.376 . S
C1106 C1104 1.394 . S
C1106 C1107 1.369 . S
C1106 C1110 1.531 . S
C1107 C1106 1.369 . S
C1107 C1108 1.410 . S
C1107 C1115 1.503 . S
C1108 C1107 1.410 . S
C1108 C1109 1.392 . S
C1108 C1111 1.511 . S
C1109 C1105 1.376 . S
C1109 C1108 1.392 . S
C1109 H1121 0.929 . S
C1110 C1106 1.531 . S
C1110 H1122 0.960 . S
C1110 H1123 0.962 . S
C1110 H1124 0.960 . S
C1111 C1108 1.511 . S
C1111 H1125 0.961 . S
C1111 H1126 0.961 . S
C1111 H1127 0.961 . S
C1112 C1113 1.384 . S
C1112 C1114 1.361 1_545 S
C1112 H1128 0.918 1_545 S
C1113 C1112 1.384 . S
C1113 C1117 1.408 . S
C1114 C1112 1.361 1_565 S
C1114 C1115 1.349 1_565 S
C1114 C1118 1.548 . S
C1115 C1107 1.503 . S
C1115 C1114 1.349 1_545 S
C1115 C1116 1.403 . S
C1116 C1115 1.403 . S
C1116 C1117 1.404 . S
C1116 C1119 1.539 . S
C1117 C1113 1.408 . S
C1117 C1116 1.404 . S
C1117 H1129 0.930 . S
C1118 C1114 1.548 . S
C1118 H1130 0.956 . S
C1118 H1131 0.961 . S
C1118 H1132 0.961 . S
C1119 C1116 1.539 . S
C1119 H1133 0.958 . S
C1119 H1134 0.961 . S
C1119 H1135 0.960 . S
H1120 C1104 0.931 . S
H1121 C1109 0.929 . S
H1122 C1110 0.960 . S
H1123 C1110 0.962 . S
H1124 C1110 0.960 . S
H1125 C1111 0.961 . S
H1126 C1111 0.961 . S
H1127 C1111 0.961 . S
H1128 C1112 0.918 1_565 S
H1129 C1117 0.930 . S
H1130 C1118 0.956 . S
H1131 C1118 0.961 . S
H1132 C1118 0.961 . S
H1133 C1119 0.958 . S
H1134 C1119 0.961 . S
H1135 C1119 0.960 . S
C1136 C1137 1.391 . S
C1136 C1138 1.394 . S
C1136 H1152 0.931 . S
C1137 C1136 1.391 . S
C1137 C1141 1.376 . S
C1138 C1136 1.394 . S
C1138 C1139 1.369 . S
C1138 C1142 1.531 . S
C1139 C1138 1.369 . S
C1139 C1140 1.410 . S
C1139 C1147 1.503 . S
C1140 C1139 1.410 . S
C1140 C1141 1.392 . S
C1140 C1143 1.511 . S
C1141 C1137 1.376 . S
C1141 C1140 1.392 . S
C1141 H1153 0.929 . S
C1142 C1138 1.531 . S
C1142 H1154 0.960 . S
C1142 H1155 0.962 . S
C1142 H1156 0.960 . S
C1143 C1140 1.511 . S
C1143 H1157 0.961 . S
C1143 H1158 0.961 . S
C1143 H1159 0.961 . S
C1144 C1145 1.370 . S
C1144 C1146 1.363 . S
C1144 H1160 0.931 . S
C1145 C1144 1.370 . S
C1145 C1149 1.408 . S
C1146 C1144 1.363 . S
C1146 C1147 1.370 . S
C1146 C1150 1.524 . S
C1147 C1139 1.503 . S
C1147 C1146 1.370 . S
C1147 C1148 1.403 . S
C1148 C1147 1.403 . S
C1148 C1149 1.404 . S
C1148 C1151 1.539 . S
C1149 C1145 1.408 . S
C1149 C1148 1.404 . S
C1149 H1161 0.930 . S
C1150 C1146 1.524 . S
C1150 H1162 0.956 . S
C1150 H1163 0.961 . S
C1150 H1164 0.961 . S
C1151 C1148 1.539 . S
C1151 H1165 0.958 . S
C1151 H1166 0.961 . S
C1151 H1167 0.960 . S
H1152 C1136 0.931 . S
H1153 C1141 0.929 . S
H1154 C1142 0.960 . S
H1155 C1142 0.962 . S
H1156 C1142 0.960 . S
H1157 C1143 0.961 . S
H1158 C1143 0.961 . S
H1159 C1143 0.961 . S
H1160 C1144 0.931 . S
H1161 C1149 0.930 . S
H1162 C1150 0.956 . S
H1163 C1150 0.961 . S
H1164 C1150 0.961 . S
H1165 C1151 0.958 . S
H1166 C1151 0.961 . S
H1167 C1151 0.960 . S
C1168 C1169 1.365 1_556 S
C1168 C1170 1.387 1_556 S
C1168 H1184 0.964 . S
C1169 C1168 1.365 1_554 S
C1169 C1173 1.376 . S
C1170 C1168 1.387 1_554 S
C1170 C1171 1.369 . S
C1170 C1174 1.531 1_554 S
C1171 C1170 1.369 . S
C1171 C1172 1.410 . S
C1171 C1179 1.503 . S
C1172 C1171 1.410 . S
C1172 C1173 1.392 . S
C1172 C1175 1.511 . S
C1173 C1169 1.376 . S
C1173 C1172 1.392 . S
C1173 H1185 0.929 . S
C1174 C1170 1.531 1_556 S
C1174 H1186 0.960 . S
C1174 H1187 0.962 . S
C1174 H1188 0.960 . S
C1175 C1172 1.511 . S
C1175 H1189 0.961 . S
C1175 H1190 0.961 . S
C1175 H1191 0.961 . S
C1176 C1177 1.370 . S
C1176 C1178 1.363 . S
C1176 H1192 0.931 1_565 S
C1177 C1176 1.370 . S
C1177 C1181 1.408 . S
C1178 C1176 1.363 . S
C1178 C1179 1.370 . S
C1178 C1182 1.524 . S
C1179 C1171 1.503 . S
C1179 C1178 1.370 . S
C1179 C1180 1.403 . S
C1180 C1179 1.403 . S
C1180 C1181 1.404 . S
C1180 C1183 1.557 . S
C1181 C1177 1.408 . S
C1181 C1180 1.404 . S
C1181 H1193 0.930 . S
C1182 C1178 1.524 . S
C1182 H1194 0.956 . S
C1182 H1195 0.961 . S
C1182 H1196 0.961 . S
C1183 C1180 1.557 . S
C1183 H1197 0.924 1_554 S
C1183 H1198 0.970 . S
C1183 H1199 0.968 . S
H1184 C1168 0.964 . S
H1185 C1173 0.929 . S
H1186 C1174 0.960 . S
H1187 C1174 0.962 . S
H1188 C1174 0.960 . S
H1189 C1175 0.961 . S
H1190 C1175 0.961 . S
H1191 C1175 0.961 . S
H1192 C1176 0.931 1_545 S
H1193 C1181 0.930 . S
H1194 C1182 0.956 . S
H1195 C1182 0.961 . S
H1196 C1182 0.961 . S
H1197 C1183 0.924 1_556 S
H1198 C1183 0.970 . S
H1199 C1183 0.968 . S
C1200 C1201 1.391 1_556 S
C1200 C1202 1.394 . S
C1200 H1216 0.931 . S
C1201 C1200 1.391 1_554 S
C1201 C1205 1.376 . S
C1202 C1200 1.394 . S
C1202 C1203 1.369 1_556 S
C1202 C1206 1.531 . S
C1203 C1202 1.369 1_554 S
C1203 C1204 1.410 . S
C1203 C1211 1.503 . S
C1204 C1203 1.410 . S
C1204 C1205 1.392 . S
C1204 C1207 1.511 . S
C1205 C1201 1.376 . S
C1205 C1204 1.392 . S
C1205 H1217 0.929 . S
C1206 C1202 1.531 . S
C1206 H1218 0.960 . S
C1206 H1219 0.962 . S
C1206 H1220 0.960 . S
C1207 C1204 1.511 . S
C1207 H1221 0.961 . S
C1207 H1222 0.961 . S
C1207 H1223 0.961 . S
C1208 C1209 1.370 . S
C1208 C1210 1.363 . S
C1208 H1224 0.931 . S
C1209 C1208 1.370 . S
C1209 C1213 1.408 . S
C1210 C1208 1.363 . S
C1210 C1211 1.370 . S
C1210 C1214 1.524 . S
C1211 C1203 1.503 . S
C1211 C1210 1.370 . S
C1211 C1212 1.403 1_554 S
C1212 C1211 1.403 1_556 S
C1212 C1213 1.404 1_556 S
C1212 C1215 1.539 . S
C1213 C1209 1.408 . S
C1213 C1212 1.404 1_554 S
C1213 H1225 0.930 1_554 S
C1214 C1210 1.524 . S
C1214 H1226 0.956 . S
C1214 H1227 0.961 . S
C1214 H1228 0.961 . S
C1215 C1212 1.539 . S
C1215 H1229 0.958 . S
C1215 H1230 0.961 . S
C1215 H1231 0.960 . S
H1216 C1200 0.931 . S
H1217 C1205 0.929 . S
H1218 C1206 0.960 . S
H1219 C1206 0.962 . S
H1220 C1206 0.960 . S
H1221 C1207 0.961 . S
H1222 C1207 0.961 . S
H1223 C1207 0.961 . S
H1224 C1208 0.931 . S
H1225 C1213 0.930 1_556 S
H1226 C1214 0.956 . S
H1227 C1214 0.961 . S
H1228 C1214 0.961 . S
H1229 C1215 0.958 . S
H1230 C1215 0.961 . S
H1231 C1215 0.960 . S
C1232 C1233 1.391 . S
C1232 C1234 1.394 . S
C1232 H1248 0.931 . S
C1233 C1232 1.391 . S
C1233 C1237 1.376 . S
C1234 C1232 1.394 . S
C1234 C1235 1.369 . S
C1234 C1238 1.531 . S
C1235 C1234 1.369 . S
C1235 C1236 1.410 . S
C1235 C1243 1.503 . S
C1236 C1235 1.410 . S
C1236 C1237 1.392 . S
C1236 C1239 1.511 . S
C1237 C1233 1.376 . S
C1237 C1236 1.392 . S
C1237 H1249 0.929 . S
C1238 C1234 1.531 . S
C1238 H1250 0.960 . S
C1238 H1251 0.962 . S
C1238 H1252 0.960 . S
C1239 C1236 1.511 . S
C1239 H1253 0.961 . S
C1239 H1254 0.961 . S
C1239 H1255 0.961 . S
C1240 C1241 1.370 . S
C1240 C1242 1.363 . S
C1240 H1256 0.931 . S
C1241 C1240 1.370 . S
C1241 C1245 1.408 . S
C1242 C1240 1.363 . S
C1242 C1243 1.370 . S
C1242 C1246 1.524 . S
C1243 C1235 1.503 . S
C1243 C1242 1.370 . S
C1243 C1244 1.403 . S
C1244 C1243 1.403 . S
C1244 C1245 1.404 . S
C1244 C1247 1.539 . S
C1245 C1241 1.408 . S
C1245 C1244 1.404 . S
C1245 H1257 0.930 . S
C1246 C1242 1.524 . S
C1246 H1258 0.956 . S
C1246 H1259 0.961 . S
C1246 H1260 0.961 . S
C1247 C1244 1.539 . S
C1247 H1261 0.958 . S
C1247 H1262 0.961 . S
C1247 H1263 0.960 . S
H1248 C1232 0.931 . S
H1249 C1237 0.929 . S
H1250 C1238 0.960 . S
H1251 C1238 0.962 . S
H1252 C1238 0.960 . S
H1253 C1239 0.961 . S
H1254 C1239 0.961 . S
H1255 C1239 0.961 . S
H1256 C1240 0.931 . S
H1257 C1245 0.930 . S
H1258 C1246 0.956 . S
H1259 C1246 0.961 . S
H1260 C1246 0.961 . S
H1261 C1247 0.958 . S
H1262 C1247 0.961 . S
H1263 C1247 0.960 . S
C1264 C1265 1.391 . S
C1264 C1266 1.394 . S
C1264 H1280 0.931 . S
C1265 C1264 1.391 . S
C1265 C1269 1.376 . S
C1266 C1264 1.394 . S
C1266 C1267 1.369 . S
C1266 C1270 1.531 . S
C1267 C1266 1.369 . S
C1267 C1268 1.410 . S
C1267 C1275 1.503 . S
C1268 C1267 1.410 . S
C1268 C1269 1.392 . S
C1268 C1271 1.511 . S
C1269 C1265 1.376 . S
C1269 C1268 1.392 . S
C1269 H1281 0.929 . S
C1270 C1266 1.531 . S
C1270 H1282 0.960 . S
C1270 H1283 0.962 . S
C1270 H1284 0.960 . S
C1271 C1268 1.511 . S
C1271 H1285 0.961 . S
C1271 H1286 0.961 . S
C1271 H1287 0.961 . S
C1272 C1273 1.370 . S
C1272 C1274 1.363 . S
C1272 H1288 0.931 . S
C1273 C1272 1.370 . S
C1273 C1277 1.408 . S
C1274 C1272 1.363 . S
C1274 C1275 1.370 . S
C1274 C1278 1.524 . S
C1275 C1267 1.503 . S
C1275 C1274 1.370 . S
C1275 C1276 1.403 . S
C1276 C1275 1.403 . S
C1276 C1277 1.404 . S
C1276 C1279 1.539 . S
C1277 C1273 1.408 . S
C1277 C1276 1.404 . S
C1277 H1289 0.930 . S
C1278 C1274 1.524 . S
C1278 H1290 0.956 . S
C1278 H1291 0.961 . S
C1278 H1292 0.961 . S
C1279 C1276 1.539 . S
C1279 H1293 0.958 . S
C1279 H1294 0.961 . S
C1279 H1295 0.960 . S
H1280 C1264 0.931 . S
H1281 C1269 0.929 . S
H1282 C1270 0.960 . S
H1283 C1270 0.962 . S
H1284 C1270 0.960 . S
H1285 C1271 0.961 . S
H1286 C1271 0.961 . S
H1287 C1271 0.961 . S
H1288 C1272 0.931 . S
H1289 C1277 0.930 . S
H1290 C1278 0.956 . S
H1291 C1278 0.961 . S
H1292 C1278 0.961 . S
H1293 C1279 0.958 . S
H1294 C1279 0.961 . S
H1295 C1279 0.960 . S
C1296 C1297 1.391 . S
C1296 C1298 1.394 . S
C1296 H1312 0.931 . S
C1297 C1296 1.391 . S
C1297 C1301 1.376 . S
C1298 C1296 1.394 . S
C1298 C1299 1.369 . S
C1298 C1302 1.531 . S
C1299 C1298 1.369 . S
C1299 C1300 1.410 . S
C1299 C1307 1.503 . S
C1300 C1299 1.410 . S
C1300 C1301 1.392 . S
C1300 C1303 1.511 . S
C1301 C1297 1.376 . S
C1301 C1300 1.392 . S
C1301 H1313 0.929 . S
C1302 C1298 1.531 . S
C1302 H1314 0.960 . S
C1302 H1315 0.962 . S
C1302 H1316 0.960 . S
C1303 C1300 1.511 . S
C1303 H1317 0.961 . S
C1303 H1318 0.961 . S
C1303 H1319 0.961 . S
C1304 C1305 1.370 . S
C1304 C1306 1.363 . S
C1304 H1320 0.931 . S
C1305 C1304 1.370 . S
C1305 C1309 1.408 . S
C1306 C1304 1.363 . S
C1306 C1307 1.370 . S
C1306 C1310 1.524 . S
C1307 C1299 1.503 . S
C1307 C1306 1.370 . S
C1307 C1308 1.403 . S
C1308 C1307 1.403 . S
C1308 C1309 1.404 . S
C1308 C1311 1.539 . S
C1309 C1305 1.408 . S
C1309 C1308 1.404 . S
C1309 H1321 0.930 . S
C1310 C1306 1.524 . S
C1310 H1322 0.956 . S
C1310 H1323 0.961 . S
C1310 H1324 0.961 . S
C1311 C1308 1.539 . S
C1311 H1325 0.958 . S
C1311 H1326 0.961 . S
C1311 H1327 0.960 . S
H1312 C1296 0.931 . S
H1313 C1301 0.929 . S
H1314 C1302 0.960 . S
H1315 C1302 0.962 . S
H1316 C1302 0.960 . S
H1317 C1303 0.961 . S
H1318 C1303 0.961 . S
H1319 C1303 0.961 . S
H1320 C1304 0.931 . S
H1321 C1309 0.930 . S
H1322 C1310 0.956 . S
H1323 C1310 0.961 . S
H1324 C1310 0.961 . S
H1325 C1311 0.958 . S
H1326 C1311 0.961 . S
H1327 C1311 0.960 . S
C1328 C1329 1.391 . S
C1328 C1330 1.394 . S
C1328 H1344 0.931 . S
C1329 C1328 1.391 . S
C1329 C1333 1.376 . S
C1330 C1328 1.394 . S
C1330 C1331 1.369 . S
C1330 C1334 1.531 . S
C1331 C1330 1.369 . S
C1331 C1332 1.410 . S
C1331 C1339 1.503 . S
C1332 C1331 1.410 . S
C1332 C1333 1.392 . S
C1332 C1335 1.511 . S
C1333 C1329 1.376 . S
C1333 C1332 1.392 . S
C1333 H1345 0.929 . S
C1334 C1330 1.531 . S
C1334 H1346 0.960 . S
C1334 H1347 0.962 . S
C1334 H1348 0.960 . S
C1335 C1332 1.511 . S
C1335 H1349 0.961 . S
C1335 H1350 0.961 . S
C1335 H1351 0.961 . S
C1336 C1337 1.370 . S
C1336 C1338 1.363 . S
C1336 H1352 0.931 . S
C1337 C1336 1.370 . S
C1337 C1341 1.408 . S
C1338 C1336 1.363 . S
C1338 C1339 1.370 . S
C1338 C1342 1.524 . S
C1339 C1331 1.503 . S
C1339 C1338 1.370 . S
C1339 C1340 1.403 . S
C1340 C1339 1.403 . S
C1340 C1341 1.404 . S
C1340 C1343 1.539 . S
C1341 C1337 1.408 . S
C1341 C1340 1.404 . S
C1341 H1353 0.930 . S
C1342 C1338 1.524 . S
C1342 H1354 0.956 . S
C1342 H1355 0.961 . S
C1342 H1356 0.961 . S
C1343 C1340 1.539 . S
C1343 H1357 0.958 . S
C1343 H1358 0.961 . S
C1343 H1359 0.960 . S
H1344 C1328 0.931 . S
H1345 C1333 0.929 . S
H1346 C1334 0.960 . S
H1347 C1334 0.962 . S
H1348 C1334 0.960 . S
H1349 C1335 0.961 . S
H1350 C1335 0.961 . S
H1351 C1335 0.961 . S
H1352 C1336 0.931 . S
H1353 C1341 0.930 . S
H1354 C1342 0.956 . S
H1355 C1342 0.961 . S
H1356 C1342 0.961 . S
H1357 C1343 0.958 . S
H1358 C1343 0.961 . S
H1359 C1343 0.960 . S
C1360 C1361 1.391 . S
C1360 C1362 1.394 . S
C1360 H1376 0.931 . S
C1361 C1360 1.391 . S
C1361 C1365 1.376 . S
C1362 C1360 1.394 . S
C1362 C1363 1.369 . S
C1362 C1366 1.531 . S
C1363 C1362 1.369 . S
C1363 C1364 1.410 . S
C1363 C1371 1.503 . S
C1364 C1363 1.410 . S
C1364 C1365 1.392 . S
C1364 C1367 1.511 . S
C1365 C1361 1.376 . S
C1365 C1364 1.392 . S
C1365 H1377 0.929 . S
C1366 C1362 1.531 . S
C1366 H1378 0.960 . S
C1366 H1379 0.962 . S
C1366 H1380 0.960 . S
C1367 C1364 1.511 . S
C1367 H1381 0.961 . S
C1367 H1382 0.961 . S
C1367 H1383 0.961 . S
C1368 C1369 1.370 . S
C1368 C1370 1.363 . S
C1368 H1384 0.931 . S
C1369 C1368 1.370 . S
C1369 C1373 1.408 . S
C1370 C1368 1.363 . S
C1370 C1371 1.370 . S
C1370 C1374 1.524 . S
C1371 C1363 1.503 . S
C1371 C1370 1.370 . S
C1371 C1372 1.403 . S
C1372 C1371 1.403 . S
C1372 C1373 1.404 . S
C1372 C1375 1.539 . S
C1373 C1369 1.408 . S
C1373 C1372 1.404 . S
C1373 H1385 0.930 . S
C1374 C1370 1.524 . S
C1374 H1386 0.956 . S
C1374 H1387 0.961 . S
C1374 H1388 0.961 . S
C1375 C1372 1.539 . S
C1375 H1389 0.958 . S
C1375 H1390 0.961 . S
C1375 H1391 0.960 . S
H1376 C1360 0.931 . S
H1377 C1365 0.929 . S
H1378 C1366 0.960 . S
H1379 C1366 0.962 . S
H1380 C1366 0.960 . S
H1381 C1367 0.961 . S
H1382 C1367 0.961 . S
H1383 C1367 0.961 . S
H1384 C1368 0.931 . S
H1385 C1373 0.930 . S
H1386 C1374 0.956 . S
H1387 C1374 0.961 . S
H1388 C1374 0.961 . S
H1389 C1375 0.958 . S
H1390 C1375 0.961 . S
H1391 C1375 0.960 . S
C1392 C1393 1.391 . S
C1392 C1394 1.394 . S
C1392 H1408 0.931 . S
C1393 C1392 1.391 . S
C1393 C1397 1.376 . S
C1394 C1392 1.394 . S
C1394 C1395 1.369 . S
C1394 C1398 1.531 . S
C1395 C1394 1.369 . S
C1395 C1396 1.410 . S
C1395 C1403 1.503 . S
C1396 C1395 1.410 . S
C1396 C1397 1.392 . S
C1396 C1399 1.511 . S
C1397 C1393 1.376 . S
C1397 C1396 1.392 . S
C1397 H1409 0.929 . S
C1398 C1394 1.531 . S
C1398 H1410 0.960 . S
C1398 H1411 0.962 . S
C1398 H1412 0.960 . S
C1399 C1396 1.511 . S
C1399 H1413 0.961 . S
C1399 H1414 0.961 . S
C1399 H1415 0.961 . S
C1400 C1401 1.370 . S
C1400 C1402 1.363 . S
C1400 H1416 0.931 . S
C1401 C1400 1.370 . S
C1401 C1405 1.408 . S
C1402 C1400 1.363 . S
C1402 C1403 1.370 . S
C1402 C1406 1.524 . S
C1403 C1395 1.503 . S
C1403 C1402 1.370 . S
C1403 C1404 1.403 . S
C1404 C1403 1.403 . S
C1404 C1405 1.404 . S
C1404 C1407 1.539 . S
C1405 C1401 1.408 . S
C1405 C1404 1.404 . S
C1405 H1417 0.930 . S
C1406 C1402 1.524 . S
C1406 H1418 0.956 . S
C1406 H1419 0.961 . S
C1406 H1420 0.961 . S
C1407 C1404 1.539 . S
C1407 H1421 0.958 . S
C1407 H1422 0.961 . S
C1407 H1423 0.960 . S
H1408 C1392 0.931 . S
H1409 C1397 0.929 . S
H1410 C1398 0.960 . S
H1411 C1398 0.962 . S
H1412 C1398 0.960 . S
H1413 C1399 0.961 . S
H1414 C1399 0.961 . S
H1415 C1399 0.961 . S
H1416 C1400 0.931 . S
H1417 C1405 0.930 . S
H1418 C1406 0.956 . S
H1419 C1406 0.961 . S
H1420 C1406 0.961 . S
H1421 C1407 0.958 . S
H1422 C1407 0.961 . S
H1423 C1407 0.960 . S
C1424 C1425 1.391 . S
C1424 C1426 1.394 . S
C1424 H1440 0.931 . S
C1425 C1424 1.391 . S
C1425 C1429 1.376 . S
C1426 C1424 1.394 . S
C1426 C1427 1.369 . S
C1426 C1430 1.531 1_455 S
C1427 C1426 1.369 . S
C1427 C1428 1.410 . S
C1427 C1435 1.503 . S
C1428 C1427 1.410 . S
C1428 C1429 1.392 . S
C1428 C1431 1.511 . S
C1429 C1425 1.376 . S
C1429 C1428 1.392 . S
C1429 H1441 0.929 . S
C1430 C1426 1.531 1_655 S
C1430 H1442 0.960 . S
C1430 H1443 0.962 . S
C1430 H1444 0.960 . S
C1431 C1428 1.511 . S
C1431 H1445 0.961 . S
C1431 H1446 0.961 . S
C1431 H1447 0.961 . S
C1432 C1433 1.370 . S
C1432 C1434 1.363 . S
C1432 H1448 0.931 . S
C1433 C1432 1.370 . S
C1433 C1437 1.408 . S
C1434 C1432 1.363 . S
C1434 C1435 1.370 . S
C1434 C1438 1.524 . S
C1435 C1427 1.503 . S
C1435 C1434 1.370 . S
C1435 C1436 1.403 . S
C1436 C1435 1.403 . S
C1436 C1437 1.404 . S
C1436 C1439 1.539 . S
C1437 C1433 1.408 . S
C1437 C1436 1.404 . S
C1437 H1449 0.930 . S
C1438 C1434 1.524 . S
C1438 H1450 0.956 . S
C1438 H1451 0.961 . S
C1438 H1452 0.961 . S
C1439 C1436 1.539 . S
C1439 H1453 0.958 1_455 S
C1439 H1454 0.961 . S
C1439 H1455 0.960 . S
H1440 C1424 0.931 . S
H1441 C1429 0.929 . S
H1442 C1430 0.960 . S
H1443 C1430 0.962 . S
H1444 C1430 0.960 . S
H1445 C1431 0.961 . S
H1446 C1431 0.961 . S
H1447 C1431 0.961 . S
H1448 C1432 0.931 . S
H1449 C1437 0.930 . S
H1450 C1438 0.956 . S
H1451 C1438 0.961 . S
H1452 C1438 0.961 . S
H1453 C1439 0.958 1_655 S
H1454 C1439 0.961 . S
H1455 C1439 0.960 . S
C1456 C1457 1.391 . S
C1456 C1458 1.394 . S
C1456 H1472 0.931 . S
C1457 C1456 1.391 . S
C1457 C1461 1.376 . S
C1458 C1456 1.394 . S
C1458 C1459 1.369 . S
C1458 C1462 1.531 . S
C1459 C1458 1.369 . S
C1459 C1460 1.410 . S
C1459 C1467 1.503 . S
C1460 C1459 1.410 . S
C1460 C1461 1.392 . S
C1460 C1463 1.511 . S
C1461 C1457 1.376 . S
C1461 C1460 1.392 . S
C1461 H1473 0.929 . S
C1462 C1458 1.531 . S
C1462 H1474 0.960 . S
C1462 H1475 0.962 . S
C1462 H1476 0.960 . S
C1463 C1460 1.511 . S
C1463 H1477 0.961 . S
C1463 H1478 0.961 . S
C1463 H1479 0.961 . S
C1464 C1465 1.370 . S
C1464 C1466 1.363 . S
C1464 H1480 0.931 . S
C1465 C1464 1.370 . S
C1465 C1469 1.408 . S
C1466 C1464 1.363 . S
C1466 C1467 1.370 . S
C1466 C1470 1.524 . S
C1467 C1459 1.503 . S
C1467 C1466 1.370 . S
C1467 C1468 1.403 . S
C1468 C1467 1.403 . S
C1468 C1469 1.404 . S
C1468 C1471 1.539 . S
C1469 C1465 1.408 . S
C1469 C1468 1.404 . S
C1469 H1481 0.930 . S
C1470 C1466 1.524 . S
C1470 H1482 0.956 . S
C1470 H1483 0.961 . S
C1470 H1484 0.961 . S
C1471 C1468 1.539 . S
C1471 H1485 0.958 . S
C1471 H1486 0.961 . S
C1471 H1487 0.960 . S
H1472 C1456 0.931 . S
H1473 C1461 0.929 . S
H1474 C1462 0.960 . S
H1475 C1462 0.962 . S
H1476 C1462 0.960 . S
H1477 C1463 0.961 . S
H1478 C1463 0.961 . S
H1479 C1463 0.961 . S
H1480 C1464 0.931 . S
H1481 C1469 0.930 . S
H1482 C1470 0.956 . S
H1483 C1470 0.961 . S
H1484 C1470 0.961 . S
H1485 C1471 0.958 . S
H1486 C1471 0.961 . S
H1487 C1471 0.960 . S
C1488 C1489 1.391 . S
C1488 C1490 1.394 . S
C1488 H1504 0.931 . S
C1489 C1488 1.391 . S
C1489 C1493 1.376 . S
C1490 C1488 1.394 . S
C1490 C1491 1.369 . S
C1490 C1494 1.531 . S
C1491 C1490 1.369 . S
C1491 C1492 1.410 . S
C1491 C1499 1.503 . S
C1492 C1491 1.410 . S
C1492 C1493 1.392 . S
C1492 C1495 1.511 . S
C1493 C1489 1.376 . S
C1493 C1492 1.392 . S
C1493 H1505 0.929 . S
C1494 C1490 1.531 . S
C1494 H1506 0.960 . S
C1494 H1507 0.962 . S
C1494 H1508 0.960 . S
C1495 C1492 1.511 . S
C1495 H1509 0.961 . S
C1495 H1510 0.961 . S
C1495 H1511 0.961 . S
C1496 C1497 1.370 . S
C1496 C1498 1.363 . S
C1496 H1512 0.931 . S
C1497 C1496 1.370 . S
C1497 C1501 1.408 . S
C1498 C1496 1.363 . S
C1498 C1499 1.370 . S
C1498 C1502 1.524 . S
C1499 C1491 1.503 . S
C1499 C1498 1.370 . S
C1499 C1500 1.403 . S
C1500 C1499 1.403 . S
C1500 C1501 1.404 . S
C1500 C1503 1.539 . S
C1501 C1497 1.408 . S
C1501 C1500 1.404 . S
C1501 H1513 0.930 . S
C1502 C1498 1.524 . S
C1502 H1514 0.956 . S
C1502 H1515 0.961 . S
C1502 H1516 0.961 . S
C1503 C1500 1.539 . S
C1503 H1517 0.958 . S
C1503 H1518 0.961 . S
C1503 H1519 0.960 . S
H1504 C1488 0.931 . S
H1505 C1493 0.929 . S
H1506 C1494 0.960 . S
H1507 C1494 0.962 . S
H1508 C1494 0.960 . S
H1509 C1495 0.961 . S
H1510 C1495 0.961 . S
H1511 C1495 0.961 . S
H1512 C1496 0.931 . S
H1513 C1501 0.930 . S
H1514 C1502 0.956 . S
H1515 C1502 0.961 . S
H1516 C1502 0.961 . S
H1517 C1503 0.958 . S
H1518 C1503 0.961 . S
H1519 C1503 0.960 . S
C1520 C1521 1.391 . S
C1520 C1522 1.394 . S
C1520 H1536 0.931 . S
C1521 C1520 1.391 . S
C1521 C1525 1.376 . S
C1522 C1520 1.394 . S
C1522 C1523 1.369 . S
C1522 C1526 1.531 . S
C1523 C1522 1.369 . S
C1523 C1524 1.410 . S
C1523 C1531 1.503 . S
C1524 C1523 1.410 . S
C1524 C1525 1.392 . S
C1524 C1527 1.511 . S
C1525 C1521 1.376 . S
C1525 C1524 1.392 . S
C1525 H1537 0.929 . S
C1526 C1522 1.531 . S
C1526 H1538 0.960 . S
C1526 H1539 0.962 . S
C1526 H1540 0.960 . S
C1527 C1524 1.511 . S
C1527 H1541 0.961 . S
C1527 H1542 0.961 . S
C1527 H1543 0.961 . S
C1528 C1529 1.370 . S
C1528 C1530 1.363 . S
C1528 H1544 0.931 . S
C1529 C1528 1.370 . S
C1529 C1533 1.408 . S
C1530 C1528 1.363 . S
C1530 C1531 1.370 . S
C1530 C1534 1.524 . S
C1531 C1523 1.503 . S
C1531 C1530 1.370 . S
C1531 C1532 1.403 . S
C1532 C1531 1.403 . S
C1532 C1533 1.404 . S
C1532 C1535 1.539 . S
C1533 C1529 1.408 . S
C1533 C1532 1.404 . S
C1533 H1545 0.930 . S
C1534 C1530 1.524 . S
C1534 H1546 0.956 . S
C1534 H1547 0.961 . S
C1534 H1548 0.961 . S
C1535 C1532 1.539 . S
C1535 H1549 0.958 . S
C1535 H1550 0.961 . S
C1535 H1551 0.960 . S
H1536 C1520 0.931 . S
H1537 C1525 0.929 . S
H1538 C1526 0.960 . S
H1539 C1526 0.962 . S
H1540 C1526 0.960 . S
H1541 C1527 0.961 . S
H1542 C1527 0.961 . S
H1543 C1527 0.961 . S
H1544 C1528 0.931 . S
H1545 C1533 0.930 . S
H1546 C1534 0.956 . S
H1547 C1534 0.961 . S
H1548 C1534 0.961 . S
H1549 C1535 0.958 . S
H1550 C1535 0.961 . S
H1551 C1535 0.960 . S
C1552 C1553 1.391 1_655 S
C1552 C1554 1.394 . S
C1552 H1568 0.931 . S
C1553 C1552 1.391 1_455 S
C1553 C1557 1.376 . S
C1554 C1552 1.394 . S
C1554 C1555 1.369 1_655 S
C1554 C1558 1.531 . S
C1555 C1554 1.369 1_455 S
C1555 C1556 1.410 . S
C1555 C1563 1.503 . S
C1556 C1555 1.410 . S
C1556 C1557 1.392 . S
C1556 C1559 1.511 . S
C1557 C1553 1.376 . S
C1557 C1556 1.392 . S
C1557 H1569 0.929 . S
C1558 C1554 1.531 . S
C1558 H1570 0.960 . S
C1558 H1571 0.962 . S
C1558 H1572 0.960 . S
C1559 C1556 1.511 . S
C1559 H1573 0.961 . S
C1559 H1574 0.961 . S
C1559 H1575 0.961 . S
C1560 C1561 1.370 . S
C1560 C1562 1.363 . S
C1560 H1576 0.931 . S
C1561 C1560 1.370 . S
C1561 C1565 1.408 . S
C1562 C1560 1.363 . S
C1562 C1563 1.370 . S
C1562 C1566 1.524 . S
C1563 C1555 1.503 . S
C1563 C1562 1.370 . S
C1563 C1564 1.403 . S
C1564 C1563 1.403 . S
C1564 C1565 1.404 . S
C1564 C1567 1.539 1_455 S
C1565 C1561 1.408 . S
C1565 C1564 1.404 . S
C1565 H1577 0.931 . S
C1566 C1562 1.524 . S
C1566 H1578 0.956 . S
C1566 H1579 0.961 . S
C1566 H1580 0.961 . S
C1567 C1564 1.539 1_655 S
C1567 H1581 0.958 . S
C1567 H1582 0.961 1_655 S
C1567 H1583 0.960 1_655 S
H1568 C1552 0.931 . S
H1569 C1557 0.929 . S
H1570 C1558 0.960 . S
H1571 C1558 0.962 . S
H1572 C1558 0.960 . S
H1573 C1559 0.961 . S
H1574 C1559 0.961 . S
H1575 C1559 0.961 . S
H1576 C1560 0.931 . S
H1577 C1565 0.931 . S
H1578 C1566 0.956 . S
H1579 C1566 0.961 . S
H1580 C1566 0.961 . S
H1581 C1567 0.958 . S
H1582 C1567 0.961 1_455 S
H1583 C1567 0.960 1_455 S
C1584 C1585 1.391 . S
C1584 C1586 1.394 . S
C1584 H1600 0.931 . S
C1585 C1584 1.391 . S
C1585 C1589 1.376 . S
C1586 C1584 1.394 . S
C1586 C1587 1.369 . S
C1586 C1590 1.531 . S
C1587 C1586 1.369 . S
C1587 C1588 1.410 . S
C1587 C1595 1.503 . S
C1588 C1587 1.410 . S
C1588 C1589 1.392 . S
C1588 C1591 1.511 . S
C1589 C1585 1.376 . S
C1589 C1588 1.392 . S
C1589 H1601 0.929 . S
C1590 C1586 1.531 . S
C1590 H1602 0.960 . S
C1590 H1603 0.962 . S
C1590 H1604 0.960 . S
C1591 C1588 1.511 . S
C1591 H1605 0.961 . S
C1591 H1606 0.961 . S
C1591 H1607 0.961 . S
C1592 C1593 1.370 . S
C1592 C1594 1.363 . S
C1592 H1608 0.931 . S
C1593 C1592 1.370 . S
C1593 C1597 1.408 . S
C1594 C1592 1.363 . S
C1594 C1595 1.370 . S
C1594 C1598 1.524 . S
C1595 C1587 1.503 . S
C1595 C1594 1.370 . S
C1595 C1596 1.403 . S
C1596 C1595 1.403 . S
C1596 C1597 1.404 . S
C1596 C1599 1.539 . S
C1597 C1593 1.408 . S
C1597 C1596 1.404 . S
C1597 H1609 0.930 . S
C1598 C1594 1.524 . S
C1598 H1610 0.956 . S
C1598 H1611 0.961 . S
C1598 H1612 0.961 . S
C1599 C1596 1.539 . S
C1599 H1613 0.958 . S
C1599 H1614 0.961 . S
C1599 H1615 0.960 . S
H1600 C1584 0.931 . S
H1601 C1589 0.929 . S
H1602 C1590 0.960 . S
H1603 C1590 0.962 . S
H1604 C1590 0.960 . S
H1605 C1591 0.961 . S
H1606 C1591 0.961 . S
H1607 C1591 0.961 . S
H1608 C1592 0.931 . S
H1609 C1597 0.930 . S
H1610 C1598 0.956 . S
H1611 C1598 0.961 . S
H1612 C1598 0.961 . S
H1613 C1599 0.958 . S
H1614 C1599 0.961 . S
H1615 C1599 0.960 . S
C1616 C1617 1.391 . S
C1616 C1618 1.394 . S
C1616 H1632 0.931 . S
C1617 C1616 1.391 . S
C1617 C1621 1.376 . S
C1618 C1616 1.394 . S
C1618 C1619 1.369 . S
C1618 C1622 1.531 . S
C1619 C1618 1.369 . S
C1619 C1620 1.410 . S
C1619 C1627 1.503 . S
C1620 C1619 1.410 . S
C1620 C1621 1.392 . S
C1620 C1623 1.511 . S
C1621 C1617 1.376 . S
C1621 C1620 1.392 . S
C1621 H1633 0.929 . S
C1622 C1618 1.531 . S
C1622 H1634 0.945 1_556 S
C1622 H1635 0.962 . S
C1622 H1636 0.960 . S
C1623 C1620 1.511 . S
C1623 H1637 0.961 . S
C1623 H1638 0.961 . S
C1623 H1639 0.961 . S
C1624 C1625 1.369 . S
C1624 C1626 1.363 . S
C1624 H1640 0.931 . S
C1625 C1624 1.369 . S
C1625 C1629 1.409 1_556 S
C1626 C1624 1.363 . S
C1626 C1627 1.370 . S
C1626 C1630 1.524 . S
C1627 C1619 1.503 . S
C1627 C1626 1.370 . S
C1627 C1628 1.403 . S
C1628 C1627 1.403 . S
C1628 C1629 1.404 1_556 S
C1628 C1631 1.539 1_556 S
C1629 C1625 1.409 1_554 S
C1629 C1628 1.404 1_554 S
C1629 H1641 0.930 . S
C1630 C1626 1.524 . S
C1630 H1642 0.956 . S
C1630 H1643 0.961 . S
C1630 H1644 0.961 . S
C1631 C1628 1.539 1_554 S
C1631 H1645 0.958 . S
C1631 H1646 0.961 . S
C1631 H1647 0.960 1_554 S
H1632 C1616 0.931 . S
H1633 C1621 0.929 . S
H1634 C1622 0.945 1_554 S
H1635 C1622 0.962 . S
H1636 C1622 0.960 . S
H1637 C1623 0.961 . S
H1638 C1623 0.961 . S
H1639 C1623 0.961 . S
H1640 C1624 0.931 . S
H1641 C1629 0.930 . S
H1642 C1630 0.956 . S
H1643 C1630 0.961 . S
H1644 C1630 0.961 . S
H1645 C1631 0.958 . S
H1646 C1631 0.961 . S
H1647 C1631 0.960 1_556 S
C1648 C1649 1.391 . S
C1648 C1650 1.394 . S
C1648 H1664 0.931 . S
C1649 C1648 1.391 . S
C1649 C1653 1.376 . S
C1650 C1648 1.394 . S
C1650 C1651 1.369 . S
C1650 C1654 1.531 . S
C1651 C1650 1.369 . S
C1651 C1652 1.410 . S
C1651 C1659 1.503 . S
C1652 C1651 1.410 . S
C1652 C1653 1.392 . S
C1652 C1655 1.511 . S
C1653 C1649 1.376 . S
C1653 C1652 1.392 . S
C1653 H1665 0.929 . S
C1654 C1650 1.531 . S
C1654 H1666 0.960 . S
C1654 H1667 0.962 . S
C1654 H1668 0.960 . S
C1655 C1652 1.511 . S
C1655 H1669 0.961 . S
C1655 H1670 0.961 . S
C1655 H1671 0.961 . S
C1656 C1657 1.370 . S
C1656 C1658 1.363 . S
C1656 H1672 0.931 . S
C1657 C1656 1.370 . S
C1657 C1661 1.408 . S
C1658 C1656 1.363 . S
C1658 C1659 1.370 . S
C1658 C1662 1.524 . S
C1659 C1651 1.503 . S
C1659 C1658 1.370 . S
C1659 C1660 1.403 . S
C1660 C1659 1.403 . S
C1660 C1661 1.404 . S
C1660 C1663 1.539 . S
C1661 C1657 1.408 . S
C1661 C1660 1.404 . S
C1661 H1673 0.930 . S
C1662 C1658 1.524 . S
C1662 H1674 0.956 . S
C1662 H1675 0.961 . S
C1662 H1676 0.961 . S
C1663 C1660 1.539 . S
C1663 H1677 0.958 . S
C1663 H1678 0.961 . S
C1663 H1679 0.960 . S
H1664 C1648 0.931 . S
H1665 C1653 0.929 . S
H1666 C1654 0.960 . S
H1667 C1654 0.962 . S
H1668 C1654 0.960 . S
H1669 C1655 0.961 . S
H1670 C1655 0.961 . S
H1671 C1655 0.961 . S
H1672 C1656 0.931 . S
H1673 C1661 0.930 . S
H1674 C1662 0.956 . S
H1675 C1662 0.961 . S
H1676 C1662 0.961 . S
H1677 C1663 0.958 . S
H1678 C1663 0.961 . S
H1679 C1663 0.960 . S
C1680 C1681 1.391 . S
C1680 C1682 1.394 . S
C1680 H1696 0.931 . S
C1681 C1680 1.391 . S
C1681 C1685 1.396 . S
C1682 C1680 1.394 . S
C1682 C1683 1.369 . S
C1682 C1686 1.531 . S
C1683 C1682 1.369 . S
C1683 C1684 1.434 . S
C1683 C1691 1.503 . S
C1684 C1683 1.434 . S
C1684 C1685 1.392 . S
C1684 C1687 1.491 1_545 S
C1685 C1681 1.396 . S
C1685 C1684 1.392 . S
C1685 H1697 0.907 1_545 S
C1686 C1682 1.531 . S
C1686 H1698 0.960 . S
C1686 H1699 0.962 . S
C1686 H1700 0.960 . S
C1687 C1684 1.491 1_565 S
C1687 H1701 0.961 . S
C1687 H1702 0.961 . S
C1687 H1703 0.961 . S
C1688 C1689 1.370 1_565 S
C1688 C1690 1.363 1_565 S
C1688 H1704 0.931 . S
C1689 C1688 1.370 1_545 S
C1689 C1693 1.408 . S
C1690 C1688 1.363 1_545 S
C1690 C1691 1.381 . S
C1690 C1694 1.514 1_545 S
C1691 C1683 1.503 . S
C1691 C1690 1.381 . S
C1691 C1692 1.403 . S
C1692 C1691 1.403 . S
C1692 C1693 1.404 . S
C1692 C1695 1.539 . S
C1693 C1689 1.408 . S
C1693 C1692 1.404 . S
C1693 H1705 0.930 . S
C1694 C1690 1.514 1_565 S
C1694 H1706 0.956 . S
C1694 H1707 0.961 . S
C1694 H1708 0.961 . S
C1695 C1692 1.539 . S
C1695 H1709 0.958 . S
C1695 H1710 0.961 . S
C1695 H1711 0.960 . S
H1696 C1680 0.931 . S
H1697 C1685 0.907 1_565 S
H1698 C1686 0.960 . S
H1699 C1686 0.962 . S
H1700 C1686 0.960 . S
H1701 C1687 0.961 . S
H1702 C1687 0.961 . S
H1703 C1687 0.961 . S
H1704 C1688 0.931 . S
H1705 C1693 0.930 . S
H1706 C1694 0.956 . S
H1707 C1694 0.961 . S
H1708 C1694 0.961 . S
H1709 C1695 0.958 . S
H1710 C1695 0.961 . S
H1711 C1695 0.960 . S
C1712 C1713 1.391 . S
C1712 C1714 1.394 . S
C1712 H1728 0.931 . S
C1713 C1712 1.391 . S
C1713 C1717 1.376 . S
C1714 C1712 1.394 . S
C1714 C1715 1.369 . S
C1714 C1718 1.531 . S
C1715 C1714 1.369 . S
C1715 C1716 1.410 . S
C1715 C1723 1.503 . S
C1716 C1715 1.410 . S
C1716 C1717 1.392 . S
C1716 C1719 1.511 . S
C1717 C1713 1.376 . S
C1717 C1716 1.392 . S
C1717 H1729 0.929 . S
C1718 C1714 1.531 . S
C1718 H1730 0.960 . S
C1718 H1731 0.962 . S
C1718 H1732 0.960 . S
C1719 C1716 1.511 . S
C1719 H1733 0.961 . S
C1719 H1734 0.961 . S
C1719 H1735 0.961 . S
C1720 C1721 1.370 . S
C1720 C1722 1.363 . S
C1720 H1736 0.931 . S
C1721 C1720 1.370 . S
C1721 C1725 1.408 . S
C1722 C1720 1.363 . S
C1722 C1723 1.370 . S
C1722 C1726 1.524 . S
C1723 C1715 1.503 . S
C1723 C1722 1.370 . S
C1723 C1724 1.403 . S
C1724 C1723 1.403 . S
C1724 C1725 1.404 . S
C1724 C1727 1.539 . S
C1725 C1721 1.408 . S
C1725 C1724 1.404 . S
C1725 H1737 0.930 . S
C1726 C1722 1.524 . S
C1726 H1738 0.956 . S
C1726 H1739 0.961 . S
C1726 H1740 0.961 . S
C1727 C1724 1.539 . S
C1727 H1741 0.958 . S
C1727 H1742 0.961 . S
C1727 H1743 0.960 . S
H1728 C1712 0.931 . S
H1729 C1717 0.929 . S
H1730 C1718 0.960 . S
H1731 C1718 0.962 . S
H1732 C1718 0.960 . S
H1733 C1719 0.961 . S
H1734 C1719 0.961 . S
H1735 C1719 0.961 . S
H1736 C1720 0.931 . S
H1737 C1725 0.930 . S
H1738 C1726 0.956 . S
H1739 C1726 0.961 . S
H1740 C1726 0.961 . S
H1741 C1727 0.958 . S
H1742 C1727 0.961 . S
H1743 C1727 0.960 . S
C1744 C1745 1.391 . S
C1744 C1746 1.394 . S
C1744 H1760 0.931 . S
C1745 C1744 1.391 . S
C1745 C1749 1.376 . S
C1746 C1744 1.394 . S
C1746 C1747 1.369 . S
C1746 C1750 1.531 . S
C1747 C1746 1.369 . S
C1747 C1748 1.410 . S
C1747 C1755 1.503 . S
C1748 C1747 1.410 . S
C1748 C1749 1.392 . S
C1748 C1751 1.511 . S
C1749 C1745 1.376 . S
C1749 C1748 1.392 . S
C1749 H1761 0.929 . S
C1750 C1746 1.531 . S
C1750 H1762 0.960 . S
C1750 H1763 0.962 . S
C1750 H1764 0.960 . S
C1751 C1748 1.511 . S
C1751 H1765 0.961 1_545 S
C1751 H1766 0.949 1_545 S
C1751 H1767 0.961 . S
C1752 C1753 1.370 . S
C1752 C1754 1.363 . S
C1752 H1768 0.931 1_545 S
C1753 C1752 1.370 . S
C1753 C1757 1.408 . S
C1754 C1752 1.363 . S
C1754 C1755 1.370 . S
C1754 C1758 1.524 1_545 S
C1755 C1747 1.503 . S
C1755 C1754 1.370 . S
C1755 C1756 1.403 . S
C1756 C1755 1.403 . S
C1756 C1757 1.404 . S
C1756 C1759 1.539 . S
C1757 C1753 1.408 . S
C1757 C1756 1.404 . S
C1757 H1769 0.930 . S
C1758 C1754 1.524 1_565 S
C1758 H1770 0.956 . S
C1758 H1771 0.961 . S
C1758 H1772 0.961 . S
C1759 C1756 1.539 . S
C1759 H1773 0.958 . S
C1759 H1774 0.961 . S
C1759 H1775 0.960 . S
H1760 C1744 0.931 . S
H1761 C1749 0.929 . S
H1762 C1750 0.960 . S
H1763 C1750 0.962 . S
H1764 C1750 0.960 . S
H1765 C1751 0.961 1_565 S
H1766 C1751 0.949 1_565 S
H1767 C1751 0.961 . S
H1768 C1752 0.931 1_565 S
H1769 C1757 0.930 . S
H1770 C1758 0.956 . S
H1771 C1758 0.961 . S
H1772 C1758 0.961 . S
H1773 C1759 0.958 . S
H1774 C1759 0.961 . S
H1775 C1759 0.960 . S
C1776 C1777 1.391 . S
C1776 C1778 1.394 . S
C1776 H1792 0.931 . S
C1777 C1776 1.391 . S
C1777 C1781 1.376 . S
C1778 C1776 1.394 . S
C1778 C1779 1.369 . S
C1778 C1782 1.531 . S
C1779 C1778 1.369 . S
C1779 C1780 1.410 . S
C1779 C1787 1.503 . S
C1780 C1779 1.410 . S
C1780 C1781 1.392 . S
C1780 C1783 1.511 . S
C1781 C1777 1.376 . S
C1781 C1780 1.392 . S
C1781 H1793 0.929 . S
C1782 C1778 1.531 . S
C1782 H1794 0.960 . S
C1782 H1795 0.962 . S
C1782 H1796 0.960 . S
C1783 C1780 1.511 . S
C1783 H1797 0.961 . S
C1783 H1798 0.961 . S
C1783 H1799 0.961 . S
C1784 C1785 1.370 . S
C1784 C1786 1.363 . S
C1784 H1800 0.931 . S
C1785 C1784 1.370 . S
C1785 C1789 1.408 . S
C1786 C1784 1.363 . S
C1786 C1787 1.370 . S
C1786 C1790 1.524 . S
C1787 C1779 1.503 . S
C1787 C1786 1.370 . S
C1787 C1788 1.403 . S
C1788 C1787 1.403 . S
C1788 C1789 1.404 . S
C1788 C1791 1.539 . S
C1789 C1785 1.408 . S
C1789 C1788 1.404 . S
C1789 H1801 0.930 . S
C1790 C1786 1.524 . S
C1790 H1802 0.956 . S
C1790 H1803 0.961 . S
C1790 H1804 0.961 . S
C1791 C1788 1.539 . S
C1791 H1805 0.958 . S
C1791 H1806 0.961 . S
C1791 H1807 0.960 . S
H1792 C1776 0.931 . S
H1793 C1781 0.929 . S
H1794 C1782 0.960 . S
H1795 C1782 0.962 . S
H1796 C1782 0.960 . S
H1797 C1783 0.961 . S
H1798 C1783 0.961 . S
H1799 C1783 0.961 . S
H1800 C1784 0.931 . S
H1801 C1789 0.930 . S
H1802 C1790 0.956 . S
H1803 C1790 0.961 . S
H1804 C1790 0.961 . S
H1805 C1791 0.958 . S
H1806 C1791 0.961 . S
H1807 C1791 0.960 . S
C1808 C1809 1.391 . S
C1808 C1810 1.394 . S
C1808 H1824 0.931 . S
C1809 C1808 1.391 . S
C1809 C1813 1.376 1_545 S
C1810 C1808 1.394 . S
C1810 C1811 1.369 . S
C1810 C1814 1.531 . S
C1811 C1810 1.369 . S
C1811 C1812 1.410 1_545 S
C1811 C1819 1.503 . S
C1812 C1811 1.410 1_565 S
C1812 C1813 1.392 . S
C1812 C1815 1.511 . S
C1813 C1809 1.376 1_565 S
C1813 C1812 1.392 . S
C1813 H1825 0.929 . S
C1814 C1810 1.531 . S
C1814 H1826 0.960 . S
C1814 H1827 0.962 . S
C1814 H1828 0.960 . S
C1815 C1812 1.511 . S
C1815 H1829 0.961 . S
C1815 H1830 0.961 . S
C1815 H1831 0.961 . S
C1816 C1817 1.370 . S
C1816 C1818 1.363 . S
C1816 H1832 0.931 . S
C1817 C1816 1.370 . S
C1817 C1821 1.408 . S
C1818 C1816 1.363 . S
C1818 C1819 1.370 . S
C1818 C1822 1.524 1_545 S
C1819 C1811 1.503 . S
C1819 C1818 1.370 . S
C1819 C1820 1.403 . S
C1820 C1819 1.403 . S
C1820 C1821 1.404 . S
C1820 C1823 1.539 . S
C1821 C1817 1.408 . S
C1821 C1820 1.404 . S
C1821 H1833 0.930 . S
C1822 C1818 1.524 1_565 S
C1822 H1834 0.956 1_565 S
C1822 H1835 0.961 . S
C1822 H1836 0.961 . S
C1823 C1820 1.539 . S
C1823 H1837 0.958 . S
C1823 H1838 0.961 . S
C1823 H1839 0.960 . S
H1824 C1808 0.931 . S
H1825 C1813 0.929 . S
H1826 C1814 0.960 . S
H1827 C1814 0.962 . S
H1828 C1814 0.960 . S
H1829 C1815 0.961 . S
H1830 C1815 0.961 . S
H1831 C1815 0.961 . S
H1832 C1816 0.931 . S
H1833 C1821 0.930 . S
H1834 C1822 0.956 1_545 S
H1835 C1822 0.961 . S
H1836 C1822 0.961 . S
H1837 C1823 0.958 . S
H1838 C1823 0.961 . S
H1839 C1823 0.960 . S
C1840 C1841 1.391 . S
C1840 C1842 1.394 . S
C1840 H1856 0.931 . S
C1841 C1840 1.391 . S
C1841 C1845 1.376 . S
C1842 C1840 1.394 . S
C1842 C1843 1.369 . S
C1842 C1846 1.531 . S
C1843 C1842 1.369 . S
C1843 C1844 1.410 . S
C1843 C1851 1.503 . S
C1844 C1843 1.410 . S
C1844 C1845 1.392 . S
C1844 C1847 1.511 . S
C1845 C1841 1.376 . S
C1845 C1844 1.392 . S
C1845 H1857 0.929 . S
C1846 C1842 1.531 . S
C1846 H1858 0.960 . S
C1846 H1859 0.962 . S
C1846 H1860 0.960 . S
C1847 C1844 1.511 . S
C1847 H1861 0.961 . S
C1847 H1862 0.961 . S
C1847 H1863 0.961 . S
C1848 C1849 1.370 . S
C1848 C1850 1.363 . S
C1848 H1864 0.931 . S
C1849 C1848 1.370 . S
C1849 C1853 1.408 . S
C1850 C1848 1.363 . S
C1850 C1851 1.370 . S
C1850 C1854 1.524 . S
C1851 C1843 1.503 . S
C1851 C1850 1.370 . S
C1851 C1852 1.403 . S
C1852 C1851 1.403 . S
C1852 C1853 1.404 . S
C1852 C1855 1.539 . S
C1853 C1849 1.408 . S
C1853 C1852 1.404 . S
C1853 H1865 0.930 . S
C1854 C1850 1.524 . S
C1854 H1866 0.956 . S
C1854 H1867 0.961 . S
C1854 H1868 0.961 . S
C1855 C1852 1.539 . S
C1855 H1869 0.958 . S
C1855 H1870 0.961 . S
C1855 H1871 0.960 . S
H1856 C1840 0.931 . S
H1857 C1845 0.929 . S
H1858 C1846 0.960 . S
H1859 C1846 0.962 . S
H1860 C1846 0.960 . S
H1861 C1847 0.961 . S
H1862 C1847 0.961 . S
H1863 C1847 0.961 . S
H1864 C1848 0.931 . S
H1865 C1853 0.930 . S
H1866 C1854 0.956 . S
H1867 C1854 0.961 . S
H1868 C1854 0.961 . S
H1869 C1855 0.958 . S
H1870 C1855 0.961 . S
H1871 C1855 0.960 . S
C1872 C1873 1.391 . S
C1872 C1874 1.394 . S
C1872 H1888 0.931 . S
C1873 C1872 1.391 . S
C1873 C1877 1.377 1_545 S
C1874 C1872 1.394 . S
C1874 C1875 1.369 . S
C1874 C1878 1.531 . S
C1875 C1874 1.369 . S
C1875 C1876 1.410 1_545 S
C1875 C1883 1.503 . S
C1876 C1875 1.410 1_565 S
C1876 C1877 1.392 . S
C1876 C1879 1.511 . S
C1877 C1873 1.377 1_565 S
C1877 C1876 1.392 . S
C1877 H1889 0.928 . S
C1878 C1874 1.531 . S
C1878 H1890 0.960 . S
C1878 H1891 0.962 . S
C1878 H1892 0.960 . S
C1879 C1876 1.511 . S
C1879 H1893 0.961 . S
C1879 H1894 0.961 . S
C1879 H1895 0.961 . S
C1880 C1881 1.370 1_545 S
C1880 C1882 1.363 . S
C1880 H1896 0.931 . S
C1881 C1880 1.370 1_565 S
C1881 C1885 1.408 . S
C1882 C1880 1.363 . S
C1882 C1883 1.370 . S
C1882 C1886 1.524 . S
C1883 C1875 1.503 . S
C1883 C1882 1.370 . S
C1883 C1884 1.403 1_545 S
C1884 C1883 1.403 1_565 S
C1884 C1885 1.404 . S
C1884 C1887 1.539 . S
C1885 C1881 1.408 . S
C1885 C1884 1.404 . S
C1885 H1897 0.930 . S
C1886 C1882 1.524 . S
C1886 H1898 0.956 . S
C1886 H1899 0.961 . S
C1886 H1900 0.961 . S
C1887 C1884 1.539 . S
C1887 H1901 0.958 . S
C1887 H1902 0.961 . S
C1887 H1903 0.960 . S
H1888 C1872 0.931 . S
H1889 C1877 0.928 . S
H1890 C1878 0.960 . S
H1891 C1878 0.962 . S
H1892 C1878 0.960 . S
H1893 C1879 0.961 . S
H1894 C1879 0.961 . S
H1895 C1879 0.961 . S
H1896 C1880 0.931 . S
H1897 C1885 0.930 . S
H1898 C1886 0.956 . S
H1899 C1886 0.961 . S
H1900 C1886 0.961 . S
H1901 C1887 0.958 . S
H1902 C1887 0.961 . S
H1903 C1887 0.960 . S
C1904 C1905 1.391 . S
C1904 C1906 1.394 . S
C1904 H1920 0.931 . S
C1905 C1904 1.391 . S
C1905 C1909 1.376 . S
C1906 C1904 1.394 . S
C1906 C1907 1.369 . S
C1906 C1910 1.531 . S
C1907 C1906 1.369 . S
C1907 C1908 1.410 . S
C1907 C1915 1.503 . S
C1908 C1907 1.410 . S
C1908 C1909 1.392 . S
C1908 C1911 1.511 . S
C1909 C1905 1.376 . S
C1909 C1908 1.392 . S
C1909 H1921 0.929 . S
C1910 C1906 1.531 . S
C1910 H1922 0.960 . S
C1910 H1923 0.962 . S
C1910 H1924 0.960 . S
C1911 C1908 1.511 . S
C1911 H1925 0.961 . S
C1911 H1926 0.961 . S
C1911 H1927 0.961 . S
C1912 C1913 1.370 . S
C1912 C1914 1.363 . S
C1912 H1928 0.931 . S
C1913 C1912 1.370 . S
C1913 C1917 1.408 . S
C1914 C1912 1.363 . S
C1914 C1915 1.370 . S
C1914 C1918 1.524 . S
C1915 C1907 1.503 . S
C1915 C1914 1.370 . S
C1915 C1916 1.403 . S
C1916 C1915 1.403 . S
C1916 C1917 1.404 . S
C1916 C1919 1.539 . S
C1917 C1913 1.408 . S
C1917 C1916 1.404 . S
C1917 H1929 0.930 . S
C1918 C1914 1.524 . S
C1918 H1930 0.956 . S
C1918 H1931 0.961 . S
C1918 H1932 0.961 . S
C1919 C1916 1.539 . S
C1919 H1933 0.958 . S
C1919 H1934 0.961 . S
C1919 H1935 0.960 . S
H1920 C1904 0.931 . S
H1921 C1909 0.929 . S
H1922 C1910 0.960 . S
H1923 C1910 0.962 . S
H1924 C1910 0.960 . S
H1925 C1911 0.961 . S
H1926 C1911 0.961 . S
H1927 C1911 0.961 . S
H1928 C1912 0.931 . S
H1929 C1917 0.930 . S
H1930 C1918 0.956 . S
H1931 C1918 0.961 . S
H1932 C1918 0.961 . S
H1933 C1919 0.958 . S
H1934 C1919 0.961 . S
H1935 C1919 0.960 . S
C1936 C1937 1.391 . S
C1936 C1938 1.394 . S
C1936 H1952 0.931 . S
C1937 C1936 1.391 . S
C1937 C1941 1.376 . S
C1938 C1936 1.394 . S
C1938 C1939 1.369 . S
C1938 C1942 1.531 . S
C1939 C1938 1.369 . S
C1939 C1940 1.410 . S
C1939 C1947 1.503 . S
C1940 C1939 1.410 . S
C1940 C1941 1.392 . S
C1940 C1943 1.511 . S
C1941 C1937 1.376 . S
C1941 C1940 1.392 . S
C1941 H1953 0.929 . S
C1942 C1938 1.531 . S
C1942 H1954 0.960 . S
C1942 H1955 0.962 . S
C1942 H1956 0.960 . S
C1943 C1940 1.511 . S
C1943 H1957 0.961 . S
C1943 H1958 0.961 . S
C1943 H1959 0.961 . S
C1944 C1945 1.370 1_556 S
C1944 C1946 1.363 . S
C1944 H1960 0.931 . S
C1945 C1944 1.370 1_554 S
C1945 C1949 1.408 . S
C1946 C1944 1.363 . S
C1946 C1947 1.370 1_556 S
C1946 C1950 1.524 . S
C1947 C1939 1.503 . S
C1947 C1946 1.370 1_554 S
C1947 C1948 1.403 . S
C1948 C1947 1.403 . S
C1948 C1949 1.404 . S
C1948 C1951 1.539 . S
C1949 C1945 1.408 . S
C1949 C1948 1.404 . S
C1949 H1961 0.930 . S
C1950 C1946 1.524 . S
C1950 H1962 0.956 . S
C1950 H1963 0.961 . S
C1950 H1964 0.961 . S
C1951 C1948 1.539 . S
C1951 H1965 0.958 . S
C1951 H1966 0.961 . S
C1951 H1967 0.960 . S
H1952 C1936 0.931 . S
H1953 C1941 0.929 . S
H1954 C1942 0.960 . S
H1955 C1942 0.962 . S
H1956 C1942 0.960 . S
H1957 C1943 0.961 . S
H1958 C1943 0.961 . S
H1959 C1943 0.961 . S
H1960 C1944 0.931 . S
H1961 C1949 0.930 . S
H1962 C1950 0.956 . S
H1963 C1950 0.961 . S
H1964 C1950 0.961 . S
H1965 C1951 0.958 . S
H1966 C1951 0.961 . S
H1967 C1951 0.960 . S
C1968 C1969 1.391 . S
C1968 C1970 1.394 . S
C1968 H1984 0.931 . S
C1969 C1968 1.391 . S
C1969 C1973 1.376 . S
C1970 C1968 1.394 . S
C1970 C1971 1.369 . S
C1970 C1974 1.531 . S
C1971 C1970 1.369 . S
C1971 C1972 1.410 . S
C1971 C1979 1.503 . S
C1972 C1971 1.410 . S
C1972 C1973 1.392 . S
C1972 C1975 1.511 . S
C1973 C1969 1.376 . S
C1973 C1972 1.392 . S
C1973 H1985 0.929 . S
C1974 C1970 1.531 . S
C1974 H1986 0.960 . S
C1974 H1987 0.962 . S
C1974 H1988 0.960 . S
C1975 C1972 1.511 . S
C1975 H1989 0.961 . S
C1975 H1990 0.961 . S
C1975 H1991 0.961 . S
C1976 C1977 1.370 . S
C1976 C1978 1.363 . S
C1976 H1992 0.931 . S
C1977 C1976 1.370 . S
C1977 C1981 1.408 . S
C1978 C1976 1.363 . S
C1978 C1979 1.370 . S
C1978 C1982 1.524 . S
C1979 C1971 1.503 . S
C1979 C1978 1.370 . S
C1979 C1980 1.403 . S
C1980 C1979 1.403 . S
C1980 C1981 1.404 . S
C1980 C1983 1.539 1_554 S
C1981 C1977 1.408 . S
C1981 C1980 1.404 . S
C1981 H1993 0.906 1_554 S
C1982 C1978 1.524 . S
C1982 H1994 0.956 . S
C1982 H1995 0.961 . S
C1982 H1996 0.961 . S
C1983 C1980 1.539 1_556 S
C1983 H1997 0.958 . S
C1983 H1998 0.961 . S
C1983 H1999 0.960 . S
H1984 C1968 0.931 . S
H1985 C1973 0.929 . S
H1986 C1974 0.960 . S
H1987 C1974 0.962 . S
H1988 C1974 0.960 . S
H1989 C1975 0.961 . S
H1990 C1975 0.961 . S
H1991 C1975 0.961 . S
H1992 C1976 0.931 . S
H1993 C1981 0.906 1_556 S
H1994 C1982 0.956 . S
H1995 C1982 0.961 . S
H1996 C1982 0.961 . S
H1997 C1983 0.958 . S
H1998 C1983 0.961 . S
H1999 C1983 0.960 . S
C2000 C2001 1.391 . S
C2000 C2002 1.394 . S
C2000 H2016 0.931 . S
C2001 C2000 1.391 . S
C2001 C2005 1.376 . S
C2002 C2000 1.394 . S
C2002 C2003 1.369 . S
C2002 C2006 1.531 . S
C2003 C2002 1.369 . S
C2003 C2004 1.410 . S
C2003 C2011 1.503 . S
C2004 C2003 1.410 . S
C2004 C2005 1.392 . S
C2004 C2007 1.511 . S
C2005 C2001 1.376 . S
C2005 C2004 1.392 . S
C2005 H2017 0.929 . S
C2006 C2002 1.531 . S
C2006 H2018 0.960 . S
C2006 H2019 0.962 . S
C2006 H2020 0.960 . S
C2007 C2004 1.511 . S
C2007 H2021 0.961 . S
C2007 H2022 0.961 . S
C2007 H2023 0.961 . S
C2008 C2009 1.370 . S
C2008 C2010 1.363 . S
C2008 H2024 0.931 . S
C2009 C2008 1.370 . S
C2009 C2013 1.408 . S
C2010 C2008 1.363 . S
C2010 C2011 1.370 . S
C2010 C2014 1.524 . S
C2011 C2003 1.503 . S
C2011 C2010 1.370 . S
C2011 C2012 1.403 . S
C2012 C2011 1.403 . S
C2012 C2013 1.404 . S
C2012 C2015 1.539 . S
C2013 C2009 1.408 . S
C2013 C2012 1.404 . S
C2013 H2025 0.930 . S
C2014 C2010 1.524 . S
C2014 H2026 0.956 . S
C2014 H2027 0.961 . S
C2014 H2028 0.961 . S
C2015 C2012 1.539 . S
C2015 H2029 0.958 . S
C2015 H2030 0.961 . S
C2015 H2031 0.960 . S
H2016 C2000 0.931 . S
H2017 C2005 0.929 . S
H2018 C2006 0.960 . S
H2019 C2006 0.962 . S
H2020 C2006 0.960 . S
H2021 C2007 0.961 . S
H2022 C2007 0.961 . S
H2023 C2007 0.961 . S
H2024 C2008 0.931 . S
H2025 C2013 0.930 . S
H2026 C2014 0.956 . S
H2027 C2014 0.961 . S
H2028 C2014 0.961 . S
H2029 C2015 0.958 . S
H2030 C2015 0.961 . S
H2031 C2015 0.960 . S
C2032 C2033 1.391 . S
C2032 C2034 1.394 . S
C2032 H2048 0.931 . S
C2033 C2032 1.391 . S
C2033 C2037 1.376 . S
C2034 C2032 1.394 . S
C2034 C2035 1.369 . S
C2034 C2038 1.531 . S
C2035 C2034 1.369 . S
C2035 C2036 1.410 . S
C2035 C2043 1.503 . S
C2036 C2035 1.410 . S
C2036 C2037 1.392 . S
C2036 C2039 1.511 . S
C2037 C2033 1.376 . S
C2037 C2036 1.392 . S
C2037 H2049 0.929 . S
C2038 C2034 1.531 . S
C2038 H2050 0.960 . S
C2038 H2051 0.962 . S
C2038 H2052 0.960 . S
C2039 C2036 1.511 . S
C2039 H2053 0.961 . S
C2039 H2054 0.961 . S
C2039 H2055 0.961 . S
C2040 C2041 1.370 . S
C2040 C2042 1.363 . S
C2040 H2056 0.931 . S
C2041 C2040 1.370 . S
C2041 C2045 1.408 . S
C2042 C2040 1.363 . S
C2042 C2043 1.370 . S
C2042 C2046 1.524 . S
C2043 C2035 1.503 . S
C2043 C2042 1.370 . S
C2043 C2044 1.403 . S
C2044 C2043 1.403 . S
C2044 C2045 1.404 . S
C2044 C2047 1.539 . S
C2045 C2041 1.408 . S
C2045 C2044 1.404 . S
C2045 H2057 0.930 . S
C2046 C2042 1.524 . S
C2046 H2058 0.956 . S
C2046 H2059 0.961 . S
C2046 H2060 0.961 . S
C2047 C2044 1.539 . S
C2047 H2061 0.958 . S
C2047 H2062 0.961 . S
C2047 H2063 0.960 . S
H2048 C2032 0.931 . S
H2049 C2037 0.929 . S
H2050 C2038 0.960 . S
H2051 C2038 0.962 . S
H2052 C2038 0.960 . S
H2053 C2039 0.961 . S
H2054 C2039 0.961 . S
H2055 C2039 0.961 . S
H2056 C2040 0.931 . S
H2057 C2045 0.930 . S
H2058 C2046 0.956 . S
H2059 C2046 0.961 . S
H2060 C2046 0.961 . S
H2061 C2047 0.958 . S
H2062 C2047 0.961 . S
H2063 C2047 0.960 . S
C2064 C2065 1.391 . S
C2064 C2066 1.394 . S
C2064 H2080 0.931 . S
C2065 C2064 1.391 . S
C2065 C2069 1.376 . S
C2066 C2064 1.394 . S
C2066 C2067 1.369 . S
C2066 C2070 1.531 . S
C2067 C2066 1.369 . S
C2067 C2068 1.410 . S
C2067 C2075 1.503 . S
C2068 C2067 1.410 . S
C2068 C2069 1.392 . S
C2068 C2071 1.511 . S
C2069 C2065 1.376 . S
C2069 C2068 1.392 . S
C2069 H2081 0.929 . S
C2070 C2066 1.531 . S
C2070 H2082 0.960 . S
C2070 H2083 0.962 . S
C2070 H2084 0.960 . S
C2071 C2068 1.511 . S
C2071 H2085 0.961 . S
C2071 H2086 0.961 . S
C2071 H2087 0.961 . S
C2072 C2073 1.370 . S
C2072 C2074 1.363 . S
C2072 H2088 0.931 . S
C2073 C2072 1.370 . S
C2073 C2077 1.408 . S
C2074 C2072 1.363 . S
C2074 C2075 1.370 . S
C2074 C2078 1.524 . S
C2075 C2067 1.503 . S
C2075 C2074 1.370 . S
C2075 C2076 1.403 . S
C2076 C2075 1.403 . S
C2076 C2077 1.404 . S
C2076 C2079 1.539 . S
C2077 C2073 1.408 . S
C2077 C2076 1.404 . S
C2077 H2089 0.930 . S
C2078 C2074 1.524 . S
C2078 H2090 0.956 . S
C2078 H2091 0.961 . S
C2078 H2092 0.961 . S
C2079 C2076 1.539 . S
C2079 H2093 0.958 . S
C2079 H2094 0.961 . S
C2079 H2095 0.960 . S
H2080 C2064 0.931 . S
H2081 C2069 0.929 . S
H2082 C2070 0.960 . S
H2083 C2070 0.962 . S
H2084 C2070 0.960 . S
H2085 C2071 0.961 . S
H2086 C2071 0.961 . S
H2087 C2071 0.961 . S
H2088 C2072 0.931 . S
H2089 C2077 0.930 . S
H2090 C2078 0.956 . S
H2091 C2078 0.961 . S
H2092 C2078 0.961 . S
H2093 C2079 0.958 . S
H2094 C2079 0.961 . S
H2095 C2079 0.960 . S
C2096 C2097 1.391 . S
C2096 C2098 1.394 . S
C2096 H2112 0.931 . S
C2097 C2096 1.391 . S
C2097 C2101 1.376 . S
C2098 C2096 1.394 . S
C2098 C2099 1.369 . S
C2098 C2102 1.531 . S
C2099 C2098 1.369 . S
C2099 C2100 1.410 . S
C2099 C2107 1.503 . S
C2100 C2099 1.410 . S
C2100 C2101 1.392 . S
C2100 C2103 1.511 . S
C2101 C2097 1.376 . S
C2101 C2100 1.392 . S
C2101 H2113 0.929 . S
C2102 C2098 1.531 . S
C2102 H2114 0.960 . S
C2102 H2115 0.962 . S
C2102 H2116 0.960 . S
C2103 C2100 1.511 . S
C2103 H2117 0.961 . S
C2103 H2118 0.961 . S
C2103 H2119 0.961 . S
C2104 C2105 1.370 . S
C2104 C2106 1.363 . S
C2104 H2120 0.931 . S
C2105 C2104 1.370 . S
C2105 C2109 1.408 . S
C2106 C2104 1.363 . S
C2106 C2107 1.370 . S
C2106 C2110 1.524 . S
C2107 C2099 1.503 . S
C2107 C2106 1.370 . S
C2107 C2108 1.403 . S
C2108 C2107 1.403 . S
C2108 C2109 1.404 . S
C2108 C2111 1.539 . S
C2109 C2105 1.408 . S
C2109 C2108 1.404 . S
C2109 H2121 0.918 1_565 S
C2110 C2106 1.524 . S
C2110 H2122 0.956 . S
C2110 H2123 0.961 . S
C2110 H2124 0.961 . S
C2111 C2108 1.539 . S
C2111 H2125 0.958 . S
C2111 H2126 0.961 1_565 S
C2111 H2127 0.960 . S
H2112 C2096 0.931 . S
H2113 C2101 0.929 . S
H2114 C2102 0.960 . S
H2115 C2102 0.962 . S
H2116 C2102 0.960 . S
H2117 C2103 0.961 . S
H2118 C2103 0.961 . S
H2119 C2103 0.961 . S
H2120 C2104 0.931 . S
H2121 C2109 0.918 1_545 S
H2122 C2110 0.956 . S
H2123 C2110 0.961 . S
H2124 C2110 0.961 . S
H2125 C2111 0.958 . S
H2126 C2111 0.961 1_545 S
H2127 C2111 0.960 . S
C2128 C2129 1.391 . S
C2128 C2130 1.394 . S
C2128 H2144 0.931 . S
C2129 C2128 1.391 . S
C2129 C2133 1.376 . S
C2130 C2128 1.394 . S
C2130 C2131 1.369 . S
C2130 C2134 1.531 . S
C2131 C2130 1.369 . S
C2131 C2132 1.410 . S
C2131 C2139 1.503 . S
C2132 C2131 1.410 . S
C2132 C2133 1.392 . S
C2132 C2135 1.511 . S
C2133 C2129 1.376 . S
C2133 C2132 1.392 . S
C2133 H2145 0.929 . S
C2134 C2130 1.531 . S
C2134 H2146 0.960 . S
C2134 H2147 0.962 . S
C2134 H2148 0.960 . S
C2135 C2132 1.511 . S
C2135 H2149 0.961 . S
C2135 H2150 0.961 . S
C2135 H2151 0.961 . S
C2136 C2137 1.370 . S
C2136 C2138 1.363 . S
C2136 H2152 0.931 . S
C2137 C2136 1.370 . S
C2137 C2141 1.408 . S
C2138 C2136 1.363 . S
C2138 C2139 1.370 . S
C2138 C2142 1.524 . S
C2139 C2131 1.503 . S
C2139 C2138 1.370 . S
C2139 C2140 1.403 . S
C2140 C2139 1.403 . S
C2140 C2141 1.404 . S
C2140 C2143 1.539 . S
C2141 C2137 1.408 . S
C2141 C2140 1.404 . S
C2141 H2153 0.930 . S
C2142 C2138 1.524 . S
C2142 H2154 0.956 . S
C2142 H2155 0.961 . S
C2142 H2156 0.961 . S
C2143 C2140 1.539 . S
C2143 H2157 0.958 . S
C2143 H2158 0.961 . S
C2143 H2159 0.960 . S
H2144 C2128 0.931 . S
H2145 C2133 0.929 . S
H2146 C2134 0.960 . S
H2147 C2134 0.962 . S
H2148 C2134 0.960 . S
H2149 C2135 0.961 . S
H2150 C2135 0.961 . S
H2151 C2135 0.961 . S
H2152 C2136 0.931 . S
H2153 C2141 0.930 . S
H2154 C2142 0.956 . S
H2155 C2142 0.961 . S
H2156 C2142 0.961 . S
H2157 C2143 0.958 . S
H2158 C2143 0.961 . S
H2159 C2143 0.960 . S
C2160 C2161 1.391 . S
C2160 C2162 1.394 . S
C2160 H2176 0.931 . S
C2161 C2160 1.391 . S
C2161 C2165 1.376 . S
C2162 C2160 1.394 . S
C2162 C2163 1.369 . S
C2162 C2166 1.531 . S
C2163 C2162 1.369 . S
C2163 C2164 1.410 . S
C2163 C2171 1.503 . S
C2164 C2163 1.410 . S
C2164 C2165 1.392 . S
C2164 C2167 1.511 . S
C2165 C2161 1.376 . S
C2165 C2164 1.392 . S
C2165 H2177 0.929 . S
C2166 C2162 1.531 . S
C2166 H2178 0.960 . S
C2166 H2179 0.962 . S
C2166 H2180 0.960 . S
C2167 C2164 1.511 . S
C2167 H2181 0.961 . S
C2167 H2182 0.961 . S
C2167 H2183 0.961 . S
C2168 C2169 1.370 . S
C2168 C2170 1.363 . S
C2168 H2184 0.931 . S
C2169 C2168 1.370 . S
C2169 C2173 1.408 . S
C2170 C2168 1.363 . S
C2170 C2171 1.370 . S
C2170 C2174 1.524 . S
C2171 C2163 1.503 . S
C2171 C2170 1.370 . S
C2171 C2172 1.403 . S
C2172 C2171 1.403 . S
C2172 C2173 1.404 . S
C2172 C2175 1.539 . S
C2173 C2169 1.408 . S
C2173 C2172 1.404 . S
C2173 H2185 0.930 . S
C2174 C2170 1.524 . S
C2174 H2186 0.956 . S
C2174 H2187 0.961 . S
C2174 H2188 0.961 . S
C2175 C2172 1.539 . S
C2175 H2189 0.958 . S
C2175 H2190 0.961 . S
C2175 H2191 0.960 . S
H2176 C2160 0.931 . S
H2177 C2165 0.929 . S
H2178 C2166 0.960 . S
H2179 C2166 0.962 . S
H2180 C2166 0.960 . S
H2181 C2167 0.961 . S
H2182 C2167 0.961 . S
H2183 C2167 0.961 . S
H2184 C2168 0.931 . S
H2185 C2173 0.930 . S
H2186 C2174 0.956 . S
H2187 C2174 0.961 . S
H2188 C2174 0.961 . S
H2189 C2175 0.958 . S
H2190 C2175 0.961 . S
H2191 C2175 0.960 . S
C2192 C2193 1.391 . S
C2192 C2194 1.394 . S
C2192 H2208 0.931 . S
C2193 C2192 1.391 . S
C2193 C2197 1.376 . S
C2194 C2192 1.394 . S
C2194 C2195 1.369 . S
C2194 C2198 1.531 . S
C2195 C2194 1.369 . S
C2195 C2196 1.410 . S
C2195 C2203 1.503 . S
C2196 C2195 1.410 . S
C2196 C2197 1.392 . S
C2196 C2199 1.511 . S
C2197 C2193 1.376 . S
C2197 C2196 1.392 . S
C2197 H2209 0.929 . S
C2198 C2194 1.531 . S
C2198 H2210 0.960 . S
C2198 H2211 0.962 . S
C2198 H2212 0.960 . S
C2199 C2196 1.511 . S
C2199 H2213 0.961 . S
C2199 H2214 0.961 . S
C2199 H2215 0.961 . S
C2200 C2201 1.370 . S
C2200 C2202 1.363 . S
C2200 H2216 0.931 . S
C2201 C2200 1.370 . S
C2201 C2205 1.408 . S
C2202 C2200 1.363 . S
C2202 C2203 1.370 . S
C2202 C2206 1.524 . S
C2203 C2195 1.503 . S
C2203 C2202 1.370 . S
C2203 C2204 1.403 . S
C2204 C2203 1.403 . S
C2204 C2205 1.404 . S
C2204 C2207 1.539 . S
C2205 C2201 1.408 . S
C2205 C2204 1.404 . S
C2205 H2217 0.930 . S
C2206 C2202 1.524 . S
C2206 H2218 0.956 . S
C2206 H2219 0.961 . S
C2206 H2220 0.961 . S
C2207 C2204 1.539 . S
C2207 H2221 0.958 . S
C2207 H2222 0.961 . S
C2207 H2223 0.960 . S
H2208 C2192 0.931 . S
H2209 C2197 0.929 . S
H2210 C2198 0.960 . S
H2211 C2198 0.962 . S
H2212 C2198 0.960 . S
H2213 C2199 0.961 . S
H2214 C2199 0.961 . S
H2215 C2199 0.961 . S
H2216 C2200 0.931 . S
H2217 C2205 0.930 . S
H2218 C2206 0.956 . S
H2219 C2206 0.961 . S
H2220 C2206 0.961 . S
H2221 C2207 0.958 . S
H2222 C2207 0.961 . S
H2223 C2207 0.960 . S
C2224 C2225 1.391 . S
C2224 C2226 1.394 . S
C2224 H2240 0.931 . S
C2225 C2224 1.391 . S
C2225 C2229 1.376 . S
C2226 C2224 1.394 . S
C2226 C2227 1.369 . S
C2226 C2230 1.531 . S
C2227 C2226 1.369 . S
C2227 C2228 1.410 . S
C2227 C2235 1.503 . S
C2228 C2227 1.410 . S
C2228 C2229 1.392 . S
C2228 C2231 1.511 . S
C2229 C2225 1.376 . S
C2229 C2228 1.392 . S
C2229 H2241 0.929 . S
C2230 C2226 1.531 . S
C2230 H2242 0.960 . S
C2230 H2243 0.962 . S
C2230 H2244 0.960 . S
C2231 C2228 1.511 . S
C2231 H2245 0.961 . S
C2231 H2246 0.961 . S
C2231 H2247 0.961 . S
C2232 C2233 1.370 . S
C2232 C2234 1.363 . S
C2232 H2248 0.931 . S
C2233 C2232 1.370 . S
C2233 C2237 1.408 . S
C2234 C2232 1.363 . S
C2234 C2235 1.370 . S
C2234 C2238 1.524 . S
C2235 C2227 1.503 . S
C2235 C2234 1.370 . S
C2235 C2236 1.403 . S
C2236 C2235 1.403 . S
C2236 C2237 1.404 . S
C2236 C2239 1.539 . S
C2237 C2233 1.408 . S
C2237 C2236 1.404 . S
C2237 H2249 0.930 . S
C2238 C2234 1.524 . S
C2238 H2250 0.956 . S
C2238 H2251 0.961 . S
C2238 H2252 0.961 . S
C2239 C2236 1.539 . S
C2239 H2253 0.958 . S
C2239 H2254 0.961 . S
C2239 H2255 0.960 . S
H2240 C2224 0.931 . S
H2241 C2229 0.929 . S
H2242 C2230 0.960 . S
H2243 C2230 0.962 . S
H2244 C2230 0.960 . S
H2245 C2231 0.961 . S
H2246 C2231 0.961 . S
H2247 C2231 0.961 . S
H2248 C2232 0.931 . S
H2249 C2237 0.930 . S
H2250 C2238 0.956 . S
H2251 C2238 0.961 . S
H2252 C2238 0.961 . S
H2253 C2239 0.958 . S
H2254 C2239 0.961 . S
H2255 C2239 0.960 . S
C2256 C2257 1.391 . S
C2256 C2258 1.394 . S
C2256 H2272 0.931 . S
C2257 C2256 1.391 . S
C2257 C2261 1.376 1_455 S
C2258 C2256 1.394 . S
C2258 C2259 1.369 . S
C2258 C2262 1.531 . S
C2259 C2258 1.369 . S
C2259 C2260 1.410 1_455 S
C2259 C2267 1.503 . S
C2260 C2259 1.410 1_655 S
C2260 C2261 1.392 . S
C2260 C2263 1.511 . S
C2261 C2257 1.376 1_655 S
C2261 C2260 1.392 . S
C2261 H2273 0.929 . S
C2262 C2258 1.531 . S
C2262 H2274 0.960 . S
C2262 H2275 0.962 . S
C2262 H2276 0.960 . S
C2263 C2260 1.511 . S
C2263 H2277 0.961 . S
C2263 H2278 0.961 . S
C2263 H2279 0.961 . S
C2264 C2265 1.370 . S
C2264 C2266 1.363 1_554 S
C2264 H2280 0.931 . S
C2265 C2264 1.370 . S
C2265 C2269 1.408 1_554 S
C2266 C2264 1.363 1_556 S
C2266 C2267 1.370 . S
C2266 C2270 1.525 1_456 S
C2267 C2259 1.503 . S
C2267 C2266 1.370 . S
C2267 C2268 1.403 . S
C2268 C2267 1.403 . S
C2268 C2269 1.404 . S
C2268 C2271 1.539 . S
C2269 C2265 1.408 1_556 S
C2269 C2268 1.404 . S
C2269 H2281 0.930 . S
C2270 C2266 1.525 1_654 S
C2270 H2282 0.933 1_655 S
C2270 H2283 0.975 1_554 S
C2270 H2284 0.968 . S
C2271 C2268 1.539 . S
C2271 H2285 0.958 . S
C2271 H2286 0.961 . S
C2271 H2287 0.960 . S
H2272 C2256 0.931 . S
H2273 C2261 0.929 . S
H2274 C2262 0.960 . S
H2275 C2262 0.962 . S
H2276 C2262 0.960 . S
H2277 C2263 0.961 . S
H2278 C2263 0.961 . S
H2279 C2263 0.961 . S
H2280 C2264 0.931 . S
H2281 C2269 0.930 . S
H2282 C2270 0.933 1_455 S
H2283 C2270 0.975 1_556 S
H2284 C2270 0.968 . S
H2285 C2271 0.958 . S
H2286 C2271 0.961 . S
H2287 C2271 0.960 . S
C2288 C2289 1.391 . S
C2288 C2290 1.394 . S
C2288 H2304 0.931 . S
C2289 C2288 1.391 . S
C2289 C2293 1.376 . S
C2290 C2288 1.394 . S
C2290 C2291 1.369 . S
C2290 C2294 1.531 . S
C2291 C2290 1.369 . S
C2291 C2292 1.410 . S
C2291 C2299 1.503 . S
C2292 C2291 1.410 . S
C2292 C2293 1.392 . S
C2292 C2295 1.511 . S
C2293 C2289 1.376 . S
C2293 C2292 1.392 . S
C2293 H2305 0.929 . S
C2294 C2290 1.531 . S
C2294 H2306 0.960 . S
C2294 H2307 0.962 . S
C2294 H2308 0.960 . S
C2295 C2292 1.511 . S
C2295 H2309 0.961 . S
C2295 H2310 0.961 . S
C2295 H2311 0.961 . S
C2296 C2297 1.370 . S
C2296 C2298 1.363 . S
C2296 H2312 0.931 . S
C2297 C2296 1.370 . S
C2297 C2301 1.408 . S
C2298 C2296 1.363 . S
C2298 C2299 1.370 . S
C2298 C2302 1.524 . S
C2299 C2291 1.503 . S
C2299 C2298 1.370 . S
C2299 C2300 1.403 . S
C2300 C2299 1.403 . S
C2300 C2301 1.404 . S
C2300 C2303 1.539 . S
C2301 C2297 1.408 . S
C2301 C2300 1.404 . S
C2301 H2313 0.930 . S
C2302 C2298 1.524 . S
C2302 H2314 0.956 . S
C2302 H2315 0.961 . S
C2302 H2316 0.961 . S
C2303 C2300 1.539 . S
C2303 H2317 0.958 . S
C2303 H2318 0.961 . S
C2303 H2319 0.960 . S
H2304 C2288 0.931 . S
H2305 C2293 0.929 . S
H2306 C2294 0.960 . S
H2307 C2294 0.962 . S
H2308 C2294 0.960 . S
H2309 C2295 0.961 . S
H2310 C2295 0.961 . S
H2311 C2295 0.961 . S
H2312 C2296 0.931 . S
H2313 C2301 0.930 . S
H2314 C2302 0.956 . S
H2315 C2302 0.961 . S
H2316 C2302 0.961 . S
H2317 C2303 0.958 . S
H2318 C2303 0.961 . S
H2319 C2303 0.960 . S
C2320 C2321 1.391 . S
C2320 C2322 1.394 . S
C2320 H2336 0.931 . S
C2321 C2320 1.391 . S
C2321 C2325 1.376 . S
C2322 C2320 1.394 . S
C2322 C2323 1.369 . S
C2322 C2326 1.531 . S
C2323 C2322 1.369 . S
C2323 C2324 1.410 . S
C2323 C2331 1.503 . S
C2324 C2323 1.410 . S
C2324 C2325 1.392 . S
C2324 C2327 1.511 . S
C2325 C2321 1.376 . S
C2325 C2324 1.392 . S
C2325 H2337 0.929 . S
C2326 C2322 1.531 . S
C2326 H2338 0.960 . S
C2326 H2339 0.962 . S
C2326 H2340 0.960 . S
C2327 C2324 1.511 . S
C2327 H2341 0.961 . S
C2327 H2342 0.961 . S
C2327 H2343 0.961 . S
C2328 C2329 1.370 . S
C2328 C2330 1.363 . S
C2328 H2344 0.931 . S
C2329 C2328 1.370 . S
C2329 C2333 1.408 . S
C2330 C2328 1.363 . S
C2330 C2331 1.370 . S
C2330 C2334 1.524 . S
C2331 C2323 1.503 . S
C2331 C2330 1.370 . S
C2331 C2332 1.403 . S
C2332 C2331 1.403 . S
C2332 C2333 1.404 . S
C2332 C2335 1.539 . S
C2333 C2329 1.408 . S
C2333 C2332 1.404 . S
C2333 H2345 0.930 . S
C2334 C2330 1.524 . S
C2334 H2346 0.956 . S
C2334 H2347 0.961 . S
C2334 H2348 0.961 . S
C2335 C2332 1.539 . S
C2335 H2349 0.958 . S
C2335 H2350 0.961 . S
C2335 H2351 0.960 . S
H2336 C2320 0.931 . S
H2337 C2325 0.929 . S
H2338 C2326 0.960 . S
H2339 C2326 0.962 . S
H2340 C2326 0.960 . S
H2341 C2327 0.961 . S
H2342 C2327 0.961 . S
H2343 C2327 0.961 . S
H2344 C2328 0.931 . S
H2345 C2333 0.930 . S
H2346 C2334 0.956 . S
H2347 C2334 0.961 . S
H2348 C2334 0.961 . S
H2349 C2335 0.958 . S
H2350 C2335 0.961 . S
H2351 C2335 0.960 . S
C2352 C2353 1.391 . S
C2352 C2354 1.394 . S
C2352 H2368 0.931 . S
C2353 C2352 1.391 . S
C2353 C2357 1.376 . S
C2354 C2352 1.394 . S
C2354 C2355 1.369 . S
C2354 C2358 1.531 . S
C2355 C2354 1.369 . S
C2355 C2356 1.410 . S
C2355 C2363 1.503 . S
C2356 C2355 1.410 . S
C2356 C2357 1.392 . S
C2356 C2359 1.511 . S
C2357 C2353 1.376 . S
C2357 C2356 1.392 . S
C2357 H2369 0.929 . S
C2358 C2354 1.531 . S
C2358 H2370 0.960 . S
C2358 H2371 0.962 . S
C2358 H2372 0.960 . S
C2359 C2356 1.511 . S
C2359 H2373 0.961 . S
C2359 H2374 0.961 . S
C2359 H2375 0.961 . S
C2360 C2361 1.370 . S
C2360 C2362 1.363 . S
C2360 H2376 0.931 . S
C2361 C2360 1.370 . S
C2361 C2365 1.408 . S
C2362 C2360 1.363 . S
C2362 C2363 1.370 . S
C2362 C2366 1.524 . S
C2363 C2355 1.503 . S
C2363 C2362 1.370 . S
C2363 C2364 1.403 . S
C2364 C2363 1.403 . S
C2364 C2365 1.404 . S
C2364 C2367 1.539 . S
C2365 C2361 1.408 . S
C2365 C2364 1.404 . S
C2365 H2377 0.930 . S
C2366 C2362 1.524 . S
C2366 H2378 0.956 . S
C2366 H2379 0.961 . S
C2366 H2380 0.961 . S
C2367 C2364 1.539 . S
C2367 H2381 0.958 . S
C2367 H2382 0.961 . S
C2367 H2383 0.960 . S
H2368 C2352 0.931 . S
H2369 C2357 0.929 . S
H2370 C2358 0.960 . S
H2371 C2358 0.962 . S
H2372 C2358 0.960 . S
H2373 C2359 0.961 . S
H2374 C2359 0.961 . S
H2375 C2359 0.961 . S
H2376 C2360 0.931 . S
H2377 C2365 0.930 . S
H2378 C2366 0.956 . S
H2379 C2366 0.961 . S
H2380 C2366 0.961 . S
H2381 C2367 0.958 . S
H2382 C2367 0.961 . S
H2383 C2367 0.960 . S
C2384 C2385 1.391 . S
C2384 C2386 1.394 . S
C2384 H2400 0.931 . S
C2385 C2384 1.391 . S
C2385 C2389 1.376 1_655 S
C2386 C2384 1.394 . S
C2386 C2387 1.369 . S
C2386 C2390 1.531 . S
C2387 C2386 1.369 . S
C2387 C2388 1.410 1_655 S
C2387 C2395 1.500 1_655 S
C2388 C2387 1.410 1_455 S
C2388 C2389 1.392 . S
C2388 C2391 1.511 . S
C2389 C2385 1.376 1_455 S
C2389 C2388 1.392 . S
C2389 H2401 0.929 . S
C2390 C2386 1.531 . S
C2390 H2402 0.960 . S
C2390 H2403 0.962 . S
C2390 H2404 0.960 . S
C2391 C2388 1.511 . S
C2391 H2405 0.961 . S
C2391 H2406 0.961 . S
C2391 H2407 0.961 . S
C2392 C2393 1.370 . S
C2392 C2394 1.363 . S
C2392 H2408 0.931 . S
C2393 C2392 1.370 . S
C2393 C2397 1.408 1_455 S
C2394 C2392 1.363 . S
C2394 C2395 1.375 . S
C2394 C2398 1.524 . S
C2395 C2387 1.500 1_455 S
C2395 C2394 1.375 . S
C2395 C2396 1.401 1_455 S
C2396 C2395 1.401 1_655 S
C2396 C2397 1.404 . S
C2396 C2399 1.539 . S
C2397 C2393 1.408 1_655 S
C2397 C2396 1.404 . S
C2397 H2409 0.930 . S
C2398 C2394 1.524 . S
C2398 H2410 0.956 . S
C2398 H2411 0.961 . S
C2398 H2412 0.961 . S
C2399 C2396 1.539 . S
C2399 H2413 0.958 . S
C2399 H2414 0.961 . S
C2399 H2415 0.960 . S
H2400 C2384 0.931 . S
H2401 C2389 0.929 . S
H2402 C2390 0.960 . S
H2403 C2390 0.962 . S
H2404 C2390 0.960 . S
H2405 C2391 0.961 . S
H2406 C2391 0.961 . S
H2407 C2391 0.961 . S
H2408 C2392 0.931 . S
H2409 C2397 0.930 . S
H2410 C2398 0.956 . S
H2411 C2398 0.961 . S
H2412 C2398 0.961 . S
H2413 C2399 0.958 . S
H2414 C2399 0.961 . S
H2415 C2399 0.960 . S
C2416 C2417 1.391 . S
C2416 C2418 1.394 . S
C2416 H2432 0.931 . S
C2417 C2416 1.391 . S
C2417 C2421 1.376 . S
C2418 C2416 1.394 . S
C2418 C2419 1.369 . S
C2418 C2422 1.531 . S
C2419 C2418 1.369 . S
C2419 C2420 1.410 . S
C2419 C2427 1.503 . S
C2420 C2419 1.410 . S
C2420 C2421 1.392 . S
C2420 C2423 1.511 . S
C2421 C2417 1.376 . S
C2421 C2420 1.392 . S
C2421 H2433 0.929 . S
C2422 C2418 1.531 . S
C2422 H2434 0.960 . S
C2422 H2435 0.962 . S
C2422 H2436 0.960 . S
C2423 C2420 1.511 . S
C2423 H2437 0.961 . S
C2423 H2438 0.961 . S
C2423 H2439 0.961 . S
C2424 C2425 1.370 . S
C2424 C2426 1.363 . S
C2424 H2440 0.931 . S
C2425 C2424 1.370 . S
C2425 C2429 1.408 . S
C2426 C2424 1.363 . S
C2426 C2427 1.370 . S
C2426 C2430 1.524 . S
C2427 C2419 1.503 . S
C2427 C2426 1.370 . S
C2427 C2428 1.403 . S
C2428 C2427 1.403 . S
C2428 C2429 1.404 . S
C2428 C2431 1.539 . S
C2429 C2425 1.408 . S
C2429 C2428 1.404 . S
C2429 H2441 0.930 . S
C2430 C2426 1.524 . S
C2430 H2442 0.956 . S
C2430 H2443 0.961 . S
C2430 H2444 0.961 . S
C2431 C2428 1.539 . S
C2431 H2445 0.958 . S
C2431 H2446 0.961 . S
C2431 H2447 0.960 . S
H2432 C2416 0.931 . S
H2433 C2421 0.929 . S
H2434 C2422 0.960 . S
H2435 C2422 0.962 . S
H2436 C2422 0.960 . S
H2437 C2423 0.961 . S
H2438 C2423 0.961 . S
H2439 C2423 0.961 . S
H2440 C2424 0.931 . S
H2441 C2429 0.930 . S
H2442 C2430 0.956 . S
H2443 C2430 0.961 . S
H2444 C2430 0.961 . S
H2445 C2431 0.958 . S
H2446 C2431 0.961 . S
H2447 C2431 0.960 . S
C2448 C2449 1.391 . S
C2448 C2450 1.394 . S
C2448 H2464 0.931 . S
C2449 C2448 1.391 . S
C2449 C2453 1.376 . S
C2450 C2448 1.394 . S
C2450 C2451 1.369 . S
C2450 C2454 1.531 . S
C2451 C2450 1.369 . S
C2451 C2452 1.410 . S
C2451 C2459 1.503 . S
C2452 C2451 1.410 . S
C2452 C2453 1.392 . S
C2452 C2455 1.511 . S
C2453 C2449 1.376 . S
C2453 C2452 1.392 . S
C2453 H2465 0.929 . S
C2454 C2450 1.531 . S
C2454 H2466 0.960 . S
C2454 H2467 0.962 . S
C2454 H2468 0.960 . S
C2455 C2452 1.511 . S
C2455 H2469 0.961 . S
C2455 H2470 0.961 . S
C2455 H2471 0.961 . S
C2456 C2457 1.370 . S
C2456 C2458 1.363 . S
C2456 H2472 0.931 . S
C2457 C2456 1.370 . S
C2457 C2461 1.408 . S
C2458 C2456 1.363 . S
C2458 C2459 1.370 . S
C2458 C2462 1.524 . S
C2459 C2451 1.503 . S
C2459 C2458 1.370 . S
C2459 C2460 1.403 . S
C2460 C2459 1.403 . S
C2460 C2461 1.404 . S
C2460 C2463 1.539 . S
C2461 C2457 1.408 . S
C2461 C2460 1.404 . S
C2461 H2473 0.930 . S
C2462 C2458 1.524 . S
C2462 H2474 0.956 . S
C2462 H2475 0.961 . S
C2462 H2476 0.961 . S
C2463 C2460 1.539 . S
C2463 H2477 0.958 . S
C2463 H2478 0.961 . S
C2463 H2479 0.960 . S
H2464 C2448 0.931 . S
H2465 C2453 0.929 . S
H2466 C2454 0.960 . S
H2467 C2454 0.962 . S
H2468 C2454 0.960 . S
H2469 C2455 0.961 . S
H2470 C2455 0.961 . S
H2471 C2455 0.961 . S
H2472 C2456 0.931 . S
H2473 C2461 0.930 . S
H2474 C2462 0.956 . S
H2475 C2462 0.961 . S
H2476 C2462 0.961 . S
H2477 C2463 0.958 . S
H2478 C2463 0.961 . S
H2479 C2463 0.960 . S
C2480 C2481 1.391 . S
C2480 C2482 1.394 . S
C2480 H2496 0.931 . S
C2481 C2480 1.391 . S
C2481 C2485 1.376 . S
C2482 C2480 1.394 . S
C2482 C2483 1.369 . S
C2482 C2486 1.531 . S
C2483 C2482 1.369 . S
C2483 C2484 1.410 . S
C2483 C2491 1.503 . S
C2484 C2483 1.410 . S
C2484 C2485 1.392 . S
C2484 C2487 1.511 . S
C2485 C2481 1.376 . S
C2485 C2484 1.392 . S
C2485 H2497 0.929 . S
C2486 C2482 1.531 . S
C2486 H2498 0.960 . S
C2486 H2499 0.962 . S
C2486 H2500 0.960 . S
C2487 C2484 1.511 . S
C2487 H2501 0.961 . S
C2487 H2502 0.961 . S
C2487 H2503 0.961 . S
C2488 C2489 1.370 . S
C2488 C2490 1.363 . S
C2488 H2504 0.931 . S
C2489 C2488 1.370 . S
C2489 C2493 1.408 . S
C2490 C2488 1.363 . S
C2490 C2491 1.370 . S
C2490 C2494 1.524 . S
C2491 C2483 1.503 . S
C2491 C2490 1.370 . S
C2491 C2492 1.403 . S
C2492 C2491 1.403 . S
C2492 C2493 1.404 . S
C2492 C2495 1.539 . S
C2493 C2489 1.408 . S
C2493 C2492 1.404 . S
C2493 H2505 0.930 . S
C2494 C2490 1.524 . S
C2494 H2506 0.956 . S
C2494 H2507 0.961 . S
C2494 H2508 0.961 . S
C2495 C2492 1.539 . S
C2495 H2509 0.958 . S
C2495 H2510 0.961 . S
C2495 H2511 0.960 . S
H2496 C2480 0.931 . S
H2497 C2485 0.929 . S
H2498 C2486 0.960 . S
H2499 C2486 0.962 . S
H2500 C2486 0.960 . S
H2501 C2487 0.961 . S
H2502 C2487 0.961 . S
H2503 C2487 0.961 . S
H2504 C2488 0.931 . S
H2505 C2493 0.930 . S
H2506 C2494 0.956 . S
H2507 C2494 0.961 . S
H2508 C2494 0.961 . S
H2509 C2495 0.958 . S
H2510 C2495 0.961 . S
H2511 C2495 0.960 . S
C2512 C2513 1.391 . S
C2512 C2514 1.394 . S
C2512 H2528 0.931 . S
C2513 C2512 1.391 . S
C2513 C2517 1.376 . S
C2514 C2512 1.394 . S
C2514 C2515 1.369 . S
C2514 C2518 1.531 . S
C2515 C2514 1.369 . S
C2515 C2516 1.410 . S
C2515 C2523 1.503 . S
C2516 C2515 1.410 . S
C2516 C2517 1.392 . S
C2516 C2519 1.511 . S
C2517 C2513 1.376 . S
C2517 C2516 1.392 . S
C2517 H2529 0.929 . S
C2518 C2514 1.531 . S
C2518 H2530 0.960 . S
C2518 H2531 0.962 . S
C2518 H2532 0.960 . S
C2519 C2516 1.511 . S
C2519 H2533 0.961 . S
C2519 H2534 0.961 . S
C2519 H2535 0.961 . S
C2520 C2521 1.370 . S
C2520 C2522 1.363 . S
C2520 H2536 0.931 . S
C2521 C2520 1.370 . S
C2521 C2525 1.408 . S
C2522 C2520 1.363 . S
C2522 C2523 1.370 . S
C2522 C2526 1.524 . S
C2523 C2515 1.503 . S
C2523 C2522 1.370 . S
C2523 C2524 1.403 . S
C2524 C2523 1.403 . S
C2524 C2525 1.404 . S
C2524 C2527 1.539 . S
C2525 C2521 1.408 . S
C2525 C2524 1.404 . S
C2525 H2537 0.930 . S
C2526 C2522 1.524 . S
C2526 H2538 0.956 . S
C2526 H2539 0.961 . S
C2526 H2540 0.961 . S
C2527 C2524 1.539 . S
C2527 H2541 0.958 . S
C2527 H2542 0.961 . S
C2527 H2543 0.960 . S
H2528 C2512 0.931 . S
H2529 C2517 0.929 . S
H2530 C2518 0.960 . S
H2531 C2518 0.962 . S
H2532 C2518 0.960 . S
H2533 C2519 0.961 . S
H2534 C2519 0.961 . S
H2535 C2519 0.961 . S
H2536 C2520 0.931 . S
H2537 C2525 0.930 . S
H2538 C2526 0.956 . S
H2539 C2526 0.961 . S
H2540 C2526 0.961 . S
H2541 C2527 0.958 . S
H2542 C2527 0.961 . S
H2543 C2527 0.960 . S
C2544 C2545 1.391 . S
C2544 C2546 1.394 . S
C2544 H2560 0.931 . S
C2545 C2544 1.391 . S
C2545 C2549 1.376 . S
C2546 C2544 1.394 . S
C2546 C2547 1.369 . S
C2546 C2550 1.531 . S
C2547 C2546 1.369 . S
C2547 C2548 1.410 . S
C2547 C2555 1.503 . S
C2548 C2547 1.410 . S
C2548 C2549 1.392 . S
C2548 C2551 1.511 . S
C2549 C2545 1.376 . S
C2549 C2548 1.392 . S
C2549 H2561 0.929 . S
C2550 C2546 1.531 . S
C2550 H2562 0.960 . S
C2550 H2563 0.962 . S
C2550 H2564 0.960 . S
C2551 C2548 1.511 . S
C2551 H2565 0.961 . S
C2551 H2566 0.961 . S
C2551 H2567 0.961 . S
C2552 C2553 1.370 . S
C2552 C2554 1.363 . S
C2552 H2568 0.931 . S
C2553 C2552 1.370 . S
C2553 C2557 1.408 . S
C2554 C2552 1.363 . S
C2554 C2555 1.370 . S
C2554 C2558 1.524 . S
C2555 C2547 1.503 . S
C2555 C2554 1.370 . S
C2555 C2556 1.403 . S
C2556 C2555 1.403 . S
C2556 C2557 1.404 . S
C2556 C2559 1.539 . S
C2557 C2553 1.408 . S
C2557 C2556 1.404 . S
C2557 H2569 0.930 . S
C2558 C2554 1.524 . S
C2558 H2570 0.956 . S
C2558 H2571 0.961 . S
C2558 H2572 0.961 . S
C2559 C2556 1.539 . S
C2559 H2573 0.958 . S
C2559 H2574 0.961 . S
C2559 H2575 0.960 . S
H2560 C2544 0.931 . S
H2561 C2549 0.929 . S
H2562 C2550 0.960 . S
H2563 C2550 0.962 . S
H2564 C2550 0.960 . S
H2565 C2551 0.961 . S
H2566 C2551 0.961 . S
H2567 C2551 0.961 . S
H2568 C2552 0.931 . S
H2569 C2557 0.930 . S
H2570 C2558 0.956 . S
H2571 C2558 0.961 . S
H2572 C2558 0.961 . S
H2573 C2559 0.958 . S
H2574 C2559 0.961 . S
H2575 C2559 0.960 . S
C2576 C2577 1.391 . S
C2576 C2578 1.394 . S
C2576 H2592 0.931 . S
C2577 C2576 1.391 . S
C2577 C2581 1.376 . S
C2578 C2576 1.394 . S
C2578 C2579 1.369 . S
C2578 C2582 1.531 . S
C2579 C2578 1.369 . S
C2579 C2580 1.410 . S
C2579 C2587 1.503 . S
C2580 C2579 1.410 . S
C2580 C2581 1.392 . S
C2580 C2583 1.511 . S
C2581 C2577 1.376 . S
C2581 C2580 1.392 . S
C2581 H2593 0.929 . S
C2582 C2578 1.531 . S
C2582 H2594 0.960 . S
C2582 H2595 0.962 . S
C2582 H2596 0.960 . S
C2583 C2580 1.511 . S
C2583 H2597 0.961 . S
C2583 H2598 0.961 . S
C2583 H2599 0.961 . S
C2584 C2585 1.370 . S
C2584 C2586 1.363 . S
C2584 H2600 0.931 . S
C2585 C2584 1.370 . S
C2585 C2589 1.408 . S
C2586 C2584 1.363 . S
C2586 C2587 1.370 . S
C2586 C2590 1.524 . S
C2587 C2579 1.503 . S
C2587 C2586 1.370 . S
C2587 C2588 1.403 . S
C2588 C2587 1.403 . S
C2588 C2589 1.404 . S
C2588 C2591 1.539 . S
C2589 C2585 1.408 . S
C2589 C2588 1.404 . S
C2589 H2601 0.930 . S
C2590 C2586 1.524 . S
C2590 H2602 0.956 . S
C2590 H2603 0.961 . S
C2590 H2604 0.961 . S
C2591 C2588 1.539 . S
C2591 H2605 0.958 . S
C2591 H2606 0.961 . S
C2591 H2607 0.960 . S
H2592 C2576 0.931 . S
H2593 C2581 0.929 . S
H2594 C2582 0.960 . S
H2595 C2582 0.962 . S
H2596 C2582 0.960 . S
H2597 C2583 0.961 . S
H2598 C2583 0.961 . S
H2599 C2583 0.961 . S
H2600 C2584 0.931 . S
H2601 C2589 0.930 . S
H2602 C2590 0.956 . S
H2603 C2590 0.961 . S
H2604 C2590 0.961 . S
H2605 C2591 0.958 . S
H2606 C2591 0.961 . S
H2607 C2591 0.960 . S
C2608 C2609 1.391 . S
C2608 C2610 1.394 . S
C2608 H2624 0.931 . S
C2609 C2608 1.391 . S
C2609 C2613 1.376 . S
C2610 C2608 1.394 . S
C2610 C2611 1.369 . S
C2610 C2614 1.531 . S
C2611 C2610 1.369 . S
C2611 C2612 1.410 . S
C2611 C2619 1.503 . S
C2612 C2611 1.410 . S
C2612 C2613 1.392 . S
C2612 C2615 1.511 . S
C2613 C2609 1.376 . S
C2613 C2612 1.392 . S
C2613 H2625 0.929 . S
C2614 C2610 1.531 . S
C2614 H2626 0.960 . S
C2614 H2627 0.962 . S
C2614 H2628 0.960 . S
C2615 C2612 1.511 . S
C2615 H2629 0.961 . S
C2615 H2630 0.961 . S
C2615 H2631 0.961 . S
C2616 C2617 1.370 . S
C2616 C2618 1.363 . S
C2616 H2632 0.931 . S
C2617 C2616 1.370 . S
C2617 C2621 1.408 . S
C2618 C2616 1.363 . S
C2618 C2619 1.370 . S
C2618 C2622 1.524 . S
C2619 C2611 1.503 . S
C2619 C2618 1.370 . S
C2619 C2620 1.403 . S
C2620 C2619 1.403 . S
C2620 C2621 1.404 . S
C2620 C2623 1.539 . S
C2621 C2617 1.408 . S
C2621 C2620 1.404 . S
C2621 H2633 0.930 . S
C2622 C2618 1.524 . S
C2622 H2634 0.956 . S
C2622 H2635 0.961 . S
C2622 H2636 0.961 . S
C2623 C2620 1.539 . S
C2623 H2637 0.958 . S
C2623 H2638 0.961 . S
C2623 H2639 0.960 . S
H2624 C2608 0.931 . S
H2625 C2613 0.929 . S
H2626 C2614 0.960 . S
H2627 C2614 0.962 . S
H2628 C2614 0.960 . S
H2629 C2615 0.961 . S
H2630 C2615 0.961 . S
H2631 C2615 0.961 . S
H2632 C2616 0.931 . S
H2633 C2621 0.930 . S
H2634 C2622 0.956 . S
H2635 C2622 0.961 . S
H2636 C2622 0.961 . S
H2637 C2623 0.958 . S
H2638 C2623 0.961 . S
H2639 C2623 0.960 . S
C2640 C2641 1.391 . S
C2640 C2642 1.394 . S
C2640 H2656 0.931 . S
C2641 C2640 1.391 . S
C2641 C2645 1.376 . S
C2642 C2640 1.394 . S
C2642 C2643 1.369 . S
C2642 C2646 1.531 . S
C2643 C2642 1.369 . S
C2643 C2644 1.410 . S
C2643 C2651 1.503 . S
C2644 C2643 1.410 . S
C2644 C2645 1.392 . S
C2644 C2647 1.511 . S
C2645 C2641 1.376 . S
C2645 C2644 1.392 . S
C2645 H2657 0.929 . S
C2646 C2642 1.531 . S
C2646 H2658 0.960 . S
C2646 H2659 0.962 . S
C2646 H2660 0.960 . S
C2647 C2644 1.511 . S
C2647 H2661 0.961 . S
C2647 H2662 0.961 . S
C2647 H2663 0.961 . S
C2648 C2649 1.370 . S
C2648 C2650 1.363 . S
C2648 H2664 0.931 . S
C2649 C2648 1.370 . S
C2649 C2653 1.408 . S
C2650 C2648 1.363 . S
C2650 C2651 1.370 . S
C2650 C2654 1.524 . S
C2651 C2643 1.503 . S
C2651 C2650 1.370 . S
C2651 C2652 1.403 . S
C2652 C2651 1.403 . S
C2652 C2653 1.404 . S
C2652 C2655 1.539 . S
C2653 C2649 1.408 . S
C2653 C2652 1.404 . S
C2653 H2665 0.930 . S
C2654 C2650 1.524 . S
C2654 H2666 0.956 . S
C2654 H2667 0.961 . S
C2654 H2668 0.961 . S
C2655 C2652 1.539 . S
C2655 H2669 0.958 . S
C2655 H2670 0.961 . S
C2655 H2671 0.960 . S
H2656 C2640 0.931 . S
H2657 C2645 0.929 . S
H2658 C2646 0.960 . S
H2659 C2646 0.962 . S
H2660 C2646 0.960 . S
H2661 C2647 0.961 . S
H2662 C2647 0.961 . S
H2663 C2647 0.961 . S
H2664 C2648 0.931 . S
H2665 C2653 0.930 . S
H2666 C2654 0.956 . S
H2667 C2654 0.961 . S
H2668 C2654 0.961 . S
H2669 C2655 0.958 . S
H2670 C2655 0.961 . S
H2671 C2655 0.960 . S
C2672 C2673 1.391 . S
C2672 C2674 1.394 . S
C2672 H2688 0.931 . S
C2673 C2672 1.391 . S
C2673 C2677 1.376 . S
C2674 C2672 1.394 . S
C2674 C2675 1.369 . S
C2674 C2678 1.531 . S
C2675 C2674 1.369 . S
C2675 C2676 1.410 . S
C2675 C2683 1.503 . S
C2676 C2675 1.410 . S
C2676 C2677 1.392 . S
C2676 C2679 1.511 . S
C2677 C2673 1.376 . S
C2677 C2676 1.392 . S
C2677 H2689 0.929 . S
C2678 C2674 1.531 . S
C2678 H2690 0.960 . S
C2678 H2691 0.962 . S
C2678 H2692 0.960 . S
C2679 C2676 1.511 . S
C2679 H2693 0.961 . S
C2679 H2694 0.961 . S
C2679 H2695 0.961 . S
C2680 C2681 1.370 . S
C2680 C2682 1.363 . S
C2680 H2696 0.931 . S
C2681 C2680 1.370 . S
C2681 C2685 1.408 . S
C2682 C2680 1.363 . S
C2682 C2683 1.370 . S
C2682 C2686 1.524 . S
C2683 C2675 1.503 . S
C2683 C2682 1.370 . S
C2683 C2684 1.403 . S
C2684 C2683 1.403 . S
C2684 C2685 1.404 . S
C2684 C2687 1.539 . S
C2685 C2681 1.408 . S
C2685 C2684 1.404 . S
C2685 H2697 0.930 . S
C2686 C2682 1.524 . S
C2686 H2698 0.956 . S
C2686 H2699 0.961 . S
C2686 H2700 0.961 . S
C2687 C2684 1.539 . S
C2687 H2701 0.958 . S
C2687 H2702 0.961 . S
C2687 H2703 0.960 . S
H2688 C2672 0.931 . S
H2689 C2677 0.929 . S
H2690 C2678 0.960 . S
H2691 C2678 0.962 . S
H2692 C2678 0.960 . S
H2693 C2679 0.961 . S
H2694 C2679 0.961 . S
H2695 C2679 0.961 . S
H2696 C2680 0.931 . S
H2697 C2685 0.930 . S
H2698 C2686 0.956 . S
H2699 C2686 0.961 . S
H2700 C2686 0.961 . S
H2701 C2687 0.958 . S
H2702 C2687 0.961 . S
H2703 C2687 0.960 . S
C2704 C2705 1.391 . S
C2704 C2706 1.394 . S
C2704 H2720 0.931 . S
C2705 C2704 1.391 . S
C2705 C2709 1.376 . S
C2706 C2704 1.394 . S
C2706 C2707 1.369 . S
C2706 C2710 1.531 . S
C2707 C2706 1.369 . S
C2707 C2708 1.410 . S
C2707 C2715 1.503 . S
C2708 C2707 1.410 . S
C2708 C2709 1.392 . S
C2708 C2711 1.511 . S
C2709 C2705 1.376 . S
C2709 C2708 1.392 . S
C2709 H2721 0.929 . S
C2710 C2706 1.531 . S
C2710 H2722 0.960 . S
C2710 H2723 0.962 . S
C2710 H2724 0.960 . S
C2711 C2708 1.511 . S
C2711 H2725 0.961 . S
C2711 H2726 0.961 . S
C2711 H2727 0.961 . S
C2712 C2713 1.370 . S
C2712 C2714 1.363 . S
C2712 H2728 0.931 . S
C2713 C2712 1.370 . S
C2713 C2717 1.408 . S
C2714 C2712 1.363 . S
C2714 C2715 1.370 . S
C2714 C2718 1.524 . S
C2715 C2707 1.503 . S
C2715 C2714 1.370 . S
C2715 C2716 1.403 . S
C2716 C2715 1.403 . S
C2716 C2717 1.404 . S
C2716 C2719 1.539 . S
C2717 C2713 1.408 . S
C2717 C2716 1.404 . S
C2717 H2729 0.930 . S
C2718 C2714 1.524 . S
C2718 H2730 0.956 . S
C2718 H2731 0.961 . S
C2718 H2732 0.961 . S
C2719 C2716 1.539 . S
C2719 H2733 0.958 . S
C2719 H2734 0.961 . S
C2719 H2735 0.960 . S
H2720 C2704 0.931 . S
H2721 C2709 0.929 . S
H2722 C2710 0.960 . S
H2723 C2710 0.962 . S
H2724 C2710 0.960 . S
H2725 C2711 0.961 . S
H2726 C2711 0.961 . S
H2727 C2711 0.961 . S
H2728 C2712 0.931 . S
H2729 C2717 0.930 . S
H2730 C2718 0.956 . S
H2731 C2718 0.961 . S
H2732 C2718 0.961 . S
H2733 C2719 0.958 . S
H2734 C2719 0.961 . S
H2735 C2719 0.960 . S
C2736 C2737 1.391 . S
C2736 C2738 1.394 . S
C2736 H2752 0.931 . S
C2737 C2736 1.391 . S
C2737 C2741 1.376 . S
C2738 C2736 1.394 . S
C2738 C2739 1.369 . S
C2738 C2742 1.531 . S
C2739 C2738 1.369 . S
C2739 C2740 1.410 . S
C2739 C2747 1.503 . S
C2740 C2739 1.410 . S
C2740 C2741 1.392 . S
C2740 C2743 1.511 . S
C2741 C2737 1.376 . S
C2741 C2740 1.392 . S
C2741 H2753 0.929 . S
C2742 C2738 1.531 . S
C2742 H2754 0.960 . S
C2742 H2755 0.962 . S
C2742 H2756 0.960 . S
C2743 C2740 1.511 . S
C2743 H2757 0.961 . S
C2743 H2758 0.961 . S
C2743 H2759 0.961 . S
C2744 C2745 1.370 . S
C2744 C2746 1.363 . S
C2744 H2760 0.931 . S
C2745 C2744 1.370 . S
C2745 C2749 1.408 . S
C2746 C2744 1.363 . S
C2746 C2747 1.370 . S
C2746 C2750 1.524 . S
C2747 C2739 1.503 . S
C2747 C2746 1.370 . S
C2747 C2748 1.403 . S
C2748 C2747 1.403 . S
C2748 C2749 1.404 . S
C2748 C2751 1.539 . S
C2749 C2745 1.408 . S
C2749 C2748 1.404 . S
C2749 H2761 0.930 . S
C2750 C2746 1.524 . S
C2750 H2762 0.956 . S
C2750 H2763 0.961 . S
C2750 H2764 0.961 . S
C2751 C2748 1.539 . S
C2751 H2765 0.958 . S
C2751 H2766 0.961 . S
C2751 H2767 0.960 . S
H2752 C2736 0.931 . S
H2753 C2741 0.929 . S
H2754 C2742 0.960 . S
H2755 C2742 0.962 . S
H2756 C2742 0.960 . S
H2757 C2743 0.961 . S
H2758 C2743 0.961 . S
H2759 C2743 0.961 . S
H2760 C2744 0.931 . S
H2761 C2749 0.930 . S
H2762 C2750 0.956 . S
H2763 C2750 0.961 . S
H2764 C2750 0.961 . S
H2765 C2751 0.958 . S
H2766 C2751 0.961 . S
H2767 C2751 0.960 . S
C2768 C2769 1.391 . S
C2768 C2770 1.394 . S
C2768 H2784 0.931 . S
C2769 C2768 1.391 . S
C2769 C2773 1.376 . S
C2770 C2768 1.394 . S
C2770 C2771 1.369 . S
C2770 C2774 1.531 . S
C2771 C2770 1.369 . S
C2771 C2772 1.410 . S
C2771 C2779 1.503 . S
C2772 C2771 1.410 . S
C2772 C2773 1.392 . S
C2772 C2775 1.511 . S
C2773 C2769 1.376 . S
C2773 C2772 1.392 . S
C2773 H2785 0.929 . S
C2774 C2770 1.531 . S
C2774 H2786 0.960 . S
C2774 H2787 0.962 . S
C2774 H2788 0.960 . S
C2775 C2772 1.511 . S
C2775 H2789 0.961 . S
C2775 H2790 0.961 . S
C2775 H2791 0.961 . S
C2776 C2777 1.370 . S
C2776 C2778 1.363 . S
C2776 H2792 0.931 . S
C2777 C2776 1.370 . S
C2777 C2781 1.408 . S
C2778 C2776 1.363 . S
C2778 C2779 1.370 . S
C2778 C2782 1.524 . S
C2779 C2771 1.503 . S
C2779 C2778 1.370 . S
C2779 C2780 1.403 . S
C2780 C2779 1.403 . S
C2780 C2781 1.404 . S
C2780 C2783 1.539 . S
C2781 C2777 1.408 . S
C2781 C2780 1.404 . S
C2781 H2793 0.930 . S
C2782 C2778 1.524 . S
C2782 H2794 0.956 . S
C2782 H2795 0.961 . S
C2782 H2796 0.961 . S
C2783 C2780 1.539 . S
C2783 H2797 0.958 . S
C2783 H2798 0.961 . S
C2783 H2799 0.960 . S
H2784 C2768 0.931 . S
H2785 C2773 0.929 . S
H2786 C2774 0.960 . S
H2787 C2774 0.962 . S
H2788 C2774 0.960 . S
H2789 C2775 0.961 . S
H2790 C2775 0.961 . S
H2791 C2775 0.961 . S
H2792 C2776 0.931 . S
H2793 C2781 0.930 . S
H2794 C2782 0.956 . S
H2795 C2782 0.961 . S
H2796 C2782 0.961 . S
H2797 C2783 0.958 . S
H2798 C2783 0.961 . S
H2799 C2783 0.960 . S
C2800 C2801 1.391 . S
C2800 C2802 1.394 . S
C2800 H2816 0.931 . S
C2801 C2800 1.391 . S
C2801 C2805 1.376 . S
C2802 C2800 1.394 . S
C2802 C2803 1.369 . S
C2802 C2806 1.531 . S
C2803 C2802 1.369 . S
C2803 C2804 1.410 . S
C2803 C2811 1.503 . S
C2804 C2803 1.410 . S
C2804 C2805 1.392 . S
C2804 C2807 1.511 1_554 S
C2805 C2801 1.376 . S
C2805 C2804 1.392 . S
C2805 H2817 0.929 . S
C2806 C2802 1.531 . S
C2806 H2818 0.960 . S
C2806 H2819 0.962 . S
C2806 H2820 0.960 . S
C2807 C2804 1.511 1_556 S
C2807 H2821 0.961 1_556 S
C2807 H2822 0.961 1_556 S
C2807 H2823 0.961 . S
C2808 C2809 1.370 . S
C2808 C2810 1.363 . S
C2808 H2824 0.931 . S
C2809 C2808 1.370 . S
C2809 C2813 1.408 1_554 S
C2810 C2808 1.363 . S
C2810 C2811 1.370 . S
C2810 C2814 1.524 . S
C2811 C2803 1.503 . S
C2811 C2810 1.370 . S
C2811 C2812 1.403 1_554 S
C2812 C2811 1.403 1_556 S
C2812 C2813 1.404 . S
C2812 C2815 1.539 . S
C2813 C2809 1.408 1_556 S
C2813 C2812 1.404 . S
C2813 H2825 0.930 . S
C2814 C2810 1.524 . S
C2814 H2826 0.956 . S
C2814 H2827 0.961 . S
C2814 H2828 0.961 . S
C2815 C2812 1.539 . S
C2815 H2829 0.958 . S
C2815 H2830 0.961 . S
C2815 H2831 0.960 . S
H2816 C2800 0.931 . S
H2817 C2805 0.929 . S
H2818 C2806 0.960 . S
H2819 C2806 0.962 . S
H2820 C2806 0.960 . S
H2821 C2807 0.961 1_554 S
H2822 C2807 0.961 1_554 S
H2823 C2807 0.961 . S
H2824 C2808 0.931 . S
H2825 C2813 0.930 . S
H2826 C2814 0.956 . S
H2827 C2814 0.961 . S
H2828 C2814 0.961 . S
H2829 C2815 0.958 . S
H2830 C2815 0.961 . S
H2831 C2815 0.960 . S
C2832 C2833 1.391 . S
C2832 C2834 1.394 . S
C2832 H2848 0.931 . S
C2833 C2832 1.391 . S
C2833 C2837 1.376 . S
C2834 C2832 1.394 . S
C2834 C2835 1.369 . S
C2834 C2838 1.531 . S
C2835 C2834 1.369 . S
C2835 C2836 1.410 . S
C2835 C2843 1.503 . S
C2836 C2835 1.410 . S
C2836 C2837 1.392 . S
C2836 C2839 1.511 . S
C2837 C2833 1.376 . S
C2837 C2836 1.392 . S
C2837 H2849 0.929 . S
C2838 C2834 1.531 . S
C2838 H2850 0.960 . S
C2838 H2851 0.962 . S
C2838 H2852 0.960 . S
C2839 C2836 1.511 . S
C2839 H2853 0.961 . S
C2839 H2854 0.961 . S
C2839 H2855 0.961 . S
C2840 C2841 1.370 . S
C2840 C2842 1.363 . S
C2840 H2856 0.931 . S
C2841 C2840 1.370 . S
C2841 C2845 1.408 . S
C2842 C2840 1.363 . S
C2842 C2843 1.370 . S
C2842 C2846 1.524 . S
C2843 C2835 1.503 . S
C2843 C2842 1.370 . S
C2843 C2844 1.403 . S
C2844 C2843 1.403 . S
C2844 C2845 1.404 . S
C2844 C2847 1.539 . S
C2845 C2841 1.408 . S
C2845 C2844 1.404 . S
C2845 H2857 0.930 . S
C2846 C2842 1.524 . S
C2846 H2858 0.956 . S
C2846 H2859 0.961 . S
C2846 H2860 0.961 . S
C2847 C2844 1.539 . S
C2847 H2861 0.958 . S
C2847 H2862 0.961 . S
C2847 H2863 0.960 . S
H2848 C2832 0.931 . S
H2849 C2837 0.929 . S
H2850 C2838 0.960 . S
H2851 C2838 0.962 . S
H2852 C2838 0.960 . S
H2853 C2839 0.961 . S
H2854 C2839 0.961 . S
H2855 C2839 0.961 . S
H2856 C2840 0.931 . S
H2857 C2845 0.930 . S
H2858 C2846 0.956 . S
H2859 C2846 0.961 . S
H2860 C2846 0.961 . S
H2861 C2847 0.958 . S
H2862 C2847 0.961 . S
H2863 C2847 0.960 . S
C2864 C2865 1.391 . S
C2864 C2866 1.394 . S
C2864 H2880 0.931 . S
C2865 C2864 1.391 . S
C2865 C2869 1.375 1_554 S
C2866 C2864 1.394 . S
C2866 C2867 1.369 . S
C2866 C2870 1.531 . S
C2867 C2866 1.369 . S
C2867 C2868 1.410 . S
C2867 C2875 1.503 . S
C2868 C2867 1.410 . S
C2868 C2869 1.392 1_554 S
C2868 C2871 1.511 1_554 S
C2869 C2865 1.375 1_556 S
C2869 C2868 1.392 1_556 S
C2869 H2881 0.930 . S
C2870 C2866 1.531 . S
C2870 H2882 0.960 . S
C2870 H2883 0.962 . S
C2870 H2884 0.960 . S
C2871 C2868 1.511 1_556 S
C2871 H2885 0.961 . S
C2871 H2886 0.961 . S
C2871 H2887 0.961 . S
C2872 C2873 1.370 . S
C2872 C2874 1.363 . S
C2872 H2888 0.931 . S
C2873 C2872 1.370 . S
C2873 C2877 1.408 . S
C2874 C2872 1.363 . S
C2874 C2875 1.370 . S
C2874 C2878 1.524 . S
C2875 C2867 1.503 . S
C2875 C2874 1.370 . S
C2875 C2876 1.403 . S
C2876 C2875 1.403 . S
C2876 C2877 1.404 . S
C2876 C2879 1.539 . S
C2877 C2873 1.408 . S
C2877 C2876 1.404 . S
C2877 H2889 0.930 . S
C2878 C2874 1.524 . S
C2878 H2890 0.956 . S
C2878 H2891 0.961 . S
C2878 H2892 0.961 . S
C2879 C2876 1.539 . S
C2879 H2893 0.958 . S
C2879 H2894 0.961 . S
C2879 H2895 0.960 . S
H2880 C2864 0.931 . S
H2881 C2869 0.930 . S
H2882 C2870 0.960 . S
H2883 C2870 0.962 . S
H2884 C2870 0.960 . S
H2885 C2871 0.961 . S
H2886 C2871 0.961 . S
H2887 C2871 0.961 . S
H2888 C2872 0.931 . S
H2889 C2877 0.930 . S
H2890 C2878 0.956 . S
H2891 C2878 0.961 . S
H2892 C2878 0.961 . S
H2893 C2879 0.958 . S
H2894 C2879 0.961 . S
H2895 C2879 0.960 . S
C2896 C2897 1.391 . S
C2896 C2898 1.394 . S
C2896 H2912 0.931 . S
C2897 C2896 1.391 . S
C2897 C2901 1.376 . S
C2898 C2896 1.394 . S
C2898 C2899 1.369 . S
C2898 C2902 1.531 . S
C2899 C2898 1.369 . S
C2899 C2900 1.410 . S
C2899 C2907 1.503 . S
C2900 C2899 1.410 . S
C2900 C2901 1.392 . S
C2900 C2903 1.511 . S
C2901 C2897 1.376 . S
C2901 C2900 1.392 . S
C2901 H2913 0.929 . S
C2902 C2898 1.531 . S
C2902 H2914 0.960 . S
C2902 H2915 0.962 . S
C2902 H2916 0.960 . S
C2903 C2900 1.511 . S
C2903 H2917 0.961 . S
C2903 H2918 0.961 . S
C2903 H2919 0.961 . S
C2904 C2905 1.370 . S
C2904 C2906 1.363 . S
C2904 H2920 0.931 . S
C2905 C2904 1.370 . S
C2905 C2909 1.408 . S
C2906 C2904 1.363 . S
C2906 C2907 1.370 . S
C2906 C2910 1.524 . S
C2907 C2899 1.503 . S
C2907 C2906 1.370 . S
C2907 C2908 1.403 . S
C2908 C2907 1.403 . S
C2908 C2909 1.404 . S
C2908 C2911 1.539 . S
C2909 C2905 1.408 . S
C2909 C2908 1.404 . S
C2909 H2921 0.930 . S
C2910 C2906 1.524 . S
C2910 H2922 0.956 . S
C2910 H2923 0.961 . S
C2910 H2924 0.961 . S
C2911 C2908 1.539 . S
C2911 H2925 0.958 . S
C2911 H2926 0.961 . S
C2911 H2927 0.960 . S
H2912 C2896 0.931 . S
H2913 C2901 0.929 . S
H2914 C2902 0.960 . S
H2915 C2902 0.962 . S
H2916 C2902 0.960 . S
H2917 C2903 0.961 . S
H2918 C2903 0.961 . S
H2919 C2903 0.961 . S
H2920 C2904 0.931 . S
H2921 C2909 0.930 . S
H2922 C2910 0.956 . S
H2923 C2910 0.961 . S
H2924 C2910 0.961 . S
H2925 C2911 0.958 . S
H2926 C2911 0.961 . S
H2927 C2911 0.960 . S
C2928 C2929 1.391 . S
C2928 C2930 1.394 . S
C2928 H2944 0.931 . S
C2929 C2928 1.391 . S
C2929 C2933 1.376 . S
C2930 C2928 1.394 . S
C2930 C2931 1.369 . S
C2930 C2934 1.531 . S
C2931 C2930 1.369 . S
C2931 C2932 1.410 . S
C2931 C2939 1.503 . S
C2932 C2931 1.410 . S
C2932 C2933 1.392 . S
C2932 C2935 1.511 . S
C2933 C2929 1.376 . S
C2933 C2932 1.392 . S
C2933 H2945 0.929 . S
C2934 C2930 1.531 . S
C2934 H2946 0.960 . S
C2934 H2947 0.962 . S
C2934 H2948 0.960 . S
C2935 C2932 1.511 . S
C2935 H2949 0.961 . S
C2935 H2950 0.961 . S
C2935 H2951 0.961 . S
C2936 C2937 1.370 . S
C2936 C2938 1.363 . S
C2936 H2952 0.931 . S
C2937 C2936 1.370 . S
C2937 C2941 1.408 . S
C2938 C2936 1.363 . S
C2938 C2939 1.370 . S
C2938 C2942 1.524 . S
C2939 C2931 1.503 . S
C2939 C2938 1.370 . S
C2939 C2940 1.403 . S
C2940 C2939 1.403 . S
C2940 C2941 1.404 . S
C2940 C2943 1.539 . S
C2941 C2937 1.408 . S
C2941 C2940 1.404 . S
C2941 H2953 0.930 . S
C2942 C2938 1.524 . S
C2942 H2954 0.956 . S
C2942 H2955 0.961 . S
C2942 H2956 0.961 . S
C2943 C2940 1.539 . S
C2943 H2957 0.958 . S
C2943 H2958 0.961 . S
C2943 H2959 0.960 . S
H2944 C2928 0.931 . S
H2945 C2933 0.929 . S
H2946 C2934 0.960 . S
H2947 C2934 0.962 . S
H2948 C2934 0.960 . S
H2949 C2935 0.961 . S
H2950 C2935 0.961 . S
H2951 C2935 0.961 . S
H2952 C2936 0.931 . S
H2953 C2941 0.930 . S
H2954 C2942 0.956 . S
H2955 C2942 0.961 . S
H2956 C2942 0.961 . S
H2957 C2943 0.958 . S
H2958 C2943 0.961 . S
H2959 C2943 0.960 . S
C2960 C2961 1.391 . S
C2960 C2962 1.394 . S
C2960 H2976 0.931 . S
C2961 C2960 1.391 . S
C2961 C2965 1.376 . S
C2962 C2960 1.394 . S
C2962 C2963 1.369 . S
C2962 C2966 1.531 . S
C2963 C2962 1.369 . S
C2963 C2964 1.410 . S
C2963 C2971 1.503 . S
C2964 C2963 1.410 . S
C2964 C2965 1.392 . S
C2964 C2967 1.511 . S
C2965 C2961 1.376 . S
C2965 C2964 1.392 . S
C2965 H2977 0.929 . S
C2966 C2962 1.531 . S
C2966 H2978 0.960 . S
C2966 H2979 0.962 . S
C2966 H2980 0.960 . S
C2967 C2964 1.511 . S
C2967 H2981 0.961 . S
C2967 H2982 0.961 . S
C2967 H2983 0.961 . S
C2968 C2969 1.370 . S
C2968 C2970 1.363 . S
C2968 H2984 0.931 . S
C2969 C2968 1.370 . S
C2969 C2973 1.408 . S
C2970 C2968 1.363 . S
C2970 C2971 1.370 . S
C2970 C2974 1.524 . S
C2971 C2963 1.503 . S
C2971 C2970 1.370 . S
C2971 C2972 1.403 . S
C2972 C2971 1.403 . S
C2972 C2973 1.404 . S
C2972 C2975 1.539 . S
C2973 C2969 1.408 . S
C2973 C2972 1.404 . S
C2973 H2985 0.930 . S
C2974 C2970 1.524 . S
C2974 H2986 0.956 . S
C2974 H2987 0.961 . S
C2974 H2988 0.961 . S
C2975 C2972 1.539 . S
C2975 H2989 0.958 . S
C2975 H2990 0.961 . S
C2975 H2991 0.960 . S
H2976 C2960 0.931 . S
H2977 C2965 0.929 . S
H2978 C2966 0.960 . S
H2979 C2966 0.962 . S
H2980 C2966 0.960 . S
H2981 C2967 0.961 . S
H2982 C2967 0.961 . S
H2983 C2967 0.961 . S
H2984 C2968 0.931 . S
H2985 C2973 0.930 . S
H2986 C2974 0.956 . S
H2987 C2974 0.961 . S
H2988 C2974 0.961 . S
H2989 C2975 0.958 . S
H2990 C2975 0.961 . S
H2991 C2975 0.960 . S
C2992 C2993 1.391 . S
C2992 C2994 1.394 . S
C2992 H3008 0.931 . S
C2993 C2992 1.391 . S
C2993 C2997 1.376 . S
C2994 C2992 1.394 . S
C2994 C2995 1.369 . S
C2994 C2998 1.531 . S
C2995 C2994 1.369 . S
C2995 C2996 1.410 . S
C2995 C3003 1.503 . S
C2996 C2995 1.410 . S
C2996 C2997 1.392 . S
C2996 C2999 1.511 . S
C2997 C2993 1.376 . S
C2997 C2996 1.392 . S
C2997 H3009 0.929 . S
C2998 C2994 1.531 . S
C2998 H3010 0.960 . S
C2998 H3011 0.962 . S
C2998 H3012 0.960 . S
C2999 C2996 1.511 . S
C2999 H3013 0.961 . S
C2999 H3014 0.961 . S
C2999 H3015 0.961 . S
C3000 C3001 1.370 . S
C3000 C3002 1.363 . S
C3000 H3016 0.931 . S
C3001 C3000 1.370 . S
C3001 C3005 1.408 . S
C3002 C3000 1.363 . S
C3002 C3003 1.370 . S
C3002 C3006 1.524 . S
C3003 C2995 1.503 . S
C3003 C3002 1.370 . S
C3003 C3004 1.403 . S
C3004 C3003 1.403 . S
C3004 C3005 1.404 . S
C3004 C3007 1.539 . S
C3005 C3001 1.408 . S
C3005 C3004 1.404 . S
C3005 H3017 0.930 . S
C3006 C3002 1.524 . S
C3006 H3018 0.956 . S
C3006 H3019 0.961 . S
C3006 H3020 0.961 . S
C3007 C3004 1.539 . S
C3007 H3021 0.958 . S
C3007 H3022 0.961 . S
C3007 H3023 0.960 . S
H3008 C2992 0.931 . S
H3009 C2997 0.929 . S
H3010 C2998 0.960 . S
H3011 C2998 0.962 . S
H3012 C2998 0.960 . S
H3013 C2999 0.961 . S
H3014 C2999 0.961 . S
H3015 C2999 0.961 . S
H3016 C3000 0.931 . S
H3017 C3005 0.930 . S
H3018 C3006 0.956 . S
H3019 C3006 0.961 . S
H3020 C3006 0.961 . S
H3021 C3007 0.958 . S
H3022 C3007 0.961 . S
H3023 C3007 0.960 . S
C3024 C3025 1.391 . S
C3024 C3026 1.394 . S
C3024 H3040 0.931 . S
C3025 C3024 1.391 . S
C3025 C3029 1.376 . S
C3026 C3024 1.394 . S
C3026 C3027 1.369 . S
C3026 C3030 1.531 . S
C3027 C3026 1.369 . S
C3027 C3028 1.410 . S
C3027 C3035 1.503 . S
C3028 C3027 1.410 . S
C3028 C3029 1.392 . S
C3028 C3031 1.511 1_455 S
C3029 C3025 1.376 . S
C3029 C3028 1.392 . S
C3029 H3041 0.929 1_455 S
C3030 C3026 1.531 . S
C3030 H3042 0.960 . S
C3030 H3043 0.962 . S
C3030 H3044 0.960 . S
C3031 C3028 1.511 1_655 S
C3031 H3045 0.961 . S
C3031 H3046 0.961 . S
C3031 H3047 0.961 . S
C3032 C3033 1.370 . S
C3032 C3034 1.363 . S
C3032 H3048 0.931 . S
C3033 C3032 1.370 . S
C3033 C3037 1.408 . S
C3034 C3032 1.363 . S
C3034 C3035 1.370 . S
C3034 C3038 1.524 . S
C3035 C3027 1.503 . S
C3035 C3034 1.370 . S
C3035 C3036 1.403 . S
C3036 C3035 1.403 . S
C3036 C3037 1.404 . S
C3036 C3039 1.539 . S
C3037 C3033 1.408 . S
C3037 C3036 1.404 . S
C3037 H3049 0.930 . S
C3038 C3034 1.524 . S
C3038 H3050 0.956 . S
C3038 H3051 0.961 . S
C3038 H3052 0.961 . S
C3039 C3036 1.539 . S
C3039 H3053 0.958 . S
C3039 H3054 0.961 . S
C3039 H3055 0.960 . S
H3040 C3024 0.931 . S
H3041 C3029 0.929 1_655 S
H3042 C3030 0.960 . S
H3043 C3030 0.962 . S
H3044 C3030 0.960 . S
H3045 C3031 0.961 . S
H3046 C3031 0.961 . S
H3047 C3031 0.961 . S
H3048 C3032 0.931 . S
H3049 C3037 0.930 . S
H3050 C3038 0.956 . S
H3051 C3038 0.961 . S
H3052 C3038 0.961 . S
H3053 C3039 0.958 . S
H3054 C3039 0.961 . S
H3055 C3039 0.960 . S
C3056 C3057 1.391 . S
C3056 C3058 1.394 . S
C3056 H3072 0.931 . S
C3057 C3056 1.391 . S
C3057 C3061 1.376 . S
C3058 C3056 1.394 . S
C3058 C3059 1.369 . S
C3058 C3062 1.531 . S
C3059 C3058 1.369 . S
C3059 C3060 1.410 . S
C3059 C3067 1.503 . S
C3060 C3059 1.410 . S
C3060 C3061 1.392 . S
C3060 C3063 1.511 . S
C3061 C3057 1.376 . S
C3061 C3060 1.392 . S
C3061 H3073 0.929 . S
C3062 C3058 1.531 . S
C3062 H3074 0.960 . S
C3062 H3075 0.962 . S
C3062 H3076 0.960 . S
C3063 C3060 1.511 . S
C3063 H3077 0.961 . S
C3063 H3078 0.961 . S
C3063 H3079 0.961 . S
C3064 C3065 1.370 . S
C3064 C3066 1.363 . S
C3064 H3080 0.931 . S
C3065 C3064 1.370 . S
C3065 C3069 1.408 . S
C3066 C3064 1.363 . S
C3066 C3067 1.370 . S
C3066 C3070 1.524 . S
C3067 C3059 1.503 . S
C3067 C3066 1.370 . S
C3067 C3068 1.403 . S
C3068 C3067 1.403 . S
C3068 C3069 1.404 . S
C3068 C3071 1.539 . S
C3069 C3065 1.408 . S
C3069 C3068 1.404 . S
C3069 H3081 0.930 . S
C3070 C3066 1.524 . S
C3070 H3082 0.956 . S
C3070 H3083 0.961 . S
C3070 H3084 0.961 . S
C3071 C3068 1.539 . S
C3071 H3085 0.958 . S
C3071 H3086 0.961 . S
C3071 H3087 0.960 . S
H3072 C3056 0.931 . S
H3073 C3061 0.929 . S
H3074 C3062 0.960 . S
H3075 C3062 0.962 . S
H3076 C3062 0.960 . S
H3077 C3063 0.961 . S
H3078 C3063 0.961 . S
H3079 C3063 0.961 . S
H3080 C3064 0.931 . S
H3081 C3069 0.930 . S
H3082 C3070 0.956 . S
H3083 C3070 0.961 . S
H3084 C3070 0.961 . S
H3085 C3071 0.958 . S
H3086 C3071 0.961 . S
H3087 C3071 0.960 . S
C3088 C3089 1.391 . S
C3088 C3090 1.394 . S
C3088 H3104 0.931 . S
C3089 C3088 1.391 . S
C3089 C3093 1.376 . S
C3090 C3088 1.394 . S
C3090 C3091 1.369 . S
C3090 C3094 1.531 . S
C3091 C3090 1.369 . S
C3091 C3092 1.410 . S
C3091 C3099 1.503 . S
C3092 C3091 1.410 . S
C3092 C3093 1.392 . S
C3092 C3095 1.511 . S
C3093 C3089 1.376 . S
C3093 C3092 1.392 . S
C3093 H3105 0.929 . S
C3094 C3090 1.531 . S
C3094 H3106 0.960 . S
C3094 H3107 0.962 . S
C3094 H3108 0.960 . S
C3095 C3092 1.511 . S
C3095 H3109 0.961 . S
C3095 H3110 0.961 . S
C3095 H3111 0.961 . S
C3096 C3097 1.370 . S
C3096 C3098 1.363 . S
C3096 H3112 0.931 . S
C3097 C3096 1.370 . S
C3097 C3101 1.408 1_556 S
C3098 C3096 1.363 . S
C3098 C3099 1.370 . S
C3098 C3102 1.524 . S
C3099 C3091 1.503 . S
C3099 C3098 1.370 . S
C3099 C3100 1.403 . S
C3100 C3099 1.403 . S
C3100 C3101 1.404 1_556 S
C3100 C3103 1.539 1_556 S
C3101 C3097 1.408 1_554 S
C3101 C3100 1.404 1_554 S
C3101 H3113 0.930 . S
C3102 C3098 1.524 . S
C3102 H3114 0.956 . S
C3102 H3115 0.961 . S
C3102 H3116 0.961 . S
C3103 C3100 1.539 1_554 S
C3103 H3117 0.958 . S
C3103 H3118 0.961 . S
C3103 H3119 0.960 1_554 S
H3104 C3088 0.931 . S
H3105 C3093 0.929 . S
H3106 C3094 0.960 . S
H3107 C3094 0.962 . S
H3108 C3094 0.960 . S
H3109 C3095 0.961 . S
H3110 C3095 0.961 . S
H3111 C3095 0.961 . S
H3112 C3096 0.931 . S
H3113 C3101 0.930 . S
H3114 C3102 0.956 . S
H3115 C3102 0.961 . S
H3116 C3102 0.961 . S
H3117 C3103 0.958 . S
H3118 C3103 0.961 . S
H3119 C3103 0.960 1_556 S
C3120 C3121 1.391 . S
C3120 C3122 1.394 . S
C3120 H3136 0.931 . S
C3121 C3120 1.391 . S
C3121 C3125 1.376 . S
C3122 C3120 1.394 . S
C3122 C3123 1.369 . S
C3122 C3126 1.531 . S
C3123 C3122 1.369 . S
C3123 C3124 1.410 . S
C3123 C3131 1.503 . S
C3124 C3123 1.410 . S
C3124 C3125 1.392 . S
C3124 C3127 1.511 . S
C3125 C3121 1.376 . S
C3125 C3124 1.392 . S
C3125 H3137 0.929 . S
C3126 C3122 1.531 . S
C3126 H3138 0.960 . S
C3126 H3139 0.962 . S
C3126 H3140 0.960 . S
C3127 C3124 1.511 . S
C3127 H3141 0.961 . S
C3127 H3142 0.961 . S
C3127 H3143 0.961 . S
C3128 C3129 1.370 . S
C3128 C3130 1.363 . S
C3128 H3144 0.931 . S
C3129 C3128 1.370 . S
C3129 C3133 1.408 . S
C3130 C3128 1.363 . S
C3130 C3131 1.370 . S
C3130 C3134 1.524 . S
C3131 C3123 1.503 . S
C3131 C3130 1.370 . S
C3131 C3132 1.403 . S
C3132 C3131 1.403 . S
C3132 C3133 1.404 . S
C3132 C3135 1.539 . S
C3133 C3129 1.408 . S
C3133 C3132 1.404 . S
C3133 H3145 0.930 . S
C3134 C3130 1.524 . S
C3134 H3146 0.956 . S
C3134 H3147 0.961 . S
C3134 H3148 0.961 . S
C3135 C3132 1.539 . S
C3135 H3149 0.958 . S
C3135 H3150 0.961 . S
C3135 H3151 0.960 . S
H3136 C3120 0.931 . S
H3137 C3125 0.929 . S
H3138 C3126 0.960 . S
H3139 C3126 0.962 . S
H3140 C3126 0.960 . S
H3141 C3127 0.961 . S
H3142 C3127 0.961 . S
H3143 C3127 0.961 . S
H3144 C3128 0.931 . S
H3145 C3133 0.930 . S
H3146 C3134 0.956 . S
H3147 C3134 0.961 . S
H3148 C3134 0.961 . S
H3149 C3135 0.958 . S
H3150 C3135 0.961 . S
H3151 C3135 0.960 . S
C3152 C3153 1.391 . S
C3152 C3154 1.394 . S
C3152 H3168 0.931 . S
C3153 C3152 1.391 . S
C3153 C3157 1.376 . S
C3154 C3152 1.394 . S
C3154 C3155 1.369 . S
C3154 C3158 1.531 . S
C3155 C3154 1.369 . S
C3155 C3156 1.410 . S
C3155 C3163 1.503 . S
C3156 C3155 1.410 . S
C3156 C3157 1.392 . S
C3156 C3159 1.511 1_455 S
C3157 C3153 1.376 . S
C3157 C3156 1.392 . S
C3157 H3169 0.951 . S
C3158 C3154 1.531 . S
C3158 H3170 0.960 . S
C3158 H3171 0.962 . S
C3158 H3172 0.960 . S
C3159 C3156 1.511 1_655 S
C3159 H3173 0.961 . S
C3159 H3174 0.961 . S
C3159 H3175 0.961 1_655 S
C3160 C3161 1.370 . S
C3160 C3162 1.363 . S
C3160 H3176 0.931 1_455 S
C3161 C3160 1.370 . S
C3161 C3165 1.408 . S
C3162 C3160 1.363 . S
C3162 C3163 1.370 . S
C3162 C3166 1.524 1_455 S
C3163 C3155 1.503 . S
C3163 C3162 1.370 . S
C3163 C3164 1.403 . S
C3164 C3163 1.403 . S
C3164 C3165 1.404 . S
C3164 C3167 1.539 . S
C3165 C3161 1.408 . S
C3165 C3164 1.404 . S
C3165 H3177 0.930 . S
C3166 C3162 1.524 1_655 S
C3166 H3178 0.956 . S
C3166 H3179 0.961 . S
C3166 H3180 0.961 . S
C3167 C3164 1.539 . S
C3167 H3181 0.958 . S
C3167 H3182 0.961 . S
C3167 H3183 0.960 . S
H3168 C3152 0.931 . S
H3169 C3157 0.951 . S
H3170 C3158 0.960 . S
H3171 C3158 0.962 . S
H3172 C3158 0.960 . S
H3173 C3159 0.961 . S
H3174 C3159 0.961 . S
H3175 C3159 0.961 1_455 S
H3176 C3160 0.931 1_655 S
H3177 C3165 0.930 . S
H3178 C3166 0.956 . S
H3179 C3166 0.961 . S
H3180 C3166 0.961 . S
H3181 C3167 0.958 . S
H3182 C3167 0.961 . S
H3183 C3167 0.960 . S
C3184 C3185 1.391 . S
C3184 C3186 1.394 . S
C3184 H3200 0.931 . S
C3185 C3184 1.391 . S
C3185 C3189 1.376 . S
C3186 C3184 1.394 . S
C3186 C3187 1.369 . S
C3186 C3190 1.531 . S
C3187 C3186 1.369 . S
C3187 C3188 1.410 . S
C3187 C3195 1.503 . S
C3188 C3187 1.410 . S
C3188 C3189 1.392 . S
C3188 C3191 1.511 . S
C3189 C3185 1.376 . S
C3189 C3188 1.392 . S
C3189 H3201 0.929 . S
C3190 C3186 1.531 . S
C3190 H3202 0.960 . S
C3190 H3203 0.962 . S
C3190 H3204 0.960 . S
C3191 C3188 1.511 . S
C3191 H3205 0.961 . S
C3191 H3206 0.961 . S
C3191 H3207 0.961 . S
C3192 C3193 1.370 . S
C3192 C3194 1.363 . S
C3192 H3208 0.931 . S
C3193 C3192 1.370 . S
C3193 C3197 1.408 . S
C3194 C3192 1.363 . S
C3194 C3195 1.370 . S
C3194 C3198 1.524 . S
C3195 C3187 1.503 . S
C3195 C3194 1.370 . S
C3195 C3196 1.403 . S
C3196 C3195 1.403 . S
C3196 C3197 1.404 . S
C3196 C3199 1.539 . S
C3197 C3193 1.408 . S
C3197 C3196 1.404 . S
C3197 H3209 0.930 . S
C3198 C3194 1.524 . S
C3198 H3210 0.956 . S
C3198 H3211 0.961 . S
C3198 H3212 0.961 . S
C3199 C3196 1.539 . S
C3199 H3213 0.958 . S
C3199 H3214 0.961 . S
C3199 H3215 0.960 . S
H3200 C3184 0.931 . S
H3201 C3189 0.929 . S
H3202 C3190 0.960 . S
H3203 C3190 0.962 . S
H3204 C3190 0.960 . S
H3205 C3191 0.961 . S
H3206 C3191 0.961 . S
H3207 C3191 0.961 . S
H3208 C3192 0.931 . S
H3209 C3197 0.930 . S
H3210 C3198 0.956 . S
H3211 C3198 0.961 . S
H3212 C3198 0.961 . S
H3213 C3199 0.958 . S
H3214 C3199 0.961 . S
H3215 C3199 0.960 . S
C3216 C3217 1.391 . S
C3216 C3218 1.394 . S
C3216 H3232 0.931 . S
C3217 C3216 1.391 . S
C3217 C3221 1.376 . S
C3218 C3216 1.394 . S
C3218 C3219 1.369 . S
C3218 C3222 1.531 . S
C3219 C3218 1.369 . S
C3219 C3220 1.410 . S
C3219 C3227 1.503 . S
C3220 C3219 1.410 . S
C3220 C3221 1.392 . S
C3220 C3223 1.511 . S
C3221 C3217 1.376 . S
C3221 C3220 1.392 . S
C3221 H3233 0.929 . S
C3222 C3218 1.531 . S
C3222 H3234 0.960 . S
C3222 H3235 0.962 . S
C3222 H3236 0.960 . S
C3223 C3220 1.511 . S
C3223 H3237 0.961 . S
C3223 H3238 0.961 . S
C3223 H3239 0.961 . S
C3224 C3225 1.370 . S
C3224 C3226 1.363 . S
C3224 H3240 0.931 . S
C3225 C3224 1.370 . S
C3225 C3229 1.408 . S
C3226 C3224 1.363 . S
C3226 C3227 1.370 . S
C3226 C3230 1.524 . S
C3227 C3219 1.503 . S
C3227 C3226 1.370 . S
C3227 C3228 1.403 . S
C3228 C3227 1.403 . S
C3228 C3229 1.404 . S
C3228 C3231 1.539 . S
C3229 C3225 1.408 . S
C3229 C3228 1.404 . S
C3229 H3241 0.930 . S
C3230 C3226 1.524 . S
C3230 H3242 0.956 . S
C3230 H3243 0.961 . S
C3230 H3244 0.961 . S
C3231 C3228 1.539 . S
C3231 H3245 0.958 . S
C3231 H3246 0.961 . S
C3231 H3247 0.960 . S
H3232 C3216 0.931 . S
H3233 C3221 0.929 . S
H3234 C3222 0.960 . S
H3235 C3222 0.962 . S
H3236 C3222 0.960 . S
H3237 C3223 0.961 . S
H3238 C3223 0.961 . S
H3239 C3223 0.961 . S
H3240 C3224 0.931 . S
H3241 C3229 0.930 . S
H3242 C3230 0.956 . S
H3243 C3230 0.961 . S
H3244 C3230 0.961 . S
H3245 C3231 0.958 . S
H3246 C3231 0.961 . S
H3247 C3231 0.960 . S
C3248 C3249 1.391 . S
C3248 C3250 1.394 . S
C3248 H3264 0.931 . S
C3249 C3248 1.391 . S
C3249 C3253 1.376 . S
C3250 C3248 1.394 . S
C3250 C3251 1.369 . S
C3250 C3254 1.531 . S
C3251 C3250 1.369 . S
C3251 C3252 1.410 . S
C3251 C3259 1.503 . S
C3252 C3251 1.410 . S
C3252 C3253 1.392 . S
C3252 C3255 1.511 . S
C3253 C3249 1.376 . S
C3253 C3252 1.392 . S
C3253 H3265 0.929 . S
C3254 C3250 1.531 . S
C3254 H3266 0.960 . S
C3254 H3267 0.962 . S
C3254 H3268 0.960 . S
C3255 C3252 1.511 . S
C3255 H3269 0.961 . S
C3255 H3270 0.961 . S
C3255 H3271 0.961 . S
C3256 C3257 1.370 . S
C3256 C3258 1.363 . S
C3256 H3272 0.931 . S
C3257 C3256 1.370 . S
C3257 C3261 1.408 . S
C3258 C3256 1.363 . S
C3258 C3259 1.370 . S
C3258 C3262 1.524 . S
C3259 C3251 1.503 . S
C3259 C3258 1.370 . S
C3259 C3260 1.403 . S
C3260 C3259 1.403 . S
C3260 C3261 1.404 . S
C3260 C3263 1.539 . S
C3261 C3257 1.408 . S
C3261 C3260 1.404 . S
C3261 H3273 0.930 . S
C3262 C3258 1.524 . S
C3262 H3274 0.956 . S
C3262 H3275 0.961 . S
C3262 H3276 0.961 . S
C3263 C3260 1.539 . S
C3263 H3277 0.958 . S
C3263 H3278 0.961 . S
C3263 H3279 0.960 . S
H3264 C3248 0.931 . S
H3265 C3253 0.929 . S
H3266 C3254 0.960 . S
H3267 C3254 0.962 . S
H3268 C3254 0.960 . S
H3269 C3255 0.961 . S
H3270 C3255 0.961 . S
H3271 C3255 0.961 . S
H3272 C3256 0.931 . S
H3273 C3261 0.930 . S
H3274 C3262 0.956 . S
H3275 C3262 0.961 . S
H3276 C3262 0.961 . S
H3277 C3263 0.958 . S
H3278 C3263 0.961 . S
H3279 C3263 0.960 . S
C3280 C3281 1.391 . S
C3280 C3282 1.394 . S
C3280 H3296 0.931 . S
C3281 C3280 1.391 . S
C3281 C3285 1.376 . S
C3282 C3280 1.394 . S
C3282 C3283 1.369 . S
C3282 C3286 1.531 . S
C3283 C3282 1.369 . S
C3283 C3284 1.410 . S
C3283 C3291 1.503 . S
C3284 C3283 1.410 . S
C3284 C3285 1.392 . S
C3284 C3287 1.511 . S
C3285 C3281 1.376 . S
C3285 C3284 1.392 . S
C3285 H3297 0.929 . S
C3286 C3282 1.531 . S
C3286 H3298 0.961 . S
C3286 H3299 0.962 1_655 S
C3286 H3300 0.962 . S
C3287 C3284 1.511 . S
C3287 H3301 0.961 . S
C3287 H3302 0.961 . S
C3287 H3303 0.961 . S
C3288 C3289 1.370 . S
C3288 C3290 1.363 . S
C3288 H3304 0.931 1_655 S
C3289 C3288 1.370 . S
C3289 C3293 1.408 . S
C3290 C3288 1.363 . S
C3290 C3291 1.370 . S
C3290 C3294 1.524 . S
C3291 C3283 1.503 . S
C3291 C3290 1.370 . S
C3291 C3292 1.403 . S
C3292 C3291 1.403 . S
C3292 C3293 1.404 . S
C3292 C3295 1.539 . S
C3293 C3289 1.408 . S
C3293 C3292 1.404 . S
C3293 H3305 0.930 . S
C3294 C3290 1.524 . S
C3294 H3306 0.956 . S
C3294 H3307 0.961 . S
C3294 H3308 0.961 . S
C3295 C3292 1.539 . S
C3295 H3309 0.958 . S
C3295 H3310 0.961 . S
C3295 H3311 0.960 . S
H3296 C3280 0.931 . S
H3297 C3285 0.929 . S
H3298 C3286 0.961 . S
H3299 C3286 0.962 1_455 S
H3300 C3286 0.962 . S
H3301 C3287 0.961 . S
H3302 C3287 0.961 . S
H3303 C3287 0.961 . S
H3304 C3288 0.931 1_455 S
H3305 C3293 0.930 . S
H3306 C3294 0.956 . S
H3307 C3294 0.961 . S
H3308 C3294 0.961 . S
H3309 C3295 0.958 . S
H3310 C3295 0.961 . S
H3311 C3295 0.960 . S
C3312 C3313 1.391 . S
C3312 C3314 1.394 . S
C3312 H3328 0.931 . S
C3313 C3312 1.391 . S
C3313 C3317 1.376 . S
C3314 C3312 1.394 . S
C3314 C3315 1.369 . S
C3314 C3318 1.531 . S
C3315 C3314 1.369 . S
C3315 C3316 1.410 . S
C3315 C3323 1.503 . S
C3316 C3315 1.410 . S
C3316 C3317 1.392 . S
C3316 C3319 1.511 . S
C3317 C3313 1.376 . S
C3317 C3316 1.392 . S
C3317 H3329 0.929 . S
C3318 C3314 1.531 . S
C3318 H3330 0.960 . S
C3318 H3331 0.962 . S
C3318 H3332 0.960 . S
C3319 C3316 1.511 . S
C3319 H3333 0.961 . S
C3319 H3334 0.961 . S
C3319 H3335 0.961 . S
C3320 C3321 1.370 . S
C3320 C3322 1.363 . S
C3320 H3336 0.931 . S
C3321 C3320 1.370 . S
C3321 C3325 1.408 . S
C3322 C3320 1.363 . S
C3322 C3323 1.370 . S
C3322 C3326 1.524 . S
C3323 C3315 1.503 . S
C3323 C3322 1.370 . S
C3323 C3324 1.403 . S
C3324 C3323 1.403 . S
C3324 C3325 1.404 . S
C3324 C3327 1.539 . S
C3325 C3321 1.408 . S
C3325 C3324 1.404 . S
C3325 H3337 0.930 . S
C3326 C3322 1.524 . S
C3326 H3338 0.956 . S
C3326 H3339 0.961 . S
C3326 H3340 0.961 . S
C3327 C3324 1.539 . S
C3327 H3341 0.958 . S
C3327 H3342 0.961 . S
C3327 H3343 0.960 . S
H3328 C3312 0.931 . S
H3329 C3317 0.929 . S
H3330 C3318 0.960 . S
H3331 C3318 0.962 . S
H3332 C3318 0.960 . S
H3333 C3319 0.961 . S
H3334 C3319 0.961 . S
H3335 C3319 0.961 . S
H3336 C3320 0.931 . S
H3337 C3325 0.930 . S
H3338 C3326 0.956 . S
H3339 C3326 0.961 . S
H3340 C3326 0.961 . S
H3341 C3327 0.958 . S
H3342 C3327 0.961 . S
H3343 C3327 0.960 . S
C3344 C3345 1.391 . S
C3344 C3346 1.394 . S
C3344 H3360 0.931 . S
C3345 C3344 1.391 . S
C3345 C3349 1.376 . S
C3346 C3344 1.394 . S
C3346 C3347 1.369 . S
C3346 C3350 1.531 . S
C3347 C3346 1.369 . S
C3347 C3348 1.410 . S
C3347 C3355 1.503 . S
C3348 C3347 1.410 . S
C3348 C3349 1.392 . S
C3348 C3351 1.511 . S
C3349 C3345 1.376 . S
C3349 C3348 1.392 . S
C3349 H3361 0.929 . S
C3350 C3346 1.531 . S
C3350 H3362 0.960 . S
C3350 H3363 0.962 . S
C3350 H3364 0.960 . S
C3351 C3348 1.511 . S
C3351 H3365 0.961 . S
C3351 H3366 0.961 . S
C3351 H3367 0.961 . S
C3352 C3353 1.370 . S
C3352 C3354 1.363 . S
C3352 H3368 0.931 . S
C3353 C3352 1.370 . S
C3353 C3357 1.408 . S
C3354 C3352 1.363 . S
C3354 C3355 1.370 . S
C3354 C3358 1.524 . S
C3355 C3347 1.503 . S
C3355 C3354 1.370 . S
C3355 C3356 1.403 . S
C3356 C3355 1.403 . S
C3356 C3357 1.404 . S
C3356 C3359 1.539 . S
C3357 C3353 1.408 . S
C3357 C3356 1.404 . S
C3357 H3369 0.930 . S
C3358 C3354 1.524 . S
C3358 H3370 0.956 . S
C3358 H3371 0.961 . S
C3358 H3372 0.961 . S
C3359 C3356 1.539 . S
C3359 H3373 0.958 . S
C3359 H3374 0.961 . S
C3359 H3375 0.960 . S
H3360 C3344 0.931 . S
H3361 C3349 0.929 . S
H3362 C3350 0.960 . S
H3363 C3350 0.962 . S
H3364 C3350 0.960 . S
H3365 C3351 0.961 . S
H3366 C3351 0.961 . S
H3367 C3351 0.961 . S
H3368 C3352 0.931 . S
H3369 C3357 0.930 . S
H3370 C3358 0.956 . S
H3371 C3358 0.961 . S
H3372 C3358 0.961 . S
H3373 C3359 0.958 . S
H3374 C3359 0.961 . S
H3375 C3359 0.960 . S
C3376 C3377 1.391 . S
C3376 C3378 1.394 . S
C3376 H3392 0.931 . S
C3377 C3376 1.391 . S
C3377 C3381 1.376 . S
C3378 C3376 1.394 . S
C3378 C3379 1.369 . S
C3378 C3382 1.531 . S
C3379 C3378 1.369 . S
C3379 C3380 1.410 . S
C3379 C3387 1.503 . S
C3380 C3379 1.410 . S
C3380 C3381 1.392 . S
C3380 C3383 1.511 . S
C3381 C3377 1.376 . S
C3381 C3380 1.392 . S
C3381 H3393 0.929 . S
C3382 C3378 1.531 . S
C3382 H3394 0.960 . S
C3382 H3395 0.962 . S
C3382 H3396 0.960 . S
C3383 C3380 1.511 . S
C3383 H3397 0.961 . S
C3383 H3398 0.961 . S
C3383 H3399 0.961 . S
C3384 C3385 1.370 . S
C3384 C3386 1.363 . S
C3384 H3400 0.931 . S
C3385 C3384 1.370 . S
C3385 C3389 1.408 . S
C3386 C3384 1.363 . S
C3386 C3387 1.370 . S
C3386 C3390 1.524 . S
C3387 C3379 1.503 . S
C3387 C3386 1.370 . S
C3387 C3388 1.403 . S
C3388 C3387 1.403 . S
C3388 C3389 1.404 . S
C3388 C3391 1.539 . S
C3389 C3385 1.408 . S
C3389 C3388 1.404 . S
C3389 H3401 0.930 . S
C3390 C3386 1.524 . S
C3390 H3402 0.956 . S
C3390 H3403 0.961 . S
C3390 H3404 0.961 . S
C3391 C3388 1.539 . S
C3391 H3405 0.958 . S
C3391 H3406 0.961 . S
C3391 H3407 0.960 . S
H3392 C3376 0.931 . S
H3393 C3381 0.929 . S
H3394 C3382 0.960 . S
H3395 C3382 0.962 . S
H3396 C3382 0.960 . S
H3397 C3383 0.961 . S
H3398 C3383 0.961 . S
H3399 C3383 0.961 . S
H3400 C3384 0.931 . S
H3401 C3389 0.930 . S
H3402 C3390 0.956 . S
H3403 C3390 0.961 . S
H3404 C3390 0.961 . S
H3405 C3391 0.958 . S
H3406 C3391 0.961 . S
H3407 C3391 0.960 . S
C3408 C3409 1.391 . S
C3408 C3410 1.394 . S
C3408 H3424 0.931 . S
C3409 C3408 1.391 . S
C3409 C3413 1.376 . S
C3410 C3408 1.394 . S
C3410 C3411 1.369 . S
C3410 C3414 1.531 . S
C3411 C3410 1.369 . S
C3411 C3412 1.410 . S
C3411 C3419 1.503 . S
C3412 C3411 1.410 . S
C3412 C3413 1.392 . S
C3412 C3415 1.511 . S
C3413 C3409 1.376 . S
C3413 C3412 1.392 . S
C3413 H3425 0.929 . S
C3414 C3410 1.531 . S
C3414 H3426 0.960 . S
C3414 H3427 0.962 . S
C3414 H3428 0.960 . S
C3415 C3412 1.511 . S
C3415 H3429 0.961 . S
C3415 H3430 0.961 . S
C3415 H3431 0.961 . S
C3416 C3417 1.370 . S
C3416 C3418 1.363 . S
C3416 H3432 0.931 . S
C3417 C3416 1.370 . S
C3417 C3421 1.408 . S
C3418 C3416 1.363 . S
C3418 C3419 1.370 . S
C3418 C3422 1.524 . S
C3419 C3411 1.503 . S
C3419 C3418 1.370 . S
C3419 C3420 1.403 . S
C3420 C3419 1.403 . S
C3420 C3421 1.404 . S
C3420 C3423 1.539 . S
C3421 C3417 1.408 . S
C3421 C3420 1.404 . S
C3421 H3433 0.930 . S
C3422 C3418 1.524 . S
C3422 H3434 0.956 . S
C3422 H3435 0.961 . S
C3422 H3436 0.961 . S
C3423 C3420 1.539 . S
C3423 H3437 0.958 . S
C3423 H3438 0.961 . S
C3423 H3439 0.960 . S
H3424 C3408 0.931 . S
H3425 C3413 0.929 . S
H3426 C3414 0.960 . S
H3427 C3414 0.962 . S
H3428 C3414 0.960 . S
H3429 C3415 0.961 . S
H3430 C3415 0.961 . S
H3431 C3415 0.961 . S
H3432 C3416 0.931 . S
H3433 C3421 0.930 . S
H3434 C3422 0.956 . S
H3435 C3422 0.961 . S
H3436 C3422 0.961 . S
H3437 C3423 0.958 . S
H3438 C3423 0.961 . S
H3439 C3423 0.960 . S
C3440 C3441 1.391 . S
C3440 C3442 1.394 . S
C3440 H3456 0.931 . S
C3441 C3440 1.391 . S
C3441 C3445 1.376 . S
C3442 C3440 1.394 . S
C3442 C3443 1.369 . S
C3442 C3446 1.531 . S
C3443 C3442 1.369 . S
C3443 C3444 1.410 . S
C3443 C3451 1.503 . S
C3444 C3443 1.410 . S
C3444 C3445 1.392 . S
C3444 C3447 1.511 . S
C3445 C3441 1.376 . S
C3445 C3444 1.392 . S
C3445 H3457 0.929 . S
C3446 C3442 1.531 . S
C3446 H3458 0.960 . S
C3446 H3459 0.962 . S
C3446 H3460 0.960 . S
C3447 C3444 1.511 . S
C3447 H3461 0.961 . S
C3447 H3462 0.961 . S
C3447 H3463 0.961 . S
C3448 C3449 1.370 . S
C3448 C3450 1.363 . S
C3448 H3464 0.931 . S
C3449 C3448 1.370 . S
C3449 C3453 1.408 . S
C3450 C3448 1.363 . S
C3450 C3451 1.370 . S
C3450 C3454 1.524 . S
C3451 C3443 1.503 . S
C3451 C3450 1.370 . S
C3451 C3452 1.403 . S
C3452 C3451 1.403 . S
C3452 C3453 1.404 . S
C3452 C3455 1.539 . S
C3453 C3449 1.408 . S
C3453 C3452 1.404 . S
C3453 H3465 0.930 . S
C3454 C3450 1.524 . S
C3454 H3466 0.956 . S
C3454 H3467 0.961 . S
C3454 H3468 0.961 . S
C3455 C3452 1.539 . S
C3455 H3469 0.958 . S
C3455 H3470 0.961 . S
C3455 H3471 0.960 . S
H3456 C3440 0.931 . S
H3457 C3445 0.929 . S
H3458 C3446 0.960 . S
H3459 C3446 0.962 . S
H3460 C3446 0.960 . S
H3461 C3447 0.961 . S
H3462 C3447 0.961 . S
H3463 C3447 0.961 . S
H3464 C3448 0.931 . S
H3465 C3453 0.930 . S
H3466 C3454 0.956 . S
H3467 C3454 0.961 . S
H3468 C3454 0.961 . S
H3469 C3455 0.958 . S
H3470 C3455 0.961 . S
H3471 C3455 0.960 . S
C3472 C3473 1.391 . S
C3472 C3474 1.394 . S
C3472 H3488 0.931 . S
C3473 C3472 1.391 . S
C3473 C3477 1.376 . S
C3474 C3472 1.394 . S
C3474 C3475 1.369 . S
C3474 C3478 1.531 . S
C3475 C3474 1.369 . S
C3475 C3476 1.410 . S
C3475 C3483 1.503 . S
C3476 C3475 1.410 . S
C3476 C3477 1.392 . S
C3476 C3479 1.511 . S
C3477 C3473 1.376 . S
C3477 C3476 1.392 . S
C3477 H3489 0.929 . S
C3478 C3474 1.531 . S
C3478 H3490 0.960 . S
C3478 H3491 0.962 . S
C3478 H3492 0.960 . S
C3479 C3476 1.511 . S
C3479 H3493 0.961 . S
C3479 H3494 0.961 . S
C3479 H3495 0.961 . S
C3480 C3481 1.370 . S
C3480 C3482 1.363 . S
C3480 H3496 0.931 . S
C3481 C3480 1.370 . S
C3481 C3485 1.408 . S
C3482 C3480 1.363 . S
C3482 C3483 1.370 . S
C3482 C3486 1.524 . S
C3483 C3475 1.503 . S
C3483 C3482 1.370 . S
C3483 C3484 1.403 . S
C3484 C3483 1.403 . S
C3484 C3485 1.404 . S
C3484 C3487 1.539 . S
C3485 C3481 1.408 . S
C3485 C3484 1.404 . S
C3485 H3497 0.930 . S
C3486 C3482 1.524 . S
C3486 H3498 0.956 . S
C3486 H3499 0.961 . S
C3486 H3500 0.961 . S
C3487 C3484 1.539 . S
C3487 H3501 0.958 . S
C3487 H3502 0.961 . S
C3487 H3503 0.960 . S
H3488 C3472 0.931 . S
H3489 C3477 0.929 . S
H3490 C3478 0.960 . S
H3491 C3478 0.962 . S
H3492 C3478 0.960 . S
H3493 C3479 0.961 . S
H3494 C3479 0.961 . S
H3495 C3479 0.961 . S
H3496 C3480 0.931 . S
H3497 C3485 0.930 . S
H3498 C3486 0.956 . S
H3499 C3486 0.961 . S
H3500 C3486 0.961 . S
H3501 C3487 0.958 . S
H3502 C3487 0.961 . S
H3503 C3487 0.960 . S
C3504 C3505 1.391 . S
C3504 C3506 1.394 . S
C3504 H3520 0.931 . S
C3505 C3504 1.391 . S
C3505 C3509 1.376 . S
C3506 C3504 1.394 . S
C3506 C3507 1.369 . S
C3506 C3510 1.531 . S
C3507 C3506 1.369 . S
C3507 C3508 1.410 . S
C3507 C3515 1.503 . S
C3508 C3507 1.410 . S
C3508 C3509 1.392 . S
C3508 C3511 1.511 . S
C3509 C3505 1.376 . S
C3509 C3508 1.392 . S
C3509 H3521 0.929 . S
C3510 C3506 1.531 . S
C3510 H3522 0.960 . S
C3510 H3523 0.962 . S
C3510 H3524 0.960 . S
C3511 C3508 1.511 . S
C3511 H3525 0.961 . S
C3511 H3526 0.961 . S
C3511 H3527 0.961 . S
C3512 C3513 1.370 . S
C3512 C3514 1.363 . S
C3512 H3528 0.931 . S
C3513 C3512 1.370 . S
C3513 C3517 1.408 . S
C3514 C3512 1.363 . S
C3514 C3515 1.370 . S
C3514 C3518 1.524 . S
C3515 C3507 1.503 . S
C3515 C3514 1.370 . S
C3515 C3516 1.403 . S
C3516 C3515 1.403 . S
C3516 C3517 1.404 . S
C3516 C3519 1.539 . S
C3517 C3513 1.408 . S
C3517 C3516 1.404 . S
C3517 H3529 0.930 . S
C3518 C3514 1.524 . S
C3518 H3530 0.956 . S
C3518 H3531 0.961 . S
C3518 H3532 0.961 . S
C3519 C3516 1.539 . S
C3519 H3533 0.958 . S
C3519 H3534 0.961 . S
C3519 H3535 0.960 . S
H3520 C3504 0.931 . S
H3521 C3509 0.929 . S
H3522 C3510 0.960 . S
H3523 C3510 0.962 . S
H3524 C3510 0.960 . S
H3525 C3511 0.961 . S
H3526 C3511 0.961 . S
H3527 C3511 0.961 . S
H3528 C3512 0.931 . S
H3529 C3517 0.930 . S
H3530 C3518 0.956 . S
H3531 C3518 0.961 . S
H3532 C3518 0.961 . S
H3533 C3519 0.958 . S
H3534 C3519 0.961 . S
H3535 C3519 0.960 . S
C3536 C3537 1.391 . S
C3536 C3538 1.394 . S
C3536 H3552 0.931 . S
C3537 C3536 1.391 . S
C3537 C3541 1.376 . S
C3538 C3536 1.394 . S
C3538 C3539 1.369 . S
C3538 C3542 1.531 . S
C3539 C3538 1.369 . S
C3539 C3540 1.410 . S
C3539 C3547 1.503 . S
C3540 C3539 1.410 . S
C3540 C3541 1.392 . S
C3540 C3543 1.511 . S
C3541 C3537 1.376 . S
C3541 C3540 1.392 . S
C3541 H3553 0.929 . S
C3542 C3538 1.531 . S
C3542 H3554 0.960 . S
C3542 H3555 0.962 . S
C3542 H3556 0.960 . S
C3543 C3540 1.511 . S
C3543 H3557 0.961 . S
C3543 H3558 0.961 . S
C3543 H3559 0.961 . S
C3544 C3545 1.370 . S
C3544 C3546 1.363 . S
C3544 H3560 0.931 . S
C3545 C3544 1.370 . S
C3545 C3549 1.408 . S
C3546 C3544 1.363 . S
C3546 C3547 1.370 . S
C3546 C3550 1.524 . S
C3547 C3539 1.503 . S
C3547 C3546 1.370 . S
C3547 C3548 1.403 . S
C3548 C3547 1.403 . S
C3548 C3549 1.404 . S
C3548 C3551 1.539 . S
C3549 C3545 1.408 . S
C3549 C3548 1.404 . S
C3549 H3561 0.930 . S
C3550 C3546 1.524 . S
C3550 H3562 0.956 . S
C3550 H3563 0.961 . S
C3550 H3564 0.961 . S
C3551 C3548 1.539 . S
C3551 H3565 0.958 . S
C3551 H3566 0.961 . S
C3551 H3567 0.960 . S
H3552 C3536 0.931 . S
H3553 C3541 0.929 . S
H3554 C3542 0.960 . S
H3555 C3542 0.962 . S
H3556 C3542 0.960 . S
H3557 C3543 0.961 . S
H3558 C3543 0.961 . S
H3559 C3543 0.961 . S
H3560 C3544 0.931 . S
H3561 C3549 0.930 . S
H3562 C3550 0.956 . S
H3563 C3550 0.961 . S
H3564 C3550 0.961 . S
H3565 C3551 0.958 . S
H3566 C3551 0.961 . S
H3567 C3551 0.960 . S
C3568 C3569 1.391 . S
C3568 C3570 1.394 . S
C3568 H3584 0.931 . S
C3569 C3568 1.391 . S
C3569 C3573 1.376 . S
C3570 C3568 1.394 . S
C3570 C3571 1.369 . S
C3570 C3574 1.531 . S
C3571 C3570 1.369 . S
C3571 C3572 1.410 . S
C3571 C3579 1.503 . S
C3572 C3571 1.410 . S
C3572 C3573 1.392 . S
C3572 C3575 1.511 . S
C3573 C3569 1.376 . S
C3573 C3572 1.392 . S
C3573 H3585 0.929 . S
C3574 C3570 1.531 . S
C3574 H3586 0.960 . S
C3574 H3587 0.962 . S
C3574 H3588 0.960 . S
C3575 C3572 1.511 . S
C3575 H3589 0.961 . S
C3575 H3590 0.961 . S
C3575 H3591 0.961 1_554 S
C3576 C3577 1.370 . S
C3576 C3578 1.363 . S
C3576 H3592 0.931 . S
C3577 C3576 1.370 . S
C3577 C3581 1.408 . S
C3578 C3576 1.363 . S
C3578 C3579 1.370 . S
C3578 C3582 1.524 . S
C3579 C3571 1.503 . S
C3579 C3578 1.370 . S
C3579 C3580 1.427 . S
C3580 C3579 1.427 . S
C3580 C3581 1.412 . S
C3580 C3583 1.506 1_554 S
C3581 C3577 1.408 . S
C3581 C3580 1.412 . S
C3581 H3593 0.930 1_554 S
C3582 C3578 1.524 . S
C3582 H3594 0.956 . S
C3582 H3595 0.961 . S
C3582 H3596 0.961 . S
C3583 C3580 1.506 1_556 S
C3583 H3597 0.958 . S
C3583 H3598 0.961 . S
C3583 H3599 0.960 . S
H3584 C3568 0.931 . S
H3585 C3573 0.929 . S
H3586 C3574 0.960 . S
H3587 C3574 0.962 . S
H3588 C3574 0.960 . S
H3589 C3575 0.961 . S
H3590 C3575 0.961 . S
H3591 C3575 0.961 1_556 S
H3592 C3576 0.931 . S
H3593 C3581 0.930 1_556 S
H3594 C3582 0.956 . S
H3595 C3582 0.961 . S
H3596 C3582 0.961 . S
H3597 C3583 0.958 . S
H3598 C3583 0.961 . S
H3599 C3583 0.960 . S
C3600 C3601 1.391 . S
C3600 C3602 1.394 . S
C3600 H3616 0.931 . S
C3601 C3600 1.391 . S
C3601 C3605 1.376 . S
C3602 C3600 1.394 . S
C3602 C3603 1.369 . S
C3602 C3606 1.531 . S
C3603 C3602 1.369 . S
C3603 C3604 1.410 . S
C3603 C3611 1.503 . S
C3604 C3603 1.410 . S
C3604 C3605 1.392 . S
C3604 C3607 1.511 . S
C3605 C3601 1.376 . S
C3605 C3604 1.392 . S
C3605 H3617 0.929 . S
C3606 C3602 1.531 . S
C3606 H3618 0.960 . S
C3606 H3619 0.962 . S
C3606 H3620 0.960 . S
C3607 C3604 1.511 . S
C3607 H3621 0.961 . S
C3607 H3622 0.961 . S
C3607 H3623 0.961 . S
C3608 C3609 1.370 . S
C3608 C3610 1.363 . S
C3608 H3624 0.931 . S
C3609 C3608 1.370 . S
C3609 C3613 1.408 . S
C3610 C3608 1.363 . S
C3610 C3611 1.370 . S
C3610 C3614 1.524 . S
C3611 C3603 1.503 . S
C3611 C3610 1.370 . S
C3611 C3612 1.403 . S
C3612 C3611 1.403 . S
C3612 C3613 1.404 . S
C3612 C3615 1.539 . S
C3613 C3609 1.408 . S
C3613 C3612 1.404 . S
C3613 H3625 0.930 . S
C3614 C3610 1.524 . S
C3614 H3626 0.956 . S
C3614 H3627 0.961 . S
C3614 H3628 0.961 . S
C3615 C3612 1.539 . S
C3615 H3629 0.958 . S
C3615 H3630 0.961 . S
C3615 H3631 0.960 . S
H3616 C3600 0.931 . S
H3617 C3605 0.929 . S
H3618 C3606 0.960 . S
H3619 C3606 0.962 . S
H3620 C3606 0.960 . S
H3621 C3607 0.961 . S
H3622 C3607 0.961 . S
H3623 C3607 0.961 . S
H3624 C3608 0.931 . S
H3625 C3613 0.930 . S
H3626 C3614 0.956 . S
H3627 C3614 0.961 . S
H3628 C3614 0.961 . S
H3629 C3615 0.958 . S
H3630 C3615 0.961 . S
H3631 C3615 0.960 . S
C3632 C3633 1.391 . S
C3632 C3634 1.394 . S
C3632 H3648 0.931 . S
C3633 C3632 1.391 . S
C3633 C3637 1.376 . S
C3634 C3632 1.394 . S
C3634 C3635 1.369 . S
C3634 C3638 1.531 . S
C3635 C3634 1.369 . S
C3635 C3636 1.410 . S
C3635 C3643 1.503 . S
C3636 C3635 1.410 . S
C3636 C3637 1.392 . S
C3636 C3639 1.511 . S
C3637 C3633 1.376 . S
C3637 C3636 1.392 . S
C3637 H3649 0.929 . S
C3638 C3634 1.531 . S
C3638 H3650 0.960 . S
C3638 H3651 0.962 . S
C3638 H3652 0.960 . S
C3639 C3636 1.511 . S
C3639 H3653 0.961 . S
C3639 H3654 0.961 . S
C3639 H3655 0.961 . S
C3640 C3641 1.370 . S
C3640 C3642 1.363 . S
C3640 H3656 0.931 . S
C3641 C3640 1.370 . S
C3641 C3645 1.408 . S
C3642 C3640 1.363 . S
C3642 C3643 1.370 . S
C3642 C3646 1.524 . S
C3643 C3635 1.503 . S
C3643 C3642 1.370 . S
C3643 C3644 1.403 . S
C3644 C3643 1.403 . S
C3644 C3645 1.404 . S
C3644 C3647 1.539 1_554 S
C3645 C3641 1.408 . S
C3645 C3644 1.404 . S
C3645 H3657 0.930 1_554 S
C3646 C3642 1.524 . S
C3646 H3658 0.956 . S
C3646 H3659 0.961 . S
C3646 H3660 0.961 . S
C3647 C3644 1.539 1_556 S
C3647 H3661 0.958 . S
C3647 H3662 0.961 . S
C3647 H3663 0.960 . S
H3648 C3632 0.931 . S
H3649 C3637 0.929 . S
H3650 C3638 0.960 . S
H3651 C3638 0.962 . S
H3652 C3638 0.960 . S
H3653 C3639 0.961 . S
H3654 C3639 0.961 . S
H3655 C3639 0.961 . S
H3656 C3640 0.931 . S
H3657 C3645 0.930 1_556 S
H3658 C3646 0.956 . S
H3659 C3646 0.961 . S
H3660 C3646 0.961 . S
H3661 C3647 0.958 . S
H3662 C3647 0.961 . S
H3663 C3647 0.960 . S
C3664 C3665 1.391 . S
C3664 C3666 1.394 . S
C3664 H3680 0.931 . S
C3665 C3664 1.391 . S
C3665 C3669 1.376 . S
C3666 C3664 1.394 . S
C3666 C3667 1.369 . S
C3666 C3670 1.531 . S
C3667 C3666 1.369 . S
C3667 C3668 1.410 . S
C3667 C3675 1.503 . S
C3668 C3667 1.410 . S
C3668 C3669 1.392 . S
C3668 C3671 1.511 . S
C3669 C3665 1.376 . S
C3669 C3668 1.392 . S
C3669 H3681 0.929 . S
C3670 C3666 1.531 . S
C3670 H3682 0.960 . S
C3670 H3683 0.962 . S
C3670 H3684 0.960 . S
C3671 C3668 1.511 . S
C3671 H3685 0.961 . S
C3671 H3686 0.961 . S
C3671 H3687 0.961 . S
C3672 C3673 1.370 . S
C3672 C3674 1.363 . S
C3672 H3688 0.931 . S
C3673 C3672 1.370 . S
C3673 C3677 1.408 . S
C3674 C3672 1.363 . S
C3674 C3675 1.370 . S
C3674 C3678 1.524 . S
C3675 C3667 1.503 . S
C3675 C3674 1.370 . S
C3675 C3676 1.403 . S
C3676 C3675 1.403 . S
C3676 C3677 1.404 . S
C3676 C3679 1.539 . S
C3677 C3673 1.408 . S
C3677 C3676 1.404 . S
C3677 H3689 0.930 . S
C3678 C3674 1.524 . S
C3678 H3690 0.956 . S
C3678 H3691 0.961 . S
C3678 H3692 0.961 . S
C3679 C3676 1.539 . S
C3679 H3693 0.958 . S
C3679 H3694 0.961 . S
C3679 H3695 0.960 . S
H3680 C3664 0.931 . S
H3681 C3669 0.929 . S
H3682 C3670 0.960 . S
H3683 C3670 0.962 . S
H3684 C3670 0.960 . S
H3685 C3671 0.961 . S
H3686 C3671 0.961 . S
H3687 C3671 0.961 . S
H3688 C3672 0.931 . S
H3689 C3677 0.930 . S
H3690 C3678 0.956 . S
H3691 C3678 0.961 . S
H3692 C3678 0.961 . S
H3693 C3679 0.958 . S
H3694 C3679 0.961 . S
H3695 C3679 0.960 . S
C3696 C3697 1.391 . S
C3696 C3698 1.394 . S
C3696 H3712 0.931 . S
C3697 C3696 1.391 . S
C3697 C3701 1.376 . S
C3698 C3696 1.394 . S
C3698 C3699 1.369 . S
C3698 C3702 1.531 . S
C3699 C3698 1.369 . S
C3699 C3700 1.410 . S
C3699 C3707 1.503 . S
C3700 C3699 1.410 . S
C3700 C3701 1.392 . S
C3700 C3703 1.511 . S
C3701 C3697 1.376 . S
C3701 C3700 1.392 . S
C3701 H3713 0.929 . S
C3702 C3698 1.531 . S
C3702 H3714 0.960 . S
C3702 H3715 0.962 . S
C3702 H3716 0.960 . S
C3703 C3700 1.511 . S
C3703 H3717 0.961 . S
C3703 H3718 0.961 . S
C3703 H3719 0.961 . S
C3704 C3705 1.370 . S
C3704 C3706 1.363 . S
C3704 H3720 0.931 . S
C3705 C3704 1.370 . S
C3705 C3709 1.408 . S
C3706 C3704 1.363 . S
C3706 C3707 1.370 . S
C3706 C3710 1.524 . S
C3707 C3699 1.503 . S
C3707 C3706 1.370 . S
C3707 C3708 1.403 . S
C3708 C3707 1.403 . S
C3708 C3709 1.404 . S
C3708 C3711 1.539 . S
C3709 C3705 1.408 . S
C3709 C3708 1.404 . S
C3709 H3721 0.930 . S
C3710 C3706 1.524 . S
C3710 H3722 0.956 . S
C3710 H3723 0.961 . S
C3710 H3724 0.961 . S
C3711 C3708 1.539 . S
C3711 H3725 0.958 . S
C3711 H3726 0.961 . S
C3711 H3727 0.960 . S
H3712 C3696 0.931 . S
H3713 C3701 0.929 . S
H3714 C3702 0.960 . S
H3715 C3702 0.962 . S
H3716 C3702 0.960 . S
H3717 C3703 0.961 . S
H3718 C3703 0.961 . S
H3719 C3703 0.961 . S
H3720 C3704 0.931 . S
H3721 C3709 0.930 . S
H3722 C3710 0.956 . S
H3723 C3710 0.961 . S
H3724 C3710 0.961 . S
H3725 C3711 0.958 . S
H3726 C3711 0.961 . S
H3727 C3711 0.960 . S
C657 C106 1.785 . S
C665 C340 1.551 1_556 S
C689 C65 1.474 . S
C697 C375 1.451 . S
C721 C79 1.483 . S
C729 C380 1.336 . S
C761 C405 1.182 . S
C753 C90 1.186 . S
C785 C21 1.207 . S
C793 C425 1.211 . S
C825 C440 1.057 . S
C817 C35 1.084 . S
C857 C475 1.495 . S
C849 C50 1.533 . S
C881 C6 1.416 . S
C889 C480 1.239 . S
C921 C355 1.731 1_655 S
C913 C232 1.859 . S
C945 C245 0.974 . S
C953 C365 1.005 . S
C985 C395 1.465 . S
C977 C274 1.489 . S
C1017 C400 1.132 . S
C1009 C175 1.165 . S
C1041 C231 1.054 . S
C1049 C420 0.976 . S
C1081 C455 1.371 . S
C1073 C246 1.420 . S
C1113 C465 0.884 . S
C1105 C273 0.870 . S
C1145 C495 1.684 . S
C1137 C176 1.773 . S
C1177 C345 1.315 . S
C1169 C160 1.474 . S
C1201 C289 1.739 1_554 S
C1209 C515 1.704 . S
C1241 C525 1.465 . S
C1233 C328 1.475 . S
C1273 C540 1.122 . S
C1265 C317 1.253 . S
C1297 C118 1.360 . S
C1305 C485 1.321 . S
C1329 C132 1.536 . S
C1337 C385 1.429 . S
C1361 C331 1.801 . S
C1369 C575 1.779 . S
C1401 C580 1.161 . S
C1393 C303 1.283 . S
C1433 C338 1.175 . S
C1425 C63 1.362 . S
C1465 C594 1.804 . S
C1457 C107 1.799 . S
C1489 C92 1.251 . S
C1497 C378 1.155 . S
C1521 C78 1.742 . S
C1529 C568 1.680 . S
C1561 C428 1.656 . S
C1553 C8 1.737 . S
C1585 C51 1.238 . S
C1593 C518 1.140 . S
C1625 C474 1.823 1_556 S
C1617 C37 1.834 . S
C1657 C598 1.187 . S
C1649 C20 1.318 . S
C1689 C354 1.522 . S
C1681 C147 1.518 . S
C1721 C588 1.137 . S
C1713 C316 1.217 . S
C1745 C119 1.415 . S
C1753 C394 1.403 . S
C1777 C288 1.328 . S
C1785 C558 1.204 . S
C1809 C148 1.329 . S
C1817 C418 1.221 . S
C1849 C534 1.386 . S
C1841 C315 1.411 . S
C1873 C120 1.219 . S
C1881 C468 1.157 . S
C1905 C287 1.563 . S
C1913 C614 1.534 . S
C1937 C188 1.309 . S
C1945 C348 1.208 . S
C1969 C177 1.996 . S
C1977 C514 2.014 . S
C2001 C258 1.588 . S
C2009 C448 1.530 . S
C2033 C247 1.269 . S
C2041 C538 1.139 . S
C2073 C608 1.198 . S
C2065 C272 1.336 . S
C2097 C216 1.385 . S
C2105 C388 1.340 . S
C2137 C414 2.014 . S
C2129 C261 1.999 . S
C2169 C358 1.162 . S
C2161 C205 1.267 . S
C2193 C76 1.434 . S
C2201 C620 1.252 . S
C2233 C595 1.508 . S
C2225 C93 1.531 . S
C2257 C105 1.140 . S
C2265 C640 1.015 . S
C2289 C62 1.208 . S
C2297 C565 1.213 . S
C2321 C49 1.179 . S
C2329 C505 1.177 . S
C2361 C520 1.355 . S
C2353 C9 1.461 . S
C2393 C555 1.446 . S
C2385 C22 1.479 . S
C2425 C600 1.528 . S
C2417 C36 1.802 . S
C2457 C635 1.693 . S
C2449 C260 1.770 . S
C2481 C189 0.928 . S
C2489 C585 0.848 . S
C2521 C655 1.361 . S
C2513 C204 1.407 . S
C2553 C560 0.977 . S
C2545 C217 1.052 . S
C2585 C500 1.107 . S
C2577 C259 1.211 . S
C2609 C190 1.502 . S
C2617 C535 1.444 . S
C2649 C545 1.010 . S
C2641 C203 0.976 . S
C2673 C218 1.835 . S
C2681 C615 1.752 . S
C2713 C625 1.282 . S
C2705 C314 1.442 . S
C2737 C135 1.805 . S
C2745 C435 1.771 . S
C2777 C445 1.366 . S
C2769 C146 1.477 . S
C2809 C460 1.201 . S
C2801 C163 1.253 . S
C2841 C605 1.320 . S
C2833 C300 1.461 . S
C2865 C286 1.406 . S
C2873 C645 1.406 . S
C2905 C415 1.709 . S
C2897 C149 1.734 . S
C2937 C360 1.162 . S
C2929 C121 1.219 . S
C2961 C91 1.330 . S
C2969 C618 1.137 . S
C3001 C374 1.429 . S
C2993 C77 1.391 . S
C3025 C64 1.188 . S
C3033 C638 1.091 . S
C3057 C104 1.433 . S
C3065 C408 1.343 . S
C3089 C34 1.392 . S
C3097 C508 1.376 . S
C3129 C438 1.093 . S
C3121 C23 1.199 . S
C3153 C7 1.449 . S
C3161 C554 1.434 . S
C3185 C48 1.329 . S
C3193 C478 1.140 . S
C3225 C634 1.520 . S
C3217 C329 1.549 . S
C3249 C162 1.201 . S
C3257 C368 1.124 . S
C3289 C654 1.409 1_656 S
C3281 C301 1.422 . S
C3313 C134 1.353 . S
C3321 C398 1.258 . S
C3345 C330 1.346 . S
C3353 C498 1.233 . S
C3385 C454 1.391 . S
C3377 C161 1.409 . S
C3409 C302 1.209 . S
C3417 C548 1.142 . S
C3449 C494 1.502 . S
C3441 C133 1.550 . S
C3481 C628 1.394 . S
C3473 C244 1.501 . S
C3513 C434 2.016 . S
C3505 C219 1.999 . S
C3537 C230 1.386 . S
C3545 C528 1.339 . S
C3577 C458 1.122 . S
C3569 C191 1.254 . S
C3601 C202 1.510 . S
C3609 C488 1.386 . S
C3633 C174 1.593 . S
C3641 C648 1.534 . S
C3673 C574 1.988 . S
C3665 C233 1.961 . S
C3705 C578 1.154 . S
C3697 C275 1.259 . S
