# Generated by pormake.
# Topology anh, (6,3)-cn, num edge types: 1
# Building blocks:
#     Node 0, Type 0, BuildingBlock: NUHQIS_clean_sbu_0, # of connection points: 6
#     Node 1, Type 0, BuildingBlock: NUHQIS_clean_sbu_0, # of connection points: 6
#     Node 2, Type 0, BuildingBlock: NUHQIS_clean_sbu_0, # of connection points: 6
#     Node 3, Type 1, BuildingBlock: OLANEW_clean_sbu_2, # of connection points: 3
#     Node 4, Type 1, BuildingBlock: OLANEW_clean_sbu_2, # of connection points: 3
#     Node 5, Type 1, BuildingBlock: OLANEW_clean_sbu_2, # of connection points: 3
#     Node 6, Type 1, BuildingBlock: OLANEW_clean_sbu_2, # of connection points: 3
#     Node 7, Type 1, BuildingBlock: OLANEW_clean_sbu_2, # of connection points: 3
#     Node 8, Type 1, BuildingBlock: OLANEW_clean_sbu_2, # of connection points: 3
#     Edge 9, Type (0, 1), BuildingBlock: TEMPAE_clean_linker_10, # of connection points: 2
#     Edge 10, Type (0, 1), BuildingBlock: TEMPAE_clean_linker_10, # of connection points: 2
#     Edge 11, Type (0, 1), BuildingBlock: TEMPAE_clean_linker_10, # of connection points: 2
#     Edge 12, Type (0, 1), BuildingBlock: TEMPAE_clean_linker_10, # of connection points: 2
#     Edge 13, Type (0, 1), BuildingBlock: TEMPAE_clean_linker_10, # of connection points: 2
#     Edge 14, Type (0, 1), BuildingBlock: TEMPAE_clean_linker_10, # of connection points: 2
#     Edge 15, Type (0, 1), BuildingBlock: TEMPAE_clean_linker_10, # of connection points: 2
#     Edge 16, Type (0, 1), BuildingBlock: TEMPAE_clean_linker_10, # of connection points: 2
#     Edge 17, Type (0, 1), BuildingBlock: TEMPAE_clean_linker_10, # of connection points: 2
#     Edge 18, Type (0, 1), BuildingBlock: TEMPAE_clean_linker_10, # of connection points: 2
#     Edge 19, Type (0, 1), BuildingBlock: TEMPAE_clean_linker_10, # of connection points: 2
#     Edge 20, Type (0, 1), BuildingBlock: TEMPAE_clean_linker_10, # of connection points: 2
#     Edge 21, Type (0, 1), BuildingBlock: TEMPAE_clean_linker_10, # of connection points: 2
#     Edge 22, Type (0, 1), BuildingBlock: TEMPAE_clean_linker_10, # of connection points: 2
#     Edge 23, Type (0, 1), BuildingBlock: TEMPAE_clean_linker_10, # of connection points: 2
#     Edge 24, Type (0, 1), BuildingBlock: TEMPAE_clean_linker_10, # of connection points: 2
#     Edge 25, Type (0, 1), BuildingBlock: TEMPAE_clean_linker_10, # of connection points: 2
#     Edge 26, Type (0, 1), BuildingBlock: TEMPAE_clean_linker_10, # of connection points: 2
# Relax obj value: 0.220
# Max RMSD: 0.130
# Mean RMSD: 0.111
data_MOF--net-anh--node1-NUHQIS_clean_sbu_0--node2-OLANEW_clean_sbu_2--edge1-TEMPAE_clean_linker_10
_symmetry_space_group_name_H-M    P1
_symmetry_Int_Tables_number       1
_symmetry_cell_setting            triclinic
loop_
_symmetry_equiv_pos_as_xyz
'x, y, z'
_cell_length_a     36.744334
_cell_length_b     36.866725
_cell_length_c     50.618305
_cell_angle_alpha  90.137575
_cell_angle_beta   93.16013
_cell_angle_gamma 119.8982
loop_
_atom_site_label
_atom_site_type_symbol
_atom_site_fract_x
_atom_site_fract_y
_atom_site_fract_z
_atom_type_partial_charge
Tb0 Tb 0.07638 0.54027 0.16198 0.0
Eu1 Eu 1.02639 0.59299 0.16205 0.0
C2 C 0.05324 0.5645 0.21501 0.0
C3 C 0.97665 0.49124 0.16602 0.0
C4 C 0.16108 0.51131 0.16264 0.0
C5 C 0.20899 0.48465 0.17063 0.0
C6 C 0.16871 0.47943 0.17105 0.0
C7 C 0.19482 0.54959 0.15531 0.0
C8 C 0.23516 0.55478 0.15475 0.0
C9 C 0.24235 0.52179 0.16155 0.0
C10 C 0.11734 0.50231 0.159 0.0
O11 O 0.04243 0.53103 0.12357 0.0
O12 O 0.04989 0.59562 0.12161 0.0
O13 O 0.09376 0.64091 0.1738 0.0
O14 O 0.12587 0.60585 0.15838 0.0
C15 C 0.04454 0.56176 0.10955 0.0
O16 O 0.98586 0.61173 0.14051 0.0
O17 O 1.00857 0.63471 0.18095 0.0
O18 O 1.0223 0.56612 0.20202 0.0
O19 O 0.0834 0.56395 0.20254 0.0
O20 O 1.0126 0.49164 0.17021 0.0
O21 O 0.97494 0.52491 0.15933 0.0
C22 C 0.12782 0.64019 0.16793 0.0
O23 O 0.09893 0.50317 0.18009 0.0
O24 O 0.10896 0.52002 0.13917 0.0
C25 C 0.93763 0.61436 0.16777 0.0
C26 C 0.85067 0.56867 0.17559 0.0
C27 C 0.86518 0.58674 0.1511 0.0
C28 C 0.9081 0.60963 0.14736 0.0
C29 C 0.92357 0.59871 0.19277 0.0
C30 C 0.88052 0.57641 0.19669 0.0
C31 C 0.98158 0.62979 0.1614 0.0
H32 H 0.21372 0.45898 0.17651 0.0
H33 H 0.14312 0.44979 0.17692 0.0
H34 H 0.18963 0.57474 0.14885 0.0
H35 H 0.26011 0.58371 0.14759 0.0
H36 H 0.84354 0.58108 0.13415 0.0
H37 H 0.91813 0.6213 0.12791 0.0
H38 H 0.9456 0.60192 0.20897 0.0
H39 H 0.87069 0.56388 0.21598 0.0
Tb40 Tb 0.59949 0.05646 0.50028 0.0
Eu41 Eu 0.49663 1.0097 0.50179 0.0
C42 C 0.55768 0.03675 0.55395 0.0
C43 C 0.54648 0.9575 0.50473 0.0
C44 C 0.70428 0.14145 0.49224 0.0
C45 C 0.76913 0.20772 0.49924 0.0
C46 C 0.74666 0.16423 0.50142 0.0
C47 C 0.68491 0.16225 0.48012 0.0
C48 C 0.70714 0.20557 0.47816 0.0
C49 C 0.74914 0.22876 0.48822 0.0
C50 C 0.67824 0.09763 0.49893 0.0
O51 O 0.57648 0.06254 0.46102 0.0
O52 O 0.51031 1.00541 0.45927 0.0
O53 O 0.51574 0.07736 0.49658 0.0
O54 O 0.58656 0.10737 0.50869 0.0
C55 C 0.54262 0.03421 0.44743 0.0
O56 O 0.43327 0.97858 0.48256 0.0
O57 O 0.44181 0.98689 0.5252 0.0
O58 O 0.52492 0.03683 0.5425 0.0
O59 O 0.58557 0.03452 0.54011 0.0
O60 O 0.57963 0.98982 0.49544 0.0
O61 O 0.51358 0.95994 0.51123 0.0
C62 C 0.55248 0.1102 0.50354 0.0
O63 O 0.65851 0.09278 0.52037 0.0
O64 O 0.65337 0.07222 0.47971 0.0
C65 C 0.3839 0.92462 0.50819 0.0
C66 C 0.32554 0.84042 0.51674 0.0
C67 C 0.35672 0.85063 0.49873 0.0
C68 C 0.38595 0.89245 0.49464 0.0
C69 C 0.35302 0.91444 0.52634 0.0
C70 C 0.32412 0.87262 0.53067 0.0
C71 C 0.41517 0.96875 0.50494 0.0
H72 H 0.80151 0.22507 0.50718 0.0
H73 H 0.7618 0.14865 0.51119 0.0
H74 H 0.65203 0.14515 0.47316 0.0
H75 H 0.69128 0.22106 0.46923 0.0
H76 H 0.35844 0.82624 0.48785 0.0
H77 H 0.41009 0.89958 0.48094 0.0
H78 H 0.35133 0.93887 0.53719 0.0
H79 H 0.30002 0.86546 0.54442 0.0
Tb80 Tb 0.55132 0.57269 0.83934 0.0
Eu81 Eu 0.49471 0.47144 0.827 0.0
C82 C 0.5195 0.50932 0.88479 0.0
C83 C 0.59641 0.51909 0.83845 0.0
C84 C 0.58018 0.68312 0.85023 0.0
C85 C 0.58455 0.74564 0.8693 0.0
C86 C 0.59626 0.71499 0.86993 0.0
C87 C 0.55206 0.68205 0.82988 0.0
C88 C 0.54069 0.713 0.82908 0.0
C89 C 0.55673 0.74496 0.84886 0.0
C90 C 0.59044 0.64955 0.85243 0.0
O91 O 0.53721 0.56912 0.79646 0.0
O92 O 0.51159 0.49892 0.78711 0.0
O93 O 0.44785 0.49312 0.81956 0.0
O94 O 0.48587 0.55809 0.84077 0.0
C95 C 0.52489 0.5373 0.77954 0.0
O96 O 0.48268 0.41515 0.80509 0.0
O97 O 0.44456 0.41002 0.83752 0.0
O98 O 0.48736 0.48493 0.86872 0.0
O99 O 0.55282 0.54088 0.87552 0.0
O100 O 0.59825 0.55459 0.83224 0.0
O101 O 0.5601 0.48504 0.84155 0.0
C102 C 0.45041 0.5271 0.82994 0.0
O103 O 0.56749 0.62006 0.86816 0.0
O104 O 0.59532 0.63446 0.83042 0.0
C105 C 0.46558 0.35961 0.83317 0.0
C106 C 0.49938 0.30968 0.85116 0.0
C107 C 0.47566 0.30022 0.82672 0.0
C108 C 0.45886 0.32495 0.81787 0.0
C109 C 0.48733 0.368 0.85817 0.0
C110 C 0.50383 0.34304 0.86717 0.0
C111 C 0.4556 0.39015 0.82137 0.0
H112 H 0.59771 0.77025 0.88459 0.0
H113 H 0.61757 0.71592 0.88593 0.0
H114 H 0.53865 0.65714 0.81479 0.0
H115 H 0.51902 0.71174 0.81321 0.0
H116 H 0.47224 0.27532 0.8136 0.0
H117 H 0.44267 0.3184 0.7984 0.0
H118 H 0.49327 0.39499 0.87021 0.0
H119 H 0.52146 0.35089 0.88619 0.0
O120 O 0.60033 0.10851 0.2469 0.0
Cd121 Cd 0.64015 0.13656 0.20592 0.0
O122 O 0.54761 0.0471 0.23168 0.0
Cd123 Cd 0.48809 0.98452 0.23168 0.0
O124 O 0.42785 0.92277 0.22523 0.0
C125 C 0.40858 0.91075 0.20235 0.0
O126 O 0.42476 0.93536 0.18243 0.0
C127 C 0.56731 0.07352 0.25095 0.0
C128 C 0.7103 0.21929 0.2024 0.0
O129 O 0.67354 0.20949 0.19251 0.0
O130 O 0.71388 0.19106 0.21511 0.0
O131 O 0.56697 0.5017 0.58005 0.0
Cd132 Cd 0.57952 0.47337 0.53853 0.0
O133 O 0.56078 0.5554 0.56612 0.0
Cd134 Cd 0.55525 0.61347 0.56538 0.0
O135 O 0.55062 0.66901 0.55138 0.0
C136 C 0.56107 0.70166 0.56576 0.0
O137 O 0.57501 0.70312 0.59043 0.0
C138 C 0.56191 0.53296 0.58505 0.0
C139 C 0.56957 0.39156 0.53474 0.0
O140 O 0.60145 0.42157 0.54765 0.0
O141 O 0.54151 0.39934 0.52463 0.0
O142 O 0.08556 0.54821 0.90341 0.0
Cd143 Cd 0.11649 0.55546 0.8598 0.0
O144 O 1.02311 0.54102 0.89277 0.0
Cd145 Cd 0.95949 0.53562 0.89348 0.0
O146 O 0.89652 0.52842 0.88113 0.0
C147 C 0.87245 0.53197 0.89691 0.0
O148 O 0.88482 0.54021 0.92214 0.0
C149 C 0.05095 0.54439 0.91052 0.0
C150 C 0.18796 0.54553 0.85592 0.0
O151 O 0.19101 0.57787 0.86763 0.0
O152 O 0.15132 0.51722 0.84682 0.0
O153 O 1.01553 0.5343 0.42361 0.0
Cd154 Cd 0.99543 0.51659 0.46938 0.0
O155 O 0.03211 0.60073 0.42136 0.0
Cd156 Cd 1.00332 0.5999 0.45774 0.0
O157 O 0.94935 0.5563 0.47848 0.0
C158 C 0.91648 0.53491 0.46339 0.0
O159 O 0.91675 0.5454 0.43857 0.0
C160 C 1.03002 0.56818 0.41101 0.0
C161 C 0.06382 0.57125 0.50297 0.0
O162 O 0.06175 0.53807 0.4933 0.0
O163 O 0.03254 0.5769 0.49797 0.0
O164 O 0.57971 0.08394 0.76438 0.0
Cd165 Cd 0.57039 0.08755 0.81179 0.0
O166 O 0.62873 0.06559 0.76488 0.0
Cd167 Cd 0.64896 0.08741 0.80585 0.0
O168 O 0.65102 0.13327 0.83383 0.0
C169 C 0.65854 0.16692 0.82273 0.0
O170 O 0.66938 0.17162 0.79811 0.0
C171 C 0.60149 0.07182 0.75227 0.0
C172 C 0.55264 1.01135 0.8333 0.0
O173 O 0.58948 0.04353 0.83589 0.0
O174 O 0.52324 1.01558 0.82157 0.0
O175 O 0.50047 0.3332 0.05326 0.0
Cd176 Cd 0.49283 0.29176 0.09232 0.0
O177 O 0.51089 0.38409 0.08039 0.0
Cd178 Cd 0.52113 0.44422 0.09587 0.0
O179 O 0.49758 0.47993 0.11616 0.0
C180 C 0.48757 0.50364 0.1034 0.0
O181 O 0.49501 0.50913 0.07822 0.0
C182 C 0.5083 0.37063 0.05677 0.0
C183 C 0.56439 0.33895 0.12558 0.0
O184 O 0.56342 0.31394 0.10756 0.0
O185 O 0.53069 0.3403 0.12868 0.0
C186 C 0.32154 0.56107 0.16255 0.0
C187 C 0.28302 0.52429 0.1566 0.0
C188 C 0.35972 0.56398 0.15627 0.0
C189 C 0.35917 0.5294 0.14361 0.0
C190 C 0.32041 0.49208 0.13792 0.0
C191 C 0.28293 0.49003 0.14444 0.0
C192 C 0.40048 0.60415 0.16277 0.0
C193 C 0.31837 0.45448 0.12434 0.0
C194 C 0.44244 0.53671 0.09973 0.0
C195 C 0.46117 0.51837 0.11543 0.0
C196 C 0.4112 0.54352 0.10941 0.0
C197 C 0.39859 0.5319 0.13542 0.0
C198 C 0.41989 0.51673 0.15209 0.0
C199 C 0.4509 0.51006 0.14187 0.0
C200 C 0.38941 0.55999 0.09103 0.0
C201 C 0.40774 0.50448 0.18005 0.0
H202 H 0.32182 0.58758 0.17208 0.0
H203 H 0.25328 0.46182 0.13926 0.0
H204 H 0.42271 0.59765 0.1747 0.0
H205 H 0.41555 0.61832 0.14424 0.0
H206 H 0.39574 0.62734 0.17389 0.0
H207 H 0.28577 0.42752 0.12187 0.0
H208 H 0.33106 0.46292 0.1045 0.0
H209 H 0.33812 0.44441 0.13592 0.0
H210 H 0.45045 0.54363 0.07936 0.0
H211 H 0.4656 0.4964 0.15427 0.0
H212 H 0.38603 0.58471 0.10123 0.0
H213 H 0.35729 0.53419 0.08495 0.0
H214 H 0.40663 0.57298 0.07292 0.0
H215 H 0.40368 0.52866 0.19041 0.0
H216 H 0.43152 0.4998 0.19169 0.0
H217 H 0.37716 0.4748 0.17956 0.0
C218 C 0.81126 0.29697 0.47805 0.0
C219 C 0.77135 0.2749 0.48791 0.0
C220 C 0.8317 0.34062 0.4765 0.0
C221 C 0.81182 0.36256 0.48531 0.0
C222 C 0.77207 0.34048 0.49611 0.0
C223 C 0.75215 0.29678 0.4971 0.0
C224 C 0.87413 0.36315 0.46483 0.0
C225 C 0.74986 0.36257 0.50591 0.0
C226 C 0.88772 0.47839 0.49623 0.0
C227 C 0.88356 0.49347 0.47149 0.0
C228 C 0.86235 0.43606 0.5018 0.0
C229 C 0.83237 0.4084 0.48212 0.0
C230 C 0.8255 0.42416 0.45807 0.0
C231 C 0.85115 0.46663 0.45305 0.0
C232 C 0.8695 0.42043 0.52802 0.0
C233 C 0.79319 0.39563 0.43683 0.0
H234 H 0.82596 0.27995 0.47088 0.0
H235 H 0.72152 0.27964 0.50515 0.0
H236 H 0.87214 0.37926 0.44677 0.0
H237 H 0.89764 0.38749 0.47913 0.0
H238 H 0.88566 0.34156 0.45949 0.0
H239 H 0.72625 0.34348 0.5202 0.0
H240 H 0.77237 0.3934 0.51558 0.0
H241 H 0.73315 0.36806 0.48885 0.0
H242 H 0.91236 0.49907 0.51073 0.0
H243 H 0.84735 0.47818 0.43402 0.0
H244 H 0.88442 0.40111 0.52488 0.0
H245 H 0.83907 0.40022 0.53685 0.0
H246 H 0.89017 0.44652 0.54233 0.0
H247 H 0.8031 0.37417 0.42865 0.0
H248 H 0.78905 0.41333 0.42033 0.0
H249 H 0.76235 0.37602 0.44533 0.0
C250 C 0.55088 0.80054 0.8244 0.0
C251 C 0.54609 0.77868 0.8477 0.0
C252 C 0.54601 0.83588 0.82382 0.0
C253 C 0.53557 0.84922 0.84705 0.0
C254 C 0.52813 0.8257 0.87018 0.0
C255 C 0.53389 0.79083 0.87031 0.0
C256 C 0.55454 0.86035 0.79881 0.0
C257 C 0.51605 0.83844 0.89512 0.0
C258 C 0.57983 0.96618 0.85156 0.0
C259 C 0.54573 0.9699 0.84114 0.0
C260 C 0.57621 0.92687 0.85484 0.0
C261 C 0.53739 0.89033 0.8478 0.0
C262 C 0.50198 0.89374 0.83908 0.0
C263 C 0.50662 0.93361 0.83571 0.0
C264 C 0.61475 0.92457 0.86422 0.0
C265 C 0.45988 0.85541 0.83193 0.0
H266 H 0.56052 0.79124 0.80696 0.0
H267 H 0.52964 0.7735 0.88824 0.0
H268 H 0.52805 0.86568 0.79311 0.0
H269 H 0.58316 0.89152 0.80235 0.0
H270 H 0.55935 0.84414 0.78197 0.0
H271 H 0.50544 0.81363 0.90998 0.0
H272 H 0.54351 0.86722 0.9041 0.0
H273 H 0.49057 0.84576 0.89054 0.0
H274 H 0.61008 0.99406 0.856 0.0
H275 H 0.48005 0.93626 0.82781 0.0
H276 H 0.62444 0.91163 0.84796 0.0
H277 H 0.60762 0.90323 0.88098 0.0
H278 H 0.64169 0.95573 0.87065 0.0
H279 H 0.46131 0.84108 0.813 0.0
H280 H 0.43423 0.86305 0.82956 0.0
H281 H 0.45193 0.83161 0.84727 0.0
C282 C 0.79235 0.50179 0.19239 0.0
C283 C 0.8051 0.53812 0.17776 0.0
C284 C 0.75058 0.46869 0.19004 0.0
C285 C 0.72137 0.47141 0.17198 0.0
C286 C 0.73301 0.50925 0.159 0.0
C287 C 0.77449 0.54245 0.16251 0.0
C288 C 0.73846 0.42971 0.20547 0.0
C289 C 0.70273 0.5135 0.13958 0.0
C290 C 0.6425 0.37528 0.13128 0.0
C291 C 0.60432 0.36831 0.14047 0.0
C292 C 0.68095 0.40767 0.14226 0.0
C293 C 0.68126 0.43316 0.16337 0.0
C294 C 0.64301 0.4242 0.17412 0.0
C295 C 0.60484 0.39221 0.16225 0.0
C296 C 0.72106 0.41619 0.13015 0.0
C297 C 0.64207 0.4495 0.19728 0.0
H298 H 0.81534 0.49789 0.20444 0.0
H299 H 0.78345 0.571 0.15204 0.0
H300 H 0.70737 0.41836 0.21373 0.0
H301 H 0.7357 0.40444 0.19211 0.0
H302 H 0.76209 0.43525 0.22195 0.0
H303 H 0.71577 0.5459 0.13252 0.0
H304 H 0.69531 0.49202 0.12216 0.0
H305 H 0.67277 0.50441 0.14872 0.0
H306 H 0.64234 0.35686 0.1145 0.0
H307 H 0.57541 0.38665 0.16964 0.0
H308 H 0.74375 0.41628 0.14556 0.0
H309 H 0.73604 0.44762 0.12146 0.0
H310 H 0.71544 0.39262 0.11438 0.0
H311 H 0.66926 0.45848 0.21174 0.0
H312 H 0.61254 0.43195 0.20763 0.0
H313 H 0.64382 0.47868 0.19008 0.0
C314 C 0.28195 0.77976 0.54468 0.0
C315 C 0.29255 0.79648 0.51957 0.0
C316 C 0.24765 0.73944 0.54745 0.0
C317 C 0.22297 0.71612 0.5246 0.0
C318 C 0.23471 0.73233 0.49917 0.0
C319 C 0.26962 0.77221 0.49698 0.0
C320 C 0.23683 0.7227 0.57481 0.0
C321 C 0.20896 0.70864 0.47428 0.0
C322 C 0.13986 0.602 0.51773 0.0
C323 C 0.10332 0.60517 0.51591 0.0
C324 C 0.17946 0.63761 0.5234 0.0
C325 C 0.18227 0.67704 0.52689 0.0
C326 C 0.14516 0.67953 0.52783 0.0
C327 C 0.10607 0.64343 0.52254 0.0
C328 C 0.21833 0.63356 0.52325 0.0
C329 C 0.14675 0.72098 0.53156 0.0
H330 H 0.30009 0.79852 0.56214 0.0
H331 H 0.27772 0.78534 0.4776 0.0
H332 H 0.20959 0.72522 0.58085 0.0
H333 H 0.22771 0.68913 0.57505 0.0
H334 H 0.26352 0.74044 0.5897 0.0
H335 H 0.22347 0.7249 0.45603 0.0
H336 H 0.2052 0.67688 0.47341 0.0
H337 H 0.17703 0.70479 0.47444 0.0
H338 H 0.13792 0.57235 0.51304 0.0
H339 H 0.07789 0.646 0.52159 0.0
H340 H 0.24223 0.65418 0.5389 0.0
H341 H 0.23249 0.64339 0.5039 0.0
H342 H 0.21092 0.60078 0.5262 0.0
H343 H 0.1689 0.73941 0.5485 0.0
H344 H 0.11535 0.71695 0.53499 0.0
H345 H 0.15833 0.73952 0.51358 0.0
C346 C 0.56546 0.31111 0.8682 0.0
C347 C 0.52345 0.28805 0.85799 0.0
C348 C 0.59151 0.29336 0.86914 0.0
C349 C 0.57533 0.25194 0.85914 0.0
C350 C 0.53202 0.22734 0.85117 0.0
C351 C 0.50651 0.2456 0.85099 0.0
C352 C 0.63715 0.32024 0.87864 0.0
C353 C 0.51342 0.18295 0.8404 0.0
C354 C 0.64173 0.22421 0.81869 0.0
C355 C 0.64539 0.19494 0.83455 0.0
C356 C 0.62094 0.24479 0.82719 0.0
C357 C 0.6043 0.23666 0.85246 0.0
C358 C 0.61139 0.2102 0.86957 0.0
C359 C 0.63147 0.18917 0.86028 0.0
C360 C 0.61402 0.27275 0.80825 0.0
C361 C 0.59565 0.2022 0.89705 0.0
H362 H 0.57896 0.34392 0.87377 0.0
H363 H 0.47376 0.22724 0.84387 0.0
H364 H 0.64912 0.30148 0.88909 0.0
H365 H 0.65629 0.33413 0.86138 0.0
H366 H 0.64189 0.3463 0.89211 0.0
H367 H 0.47858 0.16683 0.83752 0.0
H368 H 0.52631 0.18325 0.82102 0.0
H369 H 0.52214 0.16448 0.8539 0.0
H370 H 0.65271 0.22915 0.79887 0.0
H371 H 0.63468 0.16696 0.87278 0.0
H372 H 0.6249 0.30384 0.81786 0.0
H373 H 0.57989 0.25872 0.80272 0.0
H374 H 0.63076 0.27737 0.78986 0.0
H375 H 0.60107 0.23159 0.90686 0.0
H376 H 0.61119 0.1885 0.90961 0.0
H377 H 0.56128 0.17996 0.89578 0.0
C378 C 0.51183 0.8829 0.51948 0.0
C379 C 0.54714 0.9178 0.50994 0.0
C380 C 0.51298 0.84664 0.52691 0.0
C381 C 0.55038 0.84483 0.52488 0.0
C382 C 0.58571 0.87937 0.51448 0.0
C383 C 0.58368 0.91529 0.50716 0.0
C384 C 0.47446 0.81073 0.53777 0.0
C385 C 0.62619 0.87892 0.51186 0.0
C386 C 0.56898 0.77322 0.57143 0.0
C387 C 0.55809 0.73802 0.55499 0.0
C388 C 0.56671 0.80795 0.56186 0.0
C389 C 0.55325 0.80794 0.53507 0.0
C390 C 0.54222 0.77257 0.51832 0.0
C391 C 0.54472 0.73813 0.52844 0.0
C392 C 0.57866 0.84474 0.58055 0.0
C393 C 0.5277 0.7711 0.48966 0.0
H394 H 0.48329 0.88413 0.52169 0.0
H395 H 0.61122 0.94187 0.49988 0.0
H396 H 0.46579 0.78109 0.52687 0.0
H397 H 0.48139 0.80679 0.55884 0.0
H398 H 0.44699 0.81571 0.53644 0.0
H399 H 0.64988 0.90689 0.50185 0.0
H400 H 0.63978 0.87791 0.53178 0.0
H401 H 0.62001 0.85042 0.5005 0.0
H402 H 0.57934 0.77373 0.59196 0.0
H403 H 0.53624 0.71127 0.51549 0.0
H404 H 0.55155 0.84991 0.58197 0.0
H405 H 0.60469 0.87362 0.57279 0.0
H406 H 0.58873 0.84012 0.60076 0.0
H407 H 0.49906 0.77406 0.48831 0.0
H408 H 0.52056 0.74159 0.47912 0.0
H409 H 0.55228 0.79791 0.47933 0.0
C410 C 0.63622 0.48174 0.85188 0.0
C411 C 0.63657 0.51857 0.84427 0.0
C412 C 0.67386 0.48172 0.85915 0.0
C413 C 0.71304 0.51949 0.85908 0.0
C414 C 0.71365 0.55651 0.85086 0.0
C415 C 0.67563 0.55559 0.84353 0.0
C416 C 0.67152 0.4414 0.8676 0.0
C417 C 0.7545 0.5975 0.85044 0.0
C418 C 0.8059 0.53317 0.90466 0.0
C419 C 0.83116 0.52756 0.88709 0.0
C420 C 0.76734 0.53003 0.89587 0.0
C421 C 0.75322 0.52094 0.86877 0.0
C422 C 0.77823 0.51467 0.85096 0.0
C423 C 0.81681 0.51811 0.86028 0.0
C424 C 0.74191 0.53702 0.91562 0.0
C425 C 0.76437 0.50466 0.82197 0.0
H426 H 0.60641 0.4529 0.85258 0.0
H427 H 0.67657 0.5843 0.83773 0.0
H428 H 0.69429 0.43598 0.85721 0.0
H429 H 0.68011 0.44356 0.88914 0.0
H430 H 0.63955 0.41396 0.86357 0.0
H431 H 0.74994 0.62311 0.84248 0.0
H432 H 0.76947 0.60687 0.87081 0.0
H433 H 0.77672 0.59391 0.83821 0.0
H434 H 0.81641 0.5404 0.9254 0.0
H435 H 0.83583 0.51355 0.84649 0.0
H436 H 0.70987 0.50928 0.91552 0.0
H437 H 0.73831 0.56417 0.90995 0.0
H438 H 0.7567 0.54297 0.93608 0.0
H439 H 0.73272 0.47632 0.81961 0.0
H440 H 0.78655 0.49928 0.8108 0.0
H441 H 0.76181 0.5308 0.81302 0.0
C442 C 0.17215 0.71678 0.18137 0.0
C443 C 0.16971 0.67928 0.17276 0.0
C444 C 0.21115 0.75364 0.18672 0.0
C445 C 0.24914 0.75342 0.18356 0.0
C446 C 0.247 0.71569 0.17497 0.0
C447 C 0.20748 0.67925 0.16963 0.0
C448 C 0.21166 0.793 0.19566 0.0
C449 C 0.28652 0.71379 0.17136 0.0
C450 C 0.34726 0.85863 0.17251 0.0
C451 C 0.36826 0.86992 0.19783 0.0
C452 C 0.30903 0.82082 0.1676 0.0
C453 C 0.29089 0.79305 0.18845 0.0
C454 C 0.31208 0.80393 0.21401 0.0
C455 C 0.35034 0.84214 0.21841 0.0
C456 C 0.28773 0.81084 0.14007 0.0
C457 C 0.29409 0.77533 0.23682 0.0
H458 H 0.14342 0.71747 0.18395 0.0
H459 H 0.20626 0.6506 0.16318 0.0
H460 H 0.22966 0.80458 0.21508 0.0
H461 H 0.22776 0.81796 0.18133 0.0
H462 H 0.1795 0.78799 0.19755 0.0
H463 H 0.27969 0.68192 0.16527 0.0
H464 H 0.30494 0.73595 0.15611 0.0
H465 H 0.30664 0.72359 0.19009 0.0
H466 H 0.36057 0.87959 0.15637 0.0
H467 H 0.36615 0.85029 0.23802 0.0
H468 H 0.25627 0.80801 0.14055 0.0
H469 H 0.28282 0.78029 0.13263 0.0
H470 H 0.30625 0.83517 0.12585 0.0
H471 H 0.26294 0.77144 0.24071 0.0
H472 H 0.31489 0.78748 0.25526 0.0
H473 H 0.2891 0.74382 0.23169 0.0
C474 C 0.52209 0.15381 0.5187 0.0
C475 C 0.55496 0.15151 0.50743 0.0
C476 C 0.52449 0.1926 0.52371 0.0
C477 C 0.55992 0.2302 0.51633 0.0
C478 C 0.59276 0.22791 0.5043 0.0
C479 C 0.59034 0.18877 0.50059 0.0
C480 C 0.48936 0.19338 0.53737 0.0
C481 C 0.63053 0.26677 0.4953 0.0
C482 C 0.54469 0.32511 0.50766 0.0
C483 C 0.56625 0.34986 0.53052 0.0
C484 C 0.54319 0.28674 0.50256 0.0
C485 C 0.56241 0.27173 0.52118 0.0
C486 C 0.58357 0.29627 0.54455 0.0
C487 C 0.58588 0.33528 0.54869 0.0
C488 C 0.5217 0.26262 0.47692 0.0
C489 C 0.60351 0.28117 0.56533 0.0
H490 H 0.49488 0.12519 0.52436 0.0
H491 H 0.61581 0.18724 0.49182 0.0
H492 H 0.50227 0.2137 0.5556 0.0
H493 H 0.47429 0.2069 0.5243 0.0
H494 H 0.46483 0.16166 0.54282 0.0
H495 H 0.64968 0.25919 0.48257 0.0
H496 H 0.62059 0.28657 0.48412 0.0
H497 H 0.6507 0.28556 0.51282 0.0
H498 H 0.52994 0.33636 0.49332 0.0
H499 H 0.60257 0.35413 0.56641 0.0
H500 H 0.49484 0.2315 0.48107 0.0
H501 H 0.54399 0.25716 0.46597 0.0
H502 H 0.50984 0.27929 0.46398 0.0
H503 H 0.58 0.24952 0.5715 0.0
H504 H 0.61642 0.30254 0.58312 0.0
H505 H 0.6294 0.27853 0.55699 0.0
C506 C 0.37431 0.49402 0.83913 0.0
C507 C 0.41128 0.52921 0.8318 0.0
C508 C 0.33794 0.49634 0.84338 0.0
C509 C 0.33786 0.53433 0.83917 0.0
C510 C 0.37485 0.56962 0.83096 0.0
C511 C 0.41135 0.5669 0.82796 0.0
C512 C 0.29997 0.45842 0.85314 0.0
C513 C 0.37588 0.61028 0.82526 0.0
C514 C 0.23005 0.52588 0.82789 0.0
C515 C 0.22585 0.54187 0.85199 0.0
C516 C 0.26667 0.52421 0.82323 0.0
C517 C 0.29922 0.53714 0.84357 0.0
C518 C 0.2946 0.5524 0.8682 0.0
C519 C 0.25845 0.55547 0.87188 0.0
C520 C 0.27083 0.50935 0.79634 0.0
C521 C 0.3276 0.56498 0.8908 0.0
H522 H 0.37435 0.46503 0.84256 0.0
H523 H 0.43989 0.59417 0.82232 0.0
H524 H 0.29148 0.46653 0.87209 0.0
H525 H 0.27256 0.44822 0.83872 0.0
H526 H 0.30551 0.43169 0.85628 0.0
H527 H 0.40607 0.63386 0.81737 0.0
H528 H 0.34973 0.60457 0.81067 0.0
H529 H 0.3713 0.62362 0.84359 0.0
H530 H 0.20517 0.51584 0.81233 0.0
H531 H 0.25526 0.56773 0.89056 0.0
H532 H 0.27324 0.48064 0.79819 0.0
H533 H 0.30013 0.53355 0.78792 0.0
H534 H 0.24373 0.50242 0.78223 0.0
H535 H 0.33334 0.53869 0.89516 0.0
H536 H 0.31829 0.57401 0.90912 0.0
H537 H 0.35778 0.59177 0.88523 0.0
C538 C 0.93155 0.41256 0.1646 0.0
C539 C 0.93655 0.45202 0.17059 0.0
C540 C 0.89391 0.37538 0.16927 0.0
C541 C 0.86098 0.37742 0.1814 0.0
C542 C 0.86624 0.41736 0.18777 0.0
C543 C 0.90341 0.45398 0.18176 0.0
C544 C 0.88915 0.33386 0.16081 0.0
C545 C 0.83284 0.42216 0.20076 0.0
C546 C 0.74867 0.28343 0.17539 0.0
C547 C 0.74787 0.261 0.19797 0.0
C548 C 0.78508 0.32113 0.16972 0.0
C549 C 0.82143 0.33778 0.18744 0.0
C550 C 0.82008 0.31618 0.21088 0.0
C551 C 0.78379 0.27775 0.21556 0.0
C552 C 0.78478 0.34282 0.14454 0.0
C553 C 0.85684 0.33402 0.23125 0.0
H554 H 0.95684 0.41075 0.15577 0.0
H555 H 0.90698 0.48432 0.18657 0.0
H556 H 0.88624 0.31494 0.17839 0.0
H557 H 0.85992 0.31592 0.14786 0.0
H558 H 0.91624 0.33763 0.14997 0.0
H559 H 0.84723 0.45072 0.21391 0.0
H560 H 0.81266 0.42587 0.18515 0.0
H561 H 0.81261 0.39482 0.21256 0.0
H562 H 0.72117 0.27078 0.16163 0.0
H563 H 0.78338 0.26097 0.2332 0.0
H564 H 0.81237 0.34932 0.13327 0.0
H565 H 0.78721 0.37331 0.14946 0.0
H566 H 0.75567 0.32398 0.13163 0.0
H567 H 0.88465 0.33545 0.2227 0.0
H568 H 0.84984 0.31514 0.24928 0.0
H569 H 0.86549 0.36654 0.23708 0.0
C570 C 0.03321 0.52089 0.06717 0.0
C571 C 0.04006 0.5577 0.08012 0.0
C572 C 1.03069 0.51718 0.03938 0.0
C573 C 0.03524 0.55113 0.02405 0.0
C574 C 0.04089 0.58789 0.03697 0.0
C575 C 0.04322 0.59073 0.0648 0.0
C576 C 1.02466 0.47743 0.02646 0.0
C577 C 0.04598 0.62484 0.02141 0.0
C578 C 0.08122 0.56148 0.95725 0.0
C579 C 0.04561 0.54612 0.93941 0.0
C580 C 0.07815 0.5635 0.98464 0.0
C581 C 0.03839 0.54975 0.99478 0.0
C582 C 1.0022 0.53434 0.97701 0.0
C583 C 1.00622 0.53264 0.94952 0.0
C584 C 0.11764 0.58026 1.00276 0.0
C585 C 0.95922 0.51924 0.98706 0.0
H586 H 1.03047 0.49505 0.07875 0.0
H587 H 0.0483 0.61923 0.07455 0.0
H588 H 0.99838 0.46526 0.01098 0.0
H589 H 0.05348 0.48413 0.01658 0.0
H590 H 1.01799 0.45263 0.04096 0.0
H591 H 0.04649 0.64964 0.03419 0.0
H592 H 0.07583 0.63856 0.01129 0.0
H593 H 1.02001 0.61464 1.00584 0.0
H594 H 0.11194 0.57225 0.94979 0.0
H595 H 0.97842 0.52005 0.93612 0.0
H596 H 0.11477 0.55592 0.0167 0.0
H597 H 0.12193 0.60746 0.01479 0.0
H598 H 0.14624 0.59019 0.9917 0.0
H599 H 0.95086 0.4921 0.99982 0.0
H600 H 0.93445 0.50972 0.9707 0.0
H601 H 0.95944 0.54423 0.99943 0.0
C602 C 0.57871 0.05119 0.40506 0.0
C603 C 0.54131 0.03563 0.41807 0.0
C604 C 0.57881 0.05405 0.37739 0.0
C605 C 0.54074 0.04233 0.36224 0.0
C606 C 0.50278 0.0265 0.37526 0.0
C607 C 0.50342 0.02273 0.40299 0.0
C608 C 0.61987 0.07003 0.36438 0.0
C609 C 0.46174 1.01478 0.36001 0.0
C610 C 0.55887 0.09534 0.29597 0.0
C611 C 0.55407 0.06353 0.27842 0.0
C612 C 0.55195 0.08802 0.32298 0.0
C613 C 0.54141 0.0483 0.33296 0.0
C614 C 0.53529 1.01568 0.31515 0.0
C615 C 0.54115 0.02354 0.28804 0.0
C616 C 0.55758 0.12338 0.34101 0.0
C617 C 0.52517 0.97323 0.32496 0.0
H618 H 0.60806 0.06086 0.41658 0.0
H619 H 0.47446 1.01097 0.41296 0.0
H620 H 0.61647 0.04759 0.34847 0.0
H621 H 0.62849 0.10022 0.35504 0.0
H622 H 0.64606 0.07488 0.3787 0.0
H623 H 0.43482 1.00196 0.3729 0.0
H624 H 0.46407 0.04278 0.35034 0.0
H625 H 0.45512 0.99118 0.34408 0.0
H626 H 0.56877 0.12628 0.28861 0.0
H627 H 0.53809 0.99905 0.27464 0.0
H628 H 0.58636 0.13424 0.35431 0.0
H629 H 0.53058 0.11244 0.35369 0.0
H630 H 0.56051 0.15045 0.32976 0.0
H631 H 0.55248 0.97624 0.33735 0.0
H632 H 0.51783 0.95023 0.30845 0.0
H633 H 0.49804 0.96077 0.33761 0.0
C634 C 0.55737 0.5822 0.74059 0.0
C635 C 0.52692 0.54428 0.7506 0.0
C636 C 0.56316 0.58637 0.7132 0.0
C637 C 0.53744 0.55204 0.69541 0.0
C638 C 0.50485 0.51475 0.70535 0.0
C639 C 0.50026 0.51122 0.73273 0.0
C640 C 0.59845 0.62657 0.70353 0.0
C641 C 0.47616 0.47757 0.68719 0.0
C642 C 0.53448 0.5605 0.62005 0.0
C643 C 0.5588 0.54273 0.61309 0.0
C644 C 0.52842 0.56538 0.64686 0.0
C645 C 0.54756 0.55268 0.6671 0.0
C646 C 0.57379 0.53669 0.66008 0.0
C647 C 0.57874 0.53161 0.63328 0.0
C648 C 0.49991 0.58217 0.65342 0.0
C649 C 0.59543 0.52334 0.68088 0.0
H650 H 0.57815 0.60787 0.75426 0.0
H651 H 0.47625 0.48198 0.74025 0.0
H652 H 0.62395 0.62112 0.69745 0.0
H653 H 0.58737 0.63708 0.68591 0.0
H654 H 0.61182 0.65203 0.71906 0.0
H655 H 0.44942 0.45288 0.69751 0.0
H656 H 0.46343 0.48749 0.67007 0.0
H657 H 0.49429 0.46375 0.67927 0.0
H658 H 0.51866 0.56882 0.60459 0.0
H659 H 0.59799 0.51829 0.62809 0.0
H660 H 0.5149 0.60666 0.66947 0.0
H661 H 0.47038 0.55649 0.6607 0.0
H662 H 0.49177 0.59553 0.63594 0.0
H663 H 0.61292 0.5487 0.6962 0.0
H664 H 0.61775 0.51518 0.67233 0.0
H665 H 0.57157 0.4956 0.69092 0.0
C666 C 0.60441 0.06185 0.59522 0.0
C667 C 0.56374 0.03984 0.58301 0.0
C668 C 0.61078 0.06651 0.62287 0.0
C669 C 0.57566 0.04748 0.6386 0.0
C670 C 0.53455 0.02416 0.62632 0.0
C671 C 0.52903 0.02124 0.59859 0.0
C672 C 0.65497 0.09268 0.63521 0.0
C673 C 0.49645 1.0024 0.64245 0.0
C674 C 0.59791 0.03304 0.71082 0.0
C675 C 0.59507 0.06542 0.72328 0.0
C676 C 0.59067 0.02615 0.68326 0.0
C677 C 0.58191 0.05326 0.66786 0.0
C678 C 0.57968 0.08641 0.68039 0.0
C679 C 0.58558 0.09163 0.70802 0.0
C680 C 0.59196 0.98968 0.67065 0.0
C681 C 0.57166 0.11673 0.66459 0.0
H682 H 0.63122 0.07649 0.5831 0.0
H683 H 0.4976 1.00389 0.58907 0.0
H684 H 0.65727 0.1191 0.64718 0.0
H685 H 0.66279 0.07366 0.64881 0.0
H686 H 0.6788 0.10561 0.62015 0.0
H687 H 0.46702 0.98319 0.62989 0.0
H688 H 0.50057 0.98182 0.65681 0.0
H689 H 0.49289 0.02588 0.65404 0.0
H690 H 0.60483 1.01252 0.7227 0.0
H691 H 0.58368 0.11686 0.71769 0.0
H692 H 0.61739 1.00121 0.65671 0.0
H693 H 0.56189 0.96934 0.65898 0.0
H694 H 0.59734 0.97047 0.68553 0.0
H695 H 0.59582 0.13179 0.64991 0.0
H696 H 0.57219 0.14159 0.67733 0.0
H697 H 0.54063 0.09974 0.65338 0.0
C698 C 0.55677 0.51465 0.92902 0.0
C699 C 0.5196 0.49687 0.91257 0.0
C700 C 0.55757 0.49887 0.9542 0.0
C701 C 0.52048 0.46447 0.9629 0.0
C702 C 0.48247 0.44803 0.94696 0.0
C703 C 0.48249 0.46439 0.92204 0.0
C704 C 0.59818 0.51823 0.97125 0.0
C705 C 0.44195 0.4123 0.95595 0.0
C706 C 0.52565 0.38706 0.00981 0.0
C707 C 0.51407 0.39702 0.03353 0.0
C708 C 0.52937 0.40987 0.987 0.0
C709 C 0.52143 0.44368 0.98787 0.0
C710 C 0.51063 0.45456 0.0119 0.0
C711 C 0.50686 0.43093 0.03438 0.0
C712 C 0.54034 0.39679 0.96169 0.0
C713 C 0.50213 0.49047 0.01433 0.0
H714 H 0.5855 0.53996 0.92193 0.0
H715 H 0.45343 0.45086 0.90966 0.0
H716 H 0.59306 0.5272 0.99108 0.0
H717 H 0.60871 0.49498 0.97421 0.0
H718 H 0.62363 0.54637 0.96237 0.0
H719 H 0.41481 0.40387 0.94152 0.0
H720 H 0.44534 0.38426 0.95883 0.0
H721 H 0.43492 0.42086 0.97529 0.0
H722 H 0.53139 0.36096 0.00895 0.0
H723 H 0.49664 0.43823 0.05222 0.0
H724 H 0.56787 0.42388 0.95356 0.0
H725 H 0.51359 0.38592 0.94662 0.0
H726 H 0.54766 0.37119 0.96465 0.0
H727 H 0.50141 0.50489 0.99527 0.0
H728 H 0.52698 0.51508 0.02793 0.0
H729 H 0.47163 0.4796 0.02335 0.0
C730 C 1.01857 0.55798 0.257 0.0
C731 C 0.05404 0.56412 0.24422 0.0
C732 C 1.01865 0.55869 0.28463 0.0
C733 C 0.05518 0.56593 0.29995 0.0
C734 C 0.09101 0.57173 0.28726 0.0
C735 C 0.08998 0.57062 0.25946 0.0
C736 C 0.97964 0.552 0.29741 0.0
C737 C 0.13051 0.57964 0.30304 0.0
C738 C 0.05916 0.60596 0.36955 0.0
C739 C 0.04201 0.56876 0.38349 0.0
C740 C 0.06612 0.60595 0.34258 0.0
C741 C 0.05545 0.56781 0.32925 0.0
C742 C 0.04034 0.5306 0.34352 0.0
C743 C 0.03389 0.53154 0.3705 0.0
C744 C 0.08267 0.64635 0.32805 0.0
C745 C 1.02856 0.48931 0.32997 0.0
H746 H 0.99054 0.55262 0.24539 0.0
H747 H 0.11751 0.57546 0.24971 0.0
H748 H 0.96851 0.52506 0.31064 0.0
H749 H 0.98706 0.58 0.3098 0.0
H750 H 0.95359 0.54597 0.28262 0.0
H751 H 0.1553 0.58254 0.29018 0.0
H752 H 0.14316 0.60888 0.31535 0.0
H753 H 0.12325 0.5538 0.31675 0.0
H754 H 0.06597 0.63496 0.37948 0.0
H755 H 1.02089 0.50267 0.38113 0.0
H756 H 0.05729 0.6449 0.31437 0.0
H757 H 0.10876 0.65092 0.31589 0.0
H758 H 0.09412 0.67396 0.34178 0.0
H759 H 1.00002 0.47909 0.31652 0.0
H760 H 1.022 0.46437 0.34435 0.0
H761 H 0.05409 0.49268 0.31769 0.0
loop_
_geom_bond_atom_site_label_1
_geom_bond_atom_site_label_2
_geom_bond_distance
_geom_bond_site_symmetry_2
_ccdc_geom_bond_type
Tb0 C10 2.825 . S
Tb0 O11 2.347 . S
Tb0 O14 2.366 . S
Tb0 O19 2.418 . S
Tb0 O20 2.384 1_455 S
Tb0 O23 2.479 . S
Tb0 O24 2.471 . S
Eu1 O12 2.418 . S
Eu1 O13 2.384 1_655 S
Eu1 O16 2.479 . S
Eu1 O17 2.471 . S
Eu1 O18 2.347 1_655 S
Eu1 O21 2.366 . S
Eu1 C31 2.825 . S
C2 O18 1.259 . S
C2 O19 1.265 . S
C3 O20 1.255 . S
C3 O21 1.265 . S
C4 C6 1.380 . S
C4 C7 1.374 . S
C4 C10 1.507 . S
C5 C6 1.384 . S
C5 C9 1.387 . S
C5 H32 0.930 . S
C6 C4 1.380 . S
C6 C5 1.384 . S
C6 H33 0.931 . S
C7 C4 1.374 . S
C7 C8 1.390 . S
C7 H34 0.930 . S
C8 C7 1.390 . S
C8 C9 1.391 . S
C8 H35 0.930 . S
C9 C5 1.387 . S
C9 C8 1.391 . S
C10 Tb0 2.825 . S
C10 C4 1.507 . S
C10 O23 1.238 . S
C10 O24 1.247 . S
O11 Tb0 2.347 . S
O11 C15 1.259 . S
O12 Eu1 2.418 . S
O12 C15 1.265 1_655 S
O13 Eu1 2.384 1_455 S
O13 C22 1.255 . S
O14 Tb0 2.366 . S
O14 C22 1.265 . S
C15 O11 1.259 . S
C15 O12 1.265 1_455 S
O16 Eu1 2.479 . S
O16 C31 1.238 . S
O17 Eu1 2.471 . S
O17 C31 1.247 . S
O18 Eu1 2.347 1_455 S
O18 C2 1.259 . S
O19 Tb0 2.418 . S
O19 C2 1.265 . S
O20 Tb0 2.384 1_655 S
O20 C3 1.255 . S
O21 Eu1 2.366 . S
O21 C3 1.265 . S
C22 O13 1.255 . S
C22 O14 1.265 . S
O23 Tb0 2.479 . S
O23 C10 1.238 . S
O24 Tb0 2.471 . S
O24 C10 1.247 . S
C25 C28 1.380 . S
C25 C29 1.374 . S
C25 C31 1.507 . S
C26 C27 1.387 . S
C26 C30 1.391 . S
C27 C26 1.387 . S
C27 C28 1.384 . S
C27 H36 0.930 . S
C28 C25 1.380 . S
C28 C27 1.384 . S
C28 H37 0.931 . S
C29 C25 1.374 . S
C29 C30 1.390 . S
C29 H38 0.930 . S
C30 C26 1.391 . S
C30 C29 1.390 . S
C30 H39 0.930 . S
C31 Eu1 2.825 . S
C31 O16 1.238 . S
C31 O17 1.247 . S
C31 C25 1.507 . S
H32 C5 0.930 . S
H33 C6 0.931 . S
H34 C7 0.930 . S
H35 C8 0.930 . S
H36 C27 0.930 . S
H37 C28 0.931 . S
H38 C29 0.930 . S
H39 C30 0.930 . S
Tb40 C50 2.825 . S
Tb40 O51 2.347 . S
Tb40 O54 2.366 . S
Tb40 O59 2.418 . S
Tb40 O60 2.384 1_545 S
Tb40 O63 2.479 . S
Tb40 O64 2.471 . S
Eu41 O52 2.418 . S
Eu41 O53 2.384 . S
Eu41 O56 2.479 1_545 S
Eu41 O57 2.471 1_545 S
Eu41 O58 2.347 . S
Eu41 O61 2.366 1_545 S
Eu41 C71 2.825 1_545 S
C42 O58 1.259 . S
C42 O59 1.265 . S
C43 O60 1.255 . S
C43 O61 1.265 . S
C44 C46 1.380 . S
C44 C47 1.374 . S
C44 C50 1.507 . S
C45 C46 1.384 . S
C45 C49 1.387 . S
C45 H72 0.930 . S
C46 C44 1.380 . S
C46 C45 1.384 . S
C46 H73 0.931 . S
C47 C44 1.374 . S
C47 C48 1.390 . S
C47 H74 0.930 . S
C48 C47 1.390 . S
C48 C49 1.391 . S
C48 H75 0.930 . S
C49 C45 1.387 . S
C49 C48 1.391 . S
C50 Tb40 2.825 . S
C50 C44 1.507 . S
C50 O63 1.238 . S
C50 O64 1.247 . S
O51 Tb40 2.347 . S
O51 C55 1.259 . S
O52 Eu41 2.418 . S
O52 C55 1.265 . S
O53 Eu41 2.384 . S
O53 C62 1.255 . S
O54 Tb40 2.366 . S
O54 C62 1.265 . S
C55 O51 1.259 . S
C55 O52 1.265 . S
O56 Eu41 2.479 1_565 S
O56 C71 1.238 . S
O57 Eu41 2.471 1_565 S
O57 C71 1.247 . S
O58 Eu41 2.347 . S
O58 C42 1.259 . S
O59 Tb40 2.418 . S
O59 C42 1.265 . S
O60 Tb40 2.384 1_565 S
O60 C43 1.255 . S
O61 Eu41 2.366 1_565 S
O61 C43 1.265 . S
C62 O53 1.255 . S
C62 O54 1.265 . S
O63 Tb40 2.479 . S
O63 C50 1.238 . S
O64 Tb40 2.471 . S
O64 C50 1.247 . S
C65 C68 1.380 . S
C65 C69 1.374 . S
C65 C71 1.507 . S
C66 C67 1.387 . S
C66 C70 1.391 . S
C67 C66 1.387 . S
C67 C68 1.384 . S
C67 H76 0.930 . S
C68 C65 1.380 . S
C68 C67 1.384 . S
C68 H77 0.931 . S
C69 C65 1.374 . S
C69 C70 1.390 . S
C69 H78 0.930 . S
C70 C66 1.391 . S
C70 C69 1.390 . S
C70 H79 0.930 . S
C71 Eu41 2.825 1_565 S
C71 O56 1.238 . S
C71 O57 1.247 . S
C71 C65 1.507 . S
H72 C45 0.930 . S
H73 C46 0.931 . S
H74 C47 0.930 . S
H75 C48 0.930 . S
H76 C67 0.930 . S
H77 C68 0.931 . S
H78 C69 0.930 . S
H79 C70 0.930 . S
Tb80 C90 2.825 . S
Tb80 O91 2.347 . S
Tb80 O94 2.366 . S
Tb80 O99 2.418 . S
Tb80 O100 2.384 . S
Tb80 O103 2.479 . S
Tb80 O104 2.471 . S
Eu81 O92 2.418 . S
Eu81 O93 2.384 . S
Eu81 O96 2.479 . S
Eu81 O97 2.471 . S
Eu81 O98 2.347 . S
Eu81 O101 2.366 . S
Eu81 C111 2.825 . S
C82 O98 1.259 . S
C82 O99 1.265 . S
C83 O100 1.255 . S
C83 O101 1.265 . S
C84 C86 1.380 . S
C84 C87 1.374 . S
C84 C90 1.507 . S
C85 C86 1.384 . S
C85 C89 1.387 . S
C85 H112 0.930 . S
C86 C84 1.380 . S
C86 C85 1.384 . S
C86 H113 0.931 . S
C87 C84 1.374 . S
C87 C88 1.390 . S
C87 H114 0.930 . S
C88 C87 1.390 . S
C88 C89 1.391 . S
C88 H115 0.930 . S
C89 C85 1.387 . S
C89 C88 1.391 . S
C90 Tb80 2.825 . S
C90 C84 1.507 . S
C90 O103 1.238 . S
C90 O104 1.247 . S
O91 Tb80 2.347 . S
O91 C95 1.259 . S
O92 Eu81 2.418 . S
O92 C95 1.265 . S
O93 Eu81 2.384 . S
O93 C102 1.255 . S
O94 Tb80 2.366 . S
O94 C102 1.265 . S
C95 O91 1.259 . S
C95 O92 1.265 . S
O96 Eu81 2.479 . S
O96 C111 1.238 . S
O97 Eu81 2.471 . S
O97 C111 1.247 . S
O98 Eu81 2.347 . S
O98 C82 1.259 . S
O99 Tb80 2.418 . S
O99 C82 1.265 . S
O100 Tb80 2.384 . S
O100 C83 1.255 . S
O101 Eu81 2.366 . S
O101 C83 1.265 . S
C102 O93 1.255 . S
C102 O94 1.265 . S
O103 Tb80 2.479 . S
O103 C90 1.238 . S
O104 Tb80 2.471 . S
O104 C90 1.247 . S
C105 C108 1.380 . S
C105 C109 1.374 . S
C105 C111 1.507 . S
C106 C107 1.387 . S
C106 C110 1.391 . S
C107 C106 1.387 . S
C107 C108 1.384 . S
C107 H116 0.930 . S
C108 C105 1.380 . S
C108 C107 1.384 . S
C108 H117 0.931 . S
C109 C105 1.374 . S
C109 C110 1.390 . S
C109 H118 0.930 . S
C110 C106 1.391 . S
C110 C109 1.390 . S
C110 H119 0.930 . S
C111 Eu81 2.825 . S
C111 O96 1.238 . S
C111 O97 1.247 . S
C111 C105 1.507 . S
H112 C85 0.930 . S
H113 C86 0.931 . S
H114 C87 0.930 . S
H115 C88 0.930 . S
H116 C107 0.930 . S
H117 C108 0.931 . S
H118 C109 0.930 . S
H119 C110 0.930 . S
O120 Cd121 2.300 . S
O120 C127 1.275 . S
Cd121 O120 2.300 . S
Cd121 O129 2.381 . S
Cd121 O130 2.378 . S
O122 Cd123 2.385 . S
O122 C127 1.255 1_565 S
Cd123 O122 2.385 . S
Cd123 O124 2.317 . S
O124 Cd123 2.317 . S
O124 C125 1.232 . S
C125 O124 1.232 . S
C125 O126 1.218 . S
O126 C125 1.218 . S
C127 O120 1.275 . S
C127 O122 1.255 1_545 S
C128 O129 1.258 . S
C128 O130 1.256 . S
O129 Cd121 2.381 . S
O129 C128 1.258 . S
O130 Cd121 2.378 . S
O130 C128 1.256 . S
O131 Cd132 2.300 . S
O131 C138 1.275 . S
Cd132 O131 2.300 . S
Cd132 O140 2.381 . S
Cd132 O141 2.378 . S
O133 Cd134 2.385 . S
O133 C138 1.255 . S
Cd134 O133 2.385 . S
Cd134 O135 2.317 . S
O135 Cd134 2.317 . S
O135 C136 1.232 . S
C136 O135 1.232 . S
C136 O137 1.218 . S
O137 C136 1.218 . S
C138 O131 1.275 . S
C138 O133 1.255 . S
C139 O140 1.258 . S
C139 O141 1.256 . S
O140 Cd132 2.381 . S
O140 C139 1.258 . S
O141 Cd132 2.378 . S
O141 C139 1.256 . S
O142 Cd143 2.300 . S
O142 C149 1.275 . S
Cd143 O142 2.300 . S
Cd143 O151 2.381 . S
Cd143 O152 2.378 . S
O144 Cd145 2.385 . S
O144 C149 1.255 1_655 S
Cd145 O144 2.385 . S
Cd145 O146 2.317 . S
O146 Cd145 2.317 . S
O146 C147 1.232 . S
C147 O146 1.232 . S
C147 O148 1.218 . S
O148 C147 1.218 . S
C149 O142 1.275 . S
C149 O144 1.255 1_455 S
C150 O151 1.258 . S
C150 O152 1.256 . S
O151 Cd143 2.381 . S
O151 C150 1.258 . S
O152 Cd143 2.378 . S
O152 C150 1.256 . S
O153 Cd154 2.300 . S
O153 C160 1.275 . S
Cd154 O153 2.300 . S
Cd154 O162 2.381 . S
Cd154 O163 2.378 . S
O155 Cd156 2.385 . S
O155 C160 1.255 1_655 S
Cd156 O155 2.385 . S
Cd156 O157 2.317 . S
O157 Cd156 2.317 . S
O157 C158 1.232 . S
C158 O157 1.232 . S
C158 O159 1.218 . S
O159 C158 1.218 . S
C160 O153 1.275 . S
C160 O155 1.255 1_455 S
C161 O162 1.258 . S
C161 O163 1.256 . S
O162 Cd154 2.381 . S
O162 C161 1.258 . S
O163 Cd154 2.378 . S
O163 C161 1.256 . S
O164 Cd165 2.300 . S
O164 C171 1.275 1_565 S
Cd165 O164 2.300 . S
Cd165 O173 2.381 . S
Cd165 O174 2.378 . S
O166 Cd167 2.385 . S
O166 C171 1.255 . S
Cd167 O166 2.385 . S
Cd167 O168 2.317 . S
O168 Cd167 2.317 . S
O168 C169 1.232 . S
C169 O168 1.232 . S
C169 O170 1.218 . S
O170 C169 1.218 . S
C171 O164 1.275 1_545 S
C171 O166 1.255 . S
C172 O173 1.258 . S
C172 O174 1.256 . S
O173 Cd165 2.381 . S
O173 C172 1.258 . S
O174 Cd165 2.378 . S
O174 C172 1.256 . S
O175 Cd176 2.300 . S
O175 C182 1.275 . S
Cd176 O175 2.300 . S
Cd176 O184 2.381 . S
Cd176 O185 2.378 . S
O177 Cd178 2.385 . S
O177 C182 1.255 . S
Cd178 O177 2.385 . S
Cd178 O179 2.317 . S
O179 Cd178 2.317 . S
O179 C180 1.232 . S
C180 O179 1.232 . S
C180 O181 1.218 . S
O181 C180 1.218 . S
C182 O175 1.275 . S
C182 O177 1.255 . S
C183 O184 1.258 . S
C183 O185 1.256 . S
O184 Cd176 2.381 . S
O184 C183 1.258 . S
O185 Cd176 2.378 . S
O185 C183 1.256 . S
C186 C187 1.391 . S
C186 C188 1.394 . S
C186 H202 0.931 . S
C187 C186 1.391 . S
C187 C191 1.376 . S
C188 C186 1.394 . S
C188 C189 1.369 . S
C188 C192 1.531 . S
C189 C188 1.369 . S
C189 C190 1.410 . S
C189 C197 1.503 . S
C190 C189 1.410 . S
C190 C191 1.392 . S
C190 C193 1.511 . S
C191 C187 1.376 . S
C191 C190 1.392 . S
C191 H203 0.929 . S
C192 C188 1.531 . S
C192 H204 0.960 . S
C192 H205 0.962 . S
C192 H206 0.960 . S
C193 C190 1.511 . S
C193 H207 0.961 . S
C193 H208 0.961 . S
C193 H209 0.961 . S
C194 C195 1.370 . S
C194 C196 1.363 . S
C194 H210 0.931 . S
C195 C194 1.370 . S
C195 C199 1.408 . S
C196 C194 1.363 . S
C196 C197 1.370 . S
C196 C200 1.524 . S
C197 C189 1.503 . S
C197 C196 1.370 . S
C197 C198 1.403 . S
C198 C197 1.403 . S
C198 C199 1.404 . S
C198 C201 1.539 . S
C199 C195 1.408 . S
C199 C198 1.404 . S
C199 H211 0.930 . S
C200 C196 1.524 . S
C200 H212 0.956 . S
C200 H213 0.961 . S
C200 H214 0.961 . S
C201 C198 1.539 . S
C201 H215 0.958 . S
C201 H216 0.961 . S
C201 H217 0.960 . S
H202 C186 0.931 . S
H203 C191 0.929 . S
H204 C192 0.960 . S
H205 C192 0.962 . S
H206 C192 0.960 . S
H207 C193 0.961 . S
H208 C193 0.961 . S
H209 C193 0.961 . S
H210 C194 0.931 . S
H211 C199 0.930 . S
H212 C200 0.956 . S
H213 C200 0.961 . S
H214 C200 0.961 . S
H215 C201 0.958 . S
H216 C201 0.961 . S
H217 C201 0.960 . S
C218 C219 1.391 . S
C218 C220 1.394 . S
C218 H234 0.931 . S
C219 C218 1.391 . S
C219 C223 1.376 . S
C220 C218 1.394 . S
C220 C221 1.369 . S
C220 C224 1.531 . S
C221 C220 1.369 . S
C221 C222 1.410 . S
C221 C229 1.503 . S
C222 C221 1.410 . S
C222 C223 1.392 . S
C222 C225 1.511 . S
C223 C219 1.376 . S
C223 C222 1.392 . S
C223 H235 0.929 . S
C224 C220 1.531 . S
C224 H236 0.960 . S
C224 H237 0.962 . S
C224 H238 0.960 . S
C225 C222 1.511 . S
C225 H239 0.961 . S
C225 H240 0.961 . S
C225 H241 0.961 . S
C226 C227 1.370 . S
C226 C228 1.363 . S
C226 H242 0.931 . S
C227 C226 1.370 . S
C227 C231 1.408 . S
C228 C226 1.363 . S
C228 C229 1.370 . S
C228 C232 1.524 . S
C229 C221 1.503 . S
C229 C228 1.370 . S
C229 C230 1.403 . S
C230 C229 1.403 . S
C230 C231 1.404 . S
C230 C233 1.539 . S
C231 C227 1.408 . S
C231 C230 1.404 . S
C231 H243 0.930 . S
C232 C228 1.524 . S
C232 H244 0.956 . S
C232 H245 0.961 . S
C232 H246 0.961 . S
C233 C230 1.539 . S
C233 H247 0.958 . S
C233 H248 0.961 . S
C233 H249 0.960 . S
H234 C218 0.931 . S
H235 C223 0.929 . S
H236 C224 0.960 . S
H237 C224 0.962 . S
H238 C224 0.960 . S
H239 C225 0.961 . S
H240 C225 0.961 . S
H241 C225 0.961 . S
H242 C226 0.931 . S
H243 C231 0.930 . S
H244 C232 0.956 . S
H245 C232 0.961 . S
H246 C232 0.961 . S
H247 C233 0.958 . S
H248 C233 0.961 . S
H249 C233 0.960 . S
C250 C251 1.391 . S
C250 C252 1.394 . S
C250 H266 0.931 . S
C251 C250 1.391 . S
C251 C255 1.376 . S
C252 C250 1.394 . S
C252 C253 1.369 . S
C252 C256 1.531 . S
C253 C252 1.369 . S
C253 C254 1.410 . S
C253 C261 1.503 . S
C254 C253 1.410 . S
C254 C255 1.392 . S
C254 C257 1.511 . S
C255 C251 1.376 . S
C255 C254 1.392 . S
C255 H267 0.929 . S
C256 C252 1.531 . S
C256 H268 0.960 . S
C256 H269 0.962 . S
C256 H270 0.960 . S
C257 C254 1.511 . S
C257 H271 0.961 . S
C257 H272 0.961 . S
C257 H273 0.961 . S
C258 C259 1.370 . S
C258 C260 1.363 . S
C258 H274 0.931 . S
C259 C258 1.370 . S
C259 C263 1.408 . S
C260 C258 1.363 . S
C260 C261 1.370 . S
C260 C264 1.524 . S
C261 C253 1.503 . S
C261 C260 1.370 . S
C261 C262 1.403 . S
C262 C261 1.403 . S
C262 C263 1.404 . S
C262 C265 1.539 . S
C263 C259 1.408 . S
C263 C262 1.404 . S
C263 H275 0.930 . S
C264 C260 1.524 . S
C264 H276 0.956 . S
C264 H277 0.961 . S
C264 H278 0.961 . S
C265 C262 1.539 . S
C265 H279 0.958 . S
C265 H280 0.961 . S
C265 H281 0.960 . S
H266 C250 0.931 . S
H267 C255 0.929 . S
H268 C256 0.960 . S
H269 C256 0.962 . S
H270 C256 0.960 . S
H271 C257 0.961 . S
H272 C257 0.961 . S
H273 C257 0.961 . S
H274 C258 0.931 . S
H275 C263 0.930 . S
H276 C264 0.956 . S
H277 C264 0.961 . S
H278 C264 0.961 . S
H279 C265 0.958 . S
H280 C265 0.961 . S
H281 C265 0.960 . S
C282 C283 1.391 . S
C282 C284 1.394 . S
C282 H298 0.931 . S
C283 C282 1.391 . S
C283 C287 1.376 . S
C284 C282 1.394 . S
C284 C285 1.369 . S
C284 C288 1.531 . S
C285 C284 1.369 . S
C285 C286 1.410 . S
C285 C293 1.503 . S
C286 C285 1.410 . S
C286 C287 1.392 . S
C286 C289 1.511 . S
C287 C283 1.376 . S
C287 C286 1.392 . S
C287 H299 0.929 . S
C288 C284 1.531 . S
C288 H300 0.960 . S
C288 H301 0.962 . S
C288 H302 0.960 . S
C289 C286 1.511 . S
C289 H303 0.961 . S
C289 H304 0.961 . S
C289 H305 0.961 . S
C290 C291 1.370 . S
C290 C292 1.363 . S
C290 H306 0.931 . S
C291 C290 1.370 . S
C291 C295 1.408 . S
C292 C290 1.363 . S
C292 C293 1.370 . S
C292 C296 1.524 . S
C293 C285 1.503 . S
C293 C292 1.370 . S
C293 C294 1.403 . S
C294 C293 1.403 . S
C294 C295 1.404 . S
C294 C297 1.539 . S
C295 C291 1.408 . S
C295 C294 1.404 . S
C295 H307 0.930 . S
C296 C292 1.524 . S
C296 H308 0.956 . S
C296 H309 0.961 . S
C296 H310 0.961 . S
C297 C294 1.539 . S
C297 H311 0.958 . S
C297 H312 0.961 . S
C297 H313 0.960 . S
H298 C282 0.931 . S
H299 C287 0.929 . S
H300 C288 0.960 . S
H301 C288 0.962 . S
H302 C288 0.960 . S
H303 C289 0.961 . S
H304 C289 0.961 . S
H305 C289 0.961 . S
H306 C290 0.931 . S
H307 C295 0.930 . S
H308 C296 0.956 . S
H309 C296 0.961 . S
H310 C296 0.961 . S
H311 C297 0.958 . S
H312 C297 0.961 . S
H313 C297 0.960 . S
C314 C315 1.391 . S
C314 C316 1.394 . S
C314 H330 0.931 . S
C315 C314 1.391 . S
C315 C319 1.376 . S
C316 C314 1.394 . S
C316 C317 1.369 . S
C316 C320 1.531 . S
C317 C316 1.369 . S
C317 C318 1.410 . S
C317 C325 1.503 . S
C318 C317 1.410 . S
C318 C319 1.392 . S
C318 C321 1.511 . S
C319 C315 1.376 . S
C319 C318 1.392 . S
C319 H331 0.929 . S
C320 C316 1.531 . S
C320 H332 0.960 . S
C320 H333 0.962 . S
C320 H334 0.960 . S
C321 C318 1.511 . S
C321 H335 0.961 . S
C321 H336 0.961 . S
C321 H337 0.961 . S
C322 C323 1.370 . S
C322 C324 1.363 . S
C322 H338 0.931 . S
C323 C322 1.370 . S
C323 C327 1.408 . S
C324 C322 1.363 . S
C324 C325 1.370 . S
C324 C328 1.524 . S
C325 C317 1.503 . S
C325 C324 1.370 . S
C325 C326 1.403 . S
C326 C325 1.403 . S
C326 C327 1.404 . S
C326 C329 1.539 . S
C327 C323 1.408 . S
C327 C326 1.404 . S
C327 H339 0.930 . S
C328 C324 1.524 . S
C328 H340 0.956 . S
C328 H341 0.961 . S
C328 H342 0.961 . S
C329 C326 1.539 . S
C329 H343 0.958 . S
C329 H344 0.961 . S
C329 H345 0.960 . S
H330 C314 0.931 . S
H331 C319 0.929 . S
H332 C320 0.960 . S
H333 C320 0.962 . S
H334 C320 0.960 . S
H335 C321 0.961 . S
H336 C321 0.961 . S
H337 C321 0.961 . S
H338 C322 0.931 . S
H339 C327 0.930 . S
H340 C328 0.956 . S
H341 C328 0.961 . S
H342 C328 0.961 . S
H343 C329 0.958 . S
H344 C329 0.961 . S
H345 C329 0.960 . S
C346 C347 1.391 . S
C346 C348 1.394 . S
C346 H362 0.931 . S
C347 C346 1.391 . S
C347 C351 1.376 . S
C348 C346 1.394 . S
C348 C349 1.369 . S
C348 C352 1.531 . S
C349 C348 1.369 . S
C349 C350 1.410 . S
C349 C357 1.503 . S
C350 C349 1.410 . S
C350 C351 1.392 . S
C350 C353 1.511 . S
C351 C347 1.376 . S
C351 C350 1.392 . S
C351 H363 0.929 . S
C352 C348 1.531 . S
C352 H364 0.960 . S
C352 H365 0.962 . S
C352 H366 0.960 . S
C353 C350 1.511 . S
C353 H367 0.961 . S
C353 H368 0.961 . S
C353 H369 0.961 . S
C354 C355 1.370 . S
C354 C356 1.363 . S
C354 H370 0.931 . S
C355 C354 1.370 . S
C355 C359 1.408 . S
C356 C354 1.363 . S
C356 C357 1.370 . S
C356 C360 1.524 . S
C357 C349 1.503 . S
C357 C356 1.370 . S
C357 C358 1.403 . S
C358 C357 1.403 . S
C358 C359 1.404 . S
C358 C361 1.539 . S
C359 C355 1.408 . S
C359 C358 1.404 . S
C359 H371 0.930 . S
C360 C356 1.524 . S
C360 H372 0.956 . S
C360 H373 0.961 . S
C360 H374 0.961 . S
C361 C358 1.539 . S
C361 H375 0.958 . S
C361 H376 0.961 . S
C361 H377 0.960 . S
H362 C346 0.931 . S
H363 C351 0.929 . S
H364 C352 0.960 . S
H365 C352 0.962 . S
H366 C352 0.960 . S
H367 C353 0.961 . S
H368 C353 0.961 . S
H369 C353 0.961 . S
H370 C354 0.931 . S
H371 C359 0.930 . S
H372 C360 0.956 . S
H373 C360 0.961 . S
H374 C360 0.961 . S
H375 C361 0.958 . S
H376 C361 0.961 . S
H377 C361 0.960 . S
C378 C379 1.391 . S
C378 C380 1.394 . S
C378 H394 0.931 . S
C379 C378 1.391 . S
C379 C383 1.376 . S
C380 C378 1.394 . S
C380 C381 1.369 . S
C380 C384 1.531 . S
C381 C380 1.369 . S
C381 C382 1.410 . S
C381 C389 1.503 . S
C382 C381 1.410 . S
C382 C383 1.392 . S
C382 C385 1.511 . S
C383 C379 1.376 . S
C383 C382 1.392 . S
C383 H395 0.929 . S
C384 C380 1.531 . S
C384 H396 0.960 . S
C384 H397 0.962 . S
C384 H398 0.960 . S
C385 C382 1.511 . S
C385 H399 0.961 . S
C385 H400 0.961 . S
C385 H401 0.961 . S
C386 C387 1.370 . S
C386 C388 1.363 . S
C386 H402 0.931 . S
C387 C386 1.370 . S
C387 C391 1.408 . S
C388 C386 1.363 . S
C388 C389 1.370 . S
C388 C392 1.524 . S
C389 C381 1.503 . S
C389 C388 1.370 . S
C389 C390 1.403 . S
C390 C389 1.403 . S
C390 C391 1.404 . S
C390 C393 1.539 . S
C391 C387 1.408 . S
C391 C390 1.404 . S
C391 H403 0.930 . S
C392 C388 1.524 . S
C392 H404 0.956 . S
C392 H405 0.961 . S
C392 H406 0.961 . S
C393 C390 1.539 . S
C393 H407 0.958 . S
C393 H408 0.961 . S
C393 H409 0.960 . S
H394 C378 0.931 . S
H395 C383 0.929 . S
H396 C384 0.960 . S
H397 C384 0.962 . S
H398 C384 0.960 . S
H399 C385 0.961 . S
H400 C385 0.961 . S
H401 C385 0.961 . S
H402 C386 0.931 . S
H403 C391 0.930 . S
H404 C392 0.956 . S
H405 C392 0.961 . S
H406 C392 0.961 . S
H407 C393 0.958 . S
H408 C393 0.961 . S
H409 C393 0.960 . S
C410 C411 1.391 . S
C410 C412 1.394 . S
C410 H426 0.931 . S
C411 C410 1.391 . S
C411 C415 1.376 . S
C412 C410 1.394 . S
C412 C413 1.369 . S
C412 C416 1.531 . S
C413 C412 1.369 . S
C413 C414 1.410 . S
C413 C421 1.503 . S
C414 C413 1.410 . S
C414 C415 1.392 . S
C414 C417 1.511 . S
C415 C411 1.376 . S
C415 C414 1.392 . S
C415 H427 0.929 . S
C416 C412 1.531 . S
C416 H428 0.960 . S
C416 H429 0.962 . S
C416 H430 0.960 . S
C417 C414 1.511 . S
C417 H431 0.961 . S
C417 H432 0.961 . S
C417 H433 0.961 . S
C418 C419 1.370 . S
C418 C420 1.363 . S
C418 H434 0.931 . S
C419 C418 1.370 . S
C419 C423 1.408 . S
C420 C418 1.363 . S
C420 C421 1.370 . S
C420 C424 1.524 . S
C421 C413 1.503 . S
C421 C420 1.370 . S
C421 C422 1.403 . S
C422 C421 1.403 . S
C422 C423 1.404 . S
C422 C425 1.539 . S
C423 C419 1.408 . S
C423 C422 1.404 . S
C423 H435 0.930 . S
C424 C420 1.524 . S
C424 H436 0.956 . S
C424 H437 0.961 . S
C424 H438 0.961 . S
C425 C422 1.539 . S
C425 H439 0.958 . S
C425 H440 0.961 . S
C425 H441 0.960 . S
H426 C410 0.931 . S
H427 C415 0.929 . S
H428 C416 0.960 . S
H429 C416 0.962 . S
H430 C416 0.960 . S
H431 C417 0.961 . S
H432 C417 0.961 . S
H433 C417 0.961 . S
H434 C418 0.931 . S
H435 C423 0.930 . S
H436 C424 0.956 . S
H437 C424 0.961 . S
H438 C424 0.961 . S
H439 C425 0.958 . S
H440 C425 0.961 . S
H441 C425 0.960 . S
C442 C443 1.391 . S
C442 C444 1.394 . S
C442 H458 0.931 . S
C443 C442 1.391 . S
C443 C447 1.376 . S
C444 C442 1.394 . S
C444 C445 1.369 . S
C444 C448 1.531 . S
C445 C444 1.369 . S
C445 C446 1.410 . S
C445 C453 1.503 . S
C446 C445 1.410 . S
C446 C447 1.392 . S
C446 C449 1.511 . S
C447 C443 1.376 . S
C447 C446 1.392 . S
C447 H459 0.929 . S
C448 C444 1.531 . S
C448 H460 0.960 . S
C448 H461 0.962 . S
C448 H462 0.960 . S
C449 C446 1.511 . S
C449 H463 0.961 . S
C449 H464 0.961 . S
C449 H465 0.961 . S
C450 C451 1.370 . S
C450 C452 1.363 . S
C450 H466 0.931 . S
C451 C450 1.370 . S
C451 C455 1.408 . S
C452 C450 1.363 . S
C452 C453 1.370 . S
C452 C456 1.524 . S
C453 C445 1.503 . S
C453 C452 1.370 . S
C453 C454 1.403 . S
C454 C453 1.403 . S
C454 C455 1.404 . S
C454 C457 1.539 . S
C455 C451 1.408 . S
C455 C454 1.404 . S
C455 H467 0.930 . S
C456 C452 1.524 . S
C456 H468 0.956 . S
C456 H469 0.961 . S
C456 H470 0.961 . S
C457 C454 1.539 . S
C457 H471 0.958 . S
C457 H472 0.961 . S
C457 H473 0.960 . S
H458 C442 0.931 . S
H459 C447 0.929 . S
H460 C448 0.960 . S
H461 C448 0.962 . S
H462 C448 0.960 . S
H463 C449 0.961 . S
H464 C449 0.961 . S
H465 C449 0.961 . S
H466 C450 0.931 . S
H467 C455 0.930 . S
H468 C456 0.956 . S
H469 C456 0.961 . S
H470 C456 0.961 . S
H471 C457 0.958 . S
H472 C457 0.961 . S
H473 C457 0.960 . S
C474 C475 1.391 . S
C474 C476 1.394 . S
C474 H490 0.931 . S
C475 C474 1.391 . S
C475 C479 1.376 . S
C476 C474 1.394 . S
C476 C477 1.369 . S
C476 C480 1.531 . S
C477 C476 1.369 . S
C477 C478 1.410 . S
C477 C485 1.503 . S
C478 C477 1.410 . S
C478 C479 1.392 . S
C478 C481 1.511 . S
C479 C475 1.376 . S
C479 C478 1.392 . S
C479 H491 0.929 . S
C480 C476 1.531 . S
C480 H492 0.960 . S
C480 H493 0.962 . S
C480 H494 0.960 . S
C481 C478 1.511 . S
C481 H495 0.961 . S
C481 H496 0.961 . S
C481 H497 0.961 . S
C482 C483 1.370 . S
C482 C484 1.363 . S
C482 H498 0.931 . S
C483 C482 1.370 . S
C483 C487 1.408 . S
C484 C482 1.363 . S
C484 C485 1.370 . S
C484 C488 1.524 . S
C485 C477 1.503 . S
C485 C484 1.370 . S
C485 C486 1.403 . S
C486 C485 1.403 . S
C486 C487 1.404 . S
C486 C489 1.539 . S
C487 C483 1.408 . S
C487 C486 1.404 . S
C487 H499 0.930 . S
C488 C484 1.524 . S
C488 H500 0.956 . S
C488 H501 0.961 . S
C488 H502 0.961 . S
C489 C486 1.539 . S
C489 H503 0.958 . S
C489 H504 0.961 . S
C489 H505 0.960 . S
H490 C474 0.931 . S
H491 C479 0.929 . S
H492 C480 0.960 . S
H493 C480 0.962 . S
H494 C480 0.960 . S
H495 C481 0.961 . S
H496 C481 0.961 . S
H497 C481 0.961 . S
H498 C482 0.931 . S
H499 C487 0.930 . S
H500 C488 0.956 . S
H501 C488 0.961 . S
H502 C488 0.961 . S
H503 C489 0.958 . S
H504 C489 0.961 . S
H505 C489 0.960 . S
C506 C507 1.391 . S
C506 C508 1.394 . S
C506 H522 0.931 . S
C507 C506 1.391 . S
C507 C511 1.376 . S
C508 C506 1.394 . S
C508 C509 1.369 . S
C508 C512 1.531 . S
C509 C508 1.369 . S
C509 C510 1.410 . S
C509 C517 1.503 . S
C510 C509 1.410 . S
C510 C511 1.392 . S
C510 C513 1.511 . S
C511 C507 1.376 . S
C511 C510 1.392 . S
C511 H523 0.929 . S
C512 C508 1.531 . S
C512 H524 0.960 . S
C512 H525 0.962 . S
C512 H526 0.960 . S
C513 C510 1.511 . S
C513 H527 0.961 . S
C513 H528 0.961 . S
C513 H529 0.961 . S
C514 C515 1.370 . S
C514 C516 1.363 . S
C514 H530 0.931 . S
C515 C514 1.370 . S
C515 C519 1.408 . S
C516 C514 1.363 . S
C516 C517 1.370 . S
C516 C520 1.524 . S
C517 C509 1.503 . S
C517 C516 1.370 . S
C517 C518 1.403 . S
C518 C517 1.403 . S
C518 C519 1.404 . S
C518 C521 1.539 . S
C519 C515 1.408 . S
C519 C518 1.404 . S
C519 H531 0.930 . S
C520 C516 1.524 . S
C520 H532 0.956 . S
C520 H533 0.961 . S
C520 H534 0.961 . S
C521 C518 1.539 . S
C521 H535 0.958 . S
C521 H536 0.961 . S
C521 H537 0.960 . S
H522 C506 0.931 . S
H523 C511 0.929 . S
H524 C512 0.960 . S
H525 C512 0.962 . S
H526 C512 0.960 . S
H527 C513 0.961 . S
H528 C513 0.961 . S
H529 C513 0.961 . S
H530 C514 0.931 . S
H531 C519 0.930 . S
H532 C520 0.956 . S
H533 C520 0.961 . S
H534 C520 0.961 . S
H535 C521 0.958 . S
H536 C521 0.961 . S
H537 C521 0.960 . S
C538 C539 1.391 . S
C538 C540 1.394 . S
C538 H554 0.931 . S
C539 C538 1.391 . S
C539 C543 1.376 . S
C540 C538 1.394 . S
C540 C541 1.369 . S
C540 C544 1.531 . S
C541 C540 1.369 . S
C541 C542 1.410 . S
C541 C549 1.503 . S
C542 C541 1.410 . S
C542 C543 1.392 . S
C542 C545 1.511 . S
C543 C539 1.376 . S
C543 C542 1.392 . S
C543 H555 0.929 . S
C544 C540 1.531 . S
C544 H556 0.960 . S
C544 H557 0.962 . S
C544 H558 0.960 . S
C545 C542 1.511 . S
C545 H559 0.961 . S
C545 H560 0.961 . S
C545 H561 0.961 . S
C546 C547 1.370 . S
C546 C548 1.363 . S
C546 H562 0.931 . S
C547 C546 1.370 . S
C547 C551 1.408 . S
C548 C546 1.363 . S
C548 C549 1.370 . S
C548 C552 1.524 . S
C549 C541 1.503 . S
C549 C548 1.370 . S
C549 C550 1.403 . S
C550 C549 1.403 . S
C550 C551 1.404 . S
C550 C553 1.539 . S
C551 C547 1.408 . S
C551 C550 1.404 . S
C551 H563 0.930 . S
C552 C548 1.524 . S
C552 H564 0.956 . S
C552 H565 0.961 . S
C552 H566 0.961 . S
C553 C550 1.539 . S
C553 H567 0.958 . S
C553 H568 0.961 . S
C553 H569 0.960 . S
H554 C538 0.931 . S
H555 C543 0.929 . S
H556 C544 0.960 . S
H557 C544 0.962 . S
H558 C544 0.960 . S
H559 C545 0.961 . S
H560 C545 0.961 . S
H561 C545 0.961 . S
H562 C546 0.931 . S
H563 C551 0.930 . S
H564 C552 0.956 . S
H565 C552 0.961 . S
H566 C552 0.961 . S
H567 C553 0.958 . S
H568 C553 0.961 . S
H569 C553 0.960 . S
C570 C571 1.391 . S
C570 C572 1.394 . S
C570 H586 0.931 . S
C571 C570 1.391 . S
C571 C575 1.376 . S
C572 C570 1.394 . S
C572 C573 1.369 . S
C572 C576 1.531 . S
C573 C572 1.369 . S
C573 C574 1.410 1_455 S
C573 C581 1.503 . S
C574 C573 1.410 1_655 S
C574 C575 1.392 1_655 S
C574 C577 1.511 . S
C575 C571 1.376 . S
C575 C574 1.392 1_455 S
C575 H587 0.929 1_455 S
C576 C572 1.531 . S
C576 H588 0.960 . S
C576 H589 0.962 . S
C576 H590 0.960 . S
C577 C574 1.511 . S
C577 H591 0.961 . S
C577 H592 0.961 . S
C577 H593 0.961 . S
C578 C579 1.370 . S
C578 C580 1.363 . S
C578 H594 0.931 . S
C579 C578 1.370 . S
C579 C583 1.408 1_455 S
C580 C578 1.363 . S
C580 C581 1.370 1_556 S
C580 C584 1.524 1_556 S
C581 C573 1.503 . S
C581 C580 1.370 1_554 S
C581 C582 1.403 1_454 S
C582 C581 1.403 1_656 S
C582 C583 1.404 . S
C582 C585 1.549 . S
C583 C579 1.408 1_655 S
C583 C582 1.404 . S
C583 H595 0.930 . S
C584 C580 1.524 1_554 S
C584 H596 0.956 . S
C584 H597 0.961 . S
C584 H598 0.961 1_554 S
C585 C582 1.549 . S
C585 H599 0.957 1_556 S
C585 H600 0.973 . S
C585 H601 0.939 1_556 S
H586 C570 0.931 . S
H587 C575 0.929 1_655 S
H588 C576 0.960 . S
H589 C576 0.962 . S
H590 C576 0.960 . S
H591 C577 0.961 . S
H592 C577 0.961 . S
H593 C577 0.961 . S
H594 C578 0.931 . S
H595 C583 0.930 . S
H596 C584 0.956 . S
H597 C584 0.961 . S
H598 C584 0.961 1_556 S
H599 C585 0.957 1_554 S
H600 C585 0.973 . S
H601 C585 0.939 1_554 S
C602 C603 1.391 . S
C602 C604 1.394 . S
C602 H618 0.931 . S
C603 C602 1.391 . S
C603 C607 1.376 . S
C604 C602 1.394 . S
C604 C605 1.369 . S
C604 C608 1.531 . S
C605 C604 1.369 . S
C605 C606 1.410 . S
C605 C613 1.503 . S
C606 C605 1.410 . S
C606 C607 1.392 . S
C606 C609 1.511 . S
C607 C603 1.376 . S
C607 C606 1.392 . S
C607 H619 0.929 . S
C608 C604 1.531 . S
C608 H620 0.960 1_545 S
C608 H621 0.962 . S
C608 H622 0.960 1_545 S
C609 C606 1.511 . S
C609 H623 0.961 . S
C609 H624 0.961 . S
C609 H625 0.961 . S
C610 C611 1.370 . S
C610 C612 1.363 . S
C610 H626 0.931 . S
C611 C610 1.370 . S
C611 C615 1.408 1_545 S
C612 C610 1.363 . S
C612 C613 1.370 . S
C612 C616 1.524 . S
C613 C605 1.503 . S
C613 C612 1.370 . S
C613 C614 1.403 1_545 S
C614 C613 1.403 1_565 S
C614 C615 1.404 . S
C614 C617 1.539 . S
C615 C611 1.408 1_565 S
C615 C614 1.404 . S
C615 H627 0.930 . S
C616 C612 1.524 . S
C616 H628 0.956 . S
C616 H629 0.961 . S
C616 H630 0.961 . S
C617 C614 1.539 . S
C617 H631 0.958 . S
C617 H632 0.961 . S
C617 H633 0.960 . S
H618 C602 0.931 . S
H619 C607 0.929 . S
H620 C608 0.960 1_565 S
H621 C608 0.962 . S
H622 C608 0.960 1_565 S
H623 C609 0.961 . S
H624 C609 0.961 . S
H625 C609 0.961 . S
H626 C610 0.931 . S
H627 C615 0.930 . S
H628 C616 0.956 . S
H629 C616 0.961 . S
H630 C616 0.961 . S
H631 C617 0.958 . S
H632 C617 0.961 . S
H633 C617 0.960 . S
C634 C635 1.391 . S
C634 C636 1.394 . S
C634 H650 0.931 . S
C635 C634 1.391 . S
C635 C639 1.376 . S
C636 C634 1.394 . S
C636 C637 1.369 . S
C636 C640 1.531 . S
C637 C636 1.369 . S
C637 C638 1.410 . S
C637 C645 1.503 . S
C638 C637 1.410 . S
C638 C639 1.392 . S
C638 C641 1.511 . S
C639 C635 1.376 . S
C639 C638 1.392 . S
C639 H651 0.929 . S
C640 C636 1.531 . S
C640 H652 0.960 . S
C640 H653 0.962 . S
C640 H654 0.960 . S
C641 C638 1.511 . S
C641 H655 0.961 . S
C641 H656 0.961 . S
C641 H657 0.961 . S
C642 C643 1.370 . S
C642 C644 1.363 . S
C642 H658 0.931 . S
C643 C642 1.370 . S
C643 C647 1.408 . S
C644 C642 1.363 . S
C644 C645 1.370 . S
C644 C648 1.524 . S
C645 C637 1.503 . S
C645 C644 1.370 . S
C645 C646 1.403 . S
C646 C645 1.403 . S
C646 C647 1.404 . S
C646 C649 1.539 . S
C647 C643 1.408 . S
C647 C646 1.404 . S
C647 H659 0.930 . S
C648 C644 1.524 . S
C648 H660 0.956 . S
C648 H661 0.961 . S
C648 H662 0.961 . S
C649 C646 1.539 . S
C649 H663 0.958 . S
C649 H664 0.961 . S
C649 H665 0.960 . S
H650 C634 0.931 . S
H651 C639 0.929 . S
H652 C640 0.960 . S
H653 C640 0.962 . S
H654 C640 0.960 . S
H655 C641 0.961 . S
H656 C641 0.961 . S
H657 C641 0.961 . S
H658 C642 0.931 . S
H659 C647 0.930 . S
H660 C648 0.956 . S
H661 C648 0.961 . S
H662 C648 0.961 . S
H663 C649 0.958 . S
H664 C649 0.961 . S
H665 C649 0.960 . S
C666 C667 1.391 . S
C666 C668 1.394 . S
C666 H682 0.931 . S
C667 C666 1.391 . S
C667 C671 1.376 . S
C668 C666 1.394 . S
C668 C669 1.369 . S
C668 C672 1.531 . S
C669 C668 1.369 . S
C669 C670 1.410 . S
C669 C677 1.503 . S
C670 C669 1.410 . S
C670 C671 1.392 . S
C670 C673 1.511 1_545 S
C671 C667 1.376 . S
C671 C670 1.392 . S
C671 H683 0.929 1_545 S
C672 C668 1.531 . S
C672 H684 0.960 . S
C672 H685 0.962 . S
C672 H686 0.960 . S
C673 C670 1.511 1_565 S
C673 H687 0.961 . S
C673 H688 0.961 . S
C673 H689 0.961 . S
C674 C675 1.370 . S
C674 C676 1.363 . S
C674 H690 0.931 1_545 S
C675 C674 1.370 . S
C675 C679 1.408 . S
C676 C674 1.363 . S
C676 C677 1.370 . S
C676 C680 1.524 1_545 S
C677 C669 1.503 . S
C677 C676 1.370 . S
C677 C678 1.403 . S
C678 C677 1.403 . S
C678 C679 1.404 . S
C678 C681 1.539 . S
C679 C675 1.408 . S
C679 C678 1.404 . S
C679 H691 0.930 . S
C680 C676 1.524 1_565 S
C680 H692 0.956 1_565 S
C680 H693 0.961 . S
C680 H694 0.961 . S
C681 C678 1.539 . S
C681 H695 0.958 . S
C681 H696 0.961 . S
C681 H697 0.960 . S
H682 C666 0.931 . S
H683 C671 0.929 1_565 S
H684 C672 0.960 . S
H685 C672 0.962 . S
H686 C672 0.960 . S
H687 C673 0.961 . S
H688 C673 0.961 . S
H689 C673 0.961 . S
H690 C674 0.931 1_565 S
H691 C679 0.930 . S
H692 C680 0.956 1_545 S
H693 C680 0.961 . S
H694 C680 0.961 . S
H695 C681 0.958 . S
H696 C681 0.961 . S
H697 C681 0.960 . S
C698 C699 1.391 . S
C698 C700 1.394 . S
C698 H714 0.931 . S
C699 C698 1.391 . S
C699 C703 1.376 . S
C700 C698 1.394 . S
C700 C701 1.369 . S
C700 C704 1.531 . S
C701 C700 1.369 . S
C701 C702 1.410 . S
C701 C709 1.503 . S
C702 C701 1.410 . S
C702 C703 1.392 . S
C702 C705 1.511 . S
C703 C699 1.376 . S
C703 C702 1.392 . S
C703 H715 0.929 . S
C704 C700 1.531 . S
C704 H716 0.960 . S
C704 H717 0.962 . S
C704 H718 0.960 . S
C705 C702 1.511 . S
C705 H719 0.961 . S
C705 H720 0.961 . S
C705 H721 0.961 . S
C706 C707 1.370 . S
C706 C708 1.383 . S
C706 H722 0.931 . S
C707 C706 1.370 . S
C707 C711 1.408 . S
C708 C706 1.383 . S
C708 C709 1.364 1_554 S
C708 C712 1.511 1_554 S
C709 C701 1.503 . S
C709 C708 1.364 1_556 S
C709 C710 1.403 1_556 S
C710 C709 1.403 1_554 S
C710 C711 1.404 . S
C710 C713 1.545 . S
C711 C707 1.408 . S
C711 C710 1.404 . S
C711 H723 0.930 . S
C712 C708 1.511 1_556 S
C712 H724 0.956 . S
C712 H725 0.961 . S
C712 H726 0.961 . S
C713 C710 1.545 . S
C713 H727 0.959 . S
C713 H728 0.972 . S
C713 H729 0.944 1_554 S
H714 C698 0.931 . S
H715 C703 0.929 . S
H716 C704 0.960 . S
H717 C704 0.962 . S
H718 C704 0.960 . S
H719 C705 0.961 . S
H720 C705 0.961 . S
H721 C705 0.961 . S
H722 C706 0.931 . S
H723 C711 0.930 . S
H724 C712 0.956 . S
H725 C712 0.961 . S
H726 C712 0.961 . S
H727 C713 0.959 . S
H728 C713 0.972 . S
H729 C713 0.944 1_556 S
C730 C731 1.391 1_655 S
C730 C732 1.394 . S
C730 H746 0.931 . S
C731 C730 1.391 1_455 S
C731 C735 1.376 . S
C732 C730 1.394 . S
C732 C733 1.369 1_655 S
C732 C736 1.531 . S
C733 C732 1.369 1_455 S
C733 C734 1.410 . S
C733 C741 1.503 . S
C734 C733 1.410 . S
C734 C735 1.392 . S
C734 C737 1.511 . S
C735 C731 1.376 . S
C735 C734 1.392 . S
C735 H747 0.929 . S
C736 C732 1.531 . S
C736 H748 0.960 . S
C736 H749 0.962 . S
C736 H750 0.960 . S
C737 C734 1.511 . S
C737 H751 0.961 . S
C737 H752 0.961 . S
C737 H753 0.961 . S
C738 C739 1.370 . S
C738 C740 1.363 . S
C738 H754 0.931 . S
C739 C738 1.370 . S
C739 C743 1.408 1_455 S
C740 C738 1.363 . S
C740 C741 1.370 . S
C740 C744 1.524 . S
C741 C733 1.503 . S
C741 C740 1.370 . S
C741 C742 1.396 . S
C742 C741 1.396 . S
C742 C743 1.398 1_455 S
C742 C745 1.555 . S
C743 C739 1.408 1_655 S
C743 C742 1.398 1_655 S
C743 H755 0.930 . S
C744 C740 1.524 . S
C744 H756 0.956 1_455 S
C744 H757 0.961 . S
C744 H758 0.961 . S
C745 C742 1.555 . S
C745 H759 0.959 1_455 S
C745 H760 0.960 . S
C745 H761 0.958 . S
H746 C730 0.931 . S
H747 C735 0.929 . S
H748 C736 0.960 . S
H749 C736 0.962 . S
H750 C736 0.960 . S
H751 C737 0.961 . S
H752 C737 0.961 . S
H753 C737 0.961 . S
H754 C738 0.931 . S
H755 C743 0.930 . S
H756 C744 0.956 1_655 S
H757 C744 0.961 . S
H758 C744 0.961 . S
H759 C745 0.959 1_655 S
H760 C745 0.960 . S
H761 C745 0.958 . S
C187 C9 0.607 . S
C195 C180 0.728 . S
C219 C49 0.357 . S
C227 C158 0.645 . S
C251 C89 0.217 . S
C259 C172 0.322 . S
C283 C26 0.413 . S
C291 C183 0.323 . S
C323 C161 0.240 . S
C315 C66 0.392 . S
C355 C169 0.722 . S
C347 C106 0.632 . S
C379 C43 3.149 . S
C387 C136 2.801 . S
C411 C83 3.241 . S
C419 C147 2.890 . S
C443 C22 3.286 . S
C451 C125 2.908 . S
C483 C139 2.915 . S
C475 C62 2.994 . S
C515 C150 2.817 . S
C507 C102 2.884 . S
C539 C3 2.838 . S
C547 C128 2.774 . S
C579 C149 1.669 . S
C571 C15 1.671 . S
C603 C55 1.664 . S
C611 C127 1.676 . S
C635 C95 1.701 . S
C643 C138 1.659 . S
C675 C171 1.190 . S
C667 C42 1.219 . S
C707 C182 1.176 . S
C699 C82 1.197 . S
C731 C2 1.201 . S
C739 C160 1.205 . S
