# Generated by pormake.
# Topology anh, (6,3)-cn, num edge types: 1
# Building blocks:
#     Node 0, Type 0, BuildingBlock: BETFEN_clean_sbu_0, # of connection points: 6
#     Node 1, Type 0, BuildingBlock: BETFEN_clean_sbu_0, # of connection points: 6
#     Node 2, Type 0, BuildingBlock: BETFEN_clean_sbu_0, # of connection points: 6
#     Node 3, Type 1, BuildingBlock: OLANEW_clean_sbu_2, # of connection points: 3
#     Node 4, Type 1, BuildingBlock: OLANEW_clean_sbu_2, # of connection points: 3
#     Node 5, Type 1, BuildingBlock: OLANEW_clean_sbu_2, # of connection points: 3
#     Node 6, Type 1, BuildingBlock: OLANEW_clean_sbu_2, # of connection points: 3
#     Node 7, Type 1, BuildingBlock: OLANEW_clean_sbu_2, # of connection points: 3
#     Node 8, Type 1, BuildingBlock: OLANEW_clean_sbu_2, # of connection points: 3
#     Edge 9, Type (0, 1), BuildingBlock: XUDNAN_clean_linker_2, # of connection points: 2
#     Edge 10, Type (0, 1), BuildingBlock: XUDNAN_clean_linker_2, # of connection points: 2
#     Edge 11, Type (0, 1), BuildingBlock: XUDNAN_clean_linker_2, # of connection points: 2
#     Edge 12, Type (0, 1), BuildingBlock: XUDNAN_clean_linker_2, # of connection points: 2
#     Edge 13, Type (0, 1), BuildingBlock: XUDNAN_clean_linker_2, # of connection points: 2
#     Edge 14, Type (0, 1), BuildingBlock: XUDNAN_clean_linker_2, # of connection points: 2
#     Edge 15, Type (0, 1), BuildingBlock: XUDNAN_clean_linker_2, # of connection points: 2
#     Edge 16, Type (0, 1), BuildingBlock: XUDNAN_clean_linker_2, # of connection points: 2
#     Edge 17, Type (0, 1), BuildingBlock: XUDNAN_clean_linker_2, # of connection points: 2
#     Edge 18, Type (0, 1), BuildingBlock: XUDNAN_clean_linker_2, # of connection points: 2
#     Edge 19, Type (0, 1), BuildingBlock: XUDNAN_clean_linker_2, # of connection points: 2
#     Edge 20, Type (0, 1), BuildingBlock: XUDNAN_clean_linker_2, # of connection points: 2
#     Edge 21, Type (0, 1), BuildingBlock: XUDNAN_clean_linker_2, # of connection points: 2
#     Edge 22, Type (0, 1), BuildingBlock: XUDNAN_clean_linker_2, # of connection points: 2
#     Edge 23, Type (0, 1), BuildingBlock: XUDNAN_clean_linker_2, # of connection points: 2
#     Edge 24, Type (0, 1), BuildingBlock: XUDNAN_clean_linker_2, # of connection points: 2
#     Edge 25, Type (0, 1), BuildingBlock: XUDNAN_clean_linker_2, # of connection points: 2
#     Edge 26, Type (0, 1), BuildingBlock: XUDNAN_clean_linker_2, # of connection points: 2
# Relax obj value: 0.142
# Max RMSD: 0.167
# Mean RMSD: 0.114
data_MOF--net-anh--node1-BETFEN_clean_sbu_0--node2-OLANEW_clean_sbu_2--edge1-XUDNAN_clean_linker_2
_symmetry_space_group_name_H-M    P1
_symmetry_Int_Tables_number       1
_symmetry_cell_setting            triclinic
loop_
_symmetry_equiv_pos_as_xyz
'x, y, z'
_cell_length_a     33.3581
_cell_length_b     37.588145
_cell_length_c     50.56984
_cell_angle_alpha  89.690139
_cell_angle_beta   92.371292
_cell_angle_gamma 108.34934
loop_
_atom_site_label
_atom_site_type_symbol
_atom_site_fract_x
_atom_site_fract_y
_atom_site_fract_z
_atom_type_partial_charge
Pr0 Pr 0.0127 0.50167 0.16819 0.0
Pr1 Pr 0.0588 0.57721 0.14392 0.0
C2 C 0.9785 0.44044 0.19736 0.0
C3 C 0.93809 0.40993 0.19848 0.0
C4 C 0.9169 0.39169 0.17534 0.0
C5 C 0.87882 0.36251 0.17683 0.0
C6 C 0.86103 0.35132 0.20143 0.0
C7 C 0.88203 0.36998 0.22451 0.0
C8 C 0.92031 0.39896 0.22304 0.0
C9 C 0.99944 0.50281 0.11337 0.0
C10 C 0.95752 0.55559 0.14874 0.0
C11 C 0.10668 0.63681 0.11733 0.0
C12 C 0.14395 0.66931 0.12419 0.0
C13 C 0.14678 0.68905 0.14806 0.0
C14 C 0.18265 0.71931 0.15464 0.0
C15 C 0.2167 0.73025 0.13764 0.0
C16 C 0.21383 0.71016 0.11384 0.0
C17 C 0.17775 0.68004 0.10718 0.0
C18 C 0.04671 0.58079 0.19814 0.0
C19 C 0.11679 0.52369 0.16264 0.0
O20 O 0.97811 0.47389 0.20421 0.0
O21 O 1.00149 0.44053 0.17695 0.0
O22 O 0.03428 0.51808 0.12564 0.0
O23 O 0.97071 0.48436 0.12922 0.0
O24 O 0.98827 0.57038 0.13249 0.0
O25 O 0.96218 0.53331 0.16812 0.0
O26 O 0.1129 0.60422 0.11717 0.0
O27 O 0.07125 0.63578 0.12789 0.0
O28 O 0.05736 0.55565 0.18683 0.0
O29 O 0.04515 0.60694 0.18174 0.0
O30 O 0.08159 0.4978 0.16918 0.0
O31 O 0.11686 0.55675 0.15378 0.0
H32 H 0.92972 0.39995 0.1561 0.0
H33 H 0.86304 0.34897 0.15869 0.0
H34 H 0.86919 0.36177 0.24376 0.0
H35 H 0.93613 0.41275 0.2411 0.0
H36 H 0.12129 0.68112 0.16169 0.0
H37 H 0.18338 0.73442 0.17291 0.0
H38 H 0.23966 0.71741 0.10047 0.0
H39 H 0.17635 0.6649 0.0888 0.0
Pr40 Pr 0.56872 0.00967 0.52031 0.0
Pr41 Pr 0.47763 0.98522 0.5356 0.0
C42 C 0.64239 0.04504 0.4978 0.0
C43 C 0.67065 0.08402 0.49649 0.0
C44 C 0.67501 0.10911 0.51769 0.0
C45 C 0.70094 0.14635 0.51584 0.0
C46 C 0.72279 0.15936 0.49267 0.0
C47 C 0.71808 0.13403 0.47145 0.0
C48 C 0.69233 0.09676 0.47339 0.0
C49 C 0.55835 0.9976 0.57415 0.0
C50 C 0.5234 0.07578 0.53498 0.0
C51 C 0.40077 0.94891 0.55406 0.0
C52 C 0.37155 0.91055 0.55028 0.0
C53 C 0.384 0.88399 0.53622 0.0
C54 C 0.35601 0.8479 0.53176 0.0
C55 C 0.31481 0.83767 0.54111 0.0
C56 C 0.30243 0.86442 0.5552 0.0
C57 C 0.33064 0.90056 0.55979 0.0
C58 C 0.48891 0.99638 0.48156 0.0
C59 C 0.52628 0.91979 0.52555 0.0
O60 O 0.60564 0.03793 0.48519 0.0
O61 O 0.64016 0.02859 0.52081 0.0
O62 O 0.53834 0.01436 0.55973 0.0
O63 O 0.5864 0.98821 0.56122 0.0
O64 O 0.49146 0.04951 0.54513 0.0
O65 O 0.55316 0.06677 0.52267 0.0
O66 O 0.43614 0.95206 0.56745 0.0
O67 O 0.40628 0.97 0.53305 0.0
O68 O 0.50798 0.97923 0.49629 0.0
O69 O 0.46252 0.00788 0.4945 0.0
O70 O 0.55623 0.94565 0.51356 0.0
O71 O 0.49597 0.92874 0.53733 0.0
H72 H 0.65826 0.09998 0.53565 0.0
H73 H 0.70407 0.16482 0.53269 0.0
H74 H 0.73368 0.14311 0.45311 0.0
H75 H 0.68898 0.07794 0.45669 0.0
H76 H 0.41521 0.8913 0.52835 0.0
H77 H 0.36636 0.82827 0.52043 0.0
H78 H 0.27103 0.85735 0.56281 0.0
H79 H 0.32043 0.92077 0.57059 0.0
Pr80 Pr 0.4804 0.49655 0.80253 0.0
Pr81 Pr 0.50914 0.57974 0.81374 0.0
C82 C 0.46684 0.42716 0.7832 0.0
C83 C 0.4873 0.39792 0.78631 0.0
C84 C 0.4938 0.37898 0.7639 0.0
C85 C 0.51307 0.35103 0.76655 0.0
C86 C 0.52581 0.34145 0.7917 0.0
C87 C 0.51978 0.3608 0.81409 0.0
C88 C 0.50095 0.389 0.81141 0.0
C89 C 0.49754 0.5146 0.85613 0.0
C90 C 0.58408 0.54428 0.80328 0.0
C91 C 0.52242 0.64857 0.83426 0.0
C92 C 0.49802 0.67403 0.84034 0.0
C93 C 0.49227 0.69963 0.8214 0.0
C94 C 0.47123 0.72503 0.82764 0.0
C95 C 0.45564 0.72555 0.853 0.0
C96 C 0.46075 0.69955 0.87183 0.0
C97 C 0.48178 0.67408 0.86558 0.0
C98 C 0.49304 0.56026 0.76015 0.0
C99 C 0.40616 0.53208 0.81372 0.0
O100 O 0.48795 0.45733 0.77063 0.0
O101 O 0.44799 0.43418 0.80381 0.0
O102 O 0.51973 0.53112 0.83751 0.0
O103 O 0.46593 0.48649 0.84753 0.0
O104 O 0.57562 0.57204 0.81517 0.0
O105 O 0.55338 0.51478 0.79396 0.0
O106 O 0.51588 0.61847 0.84872 0.0
O107 O 0.52756 0.64269 0.80931 0.0
O108 O 0.47037 0.54492 0.77888 0.0
O109 O 0.52523 0.58816 0.76854 0.0
O110 O 0.41471 0.50588 0.79997 0.0
O111 O 0.43692 0.56068 0.824 0.0
H112 H 0.4837 0.38565 0.74438 0.0
H113 H 0.51702 0.33625 0.74901 0.0
H114 H 0.52967 0.35412 0.83366 0.0
H115 H 0.49687 0.40364 0.82899 0.0
H116 H 0.50477 0.70063 0.80188 0.0
H117 H 0.46862 0.74523 0.81285 0.0
H118 H 0.44897 0.69923 0.8915 0.0
H119 H 0.48591 0.65486 0.8807 0.0
O120 O 0.50221 0.10601 0.29506 0.0
Cd121 Cd 0.4998 0.13726 0.25284 0.0
O122 O 0.48834 0.05281 0.27367 0.0
Cd123 Cd 0.46936 0.9921 0.26766 0.0
O124 O 0.43548 0.94116 0.24524 0.0
C125 C 0.43616 0.94379 0.22018 0.0
O126 O 0.4583 0.97567 0.20976 0.0
C127 C 0.49566 0.07084 0.29547 0.0
C128 C 0.58047 0.17598 0.23638 0.0
O129 O 0.56067 0.19176 0.25122 0.0
O130 O 0.56204 0.14184 0.2293 0.0
O131 O 0.49346 0.4501 0.57102 0.0
Cd132 Cd 0.50295 0.40918 0.53395 0.0
O133 O 0.50639 0.50904 0.5573 0.0
Cd134 Cd 0.50942 0.57008 0.55919 0.0
O135 O 0.52044 0.63168 0.55089 0.0
C136 C 0.4974 0.6516 0.55728 0.0
O137 O 0.46332 0.6359 0.57052 0.0
C138 C 0.49583 0.48434 0.57544 0.0
C139 C 0.51583 0.33792 0.54264 0.0
O140 O 0.5465 0.3688 0.54278 0.0
O141 O 0.47837 0.34027 0.53971 0.0
O142 O 0.03767 0.55562 0.91283 0.0
Cd143 Cd 0.05768 0.57512 0.86762 0.0
O144 O 0.96838 0.53548 0.905 0.0
Cd145 Cd 0.95847 0.5479 0.86338 0.0
O146 O 0.90356 0.5459 0.83715 0.0
C147 C 0.87996 0.56441 0.84464 0.0
O148 O 0.89152 0.58536 0.86607 0.0
C149 C 1.00044 0.54074 0.92083 0.0
C150 C 0.12899 0.55655 0.8531 0.0
O151 O 0.13302 0.58796 0.86446 0.0
O152 O 0.09145 0.53407 0.84871 0.0
O153 O 0.01886 0.56784 0.40807 0.0
Cd154 Cd 0.01631 0.55905 0.45603 0.0
O155 O 0.99423 0.50914 0.39383 0.0
Cd156 Cd 0.97309 0.48143 0.43134 0.0
O157 O 0.92979 0.43614 0.45373 0.0
C158 C 0.92763 0.40249 0.4485 0.0
O159 O 0.9529 0.39643 0.43104 0.0
C160 C 0.00993 0.544 0.38921 0.0
C161 C 0.08645 0.61226 0.48077 0.0
O162 O 0.08747 0.57951 0.47465 0.0
O163 O 0.05205 0.61976 0.4756 0.0
O164 O 0.46657 0.01318 0.76386 0.0
Cd165 Cd 0.43545 0.0259 0.80472 0.0
O166 O 0.51301 0.98808 0.78125 0.0
Cd167 Cd 0.51318 0.01659 0.8183 0.0
O168 O 0.53029 0.07612 0.8266 0.0
C169 C 0.55998 0.0958 0.81267 0.0
O170 O 0.57865 0.07861 0.79707 0.0
C171 C 0.49336 0.99581 0.76107 0.0
C172 C 0.4123 0.96074 0.83482 0.0
O173 O 0.39015 0.96408 0.81423 0.0
O174 O 0.44404 0.98885 0.84199 0.0
O175 O 0.56393 0.54041 0.06516 0.0
Cd176 Cd 0.57757 0.54495 0.11321 0.0
O177 O 0.49423 0.52427 0.05944 0.0
Cd178 Cd 0.47271 0.52509 0.09974 0.0
O179 O 0.41815 0.52652 0.12219 0.0
C180 C 0.39488 0.49744 0.13347 0.0
O181 O 0.40558 0.46666 0.13323 0.0
C182 C 0.53077 0.53186 0.05003 0.0
C183 C 0.66451 0.55859 0.12375 0.0
O184 O 0.63858 0.5252 0.12438 0.0
O185 O 0.64931 0.58538 0.11877 0.0
H186 H 0.19407 0.56696 0.14581 0.0
H187 H 0.13115 0.46054 0.18279 0.0
H188 H 0.19746 0.44448 0.18265 0.0
H189 H 0.25253 0.5326 0.10242 0.0
H190 H 0.29903 0.57326 0.10469 0.0
H191 H 0.24793 0.57792 0.11005 0.0
H192 H 0.2748 0.60814 0.156 0.0
H193 H 0.32612 0.60364 0.1508 0.0
H194 H 0.298 0.58365 0.17977 0.0
H195 H 0.26914 0.43799 0.17538 0.0
H196 H 0.34022 0.44135 0.16128 0.0
H197 H 0.35625 0.55209 0.12915 0.0
C198 C 0.1943 0.54052 0.15431 0.0
C199 C 0.1573 0.51508 0.16442 0.0
C200 C 0.15901 0.48057 0.17499 0.0
C201 C 0.1966 0.47122 0.17506 0.0
C202 C 0.23227 0.49671 0.16458 0.0
C203 C 0.23147 0.53072 0.15448 0.0
C204 C 0.27339 0.55224 0.143 0.0
C205 C 0.26787 0.55941 0.11328 0.0
C206 C 0.29431 0.5891 0.15831 0.0
C207 C 0.29767 0.52469 0.14771 0.0
C208 C 0.27353 0.49297 0.16038 0.0
C209 C 0.28848 0.46287 0.16571 0.0
C210 C 0.32892 0.46503 0.15758 0.0
C211 C 0.35398 0.49703 0.1442 0.0
C212 C 0.33818 0.52741 0.1396 0.0
H213 H 0.79866 0.18668 0.4682 0.0
H214 H 0.70854 0.22258 0.51185 0.0
H215 H 0.75319 0.28843 0.50768 0.0
H216 H 0.89348 0.25642 0.49403 0.0
H217 H 0.91894 0.26254 0.46282 0.0
H218 H 0.88116 0.21808 0.47063 0.0
H219 H 0.83741 0.22066 0.42751 0.0
H220 H 0.87512 0.26501 0.41951 0.0
H221 H 0.81999 0.26086 0.42137 0.0
H222 H 0.80697 0.35095 0.49744 0.0
H223 H 0.86398 0.4047 0.48065 0.0
H224 H 0.91713 0.32762 0.44246 0.0
C225 C 0.78808 0.2083 0.47682 0.0
C226 C 0.75003 0.19919 0.49049 0.0
C227 C 0.73787 0.22858 0.50171 0.0
C228 C 0.76293 0.26617 0.49933 0.0
C229 C 0.80009 0.27405 0.48562 0.0
C230 C 0.81253 0.24592 0.47449 0.0
C231 C 0.85303 0.26185 0.45993 0.0
C232 C 0.88876 0.24896 0.47262 0.0
C233 C 0.84594 0.25148 0.43033 0.0
C234 C 0.86122 0.30339 0.46434 0.0
C235 C 0.83056 0.3099 0.47939 0.0
C236 C 0.83121 0.34616 0.4857 0.0
C237 C 0.86377 0.37652 0.4761 0.0
C238 C 0.89509 0.37046 0.46023 0.0
C239 C 0.89379 0.3333 0.45456 0.0
H240 H 0.4008 0.75191 0.82323 0.0
H241 H 0.4716 0.76765 0.89845 0.0
H242 H 0.45283 0.82485 0.90669 0.0
H243 H 0.43693 0.8406 0.80388 0.0
H244 H 0.38894 0.84349 0.78763 0.0
H245 H 0.39757 0.79892 0.79093 0.0
H246 H 0.32698 0.77252 0.81467 0.0
H247 H 0.31804 0.81725 0.81136 0.0
H248 H 0.31774 0.79631 0.84353 0.0
H249 H 0.44216 0.88678 0.90183 0.0
H250 H 0.43885 0.94741 0.88465 0.0
H251 H 0.37351 0.89193 0.81304 0.0
C252 C 0.41117 0.76679 0.84181 0.0
C253 C 0.4375 0.7553 0.86022 0.0
C254 C 0.45077 0.77555 0.88425 0.0
C255 C 0.44026 0.80813 0.8891 0.0
C256 C 0.41594 0.81976 0.86993 0.0
C257 C 0.40097 0.79936 0.8469 0.0
C258 C 0.3808 0.82048 0.82779 0.0
C259 C 0.40238 0.82622 0.80101 0.0
C260 C 0.33304 0.80044 0.82413 0.0
C261 C 0.38962 0.85707 0.84278 0.0
C262 C 0.40902 0.85579 0.86733 0.0
C263 C 0.42575 0.88781 0.88308 0.0
C264 C 0.42387 0.92216 0.87314 0.0
C265 C 0.40538 0.92415 0.84772 0.0
C266 C 0.3866 0.89097 0.83289 0.0
H267 H 0.87791 0.51083 0.1607 0.0
H268 H 0.94589 0.61822 0.12703 0.0
H269 H 0.87859 0.63178 0.11909 0.0
H270 H 0.79038 0.49016 0.11379 0.0
H271 H 0.75144 0.46727 0.13726 0.0
H272 H 0.80516 0.46711 0.14218 0.0
H273 H 0.80903 0.49655 0.18878 0.0
H274 H 0.7553 0.49683 0.18402 0.0
H275 H 0.79688 0.53971 0.1923 0.0
H276 H 0.80428 0.63381 0.11482 0.0
H277 H 0.72723 0.62216 0.11104 0.0
H278 H 0.70642 0.51167 0.14477 0.0
C279 C 0.87859 0.53737 0.15197 0.0
C280 C 0.91711 0.5637 0.14471 0.0
C281 C 0.91672 0.59774 0.13277 0.0
C282 C 0.87869 0.60574 0.12828 0.0
C283 C 0.84122 0.57917 0.13552 0.0
C284 C 0.84074 0.5455 0.14685 0.0
C285 C 0.79583 0.52086 0.15123 0.0
C286 C 0.78508 0.48419 0.13515 0.0
C287 C 0.78886 0.51304 0.18084 0.0
C288 C 0.77118 0.54594 0.14055 0.0
C289 C 0.79807 0.57963 0.13193 0.0
C290 C 0.78289 0.6075 0.12145 0.0
C291 C 0.73904 0.60065 0.11944 0.0
C292 C 0.71075 0.56599 0.12753 0.0
C293 C 0.72721 0.53839 0.13832 0.0
H294 H 0.23064 0.81811 0.52536 0.0
H295 H 0.33135 0.77077 0.54411 0.0
H296 H 0.28318 0.70774 0.53229 0.0
H297 H 0.14459 0.73991 0.55036 0.0
H298 H 0.10754 0.74352 0.52432 0.0
H299 H 0.14944 0.78467 0.53545 0.0
H300 H 0.17431 0.79699 0.48743 0.0
H301 H 0.13263 0.75584 0.47616 0.0
H302 H 0.18678 0.76072 0.46955 0.0
H303 H 0.22512 0.6503 0.51641 0.0
H304 H 0.1611 0.60244 0.49804 0.0
H305 H 0.09756 0.68681 0.49036 0.0
C306 C 0.24235 0.7944 0.52744 0.0
C307 C 0.28487 0.79944 0.53563 0.0
C308 C 0.29912 0.76771 0.53758 0.0
C309 C 0.2719 0.73175 0.53107 0.0
C310 C 0.23039 0.72786 0.52273 0.0
C311 C 0.21559 0.75827 0.52101 0.0
C312 C 0.16996 0.74658 0.51066 0.0
C313 C 0.14119 0.75411 0.53144 0.0
C314 C 0.16569 0.76619 0.48439 0.0
C315 C 0.16158 0.70491 0.50655 0.0
C316 C 0.19682 0.69468 0.51372 0.0
C317 C 0.19722 0.65793 0.51092 0.0
C318 C 0.16069 0.63094 0.50043 0.0
C319 C 0.12421 0.64077 0.49284 0.0
C320 C 0.12477 0.67828 0.49616 0.0
H321 H 0.50176 0.28316 0.82596 0.0
H322 H 0.58819 0.32849 0.76349 0.0
H323 H 0.61337 0.27323 0.76634 0.0
H324 H 0.56966 0.23773 0.86431 0.0
H325 H 0.52505 0.19791 0.87207 0.0
H326 H 0.51843 0.2434 0.86772 0.0
H327 H 0.4591 0.21579 0.8318 0.0
H328 H 0.46553 0.17036 0.83602 0.0
H329 H 0.46995 0.19144 0.80372 0.0
H330 H 0.62412 0.21084 0.77317 0.0
H331 H 0.61683 0.14444 0.78139 0.0
H332 H 0.52223 0.13948 0.83897 0.0
C333 C 0.52684 0.2819 0.81342 0.0
C334 C 0.54344 0.31011 0.7947 0.0
C335 C 0.5752 0.30706 0.77797 0.0
C336 C 0.58987 0.27599 0.77961 0.0
C337 C 0.5724 0.24834 0.79806 0.0
C338 C 0.54153 0.25099 0.81465 0.0
C339 C 0.52482 0.21582 0.83082 0.0
C340 C 0.53512 0.22423 0.86049 0.0
C341 C 0.47704 0.19727 0.82524 0.0
C342 C 0.5501 0.19244 0.82012 0.0
C343 C 0.57795 0.21197 0.80163 0.0
C344 C 0.60284 0.19542 0.78786 0.0
C345 C 0.59843 0.15766 0.79266 0.0
C346 C 0.56897 0.13678 0.81084 0.0
C347 C 0.5453 0.15477 0.82515 0.0
H348 H 0.47133 0.85781 0.54965 0.0
H349 H 0.58456 0.89179 0.50412 0.0
H350 H 0.58911 0.82765 0.507 0.0
H351 H 0.50463 0.79645 0.59388 0.0
H352 H 0.453 0.762 0.59504 0.0
H353 H 0.45788 0.81041 0.58894 0.0
H354 H 0.41227 0.79162 0.54562 0.0
H355 H 0.40689 0.74308 0.55161 0.0
H356 H 0.42734 0.76443 0.5209 0.0
H357 H 0.58257 0.75954 0.51568 0.0
H358 H 0.56449 0.69305 0.52865 0.0
H359 H 0.45531 0.70238 0.5684 0.0
C360 C 0.49699 0.85179 0.54014 0.0
C361 C 0.52758 0.88025 0.52659 0.0
C362 C 0.56063 0.87082 0.51457 0.0
C363 C 0.56355 0.83431 0.51612 0.0
C364 C 0.53315 0.8071 0.52975 0.0
C365 C 0.50039 0.81533 0.54148 0.0
C366 C 0.47204 0.78089 0.55509 0.0
C367 C 0.4719 0.78787 0.58501 0.0
C368 C 0.42696 0.76931 0.54255 0.0
C369 C 0.49406 0.7521 0.54927 0.0
C370 C 0.52928 0.76784 0.53463 0.0
C371 C 0.55497 0.74695 0.52709 0.0
C372 C 0.54444 0.70908 0.5346 0.0
C373 C 0.50844 0.69208 0.54958 0.0
C374 C 0.48304 0.71422 0.55694 0.0
H375 H 0.6526 0.59055 0.83108 0.0
H376 H 0.61618 0.4982 0.77465 0.0
H377 H 0.68982 0.49654 0.77618 0.0
H378 H 0.75891 0.63676 0.80791 0.0
H379 H 0.78105 0.64896 0.841 0.0
H380 H 0.72659 0.64509 0.83337 0.0
H381 H 0.70316 0.59678 0.87099 0.0
H382 H 0.75746 0.60047 0.87872 0.0
H383 H 0.71937 0.55533 0.87117 0.0
H384 H 0.76722 0.50298 0.786 0.0
H385 H 0.84011 0.51505 0.80458 0.0
H386 H 0.82431 0.6021 0.85525 0.0
C387 C 0.66016 0.57041 0.81862 0.0
C388 C 0.62864 0.54473 0.80253 0.0
C389 C 0.63982 0.51829 0.78702 0.0
C390 C 0.6816 0.5172 0.78771 0.0
C391 C 0.71179 0.54267 0.80407 0.0
C392 C 0.70148 0.56873 0.81926 0.0
C393 C 0.73882 0.59126 0.8366 0.0
C394 C 0.75212 0.63299 0.82927 0.0
C395 C 0.72911 0.5856 0.86611 0.0
C396 C 0.77171 0.57352 0.82909 0.0
C397 C 0.75576 0.54583 0.81009 0.0
C398 C 0.78008 0.52479 0.80075 0.0
C399 C 0.82149 0.53188 0.8114 0.0
C400 C 0.83803 0.55955 0.83136 0.0
C401 C 0.81279 0.58087 0.83994 0.0
H402 H 0.25561 0.75069 0.18684 0.0
H403 H 0.26332 0.7841 0.10436 0.0
H404 H 0.32425 0.83956 0.11619 0.0
H405 H 0.27586 0.84165 0.21325 0.0
H406 H 0.30626 0.83428 0.24186 0.0
H407 H 0.26608 0.79523 0.22655 0.0
H408 H 0.32134 0.76071 0.2209 0.0
H409 H 0.36177 0.79974 0.23617 0.0
H410 H 0.36888 0.7835 0.20376 0.0
H411 H 0.38128 0.89341 0.13725 0.0
H412 H 0.42923 0.94256 0.16611 0.0
H413 H 0.38283 0.87525 0.23512 0.0
C414 C 0.27006 0.76959 0.1712 0.0
C415 C 0.25464 0.76281 0.1446 0.0
C416 C 0.27492 0.78818 0.12479 0.0
C417 C 0.30947 0.81991 0.13133 0.0
C418 C 0.32344 0.82591 0.15776 0.0
C419 C 0.30439 0.80148 0.17739 0.0
C420 C 0.32405 0.81542 0.20446 0.0
C421 C 0.2911 0.82205 0.22259 0.0
C422 C 0.34527 0.78822 0.21706 0.0
C423 C 0.35653 0.85197 0.19705 0.0
C424 C 0.35599 0.85725 0.16998 0.0
C425 C 0.3822 0.88947 0.15846 0.0
C426 C 0.40932 0.91725 0.17505 0.0
C427 C 0.40985 0.9128 0.2029 0.0
C428 C 0.38339 0.87944 0.21392 0.0
H429 H 0.46209 0.11178 0.54018 0.0
H430 H 0.59743 0.13279 0.53702 0.0
H431 H 0.60942 0.20053 0.54082 0.0
H432 H 0.46019 0.19094 0.50021 0.0
H433 H 0.42015 0.20191 0.51837 0.0
H434 H 0.42156 0.15443 0.51723 0.0
H435 H 0.42543 0.1528 0.56842 0.0
H436 H 0.42405 0.20032 0.56971 0.0
H437 H 0.46666 0.18819 0.58645 0.0
H438 H 0.60785 0.26614 0.54439 0.0
H439 H 0.5925 0.32602 0.54481 0.0
H440 H 0.458 0.26556 0.54367 0.0
C441 C 0.49421 0.13067 0.54063 0.0
C442 C 0.52884 0.11663 0.53845 0.0
C443 C 0.57032 0.14253 0.53861 0.0
C444 C 0.57754 0.18124 0.54087 0.0
C445 C 0.54298 0.19422 0.54273 0.0
C446 C 0.50207 0.16989 0.54245 0.0
C447 C 0.47072 0.19192 0.54332 0.0
C448 C 0.44142 0.18434 0.51829 0.0
C449 C 0.4452 0.18275 0.56847 0.0
C450 C 0.50047 0.23221 0.54405 0.0
C451 C 0.54201 0.23264 0.54397 0.0
C452 C 0.57541 0.26615 0.54447 0.0
C453 C 0.56631 0.30017 0.54475 0.0
C454 C 0.52404 0.30091 0.54431 0.0
C455 C 0.49069 0.26619 0.54412 0.0
H456 H 0.37506 0.58268 0.8384 0.0
H457 H 0.3357 0.47548 0.79699 0.0
H458 H 0.26115 0.47034 0.80276 0.0
H459 H 0.29405 0.5584 0.88638 0.0
H460 H 0.28684 0.60395 0.88629 0.0
H461 H 0.33743 0.59948 0.87896 0.0
H462 H 0.33596 0.63337 0.83442 0.0
H463 H 0.28537 0.63799 0.84155 0.0
H464 H 0.29157 0.61551 0.81129 0.0
H465 H 0.19096 0.47623 0.81308 0.0
H466 H 0.1293 0.49331 0.82681 0.0
H467 H 0.21335 0.59695 0.86127 0.0
C468 C 0.35078 0.55811 0.83054 0.0
C469 C 0.36138 0.52947 0.81723 0.0
C470 C 0.32854 0.49784 0.80723 0.0
C471 C 0.28601 0.49461 0.81042 0.0
C472 C 0.27667 0.52325 0.82362 0.0
C473 C 0.30803 0.55445 0.8335 0.0
C474 C 0.28921 0.58126 0.8468 0.0
C475 C 0.30268 0.58604 0.87636 0.0
C476 C 0.30124 0.61928 0.83266 0.0
C477 C 0.24239 0.5602 0.84283 0.0
C478 C 0.23596 0.52679 0.82946 0.0
C479 C 0.19555 0.50235 0.82354 0.0
C480 C 0.16071 0.51231 0.83145 0.0
C481 C 0.16637 0.54648 0.8451 0.0
C482 C 0.20789 0.57066 0.85083 0.0
H483 H 0.79265 0.34904 0.23042 0.0
H484 H 0.83861 0.28339 0.17597 0.0
H485 H 0.77162 0.23129 0.17875 0.0
H486 H 0.73874 0.27319 0.27235 0.0
H487 H 0.69523 0.29082 0.27742 0.0
H488 H 0.74668 0.32287 0.27097 0.0
H489 H 0.71451 0.34986 0.23114 0.0
H490 H 0.66296 0.31788 0.23746 0.0
H491 H 0.68461 0.31863 0.20532 0.0
H492 H 0.70009 0.18602 0.18816 0.0
H493 H 0.62853 0.15144 0.20263 0.0
H494 H 0.62938 0.24719 0.25057 0.0
C495 C 0.7887 0.3236 0.21921 0.0
C496 C 0.82078 0.32017 0.20301 0.0
C497 C 0.81423 0.28668 0.18833 0.0
C498 C 0.77641 0.25692 0.18987 0.0
C499 C 0.74544 0.26121 0.20607 0.0
C500 C 0.7511 0.29376 0.22039 0.0
C501 C 0.71271 0.29142 0.2361 0.0
C502 C 0.72403 0.29476 0.26598 0.0
C503 C 0.69251 0.32121 0.22695 0.0
C504 C 0.68469 0.25234 0.22855 0.0
C505 C 0.70413 0.23535 0.21123 0.0
C506 C 0.6845 0.19907 0.20167 0.0
C507 C 0.64388 0.17965 0.21001 0.0
C508 C 0.62332 0.19661 0.22769 0.0
C509 C 0.64416 0.23346 0.237 0.0
H510 H 0.05683 0.53773 0.07641 0.0
H511 H 0.92614 0.47001 0.08515 0.0
H512 H 0.91313 0.47127 0.03684 0.0
H513 H 0.03664 0.5965 0.02474 0.0
H514 H 0.08339 0.59899 0.00721 0.0
H515 H 0.08286 0.5922 0.0425 0.0
H516 H 0.10382 0.53204 0.03664 0.0
H517 H 0.10433 0.53858 0.00132 0.0
H518 H 0.07189 0.49514 0.01495 0.0
H519 H 0.91355 0.48064 0.98826 0.0
H520 H 0.927 0.49764 0.94169 0.0
H521 H 0.05785 0.55904 0.96355 0.0
C522 C 0.02557 0.52306 0.06807 0.0
C523 C 0.99248 0.5036 0.08442 0.0
C524 C 0.95193 0.48493 0.07293 0.0
C525 C 0.94425 0.48548 0.04553 0.0
C526 C 0.97747 0.50481 0.02992 0.0
C527 C 0.01734 0.52326 0.04068 0.0
C528 C 0.04721 0.54233 0.01933 0.0
C529 C 0.06347 0.58504 0.02371 0.0
C530 C 0.08399 0.52604 0.01799 0.0
C531 C 0.01779 0.53178 0.99495 0.0
C532 C 0.97775 0.51012 0.00161 0.0
C533 C 0.94479 0.49748 0.98274 0.0
C534 C 0.95279 0.50737 0.95631 0.0
C535 C 0.99352 0.52966 0.94887 0.0
C536 C 0.02648 0.54176 0.96853 0.0
H537 H 0.46587 0.04618 0.45035 0.0
H538 H 0.52333 0.95765 0.44818 0.0
H539 H 0.529 0.96502 0.39955 0.0
H540 H 0.40561 0.02488 0.38893 0.0
H541 H 0.4152 0.07334 0.38023 0.0
H542 H 0.41464 0.06007 0.41452 0.0
H543 H 0.48978 0.10727 0.42267 0.0
H544 H 0.49048 0.12086 0.38846 0.0
H545 H 0.53202 0.10454 0.40248 0.0
H546 H 0.52616 0.98153 0.35061 0.0
H547 H 0.52201 0.00996 0.30664 0.0
H548 H 0.47008 0.08967 0.3422 0.0
C549 C 0.4795 0.02825 0.43961 0.0
C550 C 0.49377 1.00109 0.45281 0.0
C551 C 0.51209 0.97854 0.43828 0.0
C552 C 0.51528 0.98246 0.41071 0.0
C553 C 0.50053 0.00939 0.39819 0.0
C554 C 0.48356 0.03223 0.41229 0.0
C555 C 0.47173 0.06016 0.39454 0.0
C556 C 0.42396 0.05424 0.39456 0.0
C557 C 0.49755 0.10059 0.40251 0.0
C558 C 0.48445 0.04942 0.36815 0.0
C559 C 0.50051 0.01979 0.37051 0.0
C560 C 0.51371 1.00478 0.34857 0.0
C561 C 0.51091 0.02085 0.32366 0.0
C562 C 0.49554 0.05182 0.32108 0.0
C563 C 0.48209 0.06607 0.34364 0.0
H564 H 0.53704 0.58968 0.71576 0.0
H565 H 0.42942 0.49954 0.7422 0.0
H566 H 0.41545 0.47378 0.69689 0.0
H567 H 0.48943 0.60075 0.65003 0.0
H568 H 0.53853 0.60979 0.63359 0.0
H569 H 0.53889 0.62307 0.66783 0.0
H570 H 0.5886 0.58429 0.68051 0.0
H571 H 0.58851 0.571 0.64636 0.0
H572 H 0.57314 0.53541 0.67131 0.0
H573 H 0.41655 0.45431 0.65045 0.0
H574 H 0.43172 0.44292 0.60451 0.0
H575 H 0.53646 0.54661 0.60626 0.0
C576 C 0.51025 0.56482 0.71186 0.0
C577 C 0.48422 0.54665 0.73247 0.0
C578 C 0.44967 0.51401 0.72671 0.0
C579 C 0.44141 0.49917 0.70101 0.0
C580 C 0.46772 0.51749 0.68116 0.0
C581 C 0.50128 0.54972 0.68612 0.0
C582 C 0.52548 0.56285 0.6612 0.0
C583 C 0.52292 0.60141 0.65266 0.0
C584 C 0.57166 0.5634 0.66508 0.0
C585 C 0.50086 0.5324 0.64173 0.0
C586 C 0.4676 0.50665 0.65377 0.0
C587 C 0.44201 0.47457 0.64063 0.0
C588 C 0.45091 0.4683 0.61459 0.0
C589 C 0.48479 0.49414 0.6018 0.0
C590 C 0.50969 0.52693 0.6154 0.0
H591 H 0.50371 0.01849 0.60469 0.0
H592 H 0.59791 0.96088 0.60752 0.0
H593 H 0.58762 0.94987 0.65537 0.0
H594 H 0.53362 0.06569 0.6661 0.0
H595 H 0.48045 0.06139 0.67479 0.0
H596 H 0.49328 0.06238 0.64053 0.0
H597 H 0.43398 0.99909 0.63239 0.0
H598 H 0.42101 0.99786 0.6667 0.0
H599 H 0.43379 0.95917 0.65236 0.0
H600 H 0.56984 0.94819 0.70319 0.0
H601 H 0.54715 0.95722 0.74782 0.0
H602 H 0.46429 0.01573 0.71356 0.0
C603 C 0.52193 1.00333 0.61537 0.0
C604 C 0.55164 0.99055 0.60254 0.0
C605 C 0.57503 0.97094 0.61709 0.0
C606 C 0.56929 0.96444 0.6442 0.0
C607 C 0.53991 0.9776 0.65635 0.0
C608 C 0.5166 0.99662 0.64241 0.0
C609 C 0.48841 0.00924 0.66036 0.0
C610 C 0.49963 0.05222 0.66045 0.0
C611 C 0.44152 0.99019 0.65248 0.0
C612 C 0.50016 0.99504 0.68668 0.0
C613 C 0.52961 0.97657 0.68391 0.0
C614 C 0.54651 0.96233 0.7056 0.0
C615 C 0.53343 0.96761 0.73087 0.0
C616 C 0.50386 0.9871 0.73422 0.0
C617 C 0.48664 1.00042 0.7117 0.0
H618 H 0.44972 0.48884 0.89902 0.0
H619 H 0.57472 0.55665 0.87671 0.0
H620 H 0.5975 0.56709 0.92397 0.0
H621 H 0.44446 0.54628 0.9549 0.0
H622 H 0.41607 0.50706 0.97463 0.0
H623 H 0.41011 0.50422 0.93907 0.0
H624 H 0.43226 0.44401 0.93966 0.0
H625 H 0.43847 0.44676 0.97522 0.0
H626 H 0.48186 0.44499 0.95574 0.0
H627 H 0.60716 0.56842 0.97364 0.0
H628 H 0.60142 0.56523 0.02219 0.0
H629 H 0.469 0.49924 0.01207 0.0
C630 C 0.48189 0.50583 0.90414 0.0
C631 C 0.5106 0.52173 0.88433 0.0
C632 C 0.55228 0.54418 0.89166 0.0
C633 C 0.56552 0.55016 0.91842 0.0
C634 C 0.53653 0.53387 0.93753 0.0
C635 C 0.49543 0.51254 0.93074 0.0
C636 C 0.47015 0.49925 0.95512 0.0
C637 C 0.43301 0.51516 0.95597 0.0
C638 C 0.45479 0.4562 0.95651 0.0
C639 C 0.5035 0.51627 0.97667 0.0
C640 C 0.54167 0.53581 0.96611 0.0
C641 C 0.57737 0.55337 0.98214 0.0
C642 C 0.57383 0.55128 0.00969 0.0
C643 C 0.53474 0.53213 0.02095 0.0
C644 C 0.49925 0.51431 0.0041 0.0
H645 H 0.03891 0.52483 0.23429 0.0
H646 H 0.04403 0.64117 0.22678 0.0
H647 H 0.03669 0.64482 0.27507 0.0
H648 H 0.95885 0.50138 0.28295 0.0
H649 H 0.98094 0.46964 0.30057 0.0
H650 H 0.98836 0.47672 0.26563 0.0
H651 H 0.06945 0.49522 0.27401 0.0
H652 H 0.0624 0.48828 0.309 0.0
H653 H 0.09553 0.53261 0.29703 0.0
H654 H 0.03064 0.63616 0.32422 0.0
H655 H 0.0209 0.61469 0.37043 0.0
H656 H 0.01497 0.50272 0.34549 0.0
C657 C 0.03845 0.55103 0.24284 0.0
C658 C 0.04218 0.58278 0.22692 0.0
C659 C 0.04127 0.61656 0.23871 0.0
C660 C 0.03719 0.6189 0.26609 0.0
C661 C 0.03348 0.58705 0.28127 0.0
C662 C 0.03359 0.55364 0.27005 0.0
C663 C 0.02751 0.52318 0.29064 0.0
C664 C 0.98647 0.49083 0.28459 0.0
C665 C 0.06602 0.509 0.29279 0.0
C666 C 0.02429 0.54478 0.31525 0.0
C667 C 0.02822 0.58165 0.30944 0.0
C668 C 0.02728 0.60729 0.329 0.0
C669 C 0.02187 0.59486 0.35521 0.0
C670 C 0.01698 0.557 0.36158 0.0
C671 C 0.01827 0.53175 0.34124 0.0
loop_
_geom_bond_atom_site_label_1
_geom_bond_atom_site_label_2
_geom_bond_distance
_geom_bond_site_symmetry_2
_ccdc_geom_bond_type
Pr0 C2 2.880 . S
Pr0 O20 2.562 . S
Pr0 O21 2.490 . S
Pr0 O22 2.695 1_655 S
Pr0 O23 2.512 . S
Pr0 O25 2.437 . S
Pr0 O28 2.436 . S
Pr0 O30 2.438 1_655 S
Pr1 C11 2.880 . S
Pr1 O22 2.436 . S
Pr1 O24 2.438 1_455 S
Pr1 O26 2.562 . S
Pr1 O27 2.490 . S
Pr1 O28 2.695 1_455 S
Pr1 O29 2.512 . S
Pr1 O31 2.437 . S
C2 Pr0 2.880 . S
C2 C3 1.491 . S
C2 O20 1.254 . S
C2 O21 1.225 . S
C3 C2 1.491 . S
C3 C4 1.392 . S
C3 C8 1.356 . S
C4 C3 1.392 . S
C4 C5 1.368 . S
C4 H32 0.929 . S
C5 C4 1.368 . S
C5 C6 1.386 . S
C5 H33 0.929 . S
C6 C5 1.386 . S
C6 C7 1.373 . S
C7 C6 1.373 . S
C7 C8 1.409 . S
C7 H34 0.931 . S
C8 C3 1.356 . S
C8 C7 1.409 . S
C8 H35 0.930 . S
C9 O22 1.270 . S
C9 O23 1.248 1_455 S
C10 O24 1.267 . S
C10 O25 1.278 . S
C11 Pr1 2.880 . S
C11 C12 1.491 . S
C11 O26 1.254 . S
C11 O27 1.225 . S
C12 C11 1.491 . S
C12 C13 1.392 . S
C12 C17 1.356 . S
C13 C12 1.392 . S
C13 C14 1.368 . S
C13 H36 0.929 . S
C14 C13 1.368 . S
C14 C15 1.386 . S
C14 H37 0.929 . S
C15 C14 1.386 . S
C15 C16 1.373 . S
C16 C15 1.373 . S
C16 C17 1.409 . S
C16 H38 0.931 . S
C17 C12 1.356 . S
C17 C16 1.409 . S
C17 H39 0.930 . S
C18 O28 1.270 1_455 S
C18 O29 1.248 . S
C19 O30 1.267 . S
C19 O31 1.278 . S
O20 Pr0 2.562 . S
O20 C2 1.254 . S
O21 Pr0 2.490 . S
O21 C2 1.225 . S
O22 Pr0 2.695 1_455 S
O22 Pr1 2.436 . S
O22 C9 1.270 . S
O23 Pr0 2.512 . S
O23 C9 1.248 1_655 S
O24 Pr1 2.438 1_655 S
O24 C10 1.267 . S
O25 Pr0 2.437 . S
O25 C10 1.278 . S
O26 Pr1 2.562 . S
O26 C11 1.254 . S
O27 Pr1 2.490 . S
O27 C11 1.225 . S
O28 Pr0 2.436 . S
O28 Pr1 2.695 1_655 S
O28 C18 1.270 1_655 S
O29 Pr1 2.512 . S
O29 C18 1.248 . S
O30 Pr0 2.438 1_455 S
O30 C19 1.267 . S
O31 Pr1 2.437 . S
O31 C19 1.278 . S
H32 C4 0.929 . S
H33 C5 0.929 . S
H34 C7 0.931 . S
H35 C8 0.930 . S
H36 C13 0.929 . S
H37 C14 0.929 . S
H38 C16 0.931 . S
H39 C17 0.930 . S
Pr40 C42 2.880 . S
Pr40 O60 2.562 . S
Pr40 O61 2.490 . S
Pr40 O62 2.695 . S
Pr40 O63 2.512 . S
Pr40 O65 2.437 . S
Pr40 O68 2.436 . S
Pr40 O70 2.438 1_545 S
Pr41 C51 2.880 . S
Pr41 O62 2.436 1_565 S
Pr41 O64 2.438 1_565 S
Pr41 O66 2.562 . S
Pr41 O67 2.490 . S
Pr41 O68 2.695 1_565 S
Pr41 O69 2.513 1_565 S
Pr41 O71 2.437 . S
C42 Pr40 2.880 . S
C42 C43 1.491 . S
C42 O60 1.254 . S
C42 O61 1.225 . S
C43 C42 1.491 . S
C43 C44 1.392 . S
C43 C48 1.356 . S
C44 C43 1.392 . S
C44 C45 1.368 . S
C44 H72 0.929 . S
C45 C44 1.368 . S
C45 C46 1.386 . S
C45 H73 0.929 . S
C46 C45 1.386 . S
C46 C47 1.373 . S
C47 C46 1.373 . S
C47 C48 1.409 . S
C47 H74 0.931 . S
C48 C43 1.356 . S
C48 C47 1.409 . S
C48 H75 0.930 . S
C49 O62 1.270 . S
C49 O63 1.248 . S
C50 O64 1.267 . S
C50 O65 1.278 . S
C51 Pr41 2.880 . S
C51 C52 1.491 . S
C51 O66 1.254 . S
C51 O67 1.225 . S
C52 C51 1.491 . S
C52 C53 1.392 . S
C52 C57 1.356 . S
C53 C52 1.392 . S
C53 C54 1.368 . S
C53 H76 0.929 . S
C54 C53 1.368 . S
C54 C55 1.386 . S
C54 H77 0.929 . S
C55 C54 1.386 . S
C55 C56 1.373 . S
C56 C55 1.373 . S
C56 C57 1.409 . S
C56 H78 0.931 . S
C57 C52 1.356 . S
C57 C56 1.409 . S
C57 H79 0.930 . S
C58 O68 1.270 . S
C58 O69 1.253 . S
C59 O70 1.267 . S
C59 O71 1.278 . S
O60 Pr40 2.562 . S
O60 C42 1.254 . S
O61 Pr40 2.490 . S
O61 C42 1.225 . S
O62 Pr40 2.695 . S
O62 Pr41 2.436 1_545 S
O62 C49 1.270 . S
O63 Pr40 2.512 . S
O63 C49 1.248 . S
O64 Pr41 2.438 1_545 S
O64 C50 1.267 . S
O65 Pr40 2.437 . S
O65 C50 1.278 . S
O66 Pr41 2.562 . S
O66 C51 1.254 . S
O67 Pr41 2.490 . S
O67 C51 1.225 . S
O68 Pr40 2.436 . S
O68 Pr41 2.695 1_545 S
O68 C58 1.270 . S
O69 Pr41 2.513 1_545 S
O69 C58 1.253 . S
O70 Pr40 2.438 1_565 S
O70 C59 1.267 . S
O71 Pr41 2.437 . S
O71 C59 1.278 . S
H72 C44 0.929 . S
H73 C45 0.929 . S
H74 C47 0.931 . S
H75 C48 0.930 . S
H76 C53 0.929 . S
H77 C54 0.929 . S
H78 C56 0.931 . S
H79 C57 0.930 . S
Pr80 C82 2.880 . S
Pr80 O100 2.562 . S
Pr80 O101 2.490 . S
Pr80 O102 2.695 . S
Pr80 O103 2.512 . S
Pr80 O105 2.437 . S
Pr80 O108 2.436 . S
Pr80 O110 2.438 . S
Pr81 C91 2.880 . S
Pr81 O102 2.436 . S
Pr81 O104 2.438 . S
Pr81 O106 2.562 . S
Pr81 O107 2.490 . S
Pr81 O108 2.695 . S
Pr81 O109 2.512 . S
Pr81 O111 2.437 . S
C82 Pr80 2.880 . S
C82 C83 1.491 . S
C82 O100 1.254 . S
C82 O101 1.225 . S
C83 C82 1.491 . S
C83 C84 1.392 . S
C83 C88 1.356 . S
C84 C83 1.392 . S
C84 C85 1.368 . S
C84 H112 0.929 . S
C85 C84 1.368 . S
C85 C86 1.386 . S
C85 H113 0.929 . S
C86 C85 1.386 . S
C86 C87 1.373 . S
C87 C86 1.373 . S
C87 C88 1.409 . S
C87 H114 0.931 . S
C88 C83 1.356 . S
C88 C87 1.409 . S
C88 H115 0.930 . S
C89 O102 1.270 . S
C89 O103 1.248 . S
C90 O104 1.267 . S
C90 O105 1.278 . S
C91 Pr81 2.880 . S
C91 C92 1.491 . S
C91 O106 1.254 . S
C91 O107 1.225 . S
C92 C91 1.491 . S
C92 C93 1.392 . S
C92 C97 1.356 . S
C93 C92 1.392 . S
C93 C94 1.368 . S
C93 H116 0.929 . S
C94 C93 1.368 . S
C94 C95 1.386 . S
C94 H117 0.929 . S
C95 C94 1.386 . S
C95 C96 1.373 . S
C96 C95 1.373 . S
C96 C97 1.409 . S
C96 H118 0.931 . S
C97 C92 1.356 . S
C97 C96 1.409 . S
C97 H119 0.930 . S
C98 O108 1.270 . S
C98 O109 1.248 . S
C99 O110 1.267 . S
C99 O111 1.278 . S
O100 Pr80 2.562 . S
O100 C82 1.254 . S
O101 Pr80 2.490 . S
O101 C82 1.225 . S
O102 Pr80 2.695 . S
O102 Pr81 2.436 . S
O102 C89 1.270 . S
O103 Pr80 2.512 . S
O103 C89 1.248 . S
O104 Pr81 2.438 . S
O104 C90 1.267 . S
O105 Pr80 2.437 . S
O105 C90 1.278 . S
O106 Pr81 2.562 . S
O106 C91 1.254 . S
O107 Pr81 2.490 . S
O107 C91 1.225 . S
O108 Pr80 2.436 . S
O108 Pr81 2.695 . S
O108 C98 1.270 . S
O109 Pr81 2.512 . S
O109 C98 1.248 . S
O110 Pr80 2.438 . S
O110 C99 1.267 . S
O111 Pr81 2.437 . S
O111 C99 1.278 . S
H112 C84 0.929 . S
H113 C85 0.929 . S
H114 C87 0.931 . S
H115 C88 0.930 . S
H116 C93 0.929 . S
H117 C94 0.929 . S
H118 C96 0.931 . S
H119 C97 0.930 . S
O120 Cd121 2.300 . S
O120 C127 1.275 . S
Cd121 O120 2.300 . S
Cd121 O129 2.381 . S
Cd121 O130 2.378 . S
O122 Cd123 2.385 1_545 S
O122 C127 1.255 . S
Cd123 O122 2.385 1_565 S
Cd123 O124 2.317 . S
O124 Cd123 2.317 . S
O124 C125 1.232 . S
C125 O124 1.232 . S
C125 O126 1.218 . S
O126 C125 1.218 . S
C127 O120 1.275 . S
C127 O122 1.255 . S
C128 O129 1.258 . S
C128 O130 1.256 . S
O129 Cd121 2.381 . S
O129 C128 1.258 . S
O130 Cd121 2.378 . S
O130 C128 1.256 . S
O131 Cd132 2.300 . S
O131 C138 1.275 . S
Cd132 O131 2.300 . S
Cd132 O140 2.381 . S
Cd132 O141 2.378 . S
O133 Cd134 2.385 . S
O133 C138 1.255 . S
Cd134 O133 2.385 . S
Cd134 O135 2.317 . S
O135 Cd134 2.317 . S
O135 C136 1.232 . S
C136 O135 1.232 . S
C136 O137 1.218 . S
O137 C136 1.218 . S
C138 O131 1.275 . S
C138 O133 1.255 . S
C139 O140 1.258 . S
C139 O141 1.256 . S
O140 Cd132 2.381 . S
O140 C139 1.258 . S
O141 Cd132 2.378 . S
O141 C139 1.256 . S
O142 Cd143 2.300 . S
O142 C149 1.275 . S
Cd143 O142 2.300 . S
Cd143 O151 2.381 . S
Cd143 O152 2.378 . S
O144 Cd145 2.385 . S
O144 C149 1.255 1_655 S
Cd145 O144 2.385 . S
Cd145 O146 2.317 . S
O146 Cd145 2.317 . S
O146 C147 1.232 . S
C147 O146 1.232 . S
C147 O148 1.218 . S
O148 C147 1.218 . S
C149 O142 1.275 . S
C149 O144 1.255 1_455 S
C150 O151 1.258 . S
C150 O152 1.256 . S
O151 Cd143 2.381 . S
O151 C150 1.258 . S
O152 Cd143 2.378 . S
O152 C150 1.256 . S
O153 Cd154 2.300 . S
O153 C160 1.275 1_455 S
Cd154 O153 2.300 . S
Cd154 O162 2.381 . S
Cd154 O163 2.378 . S
O155 Cd156 2.385 . S
O155 C160 1.255 . S
Cd156 O155 2.385 . S
Cd156 O157 2.317 . S
O157 Cd156 2.317 . S
O157 C158 1.232 . S
C158 O157 1.232 . S
C158 O159 1.218 . S
O159 C158 1.218 . S
C160 O153 1.275 1_655 S
C160 O155 1.255 . S
C161 O162 1.258 . S
C161 O163 1.256 . S
O162 Cd154 2.381 . S
O162 C161 1.258 . S
O163 Cd154 2.378 . S
O163 C161 1.256 . S
O164 Cd165 2.300 . S
O164 C171 1.275 1_565 S
Cd165 O164 2.300 . S
Cd165 O173 2.381 . S
Cd165 O174 2.378 . S
O166 Cd167 2.385 . S
O166 C171 1.255 . S
Cd167 O166 2.385 . S
Cd167 O168 2.317 . S
O168 Cd167 2.317 . S
O168 C169 1.232 . S
C169 O168 1.232 . S
C169 O170 1.218 . S
O170 C169 1.218 . S
C171 O164 1.275 1_545 S
C171 O166 1.255 . S
C172 O173 1.258 . S
C172 O174 1.256 . S
O173 Cd165 2.381 . S
O173 C172 1.258 . S
O174 Cd165 2.378 . S
O174 C172 1.256 . S
O175 Cd176 2.300 . S
O175 C182 1.275 . S
Cd176 O175 2.300 . S
Cd176 O184 2.381 . S
Cd176 O185 2.378 . S
O177 Cd178 2.385 . S
O177 C182 1.255 . S
Cd178 O177 2.385 . S
Cd178 O179 2.317 . S
O179 Cd178 2.317 . S
O179 C180 1.232 . S
C180 O179 1.232 . S
C180 O181 1.218 . S
O181 C180 1.218 . S
C182 O175 1.275 . S
C182 O177 1.255 . S
C183 O184 1.258 . S
C183 O185 1.256 . S
O184 Cd176 2.381 . S
O184 C183 1.258 . S
O185 Cd176 2.378 . S
O185 C183 1.256 . S
H186 C198 0.930 . S
H187 C200 0.930 . S
H188 C201 0.930 . S
H189 C205 0.959 . S
H190 C205 0.959 . S
H191 C205 0.961 . S
H192 C206 0.960 . S
H193 C206 0.961 . S
H194 C206 0.959 . S
H195 C209 0.929 . S
H196 C210 0.931 . S
H197 C212 0.930 . S
C198 H186 0.930 . S
C198 C199 1.399 . S
C198 C203 1.399 . S
C199 C198 1.399 . S
C199 C200 1.376 . S
C200 H187 0.930 . S
C200 C199 1.376 . S
C200 C201 1.388 . S
C201 H188 0.930 . S
C201 C200 1.388 . S
C201 C202 1.390 . S
C202 C201 1.390 . S
C202 C203 1.394 . S
C202 C208 1.465 . S
C203 C198 1.399 . S
C203 C202 1.394 . S
C203 C204 1.516 . S
C204 C203 1.516 . S
C204 C205 1.502 . S
C204 C206 1.561 . S
C204 C207 1.526 . S
C205 H189 0.959 . S
C205 H190 0.959 . S
C205 H191 0.961 . S
C205 C204 1.502 . S
C206 H192 0.960 . S
C206 H193 0.961 . S
C206 H194 0.959 . S
C206 C204 1.561 . S
C207 C204 1.526 . S
C207 C208 1.396 . S
C207 C212 1.390 . S
C208 C202 1.465 . S
C208 C207 1.396 . S
C208 C209 1.399 . S
C209 H195 0.929 . S
C209 C208 1.399 . S
C209 C210 1.385 . S
C210 H196 0.931 . S
C210 C209 1.385 . S
C210 C211 1.389 . S
C211 C210 1.389 . S
C211 C212 1.387 . S
C212 H197 0.930 . S
C212 C207 1.390 . S
C212 C211 1.387 . S
H213 C225 0.930 . S
H214 C227 0.930 . S
H215 C228 0.930 . S
H216 C232 0.959 . S
H217 C232 0.959 . S
H218 C232 0.961 . S
H219 C233 0.960 . S
H220 C233 0.961 . S
H221 C233 0.959 . S
H222 C236 0.929 . S
H223 C237 0.931 . S
H224 C239 0.930 . S
C225 H213 0.930 . S
C225 C226 1.399 . S
C225 C230 1.399 . S
C226 C225 1.399 . S
C226 C227 1.376 . S
C227 H214 0.930 . S
C227 C226 1.376 . S
C227 C228 1.388 . S
C228 H215 0.930 . S
C228 C227 1.388 . S
C228 C229 1.390 . S
C229 C228 1.390 . S
C229 C230 1.394 . S
C229 C235 1.465 . S
C230 C225 1.399 . S
C230 C229 1.394 . S
C230 C231 1.516 . S
C231 C230 1.516 . S
C231 C232 1.502 . S
C231 C233 1.561 . S
C231 C234 1.526 . S
C232 H216 0.959 . S
C232 H217 0.959 . S
C232 H218 0.961 . S
C232 C231 1.502 . S
C233 H219 0.960 . S
C233 H220 0.961 . S
C233 H221 0.959 . S
C233 C231 1.561 . S
C234 C231 1.526 . S
C234 C235 1.396 . S
C234 C239 1.390 . S
C235 C229 1.465 . S
C235 C234 1.396 . S
C235 C236 1.399 . S
C236 H222 0.929 . S
C236 C235 1.399 . S
C236 C237 1.385 . S
C237 H223 0.931 . S
C237 C236 1.385 . S
C237 C238 1.389 . S
C238 C237 1.389 . S
C238 C239 1.387 . S
C239 H224 0.930 . S
C239 C234 1.390 . S
C239 C238 1.387 . S
H240 C252 0.930 . S
H241 C254 0.930 . S
H242 C255 0.930 . S
H243 C259 0.959 . S
H244 C259 0.959 . S
H245 C259 0.961 . S
H246 C260 0.960 . S
H247 C260 0.961 . S
H248 C260 0.959 . S
H249 C263 0.929 . S
H250 C264 0.931 . S
H251 C266 0.930 . S
C252 H240 0.930 . S
C252 C253 1.399 . S
C252 C257 1.399 . S
C253 C252 1.399 . S
C253 C254 1.376 . S
C254 H241 0.930 . S
C254 C253 1.376 . S
C254 C255 1.388 . S
C255 H242 0.930 . S
C255 C254 1.388 . S
C255 C256 1.390 . S
C256 C255 1.390 . S
C256 C257 1.394 . S
C256 C262 1.465 . S
C257 C252 1.399 . S
C257 C256 1.394 . S
C257 C258 1.516 . S
C258 C257 1.516 . S
C258 C259 1.502 . S
C258 C260 1.561 . S
C258 C261 1.526 . S
C259 H243 0.959 . S
C259 H244 0.959 . S
C259 H245 0.961 . S
C259 C258 1.502 . S
C260 H246 0.960 . S
C260 H247 0.961 . S
C260 H248 0.959 . S
C260 C258 1.561 . S
C261 C258 1.526 . S
C261 C262 1.396 . S
C261 C266 1.390 . S
C262 C256 1.465 . S
C262 C261 1.396 . S
C262 C263 1.399 . S
C263 H249 0.929 . S
C263 C262 1.399 . S
C263 C264 1.385 . S
C264 H250 0.931 . S
C264 C263 1.385 . S
C264 C265 1.389 . S
C265 C264 1.389 . S
C265 C266 1.387 . S
C266 H251 0.930 . S
C266 C261 1.390 . S
C266 C265 1.387 . S
H267 C279 0.930 . S
H268 C281 0.930 . S
H269 C282 0.930 . S
H270 C286 0.959 . S
H271 C286 0.959 . S
H272 C286 0.961 . S
H273 C287 0.960 . S
H274 C287 0.961 . S
H275 C287 0.959 . S
H276 C290 0.929 . S
H277 C291 0.931 . S
H278 C293 0.930 . S
C279 H267 0.930 . S
C279 C280 1.399 . S
C279 C284 1.399 . S
C280 C279 1.399 . S
C280 C281 1.376 . S
C281 H268 0.930 . S
C281 C280 1.376 . S
C281 C282 1.388 . S
C282 H269 0.930 . S
C282 C281 1.388 . S
C282 C283 1.390 . S
C283 C282 1.390 . S
C283 C284 1.394 . S
C283 C289 1.465 . S
C284 C279 1.399 . S
C284 C283 1.394 . S
C284 C285 1.516 . S
C285 C284 1.516 . S
C285 C286 1.502 . S
C285 C287 1.561 . S
C285 C288 1.526 . S
C286 H270 0.959 . S
C286 H271 0.959 . S
C286 H272 0.961 . S
C286 C285 1.502 . S
C287 H273 0.960 . S
C287 H274 0.961 . S
C287 H275 0.959 . S
C287 C285 1.561 . S
C288 C285 1.526 . S
C288 C289 1.396 . S
C288 C293 1.390 . S
C289 C283 1.465 . S
C289 C288 1.396 . S
C289 C290 1.399 . S
C290 H276 0.929 . S
C290 C289 1.399 . S
C290 C291 1.385 . S
C291 H277 0.931 . S
C291 C290 1.385 . S
C291 C292 1.389 . S
C292 C291 1.389 . S
C292 C293 1.387 . S
C293 H278 0.930 . S
C293 C288 1.390 . S
C293 C292 1.387 . S
H294 C306 0.930 . S
H295 C308 0.930 . S
H296 C309 0.930 . S
H297 C313 0.959 . S
H298 C313 0.959 . S
H299 C313 0.961 . S
H300 C314 0.960 . S
H301 C314 0.961 . S
H302 C314 0.959 . S
H303 C317 0.929 . S
H304 C318 0.931 . S
H305 C320 0.930 . S
C306 H294 0.930 . S
C306 C307 1.399 . S
C306 C311 1.399 . S
C307 C306 1.399 . S
C307 C308 1.376 . S
C308 H295 0.930 . S
C308 C307 1.376 . S
C308 C309 1.388 . S
C309 H296 0.930 . S
C309 C308 1.388 . S
C309 C310 1.390 . S
C310 C309 1.390 . S
C310 C311 1.394 . S
C310 C316 1.465 . S
C311 C306 1.399 . S
C311 C310 1.394 . S
C311 C312 1.516 . S
C312 C311 1.516 . S
C312 C313 1.502 . S
C312 C314 1.561 . S
C312 C315 1.526 . S
C313 H297 0.959 . S
C313 H298 0.959 . S
C313 H299 0.961 . S
C313 C312 1.502 . S
C314 H300 0.960 . S
C314 H301 0.961 . S
C314 H302 0.959 . S
C314 C312 1.561 . S
C315 C312 1.526 . S
C315 C316 1.396 . S
C315 C320 1.390 . S
C316 C310 1.465 . S
C316 C315 1.396 . S
C316 C317 1.399 . S
C317 H303 0.929 . S
C317 C316 1.399 . S
C317 C318 1.385 . S
C318 H304 0.931 . S
C318 C317 1.385 . S
C318 C319 1.389 . S
C319 C318 1.389 . S
C319 C320 1.387 . S
C320 H305 0.930 . S
C320 C315 1.390 . S
C320 C319 1.387 . S
H321 C333 0.930 . S
H322 C335 0.930 . S
H323 C336 0.930 . S
H324 C340 0.959 . S
H325 C340 0.959 . S
H326 C340 0.961 . S
H327 C341 0.960 . S
H328 C341 0.961 . S
H329 C341 0.959 . S
H330 C344 0.929 . S
H331 C345 0.931 . S
H332 C347 0.930 . S
C333 H321 0.930 . S
C333 C334 1.399 . S
C333 C338 1.399 . S
C334 C333 1.399 . S
C334 C335 1.376 . S
C335 H322 0.930 . S
C335 C334 1.376 . S
C335 C336 1.388 . S
C336 H323 0.930 . S
C336 C335 1.388 . S
C336 C337 1.390 . S
C337 C336 1.390 . S
C337 C338 1.394 . S
C337 C343 1.465 . S
C338 C333 1.399 . S
C338 C337 1.394 . S
C338 C339 1.516 . S
C339 C338 1.516 . S
C339 C340 1.502 . S
C339 C341 1.561 . S
C339 C342 1.526 . S
C340 H324 0.959 . S
C340 H325 0.959 . S
C340 H326 0.961 . S
C340 C339 1.502 . S
C341 H327 0.960 . S
C341 H328 0.961 . S
C341 H329 0.959 . S
C341 C339 1.561 . S
C342 C339 1.526 . S
C342 C343 1.396 . S
C342 C347 1.390 . S
C343 C337 1.465 . S
C343 C342 1.396 . S
C343 C344 1.399 . S
C344 H330 0.929 . S
C344 C343 1.399 . S
C344 C345 1.385 . S
C345 H331 0.931 . S
C345 C344 1.385 . S
C345 C346 1.389 . S
C346 C345 1.389 . S
C346 C347 1.387 . S
C347 H332 0.930 . S
C347 C342 1.390 . S
C347 C346 1.387 . S
H348 C360 0.930 . S
H349 C362 0.930 . S
H350 C363 0.930 . S
H351 C367 0.959 . S
H352 C367 0.959 . S
H353 C367 0.961 . S
H354 C368 0.960 . S
H355 C368 0.961 . S
H356 C368 0.959 . S
H357 C371 0.929 . S
H358 C372 0.931 . S
H359 C374 0.930 . S
C360 H348 0.930 . S
C360 C361 1.399 . S
C360 C365 1.399 . S
C361 C360 1.399 . S
C361 C362 1.376 . S
C362 H349 0.930 . S
C362 C361 1.376 . S
C362 C363 1.388 . S
C363 H350 0.930 . S
C363 C362 1.388 . S
C363 C364 1.390 . S
C364 C363 1.390 . S
C364 C365 1.394 . S
C364 C370 1.465 . S
C365 C360 1.399 . S
C365 C364 1.394 . S
C365 C366 1.516 . S
C366 C365 1.516 . S
C366 C367 1.502 . S
C366 C368 1.561 . S
C366 C369 1.526 . S
C367 H351 0.959 . S
C367 H352 0.959 . S
C367 H353 0.961 . S
C367 C366 1.502 . S
C368 H354 0.960 . S
C368 H355 0.961 . S
C368 H356 0.959 . S
C368 C366 1.561 . S
C369 C366 1.526 . S
C369 C370 1.396 . S
C369 C374 1.390 . S
C370 C364 1.465 . S
C370 C369 1.396 . S
C370 C371 1.399 . S
C371 H357 0.929 . S
C371 C370 1.399 . S
C371 C372 1.385 . S
C372 H358 0.931 . S
C372 C371 1.385 . S
C372 C373 1.389 . S
C373 C372 1.389 . S
C373 C374 1.387 . S
C374 H359 0.930 . S
C374 C369 1.390 . S
C374 C373 1.387 . S
H375 C387 0.930 . S
H376 C389 0.930 . S
H377 C390 0.930 . S
H378 C394 0.959 . S
H379 C394 0.959 . S
H380 C394 0.961 . S
H381 C395 0.960 . S
H382 C395 0.961 . S
H383 C395 0.959 . S
H384 C398 0.929 . S
H385 C399 0.931 . S
H386 C401 0.930 . S
C387 H375 0.930 . S
C387 C388 1.399 . S
C387 C392 1.399 . S
C388 C387 1.399 . S
C388 C389 1.376 . S
C389 H376 0.930 . S
C389 C388 1.376 . S
C389 C390 1.388 . S
C390 H377 0.930 . S
C390 C389 1.388 . S
C390 C391 1.390 . S
C391 C390 1.390 . S
C391 C392 1.394 . S
C391 C397 1.465 . S
C392 C387 1.399 . S
C392 C391 1.394 . S
C392 C393 1.516 . S
C393 C392 1.516 . S
C393 C394 1.502 . S
C393 C395 1.561 . S
C393 C396 1.526 . S
C394 H378 0.959 . S
C394 H379 0.959 . S
C394 H380 0.961 . S
C394 C393 1.502 . S
C395 H381 0.960 . S
C395 H382 0.961 . S
C395 H383 0.959 . S
C395 C393 1.561 . S
C396 C393 1.526 . S
C396 C397 1.396 . S
C396 C401 1.390 . S
C397 C391 1.465 . S
C397 C396 1.396 . S
C397 C398 1.399 . S
C398 H384 0.929 . S
C398 C397 1.399 . S
C398 C399 1.385 . S
C399 H385 0.931 . S
C399 C398 1.385 . S
C399 C400 1.389 . S
C400 C399 1.389 . S
C400 C401 1.387 . S
C401 H386 0.930 . S
C401 C396 1.390 . S
C401 C400 1.387 . S
H402 C414 0.930 . S
H403 C416 0.930 . S
H404 C417 0.930 . S
H405 C421 0.959 . S
H406 C421 0.959 . S
H407 C421 0.961 . S
H408 C422 0.960 . S
H409 C422 0.961 . S
H410 C422 0.959 . S
H411 C425 0.929 . S
H412 C426 0.931 . S
H413 C428 0.930 . S
C414 H402 0.930 . S
C414 C415 1.399 . S
C414 C419 1.399 . S
C415 C414 1.399 . S
C415 C416 1.376 . S
C416 H403 0.930 . S
C416 C415 1.376 . S
C416 C417 1.388 . S
C417 H404 0.930 . S
C417 C416 1.388 . S
C417 C418 1.390 . S
C418 C417 1.390 . S
C418 C419 1.394 . S
C418 C424 1.465 . S
C419 C414 1.399 . S
C419 C418 1.394 . S
C419 C420 1.516 . S
C420 C419 1.516 . S
C420 C421 1.502 . S
C420 C422 1.561 . S
C420 C423 1.526 . S
C421 H405 0.959 . S
C421 H406 0.959 . S
C421 H407 0.961 . S
C421 C420 1.502 . S
C422 H408 0.960 . S
C422 H409 0.961 . S
C422 H410 0.959 . S
C422 C420 1.561 . S
C423 C420 1.526 . S
C423 C424 1.396 . S
C423 C428 1.390 . S
C424 C418 1.465 . S
C424 C423 1.396 . S
C424 C425 1.399 . S
C425 H411 0.929 . S
C425 C424 1.399 . S
C425 C426 1.385 . S
C426 H412 0.931 . S
C426 C425 1.385 . S
C426 C427 1.389 . S
C427 C426 1.389 . S
C427 C428 1.387 . S
C428 H413 0.930 . S
C428 C423 1.390 . S
C428 C427 1.387 . S
H429 C441 0.930 . S
H430 C443 0.930 . S
H431 C444 0.930 . S
H432 C448 0.959 . S
H433 C448 0.959 . S
H434 C448 0.961 . S
H435 C449 0.960 . S
H436 C449 0.961 . S
H437 C449 0.959 . S
H438 C452 0.929 . S
H439 C453 0.931 . S
H440 C455 0.930 . S
C441 H429 0.930 . S
C441 C442 1.399 . S
C441 C446 1.399 . S
C442 C441 1.399 . S
C442 C443 1.376 . S
C443 H430 0.930 . S
C443 C442 1.376 . S
C443 C444 1.388 . S
C444 H431 0.930 . S
C444 C443 1.388 . S
C444 C445 1.390 . S
C445 C444 1.390 . S
C445 C446 1.394 . S
C445 C451 1.465 . S
C446 C441 1.399 . S
C446 C445 1.394 . S
C446 C447 1.516 . S
C447 C446 1.516 . S
C447 C448 1.502 . S
C447 C449 1.561 . S
C447 C450 1.526 . S
C448 H432 0.959 . S
C448 H433 0.959 . S
C448 H434 0.961 . S
C448 C447 1.502 . S
C449 H435 0.960 . S
C449 H436 0.961 . S
C449 H437 0.959 . S
C449 C447 1.561 . S
C450 C447 1.526 . S
C450 C451 1.396 . S
C450 C455 1.390 . S
C451 C445 1.465 . S
C451 C450 1.396 . S
C451 C452 1.399 . S
C452 H438 0.929 . S
C452 C451 1.399 . S
C452 C453 1.385 . S
C453 H439 0.931 . S
C453 C452 1.385 . S
C453 C454 1.389 . S
C454 C453 1.389 . S
C454 C455 1.387 . S
C455 H440 0.930 . S
C455 C450 1.390 . S
C455 C454 1.387 . S
H456 C468 0.930 . S
H457 C470 0.930 . S
H458 C471 0.930 . S
H459 C475 0.959 . S
H460 C475 0.959 . S
H461 C475 0.961 . S
H462 C476 0.960 . S
H463 C476 0.961 . S
H464 C476 0.959 . S
H465 C479 0.929 . S
H466 C480 0.931 . S
H467 C482 0.930 . S
C468 H456 0.930 . S
C468 C469 1.399 . S
C468 C473 1.399 . S
C469 C468 1.399 . S
C469 C470 1.376 . S
C470 H457 0.930 . S
C470 C469 1.376 . S
C470 C471 1.388 . S
C471 H458 0.930 . S
C471 C470 1.388 . S
C471 C472 1.390 . S
C472 C471 1.390 . S
C472 C473 1.394 . S
C472 C478 1.465 . S
C473 C468 1.399 . S
C473 C472 1.394 . S
C473 C474 1.516 . S
C474 C473 1.516 . S
C474 C475 1.502 . S
C474 C476 1.561 . S
C474 C477 1.526 . S
C475 H459 0.959 . S
C475 H460 0.959 . S
C475 H461 0.961 . S
C475 C474 1.502 . S
C476 H462 0.960 . S
C476 H463 0.961 . S
C476 H464 0.959 . S
C476 C474 1.561 . S
C477 C474 1.526 . S
C477 C478 1.396 . S
C477 C482 1.390 . S
C478 C472 1.465 . S
C478 C477 1.396 . S
C478 C479 1.399 . S
C479 H465 0.929 . S
C479 C478 1.399 . S
C479 C480 1.385 . S
C480 H466 0.931 . S
C480 C479 1.385 . S
C480 C481 1.389 . S
C481 C480 1.389 . S
C481 C482 1.387 . S
C482 H467 0.930 . S
C482 C477 1.390 . S
C482 C481 1.387 . S
H483 C495 0.930 . S
H484 C497 0.930 . S
H485 C498 0.930 . S
H486 C502 0.959 . S
H487 C502 0.959 . S
H488 C502 0.961 . S
H489 C503 0.960 . S
H490 C503 0.961 . S
H491 C503 0.959 . S
H492 C506 0.929 . S
H493 C507 0.931 . S
H494 C509 0.930 . S
C495 H483 0.930 . S
C495 C496 1.399 . S
C495 C500 1.399 . S
C496 C495 1.399 . S
C496 C497 1.376 . S
C497 H484 0.930 . S
C497 C496 1.376 . S
C497 C498 1.388 . S
C498 H485 0.930 . S
C498 C497 1.388 . S
C498 C499 1.390 . S
C499 C498 1.390 . S
C499 C500 1.394 . S
C499 C505 1.465 . S
C500 C495 1.399 . S
C500 C499 1.394 . S
C500 C501 1.516 . S
C501 C500 1.516 . S
C501 C502 1.502 . S
C501 C503 1.561 . S
C501 C504 1.526 . S
C502 H486 0.959 . S
C502 H487 0.959 . S
C502 H488 0.961 . S
C502 C501 1.502 . S
C503 H489 0.960 . S
C503 H490 0.961 . S
C503 H491 0.959 . S
C503 C501 1.561 . S
C504 C501 1.526 . S
C504 C505 1.396 . S
C504 C509 1.390 . S
C505 C499 1.465 . S
C505 C504 1.396 . S
C505 C506 1.399 . S
C506 H492 0.929 . S
C506 C505 1.399 . S
C506 C507 1.385 . S
C507 H493 0.931 . S
C507 C506 1.385 . S
C507 C508 1.389 . S
C508 C507 1.389 . S
C508 C509 1.387 . S
C509 H494 0.930 . S
C509 C504 1.390 . S
C509 C508 1.387 . S
H510 C522 0.930 . S
H511 C524 0.930 . S
H512 C525 0.930 1_655 S
H513 C529 0.959 . S
H514 C529 0.961 1_455 S
H515 C529 0.961 . S
H516 C530 0.960 . S
H517 C530 0.961 . S
H518 C530 0.959 . S
H519 C533 0.925 . S
H520 C534 0.931 . S
H521 C536 0.930 . S
C522 H510 0.930 . S
C522 C523 1.399 . S
C522 C527 1.399 . S
C523 C522 1.399 . S
C523 C524 1.376 . S
C524 H511 0.930 . S
C524 C523 1.376 . S
C524 C525 1.388 . S
C525 H512 0.930 1_455 S
C525 C524 1.388 . S
C525 C526 1.390 . S
C526 C525 1.390 . S
C526 C527 1.394 . S
C526 C532 1.446 1_554 S
C527 C522 1.399 . S
C527 C526 1.394 . S
C527 C528 1.516 . S
C528 C527 1.516 . S
C528 C529 1.502 1_455 S
C528 C530 1.561 . S
C528 C531 1.526 1_554 S
C529 H513 0.959 . S
C529 H514 0.961 1_655 S
C529 H515 0.961 . S
C529 C528 1.502 1_655 S
C530 H516 0.960 . S
C530 H517 0.961 . S
C530 H518 0.959 . S
C530 C528 1.561 . S
C531 C528 1.526 1_556 S
C531 C532 1.402 . S
C531 C536 1.390 . S
C532 C526 1.446 1_556 S
C532 C531 1.402 . S
C532 C533 1.415 1_455 S
C533 H519 0.925 . S
C533 C532 1.415 1_655 S
C533 C534 1.387 . S
C534 H520 0.931 . S
C534 C533 1.387 . S
C534 C535 1.389 1_655 S
C535 C534 1.389 1_455 S
C535 C536 1.387 . S
C536 H521 0.930 . S
C536 C531 1.390 . S
C536 C535 1.387 . S
H537 C549 0.930 . S
H538 C551 0.930 . S
H539 C552 0.930 . S
H540 C556 0.959 . S
H541 C556 0.959 . S
H542 C556 0.961 . S
H543 C557 0.960 . S
H544 C557 0.961 . S
H545 C557 0.959 . S
H546 C560 0.929 . S
H547 C561 0.931 . S
H548 C563 0.930 . S
C549 H537 0.930 . S
C549 C550 1.399 . S
C549 C554 1.399 . S
C550 C549 1.399 . S
C550 C551 1.376 1_545 S
C551 H538 0.930 . S
C551 C550 1.376 1_565 S
C551 C552 1.388 . S
C552 H539 0.930 . S
C552 C551 1.388 . S
C552 C553 1.390 1_565 S
C553 C552 1.390 1_545 S
C553 C554 1.394 . S
C553 C559 1.465 . S
C554 C549 1.399 . S
C554 C553 1.394 . S
C554 C555 1.516 . S
C555 C554 1.516 . S
C555 C556 1.502 . S
C555 C557 1.561 . S
C555 C558 1.526 . S
C556 H540 0.959 . S
C556 H541 0.959 . S
C556 H542 0.961 . S
C556 C555 1.502 . S
C557 H543 0.960 . S
C557 H544 0.961 . S
C557 H545 0.959 . S
C557 C555 1.561 . S
C558 C555 1.526 . S
C558 C559 1.396 . S
C558 C563 1.390 . S
C559 C553 1.465 . S
C559 C558 1.396 . S
C559 C560 1.399 1_545 S
C560 H546 0.929 . S
C560 C559 1.399 1_565 S
C560 C561 1.385 . S
C561 H547 0.931 . S
C561 C560 1.385 . S
C561 C562 1.389 1_565 S
C562 C561 1.389 1_545 S
C562 C563 1.387 . S
C563 H548 0.930 . S
C563 C558 1.390 . S
C563 C562 1.387 . S
H564 C576 0.930 . S
H565 C578 0.930 . S
H566 C579 0.930 . S
H567 C583 0.959 . S
H568 C583 0.959 . S
H569 C583 0.961 . S
H570 C584 0.960 . S
H571 C584 0.961 . S
H572 C584 0.959 . S
H573 C587 0.929 . S
H574 C588 0.931 . S
H575 C590 0.930 . S
C576 H564 0.930 . S
C576 C577 1.399 . S
C576 C581 1.399 . S
C577 C576 1.399 . S
C577 C578 1.376 . S
C578 H565 0.930 . S
C578 C577 1.376 . S
C578 C579 1.388 . S
C579 H566 0.930 . S
C579 C578 1.388 . S
C579 C580 1.390 . S
C580 C579 1.390 . S
C580 C581 1.394 . S
C580 C586 1.465 . S
C581 C576 1.399 . S
C581 C580 1.394 . S
C581 C582 1.516 . S
C582 C581 1.516 . S
C582 C583 1.502 . S
C582 C584 1.561 . S
C582 C585 1.526 . S
C583 H567 0.959 . S
C583 H568 0.959 . S
C583 H569 0.961 . S
C583 C582 1.502 . S
C584 H570 0.960 . S
C584 H571 0.961 . S
C584 H572 0.959 . S
C584 C582 1.561 . S
C585 C582 1.526 . S
C585 C586 1.396 . S
C585 C590 1.390 . S
C586 C580 1.465 . S
C586 C585 1.396 . S
C586 C587 1.399 . S
C587 H573 0.929 . S
C587 C586 1.399 . S
C587 C588 1.385 . S
C588 H574 0.931 . S
C588 C587 1.385 . S
C588 C589 1.389 . S
C589 C588 1.389 . S
C589 C590 1.387 . S
C590 H575 0.930 . S
C590 C585 1.390 . S
C590 C589 1.387 . S
H591 C603 0.930 . S
H592 C605 0.930 . S
H593 C606 0.930 . S
H594 C610 0.959 . S
H595 C610 0.959 . S
H596 C610 0.961 . S
H597 C611 0.960 . S
H598 C611 0.961 . S
H599 C611 0.959 . S
H600 C614 0.929 . S
H601 C615 0.931 . S
H602 C617 0.930 . S
C603 H591 0.930 . S
C603 C604 1.399 . S
C603 C608 1.399 . S
C604 C603 1.399 . S
C604 C605 1.376 1_545 S
C605 H592 0.930 . S
C605 C604 1.376 1_565 S
C605 C606 1.388 . S
C606 H593 0.930 . S
C606 C605 1.388 . S
C606 C607 1.390 . S
C607 C606 1.390 . S
C607 C608 1.394 1_565 S
C607 C613 1.465 . S
C608 C603 1.399 . S
C608 C607 1.394 1_545 S
C608 C609 1.516 . S
C609 C608 1.516 . S
C609 C610 1.502 . S
C609 C611 1.561 . S
C609 C612 1.526 . S
C610 H594 0.959 . S
C610 H595 0.959 . S
C610 H596 0.961 . S
C610 C609 1.502 . S
C611 H597 0.960 . S
C611 H598 0.961 . S
C611 H599 0.959 . S
C611 C609 1.561 . S
C612 C609 1.526 . S
C612 C613 1.396 1_545 S
C612 C617 1.390 . S
C613 C607 1.465 . S
C613 C612 1.396 1_565 S
C613 C614 1.399 . S
C614 H600 0.929 . S
C614 C613 1.399 . S
C614 C615 1.385 . S
C615 H601 0.931 . S
C615 C614 1.385 . S
C615 C616 1.389 1_565 S
C616 C615 1.389 1_545 S
C616 C617 1.387 . S
C617 H602 0.930 . S
C617 C612 1.390 . S
C617 C616 1.387 . S
H618 C630 0.930 . S
H619 C632 0.930 . S
H620 C633 0.930 . S
H621 C637 0.959 . S
H622 C637 0.924 1_554 S
H623 C637 0.961 . S
H624 C638 0.960 . S
H625 C638 0.961 1_554 S
H626 C638 0.959 . S
H627 C641 0.929 . S
H628 C642 0.931 . S
H629 C644 0.930 . S
C630 H618 0.930 . S
C630 C631 1.399 . S
C630 C635 1.399 . S
C631 C630 1.399 . S
C631 C632 1.376 . S
C632 H619 0.930 . S
C632 C631 1.376 . S
C632 C633 1.388 . S
C633 H620 0.930 . S
C633 C632 1.388 . S
C633 C634 1.390 . S
C634 C633 1.390 . S
C634 C635 1.394 . S
C634 C640 1.465 1_556 S
C635 C630 1.399 . S
C635 C634 1.394 . S
C635 C636 1.516 . S
C636 C635 1.516 . S
C636 C637 1.502 . S
C636 C638 1.561 . S
C636 C639 1.526 1_556 S
C637 H621 0.959 . S
C637 H622 0.924 1_556 S
C637 H623 0.961 . S
C637 C636 1.502 . S
C638 H624 0.960 . S
C638 H625 0.961 1_556 S
C638 H626 0.959 . S
C638 C636 1.561 . S
C639 C636 1.526 1_554 S
C639 C640 1.396 . S
C639 C644 1.390 . S
C640 C634 1.465 1_554 S
C640 C639 1.396 . S
C640 C641 1.399 . S
C641 H627 0.929 . S
C641 C640 1.399 . S
C641 C642 1.385 . S
C642 H628 0.931 . S
C642 C641 1.385 . S
C642 C643 1.389 . S
C643 C642 1.389 . S
C643 C644 1.387 . S
C644 H629 0.930 . S
C644 C639 1.390 . S
C644 C643 1.387 . S
H645 C657 0.930 . S
H646 C659 0.930 . S
H647 C660 0.930 . S
H648 C664 0.959 . S
H649 C664 0.959 . S
H650 C664 0.961 . S
H651 C665 0.960 . S
H652 C665 0.961 . S
H653 C665 0.959 1_455 S
H654 C668 0.929 . S
H655 C669 0.931 . S
H656 C671 0.930 . S
C657 H645 0.930 . S
C657 C658 1.399 1_655 S
C657 C662 1.399 . S
C658 C657 1.399 1_455 S
C658 C659 1.376 . S
C659 H646 0.930 . S
C659 C658 1.376 . S
C659 C660 1.388 . S
C660 H647 0.930 . S
C660 C659 1.388 . S
C660 C661 1.390 . S
C661 C660 1.390 . S
C661 C662 1.394 1_455 S
C661 C667 1.465 . S
C662 C657 1.399 . S
C662 C661 1.394 1_655 S
C662 C663 1.516 . S
C663 C662 1.516 . S
C663 C664 1.502 . S
C663 C665 1.561 . S
C663 C666 1.526 . S
C664 H648 0.959 . S
C664 H649 0.959 . S
C664 H650 0.961 . S
C664 C663 1.502 . S
C665 H651 0.960 . S
C665 H652 0.961 . S
C665 H653 0.959 1_655 S
C665 C663 1.561 . S
C666 C663 1.526 . S
C666 C667 1.396 1_655 S
C666 C671 1.390 . S
C667 C661 1.465 . S
C667 C666 1.396 1_455 S
C667 C668 1.399 . S
C668 H654 0.929 . S
C668 C667 1.399 . S
C668 C669 1.385 . S
C669 H655 0.931 . S
C669 C668 1.385 . S
C669 C670 1.389 1_455 S
C670 C669 1.389 1_655 S
C670 C671 1.387 . S
C671 H656 0.930 . S
C671 C666 1.390 . S
C671 C670 1.387 . S
C199 C19 2.027 . S
C211 C180 1.768 . S
C226 C46 1.360 . S
C238 C158 1.166 . S
C253 C95 0.485 . S
C265 C172 0.332 . S
C280 C10 1.837 . S
C292 C183 1.768 . S
C319 C161 1.047 . S
C307 C55 1.065 . S
C346 C169 0.787 . S
C334 C86 0.562 . S
C361 C59 3.255 . S
C373 C136 2.945 . S
C388 C90 2.121 . S
C400 C147 1.807 . S
C415 C15 1.412 . S
C427 C125 1.283 . S
C454 C139 2.804 . S
C442 C50 2.875 . S
C481 C150 1.715 . S
C469 C99 1.784 . S
C496 C6 1.007 . S
C508 C128 0.971 . S
C535 C149 1.352 . S
C523 C9 1.370 . S
C550 C58 1.476 . S
C562 C127 1.457 . S
C577 C98 1.667 . S
C589 C138 1.620 . S
C616 C171 1.183 . S
C604 C49 1.256 . S
C643 C182 1.341 . S
C631 C89 1.436 . S
C658 C18 1.468 . S
C670 C160 1.417 . S
