# Generated by pormake.
# Topology ssa, (4,4)-cn, num edge types: 1
# Building blocks:
#     Node 0, Type 0, BuildingBlock: ESEHIV_clean_sbu_0, # of connection points: 4
#     Node 1, Type 0, BuildingBlock: ESEHIV_clean_sbu_0, # of connection points: 4
#     Node 2, Type 0, BuildingBlock: ESEHIV_clean_sbu_0, # of connection points: 4
#     Node 3, Type 0, BuildingBlock: ESEHIV_clean_sbu_0, # of connection points: 4
#     Node 4, Type 0, BuildingBlock: ESEHIV_clean_sbu_0, # of connection points: 4
#     Node 5, Type 0, BuildingBlock: ESEHIV_clean_sbu_0, # of connection points: 4
#     Node 6, Type 1, BuildingBlock: ESEHIV_clean_sbu_0, # of connection points: 4
#     Node 7, Type 1, BuildingBlock: ESEHIV_clean_sbu_0, # of connection points: 4
#     Node 8, Type 1, BuildingBlock: ESEHIV_clean_sbu_0, # of connection points: 4
#     Node 9, Type 1, BuildingBlock: ESEHIV_clean_sbu_0, # of connection points: 4
#     Node 10, Type 1, BuildingBlock: ESEHIV_clean_sbu_0, # of connection points: 4
#     Node 11, Type 1, BuildingBlock: ESEHIV_clean_sbu_0, # of connection points: 4
#     Edge 12, Type (0, 1), None
#     Edge 13, Type (0, 1), None
#     Edge 14, Type (0, 1), None
#     Edge 15, Type (0, 1), None
#     Edge 16, Type (0, 1), None
#     Edge 17, Type (0, 1), None
#     Edge 18, Type (0, 1), None
#     Edge 19, Type (0, 1), None
#     Edge 20, Type (0, 1), None
#     Edge 21, Type (0, 1), None
#     Edge 22, Type (0, 1), None
#     Edge 23, Type (0, 1), None
#     Edge 24, Type (0, 1), None
#     Edge 25, Type (0, 1), None
#     Edge 26, Type (0, 1), None
#     Edge 27, Type (0, 1), None
#     Edge 28, Type (0, 1), None
#     Edge 29, Type (0, 1), None
#     Edge 30, Type (0, 1), None
#     Edge 31, Type (0, 1), None
#     Edge 32, Type (0, 1), None
#     Edge 33, Type (0, 1), None
#     Edge 34, Type (0, 1), None
#     Edge 35, Type (0, 1), None
# Relax obj value: 0.116
# Max RMSD: 0.109
# Mean RMSD: 0.098
data_MOF--net-ssa--node1-ESEHIV_clean_sbu_0--node2-ESEHIV_clean_sbu_0--edge1-none
_symmetry_space_group_name_H-M    P1
_symmetry_Int_Tables_number       1
_symmetry_cell_setting            triclinic
loop_
_symmetry_equiv_pos_as_xyz
'x, y, z'
_cell_length_a     22.52347
_cell_length_b     25.210305
_cell_length_c     16.947781
_cell_angle_alpha  85.494616
_cell_angle_beta   92.058816
_cell_angle_gamma 125.49413
loop_
_atom_site_label
_atom_site_type_symbol
_atom_site_fract_x
_atom_site_fract_y
_atom_site_fract_z
_atom_type_partial_charge
Cu0 Cu 1.04996 0.57574 1.05616 0.0
N1 N 0.97883 0.48931 0.08845 0.0
N2 N 0.91919 0.38232 0.08135 0.0
C3 C 0.94915 0.44035 1.04022 0.0
C4 C 0.92995 0.39441 0.15838 0.0
C5 C 0.96694 0.46098 0.1626 0.0
O6 O 1.02346 0.59724 0.95064 0.0
C7 C 0.19433 0.60633 0.10981 0.0
O8 O 0.20671 0.65457 0.14903 0.0
H9 H 0.95631 0.44787 0.97654 0.0
H10 H 0.98941 0.48719 0.21548 0.0
N11 N 1.05294 0.62878 0.12872 0.0
N12 N 0.08389 0.68368 0.23675 0.0
C13 C 1.07458 0.63241 0.20415 0.0
C14 C 1.04573 0.67804 0.114 0.0
C15 C 1.06516 0.7124 0.18089 0.0
C16 C 0.95817 0.57802 0.93234 0.0
O17 O 0.9049 0.53995 0.98364 0.0
H18 H 0.0891 0.60148 0.23236 0.0
H19 H 1.03259 0.69093 1.05693 0.0
O20 O 0.13981 0.57741 1.0628 0.0
H21 H 0.91615 0.35859 0.20718 0.0
H22 H 1.07163 0.75806 0.18547 0.0
Cu23 Cu 0.59779 1.02875 0.62631 0.0
N24 N 0.60478 0.99426 0.53087 0.0
N25 N 0.64366 0.96025 0.43778 0.0
C26 C 0.6602 1.01075 0.4812 0.0
C27 C 0.57522 0.91098 0.45896 0.0
C28 C 0.55241 0.93137 0.51611 0.0
O29 O 0.49598 0.96629 0.6557 0.0
C30 C 0.7227 1.04055 0.69693 0.0
O31 O 0.74445 1.04266 0.62527 0.0
H32 H 0.71357 0.05677 0.48151 0.0
H33 H 0.50339 0.89893 0.55085 0.0
N34 N 0.61612 0.11339 0.63389 0.0
N35 N 0.60823 0.1861 0.69668 0.0
C36 C 0.57377 0.12311 0.67729 0.0
C37 C 0.68021 0.17307 0.6262 0.0
C38 C 0.67532 0.21772 0.66377 0.0
C39 C 0.45157 0.96083 0.60262 0.0
O40 O 0.47649 1.00749 0.54546 0.0
H41 H 0.52016 0.0834 0.69957 0.0
H42 H 0.72919 0.18269 0.60066 0.0
O43 O 0.65831 1.02478 0.70769 0.0
H44 H 0.54618 0.86175 0.44017 0.0
H45 H 0.71901 0.26865 0.66962 0.0
Cu46 Cu 0.6769 0.63695 1.01393 0.0
N47 N 0.68215 0.56476 1.00188 0.0
N48 N 0.65332 0.47384 0.94584 0.0
C49 C 0.62802 0.5059 0.97593 0.0
C50 C 0.72622 0.51372 0.95372 0.0
C51 C 0.74374 0.56947 0.98767 0.0
O52 O 0.72943 0.6933 0.92069 0.0
C53 C 0.53703 0.57459 1.07019 0.0
O54 O 0.56514 0.55974 0.12973 0.0
H55 H 0.57164 0.48936 0.97295 0.0
H56 H 0.79825 0.61277 0.99536 0.0
N57 N 0.71757 0.68371 0.1073 0.0
N58 N 0.75128 0.75518 0.20131 0.0
C59 C 0.70385 0.72281 0.14205 0.0
C60 C 0.77422 0.69093 0.14705 0.0
C61 C 0.7952 0.73472 0.20388 0.0
C62 C 0.79779 0.7379 0.92005 0.0
O63 O 0.82908 0.76718 0.98512 0.0
H64 H 0.66271 0.72995 0.12154 0.0
H65 H 0.8006 0.66804 0.13323 0.0
O66 O 0.57636 0.60691 1.00917 0.0
H67 H 0.76419 0.50426 0.93407 0.0
H68 H 0.84077 0.75127 0.24341 0.0
Cu69 Cu 1.06131 0.46399 0.57633 0.0
N70 N 1.05346 0.41448 0.4953 0.0
N71 N 0.09425 0.39192 0.39431 0.0
C72 C 0.11155 0.42258 0.46178 0.0
C73 C 1.02201 0.36242 0.38507 0.0
C74 C 0.99683 0.37644 0.44799 0.0
O75 O 0.16852 0.52762 0.59175 0.0
C76 C 0.93944 0.3636 0.68761 0.0
O77 O 0.89333 0.35785 0.63332 0.0
H78 H 0.16648 0.4547 0.4832 0.0
H79 H 0.94261 0.36427 0.45523 0.0
N80 N 1.02333 0.50984 0.54155 0.0
N81 N 0.98729 0.5746 0.54617 0.0
C82 C 1.00229 0.53648 0.58855 0.0
C83 C 1.02063 0.53125 0.46683 0.0
C84 C 0.99851 0.57204 0.46954 0.0
C85 C 0.2249 0.58372 0.56509 0.0
O86 O 0.28901 0.60063 0.59071 0.0
H87 H 1.00095 0.53018 0.65252 0.0
H88 H 1.03678 0.52034 0.41455 0.0
O89 O 1.0086 0.40468 0.67422 0.0
H90 H 0.9912 0.3377 0.33358 0.0
H91 H 0.99184 0.59789 0.41998 0.0
Cu92 Cu 0.55451 1.02256 0.13105 0.0
N93 N 0.53822 0.08516 0.14552 0.0
N94 N 0.51821 0.15773 0.09624 0.0
C95 C 0.55934 0.13527 0.09202 0.0
C96 C 0.47068 0.12194 0.15663 0.0
C97 C 0.48332 0.07698 0.18714 0.0
O98 O 0.55096 1.01906 1.01369 0.0
C99 C 0.46886 0.90725 0.25358 0.0
O100 O 0.52995 0.9242 0.2883 0.0
H101 H 0.59709 0.14894 1.04438 0.0
H102 H 0.44921 1.03634 0.22971 0.0
N103 N 0.64774 1.05289 0.16692 0.0
N104 N 0.75302 0.06384 0.18438 0.0
C105 C 0.68478 1.02742 0.15501 0.0
C106 C 0.69426 0.10777 0.2041 0.0
C107 C 0.75921 0.11442 0.21565 0.0
C108 C 0.58948 0.05653 0.9527 0.0
O109 O 0.56094 1.03853 0.88252 0.0
H110 H 0.66145 0.98249 0.12649 0.0
H111 H 0.68156 0.14037 0.22214 0.0
O112 O 0.47124 0.93966 0.18952 0.0
H113 H 0.42558 0.1235 0.17221 0.0
H114 H 0.80568 0.1517 0.24765 0.0
Cu115 Cu 0.54185 0.55788 0.55238 0.0
N116 N 0.57902 0.64055 0.58356 0.0
N117 N 0.66939 0.74623 0.56333 0.0
C118 C 0.61882 0.69062 0.52981 0.0
C119 C 0.66094 0.73146 0.64209 0.0
C120 C 0.60518 0.66547 0.65448 0.0
O121 O 0.49192 0.54507 0.44819 0.0
C122 C 0.65313 0.55232 0.62761 0.0
O123 O 0.61312 0.5391 0.69044 0.0
H124 H 0.61612 0.68375 0.46737 0.0
H125 H 0.5914 0.63657 0.7102 0.0
N126 N 0.47524 0.48888 0.62182 0.0
N127 N 0.43401 0.39334 0.68753 0.0
C128 C 0.46465 0.43079 0.62021 0.0
C129 C 0.44954 0.48827 0.69256 0.0
C130 C 0.42475 0.42926 0.73379 0.0
C131 C 0.45995 0.57192 0.42271 0.0
O132 O 0.46349 0.61569 0.46377 0.0
H133 H 0.48927 0.42035 0.57586 0.0
H134 H 0.45689 0.53031 0.71622 0.0
O135 O 0.63043 0.55836 0.55895 0.0
H136 H 0.69653 0.76396 0.68649 0.0
H137 H 0.41007 0.41721 0.79601 0.0
Cu138 Cu 0.32474 0.54949 0.22257 0.0
N139 N 0.3746 0.54717 0.1383 0.0
N140 N 0.47023 0.56219 0.07783 0.0
C141 C 0.43126 0.54265 0.14561 0.0
C142 C 0.43604 0.57801 1.0247 0.0
C143 C 0.37727 0.56904 1.06233 0.0
O144 O 0.39218 0.58255 0.31497 0.0
C145 C 0.23569 0.57779 0.12985 0.0
O146 O 0.21551 0.52412 0.0975 0.0
H147 H 0.44858 0.5323 0.20125 0.0
H148 H 0.34359 0.58367 1.03762 0.0
N149 N 0.24365 0.46774 0.25807 0.0
N150 N 0.14496 0.4054 0.33549 0.0
C151 C 0.21364 0.45976 0.32882 0.0
C152 C 0.19247 0.41594 0.21848 0.0
C153 C 0.13083 0.37721 0.26639 0.0
C154 C 0.41218 0.54879 0.35194 0.0
O155 O 0.38591 0.49019 0.33017 0.0
H156 H 0.23893 0.49726 0.37057 0.0
H157 H 0.19695 0.41001 0.15694 0.0
O158 O 0.2839 0.59908 0.18459 0.0
H159 H 0.4553 0.59927 0.96507 0.0
H160 H 1.07853 0.33485 0.24966 0.0
Cu161 Cu 0.80347 0.20855 0.86917 0.0
N162 N 0.81874 0.14694 0.84293 0.0
N163 N 0.77306 0.07183 0.75418 0.0
C164 C 0.75955 0.09073 0.81918 0.0
C165 C 0.84592 0.11297 0.74252 0.0
C166 C 0.87388 0.15982 0.79701 0.0
O167 O 0.69618 0.15445 0.89221 0.0
C168 C 0.91124 0.31971 0.76255 0.0
O169 O 0.95849 0.32367 0.81389 0.0
H170 H 0.70504 0.07252 0.83737 0.0
H171 H 0.92719 0.20583 0.79309 0.0
N172 N 0.85131 0.24933 0.95987 0.0
N173 N 0.89388 0.32325 1.04846 0.0
C174 C 0.8682 0.30798 0.97495 0.0
C175 C 0.86721 0.22679 1.02615 0.0
C176 C 0.89371 0.27281 0.08167 0.0
C177 C 0.66613 0.11603 0.95529 0.0
O178 O 0.7074 0.12026 1.01435 0.0
H179 H 0.85987 0.33799 0.93356 0.0
H180 H 0.85818 0.17961 1.03427 0.0
O181 O 0.84252 0.27609 0.77629 0.0
H182 H 0.87471 0.11629 0.69042 0.0
H183 H 0.91154 0.26966 0.14092 0.0
Cu184 Cu 0.74289 0.88937 0.32128 0.0
N185 N 0.8073 0.9658 0.26061 0.0
N186 N 0.79836 1.04251 0.20009 0.0
C187 C 0.77202 0.97892 0.20639 0.0
C188 C 0.85811 0.07184 0.24624 0.0
C189 C 0.86354 1.02404 0.28385 0.0
O190 O 0.66961 0.90249 0.36201 0.0
C191 C 0.76074 0.80252 0.24687 0.0
O192 O 0.82047 0.83554 0.28869 0.0
H193 H 0.71797 0.94063 0.18779 0.0
H194 H 0.89609 1.03023 0.33549 0.0
N195 N 0.77681 0.87424 0.41604 0.0
N196 N 0.72702 0.8039 0.52247 0.0
C197 C 0.73725 0.81139 0.44355 0.0
C198 C 0.79564 0.90826 0.48112 0.0
C199 C 0.76484 0.86472 0.54726 0.0
C200 C 0.69037 0.95575 0.39394 0.0
O201 O 0.75958 1.00453 0.39152 0.0
H202 H 0.70572 0.77241 0.40463 0.0
H203 H 0.81966 0.95991 0.47999 0.0
O204 O 0.7141 0.81619 0.25166 0.0
H205 H 0.88806 0.12185 0.26221 0.0
H206 H 0.7624 0.87664 0.60648 0.0
Cu207 Cu 0.85338 0.62042 0.74498 0.0
N208 N 0.91195 0.63502 0.66063 0.0
N209 N 0.96356 0.60925 0.57762 0.0
C210 C 0.92683 0.59248 0.64604 0.0
C211 C 0.97277 0.66454 0.54699 0.0
C212 C 0.94065 0.68071 0.59928 0.0
O213 O 0.87724 0.5818 0.83733 0.0
C214 C 0.72898 0.57261 0.64018 0.0
O215 O 0.77715 0.60606 0.58274 0.0
H216 H 0.90894 0.54892 0.68376 0.0
H217 H 0.93652 0.72147 0.59203 0.0
N218 N 0.87024 0.69663 0.77764 0.0
N219 N 0.8394 0.74156 0.86071 0.0
C220 C 0.81542 0.6955 0.8086 0.0
C221 C 0.93173 0.74742 0.80776 0.0
C222 C 0.91285 0.77566 0.85886 0.0
C223 C 0.94274 0.60245 0.85687 0.0
O224 O 0.99757 0.64927 0.8123 0.0
H225 H 0.75882 0.65465 0.80363 0.0
H226 H 0.98511 0.75752 0.80173 0.0
O227 O 0.75029 0.56861 0.71041 0.0
H228 H 1.0003 0.69083 0.49161 0.0
H229 H 0.94948 0.81257 0.89884 0.0
Cu230 Cu 0.30441 0.76568 0.43158 0.0
N231 N 0.22122 0.75141 0.38409 0.0
N232 N 0.1271 0.71313 0.30318 0.0
C233 C 0.18039 0.70775 0.33066 0.0
C234 C 0.13417 0.7617 0.34054 0.0
C235 C 0.19233 0.785 0.39129 0.0
O236 O 0.28334 0.68033 0.47614 0.0
C237 C 0.39685 0.85586 0.29398 0.0
O238 O 0.33783 0.84976 0.2675 0.0
H239 H 0.19236 0.67558 0.30921 0.0
H240 H 0.21388 0.82526 0.42849 0.0
N241 N 0.32388 0.81355 0.51921 0.0
N242 N 0.39054 0.90058 0.59027 0.0
C243 C 0.36431 0.87906 0.5179 0.0
C244 C 0.32104 0.79267 0.59548 0.0
C245 C 0.36242 0.84633 0.63952 0.0
C246 C 0.22364 0.63269 0.51077 0.0
O247 O 0.1682 0.63651 0.51355 0.0
H248 H 0.38349 0.90994 0.46328 0.0
H249 H 0.29763 0.74253 0.61619 0.0
O250 O 0.3925 0.82234 0.358 0.0
H251 H 0.10172 0.78048 0.32964 0.0
H252 H 0.37717 0.84551 0.70092 0.0
Cu253 Cu 0.57636 0.30495 0.82862 0.0
N254 N 0.50642 0.3073 0.76884 0.0
N255 N 0.44744 0.34761 0.71652 0.0
C256 C 0.5115 0.36178 0.7439 0.0
C257 C 0.40006 0.28228 0.72198 0.0
C258 C 0.43693 0.25726 0.75471 0.0
O259 O 0.64188 0.39276 0.87399 0.0
C260 C 0.58079 0.20996 0.74357 0.0
O261 O 0.51322 0.17053 0.76996 0.0
H262 H 0.56001 0.41081 0.74888 0.0
H263 H 0.41376 0.20638 0.77074 0.0
N264 N 0.52843 0.24866 0.91773 0.0
N265 N 0.51074 0.19394 1.03413 0.0
C266 C 0.55569 0.22591 0.97082 0.0
C267 C 0.4645 0.23078 0.94896 0.0
C268 C 0.45311 0.19646 1.02084 0.0
C269 C 0.61267 0.41512 0.9115 0.0
O270 O 0.54122 0.38048 0.91628 0.0
H271 H 0.60772 0.23355 0.96352 0.0
H272 H 0.4294 0.24325 0.92236 0.0
O273 O 0.61889 0.26983 0.76281 0.0
H274 H 0.3433 0.25523 0.70534 0.0
H275 H 0.40609 0.17466 1.05949 0.0
loop_
_geom_bond_atom_site_label_1
_geom_bond_atom_site_label_2
_geom_bond_distance
_geom_bond_site_symmetry_2
_ccdc_geom_bond_type
Cu0 N1 2.000 1_454 S
Cu0 O6 1.966 1_454 S
Cu0 N11 1.985 . S
Cu0 O20 1.967 . S
N1 Cu0 2.000 1_656 S
N1 C3 1.263 . S
N1 C5 1.389 1_556 S
N2 C3 1.358 . S
N2 C4 1.400 . S
C3 N1 1.263 . S
C3 N2 1.358 . S
C3 H9 0.930 . S
C4 N2 1.400 . S
C4 C5 1.351 1_556 S
C4 H21 0.930 . S
C5 N1 1.389 1_554 S
C5 C4 1.351 1_554 S
C5 H10 0.930 . S
O6 Cu0 1.966 1_656 S
O6 C16 1.282 . S
C7 O8 1.250 1_554 S
C7 O20 1.251 . S
O8 C7 1.250 1_556 S
H9 C3 0.930 . S
H10 C5 0.930 . S
N11 Cu0 1.985 . S
N11 C13 1.335 . S
N11 C14 1.390 . S
N12 C13 1.345 . S
N12 C15 1.336 . S
C13 N11 1.335 . S
C13 N12 1.345 . S
C13 H18 0.930 . S
C14 N11 1.390 . S
C14 C15 1.346 . S
C14 H19 0.930 1_554 S
C15 N12 1.336 . S
C15 C14 1.346 . S
C15 H22 0.929 . S
C16 O6 1.282 . S
C16 O17 1.216 1_655 S
O17 C16 1.216 1_455 S
H18 C13 0.930 . S
H19 C14 0.930 1_556 S
O20 Cu0 1.967 . S
O20 C7 1.251 . S
H21 C4 0.930 . S
H22 C15 0.929 . S
Cu23 N24 1.999 . S
Cu23 O29 1.974 . S
Cu23 N34 1.985 1_565 S
Cu23 O43 1.959 1_565 S
N24 Cu23 1.999 . S
N24 C26 1.263 . S
N24 C28 1.389 . S
N25 C26 1.358 . S
N25 C27 1.400 . S
C26 N24 1.263 . S
C26 N25 1.358 . S
C26 H32 0.930 . S
C27 N25 1.400 . S
C27 C28 1.351 . S
C27 H44 0.930 . S
C28 N24 1.389 . S
C28 C27 1.351 . S
C28 H33 0.930 . S
O29 Cu23 1.974 . S
O29 C39 1.282 . S
C30 O31 1.261 . S
C30 O43 1.251 . S
O31 C30 1.261 . S
H32 C26 0.930 . S
H33 C28 0.930 . S
N34 Cu23 1.985 1_545 S
N34 C36 1.335 . S
N34 C37 1.390 . S
N35 C36 1.345 . S
N35 C38 1.336 . S
C36 N34 1.335 . S
C36 N35 1.345 . S
C36 H41 0.930 . S
C37 N34 1.390 . S
C37 C38 1.346 . S
C37 H42 0.930 . S
C38 N35 1.336 . S
C38 C37 1.346 . S
C38 H45 0.929 . S
C39 O29 1.282 . S
C39 O40 1.216 . S
O40 C39 1.216 . S
H41 C36 0.930 . S
H42 C37 0.930 . S
O43 Cu23 1.959 1_545 S
O43 C30 1.251 . S
H44 C27 0.930 . S
H45 C38 0.929 . S
Cu46 N47 1.999 . S
Cu46 O52 1.974 . S
Cu46 N57 1.985 1_556 S
Cu46 O66 1.959 1_556 S
N47 Cu46 1.999 . S
N47 C49 1.263 . S
N47 C51 1.389 . S
N48 C49 1.358 . S
N48 C50 1.400 . S
C49 N47 1.263 . S
C49 N48 1.358 . S
C49 H55 0.930 . S
C50 N48 1.400 . S
C50 C51 1.351 . S
C50 H67 0.930 . S
C51 N47 1.389 . S
C51 C50 1.351 . S
C51 H56 0.930 . S
O52 Cu46 1.974 . S
O52 C62 1.282 . S
C53 O54 1.261 . S
C53 O66 1.251 . S
O54 C53 1.261 . S
H55 C49 0.930 . S
H56 C51 0.930 . S
N57 Cu46 1.985 1_554 S
N57 C59 1.335 . S
N57 C60 1.390 . S
N58 C59 1.345 . S
N58 C61 1.336 . S
C59 N57 1.335 . S
C59 N58 1.345 . S
C59 H64 0.930 . S
C60 N57 1.390 . S
C60 C61 1.346 . S
C60 H65 0.930 . S
C61 N58 1.336 . S
C61 C60 1.346 . S
C61 H68 0.929 . S
C62 O52 1.282 . S
C62 O63 1.216 1_556 S
O63 C62 1.216 1_554 S
H64 C59 0.930 . S
H65 C60 0.930 . S
O66 Cu46 1.959 1_554 S
O66 C53 1.251 . S
H67 C50 0.930 . S
H68 C61 0.929 . S
Cu69 N70 1.999 1_655 S
Cu69 O75 1.974 1_655 S
Cu69 N80 1.985 . S
Cu69 O89 1.959 . S
N70 Cu69 1.999 1_455 S
N70 C72 1.263 . S
N70 C74 1.389 1_455 S
N71 C72 1.358 . S
N71 C73 1.400 . S
C72 N70 1.263 . S
C72 N71 1.358 . S
C72 H78 0.930 . S
C73 N71 1.400 . S
C73 C74 1.351 1_455 S
C73 H90 0.930 . S
C74 N70 1.389 1_655 S
C74 C73 1.351 1_655 S
C74 H79 0.930 . S
O75 Cu69 1.974 1_455 S
O75 C85 1.282 . S
C76 O77 1.261 1_655 S
C76 O89 1.251 . S
O77 C76 1.261 1_455 S
H78 C72 0.930 . S
H79 C74 0.930 . S
N80 Cu69 1.985 . S
N80 C82 1.335 . S
N80 C83 1.390 . S
N81 C82 1.345 . S
N81 C84 1.336 . S
C82 N80 1.335 . S
C82 N81 1.345 . S
C82 H87 0.930 . S
C83 N80 1.390 . S
C83 C84 1.346 . S
C83 H88 0.930 1_655 S
C84 N81 1.336 . S
C84 C83 1.346 . S
C84 H91 0.929 . S
C85 O75 1.282 . S
C85 O86 1.216 . S
O86 C85 1.216 . S
H87 C82 0.930 . S
H88 C83 0.930 1_455 S
O89 Cu69 1.959 . S
O89 C76 1.251 . S
H90 C73 0.930 . S
H91 C84 0.929 . S
Cu92 N93 1.994 1_554 S
Cu92 O98 1.974 1_554 S
Cu92 N103 1.985 1_545 S
Cu92 O112 1.959 1_545 S
N93 Cu92 1.994 1_556 S
N93 C95 1.278 . S
N93 C97 1.380 1_556 S
N94 C95 1.358 . S
N94 C96 1.400 . S
C95 N93 1.278 . S
C95 N94 1.358 . S
C95 H101 0.930 . S
C96 N94 1.400 . S
C96 C97 1.351 1_556 S
C96 H113 0.930 1_556 S
C97 N93 1.380 1_554 S
C97 C96 1.351 1_554 S
C97 H102 0.930 . S
O98 Cu92 1.974 1_556 S
O98 C108 1.282 . S
C99 O100 1.261 . S
C99 O112 1.251 . S
O100 C99 1.261 . S
H101 C95 0.930 . S
H102 C97 0.930 . S
N103 Cu92 1.985 1_565 S
N103 C105 1.335 . S
N103 C106 1.390 . S
N104 C105 1.345 . S
N104 C107 1.336 . S
C105 N103 1.335 . S
C105 N104 1.345 . S
C105 H110 0.930 . S
C106 N103 1.390 . S
C106 C107 1.346 . S
C106 H111 0.930 1_554 S
C107 N104 1.336 . S
C107 C106 1.346 . S
C107 H114 0.929 . S
C108 O98 1.282 . S
C108 O109 1.216 . S
O109 C108 1.216 . S
H110 C105 0.930 . S
H111 C106 0.930 1_556 S
O112 Cu92 1.959 1_565 S
O112 C99 1.251 . S
H113 C96 0.930 1_554 S
H114 C107 0.929 . S
Cu115 N116 1.999 . S
Cu115 O121 1.974 . S
Cu115 N126 1.985 . S
Cu115 O135 1.959 . S
N116 Cu115 1.999 . S
N116 C118 1.263 . S
N116 C120 1.389 . S
N117 C118 1.358 . S
N117 C119 1.400 . S
C118 N116 1.263 . S
C118 N117 1.358 . S
C118 H124 0.930 . S
C119 N117 1.400 . S
C119 C120 1.351 . S
C119 H136 0.930 . S
C120 N116 1.389 . S
C120 C119 1.351 . S
C120 H125 0.930 . S
O121 Cu115 1.974 . S
O121 C131 1.282 . S
C122 O123 1.261 . S
C122 O135 1.251 . S
O123 C122 1.261 . S
H124 C118 0.930 . S
H125 C120 0.930 . S
N126 Cu115 1.985 . S
N126 C128 1.335 . S
N126 C129 1.390 . S
N127 C128 1.345 . S
N127 C130 1.336 . S
C128 N126 1.335 . S
C128 N127 1.345 . S
C128 H133 0.930 . S
C129 N126 1.390 . S
C129 C130 1.346 . S
C129 H134 0.930 . S
C130 N127 1.336 . S
C130 C129 1.346 . S
C130 H137 0.929 . S
C131 O121 1.282 . S
C131 O132 1.216 . S
O132 C131 1.216 . S
H133 C128 0.930 . S
H134 C129 0.930 . S
O135 Cu115 1.959 . S
O135 C122 1.251 . S
H136 C119 0.930 . S
H137 C130 0.929 . S
Cu138 N139 1.999 . S
Cu138 O144 1.974 . S
Cu138 N149 1.985 . S
Cu138 O158 1.959 . S
N139 Cu138 1.999 . S
N139 C141 1.263 . S
N139 C143 1.389 . S
N140 C141 1.358 . S
N140 C142 1.400 . S
C141 N139 1.263 . S
C141 N140 1.358 . S
C141 H147 0.930 . S
C142 N140 1.400 . S
C142 C143 1.351 . S
C142 H159 0.930 . S
C143 N139 1.389 . S
C143 C142 1.351 . S
C143 H148 0.930 . S
O144 Cu138 1.974 . S
O144 C154 1.282 . S
C145 O146 1.261 . S
C145 O158 1.251 . S
O146 C145 1.261 . S
H147 C141 0.930 . S
H148 C143 0.930 . S
N149 Cu138 1.985 . S
N149 C151 1.335 . S
N149 C152 1.390 . S
N150 C151 1.345 . S
N150 C153 1.336 . S
C151 N149 1.335 . S
C151 N150 1.345 . S
C151 H156 0.930 . S
C152 N149 1.390 . S
C152 C153 1.346 . S
C152 H157 0.930 . S
C153 N150 1.336 . S
C153 C152 1.346 . S
C153 H160 0.929 . S
C154 O144 1.282 . S
C154 O155 1.216 . S
O155 C154 1.216 . S
H156 C151 0.930 . S
H157 C152 0.930 . S
O158 Cu138 1.959 . S
O158 C145 1.251 . S
H159 C142 0.930 . S
H160 C153 0.929 . S
Cu161 N162 1.999 . S
Cu161 O167 1.974 . S
Cu161 N172 1.985 . S
Cu161 O181 1.959 . S
N162 Cu161 1.999 . S
N162 C164 1.263 . S
N162 C166 1.389 . S
N163 C164 1.358 . S
N163 C165 1.400 . S
C164 N162 1.263 . S
C164 N163 1.358 . S
C164 H170 0.930 . S
C165 N163 1.400 . S
C165 C166 1.351 . S
C165 H182 0.930 . S
C166 N162 1.389 . S
C166 C165 1.351 . S
C166 H171 0.930 . S
O167 Cu161 1.974 . S
O167 C177 1.282 . S
C168 O169 1.261 . S
C168 O181 1.251 . S
O169 C168 1.261 . S
H170 C164 0.930 . S
H171 C166 0.930 . S
N172 Cu161 1.985 . S
N172 C174 1.335 . S
N172 C175 1.390 . S
N173 C174 1.345 . S
N173 C176 1.336 . S
C174 N172 1.335 . S
C174 N173 1.345 . S
C174 H179 0.930 . S
C175 N172 1.390 . S
C175 C176 1.346 . S
C175 H180 0.930 . S
C176 N173 1.336 . S
C176 C175 1.346 . S
C176 H183 0.929 . S
C177 O167 1.282 . S
C177 O178 1.216 . S
O178 C177 1.216 . S
H179 C174 0.930 . S
H180 C175 0.930 . S
O181 Cu161 1.959 . S
O181 C168 1.251 . S
H182 C165 0.930 . S
H183 C176 0.929 . S
Cu184 N185 1.999 . S
Cu184 O190 1.974 . S
Cu184 N195 1.985 . S
Cu184 O204 1.959 . S
N185 Cu184 1.999 . S
N185 C187 1.263 . S
N185 C189 1.389 . S
N186 C187 1.358 . S
N186 C188 1.400 . S
C187 N185 1.263 . S
C187 N186 1.358 . S
C187 H193 0.930 . S
C188 N186 1.400 . S
C188 C189 1.351 . S
C188 H205 0.930 . S
C189 N185 1.389 . S
C189 C188 1.351 . S
C189 H194 0.930 . S
O190 Cu184 1.974 . S
O190 C200 1.282 . S
C191 O192 1.261 . S
C191 O204 1.251 . S
O192 C191 1.261 . S
H193 C187 0.930 . S
H194 C189 0.930 . S
N195 Cu184 1.985 . S
N195 C197 1.335 . S
N195 C198 1.390 . S
N196 C197 1.345 . S
N196 C199 1.336 . S
C197 N195 1.335 . S
C197 N196 1.345 . S
C197 H202 0.930 . S
C198 N195 1.390 . S
C198 C199 1.346 . S
C198 H203 0.930 . S
C199 N196 1.336 . S
C199 C198 1.346 . S
C199 H206 0.929 . S
C200 O190 1.282 . S
C200 O201 1.216 . S
O201 C200 1.216 . S
H202 C197 0.930 . S
H203 C198 0.930 . S
O204 Cu184 1.959 . S
O204 C191 1.251 . S
H205 C188 0.930 . S
H206 C199 0.929 . S
Cu207 N208 1.999 . S
Cu207 O213 1.974 . S
Cu207 N218 1.985 . S
Cu207 O227 1.959 . S
N208 Cu207 1.999 . S
N208 C210 1.263 . S
N208 C212 1.389 . S
N209 C210 1.358 . S
N209 C211 1.400 . S
C210 N208 1.263 . S
C210 N209 1.358 . S
C210 H216 0.930 . S
C211 N209 1.400 . S
C211 C212 1.351 . S
C211 H228 0.930 . S
C212 N208 1.389 . S
C212 C211 1.351 . S
C212 H217 0.930 . S
O213 Cu207 1.974 . S
O213 C223 1.282 . S
C214 O215 1.261 . S
C214 O227 1.251 . S
O215 C214 1.261 . S
H216 C210 0.930 . S
H217 C212 0.930 . S
N218 Cu207 1.985 . S
N218 C220 1.335 . S
N218 C221 1.390 . S
N219 C220 1.345 . S
N219 C222 1.336 . S
C220 N218 1.335 . S
C220 N219 1.345 . S
C220 H225 0.930 . S
C221 N218 1.390 . S
C221 C222 1.346 . S
C221 H226 0.930 . S
C222 N219 1.336 . S
C222 C221 1.346 . S
C222 H229 0.929 1_556 S
C223 O213 1.282 . S
C223 O224 1.216 . S
O224 C223 1.216 . S
H225 C220 0.930 . S
H226 C221 0.930 . S
O227 Cu207 1.959 . S
O227 C214 1.251 . S
H228 C211 0.930 . S
H229 C222 0.929 1_554 S
Cu230 N231 1.999 . S
Cu230 O236 1.974 . S
Cu230 N241 1.985 . S
Cu230 O250 1.959 . S
N231 Cu230 1.999 . S
N231 C233 1.263 . S
N231 C235 1.389 . S
N232 C233 1.358 . S
N232 C234 1.400 . S
C233 N231 1.263 . S
C233 N232 1.358 . S
C233 H239 0.930 . S
C234 N232 1.400 . S
C234 C235 1.351 . S
C234 H251 0.930 . S
C235 N231 1.389 . S
C235 C234 1.351 . S
C235 H240 0.930 . S
O236 Cu230 1.974 . S
O236 C246 1.282 . S
C237 O238 1.261 . S
C237 O250 1.251 . S
O238 C237 1.261 . S
H239 C233 0.930 . S
H240 C235 0.930 . S
N241 Cu230 1.985 . S
N241 C243 1.335 . S
N241 C244 1.390 . S
N242 C243 1.345 . S
N242 C245 1.336 . S
C243 N241 1.335 . S
C243 N242 1.345 . S
C243 H248 0.930 . S
C244 N241 1.390 . S
C244 C245 1.346 . S
C244 H249 0.930 . S
C245 N242 1.336 . S
C245 C244 1.346 . S
C245 H252 0.929 . S
C246 O236 1.282 . S
C246 O247 1.216 . S
O247 C246 1.216 . S
H248 C243 0.930 . S
H249 C244 0.930 . S
O250 Cu230 1.959 . S
O250 C237 1.251 . S
H251 C234 0.930 . S
H252 C245 0.929 . S
Cu253 N254 1.999 . S
Cu253 O259 1.974 . S
Cu253 N264 1.985 . S
Cu253 O273 1.959 . S
N254 Cu253 1.999 . S
N254 C256 1.263 . S
N254 C258 1.389 . S
N255 C256 1.358 . S
N255 C257 1.400 . S
C256 N254 1.263 . S
C256 N255 1.358 . S
C256 H262 0.930 . S
C257 N255 1.400 . S
C257 C258 1.351 . S
C257 H274 0.930 . S
C258 N254 1.389 . S
C258 C257 1.351 . S
C258 H263 0.930 . S
O259 Cu253 1.974 . S
O259 C269 1.282 . S
C260 O261 1.261 . S
C260 O273 1.251 . S
O261 C260 1.261 . S
H262 C256 0.930 . S
H263 C258 0.930 . S
N264 Cu253 1.985 . S
N264 C266 1.335 . S
N264 C267 1.390 . S
N265 C266 1.345 . S
N265 C268 1.336 . S
C266 N264 1.335 . S
C266 N265 1.345 . S
C266 H271 0.930 . S
C267 N264 1.390 . S
C267 C268 1.346 . S
C267 H272 0.930 . S
C268 N265 1.336 . S
C268 C267 1.346 . S
C268 H275 0.929 . S
C269 O259 1.282 . S
C269 O270 1.216 . S
O270 C269 1.216 . S
H271 C266 0.930 . S
H272 C267 0.930 . S
O273 Cu253 1.959 . S
O273 C260 1.251 . S
H274 C257 0.930 . S
H275 C268 0.929 . S
C7 C145 3.138 . S
C30 N163 1.780 . S
C191 N58 2.643 . S
N209 N81 1.540 . S
C237 C99 2.956 . S
N255 N127 1.748 . S
N25 C200 2.795 . S
C62 N219 1.548 . S
C246 C85 3.066 . S
N265 N94 1.584 . S
C131 C154 3.057 . S
N173 N2 1.229 . S
C223 C16 2.766 . S
C39 N242 1.070 . S
C269 N48 2.356 . S
N71 N150 0.942 . S
C108 C177 2.559 . S
N117 N196 1.154 . S
N35 C260 2.329 . S
N140 C53 0.927 . S
C76 C168 2.791 . S
N104 N186 0.677 . S
C122 C214 2.641 . S
N12 N232 0.480 . S
