# Generated by pormake.
# Topology fgl, (4,4)-cn, num edge types: 1
# Building blocks:
#     Node 0, Type 0, BuildingBlock: ESEHIV_clean_sbu_0, # of connection points: 4
#     Node 1, Type 0, BuildingBlock: ESEHIV_clean_sbu_0, # of connection points: 4
#     Node 2, Type 0, BuildingBlock: ESEHIV_clean_sbu_0, # of connection points: 4
#     Node 3, Type 0, BuildingBlock: ESEHIV_clean_sbu_0, # of connection points: 4
#     Node 4, Type 0, BuildingBlock: ESEHIV_clean_sbu_0, # of connection points: 4
#     Node 5, Type 0, BuildingBlock: ESEHIV_clean_sbu_0, # of connection points: 4
#     Node 6, Type 0, BuildingBlock: ESEHIV_clean_sbu_0, # of connection points: 4
#     Node 7, Type 0, BuildingBlock: ESEHIV_clean_sbu_0, # of connection points: 4
#     Node 8, Type 0, BuildingBlock: ESEHIV_clean_sbu_0, # of connection points: 4
#     Node 9, Type 0, BuildingBlock: ESEHIV_clean_sbu_0, # of connection points: 4
#     Node 10, Type 0, BuildingBlock: ESEHIV_clean_sbu_0, # of connection points: 4
#     Node 11, Type 0, BuildingBlock: ESEHIV_clean_sbu_0, # of connection points: 4
#     Node 12, Type 0, BuildingBlock: ESEHIV_clean_sbu_0, # of connection points: 4
#     Node 13, Type 0, BuildingBlock: ESEHIV_clean_sbu_0, # of connection points: 4
#     Node 14, Type 0, BuildingBlock: ESEHIV_clean_sbu_0, # of connection points: 4
#     Node 15, Type 0, BuildingBlock: ESEHIV_clean_sbu_0, # of connection points: 4
#     Node 16, Type 0, BuildingBlock: ESEHIV_clean_sbu_0, # of connection points: 4
#     Node 17, Type 0, BuildingBlock: ESEHIV_clean_sbu_0, # of connection points: 4
#     Node 18, Type 1, BuildingBlock: GALJAG_clean_sbu_0, # of connection points: 4
#     Node 19, Type 1, BuildingBlock: GALJAG_clean_sbu_0, # of connection points: 4
#     Node 20, Type 1, BuildingBlock: GALJAG_clean_sbu_0, # of connection points: 4
#     Node 21, Type 1, BuildingBlock: GALJAG_clean_sbu_0, # of connection points: 4
#     Node 22, Type 1, BuildingBlock: GALJAG_clean_sbu_0, # of connection points: 4
#     Node 23, Type 1, BuildingBlock: GALJAG_clean_sbu_0, # of connection points: 4
#     Node 24, Type 1, BuildingBlock: GALJAG_clean_sbu_0, # of connection points: 4
#     Node 25, Type 1, BuildingBlock: GALJAG_clean_sbu_0, # of connection points: 4
#     Node 26, Type 1, BuildingBlock: GALJAG_clean_sbu_0, # of connection points: 4
#     Node 27, Type 1, BuildingBlock: GALJAG_clean_sbu_0, # of connection points: 4
#     Node 28, Type 1, BuildingBlock: GALJAG_clean_sbu_0, # of connection points: 4
#     Node 29, Type 1, BuildingBlock: GALJAG_clean_sbu_0, # of connection points: 4
#     Node 30, Type 1, BuildingBlock: GALJAG_clean_sbu_0, # of connection points: 4
#     Node 31, Type 1, BuildingBlock: GALJAG_clean_sbu_0, # of connection points: 4
#     Node 32, Type 1, BuildingBlock: GALJAG_clean_sbu_0, # of connection points: 4
#     Node 33, Type 1, BuildingBlock: GALJAG_clean_sbu_0, # of connection points: 4
#     Node 34, Type 1, BuildingBlock: GALJAG_clean_sbu_0, # of connection points: 4
#     Node 35, Type 1, BuildingBlock: GALJAG_clean_sbu_0, # of connection points: 4
#     Edge 36, Type (0, 1), BuildingBlock: OJICUG_clean_linker_0, # of connection points: 2
#     Edge 37, Type (0, 1), BuildingBlock: OJICUG_clean_linker_0, # of connection points: 2
#     Edge 38, Type (0, 1), BuildingBlock: OJICUG_clean_linker_0, # of connection points: 2
#     Edge 39, Type (0, 1), BuildingBlock: OJICUG_clean_linker_0, # of connection points: 2
#     Edge 40, Type (0, 1), BuildingBlock: OJICUG_clean_linker_0, # of connection points: 2
#     Edge 41, Type (0, 1), BuildingBlock: OJICUG_clean_linker_0, # of connection points: 2
#     Edge 42, Type (0, 1), BuildingBlock: OJICUG_clean_linker_0, # of connection points: 2
#     Edge 43, Type (0, 1), BuildingBlock: OJICUG_clean_linker_0, # of connection points: 2
#     Edge 44, Type (0, 1), BuildingBlock: OJICUG_clean_linker_0, # of connection points: 2
#     Edge 45, Type (0, 1), BuildingBlock: OJICUG_clean_linker_0, # of connection points: 2
#     Edge 46, Type (0, 1), BuildingBlock: OJICUG_clean_linker_0, # of connection points: 2
#     Edge 47, Type (0, 1), BuildingBlock: OJICUG_clean_linker_0, # of connection points: 2
#     Edge 48, Type (0, 1), BuildingBlock: OJICUG_clean_linker_0, # of connection points: 2
#     Edge 49, Type (0, 1), BuildingBlock: OJICUG_clean_linker_0, # of connection points: 2
#     Edge 50, Type (0, 1), BuildingBlock: OJICUG_clean_linker_0, # of connection points: 2
#     Edge 51, Type (0, 1), BuildingBlock: OJICUG_clean_linker_0, # of connection points: 2
#     Edge 52, Type (0, 1), BuildingBlock: OJICUG_clean_linker_0, # of connection points: 2
#     Edge 53, Type (0, 1), BuildingBlock: OJICUG_clean_linker_0, # of connection points: 2
#     Edge 54, Type (0, 1), BuildingBlock: OJICUG_clean_linker_0, # of connection points: 2
#     Edge 55, Type (0, 1), BuildingBlock: OJICUG_clean_linker_0, # of connection points: 2
#     Edge 56, Type (0, 1), BuildingBlock: OJICUG_clean_linker_0, # of connection points: 2
#     Edge 57, Type (0, 1), BuildingBlock: OJICUG_clean_linker_0, # of connection points: 2
#     Edge 58, Type (0, 1), BuildingBlock: OJICUG_clean_linker_0, # of connection points: 2
#     Edge 59, Type (0, 1), BuildingBlock: OJICUG_clean_linker_0, # of connection points: 2
#     Edge 60, Type (0, 1), BuildingBlock: OJICUG_clean_linker_0, # of connection points: 2
#     Edge 61, Type (0, 1), BuildingBlock: OJICUG_clean_linker_0, # of connection points: 2
#     Edge 62, Type (0, 1), BuildingBlock: OJICUG_clean_linker_0, # of connection points: 2
#     Edge 63, Type (0, 1), BuildingBlock: OJICUG_clean_linker_0, # of connection points: 2
#     Edge 64, Type (0, 1), BuildingBlock: OJICUG_clean_linker_0, # of connection points: 2
#     Edge 65, Type (0, 1), BuildingBlock: OJICUG_clean_linker_0, # of connection points: 2
#     Edge 66, Type (0, 1), BuildingBlock: OJICUG_clean_linker_0, # of connection points: 2
#     Edge 67, Type (0, 1), BuildingBlock: OJICUG_clean_linker_0, # of connection points: 2
#     Edge 68, Type (0, 1), BuildingBlock: OJICUG_clean_linker_0, # of connection points: 2
#     Edge 69, Type (0, 1), BuildingBlock: OJICUG_clean_linker_0, # of connection points: 2
#     Edge 70, Type (0, 1), BuildingBlock: OJICUG_clean_linker_0, # of connection points: 2
#     Edge 71, Type (0, 1), BuildingBlock: OJICUG_clean_linker_0, # of connection points: 2
#     Edge 72, Type (0, 1), BuildingBlock: OJICUG_clean_linker_0, # of connection points: 2
#     Edge 73, Type (0, 1), BuildingBlock: OJICUG_clean_linker_0, # of connection points: 2
#     Edge 74, Type (0, 1), BuildingBlock: OJICUG_clean_linker_0, # of connection points: 2
#     Edge 75, Type (0, 1), BuildingBlock: OJICUG_clean_linker_0, # of connection points: 2
#     Edge 76, Type (0, 1), BuildingBlock: OJICUG_clean_linker_0, # of connection points: 2
#     Edge 77, Type (0, 1), BuildingBlock: OJICUG_clean_linker_0, # of connection points: 2
#     Edge 78, Type (0, 1), BuildingBlock: OJICUG_clean_linker_0, # of connection points: 2
#     Edge 79, Type (0, 1), BuildingBlock: OJICUG_clean_linker_0, # of connection points: 2
#     Edge 80, Type (0, 1), BuildingBlock: OJICUG_clean_linker_0, # of connection points: 2
#     Edge 81, Type (0, 1), BuildingBlock: OJICUG_clean_linker_0, # of connection points: 2
#     Edge 82, Type (0, 1), BuildingBlock: OJICUG_clean_linker_0, # of connection points: 2
#     Edge 83, Type (0, 1), BuildingBlock: OJICUG_clean_linker_0, # of connection points: 2
#     Edge 84, Type (0, 1), BuildingBlock: OJICUG_clean_linker_0, # of connection points: 2
#     Edge 85, Type (0, 1), BuildingBlock: OJICUG_clean_linker_0, # of connection points: 2
#     Edge 86, Type (0, 1), BuildingBlock: OJICUG_clean_linker_0, # of connection points: 2
#     Edge 87, Type (0, 1), BuildingBlock: OJICUG_clean_linker_0, # of connection points: 2
#     Edge 88, Type (0, 1), BuildingBlock: OJICUG_clean_linker_0, # of connection points: 2
#     Edge 89, Type (0, 1), BuildingBlock: OJICUG_clean_linker_0, # of connection points: 2
#     Edge 90, Type (0, 1), BuildingBlock: OJICUG_clean_linker_0, # of connection points: 2
#     Edge 91, Type (0, 1), BuildingBlock: OJICUG_clean_linker_0, # of connection points: 2
#     Edge 92, Type (0, 1), BuildingBlock: OJICUG_clean_linker_0, # of connection points: 2
#     Edge 93, Type (0, 1), BuildingBlock: OJICUG_clean_linker_0, # of connection points: 2
#     Edge 94, Type (0, 1), BuildingBlock: OJICUG_clean_linker_0, # of connection points: 2
#     Edge 95, Type (0, 1), BuildingBlock: OJICUG_clean_linker_0, # of connection points: 2
#     Edge 96, Type (0, 1), BuildingBlock: OJICUG_clean_linker_0, # of connection points: 2
#     Edge 97, Type (0, 1), BuildingBlock: OJICUG_clean_linker_0, # of connection points: 2
#     Edge 98, Type (0, 1), BuildingBlock: OJICUG_clean_linker_0, # of connection points: 2
#     Edge 99, Type (0, 1), BuildingBlock: OJICUG_clean_linker_0, # of connection points: 2
#     Edge 100, Type (0, 1), BuildingBlock: OJICUG_clean_linker_0, # of connection points: 2
#     Edge 101, Type (0, 1), BuildingBlock: OJICUG_clean_linker_0, # of connection points: 2
#     Edge 102, Type (0, 1), BuildingBlock: OJICUG_clean_linker_0, # of connection points: 2
#     Edge 103, Type (0, 1), BuildingBlock: OJICUG_clean_linker_0, # of connection points: 2
#     Edge 104, Type (0, 1), BuildingBlock: OJICUG_clean_linker_0, # of connection points: 2
#     Edge 105, Type (0, 1), BuildingBlock: OJICUG_clean_linker_0, # of connection points: 2
#     Edge 106, Type (0, 1), BuildingBlock: OJICUG_clean_linker_0, # of connection points: 2
#     Edge 107, Type (0, 1), BuildingBlock: OJICUG_clean_linker_0, # of connection points: 2
# Relax obj value: 0.035
# Max RMSD: 0.120
# Mean RMSD: 0.093
data_MOF--net-fgl--node1-ESEHIV_clean_sbu_0--node2-GALJAG_clean_sbu_0--edge1-OJICUG_clean_linker_0
_symmetry_space_group_name_H-M    P1
_symmetry_Int_Tables_number       1
_symmetry_cell_setting            triclinic
loop_
_symmetry_equiv_pos_as_xyz
'x, y, z'
_cell_length_a     55.795773
_cell_length_b     55.821739
_cell_length_c     37.348317
_cell_angle_alpha  90.174498
_cell_angle_beta   90.614471
_cell_angle_gamma 119.75136
loop_
_atom_site_label
_atom_site_type_symbol
_atom_site_fract_x
_atom_site_fract_y
_atom_site_fract_z
_atom_type_partial_charge
Cu0 Cu 0.03707 0.55522 0.01837 0.0
N1 N 1.01627 0.56135 0.05245 0.0
N2 N 1.00897 0.5837 0.09727 0.0
C3 C 0.02751 0.58355 0.07446 0.0
C4 C 0.98498 0.56049 0.0892 0.0
C5 C 0.98952 0.54679 0.06143 0.0
O6 O 0.05991 0.59163 0.99848 0.0
C7 C 0.0398 0.5148 0.05355 0.0
O8 O 1.01317 0.50574 0.05061 0.0
H9 H 0.04917 0.59902 0.07415 0.0
H10 H 0.97448 0.52754 0.04896 0.0
N11 N 1.01697 0.53009 0.9815 0.0
N12 N 1.01114 0.50268 0.9344 0.0
C13 C 0.02846 0.51893 0.96061 0.0
C14 C 0.99118 0.52034 0.96846 0.0
C15 C 0.98748 0.50329 0.93938 0.0
C16 C 0.05596 0.59719 0.96665 0.0
O17 O 0.04547 0.57735 0.94251 0.0
H18 H 0.04944 0.5231 0.96443 0.0
H19 H 0.9764 0.52572 0.97874 0.0
O20 O 0.05647 0.53893 0.04236 0.0
H21 H 0.96549 0.55389 0.10226 0.0
H22 H 0.96917 0.49294 0.92255 0.0
Cu23 Cu 0.5613 0.55841 0.0484 0.0
N24 N 0.59034 0.56232 0.01979 0.0
N25 N 0.62025 0.57976 0.97469 0.0
C26 C 0.59755 0.57779 0.99009 0.0
C27 C 0.62745 0.56455 0.99567 0.0
C28 C 0.609 0.55387 0.0235 0.0
O29 O 0.57079 0.59744 0.05643 0.0
C30 C 0.52552 0.50733 0.01821 0.0
O31 O 0.54764 0.50558 0.02579 0.0
H32 H 0.5862 0.58754 0.98031 0.0
H33 H 0.60945 0.5412 0.04502 0.0
N34 N 0.55967 0.54369 0.09389 0.0
N35 N 0.54169 0.52745 0.14762 0.0
C36 C 0.53759 0.53529 0.11507 0.0
C37 C 0.57845 0.54088 0.11362 0.0
C38 C 0.56743 0.53094 0.14687 0.0
C39 C 0.59332 0.61131 0.07458 0.0
O40 O 0.60611 0.59836 0.08607 0.0
H41 H 0.51918 0.53585 0.10705 0.0
H42 H 0.59897 0.54641 0.10499 0.0
O43 O 0.52632 0.53033 0.02475 0.0
H44 H 0.64512 0.5618 0.99184 0.0
H45 H 0.57761 0.52674 0.1688 0.0
Cu46 Cu 0.55484 0.07918 0.02375 0.0
N47 N 0.54628 0.09607 0.98682 0.0
N48 N 0.5258 0.09732 0.93582 0.0
C49 C 0.52991 0.0814 0.95928 0.0
C50 C 0.54015 0.12323 0.94939 0.0
C51 C 0.55289 0.12241 0.98098 0.0
O52 O 0.51909 0.05217 0.04362 0.0
C53 C 0.59833 0.08342 0.98501 0.0
O54 O 0.5995 0.10703 0.97823 0.0
H55 H 0.52057 0.0592 0.95725 0.0
H56 H 0.56585 0.13965 0.99842 0.0
N57 N 0.57683 0.10313 0.05996 0.0
N58 N 0.6084 0.11696 0.10396 0.0
C59 C 0.5949 0.09824 0.07782 0.0
C60 C 0.57872 0.12589 0.07523 0.0
C61 C 0.59821 0.13442 0.10271 0.0
C62 C 0.50412 0.06257 0.05253 0.0
O63 O 0.51421 0.08928 0.04931 0.0
H64 H 0.5972 0.08042 0.07253 0.0
H65 H 0.56651 0.13524 0.06752 0.0
O66 O 0.57841 0.06568 1.00378 0.0
H67 H 0.5414 0.14144 0.93743 0.0
H68 H 0.6041 0.15183 0.12056 0.0
Cu69 Cu 0.54913 0.05906 0.52331 0.0
N70 N 0.54916 0.04787 0.47652 0.0
N71 N 0.56684 0.04609 0.42399 0.0
C72 C 0.5723 0.05571 0.45794 0.0
C73 C 0.539 0.03135 0.42125 0.0
C74 C 0.52811 0.03254 0.45381 0.0
O75 O 0.58191 0.06042 0.54683 0.0
C76 C 0.53974 0.10185 0.49449 0.0
O77 O 0.54654 0.09573 0.46365 0.0
H78 H 0.59276 0.06835 0.46934 0.0
H79 H 0.50649 0.02344 0.46024 0.0
N80 N 0.51814 0.03314 0.5473 0.0
N81 N 0.4853 0.0184 0.58839 0.0
C82 C 0.50832 0.04005 0.57572 0.0
C83 C 0.50074 1.00604 0.5415 0.0
C84 C 0.48045 0.99678 0.56717 0.0
C85 C 0.5811 0.03705 0.54812 0.0
O86 O 0.55908 0.01531 0.53504 0.0
H87 H 0.51809 0.06069 0.58701 0.0
H88 H 0.50255 0.99396 0.5201 0.0
O89 O 0.54367 0.09162 0.52314 0.0
H90 H 0.5273 0.02105 0.39727 0.0
H91 H 0.46326 0.97601 0.56961 0.0
Cu92 Cu 0.06466 0.57429 0.52775 0.0
N93 N 0.08604 0.56557 0.55869 0.0
N94 N 0.09214 0.54088 0.60179 0.0
C95 C 0.07433 0.54729 0.58541 0.0
C96 C 0.11623 0.55596 0.58451 0.0
C97 C 0.1124 0.57108 0.55791 0.0
O98 O 0.03348 0.53722 0.51795 0.0
C99 C 0.08026 0.62437 0.55903 0.0
O100 O 0.10376 0.62438 0.55712 0.0
H101 H 0.0526 0.53784 0.59141 0.0
H102 H 0.12751 0.58442 0.53878 0.0
N103 N 0.08038 0.59142 0.4843 0.0
N104 N 0.08299 0.61434 0.4338 0.0
C105 C 0.06942 0.60395 0.46465 0.0
C106 C 0.10193 0.59402 0.46547 0.0
C107 C 0.10357 0.60811 0.43428 0.0
C108 C 0.0307 0.52534 0.48768 0.0
O109 O 0.04168 0.54058 0.45934 0.0
H110 H 0.05117 0.60461 0.47262 0.0
H111 H 0.11523 0.58598 0.47351 0.0
O112 O 0.05805 0.60221 0.55042 0.0
H113 H 0.13524 0.55587 0.59025 0.0
H114 H 0.1188 0.61333 0.41365 0.0
Cu115 Cu 0.54978 0.52888 0.57659 0.0
N116 N 0.58039 0.53062 0.55469 0.0
N117 N 0.62158 0.55263 0.52894 0.0
C118 C 0.60451 0.5543 0.55269 0.0
C119 C 0.60773 0.52674 0.51541 0.0
C120 C 0.58226 0.51307 0.53159 0.0
O121 O 0.56475 0.55882 0.61206 0.0
C122 C 0.51207 0.50641 0.52145 0.0
O123 O 0.51544 0.48567 0.53102 0.0
H124 H 0.60837 0.57326 0.56574 0.0
H125 H 0.56567 0.49259 0.52497 0.0
N126 N 0.52896 0.49616 0.60141 0.0
N127 N 0.49027 0.46187 0.62363 0.0
C128 C 0.50368 0.48849 0.61372 0.0
C129 C 0.53205 0.4738 0.60421 0.0
C130 C 0.508 0.45245 0.61775 0.0
C131 C 0.57791 0.55445 0.63698 0.0
O132 O 0.57881 0.53138 0.63588 0.0
H133 H 0.49427 0.50139 0.61191 0.0
H134 H 0.54958 0.47253 0.5945 0.0
O135 O 0.52578 0.52945 0.53809 0.0
H136 H 0.61482 0.51886 0.49391 0.0
H137 H 0.50326 0.43128 0.62086 0.0
Cu138 Cu 0.68837 0.87684 0.3643 0.0
N139 N 0.66318 0.88669 0.34663 0.0
N140 N 0.65268 0.91525 0.31769 0.0
C141 C 0.67018 0.90528 0.32041 0.0
C142 C 0.63322 0.90163 0.34252 0.0
C143 C 0.63984 0.88402 0.36055 0.0
O144 O 0.70856 0.90303 0.40476 0.0
C145 C 0.6875 0.85294 0.29971 0.0
O146 O 0.66161 0.84137 0.30962 0.0
H147 H 0.68946 0.91349 0.30623 0.0
H148 H 0.62992 0.87228 0.38417 0.0
N149 N 0.67192 0.84212 0.38529 0.0
N150 N 0.67032 0.80333 0.40385 0.0
C151 C 0.68373 0.82625 0.38398 0.0
C152 C 0.65016 0.82897 0.40701 0.0
C153 C 0.64912 0.80492 0.41856 0.0
C154 C 0.71188 0.92739 0.40789 0.0
O155 O 0.70767 0.93888 0.37972 0.0
H156 H 0.70278 0.83227 0.37007 0.0
H157 H 0.63667 0.83673 0.41492 0.0
O158 O 0.70577 0.8717 0.32048 0.0
H159 H 0.61717 0.90621 0.34971 0.0
H160 H 0.63429 0.79012 0.43685 0.0
Cu161 Cu 0.23585 0.91329 0.37305 0.0
N162 N 0.2263 0.87692 0.36036 0.0
N163 N 0.1978 0.83494 0.33714 0.0
C164 C 0.20626 0.86213 0.33595 0.0
C165 C 0.21366 0.83249 0.36278 0.0
C166 C 0.23116 0.85844 0.37724 0.0
O167 O 0.2064 0.90813 0.40586 0.0
C168 C 0.262 0.93171 0.31034 0.0
O169 O 0.27286 0.9178 0.3249 0.0
H170 H 0.19653 0.87088 0.31945 0.0
H171 H 0.24473 0.86309 0.40026 0.0
N172 N 0.26836 0.93346 0.40068 0.0
N173 N 0.30226 0.97186 0.42695 0.0
C174 C 0.28566 0.96095 0.39777 0.0
C175 C 0.27434 0.92675 0.43284 0.0
C176 C 0.29523 0.95033 0.44903 0.0
C177 C 0.18114 0.88946 0.40214 0.0
O178 O 0.17116 0.88054 0.36983 0.0
H179 H 0.28434 0.97315 0.37617 0.0
H180 H 0.2628 0.90664 0.44492 0.0
O181 O 0.24306 0.93325 0.32752 0.0
H182 H 0.21109 0.81312 0.37253 0.0
H183 H 0.30364 0.95176 0.47571 0.0
Cu184 Cu 0.23349 0.44259 0.37291 0.0
N185 N 0.22525 0.46395 0.34251 0.0
N186 N 0.20068 0.46878 0.29855 0.0
C187 C 0.2027 0.45134 0.32142 0.0
C188 C 0.22302 0.49369 0.30535 0.0
C189 C 0.23811 0.49071 0.33303 0.0
O190 O 0.19716 0.41492 0.39075 0.0
C191 C 0.27867 0.4505 0.33579 0.0
O192 O 0.28203 0.47546 0.338 0.0
H193 H 0.18864 0.42929 0.32171 0.0
H194 H 0.25742 0.50664 0.34443 0.0
N195 N 0.25507 0.45958 0.41327 0.0
N196 N 0.27568 0.45679 0.4634 0.0
C197 C 0.26459 0.44531 0.43141 0.0
C198 C 0.26097 0.48171 0.43385 0.0
C199 C 0.27381 0.48003 0.46503 0.0
C200 C 0.18642 0.42583 0.41041 0.0
O201 O 0.20068 0.4525 0.41674 0.0
H202 H 0.26215 0.42601 0.42149 0.0
H203 H 0.2549 0.4969 0.42776 0.0
O204 O 0.25623 0.43041 0.34745 0.0
H205 H 0.22824 0.51246 0.29105 0.0
H206 H 0.27972 0.49391 0.48783 0.0
Cu207 Cu 0.19613 0.35938 0.89017 0.0
N208 N 0.19425 0.33934 0.84965 0.0
N209 N 0.20722 0.3378 0.79384 0.0
C210 C 0.21375 0.35185 0.82505 0.0
C211 C 0.18265 0.31483 0.79947 0.0
C212 C 0.17458 0.3159 0.83413 0.0
O213 O 0.23317 0.37029 0.9109 0.0
C214 C 0.16262 0.37547 0.85606 0.0
O215 O 0.14796 0.34843 0.85546 0.0
H216 H 0.23193 0.37167 0.82998 0.0
H217 H 0.15513 0.30164 0.84619 0.0
N218 N 0.16949 0.33993 0.92434 0.0
N219 N 0.14186 0.33572 0.96945 0.0
C220 C 0.16019 0.35285 0.94561 0.0
C221 C 0.15648 0.31341 0.93487 0.0
C222 C 0.13949 0.31081 0.96315 0.0
C223 C 0.23606 0.34975 0.92026 0.0
O224 O 0.21458 0.32489 0.91685 0.0
H225 H 0.16733 0.37474 0.94413 0.0
H226 H 0.15928 0.29724 0.92315 0.0
O227 O 0.18645 0.38691 0.87158 0.0
H228 H 0.17067 0.29914 0.77959 0.0
H229 H 0.12638 0.29216 0.97773 0.0
Cu230 Cu 0.72965 0.8941 0.84637 0.0
N231 N 0.74517 0.87473 0.82491 0.0
N232 N 0.74664 0.83721 0.80683 0.0
C233 C 0.73536 0.84753 0.82957 0.0
C234 C 0.76429 0.85883 0.78685 0.0
C235 C 0.7633 0.88199 0.79806 0.0
O236 O 0.71247 0.87255 0.89074 0.0
C237 C 0.70618 0.92184 0.8035 0.0
O238 O 0.70873 0.93638 0.8324 0.0
H239 H 0.71889 0.83517 0.84781 0.0
H240 H 0.77396 0.90227 0.78628 0.0
N241 N 0.7557 0.92894 0.86361 0.0
N242 N 0.76911 0.9688 0.89242 0.0
C243 C 0.7491 0.94236 0.88801 0.0
C244 C 0.7812 0.94729 0.85262 0.0
C245 C 0.7896 0.97202 0.87054 0.0
C246 C 0.73087 0.87204 0.91133 0.0
O247 O 0.75664 0.88574 0.90088 0.0
H248 H 0.72909 0.93331 0.90048 0.0
H249 H 0.79212 0.94354 0.83157 0.0
O250 O 0.7101 0.9011 0.80598 0.0
H251 H 0.77646 0.85785 0.76512 0.0
H252 H 0.80829 0.99135 0.86577 0.0
Cu253 Cu 0.21022 0.89288 0.86195 0.0
N254 N 0.19376 0.8952 0.81906 0.0
N255 N 0.17238 0.88175 0.76555 0.0
C256 C 0.17892 0.87377 0.79655 0.0
C257 C 0.18318 0.90933 0.76907 0.0
C258 C 0.19644 0.91757 0.80202 0.0
O259 O 0.18478 0.85778 0.88293 0.0
C260 C 0.25325 0.89281 0.82141 0.0
O261 O 0.23469 0.88064 0.79583 0.0
H262 H 0.1739 0.85283 0.80243 0.0
H263 H 0.20814 0.93849 0.81221 0.0
N264 N 0.21826 0.92163 0.8943 0.0
N265 N 0.23812 0.94871 0.9424 0.0
C266 C 0.23769 0.92933 0.92026 0.0
C267 C 0.20604 0.93689 0.89973 0.0
C268 C 0.21835 0.95373 0.92938 0.0
C269 C 0.17543 0.85497 0.91451 0.0
O270 O 0.18579 0.87621 0.93656 0.0
H271 H 0.25085 0.92031 0.92318 0.0
H272 H 0.1889 0.93527 0.884 0.0
O273 O 0.24574 0.89643 0.85199 0.0
H274 H 0.18271 0.92281 0.74865 0.0
H275 H 0.21246 0.96775 0.94116 0.0
Cu276 Cu 0.37274 0.22042 0.72867 0.0
N277 N 0.34278 0.21929 0.70514 0.0
N278 N 0.31759 0.23578 0.68023 0.0
C279 C 0.337 0.23989 0.70505 0.0
C280 C 0.31078 0.21155 0.66406 0.0
C281 C 0.3263 0.20127 0.67975 0.0
O282 O 0.3867 0.252 0.76375 0.0
C283 C 0.39637 0.22622 0.65782 0.0
O284 O 0.38675 0.24299 0.65107 0.0
H285 H 0.34846 0.25862 0.72079 0.0
H286 H 0.32696 0.18299 0.6716 0.0
N287 N 0.35968 0.18748 0.75327 0.0
N288 N 0.35348 0.14595 0.76706 0.0
C289 C 0.36639 0.16804 0.74564 0.0
C290 C 0.34177 0.17743 0.78042 0.0
C291 C 0.33805 0.15178 0.78922 0.0
C292 C 0.39407 0.25131 0.79622 0.0
O293 O 0.39721 0.23045 0.80609 0.0
H294 H 0.38086 0.17032 0.72508 0.0
H295 H 0.33217 0.18801 0.79288 0.0
O296 O 0.39592 0.2182 0.69005 0.0
H297 H 0.29662 0.20263 0.64155 0.0
H298 H 0.32488 0.13842 0.81001 0.0
Cu299 Cu 0.89232 0.21009 0.69476 0.0
N300 N 0.92174 0.21789 0.6644 0.0
N301 N 0.95305 0.24375 0.62369 0.0
C302 C 0.93082 0.23958 0.64235 0.0
C303 C 0.95812 0.2235 0.63405 0.0
C304 C 0.93883 0.20763 0.65953 0.0
O305 O 0.9016 0.24795 0.70877 0.0
C306 C 0.85638 0.16141 0.6606 0.0
O307 O 0.8787 0.15945 0.66532 0.0
H308 H 0.92118 0.25225 0.64024 0.0
H309 H 0.93768 0.19026 0.67376 0.0
N310 N 0.89009 0.19172 0.73739 0.0
N311 N 0.8708 0.17183 0.78921 0.0
C312 C 0.86964 0.18584 0.76054 0.0
C313 C 0.90494 0.18104 0.75169 0.0
C314 C 0.89312 0.16884 0.78388 0.0
C315 C 0.92314 0.25956 0.72913 0.0
O316 O 0.93397 0.24472 0.74045 0.0
H317 H 0.85424 0.19198 0.75629 0.0
H318 H 0.92285 0.18188 0.73958 0.0
O319 O 0.85735 0.184 0.66997 0.0
H320 H 0.97494 0.22083 0.62466 0.0
H321 H 0.9001 0.15814 0.80155 0.0
Cu322 Cu 0.8969 0.7442 0.6868 0.0
N323 N 0.88556 0.76436 0.65873 0.0
N324 N 0.86275 0.77024 0.61323 0.0
C325 C 0.87202 0.75418 0.62756 0.0
C326 C 0.87083 0.79155 0.63649 0.0
C327 C 0.88503 0.78789 0.66463 0.0
O328 O 0.86243 0.71094 0.69763 0.0
C329 C 0.94165 0.75954 0.64337 0.0
O330 O 0.94057 0.78251 0.64416 0.0
H331 H 0.86774 0.73443 0.6167 0.0
H332 H 0.89348 0.80092 0.68812 0.0
N333 N 0.91484 0.76171 0.72932 0.0
N334 N 0.93795 0.76539 0.78016 0.0
C335 C 0.93239 0.75549 0.7463 0.0
C336 C 0.90939 0.77657 0.75292 0.0
C337 C 0.92382 0.77905 0.78432 0.0
C338 C 0.85516 0.70165 0.72912 0.0
O339 O 0.87384 0.71007 0.75488 0.0
H340 H 0.93931 0.74222 0.73471 0.0
H341 H 0.89435 0.78317 0.7487 0.0
O342 O 0.92329 0.73852 0.65974 0.0
H343 H 0.86631 0.80821 0.63379 0.0
H344 H 0.92226 0.78825 0.80911 0.0
Cu345 Cu 0.86676 0.71819 0.1814 0.0
N346 N 0.86981 0.70007 0.14109 0.0
N347 N 0.89157 0.69325 0.09556 0.0
C348 C 0.89374 0.70943 0.12375 0.0
C349 C 0.86498 0.67267 0.09537 0.0
C350 C 0.85162 0.6769 0.12356 0.0
O351 O 0.90316 0.73201 0.20586 0.0
C352 C 0.83044 0.73203 0.1486 0.0
O353 O 0.81928 0.70558 0.14131 0.0
H354 H 0.9125 0.7277 0.13228 0.0
H355 H 0.83019 0.66405 0.13054 0.0
N356 N 0.83993 0.69463 0.21312 0.0
N357 N 0.81344 0.68354 0.26148 0.0
C358 C 0.83311 0.7041 0.2421 0.0
C359 C 0.82397 0.66699 0.21381 0.0
C360 C 0.80753 0.66007 0.24371 0.0
C361 C 0.90671 0.7131 0.2202 0.0
O362 O 0.88598 0.68768 0.21958 0.0
H363 H 0.8423 0.72585 0.24843 0.0
H364 H 0.82448 0.65288 0.19437 0.0
O365 O 0.85346 0.74377 0.16606 0.0
H366 H 0.85562 0.65591 0.07608 0.0
H367 H 0.79276 0.63938 0.25196 0.0
Cu368 Cu 0.40844 0.24643 0.21926 0.0
N369 N 0.42282 0.22545 0.20008 0.0
N370 N 0.42126 0.18715 0.17908 0.0
C371 C 0.40765 0.20137 0.18245 0.0
C372 C 0.44627 0.20332 0.19458 0.0
C373 C 0.44715 0.22693 0.20756 0.0
O374 O 0.39348 0.22981 0.2669 0.0
C375 C 0.38578 0.27402 0.17568 0.0
O376 O 0.39236 0.29082 0.20329 0.0
H377 H 0.3861 0.19328 0.17544 0.0
H378 H 0.46355 0.24306 0.2235 0.0
N379 N 0.43638 0.28171 0.23178 0.0
N380 N 0.45131 0.32377 0.25494 0.0
C381 C 0.43278 0.29667 0.2572 0.0
C382 C 0.4586 0.29975 0.21333 0.0
C383 C 0.46798 0.32582 0.22777 0.0
C384 C 0.3841 0.20452 0.27553 0.0
O385 O 0.37659 0.18577 0.25011 0.0
H386 H 0.415 0.28816 0.27442 0.0
H387 H 0.46571 0.29479 0.18908 0.0
O388 O 0.38728 0.25193 0.17927 0.0
H389 H 0.46227 0.1979 0.19795 0.0
H390 H 0.48391 0.345 0.21674 0.0
Cu391 Cu 0.87658 0.23874 0.22057 0.0
N392 N 0.85216 0.23534 0.18392 0.0
N393 N 0.82473 0.21549 0.13619 0.0
C394 C 0.84183 0.21401 0.1607 0.0
C395 C 0.82433 0.2389 0.14428 0.0
C396 C 0.84122 0.25108 0.174 0.0
O397 O 0.86201 0.20096 0.23635 0.0
C398 C 0.92208 0.28144 0.19239 0.0
O399 O 0.90465 0.29079 0.194 0.0
H400 H 0.84731 0.19794 0.16145 0.0
H401 H 0.84528 0.27001 0.18727 0.0
N402 N 0.87809 0.2612 0.25868 0.0
N403 N 0.89723 0.28874 0.30635 0.0
C404 C 0.9011 0.27557 0.27869 0.0
C405 C 0.85873 0.26534 0.27409 0.0
C406 C 0.87052 0.28231 0.30381 0.0
C407 C 0.85138 0.19309 0.26708 0.0
O408 O 0.85919 0.21127 0.29328 0.0
H409 H 0.92009 0.27539 0.27378 0.0
H410 H 0.83748 0.2561 0.26501 0.0
O411 O 0.91372 0.25656 0.20147 0.0
H412 H 0.81258 0.24657 0.12998 0.0
H413 H 0.86023 0.28915 0.32219 0.0
In414 In 0.0472 0.69751 0.26901 0.0
O415 O 0.09338 0.7277 0.2591 0.0
O416 O 0.07314 0.73933 0.29734 0.0
C417 C 0.03368 0.66272 0.21177 0.0
C418 C 0.05515 0.66857 0.32221 0.0
C419 C 1.00587 0.7102 0.26025 0.0
O420 O 0.05352 0.68732 0.2112 0.0
O421 O 0.02073 0.65597 0.24085 0.0
O422 O 1.00579 0.69434 0.28448 0.0
O423 O 0.0271 0.72023 0.24096 0.0
C424 C 0.09552 0.74515 0.28235 0.0
O425 O 0.03955 0.67883 0.32609 0.0
O426 O 0.06578 0.67233 0.29172 0.0
In427 In 0.43414 0.45878 0.32086 0.0
O428 O 0.44141 0.46934 0.26118 0.0
O429 O 0.47466 0.49218 0.29756 0.0
C430 C 0.38264 0.45292 0.31927 0.0
C431 C 0.43907 0.41376 0.30714 0.0
C432 C 0.45196 0.47791 0.38846 0.0
O433 O 0.40373 0.47422 0.30804 0.0
O434 O 0.38753 0.43471 0.33137 0.0
O435 O 0.43851 0.45263 0.38024 0.0
O436 O 0.45609 0.49394 0.3626 0.0
C437 C 0.4665 0.48742 0.26536 0.0
O438 O 0.45863 0.43587 0.31974 0.0
O439 O 0.41678 0.41401 0.30247 0.0
In440 In 0.68314 0.07242 0.26486 0.0
O441 O 0.67162 0.08456 0.31789 0.0
O442 O 0.64061 0.04999 0.28884 0.0
C443 C 0.7383 0.10618 0.26844 0.0
C444 C 0.67665 0.02135 0.26858 0.0
C445 C 0.6677 0.09423 0.21115 0.0
O446 O 0.72266 0.10337 0.29427 0.0
O447 O 0.72604 0.09211 0.2408 0.0
O448 O 0.6733 0.07516 0.20606 0.0
O449 O 0.67046 0.10261 0.2431 0.0
C450 C 0.64678 0.06527 0.31619 0.0
O451 O 0.66203 0.02685 0.2479 0.0
O452 O 0.69506 0.0417 0.28593 0.0
In453 In 0.05154 0.42389 0.77002 0.0
O454 O 0.02077 0.42612 0.80847 0.0
O455 O 0.06229 0.45868 0.81082 0.0
C456 C 1.00663 0.37274 0.7561 0.0
C457 C 0.06501 0.46025 0.7142 0.0
C458 C 0.09355 0.41509 0.79362 0.0
O459 O 0.01839 0.38027 0.78635 0.0
O460 O 1.01779 0.39078 0.73219 0.0
O461 O 0.08045 0.40537 0.76451 0.0
O462 O 0.08577 0.42947 0.8107 0.0
C463 C 0.03817 0.44871 0.82287 0.0
O464 O 0.07915 0.44905 0.72241 0.0
O465 O 0.04414 0.45276 0.73346 0.0
In466 In 0.69557 0.66714 0.78569 0.0
O467 O 0.69223 0.63919 0.83219 0.0
O468 O 0.66506 0.65566 0.83158 0.0
C469 C 0.74401 0.67029 0.76746 0.0
C470 C 0.65408 0.6331 0.74027 0.0
C471 C 0.71128 0.72163 0.7916 0.0
O472 O 0.7378 0.6718 0.79942 0.0
O473 O 0.72584 0.66718 0.7447 0.0
O474 O 0.70815 0.70969 0.76178 0.0
O475 O 0.70595 0.70604 0.8182 0.0
C476 C 0.67284 0.64061 0.84734 0.0
O477 O 0.66098 0.65821 0.74389 0.0
O478 O 0.66804 0.62568 0.75914 0.0
In479 In 0.40484 0.02844 0.77252 0.0
O480 O 0.43663 0.06537 0.80538 0.0
O481 O 0.43701 0.02777 0.81033 0.0
C482 C 0.38009 0.05935 0.76874 0.0
C483 C 0.4295 0.0244 0.71292 0.0
C484 C 0.36084 0.979 0.78714 0.0
O485 O 0.38181 0.04839 0.79745 0.0
O486 O 0.39018 0.05407 0.74176 0.0
O487 O 0.36512 0.98961 0.75647 0.0
O488 O 0.37874 0.99341 0.81061 0.0
C489 C 0.44745 0.05267 0.81991 0.0
O490 O 0.41861 1.00519 0.7353 0.0
O491 O 0.42826 0.04574 0.72084 0.0
In492 In 0.71281 1.00653 0.60739 0.0
O493 O 0.75973 0.03793 0.60583 0.0
O494 O 0.73485 0.04936 0.63538 0.0
C495 C 0.71533 0.98096 0.54462 0.0
C496 C 0.70787 0.97645 0.66887 0.0
C497 C 0.67042 0.01673 0.59064 0.0
O498 O 0.72694 1.00679 0.54881 0.0
O499 O 0.70231 0.96784 0.57187 0.0
O500 O 0.66636 0.99355 0.60128 0.0
O501 O 0.69557 0.03444 0.58796 0.0
C502 C 0.7587 0.05636 0.62439 0.0
O503 O 0.69449 0.9889 0.66342 0.0
O504 O 0.72383 0.97915 0.64358 0.0
In505 In 0.09686 0.78457 0.57878 0.0
O506 O 0.09841 0.79947 0.52058 0.0
O507 O 0.13592 0.81712 0.5499 0.0
C508 C 0.04476 0.77242 0.59412 0.0
C509 C 0.09233 0.73373 0.5699 0.0
C510 C 0.12123 0.8155 0.63881 0.0
O511 O 0.0589 0.78946 0.57029 0.0
O512 O 0.0569 0.76156 0.61025 0.0
O513 O 0.12339 0.79475 0.63027 0.0
O514 O 0.10698 0.82069 0.61708 0.0
C515 C 0.12384 0.81686 0.52108 0.0
O516 O 0.11216 0.75336 0.58665 0.0
O517 O 0.07558 0.7401 0.55604 0.0
In518 In 0.31742 0.37995 0.62697 0.0
O519 O 0.30691 0.33649 0.60882 0.0
O520 O 0.3178 0.34874 0.66367 0.0
C521 C 0.30683 0.40526 0.5732 0.0
C522 C 0.27802 0.37236 0.67293 0.0
C523 C 0.37271 0.40579 0.63006 0.0
O524 O 0.30094 0.38027 0.57112 0.0
O525 O 0.31833 0.41741 0.60216 0.0
O526 O 0.35893 0.41157 0.65167 0.0
O527 O 0.35858 0.3877 0.60668 0.0
C528 C 0.31044 0.32998 0.64019 0.0
O529 O 0.30284 0.39137 0.67738 0.0
O530 O 0.27304 0.35834 0.64448 0.0
In531 In 0.71029 0.78166 0.10652 0.0
O532 O 0.68552 0.78533 0.15343 0.0
O533 O 0.72634 0.81799 0.14826 0.0
C534 C 0.66652 0.72852 0.09866 0.0
C535 C 0.71545 0.8125 0.04608 0.0
C536 C 0.75396 0.77189 0.11618 0.0
O537 O 0.68165 0.73723 0.12643 0.0
O538 O 0.67305 0.74664 0.07489 0.0
O539 O 0.73615 0.76114 0.09136 0.0
O540 O 0.75024 0.78806 0.13595 0.0
C541 C 0.70447 0.80789 0.16618 0.0
O542 O 0.73407 0.80792 0.05786 0.0
O543 O 0.69428 0.80236 0.06536 0.0
In544 In 0.34536 0.01807 0.12215 0.0
O545 O 0.33162 0.98344 0.16346 0.0
O546 O 0.31432 1.00954 0.16752 0.0
C547 C 0.3923 0.02087 0.09637 0.0
C548 C 0.30836 0.99486 0.06726 0.0
C549 C 0.36898 0.0721 0.14067 0.0
O550 O 0.3835 1.01202 0.12734 0.0
O551 O 0.37708 0.02734 0.07852 0.0
O552 O 0.34971 0.06097 0.11767 0.0
O553 O 0.3758 0.05585 0.1549 0.0
C554 C 0.3155 0.98921 0.18006 0.0
O555 O 0.3161 0.01884 0.0791 0.0
O556 O 0.31893 0.98243 0.08345 0.0
In557 In 0.08371 0.39917 0.13057 0.0
O558 O 0.12731 0.42899 0.15193 0.0
O559 O 0.09649 0.40528 0.18959 0.0
C560 C 0.07288 0.43717 0.10174 0.0
C561 C 0.10044 0.37659 0.07926 0.0
C562 C 0.03458 0.36019 0.15618 0.0
O563 O 0.09537 0.44386 0.1178 0.0
O564 O 0.05644 0.41154 0.09955 0.0
O565 O 0.05079 0.35402 0.14062 0.0
O566 O 0.04358 0.38575 0.15962 0.0
C567 C 0.1212 0.42349 0.18439 0.0
O568 O 0.10064 0.37125 0.11201 0.0
O569 O 0.09225 0.3935 0.07263 0.0
In570 In 0.38544 0.34765 0.97224 0.0
O571 O 0.3858 0.34516 0.03448 0.0
O572 O 0.37685 0.3089 1.00655 0.0
C573 C 0.33803 0.34986 0.95775 0.0
C574 C 0.42985 0.40056 0.98138 0.0
C575 C 0.39228 0.32128 0.91294 0.0
O576 O 0.33825 0.33083 0.97582 0.0
O577 O 0.36148 0.36743 0.94652 0.0
O578 O 0.40493 0.3247 0.94243 0.0
O579 O 0.37661 0.33157 0.91288 0.0
C580 C 0.38035 0.32044 0.03675 0.0
O581 O 0.43188 0.38114 0.96696 0.0
O582 O 0.4057 0.39342 0.99098 0.0
In583 In 0.7582 0.1059 0.95955 0.0
O584 O 0.77441 0.07613 0.97158 0.0
O585 O 0.74106 0.06336 0.93443 0.0
C586 C 0.77702 0.14026 0.01706 0.0
C587 C 0.79454 0.13178 0.90623 0.0
C588 C 0.70432 0.0922 0.96219 0.0
O589 O 0.77169 0.11547 0.01835 0.0
O590 O 0.77294 0.14768 0.98679 0.0
O591 O 0.72072 0.1084 0.93903 0.0
O592 O 0.71506 0.08276 0.98384 0.0
C593 C 0.75803 0.05791 0.94969 0.0
O594 O 0.76922 0.12449 0.90307 0.0
O595 O 0.80143 0.12705 0.93646 0.0
In596 In 1.01469 0.72296 0.94483 0.0
O597 O 0.9999 0.73395 0.99562 0.0
O598 O 0.97347 0.69488 0.97119 0.0
C599 C 0.06719 0.76349 0.93929 0.0
C600 C 0.02824 0.68314 0.95088 0.0
C601 C 0.99058 0.73622 0.89138 0.0
O602 O 0.05319 0.76096 0.96689 0.0
O603 O 0.05444 0.74603 0.91473 0.0
O604 O 0.99038 0.71346 0.89195 0.0
O605 O 1.00287 0.75203 0.91763 0.0
C606 C 0.97704 0.71171 0.9961 0.0
O607 O 1.01615 0.68538 0.92328 0.0
O608 O 0.03222 0.70012 0.97575 0.0
In609 In 0.41164 0.14228 0.47262 0.0
O610 O 0.39524 0.14407 0.52905 0.0
O611 O 0.42183 0.18215 0.50488 0.0
C612 C 0.37524 0.08776 0.45802 0.0
C613 C 0.40128 0.16645 0.41422 0.0
C614 C 0.45869 0.13838 0.48366 0.0
O615 O 0.37259 0.10042 0.48448 0.0
O616 O 0.39585 0.10256 0.43893 0.0
O617 O 0.45441 0.1483 0.45555 0.0
O618 O 0.43997 0.13148 0.50639 0.0
C619 C 0.40785 0.17003 0.53207 0.0
O620 O 0.42513 0.17562 0.42794 0.0
O621 O 0.38276 0.14583 0.43041 0.0
In622 In 0.01997 0.36837 0.46685 0.0
O623 O 1.01213 0.32684 0.48976 0.0
O624 O 1.00303 0.35219 0.52258 0.0
C625 C 0.0731 0.38148 0.4529 0.0
C626 C 0.97979 0.34432 0.41599 0.0
C627 C 0.02005 0.41706 0.47556 0.0
O628 O 0.06677 0.39233 0.47809 0.0
O629 O 0.05271 0.36394 0.43478 0.0
O630 O 0.01935 0.40651 0.4454 0.0
O631 O 0.02139 0.40344 0.50167 0.0
C632 C 1.00323 0.32979 0.51937 0.0
O633 O 1.00519 0.35669 0.40902 0.0
O634 O 0.97448 0.3438 0.44883 0.0
In635 In 0.74244 0.70464 0.44896 0.0
O636 O 0.76557 0.73729 0.49278 0.0
O637 O 0.78152 0.71128 0.47757 0.0
C638 C 0.71578 0.733 0.43341 0.0
C639 C 0.76521 0.69769 0.38923 0.0
C640 C 0.70708 0.65406 0.4745 0.0
O641 O 0.71072 0.71842 0.46098 0.0
O642 O 0.73421 0.73334 0.41393 0.0
O643 O 0.70614 0.66089 0.44262 0.0
O644 O 0.7256 0.67285 0.49376 0.0
C645 C 0.78405 0.73077 0.49739 0.0
O646 O 0.74227 0.67933 0.40084 0.0
O647 O 0.77662 0.71971 0.4076 0.0
C648 C 0.07682 0.50479 0.07563 0.0
C649 C 0.04921 0.49563 0.06579 0.0
H650 H 0.1061 0.49333 0.09516 0.0
C651 C 0.02996 0.46726 0.06706 0.0
H652 H 0.09209 0.52651 0.07479 0.0
C653 C 0.03797 0.44845 0.07802 0.0
C654 C 0.06537 0.45749 0.08846 0.0
H655 H 1.00857 0.45942 0.05933 0.0
H656 H 0.02249 0.42678 0.07879 0.0
C657 C 0.0848 0.48584 0.0872 0.0
C658 C 0.62165 0.65154 0.11483 0.0
C659 C 0.60692 0.64158 0.08228 0.0
H660 H 0.65142 0.68627 0.14557 0.0
C661 C 0.61 0.66089 0.05602 0.0
H662 H 0.61992 0.63726 0.13559 0.0
C663 C 0.62861 0.68933 0.06163 0.0
C664 C 0.64434 0.69901 0.09367 0.0
H665 H 0.5994 0.65391 0.03042 0.0
H666 H 0.63144 0.7036 0.04035 0.0
C667 C 0.63991 0.67973 0.12052 0.0
C668 C 0.45526 0.04725 0.03801 0.0
C669 C 0.47451 0.04559 0.06084 0.0
H670 H 0.41419 0.04023 0.03102 0.0
C671 C 0.46575 0.03277 0.09418 0.0
H672 H 0.46164 0.0574 1.01238 0.0
C673 C 0.43846 0.02319 0.10525 0.0
C674 C 0.4196 0.02633 0.08309 0.0
H675 H 0.48041 0.03181 0.11255 0.0
H676 H 0.43256 0.01468 0.13182 0.0
C677 C 0.42811 0.03755 0.04885 0.0
C678 C 0.51988 0.12816 0.46301 0.0
C679 C 0.52241 0.11552 0.49438 0.0
H680 H 0.49824 0.14547 0.43511 0.0
C681 C 0.5054 0.1129 0.52341 0.0
H682 H 0.53254 0.13055 0.44004 0.0
C683 C 0.48549 0.12131 0.52041 0.0
C684 C 0.48214 0.13276 0.48841 0.0
H685 H 0.50649 0.10307 0.54787 0.0
H686 H 0.47204 0.11796 0.54282 0.0
C687 C 0.50013 0.13672 0.46011 0.0
C688 C 0.01935 0.48282 0.45212 0.0
C689 C 0.02297 0.49569 0.48575 0.0
H690 H 1.01568 0.44819 0.42261 0.0
C691 C 0.02351 0.48141 0.5165 0.0
H692 H 0.01885 0.49316 0.42786 0.0
C693 C 0.02192 0.45555 0.51342 0.0
C694 C 0.01969 0.44341 0.47956 0.0
H695 H 0.02658 0.49078 0.54282 0.0
H696 H 0.02328 0.44547 0.53747 0.0
C697 C 1.01772 0.45706 0.44907 0.0
C698 C 0.66396 0.59707 0.53876 0.0
C699 C 0.64585 0.57598 0.51526 0.0
H700 H 0.69782 0.63831 0.54425 0.0
C701 C 0.64961 0.57985 0.4782 0.0
H702 H 0.66138 0.59446 0.56745 0.0
C703 C 0.67008 0.60506 0.46488 0.0
C704 C 0.68735 0.62662 0.48844 0.0
H705 H 0.63568 0.56402 0.45957 0.0
H706 H 0.67186 0.60794 0.43616 0.0
C707 C 0.68468 0.62211 0.52549 0.0
C708 C 0.05782 0.64044 0.98911 0.0
C709 C 0.05356 0.62215 0.96063 0.0
H710 H 0.05284 0.67381 1.00844 0.0
C711 C 0.04271 0.62546 0.92801 0.0
H712 H 0.06605 0.63848 1.01465 0.0
C713 C 0.03479 0.6455 0.92464 0.0
C714 C 0.03772 0.66276 0.95373 0.0
H715 H 0.03916 0.61176 0.90549 0.0
H716 H 0.02581 0.64705 0.89951 0.0
C717 C 0.04998 0.66053 0.98568 0.0
C718 C 0.50362 0.46067 0.98862 0.0
C719 C 0.50037 0.48175 1.00481 0.0
H720 H 0.4844 0.41912 0.96843 0.0
C721 C 0.47336 0.47641 1.01121 0.0
H722 H 0.52405 0.46394 0.98314 0.0
C723 C 0.4504 0.45027 1.00301 0.0
C724 C 0.45388 0.42897 0.98788 0.0
H725 H 0.47003 0.49195 0.02392 0.0
H726 H 0.42993 0.44656 1.00923 0.0
C727 C 0.48081 0.43482 0.98017 0.0
C728 C 0.63918 0.09613 0.94695 0.0
C729 C 0.62254 0.08058 0.97549 0.0
H730 H 0.67776 0.11178 0.92023 0.0
C731 C 0.63186 0.06648 0.99763 0.0
H732 H 0.63257 0.10723 0.9294 0.0
C733 C 0.65809 0.06935 0.99255 0.0
C734 C 0.67532 0.08622 0.96514 0.0
H735 H 0.61967 0.05465 0.02011 0.0
H736 H 0.66528 0.05925 1.01095 0.0
C737 C 0.66517 0.09884 0.94175 0.0
C738 C 0.59878 1.00655 0.5714 0.0
C739 C 0.60423 0.03327 0.56215 0.0
H740 H 0.61495 0.98048 0.58768 0.0
C741 C 0.63176 0.05489 0.56377 0.0
H742 H 0.57785 0.98932 0.57064 0.0
C743 C 0.65327 0.04963 0.57326 0.0
C744 C 0.6477 0.02271 0.58173 0.0
H745 H 0.63678 0.07563 0.55661 0.0
H746 H 0.67431 0.06662 0.57358 0.0
C747 C 0.6201 1.00138 0.58119 0.0
C748 C 0.10493 0.67323 0.58123 0.0
C749 C 0.08122 0.65122 0.56519 0.0
H750 H 0.12702 0.71621 0.59519 0.0
C751 C 0.06069 0.65642 0.55146 0.0
H752 H 0.12121 0.67003 0.59202 0.0
C753 C 0.06426 0.68321 0.55285 0.0
C754 C 0.08833 0.70529 0.56821 0.0
H755 H 0.04238 0.64007 0.53848 0.0
H756 H 0.04827 0.68667 0.54158 0.0
C757 C 0.10838 0.69982 0.58286 0.0
C758 C 0.44775 0.45742 0.64913 0.0
C759 C 0.4611 0.44599 0.62959 0.0
H760 H 0.40913 0.45346 0.66501 0.0
C761 C 0.4452 0.42042 0.61229 0.0
H762 H 0.45968 0.47716 0.66263 0.0
C763 C 0.41643 0.40716 0.61305 0.0
C764 C 0.40305 0.41904 0.63157 0.0
H765 H 0.45498 0.41138 0.59663 0.0
H766 H 0.40465 0.38785 0.59853 0.0
C767 C 0.41894 0.44393 0.65041 0.0
C768 C 0.6953 0.77945 0.38469 0.0
C769 C 0.67914 0.78337 0.41017 0.0
H770 H 0.71952 0.76063 0.3721 0.0
C771 C 0.67351 0.76894 0.44261 0.0
H772 H 0.69953 0.7897 0.35909 0.0
C773 C 0.68482 0.75194 0.44994 0.0
C774 C 0.70199 0.74914 0.42499 0.0
H775 H 0.66128 0.77158 0.46287 0.0
H776 H 0.68077 0.74166 0.47553 0.0
C777 C 0.70669 0.76267 0.39207 0.0
C778 C 0.33691 0.01898 0.40789 0.0
C779 C 0.32061 1.00085 0.43483 0.0
H780 H 0.3672 0.06042 0.39419 0.0
C781 C 0.32219 1.01165 0.46946 0.0
H782 H 0.33617 1.01129 0.38102 0.0
C783 C 0.33947 0.0399 0.47686 0.0
C784 C 0.3561 0.05794 0.45003 0.0
H785 H 0.30967 0.99831 0.49071 0.0
H786 H 0.34011 0.04755 0.50375 0.0
C787 C 0.3547 0.04709 0.41549 0.0
C788 C 0.15122 0.42091 0.45446 0.0
C789 C 0.15779 0.41057 0.42396 0.0
H790 H 0.11963 0.41978 0.48754 0.0
C791 C 0.1363 0.38865 0.40468 0.0
H792 H 0.16732 0.43774 0.47 0.0
C793 C 0.10867 0.37844 0.41467 0.0
C794 C 0.10216 0.38987 0.44421 0.0
H795 H 0.14069 0.38047 0.38087 0.0
H796 H 0.09239 0.36228 0.39855 0.0
C797 C 0.12383 0.41067 0.46451 0.0
C798 C 0.14687 0.41096 0.85514 0.0
C799 C 0.15052 0.39071 0.83759 0.0
H800 H 0.12577 0.43447 0.8552 0.0
C801 C 0.13729 0.38061 0.80418 0.0
H802 H 0.15627 0.41867 0.88124 0.0
C803 C 0.11994 0.38953 0.7893 0.0
C804 C 0.11488 0.40855 0.80764 0.0
H805 H 0.13944 0.36477 0.79016 0.0
H806 H 0.1095 0.38053 0.76408 0.0
C807 C 0.12913 0.41972 0.84035 0.0
C808 C 0.72996 0.791 0.83276 0.0
C809 C 0.739 0.80852 0.80297 0.0
H810 H 0.71425 0.75001 0.85254 0.0
C811 C 0.73924 0.79726 0.76933 0.0
H812 H 0.7298 0.79909 0.85909 0.0
C813 C 0.73011 0.769 0.7655 0.0
C814 C 0.72084 0.75151 0.79531 0.0
H815 H 0.74582 0.81013 0.74582 0.0
H816 H 0.73027 0.76086 0.7392 0.0
C817 C 0.7211 0.76288 0.82901 0.0
C818 C 0.30252 0.92352 0.83961 0.0
C819 C 0.28273 0.90959 0.81236 0.0
H820 H 0.34302 0.95647 0.85289 0.0
C821 C 0.29052 0.91587 0.77646 0.0
H822 H 0.29721 0.91899 0.86754 0.0
C823 C 0.31667 0.93755 0.76813 0.0
C824 C 0.33552 0.95308 0.79553 0.0
H825 H 0.27582 0.90547 0.75482 0.0
H826 H 0.32155 0.94306 0.7403 0.0
C827 C 0.32873 0.94505 0.83125 0.0
C828 C 0.6861 0.96301 0.30132 0.0
C829 C 0.65882 0.94085 0.30103 0.0
H830 H 0.71302 1.00585 0.29117 0.0
C831 C 0.63769 0.94479 0.28664 0.0
H832 H 0.70279 0.96077 0.31269 0.0
C833 C 0.64372 0.97069 0.27362 0.0
C834 C 0.67083 0.99308 0.27571 0.0
H835 H 0.61655 0.92801 0.28618 0.0
H836 H 0.627 0.97356 0.26376 0.0
C837 C 0.69199 0.98888 0.28911 0.0
C838 C 0.14791 0.81392 0.32365 0.0
C839 C 0.1726 0.81301 0.32151 0.0
H840 H 0.10425 0.79313 0.31331 0.0
C841 C 0.17199 0.79009 0.30493 0.0
H842 H 0.14771 0.83115 0.33667 0.0
C843 C 0.14715 0.76856 0.29066 0.0
C844 C 0.12233 0.76918 0.29369 0.0
H845 H 0.19073 0.78892 0.30305 0.0
H846 H 0.14719 0.75098 0.27836 0.0
C847 C 0.12303 0.79212 0.31033 0.0
C848 C 0.30667 0.42623 0.33919 0.0
C849 C 0.30302 0.44783 0.32617 0.0
H850 H 0.33486 0.41095 0.34738 0.0
C851 C 0.32499 0.46966 0.3081 0.0
H852 H 0.29028 0.40928 0.35352 0.0
C853 C 0.35045 0.47077 0.30488 0.0
C854 C 0.35469 0.45006 0.3196 0.0
H855 H 0.32288 0.48659 0.29759 0.0
H856 H 0.3671 0.48837 0.2918 0.0
C857 C 0.3323 0.42735 0.33593 0.0
C858 C 0.28868 0.37437 0.92352 0.0
C859 C 0.26279 0.35217 0.93281 0.0
H860 H 0.33275 0.39097 0.92365 0.0
C861 C 0.2622 0.33004 0.95171 0.0
H862 H 0.28995 0.3916 0.90871 0.0
C863 C 0.28652 0.32965 0.96027 0.0
C864 C 0.31235 0.35127 0.94997 0.0
H865 H 0.24272 0.31257 0.95947 0.0
H866 H 0.28498 0.31203 0.97438 0.0
C867 C 0.31317 0.37385 0.93186 0.0
C868 C 0.74049 0.98938 0.9085 0.0
C869 C 0.76608 0.99017 0.90984 0.0
H870 H 0.71798 1.0102 0.92015 0.0
C871 C 0.78861 1.01258 0.92697 0.0
H872 H 0.72284 0.97259 0.89507 0.0
C873 C 0.78566 0.03402 0.94198 0.0
C874 C 0.7603 0.03361 0.93928 0.0
H875 H 0.80848 0.01359 0.92838 0.0
H876 H 0.8035 0.05146 0.95424 0.0
C877 C 0.73771 1.01095 0.92278 0.0
C878 C 0.13586 0.82817 0.95555 0.0
C879 C 0.14964 0.82964 0.92359 0.0
H880 H 0.09874 0.80599 0.98561 0.0
C881 C 0.13695 0.80798 0.89847 0.0
H882 H 0.14512 0.8445 0.97548 0.0
C883 C 0.11043 0.78612 0.90422 0.0
C884 C 0.09608 0.78541 0.93522 0.0
H885 H 0.14703 0.8084 0.87367 0.0
H886 H 0.1009 0.77016 0.88382 0.0
C887 C 0.10927 0.80621 0.96131 0.0
C888 C 0.35482 0.10772 0.79863 0.0
C889 C 0.35689 0.122 0.76686 0.0
H890 H 0.3605 0.07653 0.82415 0.0
C891 C 0.36406 0.11361 0.73512 0.0
H892 H 0.34944 0.11376 0.8235 0.0
C893 C 0.37041 0.09238 0.73546 0.0
C894 C 0.36973 0.07908 0.76756 0.0
H895 H 0.36525 0.1238 0.71006 0.0
H896 H 0.37669 0.087 0.71076 0.0
C897 C 0.36124 0.08647 0.79899 0.0
C898 C 0.95146 0.29827 0.77108 0.0
C899 C 0.93901 0.28966 0.73703 0.0
H900 H 0.9821 0.33088 0.80372 0.0
C901 C 0.94735 0.30933 0.70963 0.0
H902 H 0.94577 0.28352 0.7926 0.0
C903 C 0.96885 0.33663 0.7158 0.0
C904 C 0.98221 0.34476 0.74956 0.0
H905 H 0.9386 0.30318 0.68292 0.0
H906 H 0.97566 0.35106 0.69385 0.0
C907 C 0.97256 0.32541 0.77734 0.0
C908 C 0.80539 0.68285 0.71175 0.0
C909 C 0.8255 0.68808 0.73836 0.0
H910 H 0.7638 0.67304 0.70013 0.0
C911 C 0.81754 0.68418 0.77444 0.0
H912 H 0.81075 0.68558 0.68369 0.0
C913 C 0.79068 0.67724 0.78384 0.0
C914 C 0.77116 0.67387 0.75735 0.0
H915 H 0.83243 0.68795 0.79565 0.0
H916 H 0.78554 0.6756 0.81194 0.0
C917 C 0.77849 0.67578 0.72117 0.0
C918 C 0.79584 0.73523 0.10879 0.0
C919 C 0.81455 0.74607 0.13794 0.0
H920 H 0.76267 0.7349 0.07901 0.0
C921 C 0.81468 0.76731 0.15852 0.0
H922 H 0.79511 0.71889 0.09225 0.0
C923 C 0.79558 0.77638 0.15104 0.0
C924 C 0.77614 0.7646 0.12263 0.0
H925 H 0.82854 0.77592 0.18138 0.0
H926 H 0.7955 0.79205 0.16812 0.0
C927 C 0.7771 0.74439 0.10117 0.0
C928 C 0.38727 0.14722 0.14286 0.0
C929 C 0.40934 0.1587 0.16774 0.0
H930 H 0.35721 0.11091 0.11479 0.0
C931 C 0.41833 0.14148 0.18303 0.0
H932 H 0.38001 0.15996 0.13036 0.0
C933 C 0.40523 0.11338 0.17419 0.0
C934 C 0.3829 0.10188 0.14976 0.0
H935 H 0.43497 0.14948 0.20265 0.0
H936 H 0.41246 0.10063 0.18676 0.0
C937 C 0.37422 0.11913 0.13392 0.0
C938 C 0.96089 0.32937 0.18598 0.0
C939 C 0.95127 0.30087 0.18394 0.0
H940 H 0.99462 0.37017 0.17945 0.0
C941 C 0.9697 0.29179 0.17406 0.0
H942 H 0.94736 0.33713 0.19392 0.0
C943 C 0.99707 0.31099 0.16541 0.0
C944 C 1.00642 0.33949 0.16712 0.0
H945 H 0.96287 0.26995 0.1724 0.0
H946 H 1.0108 0.30357 0.15714 0.0
C947 C 0.9881 0.3484 0.17789 0.0
C948 C 0.30824 0.26128 0.63324 0.0
C949 C 0.31033 0.25606 0.66963 0.0
H950 H 0.3067 0.28921 0.59504 0.0
C951 C 0.30891 0.27336 0.69574 0.0
H952 H 0.30947 0.24827 0.61263 0.0
C953 C 0.3075 0.2966 0.68583 0.0
C954 C 0.30749 0.30306 0.64952 0.0
H955 H 0.31011 0.26949 0.72392 0.0
H956 H 0.30752 0.3101 0.70674 0.0
C957 C 0.30683 0.28472 0.62321 0.0
C958 C 0.80415 0.13093 0.6575 0.0
C959 C 0.83065 0.13622 0.64802 0.0
H960 H 0.76065 0.10144 0.65801 0.0
C961 C 0.83295 0.11539 0.62955 0.0
H962 H 0.80162 0.14631 0.67209 0.0
C963 C 0.80966 0.08982 0.62155 0.0
C964 C 0.78327 0.08407 0.63207 0.0
H965 H 0.85299 0.11865 0.62176 0.0
H966 H 0.81246 0.07433 0.60769 0.0
C967 C 0.78073 0.10508 0.64975 0.0
C968 C 0.97532 0.74219 0.63943 0.0
C969 C 0.96587 0.75987 0.62725 0.0
H970 H 1.00804 0.73252 0.63869 0.0
C971 C 0.98151 0.78015 0.60201 0.0
H972 H 0.96378 0.72649 0.65905 0.0
C973 C 1.00662 0.78347 0.59021 0.0
C974 C 1.01683 0.76682 0.60378 0.0
H975 H 0.97467 0.794 0.59203 0.0
H976 H 0.01849 0.79977 0.57144 0.0
C977 C 1.00072 0.74577 0.62796 0.0
C978 C 0.95867 0.73394 0.2167 0.0
C979 C 0.93372 0.7176 0.23456 0.0
H980 H 1.00108 0.74429 0.21052 0.0
C981 C 0.93366 0.70107 0.263 0.0
H982 H 0.95932 0.74649 0.19427 0.0
C983 C 0.95741 0.69982 0.27236 0.0
C984 C 0.98196 0.71477 0.25322 0.0
H985 H 0.91477 0.68808 0.27721 0.0
H986 H 0.95612 0.6861 0.29364 0.0
C987 C 0.98251 0.73243 0.22583 0.0
C988 C 0.47188 0.37139 0.27891 0.0
C989 C 0.44852 0.34588 0.27055 0.0
H990 H 0.48721 0.41287 0.29785 0.0
C991 C 0.42214 0.34263 0.27585 0.0
H992 H 0.49239 0.3744 0.27502 0.0
C993 C 0.41914 0.36453 0.28844 0.0
C994 C 0.44243 0.39012 0.29643 0.0
H995 H 0.4037 0.32342 0.26906 0.0
H996 H 0.39853 0.36153 0.2914 0.0
C997 C 0.46887 0.39327 0.29208 0.0
C998 C 0.81221 0.15057 0.23901 0.0
C999 C 0.82455 0.16712 0.26964 0.0
H1000 H 0.77523 0.11839 0.21461 0.0
C1001 C 0.809 0.16118 0.30108 0.0
H1002 H 0.82353 0.15451 0.21432 0.0
C1003 C 0.7812 0.14061 0.3011 0.0
C1004 C 0.76843 0.12544 0.26976 0.0
H1005 H 0.81781 0.17341 0.32519 0.0
H1006 H 0.76947 0.13735 0.32529 0.0
C1007 C 0.78444 0.12996 0.23909 0.0
C1008 C 0.99688 0.46488 0.88954 0.0
C1009 C 1.0176 0.48915 0.90607 0.0
H1010 H 0.98712 0.43287 0.85054 0.0
C1011 C 0.04499 0.50002 0.89462 0.0
H1012 H 0.97564 0.45588 0.89784 0.0
C1013 C 0.05157 0.48691 0.86764 0.0
C1014 C 0.03095 0.46252 0.8514 0.0
H1015 H 0.06144 0.51892 0.9062 0.0
H1016 H 0.07288 0.49592 0.85954 0.0
C1017 C 1.0035 0.45164 0.86259 0.0
C1018 C 0.65302 0.5905 0.92461 0.0
C1019 C 0.63399 0.59541 0.94312 0.0
H1020 H 0.68024 0.60093 0.88004 0.0
C1021 C 0.62847 0.61587 0.92999 0.0
H1022 H 0.65773 0.57486 0.93351 0.0
C1023 C 0.64112 0.63053 0.89902 0.0
C1024 C 0.6599 0.62542 0.88054 0.0
H1025 H 0.6145 0.62087 0.94361 0.0
H1026 H 0.63623 0.64597 0.88964 0.0
C1027 C 0.66589 0.6054 0.89379 0.0
C1028 C 0.50215 0.06254 0.88791 0.0
C1029 C 0.50824 0.0877 0.90435 0.0
H1030 H 0.47815 0.03175 0.84846 0.0
C1031 C 0.49562 0.10226 0.89084 0.0
H1032 H 0.512 0.0511 0.89695 0.0
C1033 C 0.47645 0.09128 0.86255 0.0
C1034 C 0.46948 0.0655 0.84741 0.0
H1035 H 0.49973 0.12159 0.90293 0.0
H1036 H 0.46644 0.10256 0.85334 0.0
C1037 C 0.48286 0.05148 0.85993 0.0
C1038 C 0.46884 0.04317 0.6265 0.0
C1039 C 0.46967 0.01899 0.61839 0.0
H1040 H 0.45547 0.06378 0.66265 0.0
C1041 C 0.45622 0.99611 0.64091 0.0
H1042 H 0.47859 0.06096 0.60927 0.0
C1043 C 0.44293 0.99773 0.67162 0.0
C1044 C 0.44274 0.0222 0.6801 0.0
H1045 H 0.45669 0.97731 0.63536 0.0
H1046 H 0.43311 0.97996 0.68892 0.0
C1047 C 0.4555 0.04475 0.657 0.0
C1048 C 0.1023 0.50864 0.63655 0.0
C1049 C 0.08588 0.52098 0.63028 0.0
H1050 H 0.10863 0.47979 0.66762 0.0
C1051 C 0.06273 0.51305 0.6521 0.0
H1052 H 0.12012 0.5139 0.62026 0.0
C1053 C 0.05605 0.49335 0.67898 0.0
C1054 C 0.07233 0.48095 0.68511 0.0
H1055 H 0.04975 0.52223 0.64875 0.0
H1056 H 0.03809 0.48793 0.69514 0.0
C1057 C 0.09561 0.48889 0.66361 0.0
C1058 C 0.60356 0.56625 0.69487 0.0
C1059 C 0.59417 0.57499 0.66532 0.0
H1060 H 0.62953 0.57763 0.74136 0.0
C1061 C 0.60275 0.60322 0.66217 0.0
H1062 H 0.59713 0.54465 0.69849 0.0
C1063 C 0.62154 0.62241 0.68728 0.0
C1064 C 0.63199 0.61353 0.71564 0.0
H1065 H 0.59591 0.61057 0.63963 0.0
H1066 H 0.62869 0.64416 0.68372 0.0
C1067 C 0.62223 0.58521 0.71955 0.0
C1068 C 0.03646 0.63116 0.12252 0.0
C1069 C 1.0143 0.60393 0.12516 0.0
H1070 H 0.05985 0.67105 0.14748 0.0
C1071 C 0.99803 0.59666 0.15604 0.0
H1072 H 0.04918 0.63769 0.09894 0.0
C1073 C 1.00413 0.61587 0.18383 0.0
C1074 C 0.02659 0.64289 0.18143 0.0
H1075 H 0.98098 0.57591 0.15922 0.0
H1076 H 0.99142 0.60938 0.20745 0.0
C1077 C 0.0425 0.65039 0.15027 0.0
C1078 C 0.49407 0.50381 0.1709 0.0
C1079 C 0.52279 0.51829 0.17716 0.0
H1080 H 0.45374 0.48273 0.19381 0.0
C1081 C 0.53269 0.52374 0.2127 0.0
H1082 H 0.4858 0.49912 0.14384 0.0
C1083 C 0.51433 0.51464 0.2413 0.0
C1084 C 0.48565 0.49959 0.23503 0.0
H1085 H 0.55465 0.53516 0.2184 0.0
H1086 H 0.52266 0.51884 0.26837 0.0
C1087 C 0.47571 0.49443 0.19951 0.0
C1088 C 0.642 0.10226 0.12073 0.0
C1089 C 0.62713 0.11567 0.12974 0.0
H1090 H 0.66645 0.08493 0.13943 0.0
C1091 C 0.62869 0.12503 0.1651 0.0
H1092 H 0.64187 0.09546 0.09352 0.0
C1093 C 0.6432 0.11934 0.19136 0.0
C1094 C 0.65624 0.10407 0.1827 0.0
H1095 H 0.61747 0.13537 0.1729 0.0
H1096 H 0.64299 0.12565 0.21875 0.0
C1097 C 0.65622 0.09634 0.14697 0.0
C1098 C 0.61344 0.07442 0.39877 0.0
C1099 C 0.58677 0.05117 0.39658 0.0
H1100 H 0.65335 0.09709 0.37515 0.0
C1101 C 0.58006 0.03287 0.36746 0.0
H1102 H 0.61921 0.08926 0.42042 0.0
C1103 C 0.5996 0.03757 0.34134 0.0
C1104 C 0.62627 0.06064 0.34381 0.0
H1105 H 0.55988 0.01466 0.36511 0.0
H1106 H 0.59383 0.02296 0.31934 0.0
C1107 C 0.63301 0.07905 0.37271 0.0
C1108 C 0.05932 0.63989 0.41318 0.0
C1109 C 0.07604 0.62807 0.40593 0.0
H1110 H 0.03947 0.66172 0.3927 0.0
C1111 C 0.08542 0.62958 0.37074 0.0
H1112 H 0.05194 0.63961 0.43992 0.0
C1113 C 0.07836 0.64245 0.34375 0.0
C1114 C 0.06164 0.65417 0.35103 0.0
H1115 H 0.098 0.62053 0.36379 0.0
H1116 H 0.08606 0.64321 0.31704 0.0
C1117 C 0.05217 0.6527 0.38609 0.0
C1118 C 0.471 0.47526 0.48479 0.0
C1119 C 0.49334 0.50198 0.49072 0.0
H1120 H 0.44029 0.44693 0.44816 0.0
C1121 C 0.49959 0.5221 0.46442 0.0
H1122 H 0.46554 0.45938 0.50475 0.0
C1123 C 0.48503 0.51484 0.43154 0.0
C1124 C 0.46407 0.48744 0.42476 0.0
H1125 H 0.51683 0.54279 0.46824 0.0
H1126 H 0.49121 0.53023 0.41079 0.0
C1127 C 0.45654 0.46809 0.4523 0.0
C1128 C 0.7195 0.85489 0.24919 0.0
C1129 C 0.69348 0.84252 0.2656 0.0
H1130 H 0.74352 0.85399 0.20472 0.0
C1131 C 0.67164 0.8191 0.24858 0.0
H1132 H 0.7368 0.87291 0.2613 0.0
C1133 C 0.67542 0.80836 0.21661 0.0
C1134 C 0.70119 0.82058 0.19998 0.0
H1135 H 0.65124 0.80867 0.26004 0.0
H1136 H 0.65793 0.79027 0.2049 0.0
C1137 C 0.72328 0.84408 0.21666 0.0
C1138 C 0.28943 0.93757 0.25551 0.0
C1139 C 0.27311 0.94543 0.27544 0.0
H1140 H 0.31527 0.94494 0.21029 0.0
C1141 C 0.26961 0.96719 0.26268 0.0
H1142 H 0.29248 0.92077 0.26422 0.0
C1143 C 0.28297 0.98127 0.23131 0.0
C1144 C 0.29994 0.97375 0.21214 0.0
H1145 H 0.25728 0.97383 0.2774 0.0
H1146 H 0.28043 0.99834 0.22245 0.0
C1147 C 0.30259 0.95146 0.22441 0.0
C1148 C 0.18745 0.47048 0.23566 0.0
C1149 C 0.18012 0.46059 0.27063 0.0
H1150 H 0.17452 0.46612 0.18055 0.0
C1151 C 0.15291 0.43983 0.27725 0.0
H1152 H 0.20838 0.48628 0.22989 0.0
C1153 C 0.13366 0.42828 0.24931 0.0
C1154 C 0.14127 0.43713 0.21403 0.0
H1155 H 0.14676 0.43201 0.30407 0.0
H1156 H 0.11303 0.41189 0.25527 0.0
C1157 C 0.16818 0.45873 0.20749 0.0
C1158 C 0.12542 0.33318 0.0313 0.0
C1159 C 0.12886 0.34361 0.99642 0.0
H1160 H 0.11405 0.3358 0.08529 0.0
C1161 C 0.12151 0.36375 0.98875 0.0
H1162 H 0.13114 0.31778 0.03786 0.0
C1163 C 0.11176 0.37397 1.01557 0.0
C1164 C 0.10936 0.36444 0.0508 0.0
H1165 H 0.12369 0.37188 0.96196 0.0
H1166 H 0.10667 0.3898 1.00881 0.0
C1167 C 0.1159 0.34365 0.05838 0.0
C1168 C 0.74677 0.85331 0.96139 0.0
C1169 C 0.72516 0.85607 0.9456 0.0
H1170 H 0.7607 0.83793 1.00442 0.0
C1171 C 0.69975 0.84418 0.9635 0.0
H1172 H 0.76669 0.8619 0.94873 0.0
C1173 C 0.69639 0.83024 0.99636 0.0
C1174 C 0.71828 0.82773 1.01187 0.0
H1175 H 0.68265 0.84585 0.95237 0.0
H1176 H 0.67664 0.82132 1.00953 0.0
C1177 C 0.7434 0.83944 0.99368 0.0
C1178 C 0.26162 0.98633 0.98759 0.0
C1179 C 0.25504 0.96011 0.97435 0.0
H1180 H 0.28367 0.01793 0.02722 0.0
C1181 C 0.26547 0.94518 0.99278 0.0
H1182 H 0.2541 0.99845 0.97402 0.0
C1183 C 0.28239 0.95631 0.02316 0.0
C1184 C 0.28937 0.98269 0.03599 0.0
H1185 H 0.26043 0.92472 0.98393 0.0
H1186 H 0.29019 0.94429 0.03645 0.0
C1187 C 0.27865 0.99752 0.01802 0.0
C1188 C 0.70739 0.92605 0.47574 0.0
C1189 C 0.71596 0.94129 0.44382 0.0
H1190 H 0.7 0.92633 0.53222 0.0
C1191 C 0.72544 0.96984 0.44596 0.0
H1192 H 0.6996 0.904 0.47522 0.0
C1193 C 0.7259 0.98268 0.47866 0.0
C1194 C 0.71637 0.96733 0.51031 0.0
H1195 H 0.73208 0.98232 0.42206 0.0
H1196 H 0.73303 1.0046 0.4789 0.0
C1197 C 0.70738 0.93885 0.50844 0.0
C1198 C 0.13798 0.85149 0.42986 0.0
C1199 C 0.16553 0.87294 0.43376 0.0
H1200 H 0.1033 0.81706 0.45409 0.0
C1201 C 0.17893 0.87611 0.46706 0.0
H1202 H 0.12702 0.84821 0.4046 0.0
C1203 C 0.16543 0.85791 0.49525 0.0
C1204 C 0.1381 0.83617 0.49107 0.0
H1205 H 0.2002 0.89214 0.47107 0.0
H1206 H 0.17653 0.86079 0.52031 0.0
C1207 C 0.12441 0.83345 0.45819 0.0
C1208 C 0.27454 0.41569 0.48998 0.0
C1209 C 0.28404 0.44429 0.49103 0.0
H1210 H 0.27454 0.38121 0.51462 0.0
C1211 C 0.3015 0.46005 0.51949 0.0
H1212 H 0.26046 0.40249 0.46928 0.0
C1213 C 0.30919 0.44746 0.54615 0.0
C1214 C 0.29971 0.41894 0.54466 0.0
H1215 H 0.3093 0.48206 0.5211 0.0
H1216 H 0.32256 0.46006 0.5679 0.0
C1217 C 0.28245 0.40326 0.51625 0.0
C1218 C 0.24347 0.37485 0.75751 0.0
C1219 C 0.22289 0.34697 0.76132 0.0
H1220 H 0.2771 0.40467 0.72662 0.0
C1221 C 0.21879 0.32828 0.73348 0.0
H1222 H 0.24673 0.39026 0.77746 0.0
C1223 C 0.2358 0.33699 0.70355 0.0
C1224 C 0.25742 0.36442 0.70121 0.0
H1225 H 0.2032 0.30675 0.73535 0.0
H1226 H 0.23292 0.32191 0.68314 0.0
C1227 C 0.26076 0.38336 0.72805 0.0
C1228 C 0.71473 0.92831 0.73651 0.0
C1229 C 0.70346 0.93276 0.76776 0.0
H1230 H 0.72545 0.93883 0.68127 0.0
C1231 C 0.69258 0.95075 0.76548 0.0
H1232 H 0.72368 0.91498 0.7372 0.0
C1233 C 0.69331 0.96418 0.7333 0.0
C1234 C 0.70553 0.96061 0.70245 0.0
H1235 H 0.6839 0.9549 0.78891 0.0
H1236 H 0.68501 0.97808 0.73293 0.0
C1237 C 0.71598 0.94224 0.70445 0.0
C1238 C 0.14482 0.87232 0.70938 0.0
C1239 C 0.15913 0.86487 0.7341 0.0
H1240 H 0.12154 0.86258 0.6602 0.0
C1241 C 0.16073 0.84088 0.72713 0.0
H1242 H 0.14296 0.89048 0.71398 0.0
C1243 C 0.14849 0.8249 0.69625 0.0
C1244 C 0.13422 0.8324 0.6716 0.0
H1245 H 0.17191 0.83468 0.74518 0.0
H1246 H 0.15028 0.80669 0.69165 0.0
C1247 C 0.13245 0.85625 0.6786 0.0
C1248 C 0.41075 0.22636 0.59378 0.0
C1249 C 0.40249 0.21288 0.62696 0.0
H1250 H 0.4194 0.22379 0.53834 0.0
C1251 C 0.39689 0.18536 0.6288 0.0
H1252 H 0.41501 0.24743 0.59119 0.0
C1253 C 0.39858 0.17151 0.59813 0.0
C1254 C 0.40656 0.18494 0.56489 0.0
H1255 H 0.39005 0.17411 0.65363 0.0
H1256 H 0.39351 0.15017 0.60042 0.0
C1257 C 0.41314 0.21275 0.56337 0.0
C1258 C 0.98005 0.26209 0.56814 0.0
C1259 C 0.96802 0.26595 0.5989 0.0
H1260 H 1.00051 0.27922 0.51856 0.0
C1261 C 0.96939 0.29157 0.60421 0.0
H1262 H 0.97925 0.24257 0.56329 0.0
C1263 C 0.98147 0.31243 0.57884 0.0
C1264 C 0.9925 0.30826 0.54737 0.0
H1265 H 0.96084 0.29542 0.62796 0.0
H1266 H 0.98166 0.33167 0.58361 0.0
C1267 C 0.99209 0.28302 0.54251 0.0
C1268 C 0.84642 0.74671 0.55474 0.0
C1269 C 0.84514 0.76352 0.58191 0.0
H1270 H 0.82821 0.72329 0.50685 0.0
C1271 C 0.82495 0.77154 0.57928 0.0
H1272 H 0.86208 0.74066 0.55553 0.0
C1273 C 0.80557 0.76171 0.55106 0.0
C1274 C 0.80605 0.74369 0.52506 0.0
H1275 H 0.82334 0.78435 0.59983 0.0
H1276 H 0.78963 0.76741 0.55034 0.0
C1277 C 0.82706 0.73683 0.52675 0.0
C1278 C 0.81607 0.71031 0.31574 0.0
C1279 C 0.80154 0.68653 0.29413 0.0
H1280 H 0.81599 0.73249 0.36252 0.0
C1281 C 0.77506 0.66615 0.3046 0.0
H1282 H 0.83671 0.72619 0.30902 0.0
C1283 C 0.76328 0.66969 0.33562 0.0
C1284 C 0.77772 0.6937 0.35675 0.0
H1285 H 0.76319 0.64772 0.28849 0.0
H1286 H 0.74275 0.65375 0.34285 0.0
C1287 C 0.80427 0.71389 0.34659 0.0
C1288 C 0.36807 0.16981 0.32558 0.0
C1289 C 0.38641 0.19655 0.31328 0.0
H1290 H 0.35793 0.13977 0.36701 0.0
C1291 C 0.40904 0.21397 0.33562 0.0
H1292 H 0.3506 0.15571 0.30906 0.0
C1293 C 0.41378 0.20447 0.36851 0.0
C1294 C 0.39562 0.17755 0.38047 0.0
H1295 H 0.42389 0.2345 0.32685 0.0
H1296 H 0.4319 0.2181 0.38437 0.0
C1297 C 0.37234 0.16063 0.35886 0.0
C1298 C 0.90978 0.30455 0.36938 0.0
C1299 C 0.91749 0.30461 0.33366 0.0
H1300 H 0.92352 0.31687 0.42369 0.0
C1301 C 0.94567 0.31897 0.3252 0.0
H1302 H 0.88825 0.2935 0.37671 0.0
C1303 C 0.96576 0.33219 0.3519 0.0
C1304 C 0.95818 0.33135 0.38778 0.0
H1305 H 0.95223 0.31978 0.29784 0.0
H1306 H 0.98728 0.34272 0.34443 0.0
C1307 C 0.92997 0.31773 0.39625 0.0
C1308 C 0.383 0.28769 0.81979 0.0
C1309 C 0.39603 0.27175 0.82429 0.0
H1310 H 0.3713 0.31544 0.84395 0.0
C1311 C 0.40893 0.27352 0.85767 0.0
H1312 H 0.3726 0.28677 0.79474 0.0
C1313 C 0.40838 0.29012 0.88577 0.0
C1314 C 0.39456 0.3053 0.88178 0.0
H1315 H 0.41916 0.26162 0.8624 0.0
H1316 H 0.41822 0.29045 0.91107 0.0
C1317 C 0.38212 0.30406 0.84818 0.0
C1318 C 0.86019 0.15802 0.85266 0.0
C1319 C 0.85176 0.162 0.81869 0.0
H1320 H 0.84889 0.14577 0.90697 0.0
C1321 C 0.82437 0.1565 0.81402 0.0
H1322 H 0.88113 0.16231 0.85733 0.0
C1323 C 0.8059 0.14716 0.84252 0.0
C1324 C 0.81436 0.14314 0.87641 0.0
H1325 H 0.81698 0.15892 0.78814 0.0
H1326 H 0.78491 0.14279 0.83787 0.0
C1327 C 0.84173 0.14876 0.88119 0.0
C1328 C 0.96453 0.77618 0.83711 0.0
C1329 C 0.95181 0.75847 0.80765 0.0
H1330 H 0.98692 0.78312 0.88657 0.0
C1331 C 0.95214 0.73342 0.80593 0.0
H1332 H 0.96475 0.79563 0.83911 0.0
C1333 C 0.96478 0.72623 0.83303 0.0
C1334 C 0.97744 0.74391 0.86247 0.0
H1335 H 0.94208 0.71899 0.78404 0.0
H1336 H 0.96448 0.70672 0.83101 0.0
C1337 C 0.97729 0.76902 0.86419 0.0
C1338 C 0.91049 0.67615 0.04822 0.0
C1339 C 0.9132 0.69754 0.07097 0.0
H1340 H 0.92856 0.6638 1.00682 0.0
C1341 C 0.93754 0.72337 0.06922 0.0
H1342 H 0.89234 0.6559 0.04895 0.0
C1343 C 0.95845 0.7277 0.04551 0.0
C1344 C 0.95551 0.70645 0.02258 0.0
H1345 H 0.94046 0.7406 0.08566 0.0
H1346 H 0.97673 0.74793 0.04467 0.0
C1347 C 0.93137 0.6806 0.0242 0.0
C1348 C 0.37896 0.26952 0.10743 0.0
C1349 C 0.38109 0.28358 0.13981 0.0
H1350 H 0.3769 0.26981 0.04968 0.0
C1351 C 0.38141 0.30899 0.13753 0.0
H1352 H 0.37885 0.25007 0.10783 0.0
C1353 C 0.38061 0.32039 0.10435 0.0
C1354 C 0.37925 0.30682 0.07196 0.0
H1355 H 0.38305 0.32065 0.16155 0.0
H1356 H 0.38153 0.34023 0.10412 0.0
C1357 C 0.37795 0.28093 0.07399 0.0
C1358 C 0.80414 0.16851 0.11012 0.0
C1359 C 0.81092 0.19629 0.10702 0.0
H1360 H 0.7881 0.1291 0.08432 0.0
C1361 C 0.80519 0.20515 0.07448 0.0
H1362 H 0.80777 0.16086 0.135 0.0
C1363 C 0.79381 0.18685 0.04537 0.0
C1364 C 0.7878 0.1593 0.04827 0.0
H1365 H 0.81029 0.22641 0.07116 0.0
H1366 H 0.79014 0.19442 0.02042 0.0
C1367 C 0.79273 0.15025 0.08111 0.0
loop_
_geom_bond_atom_site_label_1
_geom_bond_atom_site_label_2
_geom_bond_distance
_geom_bond_site_symmetry_2
_ccdc_geom_bond_type
Cu0 N1 1.999 . S
Cu0 O6 1.974 1_554 S
Cu0 N11 1.985 1_554 S
Cu0 O20 1.959 . S
N1 Cu0 1.999 . S
N1 C3 1.263 . S
N1 C5 1.389 . S
N2 C3 1.358 . S
N2 C4 1.400 . S
C3 N1 1.263 . S
C3 N2 1.358 . S
C3 H9 0.930 1_455 S
C4 N2 1.400 . S
C4 C5 1.351 . S
C4 H21 0.930 . S
C5 N1 1.389 . S
C5 C4 1.351 . S
C5 H10 0.930 . S
O6 Cu0 1.974 1_556 S
O6 C16 1.282 1_455 S
C7 O8 1.235 1_455 S
C7 O20 1.262 . S
O8 C7 1.235 1_655 S
H9 C3 0.930 1_655 S
H10 C5 0.930 . S
N11 Cu0 1.985 1_556 S
N11 C13 1.335 . S
N11 C14 1.390 1_455 S
N12 C13 1.345 . S
N12 C15 1.336 1_455 S
C13 N11 1.335 . S
C13 N12 1.345 . S
C13 H18 0.930 . S
C14 N11 1.390 1_655 S
C14 C15 1.346 . S
C14 H19 0.930 . S
C15 N12 1.336 1_655 S
C15 C14 1.346 . S
C15 H22 0.929 . S
C16 O6 1.282 1_655 S
C16 O17 1.216 . S
O17 C16 1.216 . S
H18 C13 0.930 . S
H19 C14 0.930 . S
O20 Cu0 1.959 . S
O20 C7 1.262 . S
H21 C4 0.930 . S
H22 C15 0.929 . S
Cu23 N24 1.999 1_554 S
Cu23 O29 1.974 . S
Cu23 N34 1.985 . S
Cu23 O43 1.959 1_554 S
N24 Cu23 1.999 1_556 S
N24 C26 1.263 . S
N24 C28 1.389 . S
N25 C26 1.358 . S
N25 C27 1.400 . S
C26 N24 1.263 . S
C26 N25 1.358 . S
C26 H32 0.930 . S
C27 N25 1.400 . S
C27 C28 1.351 . S
C27 H44 0.930 . S
C28 N24 1.389 . S
C28 C27 1.351 . S
C28 H33 0.930 . S
O29 Cu23 1.974 . S
O29 C39 1.282 . S
C30 O31 1.261 1_556 S
C30 O43 1.251 . S
O31 C30 1.261 1_554 S
H32 C26 0.930 . S
H33 C28 0.930 . S
N34 Cu23 1.985 . S
N34 C36 1.335 . S
N34 C37 1.390 . S
N35 C36 1.345 . S
N35 C38 1.336 . S
C36 N34 1.335 . S
C36 N35 1.345 . S
C36 H41 0.930 . S
C37 N34 1.390 . S
C37 C38 1.346 . S
C37 H42 0.930 . S
C38 N35 1.336 . S
C38 C37 1.346 . S
C38 H45 0.929 . S
C39 O29 1.282 . S
C39 O40 1.216 . S
O40 C39 1.216 . S
H41 C36 0.930 . S
H42 C37 0.930 . S
O43 Cu23 1.959 1_556 S
O43 C30 1.251 . S
H44 C27 0.930 . S
H45 C38 0.929 . S
Cu46 N47 1.999 1_554 S
Cu46 O52 1.974 . S
Cu46 N57 1.985 . S
Cu46 O66 1.959 . S
N47 Cu46 1.999 1_556 S
N47 C49 1.263 . S
N47 C51 1.389 . S
N48 C49 1.358 . S
N48 C50 1.400 . S
C49 N47 1.263 . S
C49 N48 1.358 . S
C49 H55 0.930 . S
C50 N48 1.400 . S
C50 C51 1.351 . S
C50 H67 0.930 . S
C51 N47 1.389 . S
C51 C50 1.351 . S
C51 H56 0.930 . S
O52 Cu46 1.974 . S
O52 C62 1.282 . S
C53 O54 1.263 . S
C53 O66 1.251 1_556 S
O54 C53 1.263 . S
H55 C49 0.930 . S
H56 C51 0.930 . S
N57 Cu46 1.985 . S
N57 C59 1.335 . S
N57 C60 1.390 . S
N58 C59 1.345 . S
N58 C61 1.336 . S
C59 N57 1.335 . S
C59 N58 1.345 . S
C59 H64 0.930 . S
C60 N57 1.390 . S
C60 C61 1.346 . S
C60 H65 0.930 . S
C61 N58 1.336 . S
C61 C60 1.346 . S
C61 H68 0.929 . S
C62 O52 1.282 . S
C62 O63 1.216 . S
O63 C62 1.216 . S
H64 C59 0.930 . S
H65 C60 0.930 . S
O66 Cu46 1.959 . S
O66 C53 1.251 1_554 S
H67 C50 0.930 . S
H68 C61 0.929 . S
Cu69 N70 1.999 . S
Cu69 O75 1.974 . S
Cu69 N80 1.985 . S
Cu69 O89 1.959 . S
N70 Cu69 1.999 . S
N70 C72 1.263 . S
N70 C74 1.389 . S
N71 C72 1.358 . S
N71 C73 1.400 . S
C72 N70 1.263 . S
C72 N71 1.358 . S
C72 H78 0.930 . S
C73 N71 1.400 . S
C73 C74 1.351 . S
C73 H90 0.930 . S
C74 N70 1.389 . S
C74 C73 1.351 . S
C74 H79 0.930 . S
O75 Cu69 1.974 . S
O75 C85 1.282 . S
C76 O77 1.261 . S
C76 O89 1.251 . S
O77 C76 1.261 . S
H78 C72 0.930 . S
H79 C74 0.930 . S
N80 Cu69 1.985 . S
N80 C82 1.335 . S
N80 C83 1.390 . S
N81 C82 1.345 . S
N81 C84 1.336 . S
C82 N80 1.335 . S
C82 N81 1.345 . S
C82 H87 0.930 . S
C83 N80 1.390 . S
C83 C84 1.346 . S
C83 H88 0.903 1_545 S
C84 N81 1.336 . S
C84 C83 1.346 . S
C84 H91 0.929 1_545 S
C85 O75 1.282 . S
C85 O86 1.216 1_545 S
O86 C85 1.216 1_565 S
H87 C82 0.930 . S
H88 C83 0.903 1_565 S
O89 Cu69 1.959 . S
O89 C76 1.251 . S
H90 C73 0.930 . S
H91 C84 0.929 1_565 S
Cu92 N93 1.999 . S
Cu92 O98 1.974 . S
Cu92 N103 1.985 . S
Cu92 O112 1.959 . S
N93 Cu92 1.999 . S
N93 C95 1.263 . S
N93 C97 1.389 . S
N94 C95 1.358 . S
N94 C96 1.400 . S
C95 N93 1.263 . S
C95 N94 1.358 . S
C95 H101 0.930 . S
C96 N94 1.400 . S
C96 C97 1.351 . S
C96 H113 0.930 . S
C97 N93 1.389 . S
C97 C96 1.351 . S
C97 H102 0.930 . S
O98 Cu92 1.974 . S
O98 C108 1.282 . S
C99 O100 1.261 . S
C99 O112 1.251 . S
O100 C99 1.261 . S
H101 C95 0.930 . S
H102 C97 0.930 . S
N103 Cu92 1.985 . S
N103 C105 1.335 . S
N103 C106 1.390 . S
N104 C105 1.345 . S
N104 C107 1.336 . S
C105 N103 1.335 . S
C105 N104 1.345 . S
C105 H110 0.930 . S
C106 N103 1.390 . S
C106 C107 1.346 . S
C106 H111 0.930 . S
C107 N104 1.336 . S
C107 C106 1.346 . S
C107 H114 0.929 . S
C108 O98 1.282 . S
C108 O109 1.216 . S
O109 C108 1.216 . S
H110 C105 0.930 . S
H111 C106 0.930 . S
O112 Cu92 1.959 . S
O112 C99 1.251 . S
H113 C96 0.930 . S
H114 C107 0.929 . S
Cu115 N116 1.999 . S
Cu115 O121 1.974 . S
Cu115 N126 1.985 . S
Cu115 O135 1.959 . S
N116 Cu115 1.999 . S
N116 C118 1.263 . S
N116 C120 1.389 . S
N117 C118 1.358 . S
N117 C119 1.400 . S
C118 N116 1.263 . S
C118 N117 1.358 . S
C118 H124 0.930 . S
C119 N117 1.400 . S
C119 C120 1.351 . S
C119 H136 0.930 . S
C120 N116 1.389 . S
C120 C119 1.351 . S
C120 H125 0.930 . S
O121 Cu115 1.974 . S
O121 C131 1.282 . S
C122 O123 1.261 . S
C122 O135 1.251 . S
O123 C122 1.261 . S
H124 C118 0.930 . S
H125 C120 0.930 . S
N126 Cu115 1.985 . S
N126 C128 1.335 . S
N126 C129 1.390 . S
N127 C128 1.345 . S
N127 C130 1.336 . S
C128 N126 1.335 . S
C128 N127 1.345 . S
C128 H133 0.930 . S
C129 N126 1.390 . S
C129 C130 1.346 . S
C129 H134 0.930 . S
C130 N127 1.336 . S
C130 C129 1.346 . S
C130 H137 0.929 . S
C131 O121 1.282 . S
C131 O132 1.216 . S
O132 C131 1.216 . S
H133 C128 0.930 . S
H134 C129 0.930 . S
O135 Cu115 1.959 . S
O135 C122 1.251 . S
H136 C119 0.930 . S
H137 C130 0.929 . S
Cu138 N139 1.999 . S
Cu138 O144 1.974 . S
Cu138 N149 1.985 . S
Cu138 O158 1.959 . S
N139 Cu138 1.999 . S
N139 C141 1.263 . S
N139 C143 1.389 . S
N140 C141 1.358 . S
N140 C142 1.400 . S
C141 N139 1.263 . S
C141 N140 1.358 . S
C141 H147 0.930 . S
C142 N140 1.400 . S
C142 C143 1.351 . S
C142 H159 0.930 . S
C143 N139 1.389 . S
C143 C142 1.351 . S
C143 H148 0.930 . S
O144 Cu138 1.974 . S
O144 C154 1.282 . S
C145 O146 1.261 . S
C145 O158 1.251 . S
O146 C145 1.261 . S
H147 C141 0.930 . S
H148 C143 0.930 . S
N149 Cu138 1.985 . S
N149 C151 1.335 . S
N149 C152 1.390 . S
N150 C151 1.345 . S
N150 C153 1.336 . S
C151 N149 1.335 . S
C151 N150 1.345 . S
C151 H156 0.930 . S
C152 N149 1.390 . S
C152 C153 1.346 . S
C152 H157 0.930 . S
C153 N150 1.336 . S
C153 C152 1.346 . S
C153 H160 0.929 . S
C154 O144 1.282 . S
C154 O155 1.216 . S
O155 C154 1.216 . S
H156 C151 0.930 . S
H157 C152 0.930 . S
O158 Cu138 1.959 . S
O158 C145 1.251 . S
H159 C142 0.930 . S
H160 C153 0.929 . S
Cu161 N162 1.999 . S
Cu161 O167 1.974 . S
Cu161 N172 1.985 . S
Cu161 O181 1.959 . S
N162 Cu161 1.999 . S
N162 C164 1.263 . S
N162 C166 1.389 . S
N163 C164 1.358 . S
N163 C165 1.400 . S
C164 N162 1.263 . S
C164 N163 1.358 . S
C164 H170 0.930 . S
C165 N163 1.400 . S
C165 C166 1.351 . S
C165 H182 0.930 . S
C166 N162 1.389 . S
C166 C165 1.351 . S
C166 H171 0.930 . S
O167 Cu161 1.974 . S
O167 C177 1.282 . S
C168 O169 1.261 . S
C168 O181 1.251 . S
O169 C168 1.261 . S
H170 C164 0.930 . S
H171 C166 0.930 . S
N172 Cu161 1.985 . S
N172 C174 1.335 . S
N172 C175 1.390 . S
N173 C174 1.345 . S
N173 C176 1.336 . S
C174 N172 1.335 . S
C174 N173 1.345 . S
C174 H179 0.930 . S
C175 N172 1.390 . S
C175 C176 1.346 . S
C175 H180 0.930 . S
C176 N173 1.336 . S
C176 C175 1.346 . S
C176 H183 0.929 . S
C177 O167 1.282 . S
C177 O178 1.216 . S
O178 C177 1.216 . S
H179 C174 0.930 . S
H180 C175 0.930 . S
O181 Cu161 1.959 . S
O181 C168 1.251 . S
H182 C165 0.930 . S
H183 C176 0.929 . S
Cu184 N185 1.999 . S
Cu184 O190 1.974 . S
Cu184 N195 1.985 . S
Cu184 O204 1.959 . S
N185 Cu184 1.999 . S
N185 C187 1.263 . S
N185 C189 1.389 . S
N186 C187 1.358 . S
N186 C188 1.400 . S
C187 N185 1.263 . S
C187 N186 1.358 . S
C187 H193 0.930 . S
C188 N186 1.400 . S
C188 C189 1.351 . S
C188 H205 0.930 . S
C189 N185 1.389 . S
C189 C188 1.351 . S
C189 H194 0.930 . S
O190 Cu184 1.974 . S
O190 C200 1.282 . S
C191 O192 1.261 . S
C191 O204 1.251 . S
O192 C191 1.261 . S
H193 C187 0.930 . S
H194 C189 0.930 . S
N195 Cu184 1.985 . S
N195 C197 1.335 . S
N195 C198 1.390 . S
N196 C197 1.345 . S
N196 C199 1.336 . S
C197 N195 1.335 . S
C197 N196 1.345 . S
C197 H202 0.930 . S
C198 N195 1.390 . S
C198 C199 1.346 . S
C198 H203 0.930 . S
C199 N196 1.336 . S
C199 C198 1.346 . S
C199 H206 0.929 . S
C200 O190 1.282 . S
C200 O201 1.216 . S
O201 C200 1.216 . S
H202 C197 0.930 . S
H203 C198 0.930 . S
O204 Cu184 1.959 . S
O204 C191 1.251 . S
H205 C188 0.930 . S
H206 C199 0.929 . S
Cu207 N208 1.999 . S
Cu207 O213 1.974 . S
Cu207 N218 1.985 . S
Cu207 O227 1.959 . S
N208 Cu207 1.999 . S
N208 C210 1.263 . S
N208 C212 1.389 . S
N209 C210 1.358 . S
N209 C211 1.400 . S
C210 N208 1.263 . S
C210 N209 1.358 . S
C210 H216 0.930 . S
C211 N209 1.400 . S
C211 C212 1.351 . S
C211 H228 0.930 . S
C212 N208 1.389 . S
C212 C211 1.351 . S
C212 H217 0.930 . S
O213 Cu207 1.974 . S
O213 C223 1.282 . S
C214 O215 1.261 . S
C214 O227 1.251 . S
O215 C214 1.261 . S
H216 C210 0.930 . S
H217 C212 0.930 . S
N218 Cu207 1.985 . S
N218 C220 1.335 . S
N218 C221 1.390 . S
N219 C220 1.345 . S
N219 C222 1.336 . S
C220 N218 1.335 . S
C220 N219 1.345 . S
C220 H225 0.930 . S
C221 N218 1.390 . S
C221 C222 1.346 . S
C221 H226 0.930 . S
C222 N219 1.336 . S
C222 C221 1.346 . S
C222 H229 0.929 . S
C223 O213 1.282 . S
C223 O224 1.216 . S
O224 C223 1.216 . S
H225 C220 0.930 . S
H226 C221 0.930 . S
O227 Cu207 1.959 . S
O227 C214 1.251 . S
H228 C211 0.930 . S
H229 C222 0.929 . S
Cu230 N231 1.999 . S
Cu230 O236 1.974 . S
Cu230 N241 1.985 . S
Cu230 O250 1.959 . S
N231 Cu230 1.999 . S
N231 C233 1.263 . S
N231 C235 1.389 . S
N232 C233 1.358 . S
N232 C234 1.400 . S
C233 N231 1.263 . S
C233 N232 1.358 . S
C233 H239 0.930 . S
C234 N232 1.400 . S
C234 C235 1.351 . S
C234 H251 0.930 . S
C235 N231 1.389 . S
C235 C234 1.351 . S
C235 H240 0.930 . S
O236 Cu230 1.974 . S
O236 C246 1.282 . S
C237 O238 1.261 . S
C237 O250 1.251 . S
O238 C237 1.261 . S
H239 C233 0.930 . S
H240 C235 0.930 . S
N241 Cu230 1.985 . S
N241 C243 1.335 . S
N241 C244 1.390 . S
N242 C243 1.345 . S
N242 C245 1.336 . S
C243 N241 1.335 . S
C243 N242 1.345 . S
C243 H248 0.930 . S
C244 N241 1.390 . S
C244 C245 1.346 . S
C244 H249 0.930 . S
C245 N242 1.336 . S
C245 C244 1.346 . S
C245 H252 0.929 . S
C246 O236 1.282 . S
C246 O247 1.216 . S
O247 C246 1.216 . S
H248 C243 0.930 . S
H249 C244 0.930 . S
O250 Cu230 1.959 . S
O250 C237 1.251 . S
H251 C234 0.930 . S
H252 C245 0.929 . S
Cu253 N254 1.999 . S
Cu253 O259 1.974 . S
Cu253 N264 1.985 . S
Cu253 O273 1.959 . S
N254 Cu253 1.999 . S
N254 C256 1.263 . S
N254 C258 1.389 . S
N255 C256 1.358 . S
N255 C257 1.400 . S
C256 N254 1.263 . S
C256 N255 1.358 . S
C256 H262 0.930 . S
C257 N255 1.400 . S
C257 C258 1.351 . S
C257 H274 0.930 . S
C258 N254 1.389 . S
C258 C257 1.351 . S
C258 H263 0.930 . S
O259 Cu253 1.974 . S
O259 C269 1.282 . S
C260 O261 1.261 . S
C260 O273 1.251 . S
O261 C260 1.261 . S
H262 C256 0.930 . S
H263 C258 0.930 . S
N264 Cu253 1.985 . S
N264 C266 1.335 . S
N264 C267 1.390 . S
N265 C266 1.345 . S
N265 C268 1.336 . S
C266 N264 1.335 . S
C266 N265 1.345 . S
C266 H271 0.930 . S
C267 N264 1.390 . S
C267 C268 1.346 . S
C267 H272 0.930 . S
C268 N265 1.336 . S
C268 C267 1.346 . S
C268 H275 0.929 . S
C269 O259 1.282 . S
C269 O270 1.216 . S
O270 C269 1.216 . S
H271 C266 0.930 . S
H272 C267 0.930 . S
O273 Cu253 1.959 . S
O273 C260 1.251 . S
H274 C257 0.930 . S
H275 C268 0.929 . S
Cu276 N277 1.999 . S
Cu276 O282 1.974 . S
Cu276 N287 1.985 . S
Cu276 O296 1.959 . S
N277 Cu276 1.999 . S
N277 C279 1.263 . S
N277 C281 1.389 . S
N278 C279 1.358 . S
N278 C280 1.400 . S
C279 N277 1.263 . S
C279 N278 1.358 . S
C279 H285 0.930 . S
C280 N278 1.400 . S
C280 C281 1.351 . S
C280 H297 0.930 . S
C281 N277 1.389 . S
C281 C280 1.351 . S
C281 H286 0.930 . S
O282 Cu276 1.974 . S
O282 C292 1.282 . S
C283 O284 1.261 . S
C283 O296 1.251 . S
O284 C283 1.261 . S
H285 C279 0.930 . S
H286 C281 0.930 . S
N287 Cu276 1.985 . S
N287 C289 1.335 . S
N287 C290 1.390 . S
N288 C289 1.345 . S
N288 C291 1.336 . S
C289 N287 1.335 . S
C289 N288 1.345 . S
C289 H294 0.930 . S
C290 N287 1.390 . S
C290 C291 1.346 . S
C290 H295 0.930 . S
C291 N288 1.336 . S
C291 C290 1.346 . S
C291 H298 0.929 . S
C292 O282 1.282 . S
C292 O293 1.216 . S
O293 C292 1.216 . S
H294 C289 0.930 . S
H295 C290 0.930 . S
O296 Cu276 1.959 . S
O296 C283 1.251 . S
H297 C280 0.930 . S
H298 C291 0.929 . S
Cu299 N300 1.999 . S
Cu299 O305 1.974 . S
Cu299 N310 1.985 . S
Cu299 O319 1.959 . S
N300 Cu299 1.999 . S
N300 C302 1.263 . S
N300 C304 1.389 . S
N301 C302 1.358 . S
N301 C303 1.400 . S
C302 N300 1.263 . S
C302 N301 1.358 . S
C302 H308 0.930 . S
C303 N301 1.400 . S
C303 C304 1.351 . S
C303 H320 0.930 . S
C304 N300 1.389 . S
C304 C303 1.351 . S
C304 H309 0.930 . S
O305 Cu299 1.974 . S
O305 C315 1.282 . S
C306 O307 1.261 . S
C306 O319 1.251 . S
O307 C306 1.261 . S
H308 C302 0.930 . S
H309 C304 0.930 . S
N310 Cu299 1.985 . S
N310 C312 1.335 . S
N310 C313 1.390 . S
N311 C312 1.345 . S
N311 C314 1.336 . S
C312 N310 1.335 . S
C312 N311 1.345 . S
C312 H317 0.930 . S
C313 N310 1.390 . S
C313 C314 1.346 . S
C313 H318 0.930 . S
C314 N311 1.336 . S
C314 C313 1.346 . S
C314 H321 0.929 . S
C315 O305 1.282 . S
C315 O316 1.216 . S
O316 C315 1.216 . S
H317 C312 0.930 . S
H318 C313 0.930 . S
O319 Cu299 1.959 . S
O319 C306 1.251 . S
H320 C303 0.930 . S
H321 C314 0.929 . S
Cu322 N323 1.999 . S
Cu322 O328 1.974 . S
Cu322 N333 1.985 . S
Cu322 O342 1.959 . S
N323 Cu322 1.999 . S
N323 C325 1.263 . S
N323 C327 1.389 . S
N324 C325 1.358 . S
N324 C326 1.400 . S
C325 N323 1.263 . S
C325 N324 1.358 . S
C325 H331 0.930 . S
C326 N324 1.400 . S
C326 C327 1.351 . S
C326 H343 0.930 . S
C327 N323 1.389 . S
C327 C326 1.351 . S
C327 H332 0.930 . S
O328 Cu322 1.974 . S
O328 C338 1.282 . S
C329 O330 1.261 . S
C329 O342 1.251 . S
O330 C329 1.261 . S
H331 C325 0.930 . S
H332 C327 0.930 . S
N333 Cu322 1.985 . S
N333 C335 1.335 . S
N333 C336 1.390 . S
N334 C335 1.345 . S
N334 C337 1.336 . S
C335 N333 1.335 . S
C335 N334 1.345 . S
C335 H340 0.930 . S
C336 N333 1.390 . S
C336 C337 1.346 . S
C336 H341 0.930 . S
C337 N334 1.336 . S
C337 C336 1.346 . S
C337 H344 0.929 . S
C338 O328 1.282 . S
C338 O339 1.216 . S
O339 C338 1.216 . S
H340 C335 0.930 . S
H341 C336 0.930 . S
O342 Cu322 1.959 . S
O342 C329 1.251 . S
H343 C326 0.930 . S
H344 C337 0.929 . S
Cu345 N346 1.999 . S
Cu345 O351 1.974 . S
Cu345 N356 1.985 . S
Cu345 O365 1.959 . S
N346 Cu345 1.999 . S
N346 C348 1.263 . S
N346 C350 1.389 . S
N347 C348 1.358 . S
N347 C349 1.400 . S
C348 N346 1.263 . S
C348 N347 1.358 . S
C348 H354 0.930 . S
C349 N347 1.400 . S
C349 C350 1.351 . S
C349 H366 0.930 . S
C350 N346 1.389 . S
C350 C349 1.351 . S
C350 H355 0.930 . S
O351 Cu345 1.974 . S
O351 C361 1.282 . S
C352 O353 1.261 . S
C352 O365 1.251 . S
O353 C352 1.261 . S
H354 C348 0.930 . S
H355 C350 0.930 . S
N356 Cu345 1.985 . S
N356 C358 1.335 . S
N356 C359 1.390 . S
N357 C358 1.345 . S
N357 C360 1.336 . S
C358 N356 1.335 . S
C358 N357 1.345 . S
C358 H363 0.930 . S
C359 N356 1.390 . S
C359 C360 1.346 . S
C359 H364 0.930 . S
C360 N357 1.336 . S
C360 C359 1.346 . S
C360 H367 0.929 . S
C361 O351 1.282 . S
C361 O362 1.216 . S
O362 C361 1.216 . S
H363 C358 0.930 . S
H364 C359 0.930 . S
O365 Cu345 1.959 . S
O365 C352 1.251 . S
H366 C349 0.930 . S
H367 C360 0.929 . S
Cu368 N369 1.999 . S
Cu368 O374 1.974 . S
Cu368 N379 1.985 . S
Cu368 O388 1.959 . S
N369 Cu368 1.999 . S
N369 C371 1.263 . S
N369 C373 1.389 . S
N370 C371 1.358 . S
N370 C372 1.400 . S
C371 N369 1.263 . S
C371 N370 1.358 . S
C371 H377 0.930 . S
C372 N370 1.400 . S
C372 C373 1.351 . S
C372 H389 0.930 . S
C373 N369 1.389 . S
C373 C372 1.351 . S
C373 H378 0.930 . S
O374 Cu368 1.974 . S
O374 C384 1.282 . S
C375 O376 1.261 . S
C375 O388 1.251 . S
O376 C375 1.261 . S
H377 C371 0.930 . S
H378 C373 0.930 . S
N379 Cu368 1.985 . S
N379 C381 1.335 . S
N379 C382 1.390 . S
N380 C381 1.345 . S
N380 C383 1.336 . S
C381 N379 1.335 . S
C381 N380 1.345 . S
C381 H386 0.930 . S
C382 N379 1.390 . S
C382 C383 1.346 . S
C382 H387 0.930 . S
C383 N380 1.336 . S
C383 C382 1.346 . S
C383 H390 0.929 . S
C384 O374 1.282 . S
C384 O385 1.216 . S
O385 C384 1.216 . S
H386 C381 0.930 . S
H387 C382 0.930 . S
O388 Cu368 1.959 . S
O388 C375 1.251 . S
H389 C372 0.930 . S
H390 C383 0.929 . S
Cu391 N392 1.999 . S
Cu391 O397 1.974 . S
Cu391 N402 1.985 . S
Cu391 O411 1.959 . S
N392 Cu391 1.999 . S
N392 C394 1.263 . S
N392 C396 1.389 . S
N393 C394 1.358 . S
N393 C395 1.400 . S
C394 N392 1.263 . S
C394 N393 1.358 . S
C394 H400 0.930 . S
C395 N393 1.400 . S
C395 C396 1.351 . S
C395 H412 0.930 . S
C396 N392 1.389 . S
C396 C395 1.351 . S
C396 H401 0.930 . S
O397 Cu391 1.974 . S
O397 C407 1.282 . S
C398 O399 1.261 . S
C398 O411 1.251 . S
O399 C398 1.261 . S
H400 C394 0.930 . S
H401 C396 0.930 . S
N402 Cu391 1.985 . S
N402 C404 1.335 . S
N402 C405 1.390 . S
N403 C404 1.345 . S
N403 C406 1.336 . S
C404 N402 1.335 . S
C404 N403 1.345 . S
C404 H409 0.930 . S
C405 N402 1.390 . S
C405 C406 1.346 . S
C405 H410 0.930 . S
C406 N403 1.336 . S
C406 C405 1.346 . S
C406 H413 0.929 . S
C407 O397 1.282 . S
C407 O408 1.216 . S
O408 C407 1.216 . S
H409 C404 0.930 . S
H410 C405 0.930 . S
O411 Cu391 1.959 . S
O411 C398 1.251 . S
H412 C395 0.930 . S
H413 C406 0.929 . S
In414 O415 2.294 . S
In414 O416 2.326 . S
In414 O420 2.266 . S
In414 O421 2.326 1_455 S
In414 O422 2.266 1_455 S
In414 O423 2.326 . S
In414 O425 2.294 . S
In414 O426 2.326 . S
O415 In414 2.294 . S
O415 C424 1.240 . S
O416 In414 2.326 . S
O416 C424 1.252 . S
C417 O420 1.252 . S
C417 O421 1.260 1_455 S
C418 O425 1.240 . S
C418 O426 1.252 . S
C419 O422 1.252 . S
C419 O423 1.260 1_655 S
O420 In414 2.266 . S
O420 C417 1.252 . S
O421 In414 2.326 1_655 S
O421 C417 1.260 1_655 S
O422 In414 2.266 1_655 S
O422 C419 1.252 . S
O423 In414 2.326 . S
O423 C419 1.260 1_455 S
C424 O415 1.240 . S
C424 O416 1.252 . S
O425 In414 2.294 . S
O425 C418 1.240 . S
O426 In414 2.326 . S
O426 C418 1.252 . S
In427 O428 2.294 . S
In427 O429 2.326 . S
In427 O433 2.266 . S
In427 O434 2.326 . S
In427 O435 2.266 . S
In427 O436 2.326 . S
In427 O438 2.294 . S
In427 O439 2.326 . S
O428 In427 2.294 . S
O428 C437 1.240 . S
O429 In427 2.326 . S
O429 C437 1.252 . S
C430 O433 1.252 . S
C430 O434 1.260 . S
C431 O438 1.240 . S
C431 O439 1.252 . S
C432 O435 1.252 . S
C432 O436 1.260 . S
O433 In427 2.266 . S
O433 C430 1.252 . S
O434 In427 2.326 . S
O434 C430 1.260 . S
O435 In427 2.266 . S
O435 C432 1.252 . S
O436 In427 2.326 . S
O436 C432 1.260 . S
C437 O428 1.240 . S
C437 O429 1.252 . S
O438 In427 2.294 . S
O438 C431 1.240 . S
O439 In427 2.326 . S
O439 C431 1.252 . S
In440 O441 2.294 . S
In440 O442 2.326 . S
In440 O446 2.266 . S
In440 O447 2.326 . S
In440 O448 2.266 . S
In440 O449 2.326 . S
In440 O451 2.294 . S
In440 O452 2.326 . S
O441 In440 2.294 . S
O441 C450 1.240 . S
O442 In440 2.326 . S
O442 C450 1.252 . S
C443 O446 1.252 . S
C443 O447 1.260 . S
C444 O451 1.240 . S
C444 O452 1.252 . S
C445 O448 1.252 . S
C445 O449 1.260 . S
O446 In440 2.266 . S
O446 C443 1.252 . S
O447 In440 2.326 . S
O447 C443 1.260 . S
O448 In440 2.266 . S
O448 C445 1.252 . S
O449 In440 2.326 . S
O449 C445 1.260 . S
C450 O441 1.240 . S
C450 O442 1.252 . S
O451 In440 2.294 . S
O451 C444 1.240 . S
O452 In440 2.326 . S
O452 C444 1.252 . S
In453 O454 2.294 . S
In453 O455 2.326 . S
In453 O459 2.266 1_455 S
In453 O460 2.326 . S
In453 O461 2.266 . S
In453 O462 2.326 . S
In453 O464 2.294 . S
In453 O465 2.326 . S
O454 In453 2.294 . S
O454 C463 1.240 . S
O455 In453 2.326 . S
O455 C463 1.252 . S
C456 O459 1.252 1_455 S
C456 O460 1.260 . S
C457 O464 1.240 . S
C457 O465 1.252 . S
C458 O461 1.252 . S
C458 O462 1.260 . S
O459 In453 2.266 1_655 S
O459 C456 1.252 1_655 S
O460 In453 2.326 . S
O460 C456 1.260 . S
O461 In453 2.266 . S
O461 C458 1.252 . S
O462 In453 2.326 . S
O462 C458 1.260 . S
C463 O454 1.240 . S
C463 O455 1.252 . S
O464 In453 2.294 . S
O464 C457 1.240 . S
O465 In453 2.326 . S
O465 C457 1.252 . S
In466 O467 2.294 . S
In466 O468 2.326 . S
In466 O472 2.266 . S
In466 O473 2.326 . S
In466 O474 2.266 . S
In466 O475 2.326 . S
In466 O477 2.294 . S
In466 O478 2.326 . S
O467 In466 2.294 . S
O467 C476 1.240 . S
O468 In466 2.326 . S
O468 C476 1.252 . S
C469 O472 1.252 . S
C469 O473 1.260 . S
C470 O477 1.240 . S
C470 O478 1.252 . S
C471 O474 1.252 . S
C471 O475 1.260 . S
O472 In466 2.266 . S
O472 C469 1.252 . S
O473 In466 2.326 . S
O473 C469 1.260 . S
O474 In466 2.266 . S
O474 C471 1.252 . S
O475 In466 2.326 . S
O475 C471 1.260 . S
C476 O467 1.240 . S
C476 O468 1.252 . S
O477 In466 2.294 . S
O477 C470 1.240 . S
O478 In466 2.326 . S
O478 C470 1.252 . S
In479 O480 2.294 . S
In479 O481 2.326 . S
In479 O485 2.266 . S
In479 O486 2.326 . S
In479 O487 2.266 1_545 S
In479 O488 2.326 . S
In479 O490 2.294 . S
In479 O491 2.326 . S
O480 In479 2.294 . S
O480 C489 1.240 . S
O481 In479 2.326 . S
O481 C489 1.252 . S
C482 O485 1.252 . S
C482 O486 1.260 . S
C483 O490 1.240 . S
C483 O491 1.252 . S
C484 O487 1.252 . S
C484 O488 1.260 1_565 S
O485 In479 2.266 . S
O485 C482 1.252 . S
O486 In479 2.326 . S
O486 C482 1.260 . S
O487 In479 2.266 1_565 S
O487 C484 1.252 . S
O488 In479 2.326 . S
O488 C484 1.260 1_545 S
C489 O480 1.240 . S
C489 O481 1.252 . S
O490 In479 2.294 . S
O490 C483 1.240 . S
O491 In479 2.326 . S
O491 C483 1.252 . S
In492 O493 2.294 1_565 S
In492 O494 2.326 1_565 S
In492 O498 2.266 . S
In492 O499 2.326 . S
In492 O500 2.266 . S
In492 O501 2.326 1_565 S
In492 O503 2.294 . S
In492 O504 2.326 . S
O493 In492 2.294 1_545 S
O493 C502 1.240 . S
O494 In492 2.326 1_545 S
O494 C502 1.252 . S
C495 O498 1.252 . S
C495 O499 1.260 . S
C496 O503 1.240 . S
C496 O504 1.252 . S
C497 O500 1.280 . S
C497 O501 1.260 1_565 S
O498 In492 2.266 . S
O498 C495 1.252 . S
O499 In492 2.326 . S
O499 C495 1.260 . S
O500 In492 2.266 . S
O500 C497 1.280 . S
O501 In492 2.326 1_545 S
O501 C497 1.260 1_545 S
C502 O493 1.240 . S
C502 O494 1.252 . S
O503 In492 2.294 . S
O503 C496 1.240 . S
O504 In492 2.326 . S
O504 C496 1.252 . S
In505 O506 2.294 . S
In505 O507 2.326 . S
In505 O511 2.266 . S
In505 O512 2.326 . S
In505 O513 2.266 . S
In505 O514 2.326 . S
In505 O516 2.294 . S
In505 O517 2.326 . S
O506 In505 2.294 . S
O506 C515 1.240 . S
O507 In505 2.326 . S
O507 C515 1.252 . S
C508 O511 1.252 . S
C508 O512 1.260 . S
C509 O516 1.240 . S
C509 O517 1.252 . S
C510 O513 1.252 . S
C510 O514 1.260 . S
O511 In505 2.266 . S
O511 C508 1.252 . S
O512 In505 2.326 . S
O512 C508 1.260 . S
O513 In505 2.266 . S
O513 C510 1.252 . S
O514 In505 2.326 . S
O514 C510 1.260 . S
C515 O506 1.240 . S
C515 O507 1.252 . S
O516 In505 2.294 . S
O516 C509 1.240 . S
O517 In505 2.326 . S
O517 C509 1.252 . S
In518 O519 2.294 . S
In518 O520 2.326 . S
In518 O524 2.266 . S
In518 O525 2.326 . S
In518 O526 2.266 . S
In518 O527 2.326 . S
In518 O529 2.294 . S
In518 O530 2.326 . S
O519 In518 2.294 . S
O519 C528 1.240 . S
O520 In518 2.326 . S
O520 C528 1.252 . S
C521 O524 1.252 . S
C521 O525 1.260 . S
C522 O529 1.240 . S
C522 O530 1.252 . S
C523 O526 1.252 . S
C523 O527 1.260 . S
O524 In518 2.266 . S
O524 C521 1.252 . S
O525 In518 2.326 . S
O525 C521 1.260 . S
O526 In518 2.266 . S
O526 C523 1.252 . S
O527 In518 2.326 . S
O527 C523 1.260 . S
C528 O519 1.240 . S
C528 O520 1.252 . S
O529 In518 2.294 . S
O529 C522 1.240 . S
O530 In518 2.326 . S
O530 C522 1.252 . S
In531 O532 2.294 . S
In531 O533 2.326 . S
In531 O537 2.266 . S
In531 O538 2.326 . S
In531 O539 2.266 . S
In531 O540 2.326 . S
In531 O542 2.294 . S
In531 O543 2.326 . S
O532 In531 2.294 . S
O532 C541 1.240 . S
O533 In531 2.326 . S
O533 C541 1.252 . S
C534 O537 1.252 . S
C534 O538 1.260 . S
C535 O542 1.240 . S
C535 O543 1.252 . S
C536 O539 1.252 . S
C536 O540 1.260 . S
O537 In531 2.266 . S
O537 C534 1.252 . S
O538 In531 2.326 . S
O538 C534 1.260 . S
O539 In531 2.266 . S
O539 C536 1.252 . S
O540 In531 2.326 . S
O540 C536 1.260 . S
C541 O532 1.240 . S
C541 O533 1.252 . S
O542 In531 2.294 . S
O542 C535 1.240 . S
O543 In531 2.326 . S
O543 C535 1.252 . S
In544 O545 2.297 . S
In544 O546 2.326 . S
In544 O550 2.268 1_565 S
In544 O551 2.325 1_565 S
In544 O552 2.262 1_565 S
In544 O553 2.323 1_565 S
In544 O555 2.293 . S
In544 O556 2.330 . S
O545 In544 2.297 . S
O545 C554 1.240 . S
O546 In544 2.326 . S
O546 C554 1.252 . S
C547 O550 1.252 . S
C547 O551 1.260 . S
C548 O555 1.240 . S
C548 O556 1.252 . S
C549 O552 1.252 . S
C549 O553 1.260 . S
O550 In544 2.268 1_545 S
O550 C547 1.252 . S
O551 In544 2.325 1_545 S
O551 C547 1.260 . S
O552 In544 2.262 1_545 S
O552 C549 1.252 . S
O553 In544 2.323 1_545 S
O553 C549 1.260 . S
C554 O545 1.240 . S
C554 O546 1.252 . S
O555 In544 2.293 . S
O555 C548 1.240 . S
O556 In544 2.330 . S
O556 C548 1.252 . S
In557 O558 2.294 . S
In557 O559 2.326 . S
In557 O563 2.266 . S
In557 O564 2.326 . S
In557 O565 2.266 . S
In557 O566 2.326 . S
In557 O568 2.294 . S
In557 O569 2.326 . S
O558 In557 2.294 . S
O558 C567 1.240 . S
O559 In557 2.326 . S
O559 C567 1.252 . S
C560 O563 1.252 . S
C560 O564 1.260 . S
C561 O568 1.240 . S
C561 O569 1.252 . S
C562 O565 1.252 . S
C562 O566 1.260 . S
O563 In557 2.266 . S
O563 C560 1.252 . S
O564 In557 2.326 . S
O564 C560 1.260 . S
O565 In557 2.266 . S
O565 C562 1.252 . S
O566 In557 2.326 . S
O566 C562 1.260 . S
C567 O558 1.240 . S
C567 O559 1.252 . S
O568 In557 2.294 . S
O568 C561 1.240 . S
O569 In557 2.326 . S
O569 C561 1.252 . S
In570 O571 2.294 1_556 S
In570 O572 2.326 . S
In570 O576 2.266 . S
In570 O577 2.326 . S
In570 O578 2.266 . S
In570 O579 2.326 . S
In570 O581 2.294 . S
In570 O582 2.326 . S
O571 In570 2.294 1_554 S
O571 C580 1.240 . S
O572 In570 2.326 . S
O572 C580 1.252 1_556 S
C573 O576 1.252 . S
C573 O577 1.260 . S
C574 O581 1.240 . S
C574 O582 1.252 . S
C575 O578 1.252 . S
C575 O579 1.260 . S
O576 In570 2.266 . S
O576 C573 1.252 . S
O577 In570 2.326 . S
O577 C573 1.260 . S
O578 In570 2.266 . S
O578 C575 1.252 . S
O579 In570 2.326 . S
O579 C575 1.260 . S
C580 O571 1.240 . S
C580 O572 1.252 1_554 S
O581 In570 2.294 . S
O581 C574 1.240 . S
O582 In570 2.326 . S
O582 C574 1.252 . S
In583 O584 2.294 . S
In583 O585 2.326 . S
In583 O589 2.266 . S
In583 O590 2.326 . S
In583 O591 2.266 . S
In583 O592 2.326 . S
In583 O594 2.294 . S
In583 O595 2.326 . S
O584 In583 2.294 . S
O584 C593 1.240 . S
O585 In583 2.326 . S
O585 C593 1.252 . S
C586 O589 1.252 . S
C586 O590 1.260 . S
C587 O594 1.240 . S
C587 O595 1.252 . S
C588 O591 1.252 . S
C588 O592 1.260 . S
O589 In583 2.266 . S
O589 C586 1.252 . S
O590 In583 2.326 . S
O590 C586 1.260 . S
O591 In583 2.266 . S
O591 C588 1.252 . S
O592 In583 2.326 . S
O592 C588 1.260 . S
C593 O584 1.240 . S
C593 O585 1.252 . S
O594 In583 2.294 . S
O594 C587 1.240 . S
O595 In583 2.326 . S
O595 C587 1.252 . S
In596 O597 2.294 . S
In596 O598 2.326 . S
In596 O602 2.266 1_655 S
In596 O603 2.326 1_655 S
In596 O604 2.266 . S
In596 O605 2.326 . S
In596 O607 2.294 . S
In596 O608 2.326 1_655 S
O597 In596 2.294 . S
O597 C606 1.240 . S
O598 In596 2.326 . S
O598 C606 1.252 . S
C599 O602 1.252 . S
C599 O603 1.260 . S
C600 O607 1.240 . S
C600 O608 1.252 1_655 S
C601 O604 1.252 . S
C601 O605 1.260 . S
O602 In596 2.266 1_455 S
O602 C599 1.252 . S
O603 In596 2.326 1_455 S
O603 C599 1.260 . S
O604 In596 2.266 . S
O604 C601 1.252 . S
O605 In596 2.326 . S
O605 C601 1.260 . S
C606 O597 1.240 . S
C606 O598 1.252 . S
O607 In596 2.294 . S
O607 C600 1.240 . S
O608 In596 2.326 1_455 S
O608 C600 1.252 1_455 S
In609 O610 2.294 . S
In609 O611 2.326 . S
In609 O615 2.266 . S
In609 O616 2.326 . S
In609 O617 2.266 . S
In609 O618 2.326 . S
In609 O620 2.294 . S
In609 O621 2.326 . S
O610 In609 2.294 . S
O610 C619 1.240 . S
O611 In609 2.326 . S
O611 C619 1.252 . S
C612 O615 1.252 . S
C612 O616 1.260 . S
C613 O620 1.240 . S
C613 O621 1.252 . S
C614 O617 1.252 . S
C614 O618 1.260 . S
O615 In609 2.266 . S
O615 C612 1.252 . S
O616 In609 2.326 . S
O616 C612 1.260 . S
O617 In609 2.266 . S
O617 C614 1.252 . S
O618 In609 2.326 . S
O618 C614 1.260 . S
C619 O610 1.240 . S
C619 O611 1.252 . S
O620 In609 2.294 . S
O620 C613 1.240 . S
O621 In609 2.326 . S
O621 C613 1.252 . S
In622 O623 2.293 . S
In622 O624 2.330 . S
In622 O628 2.262 1_655 S
In622 O629 2.323 1_655 S
In622 O630 2.268 1_655 S
In622 O631 2.325 1_655 S
In622 O633 2.297 . S
In622 O634 2.327 . S
O623 In622 2.293 . S
O623 C632 1.240 . S
O624 In622 2.330 . S
O624 C632 1.252 . S
C625 O628 1.252 . S
C625 O629 1.260 . S
C626 O633 1.240 . S
C626 O634 1.252 . S
C627 O630 1.252 . S
C627 O631 1.260 . S
O628 In622 2.262 1_455 S
O628 C625 1.252 . S
O629 In622 2.323 1_455 S
O629 C625 1.260 . S
O630 In622 2.268 1_455 S
O630 C627 1.252 . S
O631 In622 2.325 1_455 S
O631 C627 1.260 . S
C632 O623 1.240 . S
C632 O624 1.252 . S
O633 In622 2.297 . S
O633 C626 1.240 . S
O634 In622 2.327 . S
O634 C626 1.252 . S
In635 O636 2.294 . S
In635 O637 2.326 . S
In635 O641 2.266 . S
In635 O642 2.326 . S
In635 O643 2.266 . S
In635 O644 2.326 . S
In635 O646 2.294 . S
In635 O647 2.326 . S
O636 In635 2.294 . S
O636 C645 1.240 . S
O637 In635 2.326 . S
O637 C645 1.252 . S
C638 O641 1.252 . S
C638 O642 1.260 . S
C639 O646 1.240 . S
C639 O647 1.252 . S
C640 O643 1.252 . S
C640 O644 1.260 . S
O641 In635 2.266 . S
O641 C638 1.252 . S
O642 In635 2.326 . S
O642 C638 1.260 . S
O643 In635 2.266 . S
O643 C640 1.252 . S
O644 In635 2.326 . S
O644 C640 1.260 . S
C645 O636 1.240 . S
C645 O637 1.252 . S
O646 In635 2.294 . S
O646 C639 1.240 . S
O647 In635 2.326 . S
O647 C639 1.252 . S
C648 C649 1.387 . S
C648 H652 0.950 . S
C648 C657 1.390 . S
C649 C648 1.387 . S
C649 C651 1.387 . S
H650 C657 0.950 . S
C651 C649 1.387 . S
C651 C653 1.390 . S
C651 H655 0.950 1_455 S
H652 C648 0.950 . S
C653 C651 1.390 . S
C653 C654 1.387 . S
C653 H656 0.950 . S
C654 C653 1.387 . S
C654 C657 1.387 . S
H655 C651 0.950 1_655 S
H656 C653 0.950 . S
C657 C648 1.390 . S
C657 H650 0.950 . S
C657 C654 1.387 . S
C658 C659 1.387 . S
C658 H662 0.950 . S
C658 C667 1.390 . S
C659 C658 1.387 . S
C659 C661 1.387 . S
H660 C667 0.950 . S
C661 C659 1.387 . S
C661 C663 1.390 . S
C661 H665 0.950 1_554 S
H662 C658 0.950 . S
C663 C661 1.390 . S
C663 C664 1.387 . S
C663 H666 0.950 . S
C664 C663 1.387 . S
C664 C667 1.387 . S
H665 C661 0.950 1_556 S
H666 C663 0.950 . S
C667 C658 1.390 . S
C667 H660 0.950 . S
C667 C664 1.387 . S
C668 C669 1.387 . S
C668 H672 0.950 . S
C668 C677 1.390 . S
C669 C668 1.387 . S
C669 C671 1.387 . S
H670 C677 0.950 . S
C671 C669 1.387 . S
C671 C673 1.390 . S
C671 H675 0.950 . S
H672 C668 0.950 . S
C673 C671 1.390 . S
C673 C674 1.387 . S
C673 H676 0.950 . S
C674 C673 1.387 . S
C674 C677 1.387 . S
H675 C671 0.950 . S
H676 C673 0.950 . S
C677 C668 1.390 . S
C677 H670 0.950 . S
C677 C674 1.387 . S
C678 C679 1.387 . S
C678 H682 0.950 . S
C678 C687 1.390 . S
C679 C678 1.387 . S
C679 C681 1.387 . S
H680 C687 0.950 . S
C681 C679 1.387 . S
C681 C683 1.390 . S
C681 H685 0.950 . S
H682 C678 0.950 . S
C683 C681 1.390 . S
C683 C684 1.387 . S
C683 H686 0.950 . S
C684 C683 1.387 . S
C684 C687 1.387 . S
H685 C681 0.950 . S
H686 C683 0.950 . S
C687 C678 1.390 . S
C687 H680 0.950 . S
C687 C684 1.387 . S
C688 C689 1.387 . S
C688 H692 0.950 . S
C688 C697 1.390 . S
C689 C688 1.387 . S
C689 C691 1.387 . S
H690 C697 0.950 . S
C691 C689 1.387 . S
C691 C693 1.390 . S
C691 H695 0.950 . S
H692 C688 0.950 . S
C693 C691 1.390 . S
C693 C694 1.387 . S
C693 H696 0.950 . S
C694 C693 1.387 . S
C694 C697 1.387 . S
H695 C691 0.950 . S
H696 C693 0.950 . S
C697 C688 1.390 . S
C697 H690 0.950 . S
C697 C694 1.387 . S
C698 C699 1.387 . S
C698 H702 0.950 . S
C698 C707 1.390 . S
C699 C698 1.387 . S
C699 C701 1.387 . S
H700 C707 0.950 . S
C701 C699 1.387 . S
C701 C703 1.390 . S
C701 H705 0.950 . S
H702 C698 0.950 . S
C703 C701 1.390 . S
C703 C704 1.387 . S
C703 H706 0.950 . S
C704 C703 1.387 . S
C704 C707 1.387 . S
H705 C701 0.950 . S
H706 C703 0.950 . S
C707 C698 1.390 . S
C707 H700 0.950 . S
C707 C704 1.387 . S
C708 C709 1.412 . S
C708 H712 0.920 1_556 S
C708 C717 1.396 . S
C709 C708 1.412 . S
C709 C711 1.387 . S
H710 C717 0.950 1_454 S
C711 C709 1.387 . S
C711 C713 1.390 . S
C711 H715 0.950 . S
H712 C708 0.920 1_554 S
C713 C711 1.390 . S
C713 C714 1.387 . S
C713 H716 0.950 . S
C714 C713 1.387 . S
C714 C717 1.387 . S
H715 C711 0.950 . S
H716 C713 0.950 . S
C717 C708 1.396 . S
C717 H710 0.950 1_656 S
C717 C714 1.387 . S
C718 C719 1.387 . S
C718 H722 0.950 . S
C718 C727 1.390 . S
C719 C718 1.387 . S
C719 C721 1.387 1_556 S
H720 C727 0.950 . S
C721 C719 1.387 1_554 S
C721 C723 1.390 . S
C721 H725 0.950 . S
H722 C718 0.950 . S
C723 C721 1.390 . S
C723 C724 1.387 1_554 S
C723 H726 0.950 . S
C724 C723 1.387 1_556 S
C724 C727 1.387 . S
H725 C721 0.950 . S
H726 C723 0.950 . S
C727 C718 1.390 . S
C727 H720 0.950 . S
C727 C724 1.387 . S
C728 C729 1.387 . S
C728 H732 0.950 . S
C728 C737 1.390 . S
C729 C728 1.387 . S
C729 C731 1.387 . S
H730 C737 0.950 . S
C731 C729 1.387 . S
C731 C733 1.390 . S
C731 H735 0.950 . S
H732 C728 0.950 . S
C733 C731 1.390 . S
C733 C734 1.387 . S
C733 H736 0.950 . S
C734 C733 1.387 . S
C734 C737 1.387 . S
H735 C731 0.950 . S
H736 C733 0.950 . S
C737 C728 1.390 . S
C737 H730 0.950 . S
C737 C734 1.387 . S
C738 C739 1.387 1_565 S
C738 H742 0.950 . S
C738 C747 1.390 . S
C739 C738 1.387 1_545 S
C739 C741 1.387 . S
H740 C747 0.950 . S
C741 C739 1.387 . S
C741 C743 1.390 . S
C741 H745 0.950 . S
H742 C738 0.950 . S
C743 C741 1.390 . S
C743 C744 1.439 . S
C743 H746 0.950 . S
C744 C743 1.439 . S
C744 C747 1.363 1_545 S
H745 C741 0.950 . S
H746 C743 0.950 . S
C747 C738 1.390 . S
C747 H740 0.950 . S
C747 C744 1.363 1_565 S
C748 C749 1.387 . S
C748 H752 0.950 . S
C748 C757 1.390 . S
C749 C748 1.387 . S
C749 C751 1.387 . S
H750 C757 0.950 . S
C751 C749 1.387 . S
C751 C753 1.390 . S
C751 H755 0.950 . S
H752 C748 0.950 . S
C753 C751 1.390 . S
C753 C754 1.387 . S
C753 H756 0.950 . S
C754 C753 1.387 . S
C754 C757 1.387 . S
H755 C751 0.950 . S
H756 C753 0.950 . S
C757 C748 1.390 . S
C757 H750 0.950 . S
C757 C754 1.387 . S
C758 C759 1.387 . S
C758 H762 0.950 . S
C758 C767 1.390 . S
C759 C758 1.387 . S
C759 C761 1.387 . S
H760 C767 0.950 . S
C761 C759 1.387 . S
C761 C763 1.390 . S
C761 H765 0.950 . S
H762 C758 0.950 . S
C763 C761 1.390 . S
C763 C764 1.387 . S
C763 H766 0.950 . S
C764 C763 1.387 . S
C764 C767 1.387 . S
H765 C761 0.950 . S
H766 C763 0.950 . S
C767 C758 1.390 . S
C767 H760 0.950 . S
C767 C764 1.387 . S
C768 C769 1.387 . S
C768 H772 0.950 . S
C768 C777 1.390 . S
C769 C768 1.387 . S
C769 C771 1.387 . S
H770 C777 0.950 . S
C771 C769 1.387 . S
C771 C773 1.390 . S
C771 H775 0.950 . S
H772 C768 0.950 . S
C773 C771 1.390 . S
C773 C774 1.387 . S
C773 H776 0.950 . S
C774 C773 1.387 . S
C774 C777 1.387 . S
H775 C771 0.950 . S
H776 C773 0.950 . S
C777 C768 1.390 . S
C777 H770 0.950 . S
C777 C774 1.387 . S
C778 C779 1.387 . S
C778 H782 0.950 . S
C778 C787 1.390 1_565 S
C779 C778 1.387 . S
C779 C781 1.387 . S
H780 C787 0.950 . S
C781 C779 1.387 . S
C781 C783 1.390 1_565 S
C781 H785 0.950 . S
H782 C778 0.950 . S
C783 C781 1.390 1_545 S
C783 C784 1.387 . S
C783 H786 0.950 . S
C784 C783 1.387 . S
C784 C787 1.387 . S
H785 C781 0.950 . S
H786 C783 0.950 . S
C787 C778 1.390 1_545 S
C787 H780 0.950 . S
C787 C784 1.387 . S
C788 C789 1.387 . S
C788 H792 0.950 . S
C788 C797 1.390 . S
C789 C788 1.387 . S
C789 C791 1.387 . S
H790 C797 0.950 . S
C791 C789 1.387 . S
C791 C793 1.390 . S
C791 H795 0.950 . S
H792 C788 0.950 . S
C793 C791 1.390 . S
C793 C794 1.387 . S
C793 H796 0.950 . S
C794 C793 1.387 . S
C794 C797 1.387 . S
H795 C791 0.950 . S
H796 C793 0.950 . S
C797 C788 1.390 . S
C797 H790 0.950 . S
C797 C794 1.387 . S
C798 C799 1.387 . S
C798 H802 0.950 . S
C798 C807 1.390 . S
C799 C798 1.387 . S
C799 C801 1.387 . S
H800 C807 0.950 . S
C801 C799 1.387 . S
C801 C803 1.390 . S
C801 H805 0.950 . S
H802 C798 0.950 . S
C803 C801 1.390 . S
C803 C804 1.387 . S
C803 H806 0.950 . S
C804 C803 1.387 . S
C804 C807 1.387 . S
H805 C801 0.950 . S
H806 C803 0.950 . S
C807 C798 1.390 . S
C807 H800 0.950 . S
C807 C804 1.387 . S
C808 C809 1.387 . S
C808 H812 0.950 . S
C808 C817 1.390 . S
C809 C808 1.387 . S
C809 C811 1.387 . S
H810 C817 0.950 . S
C811 C809 1.387 . S
C811 C813 1.390 . S
C811 H815 0.950 . S
H812 C808 0.950 . S
C813 C811 1.390 . S
C813 C814 1.387 . S
C813 H816 0.950 . S
C814 C813 1.387 . S
C814 C817 1.387 . S
H815 C811 0.950 . S
H816 C813 0.950 . S
C817 C808 1.390 . S
C817 H810 0.950 . S
C817 C814 1.387 . S
C818 C819 1.387 . S
C818 H822 0.950 . S
C818 C827 1.390 . S
C819 C818 1.387 . S
C819 C821 1.387 . S
H820 C827 0.950 . S
C821 C819 1.387 . S
C821 C823 1.390 . S
C821 H825 0.950 . S
H822 C818 0.950 . S
C823 C821 1.390 . S
C823 C824 1.387 . S
C823 H826 0.950 . S
C824 C823 1.387 . S
C824 C827 1.387 . S
H825 C821 0.950 . S
H826 C823 0.950 . S
C827 C818 1.390 . S
C827 H820 0.950 . S
C827 C824 1.387 . S
C828 C829 1.387 . S
C828 H832 0.950 . S
C828 C837 1.390 . S
C829 C828 1.387 . S
C829 C831 1.387 . S
H830 C837 0.950 1_545 S
C831 C829 1.387 . S
C831 C833 1.390 . S
C831 H835 0.950 . S
H832 C828 0.950 . S
C833 C831 1.390 . S
C833 C834 1.387 1_565 S
C833 H836 0.969 . S
C834 C833 1.387 1_545 S
C834 C837 1.387 1_545 S
H835 C831 0.950 . S
H836 C833 0.969 . S
C837 C828 1.390 . S
C837 H830 0.950 1_565 S
C837 C834 1.387 1_565 S
C838 C839 1.387 . S
C838 H842 0.950 . S
C838 C847 1.390 . S
C839 C838 1.387 . S
C839 C841 1.387 . S
H840 C847 0.950 . S
C841 C839 1.387 . S
C841 C843 1.390 . S
C841 H845 0.950 . S
H842 C838 0.950 . S
C843 C841 1.390 . S
C843 C844 1.387 . S
C843 H846 0.950 . S
C844 C843 1.387 . S
C844 C847 1.387 . S
H845 C841 0.950 . S
H846 C843 0.950 . S
C847 C838 1.390 . S
C847 H840 0.950 . S
C847 C844 1.387 . S
C848 C849 1.387 . S
C848 H852 0.950 . S
C848 C857 1.390 . S
C849 C848 1.387 . S
C849 C851 1.387 . S
H850 C857 0.950 . S
C851 C849 1.387 . S
C851 C853 1.390 . S
C851 H855 0.950 . S
H852 C848 0.950 . S
C853 C851 1.390 . S
C853 C854 1.387 . S
C853 H856 0.950 . S
C854 C853 1.387 . S
C854 C857 1.387 . S
H855 C851 0.950 . S
H856 C853 0.950 . S
C857 C848 1.390 . S
C857 H850 0.950 . S
C857 C854 1.387 . S
C858 C859 1.387 . S
C858 H862 0.950 . S
C858 C867 1.390 . S
C859 C858 1.387 . S
C859 C861 1.387 . S
H860 C867 0.950 . S
C861 C859 1.387 . S
C861 C863 1.390 . S
C861 H865 0.950 . S
H862 C858 0.950 . S
C863 C861 1.390 . S
C863 C864 1.387 . S
C863 H866 0.950 . S
C864 C863 1.387 . S
C864 C867 1.387 . S
H865 C861 0.950 . S
H866 C863 0.950 . S
C867 C858 1.390 . S
C867 H860 0.950 . S
C867 C864 1.387 . S
C868 C869 1.387 1_545 S
C868 H872 0.950 . S
C868 C877 1.390 . S
C869 C868 1.387 1_565 S
C869 C871 1.387 . S
H870 C877 0.950 . S
C871 C869 1.387 . S
C871 C873 1.390 1_565 S
C871 H875 0.950 . S
H872 C868 0.950 . S
C873 C871 1.390 1_545 S
C873 C874 1.387 . S
C873 H876 0.950 . S
C874 C873 1.387 . S
C874 C877 1.387 . S
H875 C871 0.950 . S
H876 C873 0.950 . S
C877 C868 1.390 . S
C877 H870 0.950 . S
C877 C874 1.387 . S
C878 C879 1.387 . S
C878 H882 0.950 . S
C878 C887 1.390 . S
C879 C878 1.387 . S
C879 C881 1.387 . S
H880 C887 0.950 . S
C881 C879 1.387 . S
C881 C883 1.390 . S
C881 H885 0.950 . S
H882 C878 0.950 . S
C883 C881 1.390 . S
C883 C884 1.387 . S
C883 H886 0.950 . S
C884 C883 1.387 . S
C884 C887 1.387 . S
H885 C881 0.950 . S
H886 C883 0.950 . S
C887 C878 1.390 . S
C887 H880 0.950 . S
C887 C884 1.387 . S
C888 C889 1.387 . S
C888 H892 0.950 . S
C888 C897 1.390 . S
C889 C888 1.387 . S
C889 C891 1.387 . S
H890 C897 0.950 . S
C891 C889 1.387 . S
C891 C893 1.390 . S
C891 H895 0.950 . S
H892 C888 0.950 . S
C893 C891 1.390 . S
C893 C894 1.387 . S
C893 H896 0.950 . S
C894 C893 1.387 . S
C894 C897 1.387 . S
H895 C891 0.950 . S
H896 C893 0.950 . S
C897 C888 1.390 . S
C897 H890 0.950 . S
C897 C894 1.387 . S
C898 C899 1.387 . S
C898 H902 0.950 . S
C898 C907 1.390 . S
C899 C898 1.387 . S
C899 C901 1.387 . S
H900 C907 0.950 . S
C901 C899 1.387 . S
C901 C903 1.390 . S
C901 H905 0.950 . S
H902 C898 0.950 . S
C903 C901 1.390 . S
C903 C904 1.387 . S
C903 H906 0.950 . S
C904 C903 1.387 . S
C904 C907 1.387 . S
H905 C901 0.950 . S
H906 C903 0.950 . S
C907 C898 1.390 . S
C907 H900 0.950 . S
C907 C904 1.387 . S
C908 C909 1.387 . S
C908 H912 0.950 . S
C908 C917 1.390 . S
C909 C908 1.387 . S
C909 C911 1.387 . S
H910 C917 0.950 . S
C911 C909 1.387 . S
C911 C913 1.390 . S
C911 H915 0.950 . S
H912 C908 0.950 . S
C913 C911 1.390 . S
C913 C914 1.387 . S
C913 H916 0.950 . S
C914 C913 1.387 . S
C914 C917 1.387 . S
H915 C911 0.950 . S
H916 C913 0.950 . S
C917 C908 1.390 . S
C917 H910 0.950 . S
C917 C914 1.387 . S
C918 C919 1.387 . S
C918 H922 0.950 . S
C918 C927 1.390 . S
C919 C918 1.387 . S
C919 C921 1.387 . S
H920 C927 0.950 . S
C921 C919 1.387 . S
C921 C923 1.390 . S
C921 H925 0.950 . S
H922 C918 0.950 . S
C923 C921 1.390 . S
C923 C924 1.387 . S
C923 H926 0.950 . S
C924 C923 1.387 . S
C924 C927 1.387 . S
H925 C921 0.950 . S
H926 C923 0.950 . S
C927 C918 1.390 . S
C927 H920 0.950 . S
C927 C924 1.387 . S
C928 C929 1.387 . S
C928 H932 0.950 . S
C928 C937 1.390 . S
C929 C928 1.387 . S
C929 C931 1.387 . S
H930 C937 0.950 . S
C931 C929 1.387 . S
C931 C933 1.390 . S
C931 H935 0.950 . S
H932 C928 0.950 . S
C933 C931 1.390 . S
C933 C934 1.387 . S
C933 H936 0.950 . S
C934 C933 1.387 . S
C934 C937 1.387 . S
H935 C931 0.950 . S
H936 C933 0.950 . S
C937 C928 1.390 . S
C937 H930 0.950 . S
C937 C934 1.387 . S
C938 C939 1.387 . S
C938 H942 0.950 . S
C938 C947 1.390 . S
C939 C938 1.387 . S
C939 C941 1.387 . S
H940 C947 0.950 . S
C941 C939 1.387 . S
C941 C943 1.390 . S
C941 H945 0.950 . S
H942 C938 0.950 . S
C943 C941 1.390 . S
C943 C944 1.387 . S
C943 H946 0.950 . S
C944 C943 1.387 . S
C944 C947 1.387 . S
H945 C941 0.950 . S
H946 C943 0.950 . S
C947 C938 1.390 . S
C947 H940 0.950 . S
C947 C944 1.387 . S
C948 C949 1.387 . S
C948 H952 0.950 . S
C948 C957 1.390 . S
C949 C948 1.387 . S
C949 C951 1.387 . S
H950 C957 0.950 . S
C951 C949 1.387 . S
C951 C953 1.390 . S
C951 H955 0.950 . S
H952 C948 0.950 . S
C953 C951 1.390 . S
C953 C954 1.387 . S
C953 H956 0.950 . S
C954 C953 1.387 . S
C954 C957 1.387 . S
H955 C951 0.950 . S
H956 C953 0.950 . S
C957 C948 1.390 . S
C957 H950 0.950 . S
C957 C954 1.387 . S
C958 C959 1.387 . S
C958 H962 0.950 . S
C958 C967 1.390 . S
C959 C958 1.387 . S
C959 C961 1.387 . S
H960 C967 0.950 . S
C961 C959 1.387 . S
C961 C963 1.390 . S
C961 H965 0.950 . S
H962 C958 0.950 . S
C963 C961 1.390 . S
C963 C964 1.387 . S
C963 H966 0.950 . S
C964 C963 1.387 . S
C964 C967 1.387 . S
H965 C961 0.950 . S
H966 C963 0.950 . S
C967 C958 1.390 . S
C967 H960 0.950 . S
C967 C964 1.387 . S
C968 C969 1.387 . S
C968 H972 0.950 . S
C968 C977 1.390 . S
C969 C968 1.387 . S
C969 C971 1.387 . S
H970 C977 0.950 . S
C971 C969 1.387 . S
C971 C973 1.390 1_655 S
C971 H975 0.950 . S
H972 C968 0.950 . S
C973 C971 1.390 1_455 S
C973 C974 1.387 . S
C973 H976 0.950 . S
C974 C973 1.387 . S
C974 C977 1.387 1_455 S
H975 C971 0.950 . S
H976 C973 0.950 . S
C977 C968 1.390 . S
C977 H970 0.950 . S
C977 C974 1.387 1_655 S
C978 C979 1.387 . S
C978 H982 0.950 . S
C978 C987 1.390 . S
C979 C978 1.387 . S
C979 C981 1.387 . S
H980 C987 0.950 . S
C981 C979 1.387 . S
C981 C983 1.390 . S
C981 H985 0.950 . S
H982 C978 0.950 . S
C983 C981 1.390 . S
C983 C984 1.387 . S
C983 H986 0.950 . S
C984 C983 1.387 . S
C984 C987 1.387 . S
H985 C981 0.950 . S
H986 C983 0.950 . S
C987 C978 1.390 . S
C987 H980 0.950 . S
C987 C984 1.387 . S
C988 C989 1.387 . S
C988 H992 0.950 . S
C988 C997 1.390 . S
C989 C988 1.387 . S
C989 C991 1.387 . S
H990 C997 0.950 . S
C991 C989 1.387 . S
C991 C993 1.390 . S
C991 H995 0.950 . S
H992 C988 0.950 . S
C993 C991 1.390 . S
C993 C994 1.387 . S
C993 H996 0.950 . S
C994 C993 1.387 . S
C994 C997 1.387 . S
H995 C991 0.950 . S
H996 C993 0.950 . S
C997 C988 1.390 . S
C997 H990 0.950 . S
C997 C994 1.387 . S
C998 C999 1.387 . S
C998 H1002 0.950 . S
C998 C1007 1.390 . S
C999 C998 1.387 . S
C999 C1001 1.387 . S
H1000 C1007 0.950 . S
C1001 C999 1.387 . S
C1001 C1003 1.390 . S
C1001 H1005 0.950 . S
H1002 C998 0.950 . S
C1003 C1001 1.390 . S
C1003 C1004 1.387 . S
C1003 H1006 0.950 . S
C1004 C1003 1.387 . S
C1004 C1007 1.387 . S
H1005 C1001 0.950 . S
H1006 C1003 0.950 . S
C1007 C998 1.390 . S
C1007 H1000 0.950 . S
C1007 C1004 1.387 . S
C1008 C1009 1.387 . S
C1008 H1012 0.950 1_455 S
C1008 C1017 1.390 . S
C1009 C1008 1.387 . S
C1009 C1011 1.387 . S
H1010 C1017 0.950 . S
C1011 C1009 1.387 . S
C1011 C1013 1.390 . S
C1011 H1015 0.950 . S
H1012 C1008 0.950 1_655 S
C1013 C1011 1.390 . S
C1013 C1014 1.387 . S
C1013 H1016 0.950 . S
C1014 C1013 1.387 . S
C1014 C1017 1.387 . S
H1015 C1011 0.950 . S
H1016 C1013 0.950 . S
C1017 C1008 1.390 . S
C1017 H1010 0.950 . S
C1017 C1014 1.387 . S
C1018 C1019 1.387 . S
C1018 H1022 0.950 . S
C1018 C1027 1.390 . S
C1019 C1018 1.387 . S
C1019 C1021 1.387 . S
H1020 C1027 0.950 . S
C1021 C1019 1.387 . S
C1021 C1023 1.390 . S
C1021 H1025 0.950 . S
H1022 C1018 0.950 . S
C1023 C1021 1.390 . S
C1023 C1024 1.387 . S
C1023 H1026 0.950 . S
C1024 C1023 1.387 . S
C1024 C1027 1.387 . S
H1025 C1021 0.950 . S
H1026 C1023 0.950 . S
C1027 C1018 1.390 . S
C1027 H1020 0.950 . S
C1027 C1024 1.387 . S
C1028 C1029 1.387 . S
C1028 H1032 0.950 . S
C1028 C1037 1.390 . S
C1029 C1028 1.387 . S
C1029 C1031 1.387 . S
H1030 C1037 0.950 . S
C1031 C1029 1.387 . S
C1031 C1033 1.390 . S
C1031 H1035 0.950 . S
H1032 C1028 0.950 . S
C1033 C1031 1.390 . S
C1033 C1034 1.387 . S
C1033 H1036 0.950 . S
C1034 C1033 1.387 . S
C1034 C1037 1.387 . S
H1035 C1031 0.950 . S
H1036 C1033 0.950 . S
C1037 C1028 1.390 . S
C1037 H1030 0.950 . S
C1037 C1034 1.387 . S
C1038 C1039 1.387 . S
C1038 H1042 0.950 . S
C1038 C1047 1.390 . S
C1039 C1038 1.387 . S
C1039 C1041 1.385 1_545 S
H1040 C1047 0.950 . S
C1041 C1039 1.385 1_565 S
C1041 C1043 1.389 1_565 S
C1041 H1045 0.953 . S
H1042 C1038 0.950 . S
C1043 C1041 1.389 1_545 S
C1043 C1044 1.386 . S
C1043 H1046 0.951 1_545 S
C1044 C1043 1.386 . S
C1044 C1047 1.387 . S
H1045 C1041 0.953 . S
H1046 C1043 0.951 1_565 S
C1047 C1038 1.390 . S
C1047 H1040 0.950 . S
C1047 C1044 1.387 . S
C1048 C1049 1.387 . S
C1048 H1052 0.950 . S
C1048 C1057 1.390 . S
C1049 C1048 1.387 . S
C1049 C1051 1.387 . S
H1050 C1057 0.950 . S
C1051 C1049 1.387 . S
C1051 C1053 1.390 . S
C1051 H1055 0.950 . S
H1052 C1048 0.950 . S
C1053 C1051 1.390 . S
C1053 C1054 1.387 . S
C1053 H1056 0.950 . S
C1054 C1053 1.387 . S
C1054 C1057 1.387 . S
H1055 C1051 0.950 . S
H1056 C1053 0.950 . S
C1057 C1048 1.390 . S
C1057 H1050 0.950 . S
C1057 C1054 1.387 . S
C1058 C1059 1.387 . S
C1058 H1062 0.950 . S
C1058 C1067 1.390 . S
C1059 C1058 1.387 . S
C1059 C1061 1.387 . S
H1060 C1067 0.950 . S
C1061 C1059 1.387 . S
C1061 C1063 1.390 . S
C1061 H1065 0.950 . S
H1062 C1058 0.950 . S
C1063 C1061 1.390 . S
C1063 C1064 1.387 . S
C1063 H1066 0.950 . S
C1064 C1063 1.387 . S
C1064 C1067 1.387 . S
H1065 C1061 0.950 . S
H1066 C1063 0.950 . S
C1067 C1058 1.390 . S
C1067 H1060 0.950 . S
C1067 C1064 1.387 . S
C1068 C1069 1.387 . S
C1068 H1072 0.950 . S
C1068 C1077 1.390 . S
C1069 C1068 1.387 . S
C1069 C1071 1.387 1_455 S
H1070 C1077 0.950 . S
C1071 C1069 1.387 1_655 S
C1071 C1073 1.390 . S
C1071 H1075 0.950 . S
H1072 C1068 0.950 . S
C1073 C1071 1.390 . S
C1073 C1074 1.387 1_655 S
C1073 H1076 0.950 . S
C1074 C1073 1.387 1_455 S
C1074 C1077 1.387 . S
H1075 C1071 0.950 . S
H1076 C1073 0.950 . S
C1077 C1068 1.390 . S
C1077 H1070 0.950 . S
C1077 C1074 1.387 . S
C1078 C1079 1.387 . S
C1078 H1082 0.950 . S
C1078 C1087 1.390 . S
C1079 C1078 1.387 . S
C1079 C1081 1.387 . S
H1080 C1087 0.950 . S
C1081 C1079 1.387 . S
C1081 C1083 1.390 . S
C1081 H1085 0.950 . S
H1082 C1078 0.950 . S
C1083 C1081 1.390 . S
C1083 C1084 1.387 . S
C1083 H1086 0.950 . S
C1084 C1083 1.387 . S
C1084 C1087 1.387 . S
H1085 C1081 0.950 . S
H1086 C1083 0.950 . S
C1087 C1078 1.390 . S
C1087 H1080 0.950 . S
C1087 C1084 1.387 . S
C1088 C1089 1.387 . S
C1088 H1092 0.950 . S
C1088 C1097 1.390 . S
C1089 C1088 1.387 . S
C1089 C1091 1.387 . S
H1090 C1097 0.950 . S
C1091 C1089 1.387 . S
C1091 C1093 1.390 . S
C1091 H1095 0.950 . S
H1092 C1088 0.950 . S
C1093 C1091 1.390 . S
C1093 C1094 1.387 . S
C1093 H1096 0.950 . S
C1094 C1093 1.387 . S
C1094 C1097 1.387 . S
H1095 C1091 0.950 . S
H1096 C1093 0.950 . S
C1097 C1088 1.390 . S
C1097 H1090 0.950 . S
C1097 C1094 1.387 . S
C1098 C1099 1.387 . S
C1098 H1102 0.950 . S
C1098 C1107 1.390 . S
C1099 C1098 1.387 . S
C1099 C1101 1.387 . S
H1100 C1107 0.950 . S
C1101 C1099 1.387 . S
C1101 C1103 1.390 . S
C1101 H1105 0.950 . S
H1102 C1098 0.950 . S
C1103 C1101 1.390 . S
C1103 C1104 1.387 . S
C1103 H1106 0.950 . S
C1104 C1103 1.387 . S
C1104 C1107 1.387 . S
H1105 C1101 0.950 . S
H1106 C1103 0.950 . S
C1107 C1098 1.390 . S
C1107 H1100 0.950 . S
C1107 C1104 1.387 . S
C1108 C1109 1.387 . S
C1108 H1112 0.950 . S
C1108 C1117 1.390 . S
C1109 C1108 1.387 . S
C1109 C1111 1.387 . S
H1110 C1117 0.950 . S
C1111 C1109 1.387 . S
C1111 C1113 1.390 . S
C1111 H1115 0.950 . S
H1112 C1108 0.950 . S
C1113 C1111 1.390 . S
C1113 C1114 1.387 . S
C1113 H1116 0.950 . S
C1114 C1113 1.387 . S
C1114 C1117 1.387 . S
H1115 C1111 0.950 . S
H1116 C1113 0.950 . S
C1117 C1108 1.390 . S
C1117 H1110 0.950 . S
C1117 C1114 1.387 . S
C1118 C1119 1.387 . S
C1118 H1122 0.950 . S
C1118 C1127 1.390 . S
C1119 C1118 1.387 . S
C1119 C1121 1.387 . S
H1120 C1127 0.950 . S
C1121 C1119 1.387 . S
C1121 C1123 1.390 . S
C1121 H1125 0.950 . S
H1122 C1118 0.950 . S
C1123 C1121 1.390 . S
C1123 C1124 1.387 . S
C1123 H1126 0.950 . S
C1124 C1123 1.387 . S
C1124 C1127 1.387 . S
H1125 C1121 0.950 . S
H1126 C1123 0.950 . S
C1127 C1118 1.390 . S
C1127 H1120 0.950 . S
C1127 C1124 1.387 . S
C1128 C1129 1.387 . S
C1128 H1132 0.950 . S
C1128 C1137 1.390 . S
C1129 C1128 1.387 . S
C1129 C1131 1.387 . S
H1130 C1137 0.950 . S
C1131 C1129 1.387 . S
C1131 C1133 1.390 . S
C1131 H1135 0.950 . S
H1132 C1128 0.950 . S
C1133 C1131 1.390 . S
C1133 C1134 1.387 . S
C1133 H1136 0.950 . S
C1134 C1133 1.387 . S
C1134 C1137 1.387 . S
H1135 C1131 0.950 . S
H1136 C1133 0.950 . S
C1137 C1128 1.390 . S
C1137 H1130 0.950 . S
C1137 C1134 1.387 . S
C1138 C1139 1.387 . S
C1138 H1142 0.950 . S
C1138 C1147 1.390 . S
C1139 C1138 1.387 . S
C1139 C1141 1.387 . S
H1140 C1147 0.950 . S
C1141 C1139 1.387 . S
C1141 C1143 1.390 . S
C1141 H1145 0.950 . S
H1142 C1138 0.950 . S
C1143 C1141 1.390 . S
C1143 C1144 1.387 . S
C1143 H1146 0.950 . S
C1144 C1143 1.387 . S
C1144 C1147 1.387 . S
H1145 C1141 0.950 . S
H1146 C1143 0.950 . S
C1147 C1138 1.390 . S
C1147 H1140 0.950 . S
C1147 C1144 1.387 . S
C1148 C1149 1.387 . S
C1148 H1152 0.950 . S
C1148 C1157 1.390 . S
C1149 C1148 1.387 . S
C1149 C1151 1.387 . S
H1150 C1157 0.950 . S
C1151 C1149 1.387 . S
C1151 C1153 1.390 . S
C1151 H1155 0.950 . S
H1152 C1148 0.950 . S
C1153 C1151 1.390 . S
C1153 C1154 1.387 . S
C1153 H1156 0.950 . S
C1154 C1153 1.387 . S
C1154 C1157 1.387 . S
H1155 C1151 0.950 . S
H1156 C1153 0.950 . S
C1157 C1148 1.390 . S
C1157 H1150 0.950 . S
C1157 C1154 1.387 . S
C1158 C1159 1.387 1_554 S
C1158 H1162 0.945 1_554 S
C1158 C1167 1.390 . S
C1159 C1158 1.387 1_556 S
C1159 C1161 1.387 . S
H1160 C1167 0.950 . S
C1161 C1159 1.387 . S
C1161 C1163 1.390 1_556 S
C1161 H1165 0.950 . S
H1162 C1158 0.945 1_556 S
C1163 C1161 1.390 1_554 S
C1163 C1164 1.387 . S
C1163 H1166 0.950 . S
C1164 C1163 1.387 . S
C1164 C1167 1.387 . S
H1165 C1161 0.950 . S
H1166 C1163 0.950 . S
C1167 C1158 1.390 . S
C1167 H1160 0.950 . S
C1167 C1164 1.387 . S
C1168 C1169 1.387 . S
C1168 H1172 0.950 . S
C1168 C1177 1.390 . S
C1169 C1168 1.387 . S
C1169 C1171 1.387 . S
H1170 C1177 0.950 . S
C1171 C1169 1.387 . S
C1171 C1173 1.390 1_556 S
C1171 H1175 0.950 . S
H1172 C1168 0.950 . S
C1173 C1171 1.390 1_554 S
C1173 C1174 1.387 . S
C1173 H1176 0.950 . S
C1174 C1173 1.387 . S
C1174 C1177 1.387 1_554 S
H1175 C1171 0.950 . S
H1176 C1173 0.950 . S
C1177 C1168 1.390 . S
C1177 H1170 0.950 . S
C1177 C1174 1.387 1_556 S
C1178 C1179 1.387 1_554 S
C1178 H1182 0.950 1_554 S
C1178 C1187 1.390 . S
C1179 C1178 1.387 1_556 S
C1179 C1181 1.387 . S
H1180 C1187 0.950 . S
C1181 C1179 1.387 . S
C1181 C1183 1.390 1_556 S
C1181 H1185 0.950 . S
H1182 C1178 0.950 1_556 S
C1183 C1181 1.390 1_554 S
C1183 C1184 1.387 . S
C1183 H1186 0.950 . S
C1184 C1183 1.387 . S
C1184 C1187 1.387 . S
H1185 C1181 0.950 . S
H1186 C1183 0.950 . S
C1187 C1178 1.390 . S
C1187 H1180 0.950 . S
C1187 C1184 1.387 . S
C1188 C1189 1.387 . S
C1188 H1192 0.950 . S
C1188 C1197 1.390 . S
C1189 C1188 1.387 . S
C1189 C1191 1.387 . S
H1190 C1197 0.950 . S
C1191 C1189 1.387 . S
C1191 C1193 1.390 . S
C1191 H1195 0.950 . S
H1192 C1188 0.950 . S
C1193 C1191 1.390 . S
C1193 C1194 1.387 . S
C1193 H1196 0.950 . S
C1194 C1193 1.387 . S
C1194 C1197 1.387 . S
H1195 C1191 0.950 . S
H1196 C1193 0.950 . S
C1197 C1188 1.390 . S
C1197 H1190 0.950 . S
C1197 C1194 1.387 . S
C1198 C1199 1.387 . S
C1198 H1202 0.950 . S
C1198 C1207 1.390 . S
C1199 C1198 1.387 . S
C1199 C1201 1.387 . S
H1200 C1207 0.950 . S
C1201 C1199 1.387 . S
C1201 C1203 1.390 . S
C1201 H1205 0.950 . S
H1202 C1198 0.950 . S
C1203 C1201 1.390 . S
C1203 C1204 1.387 . S
C1203 H1206 0.950 . S
C1204 C1203 1.387 . S
C1204 C1207 1.387 . S
H1205 C1201 0.950 . S
H1206 C1203 0.950 . S
C1207 C1198 1.390 . S
C1207 H1200 0.950 . S
C1207 C1204 1.387 . S
C1208 C1209 1.387 . S
C1208 H1212 0.950 . S
C1208 C1217 1.390 . S
C1209 C1208 1.387 . S
C1209 C1211 1.387 . S
H1210 C1217 0.950 . S
C1211 C1209 1.387 . S
C1211 C1213 1.390 . S
C1211 H1215 0.950 . S
H1212 C1208 0.950 . S
C1213 C1211 1.390 . S
C1213 C1214 1.387 . S
C1213 H1216 0.950 . S
C1214 C1213 1.387 . S
C1214 C1217 1.387 . S
H1215 C1211 0.950 . S
H1216 C1213 0.950 . S
C1217 C1208 1.390 . S
C1217 H1210 0.950 . S
C1217 C1214 1.387 . S
C1218 C1219 1.387 . S
C1218 H1222 0.950 . S
C1218 C1227 1.390 . S
C1219 C1218 1.387 . S
C1219 C1221 1.387 . S
H1220 C1227 0.950 . S
C1221 C1219 1.387 . S
C1221 C1223 1.390 . S
C1221 H1225 0.950 . S
H1222 C1218 0.950 . S
C1223 C1221 1.390 . S
C1223 C1224 1.387 . S
C1223 H1226 0.950 . S
C1224 C1223 1.387 . S
C1224 C1227 1.387 . S
H1225 C1221 0.950 . S
H1226 C1223 0.950 . S
C1227 C1218 1.390 . S
C1227 H1220 0.950 . S
C1227 C1224 1.387 . S
C1228 C1229 1.387 . S
C1228 H1232 0.950 . S
C1228 C1237 1.390 . S
C1229 C1228 1.387 . S
C1229 C1231 1.387 . S
H1230 C1237 0.950 . S
C1231 C1229 1.387 . S
C1231 C1233 1.390 . S
C1231 H1235 0.950 . S
H1232 C1228 0.950 . S
C1233 C1231 1.390 . S
C1233 C1234 1.387 . S
C1233 H1236 0.950 . S
C1234 C1233 1.387 . S
C1234 C1237 1.387 . S
H1235 C1231 0.950 . S
H1236 C1233 0.950 . S
C1237 C1228 1.390 . S
C1237 H1230 0.950 . S
C1237 C1234 1.387 . S
C1238 C1239 1.387 . S
C1238 H1242 0.950 . S
C1238 C1247 1.390 . S
C1239 C1238 1.387 . S
C1239 C1241 1.387 . S
H1240 C1247 0.950 . S
C1241 C1239 1.387 . S
C1241 C1243 1.390 . S
C1241 H1245 0.950 . S
H1242 C1238 0.950 . S
C1243 C1241 1.390 . S
C1243 C1244 1.387 . S
C1243 H1246 0.950 . S
C1244 C1243 1.387 . S
C1244 C1247 1.387 . S
H1245 C1241 0.950 . S
H1246 C1243 0.950 . S
C1247 C1238 1.390 . S
C1247 H1240 0.950 . S
C1247 C1244 1.387 . S
C1248 C1249 1.387 . S
C1248 H1252 0.950 . S
C1248 C1257 1.390 . S
C1249 C1248 1.387 . S
C1249 C1251 1.387 . S
H1250 C1257 0.950 . S
C1251 C1249 1.387 . S
C1251 C1253 1.390 . S
C1251 H1255 0.950 . S
H1252 C1248 0.950 . S
C1253 C1251 1.390 . S
C1253 C1254 1.387 . S
C1253 H1256 0.950 . S
C1254 C1253 1.387 . S
C1254 C1257 1.387 . S
H1255 C1251 0.950 . S
H1256 C1253 0.950 . S
C1257 C1248 1.390 . S
C1257 H1250 0.950 . S
C1257 C1254 1.387 . S
C1258 C1259 1.387 . S
C1258 H1262 0.950 . S
C1258 C1267 1.390 . S
C1259 C1258 1.387 . S
C1259 C1261 1.387 . S
H1260 C1267 0.950 . S
C1261 C1259 1.387 . S
C1261 C1263 1.390 . S
C1261 H1265 0.950 . S
H1262 C1258 0.950 . S
C1263 C1261 1.390 . S
C1263 C1264 1.387 . S
C1263 H1266 0.950 . S
C1264 C1263 1.387 . S
C1264 C1267 1.387 . S
H1265 C1261 0.950 . S
H1266 C1263 0.950 . S
C1267 C1258 1.390 . S
C1267 H1260 0.950 . S
C1267 C1264 1.387 . S
C1268 C1269 1.387 . S
C1268 H1272 0.950 . S
C1268 C1277 1.390 . S
C1269 C1268 1.387 . S
C1269 C1271 1.387 . S
H1270 C1277 0.950 . S
C1271 C1269 1.387 . S
C1271 C1273 1.390 . S
C1271 H1275 0.950 . S
H1272 C1268 0.950 . S
C1273 C1271 1.390 . S
C1273 C1274 1.387 . S
C1273 H1276 0.950 . S
C1274 C1273 1.387 . S
C1274 C1277 1.387 . S
H1275 C1271 0.950 . S
H1276 C1273 0.950 . S
C1277 C1268 1.390 . S
C1277 H1270 0.950 . S
C1277 C1274 1.387 . S
C1278 C1279 1.387 . S
C1278 H1282 0.950 . S
C1278 C1287 1.390 . S
C1279 C1278 1.387 . S
C1279 C1281 1.387 . S
H1280 C1287 0.950 . S
C1281 C1279 1.387 . S
C1281 C1283 1.390 . S
C1281 H1285 0.950 . S
H1282 C1278 0.950 . S
C1283 C1281 1.390 . S
C1283 C1284 1.387 . S
C1283 H1286 0.950 . S
C1284 C1283 1.387 . S
C1284 C1287 1.387 . S
H1285 C1281 0.950 . S
H1286 C1283 0.950 . S
C1287 C1278 1.390 . S
C1287 H1280 0.950 . S
C1287 C1284 1.387 . S
C1288 C1289 1.387 . S
C1288 H1292 0.950 . S
C1288 C1297 1.390 . S
C1289 C1288 1.387 . S
C1289 C1291 1.387 . S
H1290 C1297 0.950 . S
C1291 C1289 1.387 . S
C1291 C1293 1.390 . S
C1291 H1295 0.950 . S
H1292 C1288 0.950 . S
C1293 C1291 1.390 . S
C1293 C1294 1.387 . S
C1293 H1296 0.950 . S
C1294 C1293 1.387 . S
C1294 C1297 1.387 . S
H1295 C1291 0.950 . S
H1296 C1293 0.950 . S
C1297 C1288 1.390 . S
C1297 H1290 0.950 . S
C1297 C1294 1.387 . S
C1298 C1299 1.387 . S
C1298 H1302 0.950 . S
C1298 C1307 1.390 . S
C1299 C1298 1.387 . S
C1299 C1301 1.387 . S
H1300 C1307 0.950 . S
C1301 C1299 1.387 . S
C1301 C1303 1.390 . S
C1301 H1305 0.950 . S
H1302 C1298 0.950 . S
C1303 C1301 1.390 . S
C1303 C1304 1.387 . S
C1303 H1306 0.950 . S
C1304 C1303 1.387 . S
C1304 C1307 1.387 . S
H1305 C1301 0.950 . S
H1306 C1303 0.950 . S
C1307 C1298 1.390 . S
C1307 H1300 0.950 . S
C1307 C1304 1.387 . S
C1308 C1309 1.387 . S
C1308 H1312 0.950 . S
C1308 C1317 1.390 . S
C1309 C1308 1.387 . S
C1309 C1311 1.387 . S
H1310 C1317 0.950 . S
C1311 C1309 1.387 . S
C1311 C1313 1.390 . S
C1311 H1315 0.950 . S
H1312 C1308 0.950 . S
C1313 C1311 1.390 . S
C1313 C1314 1.387 . S
C1313 H1316 0.950 . S
C1314 C1313 1.387 . S
C1314 C1317 1.387 . S
H1315 C1311 0.950 . S
H1316 C1313 0.950 . S
C1317 C1308 1.390 . S
C1317 H1310 0.950 . S
C1317 C1314 1.387 . S
C1318 C1319 1.387 . S
C1318 H1322 0.950 . S
C1318 C1327 1.390 . S
C1319 C1318 1.387 . S
C1319 C1321 1.387 . S
H1320 C1327 0.950 . S
C1321 C1319 1.387 . S
C1321 C1323 1.390 . S
C1321 H1325 0.950 . S
H1322 C1318 0.950 . S
C1323 C1321 1.390 . S
C1323 C1324 1.387 . S
C1323 H1326 0.950 . S
C1324 C1323 1.387 . S
C1324 C1327 1.387 . S
H1325 C1321 0.950 . S
H1326 C1323 0.950 . S
C1327 C1318 1.390 . S
C1327 H1320 0.950 . S
C1327 C1324 1.387 . S
C1328 C1329 1.387 . S
C1328 H1332 0.950 . S
C1328 C1337 1.390 . S
C1329 C1328 1.387 . S
C1329 C1331 1.387 . S
H1330 C1337 0.950 . S
C1331 C1329 1.387 . S
C1331 C1333 1.390 . S
C1331 H1335 0.950 . S
H1332 C1328 0.950 . S
C1333 C1331 1.390 . S
C1333 C1334 1.387 . S
C1333 H1336 0.950 . S
C1334 C1333 1.387 . S
C1334 C1337 1.387 . S
H1335 C1331 0.950 . S
H1336 C1333 0.950 . S
C1337 C1328 1.390 . S
C1337 H1330 0.950 . S
C1337 C1334 1.387 . S
C1338 C1339 1.387 . S
C1338 H1342 0.950 . S
C1338 C1347 1.390 . S
C1339 C1338 1.387 . S
C1339 C1341 1.387 . S
H1340 C1347 0.950 . S
C1341 C1339 1.387 . S
C1341 C1343 1.390 . S
C1341 H1345 0.950 . S
H1342 C1338 0.950 . S
C1343 C1341 1.390 . S
C1343 C1344 1.387 . S
C1343 H1346 0.950 . S
C1344 C1343 1.387 . S
C1344 C1347 1.387 . S
H1345 C1341 0.950 . S
H1346 C1343 0.950 . S
C1347 C1338 1.390 . S
C1347 H1340 0.950 . S
C1347 C1344 1.387 . S
C1348 C1349 1.387 . S
C1348 H1352 0.950 . S
C1348 C1357 1.390 . S
C1349 C1348 1.387 . S
C1349 C1351 1.387 . S
H1350 C1357 0.950 . S
C1351 C1349 1.387 . S
C1351 C1353 1.390 . S
C1351 H1355 0.950 . S
H1352 C1348 0.950 . S
C1353 C1351 1.390 . S
C1353 C1354 1.387 . S
C1353 H1356 0.950 . S
C1354 C1353 1.387 . S
C1354 C1357 1.387 . S
H1355 C1351 0.950 . S
H1356 C1353 0.950 . S
C1357 C1348 1.390 . S
C1357 H1350 0.950 . S
C1357 C1354 1.387 . S
C1358 C1359 1.387 . S
C1358 H1362 0.950 . S
C1358 C1367 1.390 . S
C1359 C1358 1.387 . S
C1359 C1361 1.387 . S
H1360 C1367 0.950 . S
C1361 C1359 1.387 . S
C1361 C1363 1.390 . S
C1361 H1365 0.950 . S
H1362 C1358 0.950 . S
C1363 C1361 1.390 . S
C1363 C1364 1.387 . S
C1363 H1366 0.950 . S
C1364 C1363 1.387 . S
C1364 C1367 1.387 . S
H1365 C1361 0.950 . S
H1366 C1363 0.950 . S
C1367 C1358 1.390 . S
C1367 H1360 0.950 . S
C1367 C1364 1.387 . S
C649 C7 1.560 . S
C654 C560 1.545 . S
C664 C534 1.847 . S
C659 C39 1.848 . S
C674 C547 1.679 . S
C669 C62 1.682 . S
C679 C76 1.871 . S
C684 C614 1.873 . S
C689 C108 1.505 . S
C694 C627 1.497 . S
C699 N117 1.413 . S
C704 C640 1.411 . S
C714 C600 1.482 . S
C709 C16 1.506 . S
C719 C30 1.804 . S
C724 C574 1.801 . S
C734 C588 1.515 . S
C729 C53 1.508 . S
C739 C85 1.778 . S
C744 C497 1.725 1_545 S
C754 C509 1.627 . S
C749 C99 1.625 . S
C759 N127 1.320 . S
C764 C523 1.370 . S
C769 N150 1.200 . S
C774 C638 1.235 . S
C784 C612 1.639 . S
C779 N173 1.593 . S
C794 C625 1.491 . S
C789 C200 1.502 . S
C799 C214 1.668 . S
C804 C458 1.682 . S
C809 N232 1.548 . S
C814 C471 1.562 . S
C819 C260 1.532 . S
C824 C484 1.541 . S
C834 C444 1.355 . S
C829 N140 1.387 . S
C839 N163 1.462 . S
C844 C424 1.438 . S
C854 C430 1.578 . S
C849 C191 1.574 . S
C864 C573 1.834 . S
C859 C223 1.842 . S
C874 C593 1.493 . S
C869 N242 1.452 . S
C884 C599 1.511 . S
C879 C269 1.528 . S
C889 N288 1.338 . S
C894 C482 1.357 . S
C899 C315 1.582 . S
C904 C456 1.581 1_655 S
C909 C338 1.775 . S
C914 C469 1.765 . S
C919 C352 1.915 . S
C924 C536 1.923 . S
C934 C549 1.581 . S
C929 N370 1.579 . S
C944 C562 1.610 1_655 S
C939 C398 1.597 . S
C954 C528 1.234 . S
C949 N278 1.237 . S
C959 C306 1.691 . S
C964 C502 1.690 . S
C969 C329 1.605 . S
C974 C508 1.609 . S
C984 C419 1.539 . S
C979 C361 1.545 . S
C989 N380 1.482 . S
C994 C431 1.514 . S
C1004 C443 1.453 . S
C999 C407 1.461 . S
C1014 C463 1.437 . S
C1009 N12 1.427 . S
C1019 N25 1.515 . S
C1024 C476 1.555 . S
C1034 C489 1.341 . S
C1029 N48 1.290 . S
C1044 C483 1.408 . S
C1039 N81 1.393 . S
C1054 C457 1.628 . S
C1049 N94 1.568 . S
C1064 C470 1.684 . S
C1059 C131 1.657 . S
C1074 C417 1.362 . S
C1069 N2 1.318 . S
C1079 N35 1.429 . S
C1084 C437 1.476 . S
C1089 N58 1.214 . S
C1094 C445 1.242 . S
C1104 C450 1.367 . S
C1099 N71 1.325 . S
C1114 C418 1.453 . S
C1109 N104 1.417 . S
C1124 C432 1.643 . S
C1119 C122 1.643 . S
C1129 C145 1.981 . S
C1134 C541 1.976 . S
C1139 C168 1.673 . S
C1144 C554 1.671 . S
C1149 N186 1.454 . S
C1154 C567 1.517 . S
C1164 C561 1.493 . S
C1159 N219 1.491 . S
C1174 C535 1.860 . S
C1169 C246 1.837 . S
C1184 C548 1.549 . S
C1179 N265 1.537 . S
C1194 C495 1.816 . S
C1189 C154 1.812 . S
C1199 C177 1.718 . S
C1204 C515 1.721 . S
C1209 N196 1.308 . S
C1214 C521 1.347 . S
C1219 N209 1.229 . S
C1224 C522 1.313 . S
C1229 C237 1.835 . S
C1234 C496 1.834 . S
C1244 C510 1.463 . S
C1239 N255 1.412 . S
C1249 C283 1.854 . S
C1254 C619 1.848 . S
C1259 N301 1.480 . S
C1264 C632 1.540 . S
C1269 N324 1.246 . S
C1274 C645 1.279 . S
C1284 C639 1.248 . S
C1279 N357 1.226 . S
C1294 C613 1.829 . S
C1289 C384 1.821 . S
C1299 N403 1.425 . S
C1304 C626 1.432 . S
C1309 C292 1.829 . S
C1314 C575 1.856 . S
C1324 C587 1.415 . S
C1319 N311 1.373 . S
C1329 N334 1.312 . S
C1334 C601 1.348 . S
C1339 N347 1.357 . S
C1344 C606 1.392 1_554 S
C1354 C580 1.887 . S
C1349 C375 1.891 . S
C1359 N393 1.378 . S
C1364 C586 1.440 1_554 S
