# Generated by pormake.
# Topology anh, (6,3)-cn, num edge types: 1
# Building blocks:
#     Node 0, Type 0, BuildingBlock: PAMTUU_clean_sbu_0, # of connection points: 6
#     Node 1, Type 0, BuildingBlock: PAMTUU_clean_sbu_0, # of connection points: 6
#     Node 2, Type 0, BuildingBlock: PAMTUU_clean_sbu_0, # of connection points: 6
#     Node 3, Type 1, BuildingBlock: OLANEW_clean_sbu_2, # of connection points: 3
#     Node 4, Type 1, BuildingBlock: OLANEW_clean_sbu_2, # of connection points: 3
#     Node 5, Type 1, BuildingBlock: OLANEW_clean_sbu_2, # of connection points: 3
#     Node 6, Type 1, BuildingBlock: OLANEW_clean_sbu_2, # of connection points: 3
#     Node 7, Type 1, BuildingBlock: OLANEW_clean_sbu_2, # of connection points: 3
#     Node 8, Type 1, BuildingBlock: OLANEW_clean_sbu_2, # of connection points: 3
#     Edge 9, Type (0, 1), BuildingBlock: FUNLAD_clean_linker_0, # of connection points: 2
#     Edge 10, Type (0, 1), BuildingBlock: FUNLAD_clean_linker_0, # of connection points: 2
#     Edge 11, Type (0, 1), BuildingBlock: FUNLAD_clean_linker_0, # of connection points: 2
#     Edge 12, Type (0, 1), BuildingBlock: FUNLAD_clean_linker_0, # of connection points: 2
#     Edge 13, Type (0, 1), BuildingBlock: FUNLAD_clean_linker_0, # of connection points: 2
#     Edge 14, Type (0, 1), BuildingBlock: FUNLAD_clean_linker_0, # of connection points: 2
#     Edge 15, Type (0, 1), BuildingBlock: FUNLAD_clean_linker_0, # of connection points: 2
#     Edge 16, Type (0, 1), BuildingBlock: FUNLAD_clean_linker_0, # of connection points: 2
#     Edge 17, Type (0, 1), BuildingBlock: FUNLAD_clean_linker_0, # of connection points: 2
#     Edge 18, Type (0, 1), BuildingBlock: FUNLAD_clean_linker_0, # of connection points: 2
#     Edge 19, Type (0, 1), BuildingBlock: FUNLAD_clean_linker_0, # of connection points: 2
#     Edge 20, Type (0, 1), BuildingBlock: FUNLAD_clean_linker_0, # of connection points: 2
#     Edge 21, Type (0, 1), BuildingBlock: FUNLAD_clean_linker_0, # of connection points: 2
#     Edge 22, Type (0, 1), BuildingBlock: FUNLAD_clean_linker_0, # of connection points: 2
#     Edge 23, Type (0, 1), BuildingBlock: FUNLAD_clean_linker_0, # of connection points: 2
#     Edge 24, Type (0, 1), BuildingBlock: FUNLAD_clean_linker_0, # of connection points: 2
#     Edge 25, Type (0, 1), BuildingBlock: FUNLAD_clean_linker_0, # of connection points: 2
#     Edge 26, Type (0, 1), BuildingBlock: FUNLAD_clean_linker_0, # of connection points: 2
# Relax obj value: 0.191
# Max RMSD: 0.139
# Mean RMSD: 0.109
data_MOF--net-anh--node1-PAMTUU_clean_sbu_0--node2-OLANEW_clean_sbu_2--edge1-FUNLAD_clean_linker_0
_symmetry_space_group_name_H-M    P1
_symmetry_Int_Tables_number       1
_symmetry_cell_setting            triclinic
loop_
_symmetry_equiv_pos_as_xyz
'x, y, z'
_cell_length_a     41.788396
_cell_length_b     41.922503
_cell_length_c     58.657849
_cell_angle_alpha  93.546801
_cell_angle_beta   90.575257
_cell_angle_gamma 120.09383
loop_
_atom_site_label
_atom_site_type_symbol
_atom_site_fract_x
_atom_site_fract_y
_atom_site_fract_z
_atom_type_partial_charge
Tb0 Tb 0.01981 0.56585 0.16464 0.0
Tb1 Tb 0.06555 0.52198 0.16152 0.0
C2 C 0.04054 0.54405 0.11847 0.0
C3 C 0.9428 0.58084 0.17511 0.0
C4 C 0.86725 0.54384 0.18479 0.0
C5 C 0.88173 0.57373 0.17082 0.0
C6 C 0.91924 0.59204 0.166 0.0
C7 C 0.92884 0.55213 0.18985 0.0
C8 C 0.89146 0.53394 0.19475 0.0
C9 C 0.9804 0.59555 0.16703 0.0
O10 O 0.97665 0.50702 0.1595 0.0
O11 O 1.00974 0.47853 0.16807 0.0
O12 O 0.07057 0.54375 0.19702 0.0
O13 O 0.01493 0.54142 0.19664 0.0
O14 O 0.09527 0.50451 0.14087 0.0
O15 O 0.08678 0.49131 0.17606 0.0
O16 O 0.10721 0.58005 0.15893 0.0
O17 O 0.07709 0.60861 0.17482 0.0
O18 O 0.04312 0.57206 0.13119 0.0
O19 O 0.03834 0.51574 0.1282 0.0
C20 C 0.97802 0.47739 0.16447 0.0
O21 O 1.00601 0.60193 0.18251 0.0
O22 O 0.9825 0.5779 0.14851 0.0
C23 C 0.04263 0.54241 0.20787 0.0
C24 C 0.14284 0.50201 0.16051 0.0
C25 C 0.21841 0.52357 0.16101 0.0
C26 C 0.19098 0.48591 0.1587 0.0
C27 C 0.15351 0.47526 0.15841 0.0
C28 C 0.16999 0.53957 0.16367 0.0
C29 C 0.20754 0.5503 0.16385 0.0
C30 C 0.10354 0.49051 0.15761 0.0
C31 C 0.10777 0.60966 0.16843 0.0
H32 H 0.86376 0.58173 0.16264 0.0
H33 H 0.92949 0.61382 0.15436 0.0
H34 H 0.94652 0.54278 0.19689 0.0
H35 H 0.88131 0.51137 0.20579 0.0
H36 H 0.19841 0.46467 0.15617 0.0
H37 H 0.13285 0.44616 0.15584 0.0
H38 H 0.16214 0.56057 0.16539 0.0
H39 H 0.22804 0.57948 0.16587 0.0
Tb40 Tb 0.48328 0.99796 0.49871 0.0
Tb41 Tb 0.57334 0.0407 0.50214 0.0
C42 C 0.52801 0.0183 0.4552 0.0
C43 C 0.38661 0.92867 0.50965 0.0
C44 C 0.33273 0.86445 0.52914 0.0
C45 C 0.34471 0.86218 0.50708 0.0
C46 C 0.37125 0.89392 0.49742 0.0
C47 C 0.37529 0.93086 0.53193 0.0
C48 C 0.34869 0.89908 0.54158 0.0
C49 C 0.41375 0.96249 0.49909 0.0
O50 O 0.49706 0.95383 0.49432 0.0
O51 O 0.55681 0.98411 0.50957 0.0
O52 O 0.55466 0.04944 0.53546 0.0
O53 O 0.50124 0.99413 0.5324 0.0
O54 O 0.623 0.06721 0.48532 0.0
O55 O 0.6233 0.05923 0.52127 0.0
O56 O 0.56128 0.08511 0.49752 0.0
O57 O 0.50002 0.05626 0.50661 0.0
O58 O 0.50115 0.01948 0.46577 0.0
O59 O 0.55425 0.01688 0.46689 0.0
C60 C 0.52613 0.95331 0.50287 0.0
O61 O 0.43484 0.99116 0.51314 0.0
O62 O 0.43231 0.9584 0.48249 0.0
C63 C 0.526 0.02315 0.54492 0.0
C64 C 0.67275 0.11365 0.50842 0.0
C65 C 0.7314 0.18752 0.51297 0.0
C66 C 0.73701 0.15858 0.51889 0.0
C67 C 0.70791 0.12193 0.51656 0.0
C68 C 0.66657 0.14246 0.50343 0.0
C69 C 0.69564 0.17903 0.50559 0.0
C70 C 0.6433 0.07491 0.50408 0.0
C71 C 0.53136 0.0864 0.5029 0.0
H72 H 0.3324 0.83605 0.49682 0.0
H73 H 0.37917 0.89129 0.48019 0.0
H74 H 0.38655 0.95721 0.54183 0.0
H75 H 0.34009 0.9017 0.55861 0.0
H76 H 0.764 0.16417 0.525 0.0
H77 H 0.71306 0.09999 0.52064 0.0
H78 H 0.63955 0.13659 0.49717 0.0
H79 H 0.69032 0.20043 0.50057 0.0
Tb80 Tb 0.53594 0.49535 0.82544 0.0
Tb81 Tb 0.57935 0.58409 0.8388 0.0
C82 C 0.55683 0.55165 0.78792 0.0
C83 C 0.512 0.3978 0.82374 0.0
C84 C 0.52753 0.3433 0.83674 0.0
C85 C 0.49673 0.33378 0.82202 0.0
C86 C 0.4891 0.36087 0.81553 0.0
C87 C 0.5422 0.40736 0.83889 0.0
C88 C 0.55 0.38033 0.84529 0.0
C89 C 0.50536 0.42644 0.81565 0.0
O90 O 0.59115 0.5095 0.83862 0.0
O91 O 0.62227 0.57032 0.83071 0.0
O92 O 0.58155 0.55889 0.8698 0.0
O93 O 0.52933 0.50275 0.86154 0.0
O94 O 0.61424 0.63822 0.82933 0.0
O95 O 0.59384 0.62821 0.8633 0.0
O96 O 0.52086 0.56472 0.84425 0.0
O97 O 0.49397 0.51136 0.82045 0.0
O98 O 0.55651 0.52198 0.79403 0.0
O99 O 0.55828 0.57643 0.80338 0.0
C100 C 0.62238 0.54018 0.83576 0.0
O101 O 0.49315 0.44156 0.83057 0.0
O102 O 0.53195 0.45115 0.80434 0.0
C103 C 0.55424 0.52785 0.87632 0.0
C104 C 0.59809 0.67992 0.84689 0.0
C105 C 0.57395 0.73109 0.84231 0.0
C106 C 0.61039 0.74052 0.83741 0.0
C107 C 0.62241 0.71514 0.83979 0.0
C108 C 0.56164 0.67044 0.85169 0.0
C109 C 0.54977 0.69587 0.84957 0.0
C110 C 0.61051 0.65291 0.84863 0.0
C111 C 0.49157 0.53727 0.83298 0.0
H112 H 0.4792 0.30556 0.81492 0.0
H113 H 0.46577 0.35312 0.80376 0.0
H114 H 0.56007 0.4358 0.84546 0.0
H115 H 0.57368 0.38842 0.85682 0.0
H116 H 0.62958 0.76753 0.83182 0.0
H117 H 0.65058 0.72287 0.83592 0.0
H118 H 0.54216 0.64325 0.85692 0.0
H119 H 0.52136 0.68767 0.85307 0.0
O120 O 0.58757 0.08663 0.2405 0.0
Cd121 Cd 0.61059 0.1205 0.20463 0.0
O122 O 0.53283 0.03695 0.23079 0.0
Cd123 Cd 0.47831 0.98286 0.23138 0.0
O124 O 0.42108 0.93187 0.22622 0.0
C125 C 0.41435 0.90277 0.21382 0.0
O126 O 0.44206 0.90214 0.20384 0.0
C127 C 0.5587 0.05706 0.24599 0.0
C128 C 0.67864 0.18967 0.20296 0.0
O129 O 0.64825 0.18839 0.20805 0.0
O130 O 0.67764 0.15863 0.19977 0.0
O131 O 0.52996 0.49091 0.57046 0.0
Cd132 Cd 0.53582 0.45789 0.53463 0.0
O133 O 0.53451 0.54416 0.56224 0.0
Cd134 Cd 0.53457 0.59845 0.56476 0.0
O135 O 0.53727 0.65325 0.56033 0.0
C136 C 0.52086 0.65841 0.54362 0.0
O137 O 0.50113 0.63054 0.52846 0.0
C138 C 0.53025 0.52094 0.57686 0.0
C139 C 0.52987 0.38647 0.53426 0.0
O140 O 0.56117 0.41636 0.53796 0.0
O141 O 0.50127 0.38998 0.53178 0.0
O142 O 0.09122 0.53318 0.90211 0.0
Cd143 Cd 0.1226 0.53216 0.86577 0.0
O144 O 0.03816 0.52913 0.89103 0.0
Cd145 Cd 0.98326 0.52768 0.89232 0.0
O146 O 0.92757 0.52427 0.88837 0.0
C147 C 0.92006 0.53994 0.87282 0.0
O148 O 0.94593 0.55908 0.85872 0.0
C149 C 0.06063 0.53166 0.90704 0.0
C150 C 0.19352 0.53688 0.86557 0.0
O151 O 0.19047 0.56588 0.86732 0.0
O152 O 0.16341 0.50555 0.86497 0.0
O153 O 1.01016 0.66797 0.39946 0.0
Cd154 Cd 1.00841 0.69935 0.43526 0.0
O155 O 0.9876 0.61849 0.41833 0.0
Cd156 Cd 0.9685 0.56138 0.42529 0.0
O157 O 0.93381 0.50725 0.43792 0.0
C158 C 0.94402 0.49695 0.45511 0.0
O159 O 0.97707 0.51883 0.46489 0.0
C160 C 1.00014 0.63401 0.39995 0.0
C161 C 0.06115 0.69909 0.46421 0.0
O162 O 0.02678 0.67584 0.46624 0.0
O163 O 0.07004 0.72296 0.44935 0.0
O164 O 0.40747 0.96267 0.73869 0.0
Cd165 Cd 0.37383 0.92635 0.77003 0.0
O166 O 0.45878 0.98107 0.7591 0.0
Cd167 Cd 0.51778 0.0182 0.76719 0.0
O168 O 0.55659 0.07333 0.78242 0.0
C169 C 0.55517 0.07946 0.80377 0.0
O170 O 0.53367 0.05154 0.81571 0.0
C171 C 0.44261 0.98135 0.7407 0.0
C172 C 0.41019 0.89025 0.78412 0.0
O173 O 0.41767 0.92152 0.79397 0.0
O174 O 0.38474 0.87565 0.76812 0.0
O175 O 0.4911 0.35587 0.06281 0.0
Cd176 Cd 0.47829 0.32997 0.10002 0.0
O177 O 0.50181 0.40749 0.08111 0.0
Cd178 Cd 0.50836 0.46258 0.08607 0.0
O179 O 0.49166 0.50195 0.09832 0.0
C180 C 0.47474 0.51161 0.08475 0.0
O181 O 0.47013 0.49974 0.06304 0.0
C182 C 0.4999 0.38957 0.06235 0.0
C183 C 0.5415 0.36905 0.12872 0.0
O184 O 0.53483 0.33943 0.11689 0.0
O185 O 0.51774 0.37975 0.12737 0.0
C186 C 0.28047 0.56297 0.1449 0.0
C187 C 0.25792 0.53461 0.15879 0.0
C188 C 0.31607 0.56994 0.14021 0.0
C189 C 0.32971 0.54852 0.14929 0.0
C190 C 0.30811 0.52197 0.16441 0.0
C191 C 0.27253 0.51493 0.16902 0.0
C192 C 0.36504 0.55117 0.14238 0.0
C193 C 0.37922 0.5617 0.12181 0.0
C194 C 0.40847 0.55497 0.11256 0.0
C195 C 0.40872 0.54844 0.08881 0.0
C196 C 0.43178 0.53625 0.07959 0.0
C197 C 0.45529 0.5306 0.09397 0.0
H198 H 0.43593 0.55853 0.14508 0.0
C199 C 0.45726 0.54006 0.11757 0.0
C200 C 0.43418 0.55224 0.12678 0.0
H201 H 0.47559 0.53669 0.12909 0.0
H202 H 0.27004 0.57868 0.13679 0.0
H203 H 0.33237 0.59153 0.12912 0.0
H204 H 0.31811 0.50541 0.1719 0.0
H205 H 0.25607 0.4934 0.18015 0.0
H206 H 0.37665 0.53916 0.1533 0.0
H207 H 0.36559 0.57058 0.11001 0.0
H208 H 0.38959 0.55084 0.07741 0.0
H209 H 0.42989 0.52966 0.0613 0.0
C210 C 0.75823 0.25633 0.51881 0.0
C211 C 0.763 0.226 0.51287 0.0
C212 C 0.78647 0.29233 0.51585 0.0
C213 C 0.82014 0.29873 0.50695 0.0
C214 C 0.82585 0.26877 0.50247 0.0
C215 C 0.7975 0.23273 0.5052 0.0
C216 C 0.84898 0.33599 0.50109 0.0
C217 C 0.84014 0.35975 0.49247 0.0
C218 C 0.86768 0.39493 0.48329 0.0
C219 C 0.85595 0.40875 0.46588 0.0
C220 C 0.88088 0.44154 0.45652 0.0
C221 C 0.91808 0.46162 0.46464 0.0
H222 H 0.91465 0.40562 0.50533 0.0
C223 C 0.92981 0.44809 0.4823 0.0
C224 C 0.90487 0.415 0.49153 0.0
H225 H 0.95822 0.46308 0.48905 0.0
H226 H 0.73241 0.25224 0.52536 0.0
H227 H 0.78171 0.31503 0.52023 0.0
H228 H 0.85168 0.27307 0.49576 0.0
H229 H 0.80213 0.2101 0.50029 0.0
H230 H 0.87751 0.34211 0.50139 0.0
H231 H 0.81114 0.35162 0.49004 0.0
H232 H 0.82742 0.39392 0.45931 0.0
H233 H 0.87085 0.45131 0.44305 0.0
C234 C 0.56671 0.77501 0.81872 0.0
C235 C 0.56044 0.75714 0.83905 0.0
C236 C 0.55095 0.7968 0.8147 0.0
C237 C 0.52873 0.8012 0.83102 0.0
C238 C 0.52407 0.7849 0.85181 0.0
C239 C 0.53947 0.76276 0.85572 0.0
C240 C 0.50946 0.82193 0.82661 0.0
C241 C 0.4957 0.82137 0.80565 0.0
C242 C 0.47353 0.83913 0.80102 0.0
C243 C 0.44758 0.82461 0.78243 0.0
C244 C 0.42645 0.84074 0.77726 0.0
C245 C 0.43126 0.87215 0.79039 0.0
H246 H 0.49878 0.88307 0.82833 0.0
C247 C 0.45741 0.88689 0.80894 0.0
C248 C 0.47835 0.87054 0.81423 0.0
H249 H 0.46197 0.91127 0.81926 0.0
H250 H 0.58278 0.77115 0.8056 0.0
H251 H 0.55595 0.80991 0.79877 0.0
H252 H 0.50744 0.78827 0.86474 0.0
H253 H 0.53465 0.74967 0.87167 0.0
H254 H 0.50355 0.83496 0.84127 0.0
H255 H 0.49846 0.805 0.79153 0.0
H256 H 0.44351 0.80058 0.7719 0.0
H257 H 0.40674 0.82888 0.76274 0.0
C258 C 0.80442 0.53723 0.1892 0.0
C259 C 0.82666 0.52092 0.18712 0.0
C260 C 0.76583 0.51524 0.18869 0.0
C261 C 0.74873 0.47642 0.18591 0.0
C262 C 0.77107 0.46022 0.18519 0.0
C263 C 0.80955 0.48215 0.18565 0.0
C264 C 0.70806 0.45177 0.18219 0.0
C265 C 0.68557 0.4628 0.17345 0.0
C266 C 0.64703 0.43659 0.16466 0.0
C267 C 0.62198 0.44945 0.16279 0.0
C268 C 0.587 0.42696 0.15195 0.0
C269 C 0.57662 0.39129 0.14247 0.0
H270 H 0.6549 0.38974 0.15622 0.0
C271 C 0.60126 0.37803 0.14488 0.0
C272 C 0.6361 0.4004 0.15581 0.0
H273 H 0.59413 0.35071 0.13768 0.0
H274 H 0.81683 0.56703 0.19088 0.0
H275 H 0.7497 0.52886 0.1902 0.0
H276 H 0.75871 0.43042 0.18317 0.0
H277 H 0.82576 0.46859 0.18378 0.0
H278 H 0.69699 0.42269 0.18468 0.0
H279 H 0.69607 0.49181 0.17116 0.0
H280 H 0.62982 0.47732 0.16924 0.0
H281 H 0.56866 0.43803 0.15031 0.0
C282 C 0.2963 0.79615 0.53346 0.0
C283 C 0.30061 0.8315 0.5377 0.0
C284 C 0.26206 0.76454 0.53599 0.0
C285 C 0.23151 0.7679 0.54254 0.0
C286 C 0.23727 0.80302 0.54971 0.0
C287 C 0.27146 0.8346 0.54721 0.0
C288 C 0.19276 0.73753 0.53759 0.0
C289 C 0.18374 0.71483 0.51839 0.0
C290 C 0.14952 0.70394 0.50457 0.0
C291 C 0.15289 0.70913 0.48114 0.0
C292 C 0.12375 0.70683 0.46804 0.0
C293 C 0.09022 0.6981 0.47795 0.0
H294 H 0.11193 0.68884 0.53235 0.0
C295 C 0.08562 0.69 0.50098 0.0
C296 C 0.11532 0.69338 0.51435 0.0
H297 H 0.05979 0.68289 0.50889 0.0
H298 H 0.31871 0.79295 0.52682 0.0
H299 H 0.25895 0.73772 0.53126 0.0
H300 H 0.21434 0.8064 0.55509 0.0
H301 H 0.27387 0.86139 0.55077 0.0
H302 H 0.17124 0.74091 0.54568 0.0
H303 H 0.20548 0.71325 0.5093 0.0
H304 H 0.17895 0.71729 0.47321 0.0
H305 H 0.1277 0.71257 0.45021 0.0
C306 C 0.57373 0.3223 0.84111 0.0
C307 C 0.53704 0.31487 0.84216 0.0
C308 C 0.58206 0.29429 0.84372 0.0
C309 C 0.55374 0.25826 0.84739 0.0
C310 C 0.51753 0.25153 0.84982 0.0
C311 C 0.50919 0.27944 0.8471 0.0
C312 C 0.56011 0.22646 0.8473 0.0
C313 C 0.58647 0.2246 0.83519 0.0
C314 C 0.58541 0.18906 0.82957 0.0
C315 C 0.59681 0.18311 0.80809 0.0
C316 C 0.58936 0.1478 0.80022 0.0
C317 C 0.57063 0.11786 0.81383 0.0
H318 H 0.56228 0.16395 0.8611 0.0
C319 C 0.56266 0.12464 0.83623 0.0
C320 C 0.57002 0.15994 0.84406 0.0
H321 H 0.54886 0.10231 0.84732 0.0
H322 H 0.59582 0.34939 0.83737 0.0
H323 H 0.6105 0.30083 0.84245 0.0
H324 H 0.49526 0.22414 0.8529 0.0
H325 H 0.48079 0.27311 0.84842 0.0
H326 H 0.53896 0.20181 0.85462 0.0
H327 H 0.60556 0.24806 0.82604 0.0
H328 H 0.60927 0.20523 0.79673 0.0
H329 H 0.59637 0.14363 0.78299 0.0
C330 C 0.55322 0.9151 0.51662 0.0
C331 C 0.52363 0.91682 0.50614 0.0
C332 C 0.55037 0.88092 0.52047 0.0
C333 C 0.5177 0.84725 0.514 0.0
C334 C 0.48837 0.8491 0.5033 0.0
C335 C 0.49118 0.8832 0.49951 0.0
C336 C 0.51309 0.80972 0.51726 0.0
C337 C 0.53503 0.80308 0.53115 0.0
C338 C 0.53006 0.76532 0.53422 0.0
C339 C 0.54877 0.76077 0.55278 0.0
C340 C 0.54572 0.72633 0.55605 0.0
C341 C 0.52399 0.69527 0.54073 0.0
H342 H 0.49409 0.73605 0.50401 0.0
C343 C 0.50535 0.69981 0.52213 0.0
C344 C 0.50836 0.73416 0.51887 0.0
H345 H 0.4885 0.67674 0.50982 0.0
H346 H 0.57874 0.94026 0.52197 0.0
H347 H 0.57407 0.88123 0.52828 0.0
H348 H 0.46287 0.82392 0.4979 0.0
H349 H 0.4677 0.8831 0.49145 0.0
H350 H 0.48943 0.78635 0.50817 0.0
H351 H 0.55725 0.82615 0.54142 0.0
H352 H 0.56594 0.78404 0.56489 0.0
H353 H 0.5606 0.72416 0.57053 0.0
C354 C 0.66048 0.51102 0.84672 0.0
C355 C 0.65869 0.54148 0.83925 0.0
C356 C 0.69479 0.51286 0.85046 0.0
C357 C 0.72838 0.54529 0.84682 0.0
C358 C 0.72637 0.57545 0.83916 0.0
C359 C 0.69224 0.57368 0.83554 0.0
C360 C 0.76601 0.54894 0.84989 0.0
C361 C 0.77366 0.52623 0.86139 0.0
C362 C 0.81175 0.5308 0.86425 0.0
C363 C 0.81883 0.51274 0.88143 0.0
C364 C 0.85377 0.51574 0.88442 0.0
C365 C 0.88273 0.53672 0.87016 0.0
H366 H 0.83672 0.56519 0.83601 0.0
C367 C 0.87559 0.55456 0.85287 0.0
C368 C 0.84076 0.55161 0.8499 0.0
H369 H 0.89694 0.57076 0.84138 0.0
H370 H 0.63533 0.48567 0.84975 0.0
H371 H 0.69465 0.48861 0.85588 0.0
H372 H 0.75148 0.60079 0.83601 0.0
H373 H 0.69226 0.59775 0.82979 0.0
H374 H 0.78877 0.57271 0.84286 0.0
H375 H 0.7515 0.50392 0.86985 0.0
H376 H 0.79721 0.49623 0.8927 0.0
H377 H 0.85799 0.50146 0.89786 0.0
C378 C 0.14823 0.67611 0.18533 0.0
C379 C 0.14445 0.64484 0.17233 0.0
C380 C 0.18319 0.70844 0.18946 0.0
C381 C 0.21541 0.71041 0.18064 0.0
C382 C 0.21131 0.67921 0.16748 0.0
C383 C 0.17663 0.64706 0.16347 0.0
C384 C 0.25373 0.74398 0.18404 0.0
C385 C 0.26406 0.77396 0.19902 0.0
C386 C 0.30303 0.80673 0.2024 0.0
C387 C 0.30916 0.83877 0.21562 0.0
C388 C 0.34496 0.86983 0.21945 0.0
C389 C 0.37594 0.86986 0.21022 0.0
H390 H 0.33175 0.78289 0.18359 0.0
C391 C 0.36992 0.83778 0.19718 0.0
C392 C 0.33424 0.80676 0.19339 0.0
H393 H 0.39294 0.83643 0.18986 0.0
H394 H 0.12419 0.67558 0.19248 0.0
H395 H 0.18456 0.73171 0.1994 0.0
H396 H 0.23524 0.67954 0.16028 0.0
H397 H 0.17517 0.62386 0.15332 0.0
H398 H 0.27452 0.74326 0.17351 0.0
H399 H 0.24325 0.77493 0.20945 0.0
H400 H 0.28605 0.83988 0.22301 0.0
H401 H 0.34831 0.89386 0.22961 0.0
C402 C 0.5031 0.12643 0.51328 0.0
C403 C 0.53346 0.12332 0.5058 0.0
C404 C 0.5056 0.16118 0.51685 0.0
C405 C 0.53862 0.19408 0.51295 0.0
C406 C 0.56881 0.19078 0.50538 0.0
C407 C 0.56631 0.15612 0.50184 0.0
C408 C 0.54353 0.23232 0.51693 0.0
C409 C 0.51611 0.23987 0.52153 0.0
C410 C 0.5211 0.27815 0.52516 0.0
C411 C 0.48946 0.28193 0.52458 0.0
C412 C 0.49228 0.31677 0.52781 0.0
C413 C 0.52692 0.34919 0.53191 0.0
H414 H 0.58104 0.3094 0.53078 0.0
C415 C 0.55866 0.34555 0.53289 0.0
C416 C 0.55585 0.31061 0.5296 0.0
H417 H 0.58584 0.36979 0.53606 0.0
H418 H 0.47734 0.10196 0.51668 0.0
H419 H 0.48163 0.16183 0.52298 0.0
H420 H 0.59473 0.21528 0.50223 0.0
H421 H 0.59039 0.15517 0.49612 0.0
H422 H 0.57131 0.25529 0.51535 0.0
H423 H 0.48798 0.21703 0.52198 0.0
H424 H 0.46222 0.25773 0.5214 0.0
H425 H 0.46716 0.31824 0.52692 0.0
C426 C 0.45137 0.56182 0.84909 0.0
C427 C 0.45474 0.53504 0.83523 0.0
C428 C 0.41671 0.55902 0.85211 0.0
C429 C 0.38415 0.52933 0.84125 0.0
C430 C 0.38767 0.50273 0.82732 0.0
C431 C 0.42231 0.50553 0.82431 0.0
C432 C 0.34604 0.52415 0.84444 0.0
C433 C 0.33904 0.55035 0.8538 0.0
C434 C 0.30103 0.5454 0.85684 0.0
C435 C 0.29783 0.57706 0.86132 0.0
C436 C 0.26324 0.57425 0.8644 0.0
C437 C 0.23053 0.53957 0.86331 0.0
H438 H 0.26917 0.48528 0.8532 0.0
C439 C 0.23361 0.50774 0.8592 0.0
C440 C 0.2683 0.51055 0.85603 0.0
H441 H 0.20911 0.48052 0.85828 0.0
H442 H 0.47553 0.58487 0.85795 0.0
H443 H 0.41577 0.5799 0.86337 0.0
H444 H 0.36336 0.47939 0.81875 0.0
H445 H 0.42355 0.48424 0.81357 0.0
H446 H 0.32282 0.49763 0.83808 0.0
H447 H 0.36222 0.57763 0.85885 0.0
H448 H 0.32229 0.60433 0.86227 0.0
H449 H 0.26218 0.59943 0.86752 0.0
C450 C 0.90834 0.4399 0.16914 0.0
C451 C 0.94283 0.44167 0.1673 0.0
C452 C 0.87601 0.40643 0.17315 0.0
C453 C 0.87728 0.37369 0.17537 0.0
C454 C 0.91169 0.37559 0.17312 0.0
C455 C 0.94383 0.40888 0.16929 0.0
C456 C 0.84399 0.33678 0.17952 0.0
C457 C 0.81089 0.3313 0.18664 0.0
C458 C 0.77792 0.29425 0.19119 0.0
C459 C 0.74531 0.29304 0.19848 0.0
C460 C 0.71357 0.25946 0.20266 0.0
C461 C 0.71324 0.22571 0.19975 0.0
H462 H 0.80167 0.2592 0.18301 0.0
C463 C 0.74586 0.22674 0.19272 0.0
C464 C 0.77767 0.26036 0.1885 0.0
H465 H 0.74676 0.2014 0.1902 0.0
H466 H 0.90636 0.46452 0.1678 0.0
H467 H 0.85023 0.40647 0.1743 0.0
H468 H 0.91391 0.35112 0.17455 0.0
H469 H 0.96963 0.40883 0.16796 0.0
H470 H 0.84787 0.31315 0.17703 0.0
H471 H 0.80753 0.35522 0.18967 0.0
H472 H 0.7442 0.3183 0.20082 0.0
H473 H 0.68908 0.25998 0.20798 0.0
C474 C 0.03026 0.51307 0.07865 0.0
C475 C 0.04155 0.54525 0.09319 0.0
C476 C 0.03221 0.51482 0.05483 0.0
C477 C 0.04599 0.54893 0.04509 0.0
C478 C 0.05727 0.58096 0.05965 0.0
C479 C 0.05467 0.57913 0.08335 0.0
C480 C 0.05176 0.55265 0.02012 0.0
C481 C 0.03036 0.52617 0.00362 0.0
C482 C 0.03809 0.53006 0.97883 0.0
C483 C 1.00879 0.5121 0.96218 0.0
C484 C 0.01571 0.51375 0.93877 0.0
C485 C 0.0522 0.53274 0.93154 0.0
H486 H 0.09792 0.56299 0.98375 0.0
C487 C 0.08144 0.55075 0.94822 0.0
C488 C 0.07452 0.54961 0.97152 0.0
H489 H 0.10991 0.56543 0.94324 0.0
H490 H 0.02007 0.48655 0.08568 0.0
H491 H 0.02404 0.48968 0.04417 0.0
H492 H 0.06831 0.60764 0.05267 0.0
H493 H 0.06381 0.6045 0.094 0.0
H494 H 0.07398 0.57896 0.01517 0.0
H495 H 1.00591 0.50126 0.00829 0.0
H496 H 0.98047 0.49649 0.96731 0.0
H497 H 0.99263 0.49893 0.92641 0.0
C498 C 0.55617 0.01715 0.41737 0.0
C499 C 0.52797 0.0181 0.42976 0.0
C500 C 0.55591 0.01753 0.39342 0.0
C501 C 0.52744 0.01909 0.38126 0.0
C502 C 0.49906 0.01943 0.39371 0.0
C503 C 0.49934 0.01906 0.41754 0.0
C504 C 0.5258 0.02027 0.35578 0.0
C505 C 0.55492 0.02962 0.34243 0.0
C506 C 0.55421 0.03427 0.31733 0.0
C507 C 0.58807 0.05566 0.30719 0.0
C508 C 0.58922 0.06225 0.28406 0.0
C509 C 0.55651 0.04723 0.27016 0.0
H510 H 0.49466 1.00094 0.31023 0.0
C511 C 0.52254 0.02484 0.28003 0.0
C512 C 0.52135 0.01837 0.30335 0.0
H513 H 0.49679 0.01314 0.26997 0.0
H514 H 0.57851 0.01611 0.42616 0.0
H515 H 0.57788 0.01623 0.38463 0.0
H516 H 0.47662 0.02039 0.38498 0.0
H517 H 0.477 0.01967 0.42638 0.0
H518 H 0.49994 0.01553 0.34804 0.0
H519 H 0.58152 0.03693 0.35037 0.0
H520 H 0.61389 0.06805 0.31732 0.0
H521 H 0.61596 0.07946 0.27709 0.0
C522 C 0.54955 0.52745 0.74691 0.0
C523 C 0.55458 0.55608 0.76302 0.0
C524 C 0.5467 0.5305 0.72349 0.0
C525 C 0.54864 0.56227 0.71534 0.0
C526 C 0.55454 0.59136 0.73134 0.0
C527 C 0.55716 0.5882 0.75495 0.0
C528 C 0.54601 0.56582 0.69023 0.0
C529 C 0.52509 0.53607 0.67546 0.0
C530 C 0.5241 0.53523 0.64988 0.0
C531 C 0.50343 0.50049 0.63773 0.0
C532 C 0.50427 0.49655 0.614 0.0
C533 C 0.52542 0.52731 0.60149 0.0
H534 H 0.56026 0.59391 0.64585 0.0
C535 C 0.54456 0.56258 0.61328 0.0
C536 C 0.54414 0.56654 0.63731 0.0
H537 H 0.5613 0.58679 0.6041 0.0
H538 H 0.54774 0.50239 0.75234 0.0
H539 H 0.54363 0.50803 0.71179 0.0
H540 H 0.55668 0.61639 0.72558 0.0
H541 H 0.56126 0.6109 0.76683 0.0
H542 H 0.56166 0.59317 0.6841 0.0
H543 H 0.50813 0.50964 0.68259 0.0
H544 H 0.48748 0.47582 0.64671 0.0
H545 H 0.489 0.46901 0.60546 0.0
C546 C 0.54635 0.05206 0.58533 0.0
C547 C 0.51863 0.02683 0.56925 0.0
C548 C 0.53798 0.05456 0.60829 0.0
C549 C 0.50163 0.03218 0.61528 0.0
C550 C 0.47405 0.00775 0.59901 0.0
C551 C 0.48244 1.00484 0.5764 0.0
C552 C 0.49063 0.03283 0.63918 0.0
C553 C 0.51325 0.04053 0.65774 0.0
C554 C 0.49835 0.03179 0.68087 0.0
C555 C 0.51488 0.01943 0.69632 0.0
C556 C 0.49775 1.00472 0.71649 0.0
C557 C 0.46391 1.0024 0.72162 0.0
H558 H 0.45321 0.04279 0.67595 0.0
C559 C 0.44871 0.0171 0.70699 0.0
C560 C 0.46598 0.0321 0.68696 0.0
H561 H 0.42289 0.01609 0.71072 0.0
H562 H 0.57439 0.06956 0.58023 0.0
H563 H 0.55975 0.0742 0.62036 0.0
H564 H 0.44582 0.99032 0.60387 0.0
H565 H 0.46021 0.98546 0.56444 0.0
H566 H 0.46125 0.02179 0.64141 0.0
H567 H 0.54196 0.04819 0.65558 0.0
H568 H 0.53989 0.01905 0.69213 0.0
H569 H 0.50978 0.99301 0.72725 0.0
C570 C 0.51753 0.49197 0.90815 0.0
C571 C 0.55134 0.51974 0.90063 0.0
C572 C 0.51461 0.48184 0.93054 0.0
C573 C 0.54569 0.49874 0.94594 0.0
C574 C 0.57912 0.5277 0.93875 0.0
C575 C 0.58197 0.53814 0.91627 0.0
C576 C 0.54382 0.48656 0.96945 0.0
C577 C 0.51982 0.45164 0.97448 0.0
C578 C 0.51628 0.43723 0.99746 0.0
C579 C 0.49427 0.3989 0.99898 0.0
C580 C 0.48912 0.38363 0.02003 0.0
C581 C 0.50562 0.40636 0.04021 0.0
H582 H 0.54997 0.48975 0.01747 0.0
C583 C 0.52795 0.4447 0.0388 0.0
C584 C 0.53307 0.46008 0.01768 0.0
H585 H 0.5421 0.46284 0.05391 0.0
H586 H 0.49314 0.47782 0.89668 0.0
H587 H 0.48785 0.46073 0.93564 0.0
H588 H 0.60335 0.54161 0.95037 0.0
H589 H 0.60834 0.5598 0.91099 0.0
H590 H 0.5639 0.50632 0.98235 0.0
H591 H 0.5022 0.43164 0.96076 0.0
H592 H 0.48088 0.38053 0.98377 0.0
H593 H 0.47185 0.35396 0.0205 0.0
C594 C 1.00932 0.53506 0.24378 0.0
C595 C 0.04254 0.54452 0.23309 0.0
C596 C 1.00917 0.54179 0.26731 0.0
C597 C 0.04233 0.55806 0.28085 0.0
C598 C 0.07535 0.56599 0.2703 0.0
C599 C 0.07545 0.55904 0.24663 0.0
C600 C 0.04395 0.57132 0.30519 0.0
C601 C 0.01397 0.55866 0.31803 0.0
C602 C 0.01308 0.5776 0.34009 0.0
C603 C 0.98455 0.55808 0.35489 0.0
C604 C 0.98042 0.57607 0.37457 0.0
C605 C 1.00465 0.61405 0.37974 0.0
H606 H 0.05904 0.6321 0.33416 0.0
C607 C 0.03325 0.63358 0.36501 0.0
C608 C 0.03748 0.61563 0.34543 0.0
H609 H 0.05227 0.66295 0.36853 0.0
H610 H 0.98342 0.52367 0.23383 0.0
H611 H 0.98323 0.53608 0.27445 0.0
H612 H 0.10134 0.57881 0.28028 0.0
H613 H 0.10149 0.56672 0.23884 0.0
H614 H 0.07051 0.59353 0.31229 0.0
H615 H 0.98836 0.53407 0.31187 0.0
H616 H 0.96487 0.52896 0.35095 0.0
H617 H 0.95743 0.56052 0.38518 0.0
loop_
_geom_bond_atom_site_label_1
_geom_bond_atom_site_label_2
_geom_bond_distance
_geom_bond_site_symmetry_2
_ccdc_geom_bond_type
Tb0 C9 2.800 . S
Tb0 O10 2.328 . S
Tb0 O13 2.284 1_655 S
Tb0 O17 2.293 1_655 S
Tb0 O18 2.340 1_655 S
Tb0 O21 2.446 . S
Tb0 O22 2.433 . S
Tb1 O11 2.322 1_455 S
Tb1 O12 2.349 . S
Tb1 O14 2.415 . S
Tb1 O15 2.399 . S
Tb1 O16 2.325 . S
Tb1 O19 2.303 . S
Tb1 C30 2.764 . S
C2 O18 1.261 . S
C2 O19 1.257 . S
C3 C6 1.358 . S
C3 C7 1.332 . S
C3 C9 1.504 . S
C4 C5 1.373 . S
C4 C8 1.308 . S
C5 C4 1.373 . S
C5 C6 1.429 . S
C5 H32 0.932 . S
C6 C3 1.358 . S
C6 C5 1.429 . S
C6 H33 0.930 . S
C7 C3 1.332 . S
C7 C8 1.394 . S
C7 H34 0.932 . S
C8 C4 1.308 . S
C8 C7 1.394 . S
C8 H35 0.929 . S
C9 Tb0 2.800 . S
C9 C3 1.504 . S
C9 O21 1.239 . S
C9 O22 1.263 . S
O10 Tb0 2.328 . S
O10 C20 1.236 . S
O11 Tb1 2.322 1_655 S
O11 C20 1.257 . S
O12 Tb1 2.349 . S
O12 C23 1.261 . S
O13 Tb0 2.284 1_455 S
O13 C23 1.257 . S
O14 Tb1 2.415 . S
O14 C30 1.239 . S
O15 Tb1 2.399 . S
O15 C30 1.263 . S
O16 Tb1 2.325 . S
O16 C31 1.236 . S
O17 Tb0 2.293 1_455 S
O17 C31 1.257 . S
O18 Tb0 2.340 1_455 S
O18 C2 1.261 . S
O19 Tb1 2.303 . S
O19 C2 1.257 . S
C20 O10 1.236 . S
C20 O11 1.257 . S
O21 Tb0 2.446 . S
O21 C9 1.239 . S
O22 Tb0 2.433 . S
O22 C9 1.263 . S
C23 O12 1.261 . S
C23 O13 1.257 . S
C24 C27 1.358 . S
C24 C28 1.332 . S
C24 C30 1.504 . S
C25 C26 1.373 . S
C25 C29 1.308 . S
C26 C25 1.373 . S
C26 C27 1.429 . S
C26 H36 0.932 . S
C27 C24 1.358 . S
C27 C26 1.429 . S
C27 H37 0.930 . S
C28 C24 1.332 . S
C28 C29 1.394 . S
C28 H38 0.932 . S
C29 C25 1.308 . S
C29 C28 1.394 . S
C29 H39 0.929 . S
C30 Tb1 2.764 . S
C30 O14 1.239 . S
C30 O15 1.263 . S
C30 C24 1.504 . S
C31 O16 1.236 . S
C31 O17 1.257 . S
H32 C5 0.932 . S
H33 C6 0.930 . S
H34 C7 0.932 . S
H35 C8 0.929 . S
H36 C26 0.932 . S
H37 C27 0.930 . S
H38 C28 0.932 . S
H39 C29 0.929 . S
Tb40 C49 2.764 1_545 S
Tb40 O50 2.325 1_545 S
Tb40 O53 2.303 . S
Tb40 O57 2.322 . S
Tb40 O58 2.349 . S
Tb40 O61 2.415 1_545 S
Tb40 O62 2.399 1_545 S
Tb41 O51 2.322 1_545 S
Tb41 O52 2.349 . S
Tb41 O54 2.415 . S
Tb41 O55 2.399 . S
Tb41 O56 2.325 . S
Tb41 O59 2.303 . S
Tb41 C70 2.764 . S
C42 O58 1.261 . S
C42 O59 1.257 . S
C43 C46 1.358 . S
C43 C47 1.332 . S
C43 C49 1.504 . S
C44 C45 1.373 . S
C44 C48 1.308 . S
C45 C44 1.373 . S
C45 C46 1.429 . S
C45 H72 0.932 . S
C46 C43 1.358 . S
C46 C45 1.429 . S
C46 H73 0.930 . S
C47 C43 1.332 . S
C47 C48 1.394 . S
C47 H74 0.932 . S
C48 C44 1.308 . S
C48 C47 1.394 . S
C48 H75 0.929 . S
C49 Tb40 2.764 1_565 S
C49 C43 1.504 . S
C49 O61 1.239 . S
C49 O62 1.263 . S
O50 Tb40 2.325 1_565 S
O50 C60 1.236 . S
O51 Tb41 2.322 1_565 S
O51 C60 1.257 . S
O52 Tb41 2.349 . S
O52 C63 1.261 . S
O53 Tb40 2.303 . S
O53 C63 1.257 . S
O54 Tb41 2.415 . S
O54 C70 1.239 . S
O55 Tb41 2.399 . S
O55 C70 1.263 . S
O56 Tb41 2.325 . S
O56 C71 1.236 . S
O57 Tb40 2.322 . S
O57 C71 1.257 . S
O58 Tb40 2.349 . S
O58 C42 1.261 . S
O59 Tb41 2.303 . S
O59 C42 1.257 . S
C60 O50 1.236 . S
C60 O51 1.257 . S
O61 Tb40 2.415 1_565 S
O61 C49 1.239 . S
O62 Tb40 2.399 1_565 S
O62 C49 1.263 . S
C63 O52 1.261 . S
C63 O53 1.257 . S
C64 C67 1.358 . S
C64 C68 1.332 . S
C64 C70 1.504 . S
C65 C66 1.373 . S
C65 C69 1.308 . S
C66 C65 1.373 . S
C66 C67 1.429 . S
C66 H76 0.932 . S
C67 C64 1.358 . S
C67 C66 1.429 . S
C67 H77 0.930 . S
C68 C64 1.332 . S
C68 C69 1.394 . S
C68 H78 0.932 . S
C69 C65 1.308 . S
C69 C68 1.394 . S
C69 H79 0.929 . S
C70 Tb41 2.764 . S
C70 O54 1.239 . S
C70 O55 1.263 . S
C70 C64 1.504 . S
C71 O56 1.236 . S
C71 O57 1.257 . S
H72 C45 0.932 . S
H73 C46 0.930 . S
H74 C47 0.932 . S
H75 C48 0.929 . S
H76 C66 0.932 . S
H77 C67 0.930 . S
H78 C68 0.932 . S
H79 C69 0.929 . S
Tb80 C89 2.764 . S
Tb80 O90 2.325 . S
Tb80 O93 2.303 . S
Tb80 O97 2.322 . S
Tb80 O98 2.349 . S
Tb80 O101 2.415 . S
Tb80 O102 2.399 . S
Tb81 O91 2.322 . S
Tb81 O92 2.349 . S
Tb81 O94 2.415 . S
Tb81 O95 2.399 . S
Tb81 O96 2.325 . S
Tb81 O99 2.303 . S
Tb81 C110 2.764 . S
C82 O98 1.261 . S
C82 O99 1.257 . S
C83 C86 1.358 . S
C83 C87 1.332 . S
C83 C89 1.504 . S
C84 C85 1.373 . S
C84 C88 1.308 . S
C85 C84 1.373 . S
C85 C86 1.429 . S
C85 H112 0.932 . S
C86 C83 1.358 . S
C86 C85 1.429 . S
C86 H113 0.930 . S
C87 C83 1.332 . S
C87 C88 1.394 . S
C87 H114 0.932 . S
C88 C84 1.308 . S
C88 C87 1.394 . S
C88 H115 0.929 . S
C89 Tb80 2.764 . S
C89 C83 1.504 . S
C89 O101 1.239 . S
C89 O102 1.263 . S
O90 Tb80 2.325 . S
O90 C100 1.236 . S
O91 Tb81 2.322 . S
O91 C100 1.257 . S
O92 Tb81 2.349 . S
O92 C103 1.261 . S
O93 Tb80 2.303 . S
O93 C103 1.257 . S
O94 Tb81 2.415 . S
O94 C110 1.239 . S
O95 Tb81 2.399 . S
O95 C110 1.263 . S
O96 Tb81 2.325 . S
O96 C111 1.236 . S
O97 Tb80 2.322 . S
O97 C111 1.257 . S
O98 Tb80 2.349 . S
O98 C82 1.261 . S
O99 Tb81 2.303 . S
O99 C82 1.257 . S
C100 O90 1.236 . S
C100 O91 1.257 . S
O101 Tb80 2.415 . S
O101 C89 1.239 . S
O102 Tb80 2.399 . S
O102 C89 1.263 . S
C103 O92 1.261 . S
C103 O93 1.257 . S
C104 C107 1.358 . S
C104 C108 1.332 . S
C104 C110 1.504 . S
C105 C106 1.373 . S
C105 C109 1.308 . S
C106 C105 1.373 . S
C106 C107 1.429 . S
C106 H116 0.932 . S
C107 C104 1.358 . S
C107 C106 1.429 . S
C107 H117 0.930 . S
C108 C104 1.332 . S
C108 C109 1.394 . S
C108 H118 0.932 . S
C109 C105 1.308 . S
C109 C108 1.394 . S
C109 H119 0.929 . S
C110 Tb81 2.764 . S
C110 O94 1.239 . S
C110 O95 1.263 . S
C110 C104 1.504 . S
C111 O96 1.236 . S
C111 O97 1.257 . S
H112 C85 0.932 . S
H113 C86 0.930 . S
H114 C87 0.932 . S
H115 C88 0.929 . S
H116 C106 0.932 . S
H117 C107 0.930 . S
H118 C108 0.932 . S
H119 C109 0.929 . S
O120 Cd121 2.300 . S
O120 C127 1.275 . S
Cd121 O120 2.300 . S
Cd121 O129 2.381 . S
Cd121 O130 2.378 . S
O122 Cd123 2.385 1_545 S
O122 C127 1.255 . S
Cd123 O122 2.385 1_565 S
Cd123 O124 2.317 . S
O124 Cd123 2.317 . S
O124 C125 1.232 . S
C125 O124 1.232 . S
C125 O126 1.218 . S
O126 C125 1.218 . S
C127 O120 1.275 . S
C127 O122 1.255 . S
C128 O129 1.258 . S
C128 O130 1.256 . S
O129 Cd121 2.381 . S
O129 C128 1.258 . S
O130 Cd121 2.378 . S
O130 C128 1.256 . S
O131 Cd132 2.300 . S
O131 C138 1.275 . S
Cd132 O131 2.300 . S
Cd132 O140 2.381 . S
Cd132 O141 2.378 . S
O133 Cd134 2.385 . S
O133 C138 1.255 . S
Cd134 O133 2.385 . S
Cd134 O135 2.317 . S
O135 Cd134 2.317 . S
O135 C136 1.232 . S
C136 O135 1.232 . S
C136 O137 1.218 . S
O137 C136 1.218 . S
C138 O131 1.275 . S
C138 O133 1.255 . S
C139 O140 1.258 . S
C139 O141 1.256 . S
O140 Cd132 2.381 . S
O140 C139 1.258 . S
O141 Cd132 2.378 . S
O141 C139 1.256 . S
O142 Cd143 2.300 . S
O142 C149 1.275 . S
Cd143 O142 2.300 . S
Cd143 O151 2.381 . S
Cd143 O152 2.378 . S
O144 Cd145 2.385 1_455 S
O144 C149 1.255 . S
Cd145 O144 2.385 1_655 S
Cd145 O146 2.317 . S
O146 Cd145 2.317 . S
O146 C147 1.232 . S
C147 O146 1.232 . S
C147 O148 1.218 . S
O148 C147 1.218 . S
C149 O142 1.275 . S
C149 O144 1.255 . S
C150 O151 1.258 . S
C150 O152 1.256 . S
O151 Cd143 2.381 . S
O151 C150 1.258 . S
O152 Cd143 2.378 . S
O152 C150 1.256 . S
O153 Cd154 2.300 . S
O153 C160 1.275 1_455 S
Cd154 O153 2.300 . S
Cd154 O162 2.381 . S
Cd154 O163 2.378 . S
O155 Cd156 2.385 . S
O155 C160 1.255 . S
Cd156 O155 2.385 . S
Cd156 O157 2.317 . S
O157 Cd156 2.317 . S
O157 C158 1.232 . S
C158 O157 1.232 . S
C158 O159 1.218 . S
O159 C158 1.218 . S
C160 O153 1.275 1_655 S
C160 O155 1.255 . S
C161 O162 1.258 . S
C161 O163 1.256 . S
O162 Cd154 2.381 . S
O162 C161 1.258 . S
O163 Cd154 2.378 . S
O163 C161 1.256 . S
O164 Cd165 2.300 . S
O164 C171 1.275 1_565 S
Cd165 O164 2.300 . S
Cd165 O173 2.381 . S
Cd165 O174 2.378 . S
O166 Cd167 2.385 . S
O166 C171 1.255 . S
Cd167 O166 2.385 . S
Cd167 O168 2.317 . S
O168 Cd167 2.317 . S
O168 C169 1.232 . S
C169 O168 1.232 . S
C169 O170 1.218 . S
O170 C169 1.218 . S
C171 O164 1.275 1_545 S
C171 O166 1.255 . S
C172 O173 1.258 . S
C172 O174 1.256 . S
O173 Cd165 2.381 . S
O173 C172 1.258 . S
O174 Cd165 2.378 . S
O174 C172 1.256 . S
O175 Cd176 2.300 . S
O175 C182 1.275 . S
Cd176 O175 2.300 . S
Cd176 O184 2.381 . S
Cd176 O185 2.378 . S
O177 Cd178 2.385 . S
O177 C182 1.255 . S
Cd178 O177 2.385 . S
Cd178 O179 2.317 . S
O179 Cd178 2.317 . S
O179 C180 1.232 . S
C180 O179 1.232 . S
C180 O181 1.218 . S
O181 C180 1.218 . S
C182 O175 1.275 . S
C182 O177 1.255 . S
C183 O184 1.258 . S
C183 O185 1.256 . S
O184 Cd176 2.381 . S
O184 C183 1.258 . S
O185 Cd176 2.378 . S
O185 C183 1.256 . S
C186 C187 1.386 . S
C186 C188 1.383 . S
C186 H202 0.951 . S
C187 C186 1.386 . S
C187 C191 1.383 . S
C188 C186 1.383 . S
C188 C189 1.402 . S
C188 H203 0.951 . S
C189 C188 1.402 . S
C189 C190 1.375 . S
C189 C192 1.481 . S
C190 C189 1.375 . S
C190 C191 1.367 . S
C190 H204 0.951 . S
C191 C187 1.383 . S
C191 C190 1.367 . S
C191 H205 0.950 . S
C192 C189 1.481 . S
C192 C193 1.297 . S
C192 H206 0.950 . S
C193 C192 1.297 . S
C193 C194 1.479 . S
C193 H207 0.950 . S
C194 C193 1.479 . S
C194 C195 1.375 . S
C194 C200 1.404 . S
C195 C194 1.375 . S
C195 C196 1.369 . S
C195 H208 0.950 . S
C196 C195 1.369 . S
C196 C197 1.392 . S
C196 H209 0.951 . S
C197 C196 1.392 . S
C197 C199 1.384 . S
H198 C200 0.949 . S
C199 C197 1.384 . S
C199 C200 1.385 . S
C199 H201 0.950 . S
C200 C194 1.404 . S
C200 H198 0.949 . S
C200 C199 1.385 . S
H201 C199 0.950 . S
H202 C186 0.951 . S
H203 C188 0.951 . S
H204 C190 0.951 . S
H205 C191 0.950 . S
H206 C192 0.950 . S
H207 C193 0.950 . S
H208 C195 0.950 . S
H209 C196 0.951 . S
C210 C211 1.386 . S
C210 C212 1.383 . S
C210 H226 0.951 . S
C211 C210 1.386 . S
C211 C215 1.383 . S
C212 C210 1.383 . S
C212 C213 1.402 . S
C212 H227 0.951 . S
C213 C212 1.402 . S
C213 C214 1.375 . S
C213 C216 1.481 . S
C214 C213 1.375 . S
C214 C215 1.367 . S
C214 H228 0.951 . S
C215 C211 1.383 . S
C215 C214 1.367 . S
C215 H229 0.950 . S
C216 C213 1.481 . S
C216 C217 1.297 . S
C216 H230 0.950 . S
C217 C216 1.297 . S
C217 C218 1.479 . S
C217 H231 0.950 . S
C218 C217 1.479 . S
C218 C219 1.375 . S
C218 C224 1.404 . S
C219 C218 1.375 . S
C219 C220 1.369 . S
C219 H232 0.950 . S
C220 C219 1.369 . S
C220 C221 1.392 . S
C220 H233 0.951 . S
C221 C220 1.392 . S
C221 C223 1.384 . S
H222 C224 0.949 . S
C223 C221 1.384 . S
C223 C224 1.385 . S
C223 H225 0.950 . S
C224 C218 1.404 . S
C224 H222 0.949 . S
C224 C223 1.385 . S
H225 C223 0.950 . S
H226 C210 0.951 . S
H227 C212 0.951 . S
H228 C214 0.951 . S
H229 C215 0.950 . S
H230 C216 0.950 . S
H231 C217 0.950 . S
H232 C219 0.950 . S
H233 C220 0.951 . S
C234 C235 1.386 . S
C234 C236 1.383 . S
C234 H250 0.951 . S
C235 C234 1.386 . S
C235 C239 1.383 . S
C236 C234 1.383 . S
C236 C237 1.402 . S
C236 H251 0.951 . S
C237 C236 1.402 . S
C237 C238 1.375 . S
C237 C240 1.481 . S
C238 C237 1.375 . S
C238 C239 1.367 . S
C238 H252 0.951 . S
C239 C235 1.383 . S
C239 C238 1.367 . S
C239 H253 0.950 . S
C240 C237 1.481 . S
C240 C241 1.297 . S
C240 H254 0.950 . S
C241 C240 1.297 . S
C241 C242 1.479 . S
C241 H255 0.950 . S
C242 C241 1.479 . S
C242 C243 1.375 . S
C242 C248 1.404 . S
C243 C242 1.375 . S
C243 C244 1.369 . S
C243 H256 0.950 . S
C244 C243 1.369 . S
C244 C245 1.392 . S
C244 H257 0.951 . S
C245 C244 1.392 . S
C245 C247 1.384 . S
H246 C248 0.949 . S
C247 C245 1.384 . S
C247 C248 1.385 . S
C247 H249 0.950 . S
C248 C242 1.404 . S
C248 H246 0.949 . S
C248 C247 1.385 . S
H249 C247 0.950 . S
H250 C234 0.951 . S
H251 C236 0.951 . S
H252 C238 0.951 . S
H253 C239 0.950 . S
H254 C240 0.950 . S
H255 C241 0.950 . S
H256 C243 0.950 . S
H257 C244 0.951 . S
C258 C259 1.386 . S
C258 C260 1.383 . S
C258 H274 0.951 . S
C259 C258 1.386 . S
C259 C263 1.383 . S
C260 C258 1.383 . S
C260 C261 1.402 . S
C260 H275 0.951 . S
C261 C260 1.402 . S
C261 C262 1.375 . S
C261 C264 1.481 . S
C262 C261 1.375 . S
C262 C263 1.367 . S
C262 H276 0.951 . S
C263 C259 1.383 . S
C263 C262 1.367 . S
C263 H277 0.950 . S
C264 C261 1.481 . S
C264 C265 1.297 . S
C264 H278 0.950 . S
C265 C264 1.297 . S
C265 C266 1.479 . S
C265 H279 0.950 . S
C266 C265 1.479 . S
C266 C267 1.375 . S
C266 C272 1.404 . S
C267 C266 1.375 . S
C267 C268 1.369 . S
C267 H280 0.950 . S
C268 C267 1.369 . S
C268 C269 1.392 . S
C268 H281 0.951 . S
C269 C268 1.392 . S
C269 C271 1.384 . S
H270 C272 0.949 . S
C271 C269 1.384 . S
C271 C272 1.385 . S
C271 H273 0.950 . S
C272 C266 1.404 . S
C272 H270 0.949 . S
C272 C271 1.385 . S
H273 C271 0.950 . S
H274 C258 0.951 . S
H275 C260 0.951 . S
H276 C262 0.951 . S
H277 C263 0.950 . S
H278 C264 0.950 . S
H279 C265 0.950 . S
H280 C267 0.950 . S
H281 C268 0.951 . S
C282 C283 1.386 . S
C282 C284 1.383 . S
C282 H298 0.951 . S
C283 C282 1.386 . S
C283 C287 1.383 . S
C284 C282 1.383 . S
C284 C285 1.402 . S
C284 H299 0.951 . S
C285 C284 1.402 . S
C285 C286 1.375 . S
C285 C288 1.481 . S
C286 C285 1.375 . S
C286 C287 1.367 . S
C286 H300 0.951 . S
C287 C283 1.383 . S
C287 C286 1.367 . S
C287 H301 0.950 . S
C288 C285 1.481 . S
C288 C289 1.297 . S
C288 H302 0.950 . S
C289 C288 1.297 . S
C289 C290 1.479 . S
C289 H303 0.950 . S
C290 C289 1.479 . S
C290 C291 1.375 . S
C290 C296 1.404 . S
C291 C290 1.375 . S
C291 C292 1.369 . S
C291 H304 0.950 . S
C292 C291 1.369 . S
C292 C293 1.392 . S
C292 H305 0.951 . S
C293 C292 1.392 . S
C293 C295 1.384 . S
H294 C296 0.949 . S
C295 C293 1.384 . S
C295 C296 1.385 . S
C295 H297 0.950 . S
C296 C290 1.404 . S
C296 H294 0.949 . S
C296 C295 1.385 . S
H297 C295 0.950 . S
H298 C282 0.951 . S
H299 C284 0.951 . S
H300 C286 0.951 . S
H301 C287 0.950 . S
H302 C288 0.950 . S
H303 C289 0.950 . S
H304 C291 0.950 . S
H305 C292 0.951 . S
C306 C307 1.386 . S
C306 C308 1.383 . S
C306 H322 0.951 . S
C307 C306 1.386 . S
C307 C311 1.383 . S
C308 C306 1.383 . S
C308 C309 1.402 . S
C308 H323 0.951 . S
C309 C308 1.402 . S
C309 C310 1.375 . S
C309 C312 1.481 . S
C310 C309 1.375 . S
C310 C311 1.367 . S
C310 H324 0.951 . S
C311 C307 1.383 . S
C311 C310 1.367 . S
C311 H325 0.950 . S
C312 C309 1.481 . S
C312 C313 1.297 . S
C312 H326 0.950 . S
C313 C312 1.297 . S
C313 C314 1.479 . S
C313 H327 0.950 . S
C314 C313 1.479 . S
C314 C315 1.375 . S
C314 C320 1.404 . S
C315 C314 1.375 . S
C315 C316 1.369 . S
C315 H328 0.950 . S
C316 C315 1.369 . S
C316 C317 1.392 . S
C316 H329 0.951 . S
C317 C316 1.392 . S
C317 C319 1.384 . S
H318 C320 0.949 . S
C319 C317 1.384 . S
C319 C320 1.385 . S
C319 H321 0.950 . S
C320 C314 1.404 . S
C320 H318 0.949 . S
C320 C319 1.385 . S
H321 C319 0.950 . S
H322 C306 0.951 . S
H323 C308 0.951 . S
H324 C310 0.951 . S
H325 C311 0.950 . S
H326 C312 0.950 . S
H327 C313 0.950 . S
H328 C315 0.950 . S
H329 C316 0.951 . S
C330 C331 1.386 . S
C330 C332 1.383 . S
C330 H346 0.951 . S
C331 C330 1.386 . S
C331 C335 1.383 . S
C332 C330 1.383 . S
C332 C333 1.402 . S
C332 H347 0.951 . S
C333 C332 1.402 . S
C333 C334 1.375 . S
C333 C336 1.481 . S
C334 C333 1.375 . S
C334 C335 1.367 . S
C334 H348 0.951 . S
C335 C331 1.383 . S
C335 C334 1.367 . S
C335 H349 0.950 . S
C336 C333 1.481 . S
C336 C337 1.297 . S
C336 H350 0.950 . S
C337 C336 1.297 . S
C337 C338 1.479 . S
C337 H351 0.950 . S
C338 C337 1.479 . S
C338 C339 1.375 . S
C338 C344 1.404 . S
C339 C338 1.375 . S
C339 C340 1.369 . S
C339 H352 0.950 . S
C340 C339 1.369 . S
C340 C341 1.392 . S
C340 H353 0.951 . S
C341 C340 1.392 . S
C341 C343 1.384 . S
H342 C344 0.949 . S
C343 C341 1.384 . S
C343 C344 1.385 . S
C343 H345 0.950 . S
C344 C338 1.404 . S
C344 H342 0.949 . S
C344 C343 1.385 . S
H345 C343 0.950 . S
H346 C330 0.951 . S
H347 C332 0.951 . S
H348 C334 0.951 . S
H349 C335 0.950 . S
H350 C336 0.950 . S
H351 C337 0.950 . S
H352 C339 0.950 . S
H353 C340 0.951 . S
C354 C355 1.386 . S
C354 C356 1.383 . S
C354 H370 0.951 . S
C355 C354 1.386 . S
C355 C359 1.383 . S
C356 C354 1.383 . S
C356 C357 1.402 . S
C356 H371 0.951 . S
C357 C356 1.402 . S
C357 C358 1.375 . S
C357 C360 1.481 . S
C358 C357 1.375 . S
C358 C359 1.367 . S
C358 H372 0.951 . S
C359 C355 1.383 . S
C359 C358 1.367 . S
C359 H373 0.950 . S
C360 C357 1.481 . S
C360 C361 1.297 . S
C360 H374 0.950 . S
C361 C360 1.297 . S
C361 C362 1.479 . S
C361 H375 0.950 . S
C362 C361 1.479 . S
C362 C363 1.375 . S
C362 C368 1.404 . S
C363 C362 1.375 . S
C363 C364 1.369 . S
C363 H376 0.950 . S
C364 C363 1.369 . S
C364 C365 1.392 . S
C364 H377 0.951 . S
C365 C364 1.392 . S
C365 C367 1.384 . S
H366 C368 0.949 . S
C367 C365 1.384 . S
C367 C368 1.385 . S
C367 H369 0.950 . S
C368 C362 1.404 . S
C368 H366 0.949 . S
C368 C367 1.385 . S
H369 C367 0.950 . S
H370 C354 0.951 . S
H371 C356 0.951 . S
H372 C358 0.951 . S
H373 C359 0.950 . S
H374 C360 0.950 . S
H375 C361 0.950 . S
H376 C363 0.950 . S
H377 C364 0.951 . S
C378 C379 1.386 . S
C378 C380 1.383 . S
C378 H394 0.951 . S
C379 C378 1.386 . S
C379 C383 1.383 . S
C380 C378 1.383 . S
C380 C381 1.402 . S
C380 H395 0.951 . S
C381 C380 1.402 . S
C381 C382 1.375 . S
C381 C384 1.481 . S
C382 C381 1.375 . S
C382 C383 1.367 . S
C382 H396 0.951 . S
C383 C379 1.383 . S
C383 C382 1.367 . S
C383 H397 0.950 . S
C384 C381 1.481 . S
C384 C385 1.297 . S
C384 H398 0.950 . S
C385 C384 1.297 . S
C385 C386 1.479 . S
C385 H399 0.950 . S
C386 C385 1.479 . S
C386 C387 1.375 . S
C386 C392 1.404 . S
C387 C386 1.375 . S
C387 C388 1.369 . S
C387 H400 0.950 . S
C388 C387 1.369 . S
C388 C389 1.392 . S
C388 H401 0.951 . S
C389 C388 1.392 . S
C389 C391 1.384 . S
H390 C392 0.949 . S
C391 C389 1.384 . S
C391 C392 1.385 . S
C391 H393 0.950 . S
C392 C386 1.404 . S
C392 H390 0.949 . S
C392 C391 1.385 . S
H393 C391 0.950 . S
H394 C378 0.951 . S
H395 C380 0.951 . S
H396 C382 0.951 . S
H397 C383 0.950 . S
H398 C384 0.950 . S
H399 C385 0.950 . S
H400 C387 0.950 . S
H401 C388 0.951 . S
C402 C403 1.386 . S
C402 C404 1.383 . S
C402 H418 0.951 . S
C403 C402 1.386 . S
C403 C407 1.383 . S
C404 C402 1.383 . S
C404 C405 1.402 . S
C404 H419 0.951 . S
C405 C404 1.402 . S
C405 C406 1.375 . S
C405 C408 1.481 . S
C406 C405 1.375 . S
C406 C407 1.367 . S
C406 H420 0.951 . S
C407 C403 1.383 . S
C407 C406 1.367 . S
C407 H421 0.950 . S
C408 C405 1.481 . S
C408 C409 1.297 . S
C408 H422 0.950 . S
C409 C408 1.297 . S
C409 C410 1.479 . S
C409 H423 0.950 . S
C410 C409 1.479 . S
C410 C411 1.375 . S
C410 C416 1.404 . S
C411 C410 1.375 . S
C411 C412 1.369 . S
C411 H424 0.950 . S
C412 C411 1.369 . S
C412 C413 1.392 . S
C412 H425 0.951 . S
C413 C412 1.392 . S
C413 C415 1.384 . S
H414 C416 0.949 . S
C415 C413 1.384 . S
C415 C416 1.385 . S
C415 H417 0.950 . S
C416 C410 1.404 . S
C416 H414 0.949 . S
C416 C415 1.385 . S
H417 C415 0.950 . S
H418 C402 0.951 . S
H419 C404 0.951 . S
H420 C406 0.951 . S
H421 C407 0.950 . S
H422 C408 0.950 . S
H423 C409 0.950 . S
H424 C411 0.950 . S
H425 C412 0.951 . S
C426 C427 1.386 . S
C426 C428 1.383 . S
C426 H442 0.951 . S
C427 C426 1.386 . S
C427 C431 1.383 . S
C428 C426 1.383 . S
C428 C429 1.402 . S
C428 H443 0.951 . S
C429 C428 1.402 . S
C429 C430 1.375 . S
C429 C432 1.481 . S
C430 C429 1.375 . S
C430 C431 1.367 . S
C430 H444 0.951 . S
C431 C427 1.383 . S
C431 C430 1.367 . S
C431 H445 0.950 . S
C432 C429 1.481 . S
C432 C433 1.297 . S
C432 H446 0.950 . S
C433 C432 1.297 . S
C433 C434 1.479 . S
C433 H447 0.950 . S
C434 C433 1.479 . S
C434 C435 1.375 . S
C434 C440 1.404 . S
C435 C434 1.375 . S
C435 C436 1.369 . S
C435 H448 0.950 . S
C436 C435 1.369 . S
C436 C437 1.392 . S
C436 H449 0.951 . S
C437 C436 1.392 . S
C437 C439 1.384 . S
H438 C440 0.949 . S
C439 C437 1.384 . S
C439 C440 1.385 . S
C439 H441 0.950 . S
C440 C434 1.404 . S
C440 H438 0.949 . S
C440 C439 1.385 . S
H441 C439 0.950 . S
H442 C426 0.951 . S
H443 C428 0.951 . S
H444 C430 0.951 . S
H445 C431 0.950 . S
H446 C432 0.950 . S
H447 C433 0.950 . S
H448 C435 0.950 . S
H449 C436 0.951 . S
C450 C451 1.386 . S
C450 C452 1.383 . S
C450 H466 0.951 . S
C451 C450 1.386 . S
C451 C455 1.383 . S
C452 C450 1.383 . S
C452 C453 1.402 . S
C452 H467 0.951 . S
C453 C452 1.402 . S
C453 C454 1.375 . S
C453 C456 1.481 . S
C454 C453 1.375 . S
C454 C455 1.367 . S
C454 H468 0.951 . S
C455 C451 1.383 . S
C455 C454 1.367 . S
C455 H469 0.950 . S
C456 C453 1.481 . S
C456 C457 1.297 . S
C456 H470 0.950 . S
C457 C456 1.297 . S
C457 C458 1.479 . S
C457 H471 0.950 . S
C458 C457 1.479 . S
C458 C459 1.375 . S
C458 C464 1.404 . S
C459 C458 1.375 . S
C459 C460 1.369 . S
C459 H472 0.950 . S
C460 C459 1.369 . S
C460 C461 1.392 . S
C460 H473 0.951 . S
C461 C460 1.392 . S
C461 C463 1.384 . S
H462 C464 0.949 . S
C463 C461 1.384 . S
C463 C464 1.385 . S
C463 H465 0.950 . S
C464 C458 1.404 . S
C464 H462 0.949 . S
C464 C463 1.385 . S
H465 C463 0.950 . S
H466 C450 0.951 . S
H467 C452 0.951 . S
H468 C454 0.951 . S
H469 C455 0.950 . S
H470 C456 0.950 . S
H471 C457 0.950 . S
H472 C459 0.950 . S
H473 C460 0.951 . S
C474 C475 1.386 . S
C474 C476 1.383 . S
C474 H490 0.951 . S
C475 C474 1.386 . S
C475 C479 1.383 . S
C476 C474 1.383 . S
C476 C477 1.402 . S
C476 H491 0.951 . S
C477 C476 1.402 . S
C477 C478 1.375 . S
C477 C480 1.481 . S
C478 C477 1.375 . S
C478 C479 1.367 . S
C478 H492 0.951 . S
C479 C475 1.383 . S
C479 C478 1.367 . S
C479 H493 0.950 . S
C480 C477 1.481 . S
C480 C481 1.297 . S
C480 H494 0.950 . S
C481 C480 1.297 . S
C481 C482 1.479 1_554 S
C481 H495 0.950 1_455 S
C482 C481 1.479 1_556 S
C482 C483 1.375 . S
C482 C488 1.404 . S
C483 C482 1.375 . S
C483 C484 1.369 . S
C483 H496 0.950 1_455 S
C484 C483 1.369 . S
C484 C485 1.392 . S
C484 H497 0.950 . S
C485 C484 1.392 . S
C485 C487 1.384 . S
H486 C488 0.949 . S
C487 C485 1.384 . S
C487 C488 1.385 . S
C487 H489 0.950 . S
C488 C482 1.404 . S
C488 H486 0.949 . S
C488 C487 1.385 . S
H489 C487 0.950 . S
H490 C474 0.951 . S
H491 C476 0.951 . S
H492 C478 0.951 . S
H493 C479 0.950 . S
H494 C480 0.950 . S
H495 C481 0.950 1_655 S
H496 C483 0.950 1_655 S
H497 C484 0.950 . S
C498 C499 1.386 . S
C498 C500 1.383 . S
C498 H514 0.951 . S
C499 C498 1.386 . S
C499 C503 1.383 . S
C500 C498 1.383 . S
C500 C501 1.402 . S
C500 H515 0.951 . S
C501 C500 1.402 . S
C501 C502 1.375 . S
C501 C504 1.481 . S
C502 C501 1.375 . S
C502 C503 1.367 . S
C502 H516 0.951 . S
C503 C499 1.383 . S
C503 C502 1.367 . S
C503 H517 0.950 . S
C504 C501 1.481 . S
C504 C505 1.297 . S
C504 H518 0.950 . S
C505 C504 1.297 . S
C505 C506 1.479 . S
C505 H519 0.950 . S
C506 C505 1.479 . S
C506 C507 1.375 . S
C506 C512 1.404 . S
C507 C506 1.375 . S
C507 C508 1.369 . S
C507 H520 0.950 . S
C508 C507 1.369 . S
C508 C509 1.392 . S
C508 H521 0.951 . S
C509 C508 1.392 . S
C509 C511 1.384 . S
H510 C512 0.949 1_565 S
C511 C509 1.384 . S
C511 C512 1.385 . S
C511 H513 0.950 . S
C512 C506 1.404 . S
C512 H510 0.949 1_545 S
C512 C511 1.385 . S
H513 C511 0.950 . S
H514 C498 0.951 . S
H515 C500 0.951 . S
H516 C502 0.951 . S
H517 C503 0.950 . S
H518 C504 0.950 . S
H519 C505 0.950 . S
H520 C507 0.950 . S
H521 C508 0.951 . S
C522 C523 1.386 . S
C522 C524 1.383 . S
C522 H538 0.951 . S
C523 C522 1.386 . S
C523 C527 1.383 . S
C524 C522 1.383 . S
C524 C525 1.402 . S
C524 H539 0.951 . S
C525 C524 1.402 . S
C525 C526 1.375 . S
C525 C528 1.481 . S
C526 C525 1.375 . S
C526 C527 1.367 . S
C526 H540 0.951 . S
C527 C523 1.383 . S
C527 C526 1.367 . S
C527 H541 0.950 . S
C528 C525 1.481 . S
C528 C529 1.297 . S
C528 H542 0.950 . S
C529 C528 1.297 . S
C529 C530 1.479 . S
C529 H543 0.950 . S
C530 C529 1.479 . S
C530 C531 1.375 . S
C530 C536 1.404 . S
C531 C530 1.375 . S
C531 C532 1.369 . S
C531 H544 0.950 . S
C532 C531 1.369 . S
C532 C533 1.392 . S
C532 H545 0.951 . S
C533 C532 1.392 . S
C533 C535 1.384 . S
H534 C536 0.949 . S
C535 C533 1.384 . S
C535 C536 1.385 . S
C535 H537 0.950 . S
C536 C530 1.404 . S
C536 H534 0.949 . S
C536 C535 1.385 . S
H537 C535 0.950 . S
H538 C522 0.951 . S
H539 C524 0.951 . S
H540 C526 0.951 . S
H541 C527 0.950 . S
H542 C528 0.950 . S
H543 C529 0.950 . S
H544 C531 0.950 . S
H545 C532 0.951 . S
C546 C547 1.386 . S
C546 C548 1.383 . S
C546 H562 0.951 . S
C547 C546 1.386 . S
C547 C551 1.383 . S
C548 C546 1.383 . S
C548 C549 1.402 . S
C548 H563 0.951 . S
C549 C548 1.402 . S
C549 C550 1.375 . S
C549 C552 1.481 . S
C550 C549 1.375 . S
C550 C551 1.367 . S
C550 H564 0.951 . S
C551 C547 1.383 . S
C551 C550 1.367 . S
C551 H565 0.950 . S
C552 C549 1.481 . S
C552 C553 1.297 . S
C552 H566 0.950 . S
C553 C552 1.297 . S
C553 C554 1.479 . S
C553 H567 0.950 . S
C554 C553 1.479 . S
C554 C555 1.375 . S
C554 C560 1.404 . S
C555 C554 1.375 . S
C555 C556 1.369 . S
C555 H568 0.950 . S
C556 C555 1.369 . S
C556 C557 1.392 . S
C556 H569 0.951 . S
C557 C556 1.392 . S
C557 C559 1.384 . S
H558 C560 0.949 . S
C559 C557 1.384 . S
C559 C560 1.385 . S
C559 H561 0.950 . S
C560 C554 1.404 . S
C560 H558 0.949 . S
C560 C559 1.385 . S
H561 C559 0.950 . S
H562 C546 0.951 . S
H563 C548 0.951 . S
H564 C550 0.951 . S
H565 C551 0.950 . S
H566 C552 0.950 . S
H567 C553 0.950 . S
H568 C555 0.950 . S
H569 C556 0.951 . S
C570 C571 1.386 . S
C570 C572 1.383 . S
C570 H586 0.951 . S
C571 C570 1.386 . S
C571 C575 1.383 . S
C572 C570 1.383 . S
C572 C573 1.402 . S
C572 H587 0.951 . S
C573 C572 1.402 . S
C573 C574 1.375 . S
C573 C576 1.481 . S
C574 C573 1.375 . S
C574 C575 1.367 . S
C574 H588 0.951 . S
C575 C571 1.383 . S
C575 C574 1.367 . S
C575 H589 0.950 . S
C576 C573 1.481 . S
C576 C577 1.297 . S
C576 H590 0.950 . S
C577 C576 1.297 . S
C577 C578 1.479 1_556 S
C577 H591 0.950 . S
C578 C577 1.479 1_554 S
C578 C579 1.375 . S
C578 C584 1.404 . S
C579 C578 1.375 . S
C579 C580 1.369 . S
C579 H592 0.950 . S
C580 C579 1.369 . S
C580 C581 1.392 . S
C580 H593 0.951 . S
C581 C580 1.392 . S
C581 C583 1.384 . S
H582 C584 0.949 . S
C583 C581 1.384 . S
C583 C584 1.385 . S
C583 H585 0.950 . S
C584 C578 1.404 . S
C584 H582 0.949 . S
C584 C583 1.385 . S
H585 C583 0.950 . S
H586 C570 0.951 . S
H587 C572 0.951 . S
H588 C574 0.951 . S
H589 C575 0.950 . S
H590 C576 0.950 . S
H591 C577 0.950 . S
H592 C579 0.950 . S
H593 C580 0.951 . S
C594 C595 1.386 1_655 S
C594 C596 1.383 . S
C594 H610 0.951 . S
C595 C594 1.386 1_455 S
C595 C599 1.383 . S
C596 C594 1.383 . S
C596 C597 1.402 1_655 S
C596 H611 0.951 . S
C597 C596 1.402 1_455 S
C597 C598 1.375 . S
C597 C600 1.481 . S
C598 C597 1.375 . S
C598 C599 1.367 . S
C598 H612 0.951 . S
C599 C595 1.383 . S
C599 C598 1.367 . S
C599 H613 0.950 . S
C600 C597 1.481 . S
C600 C601 1.297 1_455 S
C600 H614 0.950 . S
C601 C600 1.297 1_655 S
C601 C602 1.479 . S
C601 H615 0.950 . S
C602 C601 1.479 . S
C602 C603 1.375 . S
C602 C608 1.404 1_655 S
C603 C602 1.375 . S
C603 C604 1.369 . S
C603 H616 0.950 . S
C604 C603 1.369 . S
C604 C605 1.392 . S
C604 H617 0.951 . S
C605 C604 1.392 . S
C605 C607 1.384 1_655 S
H606 C608 0.949 . S
C607 C605 1.384 1_455 S
C607 C608 1.385 . S
C607 H609 0.950 . S
C608 C602 1.404 1_455 S
C608 H606 0.949 . S
C608 C607 1.385 . S
H609 C607 0.950 . S
H610 C594 0.951 . S
H611 C596 0.951 . S
H612 C598 0.951 . S
H613 C599 0.950 . S
H614 C600 0.950 . S
H615 C601 0.950 . S
H616 C603 0.950 . S
H617 C604 0.951 . S
C187 C25 0.454 . S
C197 C180 0.570 . S
C211 C65 0.380 . S
C221 C158 0.669 . S
C235 C105 0.197 . S
C245 C172 0.215 . S
C259 C4 0.282 . S
C269 C183 0.482 . S
C293 C161 0.363 . S
C283 C44 0.247 . S
C317 C169 0.896 . S
C307 C84 0.355 . S
C331 C60 3.124 . S
C341 C136 2.803 . S
C355 C100 3.264 . S
C365 C147 2.896 . S
C379 C31 3.237 . S
C389 C125 2.871 . S
C413 C139 2.810 . S
C403 C71 2.905 . S
C437 C150 2.704 . S
C427 C111 2.754 . S
C451 C20 2.778 . S
C461 C128 2.699 . S
C485 C149 1.699 . S
C475 C2 1.656 . S
C499 C42 1.648 . S
C509 C127 1.649 . S
C523 C82 1.720 . S
C533 C138 1.617 . S
C557 C171 1.177 . S
C547 C63 1.198 . S
C581 C182 1.129 . S
C571 C103 1.228 . S
C595 C23 1.220 . S
C605 C160 1.266 . S
