# Generated by pormake.
# Topology anh, (6,3)-cn, num edge types: 1
# Building blocks:
#     Node 0, Type 0, BuildingBlock: NUHQIS_clean_sbu_0, # of connection points: 6
#     Node 1, Type 0, BuildingBlock: NUHQIS_clean_sbu_0, # of connection points: 6
#     Node 2, Type 0, BuildingBlock: NUHQIS_clean_sbu_0, # of connection points: 6
#     Node 3, Type 1, BuildingBlock: WUSLED_clean_sbu_0, # of connection points: 3
#     Node 4, Type 1, BuildingBlock: WUSLED_clean_sbu_0, # of connection points: 3
#     Node 5, Type 1, BuildingBlock: WUSLED_clean_sbu_0, # of connection points: 3
#     Node 6, Type 1, BuildingBlock: WUSLED_clean_sbu_0, # of connection points: 3
#     Node 7, Type 1, BuildingBlock: WUSLED_clean_sbu_0, # of connection points: 3
#     Node 8, Type 1, BuildingBlock: WUSLED_clean_sbu_0, # of connection points: 3
#     Edge 9, Type (0, 1), BuildingBlock: KIFKEQ_clean_linker_1, # of connection points: 2
#     Edge 10, Type (0, 1), BuildingBlock: KIFKEQ_clean_linker_1, # of connection points: 2
#     Edge 11, Type (0, 1), BuildingBlock: KIFKEQ_clean_linker_1, # of connection points: 2
#     Edge 12, Type (0, 1), BuildingBlock: KIFKEQ_clean_linker_1, # of connection points: 2
#     Edge 13, Type (0, 1), BuildingBlock: KIFKEQ_clean_linker_1, # of connection points: 2
#     Edge 14, Type (0, 1), BuildingBlock: KIFKEQ_clean_linker_1, # of connection points: 2
#     Edge 15, Type (0, 1), BuildingBlock: KIFKEQ_clean_linker_1, # of connection points: 2
#     Edge 16, Type (0, 1), BuildingBlock: KIFKEQ_clean_linker_1, # of connection points: 2
#     Edge 17, Type (0, 1), BuildingBlock: KIFKEQ_clean_linker_1, # of connection points: 2
#     Edge 18, Type (0, 1), BuildingBlock: KIFKEQ_clean_linker_1, # of connection points: 2
#     Edge 19, Type (0, 1), BuildingBlock: KIFKEQ_clean_linker_1, # of connection points: 2
#     Edge 20, Type (0, 1), BuildingBlock: KIFKEQ_clean_linker_1, # of connection points: 2
#     Edge 21, Type (0, 1), BuildingBlock: KIFKEQ_clean_linker_1, # of connection points: 2
#     Edge 22, Type (0, 1), BuildingBlock: KIFKEQ_clean_linker_1, # of connection points: 2
#     Edge 23, Type (0, 1), BuildingBlock: KIFKEQ_clean_linker_1, # of connection points: 2
#     Edge 24, Type (0, 1), BuildingBlock: KIFKEQ_clean_linker_1, # of connection points: 2
#     Edge 25, Type (0, 1), BuildingBlock: KIFKEQ_clean_linker_1, # of connection points: 2
#     Edge 26, Type (0, 1), BuildingBlock: KIFKEQ_clean_linker_1, # of connection points: 2
# Relax obj value: 0.216
# Max RMSD: 0.182
# Mean RMSD: 0.147
data_MOF--net-anh--node1-NUHQIS_clean_sbu_0--node2-WUSLED_clean_sbu_0--edge1-KIFKEQ_clean_linker_1
_symmetry_space_group_name_H-M    P1
_symmetry_Int_Tables_number       1
_symmetry_cell_setting            triclinic
loop_
_symmetry_equiv_pos_as_xyz
'x, y, z'
_cell_length_a     40.760344
_cell_length_b     40.687975
_cell_length_c     71.250388
_cell_angle_alpha  90.319821
_cell_angle_beta   92.819738
_cell_angle_gamma 120.31345
loop_
_atom_site_label
_atom_site_type_symbol
_atom_site_fract_x
_atom_site_fract_y
_atom_site_fract_z
_atom_type_partial_charge
Tb0 Tb 0.10874 0.53459 0.16816 0.0
Eu1 Eu 0.06935 0.58143 0.16346 0.0
C2 C 0.08626 0.56087 0.203 0.0
C3 C 1.01555 0.48919 0.16986 0.0
C4 C 0.17924 0.51044 0.17518 0.0
C5 C 0.23506 0.51699 0.19177 0.0
C6 C 0.19573 0.49949 0.1896 0.0
C7 C 0.20206 0.54073 0.16378 0.0
C8 C 0.24121 0.55822 0.16595 0.0
C9 C 0.25776 0.54536 0.17946 0.0
C10 C 0.13872 0.49518 0.17395 0.0
O11 O 0.11023 0.54199 0.13736 0.0
O12 O 0.07298 0.56871 0.1334 0.0
O13 O 0.13296 0.62723 0.16791 0.0
O14 O 0.16211 0.59198 0.16937 0.0
C15 C 0.09221 0.55443 0.12632 0.0
O16 O 1.0356 0.60205 0.14904 0.0
O17 O 1.06887 0.63081 0.17492 0.0
O18 O 1.05848 0.55887 0.19236 0.0
O19 O 0.11545 0.56291 0.19523 0.0
O20 O 1.0483 0.48984 0.17171 0.0
O21 O 1.01584 0.52108 0.16558 0.0
C22 C 0.16457 0.6258 0.1699 0.0
O23 O 0.12733 0.50794 0.18739 0.0
O24 O 0.12437 0.49675 0.15747 0.0
C25 C 1.00626 0.61723 0.17129 0.0
C26 C 0.93038 0.57352 0.17888 0.0
C27 C 0.94083 0.59808 0.16378 0.0
C28 C 0.97889 0.62019 0.16005 0.0
C29 C 0.99586 0.59515 0.18742 0.0
C30 C 0.95784 0.57323 0.19119 0.0
C31 C 1.04114 0.62555 0.16301 0.0
H32 H 0.24756 0.50645 0.20211 0.0
H33 H 0.17824 0.47724 0.19896 0.0
H34 H 0.18969 0.55062 0.15301 0.0
H35 H 0.25847 0.57991 0.15629 0.0
H36 H 0.91942 0.59863 0.15437 0.0
H37 H 0.98653 0.63652 0.14741 0.0
H38 H 1.01658 0.59204 0.19615 0.0
H39 H 0.94975 0.5544 0.20293 0.0
Tb40 Tb 0.62699 0.09445 0.49954 0.0
Eu41 Eu 0.54245 0.05977 0.49519 0.0
C42 C 0.58168 0.07466 0.536 0.0
C43 C 0.58051 1.00408 0.50366 0.0
C44 C 0.72115 0.16779 0.5044 0.0
C45 C 0.77241 0.2197 0.52262 0.0
C46 C 0.75144 0.18106 0.51794 0.0
C47 C 0.70985 0.19255 0.49675 0.0
C48 C 0.73014 0.23069 0.50171 0.0
C49 C 0.76262 0.24446 0.51379 0.0
C50 C 0.69735 0.12761 0.50033 0.0
O51 O 0.60848 0.06887 0.47103 0.0
O52 O 0.56674 0.08824 0.46809 0.0
O53 O 0.55815 0.11924 0.50592 0.0
O54 O 0.62007 0.14704 0.49888 0.0
C55 C 0.589 0.07908 0.45998 0.0
O56 O 0.49262 1.02289 0.477 0.0
O57 O 0.48794 0.05443 0.50054 0.0
O58 O 0.55095 0.05178 0.52564 0.0
O59 O 0.61332 0.09829 0.52829 0.0
O60 O 0.6134 1.03601 0.50582 0.0
O61 O 0.54957 1.00595 0.49855 0.0
C62 C 0.59084 0.15067 0.50405 0.0
O63 O 0.67821 0.10884 0.51449 0.0
O64 O 0.67631 0.11895 0.48467 0.0
C65 C 0.44456 0.98953 0.49673 0.0
C66 C 0.41217 0.91541 0.50911 0.0
C67 C 0.40174 0.92235 0.49109 0.0
C68 C 0.41792 0.95935 0.48492 0.0
C69 C 0.45387 0.98262 0.51501 0.0
C70 C 0.43767 0.94572 0.52117 0.0
C71 C 0.47008 1.02549 0.48858 0.0
H72 H 0.79801 0.23062 0.53178 0.0
H73 H 0.75932 0.16182 0.52443 0.0
H74 H 0.68605 0.18284 0.4865 0.0
H75 H 0.72297 0.24994 0.4946 0.0
H76 H 0.38117 0.89914 0.48178 0.0
H77 H 0.41131 0.96424 0.47066 0.0
H78 H 0.47516 1.00547 0.52423 0.0
H79 H 0.44558 0.94075 0.53515 0.0
Tb80 Tb 0.60868 0.60163 0.83552 0.0
Eu81 Eu 0.55598 0.51668 0.83085 0.0
C82 C 0.58138 0.55484 0.87013 0.0
C83 C 0.65029 0.55338 0.83642 0.0
C84 C 0.63924 0.69911 0.84193 0.0
C85 C 0.63039 0.74577 0.85806 0.0
C86 C 0.64886 0.72517 0.85694 0.0
C87 C 0.61117 0.69356 0.82803 0.0
C88 C 0.59302 0.7143 0.82906 0.0
C89 C 0.60258 0.74047 0.84407 0.0
C90 C 0.65039 0.67092 0.8434 0.0
O91 O 0.59582 0.598 0.8049 0.0
O92 O 0.56513 0.5334 0.80064 0.0
O93 O 0.51137 0.53507 0.82773 0.0
O94 O 0.55033 0.59522 0.83999 0.0
C95 C 0.58033 0.56737 0.79368 0.0
O96 O 0.53421 0.46299 0.8152 0.0
O97 O 0.51366 0.46368 0.84258 0.0
O98 O 0.55033 0.53337 0.85997 0.0
O99 O 0.61231 0.57606 0.86161 0.0
O100 O 0.65167 0.58482 0.83081 0.0
O101 O 0.61613 0.52393 0.83959 0.0
C102 C 0.51504 0.56672 0.83503 0.0
O103 O 0.6316 0.6459 0.85576 0.0
O104 O 0.65119 0.65532 0.82753 0.0
C105 C 0.53427 0.42056 0.83678 0.0
C106 C 0.57723 0.38756 0.84845 0.0
C107 C 0.56404 0.38407 0.82953 0.0
C108 C 0.54248 0.40024 0.82378 0.0
C109 C 0.54821 0.42476 0.85566 0.0
C110 C 0.56945 0.40823 0.86144 0.0
C111 C 0.5183 0.4435 0.82987 0.0
H112 H 0.63777 0.76583 0.86978 0.0
H113 H 0.6693 0.72827 0.86815 0.0
H114 H 0.60225 0.67224 0.81676 0.0
H115 H 0.57201 0.71032 0.81797 0.0
H116 H 0.569 0.36746 0.81931 0.0
H117 H 0.53289 0.39758 0.80909 0.0
H118 H 0.54331 0.44128 0.86594 0.0
H119 H 0.5791 0.41083 0.8761 0.0
C120 C 0.68997 0.15675 0.19892 0.0
C121 C 0.72033 0.17268 0.21291 0.0
C122 C 0.76202 0.22879 0.19356 0.0
C123 C 0.75519 0.20774 0.21036 0.0
C124 C 0.73123 0.212 0.17967 0.0
C125 C 0.69659 0.17748 0.18232 0.0
U126 U 0.59406 0.06234 0.21786 0.0
O127 O 0.53623 1.03436 0.20285 0.0
O128 O 0.56589 1.0027 0.20585 0.0
C129 C 0.53434 1.00154 0.19966 0.0
C130 C 0.65231 0.11827 0.20007 0.0
C131 C 0.49552 0.96381 0.19945 0.0
C132 C 0.42958 0.92358 0.18504 0.0
C133 C 0.46443 0.95909 0.1876 0.0
C134 C 0.45446 0.89514 0.20639 0.0
C135 C 0.42317 0.89004 0.19426 0.0
C136 C 0.48958 0.93075 0.20878 0.0
C137 C 0.59408 0.06889 0.2757 0.0
C138 C 0.57985 1.03676 0.30568 0.0
C139 C 0.60758 0.10503 0.30546 0.0
C140 C 0.60741 0.10361 0.28569 0.0
C141 C 0.59363 0.07159 0.31592 0.0
C142 C 0.58046 1.03552 0.28595 0.0
C143 C 0.59448 0.06748 0.25474 0.0
O144 O 0.65208 0.08799 0.20665 0.0
O145 O 0.62035 0.11754 0.20302 0.0
O146 O 0.58001 0.08316 0.24355 0.0
O147 O 0.6087 0.04928 0.24609 0.0
H148 H 0.71726 0.15804 0.22592 0.0
H149 H 0.7767 0.2181 0.22183 0.0
H150 H 0.73338 0.22492 0.16627 0.0
H151 H 0.67471 0.16654 0.17095 0.0
H152 H 0.40805 0.9228 0.1753 0.0
H153 H 0.46737 0.98303 0.17971 0.0
H154 H 0.45236 0.87155 0.2142 0.0
H155 H 0.51238 0.93214 0.21785 0.0
H156 H 0.56799 1.0101 0.31282 0.0
H157 H 0.61928 0.13265 0.31248 0.0
H158 H 0.61835 0.12987 0.27821 0.0
H159 H 0.5697 1.00826 0.27864 0.0
C160 C 0.58936 0.6772 0.5318 0.0
C161 C 0.5723 0.68995 0.54462 0.0
C162 C 0.58834 0.74934 0.52693 0.0
C163 C 0.572 0.72494 0.54233 0.0
C164 C 0.6054 0.736 0.51424 0.0
C165 C 0.6059 0.70141 0.51664 0.0
U166 U 0.58795 0.57998 0.55082 0.0
O167 O 0.55764 0.5213 0.53728 0.0
O168 O 0.61941 0.55374 0.53844 0.0
C169 C 0.58876 0.52122 0.53317 0.0
C170 C 0.58861 0.63858 0.53259 0.0
C171 C 0.58993 0.48354 0.53215 0.0
C172 C 0.61088 0.44352 0.51555 0.0
C173 C 0.61071 0.47829 0.51826 0.0
C174 C 0.56945 0.41653 0.5407 0.0
C175 C 0.59034 0.41104 0.52664 0.0
C176 C 0.56906 0.45148 0.54328 0.0
C177 C 0.58743 0.58005 0.60879 0.0
C178 C 0.59148 0.55126 0.6383 0.0
C179 C 0.58198 0.60518 0.63907 0.0
C180 C 0.58249 0.60634 0.61933 0.0
C181 C 0.58655 0.57767 0.64906 0.0
C182 C 0.59187 0.55244 0.61849 0.0
C183 C 0.58744 0.58166 0.58781 0.0
O184 O 0.61931 0.63748 0.53811 0.0
O185 O 0.55757 0.60703 0.53664 0.0
O186 O 0.55602 0.56515 0.57686 0.0
O187 O 0.61905 0.59643 0.57889 0.0
H188 H 0.55885 0.67274 0.5565 0.0
H189 H 0.55849 0.7324 0.55286 0.0
H190 H 0.61843 0.75185 0.50201 0.0
H191 H 0.61905 0.69318 0.50617 0.0
H192 H 0.62729 0.44264 0.50434 0.0
H193 H 0.62676 0.50136 0.509 0.0
H194 H 0.55291 0.39379 0.54995 0.0
H195 H 0.5521 0.45322 0.55405 0.0
H196 H 0.59562 0.52984 0.64512 0.0
H197 H 0.57734 0.62568 0.64642 0.0
H198 H 0.57885 0.62789 0.61225 0.0
H199 H 0.59565 0.53171 0.61076 0.0
C200 C 0.98835 0.56113 0.86497 0.0
C201 C 0.96007 0.54501 0.87829 0.0
C202 C 0.91487 0.56034 0.86017 0.0
C203 C 0.92464 0.54482 0.87602 0.0
C204 C 0.94372 0.5764 0.84698 0.0
C205 C 0.97896 0.5768 0.84934 0.0
U206 U 0.08572 0.55906 0.88382 0.0
O207 O 0.11121 0.52873 0.86928 0.0
O208 O 0.14358 0.59039 0.87229 0.0
C209 C 0.14356 0.55978 0.86618 0.0
C210 C 1.02623 0.56031 0.86578 0.0
C211 C 0.18141 0.55898 0.86546 0.0
C212 C 0.22086 0.53874 0.84833 0.0
C213 C 0.18581 0.53786 0.85092 0.0
C214 C 0.24982 0.58181 0.87493 0.0
C215 C 0.25458 0.56089 0.86013 0.0
C216 C 0.21458 0.58109 0.87742 0.0
C217 C 0.08827 0.55575 0.94179 0.0
C218 C 0.11027 0.5408 0.9714 0.0
C219 C 1.06896 0.56726 0.972 0.0
C220 C 1.06832 0.56866 0.95223 0.0
C221 C 0.09005 0.55341 0.98198 0.0
C222 C 0.10913 0.54169 0.95161 0.0
C223 C 0.08734 0.55696 0.9208 0.0
O224 O 1.0589 0.59089 0.87099 0.0
O225 O 1.02669 0.52911 0.87007 0.0
O226 O 0.0719 0.526 0.90989 0.0
O227 O 0.10193 0.58905 0.91185 0.0
H228 H 0.96514 0.53223 0.89055 0.0
H229 H 0.90492 0.53206 0.88694 0.0
H230 H 0.93953 0.58871 0.83437 0.0
H231 H 0.99905 0.58918 0.83848 0.0
H232 H 0.22091 0.52186 0.83662 0.0
H233 H 0.16186 0.52081 0.84104 0.0
H234 H 0.27347 0.59946 0.88477 0.0
H235 H 0.21355 0.59834 0.88875 0.0
H236 H 0.12655 0.5296 0.9784 0.0
H237 H 1.0533 0.57762 0.97948 0.0
H238 H 1.05195 0.57961 0.94507 0.0
H239 H 0.12484 0.53159 0.94396 0.0
C240 C 1.01623 0.56504 0.46743 0.0
C241 C 0.99065 0.53503 0.4551 0.0
C242 C 0.95807 0.49993 0.48165 0.0
C243 C 0.96168 0.5023 0.46224 0.0
C244 C 0.98188 0.53085 0.49388 0.0
C245 C 1.01138 0.56355 0.48673 0.0
U246 U 0.07239 0.60468 0.42593 0.0
O247 O 0.13235 0.62535 0.4209 0.0
O248 O 0.11015 0.66468 0.41916 0.0
C249 C 0.14017 0.66089 0.42219 0.0
C250 C 1.05064 0.59475 0.46018 0.0
C251 C 0.16373 0.68143 0.4391 0.0
C252 C 0.17669 0.67916 0.47251 0.0
C253 C 0.15743 0.66108 0.45572 0.0
C254 C 0.20887 0.73906 0.45665 0.0
C255 C 0.20321 0.71797 0.47301 0.0
C256 C 0.18889 0.72078 0.43969 0.0
C257 C 1.03783 0.55829 0.379 0.0
C258 C 0.08369 0.58517 0.3551 0.0
C259 C 1.01798 0.53714 0.34662 0.0
C260 C 1.00938 0.535 0.36542 0.0
C261 C 1.05512 0.56242 0.34136 0.0
C262 C 0.07501 0.58326 0.37383 0.0
C263 C 1.02915 0.55806 0.39853 0.0
O264 O 0.0718 0.58188 0.45369 0.0
O265 O 1.04565 0.61722 0.44872 0.0
O266 O 1.02664 0.58767 0.40391 0.0
O267 O 1.05018 0.5504 0.41023 0.0
H268 H 0.99462 0.53606 0.44014 0.0
H269 H 0.94328 0.47824 0.45279 0.0
H270 H 0.97909 0.52872 0.50894 0.0
H271 H 1.0314 0.58662 0.49627 0.0
H272 H 0.17205 0.66255 0.48497 0.0
H273 H 0.13813 0.63078 0.45575 0.0
H274 H 0.22979 0.76919 0.45685 0.0
H275 H 0.19338 0.73705 0.42713 0.0
H276 H 0.11238 0.60504 0.35129 0.0
H277 H 0.99567 0.51914 0.33616 0.0
H278 H 0.98062 0.51564 0.36932 0.0
H279 H 0.09717 0.6016 0.38428 0.0
C280 C 0.51496 0.98406 0.79878 0.0
C281 C 0.51404 0.95813 0.78548 0.0
C282 C 0.51998 0.92211 0.81061 0.0
C283 C 0.51664 0.92723 0.79138 0.0
C284 C 0.51855 0.94674 0.82397 0.0
C285 C 0.51625 0.97804 0.81801 0.0
U286 U 0.52988 1.04404 0.7581 0.0
O287 O 0.56893 0.10473 0.75367 0.0
O288 O 0.50698 0.0815 0.75105 0.0
C289 C 0.54089 0.11185 0.75429 0.0
C290 C 0.52015 1.01963 0.79222 0.0
C291 C 0.54389 0.13449 0.77093 0.0
C292 C 0.5566 0.14426 0.8047 0.0
C293 C 0.5555 0.12577 0.78817 0.0
C294 C 0.53368 0.18046 0.78721 0.0
C295 C 0.54656 0.1723 0.8043 0.0
C296 C 0.53216 0.16136 0.77051 0.0
C297 C 0.53831 1.01376 0.71089 0.0
C298 C 0.54786 0.05934 0.68702 0.0
C299 C 0.55571 1.0053 0.68009 0.0
C300 C 0.54683 0.99297 0.69837 0.0
C301 C 0.55622 1.03857 0.67428 0.0
C302 C 0.53906 1.04705 0.70521 0.0
C303 C 0.53126 1.00303 0.73034 0.0
O304 O 0.55396 1.04119 0.78578 0.0
O305 O 0.49203 1.01614 0.78091 0.0
O306 O 0.49936 0.99935 0.73604 0.0
O307 O 0.56095 1.02354 0.74202 0.0
H308 H 0.51354 0.96304 0.77055 0.0
H309 H 0.51782 0.90835 0.78098 0.0
H310 H 0.52157 0.94307 0.83888 0.0
H311 H 0.51744 0.99837 0.82831 0.0
H312 H 0.56644 0.1375 0.81772 0.0
H313 H 0.56438 0.10497 0.78891 0.0
H314 H 0.52619 0.20248 0.78669 0.0
H315 H 0.52231 0.16775 0.75739 0.0
H316 H 0.54851 0.08529 0.683 0.0
H317 H 0.56167 0.98858 0.67044 0.0
H318 H 0.5468 0.96749 0.70273 0.0
H319 H 0.5332 0.06376 0.71494 0.0
C320 C 0.60381 0.48518 0.13662 0.0
C321 C 0.62699 0.47704 0.12597 0.0
C322 C 0.66744 0.48755 0.15379 0.0
C323 C 0.65869 0.478 0.13459 0.0
C324 C 0.64409 0.49537 0.16448 0.0
C325 C 0.61206 0.49397 0.15588 0.0
U326 U 0.55795 0.49484 0.09201 0.0
O327 O 0.49757 0.47016 0.08283 0.0
O328 O 0.53485 0.53236 0.0859 0.0
C329 C 0.49979 0.50334 0.08525 0.0
C330 C 0.57335 0.48817 0.12723 0.0
C331 C 0.47866 0.50463 0.10079 0.0
C332 C 0.4734 0.50167 0.13455 0.0
C333 C 0.48824 0.4962 0.11861 0.0
C334 C 0.43763 0.52292 0.11498 0.0
C335 C 0.44838 0.5153 0.13275 0.0
C336 C 0.45306 0.51781 0.09891 0.0
C337 C 0.59487 0.49999 0.04566 0.0
C338 C 0.56015 0.51108 0.02034 0.0
C339 C 0.61466 0.50459 0.01401 0.0
C340 C 0.61956 0.49928 0.03302 0.0
C341 C 0.58493 0.51055 0.00752 0.0
C342 C 0.56511 0.5058 0.03931 0.0
C343 C 0.5998 0.49522 0.06558 0.0
O344 O 0.5847 0.52126 0.11962 0.0
O345 O 0.54997 0.45878 0.11612 0.0
O346 O 0.57215 0.4635 0.07196 0.0
O347 O 0.609 0.52568 0.07609 0.0
H348 H 0.62113 0.47107 0.11095 0.0
H349 H 0.67715 0.47277 0.12618 0.0
H350 H 0.65109 0.50319 0.17931 0.0
H351 H 0.59447 0.50084 0.16408 0.0
H352 H 0.48166 0.49562 0.14821 0.0
H353 H 0.50786 0.48601 0.12025 0.0
H354 H 0.41768 0.53309 0.11363 0.0
H355 H 0.44566 0.5247 0.08527 0.0
H356 H 0.53684 0.51525 0.01571 0.0
H357 H 0.63452 0.50465 0.00444 0.0
H358 H 0.64267 0.49493 0.03784 0.0
H359 H 0.54579 0.50634 0.04906 0.0
H360 H 0.31609 0.56948 0.20625 0.0
H361 H 0.28295 0.53406 0.1477 0.0
H362 H 0.37201 0.56182 0.20357 0.0
H363 H 0.33765 0.52622 0.14521 0.0
H364 H 0.38974 0.46115 0.15052 0.0
H365 H 0.34971 0.47306 0.17062 0.0
H366 H 0.43132 0.59361 0.17168 0.0
H367 H 0.47123 0.58168 0.15142 0.0
C368 C 0.32155 0.56122 0.1928 0.0
C369 C 0.29591 0.55256 0.17716 0.0
C370 C 0.3528 0.55639 0.19138 0.0
C371 C 0.35766 0.5424 0.17443 0.0
C372 C 0.33353 0.53638 0.1585 0.0
C373 C 0.30288 0.54162 0.15982 0.0
C374 C 0.39991 0.48983 0.15597 0.0
C375 C 0.43252 0.52078 0.14938 0.0
C376 C 0.3775 0.49655 0.16762 0.0
C377 C 0.38794 0.53419 0.17245 0.0
C378 C 0.42345 0.56448 0.16819 0.0
C379 C 0.44576 0.55776 0.15646 0.0
H380 H 0.79342 0.30334 0.53954 0.0
H381 H 0.79808 0.26963 0.48255 0.0
H382 H 0.84648 0.36789 0.5343 0.0
H383 H 0.85008 0.3332 0.47725 0.0
H384 H 0.96373 0.43736 0.47945 0.0
H385 H 0.91865 0.37445 0.49054 0.0
H386 H 0.85007 0.41893 0.51112 0.0
H387 H 0.89584 0.48215 0.50038 0.0
C388 C 0.80593 0.31009 0.52602 0.0
C389 C 0.79232 0.28281 0.51134 0.0
C390 C 0.83588 0.34636 0.52305 0.0
C391 C 0.85202 0.35461 0.50552 0.0
C392 C 0.83826 0.32693 0.49095 0.0
C393 C 0.80847 0.29108 0.49387 0.0
C394 C 0.93922 0.43348 0.48661 0.0
C395 C 0.93246 0.46363 0.4892 0.0
C396 C 0.91384 0.39798 0.49296 0.0
C397 C 0.8816 0.39269 0.50172 0.0
C398 C 0.87545 0.42313 0.50474 0.0
C399 C 0.90108 0.45878 0.49852 0.0
H400 H 0.52863 0.72108 0.83726 0.0
H401 H 0.64281 0.81638 0.84874 0.0
H402 H 0.50636 0.76547 0.82979 0.0
H403 H 0.62035 0.8603 0.84199 0.0
H404 H 0.57832 0.91543 0.79938 0.0
H405 H 0.59608 0.86931 0.80977 0.0
H406 H 0.50175 0.82055 0.84598 0.0
H407 H 0.4835 0.8666 0.83526 0.0
C408 C 0.54853 0.75147 0.83869 0.0
C409 C 0.58723 0.76572 0.8436 0.0
C410 C 0.53588 0.77659 0.83451 0.0
C411 C 0.56193 0.8158 0.83531 0.0
C412 C 0.60007 0.82997 0.84124 0.0
C413 C 0.6127 0.80499 0.84534 0.0
C414 C 0.56124 0.89453 0.8094 0.0
C415 C 0.52955 0.89389 0.81658 0.0
C416 C 0.57152 0.8686 0.81542 0.0
C417 C 0.55021 0.84205 0.82869 0.0
C418 C 0.51825 0.84103 0.83569 0.0
C419 C 0.50803 0.86717 0.82971 0.0
H420 H 0.88972 0.57621 0.20665 0.0
H421 H 0.8826 0.51404 0.15587 0.0
H422 H 0.82032 0.54519 0.20546 0.0
H423 H 0.81333 0.48323 0.15445 0.0
H424 H 0.6877 0.434 0.15702 0.0
H425 H 0.74988 0.44429 0.16882 0.0
H426 H 0.78846 0.56346 0.17962 0.0
H427 H 0.72636 0.5528 0.16833 0.0
C428 C 0.87297 0.55465 0.19575 0.0
C429 C 0.89048 0.54749 0.18121 0.0
C430 C 0.83362 0.53707 0.19503 0.0
C431 C 0.81198 0.51242 0.17976 0.0
C432 C 0.82957 0.50201 0.16641 0.0
C433 C 0.86893 0.5197 0.16711 0.0
C434 C 0.70945 0.46203 0.16239 0.0
C435 C 0.7028 0.49257 0.16224 0.0
C436 C 0.74463 0.46786 0.1691 0.0
C437 C 0.77322 0.50432 0.17551 0.0
C438 C 0.76622 0.53476 0.17544 0.0
C439 C 0.73104 0.52884 0.16891 0.0
H440 H 0.40621 0.85276 0.49215 0.0
H441 H 0.37416 0.89151 0.54071 0.0
H442 H 0.35293 0.78897 0.49538 0.0
H443 H 0.32056 0.82748 0.54402 0.0
H444 H 0.21842 0.78091 0.49373 0.0
H445 H 0.27367 0.81701 0.51549 0.0
H446 H 0.30236 0.7286 0.51072 0.0
H447 H 0.24675 0.6924 0.48911 0.0
C448 C 0.38897 0.84693 0.50416 0.0
C449 C 0.39297 0.87668 0.5158 0.0
C450 C 0.3587 0.81035 0.5062 0.0
C451 C 0.33216 0.80382 0.51968 0.0
C452 C 0.34059 0.83213 0.53347 0.0
C453 C 0.37108 0.86871 0.5315 0.0
C454 C 0.23574 0.76868 0.49801 0.0
C455 C 0.22928 0.73466 0.48962 0.0
C456 C 0.26693 0.78884 0.51069 0.0
C457 C 0.29229 0.77545 0.51465 0.0
C458 C 0.283 0.73917 0.50798 0.0
C459 C 0.25152 0.71879 0.49551 0.0
H460 H 0.63387 0.37994 0.83422 0.0
H461 H 0.55071 0.33819 0.87639 0.0
H462 H 0.63355 0.32009 0.8341 0.0
H463 H 0.5503 0.2783 0.87624 0.0
H464 H 0.49921 0.19122 0.82068 0.0
H465 H 0.51858 0.24334 0.84364 0.0
H466 H 0.63229 0.26034 0.84828 0.0
H467 H 0.61282 0.2081 0.82538 0.0
C468 C 0.61747 0.35888 0.84432 0.0
C469 C 0.59162 0.36291 0.85494 0.0
C470 C 0.61737 0.32468 0.84436 0.0
C471 C 0.59123 0.29454 0.85493 0.0
C472 C 0.57053 0.30124 0.86799 0.0
C473 C 0.57087 0.33555 0.86807 0.0
C474 C 0.52788 0.20528 0.82716 0.0
C475 C 0.55478 0.19651 0.82115 0.0
C476 C 0.53887 0.2346 0.84049 0.0
C477 C 0.577 0.25567 0.84765 0.0
C478 C 0.60276 0.24418 0.84305 0.0
C479 C 0.59164 0.21457 0.8299 0.0
H480 H 0.63347 0.98393 0.49431 0.0
H481 H 0.52745 0.93681 0.52104 0.0
H482 H 0.63588 0.92603 0.50003 0.0
H483 H 0.52986 0.87855 0.52715 0.0
H484 H 0.55386 0.78343 0.54756 0.0
H485 H 0.55206 0.84153 0.54249 0.0
H486 H 0.61816 0.86303 0.49406 0.0
H487 H 0.621 0.80595 0.49919 0.0
C488 C 0.61029 0.96112 0.50136 0.0
C489 C 0.57989 0.96593 0.50679 0.0
C490 C 0.61159 0.92715 0.50466 0.0
C491 C 0.58299 0.8958 0.51409 0.0
C492 C 0.55283 0.90099 0.51986 0.0
C493 C 0.55112 0.93479 0.51615 0.0
C494 C 0.56831 0.79997 0.53574 0.0
C495 C 0.58741 0.78742 0.52392 0.0
C496 C 0.56696 0.83414 0.5327 0.0
C497 C 0.58467 0.85855 0.51765 0.0
C498 C 0.60412 0.84642 0.50598 0.0
C499 C 0.60544 0.81232 0.50898 0.0
H500 H 0.66669 0.50349 0.85717 0.0
H501 H 0.72267 0.60376 0.82457 0.0
H502 H 0.72762 0.5056 0.86329 0.0
H503 H 0.78324 0.60622 0.83062 0.0
H504 H 0.88808 0.59175 0.83156 0.0
H505 H 0.82799 0.58924 0.82648 0.0
H506 H 0.78858 0.52625 0.8768 0.0
H507 H 0.84868 0.5276 0.88177 0.0
C508 C 0.69174 0.52592 0.85106 0.0
C509 C 0.68827 0.55304 0.83998 0.0
C510 C 0.72751 0.52746 0.85477 0.0
C511 C 0.76218 0.55594 0.84746 0.0
C512 C 0.75841 0.58306 0.83646 0.0
C513 C 0.72288 0.58176 0.83296 0.0
C514 C 0.86726 0.57692 0.84178 0.0
C515 C 0.87567 0.55961 0.85721 0.0
C516 C 0.83168 0.57581 0.83882 0.0
C517 C 0.8014 0.55738 0.85102 0.0
C518 C 0.80968 0.54039 0.86657 0.0
C519 C 0.84537 0.54148 0.86955 0.0
H520 H 0.17904 0.7003 0.16958 0.0
H521 H 0.23918 0.63959 0.17863 0.0
H522 H 0.23776 0.7605 0.17576 0.0
H523 H 0.29886 0.70026 0.18442 0.0
H524 H 0.40435 0.81504 0.20434 0.0
H525 H 0.34545 0.75477 0.19933 0.0
H526 H 0.29385 0.81184 0.17059 0.0
H527 H 0.3516 0.87216 0.17655 0.0
C528 C 0.20487 0.69948 0.17273 0.0
C529 C 0.20312 0.66378 0.17332 0.0
C530 C 0.23948 0.73487 0.17625 0.0
C531 C 0.27504 0.73724 0.18063 0.0
C532 C 0.27319 0.7013 0.18133 0.0
C533 C 0.23837 0.66574 0.17778 0.0
C534 C 0.38072 0.81557 0.19711 0.0
C535 C 0.38497 0.85073 0.19102 0.0
C536 C 0.34607 0.77984 0.19394 0.0
C537 C 0.31303 0.7764 0.18431 0.0
C538 C 0.31722 0.8115 0.17825 0.0
C539 C 0.3517 0.84721 0.18155 0.0
H540 H 0.53826 0.16523 0.52002 0.0
H541 H 0.64758 0.22696 0.4964 0.0
H542 H 0.53794 0.22418 0.52513 0.0
H543 H 0.64776 0.2868 0.50173 0.0
H544 H 0.63255 0.39233 0.50206 0.0
H545 H 0.63295 0.33383 0.49696 0.0
H546 H 0.55089 0.28037 0.53883 0.0
H547 H 0.54931 0.33856 0.54357 0.0
C548 C 0.56264 0.19139 0.51587 0.0
C549 C 0.59292 0.18979 0.50763 0.0
C550 C 0.56258 0.22615 0.519 0.0
C551 C 0.59278 0.26226 0.51403 0.0
C552 C 0.62329 0.26071 0.5058 0.0
C553 C 0.62343 0.22573 0.50278 0.0
C554 C 0.61408 0.36862 0.51035 0.0
C555 C 0.59081 0.37264 0.52345 0.0
C556 C 0.61468 0.33401 0.50741 0.0
C557 C 0.59215 0.3004 0.51734 0.0
C558 C 0.5688 0.30422 0.53042 0.0
C559 C 0.56813 0.33885 0.53334 0.0
H560 H 0.50392 0.62099 0.85517 0.0
H561 H 0.43936 0.51461 0.82378 0.0
H562 H 0.44456 0.61992 0.86135 0.0
H563 H 0.38052 0.51295 0.83007 0.0
H564 H 0.27348 0.52229 0.83274 0.0
H565 H 0.33259 0.52516 0.82718 0.0
H566 H 0.38762 0.60447 0.87426 0.0
H567 H 0.32826 0.60252 0.87966 0.0
C568 C 0.4773 0.59732 0.84937 0.0
C569 C 0.47801 0.56816 0.8386 0.0
C570 C 0.44239 0.59643 0.85312 0.0
C571 C 0.40568 0.56641 0.84629 0.0
C572 C 0.40679 0.53737 0.83558 0.0
C573 C 0.44146 0.53821 0.83193 0.0
C574 C 0.29755 0.54074 0.84216 0.0
C575 C 0.29354 0.56224 0.85684 0.0
C576 C 0.3327 0.54215 0.83892 0.0
C577 C 0.36706 0.56511 0.85007 0.0
C578 C 0.36323 0.58651 0.86483 0.0
C579 C 0.32797 0.58513 0.86808 0.0
H580 H 0.93916 0.46408 0.15812 0.0
H581 H 1.00571 0.42688 0.19035 0.0
H582 H 0.88116 0.40398 0.16382 0.0
H583 H 0.94798 0.36684 0.19615 0.0
H584 H 0.83321 0.26705 0.21521 0.0
H585 H 0.89107 0.3269 0.21013 0.0
H586 H 0.83882 0.33991 0.15892 0.0
H587 H 0.7809 0.28167 0.16421 0.0
C588 C 0.94173 0.44327 0.16648 0.0
C589 C 0.97826 0.45151 0.17358 0.0
C590 C 0.90792 0.40796 0.16973 0.0
C591 C 0.90829 0.37878 0.18055 0.0
C592 C 0.94497 0.38746 0.18787 0.0
C593 C 0.97878 0.42248 0.18436 0.0
C594 C 0.8332 0.28228 0.20285 0.0
C595 C 0.80004 0.26723 0.19037 0.0
C596 C 0.86748 0.3174 0.19978 0.0
C597 C 0.87119 0.34011 0.18401 0.0
C598 C 0.83834 0.32497 0.1715 0.0
C599 C 0.80418 0.29009 0.17457 0.0
H600 H 1.05222 0.57193 0.10044 0.0
H601 H 0.13372 0.5338 0.10399 0.0
H602 H 1.05269 0.5713 0.06656 0.0
H603 H 0.13342 0.53206 0.06952 0.0
H604 H 0.15022 0.56833 0.00729 0.0
H605 H 0.15141 0.56737 0.04159 0.0
H606 H 1.03229 0.53327 0.03932 0.0
H607 H 1.03139 0.53492 0.00522 0.0
C608 C 0.07023 0.56313 0.09402 0.0
C609 C 0.09293 0.55287 0.10522 0.0
C610 C 0.0702 0.56241 0.07434 0.0
C611 C 0.09277 0.55126 0.0649 0.0
C612 C 0.11575 0.54111 0.07608 0.0
C613 C 0.11577 0.54182 0.09594 0.0
C614 C 0.12416 0.56036 0.01408 0.0
C615 C 0.09076 0.552 1.00322 0.0
C616 C 0.12482 0.55972 0.03389 0.0
C617 C 0.09206 0.55052 0.0436 0.0
C618 C 1.05852 0.54147 0.03266 0.0
C619 C 1.05793 0.54235 0.01291 0.0
H620 H 0.55319 0.1014 0.43377 0.0
H621 H 0.62854 0.05597 0.43845 0.0
H622 H 0.55422 0.09944 0.39964 0.0
H623 H 0.63054 0.05488 0.40426 0.0
H624 H 0.59903 1.02323 0.34174 0.0
H625 H 0.59718 1.02472 0.37571 0.0
H626 H 0.58899 0.12633 0.37328 0.0
H627 H 0.58784 0.12327 0.33923 0.0
C628 C 0.57018 0.09112 0.42752 0.0
C629 C 0.59065 0.07871 0.439 0.0
C630 C 0.57105 0.09026 0.40782 0.0
C631 C 0.59247 0.07697 0.39883 0.0
C632 C 0.61316 0.06477 0.4104 0.0
C633 C 0.61228 0.06566 0.43013 0.0
C634 C 0.59616 1.04564 0.34826 0.0
C635 C 0.59346 0.07303 0.33723 0.0
C636 C 0.59576 1.04686 0.36801 0.0
C637 C 0.59304 0.07572 0.3776 0.0
C638 C 0.59059 0.10324 0.36663 0.0
C639 C 0.59059 0.10181 0.34688 0.0
H640 H 0.53567 0.51188 0.7669 0.0
H641 H 0.62549 0.62934 0.77239 0.0
H642 H 0.53655 0.5147 0.73294 0.0
H643 H 0.62827 0.6319 0.73826 0.0
H644 H 0.60893 0.63729 0.67523 0.0
H645 H 0.60573 0.63536 0.70906 0.0
H646 H 0.56324 0.51421 0.70609 0.0
H647 H 0.56312 0.51566 0.67213 0.0
C648 C 0.55589 0.53843 0.76086 0.0
C649 C 0.5804 0.57042 0.7726 0.0
C650 C 0.55676 0.53999 0.74115 0.0
C651 C 0.58275 0.57345 0.73226 0.0
C652 C 0.60724 0.60559 0.74413 0.0
C653 C 0.60585 0.60418 0.7639 0.0
C654 C 0.59813 0.60995 0.68163 0.0
C655 C 0.58604 0.5766 0.67041 0.0
C656 C 0.59696 0.60894 0.70137 0.0
C657 C 0.58418 0.57462 0.71091 0.0
C658 C 0.57261 0.54134 0.69969 0.0
C659 C 0.57324 0.54226 0.67992 0.0
H660 H 0.6415 0.10857 0.5624 0.0
H661 H 0.51871 1.03989 0.5563 0.0
H662 H 0.63861 0.10629 0.5966 0.0
H663 H 0.51598 1.0374 0.59028 0.0
H664 H 0.51845 0.06334 0.65128 0.0
H665 H 0.52809 0.07868 0.61827 0.0
H666 H 0.62101 0.05607 0.6202 0.0
H667 H 0.61214 1.04192 0.65345 0.0
C668 C 0.61394 0.09318 0.56834 0.0
C669 C 0.58032 0.07428 0.55666 0.0
C670 C 0.61233 0.09181 0.58789 0.0
C671 C 0.57708 0.07183 0.59606 0.0
C672 C 0.54352 0.05351 0.58437 0.0
C673 C 0.54513 0.05463 0.56489 0.0
C674 C 0.5414 0.06237 0.64474 0.0
C675 C 0.56424 0.05094 0.65479 0.0
C676 C 0.54671 0.07086 0.62583 0.0
C677 C 0.57496 0.06807 0.61664 0.0
C678 C 0.59907 0.05853 0.62695 0.0
C679 C 0.59371 0.04998 0.64588 0.0
H680 H 0.63795 0.55857 0.89324 0.0
H681 H 0.52624 0.54614 0.89285 0.0
H682 H 0.63664 0.54892 0.92712 0.0
H683 H 0.52537 0.53746 0.92693 0.0
H684 H 0.56909 0.56285 0.99209 0.0
H685 H 0.56711 0.57621 0.95869 0.0
H686 H 0.58916 0.48611 0.94456 0.0
H687 H 0.58999 0.47189 0.97769 0.0
C688 C 0.61345 0.55437 0.9005 0.0
C689 C 0.582 0.55257 0.8906 0.0
C690 C 0.61264 0.54875 0.91977 0.0
C691 C 0.58075 0.54215 0.9294 0.0
C692 C 0.55014 0.5424 0.91968 0.0
C693 C 0.55056 0.5471 0.90029 0.0
C694 C 0.57284 0.54551 0.9818 0.0
C695 C 0.58035 0.51675 0.98744 0.0
C696 C 0.57186 0.55327 0.96279 0.0
C697 C 0.57872 0.53259 0.9493 0.0
C698 C 0.58465 0.50292 0.95486 0.0
C699 C 0.58522 0.4949 0.97376 0.0
H700 H 0.14535 0.59159 0.22975 0.0
H701 H 1.02263 0.52901 0.2223 0.0
H702 H 0.14093 0.59463 0.26381 0.0
H703 H 1.01807 0.53016 0.2561 0.0
H704 H 1.01721 0.57471 0.31276 0.0
H705 H 1.028 0.57622 0.27945 0.0
H706 H 0.12273 0.55838 0.29192 0.0
H707 H 0.11258 0.55845 0.3255 0.0
C708 C 0.11751 0.57815 0.23545 0.0
C709 C 0.08431 0.56071 0.2235 0.0
C710 C 0.11496 0.57972 0.2549 0.0
C711 C 0.07913 0.56332 0.2626 0.0
C712 C 1.04608 0.54427 0.25058 0.0
C713 C 1.04865 0.54338 0.23123 0.0
C714 C 1.04034 0.5712 0.30831 0.0
C715 C 1.06361 0.5657 0.32147 0.0
C716 C 1.04647 0.57188 0.28928 0.0
C717 C 0.07561 0.56642 0.28301 0.0
C718 C 0.10003 0.56261 0.29631 0.0
C719 C 0.09417 0.56247 0.31546 0.0
loop_
_geom_bond_atom_site_label_1
_geom_bond_atom_site_label_2
_geom_bond_distance
_geom_bond_site_symmetry_2
_ccdc_geom_bond_type
Tb0 C10 2.825 . S
Tb0 O11 2.347 . S
Tb0 O14 2.366 . S
Tb0 O19 2.418 . S
Tb0 O20 2.384 1_455 S
Tb0 O23 2.479 . S
Tb0 O24 2.471 . S
Eu1 O12 2.418 . S
Eu1 O13 2.384 1_655 S
Eu1 O16 2.479 . S
Eu1 O17 2.471 . S
Eu1 O18 2.347 1_655 S
Eu1 O21 2.366 . S
Eu1 C31 2.825 . S
C2 O18 1.259 . S
C2 O19 1.265 . S
C3 O20 1.255 . S
C3 O21 1.265 . S
C4 C6 1.380 . S
C4 C7 1.374 . S
C4 C10 1.507 . S
C5 C6 1.384 . S
C5 C9 1.387 . S
C5 H32 0.930 . S
C6 C4 1.380 . S
C6 C5 1.384 . S
C6 H33 0.931 . S
C7 C4 1.374 . S
C7 C8 1.390 . S
C7 H34 0.930 . S
C8 C7 1.390 . S
C8 C9 1.391 . S
C8 H35 0.930 . S
C9 C5 1.387 . S
C9 C8 1.391 . S
C10 Tb0 2.825 . S
C10 C4 1.507 . S
C10 O23 1.238 . S
C10 O24 1.247 . S
O11 Tb0 2.347 . S
O11 C15 1.259 . S
O12 Eu1 2.418 . S
O12 C15 1.265 1_655 S
O13 Eu1 2.384 1_455 S
O13 C22 1.255 . S
O14 Tb0 2.366 . S
O14 C22 1.265 . S
C15 O11 1.259 . S
C15 O12 1.265 1_455 S
O16 Eu1 2.479 . S
O16 C31 1.238 . S
O17 Eu1 2.471 . S
O17 C31 1.247 . S
O18 Eu1 2.347 1_455 S
O18 C2 1.259 . S
O19 Tb0 2.418 . S
O19 C2 1.265 . S
O20 Tb0 2.384 1_655 S
O20 C3 1.255 . S
O21 Eu1 2.366 . S
O21 C3 1.265 . S
C22 O13 1.255 . S
C22 O14 1.265 . S
O23 Tb0 2.479 . S
O23 C10 1.238 . S
O24 Tb0 2.471 . S
O24 C10 1.247 . S
C25 C28 1.380 . S
C25 C29 1.374 . S
C25 C31 1.507 . S
C26 C27 1.387 . S
C26 C30 1.391 . S
C27 C26 1.387 . S
C27 C28 1.384 . S
C27 H36 0.930 . S
C28 C25 1.380 . S
C28 C27 1.384 . S
C28 H37 0.931 . S
C29 C25 1.374 . S
C29 C30 1.390 . S
C29 H38 0.930 . S
C30 C26 1.391 . S
C30 C29 1.390 . S
C30 H39 0.930 . S
C31 Eu1 2.825 . S
C31 O16 1.238 . S
C31 O17 1.247 . S
C31 C25 1.507 . S
H32 C5 0.930 . S
H33 C6 0.931 . S
H34 C7 0.930 . S
H35 C8 0.930 . S
H36 C27 0.930 . S
H37 C28 0.931 . S
H38 C29 0.930 . S
H39 C30 0.930 . S
Tb40 C50 2.825 . S
Tb40 O51 2.347 . S
Tb40 O54 2.366 . S
Tb40 O59 2.418 . S
Tb40 O60 2.384 1_545 S
Tb40 O63 2.479 . S
Tb40 O64 2.471 . S
Eu41 O52 2.418 . S
Eu41 O53 2.384 . S
Eu41 O56 2.479 1_545 S
Eu41 O57 2.471 1_545 S
Eu41 O58 2.347 . S
Eu41 O61 2.366 1_545 S
Eu41 C71 2.825 1_545 S
C42 O58 1.259 . S
C42 O59 1.265 . S
C43 O60 1.255 . S
C43 O61 1.265 . S
C44 C46 1.380 . S
C44 C47 1.374 . S
C44 C50 1.507 . S
C45 C46 1.384 . S
C45 C49 1.387 . S
C45 H72 0.930 . S
C46 C44 1.380 . S
C46 C45 1.384 . S
C46 H73 0.931 . S
C47 C44 1.374 . S
C47 C48 1.390 . S
C47 H74 0.930 . S
C48 C47 1.390 . S
C48 C49 1.391 . S
C48 H75 0.930 . S
C49 C45 1.387 . S
C49 C48 1.391 . S
C50 Tb40 2.825 . S
C50 C44 1.507 . S
C50 O63 1.238 . S
C50 O64 1.247 . S
O51 Tb40 2.347 . S
O51 C55 1.259 . S
O52 Eu41 2.418 . S
O52 C55 1.265 . S
O53 Eu41 2.384 . S
O53 C62 1.255 . S
O54 Tb40 2.366 . S
O54 C62 1.265 . S
C55 O51 1.259 . S
C55 O52 1.265 . S
O56 Eu41 2.479 1_565 S
O56 C71 1.238 . S
O57 Eu41 2.471 1_565 S
O57 C71 1.247 . S
O58 Eu41 2.347 . S
O58 C42 1.259 . S
O59 Tb40 2.418 . S
O59 C42 1.265 . S
O60 Tb40 2.384 1_565 S
O60 C43 1.255 . S
O61 Eu41 2.366 1_565 S
O61 C43 1.265 . S
C62 O53 1.255 . S
C62 O54 1.265 . S
O63 Tb40 2.479 . S
O63 C50 1.238 . S
O64 Tb40 2.471 . S
O64 C50 1.247 . S
C65 C68 1.380 . S
C65 C69 1.374 . S
C65 C71 1.507 . S
C66 C67 1.387 . S
C66 C70 1.391 . S
C67 C66 1.387 . S
C67 C68 1.384 . S
C67 H76 0.930 . S
C68 C65 1.380 . S
C68 C67 1.384 . S
C68 H77 0.931 . S
C69 C65 1.374 . S
C69 C70 1.390 . S
C69 H78 0.930 . S
C70 C66 1.391 . S
C70 C69 1.390 . S
C70 H79 0.930 . S
C71 Eu41 2.825 1_565 S
C71 O56 1.238 . S
C71 O57 1.247 . S
C71 C65 1.507 . S
H72 C45 0.930 . S
H73 C46 0.931 . S
H74 C47 0.930 . S
H75 C48 0.930 . S
H76 C67 0.930 . S
H77 C68 0.931 . S
H78 C69 0.930 . S
H79 C70 0.930 . S
Tb80 C90 2.825 . S
Tb80 O91 2.347 . S
Tb80 O94 2.366 . S
Tb80 O99 2.418 . S
Tb80 O100 2.384 . S
Tb80 O103 2.479 . S
Tb80 O104 2.471 . S
Eu81 O92 2.418 . S
Eu81 O93 2.384 . S
Eu81 O96 2.479 . S
Eu81 O97 2.471 . S
Eu81 O98 2.347 . S
Eu81 O101 2.366 . S
Eu81 C111 2.825 . S
C82 O98 1.259 . S
C82 O99 1.265 . S
C83 O100 1.255 . S
C83 O101 1.265 . S
C84 C86 1.380 . S
C84 C87 1.374 . S
C84 C90 1.507 . S
C85 C86 1.384 . S
C85 C89 1.387 . S
C85 H112 0.930 . S
C86 C84 1.380 . S
C86 C85 1.384 . S
C86 H113 0.931 . S
C87 C84 1.374 . S
C87 C88 1.390 . S
C87 H114 0.930 . S
C88 C87 1.390 . S
C88 C89 1.391 . S
C88 H115 0.930 . S
C89 C85 1.387 . S
C89 C88 1.391 . S
C90 Tb80 2.825 . S
C90 C84 1.507 . S
C90 O103 1.238 . S
C90 O104 1.247 . S
O91 Tb80 2.347 . S
O91 C95 1.259 . S
O92 Eu81 2.418 . S
O92 C95 1.265 . S
O93 Eu81 2.384 . S
O93 C102 1.255 . S
O94 Tb80 2.366 . S
O94 C102 1.265 . S
C95 O91 1.259 . S
C95 O92 1.265 . S
O96 Eu81 2.479 . S
O96 C111 1.238 . S
O97 Eu81 2.471 . S
O97 C111 1.247 . S
O98 Eu81 2.347 . S
O98 C82 1.259 . S
O99 Tb80 2.418 . S
O99 C82 1.265 . S
O100 Tb80 2.384 . S
O100 C83 1.255 . S
O101 Eu81 2.366 . S
O101 C83 1.265 . S
C102 O93 1.255 . S
C102 O94 1.265 . S
O103 Tb80 2.479 . S
O103 C90 1.238 . S
O104 Tb80 2.471 . S
O104 C90 1.247 . S
C105 C108 1.380 . S
C105 C109 1.374 . S
C105 C111 1.507 . S
C106 C107 1.387 . S
C106 C110 1.391 . S
C107 C106 1.387 . S
C107 C108 1.384 . S
C107 H116 0.930 . S
C108 C105 1.380 . S
C108 C107 1.384 . S
C108 H117 0.931 . S
C109 C105 1.374 . S
C109 C110 1.390 . S
C109 H118 0.930 . S
C110 C106 1.391 . S
C110 C109 1.390 . S
C110 H119 0.930 . S
C111 Eu81 2.825 . S
C111 O96 1.238 . S
C111 O97 1.247 . S
C111 C105 1.507 . S
H112 C85 0.930 . S
H113 C86 0.931 . S
H114 C87 0.930 . S
H115 C88 0.930 . S
H116 C107 0.930 . S
H117 C108 0.931 . S
H118 C109 0.930 . S
H119 C110 0.930 . S
C120 C121 1.264 . S
C120 C125 1.479 . S
C120 C130 1.465 . S
C121 C120 1.264 . S
C121 C123 1.339 . S
C121 H148 0.931 . S
C122 C123 1.395 . S
C122 C124 1.320 . S
C123 C121 1.339 . S
C123 C122 1.395 . S
C123 H149 0.929 . S
C124 C122 1.320 . S
C124 C125 1.405 . S
C124 H150 0.930 . S
C125 C120 1.479 . S
C125 C124 1.405 . S
C125 H151 0.931 . S
U126 O127 2.454 1_545 S
U126 O128 2.458 1_545 S
U126 C129 2.984 1_545 S
U126 C130 2.847 . S
U126 C143 2.882 . S
U126 O144 2.441 . S
U126 O145 2.420 . S
U126 O146 2.455 . S
U126 O147 2.449 . S
O127 U126 2.454 1_565 S
O127 C129 1.353 . S
O128 U126 2.458 1_565 S
O128 C129 1.286 . S
C129 U126 2.984 1_565 S
C129 O127 1.353 . S
C129 O128 1.286 . S
C129 C131 1.363 . S
C130 C120 1.465 . S
C130 U126 2.847 . S
C130 O144 1.249 . S
C130 O145 1.202 . S
C131 C129 1.363 . S
C131 C133 1.408 . S
C131 C136 1.342 . S
C132 C133 1.310 . S
C132 C135 1.461 . S
C132 H152 0.932 . S
C133 C131 1.408 . S
C133 C132 1.310 . S
C133 H153 0.930 . S
C134 C135 1.474 . S
C134 C136 1.285 . S
C134 H154 0.929 . S
C135 C132 1.461 . S
C135 C134 1.474 . S
C136 C131 1.342 . S
C136 C134 1.285 . S
C136 H155 0.930 . S
C137 C140 1.424 . S
C137 C142 1.245 . S
C137 C143 1.428 . S
C138 C141 1.260 . S
C138 C142 1.477 . S
C138 H156 0.932 1_545 S
C139 C140 1.384 . S
C139 C141 1.479 . S
C139 H157 0.929 . S
C140 C137 1.424 . S
C140 C139 1.384 . S
C140 H158 0.928 . S
C141 C138 1.260 . S
C141 C139 1.479 . S
C142 C137 1.245 . S
C142 C138 1.477 . S
C142 H159 0.932 1_545 S
C143 U126 2.882 . S
C143 C137 1.428 . S
C143 O146 1.301 . S
C143 O147 1.282 . S
O144 U126 2.441 . S
O144 C130 1.249 . S
O145 U126 2.420 . S
O145 C130 1.202 . S
O146 U126 2.455 . S
O146 C143 1.301 . S
O147 U126 2.449 . S
O147 C143 1.282 . S
H148 C121 0.931 . S
H149 C123 0.929 . S
H150 C124 0.930 . S
H151 C125 0.931 . S
H152 C132 0.932 . S
H153 C133 0.930 . S
H154 C134 0.929 . S
H155 C136 0.930 . S
H156 C138 0.932 1_565 S
H157 C139 0.929 . S
H158 C140 0.928 . S
H159 C142 0.932 1_565 S
C160 C161 1.264 . S
C160 C165 1.479 . S
C160 C170 1.465 . S
C161 C160 1.264 . S
C161 C163 1.339 . S
C161 H188 0.931 . S
C162 C163 1.395 . S
C162 C164 1.320 . S
C163 C161 1.339 . S
C163 C162 1.395 . S
C163 H189 0.929 . S
C164 C162 1.320 . S
C164 C165 1.405 . S
C164 H190 0.930 . S
C165 C160 1.479 . S
C165 C164 1.405 . S
C165 H191 0.931 . S
U166 O167 2.454 . S
U166 O168 2.458 . S
U166 C169 2.984 . S
U166 C170 2.847 . S
U166 C183 2.882 . S
U166 O184 2.441 . S
U166 O185 2.420 . S
U166 O186 2.455 . S
U166 O187 2.449 . S
O167 U166 2.454 . S
O167 C169 1.353 . S
O168 U166 2.458 . S
O168 C169 1.286 . S
C169 U166 2.984 . S
C169 O167 1.353 . S
C169 O168 1.286 . S
C169 C171 1.363 . S
C170 C160 1.465 . S
C170 U166 2.847 . S
C170 O184 1.249 . S
C170 O185 1.202 . S
C171 C169 1.363 . S
C171 C173 1.408 . S
C171 C176 1.342 . S
C172 C173 1.310 . S
C172 C175 1.461 . S
C172 H192 0.932 . S
C173 C171 1.408 . S
C173 C172 1.310 . S
C173 H193 0.930 . S
C174 C175 1.474 . S
C174 C176 1.285 . S
C174 H194 0.929 . S
C175 C172 1.461 . S
C175 C174 1.474 . S
C176 C171 1.342 . S
C176 C174 1.285 . S
C176 H195 0.930 . S
C177 C180 1.424 . S
C177 C182 1.245 . S
C177 C183 1.428 . S
C178 C181 1.260 . S
C178 C182 1.477 . S
C178 H196 0.932 . S
C179 C180 1.384 . S
C179 C181 1.479 . S
C179 H197 0.929 . S
C180 C177 1.424 . S
C180 C179 1.384 . S
C180 H198 0.928 . S
C181 C178 1.260 . S
C181 C179 1.479 . S
C182 C177 1.245 . S
C182 C178 1.477 . S
C182 H199 0.932 . S
C183 U166 2.882 . S
C183 C177 1.428 . S
C183 O186 1.301 . S
C183 O187 1.282 . S
O184 U166 2.441 . S
O184 C170 1.249 . S
O185 U166 2.420 . S
O185 C170 1.202 . S
O186 U166 2.455 . S
O186 C183 1.301 . S
O187 U166 2.449 . S
O187 C183 1.282 . S
H188 C161 0.931 . S
H189 C163 0.929 . S
H190 C164 0.930 . S
H191 C165 0.931 . S
H192 C172 0.932 . S
H193 C173 0.930 . S
H194 C174 0.929 . S
H195 C176 0.930 . S
H196 C178 0.932 . S
H197 C179 0.929 . S
H198 C180 0.928 . S
H199 C182 0.932 . S
C200 C201 1.264 . S
C200 C205 1.479 . S
C200 C210 1.465 . S
C201 C200 1.264 . S
C201 C203 1.339 . S
C201 H228 0.931 . S
C202 C203 1.395 . S
C202 C204 1.320 . S
C203 C201 1.339 . S
C203 C202 1.395 . S
C203 H229 0.929 . S
C204 C202 1.320 . S
C204 C205 1.405 . S
C204 H230 0.930 . S
C205 C200 1.479 . S
C205 C204 1.405 . S
C205 H231 0.931 . S
U206 O207 2.454 . S
U206 O208 2.458 . S
U206 C209 2.984 . S
U206 C210 2.847 1_455 S
U206 C223 2.882 . S
U206 O224 2.441 1_455 S
U206 O225 2.420 1_455 S
U206 O226 2.455 . S
U206 O227 2.449 1_455 S
O207 U206 2.454 . S
O207 C209 1.353 . S
O208 U206 2.458 . S
O208 C209 1.286 . S
C209 U206 2.984 . S
C209 O207 1.353 . S
C209 O208 1.286 . S
C209 C211 1.363 . S
C210 C200 1.465 . S
C210 U206 2.847 1_655 S
C210 O224 1.249 . S
C210 O225 1.202 . S
C211 C209 1.363 . S
C211 C213 1.408 . S
C211 C216 1.342 . S
C212 C213 1.310 . S
C212 C215 1.461 . S
C212 H232 0.932 . S
C213 C211 1.408 . S
C213 C212 1.310 . S
C213 H233 0.930 . S
C214 C215 1.474 . S
C214 C216 1.285 . S
C214 H234 0.929 . S
C215 C212 1.461 . S
C215 C214 1.474 . S
C216 C211 1.342 . S
C216 C214 1.285 . S
C216 H235 0.930 . S
C217 C220 1.424 1_455 S
C217 C222 1.245 . S
C217 C223 1.428 . S
C218 C221 1.260 . S
C218 C222 1.477 . S
C218 H236 0.932 . S
C219 C220 1.384 . S
C219 C221 1.479 1_655 S
C219 H237 0.929 . S
C220 C217 1.424 1_655 S
C220 C219 1.384 . S
C220 H238 0.928 . S
C221 C218 1.260 . S
C221 C219 1.479 1_455 S
C222 C217 1.245 . S
C222 C218 1.477 . S
C222 H239 0.932 . S
C223 U206 2.882 . S
C223 C217 1.428 . S
C223 O226 1.301 . S
C223 O227 1.282 1_455 S
O224 U206 2.441 1_655 S
O224 C210 1.249 . S
O225 U206 2.420 1_655 S
O225 C210 1.202 . S
O226 U206 2.455 . S
O226 C223 1.301 . S
O227 U206 2.449 1_655 S
O227 C223 1.282 1_655 S
H228 C201 0.931 . S
H229 C203 0.929 . S
H230 C204 0.930 . S
H231 C205 0.931 . S
H232 C212 0.932 . S
H233 C213 0.930 . S
H234 C214 0.929 . S
H235 C216 0.930 . S
H236 C218 0.932 . S
H237 C219 0.929 . S
H238 C220 0.928 . S
H239 C222 0.932 . S
C240 C241 1.264 . S
C240 C245 1.479 . S
C240 C250 1.465 . S
C241 C240 1.264 . S
C241 C243 1.339 . S
C241 H268 0.931 . S
C242 C243 1.395 . S
C242 C244 1.320 . S
C243 C241 1.339 . S
C243 C242 1.395 . S
C243 H269 0.929 . S
C244 C242 1.320 . S
C244 C245 1.405 . S
C244 H270 0.930 . S
C245 C240 1.479 . S
C245 C244 1.405 . S
C245 H271 0.931 . S
U246 O247 2.454 1_655 S
U246 O248 2.458 1_655 S
U246 C249 2.984 1_655 S
U246 C250 2.847 . S
U246 C263 2.882 . S
U246 O264 2.441 . S
U246 O265 2.420 . S
U246 O266 2.455 1_655 S
U246 O267 2.449 . S
O247 U246 2.454 1_455 S
O247 C249 1.353 . S
O248 U246 2.458 1_455 S
O248 C249 1.286 . S
C249 U246 2.984 1_455 S
C249 O247 1.353 . S
C249 O248 1.286 . S
C249 C251 1.363 . S
C250 C240 1.465 . S
C250 U246 2.847 . S
C250 O264 1.249 . S
C250 O265 1.202 . S
C251 C249 1.363 . S
C251 C253 1.408 . S
C251 C256 1.342 . S
C252 C253 1.310 . S
C252 C255 1.461 . S
C252 H272 0.932 . S
C253 C251 1.408 . S
C253 C252 1.310 . S
C253 H273 0.930 . S
C254 C255 1.474 . S
C254 C256 1.285 . S
C254 H274 0.929 . S
C255 C252 1.461 . S
C255 C254 1.474 . S
C256 C251 1.342 . S
C256 C254 1.285 . S
C256 H275 0.930 . S
C257 C260 1.424 . S
C257 C262 1.245 1_655 S
C257 C263 1.428 . S
C258 C261 1.260 1_455 S
C258 C262 1.477 . S
C258 H276 0.932 . S
C259 C260 1.384 . S
C259 C261 1.479 . S
C259 H277 0.929 . S
C260 C257 1.424 . S
C260 C259 1.384 . S
C260 H278 0.928 . S
C261 C258 1.260 1_655 S
C261 C259 1.479 . S
C262 C257 1.245 1_455 S
C262 C258 1.477 . S
C262 H279 0.932 . S
C263 U246 2.882 . S
C263 C257 1.428 . S
C263 O266 1.301 1_655 S
C263 O267 1.282 . S
O264 U246 2.441 . S
O264 C250 1.249 . S
O265 U246 2.420 . S
O265 C250 1.202 . S
O266 U246 2.455 1_455 S
O266 C263 1.301 1_455 S
O267 U246 2.449 . S
O267 C263 1.282 . S
H268 C241 0.931 . S
H269 C243 0.929 . S
H270 C244 0.930 . S
H271 C245 0.931 . S
H272 C252 0.932 . S
H273 C253 0.930 . S
H274 C254 0.929 . S
H275 C256 0.930 . S
H276 C258 0.932 . S
H277 C259 0.929 . S
H278 C260 0.928 . S
H279 C262 0.932 . S
C280 C281 1.264 . S
C280 C285 1.479 . S
C280 C290 1.465 . S
C281 C280 1.264 . S
C281 C283 1.339 . S
C281 H308 0.931 . S
C282 C283 1.395 . S
C282 C284 1.320 . S
C283 C281 1.339 . S
C283 C282 1.395 . S
C283 H309 0.929 . S
C284 C282 1.320 . S
C284 C285 1.405 . S
C284 H310 0.930 . S
C285 C280 1.479 . S
C285 C284 1.405 . S
C285 H311 0.931 . S
U286 O287 2.454 1_565 S
U286 O288 2.458 1_565 S
U286 C289 2.984 1_565 S
U286 C290 2.847 . S
U286 C303 2.882 . S
U286 O304 2.441 . S
U286 O305 2.420 . S
U286 O306 2.455 1_565 S
U286 O307 2.449 . S
O287 U286 2.454 1_545 S
O287 C289 1.353 . S
O288 U286 2.458 1_545 S
O288 C289 1.286 . S
C289 U286 2.984 1_545 S
C289 O287 1.353 . S
C289 O288 1.286 . S
C289 C291 1.363 . S
C290 C280 1.465 . S
C290 U286 2.847 . S
C290 O304 1.249 . S
C290 O305 1.202 . S
C291 C289 1.363 . S
C291 C293 1.408 . S
C291 C296 1.342 . S
C292 C293 1.310 . S
C292 C295 1.461 . S
C292 H312 0.932 . S
C293 C291 1.408 . S
C293 C292 1.310 . S
C293 H313 0.930 . S
C294 C295 1.474 . S
C294 C296 1.285 . S
C294 H314 0.929 . S
C295 C292 1.461 . S
C295 C294 1.474 . S
C296 C291 1.342 . S
C296 C294 1.285 . S
C296 H315 0.930 . S
C297 C300 1.424 . S
C297 C302 1.245 1_565 S
C297 C303 1.428 . S
C298 C301 1.235 1_545 S
C298 C302 1.477 . S
C298 H316 0.932 . S
C299 C300 1.384 . S
C299 C301 1.505 . S
C299 H317 0.929 . S
C300 C297 1.424 . S
C300 C299 1.384 . S
C300 H318 0.928 . S
C301 C298 1.235 1_565 S
C301 C299 1.505 . S
C302 C297 1.245 1_545 S
C302 C298 1.477 . S
C302 H319 0.932 . S
C303 U286 2.882 . S
C303 C297 1.428 . S
C303 O306 1.301 1_565 S
C303 O307 1.282 . S
O304 U286 2.441 . S
O304 C290 1.249 . S
O305 U286 2.420 . S
O305 C290 1.202 . S
O306 U286 2.455 1_545 S
O306 C303 1.301 1_545 S
O307 U286 2.449 . S
O307 C303 1.282 . S
H308 C281 0.931 . S
H309 C283 0.929 . S
H310 C284 0.930 . S
H311 C285 0.931 . S
H312 C292 0.932 . S
H313 C293 0.930 . S
H314 C294 0.929 . S
H315 C296 0.930 . S
H316 C298 0.932 . S
H317 C299 0.929 . S
H318 C300 0.928 . S
H319 C302 0.932 . S
C320 C321 1.264 . S
C320 C325 1.479 . S
C320 C330 1.465 . S
C321 C320 1.264 . S
C321 C323 1.339 . S
C321 H348 0.931 . S
C322 C323 1.395 . S
C322 C324 1.320 . S
C323 C321 1.339 . S
C323 C322 1.395 . S
C323 H349 0.929 . S
C324 C322 1.320 . S
C324 C325 1.405 . S
C324 H350 0.930 . S
C325 C320 1.479 . S
C325 C324 1.405 . S
C325 H351 0.931 . S
U326 O327 2.454 . S
U326 O328 2.458 . S
U326 C329 2.984 . S
U326 C330 2.847 . S
U326 C343 2.882 . S
U326 O344 2.441 . S
U326 O345 2.420 . S
U326 O346 2.455 . S
U326 O347 2.449 . S
O327 U326 2.454 . S
O327 C329 1.353 . S
O328 U326 2.458 . S
O328 C329 1.286 . S
C329 U326 2.984 . S
C329 O327 1.353 . S
C329 O328 1.286 . S
C329 C331 1.363 . S
C330 C320 1.465 . S
C330 U326 2.847 . S
C330 O344 1.249 . S
C330 O345 1.202 . S
C331 C329 1.363 . S
C331 C333 1.408 . S
C331 C336 1.342 . S
C332 C333 1.310 . S
C332 C335 1.461 . S
C332 H352 0.932 . S
C333 C331 1.408 . S
C333 C332 1.310 . S
C333 H353 0.930 . S
C334 C335 1.474 . S
C334 C336 1.285 . S
C334 H354 0.929 . S
C335 C332 1.461 . S
C335 C334 1.474 . S
C336 C331 1.342 . S
C336 C334 1.285 . S
C336 H355 0.930 . S
C337 C340 1.424 . S
C337 C342 1.245 . S
C337 C343 1.428 . S
C338 C341 1.264 . S
C338 C342 1.477 . S
C338 H356 0.932 . S
C339 C340 1.384 . S
C339 C341 1.483 . S
C339 H357 0.929 . S
C340 C337 1.424 . S
C340 C339 1.384 . S
C340 H358 0.928 . S
C341 C338 1.264 . S
C341 C339 1.483 . S
C342 C337 1.245 . S
C342 C338 1.477 . S
C342 H359 0.932 . S
C343 U326 2.882 . S
C343 C337 1.428 . S
C343 O346 1.301 . S
C343 O347 1.282 . S
O344 U326 2.441 . S
O344 C330 1.249 . S
O345 U326 2.420 . S
O345 C330 1.202 . S
O346 U326 2.455 . S
O346 C343 1.301 . S
O347 U326 2.449 . S
O347 C343 1.282 . S
H348 C321 0.931 . S
H349 C323 0.929 . S
H350 C324 0.930 . S
H351 C325 0.931 . S
H352 C332 0.932 . S
H353 C333 0.930 . S
H354 C334 0.929 . S
H355 C336 0.930 . S
H356 C338 0.932 . S
H357 C339 0.929 . S
H358 C340 0.928 . S
H359 C342 0.932 . S
H360 C368 0.950 . S
H361 C373 0.950 . S
H362 C370 0.950 . S
H363 C372 0.950 . S
H364 C374 0.950 . S
H365 C376 0.950 . S
H366 C378 0.950 . S
H367 C379 0.950 . S
C368 H360 0.950 . S
C368 C369 1.386 . S
C368 C370 1.391 . S
C369 C368 1.386 . S
C369 C373 1.393 . S
C370 H362 0.950 . S
C370 C368 1.391 . S
C370 C371 1.400 . S
C371 C370 1.400 . S
C371 C372 1.398 . S
C371 C377 1.491 . S
C372 H363 0.950 . S
C372 C371 1.398 . S
C372 C373 1.391 . S
C373 H361 0.950 . S
C373 C369 1.393 . S
C373 C372 1.391 . S
C374 H364 0.950 . S
C374 C375 1.386 . S
C374 C376 1.391 . S
C375 C374 1.386 . S
C375 C379 1.393 . S
C376 H365 0.950 . S
C376 C374 1.391 . S
C376 C377 1.400 . S
C377 C371 1.491 . S
C377 C376 1.400 . S
C377 C378 1.398 . S
C378 H366 0.950 . S
C378 C377 1.398 . S
C378 C379 1.391 . S
C379 H367 0.950 . S
C379 C375 1.393 . S
C379 C378 1.391 . S
H380 C388 0.950 . S
H381 C393 0.950 . S
H382 C390 0.950 . S
H383 C392 0.950 . S
H384 C394 0.950 . S
H385 C396 0.950 . S
H386 C398 0.950 . S
H387 C399 0.950 . S
C388 H380 0.950 . S
C388 C389 1.386 . S
C388 C390 1.391 . S
C389 C388 1.386 . S
C389 C393 1.393 . S
C390 H382 0.950 . S
C390 C388 1.391 . S
C390 C391 1.400 . S
C391 C390 1.400 . S
C391 C392 1.398 . S
C391 C397 1.491 . S
C392 H383 0.950 . S
C392 C391 1.398 . S
C392 C393 1.391 . S
C393 H381 0.950 . S
C393 C389 1.393 . S
C393 C392 1.391 . S
C394 H384 0.950 . S
C394 C395 1.386 . S
C394 C396 1.391 . S
C395 C394 1.386 . S
C395 C399 1.393 . S
C396 H385 0.950 . S
C396 C394 1.391 . S
C396 C397 1.400 . S
C397 C391 1.491 . S
C397 C396 1.400 . S
C397 C398 1.398 . S
C398 H386 0.950 . S
C398 C397 1.398 . S
C398 C399 1.391 . S
C399 H387 0.950 . S
C399 C395 1.393 . S
C399 C398 1.391 . S
H400 C408 0.950 . S
H401 C413 0.950 . S
H402 C410 0.950 . S
H403 C412 0.950 . S
H404 C414 0.950 . S
H405 C416 0.950 . S
H406 C418 0.950 . S
H407 C419 0.950 . S
C408 H400 0.950 . S
C408 C409 1.386 . S
C408 C410 1.391 . S
C409 C408 1.386 . S
C409 C413 1.393 . S
C410 H402 0.950 . S
C410 C408 1.391 . S
C410 C411 1.400 . S
C411 C410 1.400 . S
C411 C412 1.398 . S
C411 C417 1.491 . S
C412 H403 0.950 . S
C412 C411 1.398 . S
C412 C413 1.391 . S
C413 H401 0.950 . S
C413 C409 1.393 . S
C413 C412 1.391 . S
C414 H404 0.950 . S
C414 C415 1.386 . S
C414 C416 1.391 . S
C415 C414 1.386 . S
C415 C419 1.393 . S
C416 H405 0.950 . S
C416 C414 1.391 . S
C416 C417 1.400 . S
C417 C411 1.491 . S
C417 C416 1.400 . S
C417 C418 1.398 . S
C418 H406 0.950 . S
C418 C417 1.398 . S
C418 C419 1.391 . S
C419 H407 0.950 . S
C419 C415 1.393 . S
C419 C418 1.391 . S
H420 C428 0.950 . S
H421 C433 0.950 . S
H422 C430 0.950 . S
H423 C432 0.950 . S
H424 C434 0.950 . S
H425 C436 0.950 . S
H426 C438 0.950 . S
H427 C439 0.950 . S
C428 H420 0.950 . S
C428 C429 1.386 . S
C428 C430 1.391 . S
C429 C428 1.386 . S
C429 C433 1.393 . S
C430 H422 0.950 . S
C430 C428 1.391 . S
C430 C431 1.400 . S
C431 C430 1.400 . S
C431 C432 1.398 . S
C431 C437 1.491 . S
C432 H423 0.950 . S
C432 C431 1.398 . S
C432 C433 1.391 . S
C433 H421 0.950 . S
C433 C429 1.393 . S
C433 C432 1.391 . S
C434 H424 0.950 . S
C434 C435 1.386 . S
C434 C436 1.391 . S
C435 C434 1.386 . S
C435 C439 1.393 . S
C436 H425 0.950 . S
C436 C434 1.391 . S
C436 C437 1.400 . S
C437 C431 1.491 . S
C437 C436 1.400 . S
C437 C438 1.398 . S
C438 H426 0.950 . S
C438 C437 1.398 . S
C438 C439 1.391 . S
C439 H427 0.950 . S
C439 C435 1.393 . S
C439 C438 1.391 . S
H440 C448 0.950 . S
H441 C453 0.950 . S
H442 C450 0.950 . S
H443 C452 0.950 . S
H444 C454 0.950 . S
H445 C456 0.950 . S
H446 C458 0.950 . S
H447 C459 0.950 . S
C448 H440 0.950 . S
C448 C449 1.386 . S
C448 C450 1.391 . S
C449 C448 1.386 . S
C449 C453 1.393 . S
C450 H442 0.950 . S
C450 C448 1.391 . S
C450 C451 1.400 . S
C451 C450 1.400 . S
C451 C452 1.398 . S
C451 C457 1.491 . S
C452 H443 0.950 . S
C452 C451 1.398 . S
C452 C453 1.391 . S
C453 H441 0.950 . S
C453 C449 1.393 . S
C453 C452 1.391 . S
C454 H444 0.950 . S
C454 C455 1.386 . S
C454 C456 1.391 . S
C455 C454 1.386 . S
C455 C459 1.393 . S
C456 H445 0.950 . S
C456 C454 1.391 . S
C456 C457 1.400 . S
C457 C451 1.491 . S
C457 C456 1.400 . S
C457 C458 1.398 . S
C458 H446 0.950 . S
C458 C457 1.398 . S
C458 C459 1.391 . S
C459 H447 0.950 . S
C459 C455 1.393 . S
C459 C458 1.391 . S
H460 C468 0.950 . S
H461 C473 0.950 . S
H462 C470 0.950 . S
H463 C472 0.950 . S
H464 C474 0.950 . S
H465 C476 0.950 . S
H466 C478 0.950 . S
H467 C479 0.950 . S
C468 H460 0.950 . S
C468 C469 1.386 . S
C468 C470 1.391 . S
C469 C468 1.386 . S
C469 C473 1.393 . S
C470 H462 0.950 . S
C470 C468 1.391 . S
C470 C471 1.400 . S
C471 C470 1.400 . S
C471 C472 1.398 . S
C471 C477 1.491 . S
C472 H463 0.950 . S
C472 C471 1.398 . S
C472 C473 1.391 . S
C473 H461 0.950 . S
C473 C469 1.393 . S
C473 C472 1.391 . S
C474 H464 0.950 . S
C474 C475 1.386 . S
C474 C476 1.391 . S
C475 C474 1.386 . S
C475 C479 1.393 . S
C476 H465 0.950 . S
C476 C474 1.391 . S
C476 C477 1.400 . S
C477 C471 1.491 . S
C477 C476 1.400 . S
C477 C478 1.398 . S
C478 H466 0.950 . S
C478 C477 1.398 . S
C478 C479 1.391 . S
C479 H467 0.950 . S
C479 C475 1.393 . S
C479 C478 1.391 . S
H480 C488 0.950 . S
H481 C493 0.950 . S
H482 C490 0.950 . S
H483 C492 0.950 . S
H484 C494 0.950 . S
H485 C496 0.950 . S
H486 C498 0.950 . S
H487 C499 0.950 . S
C488 H480 0.950 . S
C488 C489 1.386 . S
C488 C490 1.391 . S
C489 C488 1.386 . S
C489 C493 1.393 . S
C490 H482 0.950 . S
C490 C488 1.391 . S
C490 C491 1.400 . S
C491 C490 1.400 . S
C491 C492 1.398 . S
C491 C497 1.491 . S
C492 H483 0.950 . S
C492 C491 1.398 . S
C492 C493 1.391 . S
C493 H481 0.950 . S
C493 C489 1.393 . S
C493 C492 1.391 . S
C494 H484 0.950 . S
C494 C495 1.386 . S
C494 C496 1.391 . S
C495 C494 1.386 . S
C495 C499 1.393 . S
C496 H485 0.950 . S
C496 C494 1.391 . S
C496 C497 1.400 . S
C497 C491 1.491 . S
C497 C496 1.400 . S
C497 C498 1.398 . S
C498 H486 0.950 . S
C498 C497 1.398 . S
C498 C499 1.391 . S
C499 H487 0.950 . S
C499 C495 1.393 . S
C499 C498 1.391 . S
H500 C508 0.950 . S
H501 C513 0.950 . S
H502 C510 0.950 . S
H503 C512 0.950 . S
H504 C514 0.950 . S
H505 C516 0.950 . S
H506 C518 0.950 . S
H507 C519 0.950 . S
C508 H500 0.950 . S
C508 C509 1.386 . S
C508 C510 1.391 . S
C509 C508 1.386 . S
C509 C513 1.393 . S
C510 H502 0.950 . S
C510 C508 1.391 . S
C510 C511 1.400 . S
C511 C510 1.400 . S
C511 C512 1.398 . S
C511 C517 1.491 . S
C512 H503 0.950 . S
C512 C511 1.398 . S
C512 C513 1.391 . S
C513 H501 0.950 . S
C513 C509 1.393 . S
C513 C512 1.391 . S
C514 H504 0.950 . S
C514 C515 1.386 . S
C514 C516 1.391 . S
C515 C514 1.386 . S
C515 C519 1.393 . S
C516 H505 0.950 . S
C516 C514 1.391 . S
C516 C517 1.400 . S
C517 C511 1.491 . S
C517 C516 1.400 . S
C517 C518 1.398 . S
C518 H506 0.950 . S
C518 C517 1.398 . S
C518 C519 1.391 . S
C519 H507 0.950 . S
C519 C515 1.393 . S
C519 C518 1.391 . S
H520 C528 0.950 . S
H521 C533 0.950 . S
H522 C530 0.950 . S
H523 C532 0.950 . S
H524 C534 0.950 . S
H525 C536 0.950 . S
H526 C538 0.950 . S
H527 C539 0.950 . S
C528 H520 0.950 . S
C528 C529 1.386 . S
C528 C530 1.391 . S
C529 C528 1.386 . S
C529 C533 1.393 . S
C530 H522 0.950 . S
C530 C528 1.391 . S
C530 C531 1.400 . S
C531 C530 1.400 . S
C531 C532 1.398 . S
C531 C537 1.491 . S
C532 H523 0.950 . S
C532 C531 1.398 . S
C532 C533 1.391 . S
C533 H521 0.950 . S
C533 C529 1.393 . S
C533 C532 1.391 . S
C534 H524 0.950 . S
C534 C535 1.386 . S
C534 C536 1.391 . S
C535 C534 1.386 . S
C535 C539 1.393 . S
C536 H525 0.950 . S
C536 C534 1.391 . S
C536 C537 1.400 . S
C537 C531 1.491 . S
C537 C536 1.400 . S
C537 C538 1.398 . S
C538 H526 0.950 . S
C538 C537 1.398 . S
C538 C539 1.391 . S
C539 H527 0.950 . S
C539 C535 1.393 . S
C539 C538 1.391 . S
H540 C548 0.950 . S
H541 C553 0.950 . S
H542 C550 0.950 . S
H543 C552 0.950 . S
H544 C554 0.950 . S
H545 C556 0.950 . S
H546 C558 0.950 . S
H547 C559 0.950 . S
C548 H540 0.950 . S
C548 C549 1.386 . S
C548 C550 1.391 . S
C549 C548 1.386 . S
C549 C553 1.393 . S
C550 H542 0.950 . S
C550 C548 1.391 . S
C550 C551 1.400 . S
C551 C550 1.400 . S
C551 C552 1.398 . S
C551 C557 1.491 . S
C552 H543 0.950 . S
C552 C551 1.398 . S
C552 C553 1.391 . S
C553 H541 0.950 . S
C553 C549 1.393 . S
C553 C552 1.391 . S
C554 H544 0.950 . S
C554 C555 1.386 . S
C554 C556 1.391 . S
C555 C554 1.386 . S
C555 C559 1.393 . S
C556 H545 0.950 . S
C556 C554 1.391 . S
C556 C557 1.400 . S
C557 C551 1.491 . S
C557 C556 1.400 . S
C557 C558 1.398 . S
C558 H546 0.950 . S
C558 C557 1.398 . S
C558 C559 1.391 . S
C559 H547 0.950 . S
C559 C555 1.393 . S
C559 C558 1.391 . S
H560 C568 0.950 . S
H561 C573 0.950 . S
H562 C570 0.950 . S
H563 C572 0.950 . S
H564 C574 0.950 . S
H565 C576 0.950 . S
H566 C578 0.950 . S
H567 C579 0.950 . S
C568 H560 0.950 . S
C568 C569 1.386 . S
C568 C570 1.391 . S
C569 C568 1.386 . S
C569 C573 1.393 . S
C570 H562 0.950 . S
C570 C568 1.391 . S
C570 C571 1.400 . S
C571 C570 1.400 . S
C571 C572 1.398 . S
C571 C577 1.491 . S
C572 H563 0.950 . S
C572 C571 1.398 . S
C572 C573 1.391 . S
C573 H561 0.950 . S
C573 C569 1.393 . S
C573 C572 1.391 . S
C574 H564 0.950 . S
C574 C575 1.386 . S
C574 C576 1.391 . S
C575 C574 1.386 . S
C575 C579 1.393 . S
C576 H565 0.950 . S
C576 C574 1.391 . S
C576 C577 1.400 . S
C577 C571 1.491 . S
C577 C576 1.400 . S
C577 C578 1.398 . S
C578 H566 0.950 . S
C578 C577 1.398 . S
C578 C579 1.391 . S
C579 H567 0.950 . S
C579 C575 1.393 . S
C579 C578 1.391 . S
H580 C588 0.950 . S
H581 C593 0.950 . S
H582 C590 0.950 . S
H583 C592 0.950 . S
H584 C594 0.950 . S
H585 C596 0.950 . S
H586 C598 0.950 . S
H587 C599 0.950 . S
C588 H580 0.950 . S
C588 C589 1.386 . S
C588 C590 1.391 . S
C589 C588 1.386 . S
C589 C593 1.393 . S
C590 H582 0.950 . S
C590 C588 1.391 . S
C590 C591 1.400 . S
C591 C590 1.400 . S
C591 C592 1.398 . S
C591 C597 1.491 . S
C592 H583 0.950 . S
C592 C591 1.398 . S
C592 C593 1.391 . S
C593 H581 0.950 . S
C593 C589 1.393 . S
C593 C592 1.391 . S
C594 H584 0.950 . S
C594 C595 1.386 . S
C594 C596 1.391 . S
C595 C594 1.386 . S
C595 C599 1.393 . S
C596 H585 0.950 . S
C596 C594 1.391 . S
C596 C597 1.400 . S
C597 C591 1.491 . S
C597 C596 1.400 . S
C597 C598 1.398 . S
C598 H586 0.950 . S
C598 C597 1.398 . S
C598 C599 1.391 . S
C599 H587 0.950 . S
C599 C595 1.393 . S
C599 C598 1.391 . S
H600 C608 0.950 . S
H601 C613 0.950 . S
H602 C610 0.950 . S
H603 C612 0.950 . S
H604 C614 0.950 . S
H605 C616 0.950 . S
H606 C618 0.950 . S
H607 C619 0.950 . S
C608 H600 0.950 . S
C608 C609 1.386 1_655 S
C608 C610 1.391 . S
C609 C608 1.386 1_455 S
C609 C613 1.393 . S
C610 H602 0.950 . S
C610 C608 1.391 . S
C610 C611 1.400 1_655 S
C611 C610 1.400 1_455 S
C611 C612 1.398 . S
C611 C617 1.491 . S
C612 H603 0.950 . S
C612 C611 1.398 . S
C612 C613 1.391 . S
C613 H601 0.950 . S
C613 C609 1.393 . S
C613 C612 1.391 . S
C614 H604 0.950 . S
C614 C615 1.386 . S
C614 C616 1.391 . S
C615 C614 1.386 . S
C615 C619 1.393 1_455 S
C616 H605 0.950 . S
C616 C614 1.391 . S
C616 C617 1.400 . S
C617 C611 1.491 . S
C617 C616 1.400 . S
C617 C618 1.398 1_455 S
C618 H606 0.950 . S
C618 C617 1.398 1_655 S
C618 C619 1.391 . S
C619 H607 0.950 . S
C619 C615 1.393 1_655 S
C619 C618 1.391 . S
H620 C628 0.950 . S
H621 C633 0.950 1_565 S
H622 C630 0.950 . S
H623 C632 0.950 1_565 S
H624 C634 0.950 1_565 S
H625 C636 0.950 1_565 S
H626 C638 0.950 . S
H627 C639 0.950 . S
C628 H620 0.950 . S
C628 C629 1.386 . S
C628 C630 1.391 . S
C629 C628 1.386 . S
C629 C633 1.393 . S
C630 H622 0.950 . S
C630 C628 1.391 . S
C630 C631 1.400 . S
C631 C630 1.400 . S
C631 C632 1.398 . S
C631 C637 1.491 . S
C632 H623 0.950 1_545 S
C632 C631 1.398 . S
C632 C633 1.391 . S
C633 H621 0.950 1_545 S
C633 C629 1.393 . S
C633 C632 1.391 . S
C634 H624 0.950 1_545 S
C634 C635 1.386 . S
C634 C636 1.391 . S
C635 C634 1.386 . S
C635 C639 1.393 . S
C636 H625 0.950 1_545 S
C636 C634 1.391 . S
C636 C637 1.400 . S
C637 C631 1.491 . S
C637 C636 1.400 . S
C637 C638 1.398 . S
C638 H626 0.950 . S
C638 C637 1.398 . S
C638 C639 1.391 . S
C639 H627 0.950 . S
C639 C635 1.393 . S
C639 C638 1.391 . S
H640 C648 0.950 . S
H641 C653 0.950 . S
H642 C650 0.950 . S
H643 C652 0.950 . S
H644 C654 0.950 . S
H645 C656 0.950 . S
H646 C658 0.950 . S
H647 C659 0.950 . S
C648 H640 0.950 . S
C648 C649 1.386 . S
C648 C650 1.391 . S
C649 C648 1.386 . S
C649 C653 1.393 . S
C650 H642 0.950 . S
C650 C648 1.391 . S
C650 C651 1.400 . S
C651 C650 1.400 . S
C651 C652 1.398 . S
C651 C657 1.491 . S
C652 H643 0.950 . S
C652 C651 1.398 . S
C652 C653 1.391 . S
C653 H641 0.950 . S
C653 C649 1.393 . S
C653 C652 1.391 . S
C654 H644 0.950 . S
C654 C655 1.386 . S
C654 C656 1.391 . S
C655 C654 1.386 . S
C655 C659 1.393 . S
C656 H645 0.950 . S
C656 C654 1.391 . S
C656 C657 1.400 . S
C657 C651 1.491 . S
C657 C656 1.400 . S
C657 C658 1.398 . S
C658 H646 0.950 . S
C658 C657 1.398 . S
C658 C659 1.391 . S
C659 H647 0.950 . S
C659 C655 1.393 . S
C659 C658 1.391 . S
H660 C668 0.950 . S
H661 C673 0.950 . S
H662 C670 0.950 . S
H663 C672 0.950 . S
H664 C674 0.950 1_565 S
H665 C676 0.950 . S
H666 C678 0.950 . S
H667 C679 0.950 . S
C668 H660 0.950 . S
C668 C669 1.386 . S
C668 C670 1.391 . S
C669 C668 1.386 . S
C669 C673 1.393 . S
C670 H662 0.950 . S
C670 C668 1.391 . S
C670 C671 1.400 . S
C671 C670 1.400 . S
C671 C672 1.398 . S
C671 C677 1.491 . S
C672 H663 0.950 . S
C672 C671 1.398 . S
C672 C673 1.391 . S
C673 H661 0.950 . S
C673 C669 1.393 . S
C673 C672 1.391 . S
C674 H664 0.950 1_545 S
C674 C675 1.386 . S
C674 C676 1.391 . S
C675 C674 1.386 . S
C675 C679 1.393 . S
C676 H665 0.950 . S
C676 C674 1.391 . S
C676 C677 1.400 . S
C677 C671 1.491 . S
C677 C676 1.400 . S
C677 C678 1.398 . S
C678 H666 0.950 . S
C678 C677 1.398 . S
C678 C679 1.391 . S
C679 H667 0.950 . S
C679 C675 1.393 . S
C679 C678 1.391 . S
H680 C688 0.950 . S
H681 C693 0.950 . S
H682 C690 0.950 . S
H683 C692 0.950 . S
H684 C694 0.950 . S
H685 C696 0.950 . S
H686 C698 0.950 . S
H687 C699 0.950 . S
C688 H680 0.950 . S
C688 C689 1.386 . S
C688 C690 1.391 . S
C689 C688 1.386 . S
C689 C693 1.393 . S
C690 H682 0.950 . S
C690 C688 1.391 . S
C690 C691 1.400 . S
C691 C690 1.400 . S
C691 C692 1.398 . S
C691 C697 1.491 . S
C692 H683 0.950 . S
C692 C691 1.398 . S
C692 C693 1.391 . S
C693 H681 0.950 . S
C693 C689 1.393 . S
C693 C692 1.391 . S
C694 H684 0.950 . S
C694 C695 1.386 . S
C694 C696 1.391 . S
C695 C694 1.386 . S
C695 C699 1.393 . S
C696 H685 0.950 . S
C696 C694 1.391 . S
C696 C697 1.400 . S
C697 C691 1.491 . S
C697 C696 1.400 . S
C697 C698 1.398 . S
C698 H686 0.950 . S
C698 C697 1.398 . S
C698 C699 1.391 . S
C699 H687 0.950 . S
C699 C695 1.393 . S
C699 C698 1.391 . S
H700 C708 0.950 . S
H701 C713 0.950 . S
H702 C710 0.950 . S
H703 C712 0.950 . S
H704 C714 0.950 . S
H705 C716 0.950 . S
H706 C718 0.950 . S
H707 C719 0.950 . S
C708 H700 0.950 . S
C708 C709 1.386 . S
C708 C710 1.391 . S
C709 C708 1.386 . S
C709 C713 1.393 1_455 S
C710 H702 0.950 . S
C710 C708 1.391 . S
C710 C711 1.400 . S
C711 C710 1.400 . S
C711 C712 1.398 1_455 S
C711 C717 1.491 . S
C712 H703 0.950 . S
C712 C711 1.398 1_655 S
C712 C713 1.391 . S
C713 H701 0.950 . S
C713 C709 1.393 1_655 S
C713 C712 1.391 . S
C714 H704 0.950 . S
C714 C715 1.382 1_655 S
C714 C716 1.391 . S
C715 C714 1.382 1_455 S
C715 C719 1.397 . S
C716 H705 0.950 . S
C716 C714 1.391 . S
C716 C717 1.400 1_655 S
C717 C711 1.491 . S
C717 C716 1.400 1_455 S
C717 C718 1.398 . S
C718 H706 0.950 . S
C718 C717 1.398 . S
C718 C719 1.391 . S
C719 H707 0.950 . S
C719 C715 1.397 . S
C719 C718 1.391 . S
C369 C9 0.486 . S
C375 C335 0.453 . S
C389 C49 0.276 . S
C395 C242 0.244 . S
C409 C89 0.291 . S
C415 C282 0.261 . S
C429 C26 0.326 . S
C435 C322 0.288 . S
C455 C255 0.423 . S
C449 C66 0.525 . S
C475 C295 0.434 . S
C469 C106 0.540 . S
C489 C43 2.991 . S
C495 C162 2.947 . S
C509 C83 3.155 . S
C515 C202 3.102 . S
C529 C22 3.240 . S
C535 C135 3.167 . S
C555 C175 3.158 . S
C549 C62 3.232 . S
C575 C215 2.999 . S
C569 C102 3.067 . S
C589 C3 2.984 . S
C595 C122 2.940 . S
C615 C221 1.762 1_554 S
C609 C15 1.718 . S
C629 C55 1.748 . S
C635 C141 1.769 . S
C649 C95 1.736 . S
C655 C181 1.770 . S
C675 C301 1.108 1_545 S
C669 C42 1.095 . S
C695 C341 1.100 1_556 S
C689 C82 1.089 . S
C709 C2 1.099 . S
C715 C261 1.103 1_455 S
