# Generated by pormake.
# Topology anh, (6,3)-cn, num edge types: 1
# Building blocks:
#     Node 0, Type 0, BuildingBlock: PAMTOO_clean_sbu_0, # of connection points: 6
#     Node 1, Type 0, BuildingBlock: PAMTOO_clean_sbu_0, # of connection points: 6
#     Node 2, Type 0, BuildingBlock: PAMTOO_clean_sbu_0, # of connection points: 6
#     Node 3, Type 1, BuildingBlock: OLANEW_clean_sbu_2, # of connection points: 3
#     Node 4, Type 1, BuildingBlock: OLANEW_clean_sbu_2, # of connection points: 3
#     Node 5, Type 1, BuildingBlock: OLANEW_clean_sbu_2, # of connection points: 3
#     Node 6, Type 1, BuildingBlock: OLANEW_clean_sbu_2, # of connection points: 3
#     Node 7, Type 1, BuildingBlock: OLANEW_clean_sbu_2, # of connection points: 3
#     Node 8, Type 1, BuildingBlock: OLANEW_clean_sbu_2, # of connection points: 3
#     Edge 9, Type (0, 1), BuildingBlock: XIVTED_clean_linker_0, # of connection points: 2
#     Edge 10, Type (0, 1), BuildingBlock: XIVTED_clean_linker_0, # of connection points: 2
#     Edge 11, Type (0, 1), BuildingBlock: XIVTED_clean_linker_0, # of connection points: 2
#     Edge 12, Type (0, 1), BuildingBlock: XIVTED_clean_linker_0, # of connection points: 2
#     Edge 13, Type (0, 1), BuildingBlock: XIVTED_clean_linker_0, # of connection points: 2
#     Edge 14, Type (0, 1), BuildingBlock: XIVTED_clean_linker_0, # of connection points: 2
#     Edge 15, Type (0, 1), BuildingBlock: XIVTED_clean_linker_0, # of connection points: 2
#     Edge 16, Type (0, 1), BuildingBlock: XIVTED_clean_linker_0, # of connection points: 2
#     Edge 17, Type (0, 1), BuildingBlock: XIVTED_clean_linker_0, # of connection points: 2
#     Edge 18, Type (0, 1), BuildingBlock: XIVTED_clean_linker_0, # of connection points: 2
#     Edge 19, Type (0, 1), BuildingBlock: XIVTED_clean_linker_0, # of connection points: 2
#     Edge 20, Type (0, 1), BuildingBlock: XIVTED_clean_linker_0, # of connection points: 2
#     Edge 21, Type (0, 1), BuildingBlock: XIVTED_clean_linker_0, # of connection points: 2
#     Edge 22, Type (0, 1), BuildingBlock: XIVTED_clean_linker_0, # of connection points: 2
#     Edge 23, Type (0, 1), BuildingBlock: XIVTED_clean_linker_0, # of connection points: 2
#     Edge 24, Type (0, 1), BuildingBlock: XIVTED_clean_linker_0, # of connection points: 2
#     Edge 25, Type (0, 1), BuildingBlock: XIVTED_clean_linker_0, # of connection points: 2
#     Edge 26, Type (0, 1), BuildingBlock: XIVTED_clean_linker_0, # of connection points: 2
# Relax obj value: 0.142
# Max RMSD: 0.145
# Mean RMSD: 0.115
data_MOF--net-anh--node1-PAMTOO_clean_sbu_0--node2-OLANEW_clean_sbu_2--edge1-XIVTED_clean_linker_0
_symmetry_space_group_name_H-M    P1
_symmetry_Int_Tables_number       1
_symmetry_cell_setting            triclinic
loop_
_symmetry_equiv_pos_as_xyz
'x, y, z'
_cell_length_a     37.3558
_cell_length_b     33.048507
_cell_length_c     50.817521
_cell_angle_alpha  89.866726
_cell_angle_beta   95.155661
_cell_angle_gamma 107.77438
loop_
_atom_site_label
_atom_site_type_symbol
_atom_site_fract_x
_atom_site_fract_y
_atom_site_fract_z
_atom_type_partial_charge
Dy0 Dy 0.04142 0.59334 0.13803 0.0
Dy1 Dy 0.01247 0.48845 0.13463 0.0
C2 C 0.02004 0.54353 0.0839 0.0
O3 O 0.98112 0.57697 0.14688 0.0
O4 O 0.95934 0.50757 0.1312 0.0
O5 O 0.06315 0.65107 0.11695 0.0
O6 O 0.05319 0.65423 0.15812 0.0
O7 O 0.01076 0.50699 0.17655 0.0
O8 O 0.05585 0.57231 0.17818 0.0
O9 O 0.0755 0.50427 0.14149 0.0
O10 O 0.09273 0.57487 0.13054 0.0
O11 O 0.00701 0.42674 0.15137 0.0
O12 O 0.98309 0.43156 0.11147 0.0
C13 C 0.95327 0.54221 0.13995 0.0
O14 O 0.01171 0.57161 0.09825 0.0
O15 O 0.03021 0.51267 0.09528 0.0
C16 C 0.10655 0.70474 0.14333 0.0
C17 C 0.18164 0.75878 0.14903 0.0
C18 C 0.15261 0.77282 0.13643 0.0
C19 C 0.11536 0.74595 0.13359 0.0
C20 C 0.13523 0.69072 0.15621 0.0
C21 C 0.1724 0.71755 0.15915 0.0
C22 C 0.06824 0.67528 0.13802 0.0
C23 C 0.03515 0.53912 0.18994 0.0
C24 C 0.10127 0.53974 0.13601 0.0
C25 C 0.94814 0.37701 0.13747 0.0
C26 C 0.87889 0.3218 0.15149 0.0
C27 C 0.91243 0.31077 0.15613 0.0
C28 C 0.94676 0.33819 0.14918 0.0
C29 C 0.91471 0.38797 0.13265 0.0
C30 C 0.88047 0.36062 0.13949 0.0
C31 C 0.98454 0.40663 0.13123 0.0
H32 H 0.15878 0.80414 0.12812 0.0
H33 H 0.09358 0.757 0.12326 0.0
H34 H 0.12895 0.65877 0.16361 0.0
H35 H 0.1939 0.70593 0.16933 0.0
H36 H 0.91232 0.28137 0.16562 0.0
H37 H 0.9723 0.32931 0.15323 0.0
H38 H 0.91504 0.41779 0.12366 0.0
H39 H 0.85517 0.36987 0.13521 0.0
Dy40 Dy 0.49043 0.01831 0.5227 0.0
Dy41 Dy 0.58407 0.05106 0.5323 0.0
C42 C 0.53344 0.03142 0.57967 0.0
O43 O 0.5065 0.08816 0.51608 0.0
O44 O 0.56608 0.10875 0.5381 0.0
O45 O 0.43732 0.99032 0.53901 0.0
O46 O 0.43804 0.00986 0.49828 0.0
O47 O 0.56719 0.063 0.49046 0.0
O48 O 0.51294 0.0072 0.48515 0.0
O49 O 0.56932 0.98102 0.52441 0.0
O50 O 0.50599 0.95927 0.53099 0.0
O51 O 0.63846 0.05565 0.51895 0.0
O52 O 0.63505 0.08496 0.55635 0.0
C53 C 0.53629 0.11769 0.52705 0.0
O54 O 0.50827 0.04263 0.5642 0.0
O55 O 0.562 0.02347 0.56994 0.0
C56 C 0.38799 0.95019 0.5089 0.0
C57 C 0.33121 0.87194 0.49706 0.0
C58 C 0.32237 0.9068 0.50748 0.0
C59 C 0.3505 0.9455 0.51331 0.0
C60 C 0.39713 0.91575 0.49841 0.0
C61 C 0.36896 0.87697 0.49248 0.0
C62 C 0.41734 0.99042 0.51663 0.0
C63 C 0.54113 0.03515 0.47516 0.0
C64 C 0.53756 0.951 0.52759 0.0
C65 C 0.6848 0.1205 0.53131 0.0
C66 C 0.73829 0.19561 0.51631 0.0
C67 C 0.69942 0.19122 0.51326 0.0
C68 C 0.67294 0.15399 0.52066 0.0
C69 C 0.72341 0.12473 0.53463 0.0
C70 C 0.74996 0.16196 0.52721 0.0
C71 C 0.65701 0.08096 0.5386 0.0
H72 H 0.29383 0.90397 0.51172 0.0
H73 H 0.34304 0.97165 0.52167 0.0
H74 H 0.42606 0.91878 0.49504 0.0
H75 H 0.37676 0.85103 0.48421 0.0
H76 H 0.68944 0.21665 0.50529 0.0
H77 H 0.64317 0.15125 0.51799 0.0
H78 H 0.73301 0.09909 0.54274 0.0
H79 H 0.77956 0.16398 0.5295 0.0
Dy80 Dy 0.52994 0.51423 0.87662 0.0
Dy81 Dy 0.43716 0.4799 0.87007 0.0
C82 C 0.48463 0.50012 0.81868 0.0
O83 O 0.50911 0.56815 0.88712 0.0
O84 O 0.45448 0.54838 0.85984 0.0
O85 O 0.58194 0.56413 0.87265 0.0
O86 O 0.58314 0.50447 0.89007 0.0
O87 O 0.45359 0.49659 0.91306 0.0
O88 O 0.51318 0.49022 0.916 0.0
O89 O 0.45717 0.42393 0.87993 0.0
O90 O 0.51244 0.44768 0.86068 0.0
O91 O 0.3844 0.48385 0.88189 0.0
O92 O 0.38464 0.43632 0.85266 0.0
C93 C 0.4818 0.57789 0.8731 0.0
O94 O 0.51601 0.51864 0.8335 0.0
O95 O 0.45263 0.48072 0.82853 0.0
C96 C 0.63082 0.53665 0.86266 0.0
C97 C 0.68366 0.52632 0.8292 0.0
C98 C 0.65391 0.54123 0.81914 0.0
C99 C 0.62748 0.54603 0.8357 0.0
C100 C 0.66063 0.52202 0.87271 0.0
C101 C 0.68676 0.51675 0.85612 0.0
C102 C 0.60268 0.54008 0.88031 0.0
C103 C 0.48337 0.49219 0.92706 0.0
C104 C 0.4856 0.41652 0.86959 0.0
C105 C 0.33693 0.46911 0.84696 0.0
C106 C 0.28415 0.50146 0.81844 0.0
C107 C 0.32303 0.52088 0.8171 0.0
C108 C 0.34925 0.50473 0.83121 0.0
C109 C 0.29828 0.44856 0.84749 0.0
C110 C 0.27202 0.46453 0.83327 0.0
C111 C 0.36429 0.45542 0.86427 0.0
H112 H 0.6509 0.54871 0.79845 0.0
H113 H 0.6044 0.55687 0.82736 0.0
H114 H 0.6636 0.51446 0.89339 0.0
H115 H 0.7098 0.50584 0.86447 0.0
H116 H 0.33316 0.54915 0.80568 0.0
H117 H 0.37913 0.52086 0.83055 0.0
H118 H 0.28841 0.42108 0.85962 0.0
H119 H 0.24226 0.44921 0.83498 0.0
O120 O 0.56468 0.07758 0.26681 0.0
Cd121 Cd 0.56083 0.0839 0.2188 0.0
O122 O 0.52054 0.01554 0.26459 0.0
Cd123 Cd 0.50491 0.01263 0.22215 0.0
O124 O 0.45539 0.9824 0.19498 0.0
C125 C 0.44771 0.94282 0.19015 0.0
O126 O 0.47181 0.92327 0.19943 0.0
C127 C 0.54466 0.04542 0.27822 0.0
C128 C 0.62919 0.13543 0.20298 0.0
O129 O 0.60355 0.15128 0.20895 0.0
O130 O 0.62237 0.09508 0.20428 0.0
O131 O 0.5207 0.49874 0.61175 0.0
Cd132 Cd 0.52928 0.49836 0.56462 0.0
O133 O 0.47899 0.53389 0.60931 0.0
Cd134 Cd 0.48831 0.55813 0.56965 0.0
O135 O 0.49465 0.61728 0.54841 0.0
C136 C 0.52582 0.64703 0.55174 0.0
O137 O 0.55437 0.63995 0.56596 0.0
C138 C 0.49749 0.51303 0.62263 0.0
C139 C 0.5329 0.4181 0.55008 0.0
O140 O 0.56278 0.4481 0.55821 0.0
O141 O 0.50137 0.42628 0.54825 0.0
O142 O 0.01383 0.60836 0.87712 0.0
Cd143 Cd 0.01165 0.62812 0.83044 0.0
O144 O 0.01092 0.54103 0.87228 0.0
Cd145 Cd 0.99173 0.53689 0.83039 0.0
O146 O 0.9426 0.52193 0.8015 0.0
C147 C 0.9325 0.55102 0.78954 0.0
O148 O 0.95503 0.59032 0.79196 0.0
C149 C 0.01505 0.57337 0.88713 0.0
C150 C 0.0728 0.61593 0.80756 0.0
O151 O 0.07648 0.65019 0.82075 0.0
O152 O 0.04 0.58853 0.80428 0.0
O153 O 0.06442 0.50777 0.40064 0.0
Cd154 Cd 0.0712 0.51504 0.44883 0.0
O155 O 0.0168 0.53412 0.39764 0.0
Cd156 Cd 1.00118 0.51326 0.4371 0.0
O157 O 0.96164 0.46568 0.45945 0.0
C158 C 0.92871 0.44994 0.44772 0.0
O159 O 0.92107 0.46422 0.4244 0.0
C160 C 0.04182 0.52302 0.38676 0.0
C161 C 0.12786 0.59139 0.46308 0.0
O162 O 0.13556 0.55626 0.46182 0.0
O163 O 0.0933 0.59028 0.45823 0.0
O164 O 0.51528 0.97929 0.78825 0.0
Cd165 Cd 0.50584 0.96873 0.83508 0.0
O166 O 0.47804 0.01962 0.78243 0.0
Cd167 Cd 0.47214 0.03201 0.82371 0.0
O168 O 0.47192 0.08941 0.84495 0.0
C169 C 0.49989 0.12198 0.8419 0.0
O170 O 0.52713 0.11759 0.82861 0.0
C171 C 0.49847 0.99971 0.77304 0.0
C172 C 0.49959 0.88459 0.84781 0.0
O173 O 0.47051 0.89529 0.83928 0.0
O174 O 0.53156 0.91376 0.85066 0.0
O175 O 0.56343 0.52401 0.12909 0.0
Cd176 Cd 0.61121 0.53947 0.16795 0.0
O177 O 0.50922 0.5309 0.13991 0.0
Cd178 Cd 0.44806 0.52727 0.13411 0.0
O179 O 0.38686 0.52242 0.13378 0.0
C180 C 0.37573 0.55525 0.1318 0.0
O181 O 0.401 0.59247 0.12959 0.0
C182 C 0.52907 0.52237 0.12276 0.0
C183 C 0.68476 0.53857 0.1581 0.0
O184 O 0.65904 0.50439 0.16311 0.0
O185 O 0.67576 0.57304 0.15719 0.0
H186 H 0.13153 0.47333 0.14257 0.0
H187 H 0.34384 0.61963 0.12701 0.0
H188 H 0.16321 0.60803 0.12868 0.0
H189 H 0.31448 0.48426 0.13776 0.0
H190 H 0.27769 0.6153 0.12816 0.0
H191 H 0.19778 0.47607 0.14155 0.0
C192 C 0.1523 0.50349 0.13932 0.0
C193 C 0.14146 0.54048 0.13564 0.0
C194 C 0.28556 0.58644 0.13026 0.0
C195 C 0.21768 0.54379 0.13448 0.0
C196 C 0.32352 0.58888 0.1296 0.0
C197 C 0.33503 0.55224 0.13228 0.0
C198 C 0.25846 0.54705 0.13367 0.0
C199 C 0.30706 0.51337 0.13559 0.0
C200 C 0.19019 0.505 0.13871 0.0
C201 C 0.1699 0.57858 0.13152 0.0
N202 N 0.27017 0.51181 0.13621 0.0
N203 N 0.20646 0.57919 0.13107 0.0
H204 H 0.80859 0.23879 0.54053 0.0
H205 H 0.8561 0.41115 0.42734 0.0
H206 H 0.73229 0.24152 0.47199 0.0
H207 H 0.93549 0.40789 0.4939 0.0
H208 H 0.80961 0.35089 0.44481 0.0
H209 H 0.85473 0.30192 0.52496 0.0
C210 C 0.80153 0.25254 0.52218 0.0
C211 C 0.76641 0.23467 0.50756 0.0
C212 C 0.83713 0.36334 0.45569 0.0
C213 C 0.81905 0.30727 0.48975 0.0
C214 C 0.86377 0.39788 0.44572 0.0
C215 C 0.89989 0.41461 0.45911 0.0
C216 C 0.84652 0.34513 0.47927 0.0
C217 C 0.90803 0.39602 0.48289 0.0
C218 C 0.82784 0.28875 0.51339 0.0
C219 C 0.7587 0.25439 0.48414 0.0
N220 N 0.88159 0.36218 0.49217 0.0
N221 N 0.78478 0.28946 0.47598 0.0
H222 H 0.4273 0.60967 0.84979 0.0
H223 H 0.55471 0.85264 0.86979 0.0
H224 H 0.53836 0.64889 0.89213 0.0
H225 H 0.43751 0.81428 0.83885 0.0
H226 H 0.54955 0.77814 0.87762 0.0
H227 H 0.43069 0.68433 0.84513 0.0
C228 C 0.45235 0.63394 0.85821 0.0
C229 C 0.48263 0.62292 0.87133 0.0
C230 C 0.52491 0.78602 0.86923 0.0
C231 C 0.48677 0.70859 0.86591 0.0
C232 C 0.52785 0.82858 0.86471 0.0
C233 C 0.49651 0.83975 0.85359 0.0
C234 C 0.49046 0.75429 0.86239 0.0
C235 C 0.4624 0.80717 0.84746 0.0
C236 C 0.45424 0.6766 0.85556 0.0
C237 C 0.51431 0.65582 0.88188 0.0
N238 N 0.46034 0.76593 0.85181 0.0
N239 N 0.51563 0.69712 0.8788 0.0
H240 H 0.92766 0.61006 0.14948 0.0
H241 H 0.71111 0.46987 0.15406 0.0
H242 H 0.88794 0.4743 0.13512 0.0
H243 H 0.74788 0.60692 0.15345 0.0
H244 H 0.77591 0.47055 0.14902 0.0
H245 H 0.86257 0.60924 0.15305 0.0
C246 C 0.90534 0.58002 0.14707 0.0
C247 C 0.91357 0.54217 0.14194 0.0
C248 C 0.7698 0.50048 0.1499 0.0
C249 C 0.83854 0.54104 0.14615 0.0
C250 C 0.73275 0.50013 0.15281 0.0
C251 C 0.72385 0.53841 0.15419 0.0
C252 C 0.79848 0.5394 0.1486 0.0
C253 C 0.75326 0.5766 0.15243 0.0
C254 C 0.86806 0.57962 0.14905 0.0
C255 C 0.88317 0.50432 0.13897 0.0
N256 N 0.78915 0.57612 0.14987 0.0
N257 N 0.84716 0.5047 0.14122 0.0
H258 H 0.25766 0.85788 0.47659 0.0
H259 H 0.20311 0.60403 0.47748 0.0
H260 H 0.33601 0.79117 0.50472 0.0
H261 H 0.12163 0.67186 0.4621 0.0
H262 H 0.25285 0.672 0.48564 0.0
H263 H 0.20824 0.78985 0.46912 0.0
C264 C 0.2645 0.82898 0.48133 0.0
C265 C 0.30117 0.83047 0.49144 0.0
C266 C 0.22407 0.672 0.48056 0.0
C267 C 0.24455 0.75211 0.48255 0.0
C268 C 0.19564 0.63319 0.4759 0.0
C269 C 0.1581 0.6322 0.4691 0.0
C270 C 0.215 0.71018 0.47823 0.0
C271 C 0.15013 0.67104 0.46734 0.0
C272 C 0.23624 0.79007 0.47694 0.0
C273 C 0.30837 0.79172 0.49662 0.0
N274 N 0.17833 0.70839 0.47177 0.0
N275 N 0.28035 0.7542 0.49214 0.0
H276 H 0.43369 0.34216 0.88285 0.0
H277 H 0.55594 0.197 0.83868 0.0
H278 H 0.54275 0.39074 0.85266 0.0
H279 H 0.44371 0.14514 0.86339 0.0
H280 H 0.55334 0.26835 0.84765 0.0
H281 H 0.43825 0.27001 0.8792 0.0
C282 C 0.45861 0.33772 0.87551 0.0
C283 C 0.48779 0.37261 0.86792 0.0
C284 C 0.52931 0.24142 0.85127 0.0
C285 C 0.49323 0.29019 0.86381 0.0
C286 C 0.53081 0.20057 0.84621 0.0
C287 C 0.49988 0.16496 0.8501 0.0
C288 C 0.49659 0.24694 0.86024 0.0
C289 C 0.46818 0.17167 0.86003 0.0
C290 C 0.46119 0.29652 0.87345 0.0
C291 C 0.51944 0.36489 0.85861 0.0
N292 N 0.46724 0.2119 0.86459 0.0
N293 N 0.52125 0.3246 0.85679 0.0
H294 H 0.59798 0.91965 0.53116 0.0
H295 H 0.46892 0.67626 0.52973 0.0
H296 H 0.47607 0.87961 0.52416 0.0
H297 H 0.58843 0.71731 0.55431 0.0
H298 H 0.47244 0.74994 0.52061 0.0
H299 H 0.59611 0.845 0.53317 0.0
C300 C 0.57083 0.89522 0.5299 0.0
C301 C 0.53714 0.90601 0.52772 0.0
C302 C 0.49795 0.74278 0.52782 0.0
C303 C 0.53484 0.82053 0.52986 0.0
C304 C 0.49601 0.70066 0.53292 0.0
C305 C 0.52838 0.69058 0.54304 0.0
C306 C 0.53253 0.77511 0.53274 0.0
C307 C 0.5627 0.72362 0.54672 0.0
C308 C 0.5698 0.85262 0.53109 0.0
C309 C 0.50279 0.87291 0.52613 0.0
N310 N 0.56383 0.76441 0.54171 0.0
N311 N 0.50254 0.83175 0.52727 0.0
H312 H 0.71146 0.45954 0.8252 0.0
H313 H 0.87893 0.47392 0.77862 0.0
H314 H 0.72186 0.58422 0.79499 0.0
H315 H 0.89398 0.60869 0.77968 0.0
H316 H 0.81082 0.46023 0.77675 0.0
H317 H 0.76684 0.45869 0.8039 0.0
C318 C 0.72506 0.48638 0.81351 0.0
C319 C 0.71255 0.52227 0.81219 0.0
C320 C 0.82891 0.49282 0.7774 0.0
C321 C 0.77589 0.52151 0.78715 0.0
C322 C 0.86784 0.50065 0.77807 0.0
C323 C 0.89221 0.54251 0.78032 0.0
C324 C 0.81447 0.52715 0.77964 0.0
C325 C 0.87629 0.57588 0.77867 0.0
C326 C 0.75653 0.48573 0.80097 0.0
C327 C 0.73077 0.55598 0.79656 0.0
N328 N 0.83842 0.56748 0.7791 0.0
N329 N 0.76208 0.55519 0.78511 0.0
H330 H 0.24567 0.7365 0.14368 0.0
H331 H 0.38648 0.97061 0.17714 0.0
H332 H 0.20855 0.84489 0.15951 0.0
H333 H 0.42218 0.85808 0.1766 0.0
H334 H 0.32184 0.92679 0.16358 0.0
H335 H 0.31103 0.78229 0.14949 0.0
C336 C 0.25122 0.7699 0.14847 0.0
C337 C 0.22147 0.78672 0.1514 0.0
C338 C 0.34389 0.91177 0.16622 0.0
C339 C 0.29637 0.83953 0.15759 0.0
C340 C 0.38086 0.93679 0.17382 0.0
C341 C 0.40975 0.91792 0.17828 0.0
C342 C 0.33578 0.86761 0.16294 0.0
C343 C 0.40076 0.87395 0.17362 0.0
C344 C 0.28857 0.79608 0.15159 0.0
C345 C 0.23046 0.83051 0.1569 0.0
N346 N 0.36453 0.85025 0.16638 0.0
N347 N 0.2671 0.85534 0.15993 0.0
H348 H 0.47741 0.14891 0.51222 0.0
H349 H 0.59474 0.38963 0.55479 0.0
H350 H 0.5945 0.18877 0.54363 0.0
H351 H 0.47486 0.34798 0.53162 0.0
H352 H 0.59627 0.31726 0.54709 0.0
H353 H 0.47708 0.22259 0.51555 0.0
C354 C 0.50311 0.17311 0.5197 0.0
C355 C 0.53597 0.16246 0.52781 0.0
C356 C 0.56964 0.32395 0.54359 0.0
C357 C 0.53574 0.247 0.53167 0.0
C358 C 0.56875 0.36534 0.54793 0.0
C359 C 0.53458 0.37491 0.54396 0.0
C360 C 0.53612 0.29179 0.53516 0.0
C361 C 0.50182 0.34206 0.53504 0.0
C362 C 0.50286 0.21521 0.52164 0.0
C363 C 0.56841 0.19532 0.53732 0.0
N364 N 0.50339 0.30198 0.53101 0.0
N365 N 0.56743 0.236 0.53903 0.0
H366 H 0.21538 0.46376 0.79086 0.0
H367 H 0.14714 0.66441 0.81449 0.0
H368 H 0.28946 0.58571 0.82035 0.0
H369 H 0.07403 0.54406 0.78169 0.0
H370 H 0.20177 0.64065 0.8085 0.0
H371 H 0.16574 0.49647 0.77939 0.0
C372 C 0.22133 0.49754 0.79457 0.0
C373 C 0.25636 0.52192 0.80693 0.0
C374 C 0.17381 0.6197 0.80218 0.0
C375 C 0.19973 0.55954 0.79407 0.0
C376 C 0.1426 0.6333 0.80556 0.0
C377 C 0.10596 0.60584 0.79909 0.0
C378 C 0.16826 0.57822 0.7925 0.0
C379 C 0.10176 0.56604 0.78736 0.0
C380 C 0.19306 0.51626 0.78795 0.0
C381 C 0.26286 0.56571 0.81085 0.0
N382 N 0.1325 0.55315 0.78486 0.0
N383 N 0.23459 0.58298 0.80486 0.0
H384 H 0.85176 0.23449 0.14779 0.0
H385 H 0.65379 0.22226 0.20156 0.0
H386 H 0.82274 0.34416 0.17315 0.0
H387 H 0.68789 0.11148 0.18659 0.0
H388 H 0.71458 0.26733 0.18919 0.0
H389 H 0.7912 0.18874 0.16038 0.0
C390 C 0.83281 0.24898 0.15614 0.0
C391 C 0.84241 0.29333 0.15932 0.0
C392 C 0.70881 0.23317 0.18861 0.0
C393 C 0.77277 0.24111 0.17345 0.0
C394 C 0.67404 0.20738 0.19562 0.0
C395 C 0.66573 0.16301 0.19513 0.0
C396 C 0.7355 0.2145 0.18093 0.0
C397 C 0.69311 0.14555 0.18729 0.0
C398 C 0.79813 0.22282 0.16319 0.0
C399 C 0.81638 0.31025 0.1699 0.0
N400 N 0.72675 0.17134 0.18047 0.0
N401 N 0.7828 0.28416 0.17652 0.0
H402 H 0.00797 0.60851 0.05469 0.0
H403 H 0.0227 0.50526 0.91549 0.0
H404 H 0.03123 0.48909 0.04705 0.0
H405 H 0.01596 0.63245 0.92515 0.0
H406 H 0.02476 0.49791 0.96341 0.0
H407 H 0.00882 0.61656 0.00702 0.0
C408 C 0.01313 0.58387 0.04299 0.0
C409 C 0.01948 0.548 0.05491 0.0
C410 C 0.02302 0.5275 0.95505 0.0
C411 C 0.02061 0.55715 0.0002 0.0
C412 C 0.02187 0.53176 0.92767 0.0
C413 C 0.01905 0.56952 0.91622 0.0
C414 C 0.02108 0.56112 0.97113 0.0
C415 C 0.01813 0.60275 0.93305 0.0
C416 C 0.01378 0.58859 0.01575 0.0
C417 C 0.02619 0.51724 0.03871 0.0
N418 N 0.01893 0.59767 0.95961 0.0
N419 N 0.0265 0.52248 0.01216 0.0
H420 H 0.49558 0.9786 0.43789 0.0
H421 H 0.59169 0.10353 0.31467 0.0
H422 H 0.59144 0.09235 0.4465 0.0
H423 H 0.50424 0.98229 0.30835 0.0
H424 H 0.59276 0.10041 0.3629 0.0
H425 H 0.49869 0.98005 0.39021 0.0
C426 C 0.51733 0.0039 0.42977 0.0
C427 C 0.54322 0.03547 0.44624 0.0
C428 C 0.57351 0.07443 0.35091 0.0
C429 C 0.54693 0.03735 0.39151 0.0
C430 C 0.5729 0.07617 0.32338 0.0
C431 C 0.54773 0.04322 0.3074 0.0
C432 C 0.54866 0.03959 0.36248 0.0
C433 C 0.52405 0.00853 0.31981 0.0
C434 C 0.51915 0.00466 0.4025 0.0
C435 C 0.57087 0.06737 0.43455 0.0
N436 N 0.52499 0.00776 0.34655 0.0
N437 N 0.57191 0.06759 0.40787 0.0
H438 H 0.54643 0.51191 0.79127 0.0
H439 H 0.44029 0.52178 0.65003 0.0
H440 H 0.42581 0.48868 0.78011 0.0
H441 H 0.54523 0.4917 0.66031 0.0
H442 H 0.43595 0.51645 0.69778 0.0
H443 H 0.54835 0.51207 0.74336 0.0
C444 C 0.52034 0.50698 0.77874 0.0
C445 C 0.48589 0.50036 0.78969 0.0
C446 C 0.45975 0.51074 0.68951 0.0
C447 C 0.48799 0.50067 0.73484 0.0
C448 C 0.46233 0.51387 0.6623 0.0
C449 C 0.49323 0.50724 0.65117 0.0
C450 C 0.48862 0.50169 0.70576 0.0
C451 C 0.52088 0.49695 0.66802 0.0
C452 C 0.52145 0.5068 0.7514 0.0
C453 C 0.45295 0.49378 0.77248 0.0
N454 N 0.51812 0.49492 0.69451 0.0
N455 N 0.45484 0.49443 0.74586 0.0
H456 H 0.48107 0.05163 0.60674 0.0
H457 H 0.54632 0.9699 0.74596 0.0
H458 H 0.57495 0.00094 0.61772 0.0
H459 H 0.46206 0.03493 0.73484 0.0
H460 H 0.55545 0.97722 0.69881 0.0
H461 H 0.47227 0.04249 0.65349 0.0
C462 C 0.49994 0.03864 0.61899 0.0
C463 C 0.52885 0.0271 0.60826 0.0
C464 C 0.53496 0.9898 0.70674 0.0
C465 C 0.51876 0.01631 0.66201 0.0
C466 C 0.52962 0.9855 0.73362 0.0
C467 C 0.50342 0.00188 0.74442 0.0
C468 C 0.5138 0.01043 0.69056 0.0
C469 C 0.48265 0.02189 0.72748 0.0
C470 C 0.49488 0.03341 0.64575 0.0
C471 C 0.55237 0.01041 0.62517 0.0
N472 N 0.48831 0.02558 0.70147 0.0
N473 N 0.54676 0.00541 0.65123 0.0
H474 H 0.52889 0.46084 0.96043 0.0
H475 H 0.47587 0.54911 0.09227 0.0
H476 H 0.43982 0.51887 0.95994 0.0
H477 H 0.5482 0.46959 0.09006 0.0
H478 H 0.4586 0.53573 0.04457 0.0
H479 H 0.5336 0.46174 0.00841 0.0
C480 C 0.51019 0.47369 0.97045 0.0
C481 C 0.48415 0.49015 0.95615 0.0
C482 C 0.47773 0.52067 0.05468 0.0
C483 C 0.48954 0.49156 0.01141 0.0
C484 C 0.48731 0.52798 0.08194 0.0
C485 C 0.51347 0.51038 0.09513 0.0
C486 C 0.4947 0.49589 0.04069 0.0
C487 C 0.5282 0.48413 0.08062 0.0
C488 C 0.51277 0.47405 0.99793 0.0
C489 C 0.46034 0.50593 0.97024 0.0
N490 N 0.51887 0.478 0.05424 0.0
N491 N 0.4639 0.50673 0.99717 0.0
H492 H 0.05364 0.60646 0.22499 0.0
H493 H 0.06609 0.47395 0.3537 0.0
H494 H 0.02462 0.4697 0.22095 0.0
H495 H 0.02177 0.58016 0.35434 0.0
H496 H 0.0662 0.47845 0.30547 0.0
H497 H 0.0571 0.60375 0.27346 0.0
C498 C 0.04832 0.57594 0.23433 0.0
C499 C 0.0387 0.53821 0.21905 0.0
C500 C 0.05663 0.5008 0.31627 0.0
C501 C 0.04327 0.53507 0.27411 0.0
C502 C 0.05673 0.49843 0.34371 0.0
C503 C 0.04376 0.52664 0.35793 0.0
C504 C 0.04445 0.5323 0.30315 0.0
C505 C 0.03174 0.55764 0.34404 0.0
C506 C 0.05011 0.57445 0.26186 0.0
C507 C 0.03186 0.49947 0.23207 0.0
N508 N 0.03263 0.55987 0.31738 0.0
N509 N 0.03457 0.49889 0.25891 0.0
loop_
_geom_bond_atom_site_label_1
_geom_bond_atom_site_label_2
_geom_bond_distance
_geom_bond_site_symmetry_2
_ccdc_geom_bond_type
Dy0 O3 2.307 1_455 S
Dy0 O5 2.395 . S
Dy0 O6 2.379 . S
Dy0 O8 2.339 . S
Dy0 O10 2.298 . S
Dy0 O14 2.275 . S
Dy0 C22 2.738 . S
Dy1 O4 2.298 . S
Dy1 O7 2.275 1_655 S
Dy1 O9 2.307 1_655 S
Dy1 O11 2.395 . S
Dy1 O12 2.379 . S
Dy1 O15 2.339 . S
Dy1 C31 2.738 . S
C2 O14 1.254 . S
C2 O15 1.257 1_455 S
O3 Dy0 2.307 1_655 S
O3 C13 1.266 . S
O4 Dy1 2.298 . S
O4 C13 1.236 . S
O5 Dy0 2.395 . S
O5 C22 1.255 . S
O6 Dy0 2.379 . S
O6 C22 1.249 . S
O7 Dy1 2.275 1_455 S
O7 C23 1.254 . S
O8 Dy0 2.339 . S
O8 C23 1.257 . S
O9 Dy1 2.307 1_455 S
O9 C24 1.266 . S
O10 Dy0 2.298 . S
O10 C24 1.236 . S
O11 Dy1 2.395 . S
O11 C31 1.255 . S
O12 Dy1 2.379 . S
O12 C31 1.249 . S
C13 O3 1.266 . S
C13 O4 1.236 . S
O14 Dy0 2.275 . S
O14 C2 1.254 . S
O15 Dy1 2.339 . S
O15 C2 1.257 1_655 S
C16 C19 1.344 . S
C16 C20 1.328 . S
C16 C22 1.516 . S
C17 C18 1.304 . S
C17 C21 1.323 . S
C18 C17 1.304 . S
C18 C19 1.371 . S
C18 H32 0.930 . S
C19 C16 1.344 . S
C19 C18 1.371 . S
C19 H33 0.931 . S
C20 C16 1.328 . S
C20 C21 1.433 . S
C20 H34 0.931 . S
C21 C17 1.323 . S
C21 C20 1.433 . S
C21 H35 0.933 . S
C22 Dy0 2.738 . S
C22 O5 1.255 . S
C22 O6 1.249 . S
C22 C16 1.516 . S
C23 O7 1.254 . S
C23 O8 1.257 . S
C24 O9 1.266 . S
C24 O10 1.236 . S
C25 C28 1.344 . S
C25 C29 1.328 . S
C25 C31 1.516 . S
C26 C27 1.304 . S
C26 C30 1.323 . S
C27 C26 1.304 . S
C27 C28 1.371 . S
C27 H36 0.930 . S
C28 C25 1.344 . S
C28 C27 1.371 . S
C28 H37 0.931 . S
C29 C25 1.328 . S
C29 C30 1.433 . S
C29 H38 0.931 . S
C30 C26 1.323 . S
C30 C29 1.433 . S
C30 H39 0.933 . S
C31 Dy1 2.738 . S
C31 O11 1.255 . S
C31 O12 1.249 . S
C31 C25 1.516 . S
H32 C18 0.930 . S
H33 C19 0.931 . S
H34 C20 0.931 . S
H35 C21 0.933 . S
H36 C27 0.930 . S
H37 C28 0.931 . S
H38 C29 0.931 . S
H39 C30 0.933 . S
Dy40 O43 2.307 . S
Dy40 O45 2.395 1_545 S
Dy40 O46 2.379 1_545 S
Dy40 O48 2.339 . S
Dy40 O50 2.298 1_545 S
Dy40 O54 2.275 . S
Dy40 C62 2.738 1_545 S
Dy41 O44 2.298 . S
Dy41 O47 2.275 . S
Dy41 O49 2.307 1_545 S
Dy41 O51 2.395 . S
Dy41 O52 2.379 . S
Dy41 O55 2.339 . S
Dy41 C71 2.738 . S
C42 O54 1.254 . S
C42 O55 1.257 . S
O43 Dy40 2.307 . S
O43 C53 1.266 . S
O44 Dy41 2.298 . S
O44 C53 1.236 . S
O45 Dy40 2.395 1_565 S
O45 C62 1.255 . S
O46 Dy40 2.379 1_565 S
O46 C62 1.249 . S
O47 Dy41 2.275 . S
O47 C63 1.254 . S
O48 Dy40 2.339 . S
O48 C63 1.257 . S
O49 Dy41 2.307 1_565 S
O49 C64 1.266 . S
O50 Dy40 2.298 1_565 S
O50 C64 1.236 . S
O51 Dy41 2.395 . S
O51 C71 1.255 . S
O52 Dy41 2.379 . S
O52 C71 1.249 . S
C53 O43 1.266 . S
C53 O44 1.236 . S
O54 Dy40 2.275 . S
O54 C42 1.254 . S
O55 Dy41 2.339 . S
O55 C42 1.257 . S
C56 C59 1.344 . S
C56 C60 1.328 . S
C56 C62 1.516 . S
C57 C58 1.304 . S
C57 C61 1.323 . S
C58 C57 1.304 . S
C58 C59 1.371 . S
C58 H72 0.930 . S
C59 C56 1.344 . S
C59 C58 1.371 . S
C59 H73 0.931 . S
C60 C56 1.328 . S
C60 C61 1.433 . S
C60 H74 0.931 . S
C61 C57 1.323 . S
C61 C60 1.433 . S
C61 H75 0.933 . S
C62 Dy40 2.738 1_565 S
C62 O45 1.255 . S
C62 O46 1.249 . S
C62 C56 1.516 . S
C63 O47 1.254 . S
C63 O48 1.257 . S
C64 O49 1.266 . S
C64 O50 1.236 . S
C65 C68 1.344 . S
C65 C69 1.328 . S
C65 C71 1.516 . S
C66 C67 1.304 . S
C66 C70 1.323 . S
C67 C66 1.304 . S
C67 C68 1.371 . S
C67 H76 0.930 . S
C68 C65 1.344 . S
C68 C67 1.371 . S
C68 H77 0.931 . S
C69 C65 1.328 . S
C69 C70 1.433 . S
C69 H78 0.931 . S
C70 C66 1.323 . S
C70 C69 1.433 . S
C70 H79 0.933 . S
C71 Dy41 2.738 . S
C71 O51 1.255 . S
C71 O52 1.249 . S
C71 C65 1.516 . S
H72 C58 0.930 . S
H73 C59 0.931 . S
H74 C60 0.931 . S
H75 C61 0.933 . S
H76 C67 0.930 . S
H77 C68 0.931 . S
H78 C69 0.931 . S
H79 C70 0.933 . S
Dy80 O83 2.307 . S
Dy80 O85 2.395 . S
Dy80 O86 2.379 . S
Dy80 O88 2.339 . S
Dy80 O90 2.298 . S
Dy80 O94 2.275 . S
Dy80 C102 2.738 . S
Dy81 O84 2.298 . S
Dy81 O87 2.275 . S
Dy81 O89 2.307 . S
Dy81 O91 2.395 . S
Dy81 O92 2.379 . S
Dy81 O95 2.339 . S
Dy81 C111 2.738 . S
C82 O94 1.254 . S
C82 O95 1.257 . S
O83 Dy80 2.307 . S
O83 C93 1.266 . S
O84 Dy81 2.298 . S
O84 C93 1.236 . S
O85 Dy80 2.395 . S
O85 C102 1.255 . S
O86 Dy80 2.379 . S
O86 C102 1.249 . S
O87 Dy81 2.275 . S
O87 C103 1.254 . S
O88 Dy80 2.339 . S
O88 C103 1.257 . S
O89 Dy81 2.307 . S
O89 C104 1.266 . S
O90 Dy80 2.298 . S
O90 C104 1.236 . S
O91 Dy81 2.395 . S
O91 C111 1.255 . S
O92 Dy81 2.379 . S
O92 C111 1.249 . S
C93 O83 1.266 . S
C93 O84 1.236 . S
O94 Dy80 2.275 . S
O94 C82 1.254 . S
O95 Dy81 2.339 . S
O95 C82 1.257 . S
C96 C99 1.344 . S
C96 C100 1.328 . S
C96 C102 1.516 . S
C97 C98 1.304 . S
C97 C101 1.323 . S
C98 C97 1.304 . S
C98 C99 1.371 . S
C98 H112 0.930 . S
C99 C96 1.344 . S
C99 C98 1.371 . S
C99 H113 0.931 . S
C100 C96 1.328 . S
C100 C101 1.433 . S
C100 H114 0.931 . S
C101 C97 1.323 . S
C101 C100 1.433 . S
C101 H115 0.933 . S
C102 Dy80 2.738 . S
C102 O85 1.255 . S
C102 O86 1.249 . S
C102 C96 1.516 . S
C103 O87 1.254 . S
C103 O88 1.257 . S
C104 O89 1.266 . S
C104 O90 1.236 . S
C105 C108 1.344 . S
C105 C109 1.328 . S
C105 C111 1.516 . S
C106 C107 1.304 . S
C106 C110 1.323 . S
C107 C106 1.304 . S
C107 C108 1.371 . S
C107 H116 0.930 . S
C108 C105 1.344 . S
C108 C107 1.371 . S
C108 H117 0.931 . S
C109 C105 1.328 . S
C109 C110 1.433 . S
C109 H118 0.931 . S
C110 C106 1.323 . S
C110 C109 1.433 . S
C110 H119 0.933 . S
C111 Dy81 2.738 . S
C111 O91 1.255 . S
C111 O92 1.249 . S
C111 C105 1.516 . S
H112 C98 0.930 . S
H113 C99 0.931 . S
H114 C100 0.931 . S
H115 C101 0.933 . S
H116 C107 0.930 . S
H117 C108 0.931 . S
H118 C109 0.931 . S
H119 C110 0.933 . S
O120 Cd121 2.300 . S
O120 C127 1.275 . S
Cd121 O120 2.300 . S
Cd121 O129 2.381 . S
Cd121 O130 2.378 . S
O122 Cd123 2.385 1_545 S
O122 C127 1.255 . S
Cd123 O122 2.385 1_565 S
Cd123 O124 2.317 . S
O124 Cd123 2.317 . S
O124 C125 1.232 . S
C125 O124 1.232 . S
C125 O126 1.218 . S
O126 C125 1.218 . S
C127 O120 1.275 . S
C127 O122 1.255 . S
C128 O129 1.258 . S
C128 O130 1.256 . S
O129 Cd121 2.381 . S
O129 C128 1.258 . S
O130 Cd121 2.378 . S
O130 C128 1.256 . S
O131 Cd132 2.300 . S
O131 C138 1.275 . S
Cd132 O131 2.300 . S
Cd132 O140 2.381 . S
Cd132 O141 2.378 . S
O133 Cd134 2.385 . S
O133 C138 1.255 . S
Cd134 O133 2.385 . S
Cd134 O135 2.317 . S
O135 Cd134 2.317 . S
O135 C136 1.232 . S
C136 O135 1.232 . S
C136 O137 1.218 . S
O137 C136 1.218 . S
C138 O131 1.275 . S
C138 O133 1.255 . S
C139 O140 1.258 . S
C139 O141 1.256 . S
O140 Cd132 2.381 . S
O140 C139 1.258 . S
O141 Cd132 2.378 . S
O141 C139 1.256 . S
O142 Cd143 2.300 . S
O142 C149 1.275 . S
Cd143 O142 2.300 . S
Cd143 O151 2.381 . S
Cd143 O152 2.378 . S
O144 Cd145 2.385 . S
O144 C149 1.255 1_655 S
Cd145 O144 2.385 . S
Cd145 O146 2.317 . S
O146 Cd145 2.317 . S
O146 C147 1.232 . S
C147 O146 1.232 . S
C147 O148 1.218 . S
O148 C147 1.218 . S
C149 O142 1.275 . S
C149 O144 1.255 1_455 S
C150 O151 1.258 . S
C150 O152 1.256 . S
O151 Cd143 2.381 . S
O151 C150 1.258 . S
O152 Cd143 2.378 . S
O152 C150 1.256 . S
O153 Cd154 2.300 . S
O153 C160 1.275 . S
Cd154 O153 2.300 . S
Cd154 O162 2.381 . S
Cd154 O163 2.378 . S
O155 Cd156 2.385 . S
O155 C160 1.255 1_655 S
Cd156 O155 2.385 . S
Cd156 O157 2.317 . S
O157 Cd156 2.317 . S
O157 C158 1.232 . S
C158 O157 1.232 . S
C158 O159 1.218 . S
O159 C158 1.218 . S
C160 O153 1.275 . S
C160 O155 1.255 1_455 S
C161 O162 1.258 . S
C161 O163 1.256 . S
O162 Cd154 2.381 . S
O162 C161 1.258 . S
O163 Cd154 2.378 . S
O163 C161 1.256 . S
O164 Cd165 2.300 . S
O164 C171 1.275 1_565 S
Cd165 O164 2.300 . S
Cd165 O173 2.381 . S
Cd165 O174 2.378 . S
O166 Cd167 2.385 . S
O166 C171 1.255 . S
Cd167 O166 2.385 . S
Cd167 O168 2.317 . S
O168 Cd167 2.317 . S
O168 C169 1.232 . S
C169 O168 1.232 . S
C169 O170 1.218 . S
O170 C169 1.218 . S
C171 O164 1.275 1_545 S
C171 O166 1.255 . S
C172 O173 1.258 . S
C172 O174 1.256 . S
O173 Cd165 2.381 . S
O173 C172 1.258 . S
O174 Cd165 2.378 . S
O174 C172 1.256 . S
O175 Cd176 2.300 . S
O175 C182 1.275 . S
Cd176 O175 2.300 . S
Cd176 O184 2.381 . S
Cd176 O185 2.378 . S
O177 Cd178 2.385 . S
O177 C182 1.255 . S
Cd178 O177 2.385 . S
Cd178 O179 2.317 . S
O179 Cd178 2.317 . S
O179 C180 1.232 . S
C180 O179 1.232 . S
C180 O181 1.218 . S
O181 C180 1.218 . S
C182 O175 1.275 . S
C182 O177 1.255 . S
C183 O184 1.258 . S
C183 O185 1.256 . S
O184 Cd176 2.381 . S
O184 C183 1.258 . S
O185 Cd176 2.378 . S
O185 C183 1.256 . S
H186 C192 0.930 . S
H187 C196 0.930 . S
H188 C201 0.929 . S
H189 C199 0.929 . S
H190 C194 0.929 . S
H191 C200 0.929 . S
C192 H186 0.930 . S
C192 C193 1.367 . S
C192 C200 1.378 . S
C193 C192 1.367 . S
C193 C201 1.433 . S
C194 H190 0.929 . S
C194 C196 1.378 . S
C194 C198 1.350 . S
C195 C198 1.463 . S
C195 C200 1.350 . S
C195 N203 1.427 . S
C196 H187 0.930 . S
C196 C194 1.378 . S
C196 C197 1.367 . S
C197 C196 1.367 . S
C197 C199 1.433 . S
C198 C194 1.350 . S
C198 C195 1.463 . S
C198 N202 1.427 . S
C199 H189 0.929 . S
C199 C197 1.433 . S
C199 N202 1.384 . S
C200 H191 0.929 . S
C200 C192 1.378 . S
C200 C195 1.350 . S
C201 H188 0.929 . S
C201 C193 1.433 . S
C201 N203 1.384 . S
N202 C198 1.427 . S
N202 C199 1.384 . S
N203 C195 1.427 . S
N203 C201 1.384 . S
H204 C210 0.930 . S
H205 C214 0.930 . S
H206 C219 0.929 . S
H207 C217 0.929 . S
H208 C212 0.929 . S
H209 C218 0.929 . S
C210 H204 0.930 . S
C210 C211 1.367 . S
C210 C218 1.378 . S
C211 C210 1.367 . S
C211 C219 1.433 . S
C212 H208 0.929 . S
C212 C214 1.378 . S
C212 C216 1.350 . S
C213 C216 1.463 . S
C213 C218 1.350 . S
C213 N221 1.427 . S
C214 H205 0.930 . S
C214 C212 1.378 . S
C214 C215 1.367 . S
C215 C214 1.367 . S
C215 C217 1.433 . S
C216 C212 1.350 . S
C216 C213 1.463 . S
C216 N220 1.427 . S
C217 H207 0.929 . S
C217 C215 1.433 . S
C217 N220 1.384 . S
C218 H209 0.929 . S
C218 C210 1.378 . S
C218 C213 1.350 . S
C219 H206 0.929 . S
C219 C211 1.433 . S
C219 N221 1.384 . S
N220 C216 1.427 . S
N220 C217 1.384 . S
N221 C213 1.427 . S
N221 C219 1.384 . S
H222 C228 0.930 . S
H223 C232 0.930 . S
H224 C237 0.929 . S
H225 C235 0.929 . S
H226 C230 0.929 . S
H227 C236 0.929 . S
C228 H222 0.930 . S
C228 C229 1.367 . S
C228 C236 1.378 . S
C229 C228 1.367 . S
C229 C237 1.433 . S
C230 H226 0.929 . S
C230 C232 1.378 . S
C230 C234 1.350 . S
C231 C234 1.463 . S
C231 C236 1.350 . S
C231 N239 1.427 . S
C232 H223 0.930 . S
C232 C230 1.378 . S
C232 C233 1.367 . S
C233 C232 1.367 . S
C233 C235 1.433 . S
C234 C230 1.350 . S
C234 C231 1.463 . S
C234 N238 1.427 . S
C235 H225 0.929 . S
C235 C233 1.433 . S
C235 N238 1.384 . S
C236 H227 0.929 . S
C236 C228 1.378 . S
C236 C231 1.350 . S
C237 H224 0.929 . S
C237 C229 1.433 . S
C237 N239 1.384 . S
N238 C234 1.427 . S
N238 C235 1.384 . S
N239 C231 1.427 . S
N239 C237 1.384 . S
H240 C246 0.930 . S
H241 C250 0.930 . S
H242 C255 0.929 . S
H243 C253 0.929 . S
H244 C248 0.929 . S
H245 C254 0.929 . S
C246 H240 0.930 . S
C246 C247 1.367 . S
C246 C254 1.378 . S
C247 C246 1.367 . S
C247 C255 1.433 . S
C248 H244 0.929 . S
C248 C250 1.378 . S
C248 C252 1.350 . S
C249 C252 1.463 . S
C249 C254 1.350 . S
C249 N257 1.427 . S
C250 H241 0.930 . S
C250 C248 1.378 . S
C250 C251 1.367 . S
C251 C250 1.367 . S
C251 C253 1.433 . S
C252 C248 1.350 . S
C252 C249 1.463 . S
C252 N256 1.427 . S
C253 H243 0.929 . S
C253 C251 1.433 . S
C253 N256 1.384 . S
C254 H245 0.929 . S
C254 C246 1.378 . S
C254 C249 1.350 . S
C255 H242 0.929 . S
C255 C247 1.433 . S
C255 N257 1.384 . S
N256 C252 1.427 . S
N256 C253 1.384 . S
N257 C249 1.427 . S
N257 C255 1.384 . S
H258 C264 0.930 . S
H259 C268 0.930 . S
H260 C273 0.929 . S
H261 C271 0.929 . S
H262 C266 0.929 . S
H263 C272 0.929 . S
C264 H258 0.930 . S
C264 C265 1.367 . S
C264 C272 1.378 . S
C265 C264 1.367 . S
C265 C273 1.433 . S
C266 H262 0.929 . S
C266 C268 1.378 . S
C266 C270 1.350 . S
C267 C270 1.463 . S
C267 C272 1.350 . S
C267 N275 1.427 . S
C268 H259 0.930 . S
C268 C266 1.378 . S
C268 C269 1.367 . S
C269 C268 1.367 . S
C269 C271 1.433 . S
C270 C266 1.350 . S
C270 C267 1.463 . S
C270 N274 1.427 . S
C271 H261 0.929 . S
C271 C269 1.433 . S
C271 N274 1.384 . S
C272 H263 0.929 . S
C272 C264 1.378 . S
C272 C267 1.350 . S
C273 H260 0.929 . S
C273 C265 1.433 . S
C273 N275 1.384 . S
N274 C270 1.427 . S
N274 C271 1.384 . S
N275 C267 1.427 . S
N275 C273 1.384 . S
H276 C282 0.930 . S
H277 C286 0.930 . S
H278 C291 0.929 . S
H279 C289 0.929 . S
H280 C284 0.929 . S
H281 C290 0.929 . S
C282 H276 0.930 . S
C282 C283 1.367 . S
C282 C290 1.378 . S
C283 C282 1.367 . S
C283 C291 1.433 . S
C284 H280 0.929 . S
C284 C286 1.378 . S
C284 C288 1.350 . S
C285 C288 1.463 . S
C285 C290 1.350 . S
C285 N293 1.427 . S
C286 H277 0.930 . S
C286 C284 1.378 . S
C286 C287 1.367 . S
C287 C286 1.367 . S
C287 C289 1.433 . S
C288 C284 1.350 . S
C288 C285 1.463 . S
C288 N292 1.427 . S
C289 H279 0.929 . S
C289 C287 1.433 . S
C289 N292 1.384 . S
C290 H281 0.929 . S
C290 C282 1.378 . S
C290 C285 1.350 . S
C291 H278 0.929 . S
C291 C283 1.433 . S
C291 N293 1.384 . S
N292 C288 1.427 . S
N292 C289 1.384 . S
N293 C285 1.427 . S
N293 C291 1.384 . S
H294 C300 0.930 . S
H295 C304 0.930 . S
H296 C309 0.929 . S
H297 C307 0.929 . S
H298 C302 0.929 . S
H299 C308 0.929 . S
C300 H294 0.930 . S
C300 C301 1.367 . S
C300 C308 1.378 . S
C301 C300 1.367 . S
C301 C309 1.433 . S
C302 H298 0.929 . S
C302 C304 1.378 . S
C302 C306 1.350 . S
C303 C306 1.463 . S
C303 C308 1.350 . S
C303 N311 1.427 . S
C304 H295 0.930 . S
C304 C302 1.378 . S
C304 C305 1.367 . S
C305 C304 1.367 . S
C305 C307 1.433 . S
C306 C302 1.350 . S
C306 C303 1.463 . S
C306 N310 1.427 . S
C307 H297 0.929 . S
C307 C305 1.433 . S
C307 N310 1.384 . S
C308 H299 0.929 . S
C308 C300 1.378 . S
C308 C303 1.350 . S
C309 H296 0.929 . S
C309 C301 1.433 . S
C309 N311 1.384 . S
N310 C306 1.427 . S
N310 C307 1.384 . S
N311 C303 1.427 . S
N311 C309 1.384 . S
H312 C318 0.930 . S
H313 C322 0.930 . S
H314 C327 0.929 . S
H315 C325 0.929 . S
H316 C320 0.929 . S
H317 C326 0.929 . S
C318 H312 0.930 . S
C318 C319 1.367 . S
C318 C326 1.378 . S
C319 C318 1.367 . S
C319 C327 1.433 . S
C320 H316 0.929 . S
C320 C322 1.378 . S
C320 C324 1.350 . S
C321 C324 1.463 . S
C321 C326 1.350 . S
C321 N329 1.427 . S
C322 H313 0.930 . S
C322 C320 1.378 . S
C322 C323 1.367 . S
C323 C322 1.367 . S
C323 C325 1.433 . S
C324 C320 1.350 . S
C324 C321 1.463 . S
C324 N328 1.427 . S
C325 H315 0.929 . S
C325 C323 1.433 . S
C325 N328 1.384 . S
C326 H317 0.929 . S
C326 C318 1.378 . S
C326 C321 1.350 . S
C327 H314 0.929 . S
C327 C319 1.433 . S
C327 N329 1.384 . S
N328 C324 1.427 . S
N328 C325 1.384 . S
N329 C321 1.427 . S
N329 C327 1.384 . S
H330 C336 0.930 . S
H331 C340 0.930 . S
H332 C345 0.929 . S
H333 C343 0.929 . S
H334 C338 0.929 . S
H335 C344 0.929 . S
C336 H330 0.930 . S
C336 C337 1.367 . S
C336 C344 1.378 . S
C337 C336 1.367 . S
C337 C345 1.433 . S
C338 H334 0.929 . S
C338 C340 1.378 . S
C338 C342 1.350 . S
C339 C342 1.463 . S
C339 C344 1.350 . S
C339 N347 1.427 . S
C340 H331 0.930 . S
C340 C338 1.378 . S
C340 C341 1.367 . S
C341 C340 1.367 . S
C341 C343 1.433 . S
C342 C338 1.350 . S
C342 C339 1.463 . S
C342 N346 1.427 . S
C343 H333 0.929 . S
C343 C341 1.433 . S
C343 N346 1.384 . S
C344 H335 0.929 . S
C344 C336 1.378 . S
C344 C339 1.350 . S
C345 H332 0.929 . S
C345 C337 1.433 . S
C345 N347 1.384 . S
N346 C342 1.427 . S
N346 C343 1.384 . S
N347 C339 1.427 . S
N347 C345 1.384 . S
H348 C354 0.930 . S
H349 C358 0.930 . S
H350 C363 0.929 . S
H351 C361 0.929 . S
H352 C356 0.929 . S
H353 C362 0.929 . S
C354 H348 0.930 . S
C354 C355 1.367 . S
C354 C362 1.378 . S
C355 C354 1.367 . S
C355 C363 1.433 . S
C356 H352 0.929 . S
C356 C358 1.378 . S
C356 C360 1.350 . S
C357 C360 1.463 . S
C357 C362 1.350 . S
C357 N365 1.427 . S
C358 H349 0.930 . S
C358 C356 1.378 . S
C358 C359 1.367 . S
C359 C358 1.367 . S
C359 C361 1.433 . S
C360 C356 1.350 . S
C360 C357 1.463 . S
C360 N364 1.427 . S
C361 H351 0.929 . S
C361 C359 1.433 . S
C361 N364 1.384 . S
C362 H353 0.929 . S
C362 C354 1.378 . S
C362 C357 1.350 . S
C363 H350 0.929 . S
C363 C355 1.433 . S
C363 N365 1.384 . S
N364 C360 1.427 . S
N364 C361 1.384 . S
N365 C357 1.427 . S
N365 C363 1.384 . S
H366 C372 0.930 . S
H367 C376 0.930 . S
H368 C381 0.929 . S
H369 C379 0.929 . S
H370 C374 0.929 . S
H371 C380 0.929 . S
C372 H366 0.930 . S
C372 C373 1.367 . S
C372 C380 1.378 . S
C373 C372 1.367 . S
C373 C381 1.433 . S
C374 H370 0.929 . S
C374 C376 1.378 . S
C374 C378 1.350 . S
C375 C378 1.463 . S
C375 C380 1.350 . S
C375 N383 1.427 . S
C376 H367 0.930 . S
C376 C374 1.378 . S
C376 C377 1.367 . S
C377 C376 1.367 . S
C377 C379 1.433 . S
C378 C374 1.350 . S
C378 C375 1.463 . S
C378 N382 1.427 . S
C379 H369 0.929 . S
C379 C377 1.433 . S
C379 N382 1.384 . S
C380 H371 0.929 . S
C380 C372 1.378 . S
C380 C375 1.350 . S
C381 H368 0.929 . S
C381 C373 1.433 . S
C381 N383 1.384 . S
N382 C378 1.427 . S
N382 C379 1.384 . S
N383 C375 1.427 . S
N383 C381 1.384 . S
H384 C390 0.930 . S
H385 C394 0.930 . S
H386 C399 0.929 . S
H387 C397 0.929 . S
H388 C392 0.929 . S
H389 C398 0.929 . S
C390 H384 0.930 . S
C390 C391 1.367 . S
C390 C398 1.378 . S
C391 C390 1.367 . S
C391 C399 1.433 . S
C392 H388 0.929 . S
C392 C394 1.378 . S
C392 C396 1.350 . S
C393 C396 1.463 . S
C393 C398 1.350 . S
C393 N401 1.427 . S
C394 H385 0.930 . S
C394 C392 1.378 . S
C394 C395 1.367 . S
C395 C394 1.367 . S
C395 C397 1.433 . S
C396 C392 1.350 . S
C396 C393 1.463 . S
C396 N400 1.427 . S
C397 H387 0.929 . S
C397 C395 1.433 . S
C397 N400 1.384 . S
C398 H389 0.929 . S
C398 C390 1.378 . S
C398 C393 1.350 . S
C399 H386 0.929 . S
C399 C391 1.433 . S
C399 N401 1.384 . S
N400 C396 1.427 . S
N400 C397 1.384 . S
N401 C393 1.427 . S
N401 C399 1.384 . S
H402 C408 0.930 . S
H403 C412 0.930 . S
H404 C417 0.929 . S
H405 C415 0.929 . S
H406 C410 0.929 1_554 S
H407 C416 0.929 . S
C408 H402 0.930 . S
C408 C409 1.367 . S
C408 C416 1.378 . S
C409 C408 1.367 . S
C409 C417 1.433 1_455 S
C410 H406 0.929 1_556 S
C410 C412 1.378 . S
C410 C414 1.350 1_656 S
C411 C414 1.463 . S
C411 C416 1.350 . S
C411 N419 1.427 1_455 S
C412 H403 0.930 . S
C412 C410 1.378 . S
C412 C413 1.367 1_655 S
C413 C412 1.367 1_455 S
C413 C415 1.433 . S
C414 C410 1.350 1_454 S
C414 C411 1.463 . S
C414 N418 1.428 . S
C415 H405 0.929 . S
C415 C413 1.433 . S
C415 N418 1.382 1_556 S
C416 H407 0.929 . S
C416 C408 1.378 . S
C416 C411 1.350 . S
C417 H404 0.929 . S
C417 C409 1.433 1_655 S
C417 N419 1.384 . S
N418 C414 1.428 . S
N418 C415 1.382 1_554 S
N419 C411 1.427 1_655 S
N419 C417 1.384 . S
H420 C426 0.930 1_565 S
H421 C430 0.930 . S
H422 C435 0.929 . S
H423 C433 0.929 1_565 S
H424 C428 0.929 . S
H425 C434 0.929 1_565 S
C426 H420 0.930 1_545 S
C426 C427 1.367 . S
C426 C434 1.378 . S
C427 C426 1.367 . S
C427 C435 1.433 . S
C428 H424 0.929 . S
C428 C430 1.378 . S
C428 C432 1.350 . S
C429 C432 1.463 . S
C429 C434 1.350 . S
C429 N437 1.427 . S
C430 H421 0.930 . S
C430 C428 1.378 . S
C430 C431 1.367 . S
C431 C430 1.367 . S
C431 C433 1.433 . S
C432 C428 1.350 . S
C432 C429 1.463 . S
C432 N436 1.427 . S
C433 H423 0.929 1_545 S
C433 C431 1.433 . S
C433 N436 1.384 . S
C434 H425 0.929 1_545 S
C434 C426 1.378 . S
C434 C429 1.350 . S
C435 H422 0.929 . S
C435 C427 1.433 . S
C435 N437 1.384 . S
N436 C432 1.427 . S
N436 C433 1.384 . S
N437 C429 1.427 . S
N437 C435 1.384 . S
H438 C444 0.930 . S
H439 C448 0.930 . S
H440 C453 0.929 . S
H441 C451 0.929 . S
H442 C446 0.929 . S
H443 C452 0.929 . S
C444 H438 0.930 . S
C444 C445 1.367 . S
C444 C452 1.378 . S
C445 C444 1.367 . S
C445 C453 1.433 . S
C446 H442 0.929 . S
C446 C448 1.378 . S
C446 C450 1.350 . S
C447 C450 1.463 . S
C447 C452 1.350 . S
C447 N455 1.427 . S
C448 H439 0.930 . S
C448 C446 1.378 . S
C448 C449 1.367 . S
C449 C448 1.367 . S
C449 C451 1.433 . S
C450 C446 1.350 . S
C450 C447 1.463 . S
C450 N454 1.427 . S
C451 H441 0.929 . S
C451 C449 1.433 . S
C451 N454 1.384 . S
C452 H443 0.929 . S
C452 C444 1.378 . S
C452 C447 1.350 . S
C453 H440 0.929 . S
C453 C445 1.433 . S
C453 N455 1.384 . S
N454 C450 1.427 . S
N454 C451 1.384 . S
N455 C447 1.427 . S
N455 C453 1.384 . S
H456 C462 0.930 . S
H457 C466 0.930 . S
H458 C471 0.929 . S
H459 C469 0.929 . S
H460 C464 0.929 . S
H461 C470 0.929 . S
C462 H456 0.930 . S
C462 C463 1.367 . S
C462 C470 1.378 . S
C463 C462 1.367 . S
C463 C471 1.433 1_545 S
C464 H460 0.929 . S
C464 C466 1.378 . S
C464 C468 1.350 1_565 S
C465 C468 1.463 . S
C465 C470 1.350 . S
C465 N473 1.427 1_545 S
C466 H457 0.930 . S
C466 C464 1.378 . S
C466 C467 1.367 1_565 S
C467 C466 1.367 1_545 S
C467 C469 1.433 . S
C468 C464 1.350 1_545 S
C468 C465 1.463 . S
C468 N472 1.427 . S
C469 H459 0.929 . S
C469 C467 1.433 . S
C469 N472 1.384 . S
C470 H461 0.929 . S
C470 C462 1.378 . S
C470 C465 1.350 . S
C471 H458 0.929 . S
C471 C463 1.433 1_565 S
C471 N473 1.384 . S
N472 C468 1.427 . S
N472 C469 1.384 . S
N473 C465 1.427 1_565 S
N473 C471 1.384 . S
H474 C480 0.930 . S
H475 C484 0.930 . S
H476 C489 0.929 . S
H477 C487 0.929 . S
H478 C482 0.929 1_556 S
H479 C488 0.929 . S
C480 H474 0.930 . S
C480 C481 1.367 . S
C480 C488 1.378 . S
C481 C480 1.367 . S
C481 C489 1.433 . S
C482 H478 0.929 1_554 S
C482 C484 1.378 . S
C482 C486 1.350 1_554 S
C483 C486 1.463 . S
C483 C488 1.350 . S
C483 N491 1.427 . S
C484 H475 0.930 . S
C484 C482 1.378 . S
C484 C485 1.367 . S
C485 C484 1.367 . S
C485 C487 1.433 . S
C486 C482 1.350 1_556 S
C486 C483 1.463 . S
C486 N490 1.427 1_556 S
C487 H477 0.929 . S
C487 C485 1.433 . S
C487 N490 1.384 . S
C488 H479 0.929 . S
C488 C480 1.378 . S
C488 C483 1.350 . S
C489 H476 0.929 . S
C489 C481 1.433 . S
C489 N491 1.384 . S
N490 C486 1.427 1_554 S
N490 C487 1.384 . S
N491 C483 1.427 . S
N491 C489 1.384 . S
H492 C498 0.930 . S
H493 C502 0.930 . S
H494 C507 0.929 . S
H495 C505 0.929 . S
H496 C500 0.929 . S
H497 C506 0.929 . S
C498 H492 0.930 . S
C498 C499 1.367 1_655 S
C498 C506 1.378 . S
C499 C498 1.367 1_455 S
C499 C507 1.433 . S
C500 H496 0.929 . S
C500 C502 1.378 . S
C500 C504 1.350 . S
C501 C504 1.463 . S
C501 C506 1.350 1_455 S
C501 N509 1.427 . S
C502 H493 0.930 . S
C502 C500 1.378 . S
C502 C503 1.378 . S
C503 C502 1.378 . S
C503 C505 1.424 1_455 S
C504 C500 1.350 . S
C504 C501 1.463 . S
C504 N508 1.427 1_455 S
C505 H495 0.929 . S
C505 C503 1.424 1_655 S
C505 N508 1.384 . S
C506 H497 0.929 . S
C506 C498 1.378 . S
C506 C501 1.350 1_655 S
C507 H494 0.929 . S
C507 C499 1.433 . S
C507 N509 1.384 . S
N508 C504 1.427 1_655 S
N508 C505 1.384 . S
N509 C501 1.427 . S
N509 C507 1.384 . S
C193 C24 3.149 . S
C197 C180 2.833 . S
C211 C66 1.274 . S
C215 C158 1.131 . S
C229 C93 1.686 . S
C233 C172 1.634 . S
C247 C13 2.960 . S
C251 C183 2.880 . S
C269 C161 1.024 . S
C265 C57 1.044 . S
C287 C169 1.747 . S
C283 C104 2.082 . S
C301 C64 2.073 . S
C305 C136 1.745 . S
C319 C97 0.554 . S
C323 C147 0.754 . S
C337 C17 1.386 . S
C341 C125 1.246 . S
C359 C139 1.630 . S
C355 C53 1.693 . S
C377 C150 0.219 . S
C373 C106 0.289 . S
C391 C26 1.028 . S
C395 C128 1.031 . S
C413 C149 1.163 . S
C409 C2 1.200 . S
C427 C63 1.458 . S
C431 C127 1.447 . S
C445 C82 1.446 . S
C449 C138 1.381 . S
C467 C171 1.405 . S
C463 C42 1.454 . S
C485 C182 1.670 . S
C481 C103 1.723 . S
C499 C23 1.527 . S
C503 C160 1.484 . S
