# Generated by pormake.
# Topology anh, (6,3)-cn, num edge types: 1
# Building blocks:
#     Node 0, Type 0, BuildingBlock: CUKXOW_clean_sbu_0, # of connection points: 6
#     Node 1, Type 0, BuildingBlock: CUKXOW_clean_sbu_0, # of connection points: 6
#     Node 2, Type 0, BuildingBlock: CUKXOW_clean_sbu_0, # of connection points: 6
#     Node 3, Type 1, BuildingBlock: WUSLED_clean_sbu_0, # of connection points: 3
#     Node 4, Type 1, BuildingBlock: WUSLED_clean_sbu_0, # of connection points: 3
#     Node 5, Type 1, BuildingBlock: WUSLED_clean_sbu_0, # of connection points: 3
#     Node 6, Type 1, BuildingBlock: WUSLED_clean_sbu_0, # of connection points: 3
#     Node 7, Type 1, BuildingBlock: WUSLED_clean_sbu_0, # of connection points: 3
#     Node 8, Type 1, BuildingBlock: WUSLED_clean_sbu_0, # of connection points: 3
#     Edge 9, Type (0, 1), None
#     Edge 10, Type (0, 1), None
#     Edge 11, Type (0, 1), None
#     Edge 12, Type (0, 1), None
#     Edge 13, Type (0, 1), None
#     Edge 14, Type (0, 1), None
#     Edge 15, Type (0, 1), None
#     Edge 16, Type (0, 1), None
#     Edge 17, Type (0, 1), None
#     Edge 18, Type (0, 1), None
#     Edge 19, Type (0, 1), None
#     Edge 20, Type (0, 1), None
#     Edge 21, Type (0, 1), None
#     Edge 22, Type (0, 1), None
#     Edge 23, Type (0, 1), None
#     Edge 24, Type (0, 1), None
#     Edge 25, Type (0, 1), None
#     Edge 26, Type (0, 1), None
# Relax obj value: 0.135
# Max RMSD: 0.191
# Mean RMSD: 0.139
data_MOF--net-anh--node1-CUKXOW_clean_sbu_0--node2-WUSLED_clean_sbu_0--edge1-none
_symmetry_space_group_name_H-M    P1
_symmetry_Int_Tables_number       1
_symmetry_cell_setting            triclinic
loop_
_symmetry_equiv_pos_as_xyz
'x, y, z'
_cell_length_a     21.811688
_cell_length_b     20.728234
_cell_length_c     38.674407
_cell_angle_alpha  94.86783
_cell_angle_beta   90.472449
_cell_angle_gamma 113.01157
loop_
_atom_site_label
_atom_site_type_symbol
_atom_site_fract_x
_atom_site_fract_y
_atom_site_fract_z
_atom_type_partial_charge
Tb0 Tb 0.09273 0.57924 0.17766 0.0
C1 C 0.05064 0.51262 0.24629 0.0
Tb2 Tb 1.02082 0.42278 0.17217 0.0
O3 O 0.99918 0.59376 0.1922 0.0
O4 O 0.99231 0.50684 0.16118 0.0
O5 O 0.09402 0.56669 0.23248 0.0
C6 C 0.90476 0.31513 0.17831 0.0
O7 O 1.01349 0.45446 0.22696 0.0
C8 C 0.15356 0.44902 0.17329 0.0
C9 C 0.06359 0.49535 0.10413 0.0
O10 O 0.94186 0.35789 0.20353 0.0
O11 O 0.93639 0.32844 0.14958 0.0
O12 O 0.10488 0.3866 0.17186 0.0
O13 O 0.12454 0.49267 0.17519 0.0
O14 O 1.02023 0.43968 0.11761 0.0
O15 O 0.10347 0.5532 0.12307 0.0
C16 C 0.19283 0.70676 0.18451 0.0
O17 O 0.1471 0.684 0.15936 0.0
O18 O 0.1812 0.65843 0.20548 0.0
C19 C 0.95641 0.53406 0.17736 0.0
Tb20 Tb 0.47326 1.00884 0.51282 0.0
C21 C 0.53998 0.06125 0.44457 0.0
Tb22 Tb 0.61797 0.0926 0.5185 0.0
O23 O 0.45212 0.09871 0.49842 0.0
O24 O 0.53388 0.11543 0.53108 0.0
O25 O 0.48776 1.01351 0.4575 0.0
C26 C 0.7303 0.20523 0.51516 0.0
O27 O 0.5922 0.10324 0.46476 0.0
C28 C 0.58592 0.95546 0.51807 0.0
C29 C 0.54905 0.04384 0.5868 0.0
O30 O 0.7049 0.15484 0.49053 0.0
O31 O 0.69511 0.18979 0.54229 0.0
O32 O 0.64178 1.00299 0.5317 0.0
O33 O 0.55751 0.98618 0.50112 0.0
O34 O 0.60035 0.09279 0.57372 0.0
O35 O 0.49771 0.99874 0.56691 0.0
C36 C 0.3576 0.90043 0.50791 0.0
O37 O 0.37184 0.95596 0.52981 0.0
O38 O 0.40779 0.90618 0.48917 0.0
C39 C 0.50549 0.14624 0.5142 0.0
Tb40 Tb 0.52637 0.52002 0.84141 0.0
C41 C 0.58642 0.53104 0.91502 0.0
Tb42 Tb 0.65314 0.58143 0.84622 0.0
O43 O 0.4912 0.40891 0.83931 0.0
O44 O 0.59745 0.47127 0.84393 0.0
O45 O 0.53355 0.5282 0.89769 0.0
C46 C 0.77987 0.611 0.83761 0.0
O47 O 0.64177 0.54342 0.89833 0.0
C48 C 0.60278 0.67633 0.85356 0.0
C49 C 0.58599 0.54714 0.77047 0.0
O50 O 0.75624 0.63453 0.86402 0.0
O51 O 0.73211 0.57521 0.81532 0.0
O52 O 0.65171 0.6776 0.87301 0.0
O53 O 0.58525 0.6241 0.83136 0.0
O54 O 0.64253 0.57845 0.78925 0.0
O55 O 0.52956 0.51874 0.7857 0.0
C56 C 0.41584 0.53244 0.84881 0.0
O57 O 0.42586 0.49243 0.82375 0.0
O58 O 0.46633 0.56282 0.87046 0.0
C59 C 0.55087 0.41025 0.84176 0.0
C60 C 0.69519 0.19335 0.18642 0.0
C61 C 0.73406 0.23251 0.21589 0.0
C62 C 0.83277 0.27265 0.18103 0.0
C63 C 0.80239 0.27234 0.21312 0.0
C64 C 0.7928 0.23647 0.15139 0.0
C65 C 0.72465 0.19723 0.15412 0.0
U66 U 0.53605 0.06302 0.22898 0.0
O67 O 0.48787 0.95275 0.2069 0.0
O68 O 0.43293 0.02198 0.2063 0.0
C69 C 0.43339 0.95972 0.19669 0.0
C70 C 0.62715 0.14 0.18851 0.0
C71 C 0.37032 0.89715 0.19494 0.0
C72 C 0.28009 0.80752 0.15865 0.0
C73 C 0.33897 0.86834 0.16209 0.0
C74 C 0.2841 0.80225 0.22092 0.0
C75 C 0.25214 0.77388 0.18804 0.0
C76 C 0.34261 0.86379 0.22441 0.0
C77 C 0.54845 0.07968 0.33401 0.0
C78 C 0.4885 0.02294 0.38327 0.0
C79 C 0.59654 0.11936 0.39282 0.0
C80 C 0.60001 0.125 0.35713 0.0
C81 C 0.54109 0.06804 0.40648 0.0
C82 C 0.49216 0.02867 0.34721 0.0
C83 C 0.55785 0.08759 0.2966 0.0
O84 O 0.62384 0.07979 0.19829 0.0
O85 O 0.58036 0.15911 0.20121 0.0
O86 O 0.52268 0.11432 0.27926 0.0
O87 O 0.57735 0.0441 0.27756 0.0
H88 H 0.71221 0.23051 0.24104 0.0
H89 H 0.83167 0.30196 0.23622 0.0
H90 H 0.81429 0.23759 0.12618 0.0
H91 H 0.69527 0.16746 0.13106 0.0
H92 H 0.25754 0.78576 0.13297 0.0
H93 H 0.36057 0.89258 0.13893 0.0
H94 H 0.2638 0.77671 0.24396 0.0
H95 H 0.3665 0.88475 0.24989 0.0
H96 H 0.44496 0.98279 0.39288 0.0
H97 H 0.63796 0.15507 0.40965 0.0
H98 H 0.64387 0.16473 0.34747 0.0
H99 H 0.45172 0.99313 0.32978 0.0
C100 C 0.54361 0.73265 0.52007 0.0
C101 C 0.53156 0.77132 0.54892 0.0
C102 C 0.56592 0.87746 0.51755 0.0
C103 C 0.54213 0.84265 0.54742 0.0
C104 C 0.57462 0.83771 0.48819 0.0
C105 C 0.56357 0.76628 0.48947 0.0
U106 U 0.54076 0.55994 0.55946 0.0
O107 O 0.5906 0.49245 0.5368 0.0
O108 O 0.48128 0.45008 0.53796 0.0
C109 C 0.53408 0.43877 0.52811 0.0
C110 C 0.53746 0.65825 0.52057 0.0
C111 C 0.53185 0.36567 0.5259 0.0
C112 C 0.50257 0.25347 0.49049 0.0
C113 C 0.50899 0.32369 0.49425 0.0
C114 C 0.54594 0.26604 0.5495 0.0
C115 C 0.51973 0.22319 0.51814 0.0
C116 C 0.55145 0.33665 0.55347 0.0
C117 C 0.56441 0.57561 0.66318 0.0
C118 C 0.56555 0.49938 0.7076 0.0
C119 C 0.59117 0.62297 0.7237 0.0
C120 C 0.58146 0.63217 0.68905 0.0
C121 C 0.58333 0.55668 0.73328 0.0
C122 C 0.55679 0.50889 0.67254 0.0
C123 C 0.55513 0.59029 0.62724 0.0
O124 O 0.59193 0.64913 0.52856 0.0
O125 O 0.48416 0.6122 0.53338 0.0
O126 O 0.49656 0.55735 0.61085 0.0
O127 O 0.60565 0.60383 0.60684 0.0
H128 H 0.51485 0.74685 0.57266 0.0
H129 H 0.53149 0.87062 0.56963 0.0
H130 H 0.59195 0.86237 0.46456 0.0
H131 H 0.57217 0.73751 0.46661 0.0
H132 H 0.48341 0.22242 0.46588 0.0
H133 H 0.49486 0.34503 0.47234 0.0
H134 H 0.55979 0.24424 0.5713 0.0
H135 H 0.5699 0.368 0.57806 0.0
H136 H 0.55811 0.44749 0.71472 0.0
H137 H 0.60294 0.66734 0.7432 0.0
H138 H 0.58679 0.68383 0.68244 0.0
H139 H 0.54347 0.46446 0.65299 0.0
C140 C 0.90831 0.50972 0.84804 0.0
C141 C 0.87234 0.51801 0.87637 0.0
C142 C 0.83048 0.58506 0.84231 0.0
C143 C 0.83321 0.55597 0.8735 0.0
C144 C 0.86252 0.57177 0.81323 0.0
C145 C 0.90155 0.53373 0.81609 0.0
U146 U 0.07144 0.51687 0.89201 0.0
O147 O 0.15784 0.59679 0.87154 0.0
O148 O 0.13326 0.48293 0.85766 0.0
C149 C 0.17203 0.54849 0.85333 0.0
C150 C 0.971 0.50777 0.85453 0.0
C151 C 0.23985 0.5607 0.85302 0.0
C152 C 0.32341 0.54298 0.81934 0.0
C153 C 0.26369 0.55011 0.82073 0.0
C154 C 0.33764 0.56475 0.8826 0.0
C155 C 0.35847 0.54756 0.85034 0.0
C156 C 0.27683 0.57027 0.88406 0.0
C157 C 0.07377 0.50269 0.99508 0.0
C158 C 0.12274 0.49582 0.05025 0.0
C159 C 1.01199 0.49722 0.04715 0.0
C160 C 1.01628 0.50179 1.01132 0.0
C161 C 0.06555 0.4948 0.06659 0.0
C162 C 0.12652 0.49909 0.01455 0.0
C163 C 0.08227 0.50939 0.95813 0.0
O164 O 1.01376 0.56744 0.8702 0.0
O165 O 0.97616 0.45026 0.86365 0.0
O166 O 0.06623 0.45333 0.93565 0.0
O167 O 0.08771 0.56813 0.94529 0.0
H168 H 0.87929 0.50082 0.90127 0.0
H169 H 0.8048 0.56202 0.89549 0.0
H170 H 0.85763 0.59117 0.78861 0.0
H171 H 0.93149 0.52915 0.79447 0.0
H172 H 0.34089 0.53145 0.79434 0.0
H173 H 0.23406 0.54243 0.7969 0.0
H174 H 0.366 0.5692 0.90649 0.0
H175 H 0.25709 0.57768 0.90903 0.0
H176 H 0.16442 0.49426 0.06508 0.0
H177 H 0.9679 0.49737 0.05982 0.0
H178 H 0.97545 0.50512 0.99649 0.0
H179 H 0.17119 0.49996 1.00215 0.0
C180 C 0.87109 0.41225 0.50354 0.0
C181 C 0.83667 0.36868 0.47406 0.0
C182 C 0.77999 0.2755 0.51079 0.0
C183 C 0.79104 0.30025 0.47771 0.0
C184 C 0.81263 0.32049 0.54021 0.0
C185 C 0.8582 0.38836 0.53655 0.0
U186 U 1.01366 0.558 0.46008 0.0
O187 O 0.11423 0.60033 0.48453 0.0
O188 O 0.05849 0.66888 0.48166 0.0
C189 C 0.1119 0.66181 0.49367 0.0
C190 C 0.92771 0.47824 0.50109 0.0
C191 C 0.17436 0.72281 0.49614 0.0
C192 C 0.25524 0.81965 0.53272 0.0
C193 C 0.19557 0.76071 0.5288 0.0
C194 C 0.27389 0.801 0.47148 0.0
C195 C 0.2944 0.83998 0.50403 0.0
C196 C 0.21354 0.74264 0.46744 0.0
C197 C 1.01526 0.52619 0.35577 0.0
C198 C 0.081 0.57638 0.30685 0.0
C199 C 0.9856 0.46517 0.29779 0.0
C200 C 0.97363 0.46932 0.33307 0.0
C201 C 0.03969 0.51815 0.28415 0.0
C202 C 0.06902 0.58027 0.34255 0.0
C203 C 1.0003 0.52431 0.39283 0.0
O204 O 0.98289 0.47098 0.49266 0.0
O205 O 0.91832 0.5288 0.4864 0.0
O206 O 0.97858 0.57 0.40816 0.0
O207 O 0.03294 0.50061 0.41367 0.0
H208 H 0.84649 0.38676 0.44841 0.0
H209 H 0.76441 0.26687 0.45481 0.0
H210 H 0.80386 0.30275 0.56596 0.0
H211 H 0.88519 0.4215 0.55946 0.0
H212 H 0.27127 0.84843 0.55811 0.0
H213 H 0.16592 0.74462 0.55129 0.0
H214 H 0.30411 0.8162 0.44913 0.0
H215 H 0.19762 0.71311 0.44222 0.0
H216 H 0.1227 0.61855 0.29711 0.0
H217 H 0.95201 0.4202 0.28122 0.0
H218 H 0.93163 0.42732 0.34277 0.0
H219 H 0.10163 0.62484 0.35969 0.0
C220 C 0.56827 0.86234 0.84173 0.0
C221 C 0.54976 0.80861 0.81435 0.0
C222 C 0.58758 0.7384 0.84981 0.0
C223 C 0.55894 0.74643 0.81851 0.0
C224 C 0.60469 0.79184 0.87714 0.0
C225 C 0.59471 0.85312 0.87315 0.0
U226 U 0.55973 0.02548 0.79965 0.0
O227 O 0.61933 0.13285 0.8227 0.0
O228 O 0.50964 0.09003 0.82428 0.0
C229 C 0.56653 0.14258 0.83379 0.0
C230 C 0.56389 0.93027 0.83895 0.0
C231 C 0.56803 0.21349 0.83491 0.0
C232 C 0.55818 0.31136 0.86976 0.0
C233 C 0.56087 0.24522 0.86725 0.0
C234 C 0.57289 0.31597 0.80769 0.0
C235 C 0.56317 0.34625 0.83992 0.0
C236 C 0.57526 0.24935 0.80513 0.0
C237 C 0.55355 1.01681 0.69554 0.0
C238 C 0.54806 0.0879 0.64949 0.0
C239 C 0.55696 0.9761 0.63525 0.0
C240 C 0.55787 0.96641 0.67035 0.0
C241 C 0.55114 0.03612 0.62433 0.0
C242 C 0.5489 0.07817 0.6851 0.0
C243 C 0.55479 1.00144 0.73191 0.0
O244 O 0.61731 0.98014 0.82865 0.0
O245 O 0.50765 0.93111 0.82697 0.0
O246 O 0.50102 0.9887 0.7499 0.0
O247 O 0.61119 0.03054 0.75056 0.0
H248 H 0.52942 0.81513 0.78986 0.0
H249 H 0.54549 0.70566 0.79702 0.0
H250 H 0.62644 0.78659 0.90149 0.0
H251 H 0.60896 0.89421 0.89454 0.0
H252 H 0.55042 0.33438 0.89471 0.0
H253 H 0.5558 0.21803 0.89047 0.0
H254 H 0.57637 0.3428 0.78448 0.0
H255 H 0.58119 0.22536 0.78008 0.0
H256 H 0.54424 0.13514 0.64157 0.0
H257 H 0.56244 0.93714 0.61683 0.0
H258 H 0.56233 0.91917 0.6779 0.0
H259 H 0.54591 0.11799 0.70425 0.0
C260 C 0.73743 0.49019 0.16502 0.0
C261 C 0.77216 0.4727 0.13718 0.0
C262 C 0.88004 0.51453 0.17257 0.0
C263 C 0.84166 0.4842 0.14095 0.0
C264 C 0.84446 0.53008 0.20021 0.0
C265 C 0.77555 0.51771 0.19663 0.0
U266 U 0.55287 0.47686 0.1292 0.0
O267 O 0.48884 0.52676 0.15549 0.0
O268 O 0.45019 0.41282 0.14666 0.0
C269 C 0.43786 0.46748 0.15918 0.0
C270 C 0.66288 0.48042 0.16366 0.0
C271 C 0.36526 0.46491 0.16108 0.0
C272 C 0.26407 0.4446 0.19596 0.0
C273 C 0.33008 0.44689 0.19191 0.0
C274 C 0.26364 0.47981 0.13866 0.0
C275 C 0.22871 0.46161 0.16973 0.0
C276 C 0.33004 0.4816 0.13445 0.0
C277 C 0.56925 0.49727 0.0245 0.0
C278 C 0.52101 0.50733 0.96923 0.0
C279 C 0.63552 0.51844 0.9727 0.0
C280 C 0.62946 0.50778 1.00824 0.0
C281 C 0.58143 0.5189 0.95273 0.0
C282 C 0.51507 0.49667 1.00459 0.0
C283 C 0.56335 0.4899 0.06233 0.0
O284 O 0.64772 0.53531 0.16096 0.0
O285 O 0.61573 0.42254 0.1488 0.0
O286 O 0.54001 0.42817 0.07481 0.0
O287 O 0.5795 0.54446 0.08562 0.0
H288 H 0.74594 0.45071 0.11232 0.0
H289 H 0.86578 0.47105 0.11868 0.0
H290 H 0.87027 0.55221 0.22516 0.0
H291 H 0.75178 0.5306 0.21912 0.0
H292 H 0.24021 0.42871 0.22004 0.0
H293 H 0.35389 0.43387 0.21338 0.0
H294 H 0.2389 0.49113 0.11702 0.0
H295 H 0.35351 0.49555 0.11009 0.0
H296 H 0.47802 0.50702 0.95488 0.0
H297 H 0.68258 0.52672 0.96095 0.0
H298 H 0.67201 0.50839 0.02311 0.0
H299 H 0.4682 0.48877 0.01651 0.0
loop_
_geom_bond_atom_site_label_1
_geom_bond_atom_site_label_2
_geom_bond_distance
_geom_bond_site_symmetry_2
_ccdc_geom_bond_type
Tb0 O3 2.453 1_455 S
Tb0 O4 2.596 1_455 S
Tb0 O5 2.374 . S
Tb0 O13 2.343 . S
Tb0 O15 2.353 . S
Tb0 O17 2.427 . S
Tb0 O18 2.513 . S
C1 O5 1.251 . S
C1 O7 1.263 . S
Tb2 O4 2.343 . S
Tb2 O7 2.353 1_655 S
Tb2 O10 2.427 . S
Tb2 O11 2.513 . S
Tb2 O12 2.453 1_655 S
Tb2 O13 2.596 1_655 S
Tb2 O14 2.374 1_655 S
O3 Tb0 2.453 1_655 S
O3 C19 1.245 . S
O4 Tb0 2.596 1_655 S
O4 Tb2 2.343 . S
O4 C19 1.259 . S
O5 Tb0 2.374 . S
O5 C1 1.251 . S
C6 O10 1.275 . S
C6 O11 1.246 . S
O7 C1 1.263 . S
O7 Tb2 2.353 1_455 S
C8 O12 1.245 . S
C8 O13 1.259 . S
C9 O14 1.250 . S
C9 O15 1.263 . S
O10 Tb2 2.427 . S
O10 C6 1.275 . S
O11 Tb2 2.513 . S
O11 C6 1.246 . S
O12 Tb2 2.453 1_455 S
O12 C8 1.245 . S
O13 Tb0 2.343 . S
O13 Tb2 2.596 1_455 S
O13 C8 1.259 . S
O14 Tb2 2.374 1_455 S
O14 C9 1.250 . S
O15 Tb0 2.353 . S
O15 C9 1.263 . S
C16 O17 1.275 . S
C16 O18 1.246 . S
O17 Tb0 2.427 . S
O17 C16 1.275 . S
O18 Tb0 2.513 . S
O18 C16 1.246 . S
C19 O3 1.245 . S
C19 O4 1.259 . S
Tb20 O23 2.453 . S
Tb20 O24 2.596 . S
Tb20 O25 2.374 . S
Tb20 O33 2.343 1_545 S
Tb20 O35 2.353 . S
Tb20 O37 2.427 1_545 S
Tb20 O38 2.513 1_545 S
C21 O25 1.251 . S
C21 O27 1.263 . S
Tb22 O24 2.343 . S
Tb22 O27 2.353 . S
Tb22 O30 2.427 . S
Tb22 O31 2.513 . S
Tb22 O32 2.453 1_545 S
Tb22 O33 2.596 1_545 S
Tb22 O34 2.374 . S
O23 Tb20 2.453 . S
O23 C39 1.245 . S
O24 Tb20 2.596 . S
O24 Tb22 2.343 . S
O24 C39 1.259 . S
O25 Tb20 2.374 . S
O25 C21 1.251 . S
C26 O30 1.275 . S
C26 O31 1.246 . S
O27 C21 1.263 . S
O27 Tb22 2.353 . S
C28 O32 1.245 . S
C28 O33 1.259 . S
C29 O34 1.250 . S
C29 O35 1.263 . S
O30 Tb22 2.427 . S
O30 C26 1.275 . S
O31 Tb22 2.513 . S
O31 C26 1.246 . S
O32 Tb22 2.453 1_565 S
O32 C28 1.245 . S
O33 Tb20 2.343 1_565 S
O33 Tb22 2.596 1_565 S
O33 C28 1.259 . S
O34 Tb22 2.374 . S
O34 C29 1.250 . S
O35 Tb20 2.353 . S
O35 C29 1.263 . S
C36 O37 1.275 . S
C36 O38 1.246 . S
O37 Tb20 2.427 1_565 S
O37 C36 1.275 . S
O38 Tb20 2.513 1_565 S
O38 C36 1.246 . S
C39 O23 1.245 . S
C39 O24 1.259 . S
Tb40 O43 2.453 . S
Tb40 O44 2.596 . S
Tb40 O45 2.374 . S
Tb40 O53 2.343 . S
Tb40 O55 2.353 . S
Tb40 O57 2.427 . S
Tb40 O58 2.513 . S
C41 O45 1.251 . S
C41 O47 1.263 . S
Tb42 O44 2.343 . S
Tb42 O47 2.353 . S
Tb42 O50 2.427 . S
Tb42 O51 2.513 . S
Tb42 O52 2.453 . S
Tb42 O53 2.596 . S
Tb42 O54 2.374 . S
O43 Tb40 2.453 . S
O43 C59 1.245 . S
O44 Tb40 2.596 . S
O44 Tb42 2.343 . S
O44 C59 1.259 . S
O45 Tb40 2.374 . S
O45 C41 1.251 . S
C46 O50 1.275 . S
C46 O51 1.246 . S
O47 C41 1.263 . S
O47 Tb42 2.353 . S
C48 O52 1.245 . S
C48 O53 1.259 . S
C49 O54 1.250 . S
C49 O55 1.263 . S
O50 Tb42 2.427 . S
O50 C46 1.275 . S
O51 Tb42 2.513 . S
O51 C46 1.246 . S
O52 Tb42 2.453 . S
O52 C48 1.245 . S
O53 Tb40 2.343 . S
O53 Tb42 2.596 . S
O53 C48 1.259 . S
O54 Tb42 2.374 . S
O54 C49 1.250 . S
O55 Tb40 2.353 . S
O55 C49 1.263 . S
C56 O57 1.275 . S
C56 O58 1.246 . S
O57 Tb40 2.427 . S
O57 C56 1.275 . S
O58 Tb40 2.513 . S
O58 C56 1.246 . S
C59 O43 1.245 . S
C59 O44 1.259 . S
C60 C61 1.264 . S
C60 C65 1.479 . S
C60 C70 1.465 . S
C61 C60 1.264 . S
C61 C63 1.339 . S
C61 H88 0.931 . S
C62 C63 1.395 . S
C62 C64 1.320 . S
C63 C61 1.339 . S
C63 C62 1.395 . S
C63 H89 0.929 . S
C64 C62 1.320 . S
C64 C65 1.405 . S
C64 H90 0.930 . S
C65 C60 1.479 . S
C65 C64 1.405 . S
C65 H91 0.931 . S
U66 O67 2.454 1_545 S
U66 O68 2.458 1_545 S
U66 C69 2.984 1_545 S
U66 C70 2.847 . S
U66 C83 2.882 . S
U66 O84 2.441 . S
U66 O85 2.420 . S
U66 O86 2.455 . S
U66 O87 2.449 . S
O67 U66 2.454 1_565 S
O67 C69 1.353 . S
O68 U66 2.458 1_565 S
O68 C69 1.286 . S
C69 U66 2.984 1_565 S
C69 O67 1.353 . S
C69 O68 1.286 . S
C69 C71 1.363 . S
C70 C60 1.465 . S
C70 U66 2.847 . S
C70 O84 1.249 . S
C70 O85 1.202 . S
C71 C69 1.363 . S
C71 C73 1.408 . S
C71 C76 1.342 . S
C72 C73 1.310 . S
C72 C75 1.461 . S
C72 H92 0.932 . S
C73 C71 1.408 . S
C73 C72 1.310 . S
C73 H93 0.930 . S
C74 C75 1.474 . S
C74 C76 1.285 . S
C74 H94 0.929 . S
C75 C72 1.461 . S
C75 C74 1.474 . S
C76 C71 1.342 . S
C76 C74 1.285 . S
C76 H95 0.930 . S
C77 C80 1.424 . S
C77 C82 1.245 . S
C77 C83 1.428 . S
C78 C81 1.260 . S
C78 C82 1.477 . S
C78 H96 0.932 . S
C79 C80 1.384 . S
C79 C81 1.479 . S
C79 H97 0.929 . S
C80 C77 1.424 . S
C80 C79 1.384 . S
C80 H98 0.928 . S
C81 C78 1.260 . S
C81 C79 1.479 . S
C82 C77 1.245 . S
C82 C78 1.477 . S
C82 H99 0.932 1_545 S
C83 U66 2.882 . S
C83 C77 1.428 . S
C83 O86 1.301 . S
C83 O87 1.282 . S
O84 U66 2.441 . S
O84 C70 1.249 . S
O85 U66 2.420 . S
O85 C70 1.202 . S
O86 U66 2.455 . S
O86 C83 1.301 . S
O87 U66 2.449 . S
O87 C83 1.282 . S
H88 C61 0.931 . S
H89 C63 0.929 . S
H90 C64 0.930 . S
H91 C65 0.931 . S
H92 C72 0.932 . S
H93 C73 0.930 . S
H94 C74 0.929 . S
H95 C76 0.930 . S
H96 C78 0.932 . S
H97 C79 0.929 . S
H98 C80 0.928 . S
H99 C82 0.932 1_565 S
C100 C101 1.264 . S
C100 C105 1.479 . S
C100 C110 1.465 . S
C101 C100 1.264 . S
C101 C103 1.339 . S
C101 H128 0.931 . S
C102 C103 1.395 . S
C102 C104 1.320 . S
C103 C101 1.339 . S
C103 C102 1.395 . S
C103 H129 0.929 . S
C104 C102 1.320 . S
C104 C105 1.405 . S
C104 H130 0.930 . S
C105 C100 1.479 . S
C105 C104 1.405 . S
C105 H131 0.931 . S
U106 O107 2.454 . S
U106 O108 2.458 . S
U106 C109 2.984 . S
U106 C110 2.847 . S
U106 C123 2.882 . S
U106 O124 2.441 . S
U106 O125 2.420 . S
U106 O126 2.455 . S
U106 O127 2.449 . S
O107 U106 2.454 . S
O107 C109 1.353 . S
O108 U106 2.458 . S
O108 C109 1.286 . S
C109 U106 2.984 . S
C109 O107 1.353 . S
C109 O108 1.286 . S
C109 C111 1.363 . S
C110 C100 1.465 . S
C110 U106 2.847 . S
C110 O124 1.249 . S
C110 O125 1.202 . S
C111 C109 1.363 . S
C111 C113 1.408 . S
C111 C116 1.342 . S
C112 C113 1.310 . S
C112 C115 1.461 . S
C112 H132 0.932 . S
C113 C111 1.408 . S
C113 C112 1.310 . S
C113 H133 0.930 . S
C114 C115 1.474 . S
C114 C116 1.285 . S
C114 H134 0.929 . S
C115 C112 1.461 . S
C115 C114 1.474 . S
C116 C111 1.342 . S
C116 C114 1.285 . S
C116 H135 0.930 . S
C117 C120 1.424 . S
C117 C122 1.245 . S
C117 C123 1.428 . S
C118 C121 1.260 . S
C118 C122 1.477 . S
C118 H136 0.932 . S
C119 C120 1.384 . S
C119 C121 1.479 . S
C119 H137 0.929 . S
C120 C117 1.424 . S
C120 C119 1.384 . S
C120 H138 0.928 . S
C121 C118 1.260 . S
C121 C119 1.479 . S
C122 C117 1.245 . S
C122 C118 1.477 . S
C122 H139 0.932 . S
C123 U106 2.882 . S
C123 C117 1.428 . S
C123 O126 1.301 . S
C123 O127 1.282 . S
O124 U106 2.441 . S
O124 C110 1.249 . S
O125 U106 2.420 . S
O125 C110 1.202 . S
O126 U106 2.455 . S
O126 C123 1.301 . S
O127 U106 2.449 . S
O127 C123 1.282 . S
H128 C101 0.931 . S
H129 C103 0.929 . S
H130 C104 0.930 . S
H131 C105 0.931 . S
H132 C112 0.932 . S
H133 C113 0.930 . S
H134 C114 0.929 . S
H135 C116 0.930 . S
H136 C118 0.932 . S
H137 C119 0.929 . S
H138 C120 0.928 . S
H139 C122 0.932 . S
C140 C141 1.264 . S
C140 C145 1.479 . S
C140 C150 1.465 . S
C141 C140 1.264 . S
C141 C143 1.339 . S
C141 H168 0.931 . S
C142 C143 1.395 . S
C142 C144 1.320 . S
C143 C141 1.339 . S
C143 C142 1.395 . S
C143 H169 0.929 . S
C144 C142 1.320 . S
C144 C145 1.405 . S
C144 H170 0.930 . S
C145 C140 1.479 . S
C145 C144 1.405 . S
C145 H171 0.931 . S
U146 O147 2.454 . S
U146 O148 2.458 . S
U146 C149 2.984 . S
U146 C150 2.847 1_455 S
U146 C163 2.882 . S
U146 O164 2.441 1_455 S
U146 O165 2.420 1_455 S
U146 O166 2.455 . S
U146 O167 2.449 1_455 S
O147 U146 2.454 . S
O147 C149 1.353 . S
O148 U146 2.458 . S
O148 C149 1.286 . S
C149 U146 2.984 . S
C149 O147 1.353 . S
C149 O148 1.286 . S
C149 C151 1.363 . S
C150 C140 1.465 . S
C150 U146 2.847 1_655 S
C150 O164 1.249 . S
C150 O165 1.202 . S
C151 C149 1.363 . S
C151 C153 1.408 . S
C151 C156 1.342 . S
C152 C153 1.310 . S
C152 C155 1.461 . S
C152 H172 0.932 . S
C153 C151 1.408 . S
C153 C152 1.310 . S
C153 H173 0.930 . S
C154 C155 1.474 . S
C154 C156 1.285 . S
C154 H174 0.929 . S
C155 C152 1.461 . S
C155 C154 1.474 . S
C156 C151 1.342 . S
C156 C154 1.285 . S
C156 H175 0.930 . S
C157 C160 1.424 1_456 S
C157 C162 1.245 1_556 S
C157 C163 1.428 . S
C158 C161 1.260 . S
C158 C162 1.477 . S
C158 H176 0.932 . S
C159 C160 1.384 . S
C159 C161 1.479 1_655 S
C159 H177 0.929 . S
C160 C157 1.424 1_654 S
C160 C159 1.384 . S
C160 H178 0.928 1_554 S
C161 C158 1.260 . S
C161 C159 1.479 1_455 S
C162 C157 1.245 1_554 S
C162 C158 1.477 . S
C162 H179 0.932 1_554 S
C163 U146 2.882 . S
C163 C157 1.428 . S
C163 O166 1.301 . S
C163 O167 1.282 1_455 S
O164 U146 2.441 1_655 S
O164 C150 1.249 . S
O165 U146 2.420 1_655 S
O165 C150 1.202 . S
O166 U146 2.455 . S
O166 C163 1.301 . S
O167 U146 2.449 1_655 S
O167 C163 1.282 1_655 S
H168 C141 0.931 . S
H169 C143 0.929 . S
H170 C144 0.930 . S
H171 C145 0.931 . S
H172 C152 0.932 . S
H173 C153 0.930 . S
H174 C154 0.929 . S
H175 C156 0.930 . S
H176 C158 0.932 . S
H177 C159 0.929 . S
H178 C160 0.928 1_556 S
H179 C162 0.932 1_556 S
C180 C181 1.264 . S
C180 C185 1.479 . S
C180 C190 1.465 . S
C181 C180 1.264 . S
C181 C183 1.339 . S
C181 H208 0.931 . S
C182 C183 1.395 . S
C182 C184 1.320 . S
C183 C181 1.339 . S
C183 C182 1.395 . S
C183 H209 0.929 . S
C184 C182 1.320 . S
C184 C185 1.405 . S
C184 H210 0.930 . S
C185 C180 1.479 . S
C185 C184 1.405 . S
C185 H211 0.931 . S
U186 O187 2.454 1_655 S
U186 O188 2.458 1_655 S
U186 C189 2.984 1_655 S
U186 C190 2.847 . S
U186 C203 2.882 . S
U186 O204 2.441 . S
U186 O205 2.420 . S
U186 O206 2.455 1_655 S
U186 O207 2.449 . S
O187 U186 2.454 1_455 S
O187 C189 1.353 . S
O188 U186 2.458 1_455 S
O188 C189 1.286 . S
C189 U186 2.984 1_455 S
C189 O187 1.353 . S
C189 O188 1.286 . S
C189 C191 1.363 . S
C190 C180 1.465 . S
C190 U186 2.847 . S
C190 O204 1.249 . S
C190 O205 1.202 . S
C191 C189 1.363 . S
C191 C193 1.408 . S
C191 C196 1.342 . S
C192 C193 1.310 . S
C192 C195 1.461 . S
C192 H212 0.932 . S
C193 C191 1.408 . S
C193 C192 1.310 . S
C193 H213 0.930 . S
C194 C195 1.474 . S
C194 C196 1.285 . S
C194 H214 0.929 . S
C195 C192 1.461 . S
C195 C194 1.474 . S
C196 C191 1.342 . S
C196 C194 1.285 . S
C196 H215 0.930 . S
C197 C200 1.424 . S
C197 C202 1.245 1_655 S
C197 C203 1.428 . S
C198 C201 1.260 1_455 S
C198 C202 1.477 . S
C198 H216 0.932 . S
C199 C200 1.384 . S
C199 C201 1.479 . S
C199 H217 0.929 . S
C200 C197 1.424 . S
C200 C199 1.384 . S
C200 H218 0.928 . S
C201 C198 1.260 1_655 S
C201 C199 1.479 . S
C202 C197 1.245 1_455 S
C202 C198 1.477 . S
C202 H219 0.932 . S
C203 U186 2.882 . S
C203 C197 1.428 . S
C203 O206 1.301 1_655 S
C203 O207 1.282 . S
O204 U186 2.441 . S
O204 C190 1.249 . S
O205 U186 2.420 . S
O205 C190 1.202 . S
O206 U186 2.455 1_455 S
O206 C203 1.301 1_455 S
O207 U186 2.449 . S
O207 C203 1.282 . S
H208 C181 0.931 . S
H209 C183 0.929 . S
H210 C184 0.930 . S
H211 C185 0.931 . S
H212 C192 0.932 . S
H213 C193 0.930 . S
H214 C194 0.929 . S
H215 C196 0.930 . S
H216 C198 0.932 . S
H217 C199 0.929 . S
H218 C200 0.928 . S
H219 C202 0.932 . S
C220 C221 1.264 . S
C220 C225 1.479 . S
C220 C230 1.465 . S
C221 C220 1.264 . S
C221 C223 1.339 . S
C221 H248 0.931 . S
C222 C223 1.395 . S
C222 C224 1.320 . S
C223 C221 1.339 . S
C223 C222 1.395 . S
C223 H249 0.929 . S
C224 C222 1.320 . S
C224 C225 1.405 . S
C224 H250 0.930 . S
C225 C220 1.479 . S
C225 C224 1.405 . S
C225 H251 0.931 . S
U226 O227 2.454 . S
U226 O228 2.458 . S
U226 C229 2.984 . S
U226 C230 2.847 1_545 S
U226 C243 2.882 1_545 S
U226 O244 2.441 1_545 S
U226 O245 2.420 1_545 S
U226 O246 2.455 . S
U226 O247 2.449 1_545 S
O227 U226 2.454 . S
O227 C229 1.353 . S
O228 U226 2.458 . S
O228 C229 1.286 . S
C229 U226 2.984 . S
C229 O227 1.353 . S
C229 O228 1.286 . S
C229 C231 1.363 . S
C230 C220 1.465 . S
C230 U226 2.847 1_565 S
C230 O244 1.249 . S
C230 O245 1.202 . S
C231 C229 1.363 . S
C231 C233 1.408 . S
C231 C236 1.342 . S
C232 C233 1.310 . S
C232 C235 1.461 . S
C232 H252 0.932 . S
C233 C231 1.408 . S
C233 C232 1.310 . S
C233 H253 0.930 . S
C234 C235 1.474 . S
C234 C236 1.285 . S
C234 H254 0.929 . S
C235 C232 1.461 . S
C235 C234 1.474 . S
C236 C231 1.342 . S
C236 C234 1.285 . S
C236 H255 0.930 . S
C237 C240 1.424 . S
C237 C242 1.245 1_565 S
C237 C243 1.428 . S
C238 C241 1.260 1_545 S
C238 C242 1.477 . S
C238 H256 0.932 . S
C239 C240 1.384 . S
C239 C241 1.479 . S
C239 H257 0.929 . S
C240 C237 1.424 . S
C240 C239 1.384 . S
C240 H258 0.928 . S
C241 C238 1.260 1_565 S
C241 C239 1.479 . S
C242 C237 1.245 1_545 S
C242 C238 1.477 . S
C242 H259 0.932 . S
C243 U226 2.882 1_565 S
C243 C237 1.428 . S
C243 O246 1.301 1_565 S
C243 O247 1.282 . S
O244 U226 2.441 1_565 S
O244 C230 1.249 . S
O245 U226 2.420 1_565 S
O245 C230 1.202 . S
O246 U226 2.455 . S
O246 C243 1.301 1_545 S
O247 U226 2.449 1_565 S
O247 C243 1.282 . S
H248 C221 0.931 . S
H249 C223 0.929 . S
H250 C224 0.930 . S
H251 C225 0.931 . S
H252 C232 0.932 . S
H253 C233 0.930 . S
H254 C234 0.929 . S
H255 C236 0.930 . S
H256 C238 0.932 . S
H257 C239 0.929 . S
H258 C240 0.928 . S
H259 C242 0.932 . S
C260 C261 1.264 . S
C260 C265 1.479 . S
C260 C270 1.465 . S
C261 C260 1.264 . S
C261 C263 1.339 . S
C261 H288 0.931 . S
C262 C263 1.395 . S
C262 C264 1.320 . S
C263 C261 1.339 . S
C263 C262 1.395 . S
C263 H289 0.929 . S
C264 C262 1.320 . S
C264 C265 1.405 . S
C264 H290 0.930 . S
C265 C260 1.479 . S
C265 C264 1.405 . S
C265 H291 0.931 . S
U266 O267 2.454 . S
U266 O268 2.458 . S
U266 C269 2.984 . S
U266 C270 2.847 . S
U266 C283 2.882 . S
U266 O284 2.441 . S
U266 O285 2.420 . S
U266 O286 2.455 . S
U266 O287 2.449 . S
O267 U266 2.454 . S
O267 C269 1.353 . S
O268 U266 2.458 . S
O268 C269 1.286 . S
C269 U266 2.984 . S
C269 O267 1.353 . S
C269 O268 1.286 . S
C269 C271 1.363 . S
C270 C260 1.465 . S
C270 U266 2.847 . S
C270 O284 1.249 . S
C270 O285 1.202 . S
C271 C269 1.363 . S
C271 C273 1.408 . S
C271 C276 1.342 . S
C272 C273 1.310 . S
C272 C275 1.461 . S
C272 H292 0.932 . S
C273 C271 1.408 . S
C273 C272 1.310 . S
C273 H293 0.930 . S
C274 C275 1.474 . S
C274 C276 1.285 . S
C274 H294 0.929 . S
C275 C272 1.461 . S
C275 C274 1.474 . S
C276 C271 1.342 . S
C276 C274 1.285 . S
C276 H295 0.930 . S
C277 C280 1.424 1_554 S
C277 C282 1.245 1_554 S
C277 C283 1.428 . S
C278 C281 1.260 . S
C278 C282 1.477 . S
C278 H296 0.932 . S
C279 C280 1.384 . S
C279 C281 1.479 . S
C279 H297 0.929 . S
C280 C277 1.424 1_556 S
C280 C279 1.384 . S
C280 H298 0.928 1_556 S
C281 C278 1.260 . S
C281 C279 1.479 . S
C282 C277 1.245 1_556 S
C282 C278 1.477 . S
C282 H299 0.932 . S
C283 U266 2.882 . S
C283 C277 1.428 . S
C283 O286 1.301 . S
C283 O287 1.282 . S
O284 U266 2.441 . S
O284 C270 1.249 . S
O285 U266 2.420 . S
O285 C270 1.202 . S
O286 U266 2.455 . S
O286 C283 1.301 . S
O287 U266 2.449 . S
O287 C283 1.282 . S
H288 C261 0.931 . S
H289 C263 0.929 . S
H290 C264 0.930 . S
H291 C265 0.931 . S
H292 C272 0.932 . S
H293 C273 0.930 . S
H294 C274 0.929 . S
H295 C276 0.930 . S
H296 C278 0.932 . S
H297 C279 0.929 . S
H298 C280 0.928 1_554 S
H299 C282 0.932 . S
C8 C275 3.226 . S
C26 C182 1.843 . S
C48 C222 2.274 . S
C19 C262 3.132 . S
C195 C36 2.263 . S
C235 C59 2.972 . S
C28 C102 2.368 . S
C46 C142 1.742 . S
C16 C75 2.450 . S
C115 C39 2.902 . S
C155 C56 1.380 . S
C6 C62 2.098 . S
C161 C9 1.318 . S
C21 C81 1.762 . S
C49 C121 1.634 . S
C241 C29 1.656 1_565 S
C281 C41 1.762 . S
C1 C201 1.662 1_455 S
