# Generated by pormake.
# Topology ocu, (6,8)-cn, num edge types: 1
# Building blocks:
#     Node 0, Type 0, BuildingBlock: NUHQIS_clean_sbu_0, # of connection points: 6
#     Node 1, Type 0, BuildingBlock: NUHQIS_clean_sbu_0, # of connection points: 6
#     Node 2, Type 0, BuildingBlock: NUHQIS_clean_sbu_0, # of connection points: 6
#     Node 3, Type 0, BuildingBlock: NUHQIS_clean_sbu_0, # of connection points: 6
#     Node 4, Type 0, BuildingBlock: NUHQIS_clean_sbu_0, # of connection points: 6
#     Node 5, Type 0, BuildingBlock: NUHQIS_clean_sbu_0, # of connection points: 6
#     Node 6, Type 0, BuildingBlock: NUHQIS_clean_sbu_0, # of connection points: 6
#     Node 7, Type 0, BuildingBlock: NUHQIS_clean_sbu_0, # of connection points: 6
#     Node 8, Type 1, BuildingBlock: VETTIZ_charged_sbu_0, # of connection points: 8
#     Node 9, Type 1, BuildingBlock: VETTIZ_charged_sbu_0, # of connection points: 8
#     Node 10, Type 1, BuildingBlock: VETTIZ_charged_sbu_0, # of connection points: 8
#     Node 11, Type 1, BuildingBlock: VETTIZ_charged_sbu_0, # of connection points: 8
#     Node 12, Type 1, BuildingBlock: VETTIZ_charged_sbu_0, # of connection points: 8
#     Node 13, Type 1, BuildingBlock: VETTIZ_charged_sbu_0, # of connection points: 8
#     Edge 14, Type (0, 1), BuildingBlock: EZIPEK_clean_linker_0, # of connection points: 2
#     Edge 15, Type (0, 1), BuildingBlock: EZIPEK_clean_linker_0, # of connection points: 2
#     Edge 16, Type (0, 1), BuildingBlock: EZIPEK_clean_linker_0, # of connection points: 2
#     Edge 17, Type (0, 1), BuildingBlock: EZIPEK_clean_linker_0, # of connection points: 2
#     Edge 18, Type (0, 1), BuildingBlock: EZIPEK_clean_linker_0, # of connection points: 2
#     Edge 19, Type (0, 1), BuildingBlock: EZIPEK_clean_linker_0, # of connection points: 2
#     Edge 20, Type (0, 1), BuildingBlock: EZIPEK_clean_linker_0, # of connection points: 2
#     Edge 21, Type (0, 1), BuildingBlock: EZIPEK_clean_linker_0, # of connection points: 2
#     Edge 22, Type (0, 1), BuildingBlock: EZIPEK_clean_linker_0, # of connection points: 2
#     Edge 23, Type (0, 1), BuildingBlock: EZIPEK_clean_linker_0, # of connection points: 2
#     Edge 24, Type (0, 1), BuildingBlock: EZIPEK_clean_linker_0, # of connection points: 2
#     Edge 25, Type (0, 1), BuildingBlock: EZIPEK_clean_linker_0, # of connection points: 2
#     Edge 26, Type (0, 1), BuildingBlock: EZIPEK_clean_linker_0, # of connection points: 2
#     Edge 27, Type (0, 1), BuildingBlock: EZIPEK_clean_linker_0, # of connection points: 2
#     Edge 28, Type (0, 1), BuildingBlock: EZIPEK_clean_linker_0, # of connection points: 2
#     Edge 29, Type (0, 1), BuildingBlock: EZIPEK_clean_linker_0, # of connection points: 2
#     Edge 30, Type (0, 1), BuildingBlock: EZIPEK_clean_linker_0, # of connection points: 2
#     Edge 31, Type (0, 1), BuildingBlock: EZIPEK_clean_linker_0, # of connection points: 2
#     Edge 32, Type (0, 1), BuildingBlock: EZIPEK_clean_linker_0, # of connection points: 2
#     Edge 33, Type (0, 1), BuildingBlock: EZIPEK_clean_linker_0, # of connection points: 2
#     Edge 34, Type (0, 1), BuildingBlock: EZIPEK_clean_linker_0, # of connection points: 2
#     Edge 35, Type (0, 1), BuildingBlock: EZIPEK_clean_linker_0, # of connection points: 2
#     Edge 36, Type (0, 1), BuildingBlock: EZIPEK_clean_linker_0, # of connection points: 2
#     Edge 37, Type (0, 1), BuildingBlock: EZIPEK_clean_linker_0, # of connection points: 2
#     Edge 38, Type (0, 1), BuildingBlock: EZIPEK_clean_linker_0, # of connection points: 2
#     Edge 39, Type (0, 1), BuildingBlock: EZIPEK_clean_linker_0, # of connection points: 2
#     Edge 40, Type (0, 1), BuildingBlock: EZIPEK_clean_linker_0, # of connection points: 2
#     Edge 41, Type (0, 1), BuildingBlock: EZIPEK_clean_linker_0, # of connection points: 2
#     Edge 42, Type (0, 1), BuildingBlock: EZIPEK_clean_linker_0, # of connection points: 2
#     Edge 43, Type (0, 1), BuildingBlock: EZIPEK_clean_linker_0, # of connection points: 2
#     Edge 44, Type (0, 1), BuildingBlock: EZIPEK_clean_linker_0, # of connection points: 2
#     Edge 45, Type (0, 1), BuildingBlock: EZIPEK_clean_linker_0, # of connection points: 2
#     Edge 46, Type (0, 1), BuildingBlock: EZIPEK_clean_linker_0, # of connection points: 2
#     Edge 47, Type (0, 1), BuildingBlock: EZIPEK_clean_linker_0, # of connection points: 2
#     Edge 48, Type (0, 1), BuildingBlock: EZIPEK_clean_linker_0, # of connection points: 2
#     Edge 49, Type (0, 1), BuildingBlock: EZIPEK_clean_linker_0, # of connection points: 2
#     Edge 50, Type (0, 1), BuildingBlock: EZIPEK_clean_linker_0, # of connection points: 2
#     Edge 51, Type (0, 1), BuildingBlock: EZIPEK_clean_linker_0, # of connection points: 2
#     Edge 52, Type (0, 1), BuildingBlock: EZIPEK_clean_linker_0, # of connection points: 2
#     Edge 53, Type (0, 1), BuildingBlock: EZIPEK_clean_linker_0, # of connection points: 2
#     Edge 54, Type (0, 1), BuildingBlock: EZIPEK_clean_linker_0, # of connection points: 2
#     Edge 55, Type (0, 1), BuildingBlock: EZIPEK_clean_linker_0, # of connection points: 2
#     Edge 56, Type (0, 1), BuildingBlock: EZIPEK_clean_linker_0, # of connection points: 2
#     Edge 57, Type (0, 1), BuildingBlock: EZIPEK_clean_linker_0, # of connection points: 2
#     Edge 58, Type (0, 1), BuildingBlock: EZIPEK_clean_linker_0, # of connection points: 2
#     Edge 59, Type (0, 1), BuildingBlock: EZIPEK_clean_linker_0, # of connection points: 2
#     Edge 60, Type (0, 1), BuildingBlock: EZIPEK_clean_linker_0, # of connection points: 2
#     Edge 61, Type (0, 1), BuildingBlock: EZIPEK_clean_linker_0, # of connection points: 2
# Relax obj value: 0.185
# Max RMSD: 0.221
# Mean RMSD: 0.139
data_MOF--net-ocu--node1-NUHQIS_clean_sbu_0--node2-VETTIZ_charged_sbu_0--edge1-EZIPEK_clean_linker_0
_symmetry_space_group_name_H-M    P1
_symmetry_Int_Tables_number       1
_symmetry_cell_setting            triclinic
loop_
_symmetry_equiv_pos_as_xyz
'x, y, z'
_cell_length_a     30.377422
_cell_length_b     31.918839
_cell_length_c     32.122372
_cell_angle_alpha  97.340536
_cell_angle_beta   84.815512
_cell_angle_gamma 106.82272
loop_
_atom_site_label
_atom_site_type_symbol
_atom_site_fract_x
_atom_site_fract_y
_atom_site_fract_z
_atom_type_partial_charge
Tb0 Tb 0.2589 0.26466 0.27139 0.0
Eu1 Eu 0.33274 0.31529 0.32342 0.0
C2 C 0.35448 0.22876 0.24669 0.0
C3 C 0.26007 0.22754 0.35608 0.0
C4 C 0.18308 0.27148 0.20416 0.0
C5 C 0.16964 0.29775 0.14067 0.0
C6 C 0.16231 0.26316 0.16568 0.0
C7 C 0.20872 0.31427 0.21793 0.0
C8 C 0.21875 0.34707 0.19234 0.0
C9 C 0.19975 0.33931 0.15354 0.0
C10 C 0.19261 0.23751 0.22483 0.0
O11 O 0.22121 0.31424 0.31565 0.0
O12 O 0.28055 0.36029 0.34833 0.0
O13 O 0.34235 0.36426 0.27807 0.0
O14 O 0.30588 0.31176 0.22943 0.0
C15 C 0.23511 0.35191 0.34293 0.0
O16 O 0.36117 0.35781 0.37879 0.0
O17 O 0.40635 0.33362 0.33235 0.0
O18 O 0.37005 0.26445 0.27571 0.0
O19 O 0.30842 0.22118 0.24327 0.0
O20 O 0.24984 0.21694 0.3167 0.0
O21 O 0.28918 0.26583 0.36707 0.0
C22 C 0.33405 0.35122 0.23911 0.0
O23 O 0.23315 0.23286 0.21337 0.0
O24 O 0.1869 0.24257 0.26558 0.0
C25 C 0.416 0.32926 0.40217 0.0
C26 C 0.43308 0.26544 0.44437 0.0
C27 C 0.39191 0.27667 0.45347 0.0
C28 C 0.38337 0.30856 0.43256 0.0
C29 C 0.45861 0.32 0.39538 0.0
C30 C 0.46709 0.28794 0.4164 0.0
C31 C 0.40132 0.35079 0.37085 0.0
H32 H 0.15496 0.2914 0.11021 0.0
H33 H 0.14347 0.23007 0.15395 0.0
H34 H 0.22707 0.32156 0.24596 0.0
H35 H 0.24312 0.37821 0.20226 0.0
H36 H 0.36609 0.25998 0.47596 0.0
H37 H 0.35003 0.3148 0.43834 0.0
H38 H 0.4839 0.33533 0.37181 0.0
H39 H 0.4995 0.27986 0.41016 0.0
Tb40 Tb 0.84147 0.25156 0.29643 0.0
Eu41 Eu 0.77597 0.31561 0.30269 0.0
C42 C 0.75842 0.22926 0.24437 0.0
C43 C 0.86713 0.33313 0.23805 0.0
C44 C 0.90135 0.1677 0.30091 0.0
C45 C 0.9508 0.12264 0.30925 0.0
C46 C 0.93551 0.14774 0.28442 0.0
C47 C 0.88009 0.16017 0.34078 0.0
C48 C 0.89568 0.13576 0.36564 0.0
C49 C 0.93231 0.11866 0.35057 0.0
C50 C 0.89222 0.20103 0.27944 0.0
O51 O 0.86782 0.2971 0.34974 0.0
O52 O 0.82265 0.34495 0.35415 0.0
O53 O 0.74117 0.26305 0.34727 0.0
O54 O 0.79354 0.22381 0.34938 0.0
C55 C 0.85593 0.33209 0.3665 0.0
O56 O 0.75854 0.37706 0.30113 0.0
O57 O 0.70558 0.3184 0.31642 0.0
O58 O 0.76275 0.27078 0.2429 0.0
O59 O 0.77597 0.21634 0.27379 0.0
O60 O 0.8685 0.2935 0.24448 0.0
O61 O 0.83607 0.35043 0.25918 0.0
C62 C 0.75342 0.23156 0.36222 0.0
O63 O 0.85069 0.19196 0.26696 0.0
O64 O 0.90565 0.24058 0.29882 0.0
C65 C 0.68597 0.36395 0.27379 0.0
C66 C 0.64221 0.37273 0.20404 0.0
C67 C 0.63042 0.3322 0.22035 0.0
C68 C 0.65179 0.32796 0.25552 0.0
C69 C 0.69604 0.40489 0.25826 0.0
C70 C 0.67426 0.40924 0.22358 0.0
C71 C 0.71439 0.35818 0.30593 0.0
H72 H 0.9789 0.10904 0.29751 0.0
H73 H 0.95194 0.15357 0.2535 0.0
H74 H 0.85362 0.17552 0.35364 0.0
H75 H 0.88102 0.13233 0.3975 0.0
H76 H 0.60516 0.30405 0.20575 0.0
H77 H 0.64227 0.2963 0.26764 0.0
H78 H 0.72185 0.43312 0.27206 0.0
H79 H 0.68306 0.44093 0.21133 0.0
Tb80 Tb 0.77367 0.76623 0.32386 0.0
Eu81 Eu 0.85394 0.78864 0.26261 0.0
C82 C 0.76545 0.70401 0.24437 0.0
C83 C 0.861 0.72243 0.34102 0.0
C84 C 0.68239 0.79043 0.39167 0.0
C85 C 0.62672 0.81606 0.4387 0.0
C86 C 0.64542 0.78203 0.42165 0.0
C87 C 0.70072 0.8328 0.37896 0.0
C88 C 0.68216 0.86659 0.39588 0.0
C89 C 0.64518 0.85832 0.42574 0.0
C90 C 0.70374 0.75628 0.37401 0.0
O91 O 0.81553 0.82589 0.35838 0.0
O92 O 0.88289 0.83569 0.31907 0.0
O93 O 0.81382 0.83555 0.23785 0.0
O94 O 0.74915 0.80801 0.27658 0.0
C95 C 0.86013 0.84356 0.35442 0.0
O96 O 0.92519 0.81779 0.23957 0.0
O97 O 0.87834 0.76949 0.19924 0.0
O98 O 0.79491 0.73781 0.22908 0.0
O99 O 0.76028 0.70381 0.28488 0.0
O100 O 0.8171 0.72491 0.35064 0.0
O101 O 0.88059 0.74511 0.30811 0.0
C102 C 0.76884 0.83386 0.24467 0.0
O103 O 0.70162 0.74674 0.33353 0.0
O104 O 0.74521 0.76264 0.38571 0.0
C105 C 0.94724 0.75639 0.20747 0.0
C106 C 0.9896 0.68969 0.20705 0.0
C107 C 1.01103 0.72669 0.18526 0.0
C108 C 0.99032 0.76071 0.18636 0.0
C109 C 0.92664 0.71936 0.22906 0.0
C110 C 0.94932 0.68823 0.23182 0.0
C111 C 0.92117 0.78818 0.20713 0.0
H112 H 0.59793 0.80956 0.46176 0.0
H113 H 0.63125 0.74948 0.43181 0.0
H114 H 0.72956 0.83978 0.35602 0.0
H115 H 0.69647 0.89912 0.38567 0.0
H116 H 0.0427 0.72837 0.16625 0.0
H117 H 1.00654 0.78885 0.16924 0.0
H118 H 0.89142 0.7127 0.24141 0.0
H119 H 0.93247 0.66001 0.24872 0.0
Tb120 Tb 0.32238 0.76131 0.31911 0.0
Eu121 Eu 0.25372 0.80374 0.28049 0.0
C122 C 0.31994 0.85658 0.35719 0.0
C123 C 0.22075 0.746 0.35683 0.0
C124 C 0.41847 0.71867 0.33016 0.0
C125 C 0.47813 0.73609 0.27464 0.0
C126 C 0.45298 0.74999 0.30926 0.0
C127 C 0.41561 0.67389 0.32123 0.0
C128 C 0.44018 0.6601 0.28629 0.0
C129 C 0.4684 0.69122 0.26117 0.0
C130 C 0.37788 0.7303 0.35023 0.0
O131 O 0.30952 0.72234 0.2558 0.0
O132 O 0.24096 0.7348 0.24603 0.0
O133 O 0.31474 0.81146 0.23504 0.0
O134 O 0.36639 0.81164 0.28223 0.0
C135 C 0.2708 0.71208 0.23562 0.0
O136 O 0.18563 0.79356 0.25788 0.0
O137 O 0.2378 0.85509 0.25099 0.0
O138 O 0.29975 0.86052 0.32354 0.0
O139 O 0.31831 0.81694 0.36601 0.0
O140 O 0.25474 0.72895 0.3451 0.0
O141 O 0.21782 0.7812 0.34159 0.0
C142 C 0.35684 0.82313 0.24715 0.0
O143 O 0.38019 0.7719 0.35438 0.0
O144 O 0.33905 0.70638 0.3351 0.0
C145 C 0.16137 0.85687 0.26911 0.0
C146 C 0.09983 0.8833 0.32906 0.0
C147 C 0.08282 0.84976 0.29711 0.0
C148 C 0.11375 0.8363 0.26721 0.0
C149 C 0.17712 0.89412 0.29777 0.0
C150 C 0.14659 0.90701 0.32763 0.0
C151 C 0.1942 0.83389 0.24889 0.0
H152 H 0.50163 0.76006 0.25617 0.0
H153 H 0.45687 0.78494 0.31633 0.0
H154 H 0.38989 0.64936 0.33754 0.0
H155 H 0.43365 0.62517 0.2765 0.0
H156 H 0.04658 0.83187 0.29736 0.0
H157 H 0.10101 0.80758 0.24505 0.0
H158 H 0.21348 0.91092 0.29986 0.0
H159 H 0.16021 0.9335 0.35179 0.0
Tb160 Tb 0.33052 0.76662 0.78791 0.0
Eu161 Eu 0.25431 0.81158 0.8314 0.0
C162 C 0.23392 0.7466 0.74021 0.0
C163 C 0.33182 0.85844 0.76011 0.0
C164 C 0.41028 0.70749 0.79928 0.0
C165 C 0.46532 0.67385 0.822 0.0
C166 C 0.44817 0.69031 0.79013 0.0
C167 C 0.39042 0.70842 0.84033 0.0
C168 C 0.40798 0.69331 0.87199 0.0
C169 C 0.4452 0.67539 0.86327 0.0
C170 C 0.39108 0.72651 0.76811 0.0
O171 O 0.36282 0.80429 0.84817 0.0
O172 O 0.30979 0.83801 0.88018 0.0
O173 O 0.24916 0.75814 0.87259 0.0
O174 O 0.28345 0.7171 0.82403 0.0
C175 C 0.35053 0.83075 0.87998 0.0
O176 O 0.23393 0.86792 0.86365 0.0
O177 O 0.18155 0.80841 0.84421 0.0
O178 O 0.21747 0.76244 0.77662 0.0
O179 O 0.27925 0.75054 0.73638 0.0
O180 O 0.35014 0.82555 0.75562 0.0
O181 O 0.29567 0.85913 0.78569 0.0
C182 C 0.26033 0.72174 0.85985 0.0
O183 O 0.3474 0.70857 0.76262 0.0
O184 O 0.4003 0.76919 0.77375 0.0
C185 C 0.17231 0.87557 0.82854 0.0
C186 C 0.15153 0.91327 0.76117 0.0
C187 C 0.18858 0.93634 0.78561 0.0
C188 C 0.19871 0.91784 0.81926 0.0
C189 C 0.13291 0.85422 0.80599 0.0
C190 C 0.12264 0.87296 0.77243 0.0
C191 C 0.19087 0.85076 0.85503 0.0
H192 H 0.49385 0.65972 0.81453 0.0
H193 H 0.46414 0.68941 0.75862 0.0
H194 H 0.36101 0.72098 0.84805 0.0
H195 H 0.39143 0.69427 0.90329 0.0
H196 H 0.21082 0.96779 0.77749 0.0
H197 H 0.22905 0.93548 0.83616 0.0
H198 H 0.11181 0.82176 0.81246 0.0
H199 H 0.09353 0.8551 0.75401 0.0
Tb200 Tb 0.30406 0.31145 0.75394 0.0
Eu201 Eu 0.3032 0.25048 0.83089 0.0
C202 C 0.36931 0.34699 0.82508 0.0
C203 C 0.36693 0.24378 0.74069 0.0
C204 C 0.26456 0.38596 0.69743 0.0
C205 C 0.22031 0.41486 0.65494 0.0
C206 C 0.25138 0.39065 0.65799 0.0
C207 C 0.24597 0.40569 0.7339 0.0
C208 C 0.21499 0.43003 0.73083 0.0
C209 C 0.20191 0.43465 0.6913 0.0
C210 C 0.29736 0.36032 0.70026 0.0
O211 O 0.2436 0.25442 0.74729 0.0
O212 O 0.26211 0.20313 0.78105 0.0
O213 O 0.24708 0.28586 0.85339 0.0
O214 O 0.26581 0.33904 0.80722 0.0
C215 C 0.24048 0.21334 0.75202 0.0
O216 O 0.28009 0.19738 0.87264 0.0
O217 O 0.34579 0.24698 0.8802 0.0
O218 O 0.3389 0.32129 0.84869 0.0
O219 O 0.36871 0.34023 0.78417 0.0
O220 O 0.35006 0.27195 0.72492 0.0
O221 O 0.35605 0.23451 0.78007 0.0
C222 C 0.24363 0.32341 0.84184 0.0
O223 O 0.32427 0.37339 0.73144 0.0
O224 O 0.28073 0.31764 0.69571 0.0
C225 C 0.34078 0.17893 0.90407 0.0
C226 C 0.39756 0.13173 0.93064 0.0
C227 C 0.39646 0.13627 0.88769 0.0
C228 C 0.36869 0.16012 0.87456 0.0
C229 C 0.34046 0.17267 0.94656 0.0
C230 C 0.36849 0.14944 0.9597 0.0
C231 C 0.31799 0.21106 0.89306 0.0
H232 H 0.21066 0.4183 0.62417 0.0
H233 H 0.26519 0.37567 0.62956 0.0
H234 H 0.25553 0.40255 0.76476 0.0
H235 H 0.2013 0.44528 0.75916 0.0
H236 H 0.4183 0.12271 0.86459 0.0
H237 H 0.37021 0.16516 0.84168 0.0
H238 H 0.3199 0.18744 0.97001 0.0
H239 H 0.36846 0.14634 0.99291 0.0
Tb240 Tb 0.84621 0.26269 0.80239 0.0
Eu241 Eu 0.77713 0.31727 0.82437 0.0
C242 C 0.8696 0.34128 0.87373 0.0
C243 C 0.76904 0.23542 0.88316 0.0
C244 C 0.92415 0.22401 0.73151 0.0
C245 C 0.99042 0.24894 0.68361 0.0
C246 C 0.97169 0.2415 0.7242 0.0
C247 C 0.89542 0.21601 0.69784 0.0
C248 C 0.91397 0.22313 0.65732 0.0
C249 C 0.9621 0.23778 0.64886 0.0
C250 C 0.90405 0.22311 0.77484 0.0
O251 O 0.79513 0.23982 0.75469 0.0
O252 O 0.73861 0.24799 0.80121 0.0
O253 O 0.81886 0.35129 0.76674 0.0
O254 O 0.87592 0.31775 0.75975 0.0
C255 C 0.75154 0.22835 0.76648 0.0
O256 O 0.72242 0.33229 0.79509 0.0
O257 O 0.73721 0.35782 0.86 0.0
O258 O 0.83887 0.35786 0.86085 0.0
O259 O 0.8714 0.30145 0.86006 0.0
O260 O 0.80147 0.2254 0.85537 0.0
O261 O 0.75709 0.27146 0.87843 0.0
C262 C 0.85861 0.34812 0.74781 0.0
O263 O 0.91504 0.26139 0.79702 0.0
O264 O 0.86012 0.20282 0.77959 0.0
C265 C 0.66034 0.32586 0.84425 0.0
C266 C 0.59051 0.30399 0.9051 0.0
C267 C 0.58816 0.33338 0.87657 0.0
C268 C 0.62555 0.34687 0.84796 0.0
C269 C 0.65241 0.28597 0.86185 0.0
C270 C 0.61646 0.27439 0.89217 0.0
C271 C 0.70738 0.34899 0.83076 0.0
H272 H 1.02744 0.26174 0.67961 0.0
H273 H 0.99433 0.25005 0.75007 0.0
H274 H 0.8583 0.20472 0.70269 0.0
H275 H 0.89017 0.21554 0.63251 0.0
H276 H 0.56558 0.35441 0.88396 0.0
H277 H 0.62992 0.37651 0.83305 0.0
H278 H 0.67756 0.26764 0.85722 0.0
H279 H 0.61659 0.24926 0.91184 0.0
Tb280 Tb 0.7672 0.77978 0.77732 0.0
Eu281 Eu 0.84291 0.7888 0.84657 0.0
C282 C 0.84742 0.72515 0.75568 0.0
C283 C 0.74871 0.70656 0.83996 0.0
C284 C 0.69405 0.81505 0.70777 0.0
C285 C 0.66703 0.84266 0.65029 0.0
C286 C 0.68616 0.81255 0.66494 0.0
C287 C 0.6835 0.84909 0.73556 0.0
C288 C 0.66422 0.87914 0.72091 0.0
C289 C 0.65542 0.87595 0.67821 0.0
C290 C 0.71237 0.78146 0.72268 0.0
O291 O 0.7412 0.81811 0.834 0.0
O292 O 0.80172 0.83784 0.87698 0.0
O293 O 0.88133 0.83554 0.7993 0.0
O294 O 0.8189 0.84195 0.76843 0.0
C295 C 0.76003 0.84007 0.86936 0.0
O296 O 0.85757 0.79142 0.91239 0.0
O297 O 0.91162 0.79093 0.8644 0.0
O298 O 0.86301 0.74028 0.79353 0.0
O299 O 0.81083 0.73621 0.745 0.0
O300 O 0.73881 0.71754 0.80459 0.0
O301 O 0.78474 0.72952 0.86048 0.0
C302 C 0.86349 0.85193 0.77169 0.0
O303 O 0.75611 0.78562 0.71467 0.0
O304 O 0.69937 0.77082 0.76064 0.0
C305 C 0.90739 0.74859 0.92061 0.0
C306 C 0.92557 0.67683 0.95206 0.0
C307 C 0.95886 0.71801 0.953 0.0
C308 C 0.94986 0.75356 0.93739 0.0
C309 C 0.87409 0.7073 0.91948 0.0
C310 C 0.883 0.67176 0.93529 0.0
C311 C 0.89839 0.78611 0.90357 0.0
H312 H 0.66023 0.83936 0.61732 0.0
H313 H 0.69411 0.78676 0.64287 0.0
H314 H 0.68946 0.85204 0.76869 0.0
H315 H 0.65523 0.90435 0.74304 0.0
H316 H 0.99185 0.72262 0.96597 0.0
H317 H 0.97609 0.78495 0.93841 0.0
H318 H 0.84115 0.70255 0.90646 0.0
H319 H 0.8568 0.64037 0.9344 0.0
Fe320 Fe 0.07229 0.09084 0.5459 0.0
O321 O 1.02167 0.0389 0.57711 0.0
Fe322 Fe 0.15865 0.03158 0.5348 0.0
Fe323 Fe 0.94866 1.01789 0.57399 0.0
O324 O 0.09254 0.03528 0.53703 0.0
O325 O 0.08642 1.01643 0.53416 0.0
O326 O 1.01551 1.016 0.57034 0.0
Fe327 Fe 0.03652 0.96161 0.56135 0.0
C328 C 0.98818 0.10357 0.60461 0.0
O329 O 1.03054 0.06862 0.49613 0.0
O330 O 0.95724 0.05432 0.52374 0.0
O331 O 0.09204 0.96461 0.51995 0.0
O332 O 0.15249 0.9844 0.48234 0.0
O333 O 0.17434 0.07993 0.49268 0.0
O334 O 0.12545 0.12214 0.50506 0.0
O335 O 0.9355 0.96209 0.52988 0.0
O336 O 0.9982 0.94048 0.50904 0.0
C337 C 0.16085 0.11291 0.48564 0.0
O338 O 0.0773 0.98077 0.61128 0.0
O339 O 0.14737 0.98503 0.57871 0.0
O340 O 1.01907 0.08524 0.59075 0.0
O341 O 0.95138 0.07561 0.61462 0.0
C342 C 0.98758 0.06389 0.49371 0.0
C343 C 0.95732 0.94061 0.50379 0.0
C344 C 0.95263 0.94635 0.62848 0.0
O345 O 0.93945 0.98003 0.62335 0.0
O346 O 0.98216 0.93258 0.60308 0.0
C347 C 0.11317 0.95738 0.48549 0.0
O348 O 0.16774 0.07733 0.58708 0.0
O349 O 0.11417 0.11369 0.59601 0.0
C350 C 0.11844 0.97798 0.61069 0.0
C351 C 0.14968 0.10569 0.60764 0.0
Fe352 Fe 0.56591 0.9168 0.07107 0.0
O353 O 0.58564 0.98432 0.07646 0.0
Fe354 Fe 0.51001 1.00978 0.08891 0.0
Fe355 Fe 0.65584 0.0191 0.07446 0.0
O356 O 0.5689 0.9829 0.07469 0.0
O357 O 0.55141 0.0566 0.12095 0.0
O358 O 0.6203 0.05647 0.05065 0.0
Fe359 Fe 0.58581 0.10147 0.08623 0.0
C360 C 0.66058 0.93224 0.12651 0.0
O361 O 0.61761 0.91538 1.02036 0.0
O362 O 0.66864 0.9819 1.01531 0.0
O363 O 0.54096 0.10153 0.04354 0.0
O364 O 0.51776 0.03192 0.03015 0.0
O365 O 0.46608 0.95486 0.05085 0.0
O366 O 0.51322 0.91111 0.02715 0.0
O367 O 0.66564 0.08484 0.03864 0.0
O368 O 0.63372 0.14262 0.04788 0.0
C369 C 0.47617 0.92356 0.02431 0.0
O370 O 0.53185 0.12976 0.12449 0.0
O371 O 0.47197 0.0649 0.11841 0.0
O372 O 0.61759 0.91328 0.11669 0.0
O373 O 0.67901 0.97032 0.11014 0.0
C374 C 0.65423 0.94001 1.00226 0.0
C375 C 0.66401 0.1247 0.02728 0.0
C376 C 0.65207 0.09155 0.14475 0.0
O377 O 0.64673 0.05092 0.13325 0.0
O378 O 0.63251 0.1153 0.12901 0.0
C379 C 0.51695 0.06919 1.02258 0.0
O380 O 0.49508 0.97736 0.14154 0.0
O381 O 0.51549 0.91424 0.12004 0.0
C382 C 0.48684 0.10912 0.13332 0.0
C383 C 0.49307 0.93714 0.14451 0.0
Fe384 Fe 0.11485 0.60412 0.035 0.0
O385 O 0.10118 0.53983 1.02185 0.0
Fe386 Fe 0.15526 0.5107 1.02292 0.0
Fe387 Fe 0.04991 0.49815 0.05288 0.0
O388 O 0.10594 0.54008 1.01892 0.0
O389 O 0.10395 0.4687 0.05457 0.0
O390 O 0.09828 0.46769 0.05605 0.0
Fe391 Fe 0.08642 0.40372 0.04358 0.0
C392 C 0.06723 0.57338 0.11837 0.0
O393 O 0.05421 0.59293 1.00659 0.0
O394 O 1.006 0.53681 0.04208 0.0
O395 O 0.12445 0.40283 0.98714 0.0
O396 O 0.14271 0.46942 0.96476 0.0
O397 O 0.20038 0.55949 0.98728 0.0
O398 O 0.15741 0.60753 0.98165 0.0
O399 O 1.02931 0.4623 0.99703 0.0
O400 O 1.02643 0.39516 1.01175 0.0
C401 C 0.19154 0.59121 0.97034 0.0
O402 O 0.15131 0.41668 0.06715 0.0
O403 O 0.1988 0.47512 0.03278 0.0
O404 O 0.07558 0.60014 0.09066 0.0
O405 O 0.06796 0.53377 0.1096 0.0
C406 C 1.01384 0.56883 1.01808 0.0
C407 C 1.01357 0.42077 0.99089 0.0
C408 C 1.00805 0.41811 0.108 0.0
O409 O 1.00216 0.44971 0.08857 0.0
O410 O 0.04345 0.40242 0.09953 0.0
C411 C 0.14239 0.42838 0.95911 0.0
O412 O 0.17741 0.54973 0.08055 0.0
O413 O 0.17297 0.61532 0.06922 0.0
C414 C 0.19141 0.44193 0.05425 0.0
C415 C 0.18814 0.59167 0.09021 0.0
Fe416 Fe 0.54907 0.52797 0.99073 0.0
O417 O 0.59341 0.55382 0.03627 0.0
Fe418 Fe 0.44147 0.50997 0.04512 0.0
Fe419 Fe 0.6556 0.54488 0.03318 0.0
O420 O 0.5042 0.50554 0.03784 0.0
O421 O 0.50445 0.50343 0.0413 0.0
O422 O 0.59344 0.55319 0.04044 0.0
Fe423 Fe 0.54869 0.52822 0.08659 0.0
C424 C 0.60221 0.46033 0.98472 0.0
O425 O 0.60227 0.5524 0.94607 0.0
O426 O 0.66593 0.5851 0.98433 0.0
O427 O 0.52923 0.58446 0.09453 0.0
O428 O 0.45313 0.55653 0.09782 0.0
O429 O 0.45501 0.55916 1.00689 0.0
O430 O 0.53033 0.58592 0.99324 0.0
O431 O 0.66687 0.59216 0.08413 0.0
O432 O 0.60387 0.56079 0.12769 0.0
C433 C 0.4892 0.58893 0.9936 0.0
O434 O 0.49299 0.49478 0.12844 0.0
O435 O 0.43057 0.46397 0.08731 0.0
O436 O 0.56437 0.46952 0.98605 0.0
O437 O 0.63997 0.49062 0.98909 0.0
C438 C 0.64315 0.57942 0.95057 0.0
C439 C 0.64522 0.58752 0.12087 0.0
C440 C 0.60787 0.47097 0.08715 0.0
O441 O 0.64375 0.50129 0.07812 0.0
O442 O 0.56825 0.47218 0.07962 0.0
C443 C 0.48975 0.58569 0.10959 0.0
O444 O 0.43313 0.46735 0.98953 0.0
O445 O 0.4984 0.49806 0.94871 0.0
C446 C 0.45204 0.46756 0.12128 0.0
C447 C 0.45729 0.47195 0.95392 0.0
Fe448 Fe 0.04675 0.46409 0.53797 0.0
O449 O 0.0506 0.52784 0.54088 0.0
Fe450 Fe 0.03471 0.55226 0.4805 0.0
Fe451 Fe 1.02259 0.5609 0.59157 0.0
O452 O 0.05392 0.52843 0.53132 0.0
O453 O 1.00588 0.58547 0.5318 0.0
O454 O 1.0022 0.58568 0.54232 0.0
Fe455 Fe 1.01514 0.65184 0.54166 0.0
C456 C 0.96327 0.46695 0.60872 0.0
O457 O 0.0896 0.48688 0.587 0.0
O458 O 0.05376 0.53172 0.63227 0.0
O459 O 0.06677 0.66151 0.49468 0.0
O460 O 0.09438 0.60316 0.48022 0.0
O461 O 0.07869 0.50417 0.43907 0.0
O462 O 0.09904 0.46644 0.48695 0.0
O463 O 0.08596 0.6112 0.59647 0.0
O464 O 0.06542 0.67044 0.5901 0.0
C465 C 0.10271 0.47536 0.44796 0.0
O466 O 0.97015 0.64117 0.48984 0.0
O467 O 0.99726 0.59298 0.44105 0.0
O468 O 0.99409 0.45154 0.5875 0.0
O469 O 0.96162 0.50589 0.60165 0.0
C470 C 0.08256 0.50768 0.6234 0.0
C471 C 0.09191 0.65247 0.6063 0.0
C472 C 0.96247 0.62986 0.62902 0.0
O473 O 0.9861 0.60213 0.63561 0.0
O474 O 0.96523 0.64475 0.59257 0.0
C475 C 0.09593 0.64272 0.47614 0.0
O476 O 0.97562 0.5017 0.47962 0.0
O477 O 0.99907 0.4439 0.49278 0.0
C478 C 0.97273 0.62411 0.45044 0.0
C479 C 0.97161 0.46072 0.4774 0.0
Fe480 Fe 0.46637 0.96394 0.55973 0.0
O481 O 0.48348 0.02894 0.56999 0.0
Fe482 Fe 0.52223 0.06347 0.51906 0.0
Fe483 Fe 0.51997 0.0637 0.61894 0.0
O484 O 0.48349 0.0291 0.56454 0.0
O485 O 0.55858 0.09755 0.56796 0.0
O486 O 0.55817 0.09771 0.57314 0.0
Fe487 Fe 0.5778 0.16239 0.5775 0.0
C488 C 0.43721 0.98777 0.65229 0.0
O489 O 0.51474 0.95726 0.5978 0.0
O490 O 0.56291 0.02304 0.61474 0.0
O491 O 0.62172 0.15599 0.52442 0.0
O492 O 0.57293 0.106 0.47835 0.0
O493 O 0.56453 0.02316 0.51044 0.0
O494 O 0.51118 0.95875 0.50909 0.0
O495 O 0.56622 0.10614 0.66327 0.0
O496 O 0.6179 0.15454 0.62214 0.0
C497 C 0.5521 0.98178 0.50154 0.0
O498 O 0.53499 0.16931 0.53541 0.0
O499 O 0.4808 0.10517 0.5256 0.0
O500 O 0.42555 0.96865 0.61494 0.0
O501 O 0.4734 0.02144 0.65924 0.0
C502 C 0.55192 0.98123 0.61362 0.0
C503 C 0.60522 0.13642 0.65673 0.0
C504 C 0.48896 0.1462 0.6397 0.0
O505 O 0.47647 0.10459 0.62965 0.0
O506 O 0.5288 0.16967 0.62732 0.0
C507 C 0.6117 0.13721 0.4866 0.0
O508 O 0.47408 0.01956 0.47451 0.0
O509 O 0.4237 0.96994 0.51516 0.0
C510 C 0.49559 0.14656 0.52388 0.0
C511 C 0.43562 0.98746 0.4798 0.0
C512 C 0.18617 0.1822 0.39155 0.0
C513 C 0.23521 0.1975 0.38901 0.0
C514 C 0.23556 0.16077 0.45238 0.0
C515 C 0.18692 0.14152 0.45199 0.0
N516 N 0.11806 0.12665 0.41396 0.0
N517 N 0.30669 0.19373 0.413 0.0
C518 C 0.16289 0.15019 0.41947 0.0
C519 C 0.25991 0.18466 0.41837 0.0
N520 N 0.16131 0.19987 0.36893 0.0
N521 N 0.2585 0.15808 0.48616 0.0
H522 H 0.3256 0.21027 0.38829 0.0
H523 H 0.3261 0.18113 0.4306 0.0
H524 H 0.24209 0.14204 0.51197 0.0
H525 H 0.29284 0.17541 0.49044 0.0
H526 H 0.12562 0.19315 0.37263 0.0
H527 H 0.17643 0.22498 0.34997 0.0
H528 H 0.10038 0.12819 0.38813 0.0
H529 H 0.1 0.10209 0.4326 0.0
C530 C 0.92825 0.05925 0.39355 0.0
C531 C 0.95306 0.10049 0.38062 0.0
C532 C 0.99832 0.1185 0.4426 0.0
C533 C 0.9737 0.07681 0.45574 0.0
N534 N 0.90734 1.0124 0.4494 0.0
N535 N 1.0161 0.16684 0.38742 0.0
C536 C 0.93644 0.04838 0.43284 0.0
C537 C 0.98982 0.12917 0.40332 0.0
N538 N 0.89733 0.03038 0.36755 0.0
N539 N 1.02621 0.14951 0.46964 0.0
H540 H 1.01001 0.17643 0.35918 0.0
H541 H 0.04622 0.18699 0.4003 0.0
H542 H 1.03008 0.14461 0.50042 0.0
H543 H 0.0417 0.18193 0.46369 0.0
H544 H 0.88055 0.99806 0.37308 0.0
H545 H 0.89149 0.03767 0.33811 0.0
H546 H 0.87634 0.9941 0.43678 0.0
H547 H 0.91223 1.00176 0.47731 0.0
C548 C 0.91922 0.91039 0.38958 0.0
C549 C 0.88553 0.86908 0.39247 0.0
C550 C 0.8978 0.87581 0.46862 0.0
C551 C 0.93377 0.91519 0.46513 0.0
N552 N 0.98152 0.96881 0.42183 0.0
N553 N 0.85237 0.8077 0.43351 0.0
C554 C 0.9457 0.93171 0.42521 0.0
C555 C 0.87728 0.85064 0.43173 0.0
N556 N 0.92455 0.93004 0.35332 0.0
N557 N 0.8828 0.86226 0.50741 0.0
H558 H 0.83851 0.78703 0.40744 0.0
H559 H 0.84989 0.79099 0.45983 0.0
H560 H 0.89822 0.87841 0.53495 0.0
H561 H 0.85287 0.83704 0.51262 0.0
H562 H 0.94625 0.96122 0.34924 0.0
H563 H 0.90425 0.91658 0.32779 0.0
H564 H 0.99351 0.98267 0.394 0.0
H565 H 1.00042 0.98575 0.44731 0.0
C566 C 0.07022 0.86631 0.40084 0.0
C567 C 0.07212 0.89199 0.36748 0.0
C568 C 0.08302 0.95847 0.41588 0.0
C569 C 0.08885 0.9341 0.44802 0.0
N570 N 0.07103 0.86436 0.47612 0.0
N571 N 0.06138 0.95606 0.34413 0.0
C572 C 0.07596 0.88762 0.44232 0.0
C573 C 0.07035 0.93578 0.376 0.0
N574 N 0.06823 0.82284 0.39207 0.0
N575 N 0.09151 1.00314 0.42303 0.0
H576 H 0.05293 0.93864 0.31476 0.0
H577 H 0.05938 0.98831 0.34723 0.0
H578 H 0.09817 0.02034 0.45262 0.0
H579 H 0.09233 0.02326 0.39977 0.0
H580 H 0.0738 0.80375 0.41394 0.0
H581 H 0.06174 0.80608 0.36224 0.0
H582 H 0.05836 0.83022 0.47432 0.0
H583 H 0.07593 0.87967 0.50672 0.0
C584 C 0.15587 0.91001 0.68256 0.0
C585 C 0.14464 0.93046 0.72239 0.0
C586 C 0.126 0.9867 0.68831 0.0
C587 C 0.1314 0.96318 0.64846 0.0
N588 N 0.14352 0.89775 0.60809 0.0
N589 N 0.11244 0.98431 0.76346 0.0
C590 C 0.14444 0.92361 0.64556 0.0
C591 C 0.12791 0.96778 0.72538 0.0
N592 N 0.17847 0.87838 0.68006 0.0
N593 N 0.12046 0.02785 0.69066 0.0
H594 H 0.11321 0.9712 0.79144 0.0
H595 H 0.09515 1.00847 0.76682 0.0
H596 H 0.11973 0.04281 0.66394 0.0
H597 H 0.12134 0.04857 0.71858 0.0
H598 H 0.1914 0.86533 0.65181 0.0
H599 H 0.1882 0.86818 0.70651 0.0
H600 H 0.14778 0.86626 0.60532 0.0
H601 H 0.1343 0.90585 0.58033 0.0
C602 C 0.16667 0.17113 0.7172 0.0
C603 C 0.21444 0.17824 0.72089 0.0
C604 C 0.21998 0.14038 0.65043 0.0
C605 C 0.17151 0.13025 0.64728 0.0
N606 N 0.09833 0.12124 0.68729 0.0
N607 N 0.28058 0.15197 0.69778 0.0
C608 C 0.14445 0.14146 0.68337 0.0
C609 C 0.23909 0.15684 0.68993 0.0
N610 N 0.14222 0.19188 0.74622 0.0
N611 N 0.2486 0.13734 0.61557 0.0
H612 H 0.29566 0.1628 0.72647 0.0
H613 H 0.29713 0.13252 0.67726 0.0
H614 H 0.23757 0.13161 0.58508 0.0
H615 H 0.28429 0.14634 0.61667 0.0
H616 H 0.10825 0.19115 0.74242 0.0
H617 H 0.1568 0.21154 0.7728 0.0
H618 H 0.07824 0.12568 0.71466 0.0
H619 H 0.08124 0.09635 0.66524 0.0
C620 C 1.02659 0.22798 0.60152 0.0
C621 C 0.98242 0.23344 0.60436 0.0
C622 C 0.95168 0.15761 0.57777 0.0
C623 C 0.98944 0.1487 0.59571 0.0
N624 N 0.06523 0.17988 0.62388 0.0
N625 N 0.9252 0.21559 0.55389 0.0
C626 C 1.02906 0.18507 0.60531 0.0
C627 C 0.95324 0.20241 0.57686 0.0
N628 N 0.06405 0.26373 0.60185 0.0
N629 N 0.91387 0.12516 0.56454 0.0
H630 H 0.92594 0.24876 0.55618 0.0
H631 H 0.90446 0.19449 0.53136 0.0
H632 H 0.90946 0.09189 0.56556 0.0
H633 H 0.88498 0.13184 0.5549 0.0
H634 H 0.09766 0.26112 0.59896 0.0
H635 H 0.06017 0.29528 0.60227 0.0
H636 H 0.09313 0.20609 0.63365 0.0
H637 H 0.06349 0.15031 0.63467 0.0
C638 C 0.90941 0.85522 0.70245 0.0
C639 C 0.8938 0.87803 0.73898 0.0
C640 C 0.92662 0.94686 0.70646 0.0
C641 C 0.93327 0.92267 0.66685 0.0
N642 N 0.92061 0.85084 0.62692 0.0
N643 N 0.88425 0.94616 0.77443 0.0
C644 C 0.9221 0.87599 0.66479 0.0
C645 C 0.9012 0.92406 0.7405 0.0
N646 N 0.91274 0.81373 0.70366 0.0
N647 N 0.94687 0.99119 0.71266 0.0
H648 H 0.86763 0.93077 0.80063 0.0
H649 H 0.88431 0.97892 0.77522 0.0
H650 H 0.96935 1.00866 0.6903 0.0
H651 H 0.94609 1.00954 0.74184 0.0
H652 H 0.92772 0.7971 0.67892 0.0
H653 H 0.90609 0.79856 0.73125 0.0
H654 H 0.90853 0.81657 0.62404 0.0
H655 H 0.92585 0.86388 0.59821 0.0
C656 C 0.43394 0.19483 0.22802 0.0
C657 C 0.38841 0.19732 0.21756 0.0
C658 C 0.40463 0.1382 0.15449 0.0
C659 C 0.45176 0.13882 0.16292 0.0
N660 N 0.50918 0.17827 0.21164 0.0
N661 N 0.33933 0.17126 0.15927 0.0
C662 C 0.46502 0.17055 0.20062 0.0
C663 C 0.37687 0.1684 0.17775 0.0
N664 N 0.44779 0.21416 0.26681 0.0
N665 N 0.38482 0.10774 0.12291 0.0
H666 H 0.31957 0.19185 0.17238 0.0
H667 H 0.33085 0.15733 0.12892 0.0
H668 H 0.40288 0.08832 0.10426 0.0
H669 H 0.3499 0.09929 0.1175 0.0
H670 H 0.47579 0.20994 0.28048 0.0
H671 H 0.42823 0.23049 0.2874 0.0
H672 H 0.52528 0.20468 0.23274 0.0
H673 H 0.53078 0.15982 0.19756 0.0
C674 C 0.90362 0.33607 0.16244 0.0
C675 C 0.90107 0.35728 0.20417 0.0
C676 C 0.96823 0.41912 0.18283 0.0
C677 C 0.97107 0.39729 0.14137 0.0
N678 N 0.94725 0.32983 0.09566 0.0
N679 N 0.92845 0.42225 0.25237 0.0
C680 C 0.94029 0.35437 0.13242 0.0
C681 C 0.93262 0.39986 0.21369 0.0
N682 N 0.86896 0.29947 0.15044 0.0
N683 N 1.00208 0.45682 0.19375 0.0
H684 H 0.90504 0.40883 0.27618 0.0
H685 H 0.94611 0.45502 0.26049 0.0
H686 H 1.02911 0.47063 0.17279 0.0
H687 H 1.00582 0.47292 0.22401 0.0
H688 H 0.86536 0.28492 0.11956 0.0
H689 H 0.84071 0.28636 0.17048 0.0
H690 H 0.93013 0.29659 0.08912 0.0
H691 H 0.97316 0.34153 0.07297 0.0
C692 C 0.69087 0.85204 0.21299 0.0
C693 C 0.74101 0.86094 0.2157 0.0
C694 C 0.73943 0.91626 0.1593 0.0
C695 C 0.68917 0.90782 0.15751 0.0
N696 N 0.62088 0.86978 0.19632 0.0
N697 N 0.81065 0.90645 0.18446 0.0
C698 C 0.66691 0.8759 0.18796 0.0
C699 C 0.7637 0.89465 0.18682 0.0
N700 N 0.66387 0.81817 0.23371 0.0
N701 N 0.76574 0.94723 0.13485 0.0
H702 H 0.8296 0.89982 0.20685 0.0
H703 H 0.8313 0.92209 0.16022 0.0
H704 H 0.75201 0.95949 0.11217 0.0
H705 H 0.80069 0.96242 0.13768 0.0
H706 H 0.6294 0.80295 0.2279 0.0
H707 H 0.67667 0.8028 0.2544 0.0
H708 H 0.60241 0.85406 0.22157 0.0
H709 H 0.60207 0.88487 0.18102 0.0
C710 C 0.26781 0.68971 0.15602 0.0
C711 C 0.26068 0.67694 0.1975 0.0
C712 C 0.21536 0.60208 0.16777 0.0
C713 C 0.21975 0.61619 0.12644 0.0
N714 N 0.26583 0.66823 0.08076 0.0
N715 N 0.23743 0.61777 0.24099 0.0
C716 C 0.25076 0.65851 0.12067 0.0
C717 C 0.23785 0.63193 0.20256 0.0
N718 N 0.29047 0.73237 0.1502 0.0
N719 N 0.18655 0.5617 0.1749 0.0
H720 H 0.2527 0.63885 0.26656 0.0
H721 H 0.22576 0.58491 0.24673 0.0
H722 H 0.1696 0.53902 0.15128 0.0
H723 H 0.17699 0.55137 0.20465 0.0
H724 H 0.29098 0.74594 0.12229 0.0
H725 H 0.30749 0.75469 0.17408 0.0
H726 H 0.29167 0.69634 0.07374 0.0
H727 H 0.2562 0.64541 0.05469 0.0
C728 C 0.3984 0.90145 0.9254 0.0
C729 C 0.38384 0.85438 0.91656 0.0
C730 C 0.42563 0.85275 0.98092 0.0
C731 C 0.44334 0.89971 0.98749 0.0
N732 N 0.45651 0.96589 0.95434 0.0
N733 N 0.39497 0.78683 0.93331 0.0
C734 C 0.43191 0.92316 0.9567 0.0
C735 C 0.40106 0.83074 0.94354 0.0
N736 N 0.38136 0.92635 0.90311 0.0
N737 N 0.43059 0.82855 1.01137 0.0
H738 H 0.37726 0.76975 0.9074 0.0
H739 H 0.41086 0.76844 0.94823 0.0
H740 H 0.44707 0.84285 0.03894 0.0
H741 H 0.41436 0.79497 1.01131 0.0
H742 H 0.38588 0.95993 0.91138 0.0
H743 H 0.36035 0.91313 0.87803 0.0
H744 H 0.45391 0.98401 0.93035 0.0
H745 H 0.48409 0.98097 0.97298 0.0
C746 C 0.23975 0.39617 0.88609 0.0
C747 C 0.21678 0.35195 0.86989 0.0
C748 C 0.14315 0.36536 0.9013 0.0
C749 C 0.16679 0.40755 0.92139 0.0
N750 N 0.23932 0.46211 0.93347 0.0
N751 N 0.14555 0.29445 0.86356 0.0
C752 C 0.21543 0.42291 0.91318 0.0
C753 C 0.16814 0.33669 0.878 0.0
N754 N 0.28559 0.41285 0.87601 0.0
N755 N 0.09607 0.35331 0.90348 0.0
H756 H 0.1618 0.27368 0.84457 0.0
H757 H 0.11141 0.27898 0.87216 0.0
H758 H 0.0772 0.37384 0.91903 0.0
H759 H 0.07575 0.32534 0.88687 0.0
H760 H 0.3032 0.44616 0.88051 0.0
H761 H 0.30583 0.39345 0.86134 0.0
H762 H 0.27501 0.47242 0.93468 0.0
H763 H 0.22344 0.48387 0.95109 0.0
C764 C 0.73579 0.22443 0.96289 0.0
C765 C 0.74437 0.20559 0.92054 0.0
C766 C 0.70036 0.13173 0.94782 0.0
C767 C 0.69559 0.15062 0.99052 0.0
N768 N 0.7213 0.21612 0.038 0.0
N769 N 0.73547 0.13698 0.87614 0.0
C770 C 0.71679 0.19725 0.99738 0.0
C771 C 0.72721 0.15797 0.91448 0.0
N772 N 0.74489 0.26904 0.97115 0.0
N773 N 0.67671 0.08868 0.93802 0.0
H774 H 0.74969 0.15361 0.85016 0.0
H775 H 0.73035 0.1031 0.87057 0.0
H776 H 0.65753 0.06898 0.96055 0.0
H777 H 0.67294 0.07344 0.9074 0.0
H778 H 0.73311 0.28425 0.99881 0.0
H779 H 0.76094 0.29114 0.94968 0.0
H780 H 0.74098 0.24829 0.0462 0.0
H781 H 0.71012 0.19808 0.06374 0.0
C782 C 0.94947 0.60628 0.94309 0.0
C783 C 0.93556 0.63978 0.96993 0.0
C784 C 0.95784 0.61389 0.03118 0.0
C785 C 0.97529 0.58282 1.00442 0.0
N786 N 0.97681 0.54086 0.93716 0.0
N787 N 0.91858 0.67022 0.04024 0.0
C788 C 0.96707 0.57604 0.96101 0.0
C789 C 0.93652 0.64126 1.01412 0.0
N790 N 0.9486 0.60519 0.90049 0.0
N791 N 0.96297 0.61958 0.07327 0.0
H792 H 0.90173 0.69049 0.02921 0.0
H793 H 0.91933 0.6727 0.07292 0.0
H794 H 0.97846 0.60093 0.08831 0.0
H795 H 0.97846 0.60093 0.08831 0.0
H796 H 0.96274 0.58481 0.87887 0.0
H797 H 0.93554 0.62645 0.88645 0.0
H798 H 0.96883 0.53152 0.90589 0.0
H799 H 0.98944 0.51858 0.9502 0.0
C800 C 0.23575 0.36497 0.08492 0.0
C801 C 0.21591 0.37412 0.12572 0.0
C802 C 0.2336 0.45046 0.11327 0.0
C803 C 0.23176 0.43599 0.07057 0.0
N804 N 0.24799 0.386 1.01375 0.0
N805 N 0.19404 0.42811 0.17826 0.0
C806 C 0.24058 0.39581 0.05583 0.0
C807 C 0.21565 0.41811 0.14073 0.0
N808 N 0.24998 0.32796 0.07453 0.0
N809 N 0.24377 0.49427 0.12624 0.0
H810 H 0.17479 0.40432 0.19723 0.0
H811 H 0.19102 0.45963 0.18811 0.0
H812 H 0.25321 0.51745 0.10445 0.0
H813 H 0.24659 0.50661 0.15786 0.0
H814 H 0.26688 0.32156 0.04577 0.0
H815 H 0.24903 0.30601 0.09626 0.0
H816 H 0.24943 0.35504 0.99991 0.0
H817 H 0.25109 0.40954 0.99306 0.0
C818 C 0.26747 0.68662 0.92404 0.0
C819 C 0.24621 0.68386 0.88572 0.0
C820 C 0.20039 0.60824 0.89625 0.0
C821 C 0.22106 0.61208 0.93492 0.0
N822 N 0.28671 0.64601 0.97534 0.0
N823 N 0.19853 0.63887 0.83115 0.0
C824 C 0.25894 0.64839 0.94525 0.0
C825 C 0.21506 0.64335 0.87016 0.0
N826 N 0.29416 0.72603 0.94131 0.0
N827 N 0.16488 0.57178 0.88596 0.0
H828 H 0.20532 0.66481 0.81263 0.0
H829 H 0.17974 0.60896 0.81625 0.0
H830 H 0.15561 0.54499 0.90371 0.0
H831 H 0.14402 0.56854 0.86108 0.0
H832 H 0.30701 0.73042 0.97105 0.0
H833 H 0.29976 0.75518 0.92773 0.0
H834 H 0.31726 0.67021 0.98231 0.0
H835 H 0.28143 0.61713 0.98948 0.0
C836 C 0.478 0.12892 0.94443 0.0
C837 C 0.42946 0.10955 0.94627 0.0
C838 C 0.43846 0.05838 0.99388 0.0
C839 C 0.48722 0.07656 0.99087 0.0
N840 N 0.55338 0.12055 0.95373 0.0
N841 N 0.36587 0.04738 0.96227 0.0
C842 C 0.5069 0.10895 0.96283 0.0
C843 C 0.41059 0.07136 0.96744 0.0
N844 N 0.49648 0.16786 0.92755 0.0
N845 N 0.41811 0.03119 0.02396 0.0
H846 H 0.34475 0.05581 0.94281 0.0
H847 H 0.35151 1.01689 0.97361 0.0
H848 H 0.43653 0.02159 0.0449 0.0
H849 H 0.38262 0.02126 0.03056 0.0
H850 H 0.53092 0.18593 0.92971 0.0
H851 H 0.47677 0.18415 0.9145 0.0
H852 H 0.56946 0.14116 0.93082 0.0
H853 H 0.57515 0.10576 0.96599 0.0
C854 C 0.89887 0.35307 0.94634 0.0
C855 C 0.90325 0.36643 0.90532 0.0
C856 C 0.98161 0.41341 0.91912 0.0
C857 C 0.97565 0.40233 0.96123 0.0
N858 N 0.92236 0.37277 1.01768 0.0
N859 N 0.94589 0.41466 0.85465 0.0
C860 C 0.93249 0.3753 0.97565 0.0
C861 C 0.94361 0.39864 0.8925 0.0
N862 N 0.86311 0.31835 0.95724 0.0
N863 N 1.02414 0.43609 0.90382 0.0
H864 H 0.91937 0.40356 0.83396 0.0
H865 H 0.97225 0.44135 0.84531 0.0
H866 H 0.05298 0.44648 0.92184 0.0
H867 H 1.03192 0.4412 0.87231 0.0
H868 H 0.86108 0.30418 0.9851 0.0
H869 H 0.83758 0.30136 0.93686 0.0
H870 H 0.88984 0.35678 0.03018 0.0
H871 H 0.94469 0.39112 0.0403 0.0
C872 C 0.68351 0.8538 0.90977 0.0
C873 C 0.73287 0.86748 0.90211 0.0
C874 C 0.73151 0.92783 0.96176 0.0
C875 C 0.68193 0.91727 0.96576 0.0
N876 N 0.61289 0.87438 0.93213 0.0
N877 N 0.80073 0.92781 0.91668 0.0
C878 C 0.65886 0.8815 0.93632 0.0
C879 C 0.75572 0.90743 0.92702 0.0
N880 N 0.65936 0.81272 0.89386 0.0
N881 N 0.75648 0.95577 0.99245 0.0
H882 H 0.81885 0.91646 0.89072 0.0
H883 H 0.81809 0.95884 0.9306 0.0
H884 H 0.74146 0.96956 1.01907 0.0
H885 H 0.79186 0.96113 0.99383 0.0
H886 H 0.62448 0.79912 0.90149 0.0
H887 H 0.67515 0.79017 0.87761 0.0
H888 H 0.59484 0.85198 0.90874 0.0
H889 H 0.59419 0.89464 0.94842 0.0
C890 C 0.97858 0.61003 0.17984 0.0
C891 C 1.00638 0.65039 0.19959 0.0
C892 C 0.07472 0.6258 0.18289 0.0
C893 C 0.04787 0.5879 0.15952 0.0
N894 N 0.97388 0.53481 0.15248 0.0
N895 N 0.07591 0.68836 0.23463 0.0
C896 C 0.99951 0.57639 0.16513 0.0
C897 C 0.05279 0.65507 0.2067 0.0
N898 N 0.93429 0.60537 0.17025 0.0
N899 N 0.12132 0.63537 0.17911 0.0
H900 H 0.05984 0.71014 0.25237 0.0
H901 H 0.1092 0.69165 0.24294 0.0
H902 H 0.13658 0.61334 0.16146 0.0
H903 H 0.14371 0.66488 0.19129 0.0
H904 H 0.91473 0.57782 0.15242 0.0
H905 H 0.91823 0.63036 0.17549 0.0
H906 H 0.93841 0.52362 0.15884 0.0
H907 H 0.9891 0.51049 0.13972 0.0
C908 C 0.4385 0.85137 0.21771 0.0
C909 C 0.3929 0.85488 0.22378 0.0
C910 C 0.41289 0.9142 0.17842 0.0
C911 C 0.45957 0.91349 0.17581 0.0
N912 N 0.51813 0.89185 0.20613 0.0
N913 N 0.34396 0.90284 0.22362 0.0
C914 C 0.47285 0.88534 0.19964 0.0
C915 C 0.3821 0.89028 0.20832 0.0
N916 N 0.44893 0.81487 0.22675 0.0
N917 N 0.39687 0.93548 0.15144 0.0
H918 H 0.32351 0.88964 0.24916 0.0
H919 H 0.33689 0.93057 0.21506 0.0
H920 H 0.41701 0.95149 0.12709 0.0
H921 H 0.36195 0.93297 0.15059 0.0
H922 H 0.48114 0.8098 0.2186 0.0
H923 H 0.42425 0.78776 0.23752 0.0
H924 H 0.52882 0.87441 0.22667 0.0
H925 H 0.54375 0.91839 0.19529 0.0
C926 C 0.75465 0.16798 0.18931 0.0
C927 C 0.73135 0.19488 0.21568 0.0
C928 C 0.65914 0.13745 0.21039 0.0
C929 C 0.6806 0.11375 0.17909 0.0
N930 N 0.74826 0.10319 0.13929 0.0
N931 N 0.66102 0.20887 0.24661 0.0
C932 C 0.72857 0.12749 0.16943 0.0
C933 C 0.68337 0.18068 0.22493 0.0
N934 N 0.80161 0.18135 0.18354 0.0
N935 N 0.61484 0.11871 0.22438 0.0
H936 H 0.67834 0.24095 0.25787 0.0
H937 H 0.6253 0.2015 0.25081 0.0
H938 H 0.59692 0.08667 0.2131 0.0
H939 H 0.59787 0.13308 0.2493 0.0
H940 H 0.8212 0.16119 0.16892 0.0
H941 H 0.82134 0.21261 0.19493 0.0
H942 H 0.78179 0.11411 0.12653 0.0
H943 H 0.73029 0.07195 0.12626 0.0
C944 C 0.67095 0.66402 0.87024 0.0
C945 C 0.71804 0.66721 0.8592 0.0
C946 C 0.71313 0.60645 0.90134 0.0
C947 C 0.66657 0.60487 0.91432 0.0
N948 N 0.59732 0.62146 0.89748 0.0
N949 N 0.77972 0.63341 0.85383 0.0
C950 C 0.64416 0.62993 0.89432 0.0
C951 C 0.73783 0.63589 0.8717 0.0
N952 N 0.65214 0.69533 0.86041 0.0
N953 N 0.73359 0.57927 0.91694 0.0
H954 H 0.79741 0.65335 0.83086 0.0
H955 H 0.7951 0.60935 0.8586 0.0
H956 H 0.71514 0.5531 0.93361 0.0
H957 H 0.76886 0.58293 0.91398 0.0
H958 H 0.62034 0.69851 0.87309 0.0
H959 H 0.6693 0.72024 0.84195 0.0
H960 H 0.57957 0.63414 0.87826 0.0
H961 H 0.57525 0.59929 0.91621 0.0
C962 C 0.42519 0.6225 0.91722 0.0
C963 C 0.45935 0.65554 0.89762 0.0
C964 C 0.51292 0.656 0.95123 0.0
C965 C 0.47829 0.62173 0.96923 0.0
N966 N 0.39581 0.59831 0.98454 0.0
N967 N 0.53192 0.71202 0.90232 0.0
C968 C 0.4325 0.6129 0.95708 0.0
C969 C 0.50239 0.67483 0.9164 0.0
N970 N 0.38557 0.60011 0.89793 0.0
N971 N 0.55467 0.67179 0.96865 0.0
H972 H 0.52508 0.72651 0.87725 0.0
H973 H 0.56168 0.73025 0.91701 0.0
H974 H 0.56032 0.66368 0.99777 0.0
H975 H 0.58327 0.69317 0.95481 0.0
H976 H 0.3611 0.57394 0.91061 0.0
H977 H 0.37959 0.60461 0.86755 0.0
H978 H 0.36189 0.59395 0.97726 0.0
H979 H 0.39981 0.59753 1.01633 0.0
C980 C 0.40114 0.42642 0.8503 0.0
C981 C 0.40453 0.38277 0.84705 0.0
C982 C 0.45064 0.40131 0.90862 0.0
C983 C 0.43948 0.44183 0.91665 0.0
N984 N 0.40604 0.49486 0.89512 0.0
N985 N 0.43554 0.32886 0.86989 0.0
C986 C 0.41578 0.45528 0.88714 0.0
C987 C 0.4311 0.37066 0.87482 0.0
N988 N 0.3835 0.4398 0.81842 0.0
N989 N 0.48039 0.39237 0.93314 0.0
H990 H 0.424 0.30675 0.8437 0.0
H991 H 0.44882 0.31549 0.89212 0.0
H992 H 0.49294 0.41293 0.95974 0.0
H993 H 0.49505 0.36656 0.92532 0.0
H994 H 0.38277 0.47201 0.8172 0.0
H995 H 0.3732 0.41913 0.79116 0.0
H996 H 0.38509 0.50496 0.877 0.0
H997 H 0.41688 0.5168 0.92163 0.0
C998 C 0.55612 0.33484 0.96955 0.0
C999 C 0.5948 0.32464 0.94899 0.0
C1000 C 0.64124 0.3997 0.9604 0.0
C1001 C 0.60149 0.41275 0.97736 0.0
N1002 N 0.52728 0.38662 1.01675 0.0
N1003 N 0.67573 0.33891 0.95277 0.0
C1004 C 0.56085 0.37849 0.98849 0.0
C1005 C 0.63818 0.35439 0.95632 0.0
N1006 N 0.51451 0.3038 0.96765 0.0
N1007 N 0.67936 0.4283 0.94361 0.0
H1008 H 0.70901 0.35895 0.95811 0.0
H1009 H 0.70901 0.35895 0.95811 0.0
H1010 H 0.68117 0.46028 0.93858 0.0
H1011 H 0.70687 0.41797 0.92854 0.0
H1012 H 0.48343 0.31044 0.97788 0.0
H1013 H 0.51186 0.27174 0.95385 0.0
H1014 H 0.5002 0.36154 0.02798 0.0
H1015 H 0.52748 0.41755 0.03112 0.0
C1016 C 0.58374 0.39593 0.17357 0.0
C1017 C 0.62169 0.3788 0.16651 0.0
C1018 C 0.64261 0.4117 0.10044 0.0
C1019 C 0.61126 0.43713 0.11291 0.0
N1020 N 0.55913 0.45944 0.16715 0.0
N1021 N 0.685 0.36507 0.12226 0.0
C1022 C 0.58271 0.43017 0.1505 0.0
C1023 C 0.64978 0.38417 0.12895 0.0
N1024 N 0.5508 0.38175 0.20443 0.0
N1025 N 0.66575 0.4143 0.06197 0.0
H1026 H 0.68912 0.34317 0.14215 0.0
H1027 H 0.71058 0.37176 0.09821 0.0
H1028 H 0.66334 0.43604 0.04136 0.0
H1029 H 0.68522 0.39321 0.04944 0.0
H1030 H 0.5203 0.39096 0.20877 0.0
H1031 H 0.55199 0.3571 0.22238 0.0
H1032 H 0.54056 0.45734 0.19608 0.0
H1033 H 0.5636 0.48922 0.15525 0.0
C1034 C 0.69134 0.68131 0.20641 0.0
C1035 C 0.73164 0.67133 0.21647 0.0
C1036 C 0.70756 0.60077 0.17206 0.0
C1037 C 0.6712 0.61389 0.15742 0.0
N1038 N 0.63135 0.669 0.15745 0.0
N1039 N 0.78 0.62265 0.20674 0.0
C1040 C 0.66371 0.65472 0.17392 0.0
C1041 C 0.74018 0.6312 0.1988 0.0
N1042 N 0.67868 0.71564 0.22875 0.0
N1043 N 0.71015 0.55874 0.16125 0.0
H1044 H 0.80377 0.64357 0.2271 0.0
H1045 H 0.79096 0.59647 0.19114 0.0
H1046 H 0.68605 0.5355 0.14296 0.0
H1047 H 0.7331 0.54565 0.17375 0.0
H1048 H 0.64736 0.72196 0.22603 0.0
H1049 H 0.69751 0.73504 0.25316 0.0
H1050 H 0.62791 0.7007 0.16458 0.0
H1051 H 0.60977 0.65002 0.1344 0.0
C1052 C 0.45207 0.67146 0.18545 0.0
C1053 C 0.48183 0.67587 0.21841 0.0
C1054 C 0.51538 0.62136 0.18087 0.0
C1055 C 0.48765 0.618 0.14636 0.0
N1056 N 0.43819 0.64818 0.11184 0.0
N1057 N 0.55049 0.66625 0.24218 0.0
C1058 C 0.45871 0.64583 0.14727 0.0
C1059 C 0.51706 0.65519 0.21376 0.0
N1060 N 0.4161 0.68963 0.19145 0.0
N1061 N 0.53632 0.58977 0.18468 0.0
H1062 H 0.55185 0.69112 0.26695 0.0
H1063 H 0.57903 0.65396 0.2386 0.0
H1064 H 0.53146 0.56147 0.16405 0.0
H1065 H 0.5534 0.58882 0.2111 0.0
H1066 H 0.39025 0.68305 0.17032 0.0
H1067 H 0.41047 0.70909 0.21889 0.0
H1068 H 0.41995 0.67089 0.10997 0.0
H1069 H 0.44309 0.63027 0.08315 0.0
C1070 C 0.3622 0.42458 0.20881 0.0
C1071 C 0.36228 0.37972 0.20653 0.0
C1072 C 0.42433 0.39353 0.15005 0.0
C1073 C 0.42591 0.43879 0.15417 0.0
N1074 N 0.40137 0.49898 0.19173 0.0
N1075 N 0.39971 0.32369 0.17974 0.0
C1076 C 0.39631 0.45471 0.18491 0.0
C1077 C 0.39489 0.36472 0.17822 0.0
N1078 N 0.32836 0.43808 0.23292 0.0
N1079 N 0.4508 0.37787 0.11868 0.0
H1080 H 0.37894 0.30138 0.19926 0.0
H1081 H 0.42651 0.31279 0.16401 0.0
H1082 H 0.47504 0.39841 0.09962 0.0
H1083 H 0.44714 0.34451 0.11009 0.0
H1084 H 0.32291 0.46876 0.23262 0.0
H1085 H 0.3029 0.41711 0.25064 0.0
H1086 H 0.38439 0.51364 0.21637 0.0
H1087 H 0.42584 0.52169 0.17485 0.0
C1088 C 0.87102 0.69149 0.67882 0.0
C1089 C 0.87408 0.69657 0.72378 0.0
C1090 C 0.93687 0.65728 0.70816 0.0
C1091 C 0.92969 0.64814 0.66391 0.0
N1092 N 0.87314 0.64361 0.61395 0.0
N1093 N 0.90239 0.66738 0.77884 0.0
C1094 C 0.89172 0.66138 0.65156 0.0
C1095 C 0.90492 0.67461 0.73762 0.0
N1096 N 0.8504 0.71672 0.66061 0.0
N1097 N 0.97478 0.65075 0.72293 0.0
H1098 H 0.87704 0.67403 0.80048 0.0
H1099 H 0.92098 0.64875 0.79 0.0
H1100 H 0.99879 0.63867 0.70375 0.0
H1101 H 0.98448 0.66135 0.75369 0.0
H1102 H 0.85107 0.7167 0.62808 0.0
H1103 H 0.83849 0.74184 0.67701 0.0
H1104 H 0.84345 0.64923 0.60476 0.0
H1105 H 0.88317 0.61848 0.59507 0.0
C1106 C 0.39971 0.92466 0.75039 0.0
C1107 C 0.35573 0.89812 0.73795 0.0
C1108 C 0.35993 0.94625 0.68294 0.0
C1109 C 0.4077 0.96616 0.68873 0.0
N1110 N 0.47177 0.97791 0.7334 0.0
N1111 N 0.29319 0.88364 0.69234 0.0
C1112 C 0.42701 0.95718 0.72456 0.0
C1113 C 0.33529 0.90935 0.70463 0.0
N1114 N 0.41489 0.91948 0.78772 0.0
N1115 N 0.33786 0.96368 0.65735 0.0
H1116 H 0.27384 0.85687 0.70784 0.0
H1117 H 0.27902 0.88696 0.66503 0.0
H1118 H 0.3546 0.99204 0.64293 0.0
H1119 H 0.30236 0.95332 0.65442 0.0
H1120 H 0.44377 0.94101 0.80157 0.0
H1121 H 0.39619 0.89576 0.80702 0.0
H1122 H 0.48975 0.96689 0.75376 0.0
H1123 H 0.49213 1.00539 0.71992 0.0
C1124 C 0.18806 0.50309 0.67234 0.0
C1125 C 0.16992 0.46118 0.68709 0.0
C1126 C 0.09158 0.4651 0.67989 0.0
C1127 C 0.1102 0.50157 0.65658 0.0
N1128 N 0.17552 0.55675 0.63128 0.0
N1129 N 0.10443 0.40223 0.70698 0.0
C1130 C 0.1583 0.52171 0.65402 0.0
C1131 C 0.12155 0.44257 0.69245 0.0
N1132 N 0.23378 0.52464 0.67545 0.0
N1133 N 0.04516 0.4515 0.68869 0.0
H1134 H 0.12542 0.38522 0.71702 0.0
H1135 H 0.06976 0.38456 0.70715 0.0
H1136 H 1.02327 0.46816 0.67972 0.0
H1137 H 1.02909 0.42692 0.70792 0.0
H1138 H 0.24838 0.55692 0.6685 0.0
H1139 H 0.25628 0.51149 0.68873 0.0
H1140 H 0.21035 0.56907 0.62272 0.0
H1141 H 0.15402 0.5718 0.61907 0.0
C1142 C 0.6925 0.22628 0.71699 0.0
C1143 C 0.71547 0.20275 0.73742 0.0
C1144 C 0.66191 0.13289 0.70918 0.0
C1145 C 0.63702 0.15702 0.69131 0.0
N1146 N 0.62197 0.22684 0.68854 0.0
N1147 N 0.71988 0.13401 0.75736 0.0
C1148 C 0.65027 0.20377 0.69866 0.0
C1149 C 0.69943 0.15606 0.73493 0.0
N1150 N 0.71209 0.2701 0.71349 0.0
N1151 N 0.65104 0.08823 0.70016 0.0
H1152 H 0.74896 0.14991 0.77424 0.0
H1153 H 0.70687 0.10061 0.76085 0.0
H1154 H 0.62292 0.07036 0.68288 0.0
H1155 H 0.67101 0.06916 0.70804 0.0
H1156 H 0.69914 0.2881 0.69528 0.0
H1157 H 0.74414 0.28729 0.72494 0.0
H1158 H 0.62749 0.26048 0.69715 0.0
H1159 H 0.59039 0.21156 0.67558 0.0
C1160 C 0.9274 0.39063 0.38009 0.0
C1161 C 0.88584 0.36283 0.39631 0.0
C1162 C 0.89753 0.40293 0.46618 0.0
C1163 C 0.93824 0.43138 0.44933 0.0
N1164 N 0.98468 0.46086 0.38902 0.0
N1165 N 0.82807 0.34314 0.45246 0.0
C1166 C 0.95108 0.42783 0.4059 0.0
C1167 C 0.86977 0.36919 0.43879 0.0
N1168 N 0.9445 0.3814 0.34014 0.0
N1169 N 0.88568 0.40867 0.50814 0.0
H1170 H 0.80822 0.31672 0.43342 0.0
H1171 H 0.81223 0.34825 0.48199 0.0
H1172 H 0.9037 0.43548 0.52796 0.0
H1173 H 0.85891 0.38683 0.52362 0.0
H1174 H 0.97749 0.39752 0.32881 0.0
H1175 H 0.92743 0.35543 0.31908 0.0
H1176 H 0.99205 0.46207 0.35682 0.0
H1177 H 1.00188 0.48966 0.40669 0.0
C1178 C 0.58773 0.89939 0.42209 0.0
C1179 C 0.62507 0.89415 0.44231 0.0
C1180 C 0.62425 0.95764 0.49342 0.0
C1181 C 0.58346 0.95935 0.47648 0.0
N1182 N 0.53531 0.94316 0.41792 0.0
N1183 N 0.67867 0.91593 0.49741 0.0
C1184 C 0.56787 0.93347 0.43863 0.0
C1185 C 0.64381 0.92306 0.47767 0.0
N1186 N 0.57035 0.87069 0.38815 0.0
N1187 N 0.64498 0.98971 0.52349 0.0
H1188 H 0.69455 0.89144 0.48617 0.0
H1189 H 0.6899 0.93216 0.52639 0.0
H1190 H 0.63212 1.01606 0.53496 0.0
H1191 H 0.67741 0.99298 0.53384 0.0
H1192 H 0.5401 0.86948 0.37465 0.0
H1193 H 0.58505 0.84614 0.37436 0.0
H1194 H 0.52407 0.92802 0.38864 0.0
H1195 H 0.52268 0.96988 0.42865 0.0
C1196 C 0.17611 0.74001 0.4266 0.0
C1197 C 0.18342 0.72142 0.38506 0.0
C1198 C 0.13103 0.65045 0.40216 0.0
C1199 C 0.1297 0.66756 0.44532 0.0
N1200 N 0.15825 0.72658 0.4995 0.0
N1201 N 0.16849 0.65854 0.33258 0.0
C1202 C 0.15437 0.71182 0.45776 0.0
C1203 C 0.16119 0.67641 0.37273 0.0
N1204 N 0.18868 0.78459 0.43616 0.0
N1205 N 0.10164 0.61068 0.38859 0.0
H1206 H 0.18579 0.67746 0.30874 0.0
H1207 H 0.15895 0.62481 0.32332 0.0
H1208 H 0.07871 0.59021 0.40842 0.0
H1209 H 0.09715 0.59932 0.35696 0.0
H1210 H 0.18085 0.80006 0.46529 0.0
H1211 H 0.20137 0.80606 0.41332 0.0
H1212 H 0.17939 0.75734 0.51037 0.0
H1213 H 0.14431 0.70631 0.52325 0.0
C1214 C 0.45613 0.24342 0.50776 0.0
C1215 C 0.44184 0.23175 0.46637 0.0
C1216 C 0.45496 0.15959 0.46414 0.0
C1217 C 0.46834 0.1708 0.50634 0.0
N1218 N 0.47196 0.21946 0.57092 0.0
N1219 N 0.41813 0.17723 0.40746 0.0
C1220 C 0.46532 0.21133 0.52898 0.0
C1221 C 0.4378 0.18912 0.44541 0.0
N1222 N 0.46366 0.28595 0.52596 0.0
N1223 N 0.46224 0.12302 0.44077 0.0
H1224 H 0.40687 0.19885 0.39215 0.0
H1225 H 0.40957 0.14509 0.39285 0.0
H1226 H 0.47551 0.10062 0.45256 0.0
H1227 H 0.45851 0.11651 0.40849 0.0
H1228 H 0.48012 0.2977 0.55393 0.0
H1229 H 0.45698 0.31083 0.51163 0.0
H1230 H 0.46426 0.2455 0.59025 0.0
H1231 H 0.48129 0.1977 0.587 0.0
C1232 C 0.58155 0.89215 0.66661 0.0
C1233 C 0.63024 0.90493 0.66349 0.0
C1234 C 0.63004 0.9718 0.63207 0.0
C1235 C 0.5806 0.95818 0.63393 0.0
N1236 N 0.51164 0.91344 0.66811 0.0
N1237 N 0.70154 0.95387 0.63978 0.0
C1238 C 0.5571 0.92046 0.65526 0.0
C1239 C 0.65464 0.94419 0.64567 0.0
N1240 N 0.5582 0.85183 0.67915 0.0
N1241 N 0.65394 1.01174 0.61922 0.0
H1242 H 0.72058 0.93549 0.65073 0.0
H1243 H 0.72153 0.97801 0.62164 0.0
H1244 H 0.63923 0.03282 0.60721 0.0
H1245 H 0.68892 0.02611 0.62307 0.0
H1246 H 0.52297 0.83777 0.6762 0.0
H1247 H 0.57443 0.83053 0.68918 0.0
H1248 H 0.49414 0.88992 0.68801 0.0
H1249 H 0.49261 0.93461 0.66378 0.0
C1250 C 0.67038 0.18714 0.38308 0.0
C1251 C 0.71807 0.20238 0.3921 0.0
C1252 C 0.6959 0.16332 0.45662 0.0
C1253 C 0.64769 0.15518 0.45122 0.0
N1254 N 0.59074 0.16809 0.4105 0.0
N1255 N 0.77427 0.20856 0.4426 0.0
C1256 C 0.63545 0.16931 0.41463 0.0
C1257 C 0.73028 0.19113 0.4302 0.0
N1258 N 0.65823 0.18761 0.34335 0.0
N1259 N 0.70923 0.14318 0.48632 0.0
H1260 H 0.79994 0.22953 0.42514 0.0
H1261 H 0.78409 0.20557 0.47208 0.0
H1262 H 0.68568 0.12121 0.50465 0.0
H1263 H 0.74341 0.14426 0.48933 0.0
H1264 H 0.62485 0.17345 0.33361 0.0
H1265 H 0.68275 0.19687 0.31896 0.0
H1266 H 0.58078 0.1823 0.38679 0.0
H1267 H 0.56434 0.157 0.43292 0.0
C1268 C 0.93066 0.71785 0.39193 0.0
C1269 C 0.88994 0.69574 0.368 0.0
C1270 C 0.90601 0.62496 0.39286 0.0
C1271 C 0.94678 0.64713 0.41691 0.0
N1272 N 0.99242 0.72028 0.43895 0.0
N1273 N 0.84604 0.6229 0.3436 0.0
C1274 C 0.95681 0.69504 0.41574 0.0
C1275 C 0.88011 0.64785 0.36855 0.0
N1276 N 0.94579 0.76244 0.3914 0.0
N1277 N 0.88983 0.58068 0.3947 0.0
H1278 H 0.82699 0.63711 0.3271 0.0
H1279 H 0.83884 0.58896 0.33669 0.0
H1280 H 0.90724 0.56376 0.40992 0.0
H1281 H 0.85839 0.5613 0.38379 0.0
H1282 H 0.97642 0.78246 0.40325 0.0
H1283 H 0.92813 0.77969 0.37694 0.0
H1284 H 0.9991 0.75401 0.44691 0.0
H1285 H 1.01472 0.70679 0.45203 0.0
C1286 C 0.33093 0.90507 0.42829 0.0
C1287 C 0.34637 0.89703 0.38567 0.0
C1288 C 0.41773 0.9591 0.40021 0.0
C1289 C 0.40298 0.96493 0.44373 0.0
N1290 N 0.33535 0.95748 0.4906 0.0
N1291 N 0.40074 0.92351 0.32904 0.0
C1292 C 0.35643 0.94205 0.45501 0.0
C1293 C 0.38857 0.92646 0.37107 0.0
N1294 N 0.29178 0.87699 0.44389 0.0
N1295 N 0.45941 0.98454 0.38623 0.0
H1296 H 0.38141 0.89984 0.30745 0.0
H1297 H 0.42797 0.94605 0.31483 0.0
H1298 H 0.47754 1.01343 0.40305 0.0
H1299 H 0.47614 0.97743 0.35764 0.0
H1300 H 0.28158 0.87786 0.47577 0.0
H1301 H 0.27135 0.85091 0.42519 0.0
H1302 H 0.30045 0.94497 0.49891 0.0
H1303 H 0.35139 0.98663 0.50866 0.0
C1304 C 0.1564 0.38838 0.35488 0.0
C1305 C 0.2005 0.38476 0.36843 0.0
C1306 C 0.18293 0.44573 0.42863 0.0
C1307 C 0.13835 0.44833 0.41584 0.0
N1308 N 0.08286 0.40994 0.36584 0.0
N1309 N 0.25301 0.41948 0.42266 0.0
C1310 C 0.12613 0.41623 0.37846 0.0
C1311 C 0.21202 0.41631 0.40656 0.0
N1312 N 0.14333 0.36624 0.31683 0.0
N1313 N 0.19806 0.47167 0.46461 0.0
H1314 H 0.27102 0.39626 0.41431 0.0
H1315 H 0.27025 0.44563 0.44333 0.0
H1316 H 0.18357 0.4965 0.47799 0.0
H1317 H 0.22341 0.46793 0.48231 0.0
H1318 H 0.11682 0.37035 0.30083 0.0
H1319 H 0.16204 0.34675 0.29933 0.0
H1320 H 0.06682 0.3843 0.34402 0.0
H1321 H 0.06167 0.42881 0.38015 0.0
C1322 C 0.44014 0.21675 0.73064 0.0
C1323 C 0.39978 0.22087 0.71347 0.0
C1324 C 0.41536 0.17185 0.65026 0.0
C1325 C 0.45636 0.1691 0.66652 0.0
N1326 N 0.50623 0.18638 0.72389 0.0
N1327 N 0.35789 0.21067 0.65033 0.0
C1328 C 0.4682 0.19098 0.70727 0.0
C1329 C 0.39009 0.20093 0.67147 0.0
N1330 N 0.45276 0.2392 0.76886 0.0
N1331 N 0.3994 0.1457 0.61455 0.0
H1332 H 0.33475 0.22746 0.664 0.0
H1333 H 0.35608 0.20417 0.6178 0.0
H1334 H 0.4171 0.12528 0.59704 0.0
H1335 H 0.36688 0.14179 0.60397 0.0
H1336 H 0.47859 0.23562 0.786 0.0
H1337 H 0.43807 0.26341 0.78331 0.0
H1338 H 0.51999 0.20295 0.75182 0.0
H1339 H 0.52438 0.16473 0.70958 0.0
C1340 C 0.89484 0.36188 0.66985 0.0
C1341 C 0.88405 0.3793 0.71185 0.0
C1342 C 0.92293 0.45504 0.68657 0.0
C1343 C 0.93153 0.43767 0.64378 0.0
N1344 N 0.91579 0.37159 0.59547 0.0
N1345 N 0.88433 0.44568 0.75678 0.0
C1346 C 0.91489 0.39023 0.63614 0.0
C1347 C 0.89682 0.42678 0.71873 0.0
N1348 N 0.88562 0.31729 0.66148 0.0
N1349 N 0.94254 0.49876 0.69793 0.0
H1350 H 0.86938 0.42753 0.78175 0.0
H1351 H 0.88609 0.47894 0.76283 0.0
H1352 H 0.96165 0.52021 0.67684 0.0
H1353 H 0.94354 0.51319 0.7289 0.0
H1354 H 0.89803 0.30183 0.63437 0.0
H1355 H 0.8676 0.29561 0.68288 0.0
H1356 H 0.89961 0.33873 0.58591 0.0
H1357 H 0.92865 0.38991 0.57027 0.0
C1358 C 0.20581 0.68985 0.67177 0.0
C1359 C 0.1994 0.72432 0.70335 0.0
C1360 C 0.12172 0.71098 0.67222 0.0
C1361 C 0.13007 0.67958 0.6384 0.0
N1362 N 0.19013 0.65222 0.60114 0.0
N1363 N 0.15388 0.77568 0.72073 0.0
C1364 C 0.17506 0.67294 0.63699 0.0
C1365 C 0.15802 0.73692 0.69977 0.0
N1366 N 0.24005 0.67101 0.67543 0.0
N1367 N 0.07835 0.7156 0.67965 0.0
H1368 H 0.18033 0.79789 0.73734 0.0
H1369 H 0.12701 0.78866 0.71654 0.0
H1370 H 0.05088 0.69772 0.66167 0.0
H1371 H 0.06872 0.73387 0.70635 0.0
H1372 H 0.24411 0.64367 0.65573 0.0
H1373 H 0.26099 0.67923 0.70083 0.0
H1374 H 0.22389 0.65028 0.59597 0.0
H1375 H 0.17025 0.64117 0.57497 0.0
loop_
_geom_bond_atom_site_label_1
_geom_bond_atom_site_label_2
_geom_bond_distance
_geom_bond_site_symmetry_2
_ccdc_geom_bond_type
Tb0 C10 2.825 . S
Tb0 O11 2.347 . S
Tb0 O14 2.366 . S
Tb0 O19 2.418 . S
Tb0 O20 2.384 . S
Tb0 O23 2.479 . S
Tb0 O24 2.471 . S
Eu1 O12 2.418 . S
Eu1 O13 2.384 . S
Eu1 O16 2.479 . S
Eu1 O17 2.471 . S
Eu1 O18 2.347 . S
Eu1 O21 2.366 . S
Eu1 C31 2.825 . S
C2 O18 1.259 . S
C2 O19 1.265 . S
C3 O20 1.255 . S
C3 O21 1.265 . S
C4 C6 1.380 . S
C4 C7 1.374 . S
C4 C10 1.507 . S
C5 C6 1.384 . S
C5 C9 1.387 . S
C5 H32 0.930 . S
C6 C4 1.380 . S
C6 C5 1.384 . S
C6 H33 0.931 . S
C7 C4 1.374 . S
C7 C8 1.390 . S
C7 H34 0.930 . S
C8 C7 1.390 . S
C8 C9 1.391 . S
C8 H35 0.930 . S
C9 C5 1.387 . S
C9 C8 1.391 . S
C10 Tb0 2.825 . S
C10 C4 1.507 . S
C10 O23 1.238 . S
C10 O24 1.247 . S
O11 Tb0 2.347 . S
O11 C15 1.259 . S
O12 Eu1 2.418 . S
O12 C15 1.265 . S
O13 Eu1 2.384 . S
O13 C22 1.255 . S
O14 Tb0 2.366 . S
O14 C22 1.265 . S
C15 O11 1.259 . S
C15 O12 1.265 . S
O16 Eu1 2.479 . S
O16 C31 1.238 . S
O17 Eu1 2.471 . S
O17 C31 1.247 . S
O18 Eu1 2.347 . S
O18 C2 1.259 . S
O19 Tb0 2.418 . S
O19 C2 1.265 . S
O20 Tb0 2.384 . S
O20 C3 1.255 . S
O21 Eu1 2.366 . S
O21 C3 1.265 . S
C22 O13 1.255 . S
C22 O14 1.265 . S
O23 Tb0 2.479 . S
O23 C10 1.238 . S
O24 Tb0 2.471 . S
O24 C10 1.247 . S
C25 C28 1.380 . S
C25 C29 1.374 . S
C25 C31 1.507 . S
C26 C27 1.387 . S
C26 C30 1.391 . S
C27 C26 1.387 . S
C27 C28 1.384 . S
C27 H36 0.930 . S
C28 C25 1.380 . S
C28 C27 1.384 . S
C28 H37 0.931 . S
C29 C25 1.374 . S
C29 C30 1.390 . S
C29 H38 0.930 . S
C30 C26 1.391 . S
C30 C29 1.390 . S
C30 H39 0.930 . S
C31 Eu1 2.825 . S
C31 O16 1.238 . S
C31 O17 1.247 . S
C31 C25 1.507 . S
H32 C5 0.930 . S
H33 C6 0.931 . S
H34 C7 0.930 . S
H35 C8 0.930 . S
H36 C27 0.930 . S
H37 C28 0.931 . S
H38 C29 0.930 . S
H39 C30 0.930 . S
Tb40 C50 2.825 . S
Tb40 O51 2.347 . S
Tb40 O54 2.366 . S
Tb40 O59 2.418 . S
Tb40 O60 2.384 . S
Tb40 O63 2.479 . S
Tb40 O64 2.471 . S
Eu41 O52 2.418 . S
Eu41 O53 2.384 . S
Eu41 O56 2.479 . S
Eu41 O57 2.471 . S
Eu41 O58 2.347 . S
Eu41 O61 2.366 . S
Eu41 C71 2.825 . S
C42 O58 1.259 . S
C42 O59 1.265 . S
C43 O60 1.255 . S
C43 O61 1.265 . S
C44 C46 1.380 . S
C44 C47 1.374 . S
C44 C50 1.507 . S
C45 C46 1.384 . S
C45 C49 1.387 . S
C45 H72 0.930 . S
C46 C44 1.380 . S
C46 C45 1.384 . S
C46 H73 0.931 . S
C47 C44 1.374 . S
C47 C48 1.390 . S
C47 H74 0.930 . S
C48 C47 1.390 . S
C48 C49 1.391 . S
C48 H75 0.930 . S
C49 C45 1.387 . S
C49 C48 1.391 . S
C50 Tb40 2.825 . S
C50 C44 1.507 . S
C50 O63 1.238 . S
C50 O64 1.247 . S
O51 Tb40 2.347 . S
O51 C55 1.259 . S
O52 Eu41 2.418 . S
O52 C55 1.265 . S
O53 Eu41 2.384 . S
O53 C62 1.255 . S
O54 Tb40 2.366 . S
O54 C62 1.265 . S
C55 O51 1.259 . S
C55 O52 1.265 . S
O56 Eu41 2.479 . S
O56 C71 1.238 . S
O57 Eu41 2.471 . S
O57 C71 1.247 . S
O58 Eu41 2.347 . S
O58 C42 1.259 . S
O59 Tb40 2.418 . S
O59 C42 1.265 . S
O60 Tb40 2.384 . S
O60 C43 1.255 . S
O61 Eu41 2.366 . S
O61 C43 1.265 . S
C62 O53 1.255 . S
C62 O54 1.265 . S
O63 Tb40 2.479 . S
O63 C50 1.238 . S
O64 Tb40 2.471 . S
O64 C50 1.247 . S
C65 C68 1.380 . S
C65 C69 1.374 . S
C65 C71 1.507 . S
C66 C67 1.387 . S
C66 C70 1.391 . S
C67 C66 1.387 . S
C67 C68 1.384 . S
C67 H76 0.930 . S
C68 C65 1.380 . S
C68 C67 1.384 . S
C68 H77 0.931 . S
C69 C65 1.374 . S
C69 C70 1.390 . S
C69 H78 0.930 . S
C70 C66 1.391 . S
C70 C69 1.390 . S
C70 H79 0.930 . S
C71 Eu41 2.825 . S
C71 O56 1.238 . S
C71 O57 1.247 . S
C71 C65 1.507 . S
H72 C45 0.930 . S
H73 C46 0.931 . S
H74 C47 0.930 . S
H75 C48 0.930 . S
H76 C67 0.930 . S
H77 C68 0.931 . S
H78 C69 0.930 . S
H79 C70 0.930 . S
Tb80 C90 2.825 . S
Tb80 O91 2.347 . S
Tb80 O94 2.366 . S
Tb80 O99 2.418 . S
Tb80 O100 2.384 . S
Tb80 O103 2.479 . S
Tb80 O104 2.471 . S
Eu81 O92 2.418 . S
Eu81 O93 2.384 . S
Eu81 O96 2.479 . S
Eu81 O97 2.471 . S
Eu81 O98 2.347 . S
Eu81 O101 2.366 . S
Eu81 C111 2.825 . S
C82 O98 1.259 . S
C82 O99 1.265 . S
C83 O100 1.255 . S
C83 O101 1.265 . S
C84 C86 1.380 . S
C84 C87 1.374 . S
C84 C90 1.507 . S
C85 C86 1.384 . S
C85 C89 1.387 . S
C85 H112 0.930 . S
C86 C84 1.380 . S
C86 C85 1.384 . S
C86 H113 0.931 . S
C87 C84 1.374 . S
C87 C88 1.390 . S
C87 H114 0.930 . S
C88 C87 1.390 . S
C88 C89 1.391 . S
C88 H115 0.930 . S
C89 C85 1.387 . S
C89 C88 1.391 . S
C90 Tb80 2.825 . S
C90 C84 1.507 . S
C90 O103 1.238 . S
C90 O104 1.247 . S
O91 Tb80 2.347 . S
O91 C95 1.259 . S
O92 Eu81 2.418 . S
O92 C95 1.265 . S
O93 Eu81 2.384 . S
O93 C102 1.255 . S
O94 Tb80 2.366 . S
O94 C102 1.265 . S
C95 O91 1.259 . S
C95 O92 1.265 . S
O96 Eu81 2.479 . S
O96 C111 1.238 . S
O97 Eu81 2.471 . S
O97 C111 1.247 . S
O98 Eu81 2.347 . S
O98 C82 1.259 . S
O99 Tb80 2.418 . S
O99 C82 1.265 . S
O100 Tb80 2.384 . S
O100 C83 1.255 . S
O101 Eu81 2.366 . S
O101 C83 1.265 . S
C102 O93 1.255 . S
C102 O94 1.265 . S
O103 Tb80 2.479 . S
O103 C90 1.238 . S
O104 Tb80 2.471 . S
O104 C90 1.247 . S
C105 C108 1.380 . S
C105 C109 1.374 . S
C105 C111 1.507 . S
C106 C107 1.387 . S
C106 C110 1.391 . S
C107 C106 1.387 . S
C107 C108 1.384 . S
C107 H116 0.928 1_655 S
C108 C105 1.380 . S
C108 C107 1.384 . S
C108 H117 0.931 . S
C109 C105 1.374 . S
C109 C110 1.390 . S
C109 H118 0.930 . S
C110 C106 1.391 . S
C110 C109 1.390 . S
C110 H119 0.930 . S
C111 Eu81 2.825 . S
C111 O96 1.238 . S
C111 O97 1.247 . S
C111 C105 1.507 . S
H112 C85 0.930 . S
H113 C86 0.931 . S
H114 C87 0.930 . S
H115 C88 0.930 . S
H116 C107 0.928 1_455 S
H117 C108 0.931 . S
H118 C109 0.930 . S
H119 C110 0.930 . S
Tb120 C130 2.825 . S
Tb120 O131 2.347 . S
Tb120 O134 2.366 . S
Tb120 O139 2.418 . S
Tb120 O140 2.384 . S
Tb120 O143 2.479 . S
Tb120 O144 2.471 . S
Eu121 O132 2.418 . S
Eu121 O133 2.384 . S
Eu121 O136 2.479 . S
Eu121 O137 2.471 . S
Eu121 O138 2.347 . S
Eu121 O141 2.366 . S
Eu121 C151 2.825 . S
C122 O138 1.259 . S
C122 O139 1.265 . S
C123 O140 1.255 . S
C123 O141 1.265 . S
C124 C126 1.380 . S
C124 C127 1.374 . S
C124 C130 1.507 . S
C125 C126 1.384 . S
C125 C129 1.387 . S
C125 H152 0.930 . S
C126 C124 1.380 . S
C126 C125 1.384 . S
C126 H153 0.931 . S
C127 C124 1.374 . S
C127 C128 1.390 . S
C127 H154 0.930 . S
C128 C127 1.390 . S
C128 C129 1.391 . S
C128 H155 0.930 . S
C129 C125 1.387 . S
C129 C128 1.391 . S
C130 Tb120 2.825 . S
C130 C124 1.507 . S
C130 O143 1.238 . S
C130 O144 1.247 . S
O131 Tb120 2.347 . S
O131 C135 1.259 . S
O132 Eu121 2.418 . S
O132 C135 1.265 . S
O133 Eu121 2.384 . S
O133 C142 1.255 . S
O134 Tb120 2.366 . S
O134 C142 1.265 . S
C135 O131 1.259 . S
C135 O132 1.265 . S
O136 Eu121 2.479 . S
O136 C151 1.238 . S
O137 Eu121 2.471 . S
O137 C151 1.247 . S
O138 Eu121 2.347 . S
O138 C122 1.259 . S
O139 Tb120 2.418 . S
O139 C122 1.265 . S
O140 Tb120 2.384 . S
O140 C123 1.255 . S
O141 Eu121 2.366 . S
O141 C123 1.265 . S
C142 O133 1.255 . S
C142 O134 1.265 . S
O143 Tb120 2.479 . S
O143 C130 1.238 . S
O144 Tb120 2.471 . S
O144 C130 1.247 . S
C145 C148 1.380 . S
C145 C149 1.374 . S
C145 C151 1.507 . S
C146 C147 1.387 . S
C146 C150 1.391 . S
C147 C146 1.387 . S
C147 C148 1.384 . S
C147 H156 0.930 . S
C148 C145 1.380 . S
C148 C147 1.384 . S
C148 H157 0.931 . S
C149 C145 1.374 . S
C149 C150 1.390 . S
C149 H158 0.930 . S
C150 C146 1.391 . S
C150 C149 1.390 . S
C150 H159 0.930 . S
C151 Eu121 2.825 . S
C151 O136 1.238 . S
C151 O137 1.247 . S
C151 C145 1.507 . S
H152 C125 0.930 . S
H153 C126 0.931 . S
H154 C127 0.930 . S
H155 C128 0.930 . S
H156 C147 0.930 . S
H157 C148 0.931 . S
H158 C149 0.930 . S
H159 C150 0.930 . S
Tb160 C170 2.825 . S
Tb160 O171 2.347 . S
Tb160 O174 2.366 . S
Tb160 O179 2.418 . S
Tb160 O180 2.384 . S
Tb160 O183 2.479 . S
Tb160 O184 2.471 . S
Eu161 O172 2.418 . S
Eu161 O173 2.384 . S
Eu161 O176 2.479 . S
Eu161 O177 2.471 . S
Eu161 O178 2.347 . S
Eu161 O181 2.366 . S
Eu161 C191 2.825 . S
C162 O178 1.259 . S
C162 O179 1.265 . S
C163 O180 1.255 . S
C163 O181 1.265 . S
C164 C166 1.380 . S
C164 C167 1.374 . S
C164 C170 1.507 . S
C165 C166 1.384 . S
C165 C169 1.387 . S
C165 H192 0.930 . S
C166 C164 1.380 . S
C166 C165 1.384 . S
C166 H193 0.931 . S
C167 C164 1.374 . S
C167 C168 1.390 . S
C167 H194 0.930 . S
C168 C167 1.390 . S
C168 C169 1.391 . S
C168 H195 0.930 . S
C169 C165 1.387 . S
C169 C168 1.391 . S
C170 Tb160 2.825 . S
C170 C164 1.507 . S
C170 O183 1.238 . S
C170 O184 1.247 . S
O171 Tb160 2.347 . S
O171 C175 1.259 . S
O172 Eu161 2.418 . S
O172 C175 1.265 . S
O173 Eu161 2.384 . S
O173 C182 1.255 . S
O174 Tb160 2.366 . S
O174 C182 1.265 . S
C175 O171 1.259 . S
C175 O172 1.265 . S
O176 Eu161 2.479 . S
O176 C191 1.238 . S
O177 Eu161 2.471 . S
O177 C191 1.247 . S
O178 Eu161 2.347 . S
O178 C162 1.259 . S
O179 Tb160 2.418 . S
O179 C162 1.265 . S
O180 Tb160 2.384 . S
O180 C163 1.255 . S
O181 Eu161 2.366 . S
O181 C163 1.265 . S
C182 O173 1.255 . S
C182 O174 1.265 . S
O183 Tb160 2.479 . S
O183 C170 1.238 . S
O184 Tb160 2.471 . S
O184 C170 1.247 . S
C185 C188 1.380 . S
C185 C189 1.374 . S
C185 C191 1.507 . S
C186 C187 1.387 . S
C186 C190 1.391 . S
C187 C186 1.387 . S
C187 C188 1.384 . S
C187 H196 0.930 . S
C188 C185 1.380 . S
C188 C187 1.384 . S
C188 H197 0.931 . S
C189 C185 1.374 . S
C189 C190 1.390 . S
C189 H198 0.930 . S
C190 C186 1.391 . S
C190 C189 1.390 . S
C190 H199 0.930 . S
C191 Eu161 2.825 . S
C191 O176 1.238 . S
C191 O177 1.247 . S
C191 C185 1.507 . S
H192 C165 0.930 . S
H193 C166 0.931 . S
H194 C167 0.930 . S
H195 C168 0.930 . S
H196 C187 0.930 . S
H197 C188 0.931 . S
H198 C189 0.930 . S
H199 C190 0.930 . S
Tb200 C210 2.825 . S
Tb200 O211 2.347 . S
Tb200 O214 2.366 . S
Tb200 O219 2.418 . S
Tb200 O220 2.384 . S
Tb200 O223 2.479 . S
Tb200 O224 2.471 . S
Eu201 O212 2.418 . S
Eu201 O213 2.384 . S
Eu201 O216 2.479 . S
Eu201 O217 2.471 . S
Eu201 O218 2.347 . S
Eu201 O221 2.366 . S
Eu201 C231 2.825 . S
C202 O218 1.259 . S
C202 O219 1.265 . S
C203 O220 1.255 . S
C203 O221 1.265 . S
C204 C206 1.380 . S
C204 C207 1.374 . S
C204 C210 1.507 . S
C205 C206 1.384 . S
C205 C209 1.387 . S
C205 H232 0.930 . S
C206 C204 1.380 . S
C206 C205 1.384 . S
C206 H233 0.931 . S
C207 C204 1.374 . S
C207 C208 1.390 . S
C207 H234 0.930 . S
C208 C207 1.390 . S
C208 C209 1.391 . S
C208 H235 0.930 . S
C209 C205 1.387 . S
C209 C208 1.391 . S
C210 Tb200 2.825 . S
C210 C204 1.507 . S
C210 O223 1.238 . S
C210 O224 1.247 . S
O211 Tb200 2.347 . S
O211 C215 1.259 . S
O212 Eu201 2.418 . S
O212 C215 1.265 . S
O213 Eu201 2.384 . S
O213 C222 1.255 . S
O214 Tb200 2.366 . S
O214 C222 1.265 . S
C215 O211 1.259 . S
C215 O212 1.265 . S
O216 Eu201 2.479 . S
O216 C231 1.238 . S
O217 Eu201 2.471 . S
O217 C231 1.247 . S
O218 Eu201 2.347 . S
O218 C202 1.259 . S
O219 Tb200 2.418 . S
O219 C202 1.265 . S
O220 Tb200 2.384 . S
O220 C203 1.255 . S
O221 Eu201 2.366 . S
O221 C203 1.265 . S
C222 O213 1.255 . S
C222 O214 1.265 . S
O223 Tb200 2.479 . S
O223 C210 1.238 . S
O224 Tb200 2.471 . S
O224 C210 1.247 . S
C225 C228 1.380 . S
C225 C229 1.374 . S
C225 C231 1.507 . S
C226 C227 1.387 . S
C226 C230 1.391 . S
C227 C226 1.387 . S
C227 C228 1.384 . S
C227 H236 0.930 . S
C228 C225 1.380 . S
C228 C227 1.384 . S
C228 H237 0.931 . S
C229 C225 1.374 . S
C229 C230 1.390 . S
C229 H238 0.930 . S
C230 C226 1.391 . S
C230 C229 1.390 . S
C230 H239 0.930 . S
C231 Eu201 2.825 . S
C231 O216 1.238 . S
C231 O217 1.247 . S
C231 C225 1.507 . S
H232 C205 0.930 . S
H233 C206 0.931 . S
H234 C207 0.930 . S
H235 C208 0.930 . S
H236 C227 0.930 . S
H237 C228 0.931 . S
H238 C229 0.930 . S
H239 C230 0.930 . S
Tb240 C250 2.825 . S
Tb240 O251 2.347 . S
Tb240 O254 2.366 . S
Tb240 O259 2.418 . S
Tb240 O260 2.384 . S
Tb240 O263 2.479 . S
Tb240 O264 2.471 . S
Eu241 O252 2.418 . S
Eu241 O253 2.384 . S
Eu241 O256 2.479 . S
Eu241 O257 2.471 . S
Eu241 O258 2.347 . S
Eu241 O261 2.366 . S
Eu241 C271 2.825 . S
C242 O258 1.259 . S
C242 O259 1.265 . S
C243 O260 1.255 . S
C243 O261 1.265 . S
C244 C246 1.380 . S
C244 C247 1.374 . S
C244 C250 1.507 . S
C245 C246 1.384 . S
C245 C249 1.387 . S
C245 H272 0.930 . S
C246 C244 1.380 . S
C246 C245 1.384 . S
C246 H273 0.931 . S
C247 C244 1.374 . S
C247 C248 1.390 . S
C247 H274 0.930 . S
C248 C247 1.390 . S
C248 C249 1.391 . S
C248 H275 0.930 . S
C249 C245 1.387 . S
C249 C248 1.391 . S
C250 Tb240 2.825 . S
C250 C244 1.507 . S
C250 O263 1.238 . S
C250 O264 1.247 . S
O251 Tb240 2.347 . S
O251 C255 1.259 . S
O252 Eu241 2.418 . S
O252 C255 1.265 . S
O253 Eu241 2.384 . S
O253 C262 1.255 . S
O254 Tb240 2.366 . S
O254 C262 1.265 . S
C255 O251 1.259 . S
C255 O252 1.265 . S
O256 Eu241 2.479 . S
O256 C271 1.238 . S
O257 Eu241 2.471 . S
O257 C271 1.247 . S
O258 Eu241 2.347 . S
O258 C242 1.259 . S
O259 Tb240 2.418 . S
O259 C242 1.265 . S
O260 Tb240 2.384 . S
O260 C243 1.255 . S
O261 Eu241 2.366 . S
O261 C243 1.265 . S
C262 O253 1.255 . S
C262 O254 1.265 . S
O263 Tb240 2.479 . S
O263 C250 1.238 . S
O264 Tb240 2.471 . S
O264 C250 1.247 . S
C265 C268 1.380 . S
C265 C269 1.374 . S
C265 C271 1.507 . S
C266 C267 1.387 . S
C266 C270 1.391 . S
C267 C266 1.387 . S
C267 C268 1.384 . S
C267 H276 0.930 . S
C268 C265 1.380 . S
C268 C267 1.384 . S
C268 H277 0.931 . S
C269 C265 1.374 . S
C269 C270 1.390 . S
C269 H278 0.930 . S
C270 C266 1.391 . S
C270 C269 1.390 . S
C270 H279 0.930 . S
C271 Eu241 2.825 . S
C271 O256 1.238 . S
C271 O257 1.247 . S
C271 C265 1.507 . S
H272 C245 0.930 . S
H273 C246 0.931 . S
H274 C247 0.930 . S
H275 C248 0.930 . S
H276 C267 0.930 . S
H277 C268 0.931 . S
H278 C269 0.930 . S
H279 C270 0.930 . S
Tb280 C290 2.825 . S
Tb280 O291 2.347 . S
Tb280 O294 2.366 . S
Tb280 O299 2.418 . S
Tb280 O300 2.384 . S
Tb280 O303 2.479 . S
Tb280 O304 2.471 . S
Eu281 O292 2.418 . S
Eu281 O293 2.384 . S
Eu281 O296 2.479 . S
Eu281 O297 2.471 . S
Eu281 O298 2.347 . S
Eu281 O301 2.366 . S
Eu281 C311 2.825 . S
C282 O298 1.259 . S
C282 O299 1.265 . S
C283 O300 1.255 . S
C283 O301 1.265 . S
C284 C286 1.380 . S
C284 C287 1.374 . S
C284 C290 1.507 . S
C285 C286 1.384 . S
C285 C289 1.387 . S
C285 H312 0.930 . S
C286 C284 1.380 . S
C286 C285 1.384 . S
C286 H313 0.931 . S
C287 C284 1.374 . S
C287 C288 1.390 . S
C287 H314 0.930 . S
C288 C287 1.390 . S
C288 C289 1.391 . S
C288 H315 0.930 . S
C289 C285 1.387 . S
C289 C288 1.391 . S
C290 Tb280 2.825 . S
C290 C284 1.507 . S
C290 O303 1.238 . S
C290 O304 1.247 . S
O291 Tb280 2.347 . S
O291 C295 1.259 . S
O292 Eu281 2.418 . S
O292 C295 1.265 . S
O293 Eu281 2.384 . S
O293 C302 1.255 . S
O294 Tb280 2.366 . S
O294 C302 1.265 . S
C295 O291 1.259 . S
C295 O292 1.265 . S
O296 Eu281 2.479 . S
O296 C311 1.238 . S
O297 Eu281 2.471 . S
O297 C311 1.247 . S
O298 Eu281 2.347 . S
O298 C282 1.259 . S
O299 Tb280 2.418 . S
O299 C282 1.265 . S
O300 Tb280 2.384 . S
O300 C283 1.255 . S
O301 Eu281 2.366 . S
O301 C283 1.265 . S
C302 O293 1.255 . S
C302 O294 1.265 . S
O303 Tb280 2.479 . S
O303 C290 1.238 . S
O304 Tb280 2.471 . S
O304 C290 1.247 . S
C305 C308 1.380 . S
C305 C309 1.374 . S
C305 C311 1.507 . S
C306 C307 1.387 . S
C306 C310 1.391 . S
C307 C306 1.387 . S
C307 C308 1.384 . S
C307 H316 0.930 . S
C308 C305 1.380 . S
C308 C307 1.384 . S
C308 H317 0.931 . S
C309 C305 1.374 . S
C309 C310 1.390 . S
C309 H318 0.930 . S
C310 C306 1.391 . S
C310 C309 1.390 . S
C310 H319 0.930 . S
C311 Eu281 2.825 . S
C311 O296 1.238 . S
C311 O297 1.247 . S
C311 C305 1.507 . S
H312 C285 0.930 . S
H313 C286 0.931 . S
H314 C287 0.930 . S
H315 C288 0.930 . S
H316 C307 0.930 . S
H317 C308 0.931 . S
H318 C309 0.930 . S
H319 C310 0.930 . S
Fe320 O321 1.886 1_455 S
Fe320 O324 1.715 . S
Fe320 O329 2.077 1_455 S
Fe320 O334 1.935 . S
Fe320 O340 2.077 1_455 S
Fe320 O349 1.935 . S
O321 Fe320 1.886 1_655 S
O321 Fe323 1.715 1_545 S
Fe322 O324 1.886 . S
Fe322 O325 1.715 1_545 S
Fe322 O332 1.935 1_545 S
Fe322 O333 2.077 . S
Fe322 O339 1.935 . S
Fe322 O348 2.077 . S
Fe323 O321 1.715 1_565 S
Fe323 O326 1.886 . S
Fe323 O330 1.935 1_565 S
Fe323 O335 2.077 . S
Fe323 O341 1.935 1_565 S
Fe323 O345 2.077 . S
O324 Fe320 1.715 . S
O324 Fe322 1.886 . S
O325 Fe322 1.715 1_565 S
O325 Fe327 1.886 . S
O326 Fe323 1.886 . S
O326 Fe327 1.715 1_655 S
Fe327 O325 1.886 . S
Fe327 O326 1.715 1_455 S
Fe327 O331 2.077 . S
Fe327 O336 1.935 1_455 S
Fe327 O338 2.077 . S
Fe327 O346 1.935 1_455 S
C328 O340 1.381 . S
C328 O341 1.421 . S
O329 Fe320 2.077 1_655 S
O329 C342 1.381 . S
O330 Fe323 1.935 1_545 S
O330 C342 1.421 . S
O331 Fe327 2.077 . S
O331 C347 1.381 . S
O332 Fe322 1.935 1_565 S
O332 C347 1.421 . S
O333 Fe322 2.077 . S
O333 C337 1.381 . S
O334 Fe320 1.935 . S
O334 C337 1.421 . S
O335 Fe323 2.077 . S
O335 C343 1.381 . S
O336 Fe327 1.935 1_655 S
O336 C343 1.421 . S
C337 O333 1.381 . S
C337 O334 1.421 . S
O338 Fe327 2.077 . S
O338 C350 1.381 . S
O339 Fe322 1.935 . S
O339 C350 1.421 1_545 S
O340 Fe320 2.077 1_655 S
O340 C328 1.381 . S
O341 Fe323 1.935 1_545 S
O341 C328 1.421 . S
C342 O329 1.381 . S
C342 O330 1.421 . S
C343 O335 1.381 . S
C343 O336 1.421 . S
C344 O345 1.381 . S
C344 O346 1.421 . S
O345 Fe323 2.077 . S
O345 C344 1.381 . S
O346 Fe327 1.935 1_655 S
O346 C344 1.421 . S
C347 O331 1.381 . S
C347 O332 1.421 . S
O348 Fe322 2.077 . S
O348 C351 1.381 . S
O349 Fe320 1.935 . S
O349 C351 1.421 . S
C350 O338 1.381 . S
C350 O339 1.421 1_565 S
C351 O348 1.381 . S
C351 O349 1.421 . S
Fe352 O353 1.886 . S
Fe352 O356 1.715 . S
Fe352 O361 2.077 1_554 S
Fe352 O366 1.935 1_554 S
Fe352 O372 2.077 . S
Fe352 O381 1.935 . S
O353 Fe352 1.886 . S
O353 Fe355 1.715 1_565 S
Fe354 O356 1.886 . S
Fe354 O357 1.715 1_565 S
Fe354 O364 1.935 1_565 S
Fe354 O365 2.077 . S
Fe354 O371 1.935 1_565 S
Fe354 O380 2.077 . S
Fe355 O353 1.715 1_545 S
Fe355 O358 1.886 . S
Fe355 O362 1.935 1_544 S
Fe355 O367 2.077 . S
Fe355 O373 1.935 1_545 S
Fe355 O377 2.077 . S
O356 Fe352 1.715 . S
O356 Fe354 1.886 . S
O357 Fe354 1.715 1_545 S
O357 Fe359 1.886 . S
O358 Fe355 1.886 . S
O358 Fe359 1.715 . S
Fe359 O357 1.886 . S
Fe359 O358 1.715 . S
Fe359 O363 2.077 . S
Fe359 O368 1.935 . S
Fe359 O370 2.077 . S
Fe359 O378 1.935 . S
C360 O372 1.381 . S
C360 O373 1.421 . S
O361 Fe352 2.077 1_556 S
O361 C374 1.381 . S
O362 Fe355 1.935 1_566 S
O362 C374 1.421 . S
O363 Fe359 2.077 . S
O363 C379 1.381 1_554 S
O364 Fe354 1.935 1_545 S
O364 C379 1.421 1_554 S
O365 Fe354 2.077 . S
O365 C369 1.381 1_554 S
O366 Fe352 1.935 1_556 S
O366 C369 1.421 . S
O367 Fe355 2.077 . S
O367 C375 1.381 1_554 S
O368 Fe359 1.935 . S
O368 C375 1.421 1_554 S
C369 O365 1.381 1_556 S
C369 O366 1.421 . S
O370 Fe359 2.077 . S
O370 C382 1.381 . S
O371 Fe354 1.935 1_545 S
O371 C382 1.421 . S
O372 Fe352 2.077 . S
O372 C360 1.381 . S
O373 Fe355 1.935 1_565 S
O373 C360 1.421 . S
C374 O361 1.381 . S
C374 O362 1.421 . S
C375 O367 1.381 1_556 S
C375 O368 1.421 1_556 S
C376 O377 1.381 . S
C376 O378 1.421 . S
O377 Fe355 2.077 . S
O377 C376 1.381 . S
O378 Fe359 1.935 . S
O378 C376 1.421 . S
C379 O363 1.381 1_556 S
C379 O364 1.421 1_556 S
O380 Fe354 2.077 . S
O380 C383 1.381 . S
O381 Fe352 1.935 . S
O381 C383 1.421 . S
C382 O370 1.381 . S
C382 O371 1.421 . S
C383 O380 1.381 . S
C383 O381 1.421 . S
Fe384 O385 1.888 . S
Fe384 O388 1.715 . S
Fe384 O393 2.077 1_554 S
Fe384 O398 1.935 1_554 S
Fe384 O404 2.077 . S
Fe384 O413 1.935 . S
O385 Fe384 1.888 . S
O385 Fe387 1.713 1_455 S
Fe386 O388 1.884 . S
Fe386 O389 1.717 1_554 S
Fe386 O396 1.913 1_554 S
Fe386 O397 2.056 1_554 S
Fe386 O403 1.960 . S
Fe386 O412 2.096 . S
Fe387 O385 1.713 1_655 S
Fe387 O390 1.886 1_554 S
Fe387 O394 1.935 1_554 S
Fe387 O399 2.077 1_554 S
Fe387 O405 1.935 . S
Fe387 O409 2.077 . S
O388 Fe384 1.715 . S
O388 Fe386 1.884 . S
O389 Fe386 1.717 1_556 S
O389 Fe391 1.886 . S
O390 Fe387 1.886 1_556 S
O390 Fe391 1.715 1_655 S
Fe391 O389 1.886 . S
Fe391 O390 1.715 1_455 S
Fe391 O395 2.077 . S
Fe391 O400 1.935 1_455 S
Fe391 O402 2.077 1_556 S
Fe391 O410 1.935 1_456 S
C392 O404 1.381 1_655 S
C392 O405 1.421 . S
O393 Fe384 2.077 1_556 S
O393 C406 1.381 1_455 S
O394 Fe387 1.935 1_556 S
O394 C406 1.421 . S
O395 Fe391 2.077 . S
O395 C411 1.381 . S
O396 Fe386 1.913 1_556 S
O396 C411 1.421 . S
O397 Fe386 2.056 1_556 S
O397 C401 1.381 . S
O398 Fe384 1.935 1_556 S
O398 C401 1.421 . S
O399 Fe387 2.077 1_556 S
O399 C407 1.381 . S
O400 Fe391 1.935 1_655 S
O400 C407 1.421 . S
C401 O397 1.381 . S
C401 O398 1.421 . S
O402 Fe391 2.077 1_554 S
O402 C414 1.381 . S
O403 Fe386 1.960 . S
O403 C414 1.421 . S
O404 Fe384 2.077 . S
O404 C392 1.381 1_455 S
O405 Fe387 1.935 . S
O405 C392 1.421 . S
C406 O393 1.381 1_655 S
C406 O394 1.421 . S
C407 O399 1.381 . S
C407 O400 1.421 . S
C408 O409 1.381 . S
C408 O410 1.421 . S
O409 Fe387 2.077 . S
O409 C408 1.381 . S
O410 Fe391 1.935 1_654 S
O410 C408 1.421 . S
C411 O395 1.381 . S
C411 O396 1.421 . S
O412 Fe386 2.096 . S
O412 C415 1.381 . S
O413 Fe384 1.935 . S
O413 C415 1.421 . S
C414 O402 1.381 . S
C414 O403 1.421 . S
C415 O412 1.381 . S
C415 O413 1.421 . S
Fe416 O417 1.886 . S
Fe416 O420 1.715 . S
Fe416 O425 2.077 . S
Fe416 O430 1.935 . S
Fe416 O436 2.077 . S
Fe416 O445 1.935 . S
O417 Fe416 1.886 . S
O417 Fe419 1.715 1_556 S
Fe418 O420 1.886 1_554 S
Fe418 O421 1.715 . S
Fe418 O428 1.935 . S
Fe418 O429 2.077 1_554 S
Fe418 O435 1.935 . S
Fe418 O444 2.077 1_554 S
Fe419 O417 1.715 1_554 S
Fe419 O422 1.886 . S
Fe419 O426 1.935 1_554 S
Fe419 O431 2.077 . S
Fe419 O437 1.935 1_554 S
Fe419 O441 2.077 . S
O420 Fe416 1.715 . S
O420 Fe418 1.886 1_556 S
O421 Fe418 1.715 . S
O421 Fe423 1.886 . S
O422 Fe419 1.886 . S
O422 Fe423 1.715 . S
Fe423 O421 1.886 . S
Fe423 O422 1.715 . S
Fe423 O427 2.077 . S
Fe423 O432 1.935 . S
Fe423 O434 2.077 . S
Fe423 O442 1.935 . S
C424 O436 1.381 . S
C424 O437 1.421 . S
O425 Fe416 2.077 . S
O425 C438 1.381 . S
O426 Fe419 1.935 1_556 S
O426 C438 1.421 . S
O427 Fe423 2.077 . S
O427 C443 1.381 . S
O428 Fe418 1.935 . S
O428 C443 1.421 . S
O429 Fe418 2.077 1_556 S
O429 C433 1.381 . S
O430 Fe416 1.935 . S
O430 C433 1.421 . S
O431 Fe419 2.077 . S
O431 C439 1.381 . S
O432 Fe423 1.935 . S
O432 C439 1.421 . S
C433 O429 1.381 . S
C433 O430 1.421 . S
O434 Fe423 2.077 . S
O434 C446 1.381 . S
O435 Fe418 1.935 . S
O435 C446 1.421 . S
O436 Fe416 2.077 . S
O436 C424 1.381 . S
O437 Fe419 1.935 1_556 S
O437 C424 1.421 . S
C438 O425 1.381 . S
C438 O426 1.421 . S
C439 O431 1.381 . S
C439 O432 1.421 . S
C440 O441 1.381 . S
C440 O442 1.421 . S
O441 Fe419 2.077 . S
O441 C440 1.381 . S
O442 Fe423 1.935 . S
O442 C440 1.421 . S
C443 O427 1.381 . S
C443 O428 1.421 . S
O444 Fe418 2.077 1_556 S
O444 C447 1.381 . S
O445 Fe416 1.935 . S
O445 C447 1.421 . S
C446 O434 1.381 . S
C446 O435 1.421 . S
C447 O444 1.381 . S
C447 O445 1.421 . S
Fe448 O449 1.886 . S
Fe448 O452 1.715 . S
Fe448 O457 2.077 1_655 S
Fe448 O462 1.935 1_655 S
Fe448 O468 2.077 . S
Fe448 O477 1.935 . S
O449 Fe448 1.886 . S
O449 Fe451 1.717 1_655 S
Fe450 O452 1.886 1_455 S
Fe450 O453 1.715 . S
Fe450 O460 1.935 . S
Fe450 O461 2.077 . S
Fe450 O467 1.935 1_455 S
Fe450 O476 2.077 1_455 S
Fe451 O449 1.717 1_455 S
Fe451 O454 1.883 . S
Fe451 O458 1.948 . S
Fe451 O463 2.085 . S
Fe451 O469 1.925 1_455 S
Fe451 O473 2.065 1_455 S
O452 Fe448 1.715 . S
O452 Fe450 1.886 1_655 S
O453 Fe450 1.715 . S
O453 Fe455 1.886 . S
O454 Fe451 1.883 . S
O454 Fe455 1.715 . S
Fe455 O453 1.886 . S
Fe455 O454 1.715 . S
Fe455 O459 2.077 . S
Fe455 O464 1.935 . S
Fe455 O466 2.077 1_455 S
Fe455 O474 1.935 1_455 S
C456 O468 1.381 . S
C456 O469 1.421 . S
O457 Fe448 2.077 1_455 S
O457 C470 1.381 . S
O458 Fe451 1.948 . S
O458 C470 1.421 . S
O459 Fe455 2.077 . S
O459 C475 1.381 . S
O460 Fe450 1.935 . S
O460 C475 1.421 . S
O461 Fe450 2.077 . S
O461 C465 1.381 . S
O462 Fe448 1.935 1_455 S
O462 C465 1.421 . S
O463 Fe451 2.085 . S
O463 C471 1.381 . S
O464 Fe455 1.935 . S
O464 C471 1.421 . S
C465 O461 1.381 . S
C465 O462 1.421 . S
O466 Fe455 2.077 1_655 S
O466 C478 1.381 . S
O467 Fe450 1.935 1_655 S
O467 C478 1.421 . S
O468 Fe448 2.077 . S
O468 C456 1.381 . S
O469 Fe451 1.925 1_655 S
O469 C456 1.421 . S
C470 O457 1.381 . S
C470 O458 1.421 . S
C471 O463 1.381 . S
C471 O464 1.421 . S
C472 O473 1.381 . S
C472 O474 1.421 . S
O473 Fe451 2.065 1_655 S
O473 C472 1.381 . S
O474 Fe455 1.935 1_655 S
O474 C472 1.421 . S
C475 O459 1.381 . S
C475 O460 1.421 . S
O476 Fe450 2.077 1_655 S
O476 C479 1.381 . S
O477 Fe448 1.935 . S
O477 C479 1.421 . S
C478 O466 1.381 . S
C478 O467 1.421 . S
C479 O476 1.381 . S
C479 O477 1.421 . S
Fe480 O481 1.887 1_565 S
Fe480 O484 1.715 . S
Fe480 O489 2.077 . S
Fe480 O494 1.935 . S
Fe480 O500 2.077 . S
Fe480 O509 1.935 . S
O481 Fe480 1.887 1_545 S
O481 Fe483 1.714 . S
Fe482 O484 1.886 1_545 S
Fe482 O485 1.715 . S
Fe482 O492 1.935 . S
Fe482 O493 2.077 1_545 S
Fe482 O499 1.935 . S
Fe482 O508 2.077 1_545 S
Fe483 O481 1.714 . S
Fe483 O486 1.886 . S
Fe483 O490 1.935 . S
Fe483 O495 2.077 . S
Fe483 O501 1.936 1_545 S
Fe483 O505 2.077 . S
O484 Fe480 1.715 . S
O484 Fe482 1.886 1_565 S
O485 Fe482 1.715 . S
O485 Fe487 1.886 . S
O486 Fe483 1.886 . S
O486 Fe487 1.715 . S
Fe487 O485 1.886 . S
Fe487 O486 1.715 . S
Fe487 O491 2.077 . S
Fe487 O496 1.935 . S
Fe487 O498 2.077 . S
Fe487 O506 1.935 . S
C488 O500 1.381 . S
C488 O501 1.418 . S
O489 Fe480 2.077 . S
O489 C502 1.381 . S
O490 Fe483 1.935 . S
O490 C502 1.421 1_545 S
O491 Fe487 2.077 . S
O491 C507 1.381 . S
O492 Fe482 1.935 . S
O492 C507 1.421 . S
O493 Fe482 2.077 1_565 S
O493 C497 1.381 . S
O494 Fe480 1.935 . S
O494 C497 1.421 . S
O495 Fe483 2.077 . S
O495 C503 1.381 . S
O496 Fe487 1.935 . S
O496 C503 1.421 . S
C497 O493 1.381 . S
C497 O494 1.421 . S
O498 Fe487 2.077 . S
O498 C510 1.381 . S
O499 Fe482 1.935 . S
O499 C510 1.421 . S
O500 Fe480 2.077 . S
O500 C488 1.381 . S
O501 Fe483 1.936 1_565 S
O501 C488 1.418 . S
C502 O489 1.381 . S
C502 O490 1.421 1_565 S
C503 O495 1.381 . S
C503 O496 1.421 . S
C504 O505 1.381 . S
C504 O506 1.421 . S
O505 Fe483 2.077 . S
O505 C504 1.381 . S
O506 Fe487 1.935 . S
O506 C504 1.421 . S
C507 O491 1.381 . S
C507 O492 1.421 . S
O508 Fe482 2.077 1_565 S
O508 C511 1.381 . S
O509 Fe480 1.935 . S
O509 C511 1.421 . S
C510 O498 1.381 . S
C510 O499 1.421 . S
C511 O508 1.381 . S
C511 O509 1.421 . S
C512 C513 1.363 . S
C512 C518 1.379 . S
C512 N520 1.356 . S
C513 C512 1.363 . S
C513 C519 1.363 . S
C514 C515 1.363 . S
C514 C519 1.379 . S
C514 N521 1.356 . S
C515 C514 1.363 . S
C515 C518 1.363 . S
N516 C518 1.356 . S
N516 H528 0.984 . S
N516 H529 0.985 . S
N517 C519 1.356 . S
N517 H522 0.984 . S
N517 H523 0.985 . S
C518 C512 1.379 . S
C518 C515 1.363 . S
C518 N516 1.356 . S
C519 C513 1.363 . S
C519 C514 1.379 . S
C519 N517 1.356 . S
N520 C512 1.356 . S
N520 H526 0.984 . S
N520 H527 0.984 . S
N521 C514 1.356 . S
N521 H524 0.984 . S
N521 H525 0.985 . S
H522 N517 0.984 . S
H523 N517 0.985 . S
H524 N521 0.984 . S
H525 N521 0.985 . S
H526 N520 0.984 . S
H527 N520 0.984 . S
H528 N516 0.984 . S
H529 N516 0.985 . S
C530 C531 1.363 . S
C530 C536 1.379 . S
C530 N538 1.356 . S
C531 C530 1.363 . S
C531 C537 1.363 . S
C532 C533 1.363 . S
C532 C537 1.379 . S
C532 N539 1.356 . S
C533 C532 1.363 . S
C533 C536 1.363 . S
N534 C536 1.356 . S
N534 H546 0.984 1_545 S
N534 H547 0.985 . S
N535 C537 1.356 . S
N535 H540 0.984 . S
N535 H541 0.985 . S
C536 C530 1.379 . S
C536 C533 1.363 . S
C536 N534 1.356 . S
C537 C531 1.363 . S
C537 C532 1.379 . S
C537 N535 1.356 . S
N538 C530 1.356 . S
N538 H544 0.984 . S
N538 H545 0.984 . S
N539 C532 1.356 . S
N539 H542 0.984 . S
N539 H543 0.985 . S
H540 N535 0.984 . S
H541 N535 0.985 . S
H542 N539 0.984 . S
H543 N539 0.985 . S
H544 N538 0.984 . S
H545 N538 0.984 . S
H546 N534 0.984 1_565 S
H547 N534 0.985 . S
C548 C549 1.363 . S
C548 C554 1.379 . S
C548 N556 1.356 . S
C549 C548 1.363 . S
C549 C555 1.363 . S
C550 C551 1.363 . S
C550 C555 1.379 . S
C550 N557 1.356 . S
C551 C550 1.363 . S
C551 C554 1.363 . S
N552 C554 1.356 . S
N552 H564 0.984 . S
N552 H565 0.985 . S
N553 C555 1.356 . S
N553 H558 0.984 . S
N553 H559 0.985 . S
C554 C548 1.379 . S
C554 C551 1.363 . S
C554 N552 1.356 . S
C555 C549 1.363 . S
C555 C550 1.379 . S
C555 N553 1.356 . S
N556 C548 1.356 . S
N556 H562 0.984 . S
N556 H563 0.984 . S
N557 C550 1.356 . S
N557 H560 0.984 . S
N557 H561 0.985 . S
H558 N553 0.984 . S
H559 N553 0.985 . S
H560 N557 0.984 . S
H561 N557 0.985 . S
H562 N556 0.984 . S
H563 N556 0.984 . S
H564 N552 0.984 . S
H565 N552 0.985 . S
C566 C567 1.363 . S
C566 C572 1.379 . S
C566 N574 1.356 . S
C567 C566 1.363 . S
C567 C573 1.363 . S
C568 C569 1.363 . S
C568 C573 1.379 . S
C568 N575 1.356 . S
C569 C568 1.363 . S
C569 C572 1.363 . S
N570 C572 1.356 . S
N570 H582 0.984 . S
N570 H583 0.985 . S
N571 C573 1.356 . S
N571 H576 0.984 . S
N571 H577 0.985 . S
C572 C566 1.379 . S
C572 C569 1.363 . S
C572 N570 1.356 . S
C573 C567 1.363 . S
C573 C568 1.379 . S
C573 N571 1.356 . S
N574 C566 1.356 . S
N574 H580 0.984 1_455 S
N574 H581 0.984 . S
N575 C568 1.356 . S
N575 H578 0.984 . S
N575 H579 0.985 . S
H576 N571 0.984 . S
H577 N571 0.985 . S
H578 N575 0.984 . S
H579 N575 0.985 . S
H580 N574 0.984 1_655 S
H581 N574 0.984 . S
H582 N570 0.984 . S
H583 N570 0.985 . S
C584 C585 1.363 . S
C584 C590 1.379 . S
C584 N592 1.356 . S
C585 C584 1.363 . S
C585 C591 1.363 . S
C586 C587 1.363 . S
C586 C591 1.379 . S
C586 N593 1.356 . S
C587 C586 1.363 . S
C587 C590 1.363 . S
N588 C590 1.356 . S
N588 H600 0.984 . S
N588 H601 0.985 . S
N589 C591 1.356 . S
N589 H594 0.984 . S
N589 H595 0.985 1_565 S
C590 C584 1.379 . S
C590 C587 1.363 . S
C590 N588 1.356 . S
C591 C585 1.363 . S
C591 C586 1.379 . S
C591 N589 1.356 . S
N592 C584 1.356 . S
N592 H598 0.984 . S
N592 H599 0.984 . S
N593 C586 1.356 . S
N593 H596 0.984 . S
N593 H597 0.985 1_565 S
H594 N589 0.984 . S
H595 N589 0.985 1_545 S
H596 N593 0.984 . S
H597 N593 0.985 1_545 S
H598 N592 0.984 . S
H599 N592 0.984 . S
H600 N588 0.984 . S
H601 N588 0.985 . S
C602 C603 1.363 . S
C602 C608 1.379 . S
C602 N610 1.356 . S
C603 C602 1.363 . S
C603 C609 1.363 . S
C604 C605 1.363 . S
C604 C609 1.379 . S
C604 N611 1.356 . S
C605 C604 1.363 . S
C605 C608 1.363 . S
N606 C608 1.356 . S
N606 H618 0.984 . S
N606 H619 0.985 . S
N607 C609 1.356 . S
N607 H612 0.984 . S
N607 H613 0.985 . S
C608 C602 1.379 . S
C608 C605 1.363 . S
C608 N606 1.356 . S
C609 C603 1.363 . S
C609 C604 1.379 . S
C609 N607 1.356 . S
N610 C602 1.356 . S
N610 H616 0.984 . S
N610 H617 0.984 . S
N611 C604 1.356 . S
N611 H614 0.984 . S
N611 H615 0.985 . S
H612 N607 0.984 . S
H613 N607 0.985 . S
H614 N611 0.984 . S
H615 N611 0.985 . S
H616 N610 0.984 . S
H617 N610 0.984 . S
H618 N606 0.984 . S
H619 N606 0.985 . S
C620 C621 1.363 . S
C620 C626 1.379 . S
C620 N628 1.356 . S
C621 C620 1.363 . S
C621 C627 1.363 . S
C622 C623 1.363 . S
C622 C627 1.379 . S
C622 N629 1.356 . S
C623 C622 1.363 . S
C623 C626 1.363 . S
N624 C626 1.356 . S
N624 H636 0.975 1_655 S
N624 H637 0.985 . S
N625 C627 1.356 . S
N625 H630 0.984 . S
N625 H631 0.985 . S
C626 C620 1.379 . S
C626 C623 1.363 . S
C626 N624 1.356 . S
C627 C621 1.363 . S
C627 C622 1.379 . S
C627 N625 1.356 . S
N628 C620 1.356 . S
N628 H634 0.984 1_655 S
N628 H635 0.984 . S
N629 C622 1.356 . S
N629 H632 0.984 . S
N629 H633 0.985 . S
H630 N625 0.984 . S
H631 N625 0.985 . S
H632 N629 0.984 . S
H633 N629 0.985 . S
H634 N628 0.984 1_455 S
H635 N628 0.984 . S
H636 N624 0.975 1_455 S
H637 N624 0.985 . S
C638 C639 1.363 . S
C638 C644 1.379 . S
C638 N646 1.356 . S
C639 C638 1.363 . S
C639 C645 1.363 . S
C640 C641 1.363 . S
C640 C645 1.379 . S
C640 N647 1.356 . S
C641 C640 1.363 . S
C641 C644 1.363 . S
N642 C644 1.356 . S
N642 H654 0.984 . S
N642 H655 0.985 . S
N643 C645 1.356 . S
N643 H648 0.984 . S
N643 H649 0.985 . S
C644 C638 1.379 . S
C644 C641 1.363 . S
C644 N642 1.356 . S
C645 C639 1.363 . S
C645 C640 1.379 . S
C645 N643 1.356 . S
N646 C638 1.356 . S
N646 H652 0.984 . S
N646 H653 0.984 . S
N647 C640 1.356 . S
N647 H650 0.984 . S
N647 H651 0.985 . S
H648 N643 0.984 . S
H649 N643 0.985 . S
H650 N647 0.984 . S
H651 N647 0.985 . S
H652 N646 0.984 . S
H653 N646 0.984 . S
H654 N642 0.984 . S
H655 N642 0.985 . S
C656 C657 1.363 . S
C656 C662 1.379 . S
C656 N664 1.356 . S
C657 C656 1.363 . S
C657 C663 1.363 . S
C658 C659 1.363 . S
C658 C663 1.379 . S
C658 N665 1.356 . S
C659 C658 1.363 . S
C659 C662 1.363 . S
N660 C662 1.356 . S
N660 H672 0.984 . S
N660 H673 0.985 . S
N661 C663 1.356 . S
N661 H666 0.984 . S
N661 H667 0.985 . S
C662 C656 1.379 . S
C662 C659 1.363 . S
C662 N660 1.356 . S
C663 C657 1.363 . S
C663 C658 1.379 . S
C663 N661 1.356 . S
N664 C656 1.356 . S
N664 H670 0.984 . S
N664 H671 0.984 . S
N665 C658 1.356 . S
N665 H668 0.984 . S
N665 H669 0.985 . S
H666 N661 0.984 . S
H667 N661 0.985 . S
H668 N665 0.984 . S
H669 N665 0.985 . S
H670 N664 0.984 . S
H671 N664 0.984 . S
H672 N660 0.984 . S
H673 N660 0.985 . S
C674 C675 1.363 . S
C674 C680 1.379 . S
C674 N682 1.356 . S
C675 C674 1.363 . S
C675 C681 1.363 . S
C676 C677 1.363 . S
C676 C681 1.379 . S
C676 N683 1.356 . S
C677 C676 1.363 . S
C677 C680 1.363 . S
N678 C680 1.356 . S
N678 H690 0.984 . S
N678 H691 0.985 . S
N679 C681 1.356 . S
N679 H684 0.984 . S
N679 H685 0.985 . S
C680 C674 1.379 . S
C680 C677 1.363 . S
C680 N678 1.356 . S
C681 C675 1.363 . S
C681 C676 1.379 . S
C681 N679 1.356 . S
N682 C674 1.356 . S
N682 H688 0.984 . S
N682 H689 0.984 . S
N683 C676 1.356 . S
N683 H686 0.984 . S
N683 H687 0.985 . S
H684 N679 0.984 . S
H685 N679 0.985 . S
H686 N683 0.984 . S
H687 N683 0.985 . S
H688 N682 0.984 . S
H689 N682 0.984 . S
H690 N678 0.984 . S
H691 N678 0.985 . S
C692 C693 1.363 . S
C692 C698 1.379 . S
C692 N700 1.356 . S
C693 C692 1.363 . S
C693 C699 1.363 . S
C694 C695 1.363 . S
C694 C699 1.379 . S
C694 N701 1.356 . S
C695 C694 1.363 . S
C695 C698 1.363 . S
N696 C698 1.356 . S
N696 H708 0.984 . S
N696 H709 0.985 . S
N697 C699 1.356 . S
N697 H702 0.984 . S
N697 H703 0.985 . S
C698 C692 1.379 . S
C698 C695 1.363 . S
C698 N696 1.356 . S
C699 C693 1.363 . S
C699 C694 1.379 . S
C699 N697 1.356 . S
N700 C692 1.356 . S
N700 H706 0.984 . S
N700 H707 0.984 . S
N701 C694 1.356 . S
N701 H704 0.984 . S
N701 H705 0.985 . S
H702 N697 0.984 . S
H703 N697 0.985 . S
H704 N701 0.984 . S
H705 N701 0.985 . S
H706 N700 0.984 . S
H707 N700 0.984 . S
H708 N696 0.984 . S
H709 N696 0.985 . S
C710 C711 1.363 . S
C710 C716 1.379 . S
C710 N718 1.356 . S
C711 C710 1.363 . S
C711 C717 1.363 . S
C712 C713 1.363 . S
C712 C717 1.379 . S
C712 N719 1.356 . S
C713 C712 1.363 . S
C713 C716 1.363 . S
N714 C716 1.356 . S
N714 H726 0.984 . S
N714 H727 0.985 . S
N715 C717 1.356 . S
N715 H720 0.984 . S
N715 H721 0.985 . S
C716 C710 1.379 . S
C716 C713 1.363 . S
C716 N714 1.356 . S
C717 C711 1.363 . S
C717 C712 1.379 . S
C717 N715 1.356 . S
N718 C710 1.356 . S
N718 H724 0.984 . S
N718 H725 0.984 . S
N719 C712 1.356 . S
N719 H722 0.984 . S
N719 H723 0.985 . S
H720 N715 0.984 . S
H721 N715 0.985 . S
H722 N719 0.984 . S
H723 N719 0.985 . S
H724 N718 0.984 . S
H725 N718 0.984 . S
H726 N714 0.984 . S
H727 N714 0.985 . S
C728 C729 1.363 . S
C728 C734 1.379 . S
C728 N736 1.356 . S
C729 C728 1.363 . S
C729 C735 1.363 . S
C730 C731 1.363 . S
C730 C735 1.379 . S
C730 N737 1.356 . S
C731 C730 1.363 . S
C731 C734 1.363 . S
N732 C734 1.356 . S
N732 H744 0.984 . S
N732 H745 0.985 . S
N733 C735 1.356 . S
N733 H738 0.984 . S
N733 H739 0.985 . S
C734 C728 1.379 . S
C734 C731 1.363 . S
C734 N732 1.356 . S
C735 C729 1.363 . S
C735 C730 1.379 . S
C735 N733 1.356 . S
N736 C728 1.356 . S
N736 H742 0.984 . S
N736 H743 0.984 . S
N737 C730 1.356 . S
N737 H740 0.984 . S
N737 H741 0.985 . S
H738 N733 0.984 . S
H739 N733 0.985 . S
H740 N737 0.984 . S
H741 N737 0.985 . S
H742 N736 0.984 . S
H743 N736 0.984 . S
H744 N732 0.984 . S
H745 N732 0.985 . S
C746 C747 1.363 . S
C746 C752 1.379 . S
C746 N754 1.356 . S
C747 C746 1.363 . S
C747 C753 1.363 . S
C748 C749 1.363 . S
C748 C753 1.379 . S
C748 N755 1.356 . S
C749 C748 1.363 . S
C749 C752 1.363 . S
N750 C752 1.356 . S
N750 H762 0.984 . S
N750 H763 0.985 . S
N751 C753 1.356 . S
N751 H756 0.984 . S
N751 H757 0.985 . S
C752 C746 1.379 . S
C752 C749 1.363 . S
C752 N750 1.356 . S
C753 C747 1.363 . S
C753 C748 1.379 . S
C753 N751 1.356 . S
N754 C746 1.356 . S
N754 H760 0.984 . S
N754 H761 0.984 . S
N755 C748 1.356 . S
N755 H758 0.984 . S
N755 H759 0.985 . S
H756 N751 0.984 . S
H757 N751 0.985 . S
H758 N755 0.984 . S
H759 N755 0.985 . S
H760 N754 0.984 . S
H761 N754 0.984 . S
H762 N750 0.984 . S
H763 N750 0.985 . S
C764 C765 1.363 . S
C764 C770 1.379 . S
C764 N772 1.356 . S
C765 C764 1.363 . S
C765 C771 1.363 . S
C766 C767 1.363 . S
C766 C771 1.379 . S
C766 N773 1.356 . S
C767 C766 1.363 . S
C767 C770 1.363 . S
N768 C770 1.356 . S
N768 H780 0.984 1_556 S
N768 H781 0.985 1_556 S
N769 C771 1.356 . S
N769 H774 0.984 . S
N769 H775 0.985 . S
C770 C764 1.379 . S
C770 C767 1.363 . S
C770 N768 1.356 . S
C771 C765 1.363 . S
C771 C766 1.379 . S
C771 N769 1.356 . S
N772 C764 1.356 . S
N772 H778 0.984 . S
N772 H779 0.984 . S
N773 C766 1.356 . S
N773 H776 0.984 . S
N773 H777 0.985 . S
H774 N769 0.984 . S
H775 N769 0.985 . S
H776 N773 0.984 . S
H777 N773 0.985 . S
H778 N772 0.984 . S
H779 N772 0.984 . S
H780 N768 0.984 1_554 S
H781 N768 0.985 1_554 S
C782 C783 1.363 . S
C782 C788 1.379 . S
C782 N790 1.356 . S
C783 C782 1.363 . S
C783 C789 1.363 . S
C784 C785 1.363 . S
C784 C789 1.379 . S
C784 N791 1.356 . S
C785 C784 1.363 . S
C785 C788 1.363 . S
N786 C788 1.356 . S
N786 H798 0.984 . S
N786 H799 0.985 . S
N787 C789 1.356 1_554 S
N787 H792 0.984 . S
N787 H793 0.985 . S
C788 C782 1.379 . S
C788 C785 1.363 . S
C788 N786 1.356 . S
C789 C783 1.363 . S
C789 C784 1.379 . S
C789 N787 1.356 1_556 S
N790 C782 1.356 . S
N790 H796 0.984 . S
N790 H797 0.984 . S
N791 C784 1.356 . S
N791 H794 0.984 . S
N791 H795 0.985 1_556 S
H792 N787 0.984 . S
H793 N787 0.985 . S
H794 N791 0.984 . S
H795 N791 0.985 1_554 S
H796 N790 0.984 . S
H797 N790 0.984 . S
H798 N786 0.984 . S
H799 N786 0.985 . S
C800 C801 1.363 . S
C800 C806 1.379 . S
C800 N808 1.356 . S
C801 C800 1.363 . S
C801 C807 1.363 . S
C802 C803 1.363 . S
C802 C807 1.379 . S
C802 N809 1.356 . S
C803 C802 1.363 . S
C803 C806 1.363 . S
N804 C806 1.356 . S
N804 H816 0.984 1_554 S
N804 H817 0.985 . S
N805 C807 1.356 . S
N805 H810 0.984 . S
N805 H811 0.985 . S
C806 C800 1.379 . S
C806 C803 1.363 . S
C806 N804 1.356 . S
C807 C801 1.363 . S
C807 C802 1.379 . S
C807 N805 1.356 . S
N808 C800 1.356 . S
N808 H814 0.984 1_554 S
N808 H815 0.984 . S
N809 C802 1.356 . S
N809 H812 0.984 . S
N809 H813 0.985 . S
H810 N805 0.984 . S
H811 N805 0.985 . S
H812 N809 0.984 . S
H813 N809 0.985 . S
H814 N808 0.984 1_556 S
H815 N808 0.984 . S
H816 N804 0.984 1_556 S
H817 N804 0.985 . S
C818 C819 1.363 . S
C818 C824 1.379 . S
C818 N826 1.356 . S
C819 C818 1.363 . S
C819 C825 1.363 . S
C820 C821 1.363 . S
C820 C825 1.379 . S
C820 N827 1.356 . S
C821 C820 1.363 . S
C821 C824 1.363 . S
N822 C824 1.356 . S
N822 H834 0.984 . S
N822 H835 0.985 . S
N823 C825 1.356 . S
N823 H828 0.984 . S
N823 H829 0.985 . S
C824 C818 1.379 . S
C824 C821 1.363 . S
C824 N822 1.356 . S
C825 C819 1.363 . S
C825 C820 1.379 . S
C825 N823 1.356 . S
N826 C818 1.356 . S
N826 H832 0.984 . S
N826 H833 0.984 . S
N827 C820 1.356 . S
N827 H830 0.984 . S
N827 H831 0.985 . S
H828 N823 0.984 . S
H829 N823 0.985 . S
H830 N827 0.984 . S
H831 N827 0.985 . S
H832 N826 0.984 . S
H833 N826 0.984 . S
H834 N822 0.984 . S
H835 N822 0.985 . S
C836 C837 1.363 . S
C836 C842 1.379 . S
C836 N844 1.356 . S
C837 C836 1.363 . S
C837 C843 1.363 . S
C838 C839 1.363 . S
C838 C843 1.379 . S
C838 N845 1.356 . S
C839 C838 1.363 . S
C839 C842 1.363 . S
N840 C842 1.356 . S
N840 H852 0.984 . S
N840 H853 0.985 . S
N841 C843 1.356 . S
N841 H846 0.984 . S
N841 H847 0.985 1_545 S
C842 C836 1.379 . S
C842 C839 1.363 . S
C842 N840 1.356 . S
C843 C837 1.363 . S
C843 C838 1.379 . S
C843 N841 1.356 . S
N844 C836 1.356 . S
N844 H850 0.984 . S
N844 H851 0.984 . S
N845 C838 1.356 . S
N845 H848 0.984 . S
N845 H849 0.985 1_545 S
H846 N841 0.984 . S
H847 N841 0.985 1_565 S
H848 N845 0.984 . S
H849 N845 0.985 1_565 S
H850 N844 0.984 . S
H851 N844 0.984 . S
H852 N840 0.984 . S
H853 N840 0.985 . S
C854 C855 1.363 . S
C854 C860 1.379 . S
C854 N862 1.356 . S
C855 C854 1.363 . S
C855 C861 1.363 . S
C856 C857 1.363 . S
C856 C861 1.379 . S
C856 N863 1.356 . S
C857 C856 1.363 . S
C857 C860 1.363 . S
N858 C860 1.356 . S
N858 H870 0.984 . S
N858 H871 0.985 . S
N859 C861 1.356 . S
N859 H864 0.984 . S
N859 H865 0.985 . S
C860 C854 1.379 . S
C860 C857 1.363 . S
C860 N858 1.356 . S
C861 C855 1.363 . S
C861 C856 1.379 . S
C861 N859 1.356 . S
N862 C854 1.356 . S
N862 H868 0.984 . S
N862 H869 0.984 . S
N863 C856 1.356 . S
N863 H866 0.984 . S
N863 H867 0.985 . S
H864 N859 0.984 . S
H865 N859 0.985 . S
H866 N863 0.984 . S
H867 N863 0.985 . S
H868 N862 0.984 . S
H869 N862 0.984 . S
H870 N858 0.984 . S
H871 N858 0.985 . S
C872 C873 1.363 . S
C872 C878 1.379 . S
C872 N880 1.356 . S
C873 C872 1.363 . S
C873 C879 1.363 . S
C874 C875 1.363 . S
C874 C879 1.379 . S
C874 N881 1.356 . S
C875 C874 1.363 . S
C875 C878 1.363 . S
N876 C878 1.356 . S
N876 H888 0.984 . S
N876 H889 0.985 . S
N877 C879 1.356 . S
N877 H882 0.984 . S
N877 H883 0.985 . S
C878 C872 1.379 . S
C878 C875 1.363 . S
C878 N876 1.356 . S
C879 C873 1.363 . S
C879 C874 1.379 . S
C879 N877 1.356 . S
N880 C872 1.356 . S
N880 H886 0.984 . S
N880 H887 0.984 . S
N881 C874 1.356 . S
N881 H884 0.984 . S
N881 H885 0.985 . S
H882 N877 0.984 . S
H883 N877 0.985 . S
H884 N881 0.984 . S
H885 N881 0.985 . S
H886 N880 0.984 . S
H887 N880 0.984 . S
H888 N876 0.984 . S
H889 N876 0.985 . S
C890 C891 1.363 . S
C890 C896 1.379 . S
C890 N898 1.356 . S
C891 C890 1.363 . S
C891 C897 1.363 . S
C892 C893 1.363 . S
C892 C897 1.379 . S
C892 N899 1.356 1_655 S
C893 C892 1.363 . S
C893 C896 1.363 . S
N894 C896 1.356 . S
N894 H906 0.984 . S
N894 H907 0.985 . S
N895 C897 1.356 1_455 S
N895 H900 0.984 . S
N895 H901 0.985 . S
C896 C890 1.379 . S
C896 C893 1.363 . S
C896 N894 1.356 . S
C897 C891 1.363 . S
C897 C892 1.379 . S
C897 N895 1.356 1_655 S
N898 C890 1.356 . S
N898 H904 0.984 . S
N898 H905 0.984 . S
N899 C892 1.356 1_455 S
N899 H902 0.984 . S
N899 H903 0.985 . S
H900 N895 0.984 . S
H901 N895 0.985 . S
H902 N899 0.984 . S
H903 N899 0.985 . S
H904 N898 0.984 . S
H905 N898 0.984 . S
H906 N894 0.984 . S
H907 N894 0.985 . S
C908 C909 1.363 . S
C908 C914 1.379 . S
C908 N916 1.356 . S
C909 C908 1.363 . S
C909 C915 1.363 . S
C910 C911 1.363 . S
C910 C915 1.379 . S
C910 N917 1.356 . S
C911 C910 1.363 . S
C911 C914 1.363 . S
N912 C914 1.356 . S
N912 H924 0.984 . S
N912 H925 0.985 . S
N913 C915 1.356 . S
N913 H918 0.984 . S
N913 H919 0.985 . S
C914 C908 1.379 . S
C914 C911 1.363 . S
C914 N912 1.356 . S
C915 C909 1.363 . S
C915 C910 1.379 . S
C915 N913 1.356 . S
N916 C908 1.356 . S
N916 H922 0.984 . S
N916 H923 0.984 . S
N917 C910 1.356 . S
N917 H920 0.984 . S
N917 H921 0.985 . S
H918 N913 0.984 . S
H919 N913 0.985 . S
H920 N917 0.984 . S
H921 N917 0.985 . S
H922 N916 0.984 . S
H923 N916 0.984 . S
H924 N912 0.984 . S
H925 N912 0.985 . S
C926 C927 1.363 . S
C926 C932 1.379 . S
C926 N934 1.356 . S
C927 C926 1.363 . S
C927 C933 1.363 . S
C928 C929 1.363 . S
C928 C933 1.379 . S
C928 N935 1.356 . S
C929 C928 1.363 . S
C929 C932 1.363 . S
N930 C932 1.356 . S
N930 H942 0.984 . S
N930 H943 0.985 . S
N931 C933 1.356 . S
N931 H936 0.984 . S
N931 H937 0.985 . S
C932 C926 1.379 . S
C932 C929 1.363 . S
C932 N930 1.356 . S
C933 C927 1.363 . S
C933 C928 1.379 . S
C933 N931 1.356 . S
N934 C926 1.356 . S
N934 H940 0.984 . S
N934 H941 0.984 . S
N935 C928 1.356 . S
N935 H938 0.984 . S
N935 H939 0.985 . S
H936 N931 0.984 . S
H937 N931 0.985 . S
H938 N935 0.984 . S
H939 N935 0.985 . S
H940 N934 0.984 . S
H941 N934 0.984 . S
H942 N930 0.984 . S
H943 N930 0.985 . S
C944 C945 1.363 . S
C944 C950 1.379 . S
C944 N952 1.356 . S
C945 C944 1.363 . S
C945 C951 1.363 . S
C946 C947 1.363 . S
C946 C951 1.379 . S
C946 N953 1.356 . S
C947 C946 1.363 . S
C947 C950 1.363 . S
N948 C950 1.356 . S
N948 H960 0.984 . S
N948 H961 0.985 . S
N949 C951 1.356 . S
N949 H954 0.984 . S
N949 H955 0.985 . S
C950 C944 1.379 . S
C950 C947 1.363 . S
C950 N948 1.356 . S
C951 C945 1.363 . S
C951 C946 1.379 . S
C951 N949 1.356 . S
N952 C944 1.356 . S
N952 H958 0.984 . S
N952 H959 0.984 . S
N953 C946 1.356 . S
N953 H956 0.984 . S
N953 H957 0.985 . S
H954 N949 0.984 . S
H955 N949 0.985 . S
H956 N953 0.984 . S
H957 N953 0.985 . S
H958 N952 0.984 . S
H959 N952 0.984 . S
H960 N948 0.984 . S
H961 N948 0.985 . S
C962 C963 1.363 . S
C962 C968 1.379 . S
C962 N970 1.356 . S
C963 C962 1.363 . S
C963 C969 1.363 . S
C964 C965 1.363 . S
C964 C969 1.379 . S
C964 N971 1.356 . S
C965 C964 1.363 . S
C965 C968 1.363 . S
N966 C968 1.356 . S
N966 H978 0.984 . S
N966 H979 0.985 . S
N967 C969 1.356 . S
N967 H972 0.984 . S
N967 H973 0.985 . S
C968 C962 1.379 . S
C968 C965 1.363 . S
C968 N966 1.356 . S
C969 C963 1.363 . S
C969 C964 1.379 . S
C969 N967 1.356 . S
N970 C962 1.356 . S
N970 H976 0.984 . S
N970 H977 0.984 . S
N971 C964 1.356 . S
N971 H974 0.984 . S
N971 H975 0.985 . S
H972 N967 0.984 . S
H973 N967 0.985 . S
H974 N971 0.984 . S
H975 N971 0.985 . S
H976 N970 0.984 . S
H977 N970 0.984 . S
H978 N966 0.984 . S
H979 N966 0.985 . S
C980 C981 1.363 . S
C980 C986 1.379 . S
C980 N988 1.356 . S
C981 C980 1.363 . S
C981 C987 1.363 . S
C982 C983 1.363 . S
C982 C987 1.379 . S
C982 N989 1.356 . S
C983 C982 1.363 . S
C983 C986 1.363 . S
N984 C986 1.356 . S
N984 H996 0.984 . S
N984 H997 0.985 . S
N985 C987 1.356 . S
N985 H990 0.984 . S
N985 H991 0.985 . S
C986 C980 1.379 . S
C986 C983 1.363 . S
C986 N984 1.356 . S
C987 C981 1.363 . S
C987 C982 1.379 . S
C987 N985 1.356 . S
N988 C980 1.356 . S
N988 H994 0.984 . S
N988 H995 0.984 . S
N989 C982 1.356 . S
N989 H992 0.984 . S
N989 H993 0.985 . S
H990 N985 0.984 . S
H991 N985 0.985 . S
H992 N989 0.984 . S
H993 N989 0.985 . S
H994 N988 0.984 . S
H995 N988 0.984 . S
H996 N984 0.984 . S
H997 N984 0.985 . S
C998 C999 1.363 . S
C998 C1004 1.379 . S
C998 N1006 1.356 1_556 S
C999 C998 1.363 . S
C999 C1005 1.363 . S
C1000 C1001 1.363 . S
C1000 C1005 1.379 . S
C1000 N1007 1.356 . S
C1001 C1000 1.363 . S
C1001 C1004 1.363 . S
N1002 C1004 1.356 . S
N1002 H1014 0.984 1_556 S
N1002 H1015 0.985 . S
N1003 C1005 1.356 . S
N1003 H1008 0.984 . S
N1003 H1009 0.985 . S
C1004 C998 1.379 . S
C1004 C1001 1.363 . S
C1004 N1002 1.356 . S
C1005 C999 1.363 . S
C1005 C1000 1.379 . S
C1005 N1003 1.356 . S
N1006 C998 1.356 1_554 S
N1006 H1012 0.984 . S
N1006 H1013 0.984 . S
N1007 C1000 1.356 . S
N1007 H1010 0.984 . S
N1007 H1011 0.985 . S
H1008 N1003 0.984 . S
H1009 N1003 0.985 . S
H1010 N1007 0.984 . S
H1011 N1007 0.985 . S
H1012 N1006 0.984 . S
H1013 N1006 0.984 . S
H1014 N1002 0.984 1_554 S
H1015 N1002 0.985 . S
C1016 C1017 1.363 . S
C1016 C1022 1.379 . S
C1016 N1024 1.356 . S
C1017 C1016 1.363 . S
C1017 C1023 1.363 . S
C1018 C1019 1.363 . S
C1018 C1023 1.379 . S
C1018 N1025 1.356 . S
C1019 C1018 1.363 . S
C1019 C1022 1.363 . S
N1020 C1022 1.356 . S
N1020 H1032 0.984 . S
N1020 H1033 0.985 . S
N1021 C1023 1.356 . S
N1021 H1026 0.984 . S
N1021 H1027 0.985 . S
C1022 C1016 1.379 . S
C1022 C1019 1.363 . S
C1022 N1020 1.356 . S
C1023 C1017 1.363 . S
C1023 C1018 1.379 . S
C1023 N1021 1.356 . S
N1024 C1016 1.356 . S
N1024 H1030 0.984 . S
N1024 H1031 0.984 . S
N1025 C1018 1.356 . S
N1025 H1028 0.984 . S
N1025 H1029 0.985 . S
H1026 N1021 0.984 . S
H1027 N1021 0.985 . S
H1028 N1025 0.984 . S
H1029 N1025 0.985 . S
H1030 N1024 0.984 . S
H1031 N1024 0.984 . S
H1032 N1020 0.984 . S
H1033 N1020 0.985 . S
C1034 C1035 1.363 . S
C1034 C1040 1.379 . S
C1034 N1042 1.356 . S
C1035 C1034 1.363 . S
C1035 C1041 1.363 . S
C1036 C1037 1.363 . S
C1036 C1041 1.379 . S
C1036 N1043 1.356 . S
C1037 C1036 1.363 . S
C1037 C1040 1.363 . S
N1038 C1040 1.356 . S
N1038 H1050 0.984 . S
N1038 H1051 0.985 . S
N1039 C1041 1.356 . S
N1039 H1044 0.984 . S
N1039 H1045 0.985 . S
C1040 C1034 1.379 . S
C1040 C1037 1.363 . S
C1040 N1038 1.356 . S
C1041 C1035 1.363 . S
C1041 C1036 1.379 . S
C1041 N1039 1.356 . S
N1042 C1034 1.356 . S
N1042 H1048 0.984 . S
N1042 H1049 0.984 . S
N1043 C1036 1.356 . S
N1043 H1046 0.984 . S
N1043 H1047 0.985 . S
H1044 N1039 0.984 . S
H1045 N1039 0.985 . S
H1046 N1043 0.984 . S
H1047 N1043 0.985 . S
H1048 N1042 0.984 . S
H1049 N1042 0.984 . S
H1050 N1038 0.984 . S
H1051 N1038 0.985 . S
C1052 C1053 1.363 . S
C1052 C1058 1.379 . S
C1052 N1060 1.356 . S
C1053 C1052 1.363 . S
C1053 C1059 1.363 . S
C1054 C1055 1.363 . S
C1054 C1059 1.379 . S
C1054 N1061 1.356 . S
C1055 C1054 1.363 . S
C1055 C1058 1.363 . S
N1056 C1058 1.356 . S
N1056 H1068 0.984 . S
N1056 H1069 0.985 . S
N1057 C1059 1.356 . S
N1057 H1062 0.984 . S
N1057 H1063 0.985 . S
C1058 C1052 1.379 . S
C1058 C1055 1.363 . S
C1058 N1056 1.356 . S
C1059 C1053 1.363 . S
C1059 C1054 1.379 . S
C1059 N1057 1.356 . S
N1060 C1052 1.356 . S
N1060 H1066 0.984 . S
N1060 H1067 0.984 . S
N1061 C1054 1.356 . S
N1061 H1064 0.984 . S
N1061 H1065 0.985 . S
H1062 N1057 0.984 . S
H1063 N1057 0.985 . S
H1064 N1061 0.984 . S
H1065 N1061 0.985 . S
H1066 N1060 0.984 . S
H1067 N1060 0.984 . S
H1068 N1056 0.984 . S
H1069 N1056 0.985 . S
C1070 C1071 1.363 . S
C1070 C1076 1.379 . S
C1070 N1078 1.356 . S
C1071 C1070 1.363 . S
C1071 C1077 1.363 . S
C1072 C1073 1.363 . S
C1072 C1077 1.379 . S
C1072 N1079 1.356 . S
C1073 C1072 1.363 . S
C1073 C1076 1.363 . S
N1074 C1076 1.356 . S
N1074 H1086 0.984 . S
N1074 H1087 0.985 . S
N1075 C1077 1.356 . S
N1075 H1080 0.984 . S
N1075 H1081 0.985 . S
C1076 C1070 1.379 . S
C1076 C1073 1.363 . S
C1076 N1074 1.356 . S
C1077 C1071 1.363 . S
C1077 C1072 1.379 . S
C1077 N1075 1.356 . S
N1078 C1070 1.356 . S
N1078 H1084 0.984 . S
N1078 H1085 0.984 . S
N1079 C1072 1.356 . S
N1079 H1082 0.984 . S
N1079 H1083 0.985 . S
H1080 N1075 0.984 . S
H1081 N1075 0.985 . S
H1082 N1079 0.984 . S
H1083 N1079 0.985 . S
H1084 N1078 0.984 . S
H1085 N1078 0.984 . S
H1086 N1074 0.984 . S
H1087 N1074 0.985 . S
C1088 C1089 1.363 . S
C1088 C1094 1.379 . S
C1088 N1096 1.356 . S
C1089 C1088 1.363 . S
C1089 C1095 1.363 . S
C1090 C1091 1.363 . S
C1090 C1095 1.379 . S
C1090 N1097 1.356 . S
C1091 C1090 1.363 . S
C1091 C1094 1.363 . S
N1092 C1094 1.356 . S
N1092 H1104 0.984 . S
N1092 H1105 0.985 . S
N1093 C1095 1.356 . S
N1093 H1098 0.984 . S
N1093 H1099 0.985 . S
C1094 C1088 1.379 . S
C1094 C1091 1.363 . S
C1094 N1092 1.356 . S
C1095 C1089 1.363 . S
C1095 C1090 1.379 . S
C1095 N1093 1.356 . S
N1096 C1088 1.356 . S
N1096 H1102 0.984 . S
N1096 H1103 0.984 . S
N1097 C1090 1.356 . S
N1097 H1100 0.984 . S
N1097 H1101 0.985 . S
H1098 N1093 0.984 . S
H1099 N1093 0.985 . S
H1100 N1097 0.984 . S
H1101 N1097 0.985 . S
H1102 N1096 0.984 . S
H1103 N1096 0.984 . S
H1104 N1092 0.984 . S
H1105 N1092 0.985 . S
C1106 C1107 1.363 . S
C1106 C1112 1.379 . S
C1106 N1114 1.356 . S
C1107 C1106 1.363 . S
C1107 C1113 1.363 . S
C1108 C1109 1.363 . S
C1108 C1113 1.379 . S
C1108 N1115 1.356 . S
C1109 C1108 1.363 . S
C1109 C1112 1.363 . S
N1110 C1112 1.356 . S
N1110 H1122 0.984 . S
N1110 H1123 0.985 . S
N1111 C1113 1.356 . S
N1111 H1116 0.984 . S
N1111 H1117 0.985 . S
C1112 C1106 1.379 . S
C1112 C1109 1.363 . S
C1112 N1110 1.356 . S
C1113 C1107 1.363 . S
C1113 C1108 1.379 . S
C1113 N1111 1.356 . S
N1114 C1106 1.356 . S
N1114 H1120 0.984 . S
N1114 H1121 0.984 . S
N1115 C1108 1.356 . S
N1115 H1118 0.984 . S
N1115 H1119 0.985 . S
H1116 N1111 0.984 . S
H1117 N1111 0.985 . S
H1118 N1115 0.984 . S
H1119 N1115 0.985 . S
H1120 N1114 0.984 . S
H1121 N1114 0.984 . S
H1122 N1110 0.984 . S
H1123 N1110 0.985 . S
C1124 C1125 1.363 . S
C1124 C1130 1.379 . S
C1124 N1132 1.356 . S
C1125 C1124 1.363 . S
C1125 C1131 1.363 . S
C1126 C1127 1.363 . S
C1126 C1131 1.379 . S
C1126 N1133 1.356 . S
C1127 C1126 1.363 . S
C1127 C1130 1.363 . S
N1128 C1130 1.356 . S
N1128 H1140 0.984 . S
N1128 H1141 0.985 . S
N1129 C1131 1.356 . S
N1129 H1134 0.984 . S
N1129 H1135 0.985 . S
C1130 C1124 1.379 . S
C1130 C1127 1.363 . S
C1130 N1128 1.356 . S
C1131 C1125 1.363 . S
C1131 C1126 1.379 . S
C1131 N1129 1.356 . S
N1132 C1124 1.356 . S
N1132 H1138 0.984 . S
N1132 H1139 0.984 . S
N1133 C1126 1.356 . S
N1133 H1136 0.984 . S
N1133 H1137 0.985 . S
H1134 N1129 0.984 . S
H1135 N1129 0.985 . S
H1136 N1133 0.984 . S
H1137 N1133 0.985 . S
H1138 N1132 0.984 . S
H1139 N1132 0.984 . S
H1140 N1128 0.984 . S
H1141 N1128 0.985 . S
C1142 C1143 1.363 . S
C1142 C1148 1.379 . S
C1142 N1150 1.356 . S
C1143 C1142 1.363 . S
C1143 C1149 1.363 . S
C1144 C1145 1.363 . S
C1144 C1149 1.379 . S
C1144 N1151 1.356 . S
C1145 C1144 1.363 . S
C1145 C1148 1.363 . S
N1146 C1148 1.356 . S
N1146 H1158 0.984 . S
N1146 H1159 0.985 . S
N1147 C1149 1.356 . S
N1147 H1152 0.984 . S
N1147 H1153 0.985 . S
C1148 C1142 1.379 . S
C1148 C1145 1.363 . S
C1148 N1146 1.356 . S
C1149 C1143 1.363 . S
C1149 C1144 1.379 . S
C1149 N1147 1.356 . S
N1150 C1142 1.356 . S
N1150 H1156 0.984 . S
N1150 H1157 0.984 . S
N1151 C1144 1.356 . S
N1151 H1154 0.984 . S
N1151 H1155 0.985 . S
H1152 N1147 0.984 . S
H1153 N1147 0.985 . S
H1154 N1151 0.984 . S
H1155 N1151 0.985 . S
H1156 N1150 0.984 . S
H1157 N1150 0.984 . S
H1158 N1146 0.984 . S
H1159 N1146 0.985 . S
C1160 C1161 1.363 . S
C1160 C1166 1.379 . S
C1160 N1168 1.356 . S
C1161 C1160 1.363 . S
C1161 C1167 1.363 . S
C1162 C1163 1.363 . S
C1162 C1167 1.379 . S
C1162 N1169 1.356 . S
C1163 C1162 1.363 . S
C1163 C1166 1.363 . S
N1164 C1166 1.356 . S
N1164 H1176 0.984 . S
N1164 H1177 0.985 . S
N1165 C1167 1.356 . S
N1165 H1170 0.984 . S
N1165 H1171 0.985 . S
C1166 C1160 1.379 . S
C1166 C1163 1.363 . S
C1166 N1164 1.356 . S
C1167 C1161 1.363 . S
C1167 C1162 1.379 . S
C1167 N1165 1.356 . S
N1168 C1160 1.356 . S
N1168 H1174 0.984 . S
N1168 H1175 0.984 . S
N1169 C1162 1.356 . S
N1169 H1172 0.984 . S
N1169 H1173 0.985 . S
H1170 N1165 0.984 . S
H1171 N1165 0.985 . S
H1172 N1169 0.984 . S
H1173 N1169 0.985 . S
H1174 N1168 0.984 . S
H1175 N1168 0.984 . S
H1176 N1164 0.984 . S
H1177 N1164 0.985 . S
C1178 C1179 1.363 . S
C1178 C1184 1.379 . S
C1178 N1186 1.356 . S
C1179 C1178 1.363 . S
C1179 C1185 1.363 . S
C1180 C1181 1.363 . S
C1180 C1185 1.379 . S
C1180 N1187 1.356 . S
C1181 C1180 1.363 . S
C1181 C1184 1.363 . S
N1182 C1184 1.356 . S
N1182 H1194 0.984 . S
N1182 H1195 0.985 . S
N1183 C1185 1.356 . S
N1183 H1188 0.984 . S
N1183 H1189 0.985 . S
C1184 C1178 1.379 . S
C1184 C1181 1.363 . S
C1184 N1182 1.356 . S
C1185 C1179 1.363 . S
C1185 C1180 1.379 . S
C1185 N1183 1.356 . S
N1186 C1178 1.356 . S
N1186 H1192 0.984 . S
N1186 H1193 0.984 . S
N1187 C1180 1.356 . S
N1187 H1190 0.984 . S
N1187 H1191 0.985 . S
H1188 N1183 0.984 . S
H1189 N1183 0.985 . S
H1190 N1187 0.984 . S
H1191 N1187 0.985 . S
H1192 N1186 0.984 . S
H1193 N1186 0.984 . S
H1194 N1182 0.984 . S
H1195 N1182 0.985 . S
C1196 C1197 1.363 . S
C1196 C1202 1.379 . S
C1196 N1204 1.356 . S
C1197 C1196 1.363 . S
C1197 C1203 1.363 . S
C1198 C1199 1.363 . S
C1198 C1203 1.379 . S
C1198 N1205 1.356 . S
C1199 C1198 1.363 . S
C1199 C1202 1.363 . S
N1200 C1202 1.356 . S
N1200 H1212 0.984 . S
N1200 H1213 0.985 . S
N1201 C1203 1.356 . S
N1201 H1206 0.984 . S
N1201 H1207 0.985 . S
C1202 C1196 1.379 . S
C1202 C1199 1.363 . S
C1202 N1200 1.356 . S
C1203 C1197 1.363 . S
C1203 C1198 1.379 . S
C1203 N1201 1.356 . S
N1204 C1196 1.356 . S
N1204 H1210 0.984 . S
N1204 H1211 0.984 . S
N1205 C1198 1.356 . S
N1205 H1208 0.984 . S
N1205 H1209 0.985 . S
H1206 N1201 0.984 . S
H1207 N1201 0.985 . S
H1208 N1205 0.984 . S
H1209 N1205 0.985 . S
H1210 N1204 0.984 . S
H1211 N1204 0.984 . S
H1212 N1200 0.984 . S
H1213 N1200 0.985 . S
C1214 C1215 1.363 . S
C1214 C1220 1.379 . S
C1214 N1222 1.356 . S
C1215 C1214 1.363 . S
C1215 C1221 1.363 . S
C1216 C1217 1.363 . S
C1216 C1221 1.379 . S
C1216 N1223 1.356 . S
C1217 C1216 1.363 . S
C1217 C1220 1.363 . S
N1218 C1220 1.356 . S
N1218 H1230 0.984 . S
N1218 H1231 0.985 . S
N1219 C1221 1.356 . S
N1219 H1224 0.984 . S
N1219 H1225 0.985 . S
C1220 C1214 1.379 . S
C1220 C1217 1.363 . S
C1220 N1218 1.356 . S
C1221 C1215 1.363 . S
C1221 C1216 1.379 . S
C1221 N1219 1.356 . S
N1222 C1214 1.356 . S
N1222 H1228 0.984 . S
N1222 H1229 0.984 . S
N1223 C1216 1.356 . S
N1223 H1226 0.984 . S
N1223 H1227 0.985 . S
H1224 N1219 0.984 . S
H1225 N1219 0.985 . S
H1226 N1223 0.984 . S
H1227 N1223 0.985 . S
H1228 N1222 0.984 . S
H1229 N1222 0.984 . S
H1230 N1218 0.984 . S
H1231 N1218 0.985 . S
C1232 C1233 1.363 . S
C1232 C1238 1.379 . S
C1232 N1240 1.356 . S
C1233 C1232 1.363 . S
C1233 C1239 1.363 . S
C1234 C1235 1.363 . S
C1234 C1239 1.379 . S
C1234 N1241 1.356 . S
C1235 C1234 1.363 . S
C1235 C1238 1.363 . S
N1236 C1238 1.356 . S
N1236 H1248 0.984 . S
N1236 H1249 0.985 . S
N1237 C1239 1.356 . S
N1237 H1242 0.984 . S
N1237 H1243 0.985 . S
C1238 C1232 1.379 . S
C1238 C1235 1.363 . S
C1238 N1236 1.356 . S
C1239 C1233 1.363 . S
C1239 C1234 1.379 . S
C1239 N1237 1.356 . S
N1240 C1232 1.356 . S
N1240 H1246 0.984 . S
N1240 H1247 0.984 . S
N1241 C1234 1.356 . S
N1241 H1244 0.984 1_565 S
N1241 H1245 0.985 . S
H1242 N1237 0.984 . S
H1243 N1237 0.985 . S
H1244 N1241 0.984 1_545 S
H1245 N1241 0.985 . S
H1246 N1240 0.984 . S
H1247 N1240 0.984 . S
H1248 N1236 0.984 . S
H1249 N1236 0.985 . S
C1250 C1251 1.363 . S
C1250 C1256 1.379 . S
C1250 N1258 1.356 . S
C1251 C1250 1.363 . S
C1251 C1257 1.363 . S
C1252 C1253 1.363 . S
C1252 C1257 1.379 . S
C1252 N1259 1.356 . S
C1253 C1252 1.363 . S
C1253 C1256 1.363 . S
N1254 C1256 1.356 . S
N1254 H1266 0.984 . S
N1254 H1267 0.985 . S
N1255 C1257 1.356 . S
N1255 H1260 0.984 . S
N1255 H1261 0.985 . S
C1256 C1250 1.379 . S
C1256 C1253 1.363 . S
C1256 N1254 1.356 . S
C1257 C1251 1.363 . S
C1257 C1252 1.379 . S
C1257 N1255 1.356 . S
N1258 C1250 1.356 . S
N1258 H1264 0.984 . S
N1258 H1265 0.984 . S
N1259 C1252 1.356 . S
N1259 H1262 0.984 . S
N1259 H1263 0.985 . S
H1260 N1255 0.984 . S
H1261 N1255 0.985 . S
H1262 N1259 0.984 . S
H1263 N1259 0.985 . S
H1264 N1258 0.984 . S
H1265 N1258 0.984 . S
H1266 N1254 0.984 . S
H1267 N1254 0.985 . S
C1268 C1269 1.363 . S
C1268 C1274 1.379 . S
C1268 N1276 1.356 . S
C1269 C1268 1.363 . S
C1269 C1275 1.363 . S
C1270 C1271 1.363 . S
C1270 C1275 1.379 . S
C1270 N1277 1.356 . S
C1271 C1270 1.363 . S
C1271 C1274 1.363 . S
N1272 C1274 1.356 . S
N1272 H1284 0.984 . S
N1272 H1285 0.985 . S
N1273 C1275 1.356 . S
N1273 H1278 0.984 . S
N1273 H1279 0.985 . S
C1274 C1268 1.379 . S
C1274 C1271 1.363 . S
C1274 N1272 1.356 . S
C1275 C1269 1.363 . S
C1275 C1270 1.379 . S
C1275 N1273 1.356 . S
N1276 C1268 1.356 . S
N1276 H1282 0.984 . S
N1276 H1283 0.984 . S
N1277 C1270 1.356 . S
N1277 H1280 0.984 . S
N1277 H1281 0.985 . S
H1278 N1273 0.984 . S
H1279 N1273 0.985 . S
H1280 N1277 0.984 . S
H1281 N1277 0.985 . S
H1282 N1276 0.984 . S
H1283 N1276 0.984 . S
H1284 N1272 0.984 . S
H1285 N1272 0.985 . S
C1286 C1287 1.363 . S
C1286 C1292 1.379 . S
C1286 N1294 1.356 . S
C1287 C1286 1.363 . S
C1287 C1293 1.363 . S
C1288 C1289 1.363 . S
C1288 C1293 1.379 . S
C1288 N1295 1.356 . S
C1289 C1288 1.363 . S
C1289 C1292 1.363 . S
N1290 C1292 1.356 . S
N1290 H1302 0.984 . S
N1290 H1303 0.985 . S
N1291 C1293 1.356 . S
N1291 H1296 0.984 . S
N1291 H1297 0.985 . S
C1292 C1286 1.379 . S
C1292 C1289 1.363 . S
C1292 N1290 1.356 . S
C1293 C1287 1.363 . S
C1293 C1288 1.379 . S
C1293 N1291 1.356 . S
N1294 C1286 1.356 . S
N1294 H1300 0.984 . S
N1294 H1301 0.984 . S
N1295 C1288 1.356 . S
N1295 H1298 0.984 . S
N1295 H1299 0.985 . S
H1296 N1291 0.984 . S
H1297 N1291 0.985 . S
H1298 N1295 0.984 . S
H1299 N1295 0.985 . S
H1300 N1294 0.984 . S
H1301 N1294 0.984 . S
H1302 N1290 0.984 . S
H1303 N1290 0.985 . S
C1304 C1305 1.363 . S
C1304 C1310 1.379 . S
C1304 N1312 1.356 . S
C1305 C1304 1.363 . S
C1305 C1311 1.363 . S
C1306 C1307 1.363 . S
C1306 C1311 1.379 . S
C1306 N1313 1.356 . S
C1307 C1306 1.363 . S
C1307 C1310 1.363 . S
N1308 C1310 1.356 . S
N1308 H1320 0.984 . S
N1308 H1321 0.985 . S
N1309 C1311 1.356 . S
N1309 H1314 0.984 . S
N1309 H1315 0.985 . S
C1310 C1304 1.379 . S
C1310 C1307 1.363 . S
C1310 N1308 1.356 . S
C1311 C1305 1.363 . S
C1311 C1306 1.379 . S
C1311 N1309 1.356 . S
N1312 C1304 1.356 . S
N1312 H1318 0.984 . S
N1312 H1319 0.984 . S
N1313 C1306 1.356 . S
N1313 H1316 0.984 . S
N1313 H1317 0.985 . S
H1314 N1309 0.984 . S
H1315 N1309 0.985 . S
H1316 N1313 0.984 . S
H1317 N1313 0.985 . S
H1318 N1312 0.984 . S
H1319 N1312 0.984 . S
H1320 N1308 0.984 . S
H1321 N1308 0.985 . S
C1322 C1323 1.363 . S
C1322 C1328 1.379 . S
C1322 N1330 1.356 . S
C1323 C1322 1.363 . S
C1323 C1329 1.363 . S
C1324 C1325 1.363 . S
C1324 C1329 1.379 . S
C1324 N1331 1.356 . S
C1325 C1324 1.363 . S
C1325 C1328 1.363 . S
N1326 C1328 1.356 . S
N1326 H1338 0.984 . S
N1326 H1339 0.985 . S
N1327 C1329 1.356 . S
N1327 H1332 0.984 . S
N1327 H1333 0.985 . S
C1328 C1322 1.379 . S
C1328 C1325 1.363 . S
C1328 N1326 1.356 . S
C1329 C1323 1.363 . S
C1329 C1324 1.379 . S
C1329 N1327 1.356 . S
N1330 C1322 1.356 . S
N1330 H1336 0.984 . S
N1330 H1337 0.984 . S
N1331 C1324 1.356 . S
N1331 H1334 0.984 . S
N1331 H1335 0.985 . S
H1332 N1327 0.984 . S
H1333 N1327 0.985 . S
H1334 N1331 0.984 . S
H1335 N1331 0.985 . S
H1336 N1330 0.984 . S
H1337 N1330 0.984 . S
H1338 N1326 0.984 . S
H1339 N1326 0.985 . S
C1340 C1341 1.363 . S
C1340 C1346 1.379 . S
C1340 N1348 1.356 . S
C1341 C1340 1.363 . S
C1341 C1347 1.363 . S
C1342 C1343 1.363 . S
C1342 C1347 1.379 . S
C1342 N1349 1.356 . S
C1343 C1342 1.363 . S
C1343 C1346 1.363 . S
N1344 C1346 1.356 . S
N1344 H1356 0.984 . S
N1344 H1357 0.985 . S
N1345 C1347 1.356 . S
N1345 H1350 0.984 . S
N1345 H1351 0.985 . S
C1346 C1340 1.379 . S
C1346 C1343 1.363 . S
C1346 N1344 1.356 . S
C1347 C1341 1.363 . S
C1347 C1342 1.379 . S
C1347 N1345 1.356 . S
N1348 C1340 1.356 . S
N1348 H1354 0.984 . S
N1348 H1355 0.984 . S
N1349 C1342 1.356 . S
N1349 H1352 0.984 . S
N1349 H1353 0.985 . S
H1350 N1345 0.984 . S
H1351 N1345 0.985 . S
H1352 N1349 0.984 . S
H1353 N1349 0.985 . S
H1354 N1348 0.984 . S
H1355 N1348 0.984 . S
H1356 N1344 0.984 . S
H1357 N1344 0.985 . S
C1358 C1359 1.363 . S
C1358 C1364 1.379 . S
C1358 N1366 1.356 . S
C1359 C1358 1.363 . S
C1359 C1365 1.363 . S
C1360 C1361 1.363 . S
C1360 C1365 1.379 . S
C1360 N1367 1.356 . S
C1361 C1360 1.363 . S
C1361 C1364 1.363 . S
N1362 C1364 1.356 . S
N1362 H1374 0.984 . S
N1362 H1375 0.985 . S
N1363 C1365 1.356 . S
N1363 H1368 0.984 . S
N1363 H1369 0.985 . S
C1364 C1358 1.379 . S
C1364 C1361 1.363 . S
C1364 N1362 1.356 . S
C1365 C1359 1.363 . S
C1365 C1360 1.379 . S
C1365 N1363 1.356 . S
N1366 C1358 1.356 . S
N1366 H1372 0.984 . S
N1366 H1373 0.984 . S
N1367 C1360 1.356 . S
N1367 H1370 0.984 . S
N1367 H1371 0.985 . S
H1368 N1363 0.984 . S
H1369 N1363 0.985 . S
H1370 N1367 0.984 . S
H1371 N1367 0.985 . S
H1372 N1366 0.984 . S
H1373 N1366 0.984 . S
H1374 N1362 0.984 . S
H1375 N1362 0.985 . S
C515 C337 1.957 . S
C513 C3 1.938 . S
C533 C342 0.843 . S
C531 C49 0.854 . S
C551 C343 1.565 . S
C549 C95 1.551 . S
C567 C146 0.700 . S
C569 C347 0.664 . S
C585 C186 1.001 . S
C587 C350 1.010 . S
C605 C351 1.555 . S
C603 C215 1.550 . S
C621 C249 0.731 . S
C623 C328 0.738 . S
C639 C302 1.935 . S
C641 C344 1.966 . S
C659 C382 3.131 . S
C657 C2 3.305 . S
C675 C43 2.176 . S
C677 C408 2.174 . S
C695 C360 3.110 . S
C693 C102 3.165 . S
C713 C415 1.849 . S
C711 C135 1.865 . S
C729 C175 1.846 . S
C731 C369 1.835 . S
C749 C411 2.149 . S
C747 C222 2.220 . S
C765 C243 2.207 . S
C767 C375 2.189 . S
C783 C306 1.451 . S
C785 C406 1.291 . S
C801 C9 0.907 . S
C803 C414 0.870 . S
C819 C182 1.694 . S
C821 C401 1.634 . S
C839 C379 1.466 . S
C837 C226 1.471 . S
C857 C407 1.193 . S
C855 C242 1.180 . S
C873 C295 2.822 . S
C875 C374 2.739 . S
C891 C106 0.837 . S
C893 C392 0.842 . S
C911 C383 1.647 . S
C909 C142 1.674 . S
C927 C42 1.216 . S
C929 C376 1.215 . S
C945 C283 1.908 . S
C947 C438 1.843 . S
C963 C169 0.978 . S
C965 C433 0.939 . S
C983 C447 1.420 . S
C981 C202 1.524 . S
C1001 C424 0.584 . S
C999 C266 0.736 . S
C1017 C66 0.835 . S
C1019 C440 0.830 . S
C1037 C439 1.417 . S
C1035 C82 1.520 . S
C1053 C129 0.703 . S
C1055 C443 0.569 . S
C1071 C22 1.909 . S
C1073 C446 1.836 . S
C1089 C282 2.838 . S
C1091 C472 2.802 . S
C1109 C488 1.580 . S
C1107 C163 1.694 . S
C1125 C209 1.478 . S
C1127 C470 1.484 . S
C1143 C255 1.188 . S
C1145 C503 1.206 . S
C1163 C479 1.155 . S
C1161 C55 1.191 . S
C1179 C89 0.845 . S
C1181 C497 0.820 . S
C1199 C475 1.588 . S
C1197 C123 1.650 . S
C1217 C510 0.945 . S
C1215 C26 0.925 . S
C1235 C502 1.535 . S
C1233 C289 1.470 . S
C1251 C62 2.172 . S
C1253 C507 2.077 . S
C1269 C83 3.180 . S
C1271 C478 3.138 . S
C1289 C511 1.729 . S
C1287 C122 1.865 . S
C1305 C15 3.320 . S
C1307 C465 3.275 . S
C1323 C203 2.250 . S
C1325 C504 2.189 . S
C1343 C456 2.021 . S
C1341 C262 2.179 . S
C1361 C471 1.794 . S
C1359 C162 1.834 . S
