# Generated by pormake.
# Topology zzz, (3,6)-cn, num edge types: 1
# Building blocks:
#     Node 0, Type 0, BuildingBlock: WUSLED_clean_sbu_0, # of connection points: 3
#     Node 1, Type 0, BuildingBlock: WUSLED_clean_sbu_0, # of connection points: 3
#     Node 2, Type 0, BuildingBlock: WUSLED_clean_sbu_0, # of connection points: 3
#     Node 3, Type 0, BuildingBlock: WUSLED_clean_sbu_0, # of connection points: 3
#     Node 4, Type 0, BuildingBlock: WUSLED_clean_sbu_0, # of connection points: 3
#     Node 5, Type 0, BuildingBlock: WUSLED_clean_sbu_0, # of connection points: 3
#     Node 6, Type 0, BuildingBlock: WUSLED_clean_sbu_0, # of connection points: 3
#     Node 7, Type 0, BuildingBlock: WUSLED_clean_sbu_0, # of connection points: 3
#     Node 8, Type 1, BuildingBlock: VOLQOD_clean_sbu_1, # of connection points: 6
#     Node 9, Type 1, BuildingBlock: VOLQOD_clean_sbu_1, # of connection points: 6
#     Node 10, Type 1, BuildingBlock: VOLQOD_clean_sbu_1, # of connection points: 6
#     Node 11, Type 1, BuildingBlock: VOLQOD_clean_sbu_1, # of connection points: 6
#     Edge 12, Type (0, 1), None
#     Edge 13, Type (0, 1), None
#     Edge 14, Type (0, 1), None
#     Edge 15, Type (0, 1), None
#     Edge 16, Type (0, 1), None
#     Edge 17, Type (0, 1), None
#     Edge 18, Type (0, 1), None
#     Edge 19, Type (0, 1), None
#     Edge 20, Type (0, 1), None
#     Edge 21, Type (0, 1), None
#     Edge 22, Type (0, 1), None
#     Edge 23, Type (0, 1), None
#     Edge 24, Type (0, 1), None
#     Edge 25, Type (0, 1), None
#     Edge 26, Type (0, 1), None
#     Edge 27, Type (0, 1), None
#     Edge 28, Type (0, 1), None
#     Edge 29, Type (0, 1), None
#     Edge 30, Type (0, 1), None
#     Edge 31, Type (0, 1), None
#     Edge 32, Type (0, 1), None
#     Edge 33, Type (0, 1), None
#     Edge 34, Type (0, 1), None
#     Edge 35, Type (0, 1), None
# Relax obj value: 0.335
# Max RMSD: 0.254
# Mean RMSD: 0.201
data_MOF--net-zzz--node1-WUSLED_clean_sbu_0--node2-VOLQOD_clean_sbu_1--edge1-none
_symmetry_space_group_name_H-M    P1
_symmetry_Int_Tables_number       1
_symmetry_cell_setting            triclinic
loop_
_symmetry_equiv_pos_as_xyz
'x, y, z'
_cell_length_a     37.399214
_cell_length_b     36.799536
_cell_length_c     13.888562
_cell_angle_alpha  90.129389
_cell_angle_beta   89.894755
_cell_angle_gamma 92.412357
loop_
_atom_site_label
_atom_site_type_symbol
_atom_site_fract_x
_atom_site_fract_y
_atom_site_fract_z
_atom_type_partial_charge
C0 C 0.86848 0.51736 0.3546 0.0
C1 C 0.88208 0.48274 0.36738 0.0
C2 C 0.92888 0.50828 0.47291 0.0
C3 C 0.91186 0.47824 0.42621 0.0
C4 C 0.9164 0.54316 0.45563 0.0
C5 C 0.88633 0.54759 0.39742 0.0
U6 U 0.79538 0.49851 0.15926 0.0
O7 O 0.75933 0.53898 0.10255 0.0
O8 O 0.73723 0.49147 0.18153 0.0
C9 C 0.73044 0.51984 0.12804 0.0
C10 C 0.83373 0.52211 0.30688 0.0
C11 C 0.70326 0.51448 0.05186 0.0
C12 C 0.65985 0.54092 0.94589 0.0
C13 C 0.68661 0.54494 1.01548 0.0
C14 C 0.6664 0.47571 0.94595 0.0
C15 C 0.64889 0.5062 0.91153 0.0
C16 C 0.69346 0.47982 1.01528 0.0
C17 C 0.85786 0.43998 1.009 0.0
C18 C 0.89509 0.41672 0.8816 0.0
C19 C 0.92243 0.44686 0.02003 0.0
C20 C 0.8886 0.4512 0.06036 0.0
C21 C 0.92586 0.43173 0.92721 0.0
C22 C 0.86132 0.42097 0.92221 0.0
C23 C 0.82308 0.45458 0.03272 0.0
O24 O 0.83424 0.53861 0.22298 0.0
O25 O 0.81055 0.49426 0.31104 0.0
O26 O 0.82194 0.48992 0.02131 0.0
O27 O 0.80698 0.44282 0.11168 0.0
H28 H 0.86895 0.45897 0.33476 0.0
H29 H 0.92105 0.45101 0.4368 0.0
H30 H 0.92891 0.56684 0.49014 0.0
H31 H 0.8762 0.57454 0.38872 0.0
H32 H 0.647 0.56505 0.92137 0.0
H33 H 0.69392 0.57193 0.04217 0.0
H34 H 0.65864 0.4486 0.92116 0.0
H35 H 0.70622 0.45586 0.0413 0.0
H36 H 0.8967 0.40462 0.81064 0.0
H37 H 0.94556 0.45838 0.05784 0.0
H38 H 0.88635 0.46601 0.12749 0.0
H39 H 0.83776 0.41217 0.88167 0.0
C40 C 0.9663 0.82529 0.33009 0.0
C41 C 0.98781 0.8551 0.29877 0.0
C42 C 0.96799 0.89102 0.43523 0.0
C43 C 0.98838 0.88786 0.35039 0.0
C44 C 0.9457 0.86135 0.4644 0.0
C45 C 0.94477 0.82887 0.41197 0.0
U46 U -0.00258 0.75654 0.13765 0.0
O47 O 0.9657 0.70909 0.08495 0.0
O48 O 0.01543 0.70125 0.1651 0.0
C49 C 0.98908 0.68596 0.1148 0.0
C50 C 0.96811 0.78931 0.28463 0.0
C51 C -0.00114 0.65751 0.04598 0.0
C52 C 0.01488 0.59513 0.02066 0.0
C53 C 0.00818 0.62387 0.08261 0.0
C54 C 0.00385 0.63339 0.88303 0.0
C55 C 0.01229 0.59925 0.92009 0.0
C56 C -0.00281 0.66237 0.9456 0.0
C57 C 0.04054 0.83394 0.98772 0.0
C58 C 0.06761 0.87893 0.87892 0.0
C59 C 0.01558 0.89333 0.97372 0.0
C60 C 0.01572 0.85925 1.0171 0.0
C61 C 0.04037 0.90268 0.90092 0.0
C62 C 0.06757 0.84453 0.92201 0.0
C63 C 0.03406 0.79521 1.00988 0.0
O64 O 0.95201 0.78468 0.20114 0.0
O65 O -0.00053 0.77458 0.28829 0.0
O66 O 0.0007 0.78347 0.99772 0.0
O67 O 0.04859 0.78279 0.08874 0.0
H68 H 0.0051 0.85261 0.23677 0.0
H69 H 0.0061 0.91008 0.32645 0.0
H70 H 0.92967 0.86287 0.52921 0.0
H71 H 0.92814 0.80603 0.43745 0.0
H72 H 0.0215 0.56939 0.05226 0.0
H73 H 0.00958 0.61956 0.15968 0.0
H74 H 0.00174 0.63753 0.80611 0.0
H75 H 0.99013 0.68825 0.91566 0.0
H76 H 0.0866 0.88543 0.82188 0.0
H77 H 0.99415 0.91119 0.99104 0.0
H78 H -0.0056 0.85148 0.06676 0.0
H79 H 0.0868 0.82521 0.89812 0.0
C80 C 0.67341 0.96735 0.34908 0.0
C81 C 0.63912 0.96935 0.30889 0.0
C82 C 0.61236 0.96705 0.46951 0.0
C83 C 0.60884 0.96942 0.36869 0.0
C84 C 0.64677 0.96431 0.50877 0.0
C85 C 0.67688 0.96456 0.4492 0.0
U86 U 0.7383 -0.00578 0.1364 0.0
O87 O 0.77378 0.95555 0.06856 0.0
O88 O 0.79682 0.00344 0.14442 0.0
C89 C 0.80283 0.97536 0.08863 0.0
C90 C 0.70618 0.96675 0.29 0.0
C91 C 0.82802 0.981 1.0075 0.0
C92 C 0.86531 0.01984 0.90297 0.0
C93 C 0.83953 0.01585 0.97601 0.0
C94 C 0.86712 0.95432 0.88926 0.0
C95 C 0.87993 0.98907 0.86006 0.0
C96 C 0.84161 0.95039 0.96232 0.0
C97 C 0.66902 0.051 1.00477 0.0
C98 C 0.62894 0.07327 0.88311 0.0
C99 C 0.60551 0.03559 1.01332 0.0
C100 C 0.63968 0.03479 0.05356 0.0
C101 C 0.60045 0.05283 0.92454 0.0
C102 C 0.66318 0.07229 0.9231 0.0
C103 C 0.70506 0.038 0.02085 0.0
O104 O 0.7037 0.95164 0.20421 0.0
O105 O 0.72721 -0.00371 0.29204 0.0
O106 O 0.7076 0.00297 1.00555 0.0
O107 O 0.72262 0.04968 0.09763 0.0
H108 H 0.63572 0.97084 0.23169 0.0
H109 H 0.58275 0.97155 0.33598 0.0
H110 H 0.65064 0.96258 0.58587 0.0
H111 H 0.70307 0.96261 0.48161 0.0
H112 H 0.87459 0.04701 0.88243 0.0
H113 H 0.82927 0.03999 1.00906 0.0
H114 H 0.8777 0.92998 0.85813 0.0
H115 H 0.83305 0.92325 0.98514 0.0
H116 H 0.62578 0.08606 0.81362 0.0
H117 H 0.58399 0.01907 0.04544 0.0
H118 H 0.6438 0.01814 0.11632 0.0
H119 H 0.68562 0.08476 0.88414 0.0
C120 C 0.56065 0.6693 0.3934 0.0
C121 C 0.53985 0.63915 0.361 0.0
C122 C 0.55926 0.60357 0.4979 0.0
C123 C 0.53946 0.60639 0.41223 0.0
C124 C 0.58041 0.63379 0.52916 0.0
C125 C 0.58125 0.66626 0.47696 0.0
U126 U 0.53305 0.73478 0.19085 0.0
O127 O 0.56858 0.77793 0.1303 0.0
O128 O 0.51855 0.79208 0.20166 0.0
C129 C 0.54603 0.80345 0.1487 0.0
C130 C 0.56039 0.70459 0.344 0.0
C131 C 0.53885 0.82745 0.06654 0.0
C132 C 0.49856 0.85454 0.95213 0.0
C133 C 0.50433 0.83055 0.02825 0.0
C134 C 0.56188 0.87129 0.94897 0.0
C135 C 0.52723 0.87563 0.91258 0.0
C136 C 0.56754 0.84763 0.02527 0.0
C137 C 0.48665 0.65587 0.05063 0.0
C138 C 0.45859 0.61153 0.94163 0.0
C139 C 0.50911 0.59529 0.03923 0.0
C140 C 0.51004 0.62958 0.08196 0.0
C141 C 0.48482 0.58688 0.96472 0.0
C142 C 0.45959 0.64606 0.98442 0.0
C143 C 0.49542 0.69455 0.0684 0.0
O144 O 0.57691 0.70665 0.26047 0.0
O145 O 0.52972 0.72082 0.34457 0.0
O146 O 0.52943 0.70388 0.0567 0.0
O147 O 0.48104 0.70972 0.14418 0.0
H148 H 0.52324 0.64125 0.2978 0.0
H149 H 0.52246 0.5838 0.38695 0.0
H150 H 0.59587 0.63255 0.59487 0.0
H151 H 0.59742 0.68933 0.50315 0.0
H152 H 0.47153 0.85723 0.92605 0.0
H153 H 0.48175 0.81492 0.05793 0.0
H154 H 0.58463 0.88709 0.92077 0.0
H155 H 0.59442 0.84548 0.05314 0.0
H156 H 0.44003 0.60574 0.88323 0.0
H157 H 0.52982 0.57673 0.05722 0.0
H158 H 0.53151 0.63676 0.1315 0.0
H159 H 0.44149 0.66614 0.95895 0.0
C160 C 0.19182 0.4526 0.08245 0.0
C161 C 0.15771 0.45822 0.12056 0.0
C162 C 0.13213 0.45533 0.95875 0.0
C163 C 0.12807 0.4597 0.05907 0.0
C164 C 0.16624 0.44856 0.92191 0.0
C165 C 0.19568 0.44729 0.98309 0.0
U166 U 0.25794 0.48277 0.28955 0.0
O167 O 0.31604 0.49144 0.26915 0.0
O168 O 0.2951 0.44687 0.36113 0.0
C169 C 0.32355 0.46538 0.32953 0.0
C170 C 0.22431 0.45233 0.14213 0.0
C171 C 0.35236 0.47398 0.39946 0.0
C172 C 0.41528 0.48906 0.42552 0.0
C173 C 0.38631 0.48393 0.36351 0.0
C174 C 0.37683 0.47527 0.56229 0.0
C175 C 0.41115 0.48419 0.52555 0.0
C176 C 0.3476 0.47013 0.49963 0.0
C177 C 0.19098 0.54388 0.41636 0.0
C178 C 0.15149 0.56644 0.53958 0.0
C179 C 0.12724 0.52946 0.40884 0.0
C180 C 0.16134 0.52817 0.36786 0.0
C181 C 0.12262 0.54654 0.4983 0.0
C182 C 0.18559 0.56512 0.49866 0.0
C183 C 0.22679 0.53031 0.39957 0.0
O184 O 0.24594 0.48125 0.13492 0.0
O185 O 0.22162 0.43948 0.23035 0.0
O186 O 0.24331 0.53944 0.31895 0.0
O187 O 0.22938 0.49583 0.4216 0.0
H188 H 0.15403 0.46182 0.19722 0.0
H189 H 0.10216 0.46488 0.08996 0.0
H190 H 0.17047 0.44503 0.84534 0.0
H191 H 0.22176 0.44263 0.95237 0.0
H192 H 0.44118 0.49623 0.39425 0.0
H193 H 0.39067 0.48694 0.2867 0.0
H194 H 0.37272 0.4714 0.63886 0.0
H195 H 0.32158 0.46246 0.52933 0.0
H196 H 0.14866 0.57908 0.60959 0.0
H197 H 0.10545 0.51328 0.37689 0.0
H198 H 0.16512 0.51154 0.30464 0.0
H199 H 0.20825 0.57718 0.53745 0.0
C200 C 0.0577 0.16023 0.02841 0.0
C201 C 0.08457 0.14009 0.98551 0.0
C202 C 0.03952 0.09977 0.90986 0.0
C203 C 0.07559 0.10993 0.92722 0.0
C204 C 0.01274 0.1191 0.95644 0.0
C205 C 0.02173 0.14886 1.01557 0.0
U206 U 0.04539 0.23326 0.22432 0.0
O207 O 0.04596 0.29269 0.20757 0.0
O208 O 0.08739 0.26765 0.29403 0.0
C209 C 0.0723 0.29784 0.26948 0.0
C210 C 0.06742 0.19482 0.07775 0.0
C211 C 0.06549 0.32268 0.35005 0.0
C212 C 0.08734 0.36951 0.46097 0.0
C213 C 0.09327 0.34586 0.38428 0.0
C214 C 0.02576 0.3466 0.47156 0.0
C215 C 0.05335 0.37059 0.50464 0.0
C216 C 0.03185 0.32268 0.39531 0.0
C217 C 0.9769 0.17037 0.35752 0.0
C218 C 0.94759 0.13348 0.48119 0.0
C219 C 0.97992 0.10477 0.35228 0.0
C220 C 0.98751 0.13879 0.31075 0.0
C221 C 0.96214 0.10212 0.44175 0.0
C222 C 0.95503 0.16741 0.43931 0.0
C223 C -0.00447 0.2054 0.33868 0.0
O224 O 0.04403 0.22037 0.07031 0.0
O225 O 0.08134 0.19266 0.16436 0.0
O226 O 0.98808 0.22256 0.25869 0.0
O227 O 0.02991 0.20551 0.35756 0.0
H228 H 0.1125 0.14844 0.99445 0.0
H229 H 0.09681 0.09556 0.89263 0.0
H230 H 0.98469 0.11167 0.94578 0.0
H231 H 0.00049 0.16371 0.04853 0.0
H232 H 0.10922 0.38767 0.4841 0.0
H233 H 0.11952 0.3459 0.35108 0.0
H234 H -0.00069 0.3467 0.5034 0.0
H235 H 0.01018 0.30447 0.37104 0.0
H236 H 0.93337 0.13236 0.54921 0.0
H237 H 0.99122 0.08113 0.31931 0.0
H238 H 0.00456 0.14068 0.24762 0.0
H239 H 0.94668 0.1916 0.4763 0.0
C240 C 0.35137 0.03055 0.08196 0.0
C241 C 0.36928 0.0602 0.03682 0.0
C242 C 0.41009 0.01953 0.95855 0.0
C243 C 0.39855 0.05481 0.97606 0.0
C244 C 0.39331 0.99015 1.0083 0.0
C245 C 0.36435 -0.00439 0.06964 0.0
U246 U 0.27564 0.01086 0.27008 0.0
O247 O 0.21826 0.0047 0.23612 0.0
O248 O 0.23812 0.04979 0.32821 0.0
C249 C 0.21003 0.03202 0.2919 0.0
C250 C 0.31652 0.03589 0.12881 0.0
C251 C 0.1793 0.02516 0.35679 0.0
C252 C 0.11494 0.01864 0.37527 0.0
C253 C 0.14498 0.02433 0.31699 0.0
C254 C 0.15298 0.01438 0.51549 0.0
C255 C 0.11842 0.01373 0.47536 0.0
C256 C 0.18326 0.01994 0.45649 0.0
C257 C 0.3351 0.94874 0.4162 0.0
C258 C 0.37176 0.92467 0.54304 0.0
C259 C 0.39978 0.95425 0.40485 0.0
C260 C 0.36607 0.95938 0.3649 0.0
C261 C 0.40284 0.939 0.49741 0.0
C262 C 0.33812 0.92963 0.50272 0.0
C263 C 0.30059 0.9639 0.39242 0.0
O264 O 0.29267 0.00886 0.1195 0.0
O265 O 0.31657 0.05088 0.21489 0.0
O266 O 0.28564 0.95407 0.31022 0.0
O267 O 0.29938 -0.00107 0.40963 0.0
H268 H 0.35958 0.08737 0.04501 0.0
H269 H 0.41098 0.07801 0.93934 0.0
H270 H 0.40187 0.96267 0.99772 0.0
H271 H 0.35109 0.97228 0.10387 0.0
H272 H 0.08887 0.01839 0.34138 0.0
H273 H 0.14136 0.0283 0.24036 0.0
H274 H 0.15662 0.01062 0.59211 0.0
H275 H 0.20963 0.02033 0.48869 0.0
H276 H 0.3731 0.91248 0.6138 0.0
H277 H 0.42312 0.96539 0.36715 0.0
H278 H 0.36417 0.97433 0.29809 0.0
H279 H 0.31439 0.92128 0.54324 0.0
C280 C 0.47247 0.33187 0.08263 0.0
C281 C 0.44522 0.3501 0.0359 0.0
C282 C 0.48924 0.39297 0.96576 0.0
C283 C 0.45347 0.3806 0.97845 0.0
C284 C 0.51624 0.37572 1.0167 0.0
C285 C 0.50793 0.34563 0.075 0.0
U286 U 0.48606 0.25662 0.27177 0.0
O287 O 0.48974 0.19814 0.24204 0.0
O288 O 0.44591 0.21751 0.33157 0.0
C289 C 0.46268 0.18928 0.29902 0.0
C290 C 0.46413 0.29628 0.12804 0.0
C291 C 0.46927 0.16034 0.36902 0.0
C292 C 0.47465 0.09609 0.40031 0.0
C293 C 0.46761 0.12426 0.33714 0.0
C294 C 0.48466 0.13958 0.52974 0.0
C295 C 0.48337 0.10331 0.49736 0.0
C296 C 0.47786 0.16796 0.46579 0.0
C297 C 0.54964 0.3207 0.41671 0.0
C298 C 0.57823 0.35809 0.54077 0.0
C299 C 0.54583 0.38628 0.41181 0.0
C300 C 0.53856 0.35209 0.37039 0.0
C301 C 0.56382 0.38935 0.50076 0.0
C302 C 0.57108 0.32401 0.49904 0.0
C303 C 0.53301 0.28498 0.39368 0.0
O304 O 0.4892 0.27247 0.12018 0.0
O305 O 0.44882 0.29625 0.21339 0.0
O306 O 0.54232 0.26945 0.31255 0.0
O307 O 0.4984 0.28262 0.41001 0.0
H308 H 0.41769 0.33984 0.04061 0.0
H309 H 0.43208 0.39336 0.94045 0.0
H310 H 0.54402 0.38492 1.00969 0.0
H311 H 0.52944 0.33221 0.11079 0.0
H312 H 0.47313 0.06852 0.37268 0.0
H313 H 0.46108 0.11784 0.26285 0.0
H314 H 0.49137 0.14605 0.60382 0.0
H315 H 0.47952 0.19577 0.49169 0.0
H316 H 0.5925 0.35949 0.60857 0.0
H317 H 0.5345 0.40978 0.37862 0.0
H318 H 0.52181 0.34994 0.30686 0.0
H319 H 0.57979 0.29997 0.53572 0.0
O320 O 0.08741 0.00689 0.62698 0.0
Zn321 Zn 0.04729 0.00218 0.72808 0.0
O322 O -0.0008 -0.00056 0.66608 0.0
Zn323 Zn 0.97071 0.04009 0.70651 0.0
Zn324 Zn 0.00436 -0.00037 0.52654 0.0
Zn325 Zn 0.97248 0.95505 0.69998 0.0
O326 O 0.92491 0.02413 0.77507 0.0
O327 O 0.92599 0.9641 0.76602 0.0
O328 O 0.05152 0.04655 0.81715 0.0
O329 O -0.00173 0.07066 0.80271 0.0
O330 O 0.96047 0.07213 0.59297 0.0
O331 O 0.98122 0.04226 0.46697 0.0
O332 O 0.98763 0.95249 0.46399 0.0
O333 O 0.0541 0.957 0.81099 0.0
O334 O 0.96474 0.92096 0.58689 0.0
O335 O 0.00037 0.92904 0.79661 0.0
C336 C 0.08566 0.0084 0.53524 0.0
C337 C 0.91107 0.99274 0.79386 0.0
C338 C 0.966 0.06953 0.5026 0.0
C339 C 0.02934 0.0706 0.83998 0.0
C340 C 0.97271 0.92354 0.49787 0.0
C341 C 0.03145 0.93148 0.83332 0.0
O342 O 0.05573 0.00607 0.49207 0.0
O343 O 0.49233 0.0767 0.65337 0.0
Zn344 Zn 0.50084 0.03959 0.76052 0.0
O345 O 0.50663 0.99013 0.70501 0.0
Zn346 Zn 0.46922 0.956 0.75234 0.0
Zn347 Zn 0.50481 0.99149 0.56479 0.0
Zn348 Zn 0.55241 0.97148 0.73939 0.0
O349 O 0.48895 0.91266 0.82094 0.0
O350 O 0.54743 0.92488 0.81362 0.0
O351 O 0.45852 0.03868 0.85426 0.0
O352 O 0.43997 0.98052 0.85228 0.0
O353 O 0.4353 0.94103 0.64466 0.0
O354 O 0.46246 0.9626 0.51322 0.0
O355 O 0.55083 0.978 0.49962 0.0
O356 O 0.54508 0.05584 0.83899 0.0
O357 O 0.5851 0.96628 0.62479 0.0
O358 O 0.57689 0.00617 0.82832 0.0
C359 C 0.49125 0.0726 0.56199 0.0
C360 C 0.52088 0.90496 0.8422 0.0
C361 C 0.43618 0.94561 0.55364 0.0
C362 C 0.4379 0.01268 0.88506 0.0
C363 C 0.5809 0.96971 0.53429 0.0
C364 C 0.57225 0.03782 0.86121 0.0
O365 O 0.49606 0.04187 0.52323 0.0
O366 O 0.44066 0.48622 0.67986 0.0
Zn367 Zn 0.4801 0.48958 0.78282 0.0
O368 O 0.52865 0.49365 0.72298 0.0
Zn369 Zn 0.55764 0.45356 0.76339 0.0
Zn370 Zn 0.52476 0.49395 0.58326 0.0
Zn371 Zn 0.55406 0.53838 0.75973 0.0
O372 O 0.60402 0.47028 0.82825 0.0
O373 O 0.60099 0.53022 0.82344 0.0
O374 O 0.47593 0.44463 0.8692 0.0
O375 O 0.53071 0.42349 0.86186 0.0
O376 O 0.56675 0.42059 0.65048 0.0
O377 O 0.54638 0.45009 0.52384 0.0
O378 O 0.54263 0.54106 0.52242 0.0
O379 O 0.47219 0.53352 0.86964 0.0
O380 O 0.56081 0.57353 0.64915 0.0
O381 O 0.52555 0.56247 0.85873 0.0
C382 C 0.44328 0.4871 0.58817 0.0
C383 C 0.61706 0.50194 0.84818 0.0
C384 C 0.56088 0.42259 0.56023 0.0
C385 C 0.49903 0.42213 0.89579 0.0
C386 C 0.55506 0.5707 0.55903 0.0
C387 C 0.4944 0.55901 0.8949 0.0
O388 O 0.47362 0.48989 0.54702 0.0
O389 O 0.97841 0.52925 0.5711 0.0
Zn390 Zn 0.02224 0.53152 0.65953 0.0
O391 O 0.02937 0.48288 0.71782 0.0
Zn392 Zn 0.02741 0.48564 0.85771 0.0
Zn393 Zn 0.99285 0.44724 0.67252 0.0
Zn394 Zn 0.07587 0.46528 0.68523 0.0
O395 O 0.07178 0.46951 0.92483 0.0
O396 O 0.10702 0.45771 0.80138 0.0
O397 O 0.01582 0.56998 0.7651 0.0
O398 O 0.02205 0.53691 0.89707 0.0
O399 O 0.98394 0.45887 0.90905 0.0
O400 O 0.95962 0.43121 0.78144 0.0
O401 O 0.01403 0.40499 0.60131 0.0
O402 O 0.06551 0.54731 0.57651 0.0
O403 O 0.07205 0.41996 0.60532 0.0
O404 O 0.10108 0.50121 0.6014 0.0
C405 C 0.95811 0.50255 0.54283 0.0
C406 C 0.10181 0.46025 0.89178 0.0
C407 C 0.95917 0.43891 0.87108 0.0
C408 C 0.01726 0.56728 0.85674 0.0
C409 C 0.04617 0.3991 0.57706 0.0
C410 C 0.09472 0.53141 0.56244 0.0
O411 O 0.96172 0.4706 0.57526 0.0
loop_
_geom_bond_atom_site_label_1
_geom_bond_atom_site_label_2
_geom_bond_distance
_geom_bond_site_symmetry_2
_ccdc_geom_bond_type
C0 C1 1.264 . S
C0 C5 1.479 . S
C0 C10 1.465 . S
C1 C0 1.264 . S
C1 C3 1.339 . S
C1 H28 0.931 . S
C2 C3 1.395 . S
C2 C4 1.320 . S
C3 C1 1.339 . S
C3 C2 1.395 . S
C3 H29 0.929 . S
C4 C2 1.320 . S
C4 C5 1.405 . S
C4 H30 0.930 . S
C5 C0 1.479 . S
C5 C4 1.405 . S
C5 H31 0.931 . S
U6 O7 2.454 . S
U6 O8 2.458 1_554 S
U6 C9 2.984 1_554 S
U6 C10 2.847 . S
U6 C23 2.882 1_554 S
U6 O24 2.441 . S
U6 O25 2.420 . S
U6 O26 2.455 1_554 S
U6 O27 2.449 1_554 S
O7 U6 2.454 . S
O7 C9 1.353 1_554 S
O8 U6 2.458 1_556 S
O8 C9 1.286 . S
C9 U6 2.984 1_556 S
C9 O7 1.353 1_556 S
C9 O8 1.286 . S
C9 C11 1.363 . S
C10 C0 1.465 . S
C10 U6 2.847 . S
C10 O24 1.249 . S
C10 O25 1.202 . S
C11 C9 1.363 . S
C11 C13 1.408 1_556 S
C11 C16 1.342 . S
C12 C13 1.310 . S
C12 C15 1.461 1_554 S
C12 H32 0.932 . S
C13 C11 1.408 1_554 S
C13 C12 1.310 . S
C13 H33 0.930 . S
C14 C15 1.474 . S
C14 C16 1.285 . S
C14 H34 0.929 . S
C15 C12 1.461 1_556 S
C15 C14 1.474 . S
C16 C11 1.342 . S
C16 C14 1.285 . S
C16 H35 0.930 . S
C17 C20 1.424 . S
C17 C22 1.245 . S
C17 C23 1.428 . S
C18 C21 1.260 . S
C18 C22 1.477 . S
C18 H36 0.932 . S
C19 C20 1.384 . S
C19 C21 1.479 . S
C19 H37 0.929 . S
C20 C17 1.424 . S
C20 C19 1.384 . S
C20 H38 0.928 . S
C21 C18 1.260 . S
C21 C19 1.479 . S
C22 C17 1.245 . S
C22 C18 1.477 . S
C22 H39 0.932 . S
C23 U6 2.882 1_556 S
C23 C17 1.428 . S
C23 O26 1.301 . S
C23 O27 1.282 . S
O24 U6 2.441 . S
O24 C10 1.249 . S
O25 U6 2.420 . S
O25 C10 1.202 . S
O26 U6 2.455 1_556 S
O26 C23 1.301 . S
O27 U6 2.449 1_556 S
O27 C23 1.282 . S
H28 C1 0.931 . S
H29 C3 0.929 . S
H30 C4 0.930 . S
H31 C5 0.931 . S
H32 C12 0.932 . S
H33 C13 0.930 . S
H34 C14 0.929 . S
H35 C16 0.930 . S
H36 C18 0.932 . S
H37 C19 0.929 . S
H38 C20 0.928 . S
H39 C22 0.932 . S
C40 C41 1.264 . S
C40 C45 1.479 . S
C40 C50 1.465 . S
C41 C40 1.264 . S
C41 C43 1.339 . S
C41 H68 0.931 . S
C42 C43 1.393 1_655 S
C42 C44 1.320 . S
C43 C41 1.339 . S
C43 C42 1.393 1_455 S
C43 H69 0.929 . S
C44 C42 1.320 . S
C44 C45 1.405 1_655 S
C44 H70 0.930 . S
C45 C40 1.479 . S
C45 C44 1.405 1_455 S
C45 H71 0.931 . S
U46 O47 2.458 . S
U46 O48 2.458 . S
U46 C49 2.985 . S
U46 C50 2.847 . S
U46 C63 2.882 1_554 S
U46 O64 2.441 . S
U46 O65 2.420 . S
U46 O66 2.455 1_554 S
U46 O67 2.449 . S
O47 U46 2.458 . S
O47 C49 1.354 . S
O48 U46 2.458 . S
O48 C49 1.286 . S
C49 U46 2.985 . S
C49 O47 1.354 . S
C49 O48 1.286 . S
C49 C51 1.363 1_455 S
C50 C40 1.465 . S
C50 U46 2.847 . S
C50 O64 1.249 . S
C50 O65 1.202 . S
C51 C49 1.363 1_655 S
C51 C53 1.408 . S
C51 C56 1.342 1_554 S
C52 C53 1.310 . S
C52 C55 1.461 1_554 S
C52 H72 0.932 . S
C53 C51 1.408 . S
C53 C52 1.310 . S
C53 H73 0.930 . S
C54 C55 1.474 . S
C54 C56 1.285 . S
C54 H74 0.929 . S
C55 C52 1.461 1_556 S
C55 C54 1.474 . S
C56 C51 1.342 1_556 S
C56 C54 1.285 . S
C56 H75 0.930 . S
C57 C60 1.424 . S
C57 C62 1.245 . S
C57 C63 1.428 . S
C58 C61 1.260 . S
C58 C62 1.477 . S
C58 H76 0.932 . S
C59 C60 1.384 . S
C59 C61 1.479 . S
C59 H77 0.929 . S
C60 C57 1.424 . S
C60 C59 1.384 . S
C60 H78 0.928 1_556 S
C61 C58 1.260 . S
C61 C59 1.479 . S
C62 C57 1.245 . S
C62 C58 1.477 . S
C62 H79 0.932 . S
C63 U46 2.882 1_556 S
C63 C57 1.428 . S
C63 O66 1.301 . S
C63 O67 1.282 1_556 S
O64 U46 2.441 . S
O64 C50 1.249 . S
O65 U46 2.420 . S
O65 C50 1.202 . S
O66 U46 2.455 1_556 S
O66 C63 1.301 . S
O67 U46 2.449 . S
O67 C63 1.282 1_554 S
H68 C41 0.931 . S
H69 C43 0.929 . S
H70 C44 0.930 . S
H71 C45 0.931 . S
H72 C52 0.932 . S
H73 C53 0.930 . S
H74 C54 0.929 . S
H75 C56 0.930 . S
H76 C58 0.932 . S
H77 C59 0.929 . S
H78 C60 0.928 1_554 S
H79 C62 0.932 . S
C80 C81 1.264 . S
C80 C85 1.479 . S
C80 C90 1.465 . S
C81 C80 1.264 . S
C81 C83 1.339 . S
C81 H108 0.931 . S
C82 C83 1.395 . S
C82 C84 1.320 . S
C83 C81 1.339 . S
C83 C82 1.395 . S
C83 H109 0.929 . S
C84 C82 1.320 . S
C84 C85 1.405 . S
C84 H110 0.930 1_545 S
C85 C80 1.479 . S
C85 C84 1.405 . S
C85 H111 0.931 . S
U86 O87 2.454 . S
U86 O88 2.458 1_554 S
U86 C89 2.984 . S
U86 C90 2.847 . S
U86 C103 2.882 1_554 S
U86 O104 2.441 . S
U86 O105 2.420 . S
U86 O106 2.455 1_554 S
U86 O107 2.449 . S
O87 U86 2.454 . S
O87 C89 1.353 . S
O88 U86 2.458 1_556 S
O88 C89 1.286 1_556 S
C89 U86 2.984 . S
C89 O87 1.353 . S
C89 O88 1.286 1_554 S
C89 C91 1.363 . S
C90 C80 1.465 . S
C90 U86 2.847 . S
C90 O104 1.249 . S
C90 O105 1.202 . S
C91 C89 1.363 . S
C91 C93 1.408 . S
C91 C96 1.342 1_554 S
C92 C93 1.310 . S
C92 C95 1.460 1_544 S
C92 H112 0.932 . S
C93 C91 1.408 . S
C93 C92 1.310 . S
C93 H113 0.930 . S
C94 C95 1.475 . S
C94 C96 1.282 1_565 S
C94 H114 0.933 . S
C95 C92 1.460 1_566 S
C95 C94 1.475 . S
C96 C91 1.342 1_556 S
C96 C94 1.282 1_545 S
C96 H115 0.931 . S
C97 C100 1.424 . S
C97 C102 1.245 . S
C97 C103 1.428 . S
C98 C101 1.260 . S
C98 C102 1.477 . S
C98 H116 0.932 . S
C99 C100 1.384 . S
C99 C101 1.479 . S
C99 H117 0.929 . S
C100 C97 1.424 . S
C100 C99 1.384 . S
C100 H118 0.928 . S
C101 C98 1.260 . S
C101 C99 1.479 . S
C102 C97 1.245 . S
C102 C98 1.477 . S
C102 H119 0.932 . S
C103 U86 2.882 1_556 S
C103 C97 1.428 . S
C103 O106 1.301 . S
C103 O107 1.282 1_556 S
O104 U86 2.441 . S
O104 C90 1.249 . S
O105 U86 2.420 . S
O105 C90 1.202 . S
O106 U86 2.455 1_556 S
O106 C103 1.301 . S
O107 U86 2.449 . S
O107 C103 1.282 1_554 S
H108 C81 0.931 . S
H109 C83 0.929 . S
H110 C84 0.930 1_565 S
H111 C85 0.931 . S
H112 C92 0.932 . S
H113 C93 0.930 . S
H114 C94 0.933 . S
H115 C96 0.931 . S
H116 C98 0.932 . S
H117 C99 0.929 . S
H118 C100 0.928 . S
H119 C102 0.932 . S
C120 C121 1.264 . S
C120 C125 1.479 . S
C120 C130 1.465 . S
C121 C120 1.264 . S
C121 C123 1.339 . S
C121 H148 0.931 . S
C122 C123 1.395 . S
C122 C124 1.320 . S
C123 C121 1.339 . S
C123 C122 1.395 . S
C123 H149 0.929 . S
C124 C122 1.320 . S
C124 C125 1.405 . S
C124 H150 0.930 . S
C125 C120 1.479 . S
C125 C124 1.405 . S
C125 H151 0.931 . S
U126 O127 2.454 . S
U126 O128 2.458 1_554 S
U126 C129 2.984 . S
U126 C130 2.847 . S
U126 C143 2.882 1_554 S
U126 O144 2.441 . S
U126 O145 2.420 . S
U126 O146 2.455 1_554 S
U126 O147 2.449 . S
O127 U126 2.454 . S
O127 C129 1.353 . S
O128 U126 2.458 1_556 S
O128 C129 1.286 1_556 S
C129 U126 2.984 . S
C129 O127 1.353 . S
C129 O128 1.286 1_554 S
C129 C131 1.363 1_554 S
C130 C120 1.465 . S
C130 U126 2.847 . S
C130 O144 1.249 . S
C130 O145 1.202 . S
C131 C129 1.363 1_556 S
C131 C133 1.408 1_556 S
C131 C136 1.342 . S
C132 C133 1.310 . S
C132 C135 1.461 1_554 S
C132 H152 0.932 . S
C133 C131 1.408 1_554 S
C133 C132 1.310 . S
C133 H153 0.930 . S
C134 C135 1.474 . S
C134 C136 1.285 . S
C134 H154 0.929 . S
C135 C132 1.461 1_556 S
C135 C134 1.474 . S
C136 C131 1.342 . S
C136 C134 1.285 . S
C136 H155 0.930 . S
C137 C140 1.424 . S
C137 C142 1.245 . S
C137 C143 1.428 . S
C138 C141 1.260 . S
C138 C142 1.477 . S
C138 H156 0.932 . S
C139 C140 1.384 . S
C139 C141 1.479 . S
C139 H157 0.929 . S
C140 C137 1.424 . S
C140 C139 1.384 . S
C140 H158 0.928 . S
C141 C138 1.260 . S
C141 C139 1.479 . S
C142 C137 1.245 . S
C142 C138 1.477 . S
C142 H159 0.932 . S
C143 U126 2.882 1_556 S
C143 C137 1.428 . S
C143 O146 1.301 . S
C143 O147 1.282 1_556 S
O144 U126 2.441 . S
O144 C130 1.249 . S
O145 U126 2.420 . S
O145 C130 1.202 . S
O146 U126 2.455 1_556 S
O146 C143 1.301 . S
O147 U126 2.449 . S
O147 C143 1.282 1_554 S
H148 C121 0.931 . S
H149 C123 0.929 . S
H150 C124 0.930 . S
H151 C125 0.931 . S
H152 C132 0.932 . S
H153 C133 0.930 . S
H154 C134 0.929 . S
H155 C136 0.930 . S
H156 C138 0.932 . S
H157 C139 0.929 . S
H158 C140 0.928 . S
H159 C142 0.932 . S
C160 C161 1.264 . S
C160 C165 1.479 . S
C160 C170 1.465 1_556 S
C161 C160 1.264 . S
C161 C163 1.339 . S
C161 H188 0.931 1_556 S
C162 C163 1.395 . S
C162 C164 1.320 . S
C163 C161 1.339 . S
C163 C162 1.395 . S
C163 H189 0.929 . S
C164 C162 1.320 . S
C164 C165 1.405 . S
C164 H190 0.930 . S
C165 C160 1.479 . S
C165 C164 1.405 . S
C165 H191 0.931 . S
U166 O167 2.454 . S
U166 O168 2.458 . S
U166 C169 2.984 . S
U166 C170 2.847 . S
U166 C183 2.882 . S
U166 O184 2.441 . S
U166 O185 2.420 . S
U166 O186 2.455 . S
U166 O187 2.449 . S
O167 U166 2.454 . S
O167 C169 1.353 . S
O168 U166 2.458 . S
O168 C169 1.286 . S
C169 U166 2.984 . S
C169 O167 1.353 . S
C169 O168 1.286 . S
C169 C171 1.363 . S
C170 C160 1.465 1_554 S
C170 U166 2.847 . S
C170 O184 1.249 . S
C170 O185 1.202 . S
C171 C169 1.363 . S
C171 C173 1.408 . S
C171 C176 1.342 . S
C172 C173 1.310 . S
C172 C175 1.461 . S
C172 H192 0.932 . S
C173 C171 1.408 . S
C173 C172 1.310 . S
C173 H193 0.930 . S
C174 C175 1.474 . S
C174 C176 1.285 . S
C174 H194 0.929 . S
C175 C172 1.461 . S
C175 C174 1.474 . S
C176 C171 1.342 . S
C176 C174 1.285 . S
C176 H195 0.930 . S
C177 C180 1.424 . S
C177 C182 1.245 . S
C177 C183 1.428 . S
C178 C181 1.260 . S
C178 C182 1.477 . S
C178 H196 0.932 . S
C179 C180 1.384 . S
C179 C181 1.479 . S
C179 H197 0.929 . S
C180 C177 1.424 . S
C180 C179 1.384 . S
C180 H198 0.928 . S
C181 C178 1.260 . S
C181 C179 1.479 . S
C182 C177 1.245 . S
C182 C178 1.477 . S
C182 H199 0.932 . S
C183 U166 2.882 . S
C183 C177 1.428 . S
C183 O186 1.301 . S
C183 O187 1.282 . S
O184 U166 2.441 . S
O184 C170 1.249 . S
O185 U166 2.420 . S
O185 C170 1.202 . S
O186 U166 2.455 . S
O186 C183 1.301 . S
O187 U166 2.449 . S
O187 C183 1.282 . S
H188 C161 0.931 1_554 S
H189 C163 0.929 . S
H190 C164 0.930 . S
H191 C165 0.931 . S
H192 C172 0.932 . S
H193 C173 0.930 . S
H194 C174 0.929 . S
H195 C176 0.930 . S
H196 C178 0.932 . S
H197 C179 0.929 . S
H198 C180 0.928 . S
H199 C182 0.932 . S
C200 C201 1.264 . S
C200 C205 1.479 1_554 S
C200 C210 1.465 . S
C201 C200 1.264 . S
C201 C203 1.339 1_554 S
C201 H228 0.931 . S
C202 C203 1.395 . S
C202 C204 1.320 . S
C203 C201 1.339 1_556 S
C203 C202 1.395 . S
C203 H229 0.929 . S
C204 C202 1.320 . S
C204 C205 1.405 . S
C204 H230 0.930 . S
C205 C200 1.479 1_556 S
C205 C204 1.405 . S
C205 H231 0.931 . S
U206 O207 2.454 . S
U206 O208 2.458 . S
U206 C209 2.984 . S
U206 C210 2.847 . S
U206 C223 2.882 . S
U206 O224 2.441 . S
U206 O225 2.420 . S
U206 O226 2.455 . S
U206 O227 2.449 . S
O207 U206 2.454 . S
O207 C209 1.353 . S
O208 U206 2.458 . S
O208 C209 1.286 . S
C209 U206 2.984 . S
C209 O207 1.353 . S
C209 O208 1.286 . S
C209 C211 1.363 . S
C210 C200 1.465 . S
C210 U206 2.847 . S
C210 O224 1.249 . S
C210 O225 1.202 . S
C211 C209 1.363 . S
C211 C213 1.408 . S
C211 C216 1.342 . S
C212 C213 1.310 . S
C212 C215 1.461 . S
C212 H232 0.932 . S
C213 C211 1.408 . S
C213 C212 1.310 . S
C213 H233 0.930 . S
C214 C215 1.474 . S
C214 C216 1.285 . S
C214 H234 0.929 . S
C215 C212 1.461 . S
C215 C214 1.474 . S
C216 C211 1.342 . S
C216 C214 1.285 . S
C216 H235 0.930 . S
C217 C220 1.424 . S
C217 C222 1.245 . S
C217 C223 1.428 . S
C218 C221 1.260 . S
C218 C222 1.477 . S
C218 H236 0.932 . S
C219 C220 1.384 . S
C219 C221 1.479 . S
C219 H237 0.929 . S
C220 C217 1.424 . S
C220 C219 1.384 . S
C220 H238 0.928 . S
C221 C218 1.260 . S
C221 C219 1.479 . S
C222 C217 1.245 . S
C222 C218 1.477 . S
C222 H239 0.932 . S
C223 U206 2.882 . S
C223 C217 1.428 . S
C223 O226 1.301 . S
C223 O227 1.282 . S
O224 U206 2.441 . S
O224 C210 1.249 . S
O225 U206 2.420 . S
O225 C210 1.202 . S
O226 U206 2.455 . S
O226 C223 1.301 . S
O227 U206 2.449 . S
O227 C223 1.282 . S
H228 C201 0.931 . S
H229 C203 0.929 . S
H230 C204 0.930 . S
H231 C205 0.931 . S
H232 C212 0.932 . S
H233 C213 0.930 . S
H234 C214 0.929 . S
H235 C216 0.930 . S
H236 C218 0.932 . S
H237 C219 0.929 . S
H238 C220 0.928 . S
H239 C222 0.932 . S
C240 C241 1.264 1_554 S
C240 C245 1.479 1_554 S
C240 C250 1.465 . S
C241 C240 1.264 1_556 S
C241 C243 1.339 . S
C241 H268 0.931 1_556 S
C242 C243 1.395 . S
C242 C244 1.320 . S
C243 C241 1.339 . S
C243 C242 1.395 . S
C243 H269 0.929 . S
C244 C242 1.320 . S
C244 C245 1.405 . S
C244 H270 0.930 1_545 S
C245 C240 1.479 1_556 S
C245 C244 1.405 . S
C245 H271 0.931 . S
U246 O247 2.454 . S
U246 O248 2.458 . S
U246 C249 2.984 . S
U246 C250 2.847 . S
U246 C263 2.882 . S
U246 O264 2.441 . S
U246 O265 2.420 . S
U246 O266 2.455 . S
U246 O267 2.449 . S
O247 U246 2.454 . S
O247 C249 1.353 . S
O248 U246 2.458 . S
O248 C249 1.286 . S
C249 U246 2.984 . S
C249 O247 1.353 . S
C249 O248 1.286 . S
C249 C251 1.363 . S
C250 C240 1.465 . S
C250 U246 2.847 . S
C250 O264 1.249 . S
C250 O265 1.202 . S
C251 C249 1.363 . S
C251 C253 1.408 . S
C251 C256 1.342 . S
C252 C253 1.310 . S
C252 C255 1.460 1_545 S
C252 H272 0.932 . S
C253 C251 1.408 . S
C253 C252 1.310 . S
C253 H273 0.930 . S
C254 C255 1.473 . S
C254 C256 1.285 1_565 S
C254 H274 0.932 . S
C255 C252 1.460 1_565 S
C255 C254 1.473 . S
C256 C251 1.342 . S
C256 C254 1.285 1_545 S
C256 H275 0.930 . S
C257 C260 1.424 . S
C257 C262 1.245 . S
C257 C263 1.428 . S
C258 C261 1.260 . S
C258 C262 1.477 . S
C258 H276 0.932 . S
C259 C260 1.384 . S
C259 C261 1.479 . S
C259 H277 0.929 . S
C260 C257 1.424 . S
C260 C259 1.384 . S
C260 H278 0.928 . S
C261 C258 1.260 . S
C261 C259 1.479 . S
C262 C257 1.245 . S
C262 C258 1.477 . S
C262 H279 0.932 . S
C263 U246 2.882 . S
C263 C257 1.428 . S
C263 O266 1.301 . S
C263 O267 1.282 . S
O264 U246 2.441 . S
O264 C250 1.249 . S
O265 U246 2.420 . S
O265 C250 1.202 . S
O266 U246 2.455 . S
O266 C263 1.301 . S
O267 U246 2.449 . S
O267 C263 1.282 . S
H268 C241 0.931 1_554 S
H269 C243 0.929 . S
H270 C244 0.930 1_565 S
H271 C245 0.931 . S
H272 C252 0.932 . S
H273 C253 0.930 . S
H274 C254 0.932 . S
H275 C256 0.930 . S
H276 C258 0.932 . S
H277 C259 0.929 . S
H278 C260 0.928 . S
H279 C262 0.932 . S
C280 C281 1.264 . S
C280 C285 1.479 . S
C280 C290 1.465 1_556 S
C281 C280 1.264 . S
C281 C283 1.339 . S
C281 H308 0.931 1_556 S
C282 C283 1.395 . S
C282 C284 1.320 . S
C283 C281 1.339 . S
C283 C282 1.395 . S
C283 H309 0.929 . S
C284 C282 1.320 . S
C284 C285 1.405 . S
C284 H310 0.930 . S
C285 C280 1.479 . S
C285 C284 1.405 . S
C285 H311 0.931 . S
U286 O287 2.454 . S
U286 O288 2.458 . S
U286 C289 2.984 . S
U286 C290 2.847 . S
U286 C303 2.882 . S
U286 O304 2.441 . S
U286 O305 2.420 . S
U286 O306 2.455 . S
U286 O307 2.449 . S
O287 U286 2.454 . S
O287 C289 1.353 . S
O288 U286 2.458 . S
O288 C289 1.286 . S
C289 U286 2.984 . S
C289 O287 1.353 . S
C289 O288 1.286 . S
C289 C291 1.363 . S
C290 C280 1.465 1_554 S
C290 U286 2.847 . S
C290 O304 1.249 . S
C290 O305 1.202 . S
C291 C289 1.363 . S
C291 C293 1.408 . S
C291 C296 1.342 . S
C292 C293 1.310 . S
C292 C295 1.461 . S
C292 H312 0.932 . S
C293 C291 1.408 . S
C293 C292 1.310 . S
C293 H313 0.930 . S
C294 C295 1.474 . S
C294 C296 1.285 . S
C294 H314 0.929 . S
C295 C292 1.461 . S
C295 C294 1.474 . S
C296 C291 1.342 . S
C296 C294 1.285 . S
C296 H315 0.930 . S
C297 C300 1.424 . S
C297 C302 1.245 . S
C297 C303 1.428 . S
C298 C301 1.260 . S
C298 C302 1.477 . S
C298 H316 0.932 . S
C299 C300 1.384 . S
C299 C301 1.479 . S
C299 H317 0.929 . S
C300 C297 1.424 . S
C300 C299 1.384 . S
C300 H318 0.928 . S
C301 C298 1.260 . S
C301 C299 1.479 . S
C302 C297 1.245 . S
C302 C298 1.477 . S
C302 H319 0.932 . S
C303 U286 2.882 . S
C303 C297 1.428 . S
C303 O306 1.301 . S
C303 O307 1.282 . S
O304 U286 2.441 . S
O304 C290 1.249 . S
O305 U286 2.420 . S
O305 C290 1.202 . S
O306 U286 2.455 . S
O306 C303 1.301 . S
O307 U286 2.449 . S
O307 C303 1.282 . S
H308 C281 0.931 1_554 S
H309 C283 0.929 . S
H310 C284 0.930 . S
H311 C285 0.931 . S
H312 C292 0.932 . S
H313 C293 0.930 . S
H314 C294 0.929 . S
H315 C296 0.930 . S
H316 C298 0.932 . S
H317 C299 0.929 . S
H318 C300 0.928 . S
H319 C302 0.932 . S
O320 Zn321 1.953 . S
O320 C336 1.225 . S
Zn321 O320 1.953 . S
Zn321 O322 1.950 . S
Zn321 O328 1.919 1_565 S
Zn321 O333 1.924 . S
O322 Zn321 1.950 . S
O322 Zn323 1.898 1_565 S
O322 Zn324 1.953 . S
O322 Zn325 1.965 1_455 S
Zn323 O322 1.898 1_545 S
Zn323 O326 1.933 1_455 S
Zn323 O329 1.941 . S
Zn323 O330 1.965 . S
Zn324 O322 1.953 . S
Zn324 O331 1.938 1_565 S
Zn324 O332 1.906 . S
Zn324 O342 1.953 . S
Zn325 O322 1.965 1_655 S
Zn325 O327 1.932 . S
Zn325 O334 1.977 . S
Zn325 O335 1.910 1_655 S
O326 Zn323 1.933 1_655 S
O326 C337 1.226 . S
O327 Zn325 1.932 . S
O327 C337 1.307 1_565 S
O328 Zn321 1.919 1_545 S
O328 C339 1.253 . S
O329 Zn323 1.941 . S
O329 C339 1.283 . S
O330 Zn323 1.965 . S
O330 C338 1.303 . S
O331 Zn324 1.938 1_545 S
O331 C338 1.247 . S
O332 Zn324 1.906 . S
O332 C340 1.304 1_455 S
O333 Zn321 1.924 . S
O333 C341 1.311 . S
O334 Zn325 1.977 . S
O334 C340 1.272 . S
O335 Zn325 1.910 1_455 S
O335 C341 1.231 . S
C336 O320 1.225 . S
C336 O342 1.298 . S
C337 O326 1.226 . S
C337 O327 1.307 1_545 S
C338 O330 1.303 . S
C338 O331 1.247 . S
C339 O328 1.253 . S
C339 O329 1.283 . S
C340 O332 1.304 1_655 S
C340 O334 1.272 . S
C341 O333 1.311 . S
C341 O335 1.231 . S
O342 Zn324 1.953 . S
O342 C336 1.298 . S
O343 Zn344 1.953 . S
O343 C359 1.225 . S
Zn344 O343 1.953 . S
Zn344 O345 1.949 . S
Zn344 O351 1.919 . S
Zn344 O356 1.924 . S
O345 Zn344 1.949 . S
O345 Zn346 1.923 1_545 S
O345 Zn347 1.950 . S
O345 Zn348 1.945 1_545 S
Zn346 O345 1.923 1_565 S
Zn346 O349 1.933 . S
Zn346 O352 1.941 . S
Zn346 O353 1.965 . S
Zn347 O345 1.950 . S
Zn347 O354 1.938 . S
Zn347 O355 1.906 1_545 S
Zn347 O365 1.953 . S
Zn348 O345 1.945 1_565 S
Zn348 O350 1.932 . S
Zn348 O357 1.977 . S
Zn348 O358 1.910 1_565 S
O349 Zn346 1.933 . S
O349 C360 1.226 . S
O350 Zn348 1.932 . S
O350 C360 1.307 . S
O351 Zn344 1.919 . S
O351 C362 1.253 . S
O352 Zn346 1.941 . S
O352 C362 1.283 1_565 S
O353 Zn346 1.965 . S
O353 C361 1.303 . S
O354 Zn347 1.938 . S
O354 C361 1.247 1_545 S
O355 Zn347 1.906 1_565 S
O355 C363 1.304 . S
O356 Zn344 1.924 . S
O356 C364 1.311 . S
O357 Zn348 1.977 . S
O357 C363 1.272 . S
O358 Zn348 1.910 1_545 S
O358 C364 1.231 . S
C359 O343 1.225 . S
C359 O365 1.298 . S
C360 O349 1.226 . S
C360 O350 1.307 . S
C361 O353 1.303 . S
C361 O354 1.247 1_565 S
C362 O351 1.253 . S
C362 O352 1.283 1_545 S
C363 O355 1.304 . S
C363 O357 1.272 . S
C364 O356 1.311 . S
C364 O358 1.231 . S
O365 Zn347 1.953 . S
O365 C359 1.298 . S
O366 Zn367 1.953 . S
O366 C382 1.225 . S
Zn367 O366 1.953 . S
Zn367 O368 1.949 . S
Zn367 O374 1.919 . S
Zn367 O379 1.924 . S
O368 Zn367 1.949 . S
O368 Zn369 1.923 . S
O368 Zn370 1.950 . S
O368 Zn371 1.945 . S
Zn369 O368 1.923 . S
Zn369 O372 1.933 . S
Zn369 O375 1.941 . S
Zn369 O376 1.965 . S
Zn370 O368 1.950 . S
Zn370 O377 1.938 . S
Zn370 O378 1.906 . S
Zn370 O388 1.953 . S
Zn371 O368 1.945 . S
Zn371 O373 1.932 . S
Zn371 O380 1.977 . S
Zn371 O381 1.910 . S
O372 Zn369 1.933 . S
O372 C383 1.226 . S
O373 Zn371 1.932 . S
O373 C383 1.307 . S
O374 Zn367 1.919 . S
O374 C385 1.253 . S
O375 Zn369 1.941 . S
O375 C385 1.283 . S
O376 Zn369 1.965 . S
O376 C384 1.303 . S
O377 Zn370 1.938 . S
O377 C384 1.247 . S
O378 Zn370 1.906 . S
O378 C386 1.304 . S
O379 Zn367 1.924 . S
O379 C387 1.311 . S
O380 Zn371 1.977 . S
O380 C386 1.272 . S
O381 Zn371 1.910 . S
O381 C387 1.231 . S
C382 O366 1.225 . S
C382 O388 1.298 . S
C383 O372 1.226 . S
C383 O373 1.307 . S
C384 O376 1.303 . S
C384 O377 1.247 . S
C385 O374 1.253 . S
C385 O375 1.283 . S
C386 O378 1.304 . S
C386 O380 1.272 . S
C387 O379 1.311 . S
C387 O381 1.231 . S
O388 Zn370 1.953 . S
O388 C382 1.298 . S
O389 Zn390 1.953 1_655 S
O389 C405 1.225 . S
Zn390 O389 1.953 1_455 S
Zn390 O391 1.949 . S
Zn390 O397 1.919 . S
Zn390 O402 1.924 . S
O391 Zn390 1.949 . S
O391 Zn392 1.923 . S
O391 Zn393 1.950 1_455 S
O391 Zn394 1.945 . S
Zn392 O391 1.923 . S
Zn392 O395 1.933 . S
Zn392 O398 1.941 1_455 S
Zn392 O399 1.965 1_455 S
Zn393 O391 1.950 1_655 S
Zn393 O400 1.938 . S
Zn393 O401 1.900 1_655 S
Zn393 O411 1.953 . S
Zn394 O391 1.945 . S
Zn394 O396 1.932 . S
Zn394 O403 1.977 . S
Zn394 O404 1.910 . S
O395 Zn392 1.933 . S
O395 C406 1.226 . S
O396 Zn394 1.932 . S
O396 C406 1.307 . S
O397 Zn390 1.919 . S
O397 C408 1.253 . S
O398 Zn392 1.941 1_655 S
O398 C408 1.283 1_655 S
O399 Zn392 1.965 1_655 S
O399 C407 1.303 . S
O400 Zn393 1.938 . S
O400 C407 1.247 . S
O401 Zn393 1.900 1_455 S
O401 C409 1.317 . S
O402 Zn390 1.924 . S
O402 C410 1.311 . S
O403 Zn394 1.977 . S
O403 C409 1.272 . S
O404 Zn394 1.910 . S
O404 C410 1.231 . S
C405 O389 1.225 . S
C405 O411 1.298 . S
C406 O395 1.226 . S
C406 O396 1.307 . S
C407 O399 1.303 . S
C407 O400 1.247 . S
C408 O397 1.253 . S
C408 O398 1.283 1_455 S
C409 O401 1.317 . S
C409 O403 1.272 . S
C410 O402 1.311 . S
C410 O404 1.231 . S
O411 Zn393 1.953 . S
O411 C405 1.298 . S
C255 C336 3.260 . S
C359 C295 3.680 . S
C382 C175 3.124 . S
C409 C215 3.006 . S
C337 C95 2.641 1_545 S
C135 C360 3.090 . S
C15 C383 2.715 . S
C55 C408 3.168 1_655 S
C338 C221 2.978 . S
C361 C261 1.746 1_565 S
C384 C301 2.258 . S
C181 C410 1.719 . S
C61 C341 2.009 . S
C364 C101 1.883 . S
C387 C141 2.480 . S
C21 C407 1.272 . S
C202 C339 3.638 . S
C242 C362 3.602 . S
C385 C282 3.819 . S
C406 C162 3.582 . S
C42 C340 3.949 . S
C363 C82 3.533 1_565 S
C386 C122 3.531 . S
C2 C405 3.920 . S
