# Generated by pormake.
# Topology anh, (6,3)-cn, num edge types: 1
# Building blocks:
#     Node 0, Type 0, BuildingBlock: BETDIP_clean_sbu_0, # of connection points: 6
#     Node 1, Type 0, BuildingBlock: BETDIP_clean_sbu_0, # of connection points: 6
#     Node 2, Type 0, BuildingBlock: BETDIP_clean_sbu_0, # of connection points: 6
#     Node 3, Type 1, BuildingBlock: WUSLED_clean_sbu_0, # of connection points: 3
#     Node 4, Type 1, BuildingBlock: WUSLED_clean_sbu_0, # of connection points: 3
#     Node 5, Type 1, BuildingBlock: WUSLED_clean_sbu_0, # of connection points: 3
#     Node 6, Type 1, BuildingBlock: WUSLED_clean_sbu_0, # of connection points: 3
#     Node 7, Type 1, BuildingBlock: WUSLED_clean_sbu_0, # of connection points: 3
#     Node 8, Type 1, BuildingBlock: WUSLED_clean_sbu_0, # of connection points: 3
#     Edge 9, Type (0, 1), BuildingBlock: UVAHIK_clean_linker_0, # of connection points: 2
#     Edge 10, Type (0, 1), BuildingBlock: UVAHIK_clean_linker_0, # of connection points: 2
#     Edge 11, Type (0, 1), BuildingBlock: UVAHIK_clean_linker_0, # of connection points: 2
#     Edge 12, Type (0, 1), BuildingBlock: UVAHIK_clean_linker_0, # of connection points: 2
#     Edge 13, Type (0, 1), BuildingBlock: UVAHIK_clean_linker_0, # of connection points: 2
#     Edge 14, Type (0, 1), BuildingBlock: UVAHIK_clean_linker_0, # of connection points: 2
#     Edge 15, Type (0, 1), BuildingBlock: UVAHIK_clean_linker_0, # of connection points: 2
#     Edge 16, Type (0, 1), BuildingBlock: UVAHIK_clean_linker_0, # of connection points: 2
#     Edge 17, Type (0, 1), BuildingBlock: UVAHIK_clean_linker_0, # of connection points: 2
#     Edge 18, Type (0, 1), BuildingBlock: UVAHIK_clean_linker_0, # of connection points: 2
#     Edge 19, Type (0, 1), BuildingBlock: UVAHIK_clean_linker_0, # of connection points: 2
#     Edge 20, Type (0, 1), BuildingBlock: UVAHIK_clean_linker_0, # of connection points: 2
#     Edge 21, Type (0, 1), BuildingBlock: UVAHIK_clean_linker_0, # of connection points: 2
#     Edge 22, Type (0, 1), BuildingBlock: UVAHIK_clean_linker_0, # of connection points: 2
#     Edge 23, Type (0, 1), BuildingBlock: UVAHIK_clean_linker_0, # of connection points: 2
#     Edge 24, Type (0, 1), BuildingBlock: UVAHIK_clean_linker_0, # of connection points: 2
#     Edge 25, Type (0, 1), BuildingBlock: UVAHIK_clean_linker_0, # of connection points: 2
#     Edge 26, Type (0, 1), BuildingBlock: UVAHIK_clean_linker_0, # of connection points: 2
# Relax obj value: 0.193
# Max RMSD: 0.174
# Mean RMSD: 0.143
data_MOF--net-anh--node1-BETDIP_clean_sbu_0--node2-WUSLED_clean_sbu_0--edge1-UVAHIK_clean_linker_0
_symmetry_space_group_name_H-M    P1
_symmetry_Int_Tables_number       1
_symmetry_cell_setting            triclinic
loop_
_symmetry_equiv_pos_as_xyz
'x, y, z'
_cell_length_a     48.786516
_cell_length_b     48.894716
_cell_length_c     84.879809
_cell_angle_alpha  89.871826
_cell_angle_beta   90.160738
_cell_angle_gamma 119.98387
loop_
_atom_site_label
_atom_site_type_symbol
_atom_site_fract_x
_atom_site_fract_y
_atom_site_fract_z
_atom_type_partial_charge
Tb0 Tb 0.09246 0.59891 0.17714 0.0
Tb1 Tb 0.06506 0.53297 0.17146 0.0
C2 C 0.12621 0.65342 0.18739 0.0
C3 C 0.15787 0.67656 0.18178 0.0
C4 C 0.18349 0.6895 0.19228 0.0
C5 C 0.21419 0.70832 0.18661 0.0
C6 C 0.21943 0.71455 0.17041 0.0
C7 C 0.19387 0.70193 0.15994 0.0
C8 C 0.16334 0.68283 0.16554 0.0
C9 C 0.08321 0.58425 0.14723 0.0
C10 C 0.13917 0.56916 0.17088 0.0
C11 C 1.03378 0.47872 0.16032 0.0
C12 C 0.99981 0.4594 0.15767 0.0
C13 C 0.98844 0.44815 0.14249 0.0
C14 C 0.95603 0.43249 0.13949 0.0
C15 C 0.93476 0.42796 0.15167 0.0
C16 C 0.94631 0.43942 0.16683 0.0
C17 C 0.97856 0.45517 0.16979 0.0
C18 C 0.076 0.54842 0.20172 0.0
C19 C 1.01878 0.56297 0.17271 0.0
O20 O 0.12422 0.62862 0.19443 0.0
O21 O 0.10328 0.64598 0.17729 0.0
O22 O 0.09328 0.57294 0.15741 0.0
O23 O 0.08026 0.60681 0.15331 0.0
O24 O 0.13648 0.59399 0.17541 0.0
O25 O 0.11322 0.54242 0.16747 0.0
O26 O 1.04752 0.50411 0.15158 0.0
O27 O 1.04305 0.4842 0.17503 0.0
O28 O 0.06441 0.55926 0.19184 0.0
O29 O 0.08094 0.52771 0.1948 0.0
O30 O 1.02277 0.53913 0.16817 0.0
O31 O 1.04298 0.58823 0.17914 0.0
H32 H 0.17978 0.68451 0.20479 0.0
H33 H 0.23379 0.71829 0.19485 0.0
H34 H 0.1976 0.70655 0.14741 0.0
H35 H 0.14415 0.67256 0.15707 0.0
H36 H 1.00466 0.45188 0.13295 0.0
H37 H 0.94757 0.42381 0.12772 0.0
H38 H 0.93041 0.43553 0.17654 0.0
H39 H 0.98675 0.46419 0.18154 0.0
Tb40 Tb 0.62247 0.0481 0.50901 0.0
Tb41 Tb 0.58282 0.07564 0.5074 0.0
C42 C 0.6445 1.01421 0.51747 0.0
C43 C 0.62996 0.97987 0.51625 0.0
C44 C 0.6019 0.95972 0.52443 0.0
C45 C 0.58631 0.92734 0.52175 0.0
C46 C 0.59839 0.91477 0.51077 0.0
C47 C 0.6263 0.93484 0.50257 0.0
C48 C 0.64209 0.96715 0.50537 0.0
C49 C 0.61558 0.06305 0.48039 0.0
C50 C 0.54559 1.00159 0.50473 0.0
C51 C 0.55846 0.10854 0.50049 0.0
C52 C 0.57294 0.14156 0.49529 0.0
C53 C 0.5841 0.15041 0.47977 0.0
C54 C 0.60117 0.18225 0.47559 0.0
C55 C 0.6075 0.20539 0.48693 0.0
C56 C 0.59571 0.19667 0.50225 0.0
C57 C 0.57829 0.16498 0.50637 0.0
C58 C 0.58998 0.05938 0.53633 0.0
C59 C 0.65958 0.12154 0.50585 0.0
O60 O 0.63111 1.02462 0.52727 0.0
O61 O 0.65139 1.02902 0.50395 0.0
O62 O 0.5942 0.05086 0.49068 0.0
O63 O 0.6416 0.06543 0.4857 0.0
O64 O 0.57412 1.00435 0.50664 0.0
O65 O 0.54311 1.02731 0.50421 0.0
O66 O 0.56007 0.08886 0.49063 0.0
O67 O 0.5652 0.10453 0.51493 0.0
O68 O 0.6114 0.07294 0.52607 0.0
O69 O 0.56396 0.05627 0.53065 0.0
O70 O 0.63105 0.11763 0.50257 0.0
O71 O 0.66164 0.09703 0.51099 0.0
H72 H 0.5917 0.96889 0.53274 0.0
H73 H 0.56496 0.91207 0.52829 0.0
H74 H 0.6364 0.92543 0.49433 0.0
H75 H 0.66351 0.98229 0.49885 0.0
H76 H 0.58027 0.13286 0.47095 0.0
H77 H 0.60988 0.18883 0.46367 0.0
H78 H 0.60001 0.21445 0.51103 0.0
H79 H 0.56977 0.15882 0.51836 0.0
Tb80 Tb 0.53475 0.51605 0.84235 0.0
Tb81 Tb 0.60132 0.5547 0.83951 0.0
C82 C 0.47904 0.49514 0.85105 0.0
C83 C 0.45892 0.50922 0.84864 0.0
C84 C 0.46761 0.53917 0.85483 0.0
C85 C 0.45134 0.55459 0.85031 0.0
C86 C 0.42633 0.54042 0.83948 0.0
C87 C 0.41723 0.51024 0.83359 0.0
C88 C 0.4333 0.49472 0.83819 0.0
C89 C 0.55481 0.52248 0.81328 0.0
C90 C 0.56532 0.59272 0.83733 0.0
C91 C 0.6579 0.57964 0.83136 0.0
C92 C 0.67741 0.56608 0.82724 0.0
C93 C 0.70168 0.58139 0.81622 0.0
C94 C 0.72129 0.56916 0.81275 0.0
C95 C 0.71631 0.54138 0.82014 0.0
C96 C 0.69083 0.52506 0.83043 0.0
C97 C 0.67154 0.53749 0.83405 0.0
C98 C 0.58118 0.54925 0.86894 0.0
C99 C 0.57037 0.47818 0.8391 0.0
O100 O 0.50332 0.5103 0.86052 0.0
O101 O 0.48652 0.48599 0.8381 0.0
O102 O 0.56412 0.54373 0.82354 0.0
O103 O 0.53181 0.49644 0.81882 0.0
O104 O 0.5397 0.56474 0.84044 0.0
O105 O 0.59287 0.59411 0.83557 0.0
O106 O 0.6349 0.57315 0.82147 0.0
O107 O 0.64888 0.57616 0.84608 0.0
O108 O 0.57184 0.52706 0.85898 0.0
O109 O 0.60252 0.57512 0.86244 0.0
O110 O 0.59472 0.50633 0.83526 0.0
O111 O 0.54429 0.47668 0.84466 0.0
H112 H 0.48752 0.55116 0.86279 0.0
H113 H 0.45861 0.57777 0.85508 0.0
H114 H 0.39744 0.49847 0.82552 0.0
H115 H 0.42633 0.47176 0.83319 0.0
H116 H 0.70604 0.60323 0.81073 0.0
H117 H 0.74121 0.58208 0.80492 0.0
H118 H 0.68717 0.50393 0.83647 0.0
H119 H 0.65284 0.52536 0.8426 0.0
C120 C 0.59234 0.12 0.20737 0.0
C121 C 0.61517 0.14085 0.21804 0.0
C122 C 0.64879 0.17052 0.19629 0.0
C123 C 0.64324 0.16599 0.21253 0.0
C124 C 0.6262 0.14913 0.18562 0.0
C125 C 0.59796 0.12389 0.19116 0.0
U126 U 0.54705 0.0779 0.24275 0.0
O127 O 0.4965 0.05584 0.24869 0.0
O128 O 0.52008 1.02747 0.2485 0.0
C129 C 0.49312 1.02741 0.24804 0.0
C130 C 0.56304 0.09417 0.21349 0.0
C131 C 0.47194 1.00677 0.23571 0.0
C132 C 0.46042 1.00042 0.20764 0.0
C133 C 0.47192 1.01975 0.22088 0.0
C134 C 0.44739 0.95481 0.22402 0.0
C135 C 0.44935 0.96806 0.20907 0.0
C136 C 0.45857 0.97407 0.23729 0.0
C137 C 0.58615 0.10508 0.28215 0.0
C138 C 0.56297 0.07093 0.30478 0.0
C139 C 0.60963 0.12264 0.3079 0.0
C140 C 0.60946 0.12816 0.29178 0.0
C141 C 0.58654 0.09385 0.31452 0.0
C142 C 0.56275 0.07655 0.28869 0.0
C143 C 0.58694 0.11008 0.26518 0.0
O144 O 0.56658 0.07222 0.22056 0.0
O145 O 0.54601 0.10322 0.22158 0.0
O146 O 0.56587 0.11705 0.25977 0.0
O147 O 0.58882 0.08845 0.25687 0.0
H148 H 0.61111 0.13777 0.23063 0.0
H149 H 0.66053 0.18202 0.22096 0.0
H150 H 0.63002 0.15243 0.17302 0.0
H151 H 0.58048 0.10772 0.18286 0.0
H152 H 0.46205 1.01096 0.19619 0.0
H153 H 0.48289 0.04506 0.2193 0.0
H154 H 0.43845 0.92969 0.22531 0.0
H155 H 0.45897 0.96377 0.24855 0.0
H156 H 0.5451 0.04843 0.30952 0.0
H157 H 0.62776 0.14094 0.31517 0.0
H158 H 0.62763 0.15029 0.28683 0.0
H159 H 0.54465 0.05846 0.2813 0.0
C160 C 0.61947 0.59882 0.53828 0.0
C161 C 0.6176 0.62145 0.54754 0.0
C162 C 0.63115 0.65588 0.52481 0.0
C163 C 0.62327 0.64972 0.54085 0.0
C164 C 0.63384 0.63342 0.51566 0.0
C165 C 0.62801 0.60493 0.5224 0.0
U166 U 0.60169 0.54927 0.57458 0.0
O167 O 0.56876 0.49861 0.57839 0.0
O168 O 0.61984 0.51841 0.58222 0.0
C169 C 0.59234 0.49292 0.57972 0.0
C170 C 0.61229 0.56889 0.54537 0.0
C171 C 0.59382 0.47262 0.56753 0.0
C172 C 0.59612 0.46423 0.53947 0.0
C173 C 0.58657 0.47616 0.55186 0.0
C174 C 0.61902 0.44387 0.55828 0.0
C175 C 0.61338 0.44898 0.54258 0.0
C176 C 0.60932 0.45568 0.57069 0.0
C177 C 0.60163 0.58194 0.61441 0.0
C178 C 0.59041 0.54783 0.63713 0.0
C179 C 0.61167 0.60408 0.64069 0.0
C180 C 0.612 0.60802 0.62438 0.0
C181 C 0.60089 0.57392 0.64725 0.0
C182 C 0.59091 0.55184 0.62084 0.0
C183 C 0.60417 0.58637 0.59733 0.0
O184 O 0.63452 0.57064 0.55477 0.0
O185 O 0.5837 0.55279 0.55138 0.0
O186 O 0.57812 0.56828 0.58933 0.0
O187 O 0.62947 0.58749 0.59129 0.0
H188 H 0.61103 0.61692 0.55986 0.0
H189 H 0.62016 0.66616 0.54812 0.0
H190 H 0.63987 0.63766 0.50328 0.0
H191 H 0.62968 0.58756 0.51519 0.0
H192 H 0.59155 0.46845 0.52746 0.0
H193 H 0.57532 0.48988 0.5491 0.0
H194 H 0.63183 0.43161 0.56093 0.0
H195 H 0.61563 0.45328 0.58266 0.0
H196 H 0.58154 0.52424 0.64177 0.0
H197 H 0.62034 0.62473 0.64814 0.0
H198 H 0.62079 0.63147 0.61954 0.0
H199 H 0.58317 0.53149 0.61323 0.0
C200 C 1.01975 0.4932 0.87336 0.0
C201 C 0.99652 0.49435 0.8825 0.0
C202 C 0.97129 0.49833 0.85875 0.0
C203 C 0.97238 0.49686 0.87523 0.0
C204 C 0.99424 0.49656 0.84958 0.0
C205 C 1.01858 0.49414 0.85691 0.0
U206 U 0.06117 0.49757 0.91103 0.0
O207 O 0.08445 0.47148 0.91922 0.0
O208 O 0.11183 0.52318 0.91678 0.0
C209 C 0.11262 0.49673 0.9177 0.0
C210 C 1.04584 0.49254 0.88124 0.0
C211 C 0.13317 0.49458 0.90581 0.0
C212 C 0.13758 0.47989 0.87897 0.0
C213 C 0.11949 0.47553 0.8924 0.0
C214 C 0.18349 0.52154 0.89231 0.0
C215 C 0.16935 0.50361 0.87873 0.0
C216 C 0.16551 0.51695 0.90583 0.0
C217 C 1.03168 0.50917 0.94948 0.0
C218 C 0.05991 0.50902 0.97297 0.0
C219 C 1.0185 0.5226 0.97467 0.0
C220 C 1.01348 0.51815 0.95844 0.0
C221 C 1.04175 0.51803 0.98211 0.0
C222 C 0.05499 0.50477 0.95678 0.0
C223 C 1.02721 0.50516 0.93245 0.0
O224 O 0.06608 0.51947 0.88786 0.0
O225 O 1.03734 0.46796 0.89045 0.0
O226 O 1.02074 0.47724 0.92723 0.0
O227 O 1.04903 0.52871 0.92417 0.0
H228 H 0.9973 0.49369 0.89525 0.0
H229 H 0.95455 0.49764 0.8825 0.0
H230 H 0.99369 0.49772 0.83685 0.0
H231 H 1.03661 0.49343 0.84979 0.0
H232 H 0.12643 0.46597 0.86852 0.0
H233 H 0.09437 0.45867 0.89188 0.0
H234 H 0.20817 0.53988 0.89224 0.0
H235 H 0.17629 0.53232 0.91587 0.0
H236 H 0.0777 0.50491 0.97833 0.0
H237 H 1.00449 0.53005 0.98134 0.0
H238 H 0.99561 0.52192 0.95289 0.0
H239 H 0.06938 0.49801 0.94993 0.0
C240 C 1.02135 0.48355 0.47018 0.0
C241 C 0.99423 0.47589 0.46099 0.0
C242 C 0.96143 0.42478 0.47512 0.0
C243 C 0.96505 0.44714 0.46335 0.0
C244 C 0.98895 0.43271 0.48411 0.0
C245 C 1.01793 0.46123 0.48172 0.0
U246 U 0.10035 0.56589 0.45553 0.0
O247 O 0.12157 0.61072 0.46934 0.0
O248 O 0.14798 0.58599 0.46662 0.0
C249 C 0.1482 0.61106 0.47235 0.0
C250 C 1.05238 0.51519 0.46936 0.0
C251 C 0.17926 0.64264 0.47292 0.0
C252 C 0.21542 0.69036 0.48823 0.0
C253 C 0.18615 0.66198 0.48633 0.0
C254 C 0.23275 0.68171 0.46324 0.0
C255 C 0.23996 0.70111 0.47687 0.0
C256 C 0.20318 0.65317 0.46133 0.0
C257 C 0.09733 0.57087 0.40747 0.0
C258 C 0.11439 0.59393 0.38127 0.0
C259 C 0.06825 0.54213 0.38393 0.0
C260 C 0.07226 0.54394 0.40046 0.0
C261 C 0.08933 0.56715 0.374 0.0
C262 C 0.11817 0.59576 0.39768 0.0
C263 C 0.10336 0.57412 0.42476 0.0
O264 O 0.07879 0.51653 0.4648 0.0
O265 O 1.05219 0.54145 0.4662 0.0
O266 O 0.08864 0.58405 0.43407 0.0
O267 O 0.11457 0.55795 0.43198 0.0
H268 H 0.99537 0.49232 0.45209 0.0
H269 H 0.94508 0.44298 0.45609 0.0
H270 H 0.98848 0.41679 0.4931 0.0
H271 H 1.03785 0.46609 0.48922 0.0
H272 H 0.21836 0.70384 0.4988 0.0
H273 H 0.16874 0.65489 0.49563 0.0
H274 H 0.25015 0.688 0.45403 0.0
H275 H 0.19925 0.63912 0.45083 0.0
H276 H 0.13171 0.61348 0.3743 0.0
H277 H 1.04839 0.5212 0.37899 0.0
H278 H 0.05583 0.52436 0.40773 0.0
H279 H 0.13783 0.61674 0.40277 0.0
C280 C 0.57403 0.95956 0.80561 0.0
C281 C 0.56023 0.93553 0.79413 0.0
C282 C 0.57163 0.89879 0.80971 0.0
C283 C 0.55928 0.90604 0.79606 0.0
C284 C 0.58537 0.92338 0.82107 0.0
C285 C 0.58663 0.95274 0.81902 0.0
U286 U 0.57505 0.03924 0.78961 0.0
O287 O 0.54712 0.05956 0.8001 0.0
O288 O 0.59862 0.0861 0.80149 0.0
C289 C 0.57215 0.08571 0.80491 0.0
C290 C 0.57355 0.99058 0.80505 0.0
C291 C 0.57145 0.11665 0.80549 0.0
C292 C 0.55435 0.14987 0.8196 0.0
C293 C 0.55391 0.1209 0.81745 0.0
C294 C 0.59003 0.17215 0.79776 0.0
C295 C 0.57266 0.17664 0.80995 0.0
C296 C 0.58953 0.14293 0.79562 0.0
C297 C 0.58201 0.04254 0.74121 0.0
C298 C 0.60566 0.072 0.71697 0.0
C299 C 0.56542 1.01691 0.71547 0.0
C300 C 0.5629 1.01573 0.732 0.0
C301 C 0.58668 0.04515 0.70768 0.0
C302 C 0.60357 0.07062 0.7335 0.0
C303 C 0.57946 0.0413 0.75873 0.0
O304 O 0.59969 1.01727 0.80207 0.0
O305 O 0.54832 0.99083 0.79976 0.0
O306 O 0.55211 1.02666 0.76608 0.0
O307 O 0.60441 0.05488 0.76799 0.0
H308 H 0.5499 0.93939 0.78365 0.0
H309 H 0.54856 0.88903 0.78668 0.0
H310 H 0.59501 0.92038 0.83195 0.0
H311 H 0.59705 0.97018 0.82831 0.0
H312 H 0.53988 0.15086 0.82894 0.0
H313 H 0.53992 0.10162 0.82547 0.0
H314 H 0.6048 0.19145 0.78995 0.0
H315 H 0.60371 0.1411 0.78634 0.0
H316 H 0.62247 0.09409 0.71145 0.0
H317 H 0.55025 0.99582 0.70877 0.0
H318 H 0.54614 0.99372 0.73761 0.0
H319 H 0.61858 0.09169 0.74027 0.0
C320 C 0.65345 0.55745 0.13901 0.0
C321 C 0.67625 0.5675 0.12689 0.0
C322 C 0.7131 0.55774 0.14331 0.0
C323 C 0.70531 0.56748 0.12896 0.0
C324 C 0.68998 0.54792 0.15534 0.0
C325 C 0.66103 0.54766 0.1532 0.0
U326 U 0.57395 0.55738 0.12279 0.0
O327 O 0.52784 0.53445 0.13554 0.0
O328 O 0.5539 0.58566 0.13294 0.0
C329 C 0.52833 0.56105 0.13854 0.0
C330 C 0.62271 0.55853 0.13807 0.0
C331 C 0.49728 0.56145 0.13944 0.0
C332 C 0.45434 0.55831 0.15615 0.0
C333 C 0.48256 0.55716 0.15423 0.0
C334 C 0.45382 0.56791 0.12839 0.0
C335 C 0.43916 0.56397 0.14334 0.0
C336 C 0.4823 0.56676 0.12648 0.0
C337 C 0.56892 0.54908 0.07447 0.0
C338 C 0.54045 0.5409 0.04961 0.0
C339 C 0.59412 0.5506 0.04937 0.0
C340 C 0.5952 0.55286 0.06592 0.0
C341 C 0.56676 0.54473 0.04088 0.0
C342 C 0.54152 0.54296 0.06615 0.0
C343 C 0.57006 0.55196 0.09195 0.0
O344 O 0.6229 0.58378 0.13255 0.0
O345 O 0.59576 0.5326 0.1352 0.0
O346 O 0.55729 0.52729 0.10137 0.0
O347 O 0.58521 0.57945 0.09909 0.0
H348 H 0.67171 0.57547 0.11579 0.0
H349 H 0.72155 0.57499 0.11914 0.0
H350 H 0.69426 0.54092 0.16676 0.0
H351 H 0.64456 0.5402 0.16296 0.0
H352 H 0.44431 0.55433 0.16784 0.0
H353 H 0.49312 0.55298 0.16454 0.0
H354 H 0.4437 0.57254 0.11808 0.0
H355 H 0.49269 0.57026 0.11488 0.0
H356 H 0.51878 0.53595 0.04367 0.0
H357 H 0.61503 0.55408 0.04321 0.0
H358 H 0.61666 0.55765 0.07205 0.0
H359 H 0.52092 0.53997 0.07245 0.0
C360 C 0.1719 0.54456 0.1618 0.0
C361 C 0.17105 0.57087 0.16815 0.0
C362 C 0.20064 0.54491 0.15897 0.0
C363 C 0.28933 0.58989 0.16809 0.0
H364 H 0.29172 0.53581 0.13553 0.0
C365 C 0.40158 0.57478 0.1604 0.0
C366 C 0.40867 0.5658 0.14577 0.0
C367 C 0.37341 0.57594 0.16287 0.0
C368 C 0.29209 0.55146 0.14461 0.0
H369 H 0.20149 0.61866 0.17634 0.0
H370 H 0.25154 0.6195 0.17137 0.0
H371 H 0.24372 0.53803 0.13977 0.0
H372 H 0.38955 0.55107 0.12223 0.0
H373 H 0.34178 0.55413 0.12626 0.0
H374 H 0.33802 0.60414 0.17258 0.0
C375 C 0.22964 0.5981 0.1687 0.0
C376 C 0.26382 0.55237 0.14727 0.0
C377 C 0.20065 0.59776 0.17152 0.0
C378 C 0.38594 0.5584 0.13368 0.0
C379 C 0.35778 0.55974 0.13612 0.0
C380 C 0.31767 0.58909 0.16539 0.0
C381 C 0.23041 0.57163 0.1623 0.0
C382 C 0.26152 0.57147 0.15916 0.0
C383 C 0.35061 0.56848 0.15082 0.0
C384 C 0.3199 0.56973 0.15361 0.0
H385 H 0.15005 0.5232 0.15894 0.0
H386 H 0.19921 0.52363 0.15435 0.0
H387 H 0.28927 0.60482 0.17747 0.0
H388 H 0.41801 0.58136 0.17014 0.0
H389 H 0.36953 0.58239 0.17448 0.0
C390 C 0.72024 0.15689 0.50565 0.0
C391 C 0.68997 0.15326 0.50291 0.0
C392 C 0.7486 0.18571 0.50258 0.0
C393 C 0.78155 0.26646 0.482 0.0
H394 H 0.85762 0.28546 0.50501 0.0
C395 C 0.90584 0.37924 0.46645 0.0
C396 C 0.92965 0.39381 0.47815 0.0
C397 C 0.87693 0.35063 0.46929 0.0
C398 C 0.83678 0.28113 0.49846 0.0
H399 H 0.66716 0.1788 0.49448 0.0
H400 H 0.71593 0.2287 0.48944 0.0
H401 H 0.80858 0.23697 0.51044 0.0
H402 H 0.93898 0.38796 0.50262 0.0
H403 H 0.88995 0.33922 0.50739 0.0
H404 H 0.80973 0.31115 0.47032 0.0
C405 C 0.71804 0.20904 0.49383 0.0
C406 C 0.80815 0.25247 0.50146 0.0
C407 C 0.68959 0.18009 0.49689 0.0
C408 C 0.92251 0.37804 0.49291 0.0
C409 C 0.89372 0.34945 0.49573 0.0
C410 C 0.81023 0.29518 0.479 0.0
C411 C 0.74847 0.21275 0.49659 0.0
C412 C 0.7796 0.24417 0.49332 0.0
C413 C 0.87002 0.33476 0.48401 0.0
C414 C 0.83876 0.30344 0.48716 0.0
H415 H 0.72218 0.13716 0.51011 0.0
H416 H 0.77079 0.18636 0.50469 0.0
H417 H 0.76089 0.2617 0.47516 0.0
H418 H 0.9096 0.38955 0.45481 0.0
H419 H 0.86019 0.34068 0.45968 0.0
C420 C 0.53528 0.62351 0.83288 0.0
C421 C 0.56386 0.62304 0.8348 0.0
C422 C 0.53513 0.6522 0.82998 0.0
C423 C 0.58862 0.74236 0.83194 0.0
H424 H 0.52202 0.74377 0.80773 0.0
C425 C 0.58526 0.86079 0.82518 0.0
C426 C 0.5701 0.86639 0.81225 0.0
C427 C 0.58363 0.83132 0.82774 0.0
C428 C 0.54118 0.74431 0.81443 0.0
H429 H 0.61478 0.6538 0.83499 0.0
H430 H 0.61457 0.70258 0.83003 0.0
H431 H 0.52081 0.69386 0.81224 0.0
H432 H 0.54094 0.84193 0.79184 0.0
H433 H 0.53929 0.79214 0.79595 0.0
H434 H 0.60963 0.79261 0.83377 0.0
C435 C 0.59195 0.68106 0.83094 0.0
C436 C 0.54021 0.71509 0.81724 0.0
C437 C 0.59209 0.65256 0.83372 0.0
C438 C 0.55339 0.84018 0.80198 0.0
C439 C 0.55205 0.81069 0.80447 0.0
C440 C 0.58964 0.77147 0.8291 0.0
C441 C 0.56353 0.68185 0.829 0.0
C442 C 0.56396 0.71329 0.82607 0.0
C443 C 0.56713 0.80535 0.81745 0.0
C444 C 0.56593 0.77343 0.8203 0.0
H445 H 0.51292 0.60161 0.83345 0.0
H446 H 0.5125 0.65105 0.82871 0.0
H447 H 0.60737 0.74285 0.83898 0.0
H448 H 0.59887 0.87906 0.83364 0.0
H449 H 0.59527 0.82907 0.83811 0.0
C450 C 0.95911 0.53369 0.16588 0.0
C451 C 0.98708 0.56187 0.16999 0.0
C452 C 0.93004 0.53306 0.16296 0.0
C453 C 0.89507 0.5864 0.15391 0.0
H454 H 0.81545 0.51153 0.16367 0.0
C455 C 0.77242 0.57745 0.13705 0.0
C456 C 0.74472 0.55793 0.14589 0.0
C457 C 0.80146 0.57783 0.1397 0.0
C458 C 0.83722 0.53298 0.16092 0.0
H459 H 1.00517 0.61178 0.17386 0.0
H460 H 0.95536 0.61082 0.16877 0.0
H461 H 0.86501 0.51261 0.169 0.0
H462 H 0.72788 0.52268 0.16454 0.0
H463 H 0.77754 0.52435 0.16945 0.0
H464 H 0.86739 0.60704 0.14612 0.0
C465 C 0.9556 0.58888 0.16778 0.0
C466 C 0.86617 0.53341 0.16383 0.0
C467 C 0.98453 0.58941 0.1709 0.0
C468 C 0.74795 0.53872 0.15746 0.0
C469 C 0.77697 0.53926 0.16017 0.0
C470 C 0.8661 0.58594 0.15096 0.0
C471 C 0.92746 0.56069 0.16375 0.0
C472 C 0.89597 0.56015 0.16045 0.0
C473 C 0.80466 0.55879 0.15138 0.0
C474 C 0.83625 0.55924 0.15441 0.0
H475 H 0.9596 0.51186 0.1649 0.0
H476 H 0.90962 0.51073 0.15976 0.0
H477 H 0.91691 0.60752 0.15083 0.0
H478 H 0.77205 0.59303 0.1281 0.0
H479 H 0.82142 0.59307 0.13234 0.0
C480 C 0.48887 0.95952 0.51176 0.0
C481 C 0.51585 0.96951 0.50218 0.0
C482 C 0.46037 0.93065 0.50897 0.0
C483 C 0.41372 0.86943 0.47765 0.0
H484 H 0.36604 0.81783 0.51302 0.0
C485 C 0.29365 0.74815 0.46692 0.0
C486 C 0.27234 0.73182 0.4794 0.0
C487 C 0.32322 0.77629 0.46941 0.0
C488 C 0.37812 0.83165 0.50276 0.0
H489 H 0.5327 0.95641 0.4816 0.0
H490 H 0.48298 0.90687 0.47639 0.0
H491 H 0.41513 0.86644 0.5175 0.0
H492 H 0.26839 0.73451 0.50481 0.0
H493 H 0.31704 0.78278 0.50887 0.0
H494 H 0.37664 0.83555 0.46284 0.0
C495 C 0.484 0.92106 0.48639 0.0
C496 C 0.40706 0.86013 0.50547 0.0
C497 C 0.51287 0.94955 0.48947 0.0
C498 C 0.28265 0.7456 0.49451 0.0
C499 C 0.31185 0.77392 0.49696 0.0
C500 C 0.3844 0.84119 0.47492 0.0
C501 C 0.45701 0.91076 0.49612 0.0
C502 C 0.42571 0.87979 0.49301 0.0
C503 C 0.33334 0.79029 0.48454 0.0
C504 C 0.36551 0.82123 0.4874 0.0
H505 H 0.4898 0.97413 0.52155 0.0
H506 H 0.44055 0.92431 0.51677 0.0
H507 H 0.42672 0.8836 0.46759 0.0
H508 H 0.28761 0.73951 0.45498 0.0
H509 H 0.33808 0.78676 0.45923 0.0
C510 C 0.54531 0.41761 0.83948 0.0
C511 C 0.57165 0.44774 0.83636 0.0
C512 C 0.54586 0.38927 0.83651 0.0
C513 C 0.59362 0.35626 0.81582 0.0
H514 H 0.53724 0.28071 0.83913 0.0
C515 C 0.58252 0.23198 0.80092 0.0
C516 C 0.57355 0.20851 0.81277 0.0
C517 C 0.58284 0.26093 0.8036 0.0
C518 C 0.55357 0.30141 0.8325 0.0
H519 H 0.61949 0.47033 0.82732 0.0
H520 H 0.62091 0.42178 0.82258 0.0
H521 H 0.53752 0.32958 0.84436 0.0
H522 H 0.55905 0.20005 0.83735 0.0
H523 H 0.5592 0.24893 0.84176 0.0
H524 H 0.61027 0.32808 0.80428 0.0
C525 C 0.59927 0.41966 0.82716 0.0
C526 C 0.55337 0.32995 0.83538 0.0
C527 C 0.59863 0.44802 0.83007 0.0
C528 C 0.56529 0.2161 0.82749 0.0
C529 C 0.56543 0.24487 0.83012 0.0
C530 C 0.59386 0.32767 0.81296 0.0
C531 C 0.57287 0.38934 0.83028 0.0
C532 C 0.57335 0.35831 0.82713 0.0
C533 C 0.57409 0.26816 0.81826 0.0
C534 C 0.57385 0.29934 0.82123 0.0
H535 H 0.5238 0.41575 0.84413 0.0
H536 H 0.52452 0.36717 0.83891 0.0
H537 H 0.60932 0.37675 0.80889 0.0
H538 H 0.58885 0.22798 0.7893 0.0
H539 H 0.58944 0.27741 0.79389 0.0
C540 C 0.57996 0.86658 0.49444 0.0
C541 C 0.58475 0.88059 0.50934 0.0
C542 C 0.57605 0.83647 0.49302 0.0
C543 C 0.57151 0.76966 0.51631 0.0
H544 H 0.63421 0.77616 0.4861 0.0
C545 C 0.6459 0.71249 0.52595 0.0
C546 C 0.63263 0.68396 0.51754 0.0
C547 C 0.63921 0.73591 0.52151 0.0
C548 C 0.61645 0.77404 0.49443 0.0
H549 H 0.58612 0.87365 0.53447 0.0
H550 H 0.58024 0.82171 0.53208 0.0
H551 H 0.61543 0.814 0.48507 0.0
H552 H 0.60517 0.65902 0.49689 0.0
H553 H 0.59436 0.70075 0.4889 0.0
H554 H 0.57461 0.73111 0.52634 0.0
C555 C 0.57878 0.83324 0.52146 0.0
C556 C 0.60533 0.79529 0.49376 0.0
C557 C 0.58224 0.86309 0.52288 0.0
C558 C 0.61581 0.68082 0.50355 0.0
C559 C 0.60946 0.70449 0.499 0.0
C560 C 0.58301 0.7488 0.51711 0.0
C561 C 0.57743 0.82042 0.50648 0.0
C562 C 0.58342 0.79383 0.50499 0.0
C563 C 0.6198 0.73126 0.50845 0.0
C564 C 0.60602 0.75147 0.50641 0.0
H565 H 0.58148 0.87976 0.48388 0.0
H566 H 0.5743 0.82677 0.48136 0.0
H567 H 0.5544 0.76775 0.52499 0.0
H568 H 0.65945 0.71571 0.53661 0.0
H569 H 0.64739 0.75669 0.52885 0.0
C570 C 0.77044 0.55473 0.82661 0.0
C571 C 0.74118 0.53324 0.81997 0.0
C572 C 0.79297 0.54589 0.82912 0.0
C573 C 0.82745 0.50281 0.81673 0.0
H574 H 0.84966 0.50328 0.86073 0.0
C575 C 0.9272 0.48093 0.83945 0.0
C576 C 0.94598 0.50172 0.85138 0.0
C577 C 0.90043 0.48146 0.83412 0.0
C578 C 0.84366 0.50306 0.84841 0.0
H579 H 0.71204 0.4862 0.8105 0.0
H580 H 0.75275 0.47094 0.81438 0.0
H581 H 0.80388 0.50846 0.85385 0.0
H582 H 0.95354 0.54089 0.86626 0.0
H583 H 0.90697 0.54206 0.85683 0.0
H584 H 0.86835 0.49924 0.81126 0.0
C585 C 0.75781 0.49442 0.81765 0.0
C586 C 0.81745 0.50568 0.84453 0.0
C587 C 0.73486 0.5031 0.8154 0.0
C588 C 0.93893 0.52426 0.85725 0.0
C589 C 0.91234 0.52483 0.85192 0.0
C590 C 0.8539 0.50038 0.82061 0.0
C591 C 0.78657 0.51565 0.82483 0.0
C592 C 0.80984 0.50641 0.82869 0.0
C593 C 0.89239 0.50279 0.8407 0.0
C594 C 0.86266 0.5015 0.83646 0.0
H595 H 0.77524 0.57778 0.83057 0.0
H596 H 0.81516 0.56239 0.83473 0.0
H597 H 0.82181 0.50372 0.80445 0.0
H598 H 0.93232 0.46333 0.83483 0.0
H599 H 0.88532 0.46435 0.82541 0.0
C600 C 0.25763 0.76357 0.15669 0.0
C601 C 0.25139 0.73586 0.16453 0.0
C602 C 0.28865 0.78645 0.15329 0.0
C603 C 0.36546 0.81282 0.17134 0.0
H604 H 0.38735 0.88426 0.14384 0.0
C605 C 0.45652 0.93034 0.19261 0.0
C606 C 0.44155 0.94811 0.19502 0.0
C607 C 0.44506 0.90667 0.18126 0.0
C608 C 0.38194 0.86427 0.15137 0.0
H609 H 0.27144 0.70819 0.17349 0.0
H610 H 0.3259 0.74763 0.16691 0.0
H611 H 0.34269 0.83244 0.13709 0.0
H612 H 0.4057 0.95818 0.18649 0.0
H613 H 0.38455 0.91573 0.16701 0.0
H614 H 0.40336 0.8446 0.18602 0.0
C615 C 0.30711 0.7524 0.1639 0.0
C616 C 0.35629 0.83468 0.1476 0.0
C617 C 0.27607 0.72984 0.16767 0.0
C618 C 0.41725 0.94436 0.18486 0.0
C619 C 0.40548 0.92036 0.17361 0.0
C620 C 0.3913 0.84208 0.17492 0.0
C621 C 0.31392 0.78171 0.15747 0.0
C622 C 0.34649 0.80919 0.15814 0.0
C623 C 0.41812 0.90012 0.17241 0.0
C624 C 0.39856 0.86847 0.1655 0.0
H625 H 0.23871 0.76848 0.15417 0.0
H626 H 0.29275 0.80875 0.14855 0.0
H627 H 0.35867 0.79408 0.1799 0.0
H628 H 0.47585 0.93352 0.20015 0.0
H629 H 0.45543 0.89163 0.18041 0.0
C630 C 0.65463 0.25826 0.49007 0.0
C631 C 0.62523 0.23891 0.48295 0.0
C632 C 0.66742 0.29088 0.49014 0.0
C633 C 0.65081 0.35528 0.47839 0.0
H634 H 0.66991 0.37694 0.5225 0.0
C635 C 0.6072 0.42136 0.51698 0.0
C636 C 0.62649 0.43922 0.52957 0.0
C637 C 0.61829 0.4076 0.50622 0.0
C638 C 0.66556 0.37188 0.51003 0.0
H639 H 0.5872 0.23754 0.46924 0.0
H640 H 0.60858 0.29437 0.4699 0.0
H641 H 0.67039 0.33131 0.51234 0.0
H642 H 0.67358 0.46053 0.53967 0.0
H643 H 0.69283 0.43618 0.52096 0.0
H644 H 0.64284 0.3946 0.47679 0.0
C645 C 0.62251 0.28495 0.47501 0.0
C646 C 0.66597 0.34565 0.50413 0.0
C647 C 0.61008 0.25238 0.47467 0.0
C648 C 0.658 0.44598 0.5303 0.0
C649 C 0.66911 0.43241 0.51953 0.0
C650 C 0.64995 0.38143 0.48441 0.0
C651 C 0.65038 0.30436 0.48354 0.0
C652 C 0.65753 0.33635 0.48838 0.0
C653 C 0.64878 0.41173 0.50796 0.0
C654 C 0.65642 0.38929 0.5004 0.0
H655 H 0.66653 0.248 0.4965 0.0
H656 H 0.68932 0.30526 0.49648 0.0
H657 H 0.64454 0.34891 0.46616 0.0
H658 H 0.58289 0.41614 0.51612 0.0
H659 H 0.60209 0.39157 0.49745 0.0
C660 C 0.39782 0.55481 0.81965 0.0
C661 C 0.40778 0.55558 0.83526 0.0
C662 C 0.37393 0.56173 0.81632 0.0
C663 C 0.32041 0.58622 0.83461 0.0
H664 H 0.25428 0.50616 0.81817 0.0
C665 C 0.19877 0.49127 0.85893 0.0
C666 C 0.18768 0.51106 0.86417 0.0
C667 C 0.2218 0.50172 0.84721 0.0
C668 C 0.27245 0.52897 0.82246 0.0
H669 H 0.40338 0.56738 0.85936 0.0
H670 H 0.36166 0.57914 0.85367 0.0
H671 H 0.30941 0.52258 0.81314 0.0
H672 H 0.18843 0.55521 0.86043 0.0
H673 H 0.2285 0.57345 0.83967 0.0
H674 H 0.28372 0.59094 0.84546 0.0
C675 C 0.37233 0.57362 0.8439 0.0
C676 C 0.30407 0.53858 0.81945 0.0
C677 C 0.39616 0.56672 0.84722 0.0
C678 C 0.19723 0.53991 0.85657 0.0
C679 C 0.21999 0.55024 0.84473 0.0
C680 C 0.28883 0.5766 0.83764 0.0
C681 C 0.35981 0.56948 0.82858 0.0
C682 C 0.32829 0.56621 0.82645 0.0
C683 C 0.2338 0.53203 0.84059 0.0
C684 C 0.26471 0.54685 0.8325 0.0
H685 H 0.40703 0.54688 0.8102 0.0
H686 H 0.3649 0.55873 0.8044 0.0
H687 H 0.33867 0.60778 0.83998 0.0
H688 H 0.19146 0.46889 0.86471 0.0
H689 H 0.23217 0.48723 0.84444 0.0
C690 C 0.87968 0.41574 0.15696 0.0
C691 C 0.90049 0.4081 0.14934 0.0
C692 C 0.84819 0.39273 0.15906 0.0
C693 C 0.78647 0.31194 0.14944 0.0
H694 H 0.77522 0.30305 0.19479 0.0
C695 C 0.69545 0.19599 0.17847 0.0
C696 C 0.67731 0.19856 0.19054 0.0
C697 C 0.72163 0.22296 0.1726 0.0
C698 C 0.77778 0.30548 0.18211 0.0
H699 H 0.90418 0.37204 0.13621 0.0
H700 H 0.84901 0.33206 0.13964 0.0
H701 H 0.82002 0.35022 0.18388 0.0
H702 H 0.67202 0.23079 0.20607 0.0
H703 H 0.71764 0.27798 0.19573 0.0
H704 H 0.74446 0.26685 0.1477 0.0
C705 C 0.85702 0.35565 0.14406 0.0
C706 C 0.80322 0.33249 0.17588 0.0
C707 C 0.88858 0.37855 0.14208 0.0
C708 C 0.68593 0.22828 0.19686 0.0
C709 C 0.71196 0.2552 0.19096 0.0
C710 C 0.76085 0.28496 0.15568 0.0
C711 C 0.83723 0.3621 0.15336 0.0
C712 C 0.80785 0.33576 0.15951 0.0
C713 C 0.72979 0.25277 0.17867 0.0
C714 C 0.75654 0.28143 0.17206 0.0
H715 H 0.88833 0.43866 0.16239 0.0
H716 H 0.83304 0.39815 0.16612 0.0
H717 H 0.78987 0.31403 0.13679 0.0
H718 H 0.68939 0.17317 0.17362 0.0
H719 H 0.73547 0.22052 0.16333 0.0
C720 C 0.05513 0.57469 0.12163 0.0
C721 C 0.0802 0.5763 0.13047 0.0
C722 C 1.05165 0.56597 0.10578 0.0
C723 C 0.09284 0.57283 0.07094 0.0
H724 H 1.02117 0.49437 0.05645 0.0
C725 C 0.07796 0.53696 0.00556 0.0
C726 C 1.04713 0.52266 0.99933 0.0
C727 C 0.083 0.54143 0.02177 0.0
C728 C 1.04111 0.51655 0.06026 0.0
H729 H 0.12151 0.57067 0.12997 0.0
H730 H 0.11637 0.55709 0.10185 0.0
H731 H 1.02771 0.50677 0.08457 0.0
H732 H 0.99739 0.50127 0.00529 0.0
H733 H 1.00621 0.51043 0.03342 0.0
H734 H 0.1056 0.58368 0.04674 0.0
C735 C 0.09909 0.56178 0.10732 0.0
C736 C 1.04489 0.52344 0.07634 0.0
C737 C 0.10199 0.56951 0.12329 0.0
C738 C 1.02147 0.51279 0.00968 0.0
C739 C 1.02652 0.51757 0.02586 0.0
C740 C 0.08878 0.56626 0.05484 0.0
C741 C 0.07377 0.55974 0.09853 0.0
C742 C 0.07065 0.5517 0.08172 0.0
C743 C 0.05735 0.53203 0.03211 0.0
C744 C 0.06269 0.53815 0.04929 0.0
H745 H 1.03793 0.57953 0.12707 0.0
H746 H 1.03198 0.56449 0.09911 0.0
H747 H 0.11278 0.59486 0.07495 0.0
H748 H 0.0983 0.54513 0.9979 0.0
H749 H 0.10703 0.55225 0.02617 0.0
C750 C 0.57947 0.05576 0.45787 0.0
C751 C 0.6102 0.06706 0.46375 0.0
C752 C 0.57467 0.05828 0.44182 0.0
C753 C 0.61598 0.10268 0.40628 0.0
H754 H 0.55236 1.02965 0.38345 0.0
C755 C 0.61613 0.0972 0.33917 0.0
C756 C 0.58719 0.08783 0.33155 0.0
C757 C 0.61709 0.09328 0.35537 0.0
C758 C 0.56998 0.05028 0.38974 0.0
H759 H 0.65997 0.09028 0.45773 0.0
H760 H 0.65167 0.09473 0.42976 0.0
H761 H 0.55704 1.02665 0.41206 0.0
H762 H 0.53642 0.06603 0.33483 0.0
H763 H 0.53816 0.05892 0.36324 0.0
H764 H 0.62923 0.12621 0.38402 0.0
C765 C 0.6313 0.08408 0.43749 0.0
C766 C 0.57259 0.04861 0.40606 0.0
C767 C 0.63605 0.08139 0.45346 0.0
C768 C 0.55906 0.07334 0.34038 0.0
C769 C 0.56003 0.06928 0.35661 0.0
C770 C 0.61341 0.10432 0.39002 0.0
C771 C 0.60058 0.07241 0.43149 0.0
C772 C 0.59593 0.07469 0.41443 0.0
C773 C 0.58913 0.0798 0.36427 0.0
C774 C 0.59071 0.07803 0.38157 0.0
H775 H 0.55916 0.04455 0.46562 0.0
H776 H 0.55078 0.0493 0.43749 0.0
H777 H 0.63379 0.12332 0.41248 0.0
H778 H 0.63808 0.10768 0.33261 0.0
H779 H 0.63978 0.10097 0.36097 0.0
C780 C 0.57839 0.55848 0.79032 0.0
C781 C 0.56478 0.52795 0.7967 0.0
C782 C 0.58563 0.5634 0.7743 0.0
C783 C 0.60917 0.54212 0.73963 0.0
H784 H 0.54912 0.55669 0.71633 0.0
C785 C 0.60781 0.54805 0.67139 0.0
C786 C 0.60004 0.56958 0.66459 0.0
C787 C 0.60562 0.54305 0.68766 0.0
C788 C 0.56643 0.55318 0.72265 0.0
H789 H 0.54982 0.479 0.79178 0.0
H790 H 0.56342 0.48791 0.76363 0.0
H791 H 0.54326 0.54841 0.74472 0.0
H792 H 0.58436 0.60306 0.66962 0.0
H793 H 0.58182 0.59539 0.69794 0.0
H794 H 0.63301 0.54782 0.71767 0.0
C795 C 0.56791 0.50775 0.77105 0.0
C796 C 0.56286 0.5482 0.73886 0.0
C797 C 0.55998 0.50267 0.78702 0.0
C798 C 0.59079 0.58652 0.67446 0.0
C799 C 0.58888 0.58175 0.6907 0.0
C800 C 0.61307 0.54757 0.72338 0.0
C801 C 0.58014 0.53803 0.76456 0.0
C802 C 0.58421 0.54274 0.74744 0.0
C803 C 0.59578 0.55961 0.6975 0.0
C804 C 0.59179 0.55334 0.71472 0.0
H805 H 0.58234 0.57833 0.79758 0.0
H806 H 0.5949 0.58689 0.76942 0.0
H807 H 0.62589 0.53797 0.74614 0.0
H808 H 0.61552 0.53497 0.66413 0.0
H809 H 0.61095 0.5257 0.69247 0.0
C810 C 0.59484 0.08353 0.56287 0.0
C811 C 0.59558 0.0602 0.55359 0.0
C812 C 0.59594 0.08239 0.57938 0.0
C813 C 0.61277 0.04329 0.61335 0.0
H814 H 0.56184 0.0703 0.63628 0.0
C815 C 0.58869 1.02237 0.68112 0.0
C816 C 0.58877 0.04675 0.68998 0.0
C817 C 0.59058 1.02396 0.66456 0.0
C818 C 0.57652 0.06297 0.63014 0.0
H819 H 0.59783 1.01717 0.55431 0.0
H820 H 0.59954 1.01484 0.58312 0.0
H821 H 0.56379 0.07333 0.60769 0.0
H822 H 0.5906 0.09183 0.68812 0.0
H823 H 0.59383 0.09462 0.65942 0.0
H824 H 0.62504 1.0325 0.63595 0.0
C825 C 0.59884 0.03456 0.57772 0.0
C826 C 0.57773 0.0648 0.61362 0.0
C827 C 0.59792 0.03587 0.56116 0.0
C828 C 0.59073 0.07272 0.68176 0.0
C829 C 0.59228 0.07415 0.66523 0.0
C830 C 0.61142 0.04132 0.62992 0.0
C831 C 0.59732 0.05755 0.58715 0.0
C832 C 0.59605 0.05522 0.6049 0.0
C833 C 0.5922 0.0498 0.65633 0.0
C834 C 0.59341 0.05132 0.63859 0.0
H835 H 0.5928 0.10243 0.55734 0.0
H836 H 0.59542 0.10096 0.58605 0.0
H837 H 0.62743 0.03595 0.6072 0.0
H838 H 0.58748 1.00211 0.687 0.0
H839 H 0.59023 1.00462 0.6582 0.0
C840 C 0.59023 0.57323 0.89583 0.0
C841 C 0.57571 0.54602 0.88635 0.0
C842 C 0.58696 0.5713 0.91225 0.0
C843 C 0.56526 0.51553 0.94636 0.0
H844 H 0.56505 0.58452 0.96864 0.0
C845 C 0.58115 0.52963 0.01474 0.0
C846 C 0.56574 0.54298 0.0231 0.0
C847 C 0.58048 0.5284 0.99816 0.0
C848 C 0.5647 0.56476 0.96272 0.0
H849 H 0.54586 0.49519 0.88689 0.0
H850 H 0.53965 0.49165 0.9157 0.0
H851 H 0.56544 0.5844 0.94007 0.0
H852 H 0.53753 0.56563 0.02008 0.0
H853 H 0.53562 0.56274 0.99148 0.0
H854 H 0.56372 0.49554 0.96911 0.0
C855 C 0.55405 0.51465 0.91038 0.0
C856 C 0.56541 0.56492 0.94618 0.0
C857 C 0.55739 0.51663 0.89382 0.0
C858 C 0.54945 0.55483 0.01424 0.0
C859 C 0.54872 0.55356 0.99769 0.0
C860 C 0.56443 0.5153 0.96296 0.0
C861 C 0.56887 0.54203 0.9199 0.0
C862 C 0.56608 0.54053 0.93766 0.0
C863 C 0.56436 0.54047 0.9893 0.0
C864 C 0.56438 0.54006 0.97147 0.0
H865 H 0.6046 0.5963 0.89054 0.0
H866 H 0.59932 0.59293 0.91897 0.0
H867 H 0.56597 0.49636 0.94037 0.0
H868 H 0.59364 0.51985 0.02101 0.0
H869 H 0.59315 0.51842 0.99231 0.0
C870 C 0.06257 0.56714 0.22691 0.0
C871 C 0.07806 0.5533 0.21915 0.0
C872 C 0.06328 0.56946 0.2435 0.0
C873 C 0.08264 0.53684 0.27973 0.0
H874 H 0.07528 0.60271 0.3011 0.0
C875 C 0.07332 0.53656 0.34809 0.0
C876 C 0.08583 0.56548 0.35622 0.0
C877 C 0.07124 0.5353 0.33154 0.0
C878 C 0.0778 0.58428 0.29544 0.0
H879 H 0.1076 0.53241 0.22273 0.0
H880 H 0.1102 0.53771 0.2512 0.0
H881 H 0.07571 0.6016 0.27249 0.0
H882 H 0.10496 0.61583 0.35268 0.0
H883 H 0.10309 0.61386 0.32419 0.0
H884 H 0.08646 0.52046 0.30254 0.0
C885 C 0.09623 0.54561 0.24479 0.0
C886 C 0.07749 0.58334 0.27884 0.0
C887 C 0.09506 0.54284 0.22832 0.0
C888 C 0.0958 0.59303 0.34709 0.0
C889 C 0.09416 0.59183 0.33054 0.0
C890 C 0.08344 0.53807 0.29627 0.0
C891 C 0.07989 0.5584 0.25279 0.0
C892 C 0.07996 0.5596 0.27063 0.0
C893 C 0.08198 0.56296 0.32238 0.0
C894 C 0.08095 0.56174 0.30452 0.0
H895 H 1.04922 0.57543 0.22021 0.0
H896 H 1.05009 0.57924 0.249 0.0
H897 H 0.0839 0.51765 0.27414 0.0
H898 H 0.06559 0.51472 0.35446 0.0
H899 H 0.06104 0.51238 0.32597 0.0
loop_
_geom_bond_atom_site_label_1
_geom_bond_atom_site_label_2
_geom_bond_distance
_geom_bond_site_symmetry_2
_ccdc_geom_bond_type
Tb0 C2 2.809 . S
Tb0 O20 2.484 . S
Tb0 O21 2.440 . S
Tb0 O22 2.658 . S
Tb0 O23 2.409 . S
Tb0 O24 2.378 . S
Tb0 O28 2.325 . S
Tb0 O31 2.341 1_455 S
Tb1 C11 2.809 1_455 S
Tb1 O22 2.325 . S
Tb1 O25 2.341 . S
Tb1 O26 2.484 1_455 S
Tb1 O27 2.440 1_455 S
Tb1 O28 2.658 . S
Tb1 O29 2.409 . S
Tb1 O30 2.378 1_455 S
C2 Tb0 2.809 . S
C2 C3 1.514 . S
C2 O20 1.248 . S
C2 O21 1.266 . S
C3 C2 1.514 . S
C3 C4 1.359 . S
C3 C8 1.348 . S
C4 C3 1.359 . S
C4 C5 1.380 . S
C4 H32 0.929 . S
C5 C4 1.380 . S
C5 C6 1.347 . S
C5 H33 0.931 . S
C6 C5 1.347 . S
C6 C7 1.369 . S
C7 C6 1.369 . S
C7 C8 1.408 . S
C7 H34 0.930 . S
C8 C3 1.348 . S
C8 C7 1.408 . S
C8 H35 0.930 . S
C9 O22 1.281 . S
C9 O23 1.254 . S
C10 O24 1.236 . S
C10 O25 1.266 . S
C11 Tb1 2.809 1_655 S
C11 C12 1.514 . S
C11 O26 1.248 . S
C11 O27 1.266 . S
C12 C11 1.514 . S
C12 C13 1.359 . S
C12 C17 1.348 . S
C13 C12 1.359 . S
C13 C14 1.380 . S
C13 H36 0.929 . S
C14 C13 1.380 . S
C14 C15 1.347 . S
C14 H37 0.931 . S
C15 C14 1.347 . S
C15 C16 1.369 . S
C16 C15 1.369 . S
C16 C17 1.408 . S
C16 H38 0.930 . S
C17 C12 1.348 . S
C17 C16 1.408 . S
C17 H39 0.930 . S
C18 O28 1.281 . S
C18 O29 1.254 . S
C19 O30 1.236 . S
C19 O31 1.266 . S
O20 Tb0 2.484 . S
O20 C2 1.248 . S
O21 Tb0 2.440 . S
O21 C2 1.266 . S
O22 Tb0 2.658 . S
O22 Tb1 2.325 . S
O22 C9 1.281 . S
O23 Tb0 2.409 . S
O23 C9 1.254 . S
O24 Tb0 2.378 . S
O24 C10 1.236 . S
O25 Tb1 2.341 . S
O25 C10 1.266 . S
O26 Tb1 2.484 1_655 S
O26 C11 1.248 . S
O27 Tb1 2.440 1_655 S
O27 C11 1.266 . S
O28 Tb0 2.325 . S
O28 Tb1 2.658 . S
O28 C18 1.281 . S
O29 Tb1 2.409 . S
O29 C18 1.254 . S
O30 Tb1 2.378 1_655 S
O30 C19 1.236 . S
O31 Tb0 2.341 1_655 S
O31 C19 1.266 . S
H32 C4 0.929 . S
H33 C5 0.931 . S
H34 C7 0.930 . S
H35 C8 0.930 . S
H36 C13 0.929 . S
H37 C14 0.931 . S
H38 C16 0.930 . S
H39 C17 0.930 . S
Tb40 C42 2.809 1_545 S
Tb40 O60 2.484 1_545 S
Tb40 O61 2.440 1_545 S
Tb40 O62 2.658 . S
Tb40 O63 2.409 . S
Tb40 O64 2.378 1_545 S
Tb40 O68 2.325 . S
Tb40 O71 2.341 . S
Tb41 C51 2.809 . S
Tb41 O62 2.325 . S
Tb41 O65 2.341 1_545 S
Tb41 O66 2.484 . S
Tb41 O67 2.440 . S
Tb41 O68 2.658 . S
Tb41 O69 2.409 . S
Tb41 O70 2.378 . S
C42 Tb40 2.809 1_565 S
C42 C43 1.514 . S
C42 O60 1.248 . S
C42 O61 1.266 . S
C43 C42 1.514 . S
C43 C44 1.359 . S
C43 C48 1.348 . S
C44 C43 1.359 . S
C44 C45 1.380 . S
C44 H72 0.929 . S
C45 C44 1.380 . S
C45 C46 1.347 . S
C45 H73 0.931 . S
C46 C45 1.347 . S
C46 C47 1.369 . S
C47 C46 1.369 . S
C47 C48 1.408 . S
C47 H74 0.930 . S
C48 C43 1.348 . S
C48 C47 1.408 . S
C48 H75 0.930 . S
C49 O62 1.281 . S
C49 O63 1.254 . S
C50 O64 1.236 . S
C50 O65 1.266 . S
C51 Tb41 2.809 . S
C51 C52 1.514 . S
C51 O66 1.248 . S
C51 O67 1.266 . S
C52 C51 1.514 . S
C52 C53 1.359 . S
C52 C57 1.348 . S
C53 C52 1.359 . S
C53 C54 1.380 . S
C53 H76 0.929 . S
C54 C53 1.380 . S
C54 C55 1.347 . S
C54 H77 0.931 . S
C55 C54 1.347 . S
C55 C56 1.369 . S
C56 C55 1.369 . S
C56 C57 1.408 . S
C56 H78 0.930 . S
C57 C52 1.348 . S
C57 C56 1.408 . S
C57 H79 0.930 . S
C58 O68 1.281 . S
C58 O69 1.254 . S
C59 O70 1.236 . S
C59 O71 1.266 . S
O60 Tb40 2.484 1_565 S
O60 C42 1.248 . S
O61 Tb40 2.440 1_565 S
O61 C42 1.266 . S
O62 Tb40 2.658 . S
O62 Tb41 2.325 . S
O62 C49 1.281 . S
O63 Tb40 2.409 . S
O63 C49 1.254 . S
O64 Tb40 2.378 1_565 S
O64 C50 1.236 . S
O65 Tb41 2.341 1_565 S
O65 C50 1.266 . S
O66 Tb41 2.484 . S
O66 C51 1.248 . S
O67 Tb41 2.440 . S
O67 C51 1.266 . S
O68 Tb40 2.325 . S
O68 Tb41 2.658 . S
O68 C58 1.281 . S
O69 Tb41 2.409 . S
O69 C58 1.254 . S
O70 Tb41 2.378 . S
O70 C59 1.236 . S
O71 Tb40 2.341 . S
O71 C59 1.266 . S
H72 C44 0.929 . S
H73 C45 0.931 . S
H74 C47 0.930 . S
H75 C48 0.930 . S
H76 C53 0.929 . S
H77 C54 0.931 . S
H78 C56 0.930 . S
H79 C57 0.930 . S
Tb80 C82 2.809 . S
Tb80 O100 2.484 . S
Tb80 O101 2.440 . S
Tb80 O102 2.658 . S
Tb80 O103 2.409 . S
Tb80 O104 2.378 . S
Tb80 O108 2.325 . S
Tb80 O111 2.341 . S
Tb81 C91 2.809 . S
Tb81 O102 2.325 . S
Tb81 O105 2.341 . S
Tb81 O106 2.484 . S
Tb81 O107 2.440 . S
Tb81 O108 2.658 . S
Tb81 O109 2.409 . S
Tb81 O110 2.378 . S
C82 Tb80 2.809 . S
C82 C83 1.514 . S
C82 O100 1.248 . S
C82 O101 1.266 . S
C83 C82 1.514 . S
C83 C84 1.359 . S
C83 C88 1.348 . S
C84 C83 1.359 . S
C84 C85 1.380 . S
C84 H112 0.929 . S
C85 C84 1.380 . S
C85 C86 1.347 . S
C85 H113 0.931 . S
C86 C85 1.347 . S
C86 C87 1.369 . S
C87 C86 1.369 . S
C87 C88 1.408 . S
C87 H114 0.930 . S
C88 C83 1.348 . S
C88 C87 1.408 . S
C88 H115 0.930 . S
C89 O102 1.281 . S
C89 O103 1.254 . S
C90 O104 1.236 . S
C90 O105 1.266 . S
C91 Tb81 2.809 . S
C91 C92 1.514 . S
C91 O106 1.248 . S
C91 O107 1.266 . S
C92 C91 1.514 . S
C92 C93 1.359 . S
C92 C97 1.348 . S
C93 C92 1.359 . S
C93 C94 1.380 . S
C93 H116 0.929 . S
C94 C93 1.380 . S
C94 C95 1.347 . S
C94 H117 0.931 . S
C95 C94 1.347 . S
C95 C96 1.369 . S
C96 C95 1.369 . S
C96 C97 1.408 . S
C96 H118 0.930 . S
C97 C92 1.348 . S
C97 C96 1.408 . S
C97 H119 0.930 . S
C98 O108 1.281 . S
C98 O109 1.254 . S
C99 O110 1.236 . S
C99 O111 1.266 . S
O100 Tb80 2.484 . S
O100 C82 1.248 . S
O101 Tb80 2.440 . S
O101 C82 1.266 . S
O102 Tb80 2.658 . S
O102 Tb81 2.325 . S
O102 C89 1.281 . S
O103 Tb80 2.409 . S
O103 C89 1.254 . S
O104 Tb80 2.378 . S
O104 C90 1.236 . S
O105 Tb81 2.341 . S
O105 C90 1.266 . S
O106 Tb81 2.484 . S
O106 C91 1.248 . S
O107 Tb81 2.440 . S
O107 C91 1.266 . S
O108 Tb80 2.325 . S
O108 Tb81 2.658 . S
O108 C98 1.281 . S
O109 Tb81 2.409 . S
O109 C98 1.254 . S
O110 Tb81 2.378 . S
O110 C99 1.236 . S
O111 Tb80 2.341 . S
O111 C99 1.266 . S
H112 C84 0.929 . S
H113 C85 0.931 . S
H114 C87 0.930 . S
H115 C88 0.930 . S
H116 C93 0.929 . S
H117 C94 0.931 . S
H118 C96 0.930 . S
H119 C97 0.930 . S
C120 C121 1.264 . S
C120 C125 1.479 . S
C120 C130 1.465 . S
C121 C120 1.264 . S
C121 C123 1.339 . S
C121 H148 0.931 . S
C122 C123 1.395 . S
C122 C124 1.320 . S
C123 C121 1.339 . S
C123 C122 1.395 . S
C123 H149 0.929 . S
C124 C122 1.320 . S
C124 C125 1.405 . S
C124 H150 0.930 . S
C125 C120 1.479 . S
C125 C124 1.405 . S
C125 H151 0.931 . S
U126 O127 2.454 . S
U126 O128 2.458 . S
U126 C129 2.984 1_545 S
U126 C130 2.847 . S
U126 C143 2.882 . S
U126 O144 2.441 . S
U126 O145 2.420 . S
U126 O146 2.455 . S
U126 O147 2.449 . S
O127 U126 2.454 . S
O127 C129 1.353 1_545 S
O128 U126 2.458 . S
O128 C129 1.286 1_545 S
C129 U126 2.984 1_565 S
C129 O127 1.353 1_565 S
C129 O128 1.286 1_565 S
C129 C131 1.363 . S
C130 C120 1.465 . S
C130 U126 2.847 . S
C130 O144 1.249 . S
C130 O145 1.202 . S
C131 C129 1.363 . S
C131 C133 1.408 . S
C131 C136 1.342 . S
C132 C133 1.310 . S
C132 C135 1.461 . S
C132 H152 0.932 . S
C133 C131 1.408 . S
C133 C132 1.310 . S
C133 H153 0.930 . S
C134 C135 1.474 . S
C134 C136 1.285 . S
C134 H154 0.929 . S
C135 C132 1.461 . S
C135 C134 1.474 . S
C136 C131 1.342 . S
C136 C134 1.285 . S
C136 H155 0.930 . S
C137 C140 1.424 . S
C137 C142 1.245 . S
C137 C143 1.428 . S
C138 C141 1.260 . S
C138 C142 1.477 . S
C138 H156 0.932 . S
C139 C140 1.384 . S
C139 C141 1.479 . S
C139 H157 0.929 . S
C140 C137 1.424 . S
C140 C139 1.384 . S
C140 H158 0.928 . S
C141 C138 1.260 . S
C141 C139 1.479 . S
C142 C137 1.245 . S
C142 C138 1.477 . S
C142 H159 0.932 . S
C143 U126 2.882 . S
C143 C137 1.428 . S
C143 O146 1.301 . S
C143 O147 1.282 . S
O144 U126 2.441 . S
O144 C130 1.249 . S
O145 U126 2.420 . S
O145 C130 1.202 . S
O146 U126 2.455 . S
O146 C143 1.301 . S
O147 U126 2.449 . S
O147 C143 1.282 . S
H148 C121 0.931 . S
H149 C123 0.929 . S
H150 C124 0.930 . S
H151 C125 0.931 . S
H152 C132 0.932 . S
H153 C133 0.930 . S
H154 C134 0.929 . S
H155 C136 0.930 . S
H156 C138 0.932 . S
H157 C139 0.929 . S
H158 C140 0.928 . S
H159 C142 0.932 . S
C160 C161 1.264 . S
C160 C165 1.479 . S
C160 C170 1.465 . S
C161 C160 1.264 . S
C161 C163 1.339 . S
C161 H188 0.931 . S
C162 C163 1.395 . S
C162 C164 1.320 . S
C163 C161 1.339 . S
C163 C162 1.395 . S
C163 H189 0.929 . S
C164 C162 1.320 . S
C164 C165 1.405 . S
C164 H190 0.930 . S
C165 C160 1.479 . S
C165 C164 1.405 . S
C165 H191 0.931 . S
U166 O167 2.454 . S
U166 O168 2.458 . S
U166 C169 2.984 . S
U166 C170 2.847 . S
U166 C183 2.882 . S
U166 O184 2.441 . S
U166 O185 2.420 . S
U166 O186 2.455 . S
U166 O187 2.449 . S
O167 U166 2.454 . S
O167 C169 1.353 . S
O168 U166 2.458 . S
O168 C169 1.286 . S
C169 U166 2.984 . S
C169 O167 1.353 . S
C169 O168 1.286 . S
C169 C171 1.363 . S
C170 C160 1.465 . S
C170 U166 2.847 . S
C170 O184 1.249 . S
C170 O185 1.202 . S
C171 C169 1.363 . S
C171 C173 1.408 . S
C171 C176 1.342 . S
C172 C173 1.310 . S
C172 C175 1.461 . S
C172 H192 0.932 . S
C173 C171 1.408 . S
C173 C172 1.310 . S
C173 H193 0.930 . S
C174 C175 1.474 . S
C174 C176 1.285 . S
C174 H194 0.929 . S
C175 C172 1.461 . S
C175 C174 1.474 . S
C176 C171 1.342 . S
C176 C174 1.285 . S
C176 H195 0.930 . S
C177 C180 1.424 . S
C177 C182 1.245 . S
C177 C183 1.428 . S
C178 C181 1.260 . S
C178 C182 1.477 . S
C178 H196 0.932 . S
C179 C180 1.384 . S
C179 C181 1.479 . S
C179 H197 0.929 . S
C180 C177 1.424 . S
C180 C179 1.384 . S
C180 H198 0.928 . S
C181 C178 1.260 . S
C181 C179 1.479 . S
C182 C177 1.245 . S
C182 C178 1.477 . S
C182 H199 0.932 . S
C183 U166 2.882 . S
C183 C177 1.428 . S
C183 O186 1.301 . S
C183 O187 1.282 . S
O184 U166 2.441 . S
O184 C170 1.249 . S
O185 U166 2.420 . S
O185 C170 1.202 . S
O186 U166 2.455 . S
O186 C183 1.301 . S
O187 U166 2.449 . S
O187 C183 1.282 . S
H188 C161 0.931 . S
H189 C163 0.929 . S
H190 C164 0.930 . S
H191 C165 0.931 . S
H192 C172 0.932 . S
H193 C173 0.930 . S
H194 C174 0.929 . S
H195 C176 0.930 . S
H196 C178 0.932 . S
H197 C179 0.929 . S
H198 C180 0.928 . S
H199 C182 0.932 . S
C200 C201 1.264 . S
C200 C205 1.479 . S
C200 C210 1.465 . S
C201 C200 1.264 . S
C201 C203 1.339 . S
C201 H228 0.931 . S
C202 C203 1.395 . S
C202 C204 1.320 . S
C203 C201 1.339 . S
C203 C202 1.395 . S
C203 H229 0.929 . S
C204 C202 1.320 . S
C204 C205 1.405 . S
C204 H230 0.930 . S
C205 C200 1.479 . S
C205 C204 1.405 . S
C205 H231 0.931 . S
U206 O207 2.454 1_655 S
U206 O208 2.458 1_655 S
U206 C209 2.984 1_655 S
U206 C210 2.847 . S
U206 C223 2.882 . S
U206 O224 2.441 . S
U206 O225 2.420 . S
U206 O226 2.455 1_655 S
U206 O227 2.449 . S
O207 U206 2.454 1_455 S
O207 C209 1.353 . S
O208 U206 2.458 1_455 S
O208 C209 1.286 . S
C209 U206 2.984 1_455 S
C209 O207 1.353 . S
C209 O208 1.286 . S
C209 C211 1.363 . S
C210 C200 1.465 . S
C210 U206 2.847 . S
C210 O224 1.249 . S
C210 O225 1.202 . S
C211 C209 1.363 . S
C211 C213 1.408 . S
C211 C216 1.342 . S
C212 C213 1.310 . S
C212 C215 1.461 . S
C212 H232 0.932 . S
C213 C211 1.408 . S
C213 C212 1.310 . S
C213 H233 0.930 . S
C214 C215 1.474 . S
C214 C216 1.285 . S
C214 H234 0.929 . S
C215 C212 1.461 . S
C215 C214 1.474 . S
C216 C211 1.342 . S
C216 C214 1.285 . S
C216 H235 0.930 . S
C217 C220 1.424 1_455 S
C217 C222 1.245 . S
C217 C223 1.428 1_455 S
C218 C221 1.260 . S
C218 C222 1.477 . S
C218 H236 0.932 . S
C219 C220 1.384 . S
C219 C221 1.479 1_655 S
C219 H237 0.929 . S
C220 C217 1.424 1_655 S
C220 C219 1.384 . S
C220 H238 0.928 . S
C221 C218 1.260 . S
C221 C219 1.479 1_455 S
C222 C217 1.245 . S
C222 C218 1.477 . S
C222 H239 0.932 . S
C223 U206 2.882 . S
C223 C217 1.428 1_655 S
C223 O226 1.301 1_655 S
C223 O227 1.282 . S
O224 U206 2.441 . S
O224 C210 1.249 . S
O225 U206 2.420 . S
O225 C210 1.202 . S
O226 U206 2.455 1_455 S
O226 C223 1.301 1_455 S
O227 U206 2.449 . S
O227 C223 1.282 . S
H228 C201 0.931 . S
H229 C203 0.929 . S
H230 C204 0.930 . S
H231 C205 0.931 . S
H232 C212 0.932 . S
H233 C213 0.930 . S
H234 C214 0.929 . S
H235 C216 0.930 . S
H236 C218 0.932 . S
H237 C219 0.929 . S
H238 C220 0.928 . S
H239 C222 0.932 . S
C240 C241 1.264 . S
C240 C245 1.479 . S
C240 C250 1.465 . S
C241 C240 1.264 . S
C241 C243 1.339 . S
C241 H268 0.931 . S
C242 C243 1.395 . S
C242 C244 1.320 . S
C243 C241 1.339 . S
C243 C242 1.395 . S
C243 H269 0.929 . S
C244 C242 1.320 . S
C244 C245 1.405 . S
C244 H270 0.930 . S
C245 C240 1.479 . S
C245 C244 1.405 . S
C245 H271 0.931 . S
U246 O247 2.454 . S
U246 O248 2.458 . S
U246 C249 2.984 . S
U246 C250 2.847 1_455 S
U246 C263 2.882 . S
U246 O264 2.441 . S
U246 O265 2.420 1_455 S
U246 O266 2.455 . S
U246 O267 2.449 . S
O247 U246 2.454 . S
O247 C249 1.353 . S
O248 U246 2.458 . S
O248 C249 1.286 . S
C249 U246 2.984 . S
C249 O247 1.353 . S
C249 O248 1.286 . S
C249 C251 1.363 . S
C250 C240 1.465 . S
C250 U246 2.847 1_655 S
C250 O264 1.249 1_655 S
C250 O265 1.202 . S
C251 C249 1.363 . S
C251 C253 1.408 . S
C251 C256 1.342 . S
C252 C253 1.310 . S
C252 C255 1.461 . S
C252 H272 0.932 . S
C253 C251 1.408 . S
C253 C252 1.310 . S
C253 H273 0.930 . S
C254 C255 1.474 . S
C254 C256 1.285 . S
C254 H274 0.929 . S
C255 C252 1.461 . S
C255 C254 1.474 . S
C256 C251 1.342 . S
C256 C254 1.285 . S
C256 H275 0.930 . S
C257 C260 1.424 . S
C257 C262 1.245 . S
C257 C263 1.428 . S
C258 C261 1.260 . S
C258 C262 1.477 . S
C258 H276 0.932 . S
C259 C260 1.384 . S
C259 C261 1.479 . S
C259 H277 0.929 1_455 S
C260 C257 1.424 . S
C260 C259 1.384 . S
C260 H278 0.928 . S
C261 C258 1.260 . S
C261 C259 1.479 . S
C262 C257 1.245 . S
C262 C258 1.477 . S
C262 H279 0.932 . S
C263 U246 2.882 . S
C263 C257 1.428 . S
C263 O266 1.301 . S
C263 O267 1.282 . S
O264 U246 2.441 . S
O264 C250 1.249 1_455 S
O265 U246 2.420 1_655 S
O265 C250 1.202 . S
O266 U246 2.455 . S
O266 C263 1.301 . S
O267 U246 2.449 . S
O267 C263 1.282 . S
H268 C241 0.931 . S
H269 C243 0.929 . S
H270 C244 0.930 . S
H271 C245 0.931 . S
H272 C252 0.932 . S
H273 C253 0.930 . S
H274 C254 0.929 . S
H275 C256 0.930 . S
H276 C258 0.932 . S
H277 C259 0.929 1_655 S
H278 C260 0.928 . S
H279 C262 0.932 . S
C280 C281 1.264 . S
C280 C285 1.479 . S
C280 C290 1.465 . S
C281 C280 1.264 . S
C281 C283 1.339 . S
C281 H308 0.931 . S
C282 C283 1.395 . S
C282 C284 1.320 . S
C283 C281 1.339 . S
C283 C282 1.395 . S
C283 H309 0.929 . S
C284 C282 1.320 . S
C284 C285 1.405 . S
C284 H310 0.930 . S
C285 C280 1.479 . S
C285 C284 1.405 . S
C285 H311 0.931 . S
U286 O287 2.454 1_565 S
U286 O288 2.458 1_565 S
U286 C289 2.984 1_565 S
U286 C290 2.847 . S
U286 C303 2.882 . S
U286 O304 2.441 . S
U286 O305 2.420 . S
U286 O306 2.455 1_565 S
U286 O307 2.449 . S
O287 U286 2.454 1_545 S
O287 C289 1.353 . S
O288 U286 2.458 1_545 S
O288 C289 1.286 . S
C289 U286 2.984 1_545 S
C289 O287 1.353 . S
C289 O288 1.286 . S
C289 C291 1.363 . S
C290 C280 1.465 . S
C290 U286 2.847 . S
C290 O304 1.249 . S
C290 O305 1.202 . S
C291 C289 1.363 . S
C291 C293 1.408 . S
C291 C296 1.342 . S
C292 C293 1.310 . S
C292 C295 1.461 . S
C292 H312 0.932 . S
C293 C291 1.408 . S
C293 C292 1.310 . S
C293 H313 0.930 . S
C294 C295 1.474 . S
C294 C296 1.285 . S
C294 H314 0.929 . S
C295 C292 1.461 . S
C295 C294 1.474 . S
C296 C291 1.342 . S
C296 C294 1.285 . S
C296 H315 0.930 . S
C297 C300 1.424 1_545 S
C297 C302 1.245 . S
C297 C303 1.428 1_545 S
C298 C301 1.260 . S
C298 C302 1.477 . S
C298 H316 0.932 . S
C299 C300 1.384 . S
C299 C301 1.479 1_565 S
C299 H317 0.929 . S
C300 C297 1.424 1_565 S
C300 C299 1.384 . S
C300 H318 0.928 . S
C301 C298 1.260 . S
C301 C299 1.479 1_545 S
C302 C297 1.245 . S
C302 C298 1.477 . S
C302 H319 0.932 . S
C303 U286 2.882 . S
C303 C297 1.428 1_565 S
C303 O306 1.301 1_565 S
C303 O307 1.282 . S
O304 U286 2.441 . S
O304 C290 1.249 . S
O305 U286 2.420 . S
O305 C290 1.202 . S
O306 U286 2.455 1_545 S
O306 C303 1.301 1_545 S
O307 U286 2.449 . S
O307 C303 1.282 . S
H308 C281 0.931 . S
H309 C283 0.929 . S
H310 C284 0.930 . S
H311 C285 0.931 . S
H312 C292 0.932 . S
H313 C293 0.930 . S
H314 C294 0.929 . S
H315 C296 0.930 . S
H316 C298 0.932 . S
H317 C299 0.929 . S
H318 C300 0.928 . S
H319 C302 0.932 . S
C320 C321 1.264 . S
C320 C325 1.479 . S
C320 C330 1.465 . S
C321 C320 1.264 . S
C321 C323 1.339 . S
C321 H348 0.931 . S
C322 C323 1.395 . S
C322 C324 1.320 . S
C323 C321 1.339 . S
C323 C322 1.395 . S
C323 H349 0.929 . S
C324 C322 1.320 . S
C324 C325 1.405 . S
C324 H350 0.930 . S
C325 C320 1.479 . S
C325 C324 1.405 . S
C325 H351 0.931 . S
U326 O327 2.454 . S
U326 O328 2.458 . S
U326 C329 2.984 . S
U326 C330 2.847 . S
U326 C343 2.882 . S
U326 O344 2.441 . S
U326 O345 2.420 . S
U326 O346 2.455 . S
U326 O347 2.449 . S
O327 U326 2.454 . S
O327 C329 1.353 . S
O328 U326 2.458 . S
O328 C329 1.286 . S
C329 U326 2.984 . S
C329 O327 1.353 . S
C329 O328 1.286 . S
C329 C331 1.363 . S
C330 C320 1.465 . S
C330 U326 2.847 . S
C330 O344 1.249 . S
C330 O345 1.202 . S
C331 C329 1.363 . S
C331 C333 1.408 . S
C331 C336 1.342 . S
C332 C333 1.310 . S
C332 C335 1.461 . S
C332 H352 0.932 . S
C333 C331 1.408 . S
C333 C332 1.310 . S
C333 H353 0.930 . S
C334 C335 1.474 . S
C334 C336 1.285 . S
C334 H354 0.929 . S
C335 C332 1.461 . S
C335 C334 1.474 . S
C336 C331 1.342 . S
C336 C334 1.285 . S
C336 H355 0.930 . S
C337 C340 1.424 . S
C337 C342 1.245 . S
C337 C343 1.428 . S
C338 C341 1.260 . S
C338 C342 1.477 . S
C338 H356 0.932 . S
C339 C340 1.384 . S
C339 C341 1.479 . S
C339 H357 0.929 . S
C340 C337 1.424 . S
C340 C339 1.384 . S
C340 H358 0.928 . S
C341 C338 1.260 . S
C341 C339 1.479 . S
C342 C337 1.245 . S
C342 C338 1.477 . S
C342 H359 0.932 . S
C343 U326 2.882 . S
C343 C337 1.428 . S
C343 O346 1.301 . S
C343 O347 1.282 . S
O344 U326 2.441 . S
O344 C330 1.249 . S
O345 U326 2.420 . S
O345 C330 1.202 . S
O346 U326 2.455 . S
O346 C343 1.301 . S
O347 U326 2.449 . S
O347 C343 1.282 . S
H348 C321 0.931 . S
H349 C323 0.929 . S
H350 C324 0.930 . S
H351 C325 0.931 . S
H352 C332 0.932 . S
H353 C333 0.930 . S
H354 C334 0.929 . S
H355 C336 0.930 . S
H356 C338 0.932 . S
H357 C339 0.929 . S
H358 C340 0.928 . S
H359 C342 0.932 . S
C360 C361 1.349 . S
C360 C362 1.327 . S
C360 H385 0.950 . S
C361 C360 1.349 . S
C361 C377 1.349 . S
C362 C360 1.327 . S
C362 C381 1.429 . S
C362 H386 0.950 . S
C363 C380 1.574 . S
C363 C382 1.368 . S
C363 H387 0.949 . S
H364 C368 0.949 . S
C365 C366 1.349 . S
C365 C367 1.327 . S
C365 H388 0.950 . S
C366 C365 1.349 . S
C366 C378 1.349 . S
C367 C365 1.327 . S
C367 C383 1.429 . S
C367 H389 0.950 . S
C368 H364 0.949 . S
C368 C376 1.574 . S
C368 C384 1.368 . S
H369 C377 0.950 . S
H370 C375 0.950 . S
H371 C376 0.949 . S
H372 C378 0.950 . S
H373 C379 0.950 . S
H374 C380 0.949 . S
C375 H370 0.950 . S
C375 C377 1.327 . S
C375 C381 1.429 . S
C376 C368 1.574 . S
C376 H371 0.949 . S
C376 C382 1.368 . S
C377 C361 1.349 . S
C377 H369 0.950 . S
C377 C375 1.327 . S
C378 C366 1.349 . S
C378 H372 0.950 . S
C378 C379 1.327 . S
C379 H373 0.950 . S
C379 C378 1.327 . S
C379 C383 1.429 . S
C380 C363 1.574 . S
C380 H374 0.949 . S
C380 C384 1.368 . S
C381 C362 1.429 . S
C381 C375 1.429 . S
C381 C382 1.523 . S
C382 C363 1.368 . S
C382 C376 1.368 . S
C382 C381 1.523 . S
C383 C367 1.429 . S
C383 C379 1.429 . S
C383 C384 1.523 . S
C384 C368 1.368 . S
C384 C380 1.368 . S
C384 C383 1.523 . S
H385 C360 0.950 . S
H386 C362 0.950 . S
H387 C363 0.949 . S
H388 C365 0.950 . S
H389 C367 0.950 . S
C390 C391 1.349 . S
C390 C392 1.327 . S
C390 H415 0.950 . S
C391 C390 1.349 . S
C391 C407 1.349 . S
C392 C390 1.327 . S
C392 C411 1.429 . S
C392 H416 0.950 . S
C393 C410 1.574 . S
C393 C412 1.368 . S
C393 H417 0.949 . S
H394 C398 0.949 . S
C395 C396 1.349 . S
C395 C397 1.327 . S
C395 H418 0.950 . S
C396 C395 1.349 . S
C396 C408 1.349 . S
C397 C395 1.327 . S
C397 C413 1.429 . S
C397 H419 0.950 . S
C398 H394 0.949 . S
C398 C406 1.574 . S
C398 C414 1.368 . S
H399 C407 0.950 . S
H400 C405 0.950 . S
H401 C406 0.949 . S
H402 C408 0.950 . S
H403 C409 0.950 . S
H404 C410 0.949 . S
C405 H400 0.950 . S
C405 C407 1.327 . S
C405 C411 1.429 . S
C406 C398 1.574 . S
C406 H401 0.949 . S
C406 C412 1.368 . S
C407 C391 1.349 . S
C407 H399 0.950 . S
C407 C405 1.327 . S
C408 C396 1.349 . S
C408 H402 0.950 . S
C408 C409 1.327 . S
C409 H403 0.950 . S
C409 C408 1.327 . S
C409 C413 1.429 . S
C410 C393 1.574 . S
C410 H404 0.949 . S
C410 C414 1.368 . S
C411 C392 1.429 . S
C411 C405 1.429 . S
C411 C412 1.523 . S
C412 C393 1.368 . S
C412 C406 1.368 . S
C412 C411 1.523 . S
C413 C397 1.429 . S
C413 C409 1.429 . S
C413 C414 1.523 . S
C414 C398 1.368 . S
C414 C410 1.368 . S
C414 C413 1.523 . S
H415 C390 0.950 . S
H416 C392 0.950 . S
H417 C393 0.949 . S
H418 C395 0.950 . S
H419 C397 0.950 . S
C420 C421 1.349 . S
C420 C422 1.327 . S
C420 H445 0.950 . S
C421 C420 1.349 . S
C421 C437 1.349 . S
C422 C420 1.327 . S
C422 C441 1.429 . S
C422 H446 0.950 . S
C423 C440 1.574 . S
C423 C442 1.368 . S
C423 H447 0.949 . S
H424 C428 0.949 . S
C425 C426 1.349 . S
C425 C427 1.327 . S
C425 H448 0.950 . S
C426 C425 1.349 . S
C426 C438 1.349 . S
C427 C425 1.327 . S
C427 C443 1.429 . S
C427 H449 0.950 . S
C428 H424 0.949 . S
C428 C436 1.574 . S
C428 C444 1.368 . S
H429 C437 0.950 . S
H430 C435 0.950 . S
H431 C436 0.949 . S
H432 C438 0.950 . S
H433 C439 0.950 . S
H434 C440 0.949 . S
C435 H430 0.950 . S
C435 C437 1.327 . S
C435 C441 1.429 . S
C436 C428 1.574 . S
C436 H431 0.949 . S
C436 C442 1.368 . S
C437 C421 1.349 . S
C437 H429 0.950 . S
C437 C435 1.327 . S
C438 C426 1.349 . S
C438 H432 0.950 . S
C438 C439 1.327 . S
C439 H433 0.950 . S
C439 C438 1.327 . S
C439 C443 1.429 . S
C440 C423 1.574 . S
C440 H434 0.949 . S
C440 C444 1.368 . S
C441 C422 1.429 . S
C441 C435 1.429 . S
C441 C442 1.523 . S
C442 C423 1.368 . S
C442 C436 1.368 . S
C442 C441 1.523 . S
C443 C427 1.429 . S
C443 C439 1.429 . S
C443 C444 1.523 . S
C444 C428 1.368 . S
C444 C440 1.368 . S
C444 C443 1.523 . S
H445 C420 0.950 . S
H446 C422 0.950 . S
H447 C423 0.949 . S
H448 C425 0.950 . S
H449 C427 0.950 . S
C450 C451 1.349 . S
C450 C452 1.327 . S
C450 H475 0.950 . S
C451 C450 1.349 . S
C451 C467 1.349 . S
C452 C450 1.327 . S
C452 C471 1.429 . S
C452 H476 0.950 . S
C453 C470 1.574 . S
C453 C472 1.368 . S
C453 H477 0.949 . S
H454 C458 0.949 . S
C455 C456 1.349 . S
C455 C457 1.327 . S
C455 H478 0.950 . S
C456 C455 1.349 . S
C456 C468 1.349 . S
C457 C455 1.327 . S
C457 C473 1.429 . S
C457 H479 0.950 . S
C458 H454 0.949 . S
C458 C466 1.574 . S
C458 C474 1.368 . S
H459 C467 0.950 . S
H460 C465 0.950 . S
H461 C466 0.949 . S
H462 C468 0.950 . S
H463 C469 0.950 . S
H464 C470 0.949 . S
C465 H460 0.950 . S
C465 C467 1.327 . S
C465 C471 1.429 . S
C466 C458 1.574 . S
C466 H461 0.949 . S
C466 C472 1.368 . S
C467 C451 1.349 . S
C467 H459 0.950 . S
C467 C465 1.327 . S
C468 C456 1.349 . S
C468 H462 0.950 . S
C468 C469 1.327 . S
C469 H463 0.950 . S
C469 C468 1.327 . S
C469 C473 1.429 . S
C470 C453 1.574 . S
C470 H464 0.949 . S
C470 C474 1.368 . S
C471 C452 1.429 . S
C471 C465 1.429 . S
C471 C472 1.523 . S
C472 C453 1.368 . S
C472 C466 1.368 . S
C472 C471 1.523 . S
C473 C457 1.429 . S
C473 C469 1.429 . S
C473 C474 1.523 . S
C474 C458 1.368 . S
C474 C470 1.368 . S
C474 C473 1.523 . S
H475 C450 0.950 . S
H476 C452 0.950 . S
H477 C453 0.949 . S
H478 C455 0.950 . S
H479 C457 0.950 . S
C480 C481 1.349 . S
C480 C482 1.327 . S
C480 H505 0.950 . S
C481 C480 1.349 . S
C481 C497 1.349 . S
C482 C480 1.327 . S
C482 C501 1.429 . S
C482 H506 0.950 . S
C483 C500 1.574 . S
C483 C502 1.368 . S
C483 H507 0.949 . S
H484 C488 0.949 . S
C485 C486 1.349 . S
C485 C487 1.327 . S
C485 H508 0.950 . S
C486 C485 1.349 . S
C486 C498 1.349 . S
C487 C485 1.327 . S
C487 C503 1.429 . S
C487 H509 0.950 . S
C488 H484 0.949 . S
C488 C496 1.574 . S
C488 C504 1.368 . S
H489 C497 0.950 . S
H490 C495 0.950 . S
H491 C496 0.949 . S
H492 C498 0.950 . S
H493 C499 0.950 . S
H494 C500 0.949 . S
C495 H490 0.950 . S
C495 C497 1.327 . S
C495 C501 1.429 . S
C496 C488 1.574 . S
C496 H491 0.949 . S
C496 C502 1.368 . S
C497 C481 1.349 . S
C497 H489 0.950 . S
C497 C495 1.327 . S
C498 C486 1.349 . S
C498 H492 0.950 . S
C498 C499 1.327 . S
C499 H493 0.950 . S
C499 C498 1.327 . S
C499 C503 1.429 . S
C500 C483 1.574 . S
C500 H494 0.949 . S
C500 C504 1.368 . S
C501 C482 1.429 . S
C501 C495 1.429 . S
C501 C502 1.523 . S
C502 C483 1.368 . S
C502 C496 1.368 . S
C502 C501 1.523 . S
C503 C487 1.429 . S
C503 C499 1.429 . S
C503 C504 1.523 . S
C504 C488 1.368 . S
C504 C500 1.368 . S
C504 C503 1.523 . S
H505 C480 0.950 . S
H506 C482 0.950 . S
H507 C483 0.949 . S
H508 C485 0.950 . S
H509 C487 0.950 . S
C510 C511 1.349 . S
C510 C512 1.327 . S
C510 H535 0.950 . S
C511 C510 1.349 . S
C511 C527 1.349 . S
C512 C510 1.327 . S
C512 C531 1.429 . S
C512 H536 0.950 . S
C513 C530 1.574 . S
C513 C532 1.368 . S
C513 H537 0.949 . S
H514 C518 0.949 . S
C515 C516 1.349 . S
C515 C517 1.327 . S
C515 H538 0.950 . S
C516 C515 1.349 . S
C516 C528 1.349 . S
C517 C515 1.327 . S
C517 C533 1.429 . S
C517 H539 0.950 . S
C518 H514 0.949 . S
C518 C526 1.574 . S
C518 C534 1.368 . S
H519 C527 0.950 . S
H520 C525 0.950 . S
H521 C526 0.949 . S
H522 C528 0.950 . S
H523 C529 0.950 . S
H524 C530 0.949 . S
C525 H520 0.950 . S
C525 C527 1.327 . S
C525 C531 1.429 . S
C526 C518 1.574 . S
C526 H521 0.949 . S
C526 C532 1.368 . S
C527 C511 1.349 . S
C527 H519 0.950 . S
C527 C525 1.327 . S
C528 C516 1.349 . S
C528 H522 0.950 . S
C528 C529 1.327 . S
C529 H523 0.950 . S
C529 C528 1.327 . S
C529 C533 1.429 . S
C530 C513 1.574 . S
C530 H524 0.949 . S
C530 C534 1.368 . S
C531 C512 1.429 . S
C531 C525 1.429 . S
C531 C532 1.523 . S
C532 C513 1.368 . S
C532 C526 1.368 . S
C532 C531 1.523 . S
C533 C517 1.429 . S
C533 C529 1.429 . S
C533 C534 1.523 . S
C534 C518 1.368 . S
C534 C530 1.368 . S
C534 C533 1.523 . S
H535 C510 0.950 . S
H536 C512 0.950 . S
H537 C513 0.949 . S
H538 C515 0.950 . S
H539 C517 0.950 . S
C540 C541 1.349 . S
C540 C542 1.327 . S
C540 H565 0.950 . S
C541 C540 1.349 . S
C541 C557 1.349 . S
C542 C540 1.327 . S
C542 C561 1.429 . S
C542 H566 0.950 . S
C543 C560 1.574 . S
C543 C562 1.368 . S
C543 H567 0.949 . S
H544 C548 0.949 . S
C545 C546 1.349 . S
C545 C547 1.327 . S
C545 H568 0.950 . S
C546 C545 1.349 . S
C546 C558 1.349 . S
C547 C545 1.327 . S
C547 C563 1.429 . S
C547 H569 0.950 . S
C548 H544 0.949 . S
C548 C556 1.574 . S
C548 C564 1.368 . S
H549 C557 0.950 . S
H550 C555 0.950 . S
H551 C556 0.949 . S
H552 C558 0.950 . S
H553 C559 0.950 . S
H554 C560 0.949 . S
C555 H550 0.950 . S
C555 C557 1.327 . S
C555 C561 1.429 . S
C556 C548 1.574 . S
C556 H551 0.949 . S
C556 C562 1.368 . S
C557 C541 1.349 . S
C557 H549 0.950 . S
C557 C555 1.327 . S
C558 C546 1.349 . S
C558 H552 0.950 . S
C558 C559 1.327 . S
C559 H553 0.950 . S
C559 C558 1.327 . S
C559 C563 1.429 . S
C560 C543 1.574 . S
C560 H554 0.949 . S
C560 C564 1.368 . S
C561 C542 1.429 . S
C561 C555 1.429 . S
C561 C562 1.523 . S
C562 C543 1.368 . S
C562 C556 1.368 . S
C562 C561 1.523 . S
C563 C547 1.429 . S
C563 C559 1.429 . S
C563 C564 1.523 . S
C564 C548 1.368 . S
C564 C560 1.368 . S
C564 C563 1.523 . S
H565 C540 0.950 . S
H566 C542 0.950 . S
H567 C543 0.949 . S
H568 C545 0.950 . S
H569 C547 0.950 . S
C570 C571 1.349 . S
C570 C572 1.327 . S
C570 H595 0.950 . S
C571 C570 1.349 . S
C571 C587 1.349 . S
C572 C570 1.327 . S
C572 C591 1.429 . S
C572 H596 0.950 . S
C573 C590 1.574 . S
C573 C592 1.368 . S
C573 H597 0.949 . S
H574 C578 0.949 . S
C575 C576 1.349 . S
C575 C577 1.327 . S
C575 H598 0.950 . S
C576 C575 1.349 . S
C576 C588 1.349 . S
C577 C575 1.327 . S
C577 C593 1.429 . S
C577 H599 0.950 . S
C578 H574 0.949 . S
C578 C586 1.574 . S
C578 C594 1.368 . S
H579 C587 0.950 . S
H580 C585 0.950 . S
H581 C586 0.949 . S
H582 C588 0.950 . S
H583 C589 0.950 . S
H584 C590 0.949 . S
C585 H580 0.950 . S
C585 C587 1.327 . S
C585 C591 1.429 . S
C586 C578 1.574 . S
C586 H581 0.949 . S
C586 C592 1.368 . S
C587 C571 1.349 . S
C587 H579 0.950 . S
C587 C585 1.327 . S
C588 C576 1.349 . S
C588 H582 0.950 . S
C588 C589 1.327 . S
C589 H583 0.950 . S
C589 C588 1.327 . S
C589 C593 1.429 . S
C590 C573 1.574 . S
C590 H584 0.949 . S
C590 C594 1.368 . S
C591 C572 1.429 . S
C591 C585 1.429 . S
C591 C592 1.523 . S
C592 C573 1.368 . S
C592 C586 1.368 . S
C592 C591 1.523 . S
C593 C577 1.429 . S
C593 C589 1.429 . S
C593 C594 1.523 . S
C594 C578 1.368 . S
C594 C590 1.368 . S
C594 C593 1.523 . S
H595 C570 0.950 . S
H596 C572 0.950 . S
H597 C573 0.949 . S
H598 C575 0.950 . S
H599 C577 0.950 . S
C600 C601 1.349 . S
C600 C602 1.327 . S
C600 H625 0.950 . S
C601 C600 1.349 . S
C601 C617 1.349 . S
C602 C600 1.327 . S
C602 C621 1.429 . S
C602 H626 0.950 . S
C603 C620 1.574 . S
C603 C622 1.368 . S
C603 H627 0.949 . S
H604 C608 0.949 . S
C605 C606 1.349 . S
C605 C607 1.327 . S
C605 H628 0.950 . S
C606 C605 1.349 . S
C606 C618 1.349 . S
C607 C605 1.327 . S
C607 C623 1.429 . S
C607 H629 0.950 . S
C608 H604 0.949 . S
C608 C616 1.574 . S
C608 C624 1.368 . S
H609 C617 0.950 . S
H610 C615 0.950 . S
H611 C616 0.949 . S
H612 C618 0.950 . S
H613 C619 0.950 . S
H614 C620 0.949 . S
C615 H610 0.950 . S
C615 C617 1.327 . S
C615 C621 1.429 . S
C616 C608 1.574 . S
C616 H611 0.949 . S
C616 C622 1.368 . S
C617 C601 1.349 . S
C617 H609 0.950 . S
C617 C615 1.327 . S
C618 C606 1.349 . S
C618 H612 0.950 . S
C618 C619 1.327 . S
C619 H613 0.950 . S
C619 C618 1.327 . S
C619 C623 1.429 . S
C620 C603 1.574 . S
C620 H614 0.949 . S
C620 C624 1.368 . S
C621 C602 1.429 . S
C621 C615 1.429 . S
C621 C622 1.523 . S
C622 C603 1.368 . S
C622 C616 1.368 . S
C622 C621 1.523 . S
C623 C607 1.429 . S
C623 C619 1.429 . S
C623 C624 1.523 . S
C624 C608 1.368 . S
C624 C620 1.368 . S
C624 C623 1.523 . S
H625 C600 0.950 . S
H626 C602 0.950 . S
H627 C603 0.949 . S
H628 C605 0.950 . S
H629 C607 0.950 . S
C630 C631 1.349 . S
C630 C632 1.327 . S
C630 H655 0.950 . S
C631 C630 1.349 . S
C631 C647 1.349 . S
C632 C630 1.327 . S
C632 C651 1.429 . S
C632 H656 0.950 . S
C633 C650 1.574 . S
C633 C652 1.368 . S
C633 H657 0.949 . S
H634 C638 0.949 . S
C635 C636 1.349 . S
C635 C637 1.327 . S
C635 H658 0.950 . S
C636 C635 1.349 . S
C636 C648 1.349 . S
C637 C635 1.327 . S
C637 C653 1.429 . S
C637 H659 0.950 . S
C638 H634 0.949 . S
C638 C646 1.574 . S
C638 C654 1.368 . S
H639 C647 0.950 . S
H640 C645 0.950 . S
H641 C646 0.949 . S
H642 C648 0.950 . S
H643 C649 0.950 . S
H644 C650 0.949 . S
C645 H640 0.950 . S
C645 C647 1.327 . S
C645 C651 1.429 . S
C646 C638 1.574 . S
C646 H641 0.949 . S
C646 C652 1.368 . S
C647 C631 1.349 . S
C647 H639 0.950 . S
C647 C645 1.327 . S
C648 C636 1.349 . S
C648 H642 0.950 . S
C648 C649 1.327 . S
C649 H643 0.950 . S
C649 C648 1.327 . S
C649 C653 1.429 . S
C650 C633 1.574 . S
C650 H644 0.949 . S
C650 C654 1.368 . S
C651 C632 1.429 . S
C651 C645 1.429 . S
C651 C652 1.523 . S
C652 C633 1.368 . S
C652 C646 1.368 . S
C652 C651 1.523 . S
C653 C637 1.429 . S
C653 C649 1.429 . S
C653 C654 1.523 . S
C654 C638 1.368 . S
C654 C650 1.368 . S
C654 C653 1.523 . S
H655 C630 0.950 . S
H656 C632 0.950 . S
H657 C633 0.949 . S
H658 C635 0.950 . S
H659 C637 0.950 . S
C660 C661 1.349 . S
C660 C662 1.327 . S
C660 H685 0.950 . S
C661 C660 1.349 . S
C661 C677 1.349 . S
C662 C660 1.327 . S
C662 C681 1.429 . S
C662 H686 0.950 . S
C663 C680 1.574 . S
C663 C682 1.368 . S
C663 H687 0.949 . S
H664 C668 0.949 . S
C665 C666 1.349 . S
C665 C667 1.327 . S
C665 H688 0.950 . S
C666 C665 1.349 . S
C666 C678 1.349 . S
C667 C665 1.327 . S
C667 C683 1.429 . S
C667 H689 0.950 . S
C668 H664 0.949 . S
C668 C676 1.574 . S
C668 C684 1.368 . S
H669 C677 0.950 . S
H670 C675 0.950 . S
H671 C676 0.949 . S
H672 C678 0.950 . S
H673 C679 0.950 . S
H674 C680 0.949 . S
C675 H670 0.950 . S
C675 C677 1.327 . S
C675 C681 1.429 . S
C676 C668 1.574 . S
C676 H671 0.949 . S
C676 C682 1.368 . S
C677 C661 1.349 . S
C677 H669 0.950 . S
C677 C675 1.327 . S
C678 C666 1.349 . S
C678 H672 0.950 . S
C678 C679 1.327 . S
C679 H673 0.950 . S
C679 C678 1.327 . S
C679 C683 1.429 . S
C680 C663 1.574 . S
C680 H674 0.949 . S
C680 C684 1.368 . S
C681 C662 1.429 . S
C681 C675 1.429 . S
C681 C682 1.523 . S
C682 C663 1.368 . S
C682 C676 1.368 . S
C682 C681 1.523 . S
C683 C667 1.429 . S
C683 C679 1.429 . S
C683 C684 1.523 . S
C684 C668 1.368 . S
C684 C680 1.368 . S
C684 C683 1.523 . S
H685 C660 0.950 . S
H686 C662 0.950 . S
H687 C663 0.949 . S
H688 C665 0.950 . S
H689 C667 0.950 . S
C690 C691 1.349 . S
C690 C692 1.327 . S
C690 H715 0.950 . S
C691 C690 1.349 . S
C691 C707 1.349 . S
C692 C690 1.327 . S
C692 C711 1.429 . S
C692 H716 0.950 . S
C693 C710 1.574 . S
C693 C712 1.368 . S
C693 H717 0.949 . S
H694 C698 0.949 . S
C695 C696 1.349 . S
C695 C697 1.327 . S
C695 H718 0.950 . S
C696 C695 1.349 . S
C696 C708 1.349 . S
C697 C695 1.327 . S
C697 C713 1.429 . S
C697 H719 0.950 . S
C698 H694 0.949 . S
C698 C706 1.574 . S
C698 C714 1.368 . S
H699 C707 0.950 . S
H700 C705 0.950 . S
H701 C706 0.949 . S
H702 C708 0.950 . S
H703 C709 0.950 . S
H704 C710 0.949 . S
C705 H700 0.950 . S
C705 C707 1.327 . S
C705 C711 1.429 . S
C706 C698 1.574 . S
C706 H701 0.949 . S
C706 C712 1.368 . S
C707 C691 1.349 . S
C707 H699 0.950 . S
C707 C705 1.327 . S
C708 C696 1.349 . S
C708 H702 0.950 . S
C708 C709 1.327 . S
C709 H703 0.950 . S
C709 C708 1.327 . S
C709 C713 1.429 . S
C710 C693 1.574 . S
C710 H704 0.949 . S
C710 C714 1.368 . S
C711 C692 1.429 . S
C711 C705 1.429 . S
C711 C712 1.523 . S
C712 C693 1.368 . S
C712 C706 1.368 . S
C712 C711 1.523 . S
C713 C697 1.429 . S
C713 C709 1.429 . S
C713 C714 1.523 . S
C714 C698 1.368 . S
C714 C710 1.368 . S
C714 C713 1.523 . S
H715 C690 0.950 . S
H716 C692 0.950 . S
H717 C693 0.949 . S
H718 C695 0.950 . S
H719 C697 0.950 . S
C720 C721 1.349 1_655 S
C720 C722 1.327 . S
C720 H745 0.950 . S
C721 C720 1.349 1_455 S
C721 C737 1.349 . S
C722 C720 1.327 . S
C722 C741 1.429 1_655 S
C722 H746 0.950 . S
C723 C740 1.574 . S
C723 C742 1.368 . S
C723 H747 0.949 . S
H724 C728 0.949 . S
C725 C726 1.349 . S
C725 C727 1.327 1_556 S
C725 H748 0.950 . S
C726 C725 1.349 . S
C726 C738 1.390 1_455 S
C727 C725 1.327 1_554 S
C727 C743 1.429 . S
C727 H749 0.950 . S
C728 H724 0.949 . S
C728 C736 1.574 . S
C728 C744 1.368 1_655 S
H729 C737 0.950 . S
H730 C735 0.950 . S
H731 C736 0.949 . S
H732 C738 0.983 . S
H733 C739 0.950 . S
H734 C740 0.949 . S
C735 H730 0.950 . S
C735 C737 1.327 . S
C735 C741 1.429 . S
C736 C728 1.574 . S
C736 H731 0.949 . S
C736 C742 1.368 1_655 S
C737 C721 1.349 . S
C737 H729 0.950 . S
C737 C735 1.327 . S
C738 C726 1.390 1_655 S
C738 H732 0.983 . S
C738 C739 1.256 1_556 S
C739 H733 0.950 . S
C739 C738 1.256 1_554 S
C739 C743 1.429 1_655 S
C740 C723 1.574 . S
C740 H734 0.949 . S
C740 C744 1.368 . S
C741 C722 1.429 1_455 S
C741 C735 1.429 . S
C741 C742 1.523 . S
C742 C723 1.368 . S
C742 C736 1.368 1_455 S
C742 C741 1.523 . S
C743 C727 1.429 . S
C743 C739 1.429 1_455 S
C743 C744 1.523 . S
C744 C728 1.368 1_455 S
C744 C740 1.368 . S
C744 C743 1.523 . S
H745 C720 0.950 . S
H746 C722 0.950 . S
H747 C723 0.949 . S
H748 C725 0.950 . S
H749 C727 0.950 . S
C750 C751 1.349 . S
C750 C752 1.327 . S
C750 H775 0.950 1_545 S
C751 C750 1.349 . S
C751 C767 1.349 . S
C752 C750 1.327 . S
C752 C771 1.429 . S
C752 H776 0.950 1_545 S
C753 C770 1.574 . S
C753 C772 1.368 . S
C753 H777 0.949 . S
H754 C758 0.935 1_565 S
C755 C756 1.349 . S
C755 C757 1.327 . S
C755 H778 0.950 . S
C756 C755 1.349 . S
C756 C768 1.349 . S
C757 C755 1.327 . S
C757 C773 1.429 . S
C757 H779 0.950 . S
C758 H754 0.935 1_545 S
C758 C766 1.574 . S
C758 C774 1.368 . S
H759 C767 0.950 . S
H760 C765 0.950 . S
H761 C766 0.949 1_565 S
H762 C768 0.950 . S
H763 C769 0.950 . S
H764 C770 0.949 . S
C765 H760 0.950 . S
C765 C767 1.327 . S
C765 C771 1.429 . S
C766 C758 1.574 . S
C766 H761 0.949 1_545 S
C766 C772 1.368 . S
C767 C751 1.349 . S
C767 H759 0.950 . S
C767 C765 1.327 . S
C768 C756 1.349 . S
C768 H762 0.950 . S
C768 C769 1.327 . S
C769 H763 0.950 . S
C769 C768 1.327 . S
C769 C773 1.429 . S
C770 C753 1.574 . S
C770 H764 0.949 . S
C770 C774 1.368 . S
C771 C752 1.429 . S
C771 C765 1.429 . S
C771 C772 1.523 . S
C772 C753 1.368 . S
C772 C766 1.368 . S
C772 C771 1.523 . S
C773 C757 1.429 . S
C773 C769 1.429 . S
C773 C774 1.523 . S
C774 C758 1.368 . S
C774 C770 1.368 . S
C774 C773 1.523 . S
H775 C750 0.950 1_565 S
H776 C752 0.950 1_565 S
H777 C753 0.949 . S
H778 C755 0.950 . S
H779 C757 0.950 . S
C780 C781 1.349 . S
C780 C782 1.327 . S
C780 H805 0.950 . S
C781 C780 1.349 . S
C781 C797 1.349 . S
C782 C780 1.327 . S
C782 C801 1.429 . S
C782 H806 0.950 . S
C783 C800 1.574 . S
C783 C802 1.368 . S
C783 H807 0.949 . S
H784 C788 0.949 . S
C785 C786 1.349 . S
C785 C787 1.327 . S
C785 H808 0.950 . S
C786 C785 1.349 . S
C786 C798 1.349 . S
C787 C785 1.327 . S
C787 C803 1.429 . S
C787 H809 0.950 . S
C788 H784 0.949 . S
C788 C796 1.574 . S
C788 C804 1.368 . S
H789 C797 0.950 . S
H790 C795 0.950 . S
H791 C796 0.949 . S
H792 C798 0.950 . S
H793 C799 0.950 . S
H794 C800 0.949 . S
C795 H790 0.950 . S
C795 C797 1.327 . S
C795 C801 1.429 . S
C796 C788 1.574 . S
C796 H791 0.949 . S
C796 C802 1.368 . S
C797 C781 1.349 . S
C797 H789 0.950 . S
C797 C795 1.327 . S
C798 C786 1.349 . S
C798 H792 0.950 . S
C798 C799 1.327 . S
C799 H793 0.950 . S
C799 C798 1.327 . S
C799 C803 1.429 . S
C800 C783 1.574 . S
C800 H794 0.949 . S
C800 C804 1.368 . S
C801 C782 1.429 . S
C801 C795 1.429 . S
C801 C802 1.523 . S
C802 C783 1.368 . S
C802 C796 1.368 . S
C802 C801 1.523 . S
C803 C787 1.429 . S
C803 C799 1.429 . S
C803 C804 1.523 . S
C804 C788 1.368 . S
C804 C800 1.368 . S
C804 C803 1.523 . S
H805 C780 0.950 . S
H806 C782 0.950 . S
H807 C783 0.949 . S
H808 C785 0.950 . S
H809 C787 0.950 . S
C810 C811 1.349 . S
C810 C812 1.327 . S
C810 H835 0.950 . S
C811 C810 1.349 . S
C811 C827 1.365 . S
C812 C810 1.327 . S
C812 C831 1.429 . S
C812 H836 0.950 . S
C813 C830 1.574 . S
C813 C832 1.368 1_565 S
C813 H837 0.949 . S
H814 C818 0.949 . S
C815 C816 1.349 1_565 S
C815 C817 1.327 . S
C815 H838 0.950 . S
C816 C815 1.349 1_545 S
C816 C828 1.349 . S
C817 C815 1.327 . S
C817 C833 1.429 1_565 S
C817 H839 0.950 . S
C818 H814 0.949 . S
C818 C826 1.574 . S
C818 C834 1.368 . S
H819 C827 0.934 1_565 S
H820 C825 0.950 . S
H821 C826 0.949 . S
H822 C828 0.950 . S
H823 C829 0.950 . S
H824 C830 0.949 . S
C825 H820 0.950 . S
C825 C827 1.327 1_565 S
C825 C831 1.429 1_565 S
C826 C818 1.574 . S
C826 H821 0.949 . S
C826 C832 1.368 . S
C827 C811 1.365 . S
C827 H819 0.934 1_545 S
C827 C825 1.327 1_545 S
C828 C816 1.349 . S
C828 H822 0.950 . S
C828 C829 1.327 . S
C829 H823 0.950 . S
C829 C828 1.327 . S
C829 C833 1.429 . S
C830 C813 1.574 . S
C830 H824 0.949 . S
C830 C834 1.368 1_565 S
C831 C812 1.429 . S
C831 C825 1.429 1_545 S
C831 C832 1.523 . S
C832 C813 1.368 1_545 S
C832 C826 1.368 . S
C832 C831 1.523 . S
C833 C817 1.429 1_545 S
C833 C829 1.429 . S
C833 C834 1.523 . S
C834 C818 1.368 . S
C834 C830 1.368 1_545 S
C834 C833 1.523 . S
H835 C810 0.950 . S
H836 C812 0.950 . S
H837 C813 0.949 . S
H838 C815 0.950 . S
H839 C817 0.950 . S
C840 C841 1.349 . S
C840 C842 1.327 . S
C840 H865 0.950 . S
C841 C840 1.349 . S
C841 C857 1.349 . S
C842 C840 1.327 . S
C842 C861 1.429 . S
C842 H866 0.950 . S
C843 C860 1.574 . S
C843 C862 1.368 . S
C843 H867 0.949 . S
H844 C848 0.949 . S
C845 C846 1.364 . S
C845 C847 1.294 1_554 S
C845 H868 0.968 . S
C846 C845 1.364 . S
C846 C858 1.349 1_554 S
C847 C845 1.294 1_556 S
C847 C863 1.429 . S
C847 H869 0.950 . S
C848 H844 0.949 . S
C848 C856 1.574 . S
C848 C864 1.368 . S
H849 C857 0.950 . S
H850 C855 0.950 . S
H851 C856 0.949 . S
H852 C858 0.950 1_554 S
H853 C859 0.950 . S
H854 C860 0.949 . S
C855 H850 0.950 . S
C855 C857 1.327 . S
C855 C861 1.429 . S
C856 C848 1.574 . S
C856 H851 0.949 . S
C856 C862 1.368 . S
C857 C841 1.349 . S
C857 H849 0.950 . S
C857 C855 1.327 . S
C858 C846 1.349 1_556 S
C858 H852 0.950 1_556 S
C858 C859 1.327 . S
C859 H853 0.950 . S
C859 C858 1.327 . S
C859 C863 1.429 . S
C860 C843 1.574 . S
C860 H854 0.949 . S
C860 C864 1.368 . S
C861 C842 1.429 . S
C861 C855 1.429 . S
C861 C862 1.523 . S
C862 C843 1.368 . S
C862 C856 1.368 . S
C862 C861 1.523 . S
C863 C847 1.429 . S
C863 C859 1.429 . S
C863 C864 1.523 . S
C864 C848 1.368 . S
C864 C860 1.368 . S
C864 C863 1.523 . S
H865 C840 0.950 . S
H866 C842 0.950 . S
H867 C843 0.949 . S
H868 C845 0.968 . S
H869 C847 0.950 . S
C870 C871 1.349 . S
C870 C872 1.327 . S
C870 H895 0.950 . S
C871 C870 1.349 . S
C871 C887 1.349 . S
C872 C870 1.327 . S
C872 C891 1.429 . S
C872 H896 0.950 . S
C873 C890 1.574 . S
C873 C892 1.368 . S
C873 H897 0.949 . S
H874 C878 0.949 . S
C875 C876 1.349 . S
C875 C877 1.327 . S
C875 H898 0.950 . S
C876 C875 1.349 . S
C876 C888 1.349 . S
C877 C875 1.327 . S
C877 C893 1.429 . S
C877 H899 0.950 . S
C878 H874 0.949 . S
C878 C886 1.574 . S
C878 C894 1.368 . S
H879 C887 0.950 . S
H880 C885 0.950 . S
H881 C886 0.949 . S
H882 C888 0.950 . S
H883 C889 0.950 . S
H884 C890 0.949 . S
C885 H880 0.950 . S
C885 C887 1.327 . S
C885 C891 1.429 . S
C886 C878 1.574 . S
C886 H881 0.949 . S
C886 C892 1.368 . S
C887 C871 1.349 . S
C887 H879 0.950 . S
C887 C885 1.327 . S
C888 C876 1.349 . S
C888 H882 0.950 . S
C888 C889 1.327 . S
C889 H883 0.950 . S
C889 C888 1.327 . S
C889 C893 1.429 . S
C890 C873 1.574 . S
C890 H884 0.949 . S
C890 C894 1.368 . S
C891 C872 1.429 . S
C891 C885 1.429 . S
C891 C892 1.523 . S
C892 C873 1.368 . S
C892 C886 1.368 . S
C892 C891 1.523 . S
C893 C877 1.429 . S
C893 C889 1.429 . S
C893 C894 1.523 . S
C894 C878 1.368 . S
C894 C890 1.368 . S
C894 C893 1.523 . S
H895 C870 0.950 . S
H896 C872 0.950 . S
H897 C873 0.949 . S
H898 C875 0.950 . S
H899 C877 0.950 . S
C361 C10 3.009 . S
C366 C335 2.975 . S
C391 C59 3.082 . S
C396 C242 3.049 . S
C421 C90 2.991 . S
C426 C282 2.970 . S
C451 C19 3.084 . S
C456 C322 3.051 . S
C486 C255 2.978 . S
C481 C50 3.011 . S
C516 C295 3.053 . S
C511 C99 3.103 . S
C541 C46 0.337 . S
C546 C162 0.377 . S
C571 C95 0.270 . S
C576 C202 0.235 . S
C601 C6 0.363 . S
C606 C135 0.379 . S
C636 C175 0.273 . S
C631 C55 0.286 . S
C666 C215 0.386 . S
C661 C86 0.371 . S
C691 C15 0.273 . S
C696 C122 0.238 . S
C726 C221 1.116 . S
C721 C9 1.095 . S
C751 C49 1.097 . S
C756 C141 1.118 . S
C781 C89 1.091 . S
C786 C181 1.105 . S
C816 C301 1.763 . S
C811 C58 1.695 . S
C846 C341 1.757 . S
C841 C98 1.693 . S
C871 C18 1.694 . S
C876 C261 1.759 . S
