# Generated by pormake.
# Topology pyr, (3,6)-cn, num edge types: 1
# Building blocks:
#     Node 0, Type 0, BuildingBlock: OLANEW_clean_sbu_2, # of connection points: 3
#     Node 1, Type 0, BuildingBlock: OLANEW_clean_sbu_2, # of connection points: 3
#     Node 2, Type 0, BuildingBlock: OLANEW_clean_sbu_2, # of connection points: 3
#     Node 3, Type 0, BuildingBlock: OLANEW_clean_sbu_2, # of connection points: 3
#     Node 4, Type 0, BuildingBlock: OLANEW_clean_sbu_2, # of connection points: 3
#     Node 5, Type 0, BuildingBlock: OLANEW_clean_sbu_2, # of connection points: 3
#     Node 6, Type 0, BuildingBlock: OLANEW_clean_sbu_2, # of connection points: 3
#     Node 7, Type 0, BuildingBlock: OLANEW_clean_sbu_2, # of connection points: 3
#     Node 8, Type 1, BuildingBlock: CIFDUS_clean_sbu_1, # of connection points: 6
#     Node 9, Type 1, BuildingBlock: CIFDUS_clean_sbu_1, # of connection points: 6
#     Node 10, Type 1, BuildingBlock: CIFDUS_clean_sbu_1, # of connection points: 6
#     Node 11, Type 1, BuildingBlock: CIFDUS_clean_sbu_1, # of connection points: 6
#     Edge 12, Type (0, 1), BuildingBlock: ZUJKAS_clean_linker_0, # of connection points: 2
#     Edge 13, Type (0, 1), BuildingBlock: ZUJKAS_clean_linker_0, # of connection points: 2
#     Edge 14, Type (0, 1), BuildingBlock: ZUJKAS_clean_linker_0, # of connection points: 2
#     Edge 15, Type (0, 1), BuildingBlock: ZUJKAS_clean_linker_0, # of connection points: 2
#     Edge 16, Type (0, 1), BuildingBlock: ZUJKAS_clean_linker_0, # of connection points: 2
#     Edge 17, Type (0, 1), BuildingBlock: ZUJKAS_clean_linker_0, # of connection points: 2
#     Edge 18, Type (0, 1), BuildingBlock: ZUJKAS_clean_linker_0, # of connection points: 2
#     Edge 19, Type (0, 1), BuildingBlock: ZUJKAS_clean_linker_0, # of connection points: 2
#     Edge 20, Type (0, 1), BuildingBlock: ZUJKAS_clean_linker_0, # of connection points: 2
#     Edge 21, Type (0, 1), BuildingBlock: ZUJKAS_clean_linker_0, # of connection points: 2
#     Edge 22, Type (0, 1), BuildingBlock: ZUJKAS_clean_linker_0, # of connection points: 2
#     Edge 23, Type (0, 1), BuildingBlock: ZUJKAS_clean_linker_0, # of connection points: 2
#     Edge 24, Type (0, 1), BuildingBlock: ZUJKAS_clean_linker_0, # of connection points: 2
#     Edge 25, Type (0, 1), BuildingBlock: ZUJKAS_clean_linker_0, # of connection points: 2
#     Edge 26, Type (0, 1), BuildingBlock: ZUJKAS_clean_linker_0, # of connection points: 2
#     Edge 27, Type (0, 1), BuildingBlock: ZUJKAS_clean_linker_0, # of connection points: 2
#     Edge 28, Type (0, 1), BuildingBlock: ZUJKAS_clean_linker_0, # of connection points: 2
#     Edge 29, Type (0, 1), BuildingBlock: ZUJKAS_clean_linker_0, # of connection points: 2
#     Edge 30, Type (0, 1), BuildingBlock: ZUJKAS_clean_linker_0, # of connection points: 2
#     Edge 31, Type (0, 1), BuildingBlock: ZUJKAS_clean_linker_0, # of connection points: 2
#     Edge 32, Type (0, 1), BuildingBlock: ZUJKAS_clean_linker_0, # of connection points: 2
#     Edge 33, Type (0, 1), BuildingBlock: ZUJKAS_clean_linker_0, # of connection points: 2
#     Edge 34, Type (0, 1), BuildingBlock: ZUJKAS_clean_linker_0, # of connection points: 2
#     Edge 35, Type (0, 1), BuildingBlock: ZUJKAS_clean_linker_0, # of connection points: 2
# Relax obj value: 0.069
# Max RMSD: 0.150
# Mean RMSD: 0.123
data_MOF--net-pry--node1-OLANEW_clean_sbu_2--node2-CIFDUS_clean_sbu_1--edge1-ZUJKAS_clean_linker_0
_symmetry_space_group_name_H-M    P1
_symmetry_Int_Tables_number       1
_symmetry_cell_setting            triclinic
loop_
_symmetry_equiv_pos_as_xyz
'x, y, z'
_cell_length_a     50.353262
_cell_length_b     49.054575
_cell_length_c     47.619132
_cell_angle_alpha  96.035662
_cell_angle_beta   90.534004
_cell_angle_gamma 98.762333
loop_
_atom_site_label
_atom_site_type_symbol
_atom_site_fract_x
_atom_site_fract_y
_atom_site_fract_z
_atom_type_partial_charge
O0 O 0.20005 0.1664 0.14428 0.0
Cd1 Cd 0.16236 0.19088 0.15976 0.0
O2 O 0.20216 0.14145 0.18029 0.0
Cd3 Cd 0.17116 0.15257 0.20983 0.0
O4 O 0.15088 0.14641 0.25023 0.0
C5 C 0.16244 0.13351 0.26744 0.0
O6 O 0.1854 0.12543 0.26033 0.0
C7 C 0.21061 0.14858 0.15655 0.0
C8 C 0.14784 0.23004 0.12515 0.0
O9 O 0.1656 0.23711 0.14512 0.0
O10 O 0.13746 0.20437 0.12092 0.0
O11 O 0.4572 0.94877 0.68494 0.0
Cd12 Cd 0.4528 0.9337 0.634 0.0
O13 O 0.41342 0.94297 0.68577 0.0
Cd14 Cd 0.37135 0.94271 0.69742 0.0
O15 O 0.32878 0.93779 0.68431 0.0
C16 C 0.32312 0.95077 0.66382 0.0
O17 O 0.34258 0.96694 0.65278 0.0
C18 C 0.43595 0.9503 0.69888 0.0
C19 C 0.46618 0.88121 0.61725 0.0
O20 O 0.48388 0.90306 0.61811 0.0
O21 O 0.44231 0.88414 0.62479 0.0
O22 O 0.74683 0.35291 0.79332 0.0
Cd23 Cd 0.71758 0.33286 0.75227 0.0
O24 O 0.7349 0.31546 0.81418 0.0
Cd25 Cd 0.72904 0.28367 0.84397 0.0
O26 O 0.70986 0.24543 0.86065 0.0
C27 C 0.71357 0.23987 0.88576 0.0
O28 O 0.73004 0.25751 0.90295 0.0
C29 C 0.74898 0.33942 0.81447 0.0
C30 C 0.6979 0.37036 0.71978 0.0
O31 O 0.68491 0.3612 0.74075 0.0
O32 O 0.72063 0.36241 0.71455 0.0
O33 O 0.95319 0.67034 0.41139 0.0
Cd34 Cd 0.93632 0.62834 0.37977 0.0
O35 O 0.92805 0.65158 0.44362 0.0
Cd36 Cd 0.90592 0.6493 0.48293 0.0
O37 O 0.86983 0.63632 0.50636 0.0
C38 C 0.85956 0.65211 0.52468 0.0
O39 O 0.87175 0.67765 0.53144 0.0
C40 C 0.94477 0.6717 0.43654 0.0
C41 C 0.93993 0.63122 0.32145 0.0
O42 O 0.95954 0.6256 0.33604 0.0
O43 O 0.91887 0.6365 0.33457 0.0
O44 O 0.88013 0.85008 0.87013 0.0
Cd45 Cd 0.8634 0.83372 0.91516 0.0
O46 O 0.84857 0.87603 0.86412 0.0
Cd47 Cd 0.82639 0.87587 0.90368 0.0
O48 O 0.79655 0.89289 0.93135 0.0
C49 C 0.79337 0.91794 0.92964 0.0
O50 O 0.80845 0.93236 0.91233 0.0
C51 C 0.86904 0.86561 0.85525 0.0
C52 C 0.88916 0.79316 0.93765 0.0
O53 O 0.87141 0.78655 0.91763 0.0
O54 O 0.89535 0.81895 0.94664 0.0
O55 O 0.64228 0.09137 0.41089 0.0
Cd56 Cd 0.65906 0.10739 0.45953 0.0
O57 O 0.62059 0.12651 0.41808 0.0
Cd58 Cd 0.59461 0.15845 0.41597 0.0
O59 O 0.57875 0.19587 0.43335 0.0
C60 C 0.57102 0.21307 0.41808 0.0
O61 O 0.57172 0.20811 0.39046 0.0
C62 C 0.62594 0.10594 0.40165 0.0
C63 C 0.70814 0.0936 0.47691 0.0
O64 O 0.68585 0.07811 0.4808 0.0
O65 O 0.7073 0.1151 0.46396 0.0
O66 O 0.36175 0.79185 0.27498 0.0
Cd67 Cd 0.33812 0.74785 0.28921 0.0
O68 O 0.32454 0.80394 0.25862 0.0
Cd69 Cd 0.29951 0.763 0.25687 0.0
O70 O 0.27126 0.72831 0.23521 0.0
C71 C 0.27411 0.72201 0.2089 0.0
O72 O 0.29419 0.73577 0.19629 0.0
C73 C 0.34953 0.80971 0.26491 0.0
C74 C 0.36404 0.72504 0.3317 0.0
O75 O 0.36827 0.71884 0.30545 0.0
O76 O 0.34795 0.74251 0.33803 0.0
O77 O 0.15113 0.43688 0.69595 0.0
Cd78 Cd 0.14895 0.43189 0.64404 0.0
O79 O 0.12033 0.40034 0.69068 0.0
Cd80 Cd 0.09044 0.36409 0.69635 0.0
O81 O 0.06591 0.32429 0.68169 0.0
C82 C 0.05237 0.32196 0.65863 0.0
O83 O 0.05243 0.34394 0.64506 0.0
C84 C 0.13501 0.41884 0.70719 0.0
C85 C 0.19708 0.44725 0.61703 0.0
O86 O 0.18069 0.46458 0.62253 0.0
O87 O 0.19097 0.4229 0.62484 0.0
O88 O 0.97595 0.01139 0.55104 0.0
Mn89 Mn 0.01064 0.99329 0.55619 0.0
O90 O 0.95929 0.99413 0.5075 0.0
Mn91 Mn 0.9842 0.97078 0.49786 0.0
O92 O 0.04542 0.97479 0.56045 0.0
O93 O 0.02591 0.02623 0.58278 0.0
Mn94 Mn 0.0429 0.01681 0.61178 0.0
O95 O 0.99298 0.97356 0.59022 0.0
O96 O 0.07053 1.00006 0.59625 0.0
O97 O 0.02934 0.01366 0.52272 0.0
O98 O 0.0152 0.98724 0.48243 0.0
O99 O 0.04578 0.05516 0.61658 0.0
O100 O 0.01717 0.99355 0.62928 0.0
C101 C 0.98495 0.93515 0.52021 0.0
C102 C 0.95865 0.00982 0.53058 0.0
C103 C 0.0673 0.98119 0.57551 0.0
C104 C 0.03208 0.05174 0.59303 0.0
C105 C 0.99802 0.97608 0.61709 0.0
C106 C 0.03085 0.00727 0.49587 0.0
O107 O 0.99462 0.96026 0.52985 0.0
O108 O 0.97448 0.93274 0.49498 0.0
O109 O 0.49281 0.01716 0.01373 0.0
Mn110 Mn 0.50434 0.02667 0.05687 0.0
O111 O 0.48639 0.97075 0.005 0.0
Mn112 Mn 0.50066 0.96446 0.03914 0.0
O113 O 0.51572 0.03697 0.09967 0.0
O114 O 0.51949 0.06514 0.04898 0.0
Mn115 Mn 0.50693 0.09011 0.07216 0.0
O116 O 0.46587 0.03794 0.06475 0.0
O117 O 0.5169 0.08326 0.10814 0.0
O118 O 0.54273 0.0158 0.04865 0.0
O119 O 0.53768 0.96932 0.04207 0.0
O120 O 0.53176 0.10939 0.05011 0.0
O121 O 0.47046 0.08424 0.06414 0.0
C122 C 0.47701 0.96598 0.07585 0.0
C123 C 0.48558 0.99465 0.99718 0.0
C124 C 0.5196 0.0598 0.1163 0.0
C125 C 0.53493 0.08497 0.03887 0.0
C126 C 0.45589 0.06064 0.0644 0.0
C127 C 0.55247 0.99295 0.04445 0.0
O128 O 0.48933 0.98781 0.06553 0.0
O129 O 0.4802 0.94256 0.06203 0.0
O130 O 0.56395 0.55666 0.53403 0.0
Mn131 Mn 0.52233 0.54509 0.53314 0.0
O132 O 0.57735 0.55093 0.48916 0.0
Mn133 Mn 0.54381 0.53663 0.4727 0.0
O134 O 0.48034 0.53302 0.53235 0.0
O135 O 0.52563 0.5384 0.57378 0.0
Mn136 Mn 0.49951 0.55041 0.59338 0.0
O137 O 0.51791 0.58635 0.54515 0.0
O138 O 0.46882 0.52863 0.57746 0.0
O139 O 0.52587 0.50321 0.52095 0.0
O140 O 0.53281 0.49918 0.47424 0.0
O141 O 0.52147 0.53757 0.61874 0.0
O142 O 0.50258 0.58806 0.58946 0.0
C143 C 0.51482 0.56455 0.47066 0.0
C144 C 0.58234 0.55798 0.51549 0.0
C145 C 0.46328 0.52528 0.55104 0.0
C146 C 0.53563 0.53219 0.59689 0.0
C147 C 0.51012 0.5997 0.56749 0.0
C148 C 0.52786 0.48846 0.49723 0.0
O149 O 0.52038 0.55314 0.49276 0.0
O150 O 0.52777 0.55682 0.44861 0.0
O151 O 0.98398 0.48791 0.99632 0.0
Mn152 Mn 0.01978 0.50698 0.01731 0.0
O153 O 0.98433 0.50469 0.95402 0.0
Mn154 Mn 0.01766 0.52734 0.95849 0.0
O155 O 0.05527 0.52592 0.03881 0.0
O156 O 0.00214 0.5031 0.05436 0.0
Mn157 Mn 0.02047 0.48587 0.07641 0.0
O158 O 0.03261 0.46749 0.01664 0.0
O159 O 0.05398 0.50841 0.08091 0.0
O160 O 0.00714 0.54662 0.01829 0.0
O161 O 0.01761 0.56225 0.97658 0.0
O162 O 0.99193 0.49606 0.09712 0.0
O163 O 0.02007 0.45109 0.05759 0.0
C164 C 0.05264 0.50757 0.95841 0.0
C165 C 0.97316 0.48933 0.97202 0.0
C166 C 0.06544 0.52428 0.06341 0.0
C167 C 0.98679 0.50797 0.07515 0.0
C168 C 0.02908 0.44775 0.03282 0.0
C169 C 0.0098 0.56608 1.00177 0.0
O170 O 0.03741 0.51059 0.97986 0.0
O171 O 0.04589 0.51902 0.9367 0.0
H172 H 0.18106 0.1031 0.30601 0.0
H173 H 0.15961 0.0885 0.34881 0.0
H174 H 0.09456 0.13344 0.33372 0.0
H175 H 0.11568 0.14767 0.29025 0.0
H176 H 0.14453 0.11626 0.3978 0.0
H177 H 0.05518 0.05568 0.33876 0.0
H178 H 0.085 0.06965 0.32125 0.0
H179 H 0.06137 0.09186 0.33381 0.0
C180 C 0.16222 0.11001 0.31175 0.0
C181 C 0.14995 0.12632 0.29443 0.0
C182 C 0.15002 0.10171 0.33637 0.0
C183 C 0.12526 0.10949 0.34435 0.0
C184 C 0.1134 0.12668 0.32772 0.0
H185 H 0.04884 0.06365 0.50387 0.0
H186 H 0.07284 0.0919 0.46946 0.0
C187 C 0.12555 0.13489 0.30292 0.0
C188 C 0.11152 0.09838 0.36929 0.0
H189 H 0.056 0.0556 0.38803 0.0
C190 C 0.12506 0.10318 0.39576 0.0
C191 C 0.08621 0.0811 0.36658 0.0
C192 C 0.07113 0.07401 0.33857 0.0
C193 C 0.11425 0.0907 0.41934 0.0
C194 C 0.0891 0.07321 0.41647 0.0
C195 C 0.07526 0.06909 0.39024 0.0
C196 C 0.07767 0.05681 0.43934 0.0
C197 C 0.1303 0.09534 0.44678 0.0
C198 C 0.07284 0.02779 0.43417 0.0
C199 C 0.05908 0.01181 0.45353 0.0
C200 C 0.04983 0.02438 0.4787 0.0
C201 C 0.05596 0.05337 0.48479 0.0
C202 C 0.06964 0.06951 0.46511 0.0
H203 H 0.15136 0.10523 0.4441 0.0
H204 H 0.12076 0.10913 0.46224 0.0
H205 H 0.13056 0.0754 0.45578 0.0
H206 H 0.07897 0.01748 0.41458 0.0
H207 H 0.05483 0.98951 0.44828 0.0
H208 H 0.39885 0.94086 0.74041 0.0
H209 H 0.40514 0.95541 0.79119 0.0
H210 H 0.48454 0.99789 0.77691 0.0
H211 H 0.47859 0.98305 0.72646 0.0
H212 H 0.48592 0.96478 0.81693 0.0
H213 H 0.40483 0.02781 0.84029 0.0
H214 H 0.39265 0.99388 0.8229 0.0
H215 H 0.41472 0.01818 0.8047 0.0
C216 C 0.41739 0.95381 0.74802 0.0
C217 C 0.43817 0.96085 0.72934 0.0
C218 C 0.42095 0.96222 0.77709 0.0
C219 C 0.4452 0.97812 0.78794 0.0
C220 C 0.46562 0.98573 0.76913 0.0
H221 H 0.4866 0.04016 0.96694 0.0
H222 H 0.47656 0.03939 0.9161 0.0
C223 C 0.46219 0.97715 0.74025 0.0
C224 C 0.45051 0.98458 0.81895 0.0
H225 H 0.42631 0.01334 0.88026 0.0
C226 C 0.47301 0.97571 0.83064 0.0
C227 C 0.43389 0.9991 0.83696 0.0
C228 C 0.41033 0.01055 0.82557 0.0
C229 C 0.47885 0.98009 0.85977 0.0
C230 C 0.4615 0.99331 0.87792 0.0
C231 C 0.4395 0.00309 0.8663 0.0
C232 C 0.46498 0.99485 0.90906 0.0
C233 C 0.5034 0.97014 0.87101 0.0
C234 C 0.46106 0.97025 0.92197 0.0
C235 C 0.46693 0.97058 0.95066 0.0
C236 C 0.47685 0.99559 0.96736 0.0
C237 C 0.47942 0.02052 0.9547 0.0
C238 C 0.47357 0.02013 0.9257 0.0
H239 H 0.51811 0.96694 0.85419 0.0
H240 H 0.5135 0.98516 0.88834 0.0
H241 H 0.4972 0.95003 0.8796 0.0
H242 H 0.4541 0.95058 0.90961 0.0
H243 H 0.46421 0.95095 0.95957 0.0
H244 H 0.64874 0.38736 0.72339 0.0
H245 H 0.62891 0.41566 0.69218 0.0
H246 H 0.7009 0.42317 0.6435 0.0
H247 H 0.72106 0.39477 0.67477 0.0
H248 H 0.6804 0.47406 0.65683 0.0
H249 H 0.60135 0.39023 0.61014 0.0
H250 H 0.60236 0.39322 0.64805 0.0
H251 H 0.63065 0.38345 0.62882 0.0
C252 C 0.66043 0.39502 0.70609 0.0
C253 C 0.68646 0.38866 0.70153 0.0
C254 C 0.64898 0.41105 0.68814 0.0
C255 C 0.66323 0.42107 0.66519 0.0
C256 C 0.68947 0.41541 0.66092 0.0
H257 H 0.56237 0.50202 0.55693 0.0
H258 H 0.59917 0.47626 0.56644 0.0
C259 C 0.70094 0.39921 0.67884 0.0
C260 C 0.65061 0.43788 0.64621 0.0
H261 H 0.59336 0.43705 0.60694 0.0
C262 C 0.66166 0.46585 0.64542 0.0
C263 C 0.62652 0.42704 0.63071 0.0
C264 C 0.61465 0.39675 0.62918 0.0
C265 C 0.64802 0.48375 0.63154 0.0
C266 C 0.62262 0.47346 0.61844 0.0
C267 C 0.61275 0.44501 0.61716 0.0
C268 C 0.60396 0.49227 0.61063 0.0
C269 C 0.66036 0.5138 0.63197 0.0
C270 C 0.59478 0.51005 0.63208 0.0
C271 C 0.57356 0.52412 0.62682 0.0
C272 C 0.56104 0.52093 0.59992 0.0
C273 C 0.5714 0.50467 0.57786 0.0
C274 C 0.59248 0.49003 0.58328 0.0
H275 H 0.68265 0.5163 0.63338 0.0
H276 H 0.6543 0.52271 0.61283 0.0
H277 H 0.65345 0.52584 0.65082 0.0
H278 H 0.60297 0.51179 0.65343 0.0
H279 H 0.56622 0.5367 0.64425 0.0
H280 H 0.89955 0.6358 0.28391 0.0
H281 H 0.8991 0.62508 0.23238 0.0
H282 H 0.9814 0.61117 0.23675 0.0
H283 H 0.98212 0.62172 0.2881 0.0
H284 H 0.9463 0.64526 0.18473 0.0
H285 H 0.9217 0.53521 0.20725 0.0
H286 H 0.91257 0.56354 0.23064 0.0
H287 H 0.94685 0.55764 0.22955 0.0
C288 C 0.91776 0.6311 0.27386 0.0
C289 C 0.9408 0.62933 0.29017 0.0
C290 C 0.91747 0.62512 0.24441 0.0
C291 C 0.94023 0.61744 0.23087 0.0
C292 C 0.96371 0.61727 0.24687 0.0
H293 H 0.00727 0.56211 0.08221 0.0
H294 H 0.98834 0.59486 0.11511 0.0
C295 C 0.96402 0.62317 0.27624 0.0
C296 C 0.93856 0.60553 0.20092 0.0
H297 H 0.93438 0.54318 0.16116 0.0
C298 C 0.94324 0.62295 0.17933 0.0
C299 C 0.9341 0.5765 0.19401 0.0
C300 C 0.92835 0.55698 0.21646 0.0
C301 C 0.94491 0.61187 0.15096 0.0
C302 C 0.94232 0.58272 0.1443 0.0
C303 C 0.93619 0.5655 0.16593 0.0
C304 C 0.94938 0.56925 0.11641 0.0
C305 C 0.94976 0.63151 0.12859 0.0
C306 C 0.93333 0.54471 0.10436 0.0
C307 C 0.94448 0.52564 0.08596 0.0
C308 C 0.97155 0.53121 0.07876 0.0
C309 C 0.98616 0.5576 0.08702 0.0
C310 C 0.97527 0.57641 0.106 0.0
H311 H 0.94011 0.65022 0.13409 0.0
H312 H 0.97169 0.63858 0.12733 0.0
H313 H 0.94199 0.6215 0.1075 0.0
H314 H 0.91325 0.53875 0.11185 0.0
H315 H 0.93299 0.50523 0.08023 0.0
H316 H 0.23516 0.1075 0.17525 0.0
H317 H 0.2738 0.08828 0.15555 0.0
H318 H 0.27637 0.14136 0.08872 0.0
H319 H 0.23769 0.16097 0.10838 0.0
H320 H 0.28224 0.0612 0.10061 0.0
H321 H 0.35227 0.15997 0.12635 0.0
H322 H 0.31942 0.15371 0.1414 0.0
H323 H 0.32283 0.16265 0.10584 0.0
C324 C 0.24383 0.11513 0.1563 0.0
C325 C 0.23337 0.13605 0.14358 0.0
C326 C 0.2659 0.10397 0.14501 0.0
C327 C 0.27818 0.11357 0.12086 0.0
C328 C 0.26743 0.13391 0.10762 0.0
H329 H 0.42611 0.09208 0.03787 0.0
H330 H 0.38092 0.10117 0.04922 0.0
C331 C 0.24525 0.14505 0.11885 0.0
C332 C 0.30281 0.103 0.11024 0.0
H333 H 0.36971 0.12326 0.10068 0.0
C334 C 0.3014 0.07472 0.10056 0.0
C335 C 0.32781 0.12062 0.11043 0.0
C336 C 0.33089 0.15088 0.12178 0.0
C337 C 0.32422 0.06376 0.09042 0.0
C338 C 0.34921 0.08146 0.09048 0.0
C339 C 0.35056 0.10968 0.10042 0.0
C340 C 0.37438 0.07169 0.08015 0.0
C341 C 0.32124 0.03352 0.07918 0.0
C342 C 0.38547 0.05118 0.09288 0.0
C343 C 0.41133 0.04557 0.08599 0.0
C344 C 0.4266 0.06077 0.06667 0.0
C345 C 0.41481 0.08007 0.05287 0.0
C346 C 0.38901 0.08537 0.05943 0.0
H347 H 0.29998 0.02478 0.07345 0.0
H348 H 0.33368 0.03044 0.06031 0.0
H349 H 0.32809 0.02164 0.09571 0.0
H350 H 0.37485 0.04067 0.1093 0.0
H351 H 0.42008 0.03089 0.09725 0.0
H352 H 0.30388 0.9807 0.62524 0.0
H353 H 0.25839 0.97516 0.60515 0.0
H354 H 0.23416 0.90672 0.65395 0.0
H355 H 0.27961 0.91267 0.67485 0.0
H356 H 0.22807 0.93184 0.57346 0.0
H357 H 0.17836 0.95568 0.675 0.0
H358 H 0.21438 0.96156 0.67184 0.0
H359 H 0.19687 0.9271 0.67411 0.0
C360 C 0.28888 0.96452 0.63185 0.0
C361 C 0.29534 0.94729 0.65188 0.0
C362 C 0.26287 0.9613 0.62022 0.0
C363 C 0.24272 0.94075 0.62826 0.0
C364 C 0.2492 0.92313 0.64786 0.0
H365 H 0.07088 0.92937 0.58863 0.0
H366 H 0.11317 0.91179 0.59678 0.0
C367 C 0.27522 0.9265 0.65974 0.0
C368 C 0.21497 0.93833 0.61628 0.0
H369 H 0.15073 0.9457 0.63415 0.0
C370 C 0.2111 0.9346 0.58675 0.0
C371 C 0.19277 0.94179 0.6336 0.0
C372 C 0.19572 0.94699 0.66537 0.0
C373 C 0.18587 0.93512 0.57411 0.0
C374 C 0.16398 0.93962 0.59142 0.0
C375 C 0.16752 0.94202 0.62091 0.0
C376 C 0.13831 0.94572 0.57982 0.0
C377 C 0.18296 0.93141 0.54234 0.0
C378 C 0.13835 0.96998 0.56658 0.0
C379 C 0.11431 0.97998 0.56202 0.0
C380 C 0.08985 0.96574 0.57032 0.0
C381 C 0.08948 0.94027 0.58139 0.0
C382 C 0.11362 0.93039 0.58627 0.0
H383 H 0.19834 0.91963 0.53262 0.0
H384 H 0.16267 0.92042 0.53534 0.0
H385 H 0.18579 0.9521 0.53441 0.0
H386 H 0.15713 0.98248 0.562 0.0
H387 H 0.11508 1.00002 0.55415 0.0
H388 H 0.77222 0.39333 0.82497 0.0
H389 H 0.80648 0.41384 0.86058 0.0
H390 H 0.80321 0.33495 0.89372 0.0
H391 H 0.76949 0.31389 0.85729 0.0
H392 H 0.80712 0.41936 0.91842 0.0
H393 H 0.88255 0.35401 0.87764 0.0
H394 H 0.85193 0.35532 0.85822 0.0
H395 H 0.85118 0.33567 0.88806 0.0
C396 C 0.77864 0.38024 0.83984 0.0
C397 C 0.76797 0.35186 0.83815 0.0
C398 C 0.79822 0.39208 0.86032 0.0
C399 C 0.80774 0.37591 0.87964 0.0
C400 C 0.79652 0.34777 0.87875 0.0
H401 H 0.94961 0.44112 0.99241 0.0
H402 H 0.9075 0.41141 0.97526 0.0
C403 C 0.77691 0.33581 0.85809 0.0
C404 C 0.83004 0.38875 0.89979 0.0
H405 H 0.89675 0.3891 0.91436 0.0
C406 C 0.8266 0.41247 0.91782 0.0
C407 C 0.85549 0.37974 0.89911 0.0
C408 C 0.86073 0.35493 0.87962 0.0
C409 C 0.84813 0.42806 0.93418 0.0
C410 C 0.87381 0.41983 0.9324 0.0
C411 C 0.87697 0.39528 0.9157 0.0
C412 C 0.89819 0.43831 0.94457 0.0
C413 C 0.84349 0.45377 0.95259 0.0
C414 C 0.90683 0.46316 0.93297 0.0
C415 C 0.93084 0.47988 0.9424 0.0
C416 C 0.94675 0.47224 0.96383 0.0
C417 C 0.93774 0.44765 0.976 0.0
C418 C 0.91376 0.43064 0.9662 0.0
H419 H 0.82192 0.45326 0.95755 0.0
H420 H 0.85544 0.45621 0.97267 0.0
H421 H 0.84997 0.47224 0.94131 0.0
H422 H 0.89529 0.46928 0.91603 0.0
H423 H 0.93709 0.49871 0.93263 0.0
H424 H 0.82808 0.60171 0.51223 0.0
H425 H 0.78112 0.58871 0.52379 0.0
H426 H 0.78252 0.66784 0.57316 0.0
H427 H 0.82958 0.68136 0.56118 0.0
H428 H 0.75153 0.5851 0.57347 0.0
H429 H 0.72547 0.66802 0.51146 0.0
H430 H 0.75838 0.6578 0.51075 0.0
H431 H 0.74865 0.67899 0.54082 0.0
C432 C 0.81859 0.61628 0.52585 0.0
C433 C 0.83248 0.6428 0.53535 0.0
C434 C 0.79173 0.60873 0.53256 0.0
C435 C 0.7782 0.62748 0.54892 0.0
C436 C 0.79247 0.65325 0.56007 0.0
H437 H 0.60327 0.57302 0.56966 0.0
H438 H 0.65017 0.59161 0.58362 0.0
C439 C 0.81938 0.6609 0.55326 0.0
C440 C 0.74865 0.62081 0.55158 0.0
H441 H 0.68992 0.63729 0.52685 0.0
C442 C 0.73796 0.59675 0.56377 0.0
C443 C 0.73105 0.63603 0.53875 0.0
C444 C 0.74133 0.66154 0.52451 0.0
C445 C 0.71022 0.58678 0.56225 0.0
C446 C 0.69286 0.60138 0.54831 0.0
C447 C 0.70337 0.62622 0.53755 0.0
C448 C 0.66455 0.58942 0.54088 0.0
C449 C 0.69983 0.55992 0.57404 0.0
C450 C 0.65717 0.58216 0.51232 0.0
C451 C 0.6306 0.57176 0.50429 0.0
C452 C 0.61064 0.56842 0.52465 0.0
C453 C 0.6181 0.57542 0.55341 0.0
C454 C 0.64489 0.5859 0.56146 0.0
H455 H 0.71635 0.54953 0.58137 0.0
H456 H 0.68689 0.56416 0.59222 0.0
H457 H 0.68734 0.54547 0.55784 0.0
H458 H 0.67206 0.58467 0.49613 0.0
H459 H 0.62574 0.56657 0.48197 0.0
H460 H 0.16431 0.28629 0.13106 0.0
H461 H 0.14608 0.32128 0.10687 0.0
H462 H 0.09201 0.25691 0.05773 0.0
H463 H 0.1102 0.22167 0.08173 0.0
H464 H 0.11733 0.30269 0.02635 0.0
H465 H 0.06904 0.33816 0.12528 0.0
H466 H 0.10449 0.33726 0.1284 0.0
H467 H 0.08158 0.30547 0.1204 0.0
C468 C 0.14874 0.27949 0.1149 0.0
C469 C 0.13858 0.25111 0.10855 0.0
C470 C 0.13831 0.29956 0.1011 0.0
C471 C 0.11748 0.29176 0.08068 0.0
C472 C 0.10807 0.26343 0.07341 0.0
H473 H 0.00378 0.39621 0.03919 0.0
H474 H 0.02557 0.35595 0.04523 0.0
C475 C 0.11845 0.2433 0.08725 0.0
C476 C 0.10424 0.3132 0.06848 0.0
H477 H 0.06585 0.36372 0.08652 0.0
C478 C 0.10606 0.31607 0.03945 0.0
C479 C 0.0893 0.33044 0.08553 0.0
C480 C 0.08571 0.32765 0.11659 0.0
C481 C 0.09356 0.33599 0.02715 0.0
C482 C 0.07894 0.35345 0.04434 0.0
C483 C 0.07706 0.35037 0.0733 0.0
C484 C 0.06486 0.37488 0.03319 0.0
C485 C 0.09567 0.33791 0.99585 0.0
C486 C 0.07928 0.39843 0.02273 0.0
C487 C 0.06663 0.42146 0.01877 0.0
C488 C 0.0395 0.42132 0.02559 0.0
C489 C 0.02465 0.3968 0.03354 0.0
C490 C 0.03716 0.37385 0.03723 0.0
H491 H 0.10255 0.31931 0.98464 0.0
H492 H 0.07599 0.34038 0.98651 0.0
H493 H 0.11038 0.3564 0.99224 0.0
H494 H 0.10073 0.39992 0.01979 0.0
H495 H 0.07868 0.44026 0.01317 0.0
H496 H 0.67887 0.19838 0.85545 0.0
H497 H 0.65131 0.1586 0.87321 0.0
H498 H 0.68562 0.18447 0.95681 0.0
H499 H 0.71358 0.224 0.9392 0.0
H500 H 0.67916 0.12598 0.94162 0.0
H501 H 0.58575 0.16941 0.92094 0.0
H502 H 0.60666 0.16391 0.89116 0.0
H503 H 0.61871 0.18965 0.91994 0.0
C504 C 0.68073 0.19551 0.87758 0.0
C505 C 0.69825 0.21461 0.89596 0.0
C506 C 0.6649 0.17277 0.8877 0.0
C507 C 0.6661 0.16878 0.91642 0.0
C508 C 0.68433 0.18715 0.93457 0.0
H509 H 0.58751 0.10174 0.04938 0.0
H510 H 0.62123 0.11276 0.01432 0.0
C511 C 0.70023 0.20983 0.92447 0.0
C512 C 0.64724 0.1467 0.92816 0.0
H513 H 0.58124 0.12924 0.94385 0.0
C514 C 0.65769 0.12642 0.94177 0.0
C515 C 0.61918 0.14707 0.92811 0.0
C516 C 0.6068 0.16874 0.91446 0.0
C517 C 0.64094 0.10726 0.95631 0.0
C518 C 0.61315 0.10878 0.95772 0.0
C519 C 0.60252 0.12795 0.94266 0.0
C520 C 0.59555 0.09451 0.97835 0.0
C521 C 0.65328 0.08601 0.97061 0.0
C522 C 0.57007 0.07958 0.97003 0.0
C523 C 0.55073 0.07305 0.9903 0.0
C524 C 0.55662 0.08169 0.01898 0.0
C525 C 0.58271 0.09449 0.02737 0.0
C526 C 0.60204 0.10072 0.00728 0.0
H527 H 0.67094 0.08016 0.95896 0.0
H528 H 0.6604 0.09502 0.99221 0.0
H529 H 0.63853 0.06699 0.97228 0.0
H530 H 0.56451 0.07481 0.94783 0.0
H531 H 0.53055 0.06371 0.98339 0.0
H532 H 0.95923 0.72443 0.42377 0.0
H533 H 0.9739 0.76602 0.45611 0.0
H534 H 0.96617 0.7172 0.5267 0.0
H535 H 0.95084 0.67539 0.49425 0.0
H536 H 0.94609 0.76272 0.53982 0.0
H537 H 0.0446 0.79348 0.49489 0.0
H538 H 0.01995 0.78855 0.46676 0.0
H539 H 0.02523 0.75957 0.48547 0.0
C540 C 0.96077 0.72251 0.44616 0.0
C541 C 0.95362 0.69671 0.45649 0.0
C542 C 0.96945 0.74627 0.46465 0.0
C543 C 0.97189 0.74471 0.49385 0.0
C544 C 0.96467 0.71892 0.50427 0.0
H545 H 0.02611 0.91762 0.54819 0.0
H546 H 0.02698 0.86925 0.55697 0.0
C547 C 0.95565 0.69511 0.48573 0.0
C548 C 0.98025 0.77051 0.51318 0.0
H549 H 0.02216 0.83213 0.51528 0.0
C550 C 0.96318 0.77765 0.535 0.0
C551 C 0.00327 0.78965 0.50815 0.0
C552 C 0.02444 0.78219 0.48776 0.0
C553 C 0.96659 0.80459 0.5492 0.0
C554 C 0.9869 0.82508 0.54058 0.0
C555 C 0.00605 0.81683 0.52154 0.0
C556 C 0.985 0.85521 0.5454 0.0
C557 C 0.94751 0.8111 0.5723 0.0
C558 C 0.96088 0.86384 0.53765 0.0
C559 C 0.96041 0.89126 0.53291 0.0
C560 C 0.98402 0.91065 0.53564 0.0
C561 C 0.00757 0.90304 0.54632 0.0
C562 C 0.00808 0.87535 0.55111 0.0
H563 H 0.94367 0.79366 0.58558 0.0
H564 H 0.95545 0.83039 0.58605 0.0
H565 H 0.92791 0.81342 0.56273 0.0
H566 H 0.94294 0.84893 0.53227 0.0
H567 H 0.94206 0.89668 0.5245 0.0
H568 H 0.43384 0.83095 0.61599 0.0
H569 H 0.44542 0.78508 0.60115 0.0
H570 H 0.52512 0.8226 0.58108 0.0
H571 H 0.51387 0.86859 0.59639 0.0
H572 H 0.46321 0.76202 0.54965 0.0
H573 H 0.53953 0.76785 0.63618 0.0
H574 H 0.51604 0.79215 0.63595 0.0
H575 H 0.54485 0.79541 0.61386 0.0
C576 C 0.45385 0.82948 0.60844 0.0
C577 C 0.47302 0.85343 0.60767 0.0
C578 C 0.46039 0.80324 0.59983 0.0
C579 C 0.48622 0.80039 0.59031 0.0
C580 C 0.50521 0.82428 0.58881 0.0
H581 H 0.5199 0.63317 0.52435 0.0
H582 H 0.51666 0.68277 0.52613 0.0
C583 C 0.49872 0.85056 0.59754 0.0
C584 C 0.49336 0.77228 0.583 0.0
H585 H 0.53257 0.72712 0.6047 0.0
C586 C 0.47854 0.75439 0.56148 0.0
C587 C 0.51333 0.76243 0.59854 0.0
C588 C 0.52925 0.78031 0.62258 0.0
C589 C 0.48257 0.72663 0.55566 0.0
C590 C 0.50217 0.71666 0.57163 0.0
C591 C 0.51764 0.73487 0.59242 0.0
C592 C 0.50475 0.68679 0.56977 0.0
C593 C 0.46501 0.70788 0.53343 0.0
C594 C 0.49972 0.67276 0.59379 0.0
C595 C 0.50182 0.64471 0.59296 0.0
C596 C 0.50903 0.62985 0.56803 0.0
C597 C 0.51434 0.64396 0.54392 0.0
C598 C 0.51228 0.67225 0.54482 0.0
H599 H 0.44778 0.71751 0.52655 0.0
H600 H 0.47714 0.70341 0.51465 0.0
H601 H 0.4571 0.68783 0.54142 0.0
H602 H 0.49388 0.68353 0.61326 0.0
H603 H 0.49758 0.63469 0.61198 0.0
H604 H 0.91916 0.8608 0.8344 0.0
H605 H 0.93742 0.87518 0.78971 0.0
H606 H 0.86129 0.89854 0.76794 0.0
H607 H 0.84333 0.88525 0.81275 0.0
H608 H 0.92442 0.85958 0.73464 0.0
H609 H 0.9104 0.96933 0.76006 0.0
H610 H 0.90631 0.94479 0.78592 0.0
H611 H 0.87967 0.94556 0.76066 0.0
C612 C 0.90632 0.86897 0.82006 0.0
C613 C 0.87991 0.87225 0.82739 0.0
C614 C 0.91677 0.87717 0.79449 0.0
C615 C 0.90097 0.88863 0.77568 0.0
C616 C 0.87421 0.89064 0.78241 0.0
H617 H 0.94342 0.95721 0.61439 0.0
H618 H 0.91699 0.93252 0.65002 0.0
C619 C 0.86391 0.88286 0.80805 0.0
C620 C 0.91254 0.8989 0.74931 0.0
H621 H 0.92436 0.95659 0.71387 0.0
C622 C 0.92432 0.88077 0.73011 0.0
C623 C 0.91252 0.92663 0.74328 0.0
C624 C 0.9018 0.94778 0.76368 0.0
C625 C 0.93613 0.88964 0.70529 0.0
C626 C 0.9361 0.91728 0.69942 0.0
C627 C 0.92391 0.93525 0.71822 0.0
C628 C 0.95158 0.92901 0.67594 0.0
C629 C 0.94894 0.8696 0.6856 0.0
C630 C 0.97964 0.93492 0.67865 0.0
C631 C 0.99455 0.94925 0.65877 0.0
C632 C 0.9818 0.9578 0.63552 0.0
C633 C 0.95376 0.95074 0.632 0.0
C634 C 0.93869 0.93674 0.65233 0.0
H635 H 0.94285 0.84778 0.69008 0.0
H636 H 0.9435 0.8714 0.66328 0.0
H637 H 0.97113 0.87476 0.68808 0.0
H638 H 0.98996 0.92938 0.69679 0.0
H639 H 0.01615 0.95424 0.66197 0.0
H640 H 0.62394 0.05702 0.36798 0.0
H641 H 0.60555 0.04523 0.31971 0.0
H642 H 0.58203 0.12626 0.32141 0.0
H643 H 0.60086 0.13843 0.36935 0.0
H644 H 0.55265 0.04458 0.29728 0.0
H645 H 0.6282 0.12032 0.25076 0.0
H646 H 0.63239 0.11015 0.28569 0.0
H647 H 0.61092 0.13527 0.27992 0.0
C648 C 0.61484 0.07237 0.35812 0.0
C649 C 0.6138 0.09869 0.37272 0.0
C650 C 0.60425 0.06552 0.33055 0.0
C651 C 0.59265 0.08493 0.31684 0.0
C652 C 0.59117 0.11104 0.33147 0.0
H653 H 0.52102 0.102 0.15856 0.0
H654 H 0.5382 0.10448 0.20669 0.0
C655 C 0.60169 0.11789 0.35907 0.0
C656 C 0.58254 0.07813 0.2871 0.0
H657 H 0.59069 0.0994 0.2213 0.0
C658 C 0.56107 0.05637 0.28057 0.0
C659 C 0.59376 0.09333 0.26528 0.0
C660 C 0.61776 0.1159 0.27061 0.0
C661 C 0.54973 0.05031 0.25303 0.0
C662 C 0.56042 0.06618 0.23146 0.0
C663 C 0.58243 0.08731 0.23787 0.0
C664 C 0.54803 0.06288 0.20258 0.0
C665 C 0.52578 0.02775 0.24746 0.0
C666 C 0.54742 0.03839 0.18417 0.0
C667 C 0.53744 0.0368 0.15626 0.0
C668 C 0.52816 0.0598 0.14632 0.0
C669 C 0.52822 0.08392 0.16521 0.0
C670 C 0.53804 0.08542 0.19288 0.0
H671 H 0.51692 0.02097 0.26733 0.0
H672 H 0.51001 0.03492 0.23488 0.0
H673 H 0.53212 0.0095 0.23506 0.0
H674 H 0.55534 0.02082 0.19108 0.0
H675 H 0.53773 0.01793 0.14232 0.0
H676 H 0.36041 0.73472 0.38937 0.0
H677 H 0.38077 0.71167 0.42556 0.0
H678 H 0.41665 0.66239 0.36045 0.0
H679 H 0.39645 0.68514 0.32427 0.0
H680 H 0.3881 0.63203 0.40374 0.0
H681 H 0.46276 0.72241 0.4483 0.0
H682 H 0.42813 0.72692 0.44451 0.0
H683 H 0.44744 0.72105 0.41363 0.0
C684 C 0.37274 0.71906 0.38277 0.0
C685 C 0.37685 0.71184 0.35388 0.0
C686 C 0.38439 0.70595 0.4035 0.0
C687 C 0.40032 0.68541 0.3957 0.0
C688 C 0.4044 0.67818 0.36693 0.0
H689 H 0.52104 0.60493 0.43637 0.0
H690 H 0.49029 0.63687 0.42755 0.0
C691 C 0.3929 0.69129 0.34626 0.0
C692 C 0.41284 0.67106 0.41713 0.0
H693 H 0.46669 0.67904 0.46303 0.0
C694 C 0.40486 0.64238 0.41729 0.0
C695 C 0.4346 0.68469 0.43486 0.0
C696 C 0.44396 0.71545 0.43544 0.0
C697 C 0.41918 0.62665 0.43325 0.0
C698 C 0.44208 0.63997 0.44948 0.0
C699 C 0.44895 0.66894 0.45081 0.0
C700 C 0.46224 0.62373 0.45937 0.0
C701 C 0.41107 0.59557 0.43087 0.0
C702 C 0.45722 0.60633 0.48105 0.0
C703 C 0.47514 0.58795 0.48638 0.0
C704 C 0.49788 0.58657 0.46971 0.0
C705 C 0.50347 0.60521 0.4493 0.0
C706 C 0.48597 0.62364 0.44432 0.0
H707 H 0.39336 0.58831 0.41645 0.0
H708 H 0.42806 0.58514 0.42297 0.0
H709 H 0.40609 0.58902 0.45205 0.0
H710 H 0.43906 0.60624 0.49307 0.0
H711 H 0.47051 0.57397 0.50236 0.0
H712 H 0.17052 0.44917 0.74631 0.0
H713 H 0.16584 0.45608 0.79746 0.0
H714 H 0.09109 0.39955 0.79039 0.0
H715 H 0.09535 0.39285 0.73921 0.0
H716 H 0.12047 0.47762 0.82014 0.0
H717 H 0.13029 0.3773 0.86028 0.0
H718 H 0.14359 0.38667 0.82687 0.0
H719 H 0.10824 0.37519 0.82993 0.0
C720 C 0.15328 0.43779 0.75561 0.0
C721 C 0.13338 0.42027 0.73848 0.0
C722 C 0.15073 0.44167 0.78491 0.0
C723 C 0.12836 0.42798 0.79782 0.0
C724 C 0.10889 0.40976 0.78097 0.0
H725 H 0.04014 0.45249 0.9448 0.0
H726 H 0.06522 0.42886 0.90874 0.0
C727 C 0.11137 0.40595 0.75158 0.0
C728 C 0.12347 0.43587 0.82808 0.0
H729 H 0.11293 0.41085 0.8921 0.0
C730 C 0.11927 0.46317 0.836 0.0
C731 C 0.12154 0.41683 0.84857 0.0
C732 C 0.12634 0.38738 0.84116 0.0
C733 C 0.11217 0.47177 0.86354 0.0
C734 C 0.11023 0.45279 0.88425 0.0
C735 C 0.11489 0.42551 0.87644 0.0
C736 C 0.10043 0.4605 0.91297 0.0
C737 C 0.10527 0.50072 0.8696 0.0
C738 C 0.11305 0.48443 0.92959 0.0
C739 C 0.09849 0.49818 0.94996 0.0
C740 C 0.07155 0.48762 0.95445 0.0
C741 C 0.06098 0.46094 0.94187 0.0
C742 C 0.07524 0.44754 0.92095 0.0
H743 H 0.10184 0.51014 0.84992 0.0
H744 H 0.08692 0.50059 0.88237 0.0
H745 H 0.12216 0.51423 0.88164 0.0
H746 H 0.13284 0.49435 0.92438 0.0
H747 H 0.10702 0.51881 0.95922 0.0
H748 H 0.78201 0.97075 0.93003 0.0
H749 H 0.74599 0.99096 0.95448 0.0
H750 H 0.72031 0.91392 0.98937 0.0
H751 H 0.75654 0.89359 0.96527 0.0
H752 H 0.69192 0.97385 0.94749 0.0
H753 H 0.72248 0.97022 0.05878 0.0
H754 H 0.74497 0.96584 0.0299 0.0
H755 H 0.72047 0.93721 0.03803 0.0
C756 C 0.7689 0.95813 0.94314 0.0
C757 C 0.77224 0.9305 0.94571 0.0
C758 C 0.74829 0.96977 0.9571 0.0
C759 C 0.73065 0.95415 0.97412 0.0
C760 C 0.73403 0.92662 0.9769 0.0
H761 H 0.5811 0.95141 0.05137 0.0
H762 H 0.62649 0.94752 0.03628 0.0
C763 C 0.75467 0.91495 0.96294 0.0
C764 C 0.70773 0.96602 0.98751 0.0
H765 H 0.67684 0.97651 0.05044 0.0
C766 C 0.68881 0.97487 0.97006 0.0
C767 C 0.70381 0.96757 0.01698 0.0
C768 C 0.72415 0.95998 0.03706 0.0
C769 C 0.66528 0.98361 0.98103 0.0
C770 C 0.66075 0.98394 0.01037 0.0
C771 C 0.68029 0.97627 0.02797 0.0
C772 C 0.63448 0.98857 0.02254 0.0
C773 C 0.6448 0.9909 0.96088 0.0
C774 C 0.62407 0.01343 0.02088 0.0
C775 C 0.59783 0.01574 0.02954 0.0
C776 C 0.58166 0.9932 0.03998 0.0
C777 C 0.59286 0.96908 0.04315 0.0
C778 C 0.6189 0.96683 0.0346 0.0
H779 H 0.64918 0.9848 0.93847 0.0
H780 H 0.62429 0.98061 0.96532 0.0
H781 H 0.64488 0.01365 0.96364 0.0
H782 H 0.63593 0.03072 0.01215 0.0
H783 H 0.5898 0.03456 0.02679 0.0
H784 H 0.7158 0.054 0.51129 0.0
H785 H 0.75839 0.04416 0.52981 0.0
H786 H 0.80152 0.10846 0.48511 0.0
H787 H 0.759 0.11894 0.46717 0.0
H788 H 0.79827 0.02598 0.50178 0.0
H789 H 0.83833 0.12693 0.56144 0.0
H790 H 0.80384 0.11847 0.54877 0.0
H791 H 0.82998 0.13075 0.52553 0.0
C792 C 0.73434 0.06617 0.50553 0.0
C793 C 0.73399 0.08728 0.48775 0.0
C794 C 0.75869 0.06059 0.51623 0.0
C795 C 0.7832 0.07596 0.5094 0.0
C796 C 0.78289 0.09689 0.49145 0.0
H797 H 0.93646 0.03245 0.48862 0.0
H798 H 0.89416 0.05087 0.48901 0.0
C799 C 0.75854 0.10264 0.48092 0.0
C800 C 0.80912 0.06865 0.51916 0.0
H801 H 0.87073 0.09618 0.54911 0.0
C802 C 0.81386 0.04126 0.51263 0.0
C803 C 0.82949 0.08846 0.53361 0.0
C804 C 0.82505 0.11771 0.54302 0.0
C805 C 0.83879 0.03353 0.51872 0.0
C806 C 0.85966 0.05374 0.53141 0.0
C807 C 0.85467 0.08079 0.53926 0.0
C808 C 0.8874 0.04747 0.53333 0.0
C809 C 0.84309 0.00398 0.51055 0.0
C810 C 0.89816 0.0406 0.55853 0.0
C811 C 0.92263 0.03012 0.55844 0.0
C812 C 0.93628 0.02618 0.53306 0.0
C813 C 0.92622 0.03493 0.50843 0.0
C814 C 0.90209 0.04552 0.50859 0.0
H815 H 0.82379 0.98979 0.50604 0.0
H816 H 0.8553 0.00312 0.49128 0.0
H817 H 0.85428 0.99642 0.52761 0.0
H818 H 0.887 0.042 0.57783 0.0
H819 H 0.92993 0.02347 0.57768 0.0
H820 H 0.22785 0.69248 0.22696 0.0
H821 H 0.19497 0.65825 0.19874 0.0
H822 H 0.24285 0.66892 0.12498 0.0
H823 H 0.27587 0.70298 0.15297 0.0
H824 H 0.16574 0.66677 0.1496 0.0
H825 H 0.22906 0.58393 0.12739 0.0
H826 H 0.23737 0.61206 0.1552 0.0
H827 H 0.24365 0.61781 0.11907 0.0
C828 C 0.23151 0.6874 0.20479 0.0
C829 C 0.25456 0.70045 0.19228 0.0
C830 C 0.21266 0.66789 0.18868 0.0
C831 C 0.2166 0.66083 0.15983 0.0
C832 C 0.23961 0.67371 0.1473 0.0
H833 H 0.08929 0.57162 0.04175 0.0
H834 H 0.12752 0.6051 0.06236 0.0
C835 C 0.25842 0.69329 0.16335 0.0
C836 C 0.19621 0.64061 0.14271 0.0
H837 H 0.18616 0.57661 0.10475 0.0
C838 C 0.1702 0.64709 0.1397 0.0
C839 C 0.2021 0.61493 0.1299 0.0
C840 C 0.22948 0.60654 0.13315 0.0
C841 C 0.14986 0.62853 0.12435 0.0
C842 C 0.15576 0.60288 0.11146 0.0
C843 C 0.1818 0.59643 0.11437 0.0
C844 C 0.13452 0.58159 0.09696 0.0
C845 C 0.12198 0.63609 0.12276 0.0
C846 C 0.12648 0.55685 0.10896 0.0
C847 C 0.10476 0.53775 0.09729 0.0
C848 C 0.09067 0.54285 0.07319 0.0
C849 C 0.09966 0.56702 0.06031 0.0
C850 C 0.12138 0.58627 0.07216 0.0
H851 H 0.11963 0.65436 0.1379 0.0
H852 H 0.11788 0.64115 0.10112 0.0
H853 H 0.10665 0.61836 0.12718 0.0
H854 H 0.13643 0.55276 0.12801 0.0
H855 H 0.09857 0.51927 0.10766 0.0
H856 H 0.2118 0.49368 0.59012 0.0
H857 H 0.25348 0.50639 0.56529 0.0
H858 H 0.2811 0.43163 0.58577 0.0
H859 H 0.23923 0.41839 0.60973 0.0
H860 H 0.30269 0.51773 0.58594 0.0
H861 H 0.29926 0.42878 0.50423 0.0
H862 H 0.27029 0.43504 0.52454 0.0
H863 H 0.29522 0.41695 0.53848 0.0
C864 C 0.22667 0.47982 0.58909 0.0
C865 C 0.2222 0.455 0.60186 0.0
C866 C 0.25044 0.48707 0.5748 0.0
C867 C 0.27022 0.46968 0.57305 0.0
C868 C 0.26581 0.44495 0.58594 0.0
H869 H 0.43462 0.47996 0.56941 0.0
H870 H 0.38587 0.46649 0.56619 0.0
C871 C 0.24196 0.43755 0.59994 0.0
C872 C 0.29647 0.47843 0.56008 0.0
H873 H 0.34383 0.45429 0.5173 0.0
C874 C 0.31139 0.50417 0.57035 0.0
C875 C 0.30781 0.46087 0.53953 0.0
C876 C 0.29214 0.43402 0.52585 0.0
C877 C 0.33796 0.51189 0.56226 0.0
C878 C 0.34991 0.4934 0.54336 0.0
C879 C 0.33458 0.46839 0.5318 0.0
C880 C 0.37928 0.49784 0.53932 0.0
C881 C 0.35374 0.53894 0.5754 0.0
C882 C 0.39176 0.51911 0.52411 0.0
C883 C 0.4198 0.52662 0.52562 0.0
C884 C 0.43542 0.51314 0.54266 0.0
C885 C 0.42296 0.49062 0.55612 0.0
C886 C 0.39515 0.4829 0.55429 0.0
H887 H 0.34193 0.55023 0.591 0.0
H888 H 0.37226 0.53505 0.58614 0.0
H889 H 0.35998 0.55249 0.55863 0.0
H890 H 0.37975 0.53086 0.51246 0.0
H891 H 0.42894 0.54425 0.51533 0.0
H892 H 0.89214 0.74023 0.91476 0.0
H893 H 0.91202 0.70459 0.93596 0.0
H894 H 0.93282 0.76099 0.01142 0.0
H895 H 0.91427 0.79725 0.98955 0.0
H896 H 0.97199 0.73512 1.00126 0.0
H897 H 0.88232 0.65485 0.99137 0.0
H898 H 0.8908 0.66491 0.95712 0.0
H899 H 0.88094 0.68992 0.98402 0.0
C900 C 0.90092 0.74503 0.93589 0.0
C901 C 0.90153 0.77157 0.95048 0.0
C902 C 0.91203 0.72447 0.94819 0.0
C903 C 0.92327 0.7296 0.97576 0.0
C904 C 0.92412 0.75626 0.99025 0.0
H905 H 0.96802 0.57808 0.03583 0.0
H906 H 0.94744 0.62061 0.03811 0.0
C907 C 0.91352 0.77704 0.9777 0.0
C908 C 0.93522 0.7076 0.98882 0.0
H909 H 0.92491 0.63826 0.99633 0.0
C910 C 0.96144 0.71406 1.00057 0.0
C911 C 0.92139 0.68018 0.98907 0.0
C912 C 0.8922 0.67218 0.98003 0.0
C913 C 0.97471 0.69365 0.01069 0.0
C914 C 0.96193 0.66563 0.00796 0.0
C915 C 0.93508 0.65953 0.99804 0.0
C916 C 0.97688 0.6421 0.01189 0.0
C917 C 0.00238 0.70247 0.02406 0.0
C918 C 1.00076 0.64019 0.99736 0.0
C919 C 0.01276 0.61633 0.99666 0.0
C920 C 1.00097 0.59331 0.00992 0.0
C921 C 0.97791 0.59561 0.02588 0.0
C922 C 0.96594 0.61982 0.02683 0.0
H923 H 0.00411 0.7236 0.0356 0.0
H924 H 0.00722 0.68793 0.03902 0.0
H925 H 0.01753 0.70339 0.00728 0.0
H926 H 0.00933 0.65645 0.98494 0.0
H927 H 0.03045 0.61522 0.98406 0.0
H928 H 0.33437 0.86104 0.27187 0.0
H929 H 0.35609 0.90314 0.25282 0.0
H930 H 0.41874 0.85893 0.21936 0.0
H931 H 0.39829 0.81775 0.24053 0.0
H932 H 0.43946 0.90967 0.23294 0.0
H933 H 0.34447 0.9116 0.17314 0.0
H934 H 0.34188 0.91741 0.2107 0.0
H935 H 0.34828 0.88423 0.19445 0.0
C936 C 0.35313 0.86063 0.26098 0.0
C937 C 0.36458 0.83614 0.25744 0.0
C938 C 0.36537 0.88459 0.24978 0.0
C939 C 0.38854 0.88407 0.23359 0.0
C940 C 0.40079 0.86 0.23155 0.0
H941 H 0.43232 0.93031 0.08143 0.0
H942 H 0.41012 0.91978 0.12464 0.0
C943 C 0.38909 0.83638 0.24364 0.0
C944 C 0.39902 0.90733 0.2168 0.0
H945 H 0.38183 0.94254 0.16284 0.0
C946 C 0.42682 0.91707 0.21777 0.0
C947 C 0.3825 0.91736 0.19716 0.0
C948 C 0.3527 0.90699 0.19356 0.0
C949 C 0.43882 0.93436 0.1981 0.0
C950 C 0.42241 0.94311 0.17753 0.0
C951 C 0.39439 0.93576 0.17854 0.0
C952 C 0.43366 0.9537 0.15116 0.0
C953 C 0.46909 0.94113 0.19815 0.0
C954 C 0.4536 0.97724 0.15107 0.0
C955 C 0.4667 0.98324 0.12591 0.0
C956 C 0.45975 0.96584 0.10073 0.0
C957 C 0.43825 0.94397 0.10059 0.0
C958 C 0.42546 0.93794 0.1254 0.0
H959 H 0.47886 0.92965 0.21319 0.0
H960 H 0.4767 0.93603 0.17674 0.0
H961 H 0.4753 0.96365 0.20439 0.0
H962 H 0.45984 0.99022 0.17051 0.0
H963 H 0.48328 1.00016 0.12661 0.0
H964 H 0.02292 0.30952 0.60898 0.0
H965 H 0.00456 0.26343 0.58588 0.0
H966 H 0.03414 0.22611 0.6556 0.0
H967 H 0.05197 0.27187 0.67899 0.0
H968 H 0.03201 0.22327 0.56727 0.0
H969 H 0.96013 0.18219 0.64439 0.0
H970 H 0.97323 0.21871 0.64574 0.0
H971 H 0.99169 0.19556 0.66211 0.0
C972 C 0.02507 0.2915 0.61964 0.0
C973 C 0.03893 0.29439 0.64586 0.0
C974 C 0.01455 0.26518 0.60638 0.0
C975 C 0.01752 0.24129 0.61919 0.0
C976 C 0.03086 0.24421 0.64563 0.0
H977 H 0.0663 0.09581 0.58068 0.0
H978 H 0.05532 0.14165 0.57604 0.0
C979 C 0.04129 0.27045 0.65891 0.0
C980 C 0.00937 0.21317 0.60402 0.0
H981 H 0.98246 0.14766 0.61643 0.0
C982 C 0.0205 0.20683 0.57763 0.0
C983 C 0.99356 0.19176 0.61687 0.0
C984 C 0.97873 0.19753 0.64368 0.0
C985 C 0.01886 0.17926 0.56547 0.0
C986 C 0.00637 0.15754 0.58043 0.0
C987 C 0.99252 0.16417 0.60508 0.0
C988 C 0.01215 0.1287 0.5746 0.0
C989 C 0.03172 0.17365 0.53741 0.0
C990 C 0.99162 0.10573 0.57453 0.0
C991 C 0.99803 0.07927 0.57726 0.0
C992 C 0.02499 0.07568 0.58027 0.0
C993 C 0.04539 0.0981 0.57794 0.0
C994 C 0.03906 0.12434 0.5751 0.0
H995 H 0.02908 0.18995 0.52355 0.0
H996 H 0.05365 0.17431 0.54085 0.0
H997 H 0.02313 0.15308 0.52637 0.0
H998 H 0.97071 0.10862 0.57449 0.0
H999 H 0.98198 0.06239 0.5798 0.0
H1000 H 0.55276 0.25384 0.39172 0.0
H1001 H 0.54093 0.29765 0.41345 0.0
H1002 H 0.55804 0.27508 0.49605 0.0
H1003 H 0.57013 0.23122 0.47452 0.0
H1004 H 0.50132 0.30736 0.45496 0.0
H1005 H 0.60541 0.35151 0.49337 0.0
H1006 H 0.59848 0.32186 0.46707 0.0
H1007 H 0.59183 0.31801 0.50352 0.0
C1008 C 0.55396 0.2581 0.41451 0.0
C1009 C 0.56257 0.23906 0.43134 0.0
C1010 C 0.54714 0.28315 0.4269 0.0
C1011 C 0.54892 0.28976 0.45633 0.0
C1012 C 0.55692 0.27057 0.47327 0.0
H1013 H 0.53455 0.45636 0.54037 0.0
H1014 H 0.53629 0.40623 0.5356 0.0
C1015 C 0.56371 0.24546 0.4609 0.0
C1016 C 0.54278 0.317 0.46898 0.0
H1017 H 0.57224 0.38012 0.50098 0.0
C1018 C 0.51674 0.32317 0.46533 0.0
C1019 C 0.56286 0.3375 0.48278 0.0
C1020 C 0.59129 0.33212 0.48685 0.0
C1021 C 0.51047 0.34961 0.4742 0.0
C1022 C 0.53091 0.37058 0.48655 0.0
C1023 C 0.55659 0.364 0.49156 0.0
C1024 C 0.52715 0.40016 0.49067 0.0
C1025 C 0.48212 0.35501 0.46972 0.0
C1026 C 0.52138 0.41329 0.46708 0.0
C1027 C 0.52059 0.4417 0.46968 0.0
C1028 C 0.52564 0.45783 0.49595 0.0
C1029 C 0.53053 0.44455 0.51986 0.0
C1030 C 0.53157 0.41594 0.51716 0.0
H1031 H 0.46743 0.33564 0.46955 0.0
H1032 H 0.47664 0.37062 0.48639 0.0
H1033 H 0.48041 0.36302 0.44894 0.0
H1034 H 0.51845 0.40171 0.44634 0.0
H1035 H 0.51664 0.45115 0.45082 0.0
loop_
_geom_bond_atom_site_label_1
_geom_bond_atom_site_label_2
_geom_bond_distance
_geom_bond_site_symmetry_2
_ccdc_geom_bond_type
O0 Cd1 2.300 . S
O0 C7 1.275 . S
Cd1 O0 2.300 . S
Cd1 O9 2.381 . S
Cd1 O10 2.378 . S
O2 Cd3 2.385 . S
O2 C7 1.255 . S
Cd3 O2 2.385 . S
Cd3 O4 2.317 . S
O4 Cd3 2.317 . S
O4 C5 1.232 . S
C5 O4 1.232 . S
C5 O6 1.218 . S
O6 C5 1.218 . S
C7 O0 1.275 . S
C7 O2 1.255 . S
C8 O9 1.258 . S
C8 O10 1.256 . S
O9 Cd1 2.381 . S
O9 C8 1.258 . S
O10 Cd1 2.378 . S
O10 C8 1.256 . S
O11 Cd12 2.300 . S
O11 C18 1.275 . S
Cd12 O11 2.300 . S
Cd12 O20 2.381 . S
Cd12 O21 2.378 . S
O13 Cd14 2.385 . S
O13 C18 1.255 . S
Cd14 O13 2.385 . S
Cd14 O15 2.317 . S
O15 Cd14 2.317 . S
O15 C16 1.232 . S
C16 O15 1.232 . S
C16 O17 1.218 . S
O17 C16 1.218 . S
C18 O11 1.275 . S
C18 O13 1.255 . S
C19 O20 1.258 . S
C19 O21 1.256 . S
O20 Cd12 2.381 . S
O20 C19 1.258 . S
O21 Cd12 2.378 . S
O21 C19 1.256 . S
O22 Cd23 2.300 . S
O22 C29 1.275 . S
Cd23 O22 2.300 . S
Cd23 O31 2.381 . S
Cd23 O32 2.378 . S
O24 Cd25 2.385 . S
O24 C29 1.255 . S
Cd25 O24 2.385 . S
Cd25 O26 2.317 . S
O26 Cd25 2.317 . S
O26 C27 1.232 . S
C27 O26 1.232 . S
C27 O28 1.218 . S
O28 C27 1.218 . S
C29 O22 1.275 . S
C29 O24 1.255 . S
C30 O31 1.258 . S
C30 O32 1.256 . S
O31 Cd23 2.381 . S
O31 C30 1.258 . S
O32 Cd23 2.378 . S
O32 C30 1.256 . S
O33 Cd34 2.300 . S
O33 C40 1.275 . S
Cd34 O33 2.300 . S
Cd34 O42 2.381 . S
Cd34 O43 2.378 . S
O35 Cd36 2.385 . S
O35 C40 1.255 . S
Cd36 O35 2.385 . S
Cd36 O37 2.317 . S
O37 Cd36 2.317 . S
O37 C38 1.232 . S
C38 O37 1.232 . S
C38 O39 1.218 . S
O39 C38 1.218 . S
C40 O33 1.275 . S
C40 O35 1.255 . S
C41 O42 1.258 . S
C41 O43 1.256 . S
O42 Cd34 2.381 . S
O42 C41 1.258 . S
O43 Cd34 2.378 . S
O43 C41 1.256 . S
O44 Cd45 2.300 . S
O44 C51 1.275 . S
Cd45 O44 2.300 . S
Cd45 O53 2.381 . S
Cd45 O54 2.378 . S
O46 Cd47 2.385 . S
O46 C51 1.255 . S
Cd47 O46 2.385 . S
Cd47 O48 2.317 . S
O48 Cd47 2.317 . S
O48 C49 1.232 . S
C49 O48 1.232 . S
C49 O50 1.218 . S
O50 C49 1.218 . S
C51 O44 1.275 . S
C51 O46 1.255 . S
C52 O53 1.258 . S
C52 O54 1.256 . S
O53 Cd45 2.381 . S
O53 C52 1.258 . S
O54 Cd45 2.378 . S
O54 C52 1.256 . S
O55 Cd56 2.300 . S
O55 C62 1.275 . S
Cd56 O55 2.300 . S
Cd56 O64 2.381 . S
Cd56 O65 2.378 . S
O57 Cd58 2.385 . S
O57 C62 1.255 . S
Cd58 O57 2.385 . S
Cd58 O59 2.317 . S
O59 Cd58 2.317 . S
O59 C60 1.232 . S
C60 O59 1.232 . S
C60 O61 1.218 . S
O61 C60 1.218 . S
C62 O55 1.275 . S
C62 O57 1.255 . S
C63 O64 1.258 . S
C63 O65 1.256 . S
O64 Cd56 2.381 . S
O64 C63 1.258 . S
O65 Cd56 2.378 . S
O65 C63 1.256 . S
O66 Cd67 2.300 . S
O66 C73 1.275 . S
Cd67 O66 2.300 . S
Cd67 O75 2.381 . S
Cd67 O76 2.378 . S
O68 Cd69 2.385 . S
O68 C73 1.255 . S
Cd69 O68 2.385 . S
Cd69 O70 2.317 . S
O70 Cd69 2.317 . S
O70 C71 1.232 . S
C71 O70 1.232 . S
C71 O72 1.218 . S
O72 C71 1.218 . S
C73 O66 1.275 . S
C73 O68 1.255 . S
C74 O75 1.258 . S
C74 O76 1.256 . S
O75 Cd67 2.381 . S
O75 C74 1.258 . S
O76 Cd67 2.378 . S
O76 C74 1.256 . S
O77 Cd78 2.300 . S
O77 C84 1.275 . S
Cd78 O77 2.300 . S
Cd78 O86 2.381 . S
Cd78 O87 2.378 . S
O79 Cd80 2.385 . S
O79 C84 1.255 . S
Cd80 O79 2.385 . S
Cd80 O81 2.317 . S
O81 Cd80 2.317 . S
O81 C82 1.232 . S
C82 O81 1.232 . S
C82 O83 1.218 . S
O83 C82 1.218 . S
C84 O77 1.275 . S
C84 O79 1.255 . S
C85 O86 1.258 . S
C85 O87 1.256 . S
O86 Cd78 2.381 . S
O86 C85 1.258 . S
O87 Cd78 2.378 . S
O87 C85 1.256 . S
O88 Mn89 2.163 1_655 S
O88 C102 1.244 . S
Mn89 O88 2.163 1_455 S
Mn89 O92 2.160 1_545 S
Mn89 O93 2.221 . S
Mn89 O95 2.163 1_445 S
Mn89 O97 2.160 . S
Mn89 O107 2.221 1_445 S
O90 Mn91 2.088 1_545 S
O90 C102 1.255 . S
Mn91 O90 2.088 1_565 S
Mn91 O98 2.089 1_565 S
Mn91 O107 2.290 . S
Mn91 O108 2.251 . S
O92 Mn89 2.160 1_565 S
O92 C103 1.239 . S
O93 Mn89 2.221 . S
O93 Mn94 2.290 . S
O93 C104 1.278 . S
Mn94 O93 2.290 . S
Mn94 O96 2.089 . S
Mn94 O99 2.251 . S
Mn94 O100 2.087 . S
O95 Mn89 2.163 1_665 S
O95 C105 1.244 . S
O96 Mn94 2.089 . S
O96 C103 1.256 1_545 S
O97 Mn89 2.160 . S
O97 C106 1.239 . S
O98 Mn91 2.089 1_545 S
O98 C106 1.256 1_655 S
O99 Mn94 2.251 . S
O99 C104 1.241 . S
O100 Mn94 2.087 . S
O100 C105 1.256 1_445 S
C101 O107 1.278 . S
C101 O108 1.241 . S
C102 O88 1.244 . S
C102 O90 1.255 . S
C103 O92 1.239 . S
C103 O96 1.256 1_565 S
C104 O93 1.278 . S
C104 O99 1.241 . S
C105 O95 1.244 . S
C105 O100 1.256 1_665 S
C106 O97 1.239 . S
C106 O98 1.256 1_455 S
O107 Mn89 2.221 1_665 S
O107 Mn91 2.290 . S
O107 C101 1.278 . S
O108 Mn91 2.251 . S
O108 C101 1.241 . S
O109 Mn110 2.163 . S
O109 C123 1.244 1_554 S
Mn110 O109 2.163 . S
Mn110 O113 2.160 . S
Mn110 O114 2.221 . S
Mn110 O116 2.163 . S
Mn110 O118 2.160 . S
Mn110 O128 2.221 1_545 S
O111 Mn112 2.087 1_556 S
O111 C123 1.256 1_565 S
Mn112 O111 2.087 1_554 S
Mn112 O119 2.089 . S
Mn112 O128 2.290 . S
Mn112 O129 2.251 . S
O113 Mn110 2.160 . S
O113 C124 1.239 . S
O114 Mn110 2.221 . S
O114 Mn115 2.290 . S
O114 C125 1.278 . S
Mn115 O114 2.290 . S
Mn115 O117 2.089 . S
Mn115 O120 2.251 . S
Mn115 O121 2.087 . S
O116 Mn110 2.163 . S
O116 C126 1.244 . S
O117 Mn115 2.089 . S
O117 C124 1.256 . S
O118 Mn110 2.160 . S
O118 C127 1.239 . S
O119 Mn112 2.089 . S
O119 C127 1.256 1_565 S
O120 Mn115 2.251 . S
O120 C125 1.241 . S
O121 Mn115 2.087 . S
O121 C126 1.256 . S
C122 O128 1.278 . S
C122 O129 1.241 . S
C123 O109 1.244 1_556 S
C123 O111 1.256 1_545 S
C124 O113 1.239 . S
C124 O117 1.256 . S
C125 O114 1.278 . S
C125 O120 1.241 . S
C126 O116 1.244 . S
C126 O121 1.256 . S
C127 O118 1.239 . S
C127 O119 1.256 1_545 S
O128 Mn110 2.221 1_565 S
O128 Mn112 2.290 . S
O128 C122 1.278 . S
O129 Mn112 2.251 . S
O129 C122 1.241 . S
O130 Mn131 2.163 . S
O130 C144 1.244 . S
Mn131 O130 2.163 . S
Mn131 O134 2.160 . S
Mn131 O135 2.221 . S
Mn131 O137 2.163 . S
Mn131 O139 2.160 . S
Mn131 O149 2.221 . S
O132 Mn133 2.087 . S
O132 C144 1.256 . S
Mn133 O132 2.087 . S
Mn133 O140 2.089 . S
Mn133 O149 2.290 . S
Mn133 O150 2.251 . S
O134 Mn131 2.160 . S
O134 C145 1.239 . S
O135 Mn131 2.221 . S
O135 Mn136 2.290 . S
O135 C146 1.278 . S
Mn136 O135 2.290 . S
Mn136 O138 2.089 . S
Mn136 O141 2.251 . S
Mn136 O142 2.087 . S
O137 Mn131 2.163 . S
O137 C147 1.244 . S
O138 Mn136 2.089 . S
O138 C145 1.256 . S
O139 Mn131 2.160 . S
O139 C148 1.239 . S
O140 Mn133 2.089 . S
O140 C148 1.256 . S
O141 Mn136 2.251 . S
O141 C146 1.241 . S
O142 Mn136 2.087 . S
O142 C147 1.256 . S
C143 O149 1.278 . S
C143 O150 1.241 . S
C144 O130 1.244 . S
C144 O132 1.256 . S
C145 O134 1.239 . S
C145 O138 1.256 . S
C146 O135 1.278 . S
C146 O141 1.241 . S
C147 O137 1.244 . S
C147 O142 1.256 . S
C148 O139 1.239 . S
C148 O140 1.256 . S
O149 Mn131 2.221 . S
O149 Mn133 2.290 . S
O149 C143 1.278 . S
O150 Mn133 2.251 . S
O150 C143 1.241 . S
O151 Mn152 2.163 1_655 S
O151 C165 1.244 1_554 S
Mn152 O151 2.163 1_455 S
Mn152 O155 2.160 . S
Mn152 O156 2.221 . S
Mn152 O158 2.163 . S
Mn152 O160 2.160 . S
Mn152 O170 2.221 1_554 S
O153 Mn154 2.087 . S
O153 C165 1.256 . S
Mn154 O153 2.087 . S
Mn154 O161 2.089 . S
Mn154 O170 2.290 1_655 S
Mn154 O171 2.251 1_655 S
O155 Mn152 2.160 . S
O155 C166 1.239 . S
O156 Mn152 2.221 . S
O156 Mn157 2.290 . S
O156 C167 1.278 1_455 S
Mn157 O156 2.290 . S
Mn157 O159 2.089 . S
Mn157 O162 2.251 . S
Mn157 O163 2.087 . S
O158 Mn152 2.163 . S
O158 C168 1.244 . S
O159 Mn157 2.089 . S
O159 C166 1.256 . S
O160 Mn152 2.160 . S
O160 C169 1.247 1_554 S
O161 Mn154 2.089 . S
O161 C169 1.251 1_655 S
O162 Mn157 2.251 . S
O162 C167 1.241 1_455 S
O163 Mn157 2.087 . S
O163 C168 1.256 . S
C164 O170 1.278 . S
C164 O171 1.241 . S
C165 O151 1.244 1_556 S
C165 O153 1.256 . S
C166 O155 1.239 . S
C166 O159 1.256 . S
C167 O156 1.278 1_655 S
C167 O162 1.241 1_655 S
C168 O158 1.244 . S
C168 O163 1.256 . S
C169 O160 1.247 1_556 S
C169 O161 1.251 1_455 S
O170 Mn152 2.221 1_556 S
O170 Mn154 2.290 1_455 S
O170 C164 1.278 . S
O171 Mn154 2.251 1_455 S
O171 C164 1.241 . S
H172 C180 0.929 . S
H173 C182 0.930 . S
H174 C184 0.930 . S
H175 C187 0.929 . S
H176 C190 0.930 . S
H177 C192 0.960 . S
H178 C192 0.960 . S
H179 C192 0.960 . S
C180 H172 0.929 . S
C180 C181 1.377 . S
C180 C182 1.384 . S
C181 C180 1.377 . S
C181 C187 1.390 . S
C182 H173 0.930 . S
C182 C180 1.384 . S
C182 C183 1.372 . S
C183 C182 1.372 . S
C183 C184 1.400 . S
C183 C188 1.490 . S
C184 H174 0.930 . S
C184 C183 1.400 . S
C184 C187 1.386 . S
H185 C201 0.930 . S
H186 C202 0.931 . S
C187 H175 0.929 . S
C187 C181 1.390 . S
C187 C184 1.386 . S
C188 C183 1.490 . S
C188 C190 1.395 . S
C188 C191 1.403 . S
H189 C195 0.930 . S
C190 H176 0.930 . S
C190 C188 1.395 . S
C190 C193 1.403 . S
C191 C188 1.403 . S
C191 C192 1.524 . S
C191 C195 1.400 . S
C192 H177 0.960 . S
C192 H178 0.960 . S
C192 H179 0.960 . S
C192 C191 1.524 . S
C193 C190 1.403 . S
C193 C194 1.392 . S
C193 C197 1.495 . S
C194 C193 1.392 . S
C194 C195 1.385 . S
C194 C196 1.478 . S
C195 H189 0.930 . S
C195 C191 1.400 . S
C195 C194 1.385 . S
C196 C194 1.478 . S
C196 C198 1.381 . S
C196 C202 1.383 . S
C197 C193 1.495 . S
C197 H203 0.959 . S
C197 H204 0.961 . S
C197 H205 0.960 . S
C198 C196 1.381 . S
C198 C199 1.394 . S
C198 H206 0.930 . S
C199 C198 1.394 . S
C199 C200 1.383 . S
C199 H207 0.929 . S
C200 C199 1.383 . S
C200 C201 1.377 . S
C201 H185 0.930 . S
C201 C200 1.377 . S
C201 C202 1.379 . S
C202 H186 0.931 . S
C202 C196 1.383 . S
C202 C201 1.379 . S
H203 C197 0.959 . S
H204 C197 0.961 . S
H205 C197 0.960 . S
H206 C198 0.930 . S
H207 C199 0.929 . S
H208 C216 0.929 . S
H209 C218 0.930 . S
H210 C220 0.930 . S
H211 C223 0.929 . S
H212 C226 0.930 . S
H213 C228 0.960 . S
H214 C228 0.960 . S
H215 C228 0.960 . S
C216 H208 0.929 . S
C216 C217 1.377 . S
C216 C218 1.384 . S
C217 C216 1.377 . S
C217 C223 1.390 . S
C218 H209 0.930 . S
C218 C216 1.384 . S
C218 C219 1.372 . S
C219 C218 1.372 . S
C219 C220 1.400 . S
C219 C224 1.490 . S
C220 H210 0.930 . S
C220 C219 1.400 . S
C220 C223 1.386 . S
H221 C237 0.930 . S
H222 C238 0.931 . S
C223 H211 0.929 . S
C223 C217 1.390 . S
C223 C220 1.386 . S
C224 C219 1.490 . S
C224 C226 1.395 . S
C224 C227 1.403 . S
H225 C231 0.930 . S
C226 H212 0.930 . S
C226 C224 1.395 . S
C226 C229 1.403 . S
C227 C224 1.403 . S
C227 C228 1.524 . S
C227 C231 1.400 . S
C228 H213 0.960 . S
C228 H214 0.960 . S
C228 H215 0.960 . S
C228 C227 1.524 . S
C229 C226 1.403 . S
C229 C230 1.392 . S
C229 C233 1.495 . S
C230 C229 1.392 . S
C230 C231 1.385 . S
C230 C232 1.478 . S
C231 H225 0.930 . S
C231 C227 1.400 . S
C231 C230 1.385 . S
C232 C230 1.478 . S
C232 C234 1.381 . S
C232 C238 1.383 1_565 S
C233 C229 1.495 . S
C233 H239 0.959 . S
C233 H240 0.961 . S
C233 H241 0.960 . S
C234 C232 1.381 . S
C234 C235 1.394 . S
C234 H242 0.930 . S
C235 C234 1.394 . S
C235 C236 1.383 1_565 S
C235 H243 0.929 . S
C236 C235 1.383 1_545 S
C236 C237 1.377 . S
C237 H221 0.930 . S
C237 C236 1.377 . S
C237 C238 1.379 . S
C238 H222 0.931 . S
C238 C232 1.383 1_545 S
C238 C237 1.379 . S
H239 C233 0.959 . S
H240 C233 0.961 . S
H241 C233 0.960 . S
H242 C234 0.930 . S
H243 C235 0.929 . S
H244 C252 0.929 . S
H245 C254 0.930 . S
H246 C256 0.930 . S
H247 C259 0.929 . S
H248 C262 0.930 . S
H249 C264 0.960 . S
H250 C264 0.960 . S
H251 C264 0.960 . S
C252 H244 0.929 . S
C252 C253 1.377 . S
C252 C254 1.384 . S
C253 C252 1.377 . S
C253 C259 1.390 . S
C254 H245 0.930 . S
C254 C252 1.384 . S
C254 C255 1.372 . S
C255 C254 1.372 . S
C255 C256 1.400 . S
C255 C260 1.490 . S
C256 H246 0.930 . S
C256 C255 1.400 . S
C256 C259 1.386 . S
H257 C273 0.930 . S
H258 C274 0.931 . S
C259 H247 0.929 . S
C259 C253 1.390 . S
C259 C256 1.386 . S
C260 C255 1.490 . S
C260 C262 1.395 . S
C260 C263 1.403 . S
H261 C267 0.930 . S
C262 H248 0.930 . S
C262 C260 1.395 . S
C262 C265 1.403 . S
C263 C260 1.403 . S
C263 C264 1.524 . S
C263 C267 1.400 . S
C264 H249 0.960 . S
C264 H250 0.960 . S
C264 H251 0.960 . S
C264 C263 1.524 . S
C265 C262 1.403 . S
C265 C266 1.392 . S
C265 C269 1.495 . S
C266 C265 1.392 . S
C266 C267 1.385 . S
C266 C268 1.478 . S
C267 H261 0.930 . S
C267 C263 1.400 . S
C267 C266 1.385 . S
C268 C266 1.478 . S
C268 C270 1.381 . S
C268 C274 1.383 . S
C269 C265 1.495 . S
C269 H275 0.959 . S
C269 H276 0.961 . S
C269 H277 0.960 . S
C270 C268 1.381 . S
C270 C271 1.394 . S
C270 H278 0.930 . S
C271 C270 1.394 . S
C271 C272 1.383 . S
C271 H279 0.929 . S
C272 C271 1.383 . S
C272 C273 1.377 . S
C273 H257 0.930 . S
C273 C272 1.377 . S
C273 C274 1.379 . S
C274 H258 0.931 . S
C274 C268 1.383 . S
C274 C273 1.379 . S
H275 C269 0.959 . S
H276 C269 0.961 . S
H277 C269 0.960 . S
H278 C270 0.930 . S
H279 C271 0.929 . S
H280 C288 0.929 . S
H281 C290 0.930 . S
H282 C292 0.930 . S
H283 C295 0.929 . S
H284 C298 0.930 . S
H285 C300 0.960 . S
H286 C300 0.960 . S
H287 C300 0.960 . S
C288 H280 0.929 . S
C288 C289 1.377 . S
C288 C290 1.384 . S
C289 C288 1.377 . S
C289 C295 1.390 . S
C290 H281 0.930 . S
C290 C288 1.384 . S
C290 C291 1.372 . S
C291 C290 1.372 . S
C291 C292 1.400 . S
C291 C296 1.490 . S
C292 H282 0.930 . S
C292 C291 1.400 . S
C292 C295 1.386 . S
H293 C309 0.966 . S
H294 C310 0.931 1_455 S
C295 H283 0.929 . S
C295 C289 1.390 . S
C295 C292 1.386 . S
C296 C291 1.490 . S
C296 C298 1.395 . S
C296 C299 1.403 . S
H297 C303 0.930 . S
C298 H284 0.930 . S
C298 C296 1.395 . S
C298 C301 1.403 . S
C299 C296 1.403 . S
C299 C300 1.524 . S
C299 C303 1.400 . S
C300 H285 0.960 . S
C300 H286 0.960 . S
C300 H287 0.960 . S
C300 C299 1.524 . S
C301 C298 1.403 . S
C301 C302 1.392 . S
C301 C305 1.495 . S
C302 C301 1.392 . S
C302 C303 1.385 . S
C302 C304 1.478 . S
C303 H297 0.930 . S
C303 C299 1.400 . S
C303 C302 1.385 . S
C304 C302 1.478 . S
C304 C306 1.381 . S
C304 C310 1.383 . S
C305 C301 1.495 . S
C305 H311 0.959 . S
C305 H312 0.961 . S
C305 H313 0.960 . S
C306 C304 1.381 . S
C306 C307 1.394 . S
C306 H314 0.930 . S
C307 C306 1.394 . S
C307 C308 1.383 . S
C307 H315 0.929 . S
C308 C307 1.383 . S
C308 C309 1.353 1_655 S
C309 H293 0.966 . S
C309 C308 1.353 1_455 S
C309 C310 1.368 1_455 S
C310 H294 0.931 1_655 S
C310 C304 1.383 . S
C310 C309 1.368 1_655 S
H311 C305 0.959 . S
H312 C305 0.961 . S
H313 C305 0.960 . S
H314 C306 0.930 . S
H315 C307 0.929 . S
H316 C324 0.929 . S
H317 C326 0.930 . S
H318 C328 0.930 . S
H319 C331 0.929 . S
H320 C334 0.930 . S
H321 C336 0.960 . S
H322 C336 0.960 . S
H323 C336 0.960 . S
C324 H316 0.929 . S
C324 C325 1.377 . S
C324 C326 1.384 . S
C325 C324 1.377 . S
C325 C331 1.390 . S
C326 H317 0.930 . S
C326 C324 1.384 . S
C326 C327 1.372 . S
C327 C326 1.372 . S
C327 C328 1.400 . S
C327 C332 1.490 . S
C328 H318 0.930 . S
C328 C327 1.400 . S
C328 C331 1.386 . S
H329 C345 0.930 . S
H330 C346 0.931 . S
C331 H319 0.929 . S
C331 C325 1.390 . S
C331 C328 1.386 . S
C332 C327 1.490 . S
C332 C334 1.395 . S
C332 C335 1.403 . S
H333 C339 0.930 . S
C334 H320 0.930 . S
C334 C332 1.395 . S
C334 C337 1.403 . S
C335 C332 1.403 . S
C335 C336 1.524 . S
C335 C339 1.400 . S
C336 H321 0.960 . S
C336 H322 0.960 . S
C336 H323 0.960 . S
C336 C335 1.524 . S
C337 C334 1.403 . S
C337 C338 1.392 . S
C337 C341 1.495 . S
C338 C337 1.392 . S
C338 C339 1.385 . S
C338 C340 1.478 . S
C339 H333 0.930 . S
C339 C335 1.400 . S
C339 C338 1.385 . S
C340 C338 1.478 . S
C340 C342 1.381 . S
C340 C346 1.383 . S
C341 C337 1.495 . S
C341 H347 0.959 . S
C341 H348 0.961 . S
C341 H349 0.960 . S
C342 C340 1.381 . S
C342 C343 1.394 . S
C342 H350 0.930 . S
C343 C342 1.394 . S
C343 C344 1.383 . S
C343 H351 0.929 . S
C344 C343 1.383 . S
C344 C345 1.377 . S
C345 H329 0.930 . S
C345 C344 1.377 . S
C345 C346 1.379 . S
C346 H330 0.931 . S
C346 C340 1.383 . S
C346 C345 1.379 . S
H347 C341 0.959 . S
H348 C341 0.961 . S
H349 C341 0.960 . S
H350 C342 0.930 . S
H351 C343 0.929 . S
H352 C360 0.929 . S
H353 C362 0.930 . S
H354 C364 0.930 . S
H355 C367 0.929 . S
H356 C370 0.930 . S
H357 C372 0.960 . S
H358 C372 0.960 . S
H359 C372 0.960 . S
C360 H352 0.929 . S
C360 C361 1.377 . S
C360 C362 1.384 . S
C361 C360 1.377 . S
C361 C367 1.390 . S
C362 H353 0.930 . S
C362 C360 1.384 . S
C362 C363 1.372 . S
C363 C362 1.372 . S
C363 C364 1.400 . S
C363 C368 1.490 . S
C364 H354 0.930 . S
C364 C363 1.400 . S
C364 C367 1.386 . S
H365 C381 0.930 . S
H366 C382 0.931 . S
C367 H355 0.929 . S
C367 C361 1.390 . S
C367 C364 1.386 . S
C368 C363 1.490 . S
C368 C370 1.395 . S
C368 C371 1.403 . S
H369 C375 0.930 . S
C370 H356 0.930 . S
C370 C368 1.395 . S
C370 C373 1.403 . S
C371 C368 1.403 . S
C371 C372 1.524 . S
C371 C375 1.400 . S
C372 H357 0.960 . S
C372 H358 0.960 . S
C372 H359 0.960 . S
C372 C371 1.524 . S
C373 C370 1.403 . S
C373 C374 1.392 . S
C373 C377 1.495 . S
C374 C373 1.392 . S
C374 C375 1.385 . S
C374 C376 1.478 . S
C375 H369 0.930 . S
C375 C371 1.400 . S
C375 C374 1.385 . S
C376 C374 1.478 . S
C376 C378 1.381 . S
C376 C382 1.383 . S
C377 C373 1.495 . S
C377 H383 0.959 . S
C377 H384 0.961 . S
C377 H385 0.960 . S
C378 C376 1.381 . S
C378 C379 1.394 . S
C378 H386 0.930 1_565 S
C379 C378 1.394 . S
C379 C380 1.383 . S
C379 H387 0.929 1_565 S
C380 C379 1.383 . S
C380 C381 1.377 . S
C381 H365 0.930 . S
C381 C380 1.377 . S
C381 C382 1.379 . S
C382 H366 0.931 . S
C382 C376 1.383 . S
C382 C381 1.379 . S
H383 C377 0.959 . S
H384 C377 0.961 . S
H385 C377 0.960 . S
H386 C378 0.930 1_545 S
H387 C379 0.929 1_545 S
H388 C396 0.929 . S
H389 C398 0.930 . S
H390 C400 0.930 . S
H391 C403 0.929 . S
H392 C406 0.930 . S
H393 C408 0.960 . S
H394 C408 0.960 . S
H395 C408 0.960 . S
C396 H388 0.929 . S
C396 C397 1.377 . S
C396 C398 1.384 . S
C397 C396 1.377 . S
C397 C403 1.390 . S
C398 H389 0.930 . S
C398 C396 1.384 . S
C398 C399 1.372 . S
C399 C398 1.372 . S
C399 C400 1.400 . S
C399 C404 1.490 . S
C400 H390 0.930 . S
C400 C399 1.400 . S
C400 C403 1.386 . S
H401 C417 0.930 . S
H402 C418 0.931 . S
C403 H391 0.929 . S
C403 C397 1.390 . S
C403 C400 1.386 . S
C404 C399 1.490 . S
C404 C406 1.395 . S
C404 C407 1.403 . S
H405 C411 0.930 . S
C406 H392 0.930 . S
C406 C404 1.395 . S
C406 C409 1.403 . S
C407 C404 1.403 . S
C407 C408 1.524 . S
C407 C411 1.400 . S
C408 H393 0.960 . S
C408 H394 0.960 . S
C408 H395 0.960 . S
C408 C407 1.524 . S
C409 C406 1.403 . S
C409 C410 1.392 . S
C409 C413 1.495 1_556 S
C410 C409 1.392 . S
C410 C411 1.385 . S
C410 C412 1.478 . S
C411 H405 0.930 . S
C411 C407 1.400 . S
C411 C410 1.385 . S
C412 C410 1.478 . S
C412 C414 1.387 . S
C412 C418 1.383 . S
C413 C409 1.495 1_554 S
C413 H419 0.959 . S
C413 H420 0.961 . S
C413 H421 0.960 . S
C414 C412 1.387 . S
C414 C415 1.393 1_556 S
C414 H422 0.926 1_556 S
C415 C414 1.393 1_554 S
C415 C416 1.383 1_554 S
C415 H423 0.929 . S
C416 C415 1.383 1_556 S
C416 C417 1.377 . S
C417 H401 0.930 . S
C417 C416 1.377 . S
C417 C418 1.379 . S
C418 H402 0.931 . S
C418 C412 1.383 . S
C418 C417 1.379 . S
H419 C413 0.959 . S
H420 C413 0.961 . S
H421 C413 0.960 . S
H422 C414 0.926 1_554 S
H423 C415 0.929 . S
H424 C432 0.929 . S
H425 C434 0.930 . S
H426 C436 0.930 . S
H427 C439 0.929 . S
H428 C442 0.930 . S
H429 C444 0.960 . S
H430 C444 0.960 . S
H431 C444 0.960 . S
C432 H424 0.929 . S
C432 C433 1.377 . S
C432 C434 1.384 . S
C433 C432 1.377 . S
C433 C439 1.390 . S
C434 H425 0.930 . S
C434 C432 1.384 . S
C434 C435 1.372 . S
C435 C434 1.372 . S
C435 C436 1.400 . S
C435 C440 1.490 . S
C436 H426 0.930 . S
C436 C435 1.400 . S
C436 C439 1.386 . S
H437 C453 0.930 . S
H438 C454 0.931 . S
C439 H427 0.929 . S
C439 C433 1.390 . S
C439 C436 1.386 . S
C440 C435 1.490 . S
C440 C442 1.395 . S
C440 C443 1.403 . S
H441 C447 0.930 . S
C442 H428 0.930 . S
C442 C440 1.395 . S
C442 C445 1.403 . S
C443 C440 1.403 . S
C443 C444 1.524 . S
C443 C447 1.400 . S
C444 H429 0.960 . S
C444 H430 0.960 . S
C444 H431 0.960 . S
C444 C443 1.524 . S
C445 C442 1.403 . S
C445 C446 1.392 . S
C445 C449 1.495 . S
C446 C445 1.392 . S
C446 C447 1.385 . S
C446 C448 1.478 . S
C447 H441 0.930 . S
C447 C443 1.400 . S
C447 C446 1.385 . S
C448 C446 1.478 . S
C448 C450 1.381 . S
C448 C454 1.383 . S
C449 C445 1.495 . S
C449 H455 0.959 . S
C449 H456 0.961 . S
C449 H457 0.960 . S
C450 C448 1.381 . S
C450 C451 1.394 . S
C450 H458 0.930 . S
C451 C450 1.394 . S
C451 C452 1.383 . S
C451 H459 0.929 . S
C452 C451 1.383 . S
C452 C453 1.377 . S
C453 H437 0.930 . S
C453 C452 1.377 . S
C453 C454 1.379 . S
C454 H438 0.931 . S
C454 C448 1.383 . S
C454 C453 1.379 . S
H455 C449 0.959 . S
H456 C449 0.961 . S
H457 C449 0.960 . S
H458 C450 0.930 . S
H459 C451 0.929 . S
H460 C468 0.929 . S
H461 C470 0.930 . S
H462 C472 0.930 . S
H463 C475 0.929 . S
H464 C478 0.930 . S
H465 C480 0.960 . S
H466 C480 0.960 . S
H467 C480 0.960 . S
C468 H460 0.929 . S
C468 C469 1.377 . S
C468 C470 1.384 . S
C469 C468 1.377 . S
C469 C475 1.390 . S
C470 H461 0.930 . S
C470 C468 1.384 . S
C470 C471 1.372 . S
C471 C470 1.372 . S
C471 C472 1.400 . S
C471 C476 1.490 . S
C472 H462 0.930 . S
C472 C471 1.400 . S
C472 C475 1.386 . S
H473 C489 0.930 . S
H474 C490 0.931 . S
C475 H463 0.929 . S
C475 C469 1.390 . S
C475 C472 1.386 . S
C476 C471 1.490 . S
C476 C478 1.395 . S
C476 C479 1.403 . S
H477 C483 0.930 . S
C478 H464 0.930 . S
C478 C476 1.395 . S
C478 C481 1.403 . S
C479 C476 1.403 . S
C479 C480 1.524 . S
C479 C483 1.400 . S
C480 H465 0.960 . S
C480 H466 0.960 . S
C480 H467 0.960 . S
C480 C479 1.524 . S
C481 C478 1.403 . S
C481 C482 1.392 . S
C481 C485 1.495 . S
C482 C481 1.392 . S
C482 C483 1.385 . S
C482 C484 1.478 . S
C483 H477 0.930 . S
C483 C479 1.400 . S
C483 C482 1.385 . S
C484 C482 1.478 . S
C484 C486 1.381 . S
C484 C490 1.383 . S
C485 C481 1.495 . S
C485 H491 0.956 1_554 S
C485 H492 0.961 . S
C485 H493 0.960 . S
C486 C484 1.381 . S
C486 C487 1.394 . S
C486 H494 0.930 . S
C487 C486 1.394 . S
C487 C488 1.383 . S
C487 H495 0.929 . S
C488 C487 1.383 . S
C488 C489 1.377 . S
C489 H473 0.930 . S
C489 C488 1.377 . S
C489 C490 1.379 . S
C490 H474 0.931 . S
C490 C484 1.383 . S
C490 C489 1.379 . S
H491 C485 0.956 1_556 S
H492 C485 0.961 . S
H493 C485 0.960 . S
H494 C486 0.930 . S
H495 C487 0.929 . S
H496 C504 0.929 . S
H497 C506 0.930 . S
H498 C508 0.930 . S
H499 C511 0.929 . S
H500 C514 0.930 . S
H501 C516 0.960 . S
H502 C516 0.960 . S
H503 C516 0.960 . S
C504 H496 0.929 . S
C504 C505 1.377 . S
C504 C506 1.384 . S
C505 C504 1.377 . S
C505 C511 1.390 . S
C506 H497 0.930 . S
C506 C504 1.384 . S
C506 C507 1.372 . S
C507 C506 1.372 . S
C507 C508 1.400 . S
C507 C512 1.490 . S
C508 H498 0.930 . S
C508 C507 1.400 . S
C508 C511 1.386 . S
H509 C525 0.930 . S
H510 C526 0.931 . S
C511 H499 0.929 . S
C511 C505 1.390 . S
C511 C508 1.386 . S
C512 C507 1.490 . S
C512 C514 1.395 . S
C512 C515 1.403 . S
H513 C519 0.930 1_554 S
C514 H500 0.930 . S
C514 C512 1.395 . S
C514 C517 1.403 . S
C515 C512 1.403 . S
C515 C516 1.524 1_556 S
C515 C519 1.400 . S
C516 H501 0.960 . S
C516 H502 0.960 . S
C516 H503 0.960 . S
C516 C515 1.524 1_554 S
C517 C514 1.403 . S
C517 C518 1.392 . S
C517 C521 1.495 . S
C518 C517 1.392 . S
C518 C519 1.385 . S
C518 C520 1.478 . S
C519 H513 0.930 1_556 S
C519 C515 1.400 . S
C519 C518 1.385 . S
C520 C518 1.478 . S
C520 C522 1.381 . S
C520 C526 1.383 1_556 S
C521 C517 1.495 . S
C521 H527 0.959 . S
C521 H528 0.961 . S
C521 H529 0.960 . S
C522 C520 1.381 . S
C522 C523 1.394 . S
C522 H530 0.930 . S
C523 C522 1.394 . S
C523 C524 1.383 1_556 S
C523 H531 0.929 . S
C524 C523 1.383 1_554 S
C524 C525 1.377 . S
C525 H509 0.930 . S
C525 C524 1.377 . S
C525 C526 1.379 . S
C526 H510 0.931 . S
C526 C520 1.383 1_554 S
C526 C525 1.379 . S
H527 C521 0.959 . S
H528 C521 0.961 . S
H529 C521 0.960 . S
H530 C522 0.930 . S
H531 C523 0.929 . S
H532 C540 0.929 . S
H533 C542 0.930 . S
H534 C544 0.930 . S
H535 C547 0.929 . S
H536 C550 0.930 . S
H537 C552 0.960 . S
H538 C552 0.960 . S
H539 C552 0.960 . S
C540 H532 0.929 . S
C540 C541 1.377 . S
C540 C542 1.384 . S
C541 C540 1.377 . S
C541 C547 1.390 . S
C542 H533 0.930 . S
C542 C540 1.384 . S
C542 C543 1.372 . S
C543 C542 1.372 . S
C543 C544 1.400 . S
C543 C548 1.490 . S
C544 H534 0.930 . S
C544 C543 1.400 . S
C544 C547 1.386 . S
H545 C561 0.930 1_455 S
H546 C562 0.931 . S
C547 H535 0.929 . S
C547 C541 1.390 . S
C547 C544 1.386 . S
C548 C543 1.490 . S
C548 C550 1.395 . S
C548 C551 1.403 . S
H549 C555 0.930 . S
C550 H536 0.930 . S
C550 C548 1.395 . S
C550 C553 1.403 . S
C551 C548 1.403 . S
C551 C552 1.524 . S
C551 C555 1.400 . S
C552 H537 0.960 . S
C552 H538 0.960 . S
C552 H539 0.960 . S
C552 C551 1.524 . S
C553 C550 1.403 . S
C553 C554 1.392 . S
C553 C557 1.495 . S
C554 C553 1.392 . S
C554 C555 1.385 . S
C554 C556 1.478 . S
C555 H549 0.930 . S
C555 C551 1.400 . S
C555 C554 1.385 . S
C556 C554 1.478 . S
C556 C558 1.381 . S
C556 C562 1.383 . S
C557 C553 1.495 . S
C557 H563 0.959 . S
C557 H564 0.961 . S
C557 H565 0.960 . S
C558 C556 1.381 . S
C558 C559 1.394 . S
C558 H566 0.930 . S
C559 C558 1.394 . S
C559 C560 1.383 . S
C559 H567 0.929 . S
C560 C559 1.383 . S
C560 C561 1.377 . S
C561 H545 0.930 1_655 S
C561 C560 1.377 . S
C561 C562 1.379 . S
C562 H546 0.931 . S
C562 C556 1.383 . S
C562 C561 1.379 . S
H563 C557 0.959 . S
H564 C557 0.961 . S
H565 C557 0.960 . S
H566 C558 0.930 . S
H567 C559 0.929 . S
H568 C576 0.929 . S
H569 C578 0.930 . S
H570 C580 0.930 . S
H571 C583 0.929 . S
H572 C586 0.930 . S
H573 C588 0.960 . S
H574 C588 0.960 . S
H575 C588 0.960 . S
C576 H568 0.929 . S
C576 C577 1.377 . S
C576 C578 1.384 . S
C577 C576 1.377 . S
C577 C583 1.390 . S
C578 H569 0.930 . S
C578 C576 1.384 . S
C578 C579 1.372 . S
C579 C578 1.372 . S
C579 C580 1.400 . S
C579 C584 1.490 . S
C580 H570 0.930 . S
C580 C579 1.400 . S
C580 C583 1.386 . S
H581 C597 0.930 . S
H582 C598 0.931 . S
C583 H571 0.929 . S
C583 C577 1.390 . S
C583 C580 1.386 . S
C584 C579 1.490 . S
C584 C586 1.395 . S
C584 C587 1.403 . S
H585 C591 0.930 . S
C586 H572 0.930 . S
C586 C584 1.395 . S
C586 C589 1.403 . S
C587 C584 1.403 . S
C587 C588 1.524 . S
C587 C591 1.400 . S
C588 H573 0.960 . S
C588 H574 0.960 . S
C588 H575 0.960 . S
C588 C587 1.524 . S
C589 C586 1.403 . S
C589 C590 1.392 . S
C589 C593 1.495 . S
C590 C589 1.392 . S
C590 C591 1.385 . S
C590 C592 1.478 . S
C591 H585 0.930 . S
C591 C587 1.400 . S
C591 C590 1.385 . S
C592 C590 1.478 . S
C592 C594 1.381 . S
C592 C598 1.383 . S
C593 C589 1.495 . S
C593 H599 0.959 . S
C593 H600 0.961 . S
C593 H601 0.960 . S
C594 C592 1.381 . S
C594 C595 1.394 . S
C594 H602 0.930 . S
C595 C594 1.394 . S
C595 C596 1.383 . S
C595 H603 0.929 . S
C596 C595 1.383 . S
C596 C597 1.377 . S
C597 H581 0.930 . S
C597 C596 1.377 . S
C597 C598 1.379 . S
C598 H582 0.931 . S
C598 C592 1.383 . S
C598 C597 1.379 . S
H599 C593 0.959 . S
H600 C593 0.961 . S
H601 C593 0.960 . S
H602 C594 0.930 . S
H603 C595 0.929 . S
H604 C612 0.929 . S
H605 C614 0.930 . S
H606 C616 0.930 . S
H607 C619 0.929 . S
H608 C622 0.930 . S
H609 C624 0.960 1_545 S
H610 C624 0.960 . S
H611 C624 0.960 . S
C612 H604 0.929 . S
C612 C613 1.377 . S
C612 C614 1.384 . S
C613 C612 1.377 . S
C613 C619 1.390 . S
C614 H605 0.930 . S
C614 C612 1.384 . S
C614 C615 1.372 . S
C615 C614 1.372 . S
C615 C616 1.400 . S
C615 C620 1.490 . S
C616 H606 0.930 . S
C616 C615 1.400 . S
C616 C619 1.386 . S
H617 C633 0.930 . S
H618 C634 0.931 . S
C619 H607 0.929 . S
C619 C613 1.390 . S
C619 C616 1.386 . S
C620 C615 1.490 . S
C620 C622 1.395 . S
C620 C623 1.403 . S
H621 C627 0.930 . S
C622 H608 0.930 . S
C622 C620 1.395 . S
C622 C625 1.403 . S
C623 C620 1.403 . S
C623 C624 1.524 . S
C623 C627 1.400 . S
C624 H609 0.960 1_565 S
C624 H610 0.960 . S
C624 H611 0.960 . S
C624 C623 1.524 . S
C625 C622 1.403 . S
C625 C626 1.392 . S
C625 C629 1.495 . S
C626 C625 1.392 . S
C626 C627 1.385 . S
C626 C628 1.478 . S
C627 H621 0.930 . S
C627 C623 1.400 . S
C627 C626 1.385 . S
C628 C626 1.478 . S
C628 C630 1.381 . S
C628 C634 1.383 . S
C629 C625 1.495 . S
C629 H635 0.959 . S
C629 H636 0.961 . S
C629 H637 0.960 . S
C630 C628 1.381 . S
C630 C631 1.388 1_655 S
C630 H638 0.930 1_655 S
C631 C630 1.388 1_455 S
C631 C632 1.366 1_455 S
C631 H639 0.954 . S
C632 C631 1.366 1_655 S
C632 C633 1.377 . S
C633 H617 0.930 . S
C633 C632 1.377 . S
C633 C634 1.379 . S
C634 H618 0.931 . S
C634 C628 1.383 . S
C634 C633 1.379 . S
H635 C629 0.959 . S
H636 C629 0.961 . S
H637 C629 0.960 . S
H638 C630 0.930 1_455 S
H639 C631 0.954 . S
H640 C648 0.929 . S
H641 C650 0.930 . S
H642 C652 0.930 . S
H643 C655 0.929 . S
H644 C658 0.930 . S
H645 C660 0.960 . S
H646 C660 0.960 . S
H647 C660 0.960 . S
C648 H640 0.929 . S
C648 C649 1.377 . S
C648 C650 1.384 . S
C649 C648 1.377 . S
C649 C655 1.390 . S
C650 H641 0.930 . S
C650 C648 1.384 . S
C650 C651 1.372 . S
C651 C650 1.372 . S
C651 C652 1.400 . S
C651 C656 1.490 . S
C652 H642 0.930 . S
C652 C651 1.400 . S
C652 C655 1.386 . S
H653 C669 0.930 . S
H654 C670 0.931 . S
C655 H643 0.929 . S
C655 C649 1.390 . S
C655 C652 1.386 . S
C656 C651 1.490 . S
C656 C658 1.395 . S
C656 C659 1.403 . S
H657 C663 0.930 . S
C658 H644 0.930 . S
C658 C656 1.395 . S
C658 C661 1.403 . S
C659 C656 1.403 . S
C659 C660 1.524 . S
C659 C663 1.400 . S
C660 H645 0.960 . S
C660 H646 0.960 . S
C660 H647 0.960 . S
C660 C659 1.524 . S
C661 C658 1.403 . S
C661 C662 1.392 . S
C661 C665 1.495 . S
C662 C661 1.392 . S
C662 C663 1.385 . S
C662 C664 1.478 . S
C663 H657 0.930 . S
C663 C659 1.400 . S
C663 C662 1.385 . S
C664 C662 1.478 . S
C664 C666 1.381 . S
C664 C670 1.383 . S
C665 C661 1.495 . S
C665 H671 0.959 . S
C665 H672 0.961 . S
C665 H673 0.960 . S
C666 C664 1.381 . S
C666 C667 1.394 . S
C666 H674 0.930 . S
C667 C666 1.394 . S
C667 C668 1.383 . S
C667 H675 0.929 . S
C668 C667 1.383 . S
C668 C669 1.377 . S
C669 H653 0.930 . S
C669 C668 1.377 . S
C669 C670 1.379 . S
C670 H654 0.931 . S
C670 C664 1.383 . S
C670 C669 1.379 . S
H671 C665 0.959 . S
H672 C665 0.961 . S
H673 C665 0.960 . S
H674 C666 0.930 . S
H675 C667 0.929 . S
H676 C684 0.929 . S
H677 C686 0.930 . S
H678 C688 0.930 . S
H679 C691 0.929 . S
H680 C694 0.930 . S
H681 C696 0.960 . S
H682 C696 0.960 . S
H683 C696 0.960 . S
C684 H676 0.929 . S
C684 C685 1.377 . S
C684 C686 1.384 . S
C685 C684 1.377 . S
C685 C691 1.390 . S
C686 H677 0.930 . S
C686 C684 1.384 . S
C686 C687 1.372 . S
C687 C686 1.372 . S
C687 C688 1.400 . S
C687 C692 1.490 . S
C688 H678 0.930 . S
C688 C687 1.400 . S
C688 C691 1.386 . S
H689 C705 0.930 . S
H690 C706 0.931 . S
C691 H679 0.929 . S
C691 C685 1.390 . S
C691 C688 1.386 . S
C692 C687 1.490 . S
C692 C694 1.395 . S
C692 C695 1.403 . S
H693 C699 0.930 . S
C694 H680 0.930 . S
C694 C692 1.395 . S
C694 C697 1.403 . S
C695 C692 1.403 . S
C695 C696 1.524 . S
C695 C699 1.400 . S
C696 H681 0.960 . S
C696 H682 0.960 . S
C696 H683 0.960 . S
C696 C695 1.524 . S
C697 C694 1.403 . S
C697 C698 1.392 . S
C697 C701 1.495 . S
C698 C697 1.392 . S
C698 C699 1.385 . S
C698 C700 1.478 . S
C699 H693 0.930 . S
C699 C695 1.400 . S
C699 C698 1.385 . S
C700 C698 1.478 . S
C700 C702 1.381 . S
C700 C706 1.383 . S
C701 C697 1.495 . S
C701 H707 0.959 . S
C701 H708 0.961 . S
C701 H709 0.960 . S
C702 C700 1.381 . S
C702 C703 1.394 . S
C702 H710 0.930 . S
C703 C702 1.394 . S
C703 C704 1.383 . S
C703 H711 0.929 . S
C704 C703 1.383 . S
C704 C705 1.377 . S
C705 H689 0.930 . S
C705 C704 1.377 . S
C705 C706 1.379 . S
C706 H690 0.931 . S
C706 C700 1.383 . S
C706 C705 1.379 . S
H707 C701 0.959 . S
H708 C701 0.961 . S
H709 C701 0.960 . S
H710 C702 0.930 . S
H711 C703 0.929 . S
H712 C720 0.929 . S
H713 C722 0.930 . S
H714 C724 0.930 . S
H715 C727 0.929 . S
H716 C730 0.930 . S
H717 C732 0.960 . S
H718 C732 0.960 . S
H719 C732 0.960 . S
C720 H712 0.929 . S
C720 C721 1.377 . S
C720 C722 1.384 . S
C721 C720 1.377 . S
C721 C727 1.390 . S
C722 H713 0.930 . S
C722 C720 1.384 . S
C722 C723 1.372 . S
C723 C722 1.372 . S
C723 C724 1.400 . S
C723 C728 1.490 . S
C724 H714 0.930 . S
C724 C723 1.400 . S
C724 C727 1.386 . S
H725 C741 0.930 . S
H726 C742 0.931 . S
C727 H715 0.929 . S
C727 C721 1.390 . S
C727 C724 1.386 . S
C728 C723 1.490 . S
C728 C730 1.395 . S
C728 C731 1.403 . S
H729 C735 0.930 . S
C730 H716 0.930 . S
C730 C728 1.395 . S
C730 C733 1.403 . S
C731 C728 1.403 . S
C731 C732 1.524 . S
C731 C735 1.400 . S
C732 H717 0.960 . S
C732 H718 0.960 . S
C732 H719 0.960 . S
C732 C731 1.524 . S
C733 C730 1.403 . S
C733 C734 1.392 . S
C733 C737 1.495 . S
C734 C733 1.392 . S
C734 C735 1.385 . S
C734 C736 1.478 . S
C735 H729 0.930 . S
C735 C731 1.400 . S
C735 C734 1.385 . S
C736 C734 1.478 . S
C736 C738 1.381 . S
C736 C742 1.383 . S
C737 C733 1.495 . S
C737 H743 0.959 . S
C737 H744 0.961 . S
C737 H745 0.960 . S
C738 C736 1.381 . S
C738 C739 1.394 . S
C738 H746 0.930 . S
C739 C738 1.394 . S
C739 C740 1.383 . S
C739 H747 0.929 . S
C740 C739 1.383 . S
C740 C741 1.377 . S
C741 H725 0.930 . S
C741 C740 1.377 . S
C741 C742 1.379 . S
C742 H726 0.931 . S
C742 C736 1.383 . S
C742 C741 1.379 . S
H743 C737 0.959 . S
H744 C737 0.961 . S
H745 C737 0.960 . S
H746 C738 0.930 . S
H747 C739 0.929 . S
H748 C756 0.929 . S
H749 C758 0.930 . S
H750 C760 0.930 . S
H751 C763 0.929 . S
H752 C766 0.930 . S
H753 C768 0.960 . S
H754 C768 0.960 . S
H755 C768 0.960 . S
C756 H748 0.929 . S
C756 C757 1.377 . S
C756 C758 1.384 . S
C757 C756 1.377 . S
C757 C763 1.390 . S
C758 H749 0.930 . S
C758 C756 1.384 . S
C758 C759 1.372 . S
C759 C758 1.372 . S
C759 C760 1.400 . S
C759 C764 1.490 . S
C760 H750 0.930 . S
C760 C759 1.400 . S
C760 C763 1.386 . S
H761 C777 0.930 . S
H762 C778 0.931 . S
C763 H751 0.929 . S
C763 C757 1.390 . S
C763 C760 1.386 . S
C764 C759 1.490 . S
C764 C766 1.395 . S
C764 C767 1.403 . S
H765 C771 0.930 1_545 S
C766 H752 0.930 . S
C766 C764 1.395 . S
C766 C769 1.403 . S
C767 C764 1.403 . S
C767 C768 1.524 1_565 S
C767 C771 1.400 . S
C768 H753 0.960 . S
C768 H754 0.960 . S
C768 H755 0.960 . S
C768 C767 1.524 1_545 S
C769 C766 1.403 . S
C769 C770 1.392 . S
C769 C773 1.495 1_556 S
C770 C769 1.392 . S
C770 C771 1.385 . S
C770 C772 1.478 1_556 S
C771 H765 0.930 1_565 S
C771 C767 1.400 . S
C771 C770 1.385 . S
C772 C770 1.478 1_554 S
C772 C774 1.381 1_554 S
C772 C778 1.383 1_565 S
C773 C769 1.495 1_554 S
C773 H779 0.959 . S
C773 H780 0.961 . S
C773 H781 0.960 1_554 S
C774 C772 1.381 1_556 S
C774 C775 1.394 . S
C774 H782 0.930 . S
C775 C774 1.394 . S
C775 C776 1.383 1_566 S
C775 H783 0.929 . S
C776 C775 1.383 1_544 S
C776 C777 1.377 . S
C777 H761 0.930 . S
C777 C776 1.377 . S
C777 C778 1.379 . S
C778 H762 0.931 . S
C778 C772 1.383 1_545 S
C778 C777 1.379 . S
H779 C773 0.959 . S
H780 C773 0.961 . S
H781 C773 0.960 1_556 S
H782 C774 0.930 . S
H783 C775 0.929 . S
H784 C792 0.929 . S
H785 C794 0.930 . S
H786 C796 0.930 . S
H787 C799 0.929 . S
H788 C802 0.930 . S
H789 C804 0.960 . S
H790 C804 0.960 . S
H791 C804 0.960 . S
C792 H784 0.929 . S
C792 C793 1.377 . S
C792 C794 1.384 . S
C793 C792 1.377 . S
C793 C799 1.390 . S
C794 H785 0.930 . S
C794 C792 1.384 . S
C794 C795 1.372 . S
C795 C794 1.372 . S
C795 C796 1.400 . S
C795 C800 1.490 . S
C796 H786 0.930 . S
C796 C795 1.400 . S
C796 C799 1.386 . S
H797 C813 0.930 . S
H798 C814 0.931 . S
C799 H787 0.929 . S
C799 C793 1.390 . S
C799 C796 1.386 . S
C800 C795 1.490 . S
C800 C802 1.395 . S
C800 C803 1.403 . S
H801 C807 0.930 . S
C802 H788 0.930 . S
C802 C800 1.395 . S
C802 C805 1.403 . S
C803 C800 1.403 . S
C803 C804 1.524 . S
C803 C807 1.400 . S
C804 H789 0.960 . S
C804 H790 0.960 . S
C804 H791 0.960 . S
C804 C803 1.524 . S
C805 C802 1.403 . S
C805 C806 1.392 . S
C805 C809 1.495 . S
C806 C805 1.392 . S
C806 C807 1.385 . S
C806 C808 1.478 . S
C807 H801 0.930 . S
C807 C803 1.400 . S
C807 C806 1.385 . S
C808 C806 1.478 . S
C808 C810 1.381 . S
C808 C814 1.383 . S
C809 C805 1.495 . S
C809 H815 0.959 . S
C809 H816 0.961 . S
C809 H817 0.960 . S
C810 C808 1.381 . S
C810 C811 1.394 . S
C810 H818 0.930 . S
C811 C810 1.394 . S
C811 C812 1.383 . S
C811 H819 0.929 . S
C812 C811 1.383 . S
C812 C813 1.377 . S
C813 H797 0.930 . S
C813 C812 1.377 . S
C813 C814 1.379 . S
C814 H798 0.931 . S
C814 C808 1.383 . S
C814 C813 1.379 . S
H815 C809 0.959 . S
H816 C809 0.961 . S
H817 C809 0.960 . S
H818 C810 0.930 . S
H819 C811 0.929 . S
H820 C828 0.929 . S
H821 C830 0.930 . S
H822 C832 0.930 . S
H823 C835 0.929 . S
H824 C838 0.930 . S
H825 C840 0.960 . S
H826 C840 0.960 . S
H827 C840 0.960 . S
C828 H820 0.929 . S
C828 C829 1.377 . S
C828 C830 1.384 . S
C829 C828 1.377 . S
C829 C835 1.390 . S
C830 H821 0.930 . S
C830 C828 1.384 . S
C830 C831 1.372 . S
C831 C830 1.372 . S
C831 C832 1.400 . S
C831 C836 1.490 . S
C832 H822 0.930 . S
C832 C831 1.400 . S
C832 C835 1.386 . S
H833 C849 0.930 . S
H834 C850 0.931 . S
C835 H823 0.929 . S
C835 C829 1.390 . S
C835 C832 1.386 . S
C836 C831 1.490 . S
C836 C838 1.395 . S
C836 C839 1.403 . S
H837 C843 0.930 . S
C838 H824 0.930 . S
C838 C836 1.395 . S
C838 C841 1.403 . S
C839 C836 1.403 . S
C839 C840 1.524 . S
C839 C843 1.400 . S
C840 H825 0.960 . S
C840 H826 0.960 . S
C840 H827 0.960 . S
C840 C839 1.524 . S
C841 C838 1.403 . S
C841 C842 1.392 . S
C841 C845 1.495 . S
C842 C841 1.392 . S
C842 C843 1.385 . S
C842 C844 1.478 . S
C843 H837 0.930 . S
C843 C839 1.400 . S
C843 C842 1.385 . S
C844 C842 1.478 . S
C844 C846 1.381 . S
C844 C850 1.383 . S
C845 C841 1.495 . S
C845 H851 0.959 . S
C845 H852 0.961 . S
C845 H853 0.960 . S
C846 C844 1.381 . S
C846 C847 1.394 . S
C846 H854 0.930 . S
C847 C846 1.394 . S
C847 C848 1.383 . S
C847 H855 0.929 . S
C848 C847 1.383 . S
C848 C849 1.377 . S
C849 H833 0.930 . S
C849 C848 1.377 . S
C849 C850 1.379 . S
C850 H834 0.931 . S
C850 C844 1.383 . S
C850 C849 1.379 . S
H851 C845 0.959 . S
H852 C845 0.961 . S
H853 C845 0.960 . S
H854 C846 0.930 . S
H855 C847 0.929 . S
H856 C864 0.929 . S
H857 C866 0.930 . S
H858 C868 0.930 . S
H859 C871 0.929 . S
H860 C874 0.930 . S
H861 C876 0.960 . S
H862 C876 0.960 . S
H863 C876 0.960 . S
C864 H856 0.929 . S
C864 C865 1.377 . S
C864 C866 1.384 . S
C865 C864 1.377 . S
C865 C871 1.390 . S
C866 H857 0.930 . S
C866 C864 1.384 . S
C866 C867 1.372 . S
C867 C866 1.372 . S
C867 C868 1.400 . S
C867 C872 1.490 . S
C868 H858 0.930 . S
C868 C867 1.400 . S
C868 C871 1.386 . S
H869 C885 0.930 . S
H870 C886 0.931 . S
C871 H859 0.929 . S
C871 C865 1.390 . S
C871 C868 1.386 . S
C872 C867 1.490 . S
C872 C874 1.395 . S
C872 C875 1.403 . S
H873 C879 0.930 . S
C874 H860 0.930 . S
C874 C872 1.395 . S
C874 C877 1.403 . S
C875 C872 1.403 . S
C875 C876 1.524 . S
C875 C879 1.400 . S
C876 H861 0.960 . S
C876 H862 0.960 . S
C876 H863 0.960 . S
C876 C875 1.524 . S
C877 C874 1.403 . S
C877 C878 1.392 . S
C877 C881 1.495 . S
C878 C877 1.392 . S
C878 C879 1.385 . S
C878 C880 1.478 . S
C879 H873 0.930 . S
C879 C875 1.400 . S
C879 C878 1.385 . S
C880 C878 1.478 . S
C880 C882 1.381 . S
C880 C886 1.383 . S
C881 C877 1.495 . S
C881 H887 0.959 . S
C881 H888 0.961 . S
C881 H889 0.960 . S
C882 C880 1.381 . S
C882 C883 1.394 . S
C882 H890 0.930 . S
C883 C882 1.394 . S
C883 C884 1.383 . S
C883 H891 0.929 . S
C884 C883 1.383 . S
C884 C885 1.377 . S
C885 H869 0.930 . S
C885 C884 1.377 . S
C885 C886 1.379 . S
C886 H870 0.931 . S
C886 C880 1.383 . S
C886 C885 1.379 . S
H887 C881 0.959 . S
H888 C881 0.961 . S
H889 C881 0.960 . S
H890 C882 0.930 . S
H891 C883 0.929 . S
H892 C900 0.929 . S
H893 C902 0.930 . S
H894 C904 0.930 1_554 S
H895 C907 0.929 . S
H896 C910 0.930 . S
H897 C912 0.960 . S
H898 C912 0.960 . S
H899 C912 0.960 1_554 S
C900 H892 0.929 . S
C900 C901 1.377 . S
C900 C902 1.384 . S
C901 C900 1.377 . S
C901 C907 1.390 . S
C902 H893 0.930 . S
C902 C900 1.384 . S
C902 C903 1.372 . S
C903 C902 1.372 . S
C903 C904 1.400 . S
C903 C908 1.490 . S
C904 H894 0.930 1_556 S
C904 C903 1.400 . S
C904 C907 1.386 . S
H905 C921 0.930 . S
H906 C922 0.931 . S
C907 H895 0.929 . S
C907 C901 1.390 . S
C907 C904 1.386 . S
C908 C903 1.490 . S
C908 C910 1.395 . S
C908 C911 1.403 . S
H909 C915 0.930 . S
C910 H896 0.930 . S
C910 C908 1.395 . S
C910 C913 1.403 . S
C911 C908 1.403 . S
C911 C912 1.524 . S
C911 C915 1.400 . S
C912 H897 0.960 . S
C912 H898 0.960 . S
C912 H899 0.960 1_556 S
C912 C911 1.524 . S
C913 C910 1.403 . S
C913 C914 1.392 . S
C913 C917 1.495 1_655 S
C914 C913 1.392 . S
C914 C915 1.385 . S
C914 C916 1.478 . S
C915 H909 0.930 . S
C915 C911 1.400 . S
C915 C914 1.385 . S
C916 C914 1.478 . S
C916 C918 1.381 . S
C916 C922 1.383 1_556 S
C917 C913 1.495 1_455 S
C917 H923 0.959 . S
C917 H924 0.961 . S
C917 H925 0.960 . S
C918 C916 1.381 . S
C918 C919 1.394 . S
C918 H926 0.930 . S
C919 C918 1.394 . S
C919 C920 1.383 . S
C919 H927 0.929 . S
C920 C919 1.383 . S
C920 C921 1.377 1_556 S
C921 H905 0.930 . S
C921 C920 1.377 1_554 S
C921 C922 1.379 . S
C922 H906 0.931 . S
C922 C916 1.383 1_554 S
C922 C921 1.379 . S
H923 C917 0.959 . S
H924 C917 0.961 . S
H925 C917 0.960 . S
H926 C918 0.930 . S
H927 C919 0.929 . S
H928 C936 0.929 . S
H929 C938 0.930 . S
H930 C940 0.930 . S
H931 C943 0.929 . S
H932 C946 0.930 . S
H933 C948 0.960 . S
H934 C948 0.960 . S
H935 C948 0.960 . S
C936 H928 0.929 . S
C936 C937 1.377 . S
C936 C938 1.384 . S
C937 C936 1.377 . S
C937 C943 1.390 . S
C938 H929 0.930 . S
C938 C936 1.384 . S
C938 C939 1.372 . S
C939 C938 1.372 . S
C939 C940 1.400 . S
C939 C944 1.490 . S
C940 H930 0.930 . S
C940 C939 1.400 . S
C940 C943 1.386 . S
H941 C957 0.930 . S
H942 C958 0.931 . S
C943 H931 0.929 . S
C943 C937 1.390 . S
C943 C940 1.386 . S
C944 C939 1.490 . S
C944 C946 1.395 . S
C944 C947 1.403 . S
H945 C951 0.930 . S
C946 H932 0.930 . S
C946 C944 1.395 . S
C946 C949 1.403 . S
C947 C944 1.403 . S
C947 C948 1.524 . S
C947 C951 1.400 . S
C948 H933 0.960 . S
C948 H934 0.960 . S
C948 H935 0.960 . S
C948 C947 1.524 . S
C949 C946 1.403 . S
C949 C950 1.392 . S
C949 C953 1.495 . S
C950 C949 1.392 . S
C950 C951 1.385 . S
C950 C952 1.478 . S
C951 H945 0.930 . S
C951 C947 1.400 . S
C951 C950 1.385 . S
C952 C950 1.478 . S
C952 C954 1.381 . S
C952 C958 1.383 . S
C953 C949 1.495 . S
C953 H959 0.959 . S
C953 H960 0.961 . S
C953 H961 0.960 . S
C954 C952 1.381 . S
C954 C955 1.394 . S
C954 H962 0.930 . S
C955 C954 1.394 . S
C955 C956 1.383 . S
C955 H963 0.929 . S
C956 C955 1.383 . S
C956 C957 1.377 . S
C957 H941 0.930 . S
C957 C956 1.377 . S
C957 C958 1.379 . S
C958 H942 0.931 . S
C958 C952 1.383 . S
C958 C957 1.379 . S
H959 C953 0.959 . S
H960 C953 0.961 . S
H961 C953 0.960 . S
H962 C954 0.930 . S
H963 C955 0.929 . S
H964 C972 0.929 . S
H965 C974 0.930 . S
H966 C976 0.930 . S
H967 C979 0.929 . S
H968 C982 0.930 . S
H969 C984 0.960 . S
H970 C984 0.960 . S
H971 C984 0.960 . S
C972 H964 0.929 . S
C972 C973 1.377 . S
C972 C974 1.384 . S
C973 C972 1.377 . S
C973 C979 1.390 . S
C974 H965 0.930 . S
C974 C972 1.384 . S
C974 C975 1.372 . S
C975 C974 1.372 . S
C975 C976 1.400 . S
C975 C980 1.490 . S
C976 H966 0.930 . S
C976 C975 1.400 . S
C976 C979 1.386 . S
H977 C993 0.930 . S
H978 C994 0.931 . S
C979 H967 0.929 . S
C979 C973 1.390 . S
C979 C976 1.386 . S
C980 C975 1.490 . S
C980 C982 1.395 . S
C980 C983 1.403 . S
H981 C987 0.930 . S
C982 H968 0.930 . S
C982 C980 1.395 . S
C982 C985 1.403 . S
C983 C980 1.403 . S
C983 C984 1.524 . S
C983 C987 1.400 . S
C984 H969 0.960 . S
C984 H970 0.960 . S
C984 H971 0.960 . S
C984 C983 1.524 . S
C985 C982 1.403 . S
C985 C986 1.392 . S
C985 C989 1.495 . S
C986 C985 1.392 . S
C986 C987 1.385 . S
C986 C988 1.478 . S
C987 H981 0.930 . S
C987 C983 1.400 . S
C987 C986 1.385 . S
C988 C986 1.478 . S
C988 C990 1.381 . S
C988 C994 1.383 . S
C989 C985 1.495 . S
C989 H995 0.959 . S
C989 H996 0.961 . S
C989 H997 0.960 . S
C990 C988 1.381 . S
C990 C991 1.394 . S
C990 H998 0.930 1_455 S
C991 C990 1.394 . S
C991 C992 1.383 . S
C991 H999 0.929 1_455 S
C992 C991 1.383 . S
C992 C993 1.377 . S
C993 H977 0.930 . S
C993 C992 1.377 . S
C993 C994 1.379 . S
C994 H978 0.931 . S
C994 C988 1.383 . S
C994 C993 1.379 . S
H995 C989 0.959 . S
H996 C989 0.961 . S
H997 C989 0.960 . S
H998 C990 0.930 1_655 S
H999 C991 0.929 1_655 S
H1000 C1008 0.929 . S
H1001 C1010 0.930 . S
H1002 C1012 0.930 . S
H1003 C1015 0.929 . S
H1004 C1018 0.930 . S
H1005 C1020 0.960 . S
H1006 C1020 0.960 . S
H1007 C1020 0.960 . S
C1008 H1000 0.929 . S
C1008 C1009 1.377 . S
C1008 C1010 1.384 . S
C1009 C1008 1.377 . S
C1009 C1015 1.390 . S
C1010 H1001 0.930 . S
C1010 C1008 1.384 . S
C1010 C1011 1.372 . S
C1011 C1010 1.372 . S
C1011 C1012 1.400 . S
C1011 C1016 1.490 . S
C1012 H1002 0.930 . S
C1012 C1011 1.400 . S
C1012 C1015 1.386 . S
H1013 C1029 0.930 . S
H1014 C1030 0.931 . S
C1015 H1003 0.929 . S
C1015 C1009 1.390 . S
C1015 C1012 1.386 . S
C1016 C1011 1.490 . S
C1016 C1018 1.395 . S
C1016 C1019 1.403 . S
H1017 C1023 0.930 . S
C1018 H1004 0.930 . S
C1018 C1016 1.395 . S
C1018 C1021 1.403 . S
C1019 C1016 1.403 . S
C1019 C1020 1.524 . S
C1019 C1023 1.400 . S
C1020 H1005 0.960 . S
C1020 H1006 0.960 . S
C1020 H1007 0.960 . S
C1020 C1019 1.524 . S
C1021 C1018 1.403 . S
C1021 C1022 1.392 . S
C1021 C1025 1.495 . S
C1022 C1021 1.392 . S
C1022 C1023 1.385 . S
C1022 C1024 1.478 . S
C1023 H1017 0.930 . S
C1023 C1019 1.400 . S
C1023 C1022 1.385 . S
C1024 C1022 1.478 . S
C1024 C1026 1.381 . S
C1024 C1030 1.383 . S
C1025 C1021 1.495 . S
C1025 H1031 0.959 . S
C1025 H1032 0.961 . S
C1025 H1033 0.960 . S
C1026 C1024 1.381 . S
C1026 C1027 1.394 . S
C1026 H1034 0.930 . S
C1027 C1026 1.394 . S
C1027 C1028 1.383 . S
C1027 H1035 0.929 . S
C1028 C1027 1.383 . S
C1028 C1029 1.377 . S
C1029 H1013 0.930 . S
C1029 C1028 1.377 . S
C1029 C1030 1.379 . S
C1030 H1014 0.931 . S
C1030 C1024 1.383 . S
C1030 C1029 1.379 . S
H1031 C1025 0.959 . S
H1032 C1025 0.961 . S
H1033 C1025 0.960 . S
H1034 C1026 0.930 . S
H1035 C1027 0.929 . S
C181 C5 1.835 . S
C200 C106 1.946 . S
C217 C18 1.537 . S
C236 C123 1.584 . S
C272 C146 1.096 . S
C253 C30 1.192 . S
C289 C41 1.486 . S
C308 C167 1.253 . S
C344 C126 2.112 . S
C325 C7 2.121 . S
C380 C103 1.920 . S
C361 C16 1.659 . S
C416 C165 1.339 . S
C397 C29 1.287 . S
C452 C144 0.960 . S
C433 C38 0.908 . S
C469 C8 1.910 . S
C488 C168 1.846 . S
C524 C125 1.530 . S
C505 C27 1.473 . S
C541 C40 1.644 . S
C560 C101 1.454 . S
C577 C19 1.106 . S
C596 C147 1.117 . S
C632 C105 1.702 . S
C613 C51 1.694 . S
C649 C62 1.431 . S
C668 C124 1.487 . S
C685 C74 1.372 . S
C704 C143 1.185 . S
C721 C84 1.415 . S
C740 C164 1.203 . S
C757 C49 2.044 . S
C776 C127 2.120 . S
C812 C102 1.703 . S
C793 C63 1.747 . S
C848 C166 1.037 . S
C829 C71 0.991 . S
C884 C145 1.173 . S
C865 C85 1.193 . S
C901 C52 1.647 . S
C920 C169 1.601 1_655 S
C956 C122 1.433 . S
C937 C73 1.673 . S
C992 C104 1.134 . S
C973 C82 0.972 . S
C1009 C60 1.280 . S
C1028 C148 1.558 . S
