# Generated by pormake.
# Topology ctn, (3,4)-cn, num edge types: 1
# Building blocks:
#     Node 0, Type 0, BuildingBlock: WUSLED_clean_sbu_0, # of connection points: 3
#     Node 1, Type 0, BuildingBlock: WUSLED_clean_sbu_0, # of connection points: 3
#     Node 2, Type 0, BuildingBlock: WUSLED_clean_sbu_0, # of connection points: 3
#     Node 3, Type 0, BuildingBlock: WUSLED_clean_sbu_0, # of connection points: 3
#     Node 4, Type 0, BuildingBlock: WUSLED_clean_sbu_0, # of connection points: 3
#     Node 5, Type 0, BuildingBlock: WUSLED_clean_sbu_0, # of connection points: 3
#     Node 6, Type 0, BuildingBlock: WUSLED_clean_sbu_0, # of connection points: 3
#     Node 7, Type 0, BuildingBlock: WUSLED_clean_sbu_0, # of connection points: 3
#     Node 8, Type 0, BuildingBlock: WUSLED_clean_sbu_0, # of connection points: 3
#     Node 9, Type 0, BuildingBlock: WUSLED_clean_sbu_0, # of connection points: 3
#     Node 10, Type 0, BuildingBlock: WUSLED_clean_sbu_0, # of connection points: 3
#     Node 11, Type 0, BuildingBlock: WUSLED_clean_sbu_0, # of connection points: 3
#     Node 12, Type 0, BuildingBlock: WUSLED_clean_sbu_0, # of connection points: 3
#     Node 13, Type 0, BuildingBlock: WUSLED_clean_sbu_0, # of connection points: 3
#     Node 14, Type 0, BuildingBlock: WUSLED_clean_sbu_0, # of connection points: 3
#     Node 15, Type 0, BuildingBlock: WUSLED_clean_sbu_0, # of connection points: 3
#     Node 16, Type 1, BuildingBlock: QUQFOY_clean_sbu_1, # of connection points: 4
#     Node 17, Type 1, BuildingBlock: QUQFOY_clean_sbu_1, # of connection points: 4
#     Node 18, Type 1, BuildingBlock: QUQFOY_clean_sbu_1, # of connection points: 4
#     Node 19, Type 1, BuildingBlock: QUQFOY_clean_sbu_1, # of connection points: 4
#     Node 20, Type 1, BuildingBlock: QUQFOY_clean_sbu_1, # of connection points: 4
#     Node 21, Type 1, BuildingBlock: QUQFOY_clean_sbu_1, # of connection points: 4
#     Node 22, Type 1, BuildingBlock: QUQFOY_clean_sbu_1, # of connection points: 4
#     Node 23, Type 1, BuildingBlock: QUQFOY_clean_sbu_1, # of connection points: 4
#     Node 24, Type 1, BuildingBlock: QUQFOY_clean_sbu_1, # of connection points: 4
#     Node 25, Type 1, BuildingBlock: QUQFOY_clean_sbu_1, # of connection points: 4
#     Node 26, Type 1, BuildingBlock: QUQFOY_clean_sbu_1, # of connection points: 4
#     Node 27, Type 1, BuildingBlock: QUQFOY_clean_sbu_1, # of connection points: 4
#     Edge 28, Type (0, 1), BuildingBlock: CIFDUS_clean_linker_0, # of connection points: 2
#     Edge 29, Type (0, 1), BuildingBlock: CIFDUS_clean_linker_0, # of connection points: 2
#     Edge 30, Type (0, 1), BuildingBlock: CIFDUS_clean_linker_0, # of connection points: 2
#     Edge 31, Type (0, 1), BuildingBlock: CIFDUS_clean_linker_0, # of connection points: 2
#     Edge 32, Type (0, 1), BuildingBlock: CIFDUS_clean_linker_0, # of connection points: 2
#     Edge 33, Type (0, 1), BuildingBlock: CIFDUS_clean_linker_0, # of connection points: 2
#     Edge 34, Type (0, 1), BuildingBlock: CIFDUS_clean_linker_0, # of connection points: 2
#     Edge 35, Type (0, 1), BuildingBlock: CIFDUS_clean_linker_0, # of connection points: 2
#     Edge 36, Type (0, 1), BuildingBlock: CIFDUS_clean_linker_0, # of connection points: 2
#     Edge 37, Type (0, 1), BuildingBlock: CIFDUS_clean_linker_0, # of connection points: 2
#     Edge 38, Type (0, 1), BuildingBlock: CIFDUS_clean_linker_0, # of connection points: 2
#     Edge 39, Type (0, 1), BuildingBlock: CIFDUS_clean_linker_0, # of connection points: 2
#     Edge 40, Type (0, 1), BuildingBlock: CIFDUS_clean_linker_0, # of connection points: 2
#     Edge 41, Type (0, 1), BuildingBlock: CIFDUS_clean_linker_0, # of connection points: 2
#     Edge 42, Type (0, 1), BuildingBlock: CIFDUS_clean_linker_0, # of connection points: 2
#     Edge 43, Type (0, 1), BuildingBlock: CIFDUS_clean_linker_0, # of connection points: 2
#     Edge 44, Type (0, 1), BuildingBlock: CIFDUS_clean_linker_0, # of connection points: 2
#     Edge 45, Type (0, 1), BuildingBlock: CIFDUS_clean_linker_0, # of connection points: 2
#     Edge 46, Type (0, 1), BuildingBlock: CIFDUS_clean_linker_0, # of connection points: 2
#     Edge 47, Type (0, 1), BuildingBlock: CIFDUS_clean_linker_0, # of connection points: 2
#     Edge 48, Type (0, 1), BuildingBlock: CIFDUS_clean_linker_0, # of connection points: 2
#     Edge 49, Type (0, 1), BuildingBlock: CIFDUS_clean_linker_0, # of connection points: 2
#     Edge 50, Type (0, 1), BuildingBlock: CIFDUS_clean_linker_0, # of connection points: 2
#     Edge 51, Type (0, 1), BuildingBlock: CIFDUS_clean_linker_0, # of connection points: 2
#     Edge 52, Type (0, 1), BuildingBlock: CIFDUS_clean_linker_0, # of connection points: 2
#     Edge 53, Type (0, 1), BuildingBlock: CIFDUS_clean_linker_0, # of connection points: 2
#     Edge 54, Type (0, 1), BuildingBlock: CIFDUS_clean_linker_0, # of connection points: 2
#     Edge 55, Type (0, 1), BuildingBlock: CIFDUS_clean_linker_0, # of connection points: 2
#     Edge 56, Type (0, 1), BuildingBlock: CIFDUS_clean_linker_0, # of connection points: 2
#     Edge 57, Type (0, 1), BuildingBlock: CIFDUS_clean_linker_0, # of connection points: 2
#     Edge 58, Type (0, 1), BuildingBlock: CIFDUS_clean_linker_0, # of connection points: 2
#     Edge 59, Type (0, 1), BuildingBlock: CIFDUS_clean_linker_0, # of connection points: 2
#     Edge 60, Type (0, 1), BuildingBlock: CIFDUS_clean_linker_0, # of connection points: 2
#     Edge 61, Type (0, 1), BuildingBlock: CIFDUS_clean_linker_0, # of connection points: 2
#     Edge 62, Type (0, 1), BuildingBlock: CIFDUS_clean_linker_0, # of connection points: 2
#     Edge 63, Type (0, 1), BuildingBlock: CIFDUS_clean_linker_0, # of connection points: 2
#     Edge 64, Type (0, 1), BuildingBlock: CIFDUS_clean_linker_0, # of connection points: 2
#     Edge 65, Type (0, 1), BuildingBlock: CIFDUS_clean_linker_0, # of connection points: 2
#     Edge 66, Type (0, 1), BuildingBlock: CIFDUS_clean_linker_0, # of connection points: 2
#     Edge 67, Type (0, 1), BuildingBlock: CIFDUS_clean_linker_0, # of connection points: 2
#     Edge 68, Type (0, 1), BuildingBlock: CIFDUS_clean_linker_0, # of connection points: 2
#     Edge 69, Type (0, 1), BuildingBlock: CIFDUS_clean_linker_0, # of connection points: 2
#     Edge 70, Type (0, 1), BuildingBlock: CIFDUS_clean_linker_0, # of connection points: 2
#     Edge 71, Type (0, 1), BuildingBlock: CIFDUS_clean_linker_0, # of connection points: 2
#     Edge 72, Type (0, 1), BuildingBlock: CIFDUS_clean_linker_0, # of connection points: 2
#     Edge 73, Type (0, 1), BuildingBlock: CIFDUS_clean_linker_0, # of connection points: 2
#     Edge 74, Type (0, 1), BuildingBlock: CIFDUS_clean_linker_0, # of connection points: 2
#     Edge 75, Type (0, 1), BuildingBlock: CIFDUS_clean_linker_0, # of connection points: 2
# Relax obj value: 0.036
# Max RMSD: 0.140
# Mean RMSD: 0.064
data_MOF--net-ctn--node1-WUSLED_clean_sbu_0--node2-QUQFOY_clean_sbu_1--edge1-CIFDUS_clean_linker_0
_symmetry_space_group_name_H-M    P1
_symmetry_Int_Tables_number       1
_symmetry_cell_setting            triclinic
loop_
_symmetry_equiv_pos_as_xyz
'x, y, z'
_cell_length_a     64.54492
_cell_length_b     64.888756
_cell_length_c     64.889446
_cell_angle_alpha  93.371659
_cell_angle_beta   90.070912
_cell_angle_gamma 94.398071
loop_
_atom_site_label
_atom_site_type_symbol
_atom_site_fract_x
_atom_site_fract_y
_atom_site_fract_z
_atom_type_partial_charge
C0 C 0.00991 0.09456 0.10891 0.0
C1 C 0.02033 0.08316 0.12283 0.0
C2 C 0.98953 0.08042 0.14457 0.0
C3 C 0.01028 0.07625 0.14051 0.0
C4 C 0.97925 0.09209 0.13066 0.0
C5 C 0.98937 0.09908 0.113 0.0
U6 U 0.05236 0.08935 0.06886 0.0
O7 O 0.0511 0.08971 0.03495 0.0
O8 O 0.07145 0.11288 0.05278 0.0
C9 C 0.06367 0.10661 0.03454 0.0
C10 C 0.02008 0.10114 0.08981 0.0
C11 C 0.05675 0.12294 0.02187 0.0
C12 C 0.03602 0.15206 0.01689 0.0
C13 C 0.04199 0.13638 0.02912 0.0
C14 C 0.05932 0.14084 0.98999 0.0
C15 C 0.04469 0.15456 0.99718 0.0
C16 C 0.06527 0.12523 1.00221 0.0
C17 C 0.09102 0.04756 0.0778 0.0
C18 C 0.11044 0.02612 0.05391 0.0
C19 C 0.12052 0.03034 0.08994 0.0
C20 C 0.1044 0.04325 0.09377 0.0
C21 C 0.12359 0.02135 0.07002 0.0
C22 C 0.09432 0.03911 0.05775 0.0
C23 C 0.07303 0.05968 0.08292 0.0
O24 O 0.03886 0.1104 0.0921 0.0
O25 O 0.01859 0.08729 0.07417 0.0
O26 O 0.05659 0.05624 0.07086 0.0
O27 O 0.07718 0.07936 0.08854 0.0
H28 H 0.03619 0.07947 0.11992 0.0
H29 H 0.0188 0.06759 0.151 0.0
H30 H 0.96321 0.09536 0.13311 0.0
H31 H 0.98104 0.10775 0.10236 0.0
H32 H 0.02489 0.16244 0.02304 0.0
H33 H 0.03523 0.13485 0.04428 0.0
H34 H 0.06607 0.14205 0.9748 0.0
H35 H 0.07661 0.11494 0.99631 0.0
H36 H 0.11221 0.01935 0.03842 0.0
H37 H 0.13054 0.02735 0.10265 0.0
H38 H 0.10215 0.0496 0.10936 0.0
H39 H 0.0842 0.04216 0.04514 0.0
C40 C 0.2742 0.76436 0.18876 0.0
C41 C 0.29299 0.77505 0.18348 0.0
C42 C 0.27507 0.79324 0.15772 0.0
C43 C 0.29343 0.7893 0.16807 0.0
C44 C 0.25621 0.78284 0.16346 0.0
C45 C 0.25581 0.7685 0.1788 0.0
U46 U 0.29812 0.73967 0.23433 0.0
O47 O 0.28343 0.72709 0.26208 0.0
O48 O 0.30011 0.70698 0.24052 0.0
C49 C 0.28861 0.70823 0.25718 0.0
C50 C 0.27359 0.74863 0.2043 0.0
C51 C 0.27237 0.69128 0.25939 0.0
C52 C 0.24657 0.66508 0.24489 0.0
C53 C 0.26057 0.68238 0.24248 0.0
C54 C 0.25564 0.66583 0.28117 0.0
C55 C 0.2442 0.6564 0.26422 0.0
C56 C 0.26957 0.68306 0.27875 0.0
C57 C 0.35053 0.76224 0.25683 0.0
C58 C 0.36389 0.76148 0.29189 0.0
C59 C 0.38774 0.76615 0.26349 0.0
C60 C 0.37098 0.76499 0.24969 0.0
C61 C 0.38443 0.76475 0.28483 0.0
C62 C 0.34711 0.76017 0.27803 0.0
C63 C 0.33313 0.76215 0.24198 0.0
O64 O 0.2875 0.73489 0.20208 0.0
O65 O 0.27153 0.75563 0.22355 0.0
O66 O 0.31515 0.76701 0.2496 0.0
O67 O 0.33144 0.74649 0.22813 0.0
H68 H 0.30734 0.77221 0.19112 0.0
H69 H 0.30817 0.79724 0.16422 0.0
H70 H 0.24184 0.78534 0.15569 0.0
H71 H 0.24115 0.76042 0.18269 0.0
H72 H 0.23808 0.65813 0.2315 0.0
H73 H 0.26251 0.68851 0.22737 0.0
H74 H 0.25391 0.65982 0.29635 0.0
H75 H 0.2785 0.68974 0.29199 0.0
H76 H 0.36069 0.76052 0.3082 0.0
H77 H 0.40333 0.76826 0.25741 0.0
H78 H 0.374 0.76647 0.2334 0.0
H79 H 0.33148 0.7579 0.28397 0.0
C80 C 0.94687 0.44647 0.02128 0.0
C81 C 0.93117 0.43295 0.01193 0.0
C82 C 0.95663 0.40877 1.00093 0.0
C83 C 0.93597 0.41425 1.0019 0.0
C84 C 0.97235 0.42232 0.01041 0.0
C85 C 0.9675 0.44095 0.0206 0.0
U86 U 0.95427 0.48881 0.06469 0.0
O87 O 0.95447 0.52272 0.06373 0.0
O88 O 0.93122 0.50581 0.08226 0.0
C89 C 0.93749 0.52362 0.07479 0.0
C90 C 0.94141 0.46619 0.03161 0.0
C91 C 0.92107 0.53515 0.06602 0.0
C92 C 0.89095 0.53652 0.04372 0.0
C93 C 0.90644 0.52537 0.05193 0.0
C94 C 0.90464 0.56742 0.06346 0.0
C95 C 0.88987 0.55773 0.04933 0.0
C96 C 0.92007 0.55622 0.07171 0.0
C97 C 0.99621 0.4815 0.10613 0.0
C98 C 0.01763 0.5064 0.12804 0.0
C99 C 0.01335 0.4705 0.13656 0.0
C100 C 1.00049 0.46596 0.11929 0.0
C101 C 0.02232 0.49072 0.14103 0.0
C102 C 1.00468 0.50185 0.11075 0.0
C103 C 0.98389 0.47566 0.08721 0.0
O104 O 0.93243 0.46471 0.04968 0.0
O105 O 0.9556 0.48182 0.03118 0.0
O106 O 0.98748 0.48707 0.07131 0.0
O107 O 0.96407 0.47023 0.08982 0.0
H108 H 0.91516 0.43691 0.0123 0.0
H109 H 0.92354 0.40425 0.99458 0.0
H110 H 0.98837 0.41842 0.01012 0.0
H111 H 0.97989 0.45103 0.0279 0.0
H112 H 0.87971 0.52845 0.03313 0.0
H113 H 0.90696 0.5091 0.04731 0.0
H114 H 0.90452 0.58376 0.06791 0.0
H115 H 0.9313 0.56406 0.0825 0.0
H116 H 0.02439 0.5221 0.13091 0.0
H117 H 0.01628 0.45811 0.1464 0.0
H118 H 0.9941 0.45017 0.11602 0.0
H119 H 1.00162 0.51413 0.10082 0.0
C120 C 0.70353 0.78424 0.19235 0.0
C121 C 0.7242 0.78462 0.1855 0.0
C122 C 0.71332 0.7629 0.15486 0.0
C123 C 0.72907 0.77391 0.16695 0.0
C124 C 0.69271 0.76244 0.16196 0.0
C125 C 0.68789 0.77298 0.18051 0.0
U126 U 0.71238 0.82978 0.23239 0.0
O127 O 0.68995 0.85028 0.24639 0.0
O128 O 0.70761 0.83136 0.26601 0.0
C129 C 0.69279 0.8441 0.26503 0.0
C130 C 0.69774 0.79602 0.2113 0.0
C131 C 0.67374 0.83914 0.27683 0.0
C132 C 0.64741 0.81468 0.29037 0.0
C133 C 0.6656 0.81866 0.27898 0.0
C134 C 0.64534 0.85154 0.29741 0.0
C135 C 0.637 0.83112 0.29959 0.0
C136 C 0.6635 0.85548 0.28618 0.0
C137 C 0.75832 0.86982 0.22759 0.0
C138 C 0.75994 0.90527 0.24226 0.0
C139 C 0.79166 0.88958 0.23265 0.0
C140 C 0.78003 0.87128 0.22609 0.0
C141 C 0.78176 0.90687 0.24075 0.0
C142 C 0.74835 0.88691 0.23586 0.0
C143 C 0.74634 0.85045 0.2204 0.0
O144 O 0.71034 0.79585 0.22723 0.0
O145 O 0.69139 0.81441 0.20849 0.0
O146 O 0.72785 0.85254 0.21264 0.0
O147 O 0.74654 0.83511 0.23275 0.0
H148 H 0.73649 0.79338 0.19434 0.0
H149 H 0.74505 0.7747 0.1618 0.0
H150 H 0.68027 0.7539 0.15313 0.0
H151 H 0.67186 0.77253 0.18553 0.0
H152 H 0.64128 0.7988 0.29164 0.0
H153 H 0.67323 0.8058 0.27181 0.0
H154 H 0.63788 0.86453 0.30454 0.0
H155 H 0.66957 0.87137 0.28476 0.0
H156 H 0.75174 0.9183 0.24817 0.0
H157 H 0.80843 0.89007 0.23159 0.0
H158 H 0.78802 0.85822 0.21986 0.0
H159 H 0.73159 0.88613 0.23727 0.0
C160 C 1.00192 0.98623 0.43905 0.0
C161 C 0.01321 0.99779 0.42461 0.0
C162 C 0.98172 0.99999 0.4043 0.0
C163 C 1.00322 1.00452 0.40736 0.0
C164 C 0.97045 0.98864 0.41899 0.0
C165 C 0.98048 0.9818 0.43618 0.0
U166 U 0.04777 0.98998 0.47608 0.0
O167 O 0.04919 0.98806 0.50986 0.0
O168 O 0.06497 0.96603 0.48955 0.0
C169 C 0.05978 0.97153 0.50857 0.0
C170 C 0.01234 0.9789 0.45717 0.0
C171 C 0.0527 0.95465 0.52173 0.0
C172 C 0.03355 0.92162 0.52705 0.0
C173 C 0.03902 0.93795 0.5144 0.0
C174 C 0.05503 0.93873 0.55456 0.0
C175 C 0.04167 0.92171 0.54724 0.0
C176 C 0.06048 0.95498 0.54192 0.0
C177 C 0.09185 0.03191 0.46757 0.0
C178 C 0.12787 0.03285 0.47896 0.0
C179 C 0.11323 0.06446 0.47005 0.0
C180 C 0.09423 0.05333 0.46546 0.0
C181 C 0.1303 0.05435 0.47677 0.0
C182 C 0.10877 0.02173 0.4745 0.0
C183 C 0.07168 0.02063 0.46219 0.0
O184 O 0.0295 0.96973 0.45328 0.0
O185 O 0.01398 0.99209 0.47336 0.0
O186 O 0.0566 0.02341 0.4754 0.0
O187 O 0.0722 1.00129 0.45505 0.0
H188 H 0.02975 1.00156 0.42667 0.0
H189 H 0.0123 0.01344 0.39648 0.0
H190 H 0.95393 0.98471 0.417 0.0
H191 H 0.97151 0.97295 0.44719 0.0
H192 H 0.02335 0.9087 0.52085 0.0
H193 H 0.03282 0.9374 0.49883 0.0
H194 H 0.06128 0.93953 0.5701 0.0
H195 H 0.07101 0.96777 0.54788 0.0
H196 H 0.14068 0.02468 0.4843 0.0
H197 H 0.11466 0.08095 0.46797 0.0
H198 H 0.08138 0.06146 0.4601 0.0
H199 H 0.10726 1.00521 0.47639 0.0
C200 C 0.2026 0.78569 0.86245 0.0
C201 C 0.22273 0.78537 0.87057 0.0
C202 C 0.21302 0.806 0.90122 0.0
C203 C 0.22791 0.79547 0.88977 0.0
C204 C 0.19275 0.80582 0.89314 0.0
C205 C 0.18763 0.7958 0.87394 0.0
U206 U 0.21068 0.74669 0.81699 0.0
O207 O 0.18768 0.72745 0.79784 0.0
O208 O 0.20862 0.75071 0.78356 0.0
C209 C 0.19227 0.7374 0.78115 0.0
C210 C 0.19699 0.77594 0.84192 0.0
C211 C 0.17465 0.74444 0.76952 0.0
C212 C 0.13847 0.75232 0.76696 0.0
C213 C 0.15512 0.74657 0.77865 0.0
C214 C 0.16071 0.7545 0.73703 0.0
C215 C 0.14103 0.75623 0.74597 0.0
C216 C 0.17729 0.7486 0.74867 0.0
C217 C 0.25516 0.71009 0.82008 0.0
C218 C 0.25886 0.67367 0.81056 0.0
C219 C 0.28927 0.69798 0.81233 0.0
C220 C 0.27673 0.71404 0.81794 0.0
C221 C 0.28053 0.67754 0.80891 0.0
C222 C 0.2463 0.68976 0.81605 0.0
C223 C 0.24261 0.72698 0.82808 0.0
O224 O 0.21047 0.77958 0.82715 0.0
O225 O 0.18944 0.75654 0.8416 0.0
O226 O 0.22334 0.72172 0.83336 0.0
O227 O 0.24457 0.74434 0.81853 0.0
H228 H 0.23451 0.77756 0.86195 0.0
H229 H 0.24371 0.79544 0.89539 0.0
H230 H 0.18079 0.81342 0.90167 0.0
H231 H 0.17197 0.79608 0.86798 0.0
H232 H 0.12358 0.75375 0.77437 0.0
H233 H 0.15264 0.74363 0.79475 0.0
H234 H 0.16315 0.75719 0.72087 0.0
H235 H 0.19218 0.74702 0.74129 0.0
H236 H 0.25161 0.65814 0.80778 0.0
H237 H 0.30591 0.70146 0.81139 0.0
H238 H 0.28398 0.72952 0.82114 0.0
H239 H 0.22973 0.68615 0.81752 0.0
C240 C 0.96765 0.60542 0.53252 0.0
C241 C 0.98853 0.61041 0.53829 0.0
C242 C 0.97937 0.64277 0.55567 0.0
C243 C 0.9943 0.62888 0.54983 0.0
C244 C 0.9586 0.63792 0.54949 0.0
C245 C 0.95281 0.61941 0.53811 0.0
U246 U 0.97088 0.56367 0.48816 0.0
O247 O 0.96731 0.5297 0.48905 0.0
O248 O 0.94565 0.54576 0.47076 0.0
C249 C 0.95006 0.52814 0.47811 0.0
C250 C 0.96077 0.58548 0.52149 0.0
C251 C 0.93245 0.51586 0.48686 0.0
C252 C 0.90178 0.51315 0.50856 0.0
C253 C 0.91876 0.52499 0.50083 0.0
C254 C 0.91227 0.48288 0.4888 0.0
C255 C 0.8983 0.49196 0.50257 0.0
C256 C 0.92916 0.49474 0.48101 0.0
C257 C 0.01138 0.57116 0.44521 0.0
C258 C 0.0277 0.54562 0.42293 0.0
C259 C 0.02483 0.58021 0.41167 0.0
C260 C 0.01502 0.58564 0.43017 0.0
C261 C 0.03135 0.56016 0.40785 0.0
C262 C 0.01771 0.55102 0.44142 0.0
C263 C 1.00131 0.57766 0.46471 0.0
O264 O 0.95173 0.58669 0.50349 0.0
O265 O 0.9736 0.57068 0.52164 0.0
O266 O 1.00418 0.5667 0.48076 0.0
O267 O 0.98212 0.58283 0.46296 0.0
H268 H 1.00036 0.59998 0.53411 0.0
H269 H 0.01046 0.63229 0.55419 0.0
H270 H 0.94669 0.64817 0.55395 0.0
H271 H 0.93662 0.61585 0.53392 0.0
H272 H 0.89143 0.52055 0.5193 0.0
H273 H 0.92115 0.54127 0.50564 0.0
H274 H 0.9099 0.46668 0.48369 0.0
H275 H 0.93957 0.48745 0.47025 0.0
H276 H 0.03238 0.53 0.42035 0.0
H277 H 0.02766 0.59186 0.4005 0.0
H278 H 0.01036 0.60127 0.43279 0.0
H279 H 0.015 0.53949 0.45271 0.0
C280 C 0.77838 0.7972 0.86512 0.0
C281 C 0.77654 0.7755 0.86178 0.0
C282 C 0.77811 0.7714 0.89889 0.0
C283 C 0.77641 0.76276 0.87849 0.0
C284 C 0.78056 0.7931 0.90209 0.0
C285 C 0.78059 0.80581 0.88542 0.0
U286 U 0.79736 0.81952 0.81408 0.0
O287 O 0.77949 0.82831 0.7875 0.0
O288 O 0.79966 0.85182 0.8051 0.0
C289 C 0.78527 0.84813 0.79071 0.0
C290 C 0.77697 0.81115 0.84797 0.0
C291 C 0.76868 0.8628 0.79074 0.0
C292 C 0.73268 0.87031 0.78524 0.0
C293 C 0.74786 0.85605 0.78608 0.0
C294 C 0.75875 0.89834 0.79376 0.0
C295 C 0.73795 0.89164 0.78906 0.0
C296 C 0.77392 0.88411 0.79449 0.0
C297 C 0.84607 0.79821 0.78831 0.0
C298 C 0.87049 0.81458 0.76456 0.0
C299 C 0.87075 0.7779 0.76952 0.0
C300 C 0.85437 0.77921 0.78346 0.0
C301 C 0.87928 0.79561 0.76015 0.0
C302 C 0.85402 0.81587 0.77854 0.0
C303 C 0.83 0.7992 0.8044 0.0
O304 O 0.7918 0.82615 0.84722 0.0
O305 O 0.7717 0.80251 0.82967 0.0
O306 O 0.81098 0.79253 0.79873 0.0
O307 O 0.83084 0.81609 0.81669 0.0
H308 H 0.77479 0.76834 0.84632 0.0
H309 H 0.77429 0.74614 0.87544 0.0
H310 H 0.78227 0.80032 0.91753 0.0
H311 H 0.78203 0.82246 0.88844 0.0
H312 H 0.71678 0.86463 0.78172 0.0
H313 H 0.74325 0.83977 0.78295 0.0
H314 H 0.76342 0.91466 0.79646 0.0
H315 H 0.78986 0.88984 0.7978 0.0
H316 H 0.87674 0.82853 0.7577 0.0
H317 H 0.87683 0.76297 0.76618 0.0
H318 H 0.8484 0.76539 0.79077 0.0
H319 H 0.8478 0.83071 0.78203 0.0
C320 C 0.28415 0.29471 0.35906 0.0
C321 C 0.27719 0.27406 0.35337 0.0
C322 C 0.28623 0.26329 0.38744 0.0
C323 C 0.27826 0.25855 0.36738 0.0
C324 C 0.29346 0.28388 0.39298 0.0
C325 C 0.29233 0.29939 0.37901 0.0
U326 U 0.30136 0.32556 0.31231 0.0
O327 O 0.28288 0.33928 0.28882 0.0
O328 O 0.30435 0.35919 0.30893 0.0
C329 C 0.28961 0.35835 0.29483 0.0
C330 C 0.28201 0.31161 0.34487 0.0
C331 C 0.27398 0.3739 0.29766 0.0
C332 C 0.23864 0.38444 0.29467 0.0
C333 C 0.25278 0.36904 0.29304 0.0
C334 C 0.26657 0.40975 0.30557 0.0
C335 C 0.24538 0.40498 0.30097 0.0
C336 C 0.28066 0.39444 0.30386 0.0
C337 C 0.34948 0.30915 0.28168 0.0
C338 C 0.35967 0.30789 0.2455 0.0
C339 C 0.38603 0.31218 0.27229 0.0
C340 C 0.37056 0.31169 0.28733 0.0
C341 C 0.38082 0.30996 0.25118 0.0
C342 C 0.34415 0.30748 0.26059 0.0
C343 C 0.33364 0.30702 0.29807 0.0
O344 O 0.29677 0.32678 0.34595 0.0
O345 O 0.27603 0.30614 0.3258 0.0
O346 O 0.31441 0.30131 0.29226 0.0
O347 O 0.33489 0.32148 0.31316 0.0
H348 H 0.27058 0.26989 0.33821 0.0
H349 H 0.27227 0.24294 0.36266 0.0
H350 H 0.29995 0.28809 0.40818 0.0
H351 H 0.29769 0.31514 0.38394 0.0
H352 H 0.22241 0.38022 0.29113 0.0
H353 H 0.2471 0.35342 0.28802 0.0
H354 H 0.27239 0.42546 0.31011 0.0
H355 H 0.29693 0.39876 0.30715 0.0
H356 H 0.35508 0.30594 0.22941 0.0
H357 H 0.40213 0.31416 0.27725 0.0
H358 H 0.3751 0.31296 0.30346 0.0
H359 H 0.32804 0.30545 0.2557 0.0
C360 C 0.45652 0.95998 0.51204 0.0
C361 C 0.46708 0.94484 0.52141 0.0
C362 C 0.46986 0.92569 0.48818 0.0
C363 C 0.4736 0.92778 0.5096 0.0
C364 C 0.4594 0.94101 0.47888 0.0
C365 C 0.45277 0.95797 0.49072 0.0
U366 U 0.46045 0.99752 0.55959 0.0
O367 O 0.45861 0.03126 0.56257 0.0
O368 O 0.43585 0.01095 0.57843 0.0
C369 C 0.44126 0.02988 0.5732 0.0
C370 C 0.44948 0.97801 0.52419 0.0
C371 C 0.42421 0.04186 0.5662 0.0
C372 C 0.40731 0.0602 0.53995 0.0
C373 C 0.42312 0.04807 0.54586 0.0
C374 C 0.39315 0.05968 0.57444 0.0
C375 C 0.39216 0.06629 0.5542 0.0
C376 C 0.40902 0.04768 0.58036 0.0
C377 C 0.50318 0.98849 0.59965 0.0
C378 C 0.50717 1.00281 0.63506 0.0
C379 C 0.53477 0.98449 0.61893 0.0
C380 C 0.52298 0.98117 0.60081 0.0
C381 C 0.52699 0.99521 0.63637 0.0
C382 C 0.49535 0.99947 0.61684 0.0
C383 C 0.49105 0.98391 0.58046 0.0
O384 O 0.44033 0.97402 0.54176 0.0
O385 O 0.46282 0.99438 0.5257 0.0
O386 O 0.49394 0.99733 0.56615 0.0
O387 O 0.47148 0.97709 0.58246 0.0
H388 H 0.47029 0.94621 0.53785 0.0
H389 H 0.48181 0.91637 0.51719 0.0
H390 H 0.45607 0.93975 0.46247 0.0
H391 H 0.44467 0.96951 0.48321 0.0
H392 H 0.40724 0.06514 0.5243 0.0
H393 H 0.4346 0.04378 0.53456 0.0
H394 H 0.38159 0.0637 0.58576 0.0
H395 H 0.40949 0.04302 0.59611 0.0
H396 H 0.50063 0.011 0.64823 0.0
H397 H 0.55009 0.97877 0.61921 0.0
H398 H 0.52932 0.97273 0.58767 0.0
H399 H 0.48007 1.00526 0.61624 0.0
C400 C 0.22112 0.27487 0.69973 0.0
C401 C 0.22668 0.2851 0.68181 0.0
C402 C 0.23395 0.25231 0.66403 0.0
C403 C 0.23293 0.2739 0.66411 0.0
C404 C 0.22891 0.24223 0.68216 0.0
C405 C 0.22248 0.2534 0.6998 0.0
U406 U 0.22324 0.32169 0.7387 0.0
O407 O 0.19819 0.33866 0.75281 0.0
O408 O 0.21891 0.32289 0.77245 0.0
C409 C 0.20195 0.33281 0.77143 0.0
C410 C 0.21348 0.28615 0.71827 0.0
C411 C 0.18384 0.32463 0.78332 0.0
C412 C 0.14659 0.31642 0.78679 0.0
C413 C 0.16371 0.32242 0.77473 0.0
C414 C 0.16936 0.31409 0.81609 0.0
C415 C 0.14918 0.31244 0.80767 0.0
C416 C 0.18648 0.32024 0.80406 0.0
C417 C 0.26467 0.36662 0.73288 0.0
C418 C 0.26333 0.40253 0.74556 0.0
C419 C 0.29654 0.38881 0.73818 0.0
C420 C 0.28639 0.36958 0.73219 0.0
C421 C 0.28515 0.40559 0.74486 0.0
C422 C 0.25319 0.38323 0.73971 0.0
C423 C 0.25444 0.34618 0.72627 0.0
O424 O 0.22611 0.28808 0.73429 0.0
O425 O 0.20434 0.30314 0.71516 0.0
O426 O 0.23546 0.34604 0.71883 0.0
O427 O 0.25675 0.33128 0.73876 0.0
H428 H 0.22598 0.30169 0.6814 0.0
H429 H 0.23696 0.28214 0.65046 0.0
H430 H 0.22936 0.2256 0.68253 0.0
H431 H 0.21829 0.24522 0.71346 0.0
H432 H 0.13126 0.31505 0.7798 0.0
H433 H 0.16107 0.32566 0.7588 0.0
H434 H 0.17185 0.31133 0.83217 0.0
H435 H 0.20178 0.32199 0.81113 0.0
H436 H 0.25402 0.41512 0.7504 0.0
H437 H 0.31336 0.39042 0.73781 0.0
H438 H 0.29554 0.35694 0.72706 0.0
H439 H 0.23639 0.38133 0.74045 0.0
C440 C 0.77264 0.26677 0.68899 0.0
C441 C 0.79177 0.2775 0.68495 0.0
C442 C 0.77547 0.29635 0.65863 0.0
C443 C 0.79319 0.29211 0.66986 0.0
C444 C 0.75625 0.28589 0.66314 0.0
C445 C 0.75488 0.27122 0.67815 0.0
U446 U 0.79314 0.24003 0.73519 0.0
O447 O 0.77619 0.2266 0.76127 0.0
O448 O 0.79383 0.2069 0.74022 0.0
C449 C 0.7811 0.20773 0.75599 0.0
C450 C 0.77099 0.25057 0.70403 0.0
C451 C 0.76401 0.19139 0.75588 0.0
C452 C 0.73463 0.17132 0.73919 0.0
C453 C 0.75026 0.18756 0.73907 0.0
C454 C 0.74623 0.16289 0.77299 0.0
C455 C 0.73256 0.15867 0.7561 0.0
C456 C 0.76179 0.17906 0.77285 0.0
C457 C 0.84363 0.2603 0.76229 0.0
C458 C 0.85751 0.24284 0.79085 0.0
C459 C 0.87494 0.27484 0.7802 0.0
C460 C 0.85993 0.27578 0.76478 0.0
C461 C 0.87395 0.25836 0.79343 0.0
C462 C 0.84248 0.24381 0.77541 0.0
C463 C 0.82787 0.26167 0.74614 0.0
O464 O 0.78486 0.23676 0.70224 0.0
O465 O 0.76776 0.25696 0.72327 0.0
O466 O 0.80951 0.26641 0.75281 0.0
O467 O 0.82685 0.2466 0.73164 0.0
H468 H 0.80565 0.27439 0.69327 0.0
H469 H 0.80817 0.30007 0.66695 0.0
H470 H 0.74236 0.2886 0.65465 0.0
H471 H 0.73997 0.26309 0.68107 0.0
H472 H 0.72445 0.16842 0.72589 0.0
H473 H 0.75177 0.19696 0.72582 0.0
H474 H 0.74484 0.15375 0.78643 0.0
H475 H 0.77221 0.18187 0.78599 0.0
H476 H 0.85636 0.22984 0.80062 0.0
H477 H 0.88713 0.28725 0.78195 0.0
H478 H 0.86099 0.28868 0.75486 0.0
H479 H 0.82996 0.2317 0.77369 0.0
C480 C 0.51057 0.59249 0.6125 0.0
C481 C 0.50802 0.57143 0.61651 0.0
C482 C 0.49009 0.57975 0.64871 0.0
C483 C 0.49779 0.56512 0.63434 0.0
C484 C 0.49282 0.60087 0.64465 0.0
C485 C 0.50292 0.60714 0.62671 0.0
U486 U 0.55245 0.58755 0.57127 0.0
O487 O 0.55092 0.58979 0.53765 0.0
O488 O 0.57191 0.61174 0.55624 0.0
C489 C 0.56355 0.60671 0.53797 0.0
C490 C 0.52115 0.59943 0.59367 0.0
C491 C 0.55687 0.624 0.52622 0.0
C492 C 0.53101 0.6399 0.50627 0.0
C493 C 0.53651 0.62407 0.5185 0.0
C494 C 0.56595 0.65615 0.50961 0.0
C495 C 0.54569 0.65611 0.50154 0.0
C496 C 0.57147 0.64026 0.52173 0.0
C497 C 0.58967 0.54415 0.57535 0.0
C498 C 0.62216 0.54124 0.55687 0.0
C499 C 0.6068 0.51201 0.57454 0.0
C500 C 0.59037 0.52367 0.58093 0.0
C501 C 0.62296 0.52063 0.56244 0.0
C502 C 0.60565 0.55286 0.56322 0.0
C503 C 0.57224 0.55606 0.58256 0.0
O504 O 0.54028 0.60766 0.59629 0.0
O505 O 0.51887 0.58667 0.57716 0.0
O506 O 0.55547 0.55393 0.57089 0.0
O507 O 0.57705 0.57531 0.58942 0.0
H508 H 0.51385 0.55981 0.60583 0.0
H509 H 0.49573 0.54872 0.63672 0.0
H510 H 0.48741 0.61261 0.65545 0.0
H511 H 0.50483 0.62349 0.62396 0.0
H512 H 0.51534 0.63914 0.50014 0.0
H513 H 0.52487 0.61173 0.52161 0.0
H514 H 0.5776 0.66852 0.50662 0.0
H515 H 0.58728 0.64056 0.52745 0.0
H516 H 0.63442 0.54849 0.54777 0.0
H517 H 0.60667 0.49612 0.57883 0.0
H518 H 0.57813 0.51664 0.59023 0.0
H519 H 0.60541 0.56867 0.55874 0.0
C520 C 0.49933 0.49008 0.94177 0.0
C521 C 0.51059 0.50243 0.92795 0.0
C522 C 0.4792 0.50506 0.90762 0.0
C523 C 0.50063 0.50978 0.91098 0.0
C524 C 0.46795 0.49295 0.92174 0.0
C525 C 0.47795 0.48551 0.93863 0.0
U526 U 0.54527 0.49139 0.97866 0.0
O527 O 0.5467 0.48758 0.01206 0.0
O528 O 0.56183 0.46607 0.99062 0.0
C529 C 0.55641 0.47049 0.0098 0.0
C530 C 0.50974 0.48182 0.95939 0.0
C531 C 0.54803 0.45281 0.0214 0.0
C532 C 0.51966 0.43377 0.03844 0.0
C533 C 0.52697 0.45032 0.02684 0.0
C534 C 0.55424 0.42176 0.03902 0.0
C535 C 0.5332 0.41927 0.04473 0.0
C536 C 0.56155 0.43837 0.02754 0.0
C537 C 0.58992 0.53333 0.97207 0.0
C538 C 0.6253 0.53375 0.98515 0.0
C539 C 0.61216 0.56531 0.97403 0.0
C540 C 0.59309 0.55453 0.96905 0.0
C541 C 0.62852 0.55506 0.9821 0.0
C542 C 0.60611 0.52298 0.98027 0.0
C543 C 0.56968 0.52247 0.96632 0.0
O544 O 0.52677 0.47264 0.95492 0.0
O545 O 0.51157 0.49424 0.97614 0.0
O546 O 0.55467 0.52478 0.97973 0.0
O547 O 0.57001 0.5034 0.95833 0.0
H548 H 0.5271 0.50628 0.93022 0.0
H549 H 0.50968 0.51926 0.90055 0.0
H550 H 0.45149 0.48885 0.91948 0.0
H551 H 0.46901 0.47602 0.94915 0.0
H552 H 0.50342 0.43254 0.04273 0.0
H553 H 0.51619 0.46124 0.02228 0.0
H554 H 0.56506 0.41075 0.04322 0.0
H555 H 0.57785 0.43997 0.02346 0.0
H556 H 0.63754 0.52548 0.99151 0.0
H557 H 0.61422 0.58163 0.97124 0.0
H558 H 0.58079 0.56276 0.9627 0.0
H559 H 0.60394 0.50662 0.98284 0.0
C560 C 0.7099 0.28625 0.36257 0.0
C561 C 0.71743 0.27601 0.37919 0.0
C562 C 0.72115 0.30855 0.40019 0.0
C563 C 0.72291 0.28703 0.39784 0.0
C564 C 0.71384 0.31872 0.38335 0.0
C565 C 0.70824 0.30766 0.36478 0.0
U566 U 0.71512 0.2423 0.32133 0.0
O567 O 0.69116 0.22169 0.305 0.0
O568 O 0.71195 0.24244 0.28745 0.0
C569 C 0.69519 0.22955 0.28708 0.0
C570 C 0.70356 0.2749 0.34294 0.0
C571 C 0.67709 0.23587 0.27567 0.0
C572 C 0.6413 0.24519 0.27484 0.0
C573 C 0.65886 0.2409 0.286 0.0
C574 C 0.66019 0.24058 0.24288 0.0
C575 C 0.64167 0.24479 0.25315 0.0
C576 C 0.6777 0.23606 0.25406 0.0
C577 C 0.7569 0.20379 0.33005 0.0
C578 C 0.77233 0.17953 0.30561 0.0
C579 C 0.77361 0.17447 0.34226 0.0
C580 C 0.76305 0.19225 0.34626 0.0
C581 C 0.77832 0.16782 0.3219 0.0
C582 C 0.76161 0.19734 0.30964 0.0
C583 C 0.74579 0.22245 0.33517 0.0
O584 O 0.71713 0.27612 0.32789 0.0
O585 O 0.69466 0.25614 0.34443 0.0
O586 O 0.72643 0.21907 0.34108 0.0
O587 O 0.74856 0.23786 0.3229 0.0
H588 H 0.71892 0.25947 0.37781 0.0
H589 H 0.72825 0.27862 0.4105 0.0
H590 H 0.71265 0.33531 0.38442 0.0
H591 H 0.70258 0.31586 0.35209 0.0
H592 H 0.62733 0.24863 0.28318 0.0
H593 H 0.658 0.24112 0.30268 0.0
H594 H 0.66089 0.24004 0.22619 0.0
H595 H 0.6916 0.23226 0.24578 0.0
H596 H 0.77561 0.17471 0.28976 0.0
H597 H 0.77826 0.16601 0.35518 0.0
H598 H 0.75968 0.19701 0.36211 0.0
H599 H 0.75695 0.20599 0.29685 0.0
C600 C 0.46587 0.10734 0.02967 0.0
C601 C 0.48709 0.11117 0.03455 0.0
C602 C 0.48016 0.14342 0.05361 0.0
C603 C 0.49415 0.12902 0.0465 0.0
C604 C 0.45901 0.13964 0.04838 0.0
C605 C 0.45195 0.12177 0.03659 0.0
U606 U 0.46711 0.06563 0.98491 0.0
O607 O 0.45894 0.0321 0.98479 0.0
O608 O 0.44106 0.05136 0.96575 0.0
C609 C 0.44239 0.03307 0.97313 0.0
C610 C 0.45764 0.0883 0.01791 0.0
C611 C 0.42269 0.02295 0.98049 0.0
C612 C 0.40123 0.00812 0.00759 0.0
C613 C 0.42005 0.01782 1.00114 0.0
C614 C 0.38732 0.00883 0.97298 0.0
C615 C 0.38463 1.00359 0.99358 0.0
C616 C 0.40617 0.01833 0.96651 0.0
C617 C 0.51061 0.06809 0.94462 0.0
C618 C 0.50893 0.05262 0.90951 0.0
C619 C 0.54227 0.06434 0.92495 0.0
C620 C 0.53231 0.07062 0.94313 0.0
C621 C 0.53069 0.05548 0.90784 0.0
C622 C 0.49898 0.05878 0.92777 0.0
C623 C 0.50048 0.0759 0.96356 0.0
O624 O 0.45026 0.09088 0.99943 0.0
O625 O 0.46852 0.07201 0.01856 0.0
O626 O 0.50069 0.06414 0.97937 0.0
O627 O 0.48254 0.08376 0.96099 0.0
H628 H 0.49818 0.10033 0.02928 0.0
H629 H 0.51057 0.1316 0.05011 0.0
H630 H 0.44779 0.15027 0.05384 0.0
H631 H 0.43552 0.11909 0.03306 0.0
H632 H 0.39956 1.00443 0.02359 0.0
H633 H 0.43248 0.0213 0.01233 0.0
H634 H 0.37492 1.00532 0.96177 0.0
H635 H 0.40786 0.02208 0.95051 0.0
H636 H 0.4996 0.04564 0.89669 0.0
H637 H 0.55901 0.06697 0.9241 0.0
H638 H 0.54156 0.07779 0.95594 0.0
H639 H 0.48221 0.05652 0.92863 0.0
O640 O 0.24871 0.87721 0.01292 0.0
Cd641 Cd 0.26207 0.89176 0.03955 0.0
Cd642 Cd 0.23945 0.92615 0.02477 0.0
O643 O 0.23097 0.90267 1.00275 0.0
O644 O 0.27434 0.86916 0.05411 0.0
O645 O 0.24917 0.8868 0.06742 0.0
C646 C 0.26172 0.87239 0.06911 0.0
C647 C 0.21394 0.94954 0.03271 0.0
C648 C 0.23645 0.88428 1.00016 0.0
C649 C 0.28672 0.93175 0.02966 0.0
O650 O 0.26979 0.93898 0.02458 0.0
O651 O 0.28675 0.91367 0.03628 0.0
O652 O 0.22375 0.9494 0.01547 0.0
O653 O 0.21857 0.93629 0.04574 0.0
O654 O 0.16256 0.54892 0.28278 0.0
Cd655 Cd 0.1466 0.52214 0.29212 0.0
Cd656 Cd 0.11379 0.53936 0.26867 0.0
O657 O 0.13801 0.56146 0.26448 0.0
O658 O 0.16856 0.50686 0.30505 0.0
O659 O 0.15098 0.49446 0.27728 0.0
C660 C 0.16515 0.49224 0.29088 0.0
C661 C 0.09154 0.53101 0.24017 0.0
C662 C 0.15646 0.56279 0.2716 0.0
C663 C 0.10672 0.53205 0.31421 0.0
O664 O 0.10009 0.53843 0.29744 0.0
O665 O 0.12447 0.52483 0.31504 0.0
O666 O 0.09117 0.54828 0.25094 0.0
O667 O 0.10469 0.51824 0.24554 0.0
O668 O 0.76121 0.69187 0.9987 0.0
Cd669 Cd 0.75009 0.67606 0.02364 0.0
Cd670 Cd 0.77245 0.64497 1.00325 0.0
O671 O 0.77855 0.66782 0.98246 0.0
O672 O 0.73541 0.69755 0.03987 0.0
O673 O 0.76179 0.68262 0.05254 0.0
C674 C 0.7477 0.69561 0.05514 0.0
C675 C 0.79994 0.6288 0.01745 0.0
C676 C 0.77223 0.68596 0.98355 0.0
C677 C 0.72667 0.63508 0.00932 0.0
O678 O 0.74349 0.62875 1.00201 0.0
O679 O 0.72651 0.65298 0.01838 0.0
O680 O 0.79353 0.62413 0.99879 0.0
O681 O 0.79087 0.64299 0.02804 0.0
O682 O 0.91597 0.0309 0.29711 0.0
Cd683 Cd 0.90179 0.03282 0.26862 0.0
Cd684 Cd 0.86916 0.04514 0.29352 0.0
O685 O 0.8902 0.04091 0.31669 0.0
O686 O 0.92434 0.03065 0.24772 0.0
O687 O 0.90646 0.05824 0.25214 0.0
C688 C 0.92074 0.04884 0.24231 0.0
C689 C 0.85108 0.07524 0.29572 0.0
C690 C 0.9084 0.03476 0.31491 0.0
C691 C 0.86102 0.00645 0.26569 0.0
O692 O 0.85396 0.01885 0.27936 0.0
O693 O 0.87951 0.00951 0.25918 0.0
O694 O 0.84659 0.06011 0.30734 0.0
O695 O 0.86611 0.0734 0.28276 0.0
O696 O 0.26245 0.19274 0.49773 0.0
Cd697 Cd 0.25115 0.17533 0.52147 0.0
Cd698 Cd 0.27358 0.14549 0.49602 0.0
O699 O 0.27847 0.17051 0.47749 0.0
O700 O 0.23489 0.19631 0.53661 0.0
O701 O 0.26087 0.18236 0.5511 0.0
C702 C 0.24643 0.19506 0.55257 0.0
C703 C 0.30169 0.12711 0.50558 0.0
C704 C 0.27255 0.18859 0.48139 0.0
C705 C 0.22804 0.13491 0.50426 0.0
O706 O 0.24449 0.12955 0.49535 0.0
O707 O 0.22809 0.15192 0.51505 0.0
O708 O 0.29365 0.12469 0.4873 0.0
O709 O 0.29399 0.14039 0.51847 0.0
O710 O 0.41305 0.53605 0.80092 0.0
Cd711 Cd 0.3991 0.53688 0.7722 0.0
Cd712 Cd 0.36503 0.54789 0.79753 0.0
O713 O 0.38661 0.54444 0.82044 0.0
O714 O 0.42239 0.53442 0.75214 0.0
O715 O 0.40355 0.56144 0.75446 0.0
C716 C 0.41843 0.55208 0.74562 0.0
C717 C 0.34405 0.57592 0.8019 0.0
C718 C 0.40521 0.53935 0.81868 0.0
C719 C 0.35916 0.50902 0.76924 0.0
O720 O 0.35138 0.52115 0.78271 0.0
O721 O 0.37768 0.51273 0.76302 0.0
O722 O 0.34137 0.55986 0.81262 0.0
O723 O 0.3589 0.57626 0.78857 0.0
O724 O 0.75414 0.37899 0.51301 0.0
Cd725 Cd 0.76658 0.39421 0.53961 0.0
Cd726 Cd 0.74123 0.42567 0.52724 0.0
O727 O 0.73321 0.40258 0.50456 0.0
O728 O 0.77923 0.37262 0.55523 0.0
O729 O 0.75289 0.38956 0.56709 0.0
C730 C 0.76586 0.37568 0.56962 0.0
C731 C 0.71424 0.44524 0.53988 0.0
C732 C 0.74049 0.38504 0.50107 0.0
C733 C 0.78819 0.43541 0.5301 0.0
O734 O 0.77038 0.44133 0.52596 0.0
O735 O 0.78997 0.41734 0.53616 0.0
O736 O 0.72193 0.44747 0.52178 0.0
O737 O 0.72185 0.43174 0.551 0.0
O738 O 0.66255 0.0412 0.78259 0.0
Cd739 Cd 0.64533 0.01527 0.79201 0.0
Cd740 Cd 0.61388 0.03722 0.76863 0.0
O741 O 0.63978 0.05774 0.7657 0.0
O742 O 0.66678 1.0025 0.80833 0.0
O743 O 0.65217 0.9867 0.78045 0.0
C744 C 0.66539 0.98667 0.79539 0.0
C745 C 0.59239 0.03046 0.73936 0.0
C746 C 0.65811 0.0565 0.77248 0.0
C747 C 0.60545 0.02793 0.81347 0.0
O748 O 0.59966 0.03589 0.79716 0.0
O749 O 0.62239 0.01912 0.81393 0.0
O750 O 0.59257 0.04769 0.75031 0.0
O751 O 0.60448 0.01684 0.74504 0.0
O752 O 0.9839 0.29774 0.93157 0.0
Cd753 Cd 0.98544 0.26948 0.91537 0.0
Cd754 Cd 0.01106 0.29507 0.88826 0.0
O755 O 1.00535 0.31643 0.91223 0.0
O756 O 0.97671 0.24775 0.9349 0.0
O757 O 0.00833 0.25128 0.92192 0.0
C758 C 0.99527 0.24169 0.93382 0.0
C759 C 0.04218 0.30195 0.87 0.0
C760 C 0.99357 0.31494 0.92788 0.0
C761 C 0.97049 0.27157 0.8718 0.0
O762 O 0.98667 0.28357 0.86915 0.0
O763 O 0.96697 0.2639 0.88917 0.0
O764 O 0.02673 0.31321 0.86888 0.0
O765 O 0.04029 0.28671 0.88196 0.0
O766 O 0.48642 0.79957 0.43491 0.0
Cd767 Cd 0.48818 0.77133 0.41853 0.0
Cd768 Cd 0.50865 0.79828 0.39018 0.0
O769 O 0.5032 0.82021 0.41359 0.0
O770 O 0.47964 0.75048 0.43902 0.0
O771 O 0.51089 0.75279 0.42521 0.0
C772 C 0.49798 0.74396 0.43777 0.0
C773 C 0.54033 0.80195 0.37241 0.0
C774 C 0.49349 0.81759 0.43039 0.0
C775 C 0.46896 0.77286 0.37618 0.0
O776 O 0.48354 0.78638 0.37241 0.0
O777 O 0.46823 0.76449 0.39346 0.0
O778 O 0.52581 0.81416 0.37003 0.0
O779 O 0.53707 0.78764 0.38531 0.0
O780 O 0.9812 0.78169 0.67805 0.0
Cd781 Cd 0.00668 0.7714 0.66225 0.0
Cd782 Cd 0.98808 0.79782 0.63151 0.0
O783 O 0.96783 0.80176 0.65591 0.0
O784 O 0.0189 0.75424 0.68309 0.0
O785 O 0.0361 0.78165 0.67121 0.0
C786 C 0.03559 0.76641 0.68318 0.0
C787 C 0.99687 0.82672 0.61208 0.0
C788 C 0.96745 0.79367 0.67331 0.0
C789 C 0.9931 0.75221 0.61976 0.0
O790 O 0.98667 0.76942 0.61514 0.0
O791 O 1.00166 0.75035 0.63715 0.0
O792 O 0.97875 0.81692 0.61086 0.0
O793 O 0.01017 0.82026 0.62462 0.0
O794 O 0.49185 0.27866 0.17987 0.0
Cd795 Cd 0.51623 0.26982 0.16151 0.0
Cd796 Cd 0.49571 0.29577 0.13475 0.0
O797 O 0.47614 0.29904 0.1598 0.0
O798 O 0.53229 0.25432 0.18101 0.0
O799 O 0.5456 0.28247 0.16695 0.0
C800 C 0.5478 0.26777 0.17916 0.0
C801 C 0.50797 0.32531 0.11801 0.0
C802 C 0.47734 0.29036 0.17678 0.0
C803 C 0.49984 0.2509 0.12027 0.0
O804 O 0.4929 0.26823 0.11693 0.0
O805 O 0.50982 0.24859 0.13679 0.0
O806 O 0.48917 0.31732 0.11546 0.0
O807 O 0.51987 0.31668 0.13044 0.0
H808 H 0.20094 0.84358 0.91531 0.0
H809 H 0.23806 0.79455 0.93215 0.0
H810 H 0.24821 0.81411 0.96438 0.0
H811 H 0.24702 0.84547 0.98756 0.0
H812 H 0.2094 0.89414 0.97056 0.0
H813 H 0.19867 0.87414 0.9389 0.0
C814 C 0.211 0.83698 0.92614 0.0
C815 C 0.21871 0.81759 0.92122 0.0
C816 C 0.21668 0.84825 0.9447 0.0
C817 C 0.23209 0.80955 0.93534 0.0
C818 C 0.23782 0.82068 0.95386 0.0
C819 C 0.23637 0.85167 0.97701 0.0
C820 C 0.22911 0.87136 0.98152 0.0
C821 C 0.2303 0.84011 0.95866 0.0
C822 C 0.21532 0.87909 0.96757 0.0
C823 C 0.20917 0.86766 0.9494 0.0
H824 H 0.06608 0.53897 0.40283 0.0
H825 H 0.02087 0.56924 0.36883 0.0
H826 H 0.03967 0.56244 0.33682 0.0
H827 H 0.06964 0.54921 0.3187 0.0
H828 H 0.11526 0.51932 0.35265 0.0
H829 H 0.09546 0.52442 0.38434 0.0
C830 C 0.06021 0.54383 0.38836 0.0
C831 C 0.04215 0.5547 0.38826 0.0
C832 C 0.07119 0.53998 0.36999 0.0
C833 C 0.03488 0.5611 0.3694 0.0
C834 C 0.04558 0.55714 0.35107 0.0
C835 C 0.07523 0.54366 0.33298 0.0
C836 C 0.094 0.53395 0.33322 0.0
C837 C 0.06389 0.54683 0.35122 0.0
C838 C 0.10092 0.52689 0.35194 0.0
C839 C 0.08961 0.52982 0.37012 0.0
H840 H 0.79437 0.73401 0.90322 0.0
H841 H 0.75739 0.77852 0.93495 0.0
H842 H 0.75343 0.75668 0.96414 0.0
H843 H 0.75922 0.72451 0.98025 0.0
H844 H 0.79513 0.67914 0.94848 0.0
H845 H 0.80059 0.70168 0.91975 0.0
C846 C 0.78536 0.73889 0.91648 0.0
C847 C 0.77628 0.758 0.91682 0.0
C848 C 0.78289 0.72607 0.93323 0.0
C849 C 0.76488 0.76412 0.93431 0.0
C850 C 0.76246 0.75155 0.951 0.0
C851 C 0.76836 0.71953 0.96713 0.0
C852 C 0.77671 0.70008 0.96659 0.0
C853 C 0.77128 0.73246 0.95059 0.0
C854 C 0.78849 0.694 0.94937 0.0
C855 C 0.7916 0.70688 0.93288 0.0
H856 H 0.9445 0.01707 0.40229 0.0
H857 H 0.9953 0.99801 0.3644 0.0
H858 H 0.97769 0.008 0.3336 0.0
H859 H 0.94723 0.02089 0.31721 0.0
H860 H 0.89631 0.03976 0.35517 0.0
H861 H 0.91458 0.03109 0.38603 0.0
C862 C 0.95168 0.01503 0.38728 0.0
C863 C 0.97117 0.00672 0.38569 0.0
C864 C 0.94143 0.02077 0.36959 0.0
C865 C 0.9804 1.00452 0.36613 0.0
C866 C 0.97028 0.01014 0.34848 0.0
C867 C 0.94016 0.02325 0.33223 0.0
C868 C 0.92033 0.0309 0.33375 0.0
C869 C 0.95072 0.01814 0.34999 0.0
C870 C 0.91151 0.03387 0.35343 0.0
C871 C 0.92193 0.02887 0.37114 0.0
H872 H 0.21942 0.25594 0.62532 0.0
H873 H 0.26055 0.22139 0.65986 0.0
H874 H 0.26858 0.20085 0.62841 0.0
H875 H 0.26335 0.19233 0.59099 0.0
H876 H 0.22139 0.22675 0.55713 0.0
H877 H 0.21445 0.24776 0.58829 0.0
C878 C 0.23033 0.24408 0.62592 0.0
C879 C 0.23943 0.24026 0.64488 0.0
C880 C 0.23471 0.23224 0.60786 0.0
C881 C 0.25324 0.22455 0.64547 0.0
C882 C 0.25788 0.21285 0.62748 0.0
C883 C 0.25277 0.20448 0.59045 0.0
C884 C 0.24291 0.2079 0.57172 0.0
C885 C 0.24862 0.21647 0.60858 0.0
C886 C 0.22915 0.22368 0.57131 0.0
C887 C 0.22516 0.23576 0.58914 0.0
H888 H 0.45631 0.59548 0.66783 0.0
H889 H 0.49985 0.54866 0.6729 0.0
H890 H 0.48169 0.53627 0.70318 0.0
H891 H 0.45319 0.53816 0.72791 0.0
H892 H 0.41025 0.58559 0.72395 0.0
H893 H 0.42875 0.59856 0.69386 0.0
C894 C 0.46204 0.58275 0.67569 0.0
C895 C 0.47937 0.57292 0.66782 0.0
C896 C 0.45166 0.57581 0.69337 0.0
C897 C 0.48632 0.55627 0.67821 0.0
C898 C 0.47603 0.54925 0.69567 0.0
C899 C 0.44788 0.5514 0.72053 0.0
C900 C 0.43027 0.56081 0.72814 0.0
C901 C 0.4586 0.55878 0.70329 0.0
C902 C 0.42375 0.57804 0.71844 0.0
C903 C 0.4343 0.58543 0.70119 0.0
H904 H 0.74925 0.32588 0.64979 0.0
H905 H 0.80547 0.29935 0.62914 0.0
H906 H 0.80777 0.32194 0.60034 0.0
H907 H 0.79327 0.34831 0.58027 0.0
H908 H 0.73703 0.375 0.60059 0.0
H909 H 0.73525 0.35322 0.63015 0.0
C910 C 0.76198 0.32502 0.63895 0.0
C911 C 0.77716 0.31089 0.64166 0.0
C912 C 0.76318 0.33804 0.62231 0.0
C913 C 0.7937 0.31021 0.62762 0.0
C914 C 0.79497 0.32304 0.61104 0.0
C915 C 0.78063 0.34944 0.59118 0.0
C916 C 0.76524 0.36322 0.58812 0.0
C917 C 0.77972 0.33689 0.60815 0.0
C918 C 0.74908 0.36453 0.60253 0.0
C919 C 0.74803 0.35204 0.61944 0.0
H920 H 0.53193 0.02984 0.6625 0.0
H921 H 0.55048 0.96744 0.6539 0.0
H922 H 0.57235 0.97275 0.68473 0.0
H923 H 0.58661 0.99524 0.71408 0.0
H924 H 0.56745 0.05742 0.72295 0.0
H925 H 0.54533 0.05194 0.69234 0.0
C926 C 0.54055 0.01731 0.66749 0.0
C927 C 0.5396 0.99831 0.65575 0.0
C928 C 0.55307 0.02042 0.68534 0.0
C929 C 0.55114 0.98235 0.66239 0.0
C930 C 0.5636 0.98533 0.68011 0.0
C931 C 0.57759 0.00759 0.70933 0.0
C932 C 0.57878 0.02673 0.72083 0.0
C933 C 0.5648 1.00434 0.69166 0.0
C934 C 0.56689 0.04252 0.71444 0.0
C935 C 0.5542 0.03942 0.6969 0.0
H936 H 0.91569 0.26777 0.79092 0.0
H937 H 0.86804 0.24724 0.83329 0.0
H938 H 0.89391 0.24781 0.86089 0.0
H939 H 0.92982 0.2563 0.87359 0.0
H940 H 0.97689 0.27826 0.8312 0.0
H941 H 0.95151 0.27508 0.80317 0.0
C942 C 0.91091 0.26352 0.80621 0.0
C943 C 0.88988 0.25762 0.80999 0.0
C944 C 0.9258 0.2642 0.82209 0.0
C945 C 0.88412 0.25169 0.82983 0.0
C946 C 0.8989 0.25214 0.84569 0.0
C947 C 0.93457 0.26016 0.85817 0.0
C948 C 0.95525 0.2676 0.85459 0.0
C949 C 0.91976 0.25862 0.84208 0.0
C950 C 0.96108 0.27262 0.83449 0.0
C951 C 0.94656 0.27083 0.81841 0.0
H952 H 0.46632 0.88506 0.49727 0.0
H953 H 0.48879 0.9257 0.45055 0.0
H954 H 0.49886 0.89602 0.42899 0.0
H955 H 0.50034 0.85846 0.42291 0.0
H956 H 0.47729 0.81769 0.46936 0.0
H957 H 0.4687 0.84747 0.49158 0.0
C958 C 0.47364 0.88743 0.48248 0.0
C959 C 0.47672 0.90759 0.47552 0.0
C960 C 0.4793 0.87026 0.47008 0.0
C961 C 0.48598 0.91034 0.45617 0.0
C962 C 0.49184 0.89338 0.44386 0.0
C963 C 0.49359 0.85606 0.43795 0.0
C964 C 0.48947 0.8358 0.44439 0.0
C965 C 0.48841 0.87325 0.45058 0.0
C966 C 0.4806 0.83306 0.46393 0.0
C967 C 0.47566 0.85011 0.47667 0.0
H968 H 0.11332 0.3316 0.80941 0.0
H969 H 0.14396 0.28249 0.83576 0.0
H970 H 0.11374 0.27489 0.85763 0.0
H971 H 0.0783 0.28216 0.86908 0.0
H972 H 0.04838 0.33174 0.84249 0.0
H973 H 0.0785 0.33905 0.82091 0.0
C974 C 0.11331 0.31909 0.81978 0.0
C975 C 0.1308 0.30754 0.82083 0.0
C976 C 0.09599 0.3149 0.83234 0.0
C977 C 0.13071 0.29167 0.83471 0.0
C978 C 0.11342 0.28729 0.84717 0.0
C979 C 0.07841 0.29458 0.85859 0.0
C980 C 0.06104 0.30635 0.85745 0.0
C981 C 0.09593 0.29881 0.84613 0.0
C982 C 0.06148 0.32241 0.84376 0.0
C983 C 0.07872 0.32662 0.83134 0.0
H984 H 0.50912 0.67472 0.50058 0.0
H985 H 0.56942 0.67493 0.47185 0.0
H986 H 0.56023 0.70209 0.44982 0.0
H987 H 0.5349 0.72576 0.4384 0.0
H988 H 0.47429 0.7245 0.46658 0.0
H989 H 0.48368 0.6976 0.48871 0.0
C990 C 0.52021 0.68049 0.48935 0.0
C991 C 0.53998 0.67271 0.48802 0.0
C992 C 0.51474 0.69595 0.47649 0.0
C993 C 0.55421 0.68078 0.47356 0.0
C994 C 0.54891 0.69624 0.46079 0.0
C995 C 0.52373 0.71956 0.44935 0.0
C996 C 0.50391 0.72721 0.45076 0.0
C997 C 0.52921 0.70396 0.46211 0.0
C998 C 0.48965 0.71895 0.46507 0.0
C999 C 0.49501 0.70355 0.4778 0.0
H1000 H 0.88672 0.81399 0.72365 0.0
H1001 H 0.9134 0.77424 0.76589 0.0
H1002 H 0.94305 0.7706 0.74314 0.0
H1003 H 0.96112 0.77794 0.71098 0.0
H1004 H 0.93486 0.8178 0.66855 0.0
H1005 H 0.90561 0.8224 0.69179 0.0
C1006 C 0.89913 0.80471 0.72797 0.0
C1007 C 0.89766 0.79424 0.74639 0.0
C1008 C 0.91627 0.80271 0.71479 0.0
C1009 C 0.91385 0.78214 0.75164 0.0
C1010 C 0.93092 0.78015 0.73869 0.0
C1011 C 0.94908 0.78775 0.7068 0.0
C1012 C 0.95025 0.79745 0.68795 0.0
C1013 C 0.93222 0.79022 0.72016 0.0
C1014 C 0.93443 0.8101 0.68291 0.0
C1015 C 0.91764 0.81272 0.6962 0.0
H1016 H 1.00415 0.89994 0.55168 0.0
H1017 H 0.06781 0.9037 0.57285 0.0
H1018 H 0.05959 0.8752 0.59512 0.0
H1019 H 0.03438 0.84882 0.60843 0.0
H1020 H 0.97092 0.84468 0.58656 0.0
H1021 H 0.97908 0.87346 0.5647 0.0
C1022 C 0.01628 0.89441 0.56101 0.0
C1023 C 0.03655 0.90407 0.56058 0.0
C1024 C 0.01149 0.87788 0.57372 0.0
C1025 C 0.05198 0.89682 0.57306 0.0
C1026 C 0.04733 0.88042 0.58574 0.0
C1027 C 0.02233 0.85425 0.59892 0.0
C1028 C 1.00207 0.84456 0.5992 0.0
C1029 C 0.02714 0.87082 0.58623 0.0
C1030 C 0.98667 0.8518 0.5867 0.0
C1031 C 0.99131 0.86828 0.57414 0.0
H1032 H 0.10169 0.73796 0.74535 0.0
H1033 H 0.14024 0.78606 0.71783 0.0
H1034 H 0.1111 0.79379 0.69615 0.0
H1035 H 0.07459 0.78649 0.68464 0.0
H1036 H 0.03657 0.73789 0.71216 0.0
H1037 H 0.06543 0.73095 0.73424 0.0
C1038 C 0.10366 0.7503 0.73478 0.0
C1039 C 0.12312 0.76143 0.73327 0.0
C1040 C 0.08689 0.75457 0.72229 0.0
C1041 C 0.12548 0.77713 0.7192 0.0
C1042 C 0.10879 0.7816 0.70684 0.0
C1043 C 0.07262 0.77443 0.69551 0.0
C1044 C 0.05339 0.76274 0.69667 0.0
C1045 C 0.08942 0.77035 0.70816 0.0
C1046 C 0.05116 0.74712 0.71084 0.0
C1047 C 0.06768 0.74312 0.72353 0.0
H1048 H 0.96754 0.68164 0.55105 0.0
H1049 H 1.00428 0.64674 0.58995 0.0
H1050 H 0.01239 0.67761 0.61279 0.0
H1051 H 0.00784 0.71414 0.62253 0.0
H1052 H 0.97108 0.74906 0.58352 0.0
H1053 H 0.96416 0.71857 0.56002 0.0
C1054 C 0.9773 0.6808 0.56454 0.0
C1055 C 0.98522 0.66189 0.56882 0.0
C1056 C 0.98184 0.6986 0.57765 0.0
C1057 C 0.99812 0.66113 0.58619 0.0
C1058 C 1.00266 0.67875 0.59934 0.0
C1059 C 0.99837 0.71514 0.60886 0.0
C1060 C 0.9899 0.7339 0.60493 0.0
C1061 C 0.99444 0.69752 0.59534 0.0
C1062 C 0.9778 0.73487 0.58701 0.0
C1063 C 0.97378 0.7174 0.57354 0.0
H1064 H 0.81652 0.92477 0.22297 0.0
H1065 H 0.77491 0.93306 0.27435 0.0
H1066 H 0.795 0.96502 0.28582 0.0
H1067 H 0.82495 0.99014 0.28197 0.0
H1068 H 0.86766 0.98089 0.23172 0.0
H1069 H 0.84672 0.94966 0.21935 0.0
C1070 C 0.81193 0.93341 0.23681 0.0
C1071 C 0.79414 0.92642 0.24771 0.0
C1072 C 0.8238 0.95163 0.24359 0.0
C1073 C 0.78829 0.93814 0.26541 0.0
C1074 C 0.79988 0.95639 0.2721 0.0
C1075 C 0.82964 0.98138 0.26823 0.0
C1076 C 0.84786 0.98791 0.25779 0.0
C1077 C 0.81769 0.96325 0.26136 0.0
C1078 C 0.85375 0.97623 0.24011 0.0
C1079 C 0.84178 0.95835 0.233 0.0
H1080 H 0.81065 0.16127 0.29558 0.0
H1081 H 0.77034 0.13098 0.33945 0.0
H1082 H 0.78916 0.09987 0.33507 0.0
H1083 H 0.81745 0.0815 0.3196 0.0
H1084 H 0.85798 0.11114 0.27553 0.0
H1085 H 0.83861 0.14217 0.27905 0.0
C1086 C 0.80586 0.14777 0.30399 0.0
C1087 C 0.7892 0.14855 0.31796 0.0
C1088 C 0.81683 0.12983 0.30144 0.0
C1089 C 0.78331 0.13095 0.32886 0.0
C1090 C 0.79401 0.1131 0.32631 0.0
C1091 C 0.82209 0.09471 0.31072 0.0
C1092 C 0.83923 0.09399 0.29739 0.0
C1093 C 0.81091 0.11244 0.31282 0.0
C1094 C 0.84488 0.11127 0.28594 0.0
C1095 C 0.83381 0.12902 0.28795 0.0
H1096 H 0.37859 0.97029 0.01723 0.0
H1097 H 0.34558 0.01402 0.98489 0.0
H1098 H 0.31243 0.99636 0.9942 0.0
H1099 H 0.29286 0.96773 0.0102 0.0
H1100 H 0.32571 0.9233 0.04184 0.0
H1101 H 0.35881 0.94217 0.03438 0.0
C1102 C 0.36412 0.97608 0.01245 0.0
C1103 C 0.36456 0.99339 1.0003 0.0
C1104 C 0.34508 0.96572 0.0177 0.0
C1105 C 0.34568 1.00057 0.99402 0.0
C1106 C 0.32671 0.99053 0.9994 0.0
C1107 C 0.30723 0.96223 0.01566 0.0
C1108 C 0.30673 0.94406 0.02654 0.0
C1109 C 0.32623 0.97296 0.01103 0.0
C1110 C 0.32557 0.93719 0.03338 0.0
C1111 C 0.34454 0.94797 0.02909 0.0
H1112 H 0.21412 0.41194 0.27423 0.0
H1113 H 0.24343 0.4354 0.3316 0.0
H1114 H 0.22102 0.46403 0.33364 0.0
H1115 H 0.19395 0.48307 0.31875 0.0
H1116 H 0.16419 0.45994 0.26152 0.0
H1117 H 0.18573 0.43043 0.25995 0.0
C1118 C 0.21541 0.42317 0.28731 0.0
C1119 C 0.2306 0.42156 0.30266 0.0
C1120 C 0.20244 0.43971 0.28839 0.0
C1121 C 0.23216 0.43641 0.31939 0.0
C1122 C 0.21928 0.45276 0.32063 0.0
C1123 C 0.19208 0.47156 0.30594 0.0
C1124 C 0.17751 0.47381 0.29022 0.0
C1125 C 0.20454 0.4547 0.30511 0.0
C1126 C 0.17529 0.45864 0.27382 0.0
C1127 C 0.18763 0.44176 0.2729 0.0
H1128 H 0.13703 0.09146 0.4983 0.0
H1129 H 0.16909 0.04396 0.46523 0.0
H1130 H 0.20226 0.06434 0.47121 0.0
H1131 H 0.222 0.09629 0.48484 0.0
H1132 H 0.18954 0.14362 0.51795 0.0
H1133 H 0.15677 0.12274 0.51282 0.0
C1134 C 0.15128 0.0856 0.49234 0.0
C1135 C 0.15057 0.06628 0.48124 0.0
C1136 C 0.17025 0.09741 0.49578 0.0
C1137 C 0.16922 0.05873 0.47395 0.0
C1138 C 0.18818 0.07043 0.47726 0.0
C1139 C 0.20778 0.10203 0.49098 0.0
C1140 C 0.20832 0.12159 0.50169 0.0
C1141 C 0.18887 0.08988 0.48802 0.0
C1142 C 0.18968 0.12867 0.50963 0.0
C1143 C 0.17087 0.11674 0.50669 0.0
H1144 H 0.73687 0.12018 0.76912 0.0
H1145 H 0.69191 0.15741 0.74328 0.0
H1146 H 0.6651 0.1288 0.74506 0.0
H1147 H 0.65408 0.09368 0.75551 0.0
H1148 H 0.69928 0.05714 0.78221 0.0
H1149 H 0.72619 0.08509 0.77872 0.0
C1150 C 0.72117 0.12212 0.764 0.0
C1151 C 0.71641 0.141 0.75624 0.0
C1152 C 0.70581 0.10573 0.7653 0.0
C1153 C 0.69608 0.14302 0.7492 0.0
C1154 C 0.6807 0.1267 0.75034 0.0
C1155 C 0.66983 0.09177 0.76046 0.0
C1156 C 0.67454 0.0733 0.76921 0.0
C1157 C 0.68534 0.10803 0.75856 0.0
C1158 C 0.6951 0.07117 0.77552 0.0
C1159 C 0.71056 0.08716 0.77354 0.0
H1160 H 0.37103 0.06496 0.51745 0.0
H1161 H 0.37584 0.09794 0.57722 0.0
H1162 H 0.34841 0.11946 0.56766 0.0
H1163 H 0.32293 0.12909 0.54227 0.0
H1164 H 0.31902 0.09671 0.48219 0.0
H1165 H 0.3464 0.0752 0.49182 0.0
C1166 C 0.3663 0.077 0.52834 0.0
C1167 C 0.37555 0.07965 0.5481 0.0
C1168 C 0.35065 0.08956 0.52266 0.0
C1169 C 0.36883 0.0952 0.56204 0.0
C1170 C 0.35321 0.10767 0.55653 0.0
C1171 C 0.3281 0.11737 0.53127 0.0
C1172 C 0.31885 0.11457 0.51153 0.0
C1173 C 0.34396 0.10498 0.53689 0.0
C1174 C 0.32582 0.09928 0.49748 0.0
C1175 C 0.34149 0.0869 0.50298 0.0
H1176 H 0.643 0.49295 0.58403 0.0
H1177 H 0.64203 0.51988 0.52478 0.0
H1178 H 0.67023 0.49933 0.51291 0.0
H1179 H 0.69482 0.47338 0.519 0.0
H1180 H 0.69544 0.44556 0.57777 0.0
H1181 H 0.66751 0.46655 0.59002 0.0
C1182 C 0.64881 0.49421 0.56845 0.0
C1183 C 0.64034 0.50806 0.55538 0.0
C1184 C 0.66494 0.48212 0.56159 0.0
C1185 C 0.64839 0.50966 0.53534 0.0
C1186 C 0.66445 0.49777 0.52846 0.0
C1187 C 0.68888 0.47187 0.53451 0.0
C1188 C 0.69725 0.45788 0.54743 0.0
C1189 C 0.67281 0.48394 0.54142 0.0
C1190 C 0.6893 0.45618 0.56747 0.0
C1191 C 0.67332 0.46819 0.57449 0.0
H1192 H 0.70176 0.34045 0.41915 0.0
H1193 H 0.75374 0.30327 0.42605 0.0
H1194 H 0.76354 0.32279 0.45832 0.0
H1195 H 0.75815 0.35122 0.48402 0.0
H1196 H 0.70718 0.38946 0.47613 0.0
H1197 H 0.69642 0.36889 0.44471 0.0
C1198 C 0.71536 0.33671 0.42756 0.0
C1199 C 0.72697 0.32036 0.42005 0.0
C1200 C 0.72116 0.34824 0.44596 0.0
C1201 C 0.74431 0.31554 0.43151 0.0
C1202 C 0.75003 0.32681 0.44993 0.0
C1203 C 0.7446 0.35499 0.47551 0.0
C1204 C 0.73351 0.3719 0.48248 0.0
C1205 C 0.73864 0.34326 0.45726 0.0
C1206 C 0.71607 0.3766 0.47114 0.0
C1207 C 0.70989 0.36483 0.45314 0.0
H1208 H 0.56617 0.0356 0.90257 0.0
H1209 H 0.51897 0.06327 0.86875 0.0
H1210 H 0.53732 0.05631 0.83648 0.0
H1211 H 0.56768 0.04395 0.81807 0.0
H1212 H 0.61497 0.01638 0.85202 0.0
H1213 H 0.59571 0.02177 0.88393 0.0
C1214 C 0.55992 0.04012 0.88813 0.0
C1215 C 0.54127 0.05002 0.88811 0.0
C1216 C 0.57061 0.03616 0.86963 0.0
C1217 C 0.53319 0.05547 0.86921 0.0
C1218 C 0.54375 0.05161 0.85075 0.0
C1219 C 0.57375 0.039 0.83241 0.0
C1220 C 0.59287 0.02989 0.83257 0.0
C1221 C 0.5626 0.04217 0.8508 0.0
C1222 C 0.60035 0.02347 0.85135 0.0
C1223 C 0.58936 0.02659 0.86967 0.0
H1224 H 0.27674 0.26713 0.42827 0.0
H1225 H 0.29545 0.22272 0.38117 0.0
H1226 H 0.29382 0.19583 0.40613 0.0
H1227 H 0.28596 0.18466 0.44128 0.0
H1228 H 0.26739 0.22968 0.48799 0.0
H1229 H 0.27057 0.25656 0.46337 0.0
C1230 C 0.28082 0.25168 0.42349 0.0
C1231 C 0.2862 0.24704 0.40281 0.0
C1232 C 0.2799 0.23632 0.43791 0.0
C1233 C 0.29099 0.22673 0.39689 0.0
C1234 C 0.29017 0.21134 0.41121 0.0
C1235 C 0.28283 0.20039 0.44612 0.0
C1236 C 0.27636 0.20502 0.4665 0.0
C1237 C 0.28447 0.21591 0.43175 0.0
C1238 C 0.27228 0.22554 0.47242 0.0
C1239 C 0.27407 0.24099 0.45833 0.0
H1240 H 0.44162 0.52147 0.90583 0.0
H1241 H 0.49325 0.50469 0.8679 0.0
H1242 H 0.47554 0.51496 0.83727 0.0
H1243 H 0.44468 0.52711 0.82098 0.0
H1244 H 0.39286 0.54356 0.85894 0.0
H1245 H 0.41135 0.53502 0.88972 0.0
C1246 C 0.44897 0.52002 0.89085 0.0
C1247 C 0.4687 0.51223 0.88918 0.0
C1248 C 0.43865 0.52587 0.87326 0.0
C1249 C 0.47815 0.51079 0.86968 0.0
C1250 C 0.46798 0.51656 0.85212 0.0
C1251 C 0.43746 0.529 0.83598 0.0
C1252 C 0.41731 0.53588 0.83752 0.0
C1253 C 0.44814 0.52393 0.85369 0.0
C1254 C 0.4083 0.53826 0.85718 0.0
C1255 C 0.41885 0.53332 0.87484 0.0
H1256 H 0.74491 0.73816 0.14547 0.0
H1257 H 0.69233 0.76426 0.11868 0.0
H1258 H 0.69873 0.74623 0.08555 0.0
H1259 H 0.71853 0.72248 0.06439 0.0
H1260 H 0.77095 0.69566 0.09065 0.0
H1261 H 0.76548 0.71468 0.1237 0.0
C1262 C 0.735 0.74002 0.13231 0.0
C1263 C 0.71806 0.75242 0.1346 0.0
C1264 C 0.73871 0.72947 0.11322 0.0
C1265 C 0.70526 0.75456 0.11744 0.0
C1266 C 0.70896 0.74433 0.09845 0.0
C1267 C 0.72886 0.72081 0.07729 0.0
C1268 C 0.74512 0.70762 0.07503 0.0
C1269 C 0.72551 0.73162 0.09621 0.0
C1270 C 0.7583 0.70569 0.09196 0.0
C1271 C 0.75516 0.71656 0.11087 0.0
H1272 H 0.96203 0.09927 0.1703 0.0
H1273 H 0.99195 0.04232 0.15984 0.0
H1274 H 0.97399 0.02805 0.18939 0.0
H1275 H 0.9493 0.03124 0.21773 0.0
H1276 H 0.91827 0.08751 0.22791 0.0
H1277 H 0.93697 0.1024 0.19883 0.0
C1278 C 0.96452 0.08369 0.17438 0.0
C1279 C 0.97848 0.07198 0.16282 0.0
C1280 C 0.9539 0.0754 0.19133 0.0
C1281 C 0.98165 0.05189 0.16859 0.0
C1282 C 0.97125 0.04362 0.18543 0.0
C1283 C 0.94664 0.0468 0.21367 0.0
C1284 C 0.93239 0.05823 0.22503 0.0
C1285 C 0.95732 0.0552 0.19688 0.0
C1286 C 0.92914 0.07835 0.21946 0.0
C1287 C 0.93983 0.08688 0.2028 0.0
H1288 H 0.24835 0.82269 0.14987 0.0
H1289 H 0.30329 0.79554 0.12654 0.0
H1290 H 0.3042 0.81783 0.09752 0.0
H1291 H 0.28902 0.84436 0.07822 0.0
H1292 H 0.23418 0.87186 0.10127 0.0
H1293 H 0.23355 0.85006 0.13082 0.0
C1294 C 0.26048 0.82161 0.13839 0.0
C1295 C 0.27574 0.80743 0.14044 0.0
C1296 C 0.2609 0.83451 0.12164 0.0
C1297 C 0.2915 0.80646 0.12554 0.0
C1298 C 0.29196 0.81913 0.10884 0.0
C1299 C 0.27692 0.84564 0.08971 0.0
C1300 C 0.26161 0.85969 0.08744 0.0
C1301 C 0.2767 0.83312 0.10668 0.0
C1302 C 0.24615 0.86119 0.10259 0.0
C1303 C 0.24577 0.84869 0.11949 0.0
H1304 H 0.02487 0.52461 0.16819 0.0
H1305 H 0.05246 0.46695 0.15418 0.0
H1306 H 0.07599 0.47401 0.18365 0.0
H1307 H 0.08905 0.49674 0.21337 0.0
H1308 H 0.0618 0.55473 0.22675 0.0
H1309 H 0.03814 0.54746 0.1975 0.0
C1310 C 0.03615 0.51367 0.17144 0.0
C1311 C 0.03678 0.49525 0.15896 0.0
C1312 C 0.04979 0.51789 0.18834 0.0
C1313 C 0.05135 0.48112 0.16367 0.0
C1314 C 0.06494 0.4852 0.18047 0.0
C1315 C 0.07793 0.50778 0.20988 0.0
C1316 C 0.07725 0.52625 0.22229 0.0
C1317 C 0.06431 0.50354 0.19293 0.0
C1318 C 0.06273 0.54038 0.2175 0.0
C1319 C 0.04914 0.53625 0.20075 0.0
H1320 H 0.3904 0.74431 0.31997 0.0
H1321 H 0.41859 0.79218 0.28323 0.0
H1322 H 0.44751 0.7979 0.30749 0.0
H1323 H 0.46426 0.79043 0.33966 0.0
H1324 H 0.43583 0.7437 0.37753 0.0
H1325 H 0.40751 0.73662 0.3524 0.0
C1326 C 0.4028 0.75607 0.31732 0.0
C1327 C 0.40226 0.7677 0.29965 0.0
C1328 C 0.41935 0.75957 0.33158 0.0
C1329 C 0.41868 0.78269 0.29641 0.0
C1330 C 0.4352 0.78612 0.31039 0.0
C1331 C 0.45196 0.77859 0.34244 0.0
C1332 C 0.45223 0.76765 0.36053 0.0
C1333 C 0.43564 0.77475 0.32807 0.0
C1334 C 0.43606 0.75241 0.36378 0.0
C1335 C 0.41982 0.74835 0.34941 0.0
H1336 H 0.98821 0.40299 0.97393 0.0
H1337 H 0.93635 0.3704 1.00288 0.0
H1338 H 0.94374 0.33831 0.9836 0.0
H1339 H 0.96426 0.31975 0.95769 0.0
H1340 H 0.01563 0.35264 0.92813 0.0
H1341 H 0.00927 0.38422 0.94865 0.0
C1342 C 0.97868 0.3888 0.9762 0.0
C1343 C 0.96173 0.38911 0.9898 0.0
C1344 C 0.98292 0.37044 0.96493 0.0
C1345 C 0.94935 0.37064 0.99233 0.0
C1346 C 0.95362 0.35227 0.98138 0.0
C1347 C 0.97419 0.33377 0.95584 0.0
C1348 C 0.9904 0.33375 0.94134 0.0
C1349 C 0.97026 0.35201 0.96749 0.0
C1350 C 1.003 0.35215 0.9391 0.0
C1351 C 0.99937 0.37027 0.95084 0.0
H1352 H 0.62785 0.8023 0.32809 0.0
H1353 H 0.6018 0.85136 0.29691 0.0
H1354 H 0.56991 0.84669 0.31672 0.0
H1355 H 0.54956 0.8292 0.34311 0.0
H1356 H 0.57488 0.7799 0.37451 0.0
H1357 H 0.60685 0.78407 0.35435 0.0
C1358 C 0.6151 0.81181 0.32552 0.0
C1359 C 0.6173 0.82727 0.31112 0.0
C1360 C 0.59671 0.80907 0.33705 0.0
C1361 C 0.60068 0.83958 0.3081 0.0
C1362 C 0.58239 0.83687 0.31937 0.0
C1363 C 0.56205 0.81934 0.34561 0.0
C1364 C 0.55982 0.8043 0.36038 0.0
C1365 C 0.58029 0.82179 0.33398 0.0
C1366 C 0.57618 0.79163 0.36329 0.0
C1367 C 0.59446 0.794 0.35174 0.0
H1368 H 0.00608 0.16816 0.99186 0.0
H1369 H 0.06994 0.1791 0.97321 0.0
H1370 H 0.06033 0.2064 0.95156 0.0
H1371 H 0.03384 0.22762 0.93816 0.0
H1372 H 0.97015 0.21716 0.95757 0.0
H1373 H 0.9797 0.18949 0.97873 0.0
C1374 C 0.01795 0.17664 0.98323 0.0
C1375 C 0.03871 0.17146 0.9842 0.0
C1376 C 0.01235 0.19248 0.97088 0.0
C1377 C 0.05379 0.18247 0.97259 0.0
C1378 C 0.04833 0.19821 0.96026 0.0
C1379 C 0.02204 0.21925 0.94696 0.0
C1380 C 1.00129 0.22452 0.94621 0.0
C1381 C 0.02765 0.20336 0.95927 0.0
C1382 C 0.98624 0.2135 0.95782 0.0
C1383 C 0.99168 0.19765 0.96997 0.0
H1384 H 0.41645 0.29025 0.25285 0.0
H1385 H 0.38246 0.32731 0.21353 0.0
H1386 H 0.40936 0.32484 0.18717 0.0
H1387 H 0.44246 0.3118 0.17514 0.0
H1388 H 0.4763 0.27512 0.21509 0.0
H1389 H 0.44973 0.2782 0.24142 0.0
C1390 C 0.41502 0.29807 0.23866 0.0
C1391 C 0.39742 0.30899 0.23526 0.0
C1392 C 0.43058 0.2967 0.22364 0.0
C1393 C 0.3957 0.3186 0.21651 0.0
C1394 C 0.41115 0.3173 0.20146 0.0
C1395 C 0.44409 0.30457 0.18965 0.0
C1396 C 0.46142 0.29321 0.19302 0.0
C1397 C 0.42864 0.30631 0.20482 0.0
C1398 C 0.46318 0.28393 0.21195 0.0
C1399 C 0.44796 0.28566 0.22707 0.0
H1400 H 0.55274 0.40247 0.07653 0.0
H1401 H 0.49603 0.39599 0.04054 0.0
H1402 H 0.48309 0.36707 0.06048 0.0
H1403 H 0.48802 0.34312 0.08758 0.0
H1404 H 0.5452 0.34842 0.12269 0.0
H1405 H 0.55789 0.37809 0.10342 0.0
C1406 C 0.53764 0.39463 0.07287 0.0
C1407 C 0.52541 0.40155 0.05701 0.0
C1408 C 0.53036 0.37773 0.08421 0.0
C1409 C 0.5057 0.39132 0.05283 0.0
C1410 C 0.49831 0.37464 0.06414 0.0
C1411 C 0.50325 0.35078 0.0911 0.0
C1412 C 0.51562 0.34354 0.10661 0.0
C1413 C 0.51052 0.36769 0.07983 0.0
C1414 C 0.53535 0.35364 0.11084 0.0
C1415 C 0.54262 0.37061 0.09981 0.0
H1416 H 0.63691 0.26922 0.22073 0.0
H1417 H 0.60319 0.22614 0.259 0.0
H1418 H 0.5714 0.22946 0.23951 0.0
H1419 H 0.5532 0.24416 0.21147 0.0
H1420 H 0.58607 0.28812 0.17354 0.0
H1421 H 0.61816 0.28488 0.19295 0.0
C1422 C 0.62259 0.26056 0.22473 0.0
C1423 C 0.62241 0.24747 0.24132 0.0
C1424 C 0.60424 0.26267 0.21351 0.0
C1425 C 0.6037 0.23649 0.24647 0.0
C1426 C 0.58553 0.23829 0.23526 0.0
C1427 C 0.56738 0.25303 0.20739 0.0
C1428 C 0.56726 0.26626 0.19098 0.0
C1429 C 0.58563 0.25128 0.21874 0.0
C1430 C 0.58574 0.27781 0.18609 0.0
C1431 C 0.60409 0.27594 0.19717 0.0
H1432 H 0.46941 0.1829 0.05082 0.0
H1433 H 0.50703 0.14569 0.08642 0.0
H1434 H 0.51712 0.17578 0.10972 0.0
H1435 H 0.51392 0.21228 0.12094 0.0
H1436 H 0.47605 0.24934 0.08526 0.0
H1437 H 0.46735 0.21968 0.06117 0.0
C1438 C 0.47979 0.18138 0.0637 0.0
C1439 C 0.48735 0.16205 0.06693 0.0
C1440 C 0.48542 0.1987 0.0771 0.0
C1441 C 0.5011 0.16042 0.08348 0.0
C1442 C 0.50678 0.17759 0.09689 0.0
C1443 C 0.50383 0.21392 0.10786 0.0
C1444 C 0.49557 0.23305 0.10506 0.0
C1445 C 0.49884 0.19676 0.09399 0.0
C1446 C 0.48262 0.23485 0.08789 0.0
C1447 C 0.47759 0.21787 0.07408 0.0
H1448 H 0.31939 0.42478 0.72742 0.0
H1449 H 0.27548 0.4326 0.77689 0.0
H1450 H 0.29369 0.46574 0.78792 0.0
H1451 H 0.32291 0.49186 0.78449 0.0
H1452 H 0.36784 0.48312 0.73613 0.0
H1453 H 0.34854 0.45088 0.72394 0.0
C1454 C 0.31387 0.43361 0.74074 0.0
C1455 C 0.29605 0.42607 0.75129 0.0
C1456 C 0.32466 0.4525 0.74728 0.0
C1457 C 0.28895 0.43805 0.76825 0.0
C1458 C 0.29946 0.45698 0.77469 0.0
C1459 C 0.32843 0.48299 0.7712 0.0
C1460 C 0.34684 0.48995 0.76128 0.0
C1461 C 0.31741 0.46429 0.76442 0.0
C1462 C 0.35378 0.47815 0.74413 0.0
C1463 C 0.34274 0.45968 0.73713 0.0
H1464 H 0.27797 0.6401 0.82575 0.0
H1465 H 0.3137 0.67617 0.78261 0.0
H1466 H 0.33652 0.64802 0.77646 0.0
H1467 H 0.34648 0.61307 0.78361 0.0
H1468 H 0.31054 0.57753 0.82716 0.0
H1469 H 0.28765 0.60542 0.83269 0.0
C1470 C 0.29059 0.64172 0.81481 0.0
C1471 C 0.29404 0.66019 0.8046 0.0
C1472 C 0.30369 0.62554 0.81144 0.0
C1473 C 0.31077 0.66217 0.79078 0.0
C1474 C 0.32379 0.64605 0.78721 0.0
C1475 C 0.33363 0.61143 0.79428 0.0
C1476 C 0.3303 0.59317 0.80493 0.0
C1477 C 0.32046 0.62766 0.79752 0.0
C1478 C 0.31356 0.59136 0.81875 0.0
C1479 C 0.30039 0.60733 0.82193 0.0
H1480 H 0.85845 0.50282 0.50598 0.0
H1481 H 0.89688 0.45279 0.51618 0.0
H1482 H 0.86642 0.43128 0.52665 0.0
H1483 H 0.82867 0.42613 0.53144 0.0
H1484 H 0.79018 0.47605 0.52067 0.0
H1485 H 0.82089 0.4982 0.51225 0.0
C1486 C 0.86021 0.48732 0.51078 0.0
C1487 C 0.87992 0.47942 0.5102 0.0
C1488 C 0.8426 0.47498 0.51667 0.0
C1489 C 0.88186 0.45917 0.51621 0.0
C1490 C 0.86445 0.44688 0.52229 0.0
C1491 C 0.82698 0.44191 0.52744 0.0
C1492 C 0.80707 0.44933 0.52664 0.0
C1493 C 0.8447 0.45453 0.52233 0.0
C1494 C 0.80526 0.46984 0.52136 0.0
C1495 C 0.82283 0.48255 0.5165 0.0
H1496 H 0.73273 0.92496 0.81544 0.0
H1497 H 0.70717 0.89268 0.76005 0.0
H1498 H 0.68188 0.91865 0.75741 0.0
H1499 H 0.66788 0.95147 0.77017 0.0
H1500 H 0.69406 0.9835 0.82553 0.0
H1501 H 0.71822 0.95685 0.8287 0.0
C1502 C 0.72169 0.92364 0.80273 0.0
C1503 C 0.72196 0.90694 0.78791 0.0
C1504 C 0.70728 0.93867 0.80124 0.0
C1505 C 0.70724 0.90528 0.77177 0.0
C1506 C 0.69284 0.9202 0.77018 0.0
C1507 C 0.6788 0.95254 0.78298 0.0
C1508 C 0.67915 0.96957 0.79752 0.0
C1509 C 0.69281 0.93709 0.78474 0.0
C1510 C 0.69341 0.97065 0.81405 0.0
C1511 C 0.7073 0.9554 0.81589 0.0
H1512 H 0.63525 0.59296 1.00203 0.0
H1513 H 0.66748 0.54315 0.97325 0.0
H1514 H 0.70081 0.56312 0.97968 0.0
H1515 H 0.72067 0.59544 0.99223 0.0
H1516 H 0.68793 0.64515 0.02084 0.0
H1517 H 0.65502 0.62457 0.01558 0.0
C1518 C 0.64957 0.5865 0.9971 0.0
C1519 C 0.64886 0.56666 0.98705 0.0
C1520 C 0.66862 0.5981 1.00074 0.0
C1521 C 0.66759 0.55834 0.98113 0.0
C1522 C 0.68665 0.56981 0.9847 0.0
C1523 C 0.70635 0.60176 0.99738 0.0
C1524 C 0.70687 0.62191 0.00682 0.0
C1525 C 0.68734 0.58981 0.99431 0.0
C1526 C 0.6881 0.62974 0.01349 0.0
C1527 C 0.66921 0.61799 0.01047 0.0
H1528 H 0.20531 0.64644 0.24805 0.0
H1529 H 0.25216 0.62315 0.28603 0.0
H1530 H 0.22944 0.59216 0.29136 0.0
H1531 H 0.1961 0.57186 0.28581 0.0
H1532 H 0.14914 0.59493 0.24773 0.0
H1533 H 0.17216 0.62557 0.24167 0.0
C1534 C 0.21062 0.63449 0.25732 0.0
C1535 C 0.23038 0.63726 0.26675 0.0
C1536 C 0.19745 0.61662 0.26031 0.0
C1537 C 0.23691 0.62165 0.27888 0.0
C1538 C 0.22396 0.60384 0.28185 0.0
C1539 C 0.19088 0.58353 0.2761 0.0
C1540 C 0.17084 0.58103 0.26729 0.0
C1541 C 0.20416 0.60121 0.27276 0.0
C1542 C 0.16443 0.59639 0.25476 0.0
C1543 C 0.1776 0.61396 0.25129 0.0
H1544 H 0.8679 0.58781 0.06853 0.0
H1545 H 0.87511 0.5547 0.0096 0.0
H1546 H 0.84812 0.57364 0.99473 0.0
H1547 H 0.82239 0.59952 0.9983 0.0
H1548 H 0.81556 0.63334 0.05687 0.0
H1549 H 0.84272 0.61448 0.07186 0.0
C1550 C 0.86376 0.58488 0.05237 0.0
C1551 C 0.87355 0.56969 0.04029 0.0
C1552 C 0.8483 0.59601 0.04379 0.0
C1553 C 0.86766 0.56597 0.01943 0.0
C1554 C 0.85229 0.57692 0.01083 0.0
C1555 C 0.82685 0.60283 0.01434 0.0
C1556 C 0.81688 0.61784 0.02642 0.0
C1557 C 0.84247 0.59193 0.02287 0.0
C1558 C 0.82294 0.6219 0.04718 0.0
C1559 C 0.83847 0.61109 0.05578 0.0
H1560 H 0.14937 0.01817 0.03679 0.0
H1561 H 0.13492 0.99128 0.09482 0.0
H1562 H 0.16175 0.96712 0.08879 0.0
H1563 H 0.18908 0.9531 0.06673 0.0
H1564 H 0.20276 0.97965 0.00835 0.0
H1565 H 0.17639 1.00413 0.01474 0.0
C1566 C 0.15194 0.00692 0.04805 0.0
C1567 C 0.1401 0.00666 0.06625 0.0
C1568 C 0.16728 0.99289 0.04442 0.0
C1569 C 0.14396 0.99212 0.0808 0.0
C1570 C 0.15924 0.97816 0.07731 0.0
C1571 C 0.18631 0.96426 0.05542 0.0
C1572 C 0.19793 0.96446 0.03708 0.0
C1573 C 0.17099 0.97836 0.05915 0.0
C1574 C 0.19408 0.97906 0.02261 0.0
C1575 C 0.17897 0.99312 0.02623 0.0
loop_
_geom_bond_atom_site_label_1
_geom_bond_atom_site_label_2
_geom_bond_distance
_geom_bond_site_symmetry_2
_ccdc_geom_bond_type
C0 C1 1.264 . S
C0 C5 1.479 . S
C0 C10 1.465 . S
C1 C0 1.264 . S
C1 C3 1.339 . S
C1 H28 0.931 . S
C2 C3 1.395 . S
C2 C4 1.320 . S
C3 C1 1.339 . S
C3 C2 1.395 . S
C3 H29 0.929 . S
C4 C2 1.320 . S
C4 C5 1.405 . S
C4 H30 0.930 . S
C5 C0 1.479 . S
C5 C4 1.405 . S
C5 H31 0.931 . S
U6 O7 2.454 . S
U6 O8 2.458 . S
U6 C9 2.984 . S
U6 C10 2.847 . S
U6 C23 2.882 . S
U6 O24 2.441 . S
U6 O25 2.420 . S
U6 O26 2.455 . S
U6 O27 2.449 . S
O7 U6 2.454 . S
O7 C9 1.353 . S
O8 U6 2.458 . S
O8 C9 1.286 . S
C9 U6 2.984 . S
C9 O7 1.353 . S
C9 O8 1.286 . S
C9 C11 1.363 . S
C10 C0 1.465 . S
C10 U6 2.847 . S
C10 O24 1.249 . S
C10 O25 1.202 . S
C11 C9 1.363 . S
C11 C13 1.408 . S
C11 C16 1.342 . S
C12 C13 1.310 . S
C12 C15 1.461 . S
C12 H32 0.932 . S
C13 C11 1.408 . S
C13 C12 1.310 . S
C13 H33 0.930 . S
C14 C15 1.474 . S
C14 C16 1.285 . S
C14 H34 0.929 . S
C15 C12 1.461 . S
C15 C14 1.474 . S
C16 C11 1.342 . S
C16 C14 1.285 . S
C16 H35 0.930 . S
C17 C20 1.424 . S
C17 C22 1.245 . S
C17 C23 1.428 . S
C18 C21 1.260 . S
C18 C22 1.477 . S
C18 H36 0.932 . S
C19 C20 1.384 . S
C19 C21 1.479 . S
C19 H37 0.929 . S
C20 C17 1.424 . S
C20 C19 1.384 . S
C20 H38 0.928 . S
C21 C18 1.260 . S
C21 C19 1.479 . S
C22 C17 1.245 . S
C22 C18 1.477 . S
C22 H39 0.932 . S
C23 U6 2.882 . S
C23 C17 1.428 . S
C23 O26 1.301 . S
C23 O27 1.282 . S
O24 U6 2.441 . S
O24 C10 1.249 . S
O25 U6 2.420 . S
O25 C10 1.202 . S
O26 U6 2.455 . S
O26 C23 1.301 . S
O27 U6 2.449 . S
O27 C23 1.282 . S
H28 C1 0.931 . S
H29 C3 0.929 . S
H30 C4 0.930 . S
H31 C5 0.931 . S
H32 C12 0.932 . S
H33 C13 0.930 . S
H34 C14 0.929 . S
H35 C16 0.930 . S
H36 C18 0.932 . S
H37 C19 0.929 . S
H38 C20 0.928 . S
H39 C22 0.932 . S
C40 C41 1.264 . S
C40 C45 1.479 . S
C40 C50 1.465 . S
C41 C40 1.264 . S
C41 C43 1.339 . S
C41 H68 0.931 . S
C42 C43 1.395 . S
C42 C44 1.320 . S
C43 C41 1.339 . S
C43 C42 1.395 . S
C43 H69 0.929 . S
C44 C42 1.320 . S
C44 C45 1.405 . S
C44 H70 0.930 . S
C45 C40 1.479 . S
C45 C44 1.405 . S
C45 H71 0.931 . S
U46 O47 2.454 . S
U46 O48 2.458 . S
U46 C49 2.984 . S
U46 C50 2.847 . S
U46 C63 2.882 . S
U46 O64 2.441 . S
U46 O65 2.420 . S
U46 O66 2.455 . S
U46 O67 2.449 . S
O47 U46 2.454 . S
O47 C49 1.353 . S
O48 U46 2.458 . S
O48 C49 1.286 . S
C49 U46 2.984 . S
C49 O47 1.353 . S
C49 O48 1.286 . S
C49 C51 1.363 . S
C50 C40 1.465 . S
C50 U46 2.847 . S
C50 O64 1.249 . S
C50 O65 1.202 . S
C51 C49 1.363 . S
C51 C53 1.408 . S
C51 C56 1.342 . S
C52 C53 1.310 . S
C52 C55 1.461 . S
C52 H72 0.932 . S
C53 C51 1.408 . S
C53 C52 1.310 . S
C53 H73 0.930 . S
C54 C55 1.474 . S
C54 C56 1.285 . S
C54 H74 0.929 . S
C55 C52 1.461 . S
C55 C54 1.474 . S
C56 C51 1.342 . S
C56 C54 1.285 . S
C56 H75 0.930 . S
C57 C60 1.424 . S
C57 C62 1.245 . S
C57 C63 1.428 . S
C58 C61 1.260 . S
C58 C62 1.477 . S
C58 H76 0.932 . S
C59 C60 1.384 . S
C59 C61 1.479 . S
C59 H77 0.929 . S
C60 C57 1.424 . S
C60 C59 1.384 . S
C60 H78 0.928 . S
C61 C58 1.260 . S
C61 C59 1.479 . S
C62 C57 1.245 . S
C62 C58 1.477 . S
C62 H79 0.932 . S
C63 U46 2.882 . S
C63 C57 1.428 . S
C63 O66 1.301 . S
C63 O67 1.282 . S
O64 U46 2.441 . S
O64 C50 1.249 . S
O65 U46 2.420 . S
O65 C50 1.202 . S
O66 U46 2.455 . S
O66 C63 1.301 . S
O67 U46 2.449 . S
O67 C63 1.282 . S
H68 C41 0.931 . S
H69 C43 0.929 . S
H70 C44 0.930 . S
H71 C45 0.931 . S
H72 C52 0.932 . S
H73 C53 0.930 . S
H74 C54 0.929 . S
H75 C56 0.930 . S
H76 C58 0.932 . S
H77 C59 0.929 . S
H78 C60 0.928 . S
H79 C62 0.932 . S
C80 C81 1.264 . S
C80 C85 1.479 . S
C80 C90 1.465 . S
C81 C80 1.264 . S
C81 C83 1.339 . S
C81 H108 0.931 . S
C82 C83 1.395 . S
C82 C84 1.320 . S
C83 C81 1.339 . S
C83 C82 1.395 . S
C83 H109 0.929 . S
C84 C82 1.320 . S
C84 C85 1.405 . S
C84 H110 0.963 . S
C85 C80 1.479 . S
C85 C84 1.405 . S
C85 H111 0.931 . S
U86 O87 2.454 . S
U86 O88 2.458 . S
U86 C89 2.984 . S
U86 C90 2.847 . S
U86 C103 2.882 . S
U86 O104 2.441 . S
U86 O105 2.420 . S
U86 O106 2.455 . S
U86 O107 2.449 . S
O87 U86 2.454 . S
O87 C89 1.353 . S
O88 U86 2.458 . S
O88 C89 1.286 . S
C89 U86 2.984 . S
C89 O87 1.353 . S
C89 O88 1.286 . S
C89 C91 1.363 . S
C90 C80 1.465 . S
C90 U86 2.847 . S
C90 O104 1.249 . S
C90 O105 1.202 . S
C91 C89 1.363 . S
C91 C93 1.408 . S
C91 C96 1.342 . S
C92 C93 1.310 . S
C92 C95 1.461 . S
C92 H112 0.932 . S
C93 C91 1.408 . S
C93 C92 1.310 . S
C93 H113 0.930 . S
C94 C95 1.474 . S
C94 C96 1.285 . S
C94 H114 0.929 . S
C95 C92 1.461 . S
C95 C94 1.474 . S
C96 C91 1.342 . S
C96 C94 1.285 . S
C96 H115 0.930 . S
C97 C100 1.424 . S
C97 C102 1.245 . S
C97 C103 1.428 . S
C98 C101 1.260 . S
C98 C102 1.477 . S
C98 H116 0.932 . S
C99 C100 1.384 . S
C99 C101 1.479 . S
C99 H117 0.929 . S
C100 C97 1.424 . S
C100 C99 1.384 . S
C100 H118 0.928 . S
C101 C98 1.260 . S
C101 C99 1.479 . S
C102 C97 1.245 . S
C102 C98 1.477 . S
C102 H119 0.932 . S
C103 U86 2.882 . S
C103 C97 1.428 . S
C103 O106 1.301 . S
C103 O107 1.282 . S
O104 U86 2.441 . S
O104 C90 1.249 . S
O105 U86 2.420 . S
O105 C90 1.202 . S
O106 U86 2.455 . S
O106 C103 1.301 . S
O107 U86 2.449 . S
O107 C103 1.282 . S
H108 C81 0.931 . S
H109 C83 0.929 . S
H110 C84 0.963 . S
H111 C85 0.931 . S
H112 C92 0.932 . S
H113 C93 0.930 . S
H114 C94 0.929 . S
H115 C96 0.930 . S
H116 C98 0.932 . S
H117 C99 0.929 . S
H118 C100 0.928 . S
H119 C102 0.932 . S
C120 C121 1.264 . S
C120 C125 1.479 . S
C120 C130 1.465 . S
C121 C120 1.264 . S
C121 C123 1.339 . S
C121 H148 0.931 . S
C122 C123 1.395 . S
C122 C124 1.320 . S
C123 C121 1.339 . S
C123 C122 1.395 . S
C123 H149 0.929 . S
C124 C122 1.320 . S
C124 C125 1.405 . S
C124 H150 0.930 . S
C125 C120 1.479 . S
C125 C124 1.405 . S
C125 H151 0.931 . S
U126 O127 2.454 . S
U126 O128 2.458 . S
U126 C129 2.984 . S
U126 C130 2.847 . S
U126 C143 2.882 . S
U126 O144 2.441 . S
U126 O145 2.420 . S
U126 O146 2.455 . S
U126 O147 2.449 . S
O127 U126 2.454 . S
O127 C129 1.353 . S
O128 U126 2.458 . S
O128 C129 1.286 . S
C129 U126 2.984 . S
C129 O127 1.353 . S
C129 O128 1.286 . S
C129 C131 1.363 . S
C130 C120 1.465 . S
C130 U126 2.847 . S
C130 O144 1.249 . S
C130 O145 1.202 . S
C131 C129 1.363 . S
C131 C133 1.408 . S
C131 C136 1.342 . S
C132 C133 1.310 . S
C132 C135 1.461 . S
C132 H152 0.932 . S
C133 C131 1.408 . S
C133 C132 1.310 . S
C133 H153 0.930 . S
C134 C135 1.474 . S
C134 C136 1.285 . S
C134 H154 0.929 . S
C135 C132 1.461 . S
C135 C134 1.474 . S
C136 C131 1.342 . S
C136 C134 1.285 . S
C136 H155 0.930 . S
C137 C140 1.424 . S
C137 C142 1.245 . S
C137 C143 1.428 . S
C138 C141 1.260 . S
C138 C142 1.477 . S
C138 H156 0.932 . S
C139 C140 1.384 . S
C139 C141 1.479 . S
C139 H157 0.929 . S
C140 C137 1.424 . S
C140 C139 1.384 . S
C140 H158 0.928 . S
C141 C138 1.260 . S
C141 C139 1.479 . S
C142 C137 1.245 . S
C142 C138 1.477 . S
C142 H159 0.932 . S
C143 U126 2.882 . S
C143 C137 1.428 . S
C143 O146 1.301 . S
C143 O147 1.282 . S
O144 U126 2.441 . S
O144 C130 1.249 . S
O145 U126 2.420 . S
O145 C130 1.202 . S
O146 U126 2.455 . S
O146 C143 1.301 . S
O147 U126 2.449 . S
O147 C143 1.282 . S
H148 C121 0.931 . S
H149 C123 0.929 . S
H150 C124 0.930 . S
H151 C125 0.931 . S
H152 C132 0.932 . S
H153 C133 0.930 . S
H154 C134 0.929 . S
H155 C136 0.930 . S
H156 C138 0.932 . S
H157 C139 0.929 . S
H158 C140 0.928 . S
H159 C142 0.932 . S
C160 C161 1.264 . S
C160 C165 1.479 . S
C160 C170 1.465 . S
C161 C160 1.264 . S
C161 C163 1.339 . S
C161 H188 0.931 . S
C162 C163 1.395 . S
C162 C164 1.320 . S
C163 C161 1.339 . S
C163 C162 1.395 . S
C163 H189 0.929 1_565 S
C164 C162 1.320 . S
C164 C165 1.405 . S
C164 H190 0.930 1_455 S
C165 C160 1.479 . S
C165 C164 1.405 . S
C165 H191 0.931 . S
U166 O167 2.454 . S
U166 O168 2.458 . S
U166 C169 2.984 . S
U166 C170 2.847 . S
U166 C183 2.882 . S
U166 O184 2.441 . S
U166 O185 2.420 . S
U166 O186 2.455 . S
U166 O187 2.449 . S
O167 U166 2.454 . S
O167 C169 1.353 . S
O168 U166 2.458 . S
O168 C169 1.286 . S
C169 U166 2.984 . S
C169 O167 1.353 . S
C169 O168 1.286 . S
C169 C171 1.363 . S
C170 C160 1.465 . S
C170 U166 2.847 . S
C170 O184 1.249 . S
C170 O185 1.202 . S
C171 C169 1.363 . S
C171 C173 1.408 . S
C171 C176 1.342 . S
C172 C173 1.310 . S
C172 C175 1.461 . S
C172 H192 0.932 . S
C173 C171 1.408 . S
C173 C172 1.310 . S
C173 H193 0.930 . S
C174 C175 1.474 . S
C174 C176 1.285 . S
C174 H194 0.929 . S
C175 C172 1.461 . S
C175 C174 1.474 . S
C176 C171 1.342 . S
C176 C174 1.285 . S
C176 H195 0.930 . S
C177 C180 1.424 1_565 S
C177 C182 1.245 . S
C177 C183 1.428 . S
C178 C181 1.260 . S
C178 C182 1.477 1_545 S
C178 H196 0.932 . S
C179 C180 1.384 . S
C179 C181 1.479 . S
C179 H197 0.929 . S
C180 C177 1.424 1_545 S
C180 C179 1.384 . S
C180 H198 0.928 . S
C181 C178 1.260 . S
C181 C179 1.479 . S
C182 C177 1.245 . S
C182 C178 1.477 1_565 S
C182 H199 0.932 . S
C183 U166 2.882 . S
C183 C177 1.428 . S
C183 O186 1.301 . S
C183 O187 1.282 . S
O184 U166 2.441 . S
O184 C170 1.249 . S
O185 U166 2.420 . S
O185 C170 1.202 . S
O186 U166 2.455 . S
O186 C183 1.301 . S
O187 U166 2.449 . S
O187 C183 1.282 . S
H188 C161 0.931 . S
H189 C163 0.929 1_545 S
H190 C164 0.930 1_655 S
H191 C165 0.931 . S
H192 C172 0.932 . S
H193 C173 0.930 . S
H194 C174 0.929 . S
H195 C176 0.930 . S
H196 C178 0.932 . S
H197 C179 0.929 . S
H198 C180 0.928 . S
H199 C182 0.932 . S
C200 C201 1.264 . S
C200 C205 1.479 . S
C200 C210 1.465 . S
C201 C200 1.264 . S
C201 C203 1.339 . S
C201 H228 0.931 . S
C202 C203 1.395 . S
C202 C204 1.320 . S
C203 C201 1.339 . S
C203 C202 1.395 . S
C203 H229 0.929 . S
C204 C202 1.320 . S
C204 C205 1.405 . S
C204 H230 0.930 . S
C205 C200 1.479 . S
C205 C204 1.405 . S
C205 H231 0.931 . S
U206 O207 2.454 . S
U206 O208 2.458 . S
U206 C209 2.984 . S
U206 C210 2.847 . S
U206 C223 2.882 . S
U206 O224 2.441 . S
U206 O225 2.420 . S
U206 O226 2.455 . S
U206 O227 2.449 . S
O207 U206 2.454 . S
O207 C209 1.353 . S
O208 U206 2.458 . S
O208 C209 1.286 . S
C209 U206 2.984 . S
C209 O207 1.353 . S
C209 O208 1.286 . S
C209 C211 1.363 . S
C210 C200 1.465 . S
C210 U206 2.847 . S
C210 O224 1.249 . S
C210 O225 1.202 . S
C211 C209 1.363 . S
C211 C213 1.408 . S
C211 C216 1.342 . S
C212 C213 1.310 . S
C212 C215 1.461 . S
C212 H232 0.932 . S
C213 C211 1.408 . S
C213 C212 1.310 . S
C213 H233 0.930 . S
C214 C215 1.474 . S
C214 C216 1.285 . S
C214 H234 0.929 . S
C215 C212 1.461 . S
C215 C214 1.474 . S
C216 C211 1.342 . S
C216 C214 1.285 . S
C216 H235 0.930 . S
C217 C220 1.424 . S
C217 C222 1.245 . S
C217 C223 1.428 . S
C218 C221 1.260 . S
C218 C222 1.477 . S
C218 H236 0.932 . S
C219 C220 1.384 . S
C219 C221 1.479 . S
C219 H237 0.929 . S
C220 C217 1.424 . S
C220 C219 1.384 . S
C220 H238 0.928 . S
C221 C218 1.260 . S
C221 C219 1.479 . S
C222 C217 1.245 . S
C222 C218 1.477 . S
C222 H239 0.932 . S
C223 U206 2.882 . S
C223 C217 1.428 . S
C223 O226 1.301 . S
C223 O227 1.282 . S
O224 U206 2.441 . S
O224 C210 1.249 . S
O225 U206 2.420 . S
O225 C210 1.202 . S
O226 U206 2.455 . S
O226 C223 1.301 . S
O227 U206 2.449 . S
O227 C223 1.282 . S
H228 C201 0.931 . S
H229 C203 0.929 . S
H230 C204 0.930 . S
H231 C205 0.931 . S
H232 C212 0.932 . S
H233 C213 0.930 . S
H234 C214 0.929 . S
H235 C216 0.930 . S
H236 C218 0.932 . S
H237 C219 0.929 . S
H238 C220 0.928 . S
H239 C222 0.932 . S
C240 C241 1.264 . S
C240 C245 1.479 . S
C240 C250 1.465 . S
C241 C240 1.264 . S
C241 C243 1.339 . S
C241 H268 0.931 . S
C242 C243 1.395 . S
C242 C244 1.320 . S
C243 C241 1.339 . S
C243 C242 1.395 . S
C243 H269 0.929 . S
C244 C242 1.320 . S
C244 C245 1.405 . S
C244 H270 0.930 . S
C245 C240 1.479 . S
C245 C244 1.405 . S
C245 H271 0.931 . S
U246 O247 2.454 . S
U246 O248 2.458 . S
U246 C249 2.984 . S
U246 C250 2.847 . S
U246 C263 2.882 . S
U246 O264 2.441 . S
U246 O265 2.420 . S
U246 O266 2.455 . S
U246 O267 2.449 . S
O247 U246 2.454 . S
O247 C249 1.353 . S
O248 U246 2.458 . S
O248 C249 1.286 . S
C249 U246 2.984 . S
C249 O247 1.353 . S
C249 O248 1.286 . S
C249 C251 1.363 . S
C250 C240 1.465 . S
C250 U246 2.847 . S
C250 O264 1.249 . S
C250 O265 1.202 . S
C251 C249 1.363 . S
C251 C253 1.408 . S
C251 C256 1.342 . S
C252 C253 1.310 . S
C252 C255 1.461 . S
C252 H272 0.932 . S
C253 C251 1.408 . S
C253 C252 1.310 . S
C253 H273 0.930 . S
C254 C255 1.474 . S
C254 C256 1.285 . S
C254 H274 0.929 . S
C255 C252 1.461 . S
C255 C254 1.474 . S
C256 C251 1.342 . S
C256 C254 1.285 . S
C256 H275 0.930 . S
C257 C260 1.424 . S
C257 C262 1.245 . S
C257 C263 1.428 . S
C258 C261 1.260 . S
C258 C262 1.477 . S
C258 H276 0.932 . S
C259 C260 1.384 . S
C259 C261 1.479 . S
C259 H277 0.904 1_655 S
C260 C257 1.424 . S
C260 C259 1.384 . S
C260 H278 0.928 . S
C261 C258 1.260 . S
C261 C259 1.479 . S
C262 C257 1.245 . S
C262 C258 1.477 . S
C262 H279 0.932 . S
C263 U246 2.882 . S
C263 C257 1.428 . S
C263 O266 1.301 . S
C263 O267 1.282 . S
O264 U246 2.441 . S
O264 C250 1.249 . S
O265 U246 2.420 . S
O265 C250 1.202 . S
O266 U246 2.455 . S
O266 C263 1.301 . S
O267 U246 2.449 . S
O267 C263 1.282 . S
H268 C241 0.931 . S
H269 C243 0.929 . S
H270 C244 0.930 . S
H271 C245 0.931 . S
H272 C252 0.932 . S
H273 C253 0.930 . S
H274 C254 0.929 . S
H275 C256 0.930 . S
H276 C258 0.932 . S
H277 C259 0.904 1_455 S
H278 C260 0.928 . S
H279 C262 0.932 . S
C280 C281 1.264 . S
C280 C285 1.479 . S
C280 C290 1.465 . S
C281 C280 1.264 . S
C281 C283 1.339 . S
C281 H308 0.931 . S
C282 C283 1.395 . S
C282 C284 1.320 . S
C283 C281 1.339 . S
C283 C282 1.395 . S
C283 H309 0.929 . S
C284 C282 1.320 . S
C284 C285 1.405 . S
C284 H310 0.930 . S
C285 C280 1.479 . S
C285 C284 1.405 . S
C285 H311 0.931 . S
U286 O287 2.454 . S
U286 O288 2.458 . S
U286 C289 2.984 . S
U286 C290 2.847 . S
U286 C303 2.882 . S
U286 O304 2.441 . S
U286 O305 2.420 . S
U286 O306 2.455 . S
U286 O307 2.449 . S
O287 U286 2.454 . S
O287 C289 1.353 . S
O288 U286 2.458 . S
O288 C289 1.286 . S
C289 U286 2.984 . S
C289 O287 1.353 . S
C289 O288 1.286 . S
C289 C291 1.363 . S
C290 C280 1.465 . S
C290 U286 2.847 . S
C290 O304 1.249 . S
C290 O305 1.202 . S
C291 C289 1.363 . S
C291 C293 1.408 . S
C291 C296 1.342 . S
C292 C293 1.310 . S
C292 C295 1.461 . S
C292 H312 0.932 . S
C293 C291 1.408 . S
C293 C292 1.310 . S
C293 H313 0.930 . S
C294 C295 1.474 . S
C294 C296 1.285 . S
C294 H314 0.929 . S
C295 C292 1.461 . S
C295 C294 1.474 . S
C296 C291 1.342 . S
C296 C294 1.285 . S
C296 H315 0.930 . S
C297 C300 1.424 . S
C297 C302 1.245 . S
C297 C303 1.428 . S
C298 C301 1.260 . S
C298 C302 1.477 . S
C298 H316 0.932 . S
C299 C300 1.384 . S
C299 C301 1.479 . S
C299 H317 0.929 . S
C300 C297 1.424 . S
C300 C299 1.384 . S
C300 H318 0.928 . S
C301 C298 1.260 . S
C301 C299 1.479 . S
C302 C297 1.245 . S
C302 C298 1.477 . S
C302 H319 0.932 . S
C303 U286 2.882 . S
C303 C297 1.428 . S
C303 O306 1.301 . S
C303 O307 1.282 . S
O304 U286 2.441 . S
O304 C290 1.249 . S
O305 U286 2.420 . S
O305 C290 1.202 . S
O306 U286 2.455 . S
O306 C303 1.301 . S
O307 U286 2.449 . S
O307 C303 1.282 . S
H308 C281 0.931 . S
H309 C283 0.929 . S
H310 C284 0.930 . S
H311 C285 0.931 . S
H312 C292 0.932 . S
H313 C293 0.930 . S
H314 C294 0.929 . S
H315 C296 0.930 . S
H316 C298 0.932 . S
H317 C299 0.929 . S
H318 C300 0.928 . S
H319 C302 0.932 . S
C320 C321 1.264 . S
C320 C325 1.479 . S
C320 C330 1.465 . S
C321 C320 1.264 . S
C321 C323 1.339 . S
C321 H348 0.931 . S
C322 C323 1.395 . S
C322 C324 1.320 . S
C323 C321 1.339 . S
C323 C322 1.395 . S
C323 H349 0.929 . S
C324 C322 1.320 . S
C324 C325 1.405 . S
C324 H350 0.930 . S
C325 C320 1.479 . S
C325 C324 1.405 . S
C325 H351 0.931 . S
U326 O327 2.454 . S
U326 O328 2.458 . S
U326 C329 2.984 . S
U326 C330 2.847 . S
U326 C343 2.882 . S
U326 O344 2.441 . S
U326 O345 2.420 . S
U326 O346 2.455 . S
U326 O347 2.449 . S
O327 U326 2.454 . S
O327 C329 1.353 . S
O328 U326 2.458 . S
O328 C329 1.286 . S
C329 U326 2.984 . S
C329 O327 1.353 . S
C329 O328 1.286 . S
C329 C331 1.363 . S
C330 C320 1.465 . S
C330 U326 2.847 . S
C330 O344 1.249 . S
C330 O345 1.202 . S
C331 C329 1.363 . S
C331 C333 1.408 . S
C331 C336 1.342 . S
C332 C333 1.310 . S
C332 C335 1.461 . S
C332 H352 0.932 . S
C333 C331 1.408 . S
C333 C332 1.310 . S
C333 H353 0.930 . S
C334 C335 1.474 . S
C334 C336 1.285 . S
C334 H354 0.929 . S
C335 C332 1.461 . S
C335 C334 1.474 . S
C336 C331 1.342 . S
C336 C334 1.285 . S
C336 H355 0.930 . S
C337 C340 1.424 . S
C337 C342 1.245 . S
C337 C343 1.428 . S
C338 C341 1.260 . S
C338 C342 1.477 . S
C338 H356 0.932 . S
C339 C340 1.384 . S
C339 C341 1.479 . S
C339 H357 0.929 . S
C340 C337 1.424 . S
C340 C339 1.384 . S
C340 H358 0.928 . S
C341 C338 1.260 . S
C341 C339 1.479 . S
C342 C337 1.245 . S
C342 C338 1.477 . S
C342 H359 0.932 . S
C343 U326 2.882 . S
C343 C337 1.428 . S
C343 O346 1.301 . S
C343 O347 1.282 . S
O344 U326 2.441 . S
O344 C330 1.249 . S
O345 U326 2.420 . S
O345 C330 1.202 . S
O346 U326 2.455 . S
O346 C343 1.301 . S
O347 U326 2.449 . S
O347 C343 1.282 . S
H348 C321 0.931 . S
H349 C323 0.929 . S
H350 C324 0.930 . S
H351 C325 0.931 . S
H352 C332 0.932 . S
H353 C333 0.930 . S
H354 C334 0.929 . S
H355 C336 0.930 . S
H356 C338 0.932 . S
H357 C339 0.929 . S
H358 C340 0.928 . S
H359 C342 0.932 . S
C360 C361 1.264 . S
C360 C365 1.479 . S
C360 C370 1.465 . S
C361 C360 1.264 . S
C361 C363 1.339 . S
C361 H388 0.931 . S
C362 C363 1.395 . S
C362 C364 1.320 . S
C363 C361 1.339 . S
C363 C362 1.395 . S
C363 H389 0.929 . S
C364 C362 1.320 . S
C364 C365 1.405 . S
C364 H390 0.930 . S
C365 C360 1.479 . S
C365 C364 1.405 . S
C365 H391 0.931 . S
U366 O367 2.454 . S
U366 O368 2.458 . S
U366 C369 2.984 . S
U366 C370 2.847 . S
U366 C383 2.882 . S
U366 O384 2.441 . S
U366 O385 2.420 . S
U366 O386 2.455 . S
U366 O387 2.449 . S
O367 U366 2.454 . S
O367 C369 1.353 . S
O368 U366 2.458 . S
O368 C369 1.286 . S
C369 U366 2.984 . S
C369 O367 1.353 . S
C369 O368 1.286 . S
C369 C371 1.363 . S
C370 C360 1.465 . S
C370 U366 2.847 . S
C370 O384 1.249 . S
C370 O385 1.202 . S
C371 C369 1.363 . S
C371 C373 1.408 . S
C371 C376 1.342 . S
C372 C373 1.310 . S
C372 C375 1.461 . S
C372 H392 0.932 . S
C373 C371 1.408 . S
C373 C372 1.310 . S
C373 H393 0.930 . S
C374 C375 1.474 . S
C374 C376 1.285 . S
C374 H394 0.929 1_565 S
C375 C372 1.461 . S
C375 C374 1.474 . S
C376 C371 1.342 . S
C376 C374 1.285 . S
C376 H395 0.930 . S
C377 C380 1.424 . S
C377 C382 1.245 . S
C377 C383 1.428 . S
C378 C381 1.260 . S
C378 C382 1.477 . S
C378 H396 0.932 . S
C379 C380 1.384 . S
C379 C381 1.479 . S
C379 H397 0.929 . S
C380 C377 1.424 . S
C380 C379 1.384 . S
C380 H398 0.928 . S
C381 C378 1.260 . S
C381 C379 1.479 . S
C382 C377 1.245 . S
C382 C378 1.477 . S
C382 H399 0.932 . S
C383 U366 2.882 . S
C383 C377 1.428 . S
C383 O386 1.301 . S
C383 O387 1.282 . S
O384 U366 2.441 . S
O384 C370 1.249 . S
O385 U366 2.420 . S
O385 C370 1.202 . S
O386 U366 2.455 . S
O386 C383 1.301 . S
O387 U366 2.449 . S
O387 C383 1.282 . S
H388 C361 0.931 . S
H389 C363 0.929 . S
H390 C364 0.930 . S
H391 C365 0.931 . S
H392 C372 0.932 . S
H393 C373 0.930 . S
H394 C374 0.929 1_545 S
H395 C376 0.930 . S
H396 C378 0.932 . S
H397 C379 0.929 . S
H398 C380 0.928 . S
H399 C382 0.932 . S
C400 C401 1.264 . S
C400 C405 1.479 . S
C400 C410 1.465 . S
C401 C400 1.264 . S
C401 C403 1.339 . S
C401 H428 0.931 . S
C402 C403 1.395 . S
C402 C404 1.320 . S
C403 C401 1.339 . S
C403 C402 1.395 . S
C403 H429 0.929 . S
C404 C402 1.320 . S
C404 C405 1.405 . S
C404 H430 0.930 . S
C405 C400 1.479 . S
C405 C404 1.405 . S
C405 H431 0.931 . S
U406 O407 2.454 . S
U406 O408 2.458 . S
U406 C409 2.984 . S
U406 C410 2.847 . S
U406 C423 2.882 . S
U406 O424 2.441 . S
U406 O425 2.420 . S
U406 O426 2.455 . S
U406 O427 2.449 . S
O407 U406 2.454 . S
O407 C409 1.353 . S
O408 U406 2.458 . S
O408 C409 1.286 . S
C409 U406 2.984 . S
C409 O407 1.353 . S
C409 O408 1.286 . S
C409 C411 1.363 . S
C410 C400 1.465 . S
C410 U406 2.847 . S
C410 O424 1.249 . S
C410 O425 1.202 . S
C411 C409 1.363 . S
C411 C413 1.408 . S
C411 C416 1.342 . S
C412 C413 1.310 . S
C412 C415 1.461 . S
C412 H432 0.932 . S
C413 C411 1.408 . S
C413 C412 1.310 . S
C413 H433 0.930 . S
C414 C415 1.474 . S
C414 C416 1.285 . S
C414 H434 0.929 . S
C415 C412 1.461 . S
C415 C414 1.474 . S
C416 C411 1.342 . S
C416 C414 1.285 . S
C416 H435 0.930 . S
C417 C420 1.424 . S
C417 C422 1.245 . S
C417 C423 1.428 . S
C418 C421 1.260 . S
C418 C422 1.477 . S
C418 H436 0.932 . S
C419 C420 1.384 . S
C419 C421 1.479 . S
C419 H437 0.929 . S
C420 C417 1.424 . S
C420 C419 1.384 . S
C420 H438 0.928 . S
C421 C418 1.260 . S
C421 C419 1.479 . S
C422 C417 1.245 . S
C422 C418 1.477 . S
C422 H439 0.932 . S
C423 U406 2.882 . S
C423 C417 1.428 . S
C423 O426 1.301 . S
C423 O427 1.282 . S
O424 U406 2.441 . S
O424 C410 1.249 . S
O425 U406 2.420 . S
O425 C410 1.202 . S
O426 U406 2.455 . S
O426 C423 1.301 . S
O427 U406 2.449 . S
O427 C423 1.282 . S
H428 C401 0.931 . S
H429 C403 0.929 . S
H430 C404 0.930 . S
H431 C405 0.931 . S
H432 C412 0.932 . S
H433 C413 0.930 . S
H434 C414 0.929 . S
H435 C416 0.930 . S
H436 C418 0.932 . S
H437 C419 0.929 . S
H438 C420 0.928 . S
H439 C422 0.932 . S
C440 C441 1.264 . S
C440 C445 1.479 . S
C440 C450 1.465 . S
C441 C440 1.264 . S
C441 C443 1.339 . S
C441 H468 0.931 . S
C442 C443 1.395 . S
C442 C444 1.320 . S
C443 C441 1.339 . S
C443 C442 1.395 . S
C443 H469 0.929 . S
C444 C442 1.320 . S
C444 C445 1.405 . S
C444 H470 0.930 . S
C445 C440 1.479 . S
C445 C444 1.405 . S
C445 H471 0.931 . S
U446 O447 2.454 . S
U446 O448 2.458 . S
U446 C449 2.984 . S
U446 C450 2.847 . S
U446 C463 2.882 . S
U446 O464 2.441 . S
U446 O465 2.420 . S
U446 O466 2.455 . S
U446 O467 2.449 . S
O447 U446 2.454 . S
O447 C449 1.353 . S
O448 U446 2.458 . S
O448 C449 1.286 . S
C449 U446 2.984 . S
C449 O447 1.353 . S
C449 O448 1.286 . S
C449 C451 1.363 . S
C450 C440 1.465 . S
C450 U446 2.847 . S
C450 O464 1.249 . S
C450 O465 1.202 . S
C451 C449 1.363 . S
C451 C453 1.408 . S
C451 C456 1.342 . S
C452 C453 1.310 . S
C452 C455 1.461 . S
C452 H472 0.932 . S
C453 C451 1.408 . S
C453 C452 1.310 . S
C453 H473 0.930 . S
C454 C455 1.474 . S
C454 C456 1.285 . S
C454 H474 0.929 . S
C455 C452 1.461 . S
C455 C454 1.474 . S
C456 C451 1.342 . S
C456 C454 1.285 . S
C456 H475 0.930 . S
C457 C460 1.424 . S
C457 C462 1.245 . S
C457 C463 1.428 . S
C458 C461 1.260 . S
C458 C462 1.477 . S
C458 H476 0.932 . S
C459 C460 1.384 . S
C459 C461 1.479 . S
C459 H477 0.929 . S
C460 C457 1.424 . S
C460 C459 1.384 . S
C460 H478 0.928 . S
C461 C458 1.260 . S
C461 C459 1.479 . S
C462 C457 1.245 . S
C462 C458 1.477 . S
C462 H479 0.932 . S
C463 U446 2.882 . S
C463 C457 1.428 . S
C463 O466 1.301 . S
C463 O467 1.282 . S
O464 U446 2.441 . S
O464 C450 1.249 . S
O465 U446 2.420 . S
O465 C450 1.202 . S
O466 U446 2.455 . S
O466 C463 1.301 . S
O467 U446 2.449 . S
O467 C463 1.282 . S
H468 C441 0.931 . S
H469 C443 0.929 . S
H470 C444 0.930 . S
H471 C445 0.931 . S
H472 C452 0.932 . S
H473 C453 0.930 . S
H474 C454 0.929 . S
H475 C456 0.930 . S
H476 C458 0.932 . S
H477 C459 0.929 . S
H478 C460 0.928 . S
H479 C462 0.932 . S
C480 C481 1.264 . S
C480 C485 1.479 . S
C480 C490 1.465 . S
C481 C480 1.264 . S
C481 C483 1.339 . S
C481 H508 0.931 . S
C482 C483 1.395 . S
C482 C484 1.320 . S
C483 C481 1.339 . S
C483 C482 1.395 . S
C483 H509 0.929 . S
C484 C482 1.320 . S
C484 C485 1.405 . S
C484 H510 0.930 . S
C485 C480 1.479 . S
C485 C484 1.405 . S
C485 H511 0.931 . S
U486 O487 2.454 . S
U486 O488 2.458 . S
U486 C489 2.984 . S
U486 C490 2.847 . S
U486 C503 2.882 . S
U486 O504 2.441 . S
U486 O505 2.420 . S
U486 O506 2.455 . S
U486 O507 2.449 . S
O487 U486 2.454 . S
O487 C489 1.353 . S
O488 U486 2.458 . S
O488 C489 1.286 . S
C489 U486 2.984 . S
C489 O487 1.353 . S
C489 O488 1.286 . S
C489 C491 1.363 . S
C490 C480 1.465 . S
C490 U486 2.847 . S
C490 O504 1.249 . S
C490 O505 1.202 . S
C491 C489 1.363 . S
C491 C493 1.408 . S
C491 C496 1.342 . S
C492 C493 1.310 . S
C492 C495 1.461 . S
C492 H512 0.932 . S
C493 C491 1.408 . S
C493 C492 1.310 . S
C493 H513 0.930 . S
C494 C495 1.474 . S
C494 C496 1.285 . S
C494 H514 0.929 . S
C495 C492 1.461 . S
C495 C494 1.474 . S
C496 C491 1.342 . S
C496 C494 1.285 . S
C496 H515 0.930 . S
C497 C500 1.424 . S
C497 C502 1.245 . S
C497 C503 1.428 . S
C498 C501 1.260 . S
C498 C502 1.477 . S
C498 H516 0.932 . S
C499 C500 1.384 . S
C499 C501 1.479 . S
C499 H517 0.929 . S
C500 C497 1.424 . S
C500 C499 1.384 . S
C500 H518 0.928 . S
C501 C498 1.260 . S
C501 C499 1.479 . S
C502 C497 1.245 . S
C502 C498 1.477 . S
C502 H519 0.932 . S
C503 U486 2.882 . S
C503 C497 1.428 . S
C503 O506 1.301 . S
C503 O507 1.282 . S
O504 U486 2.441 . S
O504 C490 1.249 . S
O505 U486 2.420 . S
O505 C490 1.202 . S
O506 U486 2.455 . S
O506 C503 1.301 . S
O507 U486 2.449 . S
O507 C503 1.282 . S
H508 C481 0.931 . S
H509 C483 0.929 . S
H510 C484 0.930 . S
H511 C485 0.931 . S
H512 C492 0.932 . S
H513 C493 0.930 . S
H514 C494 0.929 . S
H515 C496 0.930 . S
H516 C498 0.932 . S
H517 C499 0.929 . S
H518 C500 0.928 . S
H519 C502 0.932 . S
C520 C521 1.264 . S
C520 C525 1.479 . S
C520 C530 1.465 . S
C521 C520 1.264 . S
C521 C523 1.339 . S
C521 H548 0.931 . S
C522 C523 1.395 . S
C522 C524 1.320 . S
C523 C521 1.339 . S
C523 C522 1.395 . S
C523 H549 0.929 . S
C524 C522 1.320 . S
C524 C525 1.405 . S
C524 H550 0.930 . S
C525 C520 1.479 . S
C525 C524 1.405 . S
C525 H551 0.931 . S
U526 O527 2.454 . S
U526 O528 2.458 . S
U526 C529 2.984 . S
U526 C530 2.847 . S
U526 C543 2.882 . S
U526 O544 2.441 . S
U526 O545 2.420 . S
U526 O546 2.455 . S
U526 O547 2.449 . S
O527 U526 2.454 . S
O527 C529 1.353 . S
O528 U526 2.458 . S
O528 C529 1.286 . S
C529 U526 2.984 . S
C529 O527 1.353 . S
C529 O528 1.286 . S
C529 C531 1.363 . S
C530 C520 1.465 . S
C530 U526 2.847 . S
C530 O544 1.249 . S
C530 O545 1.202 . S
C531 C529 1.363 . S
C531 C533 1.408 . S
C531 C536 1.342 . S
C532 C533 1.310 . S
C532 C535 1.461 . S
C532 H552 0.932 . S
C533 C531 1.408 . S
C533 C532 1.310 . S
C533 H553 0.930 . S
C534 C535 1.474 . S
C534 C536 1.285 . S
C534 H554 0.929 . S
C535 C532 1.461 . S
C535 C534 1.474 . S
C536 C531 1.342 . S
C536 C534 1.285 . S
C536 H555 0.930 . S
C537 C540 1.424 . S
C537 C542 1.245 . S
C537 C543 1.428 . S
C538 C541 1.260 . S
C538 C542 1.477 . S
C538 H556 0.932 . S
C539 C540 1.384 . S
C539 C541 1.479 . S
C539 H557 0.929 . S
C540 C537 1.424 . S
C540 C539 1.384 . S
C540 H558 0.928 . S
C541 C538 1.260 . S
C541 C539 1.479 . S
C542 C537 1.245 . S
C542 C538 1.477 . S
C542 H559 0.932 . S
C543 U526 2.882 . S
C543 C537 1.428 . S
C543 O546 1.301 . S
C543 O547 1.282 . S
O544 U526 2.441 . S
O544 C530 1.249 . S
O545 U526 2.420 . S
O545 C530 1.202 . S
O546 U526 2.455 . S
O546 C543 1.301 . S
O547 U526 2.449 . S
O547 C543 1.282 . S
H548 C521 0.931 . S
H549 C523 0.929 . S
H550 C524 0.930 . S
H551 C525 0.931 . S
H552 C532 0.932 . S
H553 C533 0.930 . S
H554 C534 0.929 . S
H555 C536 0.930 . S
H556 C538 0.932 . S
H557 C539 0.929 . S
H558 C540 0.928 . S
H559 C542 0.932 . S
C560 C561 1.264 . S
C560 C565 1.479 . S
C560 C570 1.465 . S
C561 C560 1.264 . S
C561 C563 1.339 . S
C561 H588 0.931 . S
C562 C563 1.395 . S
C562 C564 1.320 . S
C563 C561 1.339 . S
C563 C562 1.395 . S
C563 H589 0.929 . S
C564 C562 1.320 . S
C564 C565 1.405 . S
C564 H590 0.930 . S
C565 C560 1.479 . S
C565 C564 1.405 . S
C565 H591 0.931 . S
U566 O567 2.454 . S
U566 O568 2.458 . S
U566 C569 2.984 . S
U566 C570 2.847 . S
U566 C583 2.882 . S
U566 O584 2.441 . S
U566 O585 2.420 . S
U566 O586 2.455 . S
U566 O587 2.449 . S
O567 U566 2.454 . S
O567 C569 1.353 . S
O568 U566 2.458 . S
O568 C569 1.286 . S
C569 U566 2.984 . S
C569 O567 1.353 . S
C569 O568 1.286 . S
C569 C571 1.363 . S
C570 C560 1.465 . S
C570 U566 2.847 . S
C570 O584 1.249 . S
C570 O585 1.202 . S
C571 C569 1.363 . S
C571 C573 1.408 . S
C571 C576 1.342 . S
C572 C573 1.310 . S
C572 C575 1.461 . S
C572 H592 0.932 . S
C573 C571 1.408 . S
C573 C572 1.310 . S
C573 H593 0.930 . S
C574 C575 1.474 . S
C574 C576 1.285 . S
C574 H594 0.929 . S
C575 C572 1.461 . S
C575 C574 1.474 . S
C576 C571 1.342 . S
C576 C574 1.285 . S
C576 H595 0.930 . S
C577 C580 1.424 . S
C577 C582 1.245 . S
C577 C583 1.428 . S
C578 C581 1.260 . S
C578 C582 1.477 . S
C578 H596 0.932 . S
C579 C580 1.384 . S
C579 C581 1.479 . S
C579 H597 0.929 . S
C580 C577 1.424 . S
C580 C579 1.384 . S
C580 H598 0.928 . S
C581 C578 1.260 . S
C581 C579 1.479 . S
C582 C577 1.245 . S
C582 C578 1.477 . S
C582 H599 0.932 . S
C583 U566 2.882 . S
C583 C577 1.428 . S
C583 O586 1.301 . S
C583 O587 1.282 . S
O584 U566 2.441 . S
O584 C570 1.249 . S
O585 U566 2.420 . S
O585 C570 1.202 . S
O586 U566 2.455 . S
O586 C583 1.301 . S
O587 U566 2.449 . S
O587 C583 1.282 . S
H588 C561 0.931 . S
H589 C563 0.929 . S
H590 C564 0.930 . S
H591 C565 0.931 . S
H592 C572 0.932 . S
H593 C573 0.930 . S
H594 C574 0.929 . S
H595 C576 0.930 . S
H596 C578 0.932 . S
H597 C579 0.929 . S
H598 C580 0.928 . S
H599 C582 0.932 . S
C600 C601 1.264 . S
C600 C605 1.462 1_556 S
C600 C610 1.465 . S
C601 C600 1.264 . S
C601 C603 1.339 . S
C601 H628 0.931 . S
C602 C603 1.395 1_554 S
C602 C604 1.320 . S
C603 C601 1.339 . S
C603 C602 1.395 1_556 S
C603 H629 0.929 . S
C604 C602 1.320 . S
C604 C605 1.412 . S
C604 H630 0.930 . S
C605 C600 1.462 1_554 S
C605 C604 1.412 . S
C605 H631 0.940 . S
U606 O607 2.454 . S
U606 O608 2.458 . S
U606 C609 2.984 . S
U606 C610 2.847 . S
U606 C623 2.882 . S
U606 O624 2.441 . S
U606 O625 2.420 . S
U606 O626 2.455 . S
U606 O627 2.449 . S
O607 U606 2.454 . S
O607 C609 1.353 . S
O608 U606 2.458 . S
O608 C609 1.286 . S
C609 U606 2.984 . S
C609 O607 1.353 . S
C609 O608 1.286 . S
C609 C611 1.363 . S
C610 C600 1.465 . S
C610 U606 2.847 . S
C610 O624 1.249 . S
C610 O625 1.202 . S
C611 C609 1.363 . S
C611 C613 1.408 . S
C611 C616 1.342 . S
C612 C613 1.310 . S
C612 C615 1.461 . S
C612 H632 0.932 . S
C613 C611 1.408 . S
C613 C612 1.310 . S
C613 H633 0.930 . S
C614 C615 1.474 . S
C614 C616 1.285 . S
C614 H634 0.929 . S
C615 C612 1.461 . S
C615 C614 1.474 . S
C616 C611 1.342 . S
C616 C614 1.285 . S
C616 H635 0.930 . S
C617 C620 1.424 . S
C617 C622 1.245 . S
C617 C623 1.428 . S
C618 C621 1.260 . S
C618 C622 1.477 . S
C618 H636 0.932 . S
C619 C620 1.384 . S
C619 C621 1.479 . S
C619 H637 0.929 . S
C620 C617 1.424 . S
C620 C619 1.384 . S
C620 H638 0.928 . S
C621 C618 1.260 . S
C621 C619 1.479 . S
C622 C617 1.245 . S
C622 C618 1.477 . S
C622 H639 0.932 . S
C623 U606 2.882 . S
C623 C617 1.428 . S
C623 O626 1.301 . S
C623 O627 1.282 . S
O624 U606 2.441 . S
O624 C610 1.249 . S
O625 U606 2.420 . S
O625 C610 1.202 . S
O626 U606 2.455 . S
O626 C623 1.301 . S
O627 U606 2.449 . S
O627 C623 1.282 . S
H628 C601 0.931 . S
H629 C603 0.929 . S
H630 C604 0.930 . S
H631 C605 0.940 . S
H632 C612 0.932 . S
H633 C613 0.930 . S
H634 C614 0.929 . S
H635 C616 0.930 . S
H636 C618 0.932 . S
H637 C619 0.929 . S
H638 C620 0.928 . S
H639 C622 0.932 . S
O640 Cd641 2.223 . S
O640 C648 1.315 . S
Cd641 O640 2.223 . S
Cd641 O644 2.297 . S
Cd641 O645 2.439 . S
Cd641 O651 2.240 . S
Cd642 O643 2.240 . S
Cd642 O650 2.223 . S
Cd642 O652 2.297 . S
Cd642 O653 2.439 . S
O643 Cd642 2.240 . S
O643 C648 1.279 . S
O644 Cd641 2.297 . S
O644 C646 1.247 . S
O645 Cd641 2.439 . S
O645 C646 1.208 . S
C646 O644 1.247 . S
C646 O645 1.208 . S
C647 O652 1.247 . S
C647 O653 1.208 . S
C648 O640 1.315 . S
C648 O643 1.279 . S
C649 O650 1.315 . S
C649 O651 1.279 . S
O650 Cd642 2.223 . S
O650 C649 1.315 . S
O651 Cd641 2.240 . S
O651 C649 1.279 . S
O652 Cd642 2.297 . S
O652 C647 1.247 . S
O653 Cd642 2.439 . S
O653 C647 1.208 . S
O654 Cd655 2.223 . S
O654 C662 1.315 . S
Cd655 O654 2.223 . S
Cd655 O658 2.297 . S
Cd655 O659 2.439 . S
Cd655 O665 2.240 . S
Cd656 O657 2.240 . S
Cd656 O664 2.223 . S
Cd656 O666 2.297 . S
Cd656 O667 2.439 . S
O657 Cd656 2.240 . S
O657 C662 1.279 . S
O658 Cd655 2.297 . S
O658 C660 1.247 . S
O659 Cd655 2.439 . S
O659 C660 1.208 . S
C660 O658 1.247 . S
C660 O659 1.208 . S
C661 O666 1.247 . S
C661 O667 1.208 . S
C662 O654 1.315 . S
C662 O657 1.279 . S
C663 O664 1.315 . S
C663 O665 1.279 . S
O664 Cd656 2.223 . S
O664 C663 1.315 . S
O665 Cd655 2.240 . S
O665 C663 1.279 . S
O666 Cd656 2.297 . S
O666 C661 1.247 . S
O667 Cd656 2.439 . S
O667 C661 1.208 . S
O668 Cd669 2.223 1_556 S
O668 C676 1.315 . S
Cd669 O668 2.223 1_554 S
Cd669 O672 2.297 . S
Cd669 O673 2.439 . S
Cd669 O679 2.240 . S
Cd670 O671 2.240 . S
Cd670 O678 2.223 . S
Cd670 O680 2.281 1_556 S
Cd670 O681 2.439 1_556 S
O671 Cd670 2.240 . S
O671 C676 1.279 . S
O672 Cd669 2.297 . S
O672 C674 1.247 . S
O673 Cd669 2.439 . S
O673 C674 1.208 . S
C674 O672 1.247 . S
C674 O673 1.208 . S
C675 O680 1.291 . S
C675 O681 1.208 . S
C676 O668 1.315 . S
C676 O671 1.279 . S
C677 O678 1.315 . S
C677 O679 1.279 1_556 S
O678 Cd670 2.223 . S
O678 C677 1.315 . S
O679 Cd669 2.240 . S
O679 C677 1.279 1_554 S
O680 Cd670 2.281 1_554 S
O680 C675 1.291 . S
O681 Cd670 2.439 1_554 S
O681 C675 1.208 . S
O682 Cd683 2.223 . S
O682 C690 1.315 . S
Cd683 O682 2.223 . S
Cd683 O686 2.297 . S
Cd683 O687 2.439 . S
Cd683 O693 2.240 . S
Cd684 O685 2.240 . S
Cd684 O692 2.223 . S
Cd684 O694 2.297 . S
Cd684 O695 2.439 . S
O685 Cd684 2.240 . S
O685 C690 1.279 . S
O686 Cd683 2.297 . S
O686 C688 1.247 . S
O687 Cd683 2.439 . S
O687 C688 1.208 . S
C688 O686 1.247 . S
C688 O687 1.208 . S
C689 O694 1.247 . S
C689 O695 1.208 . S
C690 O682 1.315 . S
C690 O685 1.279 . S
C691 O692 1.315 . S
C691 O693 1.279 . S
O692 Cd684 2.223 . S
O692 C691 1.315 . S
O693 Cd683 2.240 . S
O693 C691 1.279 . S
O694 Cd684 2.297 . S
O694 C689 1.247 . S
O695 Cd684 2.439 . S
O695 C689 1.208 . S
O696 Cd697 2.223 . S
O696 C704 1.315 . S
Cd697 O696 2.223 . S
Cd697 O700 2.297 . S
Cd697 O701 2.439 . S
Cd697 O707 2.240 . S
Cd698 O699 2.240 . S
Cd698 O706 2.223 . S
Cd698 O708 2.297 . S
Cd698 O709 2.439 . S
O699 Cd698 2.240 . S
O699 C704 1.279 . S
O700 Cd697 2.297 . S
O700 C702 1.247 . S
O701 Cd697 2.439 . S
O701 C702 1.208 . S
C702 O700 1.247 . S
C702 O701 1.208 . S
C703 O708 1.247 . S
C703 O709 1.208 . S
C704 O696 1.315 . S
C704 O699 1.279 . S
C705 O706 1.315 . S
C705 O707 1.279 . S
O706 Cd698 2.223 . S
O706 C705 1.315 . S
O707 Cd697 2.240 . S
O707 C705 1.279 . S
O708 Cd698 2.297 . S
O708 C703 1.247 . S
O709 Cd698 2.439 . S
O709 C703 1.208 . S
O710 Cd711 2.223 . S
O710 C718 1.315 . S
Cd711 O710 2.223 . S
Cd711 O714 2.297 . S
Cd711 O715 2.439 . S
Cd711 O721 2.240 . S
Cd712 O713 2.240 . S
Cd712 O720 2.223 . S
Cd712 O722 2.297 . S
Cd712 O723 2.439 . S
O713 Cd712 2.240 . S
O713 C718 1.279 . S
O714 Cd711 2.297 . S
O714 C716 1.247 . S
O715 Cd711 2.439 . S
O715 C716 1.208 . S
C716 O714 1.247 . S
C716 O715 1.208 . S
C717 O722 1.247 . S
C717 O723 1.208 . S
C718 O710 1.315 . S
C718 O713 1.279 . S
C719 O720 1.315 . S
C719 O721 1.279 . S
O720 Cd712 2.223 . S
O720 C719 1.315 . S
O721 Cd711 2.240 . S
O721 C719 1.279 . S
O722 Cd712 2.297 . S
O722 C717 1.247 . S
O723 Cd712 2.439 . S
O723 C717 1.208 . S
O724 Cd725 2.223 . S
O724 C732 1.315 . S
Cd725 O724 2.223 . S
Cd725 O728 2.297 . S
Cd725 O729 2.439 . S
Cd725 O735 2.240 . S
Cd726 O727 2.240 . S
Cd726 O734 2.223 . S
Cd726 O736 2.297 . S
Cd726 O737 2.439 . S
O727 Cd726 2.240 . S
O727 C732 1.279 . S
O728 Cd725 2.297 . S
O728 C730 1.247 . S
O729 Cd725 2.439 . S
O729 C730 1.208 . S
C730 O728 1.247 . S
C730 O729 1.208 . S
C731 O736 1.247 . S
C731 O737 1.208 . S
C732 O724 1.315 . S
C732 O727 1.279 . S
C733 O734 1.315 . S
C733 O735 1.279 . S
O734 Cd726 2.223 . S
O734 C733 1.315 . S
O735 Cd725 2.240 . S
O735 C733 1.279 . S
O736 Cd726 2.297 . S
O736 C731 1.247 . S
O737 Cd726 2.439 . S
O737 C731 1.208 . S
O738 Cd739 2.223 1_545 S
O738 C746 1.315 . S
Cd739 O738 2.223 1_565 S
Cd739 O742 2.297 . S
Cd739 O743 2.439 . S
Cd739 O749 2.240 1_565 S
Cd740 O741 2.240 . S
Cd740 O748 2.223 . S
Cd740 O750 2.297 . S
Cd740 O751 2.439 1_545 S
O741 Cd740 2.240 . S
O741 C746 1.279 . S
O742 Cd739 2.297 . S
O742 C744 1.247 . S
O743 Cd739 2.439 . S
O743 C744 1.208 . S
C744 O742 1.247 . S
C744 O743 1.208 . S
C745 O750 1.247 1_565 S
C745 O751 1.208 . S
C746 O738 1.315 . S
C746 O741 1.279 . S
C747 O748 1.315 . S
C747 O749 1.279 . S
O748 Cd740 2.223 . S
O748 C747 1.315 . S
O749 Cd739 2.240 1_545 S
O749 C747 1.279 . S
O750 Cd740 2.297 . S
O750 C745 1.247 1_545 S
O751 Cd740 2.439 1_565 S
O751 C745 1.208 . S
O752 Cd753 2.223 . S
O752 C760 1.315 . S
Cd753 O752 2.223 . S
Cd753 O756 2.297 1_655 S
Cd753 O757 2.439 1_655 S
Cd753 O763 2.240 . S
Cd754 O755 2.240 . S
Cd754 O762 2.223 1_455 S
Cd754 O764 2.297 . S
Cd754 O765 2.439 . S
O755 Cd754 2.240 . S
O755 C760 1.279 1_455 S
O756 Cd753 2.297 1_455 S
O756 C758 1.247 . S
O757 Cd753 2.439 1_455 S
O757 C758 1.208 . S
C758 O756 1.247 . S
C758 O757 1.208 . S
C759 O764 1.247 . S
C759 O765 1.208 . S
C760 O752 1.315 . S
C760 O755 1.279 1_655 S
C761 O762 1.315 . S
C761 O763 1.279 . S
O762 Cd754 2.223 1_655 S
O762 C761 1.315 . S
O763 Cd753 2.240 . S
O763 C761 1.279 . S
O764 Cd754 2.297 . S
O764 C759 1.247 . S
O765 Cd754 2.439 . S
O765 C759 1.208 . S
O766 Cd767 2.223 . S
O766 C774 1.315 . S
Cd767 O766 2.223 . S
Cd767 O770 2.297 . S
Cd767 O771 2.439 . S
Cd767 O777 2.240 . S
Cd768 O769 2.240 . S
Cd768 O776 2.223 . S
Cd768 O778 2.297 . S
Cd768 O779 2.439 . S
O769 Cd768 2.240 . S
O769 C774 1.279 . S
O770 Cd767 2.297 . S
O770 C772 1.247 . S
O771 Cd767 2.439 . S
O771 C772 1.208 . S
C772 O770 1.247 . S
C772 O771 1.208 . S
C773 O778 1.247 . S
C773 O779 1.208 . S
C774 O766 1.315 . S
C774 O769 1.279 . S
C775 O776 1.315 . S
C775 O777 1.279 . S
O776 Cd768 2.223 . S
O776 C775 1.315 . S
O777 Cd767 2.240 . S
O777 C775 1.279 . S
O778 Cd768 2.297 . S
O778 C773 1.247 . S
O779 Cd768 2.439 . S
O779 C773 1.208 . S
O780 Cd781 2.223 1_655 S
O780 C788 1.315 . S
Cd781 O780 2.223 1_455 S
Cd781 O784 2.297 . S
Cd781 O785 2.439 . S
Cd781 O791 2.240 . S
Cd782 O783 2.240 . S
Cd782 O790 2.223 . S
Cd782 O792 2.297 1_655 S
Cd782 O793 2.439 1_655 S
O783 Cd782 2.240 . S
O783 C788 1.279 . S
O784 Cd781 2.297 . S
O784 C786 1.247 . S
O785 Cd781 2.439 . S
O785 C786 1.208 . S
C786 O784 1.247 . S
C786 O785 1.208 . S
C787 O792 1.247 . S
C787 O793 1.208 . S
C788 O780 1.315 . S
C788 O783 1.279 . S
C789 O790 1.315 . S
C789 O791 1.279 1_655 S
O790 Cd782 2.223 . S
O790 C789 1.315 . S
O791 Cd781 2.240 . S
O791 C789 1.279 1_455 S
O792 Cd782 2.297 1_455 S
O792 C787 1.247 . S
O793 Cd782 2.439 1_455 S
O793 C787 1.208 . S
O794 Cd795 2.223 . S
O794 C802 1.315 . S
Cd795 O794 2.223 . S
Cd795 O798 2.297 . S
Cd795 O799 2.439 . S
Cd795 O805 2.240 . S
Cd796 O797 2.240 . S
Cd796 O804 2.223 . S
Cd796 O806 2.297 . S
Cd796 O807 2.439 . S
O797 Cd796 2.240 . S
O797 C802 1.279 . S
O798 Cd795 2.297 . S
O798 C800 1.247 . S
O799 Cd795 2.439 . S
O799 C800 1.208 . S
C800 O798 1.247 . S
C800 O799 1.208 . S
C801 O806 1.247 . S
C801 O807 1.208 . S
C802 O794 1.315 . S
C802 O797 1.279 . S
C803 O804 1.315 . S
C803 O805 1.279 . S
O804 Cd796 2.223 . S
O804 C803 1.315 . S
O805 Cd795 2.240 . S
O805 C803 1.279 . S
O806 Cd796 2.297 . S
O806 C801 1.247 . S
O807 Cd796 2.439 . S
O807 C801 1.208 . S
H808 C814 0.930 . S
H809 C817 0.930 . S
H810 C818 0.930 . S
H811 C819 0.930 1_554 S
H812 C822 0.930 . S
H813 C823 0.930 . S
C814 H808 0.930 . S
C814 C815 1.355 . S
C814 C816 1.415 . S
C815 C814 1.355 . S
C815 C817 1.419 . S
C816 C814 1.415 . S
C816 C821 1.425 . S
C816 C823 1.409 . S
C817 H809 0.930 . S
C817 C815 1.419 . S
C817 C818 1.362 . S
C818 H810 0.930 . S
C818 C817 1.362 . S
C818 C821 1.409 . S
C819 H811 0.930 1_556 S
C819 C820 1.355 . S
C819 C821 1.415 . S
C820 C819 1.355 . S
C820 C822 1.419 . S
C821 C816 1.425 . S
C821 C818 1.409 . S
C821 C819 1.415 . S
C822 H812 0.930 . S
C822 C820 1.419 . S
C822 C823 1.362 . S
C823 H813 0.930 . S
C823 C816 1.409 . S
C823 C822 1.362 . S
H824 C830 0.930 . S
H825 C833 0.930 . S
H826 C834 0.930 . S
H827 C835 0.930 . S
H828 C838 0.930 . S
H829 C839 0.930 . S
C830 H824 0.930 . S
C830 C831 1.355 . S
C830 C832 1.415 . S
C831 C830 1.355 . S
C831 C833 1.419 . S
C832 C830 1.415 . S
C832 C837 1.425 . S
C832 C839 1.409 . S
C833 H825 0.930 . S
C833 C831 1.419 . S
C833 C834 1.362 . S
C834 H826 0.930 . S
C834 C833 1.362 . S
C834 C837 1.409 . S
C835 H827 0.930 . S
C835 C836 1.355 . S
C835 C837 1.415 . S
C836 C835 1.355 . S
C836 C838 1.419 . S
C837 C832 1.425 . S
C837 C834 1.409 . S
C837 C835 1.415 . S
C838 H828 0.930 . S
C838 C836 1.419 . S
C838 C839 1.362 . S
C839 H829 0.930 . S
C839 C832 1.409 . S
C839 C838 1.362 . S
H840 C846 0.930 . S
H841 C849 0.930 . S
H842 C850 0.930 . S
H843 C851 0.930 . S
H844 C854 0.930 . S
H845 C855 0.930 . S
C846 H840 0.930 . S
C846 C847 1.355 . S
C846 C848 1.415 . S
C847 C846 1.355 . S
C847 C849 1.419 . S
C848 C846 1.415 . S
C848 C853 1.425 . S
C848 C855 1.409 . S
C849 H841 0.930 . S
C849 C847 1.419 . S
C849 C850 1.362 . S
C850 H842 0.930 . S
C850 C849 1.362 . S
C850 C853 1.409 . S
C851 H843 0.930 . S
C851 C852 1.355 . S
C851 C853 1.415 . S
C852 C851 1.355 . S
C852 C854 1.419 . S
C853 C848 1.425 . S
C853 C850 1.409 . S
C853 C851 1.415 . S
C854 H844 0.930 . S
C854 C852 1.419 . S
C854 C855 1.362 . S
C855 H845 0.930 . S
C855 C848 1.409 . S
C855 C854 1.362 . S
H856 C862 0.930 . S
H857 C865 0.930 1_455 S
H858 C866 0.930 . S
H859 C867 0.930 . S
H860 C870 0.930 . S
H861 C871 0.931 . S
C862 H856 0.930 . S
C862 C863 1.355 . S
C862 C864 1.415 . S
C863 C862 1.355 . S
C863 C865 1.419 . S
C864 C862 1.415 . S
C864 C869 1.425 1_565 S
C864 C871 1.409 . S
C865 H857 0.930 1_655 S
C865 C863 1.419 . S
C865 C866 1.362 1_565 S
C866 H858 0.930 . S
C866 C865 1.362 1_545 S
C866 C869 1.409 . S
C867 H859 0.930 . S
C867 C868 1.355 . S
C867 C869 1.415 . S
C868 C867 1.355 . S
C868 C870 1.419 . S
C869 C864 1.425 1_545 S
C869 C866 1.409 . S
C869 C867 1.415 . S
C870 H860 0.930 . S
C870 C868 1.419 . S
C870 C871 1.361 1_545 S
C871 H861 0.931 . S
C871 C864 1.409 . S
C871 C870 1.361 1_565 S
H872 C878 0.930 . S
H873 C881 0.930 . S
H874 C882 0.930 . S
H875 C883 0.930 . S
H876 C886 0.930 . S
H877 C887 0.930 . S
C878 H872 0.930 . S
C878 C879 1.355 . S
C878 C880 1.415 . S
C879 C878 1.355 . S
C879 C881 1.419 . S
C880 C878 1.415 . S
C880 C885 1.425 . S
C880 C887 1.409 . S
C881 H873 0.930 . S
C881 C879 1.419 . S
C881 C882 1.362 . S
C882 H874 0.930 . S
C882 C881 1.362 . S
C882 C885 1.409 . S
C883 H875 0.930 . S
C883 C884 1.355 . S
C883 C885 1.415 . S
C884 C883 1.355 . S
C884 C886 1.419 . S
C885 C880 1.425 . S
C885 C882 1.409 . S
C885 C883 1.415 . S
C886 H876 0.930 . S
C886 C884 1.419 . S
C886 C887 1.362 . S
C887 H877 0.930 . S
C887 C880 1.409 . S
C887 C886 1.362 . S
H888 C894 0.930 . S
H889 C897 0.930 . S
H890 C898 0.930 . S
H891 C899 0.930 . S
H892 C902 0.930 . S
H893 C903 0.930 . S
C894 H888 0.930 . S
C894 C895 1.355 . S
C894 C896 1.415 . S
C895 C894 1.355 . S
C895 C897 1.419 . S
C896 C894 1.415 . S
C896 C901 1.425 . S
C896 C903 1.409 . S
C897 H889 0.930 . S
C897 C895 1.419 . S
C897 C898 1.362 . S
C898 H890 0.930 . S
C898 C897 1.362 . S
C898 C901 1.409 . S
C899 H891 0.930 . S
C899 C900 1.355 . S
C899 C901 1.415 . S
C900 C899 1.355 . S
C900 C902 1.419 . S
C901 C896 1.425 . S
C901 C898 1.409 . S
C901 C899 1.415 . S
C902 H892 0.930 . S
C902 C900 1.419 . S
C902 C903 1.362 . S
C903 H893 0.930 . S
C903 C896 1.409 . S
C903 C902 1.362 . S
H904 C910 0.930 . S
H905 C913 0.930 . S
H906 C914 0.930 . S
H907 C915 0.930 . S
H908 C918 0.930 . S
H909 C919 0.930 . S
C910 H904 0.930 . S
C910 C911 1.355 . S
C910 C912 1.415 . S
C911 C910 1.355 . S
C911 C913 1.419 . S
C912 C910 1.415 . S
C912 C917 1.425 . S
C912 C919 1.409 . S
C913 H905 0.930 . S
C913 C911 1.419 . S
C913 C914 1.362 . S
C914 H906 0.930 . S
C914 C913 1.362 . S
C914 C917 1.409 . S
C915 H907 0.930 . S
C915 C916 1.355 . S
C915 C917 1.415 . S
C916 C915 1.355 . S
C916 C918 1.419 . S
C917 C912 1.425 . S
C917 C914 1.409 . S
C917 C915 1.415 . S
C918 H908 0.930 . S
C918 C916 1.419 . S
C918 C919 1.362 . S
C919 H909 0.930 . S
C919 C912 1.409 . S
C919 C918 1.362 . S
H920 C926 0.930 . S
H921 C929 0.930 . S
H922 C930 0.930 . S
H923 C931 0.930 . S
H924 C934 0.930 1_545 S
H925 C935 0.930 1_545 S
C926 H920 0.930 . S
C926 C927 1.355 . S
C926 C928 1.415 . S
C927 C926 1.355 . S
C927 C929 1.419 . S
C928 C926 1.415 . S
C928 C933 1.425 . S
C928 C935 1.409 . S
C929 H921 0.930 . S
C929 C927 1.419 . S
C929 C930 1.362 . S
C930 H922 0.930 . S
C930 C929 1.362 . S
C930 C933 1.409 . S
C931 H923 0.930 . S
C931 C932 1.355 . S
C931 C933 1.415 . S
C932 C931 1.355 . S
C932 C934 1.419 . S
C933 C928 1.425 . S
C933 C930 1.409 . S
C933 C931 1.415 . S
C934 H924 0.930 1_565 S
C934 C932 1.419 . S
C934 C935 1.362 . S
C935 H925 0.930 1_565 S
C935 C928 1.409 . S
C935 C934 1.362 . S
H936 C942 0.930 . S
H937 C945 0.930 . S
H938 C946 0.930 . S
H939 C947 0.930 . S
H940 C950 0.930 . S
H941 C951 0.930 . S
C942 H936 0.930 . S
C942 C943 1.355 . S
C942 C944 1.415 . S
C943 C942 1.355 . S
C943 C945 1.419 . S
C944 C942 1.415 . S
C944 C949 1.425 . S
C944 C951 1.409 . S
C945 H937 0.930 . S
C945 C943 1.419 . S
C945 C946 1.362 . S
C946 H938 0.930 . S
C946 C945 1.362 . S
C946 C949 1.409 . S
C947 H939 0.930 . S
C947 C948 1.355 . S
C947 C949 1.415 . S
C948 C947 1.355 . S
C948 C950 1.419 . S
C949 C944 1.425 . S
C949 C946 1.409 . S
C949 C947 1.415 . S
C950 H940 0.930 . S
C950 C948 1.419 . S
C950 C951 1.362 . S
C951 H941 0.930 . S
C951 C944 1.409 . S
C951 C950 1.362 . S
H952 C958 0.930 . S
H953 C961 0.930 . S
H954 C962 0.930 . S
H955 C963 0.930 . S
H956 C966 0.930 . S
H957 C967 0.930 . S
C958 H952 0.930 . S
C958 C959 1.355 . S
C958 C960 1.415 . S
C959 C958 1.355 . S
C959 C961 1.419 . S
C960 C958 1.415 . S
C960 C965 1.425 . S
C960 C967 1.409 . S
C961 H953 0.930 . S
C961 C959 1.419 . S
C961 C962 1.362 . S
C962 H954 0.930 . S
C962 C961 1.362 . S
C962 C965 1.409 . S
C963 H955 0.930 . S
C963 C964 1.355 . S
C963 C965 1.415 . S
C964 C963 1.355 . S
C964 C966 1.419 . S
C965 C960 1.425 . S
C965 C962 1.409 . S
C965 C963 1.415 . S
C966 H956 0.930 . S
C966 C964 1.419 . S
C966 C967 1.362 . S
C967 H957 0.930 . S
C967 C960 1.409 . S
C967 C966 1.362 . S
H968 C974 0.930 . S
H969 C977 0.930 . S
H970 C978 0.930 . S
H971 C979 0.930 . S
H972 C982 0.930 . S
H973 C983 0.930 . S
C974 H968 0.930 . S
C974 C975 1.355 . S
C974 C976 1.415 . S
C975 C974 1.355 . S
C975 C977 1.419 . S
C976 C974 1.415 . S
C976 C981 1.425 . S
C976 C983 1.409 . S
C977 H969 0.930 . S
C977 C975 1.419 . S
C977 C978 1.362 . S
C978 H970 0.930 . S
C978 C977 1.362 . S
C978 C981 1.409 . S
C979 H971 0.930 . S
C979 C980 1.355 . S
C979 C981 1.415 . S
C980 C979 1.355 . S
C980 C982 1.419 . S
C981 C976 1.425 . S
C981 C978 1.409 . S
C981 C979 1.415 . S
C982 H972 0.930 . S
C982 C980 1.419 . S
C982 C983 1.362 . S
C983 H973 0.930 . S
C983 C976 1.409 . S
C983 C982 1.362 . S
H984 C990 0.930 . S
H985 C993 0.930 . S
H986 C994 0.930 . S
H987 C995 0.930 . S
H988 C998 0.930 . S
H989 C999 0.930 . S
C990 H984 0.930 . S
C990 C991 1.355 . S
C990 C992 1.415 . S
C991 C990 1.355 . S
C991 C993 1.419 . S
C992 C990 1.415 . S
C992 C997 1.425 . S
C992 C999 1.409 . S
C993 H985 0.930 . S
C993 C991 1.419 . S
C993 C994 1.362 . S
C994 H986 0.930 . S
C994 C993 1.362 . S
C994 C997 1.409 . S
C995 H987 0.930 . S
C995 C996 1.355 . S
C995 C997 1.415 . S
C996 C995 1.355 . S
C996 C998 1.419 . S
C997 C992 1.425 . S
C997 C994 1.409 . S
C997 C995 1.415 . S
C998 H988 0.930 . S
C998 C996 1.419 . S
C998 C999 1.362 . S
C999 H989 0.930 . S
C999 C992 1.409 . S
C999 C998 1.362 . S
H1000 C1006 0.930 . S
H1001 C1009 0.930 . S
H1002 C1010 0.930 . S
H1003 C1011 0.930 . S
H1004 C1014 0.930 . S
H1005 C1015 0.930 . S
C1006 H1000 0.930 . S
C1006 C1007 1.355 . S
C1006 C1008 1.415 . S
C1007 C1006 1.355 . S
C1007 C1009 1.419 . S
C1008 C1006 1.415 . S
C1008 C1013 1.425 . S
C1008 C1015 1.409 . S
C1009 H1001 0.930 . S
C1009 C1007 1.419 . S
C1009 C1010 1.362 . S
C1010 H1002 0.930 . S
C1010 C1009 1.362 . S
C1010 C1013 1.409 . S
C1011 H1003 0.930 . S
C1011 C1012 1.355 . S
C1011 C1013 1.415 . S
C1012 C1011 1.355 . S
C1012 C1014 1.419 . S
C1013 C1008 1.425 . S
C1013 C1010 1.409 . S
C1013 C1011 1.415 . S
C1014 H1004 0.930 . S
C1014 C1012 1.419 . S
C1014 C1015 1.362 . S
C1015 H1005 0.930 . S
C1015 C1008 1.409 . S
C1015 C1014 1.362 . S
H1016 C1022 0.930 . S
H1017 C1025 0.930 . S
H1018 C1026 0.930 . S
H1019 C1027 0.930 . S
H1020 C1030 0.930 . S
H1021 C1031 0.930 . S
C1022 H1016 0.930 . S
C1022 C1023 1.355 . S
C1022 C1024 1.415 . S
C1023 C1022 1.355 . S
C1023 C1025 1.419 . S
C1024 C1022 1.415 . S
C1024 C1029 1.425 . S
C1024 C1031 1.409 . S
C1025 H1017 0.930 . S
C1025 C1023 1.419 . S
C1025 C1026 1.362 . S
C1026 H1018 0.930 . S
C1026 C1025 1.362 . S
C1026 C1029 1.409 . S
C1027 H1019 0.930 . S
C1027 C1028 1.355 . S
C1027 C1029 1.415 . S
C1028 C1027 1.355 . S
C1028 C1030 1.419 . S
C1029 C1024 1.425 . S
C1029 C1026 1.409 . S
C1029 C1027 1.415 . S
C1030 H1020 0.930 . S
C1030 C1028 1.419 . S
C1030 C1031 1.362 . S
C1031 H1021 0.930 . S
C1031 C1024 1.409 . S
C1031 C1030 1.362 . S
H1032 C1038 0.930 . S
H1033 C1041 0.930 . S
H1034 C1042 0.930 . S
H1035 C1043 0.930 . S
H1036 C1046 0.930 . S
H1037 C1047 0.930 . S
C1038 H1032 0.930 . S
C1038 C1039 1.355 . S
C1038 C1040 1.415 . S
C1039 C1038 1.355 . S
C1039 C1041 1.419 . S
C1040 C1038 1.415 . S
C1040 C1045 1.425 . S
C1040 C1047 1.409 . S
C1041 H1033 0.930 . S
C1041 C1039 1.419 . S
C1041 C1042 1.362 . S
C1042 H1034 0.930 . S
C1042 C1041 1.362 . S
C1042 C1045 1.409 . S
C1043 H1035 0.930 . S
C1043 C1044 1.355 . S
C1043 C1045 1.415 . S
C1044 C1043 1.355 . S
C1044 C1046 1.419 . S
C1045 C1040 1.425 . S
C1045 C1042 1.409 . S
C1045 C1043 1.415 . S
C1046 H1036 0.930 . S
C1046 C1044 1.419 . S
C1046 C1047 1.362 . S
C1047 H1037 0.930 . S
C1047 C1040 1.409 . S
C1047 C1046 1.362 . S
H1048 C1054 0.930 . S
H1049 C1057 0.930 . S
H1050 C1058 0.930 . S
H1051 C1059 0.930 . S
H1052 C1062 0.930 . S
H1053 C1063 0.930 . S
C1054 H1048 0.930 . S
C1054 C1055 1.355 . S
C1054 C1056 1.415 . S
C1055 C1054 1.355 . S
C1055 C1057 1.419 . S
C1056 C1054 1.415 . S
C1056 C1061 1.425 . S
C1056 C1063 1.409 . S
C1057 H1049 0.930 . S
C1057 C1055 1.419 . S
C1057 C1058 1.362 . S
C1058 H1050 0.930 . S
C1058 C1057 1.362 . S
C1058 C1061 1.409 . S
C1059 H1051 0.930 . S
C1059 C1060 1.355 . S
C1059 C1061 1.415 . S
C1060 C1059 1.355 . S
C1060 C1062 1.419 . S
C1061 C1056 1.425 . S
C1061 C1058 1.409 . S
C1061 C1059 1.415 . S
C1062 H1052 0.930 . S
C1062 C1060 1.419 . S
C1062 C1063 1.362 . S
C1063 H1053 0.930 . S
C1063 C1056 1.409 . S
C1063 C1062 1.362 . S
H1064 C1070 0.930 . S
H1065 C1073 0.930 . S
H1066 C1074 0.930 . S
H1067 C1075 0.930 . S
H1068 C1078 0.930 . S
H1069 C1079 0.930 1_545 S
C1070 H1064 0.930 . S
C1070 C1071 1.355 . S
C1070 C1072 1.415 . S
C1071 C1070 1.355 . S
C1071 C1073 1.419 . S
C1072 C1070 1.415 . S
C1072 C1077 1.425 . S
C1072 C1079 1.409 . S
C1073 H1065 0.930 . S
C1073 C1071 1.419 . S
C1073 C1074 1.362 . S
C1074 H1066 0.930 . S
C1074 C1073 1.362 . S
C1074 C1077 1.409 . S
C1075 H1067 0.930 . S
C1075 C1076 1.355 1_565 S
C1075 C1077 1.415 . S
C1076 C1075 1.355 1_545 S
C1076 C1078 1.419 . S
C1077 C1072 1.425 . S
C1077 C1074 1.409 . S
C1077 C1075 1.415 . S
C1078 H1068 0.930 . S
C1078 C1076 1.419 . S
C1078 C1079 1.362 1_545 S
C1079 H1069 0.930 1_565 S
C1079 C1072 1.409 . S
C1079 C1078 1.362 1_565 S
H1080 C1086 0.930 . S
H1081 C1089 0.930 . S
H1082 C1090 0.930 . S
H1083 C1091 0.930 . S
H1084 C1094 0.930 . S
H1085 C1095 0.930 . S
C1086 H1080 0.930 . S
C1086 C1087 1.355 . S
C1086 C1088 1.415 . S
C1087 C1086 1.355 . S
C1087 C1089 1.419 . S
C1088 C1086 1.415 . S
C1088 C1093 1.425 . S
C1088 C1095 1.409 . S
C1089 H1081 0.930 . S
C1089 C1087 1.419 . S
C1089 C1090 1.362 . S
C1090 H1082 0.930 . S
C1090 C1089 1.362 . S
C1090 C1093 1.409 . S
C1091 H1083 0.930 . S
C1091 C1092 1.355 . S
C1091 C1093 1.415 . S
C1092 C1091 1.355 . S
C1092 C1094 1.419 . S
C1093 C1088 1.425 . S
C1093 C1090 1.409 . S
C1093 C1091 1.415 . S
C1094 H1084 0.930 . S
C1094 C1092 1.419 . S
C1094 C1095 1.362 . S
C1095 H1085 0.930 . S
C1095 C1088 1.409 . S
C1095 C1094 1.362 . S
H1096 C1102 0.930 . S
H1097 C1105 0.930 . S
H1098 C1106 0.930 . S
H1099 C1107 0.930 . S
H1100 C1110 0.930 . S
H1101 C1111 0.930 . S
C1102 H1096 0.930 . S
C1102 C1103 1.355 1_565 S
C1102 C1104 1.415 . S
C1103 C1102 1.355 1_545 S
C1103 C1105 1.419 . S
C1104 C1102 1.415 . S
C1104 C1109 1.425 . S
C1104 C1111 1.409 1_556 S
C1105 H1097 0.930 . S
C1105 C1103 1.419 . S
C1105 C1106 1.362 1_545 S
C1106 H1098 0.930 . S
C1106 C1105 1.362 1_565 S
C1106 C1109 1.409 . S
C1107 H1099 0.930 . S
C1107 C1108 1.355 . S
C1107 C1109 1.415 1_554 S
C1108 C1107 1.355 . S
C1108 C1110 1.419 . S
C1109 C1104 1.425 . S
C1109 C1106 1.409 . S
C1109 C1107 1.415 1_556 S
C1110 H1100 0.930 . S
C1110 C1108 1.419 . S
C1110 C1111 1.362 . S
C1111 H1101 0.930 . S
C1111 C1104 1.409 1_554 S
C1111 C1110 1.362 . S
H1112 C1118 0.930 . S
H1113 C1121 0.930 . S
H1114 C1122 0.930 . S
H1115 C1123 0.930 . S
H1116 C1126 0.930 . S
H1117 C1127 0.930 . S
C1118 H1112 0.930 . S
C1118 C1119 1.355 . S
C1118 C1120 1.415 . S
C1119 C1118 1.355 . S
C1119 C1121 1.419 . S
C1120 C1118 1.415 . S
C1120 C1125 1.425 . S
C1120 C1127 1.409 . S
C1121 H1113 0.930 . S
C1121 C1119 1.419 . S
C1121 C1122 1.362 . S
C1122 H1114 0.930 . S
C1122 C1121 1.362 . S
C1122 C1125 1.409 . S
C1123 H1115 0.930 . S
C1123 C1124 1.355 . S
C1123 C1125 1.415 . S
C1124 C1123 1.355 . S
C1124 C1126 1.419 . S
C1125 C1120 1.425 . S
C1125 C1122 1.409 . S
C1125 C1123 1.415 . S
C1126 H1116 0.930 . S
C1126 C1124 1.419 . S
C1126 C1127 1.362 . S
C1127 H1117 0.930 . S
C1127 C1120 1.409 . S
C1127 C1126 1.362 . S
H1128 C1134 0.930 . S
H1129 C1137 0.930 . S
H1130 C1138 0.930 . S
H1131 C1139 0.930 . S
H1132 C1142 0.930 . S
H1133 C1143 0.930 . S
C1134 H1128 0.930 . S
C1134 C1135 1.355 . S
C1134 C1136 1.415 . S
C1135 C1134 1.355 . S
C1135 C1137 1.419 . S
C1136 C1134 1.415 . S
C1136 C1141 1.425 . S
C1136 C1143 1.409 . S
C1137 H1129 0.930 . S
C1137 C1135 1.419 . S
C1137 C1138 1.362 . S
C1138 H1130 0.930 . S
C1138 C1137 1.362 . S
C1138 C1141 1.409 . S
C1139 H1131 0.930 . S
C1139 C1140 1.355 . S
C1139 C1141 1.415 . S
C1140 C1139 1.355 . S
C1140 C1142 1.419 . S
C1141 C1136 1.425 . S
C1141 C1138 1.409 . S
C1141 C1139 1.415 . S
C1142 H1132 0.930 . S
C1142 C1140 1.419 . S
C1142 C1143 1.362 . S
C1143 H1133 0.930 . S
C1143 C1136 1.409 . S
C1143 C1142 1.362 . S
H1144 C1150 0.930 . S
H1145 C1153 0.930 . S
H1146 C1154 0.930 . S
H1147 C1155 0.930 . S
H1148 C1158 0.930 . S
H1149 C1159 0.930 . S
C1150 H1144 0.930 . S
C1150 C1151 1.355 . S
C1150 C1152 1.415 . S
C1151 C1150 1.355 . S
C1151 C1153 1.419 . S
C1152 C1150 1.415 . S
C1152 C1157 1.425 . S
C1152 C1159 1.409 . S
C1153 H1145 0.930 . S
C1153 C1151 1.419 . S
C1153 C1154 1.362 . S
C1154 H1146 0.930 . S
C1154 C1153 1.362 . S
C1154 C1157 1.409 . S
C1155 H1147 0.930 . S
C1155 C1156 1.355 . S
C1155 C1157 1.415 . S
C1156 C1155 1.355 . S
C1156 C1158 1.419 . S
C1157 C1152 1.425 . S
C1157 C1154 1.409 . S
C1157 C1155 1.415 . S
C1158 H1148 0.930 . S
C1158 C1156 1.419 . S
C1158 C1159 1.362 . S
C1159 H1149 0.930 . S
C1159 C1152 1.409 . S
C1159 C1158 1.362 . S
H1160 C1166 0.930 . S
H1161 C1169 0.930 . S
H1162 C1170 0.930 . S
H1163 C1171 0.930 . S
H1164 C1174 0.930 . S
H1165 C1175 0.930 . S
C1166 H1160 0.930 . S
C1166 C1167 1.355 . S
C1166 C1168 1.415 . S
C1167 C1166 1.355 . S
C1167 C1169 1.419 . S
C1168 C1166 1.415 . S
C1168 C1173 1.425 . S
C1168 C1175 1.409 . S
C1169 H1161 0.930 . S
C1169 C1167 1.419 . S
C1169 C1170 1.362 . S
C1170 H1162 0.930 . S
C1170 C1169 1.362 . S
C1170 C1173 1.409 . S
C1171 H1163 0.930 . S
C1171 C1172 1.355 . S
C1171 C1173 1.415 . S
C1172 C1171 1.355 . S
C1172 C1174 1.419 . S
C1173 C1168 1.425 . S
C1173 C1170 1.409 . S
C1173 C1171 1.415 . S
C1174 H1164 0.930 . S
C1174 C1172 1.419 . S
C1174 C1175 1.362 . S
C1175 H1165 0.930 . S
C1175 C1168 1.409 . S
C1175 C1174 1.362 . S
H1176 C1182 0.930 . S
H1177 C1185 0.930 . S
H1178 C1186 0.930 . S
H1179 C1187 0.930 . S
H1180 C1190 0.930 . S
H1181 C1191 0.930 . S
C1182 H1176 0.930 . S
C1182 C1183 1.355 . S
C1182 C1184 1.415 . S
C1183 C1182 1.355 . S
C1183 C1185 1.419 . S
C1184 C1182 1.415 . S
C1184 C1189 1.425 . S
C1184 C1191 1.409 . S
C1185 H1177 0.930 . S
C1185 C1183 1.419 . S
C1185 C1186 1.362 . S
C1186 H1178 0.930 . S
C1186 C1185 1.362 . S
C1186 C1189 1.409 . S
C1187 H1179 0.930 . S
C1187 C1188 1.355 . S
C1187 C1189 1.415 . S
C1188 C1187 1.355 . S
C1188 C1190 1.419 . S
C1189 C1184 1.425 . S
C1189 C1186 1.409 . S
C1189 C1187 1.415 . S
C1190 H1180 0.930 . S
C1190 C1188 1.419 . S
C1190 C1191 1.362 . S
C1191 H1181 0.930 . S
C1191 C1184 1.409 . S
C1191 C1190 1.362 . S
H1192 C1198 0.930 . S
H1193 C1201 0.930 . S
H1194 C1202 0.930 . S
H1195 C1203 0.930 . S
H1196 C1206 0.930 . S
H1197 C1207 0.930 . S
C1198 H1192 0.930 . S
C1198 C1199 1.355 . S
C1198 C1200 1.415 . S
C1199 C1198 1.355 . S
C1199 C1201 1.419 . S
C1200 C1198 1.415 . S
C1200 C1205 1.425 . S
C1200 C1207 1.409 . S
C1201 H1193 0.930 . S
C1201 C1199 1.419 . S
C1201 C1202 1.362 . S
C1202 H1194 0.930 . S
C1202 C1201 1.362 . S
C1202 C1205 1.409 . S
C1203 H1195 0.930 . S
C1203 C1204 1.355 . S
C1203 C1205 1.415 . S
C1204 C1203 1.355 . S
C1204 C1206 1.419 . S
C1205 C1200 1.425 . S
C1205 C1202 1.409 . S
C1205 C1203 1.415 . S
C1206 H1196 0.930 . S
C1206 C1204 1.419 . S
C1206 C1207 1.362 . S
C1207 H1197 0.930 . S
C1207 C1200 1.409 . S
C1207 C1206 1.362 . S
H1208 C1214 0.930 . S
H1209 C1217 0.930 . S
H1210 C1218 0.930 . S
H1211 C1219 0.930 . S
H1212 C1222 0.930 . S
H1213 C1223 0.930 . S
C1214 H1208 0.930 . S
C1214 C1215 1.355 . S
C1214 C1216 1.415 . S
C1215 C1214 1.355 . S
C1215 C1217 1.419 . S
C1216 C1214 1.415 . S
C1216 C1221 1.425 . S
C1216 C1223 1.409 . S
C1217 H1209 0.930 . S
C1217 C1215 1.419 . S
C1217 C1218 1.362 . S
C1218 H1210 0.930 . S
C1218 C1217 1.362 . S
C1218 C1221 1.409 . S
C1219 H1211 0.930 . S
C1219 C1220 1.355 . S
C1219 C1221 1.415 . S
C1220 C1219 1.355 . S
C1220 C1222 1.419 . S
C1221 C1216 1.425 . S
C1221 C1218 1.409 . S
C1221 C1219 1.415 . S
C1222 H1212 0.930 . S
C1222 C1220 1.419 . S
C1222 C1223 1.362 . S
C1223 H1213 0.930 . S
C1223 C1216 1.409 . S
C1223 C1222 1.362 . S
H1224 C1230 0.930 . S
H1225 C1233 0.930 . S
H1226 C1234 0.930 . S
H1227 C1235 0.930 . S
H1228 C1238 0.930 . S
H1229 C1239 0.930 . S
C1230 H1224 0.930 . S
C1230 C1231 1.355 . S
C1230 C1232 1.415 . S
C1231 C1230 1.355 . S
C1231 C1233 1.419 . S
C1232 C1230 1.415 . S
C1232 C1237 1.425 . S
C1232 C1239 1.409 . S
C1233 H1225 0.930 . S
C1233 C1231 1.419 . S
C1233 C1234 1.362 . S
C1234 H1226 0.930 . S
C1234 C1233 1.362 . S
C1234 C1237 1.409 . S
C1235 H1227 0.930 . S
C1235 C1236 1.355 . S
C1235 C1237 1.415 . S
C1236 C1235 1.355 . S
C1236 C1238 1.419 . S
C1237 C1232 1.425 . S
C1237 C1234 1.409 . S
C1237 C1235 1.415 . S
C1238 H1228 0.930 . S
C1238 C1236 1.419 . S
C1238 C1239 1.362 . S
C1239 H1229 0.930 . S
C1239 C1232 1.409 . S
C1239 C1238 1.362 . S
H1240 C1246 0.930 . S
H1241 C1249 0.930 . S
H1242 C1250 0.930 . S
H1243 C1251 0.930 . S
H1244 C1254 0.930 . S
H1245 C1255 0.930 . S
C1246 H1240 0.930 . S
C1246 C1247 1.355 . S
C1246 C1248 1.415 . S
C1247 C1246 1.355 . S
C1247 C1249 1.419 . S
C1248 C1246 1.415 . S
C1248 C1253 1.425 . S
C1248 C1255 1.409 . S
C1249 H1241 0.930 . S
C1249 C1247 1.419 . S
C1249 C1250 1.362 . S
C1250 H1242 0.930 . S
C1250 C1249 1.362 . S
C1250 C1253 1.409 . S
C1251 H1243 0.930 . S
C1251 C1252 1.355 . S
C1251 C1253 1.415 . S
C1252 C1251 1.355 . S
C1252 C1254 1.419 . S
C1253 C1248 1.425 . S
C1253 C1250 1.409 . S
C1253 C1251 1.415 . S
C1254 H1244 0.930 . S
C1254 C1252 1.419 . S
C1254 C1255 1.362 . S
C1255 H1245 0.930 . S
C1255 C1248 1.409 . S
C1255 C1254 1.362 . S
H1256 C1262 0.930 . S
H1257 C1265 0.930 . S
H1258 C1266 0.930 . S
H1259 C1267 0.930 . S
H1260 C1270 0.930 . S
H1261 C1271 0.930 . S
C1262 H1256 0.930 . S
C1262 C1263 1.355 . S
C1262 C1264 1.415 . S
C1263 C1262 1.355 . S
C1263 C1265 1.419 . S
C1264 C1262 1.415 . S
C1264 C1269 1.425 . S
C1264 C1271 1.409 . S
C1265 H1257 0.930 . S
C1265 C1263 1.419 . S
C1265 C1266 1.362 . S
C1266 H1258 0.930 . S
C1266 C1265 1.362 . S
C1266 C1269 1.409 . S
C1267 H1259 0.930 . S
C1267 C1268 1.355 . S
C1267 C1269 1.415 . S
C1268 C1267 1.355 . S
C1268 C1270 1.419 . S
C1269 C1264 1.425 . S
C1269 C1266 1.409 . S
C1269 C1267 1.415 . S
C1270 H1260 0.930 . S
C1270 C1268 1.419 . S
C1270 C1271 1.362 . S
C1271 H1261 0.930 . S
C1271 C1264 1.409 . S
C1271 C1270 1.362 . S
H1272 C1278 0.930 . S
H1273 C1281 0.930 . S
H1274 C1282 0.930 . S
H1275 C1283 0.930 . S
H1276 C1286 0.930 . S
H1277 C1287 0.930 . S
C1278 H1272 0.930 . S
C1278 C1279 1.355 . S
C1278 C1280 1.415 1_455 S
C1279 C1278 1.355 . S
C1279 C1281 1.419 . S
C1280 C1278 1.415 1_655 S
C1280 C1285 1.425 . S
C1280 C1287 1.409 . S
C1281 H1273 0.930 . S
C1281 C1279 1.419 . S
C1281 C1282 1.391 . S
C1282 H1274 0.930 . S
C1282 C1281 1.391 . S
C1282 C1285 1.377 1_455 S
C1283 H1275 0.930 . S
C1283 C1284 1.355 . S
C1283 C1285 1.415 . S
C1284 C1283 1.355 . S
C1284 C1286 1.419 . S
C1285 C1280 1.425 . S
C1285 C1282 1.377 1_655 S
C1285 C1283 1.415 . S
C1286 H1276 0.930 . S
C1286 C1284 1.419 . S
C1286 C1287 1.362 . S
C1287 H1277 0.930 . S
C1287 C1280 1.409 . S
C1287 C1286 1.362 . S
H1288 C1294 0.930 . S
H1289 C1297 0.930 . S
H1290 C1298 0.930 . S
H1291 C1299 0.930 . S
H1292 C1302 0.930 . S
H1293 C1303 0.930 . S
C1294 H1288 0.930 . S
C1294 C1295 1.355 . S
C1294 C1296 1.415 . S
C1295 C1294 1.355 . S
C1295 C1297 1.419 . S
C1296 C1294 1.415 . S
C1296 C1301 1.425 . S
C1296 C1303 1.409 . S
C1297 H1289 0.930 . S
C1297 C1295 1.419 . S
C1297 C1298 1.362 . S
C1298 H1290 0.930 . S
C1298 C1297 1.362 . S
C1298 C1301 1.409 . S
C1299 H1291 0.930 . S
C1299 C1300 1.355 . S
C1299 C1301 1.415 . S
C1300 C1299 1.355 . S
C1300 C1302 1.419 . S
C1301 C1296 1.425 . S
C1301 C1298 1.409 . S
C1301 C1299 1.415 . S
C1302 H1292 0.930 . S
C1302 C1300 1.419 . S
C1302 C1303 1.362 . S
C1303 H1293 0.930 . S
C1303 C1296 1.409 . S
C1303 C1302 1.362 . S
H1304 C1310 0.930 . S
H1305 C1313 0.930 . S
H1306 C1314 0.930 . S
H1307 C1315 0.930 . S
H1308 C1318 0.930 . S
H1309 C1319 0.930 1_655 S
C1310 H1304 0.930 . S
C1310 C1311 1.355 . S
C1310 C1312 1.415 1_655 S
C1311 C1310 1.355 . S
C1311 C1313 1.419 . S
C1312 C1310 1.415 1_455 S
C1312 C1317 1.425 . S
C1312 C1319 1.409 . S
C1313 H1305 0.930 . S
C1313 C1311 1.419 . S
C1313 C1314 1.362 1_655 S
C1314 H1306 0.930 . S
C1314 C1313 1.362 1_455 S
C1314 C1317 1.409 . S
C1315 H1307 0.930 . S
C1315 C1316 1.355 . S
C1315 C1317 1.415 . S
C1316 C1315 1.355 . S
C1316 C1318 1.419 . S
C1317 C1312 1.425 . S
C1317 C1314 1.409 . S
C1317 C1315 1.415 . S
C1318 H1308 0.930 . S
C1318 C1316 1.419 . S
C1318 C1319 1.362 . S
C1319 H1309 0.930 1_455 S
C1319 C1312 1.409 . S
C1319 C1318 1.362 . S
H1320 C1326 0.930 . S
H1321 C1329 0.930 . S
H1322 C1330 0.930 . S
H1323 C1331 0.930 . S
H1324 C1334 0.930 . S
H1325 C1335 0.930 . S
C1326 H1320 0.930 . S
C1326 C1327 1.355 . S
C1326 C1328 1.415 . S
C1327 C1326 1.355 . S
C1327 C1329 1.419 . S
C1328 C1326 1.415 . S
C1328 C1333 1.425 . S
C1328 C1335 1.409 . S
C1329 H1321 0.930 . S
C1329 C1327 1.419 . S
C1329 C1330 1.362 . S
C1330 H1322 0.930 . S
C1330 C1329 1.362 . S
C1330 C1333 1.409 . S
C1331 H1323 0.930 . S
C1331 C1332 1.355 . S
C1331 C1333 1.415 . S
C1332 C1331 1.355 . S
C1332 C1334 1.419 . S
C1333 C1328 1.425 . S
C1333 C1330 1.409 . S
C1333 C1331 1.415 . S
C1334 H1324 0.930 . S
C1334 C1332 1.419 . S
C1334 C1335 1.362 . S
C1335 H1325 0.930 . S
C1335 C1328 1.409 . S
C1335 C1334 1.362 . S
H1336 C1342 0.930 . S
H1337 C1345 0.930 . S
H1338 C1346 0.930 . S
H1339 C1347 0.930 . S
H1340 C1350 0.930 . S
H1341 C1351 0.930 . S
C1342 H1336 0.930 . S
C1342 C1343 1.355 1_556 S
C1342 C1344 1.415 . S
C1343 C1342 1.355 1_554 S
C1343 C1345 1.419 . S
C1344 C1342 1.415 . S
C1344 C1349 1.425 . S
C1344 C1351 1.409 . S
C1345 H1337 0.930 . S
C1345 C1343 1.419 . S
C1345 C1346 1.362 1_554 S
C1346 H1338 0.930 . S
C1346 C1345 1.362 1_556 S
C1346 C1349 1.409 . S
C1347 H1339 0.930 . S
C1347 C1348 1.355 . S
C1347 C1349 1.415 . S
C1348 C1347 1.355 . S
C1348 C1350 1.419 . S
C1349 C1344 1.425 . S
C1349 C1346 1.409 . S
C1349 C1347 1.415 . S
C1350 H1340 0.930 . S
C1350 C1348 1.419 . S
C1350 C1351 1.362 . S
C1351 H1341 0.930 . S
C1351 C1344 1.409 . S
C1351 C1350 1.362 . S
H1352 C1358 0.930 . S
H1353 C1361 0.930 . S
H1354 C1362 0.930 . S
H1355 C1363 0.930 . S
H1356 C1366 0.930 . S
H1357 C1367 0.930 . S
C1358 H1352 0.930 . S
C1358 C1359 1.355 . S
C1358 C1360 1.415 . S
C1359 C1358 1.355 . S
C1359 C1361 1.419 . S
C1360 C1358 1.415 . S
C1360 C1365 1.425 . S
C1360 C1367 1.409 . S
C1361 H1353 0.930 . S
C1361 C1359 1.419 . S
C1361 C1362 1.362 . S
C1362 H1354 0.930 . S
C1362 C1361 1.362 . S
C1362 C1365 1.409 . S
C1363 H1355 0.930 . S
C1363 C1364 1.355 . S
C1363 C1365 1.415 . S
C1364 C1363 1.355 . S
C1364 C1366 1.419 . S
C1365 C1360 1.425 . S
C1365 C1362 1.409 . S
C1365 C1363 1.415 . S
C1366 H1356 0.930 . S
C1366 C1364 1.419 . S
C1366 C1367 1.362 . S
C1367 H1357 0.930 . S
C1367 C1360 1.409 . S
C1367 C1366 1.362 . S
H1368 C1374 0.930 . S
H1369 C1377 0.930 . S
H1370 C1378 0.930 . S
H1371 C1379 0.930 . S
H1372 C1382 0.930 . S
H1373 C1383 0.930 1_554 S
C1374 H1368 0.930 . S
C1374 C1375 1.355 . S
C1374 C1376 1.452 . S
C1375 C1374 1.355 . S
C1375 C1377 1.419 . S
C1376 C1374 1.452 . S
C1376 C1381 1.394 1_554 S
C1376 C1383 1.402 1_554 S
C1377 H1369 0.930 . S
C1377 C1375 1.419 . S
C1377 C1378 1.362 1_554 S
C1378 H1370 0.930 . S
C1378 C1377 1.362 1_556 S
C1378 C1381 1.409 . S
C1379 H1371 0.930 . S
C1379 C1380 1.355 . S
C1379 C1381 1.415 . S
C1380 C1379 1.355 . S
C1380 C1382 1.419 . S
C1381 C1376 1.394 1_556 S
C1381 C1378 1.409 . S
C1381 C1379 1.415 . S
C1382 H1372 0.930 . S
C1382 C1380 1.419 . S
C1382 C1383 1.362 . S
C1383 H1373 0.930 1_556 S
C1383 C1376 1.402 1_556 S
C1383 C1382 1.362 . S
H1384 C1390 0.930 . S
H1385 C1393 0.930 . S
H1386 C1394 0.930 . S
H1387 C1395 0.930 . S
H1388 C1398 0.930 . S
H1389 C1399 0.930 . S
C1390 H1384 0.930 . S
C1390 C1391 1.355 . S
C1390 C1392 1.415 . S
C1391 C1390 1.355 . S
C1391 C1393 1.419 . S
C1392 C1390 1.415 . S
C1392 C1397 1.425 . S
C1392 C1399 1.409 . S
C1393 H1385 0.930 . S
C1393 C1391 1.419 . S
C1393 C1394 1.362 . S
C1394 H1386 0.930 . S
C1394 C1393 1.362 . S
C1394 C1397 1.409 . S
C1395 H1387 0.930 . S
C1395 C1396 1.355 . S
C1395 C1397 1.415 . S
C1396 C1395 1.355 . S
C1396 C1398 1.419 . S
C1397 C1392 1.425 . S
C1397 C1394 1.409 . S
C1397 C1395 1.415 . S
C1398 H1388 0.930 . S
C1398 C1396 1.419 . S
C1398 C1399 1.362 . S
C1399 H1389 0.930 . S
C1399 C1392 1.409 . S
C1399 C1398 1.362 . S
H1400 C1406 0.930 . S
H1401 C1409 0.930 . S
H1402 C1410 0.930 . S
H1403 C1411 0.930 . S
H1404 C1414 0.930 . S
H1405 C1415 0.930 . S
C1406 H1400 0.930 . S
C1406 C1407 1.355 1_554 S
C1406 C1408 1.415 . S
C1407 C1406 1.355 1_556 S
C1407 C1409 1.419 . S
C1408 C1406 1.415 . S
C1408 C1413 1.425 . S
C1408 C1415 1.409 . S
C1409 H1401 0.930 . S
C1409 C1407 1.419 . S
C1409 C1410 1.362 1_556 S
C1410 H1402 0.930 . S
C1410 C1409 1.362 1_554 S
C1410 C1413 1.409 . S
C1411 H1403 0.930 . S
C1411 C1412 1.355 . S
C1411 C1413 1.415 . S
C1412 C1411 1.355 . S
C1412 C1414 1.419 . S
C1413 C1408 1.425 . S
C1413 C1410 1.409 . S
C1413 C1411 1.415 . S
C1414 H1404 0.930 . S
C1414 C1412 1.419 . S
C1414 C1415 1.362 . S
C1415 H1405 0.930 . S
C1415 C1408 1.409 . S
C1415 C1414 1.362 . S
H1416 C1422 0.930 . S
H1417 C1425 0.930 . S
H1418 C1426 0.930 . S
H1419 C1427 0.930 . S
H1420 C1430 0.930 . S
H1421 C1431 0.930 . S
C1422 H1416 0.930 . S
C1422 C1423 1.355 . S
C1422 C1424 1.415 . S
C1423 C1422 1.355 . S
C1423 C1425 1.419 . S
C1424 C1422 1.415 . S
C1424 C1429 1.425 . S
C1424 C1431 1.409 . S
C1425 H1417 0.930 . S
C1425 C1423 1.419 . S
C1425 C1426 1.362 . S
C1426 H1418 0.930 . S
C1426 C1425 1.362 . S
C1426 C1429 1.409 . S
C1427 H1419 0.930 . S
C1427 C1428 1.355 . S
C1427 C1429 1.415 . S
C1428 C1427 1.355 . S
C1428 C1430 1.419 . S
C1429 C1424 1.425 . S
C1429 C1426 1.409 . S
C1429 C1427 1.415 . S
C1430 H1420 0.930 . S
C1430 C1428 1.419 . S
C1430 C1431 1.362 . S
C1431 H1421 0.930 . S
C1431 C1424 1.409 . S
C1431 C1430 1.362 . S
H1432 C1438 0.930 . S
H1433 C1441 0.930 . S
H1434 C1442 0.930 . S
H1435 C1443 0.930 . S
H1436 C1446 0.930 . S
H1437 C1447 0.930 . S
C1438 H1432 0.930 . S
C1438 C1439 1.355 . S
C1438 C1440 1.415 . S
C1439 C1438 1.355 . S
C1439 C1441 1.419 . S
C1440 C1438 1.415 . S
C1440 C1445 1.425 . S
C1440 C1447 1.409 . S
C1441 H1433 0.930 . S
C1441 C1439 1.419 . S
C1441 C1442 1.362 . S
C1442 H1434 0.930 . S
C1442 C1441 1.362 . S
C1442 C1445 1.409 . S
C1443 H1435 0.930 . S
C1443 C1444 1.355 . S
C1443 C1445 1.415 . S
C1444 C1443 1.355 . S
C1444 C1446 1.419 . S
C1445 C1440 1.425 . S
C1445 C1442 1.409 . S
C1445 C1443 1.415 . S
C1446 H1436 0.930 . S
C1446 C1444 1.419 . S
C1446 C1447 1.362 . S
C1447 H1437 0.930 . S
C1447 C1440 1.409 . S
C1447 C1446 1.362 . S
H1448 C1454 0.930 . S
H1449 C1457 0.930 . S
H1450 C1458 0.930 . S
H1451 C1459 0.930 . S
H1452 C1462 0.930 . S
H1453 C1463 0.930 . S
C1454 H1448 0.930 . S
C1454 C1455 1.355 . S
C1454 C1456 1.415 . S
C1455 C1454 1.355 . S
C1455 C1457 1.419 . S
C1456 C1454 1.415 . S
C1456 C1461 1.425 . S
C1456 C1463 1.409 . S
C1457 H1449 0.930 . S
C1457 C1455 1.419 . S
C1457 C1458 1.362 . S
C1458 H1450 0.930 . S
C1458 C1457 1.362 . S
C1458 C1461 1.409 . S
C1459 H1451 0.930 . S
C1459 C1460 1.355 . S
C1459 C1461 1.415 . S
C1460 C1459 1.355 . S
C1460 C1462 1.419 . S
C1461 C1456 1.425 . S
C1461 C1458 1.409 . S
C1461 C1459 1.415 . S
C1462 H1452 0.930 . S
C1462 C1460 1.419 . S
C1462 C1463 1.362 . S
C1463 H1453 0.930 . S
C1463 C1456 1.409 . S
C1463 C1462 1.362 . S
H1464 C1470 0.930 . S
H1465 C1473 0.930 . S
H1466 C1474 0.930 . S
H1467 C1475 0.930 . S
H1468 C1478 0.930 . S
H1469 C1479 0.930 . S
C1470 H1464 0.930 . S
C1470 C1471 1.355 . S
C1470 C1472 1.415 . S
C1471 C1470 1.355 . S
C1471 C1473 1.419 . S
C1472 C1470 1.415 . S
C1472 C1477 1.425 . S
C1472 C1479 1.409 . S
C1473 H1465 0.930 . S
C1473 C1471 1.419 . S
C1473 C1474 1.362 . S
C1474 H1466 0.930 . S
C1474 C1473 1.362 . S
C1474 C1477 1.409 . S
C1475 H1467 0.930 . S
C1475 C1476 1.355 . S
C1475 C1477 1.415 . S
C1476 C1475 1.355 . S
C1476 C1478 1.419 . S
C1477 C1472 1.425 . S
C1477 C1474 1.409 . S
C1477 C1475 1.415 . S
C1478 H1468 0.930 . S
C1478 C1476 1.419 . S
C1478 C1479 1.362 . S
C1479 H1469 0.930 . S
C1479 C1472 1.409 . S
C1479 C1478 1.362 . S
H1480 C1486 0.930 . S
H1481 C1489 0.930 . S
H1482 C1490 0.930 . S
H1483 C1491 0.930 . S
H1484 C1494 0.930 . S
H1485 C1495 0.930 . S
C1486 H1480 0.930 . S
C1486 C1487 1.355 . S
C1486 C1488 1.415 . S
C1487 C1486 1.355 . S
C1487 C1489 1.419 . S
C1488 C1486 1.415 . S
C1488 C1493 1.425 . S
C1488 C1495 1.409 . S
C1489 H1481 0.930 . S
C1489 C1487 1.419 . S
C1489 C1490 1.362 . S
C1490 H1482 0.930 . S
C1490 C1489 1.362 . S
C1490 C1493 1.409 . S
C1491 H1483 0.930 . S
C1491 C1492 1.355 . S
C1491 C1493 1.415 . S
C1492 C1491 1.355 . S
C1492 C1494 1.419 . S
C1493 C1488 1.425 . S
C1493 C1490 1.409 . S
C1493 C1491 1.415 . S
C1494 H1484 0.930 . S
C1494 C1492 1.419 . S
C1494 C1495 1.362 . S
C1495 H1485 0.930 . S
C1495 C1488 1.409 . S
C1495 C1494 1.362 . S
H1496 C1502 0.930 . S
H1497 C1505 0.930 . S
H1498 C1506 0.930 . S
H1499 C1507 0.930 . S
H1500 C1510 0.930 . S
H1501 C1511 0.930 . S
C1502 H1496 0.930 . S
C1502 C1503 1.355 . S
C1502 C1504 1.415 . S
C1503 C1502 1.355 . S
C1503 C1505 1.419 . S
C1504 C1502 1.415 . S
C1504 C1509 1.425 . S
C1504 C1511 1.409 . S
C1505 H1497 0.930 . S
C1505 C1503 1.419 . S
C1505 C1506 1.362 . S
C1506 H1498 0.930 . S
C1506 C1505 1.362 . S
C1506 C1509 1.409 . S
C1507 H1499 0.930 . S
C1507 C1508 1.355 . S
C1507 C1509 1.415 . S
C1508 C1507 1.355 . S
C1508 C1510 1.419 . S
C1509 C1504 1.425 . S
C1509 C1506 1.409 . S
C1509 C1507 1.415 . S
C1510 H1500 0.930 . S
C1510 C1508 1.419 . S
C1510 C1511 1.362 . S
C1511 H1501 0.930 . S
C1511 C1504 1.409 . S
C1511 C1510 1.362 . S
H1512 C1518 0.930 . S
H1513 C1521 0.930 . S
H1514 C1522 0.930 . S
H1515 C1523 0.930 . S
H1516 C1526 0.930 . S
H1517 C1527 0.930 . S
C1518 H1512 0.930 . S
C1518 C1519 1.355 . S
C1518 C1520 1.415 . S
C1519 C1518 1.355 . S
C1519 C1521 1.419 . S
C1520 C1518 1.415 . S
C1520 C1525 1.425 . S
C1520 C1527 1.409 . S
C1521 H1513 0.930 . S
C1521 C1519 1.419 . S
C1521 C1522 1.362 . S
C1522 H1514 0.930 . S
C1522 C1521 1.362 . S
C1522 C1525 1.409 . S
C1523 H1515 0.930 . S
C1523 C1524 1.355 . S
C1523 C1525 1.415 . S
C1524 C1523 1.355 . S
C1524 C1526 1.419 . S
C1525 C1520 1.425 . S
C1525 C1522 1.409 . S
C1525 C1523 1.415 . S
C1526 H1516 0.930 . S
C1526 C1524 1.419 . S
C1526 C1527 1.362 . S
C1527 H1517 0.930 . S
C1527 C1520 1.409 . S
C1527 C1526 1.362 . S
H1528 C1534 0.930 . S
H1529 C1537 0.930 . S
H1530 C1538 0.930 . S
H1531 C1539 0.930 . S
H1532 C1542 0.930 . S
H1533 C1543 0.930 . S
C1534 H1528 0.930 . S
C1534 C1535 1.355 . S
C1534 C1536 1.415 . S
C1535 C1534 1.355 . S
C1535 C1537 1.419 . S
C1536 C1534 1.415 . S
C1536 C1541 1.425 . S
C1536 C1543 1.409 . S
C1537 H1529 0.930 . S
C1537 C1535 1.419 . S
C1537 C1538 1.362 . S
C1538 H1530 0.930 . S
C1538 C1537 1.362 . S
C1538 C1541 1.409 . S
C1539 H1531 0.930 . S
C1539 C1540 1.355 . S
C1539 C1541 1.415 . S
C1540 C1539 1.355 . S
C1540 C1542 1.419 . S
C1541 C1536 1.425 . S
C1541 C1538 1.409 . S
C1541 C1539 1.415 . S
C1542 H1532 0.930 . S
C1542 C1540 1.419 . S
C1542 C1543 1.362 . S
C1543 H1533 0.930 . S
C1543 C1536 1.409 . S
C1543 C1542 1.362 . S
H1544 C1550 0.930 . S
H1545 C1553 0.930 . S
H1546 C1554 0.930 . S
H1547 C1555 0.930 . S
H1548 C1558 0.930 . S
H1549 C1559 0.930 . S
C1550 H1544 0.930 . S
C1550 C1551 1.355 . S
C1550 C1552 1.415 . S
C1551 C1550 1.355 . S
C1551 C1553 1.419 . S
C1552 C1550 1.415 . S
C1552 C1557 1.425 . S
C1552 C1559 1.409 . S
C1553 H1545 0.930 . S
C1553 C1551 1.419 . S
C1553 C1554 1.362 . S
C1554 H1546 0.930 . S
C1554 C1553 1.362 . S
C1554 C1557 1.409 . S
C1555 H1547 0.930 . S
C1555 C1556 1.355 . S
C1555 C1557 1.415 . S
C1556 C1555 1.355 . S
C1556 C1558 1.419 . S
C1557 C1552 1.425 . S
C1557 C1554 1.409 . S
C1557 C1555 1.415 . S
C1558 H1548 0.930 . S
C1558 C1556 1.419 . S
C1558 C1559 1.362 . S
C1559 H1549 0.930 . S
C1559 C1552 1.409 . S
C1559 C1558 1.362 . S
H1560 C1566 0.930 . S
H1561 C1569 0.930 . S
H1562 C1570 0.930 . S
H1563 C1571 0.930 . S
H1564 C1574 0.930 . S
H1565 C1575 0.930 . S
C1566 H1560 0.930 . S
C1566 C1567 1.355 . S
C1566 C1568 1.415 . S
C1567 C1566 1.355 . S
C1567 C1569 1.419 . S
C1568 C1566 1.415 . S
C1568 C1573 1.425 . S
C1568 C1575 1.409 . S
C1569 H1561 0.930 . S
C1569 C1567 1.419 . S
C1569 C1570 1.362 . S
C1570 H1562 0.930 . S
C1570 C1569 1.362 . S
C1570 C1573 1.409 . S
C1571 H1563 0.930 . S
C1571 C1572 1.355 . S
C1571 C1573 1.415 1_565 S
C1572 C1571 1.355 . S
C1572 C1574 1.419 . S
C1573 C1568 1.425 . S
C1573 C1570 1.409 . S
C1573 C1571 1.415 1_545 S
C1574 H1564 0.930 . S
C1574 C1572 1.419 . S
C1574 C1575 1.362 1_565 S
C1575 H1565 0.930 . S
C1575 C1568 1.409 . S
C1575 C1574 1.362 1_545 S
C820 C648 1.614 1_556 S
C815 C202 1.602 . S
C836 C663 1.796 . S
C831 C261 1.781 1_455 S
C847 C282 1.703 . S
C852 C676 1.719 . S
C868 C690 1.667 . S
C863 C162 1.644 1_655 S
C884 C702 1.616 . S
C879 C402 1.692 . S
C900 C716 1.509 . S
C895 C482 1.427 . S
C911 C442 1.775 . S
C916 C730 1.757 . S
C932 C745 1.606 . S
C927 C381 1.544 . S
C943 C461 1.715 . S
C948 C761 1.693 . S
C964 C774 1.576 . S
C959 C362 1.511 . S
C975 C415 1.572 . S
C980 C759 1.523 . S
C996 C772 1.696 . S
C991 C495 1.636 . S
C1007 C301 1.885 . S
C1012 C788 1.887 . S
C1023 C175 1.668 . S
C1028 C787 1.668 . S
C1039 C215 1.703 . S
C1044 C786 1.652 . S
C1055 C242 1.586 . S
C1060 C789 1.640 . S
C1071 C141 1.741 . S
C1076 C691 1.711 . S
C1087 C581 1.506 . S
C1092 C689 1.513 . S
C1108 C649 1.606 . S
C1103 C615 1.631 . S
C1124 C660 1.733 . S
C1119 C335 1.757 . S
C1135 C181 1.710 . S
C1140 C705 1.751 . S
C1156 C746 1.851 . S
C1151 C455 1.869 . S
C1172 C703 1.639 . S
C1167 C375 1.569 1_545 S
C1188 C731 1.714 . S
C1183 C501 1.566 . S
C1204 C732 1.611 . S
C1199 C562 1.611 . S
C1215 C621 1.797 . S
C1220 C747 1.819 . S
C1231 C322 1.725 . S
C1236 C704 1.698 . S
C1252 C718 1.666 . S
C1247 C522 1.641 . S
C1263 C122 1.678 . S
C1268 C674 1.659 . S
C1284 C688 1.518 . S
C1279 C2 1.378 . S
C1300 C646 1.732 . S
C1295 C42 1.763 . S
C1316 C661 1.626 . S
C1311 C101 1.485 . S
C1327 C61 1.706 . S
C1332 C775 1.707 . S
C1343 C82 1.553 . S
C1348 C760 1.620 . S
C1359 C135 1.574 . S
C1364 C773 1.533 . S
C1375 C15 1.647 . S
C1380 C758 1.696 . S
C1396 C802 1.875 . S
C1391 C341 1.891 . S
C1412 C801 1.708 . S
C1407 C535 1.716 . S
C1428 C800 1.613 . S
C1423 C575 1.697 . S
C1439 C602 1.631 . S
C1444 C803 1.678 . S
C1455 C421 1.734 . S
C1460 C719 1.723 . S
C1476 C717 1.507 . S
C1471 C221 1.537 . S
C1492 C733 1.541 . S
C1487 C255 1.582 . S
C1508 C744 1.760 . S
C1503 C295 1.771 . S
C1519 C541 1.697 . S
C1524 C677 1.751 . S
C1540 C662 1.868 . S
C1535 C55 1.863 . S
C1551 C95 1.595 . S
C1556 C675 1.670 . S
C1572 C647 1.676 . S
C1567 C21 1.541 . S
