# Generated by pormake.
# Topology soc, (4,6)-cn, num edge types: 1
# Building blocks:
#     Node 0, Type 0, BuildingBlock: ESEHIV_clean_sbu_0, # of connection points: 4
#     Node 1, Type 0, BuildingBlock: ESEHIV_clean_sbu_0, # of connection points: 4
#     Node 2, Type 0, BuildingBlock: ESEHIV_clean_sbu_0, # of connection points: 4
#     Node 3, Type 0, BuildingBlock: ESEHIV_clean_sbu_0, # of connection points: 4
#     Node 4, Type 0, BuildingBlock: ESEHIV_clean_sbu_0, # of connection points: 4
#     Node 5, Type 0, BuildingBlock: ESEHIV_clean_sbu_0, # of connection points: 4
#     Node 6, Type 0, BuildingBlock: ESEHIV_clean_sbu_0, # of connection points: 4
#     Node 7, Type 0, BuildingBlock: ESEHIV_clean_sbu_0, # of connection points: 4
#     Node 8, Type 0, BuildingBlock: ESEHIV_clean_sbu_0, # of connection points: 4
#     Node 9, Type 0, BuildingBlock: ESEHIV_clean_sbu_0, # of connection points: 4
#     Node 10, Type 0, BuildingBlock: ESEHIV_clean_sbu_0, # of connection points: 4
#     Node 11, Type 0, BuildingBlock: ESEHIV_clean_sbu_0, # of connection points: 4
#     Node 12, Type 1, BuildingBlock: GEDQOX_clean_sbu_0, # of connection points: 6
#     Node 13, Type 1, BuildingBlock: GEDQOX_clean_sbu_0, # of connection points: 6
#     Node 14, Type 1, BuildingBlock: GEDQOX_clean_sbu_0, # of connection points: 6
#     Node 15, Type 1, BuildingBlock: GEDQOX_clean_sbu_0, # of connection points: 6
#     Node 16, Type 1, BuildingBlock: GEDQOX_clean_sbu_0, # of connection points: 6
#     Node 17, Type 1, BuildingBlock: GEDQOX_clean_sbu_0, # of connection points: 6
#     Node 18, Type 1, BuildingBlock: GEDQOX_clean_sbu_0, # of connection points: 6
#     Node 19, Type 1, BuildingBlock: GEDQOX_clean_sbu_0, # of connection points: 6
#     Edge 20, Type (0, 1), BuildingBlock: AJUNOK_clean_linker_0, # of connection points: 2
#     Edge 21, Type (0, 1), BuildingBlock: AJUNOK_clean_linker_0, # of connection points: 2
#     Edge 22, Type (0, 1), BuildingBlock: AJUNOK_clean_linker_0, # of connection points: 2
#     Edge 23, Type (0, 1), BuildingBlock: AJUNOK_clean_linker_0, # of connection points: 2
#     Edge 24, Type (0, 1), BuildingBlock: AJUNOK_clean_linker_0, # of connection points: 2
#     Edge 25, Type (0, 1), BuildingBlock: AJUNOK_clean_linker_0, # of connection points: 2
#     Edge 26, Type (0, 1), BuildingBlock: AJUNOK_clean_linker_0, # of connection points: 2
#     Edge 27, Type (0, 1), BuildingBlock: AJUNOK_clean_linker_0, # of connection points: 2
#     Edge 28, Type (0, 1), BuildingBlock: AJUNOK_clean_linker_0, # of connection points: 2
#     Edge 29, Type (0, 1), BuildingBlock: AJUNOK_clean_linker_0, # of connection points: 2
#     Edge 30, Type (0, 1), BuildingBlock: AJUNOK_clean_linker_0, # of connection points: 2
#     Edge 31, Type (0, 1), BuildingBlock: AJUNOK_clean_linker_0, # of connection points: 2
#     Edge 32, Type (0, 1), BuildingBlock: AJUNOK_clean_linker_0, # of connection points: 2
#     Edge 33, Type (0, 1), BuildingBlock: AJUNOK_clean_linker_0, # of connection points: 2
#     Edge 34, Type (0, 1), BuildingBlock: AJUNOK_clean_linker_0, # of connection points: 2
#     Edge 35, Type (0, 1), BuildingBlock: AJUNOK_clean_linker_0, # of connection points: 2
#     Edge 36, Type (0, 1), BuildingBlock: AJUNOK_clean_linker_0, # of connection points: 2
#     Edge 37, Type (0, 1), BuildingBlock: AJUNOK_clean_linker_0, # of connection points: 2
#     Edge 38, Type (0, 1), BuildingBlock: AJUNOK_clean_linker_0, # of connection points: 2
#     Edge 39, Type (0, 1), BuildingBlock: AJUNOK_clean_linker_0, # of connection points: 2
#     Edge 40, Type (0, 1), BuildingBlock: AJUNOK_clean_linker_0, # of connection points: 2
#     Edge 41, Type (0, 1), BuildingBlock: AJUNOK_clean_linker_0, # of connection points: 2
#     Edge 42, Type (0, 1), BuildingBlock: AJUNOK_clean_linker_0, # of connection points: 2
#     Edge 43, Type (0, 1), BuildingBlock: AJUNOK_clean_linker_0, # of connection points: 2
#     Edge 44, Type (0, 1), BuildingBlock: AJUNOK_clean_linker_0, # of connection points: 2
#     Edge 45, Type (0, 1), BuildingBlock: AJUNOK_clean_linker_0, # of connection points: 2
#     Edge 46, Type (0, 1), BuildingBlock: AJUNOK_clean_linker_0, # of connection points: 2
#     Edge 47, Type (0, 1), BuildingBlock: AJUNOK_clean_linker_0, # of connection points: 2
#     Edge 48, Type (0, 1), BuildingBlock: AJUNOK_clean_linker_0, # of connection points: 2
#     Edge 49, Type (0, 1), BuildingBlock: AJUNOK_clean_linker_0, # of connection points: 2
#     Edge 50, Type (0, 1), BuildingBlock: AJUNOK_clean_linker_0, # of connection points: 2
#     Edge 51, Type (0, 1), BuildingBlock: AJUNOK_clean_linker_0, # of connection points: 2
#     Edge 52, Type (0, 1), BuildingBlock: AJUNOK_clean_linker_0, # of connection points: 2
#     Edge 53, Type (0, 1), BuildingBlock: AJUNOK_clean_linker_0, # of connection points: 2
#     Edge 54, Type (0, 1), BuildingBlock: AJUNOK_clean_linker_0, # of connection points: 2
#     Edge 55, Type (0, 1), BuildingBlock: AJUNOK_clean_linker_0, # of connection points: 2
#     Edge 56, Type (0, 1), BuildingBlock: AJUNOK_clean_linker_0, # of connection points: 2
#     Edge 57, Type (0, 1), BuildingBlock: AJUNOK_clean_linker_0, # of connection points: 2
#     Edge 58, Type (0, 1), BuildingBlock: AJUNOK_clean_linker_0, # of connection points: 2
#     Edge 59, Type (0, 1), BuildingBlock: AJUNOK_clean_linker_0, # of connection points: 2
#     Edge 60, Type (0, 1), BuildingBlock: AJUNOK_clean_linker_0, # of connection points: 2
#     Edge 61, Type (0, 1), BuildingBlock: AJUNOK_clean_linker_0, # of connection points: 2
#     Edge 62, Type (0, 1), BuildingBlock: AJUNOK_clean_linker_0, # of connection points: 2
#     Edge 63, Type (0, 1), BuildingBlock: AJUNOK_clean_linker_0, # of connection points: 2
#     Edge 64, Type (0, 1), BuildingBlock: AJUNOK_clean_linker_0, # of connection points: 2
#     Edge 65, Type (0, 1), BuildingBlock: AJUNOK_clean_linker_0, # of connection points: 2
#     Edge 66, Type (0, 1), BuildingBlock: AJUNOK_clean_linker_0, # of connection points: 2
#     Edge 67, Type (0, 1), BuildingBlock: AJUNOK_clean_linker_0, # of connection points: 2
# Relax obj value: 0.268
# Max RMSD: 0.274
# Mean RMSD: 0.194
data_MOF--net-soc--node1-ESEHIV_clean_sbu_0--node2-GEDQOX_clean_sbu_0--edge1-AJUNOK_clean_linker_0
_symmetry_space_group_name_H-M    P1
_symmetry_Int_Tables_number       1
_symmetry_cell_setting            triclinic
loop_
_symmetry_equiv_pos_as_xyz
'x, y, z'
_cell_length_a     32.429953
_cell_length_b     35.027721
_cell_length_c     41.371988
_cell_angle_alpha  95.83671
_cell_angle_beta   107.89839
_cell_angle_gamma 83.172934
loop_
_atom_site_label
_atom_site_type_symbol
_atom_site_fract_x
_atom_site_fract_y
_atom_site_fract_z
_atom_type_partial_charge
Cu0 Cu 0.09114 0.15302 0.32801 0.0
N1 N 0.13304 0.18796 0.35323 0.0
N2 N 0.17828 0.23518 0.36117 0.0
C3 C 0.15853 0.206 0.33993 0.0
C4 C 0.165 0.23492 0.3891 0.0
C5 C 0.13737 0.20613 0.38418 0.0
O6 O 0.12468 0.11402 0.30404 0.0
C7 C 1.03428 0.22517 0.30814 0.0
O8 O 0.07044 0.24179 0.31505 0.0
H9 H 0.1595 0.19988 0.314 0.0
H10 H 0.11964 0.2005 0.4012 0.0
N11 N 0.06967 0.11921 0.35162 0.0
N12 N 1.03232 0.07097 0.3583 0.0
C13 C 1.04296 0.09119 0.33602 0.0
C14 C 0.07614 0.11662 0.38506 0.0
C15 C 1.05324 0.08733 0.38919 0.0
C16 C 0.16074 0.09906 0.32391 0.0
O17 O 0.17224 0.11203 0.35603 0.0
H18 H 1.03088 0.08638 0.30864 0.0
H19 H 0.09612 0.13468 0.40513 0.0
O20 O 1.03664 0.18797 0.30692 0.0
H21 H 0.1734 0.25506 0.41123 0.0
H22 H 1.05251 0.07853 0.41333 0.0
Cu23 Cu 0.06703 0.13251 0.80873 0.0
N24 N 1.02071 0.10227 0.7835 0.0
N25 N 0.96672 0.06317 0.77394 0.0
C26 C 0.99732 0.08288 0.79757 0.0
C27 C 0.97142 0.07049 0.74383 0.0
C28 C 1.00436 0.09446 0.74973 0.0
O29 O 1.03692 0.17436 0.83318 0.0
C30 C 0.12517 0.06572 0.80877 0.0
O31 O 0.10477 0.06921 0.77631 0.0
H32 H 1.00363 0.08248 0.82477 0.0
H33 H 1.01581 0.10509 0.7307 0.0
N34 N 0.09251 0.16219 0.78473 0.0
N35 N 0.13587 0.20548 0.7781 0.0
C36 C 0.12952 0.18023 0.79878 0.0
C37 C 0.07481 0.17643 0.75401 0.0
C38 C 0.10128 0.20259 0.74981 0.0
C39 C 1.00128 0.19117 0.8142 0.0
O40 O 0.98751 0.1785 0.7821 0.0
H41 H 0.15069 0.1753 0.82412 0.0
H42 H 1.04362 0.16992 0.73656 0.0
O43 O 0.1151 0.09194 0.83013 0.0
H44 H 0.95233 0.05929 0.71909 0.0
H45 H 0.09415 0.21961 0.72801 0.0
Cu46 Cu 0.25368 0.09849 0.04354 0.0
N47 N 0.29514 0.05884 0.03853 0.0
N48 N 0.32108 1.00606 0.01309 0.0
C49 C 0.28565 1.02608 0.01927 0.0
C50 C 0.35433 1.02749 0.02981 0.0
C51 C 0.33819 0.06006 0.04528 0.0
O52 O 0.19562 0.08057 0.02847 0.0
C53 C 0.26489 0.13413 0.98885 0.0
O54 O 0.26285 0.09919 0.97386 0.0
H55 H 0.25271 1.01848 0.00943 0.0
H56 H 0.35594 0.0842 0.05834 0.0
N57 N 0.26493 0.11816 0.08817 0.0
N58 N 0.29776 0.13516 0.1424 0.0
C59 C 0.30137 0.11334 0.11446 0.0
C60 C 0.23779 0.14404 0.09968 0.0
C61 C 0.25782 0.15437 0.13325 0.0
C62 C 0.18057 0.06212 0.04677 0.0
O63 O 0.13998 0.05376 0.03547 0.0
H64 H 0.33033 0.09542 0.11283 0.0
H65 H 0.20604 0.15526 0.08435 0.0
O66 O 0.25856 0.14005 0.01785 0.0
H67 H 0.38754 1.02168 0.02904 0.0
H68 H 0.24513 0.17611 0.14917 0.0
Cu69 Cu 0.15431 0.42203 0.05219 0.0
N70 N 0.18625 0.43702 0.0237 0.0
N71 N 0.21726 0.43587 0.98091 0.0
C72 C 0.1926 0.41762 0.99499 0.0
C73 C 0.22669 0.46792 1.00195 0.0
C74 C 0.20776 0.46858 0.02786 0.0
O75 O 0.19763 0.40246 0.09613 0.0
C76 C 0.06808 0.39391 0.02002 0.0
O77 O 1.06159 0.40131 0.04991 0.0
H78 H 0.17997 0.39019 0.9851 0.0
H79 H 0.2096 0.49068 0.04839 0.0
N80 N 0.12119 0.46261 0.06975 0.0
N81 N 0.07481 0.47873 0.10103 0.0
C82 C 0.11374 0.46083 0.10001 0.0
C83 C 0.08641 0.48453 0.05157 0.0
C84 C 1.05799 0.49464 0.07082 0.0
C85 C 0.18994 0.3841 0.1188 0.0
O86 O 0.15316 0.36802 0.11026 0.0
H87 H 0.13423 0.44335 0.11978 0.0
H88 H 0.07912 0.48818 0.02468 0.0
O89 O 0.10687 0.39414 0.01812 0.0
H90 H 0.24554 0.48994 0.99867 0.0
H91 H 1.02534 0.50862 0.06172 0.0
Cu92 Cu 0.75961 0.13806 0.13228 0.0
N93 N 0.71653 0.15789 0.09499 0.0
N94 N 0.69828 0.19623 0.05166 0.0
C95 C 0.71422 0.19404 0.08578 0.0
C96 C 0.68735 0.16037 0.03939 0.0
C97 C 0.69881 0.13684 0.06607 0.0
O98 O 0.77479 0.17971 0.16778 0.0
C99 C 0.81504 0.12731 0.09023 0.0
O100 O 0.80266 0.1637 0.08491 0.0
H101 H 0.72857 0.21708 0.10345 0.0
H102 H 0.70016 0.10571 0.06387 0.0
N103 N 0.73886 0.10012 0.15002 0.0
N104 N 0.73874 1.0487 0.178 0.0
C105 C 0.76211 0.06847 0.1645 0.0
C106 C 0.69946 0.10061 0.15444 0.0
C107 C 0.69931 0.06907 0.1718 0.0
C108 C 0.795 0.20845 0.16702 0.0
O109 O 0.81232 0.20938 0.14237 0.0
H110 H 0.79593 0.06081 0.16595 0.0
H111 H 0.67339 0.12326 0.14693 0.0
O112 O 0.80516 0.11268 0.11356 0.0
H113 H 0.67731 0.15057 0.01269 0.0
H114 H 0.67298 0.0631 0.18089 0.0
Cu115 Cu 0.08998 0.80927 0.03544 0.0
N116 N 1.05739 0.83496 0.99709 0.0
N117 N 1.00365 0.85202 0.95109 0.0
C118 C 1.01535 0.83192 0.97912 0.0
C119 C 1.03957 0.86766 0.95097 0.0
C120 C 0.07283 0.85665 0.97914 0.0
O121 O 1.0528 0.79726 0.06043 0.0
C122 C 0.15612 0.74833 0.02981 0.0
O123 O 0.17919 0.75947 0.06066 0.0
H124 H 0.99408 0.81481 0.98605 0.0
H125 H 0.10642 0.86262 0.98526 0.0
N126 N 0.13029 0.84059 0.06515 0.0
N127 N 0.17665 0.86298 0.11362 0.0
C128 C 0.15433 0.83299 0.09711 0.0
C129 C 0.13721 0.87684 0.06152 0.0
C130 C 0.16608 0.89054 0.09118 0.0
C131 C 1.02967 0.8254 0.06984 0.0
O132 O 1.0296 0.85969 0.05953 0.0
H133 H 0.15497 0.80606 0.10801 0.0
H134 H 0.12106 0.89304 0.03956 0.0
O135 O 0.11758 0.76371 0.0177 0.0
H136 H 1.04191 0.88447 0.93114 0.0
H137 H 0.17717 0.91912 0.09629 0.0
Cu138 Cu 0.58062 0.63424 0.83296 0.0
N139 N 0.60118 0.66377 0.8055 0.0
N140 N 0.6354 0.71049 0.79285 0.0
C141 C 0.62676 0.69326 0.81777 0.0
C142 C 0.61437 0.69071 0.76378 0.0
C143 C 0.59348 0.66228 0.77155 0.0
O144 O 0.63402 0.60024 0.85698 0.0
C145 C 0.51617 0.69346 0.8312 0.0
O146 O 0.51034 0.67983 0.79951 0.0
H147 H 0.63926 0.7014 0.84466 0.0
H148 H 0.57403 0.6421 0.7535 0.0
N149 N 0.53837 0.59849 0.81093 0.0
N150 N 0.48956 0.55503 0.80521 0.0
C151 C 0.52116 0.57543 0.82706 0.0
C152 C 0.51678 0.59228 0.77769 0.0
C153 C 0.48693 0.56588 0.77414 0.0
C154 C 0.65098 0.57857 0.83632 0.0
O155 O 0.63181 0.58146 0.80359 0.0
H156 H 0.53056 0.57485 0.85448 0.0
H157 H 0.5213 0.60664 0.75733 0.0
O158 O 0.54694 0.67609 0.85427 0.0
H159 H 0.61358 0.69658 0.73841 0.0
H160 H 0.4646 0.55572 0.75034 0.0
Cu161 Cu 0.58572 0.6508 0.31502 0.0
N162 N 0.53943 0.61912 0.29219 0.0
N163 N 0.4908 0.57554 0.28642 0.0
C164 C 0.52139 0.59679 0.30831 0.0
C165 C 0.4892 0.5854 0.25525 0.0
C166 C 0.51898 0.61201 0.25884 0.0
O167 O 0.55519 0.69449 0.3375 0.0
C168 C 0.64178 0.58193 0.31538 0.0
O169 O 0.61613 0.58129 0.28389 0.0
H170 H 0.53144 0.59539 0.33568 0.0
H171 H 0.52546 0.62491 0.23846 0.0
N172 N 0.61111 0.67979 0.29045 0.0
N173 N 0.65345 0.72325 0.28284 0.0
C174 C 0.6415 0.70497 0.30556 0.0
C175 C 0.60315 0.6826 0.25687 0.0
C176 C 0.62893 0.70916 0.25215 0.0
C177 C 0.52175 0.7117 0.31631 0.0
O178 O 0.51128 0.69821 0.28433 0.0
H179 H 0.65471 0.70972 0.3329 0.0
H180 H 0.57975 0.66702 0.23712 0.0
O181 O 0.63531 0.61083 0.336 0.0
H182 H 0.4678 0.57435 0.23139 0.0
H183 H 0.62855 0.71809 0.22778 0.0
Cu184 Cu 0.8917 0.64505 0.50749 0.0
N185 N 0.92157 0.6783 0.49156 0.0
N186 N 0.93233 0.72679 0.46449 0.0
C187 C 0.90341 0.70352 0.46739 0.0
C188 C 0.97057 0.71469 0.48683 0.0
C189 C 0.96383 0.68488 0.5035 0.0
O190 O 0.83494 0.66913 0.50749 0.0
C191 C 0.91498 0.57661 0.47195 0.0
O192 O 0.95457 0.58757 0.48316 0.0
H193 H 0.86933 0.70526 0.45283 0.0
H194 H 0.98785 0.66977 0.52354 0.0
N195 N 0.9189 0.63322 0.55275 0.0
N196 N 0.9273 0.6088 0.60271 0.0
C197 C 0.90708 0.60659 0.56878 0.0
C198 C 0.94705 0.65338 0.57744 0.0
C199 C 0.95245 0.63831 0.60818 0.0
C200 C 0.82981 0.70499 0.5153 0.0
O201 O 0.86206 0.72608 0.51914 0.0
H202 H 0.88282 0.58695 0.55594 0.0
H203 H 0.96061 0.67875 0.57374 0.0
O204 O 0.88393 0.59787 0.47905 0.0
H205 H 1.00093 0.72737 0.49161 0.0
H206 H 0.97137 0.64981 0.63286 0.0
Cu207 Cu 0.5534 1.0102 0.58075 0.0
N208 N 0.58743 1.04324 0.57086 0.0
N209 N 0.63865 0.05913 0.55061 0.0
C210 C 0.62369 1.03092 0.56243 0.0
C211 C 0.6105 0.09057 0.55157 0.0
C212 C 0.57886 0.08068 0.56435 0.0
O213 O 0.59411 0.97198 0.60832 0.0
C214 C 0.50983 0.95824 0.52421 0.0
O215 O 0.53145 0.92905 0.54165 0.0
H216 H 0.63639 1.00091 0.56189 0.0
H217 H 0.55017 0.09864 0.56651 0.0
N218 N 0.52125 1.03663 0.60737 0.0
N219 N 0.48005 1.04089 0.64224 0.0
C220 C 0.48733 1.02351 0.61355 0.0
C221 C 0.53487 0.06448 0.63187 0.0
C222 C 0.5094 0.06733 0.6533 0.0
C223 C 0.58342 0.95035 0.62675 0.0
O224 O 0.542 0.94725 0.62176 0.0
H225 H 0.47095 0.99954 0.59867 0.0
H226 H 0.56408 0.07867 0.63597 0.0
O227 O 0.51464 0.9924 0.53739 0.0
H228 H 0.6112 0.11788 0.54171 0.0
H229 H 0.5154 0.08448 0.67729 0.0
Cu230 Cu 0.39889 0.72258 0.62809 0.0
N231 N 0.44821 0.74223 0.62521 0.0
N232 N 0.47704 0.7765 0.59643 0.0
C233 C 0.45404 0.74653 0.59516 0.0
C234 C 0.48737 0.79102 0.6291 0.0
C235 C 0.4698 0.76956 0.64692 0.0
O236 O 0.36553 0.76582 0.64399 0.0
C237 C 0.38811 0.67126 0.57071 0.0
O238 O 0.4286 0.6604 0.58753 0.0
H239 H 0.43443 0.73334 0.57149 0.0
H240 H 0.46687 0.77734 0.67216 0.0
N241 N 0.41332 0.68607 0.65998 0.0
N242 N 0.40344 0.63652 0.6855 0.0
C243 C 0.39271 0.65419 0.65628 0.0
C244 C 0.43809 0.68886 0.6927 0.0
C245 C 0.43181 0.65824 0.70867 0.0
C246 C 0.33158 0.7629 0.65238 0.0
O247 O 0.31504 0.72952 0.64678 0.0
H248 H 0.36735 0.64611 0.63344 0.0
H249 H 0.4569 0.7128 0.70458 0.0
O250 O 0.36751 0.6986 0.58386 0.0
H251 H 0.50062 0.81844 0.63811 0.0
H252 H 0.44502 0.65351 0.73551 0.0
Cu253 Cu 0.52564 0.38138 0.60554 0.0
N254 N 0.55383 0.34658 0.57927 0.0
N255 N 0.59152 0.33102 0.54142 0.0
C256 C 0.57159 0.35961 0.55735 0.0
C257 C 0.58651 0.29845 0.55422 0.0
C258 C 0.56306 0.30807 0.57738 0.0
O259 O 0.57632 0.40107 0.64287 0.0
C260 C 0.45938 0.39739 0.54423 0.0
O261 O 0.45088 0.3633 0.54965 0.0
H262 H 0.57086 0.38994 0.55396 0.0
H263 H 0.55399 0.28844 0.59205 0.0
N264 N 0.48858 0.36024 0.62698 0.0
N265 N 0.44736 0.3531 0.66149 0.0
C266 C 0.47502 0.3752 0.65426 0.0
C267 C 0.4693 0.32721 0.61728 0.0
C268 C 0.44419 0.32284 0.63813 0.0
C269 C 0.59991 0.37472 0.66169 0.0
O270 O 0.58775 0.33959 0.65476 0.0
H271 H 0.48489 0.40204 0.66837 0.0
H272 H 0.47317 0.30745 0.59634 0.0
O273 O 0.48942 0.41403 0.56756 0.0
H274 H 0.5988 0.2697 0.54729 0.0
H275 H 0.42579 0.29855 0.63662 0.0
Nd276 Nd 0.36714 0.3825 0.32988 0.0
Nd277 Nd 0.30495 0.43821 0.3358 0.0
C278 C 0.41897 0.32 0.3218 0.0
C279 C 0.41664 0.2852 0.29844 0.0
C280 C 0.40829 0.2879 0.26335 0.0
C281 C 0.40102 0.25508 0.24114 0.0
C282 C 0.40194 0.21901 0.25355 0.0
C283 C 0.41224 0.216 0.28875 0.0
C284 C 0.41985 0.24887 0.31107 0.0
C285 C 0.38782 0.41601 0.3972 0.0
C286 C 0.28028 0.35304 0.33846 0.0
C287 C 0.2649 0.50184 0.3574 0.0
C288 C 0.28096 0.52881 0.38733 0.0
C289 C 0.32156 0.5198 0.4111 0.0
C290 C 0.33752 0.54491 0.43957 0.0
C291 C 0.31343 0.57989 0.44479 0.0
C292 C 0.27242 0.58866 0.42116 0.0
C293 C 0.25637 0.56334 0.39257 0.0
C294 C 0.27872 0.40593 0.26842 0.0
C295 C 0.38911 0.46362 0.3177 0.0
O296 O 0.41928 0.35284 0.30962 0.0
O297 O 0.39409 0.32256 0.34152 0.0
O298 O 0.41411 0.41091 0.37886 0.0
O299 O 0.35134 0.40577 0.37904 0.0
O300 O 0.3096 0.34508 0.32204 0.0
O301 O 0.27533 0.38861 0.35146 0.0
O302 O 0.26064 0.4673 0.36425 0.0
O303 O 0.28371 0.501 0.33362 0.0
O304 O 0.25348 0.41648 0.2873 0.0
O305 O 0.31755 0.41304 0.28504 0.0
O306 O 0.36282 0.4735 0.33665 0.0
O307 O 0.39222 0.42753 0.30611 0.0
H308 H 0.40546 0.31551 0.25283 0.0
H309 H 0.39196 0.25839 0.21402 0.0
H310 H 0.41267 0.18854 0.29881 0.0
H311 H 0.42643 0.24617 0.33809 0.0
H312 H 0.34095 0.49319 0.40766 0.0
H313 H 0.36867 0.53677 0.45769 0.0
H314 H 0.25309 0.61532 0.42456 0.0
H315 H 0.2249 0.57075 0.37455 0.0
Nd316 Nd 0.81191 0.37171 0.3416 0.0
Nd317 Nd 0.855 0.41995 0.29658 0.0
C318 C 0.763 0.34774 0.37518 0.0
C319 C 0.73704 0.35205 0.39988 0.0
C320 C 0.6916 0.35083 0.38805 0.0
C321 C 0.66753 0.34874 0.41077 0.0
C322 C 0.6882 0.34766 0.44607 0.0
C323 C 0.73357 0.34942 0.45796 0.0
C324 C 0.75763 0.35164 0.43525 0.0
C325 C 0.88642 0.32969 0.33002 0.0
C326 C 0.87396 0.44243 0.37749 0.0
C327 C 0.90037 0.44689 0.26179 0.0
C328 C 0.92613 0.4467 0.23739 0.0
C329 C 0.97046 0.43302 0.24571 0.0
C330 C 0.99515 0.43758 0.22393 0.0
C331 C 0.97626 0.45617 0.1934 0.0
C332 C 0.93192 0.46961 0.18512 0.0
C333 C 0.90725 0.4649 0.20675 0.0
C334 C 0.78089 0.46226 0.30936 0.0
C335 C 0.79988 0.34413 0.26196 0.0
O336 O 0.74656 0.36102 0.34475 0.0
O337 O 0.80551 0.34757 0.387 0.0
O338 O 0.86327 0.31825 0.34718 0.0
O339 O 0.87034 0.3634 0.32158 0.0
O340 O 0.84294 0.4213 0.37811 0.0
O341 O 0.88987 0.44084 0.3514 0.0
O342 O 0.91834 0.43428 0.29236 0.0
O343 O 0.8583 0.44394 0.24995 0.0
O344 O 0.80433 0.4742 0.29281 0.0
O345 O 0.79693 0.42839 0.31711 0.0
O346 O 0.82877 0.36756 0.26107 0.0
O347 O 0.78225 0.34613 0.28715 0.0
H348 H 0.67473 0.35013 0.361 0.0
H349 H 0.63282 0.34663 0.40052 0.0
H350 H 0.75059 0.34878 0.48493 0.0
H351 H 0.79262 0.3519 0.44541 0.0
H352 H 0.98633 0.41952 0.26936 0.0
H353 H 1.02938 0.42738 0.23142 0.0
H354 H 0.91621 0.48386 0.16182 0.0
H355 H 0.87343 0.47644 0.19982 0.0
Nd356 Nd 0.82714 0.9161 0.34287 0.0
Nd357 Nd 0.87228 0.86731 0.30457 0.0
C358 C 0.80604 0.96678 0.38816 0.0
C359 C 0.78465 0.98065 0.41397 0.0
C360 C 0.77286 0.95553 0.43318 0.0
C361 C 0.75281 0.97048 0.45784 0.0
C362 C 0.74465 1.01061 0.46352 0.0
C363 C 0.75674 1.03546 0.44421 0.0
C364 C 0.77662 1.02055 0.41965 0.0
C365 C 0.79899 0.93265 0.27546 0.0
C366 C 0.77989 0.83981 0.31075 0.0
C367 C 0.89595 0.81977 0.25821 0.0
C368 C 0.91391 0.82019 0.22999 0.0
C369 C 0.92985 0.85349 0.22416 0.0
C370 C 0.94724 0.85311 0.19717 0.0
C371 C 0.94888 0.81943 0.17582 0.0
C372 C 0.93224 0.78637 0.18152 0.0
C373 C 0.91493 0.78676 0.20852 0.0
C374 C 0.89762 0.84763 0.37145 0.0
C375 C 0.91681 0.94565 0.33422 0.0
O376 O 0.83972 0.94118 0.39595 0.0
O377 O 0.78221 0.96337 0.35641 0.0
O378 O 0.77335 0.92855 0.29323 0.0
O379 O 0.83827 0.92639 0.29296 0.0
O380 O 0.78365 0.86611 0.33656 0.0
O381 O 0.807 0.83854 0.29227 0.0
O382 O 0.85643 0.83617 0.25362 0.0
O383 O 0.92198 0.8277 0.28865 0.0
O384 O 0.92432 0.85092 0.35438 0.0
O385 O 0.85914 0.85627 0.35354 0.0
O386 O 0.91199 0.91942 0.3084 0.0
O387 O 0.89192 0.9457 0.35427 0.0
H388 H 0.77886 0.9246 0.42895 0.0
H389 H 0.74291 0.95072 0.47196 0.0
H390 H 0.7508 0.06643 0.44813 0.0
H391 H 0.78579 1.04025 0.40501 0.0
H392 H 0.92903 0.87958 0.24055 0.0
H393 H 0.95998 0.87892 0.19326 0.0
H394 H 0.93243 0.76032 0.16501 0.0
H395 H 0.90236 0.76096 0.21267 0.0
Nd396 Nd 0.36748 0.93023 0.3058 0.0
Nd397 Nd 0.31868 0.88523 0.33046 0.0
C398 C 0.38698 0.97871 0.2691 0.0
C399 C 0.35702 0.99807 0.23977 0.0
C400 C 0.31207 1.00161 0.23552 0.0
C401 C 0.28249 1.01464 0.20556 0.0
C402 C 0.29732 1.02473 0.17937 0.0
C403 C 0.34244 1.02259 0.18419 0.0
C404 C 0.3721 1.00921 0.21417 0.0
C405 C 0.41383 0.85888 0.32305 0.0
C406 C 0.28968 0.88343 0.25144 0.0
C407 C 0.29548 0.8425 0.36936 0.0
C408 C 0.31904 0.83678 0.40536 0.0
C409 C 0.33389 0.79948 0.41573 0.0
C410 C 0.36464 0.79409 0.44742 0.0
C411 C 0.3816 0.82594 0.46897 0.0
C412 C 0.36452 0.86321 0.45946 0.0
C413 C 0.33359 0.86861 0.42798 0.0
C414 C 0.27294 0.95646 0.31278 0.0
C415 C 0.39756 0.93028 0.38525 0.0
O416 O 0.38002 0.98908 0.29834 0.0
O417 O 0.39349 0.94135 0.26418 0.0
O418 O 0.4308 0.89159 0.32909 0.0
O419 O 0.37336 0.86435 0.3073 0.0
O420 O 0.31082 0.91457 0.25839 0.0
O421 O 0.2916 0.86152 0.27583 0.0
O422 O 0.3164 0.82782 0.3479 0.0
O423 O 0.2773 0.87724 0.36261 0.0
O424 O 0.25615 0.9237 0.30529 0.0
O425 O 0.31319 0.95089 0.32912 0.0
O426 O 0.37538 0.89986 0.37834 0.0
O427 O 0.39607 0.95206 0.3609 0.0
H428 H 0.29967 0.99287 0.25488 0.0
H429 H 0.24801 1.01516 0.20234 0.0
H430 H 0.35468 1.03037 0.16439 0.0
H431 H 0.40662 1.00641 0.2169 0.0
H432 H 0.32314 0.77456 0.39875 0.0
H433 H 0.37554 0.76493 0.4548 0.0
H434 H 0.37636 0.88829 0.47573 0.0
H435 H 0.32293 0.89784 0.42071 0.0
Nd436 Nd 0.2919 0.84869 0.83269 0.0
Nd437 Nd 0.35052 0.90036 0.83999 0.0
C438 C 0.23465 0.80346 0.83792 0.0
C439 C 0.22994 0.78426 0.86638 0.0
C440 C 0.23717 0.80363 0.89872 0.0
C441 C 0.23306 0.7853 0.92571 0.0
C442 C 0.22189 0.74712 0.92105 0.0
C443 C 0.21605 0.72725 0.88893 0.0
C444 C 0.22003 0.74577 0.86174 0.0
C445 C 0.37412 0.8112 0.83794 0.0
C446 C 0.33484 0.88918 0.90815 0.0
C447 C 0.41198 0.93975 0.83377 0.0
C448 C 0.41755 0.95778 0.805 0.0
C449 C 0.45526 0.94717 0.79523 0.0
C450 C 0.45949 0.9611 0.76615 0.0
C451 C 0.42613 0.98602 0.7465 0.0
C452 C 0.38886 0.99752 0.75667 0.0
C453 C 0.38438 0.98322 0.7856 0.0
C454 C 0.26988 0.94068 0.83638 0.0
C455 C 0.30176 0.86303 0.76339 0.0
O456 O 0.22819 0.84102 0.83937 0.0
O457 O 0.2685 0.79075 0.82808 0.0
O458 O 0.33911 0.80433 0.81373 0.0
O459 O 0.36636 0.83957 0.8576 0.0
O460 O 0.30045 0.87433 0.88717 0.0
O461 O 0.36711 0.89444 0.89682 0.0
O462 O 0.41424 0.90219 0.83102 0.0
O463 O 0.38066 0.95517 0.84582 0.0
O464 O 0.30654 0.9483 0.85827 0.0
O465 O 0.27582 0.91105 0.8169 0.0
O466 O 0.33773 0.87636 0.78378 0.0
O467 O 0.2713 0.85697 0.77633 0.0
H468 H 0.24537 0.83317 0.90314 0.0
H469 H 0.23705 0.80161 0.95 0.0
H470 H 0.20777 0.69773 0.88473 0.0
H471 H 0.21508 0.73017 0.83706 0.0
H472 H 0.48109 0.9275 0.80974 0.0
H473 H 0.48882 0.95238 0.75891 0.0
H474 H 0.36291 1.01681 0.74183 0.0
H475 H 0.35469 0.99155 0.79236 0.0
Nd476 Nd 0.2859 0.40174 0.79209 0.0
Nd477 Nd 0.35397 0.36315 0.83764 0.0
C478 C 0.23816 0.44772 0.74542 0.0
C479 C 0.25431 0.47236 0.72617 0.0
C480 C 0.29186 0.45935 0.71654 0.0
C481 C 0.31407 0.48516 0.70623 0.0
C482 C 0.29921 0.52443 0.70545 0.0
C483 C 0.26038 0.53708 0.71329 0.0
C484 C 0.23804 0.51118 0.72357 0.0
C485 C 0.26947 0.4025 0.85508 0.0
C486 C 0.37658 0.44509 0.82381 0.0
C487 C 0.39842 0.31895 0.88695 0.0
C488 C 0.38215 0.29517 0.90698 0.0
C489 C 0.34498 0.30861 0.91701 0.0
C490 C 0.3259 0.28422 0.93176 0.0
C491 C 0.34322 0.24577 0.93637 0.0
C492 C 0.3809 0.2326 0.92695 0.0
C493 C 0.40025 0.25713 0.91245 0.0
C494 C 0.37549 0.36424 0.77747 0.0
C495 C 0.26426 0.31857 0.79904 0.0
O496 O 0.24484 0.41055 0.73908 0.0
O497 O 0.24791 0.45765 0.77797 0.0
O498 O 0.24164 0.39559 0.8256 0.0
O499 O 0.30518 0.409 0.8509 0.0
O500 O 0.34074 0.44133 0.79832 0.0
O501 O 0.38783 0.41982 0.84734 0.0
O502 O 0.39105 0.35631 0.89183 0.0
O503 O 0.39044 0.30746 0.85475 0.0
O504 O 0.40234 0.36704 0.8079 0.0
O505 O 0.33789 0.35824 0.77891 0.0
O506 O 0.29735 0.32274 0.82698 0.0
O507 O 0.25578 0.34422 0.77632 0.0
H508 H 0.30577 0.42971 0.71913 0.0
H509 H 0.34438 0.47478 0.70104 0.0
H510 H 0.24829 0.56728 0.71277 0.0
H511 H 0.2096 0.52186 0.73143 0.0
H512 H 0.32969 0.33757 0.91236 0.0
H513 H 0.29653 0.29502 0.93825 0.0
H514 H 0.39502 0.20312 0.93039 0.0
H515 H 0.42851 0.24605 0.90449 0.0
Nd516 Nd 0.86054 0.41346 0.82003 0.0
Nd517 Nd 0.81681 0.37252 0.85448 0.0
C518 C 0.89163 0.45555 0.78469 0.0
C519 C 0.8873 0.48146 0.75731 0.0
C520 C 0.8706 0.46942 0.72264 0.0
C521 C 0.87446 0.49132 0.69727 0.0
C522 C 0.89544 0.52548 0.70604 0.0
C523 C 0.90999 0.53845 0.74061 0.0
C524 C 0.9061 0.51664 0.76591 0.0
C525 C 0.90077 0.33893 0.83234 0.0
C526 C 0.76487 0.38412 0.77476 0.0
C527 C 0.77704 0.32412 0.87745 0.0
C528 C 0.76578 0.31407 0.90738 0.0
C529 C 0.79521 0.29051 0.93138 0.0
C530 C 0.78257 0.27698 0.95715 0.0
C531 C 0.74028 0.28679 0.95965 0.0
C532 C 0.71102 0.31082 0.93603 0.0
C533 C 0.72364 0.3243 0.91012 0.0
C534 C 0.7936 0.45207 0.8606 0.0
C535 C 0.90943 0.40131 0.90066 0.0
O536 O 0.88239 0.46924 0.81266 0.0
O537 O 0.88408 0.41941 0.77621 0.0
O538 O 0.9206 0.36968 0.8366 0.0
O539 O 0.85984 0.34777 0.82127 0.0
O540 O 0.79455 0.40772 0.77614 0.0
O541 O 0.77049 0.36305 0.80058 0.0
O542 O 0.8177 0.31807 0.87771 0.0
O543 O 0.75732 0.35536 0.86279 0.0
O544 O 0.80345 0.42946 0.88543 0.0
O545 O 0.7987 0.43261 0.83435 0.0
O546 O 0.88257 0.37454 0.89631 0.0
O547 O 0.90252 0.42595 0.8767 0.0
H548 H 0.85613 0.44234 0.71511 0.0
H549 H 0.86279 0.48062 0.67087 0.0
H550 H 0.92543 0.56507 0.74817 0.0
H551 H 0.91952 0.52654 0.79237 0.0
H552 H 0.82762 0.28142 0.92964 0.0
H553 H 0.80545 0.25758 0.97437 0.0
H554 H 0.67818 0.31865 0.93727 0.0
H555 H 0.69998 0.34186 0.89166 0.0
Nd556 Nd 0.80533 0.87415 0.76669 0.0
Nd557 Nd 0.77464 0.9245 0.8197 0.0
C558 C 0.82085 0.8428 0.71047 0.0
C559 C 0.79965 0.81799 0.68044 0.0
C560 C 0.7629 0.83212 0.65475 0.0
C561 C 0.74771 0.81018 0.62406 0.0
C562 C 0.7689 0.77383 0.61872 0.0
C563 C 0.80345 0.75868 0.64549 0.0
C564 C 0.81873 0.7806 0.67598 0.0
C565 C 0.85377 0.86237 0.83323 0.0
C566 C 0.7392 0.83858 0.79652 0.0
C567 C 0.76535 0.96464 0.87505 0.0
C568 C 0.78699 0.9889 0.90569 0.0
C569 C 0.8179 0.97256 0.93402 0.0
C570 C 0.83268 0.99472 0.96475 0.0
C571 C 0.81688 1.03364 0.96781 0.0
C572 C 0.7873 1.05026 0.93909 0.0
C573 C 0.77256 1.02815 0.90841 0.0
C574 C 0.71329 0.92113 0.75647 0.0
C575 C 0.84702 0.95739 0.78918 0.0
O576 O 0.80269 0.87784 0.71318 0.0
O577 O 0.83609 0.82688 0.73956 0.0
O578 O 0.84448 0.83446 0.80976 0.0
O579 O 0.83893 0.89398 0.82068 0.0
O580 O 0.74883 0.84163 0.76822 0.0
O581 O 0.75275 0.86373 0.82304 0.0
O582 O 0.77835 0.92774 0.87403 0.0
O583 O 0.75434 0.97924 0.84524 0.0
O584 O 0.70379 0.92325 0.78484 0.0
O585 O 0.75334 0.9236 0.76234 0.0
O586 O 0.82169 0.96491 0.80947 0.0
O587 O 0.84736 0.924 0.77119 0.0
H588 H 0.74723 0.86082 0.65757 0.0
H589 H 0.72129 0.82259 0.60372 0.0
H590 H 0.82128 0.73122 0.64189 0.0
H591 H 0.8471 0.7691 0.69533 0.0
H592 H 0.82954 0.9423 0.93292 0.0
H593 H 0.85543 0.98113 0.98645 0.0
H594 H 0.7736 0.07987 0.94079 0.0
H595 H 0.74825 1.04139 0.88726 0.0
C596 C 0.20029 0.3024 0.3682 0.0
C597 C 0.20341 0.26394 0.35436 0.0
C598 C 0.22454 0.3307 0.36254 0.0
C599 C 0.25362 0.32222 0.34287 0.0
H600 H 0.17849 0.31097 0.38342 0.0
H601 H 0.22058 0.35956 0.37403 0.0
S602 S 0.27525 0.2257 0.30144 0.0
N603 N 0.2389 0.21896 0.32036 0.0
N604 N 0.28418 0.27164 0.30973 0.0
C605 C 0.25711 0.28382 0.32883 0.0
C606 C 0.23216 0.25498 0.33448 0.0
C607 C 0.9924 0.29162 0.30865 0.0
C608 C 0.99289 0.25088 0.30781 0.0
C609 C 0.95726 0.31717 0.31389 0.0
C610 C 0.92095 0.30334 0.31907 0.0
H611 H 1.02022 0.30417 0.30633 0.0
H612 H 0.95955 0.34795 0.31549 0.0
S613 S 0.90244 0.19983 0.31503 0.0
N614 N 0.95088 0.1986 0.30945 0.0
N615 N 0.88574 0.24591 0.31951 0.0
C616 C 0.91988 0.26279 0.31648 0.0
C617 C 0.95539 0.23684 0.31079 0.0
C618 C 0.97956 1.03467 0.37358 0.0
C619 C 1.0039 1.03947 0.35142 0.0
C620 C 0.9522 1.00447 0.36792 0.0
C621 C 0.94768 0.9769 0.33989 0.0
H622 H 0.98111 0.05487 0.39543 0.0
H623 H 0.93423 1.00291 0.38583 0.0
S624 S 1.00545 0.97479 0.27462 0.0
N625 N 1.02233 1.01262 0.30055 0.0
N626 N 0.97121 0.95646 0.28989 0.0
C627 C 0.97212 0.98108 0.31762 0.0
C628 C 0.99993 1.01206 0.32332 0.0
C629 C 0.17215 1.03111 0.29748 0.0
C630 C 0.18925 0.06555 0.31392 0.0
C631 C 0.19952 0.99652 0.29617 0.0
C632 C 0.24529 0.99468 0.31115 0.0
H633 H 0.13723 1.03021 0.28739 0.0
H634 H 0.18439 0.97061 0.28433 0.0
S635 S 0.30686 0.0779 0.35381 0.0
N636 N 0.25548 0.09607 0.34311 0.0
N637 N 0.30623 1.03193 0.34022 0.0
C638 C 0.26283 1.02949 0.32584 0.0
C639 C 0.23506 0.06451 0.32736 0.0
C640 C 0.19603 1.03332 0.84734 0.0
C641 C 0.15947 1.03176 0.8182 0.0
C642 C 0.23062 1.0034 0.85318 0.0
C643 C 0.23047 0.97019 0.83039 0.0
H644 H 0.1988 0.05846 0.86516 0.0
H645 H 0.25829 1.00679 0.87564 0.0
S646 S 0.14037 0.9495 0.75224 0.0
N647 N 0.12411 0.99201 0.76763 0.0
N648 N 0.18849 0.93673 0.77885 0.0
C649 C 0.19328 0.96747 0.80208 0.0
C650 C 0.15817 0.99789 0.79598 0.0
C651 C 0.17898 0.24665 0.75693 0.0
C652 C 0.16998 0.23194 0.78445 0.0
C653 C 0.20961 0.27392 0.76189 0.0
C654 C 0.23376 0.28764 0.79467 0.0
H655 H 0.16209 0.23715 0.73103 0.0
H656 H 0.2144 0.28436 0.73966 0.0
S657 S 0.22247 0.26047 0.87584 0.0
N658 N 0.18765 0.2352 0.84624 0.0
N659 N 0.24586 0.28488 0.85532 0.0
C660 C 0.22578 0.27297 0.82252 0.0
C661 C 0.19395 0.24561 0.81752 0.0
C662 C 0.93018 0.23233 0.80835 0.0
C663 C 0.97544 0.22617 0.82522 0.0
C664 C 0.90551 0.26775 0.81214 0.0
C665 C 0.925 0.29924 0.83255 0.0
H666 H 0.91376 0.20982 0.79091 0.0
H667 H 0.87142 0.27104 0.79759 0.0
S668 S 1.04138 0.29809 0.88462 0.0
N669 N 1.03768 0.25448 0.86513 0.0
N670 N 0.99207 0.3208 0.87207 0.0
C671 C 0.96976 0.29296 0.85089 0.0
C672 C 0.99472 0.25664 0.84735 0.0
C673 C 0.92548 1.00515 0.75618 0.0
C674 C 0.937 1.03759 0.77896 0.0
C675 C 0.8966 0.98003 0.75985 0.0
C676 C 0.87709 0.98594 0.78639 0.0
H677 H 0.93939 0.99868 0.73536 0.0
H678 H 0.88947 0.95564 0.74139 0.0
S679 S 0.89529 0.06703 0.85294 0.0
N680 N 0.92574 0.07455 0.82909 0.0
N681 N 0.87169 1.02739 0.83602 0.0
C682 C 0.88807 1.01841 0.80939 0.0
C683 C 0.91792 1.04404 0.80576 0.0
C684 C 0.32185 0.14995 0.20397 0.0
C685 C 0.33155 0.14436 0.17292 0.0
C686 C 0.34808 0.17071 0.23181 0.0
C687 C 0.38462 0.18672 0.22924 0.0
H688 H 0.29183 0.14094 0.20572 0.0
H689 H 0.33727 0.1774 0.25423 0.0
S690 S 0.42838 0.17377 0.15563 0.0
N691 N 0.38343 0.15147 0.14272 0.0
N692 N 0.43314 0.19031 0.19532 0.0
C693 C 0.39734 0.17754 0.19964 0.0
C694 C 0.37068 0.15628 0.17134 0.0
C695 C 1.0242 0.50324 0.13472 0.0
C696 C 1.05135 0.47296 0.12475 0.0
C697 C 1.00035 0.49777 0.15701 0.0
C698 C 1.00249 0.4617 0.17022 0.0
H699 H 1.02159 0.53145 0.12532 0.0
H700 H 0.98024 0.52209 0.16413 0.0
S701 S 1.06427 0.37174 0.14874 0.0
N702 N 0.07574 0.40463 0.12775 0.0
N703 N 1.03155 0.39462 0.16948 0.0
C704 C 1.02885 0.43106 0.15992 0.0
C705 C 1.05303 0.43657 0.13726 0.0
C706 C 0.79838 1.01174 0.21919 0.0
C707 C 0.75454 1.01624 0.19896 0.0
C708 C 0.81329 0.98301 0.24248 0.0
C709 C 0.78484 0.95792 0.24671 0.0
H710 H 0.821 1.03162 0.21822 0.0
H711 H 0.84681 0.98182 0.2585 0.0
S712 S 0.6691 0.95315 0.19631 0.0
N713 N 0.6845 0.98946 0.18166 0.0
N714 N 0.71223 0.93651 0.22636 0.0
C715 C 0.74168 0.9606 0.22542 0.0
C716 C 0.72659 0.9895 0.20137 0.0
C717 C 0.24113 0.88786 0.15596 0.0
C718 C 0.20526 0.86594 0.14807 0.0
C719 C 0.26854 0.89264 0.18932 0.0
C720 C 0.26143 0.87549 0.21624 0.0
H721 H 0.24812 0.90149 0.13613 0.0
H722 H 0.29549 0.91011 0.194 0.0
S723 S 0.17075 0.81679 0.20957 0.0
N724 N 0.16303 0.82814 0.17025 0.0
N725 N 0.21524 0.83632 0.23291 0.0
C726 C 0.22589 0.85319 0.20876 0.0
C727 C 0.19766 0.84859 0.17471 0.0
C728 C 0.36306 0.9515 0.99066 0.0
C729 C 0.32273 0.97244 0.98972 0.0
C730 C 0.36675 0.92245 0.96544 0.0
C731 C 0.33003 0.91218 0.93897 0.0
H732 H 0.39248 0.95841 0.01032 0.0
H733 H 0.39877 0.90894 0.96598 0.0
S734 S 0.21605 0.95511 0.92534 0.0
N735 N 0.24478 0.97907 0.95954 0.0
N736 N 0.2515 0.92296 0.91434 0.0
C737 C 0.28905 0.93063 0.93901 0.0
C738 C 0.2854 0.96112 0.96383 0.0
C739 C 0.26995 0.437 0.94726 0.0
C740 C 0.23106 0.42491 0.95016 0.0
C741 C 0.28284 0.42895 0.9172 0.0
C742 C 0.2573 0.40877 0.88807 0.0
H743 H 0.29087 0.45299 0.9685 0.0
H744 H 0.31271 0.43937 0.91661 0.0
S745 S 0.15361 0.3688 0.88186 0.0
N746 N 0.16799 0.39022 0.92059 0.0
N747 N 0.19193 0.37526 0.86486 0.0
C748 C 0.21892 0.39572 0.8908 0.0
C749 C 0.20594 0.40364 0.92147 0.0
C750 C 0.67766 0.22858 0.99789 0.0
C751 C 0.70502 0.22504 0.03148 0.0
C752 C 0.68798 0.25035 0.97527 0.0
C753 C 0.72613 0.26949 0.98535 0.0
H754 H 0.64892 0.21301 0.9886 0.0
H755 H 0.66708 0.25051 0.9492 0.0
S756 S 0.8062 0.27422 0.07134 0.0
N757 N 0.77052 0.2459 0.07423 0.0
N758 N 0.78881 0.28736 0.03189 0.0
C759 C 0.75224 0.26852 0.01936 0.0
C760 C 0.74193 0.24628 0.04242 0.0
C761 C 0.94594 0.8209 0.90614 0.0
C762 C 0.96269 0.85434 0.92487 0.0
C763 C 0.90944 0.82342 0.87705 0.0
C764 C 0.88842 0.85947 0.86621 0.0
H765 H 0.96246 0.79286 0.9131 0.0
H766 H 0.89854 0.79712 0.8624 0.0
S767 S 0.91757 0.95518 0.9095 0.0
N768 N 0.95435 0.92394 0.93244 0.0
N769 N 0.8852 0.92918 0.87869 0.0
C770 C 0.90361 0.89295 0.88618 0.0
C771 C 0.94098 0.89025 0.91527 0.0
C772 C 0.19855 0.37745 0.18132 0.0
C773 C 0.21662 0.38732 0.15651 0.0
C774 C 0.21937 0.38296 0.21673 0.0
C775 C 0.2602 0.39798 0.22999 0.0
H776 H 0.16705 0.36618 0.17344 0.0
H777 H 0.20283 0.37556 0.23403 0.0
S778 S 0.32381 0.42721 0.17712 0.0
N779 N 0.27939 0.41251 0.14869 0.0
N780 N 0.31883 0.42163 0.21491 0.0
C781 C 0.27966 0.40693 0.20574 0.0
C782 C 0.25791 0.40199 0.16935 0.0
C783 C 0.22199 0.73628 0.01025 0.0
C784 C 0.17817 0.73039 0.00487 0.0
C785 C 0.23828 0.73664 0.98263 0.0
C786 C 0.21132 0.73093 0.94896 0.0
H787 H 0.24234 0.74525 0.03534 0.0
H788 H 0.27071 0.74539 0.98747 0.0
S789 S 0.09871 0.7021 0.92255 0.0
N790 N 0.11182 0.70888 0.96442 0.0
N791 N 0.14204 0.71055 0.91241 0.0
C792 C 0.16991 0.7187 0.94377 0.0
C793 C 0.15345 0.71808 0.97189 0.0
C794 C 0.2923 0.15627 0.94418 0.0
C795 C 0.28085 0.16467 0.97452 0.0
C796 C 0.31204 0.18278 0.93196 0.0
C797 C 0.32102 0.21885 0.94946 0.0
H798 H 0.28688 0.12863 0.93003 0.0
H799 H 0.3205 0.1749 0.90863 0.0
S800 S 0.29628 0.25599 0.02929 0.0
N801 N 0.27873 0.21265 0.02114 0.0
N802 N 0.31616 0.26216 0.99814 0.0
C803 C 0.30871 0.2282 0.97924 0.0
C804 C 0.28858 0.20121 0.99177 0.0
C805 C 1.02825 0.40775 0.95799 0.0
C806 C 1.02878 0.3928 0.98865 0.0
C807 C 0.98959 0.41172 0.93014 0.0
C808 C 0.94967 0.40046 0.93137 0.0
H809 H 1.0577 0.41747 0.95579 0.0
H810 H 0.99119 0.42317 0.90725 0.0
S811 S 0.93331 0.35879 0.0052 0.0
N812 N 0.9853 0.36645 0.01795 0.0
N813 N 0.9139 0.37309 0.96613 0.0
C814 C 0.95007 0.38497 0.96168 0.0
C815 C 0.98909 0.38142 0.99005 0.0
C816 C 0.82128 0.06226 0.05969 0.0
C817 C 0.82708 0.10184 0.06287 0.0
C818 C 0.82107 1.03966 0.02961 0.0
C819 C 0.82677 0.05573 1.00159 0.0
H820 H 0.81376 1.04912 0.07955 0.0
H821 H 0.81343 1.01006 0.02749 0.0
S822 S 0.85208 0.15577 0.99938 0.0
N823 N 0.84518 0.1546 0.03717 0.0
N824 N 0.84501 0.11199 0.98087 0.0
C825 C 0.83657 0.09428 0.00559 0.0
C826 C 0.83679 0.11731 0.03618 0.0
C827 C 0.97413 0.84934 0.09912 0.0
C828 C 1.00715 0.82109 0.09509 0.0
C829 C 0.95495 0.84823 0.12497 0.0
C830 C 0.96818 0.81888 0.14774 0.0
H831 H 0.96332 0.87282 0.08243 0.0
H832 H 0.92975 0.87066 0.1273 0.0
S833 S 1.05424 0.73875 0.14895 0.0
N834 N 1.05258 0.76305 0.11633 0.0
N835 N 1.0167 0.76131 0.1652 0.0
C836 C 1.00078 0.79018 0.14383 0.0
C837 C 1.02022 0.79119 0.11741 0.0
C838 C 0.24293 1.02306 0.08409 0.0
C839 C 0.20764 1.0512 0.08084 0.0
C840 C 0.27192 1.01506 0.11602 0.0
C841 C 0.26591 1.03422 0.14602 0.0
H842 H 0.24778 1.00654 0.06193 0.0
H843 H 0.29891 0.99325 0.11725 0.0
S844 S 0.17451 0.10665 0.15134 0.0
N845 N 0.16517 0.0953 0.11012 0.0
N846 N 0.21975 0.08056 0.17052 0.0
C847 C 0.22902 0.06077 0.14323 0.0
C848 C 0.19957 0.0689 0.11055 0.0
C849 C 0.80543 0.27813 0.18439 0.0
C850 C 0.79463 0.24273 0.19138 0.0
C851 C 0.80476 0.31121 0.20644 0.0
C852 C 0.79315 0.31046 0.23648 0.0
H853 H 0.81462 0.28045 0.16166 0.0
H854 H 0.81424 0.33746 0.20013 0.0
S855 S 0.76271 0.22476 0.26697 0.0
N856 N 0.77202 0.20889 0.23068 0.0
N857 N 0.7709 0.27089 0.27217 0.0
C858 C 0.78161 0.27535 0.24358 0.0
C859 C 0.78239 0.24158 0.22109 0.0
C860 C 0.68348 0.74464 0.77097 0.0
C861 C 0.66216 0.74226 0.79563 0.0
C862 C 0.7082 0.77543 0.77191 0.0
C863 C 0.71337 0.80577 0.79767 0.0
H864 H 0.68133 0.72227 0.75061 0.0
H865 H 0.72352 0.77523 0.75203 0.0
S866 S 0.66361 0.81469 0.86817 0.0
N867 N 0.64732 0.77414 0.84648 0.0
N868 N 0.69433 0.83144 0.84855 0.0
C869 C 0.69261 0.80379 0.82278 0.0
C870 C 0.66704 0.77232 0.82172 0.0
C871 C 0.472 0.73508 0.86648 0.0
C872 C 0.48651 0.72846 0.83729 0.0
C873 C 0.43769 0.76402 0.86814 0.0
C874 C 0.41666 0.78739 0.84071 0.0
H875 H 0.48541 0.71646 0.88728 0.0
H876 H 0.42587 0.76651 0.89013 0.0
S877 S 0.44556 0.78549 0.76055 0.0
N878 N 0.47949 0.75143 0.78199 0.0
N879 N 0.4154 0.80384 0.78502 0.0
C880 C 0.43253 0.7824 0.81248 0.0
C881 C 0.46731 0.75362 0.81084 0.0
C882 C 0.4184 0.52751 0.79186 0.0
C883 C 0.46181 0.52913 0.81253 0.0
C884 C 0.39122 0.50151 0.79674 0.0
C885 C 0.4059 0.47508 0.82243 0.0
H886 H 0.4052 0.5466 0.77147 0.0
H887 H 0.35835 0.50187 0.77966 0.0
S888 S 0.51708 0.46695 0.88392 0.0
N889 N 0.5182 0.50183 0.86024 0.0
N890 N 0.46747 0.45279 0.8693 0.0
C891 C 0.44913 0.47671 0.84382 0.0
C892 C 0.47688 0.50363 0.83893 0.0
C893 C 0.71241 0.53631 0.82184 0.0
C894 C 0.69094 0.54979 0.84648 0.0
C895 C 0.74637 0.50629 0.82741 0.0
C896 C 0.76122 0.48757 0.858 0.0
H897 H 0.70227 0.54857 0.7973 0.0
H898 H 0.76033 0.49693 0.80693 0.0
S899 S 0.71855 0.51248 0.93213 0.0
N900 N 0.68904 0.54263 0.90373 0.0
N901 N 0.75273 0.48631 0.91433 0.0
C902 C 0.74139 0.50157 0.88358 0.0
C903 C 0.70651 0.5325 0.87785 0.0
C904 C 0.66876 0.51173 0.30832 0.0
C905 C 0.67762 0.54915 0.32377 0.0
C906 C 0.70218 0.4821 0.30693 0.0
C907 C 0.74643 0.48843 0.32049 0.0
H908 H 0.63542 0.50588 0.29532 0.0
H909 H 0.6932 0.45505 0.29278 0.0
S910 S 0.78831 0.57946 0.3664 0.0
N911 N 0.73486 0.58918 0.35547 0.0
N912 N 0.79726 0.5344 0.3521 0.0
C913 C 0.75584 0.52489 0.33771 0.0
C914 C 0.72173 0.55488 0.33966 0.0
C915 C 0.691 0.77909 0.31812 0.0
C916 C 0.68513 0.75196 0.2897 0.0
C917 C 0.72094 0.80749 0.32456 0.0
C918 C 0.74692 0.8101 0.30307 0.0
H919 H 0.67184 0.77874 0.33537 0.0
H920 H 0.72387 0.82745 0.34676 0.0
S921 S 0.74633 0.7444 0.2263 0.0
N922 N 0.70981 0.72877 0.24083 0.0
N923 N 0.765 0.78149 0.25243 0.0
C924 C 0.74162 0.78275 0.27479 0.0
C925 C 0.71115 0.75402 0.26824 0.0
C926 C 0.44945 0.75166 0.30624 0.0
C927 C 0.49429 0.74719 0.32465 0.0
C928 C 0.42342 0.78697 0.30702 0.0
C929 C 0.44092 0.82023 0.32575 0.0
H930 H 0.43442 0.72774 0.28996 0.0
H931 H 0.38963 0.78854 0.29162 0.0
S932 S 0.55564 0.82426 0.38038 0.0
N933 N 0.55417 0.77926 0.36386 0.0
N934 N 0.50594 0.84546 0.36518 0.0
C935 C 0.48531 0.81589 0.34544 0.0
C936 C 0.51172 0.7796 0.34498 0.0
C937 C 0.44877 0.55422 0.3221 0.0
C938 C 0.46604 0.54739 0.29434 0.0
C939 C 0.42361 0.52755 0.32932 0.0
C940 C 0.4153 0.49234 0.30959 0.0
H941 H 0.45414 0.58075 0.33803 0.0
H942 H 0.41093 0.53446 0.35078 0.0
S943 S 0.45437 0.45978 0.23475 0.0
N944 N 0.47353 0.50213 0.24756 0.0
N945 N 0.42722 0.45242 0.26104 0.0
C946 C 0.43291 0.48509 0.28203 0.0
C947 C 0.4579 0.51239 0.27445 0.0
C948 C 0.78607 0.76069 0.53363 0.0
C949 C 0.79539 0.72051 0.53068 0.0
C950 C 0.77012 0.77822 0.55981 0.0
C951 C 0.76338 0.75598 0.58388 0.0
H952 H 0.79585 0.77892 0.51814 0.0
H953 H 0.76872 0.80935 0.56374 0.0
S954 S 0.76932 0.6495 0.5805 0.0
N955 N 0.78645 0.65867 0.54864 0.0
N956 N 0.75639 0.69192 0.598 0.0
C957 C 0.7653 0.71576 0.57755 0.0
C958 C 0.78139 0.69784 0.55078 0.0
C959 C 0.44409 0.05302 0.68727 0.0
C960 C 0.45684 1.02723 0.66289 0.0
C961 C 0.43143 1.0397 0.71325 0.0
C962 C 0.43102 1.00012 0.71566 0.0
H963 H 0.44612 0.08365 0.68729 0.0
H964 H 0.42441 0.06032 0.73267 0.0
S965 S 0.45221 0.92074 0.65495 0.0
N966 N 0.46168 0.96001 0.64051 0.0
N967 N 0.43751 0.93559 0.68927 0.0
C968 C 0.43964 0.97423 0.68993 0.0
C969 C 0.45249 0.98763 0.66343 0.0
C970 C 0.36411 0.61089 0.71949 0.0
C971 C 0.38081 0.60657 0.69166 0.0
C972 C 0.33703 0.58451 0.72333 0.0
C973 C 0.32643 0.55258 0.69981 0.0
H974 H 0.37087 0.63549 0.73775 0.0
H975 H 0.32478 0.58885 0.74515 0.0
S976 S 0.36325 0.52798 0.62318 0.0
N977 N 0.38585 0.56791 0.64066 0.0
N978 N 0.33518 0.51794 0.64799 0.0
C979 C 0.34368 0.54757 0.67224 0.0
C980 C 0.37084 0.57468 0.66816 0.0
C981 C 0.6717 0.40546 0.69126 0.0
C982 C 0.63998 0.38117 0.69153 0.0
C983 C 0.71207 0.40626 0.71775 0.0
C984 C 0.72257 0.38282 0.74569 0.0
H985 H 0.66594 0.42304 0.66997 0.0
H986 H 0.7353 0.42523 0.71615 0.0
S987 S 0.64879 0.31645 0.75968 0.0
N988 N 0.62113 0.33504 0.72338 0.0
N989 N 0.6954 0.33603 0.77201 0.0
C990 C 0.69029 0.35926 0.74637 0.0
C991 C 0.64964 0.3586 0.71973 0.0
C992 C 0.93511 0.52335 0.43276 0.0
C993 C 0.90604 0.54028 0.45047 0.0
C994 C 0.92543 0.49068 0.41017 0.0
C995 C 0.88671 0.47331 0.40493 0.0
H996 H 0.96488 0.53618 0.43544 0.0
H997 H 0.94804 0.47947 0.39617 0.0
S998 S 0.80095 0.50521 0.44689 0.0
N999 N 0.83787 0.53619 0.4625 0.0
N1000 N 0.81983 0.47486 0.42047 0.0
C1001 C 0.85822 0.48909 0.42362 0.0
C1002 C 0.86781 0.52257 0.44622 0.0
C1003 C 0.65931 0.06632 0.49934 0.0
C1004 C 0.66976 0.0527 0.53193 0.0
C1005 C 0.68466 0.05348 0.47776 0.0
C1006 C 0.72128 1.02665 0.48812 0.0
H1007 H 0.62991 0.08512 0.48969 0.0
H1008 H 0.67432 0.06323 0.45222 0.0
S1009 S 0.766 0.98719 0.57303 0.0
N1010 N 0.72159 1.01457 0.575 0.0
N1011 N 0.76958 0.99048 0.53445 0.0
C1012 C 0.73358 1.01475 0.52142 0.0
C1013 C 0.70777 1.02785 0.54335 0.0
C1014 C 0.43733 0.8305 0.56383 0.0
C1015 C 0.46801 0.7981 0.56711 0.0
C1016 C 0.41135 0.84125 0.53169 0.0
C1017 C 0.41574 0.82019 0.5019 0.0
H1018 H 0.42967 0.84458 0.5861 0.0
H1019 H 0.38522 0.86393 0.5304 0.0
S1020 S 0.49974 0.73985 0.49743 0.0
N1021 N 0.50684 0.74969 0.53858 0.0
N1022 N 0.45973 0.77103 0.47785 0.0
C1023 C 0.45048 0.79125 0.50498 0.0
C1024 C 0.47641 0.78008 0.53772 0.0
C1025 C 0.46215 0.42534 0.49031 0.0
C1026 C 0.43801 0.41136 0.50899 0.0
C1027 C 0.44522 0.42825 0.4545 0.0
C1028 C 0.40311 0.41795 0.43579 0.0
H1029 H 0.49526 0.43193 0.50307 0.0
H1030 H 0.46581 0.43755 0.44117 0.0
S1031 S 0.32409 0.38544 0.47343 0.0
N1032 N 0.36797 0.39089 0.50621 0.0
N1033 N 0.33613 0.39745 0.44005 0.0
C1034 C 0.37757 0.40688 0.45472 0.0
C1035 C 0.39498 0.4033 0.49087 0.0
C1036 C 0.66117 0.93986 0.6631 0.0
C1037 C 0.6167 0.93641 0.65805 0.0
C1038 C 0.69251 0.93334 0.69459 0.0
C1039 C 0.6806 0.92353 0.72242 0.0
H1040 H 0.67179 0.94898 0.64293 0.0
H1041 H 0.72606 0.93751 0.69747 0.0
S1042 S 0.56967 0.90631 0.72186 0.0
N1043 N 0.56331 0.91886 0.68311 0.0
N1044 N 0.6221 0.90711 0.74213 0.0
C1045 C 0.63679 0.91789 0.71729 0.0
C1046 C 0.6049 0.92414 0.68516 0.0
C1047 C 0.6534 0.31161 0.51759 0.0
C1048 C 0.61465 0.33493 0.517 0.0
C1049 C 0.67709 0.31609 0.49494 0.0
C1050 C 0.66278 0.34371 0.4703 0.0
H1051 H 0.66594 0.29015 0.53614 0.0
H1052 H 0.70669 0.29745 0.49651 0.0
S1053 S 0.5629 0.41137 0.45739 0.0
N1054 N 0.56268 0.38606 0.48888 0.0
N1055 N 0.6072 0.39474 0.44693 0.0
C1056 C 0.62391 0.36692 0.46926 0.0
C1057 C 0.59996 0.36252 0.49241 0.0
C1058 C 0.95576 0.76701 0.42866 0.0
C1059 C 0.92411 0.75888 0.44321 0.0
C1060 C 0.94784 0.79699 0.40676 0.0
C1061 C 0.9079 0.8201 0.39856 0.0
H1062 H 0.98644 0.74929 0.43341 0.0
H1063 H 0.97269 0.80115 0.39529 0.0
S1064 S 0.81653 0.81435 0.43366 0.0
N1065 N 0.85301 0.77921 0.45065 0.0
N1066 N 0.83791 0.83504 0.40923 0.0
C1067 C 0.87677 0.81347 0.4142 0.0
C1068 C 0.88485 0.78297 0.43651 0.0
C1069 C 0.46911 0.91469 0.47574 0.0
C1070 C 0.48095 0.95187 0.48873 0.0
C1071 C 0.44224 0.90805 0.44227 0.0
C1072 C 0.42614 0.93825 0.42039 0.0
H1073 H 0.48051 0.89045 0.49153 0.0
H1074 H 0.43441 0.87886 0.43338 0.0
S1075 S 0.44764 1.04087 0.44146 0.0
N1076 N 0.47461 1.01937 0.47654 0.0
N1077 N 0.42409 1.00664 0.41393 0.0
C1078 C 0.43788 0.97547 0.43286 0.0
C1079 C 0.46512 0.98234 0.46695 0.0
C1080 C 0.32391 0.64396 0.52689 0.0
C1081 C 0.3678 0.65178 0.53691 0.0
C1082 C 0.306 0.62166 0.49652 0.0
C1083 C 0.33131 0.60668 0.47505 0.0
H1084 H 0.30378 0.65378 0.54325 0.0
H1085 H 0.27259 0.61496 0.49044 0.0
S1086 S 0.44572 0.62479 0.48709 0.0
N1087 N 0.43463 0.6465 0.52118 0.0
N1088 N 0.40093 0.60551 0.46407 0.0
C1089 C 0.37447 0.61633 0.48394 0.0
C1090 C 0.39271 0.63863 0.51486 0.0
C1091 C 0.45048 0.37216 0.72222 0.0
C1092 C 0.4272 0.35854 0.68918 0.0
C1093 C 0.43303 0.37411 0.74991 0.0
C1094 C 0.39106 0.36303 0.74621 0.0
H1095 H 0.48313 0.38027 0.727 0.0
H1096 H 0.45308 0.38421 0.77474 0.0
S1097 S 0.3143 0.32939 0.66435 0.0
N1098 N 0.35806 0.33642 0.65405 0.0
N1099 N 0.32559 0.34053 0.70573 0.0
C1100 C 0.36668 0.35087 0.71305 0.0
C1101 C 0.38463 0.34845 0.6848 0.0
C1102 C 0.87849 0.57581 0.6245 0.0
C1103 C 0.92009 0.58711 0.62819 0.0
C1104 C 0.87069 0.55585 0.6496 0.0
C1105 C 0.90414 0.54649 0.67946 0.0
H1106 H 0.85155 0.58307 0.60234 0.0
H1107 H 0.83806 0.54822 0.64586 0.0
S1108 S 1.01984 0.56562 0.69968 0.0
N1109 N 0.99576 0.58471 0.6629 0.0
N1110 N 0.98117 0.54754 0.70995 0.0
C1111 C 0.94605 0.55683 0.68305 0.0
C1112 C 0.954 0.57703 0.6575 0.0
C1113 C 0.34448 0.82348 0.6903 0.0
C1114 C 0.3171 0.79421 0.67467 0.0
C1115 C 0.33686 0.84834 0.71703 0.0
C1116 C 0.30141 0.84514 0.72914 0.0
H1117 H 0.37378 0.82567 0.68351 0.0
H1118 H 0.36067 0.86847 0.72975 0.0
S1119 S 0.21458 0.77909 0.69174 0.0
N1120 N 0.24925 0.76765 0.6695 0.0
N1121 N 0.23456 0.81456 0.71947 0.0
C1122 C 0.27117 0.81881 0.71126 0.0
C1123 C 0.27917 0.79324 0.68416 0.0
loop_
_geom_bond_atom_site_label_1
_geom_bond_atom_site_label_2
_geom_bond_distance
_geom_bond_site_symmetry_2
_ccdc_geom_bond_type
Cu0 N1 1.999 . S
Cu0 O6 1.974 . S
Cu0 N11 1.985 1_455 S
Cu0 O20 1.959 1_455 S
N1 Cu0 1.999 . S
N1 C3 1.263 . S
N1 C5 1.389 . S
N2 C3 1.358 . S
N2 C4 1.400 . S
C3 N1 1.263 . S
C3 N2 1.358 . S
C3 H9 0.930 . S
C4 N2 1.400 . S
C4 C5 1.351 . S
C4 H21 0.930 . S
C5 N1 1.389 . S
C5 C4 1.351 . S
C5 H10 0.930 . S
O6 Cu0 1.974 . S
O6 C16 1.282 . S
C7 O8 1.261 . S
C7 O20 1.251 . S
O8 C7 1.261 . S
H9 C3 0.930 . S
H10 C5 0.930 . S
N11 Cu0 1.985 1_655 S
N11 C13 1.335 . S
N11 C14 1.390 1_655 S
N12 C13 1.345 . S
N12 C15 1.336 1_545 S
C13 N11 1.335 . S
C13 N12 1.345 . S
C13 H18 0.930 . S
C14 N11 1.390 1_455 S
C14 C15 1.346 1_445 S
C14 H19 0.930 . S
C15 N12 1.336 1_565 S
C15 C14 1.346 1_665 S
C15 H22 0.929 . S
C16 O6 1.282 . S
C16 O17 1.216 . S
O17 C16 1.216 . S
H18 C13 0.930 . S
H19 C14 0.930 . S
O20 Cu0 1.959 1_655 S
O20 C7 1.251 . S
H21 C4 0.930 . S
H22 C15 0.929 . S
Cu23 N24 1.999 1_455 S
Cu23 O29 1.974 1_455 S
Cu23 N34 1.985 . S
Cu23 O43 1.959 . S
N24 Cu23 1.999 1_655 S
N24 C26 1.263 . S
N24 C28 1.389 . S
N25 C26 1.358 . S
N25 C27 1.400 . S
C26 N24 1.263 . S
C26 N25 1.358 . S
C26 H32 0.930 . S
C27 N25 1.400 . S
C27 C28 1.351 . S
C27 H44 0.930 1_545 S
C28 N24 1.389 . S
C28 C27 1.351 . S
C28 H33 0.930 1_655 S
O29 Cu23 1.974 1_655 S
O29 C39 1.282 . S
C30 O31 1.261 . S
C30 O43 1.251 . S
O31 C30 1.261 . S
H32 C26 0.930 . S
H33 C28 0.930 1_455 S
N34 Cu23 1.985 . S
N34 C36 1.335 . S
N34 C37 1.390 . S
N35 C36 1.345 . S
N35 C38 1.336 . S
C36 N34 1.335 . S
C36 N35 1.345 . S
C36 H41 0.930 . S
C37 N34 1.390 . S
C37 C38 1.346 . S
C37 H42 0.930 . S
C38 N35 1.336 . S
C38 C37 1.346 . S
C38 H45 0.929 . S
C39 O29 1.282 . S
C39 O40 1.216 . S
O40 C39 1.216 . S
H41 C36 0.930 . S
H42 C37 0.930 . S
O43 Cu23 1.959 . S
O43 C30 1.251 . S
H44 C27 0.930 1_565 S
H45 C38 0.929 . S
Cu46 N47 1.999 1_544 S
Cu46 O52 1.974 1_545 S
Cu46 N57 1.985 . S
Cu46 O66 1.959 1_554 S
N47 Cu46 1.999 1_566 S
N47 C49 1.263 . S
N47 C51 1.389 . S
N48 C49 1.358 . S
N48 C50 1.400 . S
C49 N47 1.263 . S
C49 N48 1.358 . S
C49 H55 0.930 . S
C50 N48 1.400 . S
C50 C51 1.351 . S
C50 H67 0.930 . S
C51 N47 1.389 . S
C51 C50 1.351 . S
C51 H56 0.930 . S
O52 Cu46 1.974 1_565 S
O52 C62 1.282 . S
C53 O54 1.261 . S
C53 O66 1.251 . S
O54 C53 1.261 . S
H55 C49 0.930 . S
H56 C51 0.930 . S
N57 Cu46 1.985 . S
N57 C59 1.335 . S
N57 C60 1.390 . S
N58 C59 1.345 . S
N58 C61 1.336 . S
C59 N57 1.335 . S
C59 N58 1.345 . S
C59 H64 0.930 . S
C60 N57 1.390 . S
C60 C61 1.346 . S
C60 H65 0.930 . S
C61 N58 1.336 . S
C61 C60 1.346 . S
C61 H68 0.929 . S
C62 O52 1.282 . S
C62 O63 1.216 . S
O63 C62 1.216 . S
H64 C59 0.930 . S
H65 C60 0.930 . S
O66 Cu46 1.959 1_556 S
O66 C53 1.251 . S
H67 C50 0.930 . S
H68 C61 0.929 . S
Cu69 N70 1.999 . S
Cu69 O75 1.974 . S
Cu69 N80 1.985 . S
Cu69 O89 1.959 . S
N70 Cu69 1.999 . S
N70 C72 1.263 . S
N70 C74 1.389 . S
N71 C72 1.358 . S
N71 C73 1.400 1_554 S
C72 N70 1.263 . S
C72 N71 1.358 . S
C72 H78 0.930 . S
C73 N71 1.400 1_556 S
C73 C74 1.351 1_556 S
C73 H90 0.930 . S
C74 N70 1.389 . S
C74 C73 1.351 1_554 S
C74 H79 0.930 1_554 S
O75 Cu69 1.974 . S
O75 C85 1.282 . S
C76 O77 1.261 1_655 S
C76 O89 1.251 1_655 S
O77 C76 1.261 1_455 S
H78 C72 0.930 . S
H79 C74 0.930 1_556 S
N80 Cu69 1.985 . S
N80 C82 1.335 1_455 S
N80 C83 1.390 . S
N81 C82 1.345 . S
N81 C84 1.336 1_655 S
C82 N80 1.335 1_655 S
C82 N81 1.345 . S
C82 H87 0.930 . S
C83 N80 1.390 . S
C83 C84 1.346 . S
C83 H88 0.930 . S
C84 N81 1.336 1_455 S
C84 C83 1.346 . S
C84 H91 0.929 . S
C85 O75 1.282 . S
C85 O86 1.216 . S
O86 C85 1.216 . S
H87 C82 0.930 . S
H88 C83 0.930 . S
O89 Cu69 1.959 . S
O89 C76 1.251 1_455 S
H90 C73 0.930 . S
H91 C84 0.929 . S
Cu92 N93 1.999 . S
Cu92 O98 1.974 . S
Cu92 N103 1.985 . S
Cu92 O112 1.959 . S
N93 Cu92 1.999 . S
N93 C95 1.263 . S
N93 C97 1.389 . S
N94 C95 1.358 . S
N94 C96 1.400 . S
C95 N93 1.263 . S
C95 N94 1.358 . S
C95 H101 0.930 . S
C96 N94 1.400 . S
C96 C97 1.351 . S
C96 H113 0.930 . S
C97 N93 1.389 . S
C97 C96 1.351 . S
C97 H102 0.930 . S
O98 Cu92 1.974 . S
O98 C108 1.282 . S
C99 O100 1.261 . S
C99 O112 1.251 . S
O100 C99 1.261 . S
H101 C95 0.930 . S
H102 C97 0.930 . S
N103 Cu92 1.985 . S
N103 C105 1.335 . S
N103 C106 1.390 . S
N104 C105 1.345 . S
N104 C107 1.336 . S
C105 N103 1.335 . S
C105 N104 1.345 . S
C105 H110 0.930 . S
C106 N103 1.390 . S
C106 C107 1.346 . S
C106 H111 0.930 . S
C107 N104 1.336 . S
C107 C106 1.346 . S
C107 H114 0.929 . S
C108 O98 1.282 . S
C108 O109 1.216 . S
O109 C108 1.216 . S
H110 C105 0.930 . S
H111 C106 0.930 . S
O112 Cu92 1.959 . S
O112 C99 1.251 . S
H113 C96 0.930 . S
H114 C107 0.929 . S
Cu115 N116 1.999 1_455 S
Cu115 O121 1.974 1_455 S
Cu115 N126 1.985 . S
Cu115 O135 1.959 . S
N116 Cu115 1.999 1_655 S
N116 C118 1.263 1_554 S
N116 C120 1.389 1_554 S
N117 C118 1.358 . S
N117 C119 1.400 . S
C118 N116 1.263 1_556 S
C118 N117 1.358 . S
C118 H124 0.930 1_556 S
C119 N117 1.400 . S
C119 C120 1.351 . S
C119 H136 0.930 . S
C120 N116 1.389 1_556 S
C120 C119 1.351 . S
C120 H125 0.930 1_655 S
O121 Cu115 1.974 1_655 S
O121 C131 1.282 . S
C122 O123 1.261 . S
C122 O135 1.251 . S
O123 C122 1.261 . S
H124 C118 0.930 1_554 S
H125 C120 0.930 1_455 S
N126 Cu115 1.985 . S
N126 C128 1.335 . S
N126 C129 1.390 . S
N127 C128 1.345 . S
N127 C130 1.336 . S
C128 N126 1.335 . S
C128 N127 1.345 . S
C128 H133 0.930 . S
C129 N126 1.390 . S
C129 C130 1.346 . S
C129 H134 0.930 . S
C130 N127 1.336 . S
C130 C129 1.346 . S
C130 H137 0.929 . S
C131 O121 1.282 . S
C131 O132 1.216 . S
O132 C131 1.216 . S
H133 C128 0.930 . S
H134 C129 0.930 . S
O135 Cu115 1.959 . S
O135 C122 1.251 . S
H136 C119 0.930 . S
H137 C130 0.929 . S
Cu138 N139 1.999 . S
Cu138 O144 1.974 . S
Cu138 N149 1.985 . S
Cu138 O158 1.959 . S
N139 Cu138 1.999 . S
N139 C141 1.263 . S
N139 C143 1.389 . S
N140 C141 1.358 . S
N140 C142 1.400 . S
C141 N139 1.263 . S
C141 N140 1.358 . S
C141 H147 0.930 . S
C142 N140 1.400 . S
C142 C143 1.351 . S
C142 H159 0.930 . S
C143 N139 1.389 . S
C143 C142 1.351 . S
C143 H148 0.930 . S
O144 Cu138 1.974 . S
O144 C154 1.282 . S
C145 O146 1.261 . S
C145 O158 1.251 . S
O146 C145 1.261 . S
H147 C141 0.930 . S
H148 C143 0.930 . S
N149 Cu138 1.985 . S
N149 C151 1.335 . S
N149 C152 1.390 . S
N150 C151 1.345 . S
N150 C153 1.336 . S
C151 N149 1.335 . S
C151 N150 1.345 . S
C151 H156 0.930 . S
C152 N149 1.390 . S
C152 C153 1.346 . S
C152 H157 0.930 . S
C153 N150 1.336 . S
C153 C152 1.346 . S
C153 H160 0.929 . S
C154 O144 1.282 . S
C154 O155 1.216 . S
O155 C154 1.216 . S
H156 C151 0.930 . S
H157 C152 0.930 . S
O158 Cu138 1.959 . S
O158 C145 1.251 . S
H159 C142 0.930 . S
H160 C153 0.929 . S
Cu161 N162 1.999 . S
Cu161 O167 1.974 . S
Cu161 N172 1.985 . S
Cu161 O181 1.959 . S
N162 Cu161 1.999 . S
N162 C164 1.263 . S
N162 C166 1.389 . S
N163 C164 1.358 . S
N163 C165 1.400 . S
C164 N162 1.263 . S
C164 N163 1.358 . S
C164 H170 0.930 . S
C165 N163 1.400 . S
C165 C166 1.351 . S
C165 H182 0.930 . S
C166 N162 1.389 . S
C166 C165 1.351 . S
C166 H171 0.930 . S
O167 Cu161 1.974 . S
O167 C177 1.282 . S
C168 O169 1.261 . S
C168 O181 1.251 . S
O169 C168 1.261 . S
H170 C164 0.930 . S
H171 C166 0.930 . S
N172 Cu161 1.985 . S
N172 C174 1.335 . S
N172 C175 1.390 . S
N173 C174 1.345 . S
N173 C176 1.336 . S
C174 N172 1.335 . S
C174 N173 1.345 . S
C174 H179 0.930 . S
C175 N172 1.390 . S
C175 C176 1.346 . S
C175 H180 0.930 . S
C176 N173 1.336 . S
C176 C175 1.346 . S
C176 H183 0.929 . S
C177 O167 1.282 . S
C177 O178 1.216 . S
O178 C177 1.216 . S
H179 C174 0.930 . S
H180 C175 0.930 . S
O181 Cu161 1.959 . S
O181 C168 1.251 . S
H182 C165 0.930 . S
H183 C176 0.929 . S
Cu184 N185 1.999 . S
Cu184 O190 1.974 . S
Cu184 N195 1.985 . S
Cu184 O204 1.959 . S
N185 Cu184 1.999 . S
N185 C187 1.263 . S
N185 C189 1.389 . S
N186 C187 1.358 . S
N186 C188 1.400 . S
C187 N185 1.263 . S
C187 N186 1.358 . S
C187 H193 0.930 . S
C188 N186 1.400 . S
C188 C189 1.351 . S
C188 H205 0.930 . S
C189 N185 1.389 . S
C189 C188 1.351 . S
C189 H194 0.930 . S
O190 Cu184 1.974 . S
O190 C200 1.282 . S
C191 O192 1.261 . S
C191 O204 1.251 . S
O192 C191 1.261 . S
H193 C187 0.930 . S
H194 C189 0.930 . S
N195 Cu184 1.985 . S
N195 C197 1.335 . S
N195 C198 1.390 . S
N196 C197 1.345 . S
N196 C199 1.336 . S
C197 N195 1.335 . S
C197 N196 1.345 . S
C197 H202 0.930 . S
C198 N195 1.390 . S
C198 C199 1.346 . S
C198 H203 0.930 . S
C199 N196 1.336 . S
C199 C198 1.346 . S
C199 H206 0.929 . S
C200 O190 1.282 . S
C200 O201 1.216 . S
O201 C200 1.216 . S
H202 C197 0.930 . S
H203 C198 0.930 . S
O204 Cu184 1.959 . S
O204 C191 1.251 . S
H205 C188 0.930 . S
H206 C199 0.929 . S
Cu207 N208 1.999 . S
Cu207 O213 1.974 . S
Cu207 N218 1.985 . S
Cu207 O227 1.959 . S
N208 Cu207 1.999 . S
N208 C210 1.263 . S
N208 C212 1.389 . S
N209 C210 1.358 . S
N209 C211 1.400 . S
C210 N208 1.263 . S
C210 N209 1.358 . S
C210 H216 0.930 . S
C211 N209 1.400 . S
C211 C212 1.351 . S
C211 H228 0.925 1_565 S
C212 N208 1.389 . S
C212 C211 1.351 . S
C212 H217 0.930 1_565 S
O213 Cu207 1.974 . S
O213 C223 1.282 . S
C214 O215 1.261 . S
C214 O227 1.251 . S
O215 C214 1.261 . S
H216 C210 0.930 . S
H217 C212 0.930 1_545 S
N218 Cu207 1.985 . S
N218 C220 1.335 . S
N218 C221 1.390 . S
N219 C220 1.345 . S
N219 C222 1.336 . S
C220 N218 1.335 . S
C220 N219 1.345 . S
C220 H225 0.930 . S
C221 N218 1.390 . S
C221 C222 1.346 . S
C221 H226 0.930 . S
C222 N219 1.336 . S
C222 C221 1.346 . S
C222 H229 0.929 . S
C223 O213 1.282 . S
C223 O224 1.216 . S
O224 C223 1.216 . S
H225 C220 0.930 . S
H226 C221 0.930 . S
O227 Cu207 1.959 . S
O227 C214 1.251 . S
H228 C211 0.925 1_545 S
H229 C222 0.929 . S
Cu230 N231 1.999 . S
Cu230 O236 1.974 . S
Cu230 N241 1.985 . S
Cu230 O250 1.959 . S
N231 Cu230 1.999 . S
N231 C233 1.263 . S
N231 C235 1.389 . S
N232 C233 1.358 . S
N232 C234 1.400 . S
C233 N231 1.263 . S
C233 N232 1.358 . S
C233 H239 0.930 . S
C234 N232 1.400 . S
C234 C235 1.351 . S
C234 H251 0.930 . S
C235 N231 1.389 . S
C235 C234 1.351 . S
C235 H240 0.930 . S
O236 Cu230 1.974 . S
O236 C246 1.282 . S
C237 O238 1.261 . S
C237 O250 1.251 . S
O238 C237 1.261 . S
H239 C233 0.930 . S
H240 C235 0.930 . S
N241 Cu230 1.985 . S
N241 C243 1.335 . S
N241 C244 1.390 . S
N242 C243 1.345 . S
N242 C245 1.336 . S
C243 N241 1.335 . S
C243 N242 1.345 . S
C243 H248 0.930 . S
C244 N241 1.390 . S
C244 C245 1.346 . S
C244 H249 0.930 . S
C245 N242 1.336 . S
C245 C244 1.346 . S
C245 H252 0.929 . S
C246 O236 1.282 . S
C246 O247 1.216 . S
O247 C246 1.216 . S
H248 C243 0.930 . S
H249 C244 0.930 . S
O250 Cu230 1.959 . S
O250 C237 1.251 . S
H251 C234 0.930 . S
H252 C245 0.929 . S
Cu253 N254 1.999 . S
Cu253 O259 1.974 . S
Cu253 N264 1.985 . S
Cu253 O273 1.959 . S
N254 Cu253 1.999 . S
N254 C256 1.263 . S
N254 C258 1.389 . S
N255 C256 1.358 . S
N255 C257 1.400 . S
C256 N254 1.263 . S
C256 N255 1.358 . S
C256 H262 0.930 . S
C257 N255 1.400 . S
C257 C258 1.351 . S
C257 H274 0.930 . S
C258 N254 1.389 . S
C258 C257 1.351 . S
C258 H263 0.930 . S
O259 Cu253 1.974 . S
O259 C269 1.282 . S
C260 O261 1.261 . S
C260 O273 1.251 . S
O261 C260 1.261 . S
H262 C256 0.930 . S
H263 C258 0.930 . S
N264 Cu253 1.985 . S
N264 C266 1.335 . S
N264 C267 1.390 . S
N265 C266 1.345 . S
N265 C268 1.336 . S
C266 N264 1.335 . S
C266 N265 1.345 . S
C266 H271 0.930 . S
C267 N264 1.390 . S
C267 C268 1.346 . S
C267 H272 0.930 . S
C268 N265 1.336 . S
C268 C267 1.346 . S
C268 H275 0.929 . S
C269 O259 1.282 . S
C269 O270 1.216 . S
O270 C269 1.216 . S
H271 C266 0.930 . S
H272 C267 0.930 . S
O273 Cu253 1.959 . S
O273 C260 1.251 . S
H274 C257 0.930 . S
H275 C268 0.929 . S
Nd276 C278 2.836 . S
Nd276 O296 2.500 . S
Nd276 O297 2.492 . S
Nd276 O298 2.487 . S
Nd276 O299 2.682 . S
Nd276 O300 2.410 . S
Nd276 O305 2.414 . S
Nd276 O307 2.424 . S
Nd277 C287 2.836 . S
Nd277 O299 2.414 . S
Nd277 O301 2.424 . S
Nd277 O302 2.500 . S
Nd277 O303 2.492 . S
Nd277 O304 2.487 . S
Nd277 O305 2.682 . S
Nd277 O306 2.410 . S
C278 Nd276 2.836 . S
C278 C279 1.498 . S
C278 O296 1.258 . S
C278 O297 1.239 . S
C279 C278 1.498 . S
C279 C280 1.366 . S
C279 C284 1.407 . S
C280 C279 1.366 . S
C280 C281 1.392 . S
C280 H308 0.930 . S
C281 C280 1.392 . S
C281 C282 1.398 . S
C281 H309 0.929 . S
C282 C281 1.398 . S
C282 C283 1.352 . S
C283 C282 1.352 . S
C283 C284 1.384 . S
C283 H310 0.930 . S
C284 C279 1.407 . S
C284 C283 1.384 . S
C284 H311 0.929 . S
C285 O298 1.241 . S
C285 O299 1.273 . S
C286 O300 1.251 . S
C286 O301 1.268 . S
C287 Nd277 2.836 . S
C287 C288 1.498 . S
C287 O302 1.258 . S
C287 O303 1.239 . S
C288 C287 1.498 . S
C288 C289 1.366 . S
C288 C293 1.407 . S
C289 C288 1.366 . S
C289 C290 1.392 . S
C289 H312 0.930 . S
C290 C289 1.392 . S
C290 C291 1.398 . S
C290 H313 0.929 . S
C291 C290 1.398 . S
C291 C292 1.352 . S
C292 C291 1.352 . S
C292 C293 1.384 . S
C292 H314 0.930 . S
C293 C288 1.407 . S
C293 C292 1.384 . S
C293 H315 0.929 . S
C294 O304 1.241 . S
C294 O305 1.273 . S
C295 O306 1.251 . S
C295 O307 1.268 . S
O296 Nd276 2.500 . S
O296 C278 1.258 . S
O297 Nd276 2.492 . S
O297 C278 1.239 . S
O298 Nd276 2.487 . S
O298 C285 1.241 . S
O299 Nd276 2.682 . S
O299 Nd277 2.414 . S
O299 C285 1.273 . S
O300 Nd276 2.410 . S
O300 C286 1.251 . S
O301 Nd277 2.424 . S
O301 C286 1.268 . S
O302 Nd277 2.500 . S
O302 C287 1.258 . S
O303 Nd277 2.492 . S
O303 C287 1.239 . S
O304 Nd277 2.487 . S
O304 C294 1.241 . S
O305 Nd276 2.414 . S
O305 Nd277 2.682 . S
O305 C294 1.273 . S
O306 Nd277 2.410 . S
O306 C295 1.251 . S
O307 Nd276 2.424 . S
O307 C295 1.268 . S
H308 C280 0.930 . S
H309 C281 0.929 . S
H310 C283 0.930 . S
H311 C284 0.929 . S
H312 C289 0.930 . S
H313 C290 0.929 . S
H314 C292 0.930 . S
H315 C293 0.929 . S
Nd316 C318 2.836 . S
Nd316 O336 2.500 . S
Nd316 O337 2.492 . S
Nd316 O338 2.487 . S
Nd316 O339 2.682 . S
Nd316 O340 2.410 . S
Nd316 O345 2.414 . S
Nd316 O347 2.424 . S
Nd317 C327 2.836 . S
Nd317 O339 2.414 . S
Nd317 O341 2.424 . S
Nd317 O342 2.500 . S
Nd317 O343 2.492 . S
Nd317 O344 2.487 . S
Nd317 O345 2.682 . S
Nd317 O346 2.410 . S
C318 Nd316 2.836 . S
C318 C319 1.498 . S
C318 O336 1.258 . S
C318 O337 1.239 . S
C319 C318 1.498 . S
C319 C320 1.366 . S
C319 C324 1.407 . S
C320 C319 1.366 . S
C320 C321 1.392 . S
C320 H348 0.930 . S
C321 C320 1.392 . S
C321 C322 1.398 . S
C321 H349 0.929 . S
C322 C321 1.398 . S
C322 C323 1.352 . S
C323 C322 1.352 . S
C323 C324 1.384 . S
C323 H350 0.930 . S
C324 C319 1.407 . S
C324 C323 1.384 . S
C324 H351 0.929 . S
C325 O338 1.241 . S
C325 O339 1.273 . S
C326 O340 1.251 . S
C326 O341 1.268 . S
C327 Nd317 2.836 . S
C327 C328 1.498 . S
C327 O342 1.258 . S
C327 O343 1.239 . S
C328 C327 1.498 . S
C328 C329 1.366 . S
C328 C333 1.407 . S
C329 C328 1.366 . S
C329 C330 1.392 . S
C329 H352 0.930 . S
C330 C329 1.392 . S
C330 C331 1.398 . S
C330 H353 0.929 . S
C331 C330 1.398 . S
C331 C332 1.352 . S
C332 C331 1.352 . S
C332 C333 1.384 . S
C332 H354 0.930 . S
C333 C328 1.407 . S
C333 C332 1.384 . S
C333 H355 0.929 . S
C334 O344 1.241 . S
C334 O345 1.273 . S
C335 O346 1.251 . S
C335 O347 1.268 . S
O336 Nd316 2.500 . S
O336 C318 1.258 . S
O337 Nd316 2.492 . S
O337 C318 1.239 . S
O338 Nd316 2.487 . S
O338 C325 1.241 . S
O339 Nd316 2.682 . S
O339 Nd317 2.414 . S
O339 C325 1.273 . S
O340 Nd316 2.410 . S
O340 C326 1.251 . S
O341 Nd317 2.424 . S
O341 C326 1.268 . S
O342 Nd317 2.500 . S
O342 C327 1.258 . S
O343 Nd317 2.492 . S
O343 C327 1.239 . S
O344 Nd317 2.487 . S
O344 C334 1.241 . S
O345 Nd316 2.414 . S
O345 Nd317 2.682 . S
O345 C334 1.273 . S
O346 Nd317 2.410 . S
O346 C335 1.251 . S
O347 Nd316 2.424 . S
O347 C335 1.268 . S
H348 C320 0.930 . S
H349 C321 0.929 . S
H350 C323 0.930 . S
H351 C324 0.929 . S
H352 C329 0.930 . S
H353 C330 0.929 . S
H354 C332 0.930 . S
H355 C333 0.929 . S
Nd356 C358 2.836 . S
Nd356 O376 2.500 . S
Nd356 O377 2.492 . S
Nd356 O378 2.487 . S
Nd356 O379 2.682 . S
Nd356 O380 2.410 . S
Nd356 O385 2.414 . S
Nd356 O387 2.424 . S
Nd357 C367 2.836 . S
Nd357 O379 2.414 . S
Nd357 O381 2.424 . S
Nd357 O382 2.500 . S
Nd357 O383 2.492 . S
Nd357 O384 2.487 . S
Nd357 O385 2.682 . S
Nd357 O386 2.410 . S
C358 Nd356 2.836 . S
C358 C359 1.498 . S
C358 O376 1.258 . S
C358 O377 1.239 . S
C359 C358 1.498 . S
C359 C360 1.366 . S
C359 C364 1.407 . S
C360 C359 1.366 . S
C360 C361 1.392 . S
C360 H388 0.930 . S
C361 C360 1.392 . S
C361 C362 1.398 . S
C361 H389 0.929 . S
C362 C361 1.398 . S
C362 C363 1.352 . S
C363 C362 1.352 . S
C363 C364 1.384 . S
C363 H390 0.930 . S
C364 C359 1.407 . S
C364 C363 1.384 . S
C364 H391 0.929 . S
C365 O378 1.241 . S
C365 O379 1.273 . S
C366 O380 1.251 . S
C366 O381 1.268 . S
C367 Nd357 2.836 . S
C367 C368 1.498 . S
C367 O382 1.258 . S
C367 O383 1.239 . S
C368 C367 1.498 . S
C368 C369 1.366 . S
C368 C373 1.407 . S
C369 C368 1.366 . S
C369 C370 1.392 . S
C369 H392 0.930 . S
C370 C369 1.392 . S
C370 C371 1.398 . S
C370 H393 0.929 . S
C371 C370 1.398 . S
C371 C372 1.352 . S
C372 C371 1.352 . S
C372 C373 1.384 . S
C372 H394 0.930 . S
C373 C368 1.407 . S
C373 C372 1.384 . S
C373 H395 0.929 . S
C374 O384 1.241 . S
C374 O385 1.273 . S
C375 O386 1.251 . S
C375 O387 1.268 . S
O376 Nd356 2.500 . S
O376 C358 1.258 . S
O377 Nd356 2.492 . S
O377 C358 1.239 . S
O378 Nd356 2.487 . S
O378 C365 1.241 . S
O379 Nd356 2.682 . S
O379 Nd357 2.414 . S
O379 C365 1.273 . S
O380 Nd356 2.410 . S
O380 C366 1.251 . S
O381 Nd357 2.424 . S
O381 C366 1.268 . S
O382 Nd357 2.500 . S
O382 C367 1.258 . S
O383 Nd357 2.492 . S
O383 C367 1.239 . S
O384 Nd357 2.487 . S
O384 C374 1.241 . S
O385 Nd356 2.414 . S
O385 Nd357 2.682 . S
O385 C374 1.273 . S
O386 Nd357 2.410 . S
O386 C375 1.251 . S
O387 Nd356 2.424 . S
O387 C375 1.268 . S
H388 C360 0.930 . S
H389 C361 0.929 . S
H390 C363 0.930 . S
H391 C364 0.929 . S
H392 C369 0.930 . S
H393 C370 0.929 . S
H394 C372 0.930 . S
H395 C373 0.929 . S
Nd396 C398 2.836 . S
Nd396 O416 2.500 . S
Nd396 O417 2.492 . S
Nd396 O418 2.487 . S
Nd396 O419 2.682 . S
Nd396 O420 2.410 . S
Nd396 O425 2.414 . S
Nd396 O427 2.424 . S
Nd397 C407 2.836 . S
Nd397 O419 2.414 . S
Nd397 O421 2.424 . S
Nd397 O422 2.500 . S
Nd397 O423 2.492 . S
Nd397 O424 2.487 . S
Nd397 O425 2.682 . S
Nd397 O426 2.410 . S
C398 Nd396 2.836 . S
C398 C399 1.498 . S
C398 O416 1.258 . S
C398 O417 1.239 . S
C399 C398 1.498 . S
C399 C400 1.366 . S
C399 C404 1.407 . S
C400 C399 1.366 . S
C400 C401 1.392 . S
C400 H428 0.930 . S
C401 C400 1.392 . S
C401 C402 1.398 . S
C401 H429 0.929 . S
C402 C401 1.398 . S
C402 C403 1.352 . S
C403 C402 1.352 . S
C403 C404 1.384 . S
C403 H430 0.930 . S
C404 C399 1.407 . S
C404 C403 1.384 . S
C404 H431 0.929 . S
C405 O418 1.241 . S
C405 O419 1.273 . S
C406 O420 1.251 . S
C406 O421 1.268 . S
C407 Nd397 2.836 . S
C407 C408 1.498 . S
C407 O422 1.258 . S
C407 O423 1.239 . S
C408 C407 1.498 . S
C408 C409 1.366 . S
C408 C413 1.407 . S
C409 C408 1.366 . S
C409 C410 1.392 . S
C409 H432 0.930 . S
C410 C409 1.392 . S
C410 C411 1.398 . S
C410 H433 0.929 . S
C411 C410 1.398 . S
C411 C412 1.352 . S
C412 C411 1.352 . S
C412 C413 1.384 . S
C412 H434 0.930 . S
C413 C408 1.407 . S
C413 C412 1.384 . S
C413 H435 0.929 . S
C414 O424 1.241 . S
C414 O425 1.273 . S
C415 O426 1.251 . S
C415 O427 1.268 . S
O416 Nd396 2.500 . S
O416 C398 1.258 . S
O417 Nd396 2.492 . S
O417 C398 1.239 . S
O418 Nd396 2.487 . S
O418 C405 1.241 . S
O419 Nd396 2.682 . S
O419 Nd397 2.414 . S
O419 C405 1.273 . S
O420 Nd396 2.410 . S
O420 C406 1.251 . S
O421 Nd397 2.424 . S
O421 C406 1.268 . S
O422 Nd397 2.500 . S
O422 C407 1.258 . S
O423 Nd397 2.492 . S
O423 C407 1.239 . S
O424 Nd397 2.487 . S
O424 C414 1.241 . S
O425 Nd396 2.414 . S
O425 Nd397 2.682 . S
O425 C414 1.273 . S
O426 Nd397 2.410 . S
O426 C415 1.251 . S
O427 Nd396 2.424 . S
O427 C415 1.268 . S
H428 C400 0.930 . S
H429 C401 0.929 . S
H430 C403 0.930 . S
H431 C404 0.929 . S
H432 C409 0.930 . S
H433 C410 0.929 . S
H434 C412 0.930 . S
H435 C413 0.929 . S
Nd436 C438 2.836 . S
Nd436 O456 2.500 . S
Nd436 O457 2.492 . S
Nd436 O458 2.487 . S
Nd436 O459 2.682 . S
Nd436 O460 2.410 . S
Nd436 O465 2.414 . S
Nd436 O467 2.424 . S
Nd437 C447 2.836 . S
Nd437 O459 2.414 . S
Nd437 O461 2.424 . S
Nd437 O462 2.500 . S
Nd437 O463 2.492 . S
Nd437 O464 2.487 . S
Nd437 O465 2.682 . S
Nd437 O466 2.410 . S
C438 Nd436 2.836 . S
C438 C439 1.498 . S
C438 O456 1.258 . S
C438 O457 1.239 . S
C439 C438 1.498 . S
C439 C440 1.366 . S
C439 C444 1.407 . S
C440 C439 1.366 . S
C440 C441 1.392 . S
C440 H468 0.930 . S
C441 C440 1.392 . S
C441 C442 1.398 . S
C441 H469 0.929 . S
C442 C441 1.398 . S
C442 C443 1.352 . S
C443 C442 1.352 . S
C443 C444 1.384 . S
C443 H470 0.930 . S
C444 C439 1.407 . S
C444 C443 1.384 . S
C444 H471 0.929 . S
C445 O458 1.241 . S
C445 O459 1.273 . S
C446 O460 1.251 . S
C446 O461 1.268 . S
C447 Nd437 2.836 . S
C447 C448 1.498 . S
C447 O462 1.258 . S
C447 O463 1.239 . S
C448 C447 1.498 . S
C448 C449 1.366 . S
C448 C453 1.407 . S
C449 C448 1.366 . S
C449 C450 1.392 . S
C449 H472 0.930 . S
C450 C449 1.392 . S
C450 C451 1.398 . S
C450 H473 0.929 . S
C451 C450 1.398 . S
C451 C452 1.352 . S
C452 C451 1.352 . S
C452 C453 1.384 . S
C452 H474 0.930 . S
C453 C448 1.407 . S
C453 C452 1.384 . S
C453 H475 0.929 . S
C454 O464 1.241 . S
C454 O465 1.273 . S
C455 O466 1.251 . S
C455 O467 1.268 . S
O456 Nd436 2.500 . S
O456 C438 1.258 . S
O457 Nd436 2.492 . S
O457 C438 1.239 . S
O458 Nd436 2.487 . S
O458 C445 1.241 . S
O459 Nd436 2.682 . S
O459 Nd437 2.414 . S
O459 C445 1.273 . S
O460 Nd436 2.410 . S
O460 C446 1.251 . S
O461 Nd437 2.424 . S
O461 C446 1.268 . S
O462 Nd437 2.500 . S
O462 C447 1.258 . S
O463 Nd437 2.492 . S
O463 C447 1.239 . S
O464 Nd437 2.487 . S
O464 C454 1.241 . S
O465 Nd436 2.414 . S
O465 Nd437 2.682 . S
O465 C454 1.273 . S
O466 Nd437 2.410 . S
O466 C455 1.251 . S
O467 Nd436 2.424 . S
O467 C455 1.268 . S
H468 C440 0.930 . S
H469 C441 0.929 . S
H470 C443 0.930 . S
H471 C444 0.929 . S
H472 C449 0.930 . S
H473 C450 0.929 . S
H474 C452 0.930 . S
H475 C453 0.929 . S
Nd476 C478 2.836 . S
Nd476 O496 2.500 . S
Nd476 O497 2.492 . S
Nd476 O498 2.487 . S
Nd476 O499 2.682 . S
Nd476 O500 2.410 . S
Nd476 O505 2.414 . S
Nd476 O507 2.424 . S
Nd477 C487 2.836 . S
Nd477 O499 2.414 . S
Nd477 O501 2.424 . S
Nd477 O502 2.500 . S
Nd477 O503 2.492 . S
Nd477 O504 2.487 . S
Nd477 O505 2.682 . S
Nd477 O506 2.410 . S
C478 Nd476 2.836 . S
C478 C479 1.498 . S
C478 O496 1.258 . S
C478 O497 1.239 . S
C479 C478 1.498 . S
C479 C480 1.366 . S
C479 C484 1.407 . S
C480 C479 1.366 . S
C480 C481 1.392 . S
C480 H508 0.930 . S
C481 C480 1.392 . S
C481 C482 1.398 . S
C481 H509 0.929 . S
C482 C481 1.398 . S
C482 C483 1.352 . S
C483 C482 1.352 . S
C483 C484 1.384 . S
C483 H510 0.930 . S
C484 C479 1.407 . S
C484 C483 1.384 . S
C484 H511 0.929 . S
C485 O498 1.241 . S
C485 O499 1.273 . S
C486 O500 1.251 . S
C486 O501 1.268 . S
C487 Nd477 2.836 . S
C487 C488 1.498 . S
C487 O502 1.258 . S
C487 O503 1.239 . S
C488 C487 1.498 . S
C488 C489 1.366 . S
C488 C493 1.407 . S
C489 C488 1.366 . S
C489 C490 1.392 . S
C489 H512 0.930 . S
C490 C489 1.392 . S
C490 C491 1.398 . S
C490 H513 0.929 . S
C491 C490 1.398 . S
C491 C492 1.352 . S
C492 C491 1.352 . S
C492 C493 1.384 . S
C492 H514 0.930 . S
C493 C488 1.407 . S
C493 C492 1.384 . S
C493 H515 0.929 . S
C494 O504 1.241 . S
C494 O505 1.273 . S
C495 O506 1.251 . S
C495 O507 1.268 . S
O496 Nd476 2.500 . S
O496 C478 1.258 . S
O497 Nd476 2.492 . S
O497 C478 1.239 . S
O498 Nd476 2.487 . S
O498 C485 1.241 . S
O499 Nd476 2.682 . S
O499 Nd477 2.414 . S
O499 C485 1.273 . S
O500 Nd476 2.410 . S
O500 C486 1.251 . S
O501 Nd477 2.424 . S
O501 C486 1.268 . S
O502 Nd477 2.500 . S
O502 C487 1.258 . S
O503 Nd477 2.492 . S
O503 C487 1.239 . S
O504 Nd477 2.487 . S
O504 C494 1.241 . S
O505 Nd476 2.414 . S
O505 Nd477 2.682 . S
O505 C494 1.273 . S
O506 Nd477 2.410 . S
O506 C495 1.251 . S
O507 Nd476 2.424 . S
O507 C495 1.268 . S
H508 C480 0.930 . S
H509 C481 0.929 . S
H510 C483 0.930 . S
H511 C484 0.929 . S
H512 C489 0.930 . S
H513 C490 0.929 . S
H514 C492 0.930 . S
H515 C493 0.929 . S
Nd516 C518 2.836 . S
Nd516 O536 2.500 . S
Nd516 O537 2.492 . S
Nd516 O538 2.487 . S
Nd516 O539 2.682 . S
Nd516 O540 2.410 . S
Nd516 O545 2.414 . S
Nd516 O547 2.424 . S
Nd517 C527 2.836 . S
Nd517 O539 2.414 . S
Nd517 O541 2.424 . S
Nd517 O542 2.500 . S
Nd517 O543 2.492 . S
Nd517 O544 2.487 . S
Nd517 O545 2.682 . S
Nd517 O546 2.410 . S
C518 Nd516 2.836 . S
C518 C519 1.498 . S
C518 O536 1.258 . S
C518 O537 1.239 . S
C519 C518 1.498 . S
C519 C520 1.366 . S
C519 C524 1.407 . S
C520 C519 1.366 . S
C520 C521 1.392 . S
C520 H548 0.930 . S
C521 C520 1.392 . S
C521 C522 1.398 . S
C521 H549 0.929 . S
C522 C521 1.398 . S
C522 C523 1.352 . S
C523 C522 1.352 . S
C523 C524 1.384 . S
C523 H550 0.930 . S
C524 C519 1.407 . S
C524 C523 1.384 . S
C524 H551 0.929 . S
C525 O538 1.241 . S
C525 O539 1.273 . S
C526 O540 1.251 . S
C526 O541 1.268 . S
C527 Nd517 2.836 . S
C527 C528 1.498 . S
C527 O542 1.258 . S
C527 O543 1.239 . S
C528 C527 1.498 . S
C528 C529 1.366 . S
C528 C533 1.407 . S
C529 C528 1.366 . S
C529 C530 1.392 . S
C529 H552 0.930 . S
C530 C529 1.392 . S
C530 C531 1.398 1_556 S
C530 H553 0.929 . S
C531 C530 1.398 1_554 S
C531 C532 1.352 1_554 S
C532 C531 1.352 1_556 S
C532 C533 1.384 . S
C532 H554 0.930 1_556 S
C533 C528 1.407 . S
C533 C532 1.384 . S
C533 H555 0.929 . S
C534 O544 1.241 . S
C534 O545 1.273 . S
C535 O546 1.251 . S
C535 O547 1.268 . S
O536 Nd516 2.500 . S
O536 C518 1.258 . S
O537 Nd516 2.492 . S
O537 C518 1.239 . S
O538 Nd516 2.487 . S
O538 C525 1.241 . S
O539 Nd516 2.682 . S
O539 Nd517 2.414 . S
O539 C525 1.273 . S
O540 Nd516 2.410 . S
O540 C526 1.251 . S
O541 Nd517 2.424 . S
O541 C526 1.268 . S
O542 Nd517 2.500 . S
O542 C527 1.258 . S
O543 Nd517 2.492 . S
O543 C527 1.239 . S
O544 Nd517 2.487 . S
O544 C534 1.241 . S
O545 Nd516 2.414 . S
O545 Nd517 2.682 . S
O545 C534 1.273 . S
O546 Nd517 2.410 . S
O546 C535 1.251 . S
O547 Nd516 2.424 . S
O547 C535 1.268 . S
H548 C520 0.930 . S
H549 C521 0.929 . S
H550 C523 0.930 . S
H551 C524 0.929 . S
H552 C529 0.930 . S
H553 C530 0.929 . S
H554 C532 0.930 1_554 S
H555 C533 0.929 . S
Nd556 C558 2.836 . S
Nd556 O576 2.500 . S
Nd556 O577 2.492 . S
Nd556 O578 2.487 . S
Nd556 O579 2.682 . S
Nd556 O580 2.410 . S
Nd556 O585 2.414 . S
Nd556 O587 2.424 . S
Nd557 C567 2.836 . S
Nd557 O579 2.414 . S
Nd557 O581 2.424 . S
Nd557 O582 2.500 . S
Nd557 O583 2.492 . S
Nd557 O584 2.487 . S
Nd557 O585 2.682 . S
Nd557 O586 2.410 . S
C558 Nd556 2.836 . S
C558 C559 1.498 . S
C558 O576 1.258 . S
C558 O577 1.239 . S
C559 C558 1.498 . S
C559 C560 1.366 . S
C559 C564 1.407 . S
C560 C559 1.366 . S
C560 C561 1.392 . S
C560 H588 0.930 . S
C561 C560 1.392 . S
C561 C562 1.398 . S
C561 H589 0.929 . S
C562 C561 1.398 . S
C562 C563 1.352 . S
C563 C562 1.352 . S
C563 C564 1.384 . S
C563 H590 0.930 . S
C564 C559 1.407 . S
C564 C563 1.384 . S
C564 H591 0.929 . S
C565 O578 1.241 . S
C565 O579 1.273 . S
C566 O580 1.251 . S
C566 O581 1.268 . S
C567 Nd557 2.836 . S
C567 C568 1.498 . S
C567 O582 1.258 . S
C567 O583 1.239 . S
C568 C567 1.498 . S
C568 C569 1.366 . S
C568 C573 1.407 . S
C569 C568 1.366 . S
C569 C570 1.392 1_565 S
C569 H592 0.930 . S
C570 C569 1.392 1_545 S
C570 C571 1.398 . S
C570 H593 0.929 . S
C571 C570 1.398 . S
C571 C572 1.352 . S
C572 C571 1.352 . S
C572 C573 1.384 1_545 S
C572 H594 0.930 . S
C573 C568 1.407 . S
C573 C572 1.384 1_565 S
C573 H595 0.929 . S
C574 O584 1.241 . S
C574 O585 1.273 . S
C575 O586 1.251 . S
C575 O587 1.268 . S
O576 Nd556 2.500 . S
O576 C558 1.258 . S
O577 Nd556 2.492 . S
O577 C558 1.239 . S
O578 Nd556 2.487 . S
O578 C565 1.241 . S
O579 Nd556 2.682 . S
O579 Nd557 2.414 . S
O579 C565 1.273 . S
O580 Nd556 2.410 . S
O580 C566 1.251 . S
O581 Nd557 2.424 . S
O581 C566 1.268 . S
O582 Nd557 2.500 . S
O582 C567 1.258 . S
O583 Nd557 2.492 . S
O583 C567 1.239 . S
O584 Nd557 2.487 . S
O584 C574 1.241 . S
O585 Nd556 2.414 . S
O585 Nd557 2.682 . S
O585 C574 1.273 . S
O586 Nd557 2.410 . S
O586 C575 1.251 . S
O587 Nd556 2.424 . S
O587 C575 1.268 . S
H588 C560 0.930 . S
H589 C561 0.929 . S
H590 C563 0.930 . S
H591 C564 0.929 . S
H592 C569 0.930 . S
H593 C570 0.929 . S
H594 C572 0.930 . S
H595 C573 0.929 . S
C596 C597 1.369 . S
C596 C598 1.419 . S
C596 H600 0.930 . S
C597 C596 1.369 . S
C597 C606 1.429 . S
C598 C596 1.419 . S
C598 C599 1.363 . S
C598 H601 0.929 . S
C599 C598 1.363 . S
C599 C605 1.428 . S
H600 C596 0.930 . S
H601 C598 0.929 . S
S602 N603 1.613 . S
S602 N604 1.610 . S
N603 S602 1.613 . S
N603 C606 1.350 . S
N604 S602 1.610 . S
N604 C605 1.351 . S
C605 C599 1.428 . S
C605 N604 1.351 . S
C605 C606 1.434 . S
C606 C597 1.429 . S
C606 N603 1.350 . S
C606 C605 1.434 . S
C607 C608 1.369 . S
C607 C609 1.419 . S
C607 H611 0.930 . S
C608 C607 1.369 . S
C608 C617 1.429 . S
C609 C607 1.419 . S
C609 C610 1.363 . S
C609 H612 0.929 . S
C610 C609 1.363 . S
C610 C616 1.428 . S
H611 C607 0.930 . S
H612 C609 0.929 . S
S613 N614 1.613 . S
S613 N615 1.610 . S
N614 S613 1.613 . S
N614 C617 1.350 . S
N615 S613 1.610 . S
N615 C616 1.351 . S
C616 C610 1.428 . S
C616 N615 1.351 . S
C616 C617 1.434 . S
C617 C608 1.429 . S
C617 N614 1.350 . S
C617 C616 1.434 . S
C618 C619 1.369 . S
C618 C620 1.419 . S
C618 H622 0.930 . S
C619 C618 1.369 . S
C619 C628 1.429 . S
C620 C618 1.419 . S
C620 C621 1.363 . S
C620 H623 0.929 . S
C621 C620 1.363 . S
C621 C627 1.428 . S
H622 C618 0.930 . S
H623 C620 0.929 . S
S624 N625 1.613 . S
S624 N626 1.610 . S
N625 S624 1.613 . S
N625 C628 1.350 . S
N626 S624 1.610 . S
N626 C627 1.351 . S
C627 C621 1.428 . S
C627 N626 1.351 . S
C627 C628 1.434 . S
C628 C619 1.429 . S
C628 N625 1.350 . S
C628 C627 1.434 . S
C629 C630 1.369 1_565 S
C629 C631 1.419 . S
C629 H633 0.930 . S
C630 C629 1.369 1_545 S
C630 C639 1.428 . S
C631 C629 1.419 . S
C631 C632 1.363 . S
C631 H634 0.929 . S
C632 C631 1.363 . S
C632 C638 1.428 . S
H633 C629 0.930 . S
H634 C631 0.929 . S
S635 N636 1.613 . S
S635 N637 1.610 1_545 S
N636 S635 1.613 . S
N636 C639 1.349 . S
N637 S635 1.610 1_565 S
N637 C638 1.351 . S
C638 C632 1.428 . S
C638 N637 1.351 . S
C638 C639 1.435 1_565 S
C639 C630 1.428 . S
C639 N636 1.349 . S
C639 C638 1.435 1_545 S
C640 C641 1.369 . S
C640 C642 1.419 . S
C640 H644 0.930 1_565 S
C641 C640 1.369 . S
C641 C650 1.429 . S
C642 C640 1.419 . S
C642 C643 1.363 . S
C642 H645 0.929 . S
C643 C642 1.363 . S
C643 C649 1.428 . S
H644 C640 0.930 1_545 S
H645 C642 0.929 . S
S646 N647 1.613 . S
S646 N648 1.610 . S
N647 S646 1.613 . S
N647 C650 1.350 . S
N648 S646 1.610 . S
N648 C649 1.351 . S
C649 C643 1.428 . S
C649 N648 1.351 . S
C649 C650 1.434 . S
C650 C641 1.429 . S
C650 N647 1.350 . S
C650 C649 1.434 . S
C651 C652 1.369 . S
C651 C653 1.419 . S
C651 H655 0.930 . S
C652 C651 1.369 . S
C652 C661 1.429 . S
C653 C651 1.419 . S
C653 C654 1.363 . S
C653 H656 0.929 . S
C654 C653 1.363 . S
C654 C660 1.428 . S
H655 C651 0.930 . S
H656 C653 0.929 . S
S657 N658 1.613 . S
S657 N659 1.610 . S
N658 S657 1.613 . S
N658 C661 1.350 . S
N659 S657 1.610 . S
N659 C660 1.351 . S
C660 C654 1.428 . S
C660 N659 1.351 . S
C660 C661 1.434 . S
C661 C652 1.429 . S
C661 N658 1.350 . S
C661 C660 1.434 . S
C662 C663 1.369 . S
C662 C664 1.419 . S
C662 H666 0.930 . S
C663 C662 1.369 . S
C663 C672 1.429 . S
C664 C662 1.419 . S
C664 C665 1.363 . S
C664 H667 0.929 . S
C665 C664 1.363 . S
C665 C671 1.428 . S
H666 C662 0.930 . S
H667 C664 0.929 . S
S668 N669 1.613 . S
S668 N670 1.610 . S
N669 S668 1.613 . S
N669 C672 1.350 . S
N670 S668 1.610 . S
N670 C671 1.351 . S
C671 C665 1.428 . S
C671 N670 1.351 . S
C671 C672 1.434 . S
C672 C663 1.429 . S
C672 N669 1.350 . S
C672 C671 1.434 . S
C673 C674 1.374 . S
C673 C675 1.419 . S
C673 H677 0.930 . S
C674 C673 1.374 . S
C674 C683 1.428 1_565 S
C675 C673 1.419 . S
C675 C676 1.363 . S
C675 H678 0.929 . S
C676 C675 1.363 . S
C676 C682 1.428 . S
H677 C673 0.930 . S
H678 C675 0.929 . S
S679 N680 1.613 . S
S679 N681 1.604 1_545 S
N680 S679 1.613 . S
N680 C683 1.350 . S
N681 S679 1.604 1_565 S
N681 C682 1.353 . S
C682 C676 1.428 . S
C682 N681 1.353 . S
C682 C683 1.434 1_565 S
C683 C674 1.428 1_545 S
C683 N680 1.350 . S
C683 C682 1.434 1_545 S
C684 C685 1.369 . S
C684 C686 1.419 . S
C684 H688 0.930 . S
C685 C684 1.369 . S
C685 C694 1.429 . S
C686 C684 1.419 . S
C686 C687 1.363 . S
C686 H689 0.929 . S
C687 C686 1.363 . S
C687 C693 1.428 . S
H688 C684 0.930 . S
H689 C686 0.929 . S
S690 N691 1.613 . S
S690 N692 1.610 . S
N691 S690 1.613 . S
N691 C694 1.350 . S
N692 S690 1.610 . S
N692 C693 1.351 . S
C693 C687 1.428 . S
C693 N692 1.351 . S
C693 C694 1.434 . S
C694 C685 1.429 . S
C694 N691 1.350 . S
C694 C693 1.434 . S
C695 C696 1.369 . S
C695 C697 1.419 . S
C695 H699 0.930 . S
C696 C695 1.369 . S
C696 C705 1.429 . S
C697 C695 1.419 . S
C697 C698 1.363 . S
C697 H700 0.929 . S
C698 C697 1.363 . S
C698 C704 1.428 . S
H699 C695 0.930 . S
H700 C697 0.929 . S
S701 N702 1.613 . S
S701 N703 1.610 . S
N702 S701 1.613 . S
N702 C705 1.350 . S
N703 S701 1.610 . S
N703 C704 1.351 . S
C704 C698 1.428 . S
C704 N703 1.351 . S
C704 C705 1.434 . S
C705 C696 1.429 . S
C705 N702 1.350 . S
C705 C704 1.434 . S
C706 C707 1.369 . S
C706 C708 1.419 . S
C706 H710 0.930 . S
C707 C706 1.369 . S
C707 C716 1.429 . S
C708 C706 1.419 . S
C708 C709 1.363 . S
C708 H711 0.929 . S
C709 C708 1.363 . S
C709 C715 1.428 . S
H710 C706 0.930 . S
H711 C708 0.929 . S
S712 N713 1.613 . S
S712 N714 1.610 . S
N713 S712 1.613 . S
N713 C716 1.350 . S
N714 S712 1.610 . S
N714 C715 1.351 . S
C715 C709 1.428 . S
C715 N714 1.351 . S
C715 C716 1.434 . S
C716 C707 1.429 . S
C716 N713 1.350 . S
C716 C715 1.434 . S
C717 C718 1.369 . S
C717 C719 1.419 . S
C717 H721 0.930 . S
C718 C717 1.369 . S
C718 C727 1.429 . S
C719 C717 1.419 . S
C719 C720 1.363 . S
C719 H722 0.929 . S
C720 C719 1.363 . S
C720 C726 1.428 . S
H721 C717 0.930 . S
H722 C719 0.929 . S
S723 N724 1.613 . S
S723 N725 1.610 . S
N724 S723 1.613 . S
N724 C727 1.350 . S
N725 S723 1.610 . S
N725 C726 1.351 . S
C726 C720 1.428 . S
C726 N725 1.351 . S
C726 C727 1.434 . S
C727 C718 1.429 . S
C727 N724 1.350 . S
C727 C726 1.434 . S
C728 C729 1.369 . S
C728 C730 1.419 . S
C728 H732 0.930 . S
C729 C728 1.369 . S
C729 C738 1.429 . S
C730 C728 1.419 . S
C730 C731 1.363 . S
C730 H733 0.929 . S
C731 C730 1.363 . S
C731 C737 1.428 . S
H732 C728 0.930 . S
H733 C730 0.929 . S
S734 N735 1.613 . S
S734 N736 1.610 . S
N735 S734 1.613 . S
N735 C738 1.350 . S
N736 S734 1.610 . S
N736 C737 1.351 . S
C737 C731 1.428 . S
C737 N736 1.351 . S
C737 C738 1.434 . S
C738 C729 1.429 . S
C738 N735 1.350 . S
C738 C737 1.434 . S
C739 C740 1.369 . S
C739 C741 1.419 . S
C739 H743 0.930 . S
C740 C739 1.369 . S
C740 C749 1.429 . S
C741 C739 1.419 . S
C741 C742 1.363 . S
C741 H744 0.929 . S
C742 C741 1.363 . S
C742 C748 1.428 . S
H743 C739 0.930 . S
H744 C741 0.929 . S
S745 N746 1.613 . S
S745 N747 1.610 . S
N746 S745 1.613 . S
N746 C749 1.350 . S
N747 S745 1.610 . S
N747 C748 1.351 . S
C748 C742 1.428 . S
C748 N747 1.351 . S
C748 C749 1.434 . S
C749 C740 1.429 . S
C749 N746 1.350 . S
C749 C748 1.434 . S
C750 C751 1.369 . S
C750 C752 1.419 . S
C750 H754 0.930 . S
C751 C750 1.369 . S
C751 C760 1.429 . S
C752 C750 1.419 . S
C752 C753 1.363 . S
C752 H755 0.929 1_554 S
C753 C752 1.363 . S
C753 C759 1.428 . S
H754 C750 0.930 . S
H755 C752 0.929 1_556 S
S756 N757 1.613 . S
S756 N758 1.610 . S
N757 S756 1.613 . S
N757 C760 1.350 . S
N758 S756 1.610 . S
N758 C759 1.351 . S
C759 C753 1.428 . S
C759 N758 1.351 . S
C759 C760 1.434 . S
C760 C751 1.429 . S
C760 N757 1.350 . S
C760 C759 1.434 . S
C761 C762 1.369 . S
C761 C763 1.419 . S
C761 H765 0.930 . S
C762 C761 1.369 . S
C762 C771 1.429 . S
C763 C761 1.419 . S
C763 C764 1.363 . S
C763 H766 0.929 . S
C764 C763 1.363 . S
C764 C770 1.428 . S
H765 C761 0.930 . S
H766 C763 0.929 . S
S767 N768 1.613 . S
S767 N769 1.610 . S
N768 S767 1.613 . S
N768 C771 1.350 . S
N769 S767 1.610 . S
N769 C770 1.351 . S
C770 C764 1.428 . S
C770 N769 1.351 . S
C770 C771 1.434 . S
C771 C762 1.429 . S
C771 N768 1.350 . S
C771 C770 1.434 . S
C772 C773 1.369 . S
C772 C774 1.419 . S
C772 H776 0.930 . S
C773 C772 1.369 . S
C773 C782 1.429 . S
C774 C772 1.419 . S
C774 C775 1.363 . S
C774 H777 0.929 . S
C775 C774 1.363 . S
C775 C781 1.428 . S
H776 C772 0.930 . S
H777 C774 0.929 . S
S778 N779 1.613 . S
S778 N780 1.610 . S
N779 S778 1.613 . S
N779 C782 1.350 . S
N780 S778 1.610 . S
N780 C781 1.351 . S
C781 C775 1.428 . S
C781 N780 1.351 . S
C781 C782 1.434 . S
C782 C773 1.429 . S
C782 N779 1.350 . S
C782 C781 1.434 . S
C783 C784 1.369 . S
C783 C785 1.419 1_554 S
C783 H787 0.930 . S
C784 C783 1.369 . S
C784 C793 1.429 1_554 S
C785 C783 1.419 1_556 S
C785 C786 1.363 . S
C785 H788 0.929 . S
C786 C785 1.363 . S
C786 C792 1.428 . S
H787 C783 0.930 . S
H788 C785 0.929 . S
S789 N790 1.613 . S
S789 N791 1.610 . S
N790 S789 1.613 . S
N790 C793 1.350 . S
N791 S789 1.610 . S
N791 C792 1.351 . S
C792 C786 1.428 . S
C792 N791 1.351 . S
C792 C793 1.434 . S
C793 C784 1.429 1_556 S
C793 N790 1.350 . S
C793 C792 1.434 . S
C794 C795 1.369 . S
C794 C796 1.419 . S
C794 H798 0.930 . S
C795 C794 1.369 . S
C795 C804 1.429 . S
C796 C794 1.419 . S
C796 C797 1.363 . S
C796 H799 0.929 . S
C797 C796 1.363 . S
C797 C803 1.428 . S
H798 C794 0.930 . S
H799 C796 0.929 . S
S800 N801 1.613 . S
S800 N802 1.610 1_554 S
N801 S800 1.613 . S
N801 C804 1.350 1_554 S
N802 S800 1.610 1_556 S
N802 C803 1.351 . S
C803 C797 1.428 . S
C803 N802 1.351 . S
C803 C804 1.434 . S
C804 C795 1.429 . S
C804 N801 1.350 1_556 S
C804 C803 1.434 . S
C805 C806 1.369 . S
C805 C807 1.419 . S
C805 H809 0.930 . S
C806 C805 1.369 . S
C806 C815 1.429 . S
C807 C805 1.419 . S
C807 C808 1.363 . S
C807 H810 0.929 . S
C808 C807 1.363 . S
C808 C814 1.428 . S
H809 C805 0.930 . S
H810 C807 0.929 . S
S811 N812 1.613 1_556 S
S811 N813 1.610 . S
N812 S811 1.613 1_554 S
N812 C815 1.350 1_554 S
N813 S811 1.610 . S
N813 C814 1.351 . S
C814 C808 1.428 . S
C814 N813 1.351 . S
C814 C815 1.434 . S
C815 C806 1.429 . S
C815 N812 1.350 1_556 S
C815 C814 1.434 . S
C816 C817 1.369 . S
C816 C818 1.419 . S
C816 H820 0.930 1_545 S
C817 C816 1.369 . S
C817 C826 1.429 . S
C818 C816 1.419 . S
C818 C819 1.363 1_554 S
C818 H821 0.929 1_544 S
C819 C818 1.363 1_556 S
C819 C825 1.428 1_556 S
H820 C816 0.930 1_565 S
H821 C818 0.929 1_566 S
S822 N823 1.613 . S
S822 N824 1.610 . S
N823 S822 1.613 . S
N823 C826 1.350 . S
N824 S822 1.610 . S
N824 C825 1.351 . S
C825 C819 1.428 1_554 S
C825 N824 1.351 . S
C825 C826 1.434 . S
C826 C817 1.429 . S
C826 N823 1.350 . S
C826 C825 1.434 . S
C827 C828 1.369 . S
C827 C829 1.419 . S
C827 H831 0.930 . S
C828 C827 1.369 . S
C828 C837 1.429 . S
C829 C827 1.419 . S
C829 C830 1.363 . S
C829 H832 0.929 . S
C830 C829 1.363 . S
C830 C836 1.428 . S
H831 C827 0.930 . S
H832 C829 0.929 . S
S833 N834 1.613 . S
S833 N835 1.610 . S
N834 S833 1.613 . S
N834 C837 1.350 1_455 S
N835 S833 1.610 . S
N835 C836 1.351 1_455 S
C836 C830 1.428 . S
C836 N835 1.351 1_655 S
C836 C837 1.434 . S
C837 C828 1.429 . S
C837 N834 1.350 1_655 S
C837 C836 1.434 . S
C838 C839 1.369 . S
C838 C840 1.419 . S
C838 H842 0.930 . S
C839 C838 1.369 . S
C839 C848 1.429 . S
C840 C838 1.419 . S
C840 C841 1.363 . S
C840 H843 0.929 . S
C841 C840 1.363 . S
C841 C847 1.428 . S
H842 C838 0.930 . S
H843 C840 0.929 . S
S844 N845 1.613 1_545 S
S844 N846 1.610 1_545 S
N845 S844 1.613 1_565 S
N845 C848 1.350 . S
N846 S844 1.610 1_565 S
N846 C847 1.351 . S
C847 C841 1.428 . S
C847 N846 1.351 . S
C847 C848 1.434 . S
C848 C839 1.429 . S
C848 N845 1.350 . S
C848 C847 1.434 . S
C849 C850 1.369 . S
C849 C851 1.419 . S
C849 H853 0.930 . S
C850 C849 1.369 . S
C850 C859 1.429 . S
C851 C849 1.419 . S
C851 C852 1.363 . S
C851 H854 0.929 . S
C852 C851 1.363 . S
C852 C858 1.428 . S
H853 C849 0.930 . S
H854 C851 0.929 . S
S855 N856 1.613 . S
S855 N857 1.610 . S
N856 S855 1.613 . S
N856 C859 1.350 . S
N857 S855 1.610 . S
N857 C858 1.351 . S
C858 C852 1.428 . S
C858 N857 1.351 . S
C858 C859 1.434 . S
C859 C850 1.429 . S
C859 N856 1.350 . S
C859 C858 1.434 . S
C860 C861 1.369 . S
C860 C862 1.419 . S
C860 H864 0.930 . S
C861 C860 1.369 . S
C861 C870 1.429 . S
C862 C860 1.419 . S
C862 C863 1.363 . S
C862 H865 0.929 . S
C863 C862 1.363 . S
C863 C869 1.428 . S
H864 C860 0.930 . S
H865 C862 0.929 . S
S866 N867 1.613 . S
S866 N868 1.610 . S
N867 S866 1.613 . S
N867 C870 1.350 . S
N868 S866 1.610 . S
N868 C869 1.351 . S
C869 C863 1.428 . S
C869 N868 1.351 . S
C869 C870 1.434 . S
C870 C861 1.429 . S
C870 N867 1.350 . S
C870 C869 1.434 . S
C871 C872 1.369 . S
C871 C873 1.419 . S
C871 H875 0.930 . S
C872 C871 1.369 . S
C872 C881 1.429 . S
C873 C871 1.419 . S
C873 C874 1.363 . S
C873 H876 0.929 . S
C874 C873 1.363 . S
C874 C880 1.428 . S
H875 C871 0.930 . S
H876 C873 0.929 . S
S877 N878 1.613 . S
S877 N879 1.610 . S
N878 S877 1.613 . S
N878 C881 1.350 . S
N879 S877 1.610 . S
N879 C880 1.351 . S
C880 C874 1.428 . S
C880 N879 1.351 . S
C880 C881 1.434 . S
C881 C872 1.429 . S
C881 N878 1.350 . S
C881 C880 1.434 . S
C882 C883 1.369 . S
C882 C884 1.419 . S
C882 H886 0.930 . S
C883 C882 1.369 . S
C883 C892 1.429 . S
C884 C882 1.419 . S
C884 C885 1.363 . S
C884 H887 0.929 . S
C885 C884 1.363 . S
C885 C891 1.428 . S
H886 C882 0.930 . S
H887 C884 0.929 . S
S888 N889 1.613 . S
S888 N890 1.610 . S
N889 S888 1.613 . S
N889 C892 1.350 . S
N890 S888 1.610 . S
N890 C891 1.351 . S
C891 C885 1.428 . S
C891 N890 1.351 . S
C891 C892 1.434 . S
C892 C883 1.429 . S
C892 N889 1.350 . S
C892 C891 1.434 . S
C893 C894 1.369 . S
C893 C895 1.419 . S
C893 H897 0.930 . S
C894 C893 1.369 . S
C894 C903 1.429 . S
C895 C893 1.419 . S
C895 C896 1.363 . S
C895 H898 0.929 . S
C896 C895 1.363 . S
C896 C902 1.428 . S
H897 C893 0.930 . S
H898 C895 0.929 . S
S899 N900 1.613 . S
S899 N901 1.610 . S
N900 S899 1.613 . S
N900 C903 1.350 . S
N901 S899 1.610 . S
N901 C902 1.351 . S
C902 C896 1.428 . S
C902 N901 1.351 . S
C902 C903 1.434 . S
C903 C894 1.429 . S
C903 N900 1.350 . S
C903 C902 1.434 . S
C904 C905 1.369 . S
C904 C906 1.419 . S
C904 H908 0.930 . S
C905 C904 1.369 . S
C905 C914 1.429 . S
C906 C904 1.419 . S
C906 C907 1.363 . S
C906 H909 0.929 . S
C907 C906 1.363 . S
C907 C913 1.428 . S
H908 C904 0.930 . S
H909 C906 0.929 . S
S910 N911 1.613 . S
S910 N912 1.610 . S
N911 S910 1.613 . S
N911 C914 1.350 . S
N912 S910 1.610 . S
N912 C913 1.351 . S
C913 C907 1.428 . S
C913 N912 1.351 . S
C913 C914 1.434 . S
C914 C905 1.429 . S
C914 N911 1.350 . S
C914 C913 1.434 . S
C915 C916 1.369 . S
C915 C917 1.419 . S
C915 H919 0.930 . S
C916 C915 1.369 . S
C916 C925 1.429 . S
C917 C915 1.419 . S
C917 C918 1.363 . S
C917 H920 0.929 . S
C918 C917 1.363 . S
C918 C924 1.428 . S
H919 C915 0.930 . S
H920 C917 0.929 . S
S921 N922 1.613 . S
S921 N923 1.610 . S
N922 S921 1.613 . S
N922 C925 1.350 . S
N923 S921 1.610 . S
N923 C924 1.351 . S
C924 C918 1.428 . S
C924 N923 1.351 . S
C924 C925 1.434 . S
C925 C916 1.429 . S
C925 N922 1.350 . S
C925 C924 1.434 . S
C926 C927 1.369 . S
C926 C928 1.419 . S
C926 H930 0.930 . S
C927 C926 1.369 . S
C927 C936 1.429 . S
C928 C926 1.419 . S
C928 C929 1.363 . S
C928 H931 0.929 . S
C929 C928 1.363 . S
C929 C935 1.428 . S
H930 C926 0.930 . S
H931 C928 0.929 . S
S932 N933 1.613 . S
S932 N934 1.610 . S
N933 S932 1.613 . S
N933 C936 1.350 . S
N934 S932 1.610 . S
N934 C935 1.351 . S
C935 C929 1.428 . S
C935 N934 1.351 . S
C935 C936 1.434 . S
C936 C927 1.429 . S
C936 N933 1.350 . S
C936 C935 1.434 . S
C937 C938 1.369 . S
C937 C939 1.419 . S
C937 H941 0.930 . S
C938 C937 1.369 . S
C938 C947 1.429 . S
C939 C937 1.419 . S
C939 C940 1.363 . S
C939 H942 0.929 . S
C940 C939 1.363 . S
C940 C946 1.428 . S
H941 C937 0.930 . S
H942 C939 0.929 . S
S943 N944 1.613 . S
S943 N945 1.610 . S
N944 S943 1.613 . S
N944 C947 1.350 . S
N945 S943 1.610 . S
N945 C946 1.351 . S
C946 C940 1.428 . S
C946 N945 1.351 . S
C946 C947 1.434 . S
C947 C938 1.429 . S
C947 N944 1.350 . S
C947 C946 1.434 . S
C948 C949 1.369 . S
C948 C950 1.419 . S
C948 H952 0.930 . S
C949 C948 1.369 . S
C949 C958 1.429 . S
C950 C948 1.419 . S
C950 C951 1.363 . S
C950 H953 0.929 . S
C951 C950 1.363 . S
C951 C957 1.428 . S
H952 C948 0.930 . S
H953 C950 0.929 . S
S954 N955 1.613 . S
S954 N956 1.610 . S
N955 S954 1.613 . S
N955 C958 1.350 . S
N956 S954 1.610 . S
N956 C957 1.351 . S
C957 C951 1.428 . S
C957 N956 1.351 . S
C957 C958 1.434 . S
C958 C949 1.429 . S
C958 N955 1.350 . S
C958 C957 1.434 . S
C959 C960 1.369 . S
C959 C961 1.419 . S
C959 H963 0.930 . S
C960 C959 1.369 . S
C960 C969 1.429 . S
C961 C959 1.419 . S
C961 C962 1.363 . S
C961 H964 0.929 . S
C962 C961 1.363 . S
C962 C968 1.428 . S
H963 C959 0.930 . S
H964 C961 0.929 . S
S965 N966 1.613 . S
S965 N967 1.610 . S
N966 S965 1.613 . S
N966 C969 1.350 . S
N967 S965 1.610 . S
N967 C968 1.351 . S
C968 C962 1.428 . S
C968 N967 1.351 . S
C968 C969 1.434 . S
C969 C960 1.429 . S
C969 N966 1.350 . S
C969 C968 1.434 . S
C970 C971 1.369 . S
C970 C972 1.419 . S
C970 H974 0.930 . S
C971 C970 1.369 . S
C971 C980 1.429 . S
C972 C970 1.419 . S
C972 C973 1.363 . S
C972 H975 0.929 . S
C973 C972 1.363 . S
C973 C979 1.428 . S
H974 C970 0.930 . S
H975 C972 0.929 . S
S976 N977 1.613 . S
S976 N978 1.610 . S
N977 S976 1.613 . S
N977 C980 1.350 . S
N978 S976 1.610 . S
N978 C979 1.351 . S
C979 C973 1.428 . S
C979 N978 1.351 . S
C979 C980 1.434 . S
C980 C971 1.429 . S
C980 N977 1.350 . S
C980 C979 1.434 . S
C981 C982 1.369 . S
C981 C983 1.419 . S
C981 H985 0.930 . S
C982 C981 1.369 . S
C982 C991 1.429 . S
C983 C981 1.419 . S
C983 C984 1.363 . S
C983 H986 0.929 . S
C984 C983 1.363 . S
C984 C990 1.428 . S
H985 C981 0.930 . S
H986 C983 0.929 . S
S987 N988 1.613 . S
S987 N989 1.610 . S
N988 S987 1.613 . S
N988 C991 1.350 . S
N989 S987 1.610 . S
N989 C990 1.351 . S
C990 C984 1.428 . S
C990 N989 1.351 . S
C990 C991 1.434 . S
C991 C982 1.429 . S
C991 N988 1.350 . S
C991 C990 1.434 . S
C992 C993 1.369 . S
C992 C994 1.419 . S
C992 H996 0.930 . S
C993 C992 1.369 . S
C993 C1002 1.429 . S
C994 C992 1.419 . S
C994 C995 1.363 . S
C994 H997 0.929 . S
C995 C994 1.363 . S
C995 C1001 1.428 . S
H996 C992 0.930 . S
H997 C994 0.929 . S
S998 N999 1.613 . S
S998 N1000 1.610 . S
N999 S998 1.613 . S
N999 C1002 1.350 . S
N1000 S998 1.610 . S
N1000 C1001 1.351 . S
C1001 C995 1.428 . S
C1001 N1000 1.351 . S
C1001 C1002 1.434 . S
C1002 C993 1.429 . S
C1002 N999 1.350 . S
C1002 C1001 1.434 . S
C1003 C1004 1.369 . S
C1003 C1005 1.419 . S
C1003 H1007 0.930 . S
C1004 C1003 1.369 . S
C1004 C1013 1.429 . S
C1005 C1003 1.419 . S
C1005 C1006 1.363 . S
C1005 H1008 0.929 . S
C1006 C1005 1.363 . S
C1006 C1012 1.428 . S
H1007 C1003 0.930 . S
H1008 C1005 0.929 . S
S1009 N1010 1.613 . S
S1009 N1011 1.610 . S
N1010 S1009 1.613 . S
N1010 C1013 1.350 . S
N1011 S1009 1.610 . S
N1011 C1012 1.351 . S
C1012 C1006 1.428 . S
C1012 N1011 1.351 . S
C1012 C1013 1.434 . S
C1013 C1004 1.429 . S
C1013 N1010 1.350 . S
C1013 C1012 1.434 . S
C1014 C1015 1.369 . S
C1014 C1016 1.419 . S
C1014 H1018 0.930 . S
C1015 C1014 1.369 . S
C1015 C1024 1.429 . S
C1016 C1014 1.419 . S
C1016 C1017 1.363 . S
C1016 H1019 0.929 . S
C1017 C1016 1.363 . S
C1017 C1023 1.428 . S
H1018 C1014 0.930 . S
H1019 C1016 0.929 . S
S1020 N1021 1.613 . S
S1020 N1022 1.610 . S
N1021 S1020 1.613 . S
N1021 C1024 1.350 . S
N1022 S1020 1.610 . S
N1022 C1023 1.351 . S
C1023 C1017 1.428 . S
C1023 N1022 1.351 . S
C1023 C1024 1.434 . S
C1024 C1015 1.429 . S
C1024 N1021 1.350 . S
C1024 C1023 1.434 . S
C1025 C1026 1.369 . S
C1025 C1027 1.419 . S
C1025 H1029 0.930 . S
C1026 C1025 1.369 . S
C1026 C1035 1.429 . S
C1027 C1025 1.419 . S
C1027 C1028 1.363 . S
C1027 H1030 0.929 . S
C1028 C1027 1.363 . S
C1028 C1034 1.428 . S
H1029 C1025 0.930 . S
H1030 C1027 0.929 . S
S1031 N1032 1.613 . S
S1031 N1033 1.610 . S
N1032 S1031 1.613 . S
N1032 C1035 1.350 . S
N1033 S1031 1.610 . S
N1033 C1034 1.351 . S
C1034 C1028 1.428 . S
C1034 N1033 1.351 . S
C1034 C1035 1.434 . S
C1035 C1026 1.429 . S
C1035 N1032 1.350 . S
C1035 C1034 1.434 . S
C1036 C1037 1.369 . S
C1036 C1038 1.419 . S
C1036 H1040 0.930 . S
C1037 C1036 1.369 . S
C1037 C1046 1.429 . S
C1038 C1036 1.419 . S
C1038 C1039 1.363 . S
C1038 H1041 0.929 . S
C1039 C1038 1.363 . S
C1039 C1045 1.428 . S
H1040 C1036 0.930 . S
H1041 C1038 0.929 . S
S1042 N1043 1.613 . S
S1042 N1044 1.610 . S
N1043 S1042 1.613 . S
N1043 C1046 1.350 . S
N1044 S1042 1.610 . S
N1044 C1045 1.351 . S
C1045 C1039 1.428 . S
C1045 N1044 1.351 . S
C1045 C1046 1.434 . S
C1046 C1037 1.429 . S
C1046 N1043 1.350 . S
C1046 C1045 1.434 . S
C1047 C1048 1.369 . S
C1047 C1049 1.419 . S
C1047 H1051 0.930 . S
C1048 C1047 1.369 . S
C1048 C1057 1.429 . S
C1049 C1047 1.419 . S
C1049 C1050 1.363 . S
C1049 H1052 0.929 . S
C1050 C1049 1.363 . S
C1050 C1056 1.428 . S
H1051 C1047 0.930 . S
H1052 C1049 0.929 . S
S1053 N1054 1.613 . S
S1053 N1055 1.610 . S
N1054 S1053 1.613 . S
N1054 C1057 1.350 . S
N1055 S1053 1.610 . S
N1055 C1056 1.351 . S
C1056 C1050 1.428 . S
C1056 N1055 1.351 . S
C1056 C1057 1.434 . S
C1057 C1048 1.429 . S
C1057 N1054 1.350 . S
C1057 C1056 1.434 . S
C1058 C1059 1.369 . S
C1058 C1060 1.419 . S
C1058 H1062 0.930 . S
C1059 C1058 1.369 . S
C1059 C1068 1.429 . S
C1060 C1058 1.419 . S
C1060 C1061 1.363 . S
C1060 H1063 0.929 . S
C1061 C1060 1.363 . S
C1061 C1067 1.428 . S
H1062 C1058 0.930 . S
H1063 C1060 0.929 . S
S1064 N1065 1.613 . S
S1064 N1066 1.610 . S
N1065 S1064 1.613 . S
N1065 C1068 1.350 . S
N1066 S1064 1.610 . S
N1066 C1067 1.351 . S
C1067 C1061 1.428 . S
C1067 N1066 1.351 . S
C1067 C1068 1.434 . S
C1068 C1059 1.429 . S
C1068 N1065 1.350 . S
C1068 C1067 1.434 . S
C1069 C1070 1.369 . S
C1069 C1071 1.419 . S
C1069 H1073 0.930 . S
C1070 C1069 1.369 . S
C1070 C1079 1.429 . S
C1071 C1069 1.419 . S
C1071 C1072 1.363 . S
C1071 H1074 0.929 . S
C1072 C1071 1.363 . S
C1072 C1078 1.428 . S
H1073 C1069 0.930 . S
H1074 C1071 0.929 . S
S1075 N1076 1.613 . S
S1075 N1077 1.610 . S
N1076 S1075 1.613 . S
N1076 C1079 1.350 . S
N1077 S1075 1.610 . S
N1077 C1078 1.351 . S
C1078 C1072 1.428 . S
C1078 N1077 1.351 . S
C1078 C1079 1.434 . S
C1079 C1070 1.429 . S
C1079 N1076 1.350 . S
C1079 C1078 1.434 . S
C1080 C1081 1.369 . S
C1080 C1082 1.419 . S
C1080 H1084 0.930 . S
C1081 C1080 1.369 . S
C1081 C1090 1.429 . S
C1082 C1080 1.419 . S
C1082 C1083 1.363 . S
C1082 H1085 0.929 . S
C1083 C1082 1.363 . S
C1083 C1089 1.428 . S
H1084 C1080 0.930 . S
H1085 C1082 0.929 . S
S1086 N1087 1.613 . S
S1086 N1088 1.610 . S
N1087 S1086 1.613 . S
N1087 C1090 1.350 . S
N1088 S1086 1.610 . S
N1088 C1089 1.351 . S
C1089 C1083 1.428 . S
C1089 N1088 1.351 . S
C1089 C1090 1.434 . S
C1090 C1081 1.429 . S
C1090 N1087 1.350 . S
C1090 C1089 1.434 . S
C1091 C1092 1.369 . S
C1091 C1093 1.419 . S
C1091 H1095 0.930 . S
C1092 C1091 1.369 . S
C1092 C1101 1.429 . S
C1093 C1091 1.419 . S
C1093 C1094 1.363 . S
C1093 H1096 0.929 . S
C1094 C1093 1.363 . S
C1094 C1100 1.428 . S
H1095 C1091 0.930 . S
H1096 C1093 0.929 . S
S1097 N1098 1.613 . S
S1097 N1099 1.610 . S
N1098 S1097 1.613 . S
N1098 C1101 1.350 . S
N1099 S1097 1.610 . S
N1099 C1100 1.351 . S
C1100 C1094 1.428 . S
C1100 N1099 1.351 . S
C1100 C1101 1.434 . S
C1101 C1092 1.429 . S
C1101 N1098 1.350 . S
C1101 C1100 1.434 . S
C1102 C1103 1.369 . S
C1102 C1104 1.419 . S
C1102 H1106 0.930 . S
C1103 C1102 1.369 . S
C1103 C1112 1.429 . S
C1104 C1102 1.419 . S
C1104 C1105 1.363 . S
C1104 H1107 0.929 . S
C1105 C1104 1.363 . S
C1105 C1111 1.428 . S
H1106 C1102 0.930 . S
H1107 C1104 0.929 . S
S1108 N1109 1.613 . S
S1108 N1110 1.610 . S
N1109 S1108 1.613 . S
N1109 C1112 1.350 . S
N1110 S1108 1.610 . S
N1110 C1111 1.351 . S
C1111 C1105 1.428 . S
C1111 N1110 1.351 . S
C1111 C1112 1.434 . S
C1112 C1103 1.429 . S
C1112 N1109 1.350 . S
C1112 C1111 1.434 . S
C1113 C1114 1.369 . S
C1113 C1115 1.419 . S
C1113 H1117 0.930 . S
C1114 C1113 1.369 . S
C1114 C1123 1.429 . S
C1115 C1113 1.419 . S
C1115 C1116 1.363 . S
C1115 H1118 0.929 . S
C1116 C1115 1.363 . S
C1116 C1122 1.428 . S
H1117 C1113 0.930 . S
H1118 C1115 0.929 . S
S1119 N1120 1.613 . S
S1119 N1121 1.610 . S
N1120 S1119 1.613 . S
N1120 C1123 1.350 . S
N1121 S1119 1.610 . S
N1121 C1122 1.351 . S
C1122 C1116 1.428 . S
C1122 N1121 1.351 . S
C1122 C1123 1.434 . S
C1123 C1114 1.429 . S
C1123 N1120 1.350 . S
C1123 C1122 1.434 . S
C599 C286 2.390 . S
C597 N2 2.384 . S
C610 C325 2.634 . S
C608 C7 2.699 . S
C621 C375 2.080 . S
C619 N12 1.969 1_565 S
C630 C16 2.213 . S
C632 C414 2.197 . S
C643 C454 2.454 . S
C641 C30 2.545 1_565 S
C654 C495 1.941 . S
C652 N35 1.841 . S
C663 C39 2.343 . S
C665 C525 2.318 . S
C676 C575 2.263 . S
C674 N25 2.192 1_565 S
C687 C282 1.306 . S
C685 N58 1.225 . S
C696 N81 1.677 . S
C698 C331 1.715 . S
C709 C365 1.920 . S
C707 N104 1.986 1_565 S
C718 N127 1.755 . S
C720 C406 1.942 . S
C731 C446 0.398 . S
C729 N48 0.586 . S
C742 C485 2.571 . S
C740 N71 2.524 1_556 S
C751 N94 1.271 . S
C753 C531 1.254 . S
C764 C565 2.050 . S
C762 N117 2.017 . S
C773 C85 2.145 . S
C775 C294 2.312 . S
C784 C122 0.757 . S
C786 C442 0.764 . S
C795 C53 1.117 . S
C797 C491 1.113 . S
C808 C535 2.220 . S
C806 C76 2.238 1_556 S
C819 C571 1.676 . S
C817 C99 1.648 . S
C830 C371 1.189 . S
C828 C131 1.118 . S
C841 C402 0.400 . S
C839 C62 0.618 . S
C850 C108 1.219 . S
C852 C335 1.178 . S
C863 C566 2.466 . S
C861 N140 2.519 . S
C872 C145 2.579 . S
C874 C445 2.519 . S
C885 C486 1.956 . S
C883 N150 1.837 . S
C894 C154 2.372 . S
C896 C534 2.348 . S
C907 C334 2.621 . S
C905 C168 2.704 . S
C916 N173 1.867 . S
C918 C366 1.971 . S
C929 C405 2.213 . S
C927 C177 2.233 . S
C940 C295 2.385 . S
C938 N163 2.319 . S
C951 C562 1.692 . S
C949 C200 1.695 . S
C962 C451 1.112 . S
C960 N219 0.984 . S
C971 N242 0.718 . S
C973 C482 0.713 . S
C984 C526 2.216 . S
C982 C269 2.279 . S
C995 C326 1.146 . S
C993 C191 1.190 . S
C1004 N209 1.258 . S
C1006 C362 1.279 . S
C1015 N232 0.728 . S
C1017 C411 0.611 . S
C1026 C260 2.280 . S
C1028 C285 2.386 . S
C1037 C223 1.961 . S
C1039 C574 2.058 . S
C1048 N255 1.476 . S
C1050 C322 1.566 . S
C1059 N186 2.201 . S
C1061 C374 2.102 . S
C1072 C415 1.799 . S
C1070 C214 1.757 . S
C1083 C291 1.600 . S
C1081 C237 1.596 . S
C1094 C494 2.507 . S
C1092 N265 2.359 . S
C1105 C522 1.188 . S
C1103 N196 1.120 . S
C1116 C455 0.704 . S
C1114 C246 0.692 . S
