# Generated by pormake.
# Topology ssa, (4,4)-cn, num edge types: 1
# Building blocks:
#     Node 0, Type 0, BuildingBlock: KOZSID_clean_sbu_0, # of connection points: 4
#     Node 1, Type 0, BuildingBlock: KOZSID_clean_sbu_0, # of connection points: 4
#     Node 2, Type 0, BuildingBlock: KOZSID_clean_sbu_0, # of connection points: 4
#     Node 3, Type 0, BuildingBlock: KOZSID_clean_sbu_0, # of connection points: 4
#     Node 4, Type 0, BuildingBlock: KOZSID_clean_sbu_0, # of connection points: 4
#     Node 5, Type 0, BuildingBlock: KOZSID_clean_sbu_0, # of connection points: 4
#     Node 6, Type 1, BuildingBlock: KOZSID_clean_sbu_0, # of connection points: 4
#     Node 7, Type 1, BuildingBlock: KOZSID_clean_sbu_0, # of connection points: 4
#     Node 8, Type 1, BuildingBlock: KOZSID_clean_sbu_0, # of connection points: 4
#     Node 9, Type 1, BuildingBlock: KOZSID_clean_sbu_0, # of connection points: 4
#     Node 10, Type 1, BuildingBlock: KOZSID_clean_sbu_0, # of connection points: 4
#     Node 11, Type 1, BuildingBlock: KOZSID_clean_sbu_0, # of connection points: 4
#     Edge 12, Type (0, 1), BuildingBlock: AJUNOK_clean_linker_0, # of connection points: 2
#     Edge 13, Type (0, 1), BuildingBlock: AJUNOK_clean_linker_0, # of connection points: 2
#     Edge 14, Type (0, 1), BuildingBlock: AJUNOK_clean_linker_0, # of connection points: 2
#     Edge 15, Type (0, 1), BuildingBlock: AJUNOK_clean_linker_0, # of connection points: 2
#     Edge 16, Type (0, 1), BuildingBlock: AJUNOK_clean_linker_0, # of connection points: 2
#     Edge 17, Type (0, 1), BuildingBlock: AJUNOK_clean_linker_0, # of connection points: 2
#     Edge 18, Type (0, 1), BuildingBlock: AJUNOK_clean_linker_0, # of connection points: 2
#     Edge 19, Type (0, 1), BuildingBlock: AJUNOK_clean_linker_0, # of connection points: 2
#     Edge 20, Type (0, 1), BuildingBlock: AJUNOK_clean_linker_0, # of connection points: 2
#     Edge 21, Type (0, 1), BuildingBlock: AJUNOK_clean_linker_0, # of connection points: 2
#     Edge 22, Type (0, 1), BuildingBlock: AJUNOK_clean_linker_0, # of connection points: 2
#     Edge 23, Type (0, 1), BuildingBlock: AJUNOK_clean_linker_0, # of connection points: 2
#     Edge 24, Type (0, 1), BuildingBlock: AJUNOK_clean_linker_0, # of connection points: 2
#     Edge 25, Type (0, 1), BuildingBlock: AJUNOK_clean_linker_0, # of connection points: 2
#     Edge 26, Type (0, 1), BuildingBlock: AJUNOK_clean_linker_0, # of connection points: 2
#     Edge 27, Type (0, 1), BuildingBlock: AJUNOK_clean_linker_0, # of connection points: 2
#     Edge 28, Type (0, 1), BuildingBlock: AJUNOK_clean_linker_0, # of connection points: 2
#     Edge 29, Type (0, 1), BuildingBlock: AJUNOK_clean_linker_0, # of connection points: 2
#     Edge 30, Type (0, 1), BuildingBlock: AJUNOK_clean_linker_0, # of connection points: 2
#     Edge 31, Type (0, 1), BuildingBlock: AJUNOK_clean_linker_0, # of connection points: 2
#     Edge 32, Type (0, 1), BuildingBlock: AJUNOK_clean_linker_0, # of connection points: 2
#     Edge 33, Type (0, 1), BuildingBlock: AJUNOK_clean_linker_0, # of connection points: 2
#     Edge 34, Type (0, 1), BuildingBlock: AJUNOK_clean_linker_0, # of connection points: 2
#     Edge 35, Type (0, 1), BuildingBlock: AJUNOK_clean_linker_0, # of connection points: 2
# Relax obj value: 0.013
# Max RMSD: 0.042
# Mean RMSD: 0.021
data_MOF--net-ssa--node1-KOZSID_clean_sbu_0--node2-KOZSID_clean_sbu_0--edge1-AJUNOK_clean_linker_0
_symmetry_space_group_name_H-M    P1
_symmetry_Int_Tables_number       1
_symmetry_cell_setting            triclinic
loop_
_symmetry_equiv_pos_as_xyz
'x, y, z'
_cell_length_a     45.343134
_cell_length_b     46.671406
_cell_length_c     32.630812
_cell_angle_alpha  90.704309
_cell_angle_beta   93.612734
_cell_angle_gamma 123.00824
loop_
_atom_site_label
_atom_site_type_symbol
_atom_site_fract_x
_atom_site_fract_y
_atom_site_fract_z
_atom_type_partial_charge
C0 C 0.94698 0.51466 1.00054 0.0
C1 C 0.92441 0.51704 0.02512 0.0
C2 C 0.92934 0.50796 0.06341 0.0
C3 C 0.95528 0.50154 0.0605 0.0
N4 N 0.96759 0.50661 0.02294 0.0
Co5 Co 1.00845 0.50453 0.00773 0.0
N6 N 0.01043 0.48361 0.06041 0.0
C7 C 0.98767 0.47434 0.0899 0.0
C8 C 0.99441 0.45945 0.12196 0.0
C9 C 0.02343 0.45956 0.11258 0.0
C10 C 0.03324 0.47514 0.0755 0.0
N11 N 0.05117 0.50496 0.99371 0.0
C12 C 0.07281 0.49862 0.01707 0.0
C13 C 0.10348 0.50891 0.99815 0.0
C14 C 0.10086 0.52146 0.96157 0.0
C15 C 0.06928 0.5189 0.96044 0.0
N16 N 1.00409 0.52238 0.95338 0.0
C17 C 0.02531 0.5295 0.92263 0.0
C18 C 0.01251 0.53414 0.88598 0.0
C19 C 0.98083 0.52915 0.89344 0.0
C20 C 0.97642 0.52272 0.93486 0.0
N21 N 0.04119 0.55159 0.03343 0.0
C22 C 0.0935 0.61604 0.07165 0.0
C23 C 0.0874 0.61143 0.02878 0.0
C24 C 0.06139 0.57919 0.01042 0.0
C25 C 0.0719 0.58822 0.09478 0.0
C26 C 0.04588 0.55692 0.07541 0.0
N27 N 0.97605 0.45794 0.98234 0.0
C28 C 0.95849 0.41778 0.92447 0.0
C29 C 0.92463 0.39711 0.93775 0.0
C30 C 0.91778 0.40615 0.97524 0.0
C31 C 0.94385 0.43633 0.99715 0.0
C32 C 0.98376 0.44783 0.94724 0.0
H33 H 0.9369 0.4425 0.02509 0.0
H34 H 0.0089 0.46329 0.9351 0.0
H35 H 0.05841 0.57731 0.97759 0.0
H36 H 0.03039 0.53744 0.09556 0.0
C37 C 0.96425 0.48513 0.08955 0.0
C38 C 0.94575 0.51709 0.95553 0.0
C39 C 0.06593 0.48386 0.05765 0.0
C40 C 0.05568 0.52893 0.92841 0.0
H41 H 0.90507 0.52297 0.01582 0.0
H42 H 0.9144 0.50462 0.08955 0.0
H43 H 0.98093 0.45108 0.14983 0.0
H44 H 0.03673 0.4505 0.13176 0.0
H45 H 0.12594 0.50825 0.00976 0.0
H46 H 0.12005 0.53188 0.93887 0.0
H47 H 0.02399 0.53887 0.85676 0.0
H48 H 0.96283 0.52922 0.87023 0.0
H49 H 0.10249 0.6325 0.00939 0.0
H50 H 0.07535 0.59024 0.12808 0.0
H51 H 0.96507 0.41139 0.89587 0.0
H52 H 0.89188 0.39104 0.9866 0.0
C53 C 0.5586 0.02962 0.58405 0.0
C54 C 0.55772 0.02279 0.62546 0.0
C55 C 0.52766 0.99169 0.62914 0.0
C56 C 0.51107 0.98179 0.59036 0.0
N57 N 0.52905 1.00432 0.56171 0.0
Co58 Co 0.50912 0.00621 0.50575 0.0
N59 N 0.46111 0.96526 0.51447 0.0
C60 C 0.45235 0.94571 0.54741 0.0
C61 C 0.42019 0.91549 0.54196 0.0
C62 C 0.40772 0.91529 0.50287 0.0
C63 C 0.43268 0.94607 0.48694 0.0
N64 N 0.48907 0.0095 0.45085 0.0
C65 C 0.45639 0.98873 0.43139 0.0
C66 C 0.45315 1.00125 0.39415 0.0
C67 C 0.48533 0.03011 0.38916 0.0
C68 C 0.5062 0.03389 0.42374 0.0
N69 N 0.55727 0.04588 0.49612 0.0
C70 C 0.56772 0.06234 0.46096 0.0
C71 C 0.60292 0.08773 0.46324 0.0
C72 C 0.61535 0.0881 0.50263 0.0
C73 C 0.58671 0.06325 0.52236 0.0
N74 N 0.52052 0.97433 0.48023 0.0
C75 C 0.52926 0.92528 0.43968 0.0
C76 C 0.53574 0.95468 0.42067 0.0
C77 C 0.53124 0.97846 0.44112 0.0
C78 C 0.51932 0.92156 0.48012 0.0
C79 C 0.51563 0.94634 0.49978 0.0
N80 N 0.49796 0.03816 0.53117 0.0
C81 C 0.50876 0.0951 0.53837 0.0
C82 C 0.49218 0.08763 0.57504 0.0
C83 C 0.47675 0.05423 0.58799 0.0
C84 C 0.47963 0.03004 0.56562 0.0
C85 C 0.51134 0.07028 0.51714 0.0
H86 H 0.46753 0.00511 0.57728 0.0
H87 H 0.52518 0.07799 0.49001 0.0
H88 H 0.53606 0.99973 0.42418 0.0
H89 H 0.50809 0.94195 0.53055 0.0
C90 C 0.47614 0.95492 0.58169 0.0
C91 C 0.58723 0.06076 0.56706 0.0
C92 C 0.42883 0.95554 0.44515 0.0
C93 C 0.54284 0.05697 0.42905 0.0
H94 H 0.57546 0.03913 0.65116 0.0
H95 H 0.51755 0.97926 0.65738 0.0
H96 H 0.4081 0.89518 0.56309 0.0
H97 H 0.38353 0.89405 0.48767 0.0
H98 H 0.43033 0.98985 0.37204 0.0
H99 H 0.49305 0.04552 0.36257 0.0
H100 H 0.6173 0.10536 0.43998 0.0
H101 H 0.64187 0.10622 0.51615 0.0
H102 H 0.54408 0.95935 0.38973 0.0
H103 H 0.51336 0.89916 0.49635 0.0
H104 H 0.52084 0.12043 0.52676 0.0
H105 H 0.46265 0.04678 0.61549 0.0
C106 C 0.57593 0.53287 0.9731 0.0
C107 C 0.58914 0.55173 0.93878 0.0
C108 C 0.56416 0.55725 0.92288 0.0
C109 C 0.53728 0.5414 0.94832 0.0
N110 N 0.54416 0.52729 0.9804 0.0
Co111 Co 0.51068 0.49716 0.02104 0.0
N112 N 0.47106 0.49895 0.99318 0.0
C113 C 0.47285 0.5171 0.96036 0.0
C114 C 0.44284 0.51692 0.95116 0.0
C115 C 0.42092 0.49843 0.98061 0.0
C116 C 0.43882 0.48814 0.00601 0.0
N117 N 0.47687 0.46556 0.06043 0.0
C118 C 0.44345 0.45645 0.06546 0.0
C119 C 0.42953 0.43487 0.09751 0.0
C120 C 0.4556 0.43119 0.11425 0.0
C121 C 0.48376 0.45048 0.09136 0.0
N122 N 0.55067 0.49657 0.04982 0.0
C123 C 0.55036 0.48217 0.08558 0.0
C124 C 0.58102 0.48361 0.0957 0.0
C125 C 0.60158 0.49889 0.06389 0.0
C126 C 0.58221 0.50594 0.03621 0.0
N127 N 0.52256 0.53776 0.05748 0.0
C128 C 0.53073 0.59236 0.10808 0.0
C129 C 0.52308 0.56162 0.12445 0.0
C130 C 0.51993 0.53537 0.09917 0.0
C131 C 0.53511 0.59537 0.06587 0.0
C132 C 0.53083 0.56813 0.04145 0.0
N133 N 0.49897 0.45682 0.98475 0.0
C134 C 0.5015 0.4067 0.9734 0.0
C135 C 0.49337 0.40535 0.93101 0.0
C136 C 0.48675 0.42963 0.91643 0.0
C137 C 0.48955 0.4548 0.94352 0.0
C138 C 0.50361 0.432 0.99946 0.0
H139 H 0.48486 0.47294 0.93031 0.0
H140 H 0.51024 0.43166 0.03134 0.0
H141 H 0.51454 0.51305 0.11417 0.0
H142 H 0.53384 0.57219 0.00952 0.0
C143 C 0.50398 0.53614 0.94077 0.0
C144 C 0.59265 0.51784 0.99538 0.0
C145 C 0.42557 0.47073 0.04387 0.0
C146 C 0.51844 0.46025 0.10273 0.0
H147 H 0.6135 0.55915 0.92558 0.0
H148 H 0.56462 0.56951 0.89477 0.0
H149 H 0.43812 0.53007 0.92712 0.0
H150 H 0.39532 0.49431 0.98394 0.0
H151 H 0.40391 0.42456 0.10902 0.0
H152 H 0.45493 0.41807 0.14165 0.0
H153 H 0.58644 0.47201 0.12112 0.0
H154 H 0.6269 0.50243 0.0602 0.0
H155 H 0.51845 0.55713 0.15655 0.0
H156 H 0.5416 0.61866 0.05141 0.0
H157 H 0.50753 0.3891 0.98652 0.0
H158 H 0.47979 0.42953 0.88404 0.0
C159 C 0.93774 0.44834 0.5072 0.0
C160 C 0.90555 0.42548 0.48549 0.0
C161 C 0.90544 0.43963 0.44915 0.0
C162 C 0.9374 0.47027 0.4506 0.0
N163 N 0.95826 0.47634 0.48539 0.0
Co164 Co 1.00596 0.51919 0.50075 0.0
N165 N 1.00317 0.54236 0.45046 0.0
C166 C 0.97536 0.52963 0.42201 0.0
C167 C 0.9812 0.55058 0.39021 0.0
C168 C 0.01498 0.57811 0.39843 0.0
C169 C 0.02799 0.57229 0.43479 0.0
N170 N 0.05415 0.56162 0.51544 0.0
C171 C 0.07464 0.58939 0.49325 0.0
C172 C 0.10779 0.61126 0.5135 0.0
C173 C 0.10854 0.59675 0.54931 0.0
C174 C 0.07601 0.56683 0.54891 0.0
N175 N 1.00817 0.49639 0.55174 0.0
C176 C 0.03519 0.50981 0.58138 0.0
C177 C 0.02843 0.48973 0.6143 0.0
C178 C 0.99471 0.46217 0.60574 0.0
C179 C 0.9827 0.46705 0.56798 0.0
N180 N 0.02887 0.50054 0.46959 0.0
C181 C 0.07042 0.48752 0.42157 0.0
C182 C 0.07819 0.49443 0.46402 0.0
C183 C 0.05707 0.50049 0.4873 0.0
C184 C 0.04007 0.48496 0.40405 0.0
C185 C 0.01957 0.49102 0.42853 0.0
N186 N 0.98325 0.53789 0.53208 0.0
C187 C 0.97844 0.56008 0.59696 0.0
C188 C 0.94385 0.55001 0.58491 0.0
C189 C 0.93048 0.53653 0.54464 0.0
C190 C 0.95068 0.53117 0.51875 0.0
C191 C 0.99765 0.55416 0.57014 0.0
H192 H 0.93871 0.52007 0.48875 0.0
H193 H 0.02353 0.56163 0.58157 0.0
H194 H 0.06481 0.50613 0.51934 0.0
H195 H 0.99706 0.48911 0.41322 0.0
C196 C 0.94623 0.49602 0.42311 0.0
C197 C 0.94649 0.44358 0.5496 0.0
C198 C 0.0646 0.59521 0.45205 0.0
C199 C 0.06581 0.54222 0.57832 0.0
H200 H 0.88373 0.40174 0.49553 0.0
H201 H 0.88377 0.4297 0.42559 0.0
H202 H 0.96361 0.54564 0.3632 0.0
H203 H 0.0289 0.59953 0.37914 0.0
H204 H 0.12958 0.6348 0.50296 0.0
H205 H 0.13061 0.60631 0.57224 0.0
H206 H 0.04558 0.49502 0.64186 0.0
H207 H 0.98024 0.44124 0.62552 0.0
H208 H 0.10096 0.49587 0.47915 0.0
H209 H 0.0329 0.47974 0.37127 0.0
H210 H 0.99023 0.57136 0.62758 0.0
H211 H 0.9038 0.52828 0.53378 0.0
C212 C 0.47047 0.99048 0.0739 0.0
C213 C 0.47173 1.00391 0.11264 0.0
C214 C 0.50266 0.03524 0.11774 0.0
C215 C 0.51843 0.03933 0.0819 0.0
N216 N 0.49917 0.01283 0.05377 0.0
Co217 Co 0.51368 0.00797 0.99838 0.0
N218 N 0.561 0.05253 0.00757 0.0
C219 C 0.57316 0.07379 0.04173 0.0
C220 C 0.60493 0.10382 0.03829 0.0
C221 C 0.61343 0.10202 0.99938 0.0
C222 C 0.58638 0.07072 0.98116 0.0
N223 N 0.52826 1.00315 0.94298 0.0
C224 C 0.55682 0.02563 0.92271 0.0
C225 C 0.55563 0.01221 0.884 0.0
C226 C 0.52489 0.98072 0.87906 0.0
C227 C 0.50915 0.97654 0.91495 0.0
N228 N 0.4664 0.96344 0.98909 0.0
C229 C 0.45438 0.94209 0.95501 0.0
C230 C 0.42265 0.91201 0.95845 0.0
C231 C 0.41404 0.9139 0.99725 0.0
C232 C 0.44095 0.94533 0.01539 0.0
N233 N 0.49391 0.03313 0.97316 0.0
C234 C 0.48045 0.07651 0.92887 0.0
C235 C 0.4692 0.0441 0.91231 0.0
C236 C 0.47564 0.02269 0.93515 0.0
C237 C 0.49514 0.08548 0.9694 0.0
C238 C 0.50147 0.06343 0.99098 0.0
N239 N 0.53321 0.98264 0.02382 0.0
C240 C 0.52826 0.92863 0.02952 0.0
C241 C 0.54156 0.93713 0.07062 0.0
C242 C 0.55468 0.97026 0.0863 0.0
C243 C 0.55083 0.99272 0.0622 0.0
C244 C 0.52464 0.9518 0.00666 0.0
H245 H 0.5607 0.01746 0.07596 0.0
H246 H 0.51319 0.94347 0.97592 0.0
H247 H 0.4671 0.99852 0.92069 0.0
H248 H 0.51401 0.07221 0.02122 0.0
C249 C 0.55238 0.06651 0.07481 0.0
C250 C 0.442 0.95592 0.05837 0.0
C251 C 0.58507 0.06035 0.93799 0.0
C252 C 0.47524 0.94933 0.92202 0.0
H253 H 0.45265 0.99194 0.1353 0.0
H254 H 0.51294 0.05249 0.14488 0.0
H255 H 0.61939 0.12523 0.06072 0.0
H256 H 0.63635 0.12212 0.98559 0.0
H257 H 0.5746 0.02433 0.86126 0.0
H258 H 0.51465 0.96344 0.85194 0.0
H259 H 0.40832 0.89053 0.93611 0.0
H260 H 0.39113 0.89378 0.01103 0.0
H261 H 0.45691 0.03595 0.8812 0.0
H262 H 0.50376 0.11027 0.98347 0.0
H263 H 0.51879 0.90351 0.01578 0.0
H264 H 0.56671 0.9784 0.11752 0.0
C265 C 0.53162 0.57824 0.51284 0.0
C266 C 0.52527 0.59801 0.5383 0.0
C267 C 0.50552 0.57742 0.56806 0.0
C268 C 0.50076 0.54635 0.55896 0.0
N269 N 0.5172 0.54615 0.52584 0.0
Co270 Co 0.51393 0.50565 0.49853 0.0
N271 N 0.47938 0.47394 0.53713 0.0
C272 C 0.46544 0.48187 0.56726 0.0
C273 C 0.44438 0.45479 0.59048 0.0
C274 C 0.44581 0.42829 0.57496 0.0
C275 C 0.46771 0.44088 0.54312 0.0
N276 N 0.51074 0.46519 0.4713 0.0
C277 C 0.49614 0.43308 0.48423 0.0
C278 C 0.5021 0.41308 0.45875 0.0
C279 C 0.52207 0.43364 0.42905 0.0
C280 C 0.52715 0.46488 0.43826 0.0
N281 N 0.54839 0.53731 0.45984 0.0
C282 C 0.56218 0.52928 0.42961 0.0
C283 C 0.5833 0.55632 0.40639 0.0
C284 C 0.58204 0.5829 0.42197 0.0
C285 C 0.56012 0.57038 0.45381 0.0
N286 N 0.55345 0.5121 0.53744 0.0
C287 C 0.60464 0.51339 0.59406 0.0
C288 C 0.60497 0.50904 0.55158 0.0
C289 C 0.57954 0.50865 0.52412 0.0
C290 C 0.57914 0.51874 0.60731 0.0
C291 C 0.55405 0.51785 0.57892 0.0
N292 N 0.47434 0.49911 0.45972 0.0
C293 C 0.44647 0.48977 0.39042 0.0
C294 C 0.42102 0.4951 0.40407 0.0
C295 C 0.42243 0.50156 0.4464 0.0
C296 C 0.44869 0.5031 0.47332 0.0
C297 C 0.47275 0.49218 0.41834 0.0
H298 H 0.44792 0.50803 0.50503 0.0
H299 H 0.49167 0.48857 0.40565 0.0
H300 H 0.5811 0.5048 0.49226 0.0
H301 H 0.53501 0.52132 0.59142 0.0
C302 C 0.47666 0.51584 0.57663 0.0
C303 C 0.54796 0.58953 0.47426 0.0
C304 C 0.48025 0.42202 0.52292 0.0
C305 C 0.55108 0.49532 0.42042 0.0
H306 H 0.53246 0.62399 0.53458 0.0
H307 H 0.4939 0.58368 0.59171 0.0
H308 H 0.43143 0.4549 0.61719 0.0
H309 H 0.43378 0.40313 0.58702 0.0
H310 H 0.49438 0.38693 0.46256 0.0
H311 H 0.53346 0.42723 0.40529 0.0
H312 H 0.59626 0.55616 0.37972 0.0
H313 H 0.59426 0.6081 0.40997 0.0
H314 H 0.62426 0.50508 0.53948 0.0
H315 H 0.57836 0.52355 0.63965 0.0
H316 H 0.44611 0.48342 0.35831 0.0
H317 H 0.40357 0.50594 0.45895 0.0
C318 C 0.21231 0.51145 0.1616 0.0
C319 C 0.2202 0.54206 0.14556 0.0
C320 C 0.2519 0.5672 0.16463 0.0
C321 C 0.26187 0.55062 0.19072 0.0
N322 N 0.23874 0.51631 0.18904 0.0
Co323 Co 0.24405 0.48269 0.22118 0.0
N324 N 0.28837 0.52011 0.25308 0.0
C325 C 0.30305 0.55414 0.25069 0.0
C326 C 0.33278 0.57382 0.27688 0.0
C327 C 0.33761 0.55105 0.29702 0.0
C328 C 0.31072 0.5186 0.28149 0.0
N329 N 0.25018 0.44903 0.2522 0.0
C330 C 0.27722 0.45399 0.2787 0.0
C331 C 0.27233 0.42306 0.28948 0.0
C332 C 0.24122 0.3978 0.26947 0.0
C333 C 0.22904 0.41454 0.24726 0.0
N334 N 0.19879 0.44538 0.19047 0.0
C335 C 0.18248 0.41142 0.19548 0.0
C336 C 0.14946 0.39208 0.17545 0.0
C337 C 0.14397 0.415 0.15692 0.0
C338 C 0.1744 0.44722 0.166 0.0
N339 N 0.27263 0.48099 0.17836 0.0
C340 C 0.3192 0.47765 0.12772 0.0
C341 C 0.28757 0.44803 0.1367 0.0
C342 C 0.26466 0.45031 0.16133 0.0
C343 C 0.32615 0.50907 0.14291 0.0
C344 C 0.30269 0.51017 0.16777 0.0
N345 N 0.21554 0.48422 0.26408 0.0
C346 C 0.16888 0.4547 0.30971 0.0
C347 C 0.16929 0.48434 0.31801 0.0
C348 C 0.19451 0.51437 0.30051 0.0
C349 C 0.2173 0.51379 0.274 0.0
C350 C 0.19201 0.4552 0.28293 0.0
H351 H 0.23567 0.53744 0.2613 0.0
H352 H 0.18995 0.43161 0.27755 0.0
H353 H 0.24115 0.42678 0.16715 0.0
H354 H 0.30993 0.53491 0.17886 0.0
C355 C 0.29037 0.56676 0.22063 0.0
C356 C 0.17852 0.47886 0.15155 0.0
C357 C 0.30845 0.48732 0.29354 0.0
C358 C 0.19792 0.39867 0.22137 0.0
H359 H 0.20419 0.54601 0.1233 0.0
H360 H 0.26536 0.59448 0.16112 0.0
H361 H 0.34959 0.60147 0.28002 0.0
H362 H 0.35905 0.55767 0.31985 0.0
H363 H 0.28967 0.41902 0.30921 0.0
H364 H 0.22921 0.37046 0.27043 0.0
H365 H 0.13098 0.36467 0.17565 0.0
H366 H 0.1198 0.40859 0.13967 0.0
H367 H 0.28099 0.42298 0.12613 0.0
H368 H 0.34995 0.53282 0.13621 0.0
H369 H 0.15069 0.43109 0.32371 0.0
H370 H 0.19612 0.53809 0.30641 0.0
C371 C 0.69351 0.21246 0.67962 0.0
C372 C 0.66538 0.21586 0.66926 0.0
C373 C 0.67502 0.24755 0.68454 0.0
C374 C 0.7079 0.26147 0.70449 0.0
N375 N 0.71947 0.24038 0.70276 0.0
Co376 Co 0.76134 0.24642 0.73511 0.0
N377 N 0.76491 0.28188 0.77318 0.0
C378 C 0.74916 0.2991 0.76642 0.0
C379 C 0.75672 0.3225 0.79782 0.0
C380 C 0.77913 0.32033 0.82579 0.0
C381 C 0.78412 0.2957 0.80971 0.0
N382 N 0.80282 0.25164 0.76726 0.0
C383 C 0.8185 0.26753 0.80461 0.0
C384 C 0.84761 0.26567 0.81501 0.0
C385 C 0.85069 0.24885 0.78258 0.0
C386 C 0.82336 0.24124 0.75435 0.0
N387 N 0.75823 0.21169 0.69659 0.0
C388 C 0.78485 0.20801 0.68912 0.0
C389 C 0.7764 0.18487 0.657 0.0
C390 C 0.74224 0.17324 0.64354 0.0
C391 C 0.73157 0.18951 0.66893 0.0
N392 N 0.79351 0.28291 0.69919 0.0
C393 C 0.84122 0.33482 0.64895 0.0
C394 C 0.81036 0.30487 0.63171 0.0
C395 C 0.78681 0.27949 0.65724 0.0
C396 C 0.8475 0.33788 0.69191 0.0
C397 C 0.82359 0.31196 0.71619 0.0
N398 N 0.72933 0.21027 0.77131 0.0
C399 C 0.71087 0.15867 0.80748 0.0
C400 C 0.68379 0.15988 0.82466 0.0
C401 C 0.68005 0.18682 0.8138 0.0
C402 C 0.70281 0.21146 0.78741 0.0
C403 C 0.73325 0.18399 0.78109 0.0
H404 H 0.69885 0.23163 0.78023 0.0
H405 H 0.75377 0.18231 0.76857 0.0
H406 H 0.76323 0.25699 0.64294 0.0
H407 H 0.82981 0.31551 0.74891 0.0
C408 C 0.72363 0.2891 0.73353 0.0
C409 C 0.69621 0.18369 0.66589 0.0
C410 C 0.8107 0.28961 0.82746 0.0
C411 C 0.81482 0.22251 0.71684 0.0
H412 H 0.63989 0.19729 0.65387 0.0
H413 H 0.65862 0.25784 0.68425 0.0
H414 H 0.74652 0.33863 0.80054 0.0
H415 H 0.79115 0.33572 0.85431 0.0
H416 H 0.86572 0.2767 0.84234 0.0
H417 H 0.87058 0.24303 0.77988 0.0
H418 H 0.79261 0.17652 0.64566 0.0
H419 H 0.72683 0.15458 0.61832 0.0
H420 H 0.80419 0.30122 0.59871 0.0
H421 H 0.87117 0.36006 0.70689 0.0
H422 H 0.71454 0.13806 0.81383 0.0
H423 H 0.65982 0.18924 0.8261 0.0
C424 C 0.50099 0.69608 0.21849 0.0
C425 C 0.46811 0.66784 0.20437 0.0
C426 C 0.44355 0.67156 0.22123 0.0
C427 C 0.46262 0.70159 0.24485 0.0
N428 N 0.49797 0.71752 0.24399 0.0
Co429 Co 0.53511 0.76071 0.27653 0.0
N430 N 0.49874 0.7643 0.30425 0.0
C431 C 0.46334 0.74195 0.29916 0.0
C432 C 0.4449 0.75081 0.32206 0.0
C433 C 0.46994 0.78086 0.34279 0.0
C434 C 0.50239 0.78882 0.33104 0.0
N435 N 0.5722 0.80414 0.30874 0.0
C436 C 0.56903 0.8255 0.33426 0.0
C437 C 0.60179 0.85417 0.34769 0.0
C438 C 0.62645 0.85084 0.33033 0.0
C439 C 0.60754 0.8206 0.30705 0.0
N440 N 0.57147 0.75682 0.24919 0.0
C441 C 0.60692 0.77884 0.25482 0.0
C442 C 0.6253 0.76959 0.2324 0.0
C443 C 0.60017 0.73957 0.21162 0.0
C444 C 0.56772 0.73199 0.22282 0.0
N445 N 0.53382 0.78859 0.23171 0.0
C446 C 0.53343 0.8333 0.17486 0.0
C447 C 0.56478 0.83625 0.18828 0.0
C448 C 0.56439 0.81389 0.2165 0.0
C449 C 0.50197 0.80658 0.18869 0.0
C450 C 0.50272 0.78445 0.21664 0.0
N451 N 0.53664 0.73297 0.32128 0.0
C452 C 0.57031 0.71797 0.36587 0.0
C453 C 0.53948 0.68928 0.37804 0.0
C454 C 0.50716 0.6835 0.36235 0.0
C455 C 0.50634 0.70549 0.33426 0.0
C456 C 0.56829 0.73954 0.33827 0.0
H457 H 0.48091 0.69934 0.3229 0.0
H458 H 0.59277 0.76089 0.33036 0.0
H459 H 0.58935 0.81821 0.22613 0.0
H460 H 0.47793 0.76457 0.22614 0.0
C461 C 0.44816 0.7138 0.27101 0.0
C462 C 0.53423 0.70055 0.20815 0.0
C463 C 0.53571 0.82039 0.3455 0.0
C464 C 0.62211 0.80781 0.28181 0.0
H465 H 0.4623 0.64621 0.18479 0.0
H466 H 0.41518 0.65381 0.21789 0.0
H467 H 0.41657 0.73734 0.32298 0.0
H468 H 0.46483 0.79552 0.36376 0.0
H469 H 0.60736 0.87566 0.36737 0.0
H470 H 0.65478 0.86878 0.33348 0.0
H471 H 0.65362 0.78292 0.23159 0.0
H472 H 0.60522 0.72471 0.1909 0.0
H473 H 0.58975 0.85653 0.17814 0.0
H474 H 0.47693 0.80295 0.17824 0.0
H475 H 0.59603 0.72329 0.37641 0.0
H476 H 0.48252 0.66178 0.37123 0.0
C477 C 0.73088 0.54152 0.73958 0.0
C478 C 0.73154 0.57158 0.73762 0.0
C479 C 0.7519 0.59192 0.7716 0.0
C480 C 0.76255 0.57332 0.79245 0.0
N481 N 0.75071 0.54268 0.77349 0.0
Co482 Co 0.75854 0.50746 0.79579 0.0
N483 N 0.79735 0.54103 0.83665 0.0
C484 C 0.80307 0.57139 0.84912 0.0
C485 C 0.8298 0.58835 0.8798 0.0
C486 C 0.84167 0.56734 0.88732 0.0
C487 C 0.82172 0.53871 0.86037 0.0
N488 N 0.76654 0.47239 0.81831 0.0
C489 C 0.79564 0.47651 0.83942 0.0
C490 C 0.79292 0.44542 0.84091 0.0
C491 C 0.76021 0.42093 0.82323 0.0
C492 C 0.74514 0.4383 0.81028 0.0
N493 N 0.71965 0.47369 0.75494 0.0
C494 C 0.70306 0.43942 0.75528 0.0
C495 C 0.67755 0.42229 0.72339 0.0
C496 C 0.67761 0.44725 0.70178 0.0
C497 C 0.70297 0.47835 0.72207 0.0
N498 N 0.79306 0.5182 0.75564 0.0
C499 C 0.84379 0.53356 0.70024 0.0
C500 C 0.81804 0.49961 0.70722 0.0
C501 C 0.79271 0.49247 0.73461 0.0
C502 C 0.84352 0.55977 0.72108 0.0
C503 C 0.8181 0.55154 0.74891 0.0
N504 N 0.72396 0.49721 0.83604 0.0
C505 C 0.67092 0.4936 0.85208 0.0
C506 C 0.67981 0.49503 0.8942 0.0
C507 C 0.7101 0.49519 0.90657 0.0
C508 C 0.73162 0.4959 0.87697 0.0
C509 C 0.6932 0.49471 0.8237 0.0
H510 H 0.75514 0.49671 0.88733 0.0
H511 H 0.68609 0.49515 0.79182 0.0
H512 H 0.77306 0.46608 0.73892 0.0
H513 H 0.81892 0.57219 0.76526 0.0
C514 C 0.78573 0.58469 0.82799 0.0
C515 C 0.70735 0.51107 0.71185 0.0
C516 C 0.82501 0.50891 0.86049 0.0
C517 C 0.71557 0.42467 0.78215 0.0
H518 H 0.71773 0.57773 0.71481 0.0
H519 H 0.75819 0.61727 0.78006 0.0
H520 H 0.8399 0.61329 0.89447 0.0
H521 H 0.8623 0.5724 0.91052 0.0
H522 H 0.81262 0.44071 0.85273 0.0
H523 H 0.74979 0.39402 0.81763 0.0
H524 H 0.66144 0.39497 0.71608 0.0
H525 H 0.66036 0.44296 0.67469 0.0
H526 H 0.81741 0.4787 0.69143 0.0
H527 H 0.86323 0.58635 0.71651 0.0
H528 H 0.64773 0.49334 0.84105 0.0
H529 H 0.71747 0.49543 0.93886 0.0
C530 C 0.28272 0.85059 0.31649 0.0
C531 C 0.27723 0.87635 0.32595 0.0
C532 C 0.24441 0.86592 0.30862 0.0
C533 C 0.23207 0.83499 0.28847 0.0
N534 N 0.25519 0.82533 0.29187 0.0
Co535 Co 0.25094 0.78581 0.26145 0.0
N536 N 0.21271 0.78043 0.22205 0.0
C537 C 0.19449 0.79525 0.22628 0.0
C538 C 0.1709 0.78832 0.19326 0.0
C539 C 0.17395 0.76732 0.1668 0.0
C540 C 0.199 0.76221 0.18552 0.0
N541 N 0.24673 0.74619 0.23138 0.0
C542 C 0.22864 0.72942 0.19509 0.0
C543 C 0.23113 0.70146 0.18731 0.0
C544 C 0.25102 0.70055 0.21991 0.0
C545 C 0.2595 0.72775 0.24582 0.0
N546 N 0.28921 0.79145 0.30082 0.0
C547 C 0.2967 0.76768 0.30815 0.0
C548 C 0.32358 0.77815 0.33832 0.0
C549 C 0.33362 0.81057 0.35088 0.0
C550 C 0.31235 0.81815 0.32732 0.0
N551 N 0.2152 0.75362 0.29819 0.0
C552 C 0.16654 0.70443 0.35035 0.0
C553 C 0.19671 0.73553 0.36648 0.0
C554 C 0.22045 0.75969 0.34006 0.0
C555 C 0.16118 0.69912 0.30737 0.0
C556 C 0.18547 0.72379 0.28211 0.0
N557 N 0.28657 0.81762 0.22458 0.0
C558 C 0.33782 0.83537 0.18695 0.0
C559 C 0.33654 0.86237 0.17025 0.0
C560 C 0.30993 0.86667 0.18246 0.0
C561 C 0.28523 0.84402 0.20898 0.0
C562 C 0.31289 0.81355 0.21397 0.0
H563 H 0.26503 0.84808 0.21683 0.0
H564 H 0.31484 0.7932 0.2261 0.0
H565 H 0.24346 0.78306 0.35365 0.0
H566 H 0.18023 0.71827 0.24942 0.0
C567 C 0.20385 0.81939 0.25838 0.0
C568 C 0.31333 0.84994 0.33287 0.0
C569 C 0.20475 0.73596 0.1705 0.0
C570 C 0.28156 0.73825 0.2822 0.0
H571 H 0.29518 0.90053 0.34289 0.0
H572 H 0.23224 0.88045 0.3081 0.0
H573 H 0.15413 0.79805 0.1885 0.0
H574 H 0.15864 0.75611 0.13761 0.0
H575 H 0.21882 0.68275 0.16162 0.0
H576 H 0.25835 0.68219 0.22419 0.0
H577 H 0.33521 0.76431 0.34906 0.0
H578 H 0.35406 0.82663 0.37486 0.0
H579 H 0.20258 0.74092 0.39939 0.0
H580 H 0.13822 0.6759 0.29309 0.0
H581 H 0.35772 0.83075 0.17881 0.0
H582 H 0.30824 0.8877 0.17207 0.0
C583 C 0.46139 0.28327 0.7911 0.0
C584 C 0.42956 0.27998 0.7967 0.0
C585 C 0.40575 0.25793 0.76573 0.0
C586 C 0.42418 0.24904 0.74283 0.0
N587 N 0.45805 0.26366 0.7577 0.0
Co588 Co 0.49386 0.2591 0.7312 0.0
N589 N 0.45706 0.21863 0.69549 0.0
C590 C 0.42329 0.20901 0.6877 0.0
C591 C 0.40368 0.17969 0.66271 0.0
C592 C 0.42658 0.17033 0.65398 0.0
C593 C 0.45911 0.19471 0.67395 0.0
N594 N 0.52946 0.25449 0.70436 0.0
C595 C 0.52555 0.22768 0.68201 0.0
C596 C 0.55761 0.23561 0.66899 0.0
C597 C 0.58236 0.26844 0.68376 0.0
C598 C 0.56412 0.27878 0.7048 0.0
N599 N 0.53091 0.29962 0.76676 0.0
C600 C 0.56558 0.31846 0.76094 0.0
C601 C 0.58513 0.34507 0.78979 0.0
C602 C 0.56125 0.3433 0.81506 0.0
C603 C 0.52822 0.31582 0.79989 0.0
N604 N 0.49136 0.22866 0.77322 0.0
C605 C 0.48771 0.18142 0.82785 0.0
C606 C 0.52038 0.20955 0.81845 0.0
C607 C 0.52163 0.23282 0.79108 0.0
C608 C 0.45692 0.17832 0.81094 0.0
C609 C 0.45932 0.2022 0.78367 0.0
N610 N 0.4962 0.28962 0.68906 0.0
C611 C 0.49777 0.34025 0.67126 0.0
C612 C 0.49551 0.33185 0.62946 0.0
C613 C 0.49448 0.30229 0.61792 0.0
C614 C 0.49506 0.2816 0.64825 0.0
C615 C 0.49796 0.31885 0.70041 0.0
H616 H 0.49413 0.25891 0.63866 0.0
H617 H 0.49892 0.32589 0.73214 0.0
H618 H 0.54711 0.25374 0.78366 0.0
H619 H 0.43519 0.1987 0.77021 0.0
C620 C 0.40984 0.22467 0.70976 0.0
C621 C 0.49487 0.30851 0.81487 0.0
C622 C 0.49171 0.19547 0.67006 0.0
C623 C 0.57923 0.30819 0.73095 0.0
H624 H 0.42425 0.29296 0.81994 0.0
H625 H 0.37822 0.2493 0.76069 0.0
H626 H 0.37573 0.16591 0.65338 0.0
H627 H 0.41996 0.14805 0.63515 0.0
H628 H 0.56256 0.21941 0.65065 0.0
H629 H 0.6105 0.28253 0.68087 0.0
H630 H 0.61343 0.36328 0.79255 0.0
H631 H 0.56743 0.3608 0.84109 0.0
H632 H 0.54483 0.21324 0.83165 0.0
H633 H 0.43117 0.15694 0.81756 0.0
H634 H 0.49845 0.36281 0.68142 0.0
H635 H 0.49322 0.29523 0.58582 0.0
C636 C 0.10859 0.49862 0.1204 0.0
C637 C 0.09332 0.48057 0.08202 0.0
C638 C 0.13532 0.49722 0.14291 0.0
C639 C 0.14864 0.47843 0.12758 0.0
H640 H 0.10002 0.51425 0.13297 0.0
H641 H 0.1461 0.51143 0.17235 0.0
S642 S 0.11785 0.42675 0.02859 0.0
N643 N 0.09245 0.4419 0.03073 0.0
N644 N 0.14496 0.44212 0.07086 0.0
C645 C 0.13378 0.46048 0.08912 0.0
C646 C 0.10561 0.46082 0.06697 0.0
C647 C 0.61966 0.12346 0.587 0.0
C648 C 0.61444 0.09136 0.59402 0.0
C649 C 0.64626 0.15315 0.60965 0.0
C650 C 0.66634 0.15165 0.64326 0.0
H651 H 0.60395 0.12589 0.56258 0.0
H652 H 0.6517 0.17744 0.59959 0.0
S653 S 0.66532 0.07453 0.67246 0.0
N654 N 0.63612 0.0611 0.63223 0.0
N655 N 0.67963 0.11513 0.68171 0.0
C656 C 0.6608 0.1195 0.65121 0.0
C657 C 0.6364 0.08988 0.62517 0.0
C658 C 0.51883 0.63904 0.1181 0.0
C659 C 0.53285 0.62048 0.13416 0.0
C660 C 0.51966 0.66492 0.14186 0.0
C661 C 0.53404 0.67314 0.18301 0.0
H662 H 0.50653 0.63322 0.08699 0.0
H663 H 0.50863 0.67843 0.12804 0.0
S664 S 0.57576 0.63415 0.23993 0.0
N665 N 0.56364 0.61426 0.19387 0.0
N666 N 0.5632 0.66136 0.23875 0.0
C667 C 0.54832 0.65515 0.19952 0.0
C668 C 0.54811 0.6292 0.17518 0.0
C669 C 0.91938 0.53576 0.65367 0.0
C670 C 0.92071 0.54991 0.61542 0.0
C671 C 0.89477 0.53108 0.68118 0.0
C672 C 0.8712 0.54122 0.67198 0.0
H673 H 0.93661 0.527 0.66178 0.0
H674 H 0.89384 0.51901 0.70965 0.0
S675 S 0.86615 0.58286 0.57828 0.0
N676 N 0.89777 0.57621 0.57118 0.0
N677 N 0.85197 0.56802 0.62351 0.0
C678 C 0.87329 0.55694 0.63491 0.0
C679 C 0.89793 0.56114 0.60647 0.0
C680 C 0.42403 0.91968 0.12062 0.0
C681 C 0.41452 0.93185 0.08631 0.0
C682 C 0.39888 0.8973 0.14725 0.0
C683 C 0.3629 0.88598 0.14088 0.0
H684 H 0.45127 0.92768 0.12698 0.0
H685 H 0.40792 0.88923 0.17345 0.0
S686 S 0.3243 0.90997 0.0545 0.0
N687 N 0.36679 0.93124 0.04753 0.0
N688 N 0.31932 0.88824 0.0959 0.0
C689 C 0.35313 0.89791 0.10629 0.0
C690 C 0.37888 0.92098 0.07953 0.0
C691 C 0.51362 0.41127 0.57713 0.0
C692 C 0.4853 0.39808 0.54683 0.0
C693 C 0.51755 0.38949 0.60267 0.0
C694 C 0.49329 0.35379 0.59864 0.0
H695 H 0.53238 0.43866 0.58166 0.0
H696 H 0.53933 0.40069 0.62629 0.0
S697 S 0.41478 0.30699 0.52346 0.0
N698 N 0.43298 0.34766 0.51355 0.0
N699 N 0.44015 0.30638 0.56162 0.0
C700 C 0.46535 0.34033 0.56764 0.0
C701 C 0.46135 0.3626 0.54174 0.0
C702 C 0.51884 0.88967 0.37473 0.0
C703 C 0.53168 0.89853 0.41657 0.0
C704 C 0.52066 0.86487 0.35208 0.0
C705 C 0.53524 0.84761 0.37018 0.0
H706 H 0.50676 0.90166 0.35932 0.0
H707 H 0.5103 0.85893 0.32013 0.0
S708 S 0.57316 0.861 0.478 0.0
N709 N 0.56058 0.88816 0.47454 0.0
N710 N 0.56257 0.84075 0.4323 0.0
C711 C 0.54808 0.85594 0.41182 0.0
C712 C 0.54658 0.88147 0.43489 0.0
C713 C 0.60025 0.48283 0.94379 0.0
C714 C 0.61559 0.51003 0.97377 0.0
C715 C 0.62123 0.47711 0.91952 0.0
C716 C 0.65836 0.49844 0.92433 0.0
H717 H 0.5718 0.46648 0.93831 0.0
H718 H 0.60827 0.45635 0.89608 0.0
S719 S 0.71107 0.57336 0.99868 0.0
N720 N 0.66969 0.55834 0.00729 0.0
N721 N 0.70937 0.54786 0.96172 0.0
C722 C 0.67394 0.52523 0.95505 0.0
C723 C 0.65249 0.53103 0.97968 0.0
C724 C 0.10353 0.61623 0.39271 0.0
C725 C 0.09137 0.62372 0.42733 0.0
C726 C 0.12781 0.64232 0.36844 0.0
C727 C 0.14112 0.67722 0.37758 0.0
H728 H 0.09413 0.5899 0.38429 0.0
H729 H 0.13642 0.63503 0.34235 0.0
S730 S 0.11591 0.71007 0.46401 0.0
N731 N 0.09349 0.6683 0.46889 0.0
N732 N 0.13873 0.71722 0.42357 0.0
C733 C 0.12891 0.68491 0.41219 0.0
C734 C 0.10415 0.65826 0.43684 0.0
C735 C 0.46316 0.11802 0.9118 0.0
C736 C 0.48117 0.10232 0.90246 0.0
C737 C 0.46506 0.14346 0.88733 0.0
C738 C 0.48574 0.15451 0.85346 0.0
H739 H 0.44747 0.11049 0.93802 0.0
H740 H 0.45074 0.15495 0.8953 0.0
S741 S 0.53872 0.12193 0.81747 0.0
N742 N 0.52047 0.09972 0.85773 0.0
N743 N 0.52456 0.14773 0.81214 0.0
C744 C 0.50402 0.13907 0.84418 0.0
C745 C 0.5016 0.11293 0.8686 0.0
C746 C 0.35802 0.478 0.3866 0.0
C747 C 0.39282 0.49339 0.37498 0.0
C748 C 0.33115 0.47633 0.36041 0.0
C749 C 0.33761 0.48944 0.32108 0.0
H750 H 0.35125 0.46681 0.41616 0.0
H751 H 0.30499 0.4645 0.37097 0.0
S752 S 0.42382 0.53362 0.27571 0.0
N753 N 0.43222 0.52376 0.32153 0.0
N754 N 0.38128 0.51873 0.2718 0.0
C755 C 0.37207 0.50488 0.3089 0.0
C756 C 0.39967 0.5072 0.33582 0.0
C757 C 0.89102 0.3744 0.86917 0.0
C758 C 0.89581 0.36855 0.91053 0.0
C759 C 0.86325 0.34876 0.84284 0.0
C760 C 0.83913 0.31635 0.8569 0.0
H761 H 0.90856 0.39922 0.85718 0.0
H762 H 0.86055 0.35433 0.81121 0.0
S763 S 0.84048 0.28724 0.96152 0.0
N764 N 0.87457 0.3274 0.96388 0.0
N765 N 0.82196 0.27917 0.91397 0.0
C766 C 0.84358 0.30989 0.89787 0.0
C767 C 0.87197 0.33604 0.92484 0.0
C768 C 0.91912 0.53994 0.90466 0.0
C769 C 0.91442 0.51477 0.93194 0.0
C770 C 0.8904 0.53726 0.88122 0.0
C771 C 0.85522 0.51078 0.8862 0.0
H772 H 0.94533 0.56196 0.90108 0.0
H773 H 0.8958 0.55646 0.8593 0.0
S774 S 0.82771 0.44242 0.96039 0.0
N775 N 0.87116 0.4631 0.96379 0.0
N776 N 0.81747 0.4626 0.92703 0.0
C777 C 0.84998 0.48734 0.91639 0.0
C778 C 0.87933 0.4883 0.9375 0.0
C779 C 0.4052 0.91915 0.37909 0.0
C780 C 0.39862 0.93042 0.41555 0.0
C781 C 0.37741 0.89398 0.352 0.0
C782 C 0.34206 0.87832 0.36104 0.0
H783 H 0.43209 0.92958 0.37174 0.0
H784 H 0.38361 0.88608 0.32422 0.0
S785 S 0.3109 0.89807 0.45324 0.0
N786 N 0.35409 0.92564 0.45786 0.0
N787 N 0.30228 0.8744 0.41067 0.0
C788 C 0.33521 0.88891 0.39784 0.0
C789 C 0.36336 0.91605 0.42402 0.0
C790 C 0.50862 0.39031 0.86422 0.0
C791 C 0.4933 0.37994 0.90201 0.0
C792 C 0.50932 0.36731 0.8366 0.0
C793 C 0.49525 0.33299 0.84573 0.0
H794 H 0.52049 0.41658 0.85595 0.0
H795 H 0.52086 0.37643 0.8077 0.0
S796 S 0.45052 0.2919 0.93891 0.0
N797 N 0.462 0.33194 0.94568 0.0
N798 N 0.46473 0.28942 0.89445 0.0
C799 C 0.47979 0.32215 0.88311 0.0
C800 C 0.47859 0.3454 0.91108 0.0
C801 C 0.13149 0.51025 0.40107 0.0
C802 C 0.09502 0.48518 0.39564 0.0
C803 C 0.15525 0.50974 0.376 0.0
C804 C 0.14357 0.48401 0.34461 0.0
H805 H 0.14173 0.53087 0.42443 0.0
H806 H 0.18304 0.52961 0.38136 0.0
S807 S 0.05084 0.41222 0.31782 0.0
N808 N 0.04849 0.4335 0.35692 0.0
N809 N 0.09298 0.43295 0.30922 0.0
C810 C 0.1072 0.45866 0.33898 0.0
C811 C 0.08299 0.45918 0.36452 0.0
C812 C 0.59923 0.09678 0.87624 0.0
C813 C 0.61098 0.08522 0.9091 0.0
C814 C 0.6227 0.12037 0.84912 0.0
C815 C 0.65919 0.13346 0.85327 0.0
H816 H 0.57154 0.08748 0.87159 0.0
H817 H 0.61203 0.12827 0.82442 0.0
S818 S 0.70331 0.11034 0.93378 0.0
N819 N 0.66135 0.08761 0.94342 0.0
N820 N 0.70558 0.13232 0.89346 0.0
C821 C 0.67116 0.12154 0.88575 0.0
C822 C 0.64713 0.09744 0.91332 0.0
C823 C 0.5209 0.60509 0.41729 0.0
C824 C 0.54557 0.61558 0.45151 0.0
C825 C 0.51865 0.62907 0.39428 0.0
C826 C 0.54098 0.66442 0.40476 0.0
H827 H 0.50347 0.57814 0.40804 0.0
H828 H 0.49985 0.61986 0.36748 0.0
S829 S 0.60924 0.70445 0.49296 0.0
N830 N 0.5926 0.66307 0.49514 0.0
N831 N 0.58756 0.70835 0.45312 0.0
C832 C 0.56538 0.67506 0.43953 0.0
C833 C 0.56788 0.65058 0.46261 0.0
C834 C 0.48162 0.13549 0.58092 0.0
C835 C 0.49162 0.11466 0.59981 0.0
C836 C 0.4814 0.16126 0.6037 0.0
C837 C 0.49114 0.16729 0.64632 0.0
H838 H 0.47371 0.13173 0.54828 0.0
H839 H 0.47373 0.17675 0.58779 0.0
S840 S 0.52265 0.1224 0.70975 0.0
N841 N 0.51375 0.10364 0.66337 0.0
N842 N 0.51302 0.15173 0.70593 0.0
C843 C 0.5019 0.14725 0.66536 0.0
C844 C 0.50208 0.12099 0.64227 0.0
C845 C 0.40723 0.49399 0.09927 0.0
C846 C 0.3978 0.47226 0.064 0.0
C847 C 0.38172 0.49578 0.11927 0.0
C848 C 0.34573 0.47587 0.10478 0.0
H849 H 0.43458 0.50964 0.11154 0.0
H850 H 0.39023 0.51249 0.14677 0.0
S851 S 0.30787 0.4153 0.0128 0.0
N852 N 0.35045 0.43033 0.01534 0.0
N853 N 0.30244 0.43434 0.05191 0.0
C854 C 0.33611 0.45414 0.06924 0.0
C855 C 0.36215 0.4522 0.04911 0.0
C856 C 0.90488 0.38094 0.56491 0.0
C857 C 0.91874 0.41583 0.57436 0.0
C858 C 0.87939 0.35492 0.5884 0.0
C859 C 0.86695 0.36266 0.62272 0.0
H860 H 0.91404 0.37373 0.5393 0.0
H861 H 0.86994 0.32855 0.58016 0.0
S862 S 0.89333 0.44987 0.65882 0.0
N863 N 0.91697 0.4565 0.61932 0.0
N864 N 0.86957 0.40808 0.66336 0.0
C865 C 0.88037 0.39749 0.63201 0.0
C866 C 0.90608 0.42386 0.60798 0.0
C867 C 0.55358 0.89176 0.0863 0.0
C868 C 0.53956 0.9109 0.09757 0.0
C869 C 0.55123 0.86644 0.11128 0.0
C870 C 0.53413 0.85893 0.14788 0.0
H871 H 0.56679 0.89669 0.05825 0.0
H872 H 0.56276 0.85254 0.10185 0.0
S873 S 0.49216 0.90107 0.1903 0.0
N874 N 0.50747 0.92022 0.1473 0.0
N875 N 0.50285 0.87251 0.19403 0.0
C876 C 0.5196 0.87756 0.15915 0.0
C877 C 0.52241 0.90361 0.13407 0.0
C878 C 0.66652 0.52918 0.61713 0.0
C879 C 0.63045 0.51219 0.62422 0.0
C880 C 0.69115 0.52871 0.64534 0.0
C881 C 0.68077 0.51113 0.68176 0.0
H882 H 0.67594 0.54341 0.58979 0.0
H883 H 0.71857 0.54227 0.63869 0.0
S884 S 0.58971 0.46143 0.71465 0.0
N885 N 0.58572 0.47593 0.67012 0.0
N886 N 0.63208 0.47635 0.72347 0.0
C887 C 0.64493 0.49407 0.68929 0.0
C888 C 0.61982 0.49424 0.6605 0.0
C889 C 0.11501 0.66009 0.12975 0.0
C890 C 0.12177 0.64919 0.0931 0.0
C891 C 0.14186 0.68834 0.15397 0.0
C892 C 0.17646 0.70775 0.14195 0.0
H893 H 0.08881 0.64617 0.14049 0.0
H894 H 0.1356 0.69471 0.18283 0.0
S895 S 0.20831 0.69179 0.04806 0.0
N896 N 0.16608 0.66068 0.04583 0.0
N897 N 0.21606 0.71549 0.09036 0.0
C898 C 0.18348 0.69837 0.10458 0.0
C899 C 0.15626 0.66884 0.08028 0.0
loop_
_geom_bond_atom_site_label_1
_geom_bond_atom_site_label_2
_geom_bond_distance
_geom_bond_site_symmetry_2
_ccdc_geom_bond_type
C0 C1 1.443 . S
C0 N4 1.376 1_556 S
C0 C38 1.389 . S
C1 C0 1.443 . S
C1 C2 1.340 1_556 S
C1 H41 0.951 . S
C2 C1 1.340 1_554 S
C2 C3 1.439 . S
C2 H42 0.950 . S
C3 C2 1.439 . S
C3 N4 1.374 . S
C3 C37 1.395 . S
N4 C0 1.376 1_554 S
N4 C3 1.374 . S
N4 Co5 1.984 1_655 S
Co5 N4 1.984 1_455 S
Co5 N6 2.005 1_455 S
Co5 N11 2.032 1_554 S
Co5 N16 1.984 1_554 S
Co5 N21 2.289 . S
Co5 N27 2.276 1_454 S
N6 Co5 2.005 1_655 S
N6 C7 1.376 . S
N6 C10 1.383 1_655 S
C7 N6 1.376 . S
C7 C8 1.446 . S
C7 C37 1.391 . S
C8 C7 1.446 . S
C8 C9 1.339 1_655 S
C8 H43 0.949 . S
C9 C8 1.339 1_455 S
C9 C10 1.439 . S
C9 H44 0.950 . S
C10 N6 1.383 1_455 S
C10 C9 1.439 . S
C10 C39 1.392 . S
N11 Co5 2.032 1_556 S
N11 C12 1.376 1_556 S
N11 C15 1.374 . S
C12 N11 1.376 1_554 S
C12 C13 1.443 . S
C12 C39 1.389 . S
C13 C12 1.443 . S
C13 C14 1.340 1_554 S
C13 H45 0.951 . S
C14 C13 1.340 1_556 S
C14 C15 1.439 . S
C14 H46 0.950 . S
C15 N11 1.374 . S
C15 C14 1.439 . S
C15 C40 1.395 . S
N16 Co5 1.984 1_556 S
N16 C17 1.376 . S
N16 C20 1.383 1_455 S
C17 N16 1.376 . S
C17 C18 1.446 . S
C17 C40 1.391 . S
C18 C17 1.446 . S
C18 C19 1.339 1_455 S
C18 H47 0.949 . S
C19 C18 1.339 1_655 S
C19 C20 1.439 . S
C19 H48 0.950 . S
C20 N16 1.383 1_655 S
C20 C19 1.439 . S
C20 C38 1.392 . S
N21 Co5 2.289 . S
N21 C24 1.332 . S
N21 C26 1.332 . S
C22 C23 1.386 . S
C22 C25 1.388 . S
C23 C22 1.386 . S
C23 C24 1.382 . S
C23 H49 0.950 . S
C24 N21 1.332 . S
C24 C23 1.382 . S
C24 H35 0.952 . S
C25 C22 1.388 . S
C25 C26 1.382 . S
C25 H50 0.950 . S
C26 N21 1.332 . S
C26 C25 1.382 . S
C26 H36 0.948 . S
N27 Co5 2.276 1_656 S
N27 C31 1.332 . S
N27 C32 1.332 . S
C28 C29 1.388 . S
C28 C32 1.382 . S
C28 H51 0.950 . S
C29 C28 1.388 . S
C29 C30 1.386 . S
C30 C29 1.386 . S
C30 C31 1.382 . S
C30 H52 0.950 . S
C31 N27 1.332 . S
C31 C30 1.382 . S
C31 H33 0.959 . S
C32 N27 1.332 . S
C32 C28 1.382 . S
C32 H34 0.948 . S
H33 C31 0.959 . S
H34 C32 0.948 . S
H35 C24 0.952 . S
H36 C26 0.948 . S
C37 C3 1.395 . S
C37 C7 1.391 . S
C38 C0 1.389 . S
C38 C20 1.392 . S
C39 C10 1.392 . S
C39 C12 1.389 . S
C40 C15 1.395 . S
C40 C17 1.391 . S
H41 C1 0.951 . S
H42 C2 0.950 . S
H43 C8 0.949 . S
H44 C9 0.950 . S
H45 C13 0.951 . S
H46 C14 0.950 . S
H47 C18 0.949 . S
H48 C19 0.950 . S
H49 C23 0.950 . S
H50 C25 0.950 . S
H51 C28 0.950 . S
H52 C30 0.950 . S
C53 C54 1.443 . S
C53 N57 1.382 . S
C53 C91 1.389 . S
C54 C53 1.443 . S
C54 C55 1.340 1_545 S
C54 H94 0.951 . S
C55 C54 1.340 1_565 S
C55 C56 1.439 . S
C55 H95 0.950 . S
C56 C55 1.439 . S
C56 N57 1.365 1_565 S
C56 C90 1.395 . S
N57 C53 1.382 . S
N57 C56 1.365 1_545 S
N57 Co58 2.013 . S
Co58 N57 2.013 . S
Co58 N59 1.995 1_545 S
Co58 N64 2.008 . S
Co58 N69 1.995 . S
Co58 N74 2.282 1_545 S
Co58 N80 2.282 . S
N59 Co58 1.995 1_565 S
N59 C60 1.376 . S
N59 C63 1.383 . S
C60 N59 1.376 . S
C60 C61 1.446 . S
C60 C90 1.391 . S
C61 C60 1.446 . S
C61 C62 1.339 . S
C61 H96 0.949 . S
C62 C61 1.339 . S
C62 C63 1.439 . S
C62 H97 0.950 . S
C63 N59 1.383 . S
C63 C62 1.439 . S
C63 C92 1.392 . S
N64 Co58 2.008 . S
N64 C65 1.376 1_545 S
N64 C68 1.374 . S
C65 N64 1.376 1_565 S
C65 C66 1.443 . S
C65 C92 1.389 . S
C66 C65 1.443 . S
C66 C67 1.340 1_565 S
C66 H98 0.951 . S
C67 C66 1.340 1_545 S
C67 C68 1.439 . S
C67 H99 0.950 . S
C68 N64 1.374 . S
C68 C67 1.439 . S
C68 C93 1.395 . S
N69 Co58 1.995 . S
N69 C70 1.376 . S
N69 C73 1.383 . S
C70 N69 1.376 . S
C70 C71 1.446 . S
C70 C93 1.391 . S
C71 C70 1.446 . S
C71 C72 1.339 . S
C71 H100 0.949 . S
C72 C71 1.339 . S
C72 C73 1.439 . S
C72 H101 0.950 . S
C73 N69 1.383 . S
C73 C72 1.439 . S
C73 C91 1.392 . S
N74 Co58 2.282 1_565 S
N74 C77 1.332 . S
N74 C79 1.332 . S
C75 C76 1.386 . S
C75 C78 1.388 . S
C76 C75 1.386 . S
C76 C77 1.382 . S
C76 H102 0.950 . S
C77 N74 1.332 . S
C77 C76 1.382 . S
C77 H88 0.952 1_565 S
C78 C75 1.388 . S
C78 C79 1.382 . S
C78 H103 0.950 . S
C79 N74 1.332 . S
C79 C78 1.382 . S
C79 H89 0.948 . S
N80 Co58 2.282 . S
N80 C84 1.332 . S
N80 C85 1.332 . S
C81 C82 1.388 . S
C81 C85 1.382 . S
C81 H104 0.950 . S
C82 C81 1.388 . S
C82 C83 1.386 . S
C83 C82 1.386 . S
C83 C84 1.382 . S
C83 H105 0.950 . S
C84 N80 1.332 . S
C84 C83 1.382 . S
C84 H86 0.952 1_545 S
C85 N80 1.332 . S
C85 C81 1.382 . S
C85 H87 0.948 . S
H86 C84 0.952 1_565 S
H87 C85 0.948 . S
H88 C77 0.952 1_545 S
H89 C79 0.948 . S
C90 C56 1.395 . S
C90 C60 1.391 . S
C91 C53 1.389 . S
C91 C73 1.392 . S
C92 C63 1.392 . S
C92 C65 1.389 . S
C93 C68 1.395 . S
C93 C70 1.391 . S
H94 C54 0.951 . S
H95 C55 0.950 . S
H96 C61 0.949 . S
H97 C62 0.950 . S
H98 C66 0.951 . S
H99 C67 0.950 . S
H100 C71 0.949 . S
H101 C72 0.950 . S
H102 C76 0.950 . S
H103 C78 0.950 . S
H104 C81 0.950 . S
H105 C83 0.950 . S
C106 C107 1.443 . S
C106 N110 1.376 . S
C106 C144 1.389 . S
C107 C106 1.443 . S
C107 C108 1.340 . S
C107 H147 0.951 . S
C108 C107 1.340 . S
C108 C109 1.439 . S
C108 H148 0.950 . S
C109 C108 1.439 . S
C109 N110 1.374 . S
C109 C143 1.395 . S
N110 C106 1.376 . S
N110 C109 1.374 . S
N110 Co111 2.001 1_556 S
Co111 N110 2.001 1_554 S
Co111 N112 1.993 1_554 S
Co111 N117 2.015 . S
Co111 N122 1.996 . S
Co111 N127 2.287 . S
Co111 N133 2.278 1_554 S
N112 Co111 1.993 1_556 S
N112 C113 1.376 . S
N112 C116 1.383 1_556 S
C113 N112 1.376 . S
C113 C114 1.446 . S
C113 C143 1.391 . S
C114 C113 1.446 . S
C114 C115 1.339 . S
C114 H149 0.949 . S
C115 C114 1.339 . S
C115 C116 1.439 1_556 S
C115 H150 0.950 1_556 S
C116 N112 1.383 1_554 S
C116 C115 1.439 1_554 S
C116 C145 1.392 . S
N117 Co111 2.015 . S
N117 C118 1.376 . S
N117 C121 1.374 . S
C118 N117 1.376 . S
C118 C119 1.443 . S
C118 C145 1.389 . S
C119 C118 1.443 . S
C119 C120 1.340 . S
C119 H151 0.951 . S
C120 C119 1.340 . S
C120 C121 1.439 . S
C120 H152 0.950 . S
C121 N117 1.374 . S
C121 C120 1.439 . S
C121 C146 1.395 . S
N122 Co111 1.996 . S
N122 C123 1.376 . S
N122 C126 1.383 1_554 S
C123 N122 1.376 . S
C123 C124 1.446 . S
C123 C146 1.391 . S
C124 C123 1.446 . S
C124 C125 1.339 . S
C124 H153 0.949 . S
C125 C124 1.339 . S
C125 C126 1.439 1_554 S
C125 H154 0.950 1_554 S
C126 N122 1.383 1_556 S
C126 C125 1.439 1_556 S
C126 C144 1.392 . S
N127 Co111 2.287 . S
N127 C130 1.332 . S
N127 C132 1.332 . S
C128 C129 1.386 . S
C128 C131 1.388 . S
C129 C128 1.386 . S
C129 C130 1.382 . S
C129 H155 0.950 . S
C130 N127 1.332 . S
C130 C129 1.382 . S
C130 H141 0.952 . S
C131 C128 1.388 . S
C131 C132 1.382 . S
C131 H156 0.950 . S
C132 N127 1.332 . S
C132 C131 1.382 . S
C132 H142 0.948 . S
N133 Co111 2.278 1_556 S
N133 C137 1.332 . S
N133 C138 1.332 . S
C134 C135 1.388 . S
C134 C138 1.382 . S
C134 H157 0.950 . S
C135 C134 1.388 . S
C135 C136 1.386 . S
C136 C135 1.386 . S
C136 C137 1.382 . S
C136 H158 0.950 . S
C137 N133 1.332 . S
C137 C136 1.382 . S
C137 H139 0.952 . S
C138 N133 1.332 . S
C138 C134 1.382 . S
C138 H140 0.948 . S
H139 C137 0.952 . S
H140 C138 0.948 . S
H141 C130 0.952 . S
H142 C132 0.948 . S
C143 C109 1.395 . S
C143 C113 1.391 . S
C144 C106 1.389 . S
C144 C126 1.392 . S
C145 C116 1.392 . S
C145 C118 1.389 . S
C146 C121 1.395 . S
C146 C123 1.391 . S
H147 C107 0.951 . S
H148 C108 0.950 . S
H149 C114 0.949 . S
H150 C115 0.950 1_554 S
H151 C119 0.951 . S
H152 C120 0.950 . S
H153 C124 0.949 . S
H154 C125 0.950 1_556 S
H155 C129 0.950 . S
H156 C131 0.950 . S
H157 C134 0.950 . S
H158 C136 0.950 . S
C159 C160 1.443 . S
C159 N163 1.376 . S
C159 C197 1.389 . S
C160 C159 1.443 . S
C160 C161 1.340 . S
C160 H200 0.951 . S
C161 C160 1.340 . S
C161 C162 1.439 . S
C161 H201 0.950 . S
C162 C161 1.439 . S
C162 N163 1.374 . S
C162 C196 1.395 . S
N163 C159 1.376 . S
N163 C162 1.374 . S
N163 Co164 1.993 1_655 S
Co164 N163 1.993 1_455 S
Co164 N165 1.985 1_455 S
Co164 N170 2.024 . S
Co164 N175 2.005 . S
Co164 N180 2.302 . S
Co164 N186 2.263 1_455 S
N165 Co164 1.985 1_655 S
N165 C166 1.376 . S
N165 C169 1.383 1_655 S
C166 N165 1.376 . S
C166 C167 1.446 . S
C166 C196 1.391 . S
C167 C166 1.446 . S
C167 C168 1.339 1_655 S
C167 H202 0.949 . S
C168 C167 1.339 1_455 S
C168 C169 1.439 . S
C168 H203 0.950 . S
C169 N165 1.383 1_455 S
C169 C168 1.439 . S
C169 C198 1.392 . S
N170 Co164 2.024 . S
N170 C171 1.376 . S
N170 C174 1.374 . S
C171 N170 1.376 . S
C171 C172 1.443 . S
C171 C198 1.389 . S
C172 C171 1.443 . S
C172 C173 1.340 . S
C172 H204 0.951 . S
C173 C172 1.340 . S
C173 C174 1.439 . S
C173 H205 0.950 . S
C174 N170 1.374 . S
C174 C173 1.439 . S
C174 C199 1.395 . S
N175 Co164 2.005 . S
N175 C176 1.376 . S
N175 C179 1.383 1_455 S
C176 N175 1.376 . S
C176 C177 1.446 . S
C176 C199 1.391 . S
C177 C176 1.446 . S
C177 C178 1.329 1_455 S
C177 H206 0.949 . S
C178 C177 1.329 1_655 S
C178 C179 1.446 . S
C178 H207 0.951 . S
C179 N175 1.383 1_655 S
C179 C178 1.446 . S
C179 C197 1.392 . S
N180 Co164 2.302 . S
N180 C183 1.332 . S
N180 C185 1.332 . S
C181 C182 1.386 . S
C181 C184 1.388 . S
C182 C181 1.386 . S
C182 C183 1.382 . S
C182 H208 0.950 . S
C183 N180 1.332 . S
C183 C182 1.382 . S
C183 H194 0.952 . S
C184 C181 1.388 . S
C184 C185 1.382 . S
C184 H209 0.950 . S
C185 N180 1.332 . S
C185 C184 1.382 . S
C185 H195 0.948 1_455 S
N186 Co164 2.263 1_655 S
N186 C190 1.332 . S
N186 C191 1.332 . S
C187 C188 1.388 . S
C187 C191 1.382 . S
C187 H210 0.950 . S
C188 C187 1.388 . S
C188 C189 1.386 . S
C189 C188 1.386 . S
C189 C190 1.382 . S
C189 H211 0.950 . S
C190 N186 1.332 . S
C190 C189 1.382 . S
C190 H192 0.952 . S
C191 N186 1.332 . S
C191 C187 1.382 . S
C191 H193 0.948 1_655 S
H192 C190 0.952 . S
H193 C191 0.948 1_455 S
H194 C183 0.952 . S
H195 C185 0.948 1_655 S
C196 C162 1.395 . S
C196 C166 1.391 . S
C197 C159 1.389 . S
C197 C179 1.392 . S
C198 C169 1.392 . S
C198 C171 1.389 . S
C199 C174 1.395 . S
C199 C176 1.391 . S
H200 C160 0.951 . S
H201 C161 0.950 . S
H202 C167 0.949 . S
H203 C168 0.950 . S
H204 C172 0.951 . S
H205 C173 0.950 . S
H206 C177 0.949 . S
H207 C178 0.951 . S
H208 C182 0.950 . S
H209 C184 0.950 . S
H210 C187 0.950 . S
H211 C189 0.950 . S
C212 C213 1.443 . S
C212 N216 1.376 1_565 S
C212 C250 1.389 . S
C213 C212 1.443 . S
C213 C214 1.340 1_565 S
C213 H253 0.951 . S
C214 C213 1.340 1_545 S
C214 C215 1.439 . S
C214 H254 0.950 . S
C215 C214 1.439 . S
C215 N216 1.374 . S
C215 C249 1.395 . S
N216 C212 1.376 1_545 S
N216 C215 1.374 . S
N216 Co217 2.015 . S
Co217 N216 2.015 . S
Co217 N218 1.995 . S
Co217 N223 2.001 1_544 S
Co217 N228 1.994 1_544 S
Co217 N233 2.279 1_554 S
Co217 N239 2.286 1_545 S
N218 Co217 1.995 . S
N218 C219 1.376 . S
N218 C222 1.383 1_554 S
C219 N218 1.376 . S
C219 C220 1.446 . S
C219 C249 1.391 . S
C220 C219 1.446 . S
C220 C221 1.339 1_554 S
C220 H255 0.949 . S
C221 C220 1.339 1_556 S
C221 C222 1.439 . S
C221 H256 0.950 . S
C222 N218 1.383 1_556 S
C222 C221 1.439 . S
C222 C251 1.392 . S
N223 Co217 2.001 1_566 S
N223 C224 1.376 1_565 S
N223 C227 1.374 . S
C224 N223 1.376 1_545 S
C224 C225 1.443 . S
C224 C251 1.389 . S
C225 C224 1.443 . S
C225 C226 1.340 1_545 S
C225 H257 0.951 . S
C226 C225 1.340 1_565 S
C226 C227 1.439 . S
C226 H258 0.950 . S
C227 N223 1.374 . S
C227 C226 1.439 . S
C227 C252 1.395 . S
N228 Co217 1.994 1_566 S
N228 C229 1.376 . S
N228 C232 1.383 1_556 S
C229 N228 1.376 . S
C229 C230 1.446 . S
C229 C252 1.391 . S
C230 C229 1.446 . S
C230 C231 1.339 1_556 S
C230 H259 0.949 . S
C231 C230 1.339 1_554 S
C231 C232 1.439 . S
C231 H260 0.950 . S
C232 N228 1.383 1_554 S
C232 C231 1.439 . S
C232 C250 1.392 . S
N233 Co217 2.279 1_556 S
N233 C236 1.332 . S
N233 C238 1.332 . S
C234 C235 1.386 . S
C234 C237 1.388 . S
C235 C234 1.386 . S
C235 C236 1.382 . S
C235 H261 0.950 . S
C236 N233 1.332 . S
C236 C235 1.382 . S
C236 H247 0.952 1_545 S
C237 C234 1.388 . S
C237 C238 1.382 . S
C237 H262 0.950 . S
C238 N233 1.332 . S
C238 C237 1.382 . S
C238 H248 0.948 . S
N239 Co217 2.286 1_565 S
N239 C243 1.332 . S
N239 C244 1.332 . S
C240 C241 1.388 . S
C240 C244 1.382 . S
C240 H263 0.950 . S
C241 C240 1.388 . S
C241 C242 1.386 . S
C242 C241 1.386 . S
C242 C243 1.382 . S
C242 H264 0.950 . S
C243 N239 1.332 . S
C243 C242 1.382 . S
C243 H245 0.952 1_565 S
C244 N239 1.332 . S
C244 C240 1.382 . S
C244 H246 0.948 . S
H245 C243 0.952 1_545 S
H246 C244 0.948 . S
H247 C236 0.952 1_565 S
H248 C238 0.948 . S
C249 C215 1.395 . S
C249 C219 1.391 . S
C250 C212 1.389 . S
C250 C232 1.392 . S
C251 C222 1.392 . S
C251 C224 1.389 . S
C252 C227 1.395 . S
C252 C229 1.391 . S
H253 C213 0.951 . S
H254 C214 0.950 . S
H255 C220 0.949 . S
H256 C221 0.950 . S
H257 C225 0.951 . S
H258 C226 0.950 . S
H259 C230 0.949 . S
H260 C231 0.950 . S
H261 C235 0.950 . S
H262 C237 0.950 . S
H263 C240 0.950 . S
H264 C242 0.950 . S
C265 C266 1.443 . S
C265 N269 1.376 . S
C265 C303 1.389 . S
C266 C265 1.443 . S
C266 C267 1.340 . S
C266 H306 0.951 . S
C267 C266 1.340 . S
C267 C268 1.439 . S
C267 H307 0.950 . S
C268 C267 1.439 . S
C268 N269 1.374 . S
C268 C302 1.395 . S
N269 C265 1.376 . S
N269 C268 1.374 . S
N269 Co270 2.008 . S
Co270 N269 2.008 . S
Co270 N271 1.995 . S
Co270 N276 2.008 . S
Co270 N281 1.995 . S
Co270 N286 2.282 . S
Co270 N292 2.282 . S
N271 Co270 1.995 . S
N271 C272 1.376 . S
N271 C275 1.383 . S
C272 N271 1.376 . S
C272 C273 1.446 . S
C272 C302 1.391 . S
C273 C272 1.446 . S
C273 C274 1.339 . S
C273 H308 0.949 . S
C274 C273 1.339 . S
C274 C275 1.439 . S
C274 H309 0.950 . S
C275 N271 1.383 . S
C275 C274 1.439 . S
C275 C304 1.392 . S
N276 Co270 2.008 . S
N276 C277 1.376 . S
N276 C280 1.374 . S
C277 N276 1.376 . S
C277 C278 1.443 . S
C277 C304 1.389 . S
C278 C277 1.443 . S
C278 C279 1.340 . S
C278 H310 0.951 . S
C279 C278 1.340 . S
C279 C280 1.439 . S
C279 H311 0.950 . S
C280 N276 1.374 . S
C280 C279 1.439 . S
C280 C305 1.395 . S
N281 Co270 1.995 . S
N281 C282 1.376 . S
N281 C285 1.383 . S
C282 N281 1.376 . S
C282 C283 1.446 . S
C282 C305 1.391 . S
C283 C282 1.446 . S
C283 C284 1.339 . S
C283 H312 0.949 . S
C284 C283 1.339 . S
C284 C285 1.439 . S
C284 H313 0.950 . S
C285 N281 1.383 . S
C285 C284 1.439 . S
C285 C303 1.392 . S
N286 Co270 2.282 . S
N286 C289 1.332 . S
N286 C291 1.332 . S
C287 C288 1.386 . S
C287 C290 1.388 . S
C288 C287 1.386 . S
C288 C289 1.382 . S
C288 H314 0.950 . S
C289 N286 1.332 . S
C289 C288 1.382 . S
C289 H300 0.952 . S
C290 C287 1.388 . S
C290 C291 1.382 . S
C290 H315 0.950 . S
C291 N286 1.332 . S
C291 C290 1.382 . S
C291 H301 0.948 . S
N292 Co270 2.282 . S
N292 C296 1.332 . S
N292 C297 1.332 . S
C293 C294 1.388 . S
C293 C297 1.382 . S
C293 H316 0.950 . S
C294 C293 1.388 . S
C294 C295 1.386 . S
C295 C294 1.386 . S
C295 C296 1.382 . S
C295 H317 0.950 . S
C296 N292 1.332 . S
C296 C295 1.382 . S
C296 H298 0.952 . S
C297 N292 1.332 . S
C297 C293 1.382 . S
C297 H299 0.948 . S
H298 C296 0.952 . S
H299 C297 0.948 . S
H300 C289 0.952 . S
H301 C291 0.948 . S
C302 C268 1.395 . S
C302 C272 1.391 . S
C303 C265 1.389 . S
C303 C285 1.392 . S
C304 C275 1.392 . S
C304 C277 1.389 . S
C305 C280 1.395 . S
C305 C282 1.391 . S
H306 C266 0.951 . S
H307 C267 0.950 . S
H308 C273 0.949 . S
H309 C274 0.950 . S
H310 C278 0.951 . S
H311 C279 0.950 . S
H312 C283 0.949 . S
H313 C284 0.950 . S
H314 C288 0.950 . S
H315 C290 0.950 . S
H316 C293 0.950 . S
H317 C295 0.950 . S
C318 C319 1.443 . S
C318 N322 1.376 . S
C318 C356 1.389 . S
C319 C318 1.443 . S
C319 C320 1.340 . S
C319 H359 0.951 . S
C320 C319 1.340 . S
C320 C321 1.439 . S
C320 H360 0.950 . S
C321 C320 1.439 . S
C321 N322 1.374 . S
C321 C355 1.395 . S
N322 C318 1.376 . S
N322 C321 1.374 . S
N322 Co323 2.008 . S
Co323 N322 2.008 . S
Co323 N324 1.995 . S
Co323 N329 2.008 . S
Co323 N334 1.995 . S
Co323 N339 2.282 . S
Co323 N345 2.282 . S
N324 Co323 1.995 . S
N324 C325 1.376 . S
N324 C328 1.383 . S
C325 N324 1.376 . S
C325 C326 1.446 . S
C325 C355 1.391 . S
C326 C325 1.446 . S
C326 C327 1.339 . S
C326 H361 0.949 . S
C327 C326 1.339 . S
C327 C328 1.439 . S
C327 H362 0.950 . S
C328 N324 1.383 . S
C328 C327 1.439 . S
C328 C357 1.392 . S
N329 Co323 2.008 . S
N329 C330 1.376 . S
N329 C333 1.374 . S
C330 N329 1.376 . S
C330 C331 1.443 . S
C330 C357 1.389 . S
C331 C330 1.443 . S
C331 C332 1.340 . S
C331 H363 0.951 . S
C332 C331 1.340 . S
C332 C333 1.439 . S
C332 H364 0.950 . S
C333 N329 1.374 . S
C333 C332 1.439 . S
C333 C358 1.395 . S
N334 Co323 1.995 . S
N334 C335 1.376 . S
N334 C338 1.383 . S
C335 N334 1.376 . S
C335 C336 1.446 . S
C335 C358 1.391 . S
C336 C335 1.446 . S
C336 C337 1.339 . S
C336 H365 0.949 . S
C337 C336 1.339 . S
C337 C338 1.439 . S
C337 H366 0.950 . S
C338 N334 1.383 . S
C338 C337 1.439 . S
C338 C356 1.392 . S
N339 Co323 2.282 . S
N339 C342 1.332 . S
N339 C344 1.332 . S
C340 C341 1.386 . S
C340 C343 1.388 . S
C341 C340 1.386 . S
C341 C342 1.382 . S
C341 H367 0.950 . S
C342 N339 1.332 . S
C342 C341 1.382 . S
C342 H353 0.952 . S
C343 C340 1.388 . S
C343 C344 1.382 . S
C343 H368 0.950 . S
C344 N339 1.332 . S
C344 C343 1.382 . S
C344 H354 0.948 . S
N345 Co323 2.282 . S
N345 C349 1.332 . S
N345 C350 1.332 . S
C346 C347 1.388 . S
C346 C350 1.382 . S
C346 H369 0.950 . S
C347 C346 1.388 . S
C347 C348 1.386 . S
C348 C347 1.386 . S
C348 C349 1.382 . S
C348 H370 0.950 . S
C349 N345 1.332 . S
C349 C348 1.382 . S
C349 H351 0.952 . S
C350 N345 1.332 . S
C350 C346 1.382 . S
C350 H352 0.948 . S
H351 C349 0.952 . S
H352 C350 0.948 . S
H353 C342 0.952 . S
H354 C344 0.948 . S
C355 C321 1.395 . S
C355 C325 1.391 . S
C356 C318 1.389 . S
C356 C338 1.392 . S
C357 C328 1.392 . S
C357 C330 1.389 . S
C358 C333 1.395 . S
C358 C335 1.391 . S
H359 C319 0.951 . S
H360 C320 0.950 . S
H361 C326 0.949 . S
H362 C327 0.950 . S
H363 C331 0.951 . S
H364 C332 0.950 . S
H365 C336 0.949 . S
H366 C337 0.950 . S
H367 C341 0.950 . S
H368 C343 0.950 . S
H369 C346 0.950 . S
H370 C348 0.950 . S
C371 C372 1.443 . S
C371 N375 1.376 . S
C371 C409 1.389 . S
C372 C371 1.443 . S
C372 C373 1.340 . S
C372 H412 0.951 . S
C373 C372 1.340 . S
C373 C374 1.439 . S
C373 H413 0.950 . S
C374 C373 1.439 . S
C374 N375 1.374 . S
C374 C408 1.395 . S
N375 C371 1.376 . S
N375 C374 1.374 . S
N375 Co376 2.008 . S
Co376 N375 2.008 . S
Co376 N377 1.995 . S
Co376 N382 2.008 . S
Co376 N387 1.995 . S
Co376 N392 2.282 . S
Co376 N398 2.282 . S
N377 Co376 1.995 . S
N377 C378 1.376 . S
N377 C381 1.383 . S
C378 N377 1.376 . S
C378 C379 1.446 . S
C378 C408 1.391 . S
C379 C378 1.446 . S
C379 C380 1.339 . S
C379 H414 0.949 . S
C380 C379 1.339 . S
C380 C381 1.439 . S
C380 H415 0.950 . S
C381 N377 1.383 . S
C381 C380 1.439 . S
C381 C410 1.392 . S
N382 Co376 2.008 . S
N382 C383 1.376 . S
N382 C386 1.374 . S
C383 N382 1.376 . S
C383 C384 1.443 . S
C383 C410 1.389 . S
C384 C383 1.443 . S
C384 C385 1.340 . S
C384 H416 0.951 . S
C385 C384 1.340 . S
C385 C386 1.439 . S
C385 H417 0.950 . S
C386 N382 1.374 . S
C386 C385 1.439 . S
C386 C411 1.395 . S
N387 Co376 1.995 . S
N387 C388 1.376 . S
N387 C391 1.383 . S
C388 N387 1.376 . S
C388 C389 1.446 . S
C388 C411 1.391 . S
C389 C388 1.446 . S
C389 C390 1.339 . S
C389 H418 0.949 . S
C390 C389 1.339 . S
C390 C391 1.439 . S
C390 H419 0.950 . S
C391 N387 1.383 . S
C391 C390 1.439 . S
C391 C409 1.392 . S
N392 Co376 2.282 . S
N392 C395 1.332 . S
N392 C397 1.332 . S
C393 C394 1.386 . S
C393 C396 1.388 . S
C394 C393 1.386 . S
C394 C395 1.382 . S
C394 H420 0.950 . S
C395 N392 1.332 . S
C395 C394 1.382 . S
C395 H406 0.952 . S
C396 C393 1.388 . S
C396 C397 1.382 . S
C396 H421 0.950 . S
C397 N392 1.332 . S
C397 C396 1.382 . S
C397 H407 0.948 . S
N398 Co376 2.282 . S
N398 C402 1.332 . S
N398 C403 1.332 . S
C399 C400 1.388 . S
C399 C403 1.382 . S
C399 H422 0.950 . S
C400 C399 1.388 . S
C400 C401 1.386 . S
C401 C400 1.386 . S
C401 C402 1.382 . S
C401 H423 0.950 . S
C402 N398 1.332 . S
C402 C401 1.382 . S
C402 H404 0.952 . S
C403 N398 1.332 . S
C403 C399 1.382 . S
C403 H405 0.948 . S
H404 C402 0.952 . S
H405 C403 0.948 . S
H406 C395 0.952 . S
H407 C397 0.948 . S
C408 C374 1.395 . S
C408 C378 1.391 . S
C409 C371 1.389 . S
C409 C391 1.392 . S
C410 C381 1.392 . S
C410 C383 1.389 . S
C411 C386 1.395 . S
C411 C388 1.391 . S
H412 C372 0.951 . S
H413 C373 0.950 . S
H414 C379 0.949 . S
H415 C380 0.950 . S
H416 C384 0.951 . S
H417 C385 0.950 . S
H418 C389 0.949 . S
H419 C390 0.950 . S
H420 C394 0.950 . S
H421 C396 0.950 . S
H422 C399 0.950 . S
H423 C401 0.950 . S
C424 C425 1.443 . S
C424 N428 1.376 . S
C424 C462 1.389 . S
C425 C424 1.443 . S
C425 C426 1.340 . S
C425 H465 0.951 . S
C426 C425 1.340 . S
C426 C427 1.439 . S
C426 H466 0.950 . S
C427 C426 1.439 . S
C427 N428 1.374 . S
C427 C461 1.395 . S
N428 C424 1.376 . S
N428 C427 1.374 . S
N428 Co429 2.008 . S
Co429 N428 2.008 . S
Co429 N430 1.995 . S
Co429 N435 2.008 . S
Co429 N440 1.995 . S
Co429 N445 2.282 . S
Co429 N451 2.282 . S
N430 Co429 1.995 . S
N430 C431 1.376 . S
N430 C434 1.383 . S
C431 N430 1.376 . S
C431 C432 1.446 . S
C431 C461 1.391 . S
C432 C431 1.446 . S
C432 C433 1.339 . S
C432 H467 0.949 . S
C433 C432 1.339 . S
C433 C434 1.439 . S
C433 H468 0.950 . S
C434 N430 1.383 . S
C434 C433 1.439 . S
C434 C463 1.392 . S
N435 Co429 2.008 . S
N435 C436 1.376 . S
N435 C439 1.374 . S
C436 N435 1.376 . S
C436 C437 1.443 . S
C436 C463 1.389 . S
C437 C436 1.443 . S
C437 C438 1.340 . S
C437 H469 0.951 . S
C438 C437 1.340 . S
C438 C439 1.439 . S
C438 H470 0.950 . S
C439 N435 1.374 . S
C439 C438 1.439 . S
C439 C464 1.395 . S
N440 Co429 1.995 . S
N440 C441 1.376 . S
N440 C444 1.383 . S
C441 N440 1.376 . S
C441 C442 1.446 . S
C441 C464 1.391 . S
C442 C441 1.446 . S
C442 C443 1.339 . S
C442 H471 0.949 . S
C443 C442 1.339 . S
C443 C444 1.439 . S
C443 H472 0.950 . S
C444 N440 1.383 . S
C444 C443 1.439 . S
C444 C462 1.392 . S
N445 Co429 2.282 . S
N445 C448 1.332 . S
N445 C450 1.332 . S
C446 C447 1.386 . S
C446 C449 1.388 . S
C447 C446 1.386 . S
C447 C448 1.382 . S
C447 H473 0.950 . S
C448 N445 1.332 . S
C448 C447 1.382 . S
C448 H459 0.952 . S
C449 C446 1.388 . S
C449 C450 1.382 . S
C449 H474 0.950 . S
C450 N445 1.332 . S
C450 C449 1.382 . S
C450 H460 0.948 . S
N451 Co429 2.282 . S
N451 C455 1.332 . S
N451 C456 1.332 . S
C452 C453 1.388 . S
C452 C456 1.382 . S
C452 H475 0.950 . S
C453 C452 1.388 . S
C453 C454 1.386 . S
C454 C453 1.386 . S
C454 C455 1.382 . S
C454 H476 0.950 . S
C455 N451 1.332 . S
C455 C454 1.382 . S
C455 H457 0.952 . S
C456 N451 1.332 . S
C456 C452 1.382 . S
C456 H458 0.948 . S
H457 C455 0.952 . S
H458 C456 0.948 . S
H459 C448 0.952 . S
H460 C450 0.948 . S
C461 C427 1.395 . S
C461 C431 1.391 . S
C462 C424 1.389 . S
C462 C444 1.392 . S
C463 C434 1.392 . S
C463 C436 1.389 . S
C464 C439 1.395 . S
C464 C441 1.391 . S
H465 C425 0.951 . S
H466 C426 0.950 . S
H467 C432 0.949 . S
H468 C433 0.950 . S
H469 C437 0.951 . S
H470 C438 0.950 . S
H471 C442 0.949 . S
H472 C443 0.950 . S
H473 C447 0.950 . S
H474 C449 0.950 . S
H475 C452 0.950 . S
H476 C454 0.950 . S
C477 C478 1.443 . S
C477 N481 1.376 . S
C477 C515 1.389 . S
C478 C477 1.443 . S
C478 C479 1.340 . S
C478 H518 0.951 . S
C479 C478 1.340 . S
C479 C480 1.439 . S
C479 H519 0.950 . S
C480 C479 1.439 . S
C480 N481 1.374 . S
C480 C514 1.395 . S
N481 C477 1.376 . S
N481 C480 1.374 . S
N481 Co482 2.008 . S
Co482 N481 2.008 . S
Co482 N483 1.995 . S
Co482 N488 2.008 . S
Co482 N493 1.995 . S
Co482 N498 2.282 . S
Co482 N504 2.282 . S
N483 Co482 1.995 . S
N483 C484 1.376 . S
N483 C487 1.383 . S
C484 N483 1.376 . S
C484 C485 1.446 . S
C484 C514 1.391 . S
C485 C484 1.446 . S
C485 C486 1.339 . S
C485 H520 0.949 . S
C486 C485 1.339 . S
C486 C487 1.439 . S
C486 H521 0.950 . S
C487 N483 1.383 . S
C487 C486 1.439 . S
C487 C516 1.392 . S
N488 Co482 2.008 . S
N488 C489 1.376 . S
N488 C492 1.374 . S
C489 N488 1.376 . S
C489 C490 1.443 . S
C489 C516 1.389 . S
C490 C489 1.443 . S
C490 C491 1.340 . S
C490 H522 0.951 . S
C491 C490 1.340 . S
C491 C492 1.439 . S
C491 H523 0.950 . S
C492 N488 1.374 . S
C492 C491 1.439 . S
C492 C517 1.395 . S
N493 Co482 1.995 . S
N493 C494 1.376 . S
N493 C497 1.383 . S
C494 N493 1.376 . S
C494 C495 1.446 . S
C494 C517 1.391 . S
C495 C494 1.446 . S
C495 C496 1.339 . S
C495 H524 0.949 . S
C496 C495 1.339 . S
C496 C497 1.439 . S
C496 H525 0.950 . S
C497 N493 1.383 . S
C497 C496 1.439 . S
C497 C515 1.392 . S
N498 Co482 2.282 . S
N498 C501 1.332 . S
N498 C503 1.332 . S
C499 C500 1.386 . S
C499 C502 1.388 . S
C500 C499 1.386 . S
C500 C501 1.382 . S
C500 H526 0.950 . S
C501 N498 1.332 . S
C501 C500 1.382 . S
C501 H512 0.952 . S
C502 C499 1.388 . S
C502 C503 1.382 . S
C502 H527 0.950 . S
C503 N498 1.332 . S
C503 C502 1.382 . S
C503 H513 0.948 . S
N504 Co482 2.282 . S
N504 C508 1.332 . S
N504 C509 1.332 . S
C505 C506 1.388 . S
C505 C509 1.382 . S
C505 H528 0.950 . S
C506 C505 1.388 . S
C506 C507 1.386 . S
C507 C506 1.386 . S
C507 C508 1.382 . S
C507 H529 0.950 . S
C508 N504 1.332 . S
C508 C507 1.382 . S
C508 H510 0.952 . S
C509 N504 1.332 . S
C509 C505 1.382 . S
C509 H511 0.948 . S
H510 C508 0.952 . S
H511 C509 0.948 . S
H512 C501 0.952 . S
H513 C503 0.948 . S
C514 C480 1.395 . S
C514 C484 1.391 . S
C515 C477 1.389 . S
C515 C497 1.392 . S
C516 C487 1.392 . S
C516 C489 1.389 . S
C517 C492 1.395 . S
C517 C494 1.391 . S
H518 C478 0.951 . S
H519 C479 0.950 . S
H520 C485 0.949 . S
H521 C486 0.950 . S
H522 C490 0.951 . S
H523 C491 0.950 . S
H524 C495 0.949 . S
H525 C496 0.950 . S
H526 C500 0.950 . S
H527 C502 0.950 . S
H528 C505 0.950 . S
H529 C507 0.950 . S
C530 C531 1.443 . S
C530 N534 1.376 . S
C530 C568 1.389 . S
C531 C530 1.443 . S
C531 C532 1.340 . S
C531 H571 0.951 . S
C532 C531 1.340 . S
C532 C533 1.439 . S
C532 H572 0.950 . S
C533 C532 1.439 . S
C533 N534 1.374 . S
C533 C567 1.395 . S
N534 C530 1.376 . S
N534 C533 1.374 . S
N534 Co535 2.008 . S
Co535 N534 2.008 . S
Co535 N536 1.995 . S
Co535 N541 2.008 . S
Co535 N546 1.995 . S
Co535 N551 2.282 . S
Co535 N557 2.282 . S
N536 Co535 1.995 . S
N536 C537 1.376 . S
N536 C540 1.383 . S
C537 N536 1.376 . S
C537 C538 1.446 . S
C537 C567 1.391 . S
C538 C537 1.446 . S
C538 C539 1.339 . S
C538 H573 0.949 . S
C539 C538 1.339 . S
C539 C540 1.439 . S
C539 H574 0.950 . S
C540 N536 1.383 . S
C540 C539 1.439 . S
C540 C569 1.392 . S
N541 Co535 2.008 . S
N541 C542 1.376 . S
N541 C545 1.374 . S
C542 N541 1.376 . S
C542 C543 1.443 . S
C542 C569 1.389 . S
C543 C542 1.443 . S
C543 C544 1.340 . S
C543 H575 0.951 . S
C544 C543 1.340 . S
C544 C545 1.439 . S
C544 H576 0.950 . S
C545 N541 1.374 . S
C545 C544 1.439 . S
C545 C570 1.395 . S
N546 Co535 1.995 . S
N546 C547 1.376 . S
N546 C550 1.383 . S
C547 N546 1.376 . S
C547 C548 1.446 . S
C547 C570 1.391 . S
C548 C547 1.446 . S
C548 C549 1.339 . S
C548 H577 0.949 . S
C549 C548 1.339 . S
C549 C550 1.439 . S
C549 H578 0.950 . S
C550 N546 1.383 . S
C550 C549 1.439 . S
C550 C568 1.392 . S
N551 Co535 2.282 . S
N551 C554 1.332 . S
N551 C556 1.332 . S
C552 C553 1.386 . S
C552 C555 1.388 . S
C553 C552 1.386 . S
C553 C554 1.382 . S
C553 H579 0.950 . S
C554 N551 1.332 . S
C554 C553 1.382 . S
C554 H565 0.952 . S
C555 C552 1.388 . S
C555 C556 1.382 . S
C555 H580 0.950 . S
C556 N551 1.332 . S
C556 C555 1.382 . S
C556 H566 0.948 . S
N557 Co535 2.282 . S
N557 C561 1.332 . S
N557 C562 1.332 . S
C558 C559 1.388 . S
C558 C562 1.382 . S
C558 H581 0.950 . S
C559 C558 1.388 . S
C559 C560 1.386 . S
C560 C559 1.386 . S
C560 C561 1.382 . S
C560 H582 0.950 . S
C561 N557 1.332 . S
C561 C560 1.382 . S
C561 H563 0.952 . S
C562 N557 1.332 . S
C562 C558 1.382 . S
C562 H564 0.948 . S
H563 C561 0.952 . S
H564 C562 0.948 . S
H565 C554 0.952 . S
H566 C556 0.948 . S
C567 C533 1.395 . S
C567 C537 1.391 . S
C568 C530 1.389 . S
C568 C550 1.392 . S
C569 C540 1.392 . S
C569 C542 1.389 . S
C570 C545 1.395 . S
C570 C547 1.391 . S
H571 C531 0.951 . S
H572 C532 0.950 . S
H573 C538 0.949 . S
H574 C539 0.950 . S
H575 C543 0.951 . S
H576 C544 0.950 . S
H577 C548 0.949 . S
H578 C549 0.950 . S
H579 C553 0.950 . S
H580 C555 0.950 . S
H581 C558 0.950 . S
H582 C560 0.950 . S
C583 C584 1.443 . S
C583 N587 1.376 . S
C583 C621 1.389 . S
C584 C583 1.443 . S
C584 C585 1.340 . S
C584 H624 0.951 . S
C585 C584 1.340 . S
C585 C586 1.439 . S
C585 H625 0.950 . S
C586 C585 1.439 . S
C586 N587 1.374 . S
C586 C620 1.395 . S
N587 C583 1.376 . S
N587 C586 1.374 . S
N587 Co588 2.008 . S
Co588 N587 2.008 . S
Co588 N589 1.995 . S
Co588 N594 2.008 . S
Co588 N599 1.995 . S
Co588 N604 2.282 . S
Co588 N610 2.282 . S
N589 Co588 1.995 . S
N589 C590 1.376 . S
N589 C593 1.383 . S
C590 N589 1.376 . S
C590 C591 1.446 . S
C590 C620 1.391 . S
C591 C590 1.446 . S
C591 C592 1.339 . S
C591 H626 0.949 . S
C592 C591 1.339 . S
C592 C593 1.439 . S
C592 H627 0.950 . S
C593 N589 1.383 . S
C593 C592 1.439 . S
C593 C622 1.392 . S
N594 Co588 2.008 . S
N594 C595 1.376 . S
N594 C598 1.374 . S
C595 N594 1.376 . S
C595 C596 1.443 . S
C595 C622 1.389 . S
C596 C595 1.443 . S
C596 C597 1.340 . S
C596 H628 0.951 . S
C597 C596 1.340 . S
C597 C598 1.439 . S
C597 H629 0.950 . S
C598 N594 1.374 . S
C598 C597 1.439 . S
C598 C623 1.395 . S
N599 Co588 1.995 . S
N599 C600 1.376 . S
N599 C603 1.383 . S
C600 N599 1.376 . S
C600 C601 1.446 . S
C600 C623 1.391 . S
C601 C600 1.446 . S
C601 C602 1.339 . S
C601 H630 0.949 . S
C602 C601 1.339 . S
C602 C603 1.439 . S
C602 H631 0.950 . S
C603 N599 1.383 . S
C603 C602 1.439 . S
C603 C621 1.392 . S
N604 Co588 2.282 . S
N604 C607 1.332 . S
N604 C609 1.332 . S
C605 C606 1.386 . S
C605 C608 1.388 . S
C606 C605 1.386 . S
C606 C607 1.382 . S
C606 H632 0.950 . S
C607 N604 1.332 . S
C607 C606 1.382 . S
C607 H618 0.952 . S
C608 C605 1.388 . S
C608 C609 1.382 . S
C608 H633 0.950 . S
C609 N604 1.332 . S
C609 C608 1.382 . S
C609 H619 0.948 . S
N610 Co588 2.282 . S
N610 C614 1.332 . S
N610 C615 1.332 . S
C611 C612 1.388 . S
C611 C615 1.382 . S
C611 H634 0.950 . S
C612 C611 1.388 . S
C612 C613 1.386 . S
C613 C612 1.386 . S
C613 C614 1.382 . S
C613 H635 0.950 . S
C614 N610 1.332 . S
C614 C613 1.382 . S
C614 H616 0.952 . S
C615 N610 1.332 . S
C615 C611 1.382 . S
C615 H617 0.948 . S
H616 C614 0.952 . S
H617 C615 0.948 . S
H618 C607 0.952 . S
H619 C609 0.948 . S
C620 C586 1.395 . S
C620 C590 1.391 . S
C621 C583 1.389 . S
C621 C603 1.392 . S
C622 C593 1.392 . S
C622 C595 1.389 . S
C623 C598 1.395 . S
C623 C600 1.391 . S
H624 C584 0.951 . S
H625 C585 0.950 . S
H626 C591 0.949 . S
H627 C592 0.950 . S
H628 C596 0.951 . S
H629 C597 0.950 . S
H630 C601 0.949 . S
H631 C602 0.950 . S
H632 C606 0.950 . S
H633 C608 0.950 . S
H634 C611 0.950 . S
H635 C613 0.950 . S
C636 C637 1.369 . S
C636 C638 1.419 . S
C636 H640 0.930 . S
C637 C636 1.369 . S
C637 C646 1.429 . S
C638 C636 1.419 . S
C638 C639 1.363 . S
C638 H641 0.929 . S
C639 C638 1.363 . S
C639 C645 1.428 . S
H640 C636 0.930 . S
H641 C638 0.929 . S
S642 N643 1.613 . S
S642 N644 1.610 . S
N643 S642 1.613 . S
N643 C646 1.350 . S
N644 S642 1.610 . S
N644 C645 1.351 . S
C645 C639 1.428 . S
C645 N644 1.351 . S
C645 C646 1.434 . S
C646 C637 1.429 . S
C646 N643 1.350 . S
C646 C645 1.434 . S
C647 C648 1.369 . S
C647 C649 1.419 . S
C647 H651 0.930 . S
C648 C647 1.369 . S
C648 C657 1.429 . S
C649 C647 1.419 . S
C649 C650 1.363 . S
C649 H652 0.929 . S
C650 C649 1.363 . S
C650 C656 1.428 . S
H651 C647 0.930 . S
H652 C649 0.929 . S
S653 N654 1.613 . S
S653 N655 1.610 . S
N654 S653 1.613 . S
N654 C657 1.350 . S
N655 S653 1.610 . S
N655 C656 1.351 . S
C656 C650 1.428 . S
C656 N655 1.351 . S
C656 C657 1.434 . S
C657 C648 1.429 . S
C657 N654 1.350 . S
C657 C656 1.434 . S
C658 C659 1.369 . S
C658 C660 1.419 . S
C658 H662 0.930 . S
C659 C658 1.369 . S
C659 C668 1.429 . S
C660 C658 1.419 . S
C660 C661 1.363 . S
C660 H663 0.929 . S
C661 C660 1.363 . S
C661 C667 1.428 . S
H662 C658 0.930 . S
H663 C660 0.929 . S
S664 N665 1.613 . S
S664 N666 1.610 . S
N665 S664 1.613 . S
N665 C668 1.350 . S
N666 S664 1.610 . S
N666 C667 1.351 . S
C667 C661 1.428 . S
C667 N666 1.351 . S
C667 C668 1.434 . S
C668 C659 1.429 . S
C668 N665 1.350 . S
C668 C667 1.434 . S
C669 C670 1.369 . S
C669 C671 1.419 . S
C669 H673 0.930 . S
C670 C669 1.369 . S
C670 C679 1.429 . S
C671 C669 1.419 . S
C671 C672 1.363 . S
C671 H674 0.929 . S
C672 C671 1.363 . S
C672 C678 1.428 . S
H673 C669 0.930 . S
H674 C671 0.929 . S
S675 N676 1.613 . S
S675 N677 1.610 . S
N676 S675 1.613 . S
N676 C679 1.350 . S
N677 S675 1.610 . S
N677 C678 1.351 . S
C678 C672 1.428 . S
C678 N677 1.351 . S
C678 C679 1.434 . S
C679 C670 1.429 . S
C679 N676 1.350 . S
C679 C678 1.434 . S
C680 C681 1.369 . S
C680 C682 1.419 . S
C680 H684 0.930 . S
C681 C680 1.369 . S
C681 C690 1.429 . S
C682 C680 1.419 . S
C682 C683 1.363 . S
C682 H685 0.929 . S
C683 C682 1.363 . S
C683 C689 1.428 . S
H684 C680 0.930 . S
H685 C682 0.929 . S
S686 N687 1.613 . S
S686 N688 1.610 . S
N687 S686 1.613 . S
N687 C690 1.350 . S
N688 S686 1.610 . S
N688 C689 1.351 . S
C689 C683 1.428 . S
C689 N688 1.351 . S
C689 C690 1.434 . S
C690 C681 1.429 . S
C690 N687 1.350 . S
C690 C689 1.434 . S
C691 C692 1.369 . S
C691 C693 1.419 . S
C691 H695 0.930 . S
C692 C691 1.369 . S
C692 C701 1.429 . S
C693 C691 1.419 . S
C693 C694 1.363 . S
C693 H696 0.929 . S
C694 C693 1.363 . S
C694 C700 1.428 . S
H695 C691 0.930 . S
H696 C693 0.929 . S
S697 N698 1.613 . S
S697 N699 1.610 . S
N698 S697 1.613 . S
N698 C701 1.350 . S
N699 S697 1.610 . S
N699 C700 1.351 . S
C700 C694 1.428 . S
C700 N699 1.351 . S
C700 C701 1.434 . S
C701 C692 1.429 . S
C701 N698 1.350 . S
C701 C700 1.434 . S
C702 C703 1.369 . S
C702 C704 1.419 . S
C702 H706 0.930 . S
C703 C702 1.369 . S
C703 C712 1.429 . S
C704 C702 1.419 . S
C704 C705 1.363 . S
C704 H707 0.929 . S
C705 C704 1.363 . S
C705 C711 1.428 . S
H706 C702 0.930 . S
H707 C704 0.929 . S
S708 N709 1.613 . S
S708 N710 1.610 . S
N709 S708 1.613 . S
N709 C712 1.350 . S
N710 S708 1.610 . S
N710 C711 1.351 . S
C711 C705 1.428 . S
C711 N710 1.351 . S
C711 C712 1.434 . S
C712 C703 1.429 . S
C712 N709 1.350 . S
C712 C711 1.434 . S
C713 C714 1.369 . S
C713 C715 1.419 . S
C713 H717 0.930 . S
C714 C713 1.369 . S
C714 C723 1.429 . S
C715 C713 1.419 . S
C715 C716 1.363 . S
C715 H718 0.929 . S
C716 C715 1.363 . S
C716 C722 1.428 . S
H717 C713 0.930 . S
H718 C715 0.929 . S
S719 N720 1.613 . S
S719 N721 1.610 . S
N720 S719 1.613 . S
N720 C723 1.350 . S
N721 S719 1.610 . S
N721 C722 1.351 . S
C722 C716 1.428 . S
C722 N721 1.351 . S
C722 C723 1.434 . S
C723 C714 1.429 . S
C723 N720 1.350 . S
C723 C722 1.434 . S
C724 C725 1.369 . S
C724 C726 1.419 . S
C724 H728 0.930 . S
C725 C724 1.369 . S
C725 C734 1.429 . S
C726 C724 1.419 . S
C726 C727 1.363 . S
C726 H729 0.929 . S
C727 C726 1.363 . S
C727 C733 1.428 . S
H728 C724 0.930 . S
H729 C726 0.929 . S
S730 N731 1.613 . S
S730 N732 1.610 . S
N731 S730 1.613 . S
N731 C734 1.350 . S
N732 S730 1.610 . S
N732 C733 1.351 . S
C733 C727 1.428 . S
C733 N732 1.351 . S
C733 C734 1.434 . S
C734 C725 1.429 . S
C734 N731 1.350 . S
C734 C733 1.434 . S
C735 C736 1.369 . S
C735 C737 1.419 . S
C735 H739 0.930 . S
C736 C735 1.369 . S
C736 C745 1.429 . S
C737 C735 1.419 . S
C737 C738 1.363 . S
C737 H740 0.929 . S
C738 C737 1.363 . S
C738 C744 1.428 . S
H739 C735 0.930 . S
H740 C737 0.929 . S
S741 N742 1.613 . S
S741 N743 1.610 . S
N742 S741 1.613 . S
N742 C745 1.350 . S
N743 S741 1.610 . S
N743 C744 1.351 . S
C744 C738 1.428 . S
C744 N743 1.351 . S
C744 C745 1.434 . S
C745 C736 1.429 . S
C745 N742 1.350 . S
C745 C744 1.434 . S
C746 C747 1.369 . S
C746 C748 1.419 . S
C746 H750 0.930 . S
C747 C746 1.369 . S
C747 C756 1.429 . S
C748 C746 1.419 . S
C748 C749 1.363 . S
C748 H751 0.929 . S
C749 C748 1.363 . S
C749 C755 1.428 . S
H750 C746 0.930 . S
H751 C748 0.929 . S
S752 N753 1.613 . S
S752 N754 1.610 . S
N753 S752 1.613 . S
N753 C756 1.350 . S
N754 S752 1.610 . S
N754 C755 1.351 . S
C755 C749 1.428 . S
C755 N754 1.351 . S
C755 C756 1.434 . S
C756 C747 1.429 . S
C756 N753 1.350 . S
C756 C755 1.434 . S
C757 C758 1.369 . S
C757 C759 1.419 . S
C757 H761 0.930 . S
C758 C757 1.369 . S
C758 C767 1.429 . S
C759 C757 1.419 . S
C759 C760 1.363 . S
C759 H762 0.929 . S
C760 C759 1.363 . S
C760 C766 1.428 . S
H761 C757 0.930 . S
H762 C759 0.929 . S
S763 N764 1.613 . S
S763 N765 1.610 . S
N764 S763 1.613 . S
N764 C767 1.350 . S
N765 S763 1.610 . S
N765 C766 1.351 . S
C766 C760 1.428 . S
C766 N765 1.351 . S
C766 C767 1.434 . S
C767 C758 1.429 . S
C767 N764 1.350 . S
C767 C766 1.434 . S
C768 C769 1.369 . S
C768 C770 1.419 . S
C768 H772 0.930 . S
C769 C768 1.369 . S
C769 C778 1.429 . S
C770 C768 1.419 . S
C770 C771 1.363 . S
C770 H773 0.929 . S
C771 C770 1.363 . S
C771 C777 1.428 . S
H772 C768 0.930 . S
H773 C770 0.929 . S
S774 N775 1.613 . S
S774 N776 1.610 . S
N775 S774 1.613 . S
N775 C778 1.350 . S
N776 S774 1.610 . S
N776 C777 1.351 . S
C777 C771 1.428 . S
C777 N776 1.351 . S
C777 C778 1.434 . S
C778 C769 1.429 . S
C778 N775 1.350 . S
C778 C777 1.434 . S
C779 C780 1.369 . S
C779 C781 1.419 . S
C779 H783 0.930 . S
C780 C779 1.369 . S
C780 C789 1.429 . S
C781 C779 1.419 . S
C781 C782 1.363 . S
C781 H784 0.929 . S
C782 C781 1.363 . S
C782 C788 1.428 . S
H783 C779 0.930 . S
H784 C781 0.929 . S
S785 N786 1.613 . S
S785 N787 1.610 . S
N786 S785 1.613 . S
N786 C789 1.350 . S
N787 S785 1.610 . S
N787 C788 1.351 . S
C788 C782 1.428 . S
C788 N787 1.351 . S
C788 C789 1.434 . S
C789 C780 1.429 . S
C789 N786 1.350 . S
C789 C788 1.434 . S
C790 C791 1.369 . S
C790 C792 1.419 . S
C790 H794 0.930 . S
C791 C790 1.369 . S
C791 C800 1.429 . S
C792 C790 1.419 . S
C792 C793 1.363 . S
C792 H795 0.929 . S
C793 C792 1.363 . S
C793 C799 1.428 . S
H794 C790 0.930 . S
H795 C792 0.929 . S
S796 N797 1.613 . S
S796 N798 1.610 . S
N797 S796 1.613 . S
N797 C800 1.350 . S
N798 S796 1.610 . S
N798 C799 1.351 . S
C799 C793 1.428 . S
C799 N798 1.351 . S
C799 C800 1.434 . S
C800 C791 1.429 . S
C800 N797 1.350 . S
C800 C799 1.434 . S
C801 C802 1.369 . S
C801 C803 1.419 . S
C801 H805 0.930 . S
C802 C801 1.369 . S
C802 C811 1.429 . S
C803 C801 1.419 . S
C803 C804 1.363 . S
C803 H806 0.929 . S
C804 C803 1.363 . S
C804 C810 1.428 . S
H805 C801 0.930 . S
H806 C803 0.929 . S
S807 N808 1.613 . S
S807 N809 1.610 . S
N808 S807 1.613 . S
N808 C811 1.350 . S
N809 S807 1.610 . S
N809 C810 1.351 . S
C810 C804 1.428 . S
C810 N809 1.351 . S
C810 C811 1.434 . S
C811 C802 1.429 . S
C811 N808 1.350 . S
C811 C810 1.434 . S
C812 C813 1.369 . S
C812 C814 1.419 . S
C812 H816 0.930 . S
C813 C812 1.369 . S
C813 C822 1.429 . S
C814 C812 1.419 . S
C814 C815 1.363 . S
C814 H817 0.929 . S
C815 C814 1.363 . S
C815 C821 1.428 . S
H816 C812 0.930 . S
H817 C814 0.929 . S
S818 N819 1.613 . S
S818 N820 1.610 . S
N819 S818 1.613 . S
N819 C822 1.350 . S
N820 S818 1.610 . S
N820 C821 1.351 . S
C821 C815 1.428 . S
C821 N820 1.351 . S
C821 C822 1.434 . S
C822 C813 1.429 . S
C822 N819 1.350 . S
C822 C821 1.434 . S
C823 C824 1.369 . S
C823 C825 1.419 . S
C823 H827 0.930 . S
C824 C823 1.369 . S
C824 C833 1.429 . S
C825 C823 1.419 . S
C825 C826 1.363 . S
C825 H828 0.929 . S
C826 C825 1.363 . S
C826 C832 1.428 . S
H827 C823 0.930 . S
H828 C825 0.929 . S
S829 N830 1.613 . S
S829 N831 1.610 . S
N830 S829 1.613 . S
N830 C833 1.350 . S
N831 S829 1.610 . S
N831 C832 1.351 . S
C832 C826 1.428 . S
C832 N831 1.351 . S
C832 C833 1.434 . S
C833 C824 1.429 . S
C833 N830 1.350 . S
C833 C832 1.434 . S
C834 C835 1.369 . S
C834 C836 1.419 . S
C834 H838 0.930 . S
C835 C834 1.369 . S
C835 C844 1.429 . S
C836 C834 1.419 . S
C836 C837 1.363 . S
C836 H839 0.929 . S
C837 C836 1.363 . S
C837 C843 1.428 . S
H838 C834 0.930 . S
H839 C836 0.929 . S
S840 N841 1.613 . S
S840 N842 1.610 . S
N841 S840 1.613 . S
N841 C844 1.350 . S
N842 S840 1.610 . S
N842 C843 1.351 . S
C843 C837 1.428 . S
C843 N842 1.351 . S
C843 C844 1.434 . S
C844 C835 1.429 . S
C844 N841 1.350 . S
C844 C843 1.434 . S
C845 C846 1.369 . S
C845 C847 1.419 . S
C845 H849 0.930 . S
C846 C845 1.369 . S
C846 C855 1.429 . S
C847 C845 1.419 . S
C847 C848 1.363 . S
C847 H850 0.929 . S
C848 C847 1.363 . S
C848 C854 1.428 . S
H849 C845 0.930 . S
H850 C847 0.929 . S
S851 N852 1.613 1_556 S
S851 N853 1.610 1_556 S
N852 S851 1.613 1_554 S
N852 C855 1.350 . S
N853 S851 1.610 1_554 S
N853 C854 1.351 . S
C854 C848 1.428 . S
C854 N853 1.351 . S
C854 C855 1.434 . S
C855 C846 1.429 . S
C855 N852 1.350 . S
C855 C854 1.434 . S
C856 C857 1.369 . S
C856 C858 1.419 . S
C856 H860 0.930 . S
C857 C856 1.369 . S
C857 C866 1.429 . S
C858 C856 1.419 . S
C858 C859 1.363 . S
C858 H861 0.929 . S
C859 C858 1.363 . S
C859 C865 1.428 . S
H860 C856 0.930 . S
H861 C858 0.929 . S
S862 N863 1.613 . S
S862 N864 1.610 . S
N863 S862 1.613 . S
N863 C866 1.350 . S
N864 S862 1.610 . S
N864 C865 1.351 . S
C865 C859 1.428 . S
C865 N864 1.351 . S
C865 C866 1.434 . S
C866 C857 1.429 . S
C866 N863 1.350 . S
C866 C865 1.434 . S
C867 C868 1.369 . S
C867 C869 1.419 . S
C867 H871 0.930 . S
C868 C867 1.369 . S
C868 C877 1.429 . S
C869 C867 1.419 . S
C869 C870 1.363 . S
C869 H872 0.929 . S
C870 C869 1.363 . S
C870 C876 1.428 . S
H871 C867 0.930 . S
H872 C869 0.929 . S
S873 N874 1.613 . S
S873 N875 1.610 . S
N874 S873 1.613 . S
N874 C877 1.350 . S
N875 S873 1.610 . S
N875 C876 1.351 . S
C876 C870 1.428 . S
C876 N875 1.351 . S
C876 C877 1.434 . S
C877 C868 1.429 . S
C877 N874 1.350 . S
C877 C876 1.434 . S
C878 C879 1.369 . S
C878 C880 1.419 . S
C878 H882 0.930 . S
C879 C878 1.369 . S
C879 C888 1.429 . S
C880 C878 1.419 . S
C880 C881 1.363 . S
C880 H883 0.929 . S
C881 C880 1.363 . S
C881 C887 1.428 . S
H882 C878 0.930 . S
H883 C880 0.929 . S
S884 N885 1.613 . S
S884 N886 1.610 . S
N885 S884 1.613 . S
N885 C888 1.350 . S
N886 S884 1.610 . S
N886 C887 1.351 . S
C887 C881 1.428 . S
C887 N886 1.351 . S
C887 C888 1.434 . S
C888 C879 1.429 . S
C888 N885 1.350 . S
C888 C887 1.434 . S
C889 C890 1.369 . S
C889 C891 1.419 . S
C889 H893 0.930 . S
C890 C889 1.369 . S
C890 C899 1.429 . S
C891 C889 1.419 . S
C891 C892 1.363 . S
C891 H894 0.929 . S
C892 C891 1.363 . S
C892 C898 1.428 . S
H893 C889 0.930 . S
H894 C891 0.929 . S
S895 N896 1.613 . S
S895 N897 1.610 . S
N896 S895 1.613 . S
N896 C899 1.350 . S
N897 S895 1.610 . S
N897 C898 1.351 . S
C898 C892 1.428 . S
C898 N897 1.351 . S
C898 C899 1.434 . S
C899 C890 1.429 . S
C899 N896 1.350 . S
C899 C898 1.434 . S
C637 C39 1.984 . S
C639 C356 1.956 . S
C648 C91 1.644 . S
C650 C409 1.621 . S
C661 C462 1.678 . S
C659 C128 1.710 . S
C672 C499 1.331 . S
C670 C188 1.349 . S
C683 C559 1.692 . S
C681 C250 1.718 . S
C694 C612 1.575 . S
C692 C304 1.614 . S
C703 C75 1.844 . S
C705 C463 1.823 . S
C714 C144 1.622 . S
C716 C506 1.590 . S
C727 C552 1.742 . S
C725 C198 1.757 . S
C738 C605 1.342 . S
C736 C234 1.375 . S
C747 C294 1.656 . S
C749 C357 1.630 . S
C760 C410 1.475 . S
C758 C29 1.487 . S
C771 C516 1.954 . S
C769 C38 1.986 . S
C780 C92 1.644 . S
C782 C568 1.628 . S
C793 C621 1.684 . S
C791 C135 1.710 . S
C802 C181 1.348 . S
C804 C347 1.332 . S
C813 C251 1.720 . S
C815 C400 1.695 . S
C824 C303 1.613 . S
C826 C453 1.584 . S
C835 C82 1.847 . S
C837 C622 1.811 . S
C848 C340 1.590 . S
C846 C145 1.622 . S
C857 C197 1.760 . S
C859 C393 1.732 . S
C868 C241 1.374 . S
C870 C446 1.337 . S
C879 C287 1.654 . S
C881 C515 1.632 . S
C890 C22 1.490 . S
C892 C569 1.465 . S
