# Generated by pormake.
# Topology zzz, (3,6)-cn, num edge types: 1
# Building blocks:
#     Node 0, Type 0, BuildingBlock: WUSLED_clean_sbu_0, # of connection points: 3
#     Node 1, Type 0, BuildingBlock: WUSLED_clean_sbu_0, # of connection points: 3
#     Node 2, Type 0, BuildingBlock: WUSLED_clean_sbu_0, # of connection points: 3
#     Node 3, Type 0, BuildingBlock: WUSLED_clean_sbu_0, # of connection points: 3
#     Node 4, Type 0, BuildingBlock: WUSLED_clean_sbu_0, # of connection points: 3
#     Node 5, Type 0, BuildingBlock: WUSLED_clean_sbu_0, # of connection points: 3
#     Node 6, Type 0, BuildingBlock: WUSLED_clean_sbu_0, # of connection points: 3
#     Node 7, Type 0, BuildingBlock: WUSLED_clean_sbu_0, # of connection points: 3
#     Node 8, Type 1, BuildingBlock: CUWYAW_clean_sbu_0, # of connection points: 6
#     Node 9, Type 1, BuildingBlock: CUWYAW_clean_sbu_0, # of connection points: 6
#     Node 10, Type 1, BuildingBlock: CUWYAW_clean_sbu_0, # of connection points: 6
#     Node 11, Type 1, BuildingBlock: CUWYAW_clean_sbu_0, # of connection points: 6
#     Edge 12, Type (0, 1), BuildingBlock: UVAHIK_clean_linker_0, # of connection points: 2
#     Edge 13, Type (0, 1), BuildingBlock: UVAHIK_clean_linker_0, # of connection points: 2
#     Edge 14, Type (0, 1), BuildingBlock: UVAHIK_clean_linker_0, # of connection points: 2
#     Edge 15, Type (0, 1), BuildingBlock: UVAHIK_clean_linker_0, # of connection points: 2
#     Edge 16, Type (0, 1), BuildingBlock: UVAHIK_clean_linker_0, # of connection points: 2
#     Edge 17, Type (0, 1), BuildingBlock: UVAHIK_clean_linker_0, # of connection points: 2
#     Edge 18, Type (0, 1), BuildingBlock: UVAHIK_clean_linker_0, # of connection points: 2
#     Edge 19, Type (0, 1), BuildingBlock: UVAHIK_clean_linker_0, # of connection points: 2
#     Edge 20, Type (0, 1), BuildingBlock: UVAHIK_clean_linker_0, # of connection points: 2
#     Edge 21, Type (0, 1), BuildingBlock: UVAHIK_clean_linker_0, # of connection points: 2
#     Edge 22, Type (0, 1), BuildingBlock: UVAHIK_clean_linker_0, # of connection points: 2
#     Edge 23, Type (0, 1), BuildingBlock: UVAHIK_clean_linker_0, # of connection points: 2
#     Edge 24, Type (0, 1), BuildingBlock: UVAHIK_clean_linker_0, # of connection points: 2
#     Edge 25, Type (0, 1), BuildingBlock: UVAHIK_clean_linker_0, # of connection points: 2
#     Edge 26, Type (0, 1), BuildingBlock: UVAHIK_clean_linker_0, # of connection points: 2
#     Edge 27, Type (0, 1), BuildingBlock: UVAHIK_clean_linker_0, # of connection points: 2
#     Edge 28, Type (0, 1), BuildingBlock: UVAHIK_clean_linker_0, # of connection points: 2
#     Edge 29, Type (0, 1), BuildingBlock: UVAHIK_clean_linker_0, # of connection points: 2
#     Edge 30, Type (0, 1), BuildingBlock: UVAHIK_clean_linker_0, # of connection points: 2
#     Edge 31, Type (0, 1), BuildingBlock: UVAHIK_clean_linker_0, # of connection points: 2
#     Edge 32, Type (0, 1), BuildingBlock: UVAHIK_clean_linker_0, # of connection points: 2
#     Edge 33, Type (0, 1), BuildingBlock: UVAHIK_clean_linker_0, # of connection points: 2
#     Edge 34, Type (0, 1), BuildingBlock: UVAHIK_clean_linker_0, # of connection points: 2
#     Edge 35, Type (0, 1), BuildingBlock: UVAHIK_clean_linker_0, # of connection points: 2
# Relax obj value: 0.369
# Max RMSD: 0.246
# Mean RMSD: 0.223
data_MOF--net-zzz--node1-WUSLED_clean_sbu_0--node2-CUWYAW_clean_sbu_0--edge1-UVAHIK_clean_linker_0
_symmetry_space_group_name_H-M    P1
_symmetry_Int_Tables_number       1
_symmetry_cell_setting            triclinic
loop_
_symmetry_equiv_pos_as_xyz
'x, y, z'
_cell_length_a     77.802805
_cell_length_b     77.871693
_cell_length_c     24.947096
_cell_angle_alpha  90.045892
_cell_angle_beta   90.010704
_cell_angle_gamma 90.029329
loop_
_atom_site_label
_atom_site_type_symbol
_atom_site_fract_x
_atom_site_fract_y
_atom_site_fract_z
_atom_type_partial_charge
C0 C 0.75833 0.50467 0.43878 0.0
C1 C 0.77268 0.50048 0.40704 0.0
C2 C 0.79206 0.5055 0.48283 0.0
C3 C 0.78933 0.50079 0.42892 0.0
C4 C 0.77769 0.50995 0.51415 0.0
C5 C 0.76103 0.50946 0.49241 0.0
U6 U 0.72734 0.50527 0.31965 0.0
O7 O 0.7039 0.49021 0.3025 0.0
O8 O 0.70246 0.51828 0.30786 0.0
C9 C 0.69416 0.50392 0.29769 0.0
C10 C 0.74056 0.50408 0.41682 0.0
C11 C 0.68173 0.50414 0.25246 0.0
C12 C 0.65217 0.50016 0.22191 0.0
C13 C 0.66456 0.49967 0.26271 0.0
C14 C 0.67388 0.5097 0.15927 0.0
C15 C 0.6566 0.50527 0.16965 0.0
C16 C 0.68635 0.50907 0.2002 0.0
C17 C 0.75893 0.50933 0.19308 0.0
C18 C 0.76395 0.49946 0.10248 0.0
C19 C 0.78497 0.51756 0.14722 0.0
C20 C 0.77455 0.51823 0.19225 0.0
C21 C 0.77988 0.50795 0.10245 0.0
C22 C 0.75344 0.50017 0.14781 0.0
C23 C 0.75009 0.5082 0.24425 0.0
O24 O 0.73497 0.51832 0.3946 0.0
O25 O 0.73651 0.49032 0.38895 0.0
O26 O 0.74422 0.49325 0.26043 0.0
O27 O 0.74287 0.52175 0.26616 0.0
H28 H 0.77101 0.49692 0.36536 0.0
H29 H 0.80011 0.49752 0.40344 0.0
H30 H 0.77929 0.51353 0.55582 0.0
H31 H 0.7502 0.51277 0.51766 0.0
H32 H 0.639 0.49687 0.2316 0.0
H33 H 0.66065 0.49593 0.30273 0.0
H34 H 0.67778 0.51355 0.11936 0.0
H35 H 0.69952 0.51252 0.19115 0.0
H36 H 0.75995 0.4919 0.0682 0.0
H37 H 0.79742 0.5238 0.14847 0.0
H38 H 0.77908 0.52502 0.22748 0.0
H39 H 0.74144 0.49312 0.14828 0.0
C40 C 0.01162 0.75867 0.43768 0.0
C41 C 0.01346 0.77308 0.40429 0.0
C42 C 0.00997 0.79249 0.48101 0.0
C43 C 0.0126 0.78978 0.42569 0.0
C44 C 0.00844 0.77801 0.51441 0.0
C45 C 0.00916 0.76132 0.4929 0.0
U46 U 0.01063 0.72639 0.32007 0.0
O47 O 0.02494 0.70228 0.30702 0.0
O48 O 0.99683 0.70179 0.31064 0.0
C49 C 0.01094 0.69298 0.30142 0.0
C50 C 0.01192 0.74086 0.41582 0.0
C51 C 0.01056 0.68067 0.25564 0.0
C52 C 0.01089 0.65084 0.22494 0.0
C53 C 0.01116 0.663 0.26654 0.0
C54 C 0.00951 0.6738 0.15996 0.0
C55 C 0.01009 0.65598 0.17088 0.0
C56 C 0.00971 0.686 0.20183 0.0
C57 C 1.00808 0.75819 0.19273 0.0
C58 C 0.01533 0.76453 0.10075 0.0
C59 C 1.0008 0.78583 0.15561 0.0
C60 C 1.00062 0.77441 0.19843 0.0
C61 C 1.00827 0.78101 0.10658 0.0
C62 C 0.01532 0.7532 0.14385 0.0
C63 C 0.00899 0.74677 0.23849 0.0
O64 O 0.99761 0.73549 0.3934 0.0
O65 O 0.02565 0.73643 0.38835 0.0
O66 O 0.02377 0.74119 0.25707 0.0
O67 O 0.99508 0.74147 0.26335 0.0
H68 H 0.01543 0.77144 0.3616 0.0
H69 H 0.01403 0.80062 0.39889 0.0
H70 H 1.00626 0.77958 0.557 0.0
H71 H 1.00764 0.75043 0.51947 0.0
H72 H 0.01162 0.63736 0.23528 0.0
H73 H 0.01189 0.65855 0.30761 0.0
H74 H 0.00869 0.67833 0.11901 0.0
H75 H 0.0092 0.69955 0.19218 0.0
H76 H 0.02106 0.76052 0.0632 0.0
H77 H 0.99564 0.79862 0.16145 0.0
H78 H 0.99518 0.77843 0.23642 0.0
H79 H 0.02108 0.74061 0.13922 0.0
C80 C 0.7578 0.01071 0.43671 0.0
C81 C 0.74337 0.01333 0.40382 0.0
C82 C 0.72407 0.01015 0.48089 0.0
C83 C 0.72672 0.01312 0.4257 0.0
C84 C 0.73858 1.00735 0.51346 0.0
C85 C 0.75522 1.00768 0.49162 0.0
U86 U 0.79 0.01039 0.31911 0.0
O87 O 0.81406 0.02496 0.30727 0.0
O88 O 0.81467 0.99684 0.30913 0.0
C89 C 0.8234 0.01106 0.30074 0.0
C90 C 0.77558 0.01108 0.41483 0.0
C91 C 0.83563 0.01105 0.25488 0.0
C92 C 0.86503 0.01508 0.22301 0.0
C93 C 0.85286 0.01541 0.26447 0.0
C94 C 0.84296 1.00601 0.16088 0.0
C95 C 0.86032 0.01026 0.17067 0.0
C96 C 0.83071 1.00648 0.20248 0.0
C97 C 0.75819 0.00831 0.19167 0.0
C98 C 0.75187 0.01546 0.09963 0.0
C99 C 0.73045 1.00119 0.15475 0.0
C100 C 0.74188 1.00101 0.19757 0.0
C101 C 0.73534 0.00851 0.1056 0.0
C102 C 0.76323 0.01544 0.14269 0.0
C103 C 0.76969 0.00911 0.23724 0.0
O104 O 0.78091 0.9969 0.39156 0.0
O105 O 0.78 0.02497 0.38822 0.0
O106 O 0.77514 0.02382 0.25678 0.0
O107 O 0.77506 0.99511 0.26139 0.0
H108 H 0.74498 0.01556 0.36125 0.0
H109 H 0.71587 0.01508 0.39921 0.0
H110 H 0.7371 1.00517 0.55608 0.0
H111 H 0.76614 1.00564 0.51781 0.0
H112 H 0.87826 0.01825 0.23225 0.0
H113 H 0.85699 0.01892 0.30448 0.0
H114 H 0.83884 1.00241 0.12094 0.0
H115 H 0.81747 1.00317 0.19383 0.0
H116 H 0.7559 0.02109 0.06197 0.0
H117 H 0.71761 0.99613 0.16062 0.0
H118 H 0.73784 0.99567 0.23564 0.0
H119 H 0.77588 0.02107 0.13796 0.0
C120 C 0.50466 0.75559 0.42238 0.0
C121 C 0.50357 0.74071 0.39062 0.0
C122 C 0.50633 0.72249 0.47029 0.0
C123 C 0.50452 0.72432 0.41436 0.0
C124 C 0.50717 0.73738 0.50195 0.0
C125 C 0.50645 0.75372 0.47821 0.0
U126 U 0.50451 0.79119 0.30927 0.0
O127 O 0.51771 0.81623 0.31238 0.0
O128 O 0.48966 0.81532 0.30707 0.0
C129 C 0.50351 0.82496 0.30404 0.0
C130 C 0.50402 0.77324 0.39937 0.0
C131 C 0.50408 0.83751 0.25902 0.0
C132 C 0.50522 0.86727 0.22832 0.0
C133 C 0.50437 0.85517 0.27001 0.0
C134 C 0.50547 0.84423 0.16334 0.0
C135 C 0.50581 0.86205 0.17419 0.0
C136 C 0.50463 0.83213 0.20518 0.0
C137 C 0.50813 0.7611 0.18329 0.0
C138 C 0.51352 0.74906 0.09574 0.0
C139 C 0.50501 0.73056 0.16944 0.0
C140 C 0.50441 0.74477 0.20359 0.0
C141 C 0.50943 0.73265 0.11501 0.0
C142 C 0.51275 0.76316 0.12959 0.0
C143 C 0.50677 0.77657 0.21541 0.0
O144 O 0.51817 0.77914 0.37719 0.0
O145 O 0.49009 0.77769 0.37293 0.0
O146 O 0.52032 0.78094 0.24376 0.0
O147 O 0.49201 0.77953 0.23929 0.0
H148 H 0.50211 0.74176 0.3476 0.0
H149 H 0.5038 0.71303 0.38905 0.0
H150 H 0.50873 0.73638 0.54499 0.0
H151 H 0.50737 0.76497 0.50361 0.0
H152 H 0.50571 0.88075 0.23874 0.0
H153 H 0.50406 0.85965 0.31112 0.0
H154 H 0.50565 0.8396 0.12242 0.0
H155 H 0.50441 0.81856 0.19548 0.0
H156 H 0.51725 0.75107 0.0544 0.0
H157 H 0.50156 0.71808 0.18526 0.0
H158 H 0.50076 0.74309 0.24514 0.0
H159 H 0.51561 0.77578 0.11358 0.0
C160 C 0.25754 0.50369 0.89256 0.0
C161 C 0.24317 0.50006 0.9247 0.0
C162 C 0.22403 0.50293 0.84725 0.0
C163 C 0.22662 0.49961 0.90223 0.0
C164 C 0.23845 0.5068 0.81542 0.0
C165 C 0.25501 0.50709 0.83783 0.0
U166 U 0.28947 0.50247 0.01095 0.0
O167 O 0.31452 0.48941 0.0195 0.0
O168 O 0.31312 0.51747 0.02403 0.0
C169 C 0.32284 0.50378 0.02923 0.0
C170 C 0.2752 0.5039 0.91507 0.0
C171 C 0.33517 0.50367 0.07489 0.0
C172 C 0.36464 0.49953 0.10599 0.0
C173 C 0.3523 0.49903 0.06502 0.0
C174 C 0.34294 0.50937 0.16822 0.0
C175 C 0.3602 0.50483 0.15809 0.0
C176 C 0.33052 0.50871 0.12713 0.0
C177 C 0.25742 0.49927 0.13758 0.0
C178 C 0.25154 0.50371 0.23168 0.0
C179 C 0.22815 0.49832 0.16925 0.0
C180 C 0.2399 0.49686 0.12739 0.0
C181 C 0.23396 0.50208 0.22115 0.0
C182 C 0.26326 0.50236 0.18979 0.0
C183 C 0.26956 0.50049 0.09373 0.0
O184 O 0.27943 0.51758 0.943 0.0
O185 O 0.2805 0.48955 0.9374 0.0
O186 O 0.275 0.4867 0.06849 0.0
O187 O 0.27431 0.51537 0.07385 0.0
H188 H 0.24476 0.49751 0.96711 0.0
H189 H 0.21578 0.4968 0.92804 0.0
H190 H 0.23697 0.50929 0.77297 0.0
H191 H 0.26591 0.5099 0.81224 0.0
H192 H 0.37779 0.49613 0.09653 0.0
H193 H 0.35624 0.49521 0.02509 0.0
H194 H 0.33904 0.51334 0.20803 0.0
H195 H 0.31737 0.51229 0.13602 0.0
H196 H 0.25607 0.5068 0.27161 0.0
H197 H 0.21453 0.49718 0.16093 0.0
H198 H 0.23529 0.49462 0.08699 0.0
H199 H 0.27681 0.50437 0.19771 0.0
C200 C 0.01456 0.25712 0.89517 0.0
C201 C 0.0155 0.24243 0.92765 0.0
C202 C 0.01421 0.22383 0.84854 0.0
C203 C 0.01524 0.22596 0.90456 0.0
C204 C 0.01361 0.23857 0.81609 0.0
C205 C 0.01367 0.25502 0.83923 0.0
U206 U 0.0141 0.2903 0.01254 0.0
O207 O 0.02704 0.31547 0.01805 0.0
O208 O 0.99895 0.31413 0.01946 0.0
C209 C 0.0126 0.32389 0.02563 0.0
C210 C 0.01416 0.27468 0.91838 0.0
C211 C 0.01225 0.33616 0.07145 0.0
C212 C 0.0117 0.36589 0.10272 0.0
C213 C 0.01209 0.35385 0.06085 0.0
C214 C 0.01173 0.34278 0.16736 0.0
C215 C 0.01154 0.3606 0.1567 0.0
C216 C 0.01203 0.33069 0.12523 0.0
C217 C 0.01585 0.25926 0.14026 0.0
C218 C 0.01631 0.25132 0.23389 0.0
C219 C 0.01349 0.22938 0.1651 0.0
C220 C 0.01415 0.242 0.12532 0.0
C221 C 0.01436 0.23413 0.21936 0.0
C222 C 0.01714 0.26382 0.19439 0.0
C223 C 0.01527 0.27323 0.10185 0.0
O224 O 1.00007 0.27901 0.94417 0.0
O225 O 0.02819 0.27997 0.94276 0.0
O226 O 0.02927 0.27775 0.07598 0.0
O227 O 1.00074 0.2766 0.07714 0.0
H228 H 0.01627 0.2437 0.97083 0.0
H229 H 0.01586 0.21484 0.93054 0.0
H230 H 0.01267 0.23735 0.77293 0.0
H231 H 0.01287 0.26616 0.81335 0.0
H232 H 0.01181 0.37941 0.09269 0.0
H233 H 0.01231 0.35839 0.01983 0.0
H234 H 0.01144 0.33817 0.20829 0.0
H235 H 0.01209 0.31711 0.13464 0.0
H236 H 0.01694 0.25506 0.27569 0.0
H237 H 0.01189 0.21603 0.15381 0.0
H238 H 0.01304 0.23837 0.08353 0.0
H239 H 0.01838 0.27717 0.20616 0.0
C240 C 0.25855 0.01345 0.89227 0.0
C241 C 0.27233 0.02034 0.92162 0.0
C242 C 0.2924 0.01328 0.84921 0.0
C243 C 0.28901 0.0203 0.90029 0.0
C244 C 0.27849 1.00658 0.8197 0.0
C245 C 0.26178 1.00664 0.84108 0.0
U246 U 0.2265 0.01346 0.01012 0.0
O247 O 0.20176 0.02697 0.02047 0.0
O248 O 0.20251 0.99884 0.02128 0.0
C249 C 0.19311 0.01268 0.0284 0.0
C250 C 0.2408 0.01323 0.91424 0.0
C251 C 0.18087 0.0125 0.07427 0.0
C252 C 0.15145 0.01644 0.1061 0.0
C253 C 0.16369 0.01706 0.06487 0.0
C254 C 0.17334 1.00659 0.16765 0.0
C255 C 0.15604 0.01108 0.158 0.0
C256 C 0.18567 1.00739 0.12629 0.0
C257 C 0.25877 0.01438 0.13654 0.0
C258 C 0.26482 0.01093 0.23091 0.0
C259 C 0.28805 0.01604 0.16781 0.0
C260 C 0.27626 0.01669 0.12583 0.0
C261 C 0.28238 0.01302 0.22046 0.0
C262 C 0.25305 0.01166 0.18901 0.0
C263 C 0.24625 0.01397 0.09354 0.0
O264 O 0.23626 0.9992 0.93988 0.0
O265 O 0.23566 0.02731 0.93859 0.0
O266 O 0.24117 0.02817 0.06994 0.0
O267 O 0.24141 0.99947 0.07124 0.0
H268 H 0.2702 0.02571 0.96114 0.0
H269 H 0.29929 0.02586 0.9239 0.0
H270 H 0.28056 1.00093 0.78055 0.0
H271 H 0.25137 1.00124 0.81768 0.0
H272 H 0.13827 0.0198 0.09701 0.0
H273 H 0.15965 0.02095 0.02513 0.0
H274 H 0.17735 1.00258 0.20729 0.0
H275 H 0.19886 1.00388 0.13482 0.0
H276 H 0.26025 0.00863 0.2713 0.0
H277 H 0.30163 0.01741 0.15905 0.0
H278 H 0.28078 0.01865 0.08521 0.0
H279 H 0.2395 0.00986 0.19739 0.0
C280 C 0.50171 0.25833 0.89389 0.0
C281 C 0.50094 0.273 0.92657 0.0
C282 C 0.50224 0.29168 0.8477 0.0
C283 C 0.50129 0.28949 0.9037 0.0
C284 C 0.50269 0.27696 0.81505 0.0
C285 C 0.50254 0.26047 0.83797 0.0
U286 U 0.5022 0.22538 0.01143 0.0
O287 O 0.51682 0.20125 0.01858 0.0
O288 O 0.4887 0.20054 0.01896 0.0
C289 C 0.50299 0.19186 0.02622 0.0
C290 C 0.50189 0.24073 0.91691 0.0
C291 C 0.50335 0.17981 0.07267 0.0
C292 C 0.50075 0.15043 0.10591 0.0
C293 C 0.50019 0.16232 0.06369 0.0
C294 C 0.50757 0.17332 0.16781 0.0
C295 C 0.50453 0.15564 0.15875 0.0
C296 C 0.50698 0.18526 0.12531 0.0
C297 C 0.50201 0.25673 0.13883 0.0
C298 C 0.50446 0.26456 0.23218 0.0
C299 C 0.5012 0.28664 0.16414 0.0
C300 C 0.50063 0.27403 0.1243 0.0
C301 C 0.50329 0.2819 0.21817 0.0
C302 C 0.50376 0.25205 0.19265 0.0
C303 C 0.50208 0.24291 0.09989 0.0
O304 O 0.51604 0.23611 0.94185 0.0
O305 O 0.48791 0.23575 0.94214 0.0
O306 O 0.4878 0.23868 0.07499 0.0
O307 O 0.51639 0.23903 0.07467 0.0
H308 H 0.5002 0.27171 0.96974 0.0
H309 H 0.50078 0.30059 0.92984 0.0
H310 H 0.50357 0.2782 0.77189 0.0
H311 H 0.50321 0.24935 0.81192 0.0
H312 H 0.498 0.1371 0.097 0.0
H313 H 0.49728 0.15779 0.02363 0.0
H314 H 0.51068 0.17793 0.20759 0.0
H315 H 0.50948 0.1987 0.13352 0.0
H316 H 0.50597 0.26069 0.27363 0.0
H317 H 0.50047 0.30005 0.15279 0.0
H318 H 0.49933 0.27774 0.08265 0.0
H319 H 0.5048 0.23866 0.20407 0.0
C320 C 0.978 0.0273 0.54608 0.0
Eu321 Eu 0.99468 0.01248 0.62244 0.0
C322 C 0.97997 0.04488 0.52628 0.0
C323 C 0.96544 0.05536 0.52065 0.0
C324 C 0.96731 0.07252 0.50578 0.0
C325 C 0.98372 0.07922 0.4963 0.0
C326 C 0.99829 0.06893 0.50307 0.0
C327 C 0.99645 0.05188 0.51853 0.0
C328 C 0.98066 1.00452 0.71899 0.0
C329 C 0.0142 0.04406 0.68805 0.0
C330 C 0.03096 0.9911 0.79804 0.0
Eu331 Eu 0.02062 1.00448 0.70948 0.0
C332 C 0.03071 0.97274 0.81197 0.0
C333 C 0.04603 0.96323 0.81203 0.0
C334 C 0.04566 0.94559 0.8215 0.0
C335 C 0.02995 0.93726 0.83048 0.0
C336 C 0.0146 0.94659 0.82926 0.0
C337 C 0.01496 0.9642 0.82027 0.0
C338 C 0.03844 1.00665 0.615 0.0
C339 C 1.00424 0.97311 0.63713 0.0
O340 O 0.99088 0.01684 0.53715 0.0
O341 O 0.97204 0.02624 0.5949 0.0
O342 O 0.97483 0.99893 0.67343 0.0
O343 O 0.99371 0.0139 0.71113 0.0
O344 O 1.00534 0.03897 0.64543 0.0
O345 O 0.02108 0.03301 0.72192 0.0
O346 O 0.01589 0.99834 0.79291 0.0
O347 O 0.04169 0.99562 0.76019 0.0
O348 O 0.04545 1.0042 0.66151 0.0
O349 O 0.02244 0.00865 0.62125 0.0
O350 O 0.01112 0.9781 0.68307 0.0
O351 O 0.99814 0.9844 0.60247 0.0
H352 H 0.95269 0.05029 0.52801 0.0
H353 H 0.95599 0.08044 0.50043 0.0
H354 H 0.01104 0.07406 0.49596 0.0
H355 H 1.00792 0.04424 0.52457 0.0
H356 H 0.05827 0.96941 0.80453 0.0
H357 H 0.05761 0.93846 0.82227 0.0
H358 H 1.00239 0.94035 0.83683 0.0
H359 H 1.00285 0.97105 0.81966 0.0
C360 C 0.49014 0.97877 0.54384 0.0
Eu361 Eu 0.50451 0.99494 0.62263 0.0
C362 C 0.47262 0.98073 0.52323 0.0
C363 C 0.46272 0.96619 0.51159 0.0
C364 C 0.44572 0.96801 0.49477 0.0
C365 C 0.43844 0.98443 0.48958 0.0
C366 C 0.44826 0.99896 0.50271 0.0
C367 C 0.4652 0.99714 0.51942 0.0
C368 C 0.51185 0.9798 0.71862 0.0
C369 C 0.47283 0.01307 0.6878 0.0
C370 C 0.52667 0.03565 0.7813 0.0
Eu371 Eu 0.51222 0.01961 0.70272 0.0
C372 C 0.5444 0.03394 0.80009 0.0
C373 C 0.55456 0.04865 0.80616 0.0
C374 C 0.57182 0.0471 0.81998 0.0
C375 C 0.5791 0.0308 0.82742 0.0
C376 C 0.56909 0.01605 0.82015 0.0
C377 C 0.55183 0.01758 0.8065 0.0
C378 C 0.50477 0.03489 0.60709 0.0
C379 C 0.54391 1.00173 0.6377 0.0
O380 O 0.5003 0.99195 0.537 0.0
O381 O 0.49121 0.97232 0.59196 0.0
O382 O 0.51755 0.97442 0.67266 0.0
O383 O 0.50261 0.99299 0.71194 0.0
O384 O 0.47802 1.00605 0.64239 0.0
O385 O 0.48417 0.01844 0.72309 0.0
O386 O 0.51679 0.02226 0.78829 0.0
O387 O 0.52506 0.0424 0.7337 0.0
O388 O 0.49922 0.04019 0.65328 0.0
O389 O 0.51401 0.02165 0.61334 0.0
O390 O 0.53868 0.00834 0.68361 0.0
O391 O 0.53259 0.99665 0.60191 0.0
H392 H 0.46814 0.95344 0.51568 0.0
H393 H 0.43838 0.95661 0.48494 0.0
H394 H 0.44281 0.01174 0.50041 0.0
H395 H 0.47241 0.00858 0.52983 0.0
H396 H 0.54916 0.0613 0.79976 0.0
H397 H 0.57951 0.05859 0.825 0.0
H398 H 0.57454 1.00338 0.82603 0.0
H399 H 0.54438 1.00598 0.80058 0.0
C400 C 0.53924 0.48855 0.54567 0.0
Eu401 Eu 0.52229 0.50311 0.6221 0.0
C402 C 0.53681 0.47127 0.52412 0.0
C403 C 0.55108 0.46127 0.51036 0.0
C404 C 0.54882 0.44429 0.49403 0.0
C405 C 0.53224 0.43717 0.49153 0.0
C406 C 0.51802 0.44712 0.50665 0.0
C407 C 0.52028 0.46403 0.52289 0.0
C408 C 0.53605 0.51127 0.71893 0.0
C409 C 0.50275 0.47153 0.68752 0.0
C410 C 0.48521 0.52492 0.79479 0.0
Eu411 Eu 0.49612 0.51106 0.7078 0.0
C412 C 0.48521 0.54343 0.80653 0.0
C413 C 0.46966 0.55254 0.80879 0.0
C414 C 0.46974 0.57022 0.8179 0.0
C415 C 0.48537 0.57889 0.82419 0.0
C416 C 0.50091 0.57003 0.81983 0.0
C417 C 0.50087 0.55243 0.81096 0.0
C418 C 0.47847 0.50871 0.61318 0.0
C419 C 0.51252 0.54246 0.63602 0.0
O420 O 0.52669 0.4994 0.53681 0.0
O421 O 0.54475 0.48892 0.59511 0.0
O422 O 0.54193 0.51686 0.67348 0.0
O423 O 0.52309 0.50181 0.71084 0.0
O424 O 0.5116 0.47661 0.6449 0.0
O425 O 0.49583 0.4826 0.72125 0.0
O426 O 0.50037 0.51777 0.7911 0.0
O427 O 0.47467 0.51986 0.75707 0.0
O428 O 0.47141 0.51106 0.65963 0.0
O429 O 0.49448 0.50677 0.61935 0.0
O430 O 0.50547 0.53748 0.68162 0.0
O431 O 0.51886 0.53116 0.60182 0.0
H432 H 0.56394 0.46656 0.51266 0.0
H433 H 0.55997 0.43682 0.48259 0.0
H434 H 0.50515 0.44177 0.50629 0.0
H435 H 0.50911 0.47135 0.53514 0.0
H436 H 0.45748 0.54596 0.80418 0.0
H437 H 0.45766 0.577 0.82212 0.0
H438 H 0.51305 0.57662 0.82567 0.0
H439 H 0.51313 0.54592 0.8082 0.0
C440 C 0.02526 0.5312 0.52919 0.0
Eu441 Eu 0.01201 0.5206 0.61792 0.0
C442 C 0.04357 0.53111 0.51405 0.0
C443 C 0.05359 0.54603 0.51943 0.0
C444 C 0.07125 0.54548 0.50983 0.0
C445 C 0.07913 0.52999 0.49495 0.0
C446 C 0.06916 0.51509 0.48968 0.0
C447 C 0.05157 0.51563 0.49902 0.0
C448 C 0.00955 0.53867 0.71216 0.0
C449 C 0.04339 0.50434 0.69014 0.0
C450 C 0.98941 0.47842 0.78145 0.0
Eu451 Eu 1.0041 0.49482 0.70454 0.0
C452 C 0.97174 0.48053 0.80006 0.0
C453 C 0.96161 0.46599 0.80936 0.0
C454 C 0.94435 0.46785 0.82278 0.0
C455 C 0.93707 0.48427 0.8263 0.0
C456 C 0.94699 0.49883 0.81529 0.0
C457 C 0.96427 0.49698 0.80222 0.0
C458 C 0.01228 0.48061 0.6081 0.0
C459 C 0.97242 0.51368 0.63842 0.0
O460 O 0.01815 0.51608 0.53437 0.0
O461 O 0.02083 0.54177 0.56757 0.0
O462 O 0.01192 0.54552 0.66541 0.0
O463 O 1.00767 0.52264 0.70632 0.0
O464 O 0.03846 0.51128 0.6443 0.0
O465 O 0.03209 0.49824 0.72467 0.0
O466 O 0.99976 0.49142 0.78997 0.0
O467 O 0.99068 0.47213 0.73307 0.0
O468 O 0.01788 0.47498 0.65389 0.0
O469 O 1.00277 0.49357 0.61581 0.0
O470 O 0.9775 0.50499 0.68121 0.0
O471 O 0.98346 0.5206 0.60461 0.0
H472 H 0.04782 0.55805 0.53177 0.0
H473 H 0.07877 0.5571 0.51439 0.0
H474 H 0.07492 0.50304 0.47742 0.0
H475 H 0.04432 0.50382 0.49497 0.0
H476 H 0.96704 0.45322 0.80598 0.0
H477 H 0.9367 0.45653 0.83105 0.0
H478 H 0.9415 0.51158 0.8183 0.0
H479 H 0.97174 0.50839 0.79358 0.0
C480 C 0.13103 0.02352 0.21 0.0
C481 C 0.14271 0.01003 0.20138 0.0
C482 C 0.11865 0.02264 0.25102 0.0
C483 C 0.10575 0.99492 0.37144 0.0
H484 H 0.06876 0.02802 0.37958 0.0
C485 C 0.06501 0.99951 0.56388 0.0
C486 C 0.04838 1.00649 0.56371 0.0
C487 C 0.07521 0.99952 0.51774 0.0
C488 C 0.07878 0.01841 0.37794 0.0
H489 H 0.14983 0.98457 0.22753 0.0
H490 H 0.1279 0.9823 0.29555 0.0
H491 H 0.08765 0.0281 0.303 0.0
H492 H 0.02932 0.01887 0.51389 0.0
H493 H 0.0469 0.01857 0.43227 0.0
H494 H 0.09591 0.98418 0.44346 0.0
C495 C 0.1286 0.99422 0.27367 0.0
C496 C 0.09009 0.01867 0.33379 0.0
C497 C 0.1413 0.99538 0.23378 0.0
C498 C 0.04207 0.01333 0.51539 0.0
C499 C 0.05233 0.01327 0.46858 0.0
C500 C 0.09411 0.99427 0.41427 0.0
C501 C 0.11713 0.00797 0.28421 0.0
C502 C 0.10413 1.00714 0.32994 0.0
C503 C 0.06917 1.00633 0.46883 0.0
C504 C 0.08064 1.00628 0.41951 0.0
H505 H 0.13171 0.03503 0.18571 0.0
H506 H 0.11059 0.03376 0.25677 0.0
H507 H 0.11619 0.98582 0.3723 0.0
H508 H 0.07031 0.99405 0.60023 0.0
H509 H 0.08808 0.99444 0.52147 0.0
C510 C 0.51145 0.12585 0.19496 0.0
C511 C 0.50524 0.14266 0.20371 0.0
C512 C 0.51195 0.11368 0.23663 0.0
C513 C 0.51041 0.11035 0.38686 0.0
H514 H 0.50178 0.06209 0.35972 0.0
C515 C 0.49911 0.06317 0.56205 0.0
C516 C 0.50508 0.04617 0.55853 0.0
C517 C 0.4998 0.07424 0.51781 0.0
C518 C 0.50443 0.07548 0.36814 0.0
H519 H 0.49432 0.15941 0.26423 0.0
H520 H 0.49511 0.13838 0.33623 0.0
H521 H 0.50154 0.08248 0.28538 0.0
H522 H 0.5164 0.02747 0.50485 0.0
H523 H 0.51762 0.0468 0.42716 0.0
H524 H 0.51334 0.10345 0.46931 0.0
C525 C 0.49999 0.13464 0.29731 0.0
C526 C 0.50428 0.08726 0.32523 0.0
C527 C 0.49952 0.1468 0.2557 0.0
C528 C 0.51166 0.04048 0.50902 0.0
C529 C 0.51228 0.05159 0.46435 0.0
C530 C 0.51055 0.09862 0.42956 0.0
C531 C 0.50629 0.11786 0.28871 0.0
C532 C 0.50704 0.10497 0.33396 0.0
C533 C 0.50648 0.06874 0.46814 0.0
C534 C 0.50731 0.081 0.42126 0.0
H535 H 0.51624 0.1221 0.15594 0.0
H536 H 0.51712 0.10107 0.22807 0.0
H537 H 0.51311 0.1237 0.39555 0.0
H538 H 0.49398 0.06805 0.59943 0.0
H539 H 0.49488 0.08714 0.52263 0.0
C540 C 0.37504 0.52038 0.23403 0.0
C541 C 0.37364 0.50582 0.20118 0.0
C542 C 0.38781 0.52149 0.2737 0.0
C543 C 0.42653 0.49702 0.33242 0.0
H544 H 0.42088 0.53135 0.44288 0.0
C545 C 0.47487 0.50232 0.51333 0.0
C546 C 0.46851 0.50891 0.56196 0.0
C547 C 0.46456 0.50243 0.46661 0.0
C548 C 0.42264 0.52131 0.41343 0.0
H549 H 0.38473 0.48092 0.18445 0.0
H550 H 0.406 0.4821 0.25509 0.0
H551 H 0.40047 0.52979 0.37209 0.0
H552 H 0.44646 0.52095 0.59915 0.0
H553 H 0.42862 0.52062 0.52055 0.0
H554 H 0.44797 0.48765 0.37769 0.0
C555 C 0.39787 0.4932 0.24989 0.0
C556 C 0.41092 0.5207 0.37082 0.0
C557 C 0.38541 0.49236 0.2091 0.0
C558 C 0.45179 0.51568 0.56255 0.0
C559 C 0.44155 0.51573 0.51653 0.0
C560 C 0.43793 0.49724 0.37637 0.0
C561 C 0.39938 0.50777 0.28355 0.0
C562 C 0.41247 0.50854 0.32905 0.0
C563 C 0.44763 0.50918 0.46732 0.0
C564 C 0.43612 0.50931 0.41818 0.0
H565 H 0.36644 0.53116 0.22833 0.0
H566 H 0.38849 0.53335 0.29594 0.0
H567 H 0.42892 0.48764 0.30143 0.0
H568 H 0.48768 0.49694 0.51151 0.0
H569 H 0.46999 0.49734 0.43001 0.0
C570 C 0.0214 0.37139 0.24761 0.0
C571 C 0.01133 0.37367 0.20131 0.0
C572 C 0.02134 0.38363 0.28905 0.0
C573 C 0.00838 0.42901 0.3236 0.0
H574 H 0.01305 0.41184 0.46838 0.0
C575 C 1.00337 0.47449 0.51169 0.0
C576 C 0.01236 0.46979 0.55843 0.0
C577 C 1.00283 0.46343 0.46679 0.0
C578 C 0.01208 0.41711 0.42841 0.0
H579 H 0.99323 0.3909 0.16297 0.0
H580 H 0.99282 0.41198 0.23542 0.0
H581 H 0.01333 0.39198 0.39422 0.0
H582 H 0.02808 0.44986 0.59375 0.0
H583 H 0.02777 0.43117 0.51638 0.0
H584 H 1.00723 0.45424 0.35809 0.0
C585 C 1.00109 0.40088 0.23944 0.0
C586 C 0.01218 0.40553 0.38533 0.0
C587 C 1.00127 0.38869 0.19772 0.0
C588 C 0.02101 0.45396 0.55862 0.0
C589 C 0.02059 0.44303 0.51396 0.0
C590 C 0.00842 0.44069 0.3669 0.0
C591 C 0.01104 0.39852 0.28612 0.0
C592 C 0.01052 0.41121 0.33202 0.0
C593 C 0.0113 0.44735 0.46727 0.0
C594 C 0.0105 0.43499 0.42026 0.0
H595 H 0.0296 0.36023 0.25154 0.0
H596 H 0.02959 0.38142 0.3233 0.0
H597 H 1.00709 0.43405 0.28338 0.0
H598 H 0.9965 0.48657 0.51011 0.0
H599 H 0.99541 0.4674 0.43228 0.0
C600 C 0.87442 0.9952 0.09252 0.0
C601 C 0.87358 0.0094 0.12703 0.0
C602 C 0.88705 0.99413 0.05246 0.0
C603 C 0.92578 0.01887 0.99302 0.0
H604 H 0.92241 0.98215 0.88953 0.0
C605 C 0.97503 0.01347 0.81542 0.0
C606 C 0.97017 1.00434 0.76914 0.0
C607 C 0.96436 0.01372 0.86116 0.0
C608 C 0.92354 0.99288 0.91675 0.0
H609 H 0.88555 0.03371 0.14616 0.0
H610 H 0.90673 0.03255 0.0758 0.0
H611 H 0.90192 0.98384 0.95907 0.0
H612 H 0.95016 0.98851 0.73477 0.0
H613 H 0.93138 0.98972 0.81108 0.0
H614 H 0.94677 0.02857 0.94679 0.0
C615 C 0.89818 0.02171 0.0793 0.0
C616 C 0.91167 0.99365 0.95893 0.0
C617 C 0.88579 0.02253 0.12027 0.0
C618 C 0.95442 0.99557 0.76975 0.0
C619 C 0.94363 0.99612 0.81462 0.0
C620 C 0.93732 0.01843 0.94946 0.0
C621 C 0.89918 1.00748 0.04395 0.0
C622 C 0.91237 1.00665 0.9985 0.0
C623 C 0.94832 1.00509 0.86171 0.0
C624 C 0.93639 1.00546 0.91 0.0
H625 H 0.86547 0.98465 0.09718 0.0
H626 H 0.88705 0.98252 0.02895 0.0
H627 H 0.92761 0.02903 0.02184 0.0
H628 H 0.98703 0.02053 0.81623 0.0
H629 H 0.96887 0.02067 0.89595 0.0
C630 C 0.51656 0.8718 0.08298 0.0
C631 C 0.50685 0.87508 0.12954 0.0
C632 C 0.51733 0.88378 0.04097 0.0
C633 C 0.5087 0.92984 1.00495 0.0
H634 H 0.50872 0.91158 0.86053 0.0
C635 C 0.50362 0.97431 0.81556 0.0
C636 C 0.51179 0.96893 0.76807 0.0
C637 C 0.50299 0.96352 0.8609 0.0
C638 C 0.50904 0.91706 0.90038 0.0
H639 H 0.49043 0.89402 0.16762 0.0
H640 H 0.49174 0.9148 0.09461 0.0
H641 H 0.50813 0.89211 0.93606 0.0
H642 H 0.52595 0.94803 0.73173 0.0
H643 H 0.52532 0.92958 0.81007 0.0
H644 H 0.50973 0.95486 0.96902 0.0
C645 C 0.49895 0.90297 0.09077 0.0
C646 C 0.50866 0.90576 0.94413 0.0
C647 C 0.49819 0.89097 0.13289 0.0
C648 C 0.51952 0.95263 0.76747 0.0
C649 C 0.51896 0.9419 0.81261 0.0
C650 C 0.50922 0.94121 0.961 0.0
C651 C 0.50838 0.8995 0.04375 0.0
C652 C 0.5086 0.91189 0.99724 0.0
C653 C 0.51053 0.94701 0.86011 0.0
C654 C 0.50954 0.93502 0.90778 0.0
H655 H 0.52379 0.85999 0.07907 0.0
H656 H 0.52511 0.88072 0.00629 0.0
H657 H 0.50877 0.93517 0.04505 0.0
H658 H 0.49752 0.9868 0.81749 0.0
H659 H 0.49624 0.96803 0.89611 0.0
C660 C 0.63109 0.49299 0.11951 0.0
C661 C 0.64316 0.50624 0.12664 0.0
C662 C 0.61862 0.49384 0.07876 0.0
C663 C 0.60491 0.5221 0.95935 0.0
H664 H 0.56993 0.48708 0.94655 0.0
C665 C 0.56212 0.52043 0.7702 0.0
C666 C 0.5465 0.51146 0.76918 0.0
C667 C 0.5729 0.51987 0.81511 0.0
C668 C 0.57934 0.49725 0.9494 0.0
H669 H 0.65091 0.53123 0.098 0.0
H670 H 0.62914 0.53343 0.03033 0.0
H671 H 0.58906 0.48662 0.02171 0.0
H672 H 0.5298 0.49493 0.81557 0.0
H673 H 0.54793 0.49473 0.89535 0.0
H674 H 0.59415 0.53367 0.89021 0.0
C675 C 0.62936 0.5217 0.05318 0.0
C676 C 0.59086 0.49681 0.99301 0.0
C677 C 0.64207 0.52059 0.09295 0.0
C678 C 0.54172 0.50213 0.8151 0.0
C679 C 0.55237 0.50185 0.86087 0.0
C680 C 0.59304 0.52289 0.91719 0.0
C681 C 0.61742 0.50822 0.04411 0.0
C682 C 0.60422 0.50906 0.9987 0.0
C683 C 0.56831 0.51068 0.86183 0.0
C684 C 0.58023 0.51027 0.91017 0.0
H685 H 0.63151 0.48171 0.14483 0.0
H686 H 0.6102 0.48292 0.07477 0.0
H687 H 0.61466 0.53191 0.95962 0.0
H688 H 0.56631 0.52766 0.73551 0.0
H689 H 0.58507 0.52644 0.81182 0.0
C690 C 1.00096 0.62718 0.13148 0.0
C691 C 0.01002 0.64282 0.12644 0.0
C692 C 1.00084 0.61497 0.08974 0.0
C693 C 0.00871 0.61151 0.94216 0.0
H694 H 0.00881 0.56242 0.96698 0.0
C695 C 0.01584 0.56576 0.76198 0.0
C696 C 0.00955 0.54886 0.76321 0.0
C697 C 0.01594 0.5761 0.80789 0.0
C698 C 0.00855 0.57605 0.95882 0.0
H699 H 0.02669 0.65726 0.07349 0.0
H700 H 0.02661 0.63614 1.0015 0.0
H701 H 0.00889 0.58219 0.04299 0.0
H702 H 0.99858 0.52947 0.81501 0.0
H703 H 0.9978 0.5478 0.89517 0.0
H704 H 1.00757 0.60583 0.85895 0.0
C705 C 0.01915 0.63344 0.03713 0.0
C706 C 0.00867 0.58748 1.00288 0.0
C707 C 0.01921 0.64565 0.07866 0.0
C708 C 1.00344 0.54248 0.81245 0.0
C709 C 1.00313 0.55306 0.85868 0.0
C710 C 0.00832 0.6002 0.89844 0.0
C711 C 0.00979 0.61797 0.04151 0.0
C712 C 0.00906 0.60544 0.99522 0.0
C713 C 0.00922 0.57023 0.85715 0.0
C714 C 0.00862 0.58218 0.90546 0.0
H715 H 0.99361 0.6245 0.16736 0.0
H716 H 0.99334 0.60337 0.09486 0.0
H717 H 0.00844 0.62517 0.93407 0.0
H718 H 0.02093 0.57109 0.72514 0.0
H719 H 0.02152 0.58875 0.80418 0.0
C720 C 0.02624 0.2107 0.27461 0.0
C721 C 0.0124 0.22122 0.26104 0.0
C722 C 0.02389 0.19738 0.31092 0.0
C723 C 0.99153 0.17677 0.40164 0.0
H724 H 0.01657 0.13615 0.35776 0.0
C725 C 0.98337 0.11099 0.50612 0.0
C726 C 0.98568 0.09641 0.47412 0.0
C727 C 0.98645 0.12725 0.48473 0.0
C728 C 0.0092 0.14726 0.37003 0.0
H729 H 0.98573 0.22735 0.27603 0.0
H730 H 0.98112 0.2033 0.33674 0.0
H731 H 0.02243 0.16297 0.31439 0.0
H732 H 0.99204 0.08685 0.39524 0.0
H733 H 0.99634 0.1151 0.35659 0.0
H734 H 0.97709 0.16044 0.45364 0.0
C735 C 0.99392 0.20541 0.32111 0.0
C736 C 0.01294 0.16286 0.34611 0.0
C737 C 0.99643 0.21903 0.28588 0.0
C738 C 0.99038 0.09809 0.42037 0.0
C739 C 0.99302 0.11425 0.39865 0.0
C740 C 0.98736 0.16095 0.42442 0.0
C741 C 1.0075 0.19406 0.33255 0.0
C742 C 1.00418 0.17783 0.36153 0.0
C743 C 0.99158 0.12902 0.43089 0.0
C744 C 0.99608 0.146 0.40845 0.0
H745 H 0.03872 0.21256 0.25622 0.0
H746 H 0.0348 0.18931 0.32041 0.0
H747 H 0.98466 0.18807 0.41501 0.0
H748 H 0.9797 0.10975 0.54784 0.0
H749 H 0.98532 0.13832 0.51079 0.0
C750 C 0.30787 0.02352 0.26998 0.0
C751 C 0.29496 0.01118 0.26372 0.0
C752 C 0.32133 0.02061 0.30538 0.0
C753 C 0.34415 0.98445 0.36733 0.0
H754 H 0.37005 0.02163 0.43213 0.0
C755 C 0.40746 0.9758 0.48693 0.0
C756 C 0.4208 0.98656 0.46922 0.0
C757 C 0.39076 0.9782 0.4681 0.0
C758 C 0.36285 0.01114 0.41442 0.0
H759 H 0.2851 0.98669 0.29117 0.0
H760 H 0.30843 0.98176 0.35474 0.0
H761 H 0.34196 0.02748 0.3935 0.0
H762 H 0.42735 1.00778 0.41661 0.0
H763 H 0.39813 0.01212 0.38456 0.0
H764 H 0.36519 0.96815 0.38894 0.0
C765 C 0.30842 0.9935 0.33148 0.0
C766 C 0.34684 0.01447 0.39212 0.0
C767 C 0.295 0.99638 0.29569 0.0
C768 C 0.41724 0.99956 0.43186 0.0
C769 C 0.40058 1.00202 0.41345 0.0
C770 C 0.36005 0.98107 0.39064 0.0
C771 C 0.32199 1.00536 0.33548 0.0
C772 C 0.33755 1.00128 0.36685 0.0
C773 C 0.38723 0.99147 0.43182 0.0
C774 C 0.36967 0.9945 0.41292 0.0
H775 H 0.30789 0.0351 0.24594 0.0
H776 H 0.33163 0.02994 0.30683 0.0
H777 H 0.33748 0.97403 0.34748 0.0
H778 H 0.40987 0.96578 0.51604 0.0
H779 H 0.38056 0.96996 0.48267 0.0
C780 C 0.49299 0.30828 0.26361 0.0
C781 C 0.50506 0.29503 0.25976 0.0
C782 C 0.49555 0.32159 0.29984 0.0
C783 C 0.53103 0.34339 0.36828 0.0
H784 H 0.49352 0.36952 0.43007 0.0
C785 C 0.54025 0.40612 0.48878 0.0
C786 C 0.52961 0.4196 0.47162 0.0
C787 C 0.53749 0.38951 0.46988 0.0
C788 C 0.50409 0.36226 0.41318 0.0
H789 H 0.5287 0.28452 0.29194 0.0
H790 H 0.53305 0.30767 0.35638 0.0
H791 H 0.48763 0.3418 0.38882 0.0
H792 H 0.50819 0.42655 0.42031 0.0
H793 H 0.50333 0.39751 0.38763 0.0
H794 H 0.54743 0.36402 0.39266 0.0
C795 C 0.5218 0.30799 0.33084 0.0
C796 C 0.50075 0.34647 0.38947 0.0
C797 C 0.51926 0.29471 0.2944 0.0
C798 C 0.51633 0.41629 0.43499 0.0
C799 C 0.51355 0.39973 0.41633 0.0
C800 C 0.5344 0.3591 0.39273 0.0
C801 C 0.51021 0.3218 0.33287 0.0
C802 C 0.5141 0.33711 0.3654 0.0
C803 C 0.52402 0.38623 0.43395 0.0
C804 C 0.52087 0.36881 0.41399 0.0
H805 H 0.48182 0.30852 0.23767 0.0
H806 H 0.48644 0.3321 0.30002 0.0
H807 H 0.54158 0.33664 0.34936 0.0
H808 H 0.55049 0.40838 0.51734 0.0
H809 H 0.54567 0.37919 0.48391 0.0
C810 C 0.21348 0.52229 0.2615 0.0
C811 C 0.22151 0.50624 0.26259 0.0
C812 C 0.20012 0.52582 0.2967 0.0
C813 C 0.16723 0.50284 0.37303 0.0
H814 H 0.15712 0.54842 0.42742 0.0
C815 C 0.10769 0.51566 0.49976 0.0
C816 C 0.09753 0.52938 0.48176 0.0
C817 C 0.12441 0.51372 0.48102 0.0
C818 C 0.15985 0.53564 0.4125 0.0
H819 H 0.223 0.48153 0.3017 0.0
H820 H 0.19972 0.48775 0.36486 0.0
H821 H 0.18431 0.54316 0.38171 0.0
H822 H 0.09694 0.55222 0.43212 0.0
H823 H 0.12627 0.54883 0.3993 0.0
H824 H 0.14272 0.49537 0.40338 0.0
C825 C 0.20345 0.49752 0.33624 0.0
C826 C 0.17535 0.53263 0.38629 0.0
C827 C 0.21678 0.49397 0.30067 0.0
C828 C 0.10462 0.54164 0.44698 0.0
C829 C 0.12135 0.5397 0.42822 0.0
C830 C 0.15185 0.50581 0.39969 0.0
C831 C 0.1947 0.51331 0.33359 0.0
C832 C 0.1791 0.51623 0.36581 0.0
C833 C 0.1312 0.5255 0.44413 0.0
C834 C 0.14798 0.52226 0.41921 0.0
H835 H 0.21717 0.53186 0.23212 0.0
H836 H 0.19354 0.53801 0.29315 0.0
H837 H 0.16952 0.49018 0.35646 0.0
H838 H 0.10254 0.50618 0.5272 0.0
H839 H 0.1319 0.5028 0.49437 0.0
C840 C 0.99619 0.80476 0.05158 0.0
C841 C 0.00988 0.79368 0.06334 0.0
C842 C 0.99858 0.81843 0.01657 0.0
C843 C 0.03387 0.84525 0.96581 0.0
H844 H 0.99705 0.86579 0.88334 0.0
C845 C 0.03848 0.91433 0.89301 0.0
C846 C 0.0296 0.91924 0.8468 0.0
C847 C 0.03658 0.89785 0.91325 0.0
C848 C 1.00764 0.86007 0.90504 0.0
H849 H 0.03647 0.78747 0.04574 0.0
H850 H 0.04039 0.81074 0.98228 0.0
H851 H 0.99262 0.83805 0.92495 0.0
H852 H 0.01225 0.91104 0.78395 0.0
H853 H 0.00979 0.88165 0.81702 0.0
H854 H 0.04927 0.86661 0.94353 0.0
C855 C 0.02798 0.80927 1.00133 0.0
C856 C 1.00496 0.84428 0.92979 0.0
C857 C 0.02566 0.79577 0.03698 0.0
C858 C 0.01924 0.90735 0.81972 0.0
C859 C 0.01769 0.89065 0.83911 0.0
C860 C 0.03673 0.86071 0.93967 0.0
C861 C 0.01465 0.82108 0.99221 0.0
C862 C 0.01794 0.83688 0.96127 0.0
C863 C 0.02611 0.8858 0.8867 0.0
C864 C 0.02354 0.86853 0.91 0.0
H865 H 0.98383 0.80321 0.07097 0.0
H866 H 0.98807 0.82735 0.01084 0.0
H867 H 0.04404 0.84014 0.99073 0.0
H868 H 0.04628 0.92351 0.91489 0.0
H869 H 0.04288 0.89484 0.95076 0.0
C870 C 0.71179 0.99621 0.05034 0.0
C871 C 0.7227 0.01001 0.06228 0.0
C872 C 0.69806 0.99847 0.01545 0.0
C873 C 0.67065 0.03341 0.96628 0.0
H874 H 0.6504 0.9965 0.88337 0.0
C875 C 0.60149 0.03763 0.89406 0.0
C876 C 0.59676 0.02924 0.84674 0.0
C877 C 0.61786 0.03545 0.91497 0.0
C878 C 0.65603 1.00711 0.90525 0.0
H879 H 0.72863 0.03667 0.04514 0.0
H880 H 0.70519 0.04041 0.98191 0.0
H881 H 0.67839 0.99244 0.92391 0.0
H882 H 0.60512 0.01225 0.7832 0.0
H883 H 0.63431 0.00927 0.81761 0.0
H884 H 0.64895 0.04848 0.94517 0.0
C885 C 0.70685 0.02799 1.00068 0.0
C886 C 0.67196 1.00465 0.92934 0.0
C887 C 0.72043 0.02579 0.0362 0.0
C888 C 0.60865 0.01885 0.81982 0.0
C889 C 0.62525 0.01703 0.83991 0.0
C890 C 0.65504 0.03606 0.94079 0.0
C891 C 0.69518 0.01453 0.99144 0.0
C892 C 0.67926 0.01766 0.96096 0.0
C893 C 0.62999 0.0252 0.88804 0.0
C894 C 0.64732 0.02282 0.91102 0.0
H895 H 0.71349 0.98386 0.06959 0.0
H896 H 0.68924 0.98787 0.00962 0.0
H897 H 0.6757 0.0436 0.99133 0.0
H898 H 0.59231 0.04546 0.91578 0.0
H899 H 0.62079 0.04152 0.95293 0.0
C900 C 0.51446 0.70165 0.09462 0.0
C901 C 0.50908 0.71797 0.07769 0.0
C902 C 0.51275 0.6876 0.06065 0.0
C903 C 0.50841 0.67202 0.92656 0.0
H904 H 0.47568 0.63983 0.98703 0.0
C905 C 0.48733 0.61064 0.81411 0.0
C906 C 0.48564 0.59611 0.84667 0.0
C907 C 0.4893 0.62679 0.83771 0.0
C908 C 0.48502 0.64853 0.96977 0.0
H909 H 0.49826 0.73246 0.01116 0.0
H910 H 0.49584 0.70784 0.95145 0.0
H911 H 0.48361 0.66528 0.03739 0.0
H912 H 0.48498 0.58639 0.92775 0.0
H913 H 0.48917 0.61419 0.96911 0.0
H914 H 0.5106 0.65482 0.86011 0.0
C915 C 0.50136 0.70609 0.99095 0.0
C916 C 0.48946 0.66308 0.99855 0.0
C917 C 0.50278 0.72011 0.02519 0.0
C918 C 0.48593 0.59765 0.90238 0.0
C919 C 0.48821 0.61359 0.92585 0.0
C920 C 0.50431 0.65714 0.89814 0.0
C921 C 0.5059 0.68976 0.00916 0.0
C922 C 0.50134 0.67471 0.97747 0.0
C923 C 0.48987 0.62837 0.89392 0.0
C924 C 0.49281 0.64509 0.92009 0.0
H925 H 0.51969 0.69967 0.13437 0.0
H926 H 0.51629 0.67495 0.07501 0.0
H927 H 0.51747 0.68111 0.90972 0.0
H928 H 0.48738 0.60944 0.77084 0.0
H929 H 0.49047 0.63795 0.81211 0.0
C930 C 0.79749 0.48858 0.04639 0.0
C931 C 0.79225 0.50529 0.05908 0.0
C932 C 0.81165 0.48599 0.0134 0.0
C933 C 0.84239 0.508 0.92275 0.0
H934 H 0.8722 0.47154 0.97244 0.0
C935 C 0.90673 0.49394 0.8173 0.0
C936 C 0.91975 0.48629 0.84767 0.0
C937 C 0.89035 0.4959 0.83917 0.0
C938 C 0.86434 0.48207 0.95844 0.0
H939 H 0.79683 0.53238 0.04595 0.0
H940 H 0.82185 0.52796 0.98889 0.0
H941 H 0.84535 0.47642 0.01707 0.0
H942 H 0.92664 0.47541 0.92434 0.0
H943 H 0.89885 0.48015 0.96443 0.0
H944 H 0.86212 0.51488 0.86788 0.0
C945 C 0.81496 0.51682 1.00348 0.0
C946 C 0.8486 0.48453 0.98331 0.0
C947 C 0.80073 0.51939 0.03626 0.0
C948 C 0.91653 0.48107 0.90021 0.0
C949 C 0.90046 0.48362 0.92279 0.0
C950 C 0.85848 0.50598 0.89914 0.0
C951 C 0.82087 0.5001 0.99315 0.0
C952 C 0.83738 0.4974 0.96542 0.0
C953 C 0.88701 0.49081 0.89243 0.0
C954 C 0.8697 0.49295 0.91664 0.0
H955 H 0.79127 0.47755 0.06442 0.0
H956 H 0.81573 0.47295 1.00538 0.0
H957 H 0.83394 0.51796 0.90782 0.0
H958 H 0.90917 0.49815 0.77659 0.0
H959 H 0.88039 0.50122 0.81393 0.0
C960 C 1.00078 0.19458 0.84318 0.0
C961 C 0.01314 0.20625 0.82462 0.0
C962 C 0.99998 0.17782 0.82292 0.0
C963 C 0.01992 0.14763 0.71926 0.0
H964 H 0.99888 0.11387 0.81226 0.0
C965 C 0.01501 0.07511 0.65924 0.0
C966 C 0.01514 0.06276 0.70031 0.0
C967 C 0.01469 0.09275 0.67135 0.0
C968 C 1.00516 0.12295 0.7859 0.0
H969 H 0.03408 0.20962 0.7686 0.0
H970 H 0.03368 0.18014 0.73583 0.0
H971 H 0.99911 0.1434 0.83871 0.0
H972 H 0.01491 0.05928 0.78638 0.0
H973 H 0.01473 0.08968 0.80773 0.0
H974 H 0.02722 0.12657 0.66877 0.0
C975 C 0.02409 0.18384 0.76495 0.0
C976 C 1.00487 0.1403 0.80054 0.0
C977 C 0.02448 0.20086 0.7841 0.0
C978 C 0.01508 0.06845 0.75373 0.0
C979 C 0.01467 0.08602 0.7659 0.0
C980 C 0.02065 0.13011 0.70536 0.0
C981 C 0.01199 0.17182 0.7847 0.0
C982 C 0.01218 0.15311 0.7676 0.0
C983 C 0.01431 0.09854 0.725 0.0
C984 C 0.01333 0.11742 0.73863 0.0
H985 H 0.99158 0.19848 0.87342 0.0
H986 H 0.98982 0.16967 0.83783 0.0
H987 H 0.02548 0.15676 0.69165 0.0
H988 H 0.01508 0.07112 0.61763 0.0
H989 H 0.0143 0.10177 0.63841 0.0
C990 C 0.31426 0.0157 0.77365 0.0
C991 C 0.31044 0.01253 0.828 0.0
C992 C 0.33137 0.01567 0.75522 0.0
C993 C 0.37649 0.01831 0.80904 0.0
H994 H 0.38908 1.00645 0.66396 0.0
C995 C 0.44832 0.02156 0.74803 0.0
C996 C 0.45409 0.01419 0.69999 0.0
C997 C 0.43079 0.02192 0.76083 0.0
C998 C 0.38618 0.00959 0.70509 0.0
H999 H 0.32173 1.00562 0.90438 0.0
H1000 H 0.35106 1.00503 0.87264 0.0
H1001 H 0.35939 1.0048 0.69095 0.0
H1002 H 0.44572 1.00133 0.62756 0.0
H1003 H 0.41565 1.00112 0.65004 0.0
H1004 H 0.40278 0.02188 0.8257 0.0
C1005 C 0.34109 0.0084 0.84429 0.0
C1006 C 0.36877 0.00891 0.72035 0.0
C1007 C 0.32412 0.00865 0.86269 0.0
C1008 C 0.44179 1.0072 0.66496 0.0
C1009 C 0.42424 1.00722 0.67816 0.0
C1010 C 0.39384 0.0185 0.79446 0.0
C1011 C 0.34513 0.0123 0.79057 0.0
C1012 C 0.36363 0.0132 0.77279 0.0
C1013 C 0.41822 0.01452 0.72669 0.0
C1014 C 0.39925 0.01423 0.74202 0.0
H1015 H 0.30408 0.01871 0.74559 0.0
H1016 H 0.33378 0.01875 0.7136 0.0
H1017 H 0.37325 0.02227 0.84938 0.0
H1018 H 0.45738 0.02707 0.77618 0.0
H1019 H 0.42745 0.02821 0.79787 0.0
C1020 C 0.51582 0.32086 0.84223 0.0
C1021 C 0.50333 0.30928 0.82397 0.0
C1022 C 0.51665 0.33763 0.82209 0.0
C1023 C 0.49638 0.36803 0.71953 0.0
H1024 H 0.51855 0.40158 0.81082 0.0
C1025 C 0.50134 0.44047 0.65897 0.0
C1026 C 0.50183 0.45285 0.69995 0.0
C1027 C 0.50161 0.42284 0.67114 0.0
C1028 C 0.51195 0.39258 0.78497 0.0
H1029 H 0.48215 0.30608 0.7687 0.0
H1030 H 0.4826 0.33556 0.73623 0.0
H1031 H 0.5182 0.37209 0.8373 0.0
H1032 H 0.50312 0.45642 0.78589 0.0
H1033 H 0.50323 0.42604 0.80741 0.0
H1034 H 0.48888 0.38913 0.66965 0.0
C1035 C 0.49229 0.3318 0.76495 0.0
C1036 C 0.51215 0.37522 0.7996 0.0
C1037 C 0.49186 0.31478 0.78394 0.0
C1038 C 0.50248 0.44722 0.75336 0.0
C1039 C 0.50284 0.42965 0.76558 0.0
C1040 C 0.49572 0.38555 0.7057 0.0
C1041 C 0.50454 0.34374 0.78433 0.0
C1042 C 0.50444 0.36247 0.76726 0.0
C1043 C 0.50256 0.41707 0.72474 0.0
C1044 C 0.50344 0.39819 0.73835 0.0
H1045 H 0.52511 0.31689 0.8721 0.0
H1046 H 0.52693 0.3457 0.83673 0.0
H1047 H 0.49049 0.35896 0.69232 0.0
H1048 H 0.50078 0.44443 0.61741 0.0
H1049 H 0.50149 0.41379 0.6382 0.0
C1050 C 0.20026 0.51506 0.78894 0.0
C1051 C 0.20637 0.50213 0.82346 0.0
C1052 C 0.18322 0.51477 0.77 0.0
C1053 C 0.14064 0.49477 0.80305 0.0
H1054 H 0.12674 0.51433 0.66759 0.0
C1055 C 0.06837 0.49344 0.74496 0.0
C1056 C 0.06217 0.50342 0.70239 0.0
C1057 C 0.08602 0.49268 0.75639 0.0
C1058 C 0.13001 0.50894 0.70609 0.0
H1059 H 0.19971 0.47807 0.86151 0.0
H1060 H 0.1705 0.47712 0.82719 0.0
H1061 H 0.1567 0.51418 0.69186 0.0
H1062 H 0.06987 0.52054 0.63832 0.0
H1063 H 0.10002 0.52022 0.65947 0.0
H1064 H 0.11445 0.48999 0.81929 0.0
C1065 C 0.17844 0.48802 0.81663 0.0
C1066 C 0.14755 0.50884 0.71996 0.0
C1067 C 0.1953 0.48848 0.83622 0.0
C1068 C 0.07413 0.51268 0.67159 0.0
C1069 C 0.09174 0.51231 0.68381 0.0
C1070 C 0.12317 0.49505 0.78968 0.0
C1071 C 0.17189 0.5014 0.78448 0.0
C1072 C 0.15319 0.50162 0.7686 0.0
C1073 C 0.09821 0.50232 0.7267 0.0
C1074 C 0.1173 0.50206 0.74071 0.0
H1075 H 0.20847 0.52575 0.77811 0.0
H1076 H 0.17882 0.52537 0.74553 0.0
H1077 H 0.14419 0.48948 0.84161 0.0
H1078 H 0.05959 0.48599 0.76934 0.0
H1079 H 0.08978 0.48426 0.78858 0.0
C1080 C 0.01712 0.81567 0.54944 0.0
C1081 C 1.00825 0.81035 0.50305 0.0
C1082 C 0.01605 0.83279 0.5677 0.0
C1083 C 1.00329 0.87663 0.51798 0.0
H1084 H 1.00769 0.88973 0.66701 0.0
C1085 C 0.99504 0.94796 0.57939 0.0
C1086 C 1.00362 0.95427 0.62489 0.0
C1087 C 0.9949 0.9303 0.56764 0.0
C1088 C 1.00663 0.88647 0.62498 0.0
H1089 H 0.99031 0.81863 0.4421 0.0
H1090 H 0.98782 0.84791 0.47462 0.0
H1091 H 0.00887 0.85954 0.64224 0.0
H1092 H 0.01872 0.94665 0.69402 0.0
H1093 H 0.01921 0.91629 0.67255 0.0
H1094 H 1.0015 0.90329 0.5 0.0
C1095 C 0.99636 0.83929 0.49571 0.0
C1096 C 1.00728 0.86895 0.61072 0.0
C1097 C 0.99769 0.82237 0.47704 0.0
C1098 C 0.01195 0.94236 0.6585 0.0
C1099 C 0.01208 0.92474 0.64628 0.0
C1100 C 1.00275 0.89404 0.53208 0.0
C1101 C 1.00586 0.84501 0.54049 0.0
C1102 C 1.00545 0.8637 0.55688 0.0
C1103 C 1.00366 0.91831 0.60034 0.0
C1104 C 1.00428 0.8994 0.58587 0.0
H1105 H 0.02533 0.80674 0.57067 0.0
H1106 H 0.02363 0.8365 0.6022 0.0
H1107 H 1.00236 0.8734 0.47589 0.0
H1108 H 0.98835 0.95666 0.55272 0.0
H1109 H 0.98775 0.92614 0.53278 0.0
C1110 C 0.70109 0.9976 0.54165 0.0
C1111 C 0.70626 0.01008 0.50409 0.0
C1112 C 0.68403 0.99697 0.56037 0.0
C1113 C 0.63989 0.01387 0.52503 0.0
H1114 H 0.62705 0.99205 0.65851 0.0
C1115 C 0.56838 1.00075 0.5719 0.0
C1116 C 0.56266 1.00116 0.62528 0.0
C1117 C 0.58596 1.00161 0.55977 0.0
C1118 C 0.63031 0.99843 0.62135 0.0
H1119 H 0.69773 0.0325 0.46035 0.0
H1120 H 0.66858 0.03202 0.49438 0.0
H1121 H 0.65726 0.99524 0.63594 0.0
H1122 H 0.57109 1.00236 0.70791 0.0
H1123 H 0.60165 1.00407 0.68708 0.0
H1124 H 0.61317 0.0181 0.51185 0.0
C1125 C 0.67724 0.022 0.50747 0.0
C1126 C 0.64782 1.00001 0.60782 0.0
C1127 C 0.69413 0.0224 0.48801 0.0
C1128 C 0.57503 1.0021 0.66631 0.0
C1129 C 0.59266 1.00295 0.65422 0.0
C1130 C 0.62251 0.01265 0.53907 0.0
C1131 C 0.67165 0.00898 0.5428 0.0
C1132 C 0.65296 1.00767 0.55909 0.0
C1133 C 0.59847 1.00296 0.60063 0.0
C1134 C 0.61731 1.00468 0.58706 0.0
H1135 H 0.71007 0.98791 0.55518 0.0
H1136 H 0.68052 0.98666 0.58728 0.0
H1137 H 0.64293 0.01951 0.4866 0.0
H1138 H 0.55924 1.00018 0.5392 0.0
H1139 H 0.58967 1.00117 0.518 0.0
C1140 C 0.52243 0.69491 0.48358 0.0
C1141 C 0.50807 0.70511 0.4951 0.0
C1142 C 0.52405 0.67837 0.50517 0.0
C1143 C 0.50249 0.64611 0.59938 0.0
H1144 H 0.53154 0.61523 0.51922 0.0
C1145 C 0.5045 0.57318 0.65648 0.0
C1146 C 0.51311 0.56127 0.62368 0.0
C1147 C 0.50465 0.59083 0.64473 0.0
C1148 C 0.52303 0.62318 0.5425 0.0
H1149 H 0.48436 0.70621 0.54008 0.0
H1150 H 0.48634 0.67698 0.57465 0.0
H1151 H 0.52956 0.64422 0.4926 0.0
H1152 H 0.5288 0.55884 0.5526 0.0
H1153 H 0.52885 0.58878 0.53091 0.0
H1154 H 0.49484 0.62482 0.64671 0.0
C1155 C 0.49681 0.68169 0.55026 0.0
C1156 C 0.52223 0.64049 0.52747 0.0
C1157 C 0.4955 0.69852 0.52995 0.0
C1158 C 0.52195 0.56756 0.57883 0.0
C1159 C 0.52202 0.58518 0.5667 0.0
C1160 C 0.50287 0.62859 0.61353 0.0
C1161 C 0.51101 0.67108 0.53749 0.0
C1162 C 0.51199 0.65244 0.55544 0.0
C1163 C 0.51333 0.59739 0.59919 0.0
C1164 C 0.51312 0.61655 0.58525 0.0
H1165 H 0.53253 0.69981 0.45788 0.0
H1166 H 0.53569 0.6714 0.49597 0.0
H1167 H 0.49464 0.6546 0.6234 0.0
H1168 H 0.49745 0.56889 0.69144 0.0
H1169 H 0.49784 0.59905 0.6722 0.0
C1170 C 0.81576 0.5196 0.53695 0.0
C1171 C 0.80983 0.50568 0.50606 0.0
C1172 C 0.83283 0.52019 0.5555 0.0
C1173 C 0.87585 0.49841 0.53277 0.0
H1174 H 0.88992 0.5282 0.64891 0.0
C1175 C 0.9482 0.50919 0.57415 0.0
C1176 C 0.9538 0.51401 0.62542 0.0
C1177 C 0.93062 0.50812 0.56225 0.0
C1178 C 0.88638 0.51952 0.61691 0.0
H1179 H 0.81692 0.48084 0.47416 0.0
H1180 H 0.84599 0.4812 0.50881 0.0
H1181 H 0.85974 0.52527 0.62798 0.0
H1182 H 0.94545 0.52159 0.70454 0.0
H1183 H 0.91483 0.51968 0.68462 0.0
H1184 H 0.90212 0.49146 0.52444 0.0
C1185 C 0.83804 0.49232 0.51631 0.0
C1186 C 0.86882 0.5181 0.60398 0.0
C1187 C 0.82116 0.49197 0.49664 0.0
C1188 C 0.94145 0.51786 0.66459 0.0
C1189 C 0.9238 0.51687 0.65274 0.0
C1190 C 0.89325 0.49938 0.5468 0.0
C1191 C 0.84445 0.50666 0.54478 0.0
C1192 C 0.86319 0.50767 0.56109 0.0
C1193 C 0.91798 0.5118 0.60135 0.0
C1194 C 0.89901 0.51021 0.58845 0.0
H1195 H 0.80736 0.53038 0.54517 0.0
H1196 H 0.83692 0.53158 0.57678 0.0
H1197 H 0.87253 0.49049 0.49872 0.0
H1198 H 0.95745 0.50581 0.54343 0.0
H1199 H 0.92713 0.50451 0.52186 0.0
loop_
_geom_bond_atom_site_label_1
_geom_bond_atom_site_label_2
_geom_bond_distance
_geom_bond_site_symmetry_2
_ccdc_geom_bond_type
C0 C1 1.264 . S
C0 C5 1.479 . S
C0 C10 1.465 . S
C1 C0 1.264 . S
C1 C3 1.339 . S
C1 H28 0.931 . S
C2 C3 1.395 . S
C2 C4 1.320 . S
C3 C1 1.339 . S
C3 C2 1.395 . S
C3 H29 0.929 . S
C4 C2 1.320 . S
C4 C5 1.405 . S
C4 H30 0.930 . S
C5 C0 1.479 . S
C5 C4 1.405 . S
C5 H31 0.931 . S
U6 O7 2.454 . S
U6 O8 2.458 . S
U6 C9 2.984 . S
U6 C10 2.847 . S
U6 C23 2.882 . S
U6 O24 2.441 . S
U6 O25 2.420 . S
U6 O26 2.455 . S
U6 O27 2.449 . S
O7 U6 2.454 . S
O7 C9 1.353 . S
O8 U6 2.458 . S
O8 C9 1.286 . S
C9 U6 2.984 . S
C9 O7 1.353 . S
C9 O8 1.286 . S
C9 C11 1.363 . S
C10 C0 1.465 . S
C10 U6 2.847 . S
C10 O24 1.249 . S
C10 O25 1.202 . S
C11 C9 1.363 . S
C11 C13 1.408 . S
C11 C16 1.342 . S
C12 C13 1.310 . S
C12 C15 1.461 . S
C12 H32 0.932 . S
C13 C11 1.408 . S
C13 C12 1.310 . S
C13 H33 0.930 . S
C14 C15 1.474 . S
C14 C16 1.285 . S
C14 H34 0.929 . S
C15 C12 1.461 . S
C15 C14 1.474 . S
C16 C11 1.342 . S
C16 C14 1.285 . S
C16 H35 0.930 . S
C17 C20 1.424 . S
C17 C22 1.245 . S
C17 C23 1.428 . S
C18 C21 1.260 . S
C18 C22 1.477 . S
C18 H36 0.932 . S
C19 C20 1.384 . S
C19 C21 1.479 . S
C19 H37 0.929 . S
C20 C17 1.424 . S
C20 C19 1.384 . S
C20 H38 0.928 . S
C21 C18 1.260 . S
C21 C19 1.479 . S
C22 C17 1.245 . S
C22 C18 1.477 . S
C22 H39 0.932 . S
C23 U6 2.882 . S
C23 C17 1.428 . S
C23 O26 1.301 . S
C23 O27 1.282 . S
O24 U6 2.441 . S
O24 C10 1.249 . S
O25 U6 2.420 . S
O25 C10 1.202 . S
O26 U6 2.455 . S
O26 C23 1.301 . S
O27 U6 2.449 . S
O27 C23 1.282 . S
H28 C1 0.931 . S
H29 C3 0.929 . S
H30 C4 0.930 . S
H31 C5 0.931 . S
H32 C12 0.932 . S
H33 C13 0.930 . S
H34 C14 0.929 . S
H35 C16 0.930 . S
H36 C18 0.932 . S
H37 C19 0.929 . S
H38 C20 0.928 . S
H39 C22 0.932 . S
C40 C41 1.264 . S
C40 C45 1.479 . S
C40 C50 1.465 . S
C41 C40 1.264 . S
C41 C43 1.339 . S
C41 H68 0.931 . S
C42 C43 1.395 . S
C42 C44 1.320 . S
C43 C41 1.339 . S
C43 C42 1.395 . S
C43 H69 0.929 . S
C44 C42 1.320 . S
C44 C45 1.405 . S
C44 H70 0.930 1_455 S
C45 C40 1.479 . S
C45 C44 1.405 . S
C45 H71 0.931 . S
U46 O47 2.454 . S
U46 O48 2.458 . S
U46 C49 2.984 . S
U46 C50 2.847 . S
U46 C63 2.882 . S
U46 O64 2.441 . S
U46 O65 2.420 . S
U46 O66 2.455 . S
U46 O67 2.449 . S
O47 U46 2.454 . S
O47 C49 1.353 . S
O48 U46 2.458 . S
O48 C49 1.286 . S
C49 U46 2.984 . S
C49 O47 1.353 . S
C49 O48 1.286 . S
C49 C51 1.363 . S
C50 C40 1.465 . S
C50 U46 2.847 . S
C50 O64 1.249 . S
C50 O65 1.202 . S
C51 C49 1.363 . S
C51 C53 1.408 . S
C51 C56 1.346 . S
C52 C53 1.315 . S
C52 C55 1.458 1_455 S
C52 H72 0.932 . S
C53 C51 1.408 . S
C53 C52 1.315 . S
C53 H73 0.930 . S
C54 C55 1.474 . S
C54 C56 1.282 1_655 S
C54 H74 0.936 . S
C55 C52 1.458 1_655 S
C55 C54 1.474 . S
C56 C51 1.346 . S
C56 C54 1.282 1_455 S
C56 H75 0.929 1_455 S
C57 C60 1.424 . S
C57 C62 1.245 . S
C57 C63 1.428 . S
C58 C61 1.260 . S
C58 C62 1.477 . S
C58 H76 0.932 . S
C59 C60 1.384 . S
C59 C61 1.479 . S
C59 H77 0.929 . S
C60 C57 1.424 . S
C60 C59 1.384 . S
C60 H78 0.928 . S
C61 C58 1.260 . S
C61 C59 1.479 . S
C62 C57 1.245 . S
C62 C58 1.477 . S
C62 H79 0.932 . S
C63 U46 2.882 . S
C63 C57 1.428 . S
C63 O66 1.301 . S
C63 O67 1.282 . S
O64 U46 2.441 . S
O64 C50 1.249 . S
O65 U46 2.420 . S
O65 C50 1.202 . S
O66 U46 2.455 . S
O66 C63 1.301 . S
O67 U46 2.449 . S
O67 C63 1.282 . S
H68 C41 0.931 . S
H69 C43 0.929 . S
H70 C44 0.930 1_655 S
H71 C45 0.931 . S
H72 C52 0.932 . S
H73 C53 0.930 . S
H74 C54 0.936 . S
H75 C56 0.929 1_655 S
H76 C58 0.932 . S
H77 C59 0.929 . S
H78 C60 0.928 . S
H79 C62 0.932 . S
C80 C81 1.264 . S
C80 C85 1.479 . S
C80 C90 1.465 . S
C81 C80 1.264 . S
C81 C83 1.339 . S
C81 H108 0.931 . S
C82 C83 1.395 . S
C82 C84 1.320 . S
C83 C81 1.339 . S
C83 C82 1.395 . S
C83 H109 0.929 . S
C84 C82 1.320 . S
C84 C85 1.405 . S
C84 H110 0.921 1_545 S
C85 C80 1.479 . S
C85 C84 1.405 . S
C85 H111 0.931 . S
U86 O87 2.454 . S
U86 O88 2.458 . S
U86 C89 2.984 . S
U86 C90 2.847 . S
U86 C103 2.882 . S
U86 O104 2.441 . S
U86 O105 2.420 . S
U86 O106 2.455 . S
U86 O107 2.449 . S
O87 U86 2.454 . S
O87 C89 1.353 . S
O88 U86 2.458 . S
O88 C89 1.286 . S
C89 U86 2.984 . S
C89 O87 1.353 . S
C89 O88 1.286 . S
C89 C91 1.363 . S
C90 C80 1.465 . S
C90 U86 2.847 . S
C90 O104 1.249 . S
C90 O105 1.202 . S
C91 C89 1.363 . S
C91 C93 1.408 . S
C91 C96 1.342 . S
C92 C93 1.310 . S
C92 C95 1.461 . S
C92 H112 0.936 . S
C93 C91 1.408 . S
C93 C92 1.310 . S
C93 H113 0.930 . S
C94 C95 1.474 1_565 S
C94 C96 1.285 1_565 S
C94 H114 0.930 . S
C95 C92 1.461 . S
C95 C94 1.474 1_545 S
C96 C91 1.342 . S
C96 C94 1.285 1_545 S
C96 H115 0.932 . S
C97 C100 1.424 . S
C97 C102 1.245 . S
C97 C103 1.428 . S
C98 C101 1.260 . S
C98 C102 1.477 . S
C98 H116 0.932 . S
C99 C100 1.384 . S
C99 C101 1.479 . S
C99 H117 0.929 . S
C100 C97 1.424 . S
C100 C99 1.384 . S
C100 H118 0.928 . S
C101 C98 1.260 . S
C101 C99 1.479 . S
C102 C97 1.245 . S
C102 C98 1.477 . S
C102 H119 0.932 . S
C103 U86 2.882 . S
C103 C97 1.428 . S
C103 O106 1.301 . S
C103 O107 1.282 . S
O104 U86 2.441 . S
O104 C90 1.249 . S
O105 U86 2.420 . S
O105 C90 1.202 . S
O106 U86 2.455 . S
O106 C103 1.301 . S
O107 U86 2.449 . S
O107 C103 1.282 . S
H108 C81 0.931 . S
H109 C83 0.929 . S
H110 C84 0.921 1_565 S
H111 C85 0.931 . S
H112 C92 0.936 . S
H113 C93 0.930 . S
H114 C94 0.930 . S
H115 C96 0.932 . S
H116 C98 0.932 . S
H117 C99 0.929 . S
H118 C100 0.928 . S
H119 C102 0.932 . S
C120 C121 1.264 . S
C120 C125 1.479 . S
C120 C130 1.465 . S
C121 C120 1.264 . S
C121 C123 1.339 . S
C121 H148 0.931 . S
C122 C123 1.395 . S
C122 C124 1.320 . S
C123 C121 1.339 . S
C123 C122 1.395 . S
C123 H149 0.929 . S
C124 C122 1.320 . S
C124 C125 1.405 . S
C124 H150 0.930 . S
C125 C120 1.479 . S
C125 C124 1.405 . S
C125 H151 0.931 . S
U126 O127 2.454 . S
U126 O128 2.458 . S
U126 C129 2.984 . S
U126 C130 2.847 . S
U126 C143 2.882 . S
U126 O144 2.441 . S
U126 O145 2.420 . S
U126 O146 2.455 . S
U126 O147 2.449 . S
O127 U126 2.454 . S
O127 C129 1.353 . S
O128 U126 2.458 . S
O128 C129 1.286 . S
C129 U126 2.984 . S
C129 O127 1.353 . S
C129 O128 1.286 . S
C129 C131 1.363 . S
C130 C120 1.465 . S
C130 U126 2.847 . S
C130 O144 1.249 . S
C130 O145 1.202 . S
C131 C129 1.363 . S
C131 C133 1.408 . S
C131 C136 1.342 . S
C132 C133 1.310 . S
C132 C135 1.461 . S
C132 H152 0.932 . S
C133 C131 1.408 . S
C133 C132 1.310 . S
C133 H153 0.930 . S
C134 C135 1.474 . S
C134 C136 1.285 . S
C134 H154 0.929 . S
C135 C132 1.461 . S
C135 C134 1.474 . S
C136 C131 1.342 . S
C136 C134 1.285 . S
C136 H155 0.930 . S
C137 C140 1.424 . S
C137 C142 1.245 . S
C137 C143 1.428 . S
C138 C141 1.260 . S
C138 C142 1.477 . S
C138 H156 0.932 . S
C139 C140 1.384 . S
C139 C141 1.479 . S
C139 H157 0.929 . S
C140 C137 1.424 . S
C140 C139 1.384 . S
C140 H158 0.928 . S
C141 C138 1.260 . S
C141 C139 1.479 . S
C142 C137 1.245 . S
C142 C138 1.477 . S
C142 H159 0.932 . S
C143 U126 2.882 . S
C143 C137 1.428 . S
C143 O146 1.301 . S
C143 O147 1.282 . S
O144 U126 2.441 . S
O144 C130 1.249 . S
O145 U126 2.420 . S
O145 C130 1.202 . S
O146 U126 2.455 . S
O146 C143 1.301 . S
O147 U126 2.449 . S
O147 C143 1.282 . S
H148 C121 0.931 . S
H149 C123 0.929 . S
H150 C124 0.930 . S
H151 C125 0.931 . S
H152 C132 0.932 . S
H153 C133 0.930 . S
H154 C134 0.929 . S
H155 C136 0.930 . S
H156 C138 0.932 . S
H157 C139 0.929 . S
H158 C140 0.928 . S
H159 C142 0.932 . S
C160 C161 1.264 . S
C160 C165 1.479 . S
C160 C170 1.465 . S
C161 C160 1.264 . S
C161 C163 1.339 . S
C161 H188 0.931 . S
C162 C163 1.395 . S
C162 C164 1.320 . S
C163 C161 1.339 . S
C163 C162 1.395 . S
C163 H189 0.929 . S
C164 C162 1.320 . S
C164 C165 1.405 . S
C164 H190 0.930 . S
C165 C160 1.479 . S
C165 C164 1.405 . S
C165 H191 0.931 . S
U166 O167 2.454 . S
U166 O168 2.458 . S
U166 C169 2.984 . S
U166 C170 2.847 1_554 S
U166 C183 2.882 . S
U166 O184 2.441 1_554 S
U166 O185 2.420 1_554 S
U166 O186 2.455 . S
U166 O187 2.449 . S
O167 U166 2.454 . S
O167 C169 1.353 . S
O168 U166 2.458 . S
O168 C169 1.286 . S
C169 U166 2.984 . S
C169 O167 1.353 . S
C169 O168 1.286 . S
C169 C171 1.363 . S
C170 C160 1.465 . S
C170 U166 2.847 1_556 S
C170 O184 1.249 . S
C170 O185 1.202 . S
C171 C169 1.363 . S
C171 C173 1.408 . S
C171 C176 1.342 . S
C172 C173 1.310 . S
C172 C175 1.461 . S
C172 H192 0.932 . S
C173 C171 1.408 . S
C173 C172 1.310 . S
C173 H193 0.930 . S
C174 C175 1.474 . S
C174 C176 1.285 . S
C174 H194 0.929 . S
C175 C172 1.461 . S
C175 C174 1.474 . S
C176 C171 1.342 . S
C176 C174 1.285 . S
C176 H195 0.930 . S
C177 C180 1.424 . S
C177 C182 1.245 . S
C177 C183 1.428 . S
C178 C181 1.260 . S
C178 C182 1.477 . S
C178 H196 0.932 . S
C179 C180 1.384 . S
C179 C181 1.479 . S
C179 H197 0.929 . S
C180 C177 1.424 . S
C180 C179 1.384 . S
C180 H198 0.928 . S
C181 C178 1.260 . S
C181 C179 1.479 . S
C182 C177 1.245 . S
C182 C178 1.477 . S
C182 H199 0.932 . S
C183 U166 2.882 . S
C183 C177 1.428 . S
C183 O186 1.301 . S
C183 O187 1.282 . S
O184 U166 2.441 1_556 S
O184 C170 1.249 . S
O185 U166 2.420 1_556 S
O185 C170 1.202 . S
O186 U166 2.455 . S
O186 C183 1.301 . S
O187 U166 2.449 . S
O187 C183 1.282 . S
H188 C161 0.931 . S
H189 C163 0.929 . S
H190 C164 0.930 . S
H191 C165 0.931 . S
H192 C172 0.932 . S
H193 C173 0.930 . S
H194 C174 0.929 . S
H195 C176 0.930 . S
H196 C178 0.932 . S
H197 C179 0.929 . S
H198 C180 0.928 . S
H199 C182 0.932 . S
C200 C201 1.264 . S
C200 C205 1.479 . S
C200 C210 1.465 . S
C201 C200 1.264 . S
C201 C203 1.339 . S
C201 H228 0.931 . S
C202 C203 1.395 . S
C202 C204 1.320 . S
C203 C201 1.339 . S
C203 C202 1.395 . S
C203 H229 0.929 . S
C204 C202 1.320 . S
C204 C205 1.405 . S
C204 H230 0.933 . S
C205 C200 1.479 . S
C205 C204 1.405 . S
C205 H231 0.931 . S
U206 O207 2.454 . S
U206 O208 2.458 . S
U206 C209 2.984 . S
U206 C210 2.847 1_554 S
U206 C223 2.882 . S
U206 O224 2.441 1_554 S
U206 O225 2.420 1_554 S
U206 O226 2.455 . S
U206 O227 2.449 . S
O207 U206 2.454 . S
O207 C209 1.353 . S
O208 U206 2.458 . S
O208 C209 1.286 . S
C209 U206 2.984 . S
C209 O207 1.353 . S
C209 O208 1.286 . S
C209 C211 1.363 . S
C210 C200 1.465 . S
C210 U206 2.847 1_556 S
C210 O224 1.249 . S
C210 O225 1.202 . S
C211 C209 1.363 . S
C211 C213 1.408 . S
C211 C216 1.342 . S
C212 C213 1.310 . S
C212 C215 1.461 . S
C212 H232 0.932 . S
C213 C211 1.408 . S
C213 C212 1.310 . S
C213 H233 0.930 . S
C214 C215 1.476 . S
C214 C216 1.290 . S
C214 H234 0.925 1_455 S
C215 C212 1.461 . S
C215 C214 1.476 . S
C216 C211 1.342 . S
C216 C214 1.290 . S
C216 H235 0.930 . S
C217 C220 1.424 . S
C217 C222 1.245 . S
C217 C223 1.428 . S
C218 C221 1.260 . S
C218 C222 1.477 . S
C218 H236 0.932 . S
C219 C220 1.384 . S
C219 C221 1.479 . S
C219 H237 0.929 . S
C220 C217 1.424 . S
C220 C219 1.384 . S
C220 H238 0.928 . S
C221 C218 1.260 . S
C221 C219 1.479 . S
C222 C217 1.245 . S
C222 C218 1.477 . S
C222 H239 0.932 . S
C223 U206 2.882 . S
C223 C217 1.428 . S
C223 O226 1.301 . S
C223 O227 1.282 . S
O224 U206 2.441 1_556 S
O224 C210 1.249 . S
O225 U206 2.420 1_556 S
O225 C210 1.202 . S
O226 U206 2.455 . S
O226 C223 1.301 . S
O227 U206 2.449 . S
O227 C223 1.282 . S
H228 C201 0.931 . S
H229 C203 0.929 . S
H230 C204 0.933 . S
H231 C205 0.931 . S
H232 C212 0.932 . S
H233 C213 0.930 . S
H234 C214 0.925 1_655 S
H235 C216 0.930 . S
H236 C218 0.932 . S
H237 C219 0.929 . S
H238 C220 0.928 . S
H239 C222 0.932 . S
C240 C241 1.264 . S
C240 C245 1.479 . S
C240 C250 1.465 . S
C241 C240 1.264 . S
C241 C243 1.339 . S
C241 H268 0.931 . S
C242 C243 1.395 . S
C242 C244 1.320 . S
C243 C241 1.339 . S
C243 C242 1.395 . S
C243 H269 0.929 . S
C244 C242 1.320 . S
C244 C245 1.405 . S
C244 H270 0.924 1_545 S
C245 C240 1.479 . S
C245 C244 1.405 . S
C245 H271 0.931 . S
U246 O247 2.454 . S
U246 O248 2.458 . S
U246 C249 2.984 . S
U246 C250 2.847 1_554 S
U246 C263 2.882 . S
U246 O264 2.441 1_554 S
U246 O265 2.420 1_554 S
U246 O266 2.455 . S
U246 O267 2.449 . S
O247 U246 2.454 . S
O247 C249 1.353 . S
O248 U246 2.458 . S
O248 C249 1.286 . S
C249 U246 2.984 . S
C249 O247 1.353 . S
C249 O248 1.286 . S
C249 C251 1.363 . S
C250 C240 1.465 . S
C250 U246 2.847 1_556 S
C250 O264 1.249 . S
C250 O265 1.202 . S
C251 C249 1.363 . S
C251 C253 1.408 . S
C251 C256 1.342 . S
C252 C253 1.310 . S
C252 C255 1.462 . S
C252 H272 0.932 . S
C253 C251 1.408 . S
C253 C252 1.310 . S
C253 H273 0.930 . S
C254 C255 1.474 1_565 S
C254 C256 1.286 1_565 S
C254 H274 0.929 . S
C255 C252 1.462 . S
C255 C254 1.474 1_545 S
C256 C251 1.342 . S
C256 C254 1.286 1_545 S
C256 H275 0.934 . S
C257 C260 1.424 . S
C257 C262 1.245 . S
C257 C263 1.428 . S
C258 C261 1.260 . S
C258 C262 1.477 . S
C258 H276 0.932 . S
C259 C260 1.384 . S
C259 C261 1.479 . S
C259 H277 0.929 . S
C260 C257 1.424 . S
C260 C259 1.384 . S
C260 H278 0.928 . S
C261 C258 1.260 . S
C261 C259 1.479 . S
C262 C257 1.245 . S
C262 C258 1.477 . S
C262 H279 0.932 . S
C263 U246 2.882 . S
C263 C257 1.428 . S
C263 O266 1.301 . S
C263 O267 1.282 . S
O264 U246 2.441 1_556 S
O264 C250 1.249 . S
O265 U246 2.420 1_556 S
O265 C250 1.202 . S
O266 U246 2.455 . S
O266 C263 1.301 . S
O267 U246 2.449 . S
O267 C263 1.282 . S
H268 C241 0.931 . S
H269 C243 0.929 . S
H270 C244 0.924 1_565 S
H271 C245 0.931 . S
H272 C252 0.932 . S
H273 C253 0.930 . S
H274 C254 0.929 . S
H275 C256 0.934 . S
H276 C258 0.932 . S
H277 C259 0.929 . S
H278 C260 0.928 . S
H279 C262 0.932 . S
C280 C281 1.264 . S
C280 C285 1.479 . S
C280 C290 1.465 . S
C281 C280 1.264 . S
C281 C283 1.339 . S
C281 H308 0.931 . S
C282 C283 1.395 . S
C282 C284 1.320 . S
C283 C281 1.339 . S
C283 C282 1.395 . S
C283 H309 0.929 . S
C284 C282 1.320 . S
C284 C285 1.405 . S
C284 H310 0.930 . S
C285 C280 1.479 . S
C285 C284 1.405 . S
C285 H311 0.931 . S
U286 O287 2.454 . S
U286 O288 2.458 . S
U286 C289 2.984 . S
U286 C290 2.847 1_554 S
U286 C303 2.882 . S
U286 O304 2.441 1_554 S
U286 O305 2.420 1_554 S
U286 O306 2.455 . S
U286 O307 2.449 . S
O287 U286 2.454 . S
O287 C289 1.353 . S
O288 U286 2.458 . S
O288 C289 1.286 . S
C289 U286 2.984 . S
C289 O287 1.353 . S
C289 O288 1.286 . S
C289 C291 1.363 . S
C290 C280 1.465 . S
C290 U286 2.847 1_556 S
C290 O304 1.249 . S
C290 O305 1.202 . S
C291 C289 1.363 . S
C291 C293 1.408 . S
C291 C296 1.342 . S
C292 C293 1.310 . S
C292 C295 1.461 . S
C292 H312 0.932 . S
C293 C291 1.408 . S
C293 C292 1.310 . S
C293 H313 0.930 . S
C294 C295 1.474 . S
C294 C296 1.285 . S
C294 H314 0.929 . S
C295 C292 1.461 . S
C295 C294 1.474 . S
C296 C291 1.342 . S
C296 C294 1.285 . S
C296 H315 0.930 . S
C297 C300 1.424 . S
C297 C302 1.245 . S
C297 C303 1.428 . S
C298 C301 1.260 . S
C298 C302 1.477 . S
C298 H316 0.932 . S
C299 C300 1.384 . S
C299 C301 1.479 . S
C299 H317 0.929 . S
C300 C297 1.424 . S
C300 C299 1.384 . S
C300 H318 0.928 . S
C301 C298 1.260 . S
C301 C299 1.479 . S
C302 C297 1.245 . S
C302 C298 1.477 . S
C302 H319 0.932 . S
C303 U286 2.882 . S
C303 C297 1.428 . S
C303 O306 1.301 . S
C303 O307 1.282 . S
O304 U286 2.441 1_556 S
O304 C290 1.249 . S
O305 U286 2.420 1_556 S
O305 C290 1.202 . S
O306 U286 2.455 . S
O306 C303 1.301 . S
O307 U286 2.449 . S
O307 C303 1.282 . S
H308 C281 0.931 . S
H309 C283 0.929 . S
H310 C284 0.930 . S
H311 C285 0.931 . S
H312 C292 0.932 . S
H313 C293 0.930 . S
H314 C294 0.929 . S
H315 C296 0.930 . S
H316 C298 0.932 . S
H317 C299 0.929 . S
H318 C300 0.928 . S
H319 C302 0.932 . S
C320 Eu321 2.835 . S
C320 C322 1.500 . S
C320 O340 1.315 . S
C320 O341 1.260 . S
Eu321 C320 2.835 . S
Eu321 O340 2.498 . S
Eu321 O341 2.480 . S
Eu321 O342 2.430 . S
Eu321 O343 2.670 1_545 S
Eu321 O344 2.394 . S
Eu321 O349 2.355 1_655 S
Eu321 O351 2.374 1_545 S
C322 C320 1.500 . S
C322 C323 1.377 . S
C322 C327 1.377 . S
C323 C322 1.377 . S
C323 C324 1.395 . S
C323 H352 0.931 . S
C324 C323 1.395 . S
C324 C325 1.383 . S
C324 H353 0.931 . S
C325 C324 1.383 . S
C325 C326 1.394 . S
C326 C325 1.394 . S
C326 C327 1.378 . S
C326 H354 0.931 1_655 S
C327 C322 1.377 . S
C327 C326 1.378 . S
C327 H355 0.931 1_655 S
C328 O342 1.282 . S
C328 O343 1.254 1_545 S
C329 O344 1.251 1_455 S
C329 O345 1.251 . S
C330 Eu331 2.835 . S
C330 C332 1.500 . S
C330 O346 1.257 . S
C330 O347 1.260 . S
Eu331 C330 2.835 . S
Eu331 O343 2.355 1_455 S
Eu331 O345 2.374 1_565 S
Eu331 O346 2.473 . S
Eu331 O347 2.480 . S
Eu331 O348 2.430 . S
Eu331 O349 2.670 1_565 S
Eu331 O350 2.394 . S
C332 C330 1.500 . S
C332 C333 1.377 . S
C332 C337 1.377 . S
C333 C332 1.377 . S
C333 C334 1.395 . S
C333 H356 0.931 . S
C334 C333 1.395 . S
C334 C335 1.383 . S
C334 H357 0.931 . S
C335 C334 1.383 . S
C335 C336 1.394 . S
C336 C335 1.394 . S
C336 C337 1.378 . S
C336 H358 0.931 1_455 S
C337 C332 1.377 . S
C337 C336 1.378 . S
C337 H359 0.931 1_455 S
C338 O348 1.274 . S
C338 O349 1.259 1_565 S
C339 O350 1.251 1_655 S
C339 O351 1.251 . S
O340 C320 1.315 . S
O340 Eu321 2.498 . S
O341 C320 1.260 . S
O341 Eu321 2.480 . S
O342 Eu321 2.430 . S
O342 C328 1.282 . S
O343 Eu321 2.670 1_565 S
O343 C328 1.254 1_565 S
O343 Eu331 2.355 1_655 S
O344 Eu321 2.394 . S
O344 C329 1.251 1_655 S
O345 C329 1.251 . S
O345 Eu331 2.374 1_545 S
O346 C330 1.257 . S
O346 Eu331 2.473 . S
O347 C330 1.260 . S
O347 Eu331 2.480 . S
O348 Eu331 2.430 . S
O348 C338 1.274 . S
O349 Eu321 2.355 1_455 S
O349 Eu331 2.670 1_545 S
O349 C338 1.259 1_545 S
O350 Eu331 2.394 . S
O350 C339 1.251 1_455 S
O351 Eu321 2.374 1_565 S
O351 C339 1.251 . S
H352 C323 0.931 . S
H353 C324 0.931 . S
H354 C326 0.931 1_455 S
H355 C327 0.931 1_455 S
H356 C333 0.931 . S
H357 C334 0.931 . S
H358 C336 0.931 1_655 S
H359 C337 0.931 1_655 S
C360 Eu361 2.835 . S
C360 C362 1.500 . S
C360 O380 1.257 . S
C360 O381 1.260 . S
Eu361 C360 2.835 . S
Eu361 O380 2.473 . S
Eu361 O381 2.480 . S
Eu361 O382 2.430 . S
Eu361 O383 2.670 . S
Eu361 O384 2.394 . S
Eu361 O389 2.355 1_565 S
Eu361 O391 2.374 . S
C362 C360 1.500 . S
C362 C363 1.377 . S
C362 C367 1.377 . S
C363 C362 1.377 . S
C363 C364 1.395 . S
C363 H392 0.931 . S
C364 C363 1.395 . S
C364 C365 1.383 . S
C364 H393 0.931 . S
C365 C364 1.383 . S
C365 C366 1.394 . S
C366 C365 1.394 . S
C366 C367 1.378 . S
C366 H394 0.931 1_565 S
C367 C362 1.377 . S
C367 C366 1.378 . S
C367 H395 0.931 1_565 S
C368 O382 1.259 . S
C368 O383 1.270 . S
C369 O384 1.251 1_545 S
C369 O385 1.251 . S
C370 Eu371 2.835 . S
C370 C372 1.500 . S
C370 O386 1.257 . S
C370 O387 1.260 . S
Eu371 C370 2.835 . S
Eu371 O383 2.355 1_545 S
Eu371 O385 2.374 . S
Eu371 O386 2.473 . S
Eu371 O387 2.480 . S
Eu371 O388 2.430 . S
Eu371 O389 2.670 . S
Eu371 O390 2.394 . S
C372 C370 1.500 . S
C372 C373 1.377 . S
C372 C377 1.377 . S
C373 C372 1.377 . S
C373 C374 1.395 . S
C373 H396 0.931 . S
C374 C373 1.395 . S
C374 C375 1.383 . S
C374 H397 0.931 . S
C375 C374 1.383 . S
C375 C376 1.394 . S
C376 C375 1.394 . S
C376 C377 1.378 . S
C376 H398 0.931 1_545 S
C377 C372 1.377 . S
C377 C376 1.378 . S
C377 H399 0.931 1_545 S
C378 O388 1.259 . S
C378 O389 1.270 . S
C379 O390 1.251 1_565 S
C379 O391 1.251 . S
O380 C360 1.257 . S
O380 Eu361 2.473 . S
O381 C360 1.260 . S
O381 Eu361 2.480 . S
O382 Eu361 2.430 . S
O382 C368 1.259 . S
O383 Eu361 2.670 . S
O383 C368 1.270 . S
O383 Eu371 2.355 1_565 S
O384 Eu361 2.394 . S
O384 C369 1.251 1_565 S
O385 C369 1.251 . S
O385 Eu371 2.374 . S
O386 C370 1.257 . S
O386 Eu371 2.473 . S
O387 C370 1.260 . S
O387 Eu371 2.480 . S
O388 Eu371 2.430 . S
O388 C378 1.259 . S
O389 Eu361 2.355 1_545 S
O389 Eu371 2.670 . S
O389 C378 1.270 . S
O390 Eu371 2.394 . S
O390 C379 1.251 1_545 S
O391 Eu361 2.374 . S
O391 C379 1.251 . S
H392 C363 0.931 . S
H393 C364 0.931 . S
H394 C366 0.931 1_545 S
H395 C367 0.931 1_545 S
H396 C373 0.931 . S
H397 C374 0.931 . S
H398 C376 0.931 1_565 S
H399 C377 0.931 1_565 S
C400 Eu401 2.835 . S
C400 C402 1.500 . S
C400 O420 1.257 . S
C400 O421 1.260 . S
Eu401 C400 2.835 . S
Eu401 O420 2.473 . S
Eu401 O421 2.480 . S
Eu401 O422 2.430 . S
Eu401 O423 2.670 . S
Eu401 O424 2.394 . S
Eu401 O429 2.355 . S
Eu401 O431 2.374 . S
C402 C400 1.500 . S
C402 C403 1.377 . S
C402 C407 1.377 . S
C403 C402 1.377 . S
C403 C404 1.395 . S
C403 H432 0.931 . S
C404 C403 1.395 . S
C404 C405 1.383 . S
C404 H433 0.931 . S
C405 C404 1.383 . S
C405 C406 1.394 . S
C406 C405 1.394 . S
C406 C407 1.378 . S
C406 H434 0.931 . S
C407 C402 1.377 . S
C407 C406 1.378 . S
C407 H435 0.931 . S
C408 O422 1.259 . S
C408 O423 1.270 . S
C409 O424 1.251 . S
C409 O425 1.251 . S
C410 Eu411 2.835 . S
C410 C412 1.500 . S
C410 O426 1.257 . S
C410 O427 1.260 . S
Eu411 C410 2.835 . S
Eu411 O423 2.355 . S
Eu411 O425 2.374 . S
Eu411 O426 2.473 . S
Eu411 O427 2.480 . S
Eu411 O428 2.430 . S
Eu411 O429 2.670 . S
Eu411 O430 2.394 . S
C412 C410 1.500 . S
C412 C413 1.377 . S
C412 C417 1.377 . S
C413 C412 1.377 . S
C413 C414 1.395 . S
C413 H436 0.931 . S
C414 C413 1.395 . S
C414 C415 1.383 . S
C414 H437 0.931 . S
C415 C414 1.383 . S
C415 C416 1.394 . S
C416 C415 1.394 . S
C416 C417 1.378 . S
C416 H438 0.931 . S
C417 C412 1.377 . S
C417 C416 1.378 . S
C417 H439 0.931 . S
C418 O428 1.259 . S
C418 O429 1.270 . S
C419 O430 1.251 . S
C419 O431 1.251 . S
O420 C400 1.257 . S
O420 Eu401 2.473 . S
O421 C400 1.260 . S
O421 Eu401 2.480 . S
O422 Eu401 2.430 . S
O422 C408 1.259 . S
O423 Eu401 2.670 . S
O423 C408 1.270 . S
O423 Eu411 2.355 . S
O424 Eu401 2.394 . S
O424 C409 1.251 . S
O425 C409 1.251 . S
O425 Eu411 2.374 . S
O426 C410 1.257 . S
O426 Eu411 2.473 . S
O427 C410 1.260 . S
O427 Eu411 2.480 . S
O428 Eu411 2.430 . S
O428 C418 1.259 . S
O429 Eu401 2.355 . S
O429 Eu411 2.670 . S
O429 C418 1.270 . S
O430 Eu411 2.394 . S
O430 C419 1.251 . S
O431 Eu401 2.374 . S
O431 C419 1.251 . S
H432 C403 0.931 . S
H433 C404 0.931 . S
H434 C406 0.931 . S
H435 C407 0.931 . S
H436 C413 0.931 . S
H437 C414 0.931 . S
H438 C416 0.931 . S
H439 C417 0.931 . S
C440 Eu441 2.835 . S
C440 C442 1.500 . S
C440 O460 1.257 . S
C440 O461 1.260 . S
Eu441 C440 2.835 . S
Eu441 O460 2.473 . S
Eu441 O461 2.480 . S
Eu441 O462 2.430 . S
Eu441 O463 2.670 1_455 S
Eu441 O464 2.394 . S
Eu441 O469 2.355 . S
Eu441 O471 2.374 1_455 S
C442 C440 1.500 . S
C442 C443 1.377 . S
C442 C447 1.377 . S
C443 C442 1.377 . S
C443 C444 1.395 . S
C443 H472 0.931 . S
C444 C443 1.395 . S
C444 C445 1.383 . S
C444 H473 0.931 . S
C445 C444 1.383 . S
C445 C446 1.394 . S
C446 C445 1.394 . S
C446 C447 1.378 . S
C446 H474 0.931 . S
C447 C442 1.377 . S
C447 C446 1.378 . S
C447 H475 0.931 . S
C448 O462 1.278 . S
C448 O463 1.257 1_455 S
C449 O464 1.251 . S
C449 O465 1.251 . S
C450 Eu451 2.835 . S
C450 C452 1.500 . S
C450 O466 1.257 . S
C450 O467 1.260 . S
Eu451 C450 2.835 . S
Eu451 O463 2.355 . S
Eu451 O465 2.374 1_655 S
Eu451 O466 2.473 . S
Eu451 O467 2.480 . S
Eu451 O468 2.430 . S
Eu451 O469 2.670 1_655 S
Eu451 O470 2.394 . S
C452 C450 1.500 . S
C452 C453 1.377 . S
C452 C457 1.377 . S
C453 C452 1.377 . S
C453 C454 1.395 . S
C453 H476 0.931 . S
C454 C453 1.395 . S
C454 C455 1.383 . S
C454 H477 0.931 . S
C455 C454 1.383 . S
C455 C456 1.394 . S
C456 C455 1.394 . S
C456 C457 1.378 . S
C456 H478 0.931 . S
C457 C452 1.377 . S
C457 C456 1.378 . S
C457 H479 0.931 . S
C458 O468 1.270 . S
C458 O469 1.262 1_655 S
C459 O470 1.251 . S
C459 O471 1.251 . S
O460 C440 1.257 . S
O460 Eu441 2.473 . S
O461 C440 1.260 . S
O461 Eu441 2.480 . S
O462 Eu441 2.430 . S
O462 C448 1.278 . S
O463 Eu441 2.670 1_655 S
O463 C448 1.257 1_655 S
O463 Eu451 2.355 . S
O464 Eu441 2.394 . S
O464 C449 1.251 . S
O465 C449 1.251 . S
O465 Eu451 2.374 1_455 S
O466 C450 1.257 . S
O466 Eu451 2.473 . S
O467 C450 1.260 . S
O467 Eu451 2.480 . S
O468 Eu451 2.430 . S
O468 C458 1.270 . S
O469 Eu441 2.355 . S
O469 Eu451 2.670 1_455 S
O469 C458 1.262 1_455 S
O470 Eu451 2.394 . S
O470 C459 1.251 . S
O471 Eu441 2.374 1_655 S
O471 C459 1.251 . S
H472 C443 0.931 . S
H473 C444 0.931 . S
H474 C446 0.931 . S
H475 C447 0.931 . S
H476 C453 0.931 . S
H477 C454 0.931 . S
H478 C456 0.931 . S
H479 C457 0.931 . S
C480 C481 1.352 . S
C480 C482 1.327 . S
C480 H505 0.950 . S
C481 C480 1.352 . S
C481 C497 1.345 1_545 S
C482 C480 1.327 . S
C482 C501 1.439 . S
C482 H506 0.950 . S
C483 C500 1.574 . S
C483 C502 1.353 1_565 S
C483 H507 0.949 . S
H484 C488 0.949 . S
C485 C486 1.318 1_565 S
C485 C487 1.327 . S
C485 H508 0.950 . S
C486 C485 1.318 1_545 S
C486 C498 1.380 . S
C487 C485 1.327 . S
C487 C503 1.405 1_565 S
C487 H509 0.950 . S
C488 H484 0.949 . S
C488 C496 1.574 . S
C488 C504 1.390 . S
H489 C497 0.950 . S
H490 C495 0.950 . S
H491 C496 0.949 . S
H492 C498 0.950 . S
H493 C499 0.950 . S
H494 C500 0.949 . S
C495 H490 0.950 . S
C495 C497 1.327 . S
C495 C501 1.419 1_565 S
C496 C488 1.574 . S
C496 H491 0.949 . S
C496 C502 1.383 . S
C497 C481 1.345 1_565 S
C497 H489 0.950 . S
C497 C495 1.327 . S
C498 C486 1.380 . S
C498 H492 0.950 . S
C498 C499 1.327 . S
C499 H493 0.950 . S
C499 C498 1.327 . S
C499 C503 1.452 . S
C500 C483 1.574 . S
C500 H494 0.949 . S
C500 C504 1.346 1_565 S
C501 C482 1.439 . S
C501 C495 1.419 1_545 S
C501 C502 1.523 . S
C502 C483 1.353 1_545 S
C502 C496 1.383 . S
C502 C501 1.523 . S
C503 C487 1.405 1_545 S
C503 C499 1.452 . S
C503 C504 1.523 . S
C504 C488 1.390 . S
C504 C500 1.346 1_545 S
C504 C503 1.523 . S
H505 C480 0.950 . S
H506 C482 0.950 . S
H507 C483 0.949 . S
H508 C485 0.950 . S
H509 C487 0.950 . S
C510 C511 1.349 . S
C510 C512 1.327 . S
C510 H535 0.950 . S
C511 C510 1.349 . S
C511 C527 1.349 . S
C512 C510 1.327 . S
C512 C531 1.429 . S
C512 H536 0.950 . S
C513 C530 1.574 . S
C513 C532 1.368 . S
C513 H537 0.949 . S
H514 C518 0.949 . S
C515 C516 1.349 . S
C515 C517 1.327 . S
C515 H538 0.950 . S
C516 C515 1.349 . S
C516 C528 1.349 . S
C517 C515 1.327 . S
C517 C533 1.429 . S
C517 H539 0.950 . S
C518 H514 0.949 . S
C518 C526 1.574 . S
C518 C534 1.368 . S
H519 C527 0.950 . S
H520 C525 0.950 . S
H521 C526 0.949 . S
H522 C528 0.950 . S
H523 C529 0.950 . S
H524 C530 0.949 . S
C525 H520 0.950 . S
C525 C527 1.327 . S
C525 C531 1.429 . S
C526 C518 1.574 . S
C526 H521 0.949 . S
C526 C532 1.368 . S
C527 C511 1.349 . S
C527 H519 0.950 . S
C527 C525 1.327 . S
C528 C516 1.349 . S
C528 H522 0.950 . S
C528 C529 1.327 . S
C529 H523 0.950 . S
C529 C528 1.327 . S
C529 C533 1.429 . S
C530 C513 1.574 . S
C530 H524 0.949 . S
C530 C534 1.368 . S
C531 C512 1.429 . S
C531 C525 1.429 . S
C531 C532 1.523 . S
C532 C513 1.368 . S
C532 C526 1.368 . S
C532 C531 1.523 . S
C533 C517 1.429 . S
C533 C529 1.429 . S
C533 C534 1.523 . S
C534 C518 1.368 . S
C534 C530 1.368 . S
C534 C533 1.523 . S
H535 C510 0.950 . S
H536 C512 0.950 . S
H537 C513 0.949 . S
H538 C515 0.950 . S
H539 C517 0.950 . S
C540 C541 1.349 . S
C540 C542 1.327 . S
C540 H565 0.950 . S
C541 C540 1.349 . S
C541 C557 1.349 . S
C542 C540 1.327 . S
C542 C561 1.429 . S
C542 H566 0.950 . S
C543 C560 1.574 . S
C543 C562 1.368 . S
C543 H567 0.949 . S
H544 C548 0.949 . S
C545 C546 1.349 . S
C545 C547 1.327 . S
C545 H568 0.950 . S
C546 C545 1.349 . S
C546 C558 1.349 . S
C547 C545 1.327 . S
C547 C563 1.429 . S
C547 H569 0.950 . S
C548 H544 0.949 . S
C548 C556 1.574 . S
C548 C564 1.368 . S
H549 C557 0.950 . S
H550 C555 0.950 . S
H551 C556 0.949 . S
H552 C558 0.950 . S
H553 C559 0.950 . S
H554 C560 0.949 . S
C555 H550 0.950 . S
C555 C557 1.327 . S
C555 C561 1.429 . S
C556 C548 1.574 . S
C556 H551 0.949 . S
C556 C562 1.368 . S
C557 C541 1.349 . S
C557 H549 0.950 . S
C557 C555 1.327 . S
C558 C546 1.349 . S
C558 H552 0.950 . S
C558 C559 1.327 . S
C559 H553 0.950 . S
C559 C558 1.327 . S
C559 C563 1.429 . S
C560 C543 1.574 . S
C560 H554 0.949 . S
C560 C564 1.368 . S
C561 C542 1.429 . S
C561 C555 1.429 . S
C561 C562 1.523 . S
C562 C543 1.368 . S
C562 C556 1.368 . S
C562 C561 1.523 . S
C563 C547 1.429 . S
C563 C559 1.429 . S
C563 C564 1.523 . S
C564 C548 1.368 . S
C564 C560 1.368 . S
C564 C563 1.523 . S
H565 C540 0.950 . S
H566 C542 0.950 . S
H567 C543 0.949 . S
H568 C545 0.950 . S
H569 C547 0.950 . S
C570 C571 1.373 . S
C570 C572 1.327 . S
C570 H595 0.950 . S
C571 C570 1.373 . S
C571 C587 1.327 1_455 S
C572 C570 1.327 . S
C572 C591 1.452 . S
C572 H596 0.950 . S
C573 C590 1.574 . S
C573 C592 1.345 1_655 S
C573 H597 0.949 . S
H574 C578 0.949 . S
C575 C576 1.328 1_655 S
C575 C577 1.327 . S
C575 H598 0.950 . S
C576 C575 1.328 1_455 S
C576 C588 1.372 . S
C577 C575 1.327 . S
C577 C593 1.408 1_655 S
C577 H599 0.950 . S
C578 H574 0.949 . S
C578 C586 1.574 . S
C578 C594 1.394 . S
H579 C587 0.950 . S
H580 C585 0.950 . S
H581 C586 0.949 . S
H582 C588 0.950 . S
H583 C589 0.950 . S
H584 C590 0.949 . S
C585 H580 0.950 . S
C585 C587 1.327 . S
C585 C591 1.407 1_655 S
C586 C578 1.574 . S
C586 H581 0.949 . S
C586 C592 1.394 . S
C587 C571 1.327 1_655 S
C587 H579 0.950 . S
C587 C585 1.327 . S
C588 C576 1.372 . S
C588 H582 0.950 . S
C588 C589 1.327 . S
C589 H583 0.950 . S
C589 C588 1.327 . S
C589 C593 1.451 . S
C590 C573 1.574 . S
C590 H584 0.949 . S
C590 C594 1.345 1_655 S
C591 C572 1.452 . S
C591 C585 1.407 1_455 S
C591 C592 1.523 . S
C592 C573 1.345 1_455 S
C592 C586 1.394 . S
C592 C591 1.523 . S
C593 C577 1.408 1_455 S
C593 C589 1.451 . S
C593 C594 1.523 . S
C594 C578 1.394 . S
C594 C590 1.345 1_455 S
C594 C593 1.523 . S
H595 C570 0.950 . S
H596 C572 0.950 . S
H597 C573 0.949 . S
H598 C575 0.950 . S
H599 C577 0.950 . S
C600 C601 1.353 1_565 S
C600 C602 1.327 . S
C600 H625 0.950 . S
C601 C600 1.353 1_545 S
C601 C617 1.345 . S
C602 C600 1.327 . S
C602 C621 1.428 . S
C602 H626 0.950 . S
C603 C620 1.574 . S
C603 C622 1.364 1_546 S
C603 H627 0.949 1_556 S
H604 C608 0.949 . S
C605 C606 1.329 1_545 S
C605 C607 1.327 . S
C605 H628 0.950 . S
C606 C605 1.329 1_565 S
C606 C618 1.369 . S
C607 C605 1.327 . S
C607 C623 1.416 1_545 S
C607 H629 0.950 . S
C608 H604 0.949 . S
C608 C616 1.574 . S
C608 C624 1.378 . S
H609 C617 0.950 . S
H610 C615 0.950 . S
H611 C616 0.949 . S
H612 C618 0.950 . S
H613 C619 0.950 . S
H614 C620 0.949 . S
C615 H610 0.950 . S
C615 C617 1.327 . S
C615 C621 1.429 1_545 S
C616 C608 1.574 . S
C616 H611 0.949 . S
C616 C622 1.359 1_556 S
C617 C601 1.345 . S
C617 H609 0.950 . S
C617 C615 1.327 . S
C618 C606 1.369 . S
C618 H612 0.950 . S
C618 C619 1.327 . S
C619 H613 0.950 . S
C619 C618 1.327 . S
C619 C623 1.441 . S
C620 C603 1.574 . S
C620 H614 0.949 . S
C620 C624 1.358 1_545 S
C621 C602 1.428 . S
C621 C615 1.429 1_565 S
C621 C622 1.541 . S
C622 C603 1.364 1_564 S
C622 C616 1.359 1_554 S
C622 C621 1.541 . S
C623 C607 1.416 1_565 S
C623 C619 1.441 . S
C623 C624 1.523 . S
C624 C608 1.378 . S
C624 C620 1.358 1_565 S
C624 C623 1.523 . S
H625 C600 0.950 . S
H626 C602 0.950 . S
H627 C603 0.949 1_554 S
H628 C605 0.950 . S
H629 C607 0.950 . S
C630 C631 1.349 . S
C630 C632 1.327 . S
C630 H655 0.950 . S
C631 C630 1.349 . S
C631 C647 1.349 . S
C632 C630 1.327 . S
C632 C651 1.429 . S
C632 H656 0.950 . S
C633 C650 1.574 1_554 S
C633 C652 1.372 . S
C633 H657 0.949 . S
H634 C638 0.949 . S
C635 C636 1.349 . S
C635 C637 1.327 . S
C635 H658 0.950 . S
C636 C635 1.349 . S
C636 C648 1.349 . S
C637 C635 1.327 . S
C637 C653 1.429 . S
C637 H659 0.950 . S
C638 H634 0.949 . S
C638 C646 1.574 . S
C638 C654 1.368 . S
H639 C647 0.950 . S
H640 C645 0.950 . S
H641 C646 0.949 . S
H642 C648 0.950 . S
H643 C649 0.950 . S
H644 C650 0.949 . S
C645 H640 0.950 . S
C645 C647 1.327 . S
C645 C651 1.429 . S
C646 C638 1.574 . S
C646 H641 0.949 . S
C646 C652 1.351 1_556 S
C647 C631 1.349 . S
C647 H639 0.950 . S
C647 C645 1.327 . S
C648 C636 1.349 . S
C648 H642 0.950 . S
C648 C649 1.327 . S
C649 H643 0.950 . S
C649 C648 1.327 . S
C649 C653 1.429 . S
C650 C633 1.574 1_556 S
C650 H644 0.949 . S
C650 C654 1.368 . S
C651 C632 1.429 . S
C651 C645 1.429 . S
C651 C652 1.541 . S
C652 C633 1.372 . S
C652 C646 1.351 1_554 S
C652 C651 1.541 . S
C653 C637 1.429 . S
C653 C649 1.429 . S
C653 C654 1.523 . S
C654 C638 1.368 . S
C654 C650 1.368 . S
C654 C653 1.523 . S
H655 C630 0.950 . S
H656 C632 0.950 . S
H657 C633 0.949 . S
H658 C635 0.950 . S
H659 C637 0.950 . S
C660 C661 1.349 . S
C660 C662 1.327 . S
C660 H685 0.950 . S
C661 C660 1.349 . S
C661 C677 1.349 . S
C662 C660 1.327 . S
C662 C681 1.429 . S
C662 H686 0.950 . S
C663 C680 1.574 . S
C663 C682 1.356 1_556 S
C663 H687 0.949 . S
H664 C668 0.949 . S
C665 C666 1.349 . S
C665 C667 1.327 . S
C665 H688 0.950 . S
C666 C665 1.349 . S
C666 C678 1.349 . S
C667 C665 1.327 . S
C667 C683 1.429 . S
C667 H689 0.950 . S
C668 H664 0.949 . S
C668 C676 1.574 . S
C668 C684 1.368 . S
H669 C677 0.950 . S
H670 C675 0.950 . S
H671 C676 0.949 1_554 S
H672 C678 0.950 . S
H673 C679 0.950 . S
H674 C680 0.949 . S
C675 H670 0.950 . S
C675 C677 1.327 . S
C675 C681 1.429 . S
C676 C668 1.574 . S
C676 H671 0.949 1_556 S
C676 C682 1.367 1_556 S
C677 C661 1.349 . S
C677 H669 0.950 . S
C677 C675 1.327 . S
C678 C666 1.349 . S
C678 H672 0.950 . S
C678 C679 1.327 . S
C679 H673 0.950 . S
C679 C678 1.327 . S
C679 C683 1.429 . S
C680 C663 1.574 . S
C680 H674 0.949 . S
C680 C684 1.368 . S
C681 C662 1.429 . S
C681 C675 1.429 . S
C681 C682 1.541 . S
C682 C663 1.356 1_554 S
C682 C676 1.367 1_554 S
C682 C681 1.541 . S
C683 C667 1.429 . S
C683 C679 1.429 . S
C683 C684 1.523 . S
C684 C668 1.368 . S
C684 C680 1.368 . S
C684 C683 1.523 . S
H685 C660 0.950 . S
H686 C662 0.950 . S
H687 C663 0.949 . S
H688 C665 0.950 . S
H689 C667 0.950 . S
C690 C691 1.363 . S
C690 C692 1.327 . S
C690 H715 0.950 . S
C691 C690 1.363 . S
C691 C707 1.336 1_655 S
C692 C690 1.327 . S
C692 C711 1.442 . S
C692 H716 0.950 . S
C693 C710 1.574 . S
C693 C712 1.337 1_456 S
C693 H717 0.949 . S
H694 C698 0.949 . S
C695 C696 1.336 1_455 S
C695 C697 1.327 . S
C695 H718 0.950 . S
C696 C695 1.336 1_655 S
C696 C708 1.363 . S
C697 C695 1.327 . S
C697 C713 1.416 1_455 S
C697 H719 0.950 . S
C698 H694 0.949 . S
C698 C706 1.574 1_556 S
C698 C714 1.383 . S
H699 C707 0.950 . S
H700 C705 0.950 . S
H701 C706 0.949 . S
H702 C708 0.950 . S
H703 C709 0.950 . S
H704 C710 0.949 . S
C705 H700 0.950 . S
C705 C707 1.327 . S
C705 C711 1.416 1_455 S
C706 C698 1.574 1_554 S
C706 H701 0.949 . S
C706 C712 1.386 . S
C707 C691 1.336 1_455 S
C707 H699 0.950 . S
C707 C705 1.327 . S
C708 C696 1.363 . S
C708 H702 0.950 . S
C708 C709 1.327 . S
C709 H703 0.950 . S
C709 C708 1.327 . S
C709 C713 1.442 . S
C710 C693 1.574 . S
C710 H704 0.949 . S
C710 C714 1.355 1_455 S
C711 C692 1.442 . S
C711 C705 1.416 1_655 S
C711 C712 1.541 . S
C712 C693 1.337 1_654 S
C712 C706 1.386 . S
C712 C711 1.541 . S
C713 C697 1.416 1_655 S
C713 C709 1.442 . S
C713 C714 1.523 . S
C714 C698 1.383 . S
C714 C710 1.355 1_655 S
C714 C713 1.523 . S
H715 C690 0.950 . S
H716 C692 0.950 . S
H717 C693 0.949 . S
H718 C695 0.950 . S
H719 C697 0.950 . S
C720 C721 1.349 . S
C720 C722 1.327 . S
C720 H745 0.950 . S
C721 C720 1.349 . S
C721 C737 1.349 1_455 S
C722 C720 1.327 . S
C722 C741 1.429 1_455 S
C722 H746 0.950 . S
C723 C740 1.574 . S
C723 C742 1.368 . S
C723 H747 0.949 . S
H724 C728 0.932 1_455 S
C725 C726 1.349 . S
C725 C727 1.327 . S
C725 H748 0.950 . S
C726 C725 1.349 . S
C726 C738 1.349 . S
C727 C725 1.327 . S
C727 C743 1.429 . S
C727 H749 0.950 . S
C728 H724 0.932 1_655 S
C728 C736 1.568 1_655 S
C728 C744 1.394 . S
H729 C737 0.950 . S
H730 C735 0.950 . S
H731 C736 0.949 . S
H732 C738 0.950 . S
H733 C739 0.907 1_455 S
H734 C740 0.949 . S
C735 H730 0.950 . S
C735 C737 1.327 . S
C735 C741 1.429 . S
C736 C728 1.568 1_455 S
C736 H731 0.949 . S
C736 C742 1.368 1_455 S
C737 C721 1.349 1_655 S
C737 H729 0.950 . S
C737 C735 1.327 . S
C738 C726 1.349 . S
C738 H732 0.950 . S
C738 C739 1.327 . S
C739 H733 0.907 1_655 S
C739 C738 1.327 . S
C739 C743 1.429 . S
C740 C723 1.574 . S
C740 H734 0.949 . S
C740 C744 1.368 . S
C741 C722 1.429 1_655 S
C741 C735 1.429 . S
C741 C742 1.523 . S
C742 C723 1.368 . S
C742 C736 1.368 1_655 S
C742 C741 1.523 . S
C743 C727 1.429 . S
C743 C739 1.429 . S
C743 C744 1.523 . S
C744 C728 1.394 . S
C744 C740 1.368 . S
C744 C743 1.523 . S
H745 C720 0.950 . S
H746 C722 0.950 . S
H747 C723 0.949 . S
H748 C725 0.950 . S
H749 C727 0.950 . S
C750 C751 1.349 . S
C750 C752 1.327 . S
C750 H775 0.950 . S
C751 C750 1.349 . S
C751 C767 1.349 1_545 S
C752 C750 1.327 . S
C752 C771 1.429 1_545 S
C752 H776 0.950 . S
C753 C770 1.574 . S
C753 C772 1.368 . S
C753 H777 0.949 . S
H754 C758 0.949 . S
C755 C756 1.349 . S
C755 C757 1.327 . S
C755 H778 0.950 . S
C756 C755 1.349 . S
C756 C768 1.349 . S
C757 C755 1.327 . S
C757 C773 1.429 . S
C757 H779 0.950 . S
C758 H754 0.949 . S
C758 C766 1.574 . S
C758 C774 1.368 1_545 S
H759 C767 0.950 . S
H760 C765 0.950 . S
H761 C766 0.949 . S
H762 C768 0.950 1_545 S
H763 C769 0.950 1_545 S
H764 C770 0.949 . S
C765 H760 0.950 . S
C765 C767 1.327 . S
C765 C771 1.429 . S
C766 C758 1.574 . S
C766 H761 0.949 . S
C766 C772 1.368 1_545 S
C767 C751 1.349 1_565 S
C767 H759 0.950 . S
C767 C765 1.327 . S
C768 C756 1.349 . S
C768 H762 0.950 1_565 S
C768 C769 1.327 . S
C769 H763 0.950 1_565 S
C769 C768 1.327 . S
C769 C773 1.429 . S
C770 C753 1.574 . S
C770 H764 0.949 . S
C770 C774 1.368 . S
C771 C752 1.429 1_565 S
C771 C765 1.429 . S
C771 C772 1.523 . S
C772 C753 1.368 . S
C772 C766 1.368 1_565 S
C772 C771 1.523 . S
C773 C757 1.429 . S
C773 C769 1.429 . S
C773 C774 1.523 . S
C774 C758 1.368 1_565 S
C774 C770 1.368 . S
C774 C773 1.523 . S
H775 C750 0.950 . S
H776 C752 0.950 . S
H777 C753 0.949 . S
H778 C755 0.950 . S
H779 C757 0.950 . S
C780 C781 1.349 . S
C780 C782 1.327 . S
C780 H805 0.950 . S
C781 C780 1.349 . S
C781 C797 1.349 . S
C782 C780 1.327 . S
C782 C801 1.429 . S
C782 H806 0.950 . S
C783 C800 1.574 . S
C783 C802 1.368 . S
C783 H807 0.949 . S
H784 C788 0.949 . S
C785 C786 1.349 . S
C785 C787 1.327 . S
C785 H808 0.950 . S
C786 C785 1.349 . S
C786 C798 1.349 . S
C787 C785 1.327 . S
C787 C803 1.429 . S
C787 H809 0.950 . S
C788 H784 0.949 . S
C788 C796 1.574 . S
C788 C804 1.368 . S
H789 C797 0.950 . S
H790 C795 0.950 . S
H791 C796 0.949 . S
H792 C798 0.950 . S
H793 C799 0.950 . S
H794 C800 0.949 . S
C795 H790 0.950 . S
C795 C797 1.327 . S
C795 C801 1.429 . S
C796 C788 1.574 . S
C796 H791 0.949 . S
C796 C802 1.368 . S
C797 C781 1.349 . S
C797 H789 0.950 . S
C797 C795 1.327 . S
C798 C786 1.349 . S
C798 H792 0.950 . S
C798 C799 1.327 . S
C799 H793 0.950 . S
C799 C798 1.327 . S
C799 C803 1.429 . S
C800 C783 1.574 . S
C800 H794 0.949 . S
C800 C804 1.368 . S
C801 C782 1.429 . S
C801 C795 1.429 . S
C801 C802 1.523 . S
C802 C783 1.368 . S
C802 C796 1.368 . S
C802 C801 1.523 . S
C803 C787 1.429 . S
C803 C799 1.429 . S
C803 C804 1.523 . S
C804 C788 1.368 . S
C804 C800 1.368 . S
C804 C803 1.523 . S
H805 C780 0.950 . S
H806 C782 0.950 . S
H807 C783 0.949 . S
H808 C785 0.950 . S
H809 C787 0.950 . S
C810 C811 1.349 . S
C810 C812 1.327 . S
C810 H835 0.950 . S
C811 C810 1.349 . S
C811 C827 1.349 . S
C812 C810 1.327 . S
C812 C831 1.429 . S
C812 H836 0.950 . S
C813 C830 1.574 . S
C813 C832 1.368 . S
C813 H837 0.949 . S
H814 C818 0.949 . S
C815 C816 1.349 . S
C815 C817 1.327 . S
C815 H838 0.950 . S
C816 C815 1.349 . S
C816 C828 1.349 . S
C817 C815 1.327 . S
C817 C833 1.429 . S
C817 H839 0.950 . S
C818 H814 0.949 . S
C818 C826 1.574 . S
C818 C834 1.368 . S
H819 C827 0.950 . S
H820 C825 0.950 . S
H821 C826 0.949 . S
H822 C828 0.950 . S
H823 C829 0.950 . S
H824 C830 0.949 . S
C825 H820 0.950 . S
C825 C827 1.327 . S
C825 C831 1.429 . S
C826 C818 1.574 . S
C826 H821 0.949 . S
C826 C832 1.368 . S
C827 C811 1.349 . S
C827 H819 0.950 . S
C827 C825 1.327 . S
C828 C816 1.349 . S
C828 H822 0.950 . S
C828 C829 1.327 . S
C829 H823 0.950 . S
C829 C828 1.327 . S
C829 C833 1.429 . S
C830 C813 1.574 . S
C830 H824 0.949 . S
C830 C834 1.368 . S
C831 C812 1.429 . S
C831 C825 1.429 . S
C831 C832 1.523 . S
C832 C813 1.368 . S
C832 C826 1.368 . S
C832 C831 1.523 . S
C833 C817 1.429 . S
C833 C829 1.429 . S
C833 C834 1.523 . S
C834 C818 1.368 . S
C834 C830 1.368 . S
C834 C833 1.523 . S
H835 C810 0.950 . S
H836 C812 0.950 . S
H837 C813 0.949 . S
H838 C815 0.950 . S
H839 C817 0.950 . S
C840 C841 1.349 . S
C840 C842 1.327 1_554 S
C840 H865 0.950 . S
C841 C840 1.349 . S
C841 C857 1.349 1_655 S
C842 C840 1.327 1_556 S
C842 C861 1.429 1_656 S
C842 H866 0.950 . S
C843 C860 1.574 . S
C843 C862 1.368 . S
C843 H867 0.949 1_556 S
H844 C848 0.949 . S
C845 C846 1.349 . S
C845 C847 1.327 . S
C845 H868 0.950 . S
C846 C845 1.349 . S
C846 C858 1.349 . S
C847 C845 1.327 . S
C847 C863 1.429 . S
C847 H869 0.950 . S
C848 H844 0.949 . S
C848 C856 1.574 . S
C848 C864 1.368 1_655 S
H849 C857 0.950 . S
H850 C855 0.950 . S
H851 C856 0.949 . S
H852 C858 0.950 1_655 S
H853 C859 0.950 1_655 S
H854 C860 0.949 . S
C855 H850 0.950 . S
C855 C857 1.327 . S
C855 C861 1.429 . S
C856 C848 1.574 . S
C856 H851 0.949 . S
C856 C862 1.368 1_655 S
C857 C841 1.349 1_455 S
C857 H849 0.950 . S
C857 C855 1.327 . S
C858 C846 1.349 . S
C858 H852 0.950 1_455 S
C858 C859 1.327 . S
C859 H853 0.950 1_455 S
C859 C858 1.327 . S
C859 C863 1.429 . S
C860 C843 1.574 . S
C860 H854 0.949 . S
C860 C864 1.368 . S
C861 C842 1.429 1_454 S
C861 C855 1.429 . S
C861 C862 1.523 1_554 S
C862 C843 1.368 . S
C862 C856 1.368 1_455 S
C862 C861 1.523 1_556 S
C863 C847 1.429 . S
C863 C859 1.429 . S
C863 C864 1.523 . S
C864 C848 1.368 1_455 S
C864 C860 1.368 . S
C864 C863 1.523 . S
H865 C840 0.950 . S
H866 C842 0.950 . S
H867 C843 0.949 1_554 S
H868 C845 0.950 . S
H869 C847 0.950 . S
C870 C871 1.349 . S
C870 C872 1.327 1_554 S
C870 H895 0.950 . S
C871 C870 1.349 . S
C871 C887 1.349 1_565 S
C872 C870 1.327 1_556 S
C872 C891 1.429 1_566 S
C872 H896 0.950 . S
C873 C890 1.574 . S
C873 C892 1.368 . S
C873 H897 0.949 1_556 S
H874 C878 0.949 . S
C875 C876 1.349 . S
C875 C877 1.327 . S
C875 H898 0.950 . S
C876 C875 1.349 . S
C876 C888 1.349 . S
C877 C875 1.327 . S
C877 C893 1.429 . S
C877 H899 0.950 . S
C878 H874 0.949 . S
C878 C886 1.574 . S
C878 C894 1.368 1_565 S
H879 C887 0.950 . S
H880 C885 0.950 . S
H881 C886 0.949 . S
H882 C888 0.905 1_565 S
H883 C889 0.950 1_565 S
H884 C890 0.949 . S
C885 H880 0.950 . S
C885 C887 1.327 . S
C885 C891 1.429 . S
C886 C878 1.574 . S
C886 H881 0.949 . S
C886 C892 1.368 1_565 S
C887 C871 1.349 1_545 S
C887 H879 0.950 . S
C887 C885 1.327 . S
C888 C876 1.349 . S
C888 H882 0.905 1_545 S
C888 C889 1.327 . S
C889 H883 0.950 1_545 S
C889 C888 1.327 . S
C889 C893 1.429 . S
C890 C873 1.574 . S
C890 H884 0.949 . S
C890 C894 1.368 . S
C891 C872 1.429 1_544 S
C891 C885 1.429 . S
C891 C892 1.523 1_554 S
C892 C873 1.368 . S
C892 C886 1.368 1_545 S
C892 C891 1.523 1_556 S
C893 C877 1.429 . S
C893 C889 1.429 . S
C893 C894 1.523 . S
C894 C878 1.368 1_545 S
C894 C890 1.368 . S
C894 C893 1.523 . S
H895 C870 0.950 . S
H896 C872 0.950 . S
H897 C873 0.949 1_554 S
H898 C875 0.950 . S
H899 C877 0.950 . S
C900 C901 1.349 . S
C900 C902 1.327 . S
C900 H925 0.950 . S
C901 C900 1.349 . S
C901 C917 1.349 . S
C902 C900 1.327 . S
C902 C921 1.429 . S
C902 H926 0.950 . S
C903 C920 1.574 . S
C903 C922 1.368 . S
C903 H927 0.949 . S
H904 C908 0.949 . S
C905 C906 1.349 . S
C905 C907 1.327 . S
C905 H928 0.950 . S
C906 C905 1.349 . S
C906 C918 1.349 . S
C907 C905 1.327 . S
C907 C923 1.429 . S
C907 H929 0.950 . S
C908 H904 0.949 . S
C908 C916 1.574 1_556 S
C908 C924 1.368 . S
H909 C917 0.950 1_556 S
H910 C915 0.950 . S
H911 C916 0.949 . S
H912 C918 0.950 . S
H913 C919 0.950 . S
H914 C920 0.949 . S
C915 H910 0.950 . S
C915 C917 1.327 1_556 S
C915 C921 1.429 1_556 S
C916 C908 1.574 1_554 S
C916 H911 0.949 . S
C916 C922 1.368 1_554 S
C917 C901 1.349 . S
C917 H909 0.950 1_554 S
C917 C915 1.327 1_554 S
C918 C906 1.349 . S
C918 H912 0.950 . S
C918 C919 1.327 . S
C919 H913 0.950 . S
C919 C918 1.327 . S
C919 C923 1.429 . S
C920 C903 1.574 . S
C920 H914 0.949 . S
C920 C924 1.368 . S
C921 C902 1.429 . S
C921 C915 1.429 1_554 S
C921 C922 1.523 1_554 S
C922 C903 1.368 . S
C922 C916 1.368 1_556 S
C922 C921 1.523 1_556 S
C923 C907 1.429 . S
C923 C919 1.429 . S
C923 C924 1.523 . S
C924 C908 1.368 . S
C924 C920 1.368 . S
C924 C923 1.523 . S
H925 C900 0.950 . S
H926 C902 0.950 . S
H927 C903 0.949 . S
H928 C905 0.950 . S
H929 C907 0.950 . S
C930 C931 1.349 . S
C930 C932 1.327 . S
C930 H955 0.950 . S
C931 C930 1.349 . S
C931 C947 1.349 . S
C932 C930 1.327 . S
C932 C951 1.429 . S
C932 H956 0.950 . S
C933 C950 1.574 . S
C933 C952 1.368 . S
C933 H957 0.949 . S
H934 C938 0.949 . S
C935 C936 1.349 . S
C935 C937 1.327 . S
C935 H958 0.950 . S
C936 C935 1.349 . S
C936 C948 1.349 . S
C937 C935 1.327 . S
C937 C953 1.429 . S
C937 H959 0.950 . S
C938 H934 0.949 . S
C938 C946 1.574 . S
C938 C954 1.368 . S
H939 C947 0.950 1_556 S
H940 C945 0.950 . S
H941 C946 0.949 1_554 S
H942 C948 0.950 . S
H943 C949 0.950 . S
H944 C950 0.949 . S
C945 H940 0.950 . S
C945 C947 1.327 1_556 S
C945 C951 1.429 1_556 S
C946 C938 1.574 . S
C946 H941 0.949 1_556 S
C946 C952 1.368 . S
C947 C931 1.349 . S
C947 H939 0.950 1_554 S
C947 C945 1.327 1_554 S
C948 C936 1.349 . S
C948 H942 0.950 . S
C948 C949 1.327 . S
C949 H943 0.950 . S
C949 C948 1.327 . S
C949 C953 1.429 . S
C950 C933 1.574 . S
C950 H944 0.949 . S
C950 C954 1.368 . S
C951 C932 1.429 . S
C951 C945 1.429 1_554 S
C951 C952 1.523 1_554 S
C952 C933 1.368 . S
C952 C946 1.368 . S
C952 C951 1.523 1_556 S
C953 C937 1.429 . S
C953 C949 1.429 . S
C953 C954 1.523 . S
C954 C938 1.368 . S
C954 C950 1.368 . S
C954 C953 1.523 . S
H955 C930 0.950 . S
H956 C932 0.950 . S
H957 C933 0.949 . S
H958 C935 0.950 . S
H959 C937 0.950 . S
C960 C961 1.349 1_655 S
C960 C962 1.327 . S
C960 H985 0.950 . S
C961 C960 1.349 1_455 S
C961 C977 1.349 . S
C962 C960 1.327 . S
C962 C981 1.429 1_655 S
C962 H986 0.950 . S
C963 C980 1.574 . S
C963 C982 1.368 . S
C963 H987 0.949 . S
H964 C968 0.949 . S
C965 C966 1.349 . S
C965 C967 1.327 . S
C965 H988 0.950 . S
C966 C965 1.349 . S
C966 C978 1.349 1_455 S
C967 C965 1.327 . S
C967 C983 1.429 . S
C967 H989 0.950 . S
C968 H964 0.949 . S
C968 C976 1.574 . S
C968 C984 1.368 1_655 S
H969 C977 0.950 . S
H970 C975 0.950 . S
H971 C976 0.949 . S
H972 C978 0.950 . S
H973 C979 0.950 . S
H974 C980 0.949 . S
C975 H970 0.950 . S
C975 C977 1.327 . S
C975 C981 1.429 . S
C976 C968 1.574 . S
C976 H971 0.949 . S
C976 C982 1.368 1_655 S
C977 C961 1.349 . S
C977 H969 0.950 . S
C977 C975 1.327 . S
C978 C966 1.349 1_655 S
C978 H972 0.950 . S
C978 C979 1.327 . S
C979 H973 0.950 . S
C979 C978 1.327 . S
C979 C983 1.429 1_655 S
C980 C963 1.574 . S
C980 H974 0.949 . S
C980 C984 1.368 . S
C981 C962 1.429 1_455 S
C981 C975 1.429 . S
C981 C982 1.523 . S
C982 C963 1.368 . S
C982 C976 1.368 1_455 S
C982 C981 1.523 . S
C983 C967 1.429 . S
C983 C979 1.429 1_455 S
C983 C984 1.523 . S
C984 C968 1.368 1_455 S
C984 C980 1.368 . S
C984 C983 1.523 . S
H985 C960 0.950 . S
H986 C962 0.950 . S
H987 C963 0.949 . S
H988 C965 0.950 . S
H989 C967 0.950 . S
C990 C991 1.349 1_565 S
C990 C992 1.327 . S
C990 H1015 0.950 . S
C991 C990 1.349 1_545 S
C991 C1007 1.349 . S
C992 C990 1.327 . S
C992 C1011 1.429 1_565 S
C992 H1016 0.950 . S
C993 C1010 1.574 . S
C993 C1012 1.368 . S
C993 H1017 0.949 . S
H994 C998 0.943 1_565 S
C995 C996 1.349 . S
C995 C997 1.327 . S
C995 H1018 0.950 . S
C996 C995 1.349 . S
C996 C1008 1.349 . S
C997 C995 1.327 . S
C997 C1013 1.429 . S
C997 H1019 0.950 . S
C998 H994 0.943 1_545 S
C998 C1006 1.573 1_545 S
C998 C1014 1.379 . S
H999 C1007 0.950 . S
H1000 C1005 0.950 . S
H1001 C1006 0.948 . S
H1002 C1008 0.961 . S
H1003 C1009 0.946 1_565 S
H1004 C1010 0.949 . S
C1005 H1000 0.950 . S
C1005 C1007 1.327 . S
C1005 C1011 1.429 . S
C1006 C998 1.573 1_565 S
C1006 H1001 0.948 . S
C1006 C1012 1.369 1_565 S
C1007 C991 1.349 . S
C1007 H999 0.950 . S
C1007 C1005 1.327 . S
C1008 C996 1.349 . S
C1008 H1002 0.961 . S
C1008 C1009 1.327 . S
C1009 H1003 0.946 1_545 S
C1009 C1008 1.327 . S
C1009 C1013 1.429 . S
C1010 C993 1.574 . S
C1010 H1004 0.949 . S
C1010 C1014 1.368 . S
C1011 C992 1.429 1_545 S
C1011 C1005 1.429 . S
C1011 C1012 1.523 . S
C1012 C993 1.368 . S
C1012 C1006 1.369 1_545 S
C1012 C1011 1.523 . S
C1013 C997 1.429 . S
C1013 C1009 1.429 . S
C1013 C1014 1.523 . S
C1014 C998 1.379 . S
C1014 C1010 1.368 . S
C1014 C1013 1.523 . S
H1015 C990 0.950 . S
H1016 C992 0.950 . S
H1017 C993 0.949 . S
H1018 C995 0.950 . S
H1019 C997 0.950 . S
C1020 C1021 1.349 . S
C1020 C1022 1.327 . S
C1020 H1045 0.950 . S
C1021 C1020 1.349 . S
C1021 C1037 1.349 . S
C1022 C1020 1.327 . S
C1022 C1041 1.429 . S
C1022 H1046 0.950 . S
C1023 C1040 1.574 . S
C1023 C1042 1.368 . S
C1023 H1047 0.949 . S
H1024 C1028 0.949 . S
C1025 C1026 1.349 . S
C1025 C1027 1.327 . S
C1025 H1048 0.950 . S
C1026 C1025 1.349 . S
C1026 C1038 1.349 . S
C1027 C1025 1.327 . S
C1027 C1043 1.429 . S
C1027 H1049 0.950 . S
C1028 H1024 0.949 . S
C1028 C1036 1.574 . S
C1028 C1044 1.368 . S
H1029 C1037 0.950 . S
H1030 C1035 0.950 . S
H1031 C1036 0.949 . S
H1032 C1038 0.950 . S
H1033 C1039 0.950 . S
H1034 C1040 0.949 . S
C1035 H1030 0.950 . S
C1035 C1037 1.327 . S
C1035 C1041 1.429 . S
C1036 C1028 1.574 . S
C1036 H1031 0.949 . S
C1036 C1042 1.368 . S
C1037 C1021 1.349 . S
C1037 H1029 0.950 . S
C1037 C1035 1.327 . S
C1038 C1026 1.349 . S
C1038 H1032 0.950 . S
C1038 C1039 1.327 . S
C1039 H1033 0.950 . S
C1039 C1038 1.327 . S
C1039 C1043 1.429 . S
C1040 C1023 1.574 . S
C1040 H1034 0.949 . S
C1040 C1044 1.368 . S
C1041 C1022 1.429 . S
C1041 C1035 1.429 . S
C1041 C1042 1.523 . S
C1042 C1023 1.368 . S
C1042 C1036 1.368 . S
C1042 C1041 1.523 . S
C1043 C1027 1.429 . S
C1043 C1039 1.429 . S
C1043 C1044 1.523 . S
C1044 C1028 1.368 . S
C1044 C1040 1.368 . S
C1044 C1043 1.523 . S
H1045 C1020 0.950 . S
H1046 C1022 0.950 . S
H1047 C1023 0.949 . S
H1048 C1025 0.950 . S
H1049 C1027 0.950 . S
C1050 C1051 1.349 . S
C1050 C1052 1.327 . S
C1050 H1075 0.950 . S
C1051 C1050 1.349 . S
C1051 C1067 1.349 . S
C1052 C1050 1.327 . S
C1052 C1071 1.429 . S
C1052 H1076 0.950 . S
C1053 C1070 1.574 . S
C1053 C1072 1.368 . S
C1053 H1077 0.949 . S
H1054 C1058 0.949 . S
C1055 C1056 1.349 . S
C1055 C1057 1.327 . S
C1055 H1078 0.950 . S
C1056 C1055 1.349 . S
C1056 C1068 1.349 . S
C1057 C1055 1.327 . S
C1057 C1073 1.429 . S
C1057 H1079 0.950 . S
C1058 H1054 0.949 . S
C1058 C1066 1.574 . S
C1058 C1074 1.368 . S
H1059 C1067 0.950 . S
H1060 C1065 0.950 . S
H1061 C1066 0.949 . S
H1062 C1068 0.950 . S
H1063 C1069 0.950 . S
H1064 C1070 0.949 . S
C1065 H1060 0.950 . S
C1065 C1067 1.327 . S
C1065 C1071 1.429 . S
C1066 C1058 1.574 . S
C1066 H1061 0.949 . S
C1066 C1072 1.368 . S
C1067 C1051 1.349 . S
C1067 H1059 0.950 . S
C1067 C1065 1.327 . S
C1068 C1056 1.349 . S
C1068 H1062 0.950 . S
C1068 C1069 1.327 . S
C1069 H1063 0.950 . S
C1069 C1068 1.327 . S
C1069 C1073 1.429 . S
C1070 C1053 1.574 . S
C1070 H1064 0.949 . S
C1070 C1074 1.368 . S
C1071 C1052 1.429 . S
C1071 C1065 1.429 . S
C1071 C1072 1.523 . S
C1072 C1053 1.368 . S
C1072 C1066 1.368 . S
C1072 C1071 1.523 . S
C1073 C1057 1.429 . S
C1073 C1069 1.429 . S
C1073 C1074 1.523 . S
C1074 C1058 1.368 . S
C1074 C1070 1.368 . S
C1074 C1073 1.523 . S
H1075 C1050 0.950 . S
H1076 C1052 0.950 . S
H1077 C1053 0.949 . S
H1078 C1055 0.950 . S
H1079 C1057 0.950 . S
C1080 C1081 1.349 1_455 S
C1080 C1082 1.327 . S
C1080 H1105 0.950 . S
C1081 C1080 1.349 1_655 S
C1081 C1097 1.349 . S
C1082 C1080 1.327 . S
C1082 C1101 1.429 1_455 S
C1082 H1106 0.950 . S
C1083 C1100 1.574 . S
C1083 C1102 1.368 . S
C1083 H1107 0.949 . S
H1084 C1088 0.949 . S
C1085 C1086 1.349 . S
C1085 C1087 1.327 . S
C1085 H1108 0.950 . S
C1086 C1085 1.349 . S
C1086 C1098 1.347 . S
C1087 C1085 1.327 . S
C1087 C1103 1.429 . S
C1087 H1109 0.950 . S
C1088 H1084 0.949 . S
C1088 C1096 1.574 . S
C1088 C1104 1.368 1_455 S
H1089 C1097 0.950 . S
H1090 C1095 0.950 . S
H1091 C1096 0.949 . S
H1092 C1098 0.951 1_455 S
H1093 C1099 0.967 . S
H1094 C1100 0.949 . S
C1095 H1090 0.950 . S
C1095 C1097 1.327 . S
C1095 C1101 1.429 . S
C1096 C1088 1.574 . S
C1096 H1091 0.949 . S
C1096 C1102 1.368 1_455 S
C1097 C1081 1.349 . S
C1097 H1089 0.950 . S
C1097 C1095 1.327 . S
C1098 C1086 1.347 . S
C1098 H1092 0.951 1_655 S
C1098 C1099 1.326 1_655 S
C1099 H1093 0.967 . S
C1099 C1098 1.326 1_455 S
C1099 C1103 1.415 1_455 S
C1100 C1083 1.574 . S
C1100 H1094 0.949 . S
C1100 C1104 1.368 . S
C1101 C1082 1.429 1_655 S
C1101 C1095 1.429 . S
C1101 C1102 1.523 . S
C1102 C1083 1.368 . S
C1102 C1096 1.368 1_655 S
C1102 C1101 1.523 . S
C1103 C1087 1.429 . S
C1103 C1099 1.415 1_655 S
C1103 C1104 1.523 . S
C1104 C1088 1.368 1_655 S
C1104 C1100 1.368 . S
C1104 C1103 1.523 . S
H1105 C1080 0.950 . S
H1106 C1082 0.950 . S
H1107 C1083 0.949 . S
H1108 C1085 0.950 . S
H1109 C1087 0.950 . S
C1110 C1111 1.381 . S
C1110 C1112 1.327 . S
C1110 H1135 0.950 . S
C1111 C1110 1.381 . S
C1111 C1127 1.322 1_565 S
C1112 C1110 1.327 . S
C1112 C1131 1.429 . S
C1112 H1136 0.950 . S
C1113 C1130 1.574 . S
C1113 C1132 1.368 1_545 S
C1113 H1137 0.949 . S
H1114 C1118 0.949 . S
C1115 C1116 1.349 1_545 S
C1115 C1117 1.327 . S
C1115 H1138 0.950 . S
C1116 C1115 1.349 1_565 S
C1116 C1128 1.349 . S
C1117 C1115 1.327 . S
C1117 C1133 1.429 1_545 S
C1117 H1139 0.950 . S
C1118 H1114 0.949 . S
C1118 C1126 1.574 . S
C1118 C1134 1.368 . S
H1119 C1127 0.950 . S
H1120 C1125 0.950 . S
H1121 C1126 0.949 . S
H1122 C1128 0.950 . S
H1123 C1129 0.950 . S
H1124 C1130 0.949 . S
C1125 H1120 0.950 . S
C1125 C1127 1.327 . S
C1125 C1131 1.429 1_545 S
C1126 C1118 1.574 . S
C1126 H1121 0.949 . S
C1126 C1132 1.368 . S
C1127 C1111 1.322 1_545 S
C1127 H1119 0.950 . S
C1127 C1125 1.327 . S
C1128 C1116 1.349 . S
C1128 H1122 0.950 . S
C1128 C1129 1.327 . S
C1129 H1123 0.950 . S
C1129 C1128 1.327 . S
C1129 C1133 1.429 . S
C1130 C1113 1.574 . S
C1130 H1124 0.949 . S
C1130 C1134 1.368 1_545 S
C1131 C1112 1.429 . S
C1131 C1125 1.429 1_565 S
C1131 C1132 1.523 . S
C1132 C1113 1.368 1_565 S
C1132 C1126 1.368 . S
C1132 C1131 1.523 . S
C1133 C1117 1.429 1_565 S
C1133 C1129 1.429 . S
C1133 C1134 1.523 . S
C1134 C1118 1.368 . S
C1134 C1130 1.368 1_565 S
C1134 C1133 1.523 . S
H1135 C1110 0.950 . S
H1136 C1112 0.950 . S
H1137 C1113 0.949 . S
H1138 C1115 0.950 . S
H1139 C1117 0.950 . S
C1140 C1141 1.349 . S
C1140 C1142 1.327 . S
C1140 H1165 0.950 . S
C1141 C1140 1.349 . S
C1141 C1157 1.349 . S
C1142 C1140 1.327 . S
C1142 C1161 1.429 . S
C1142 H1166 0.950 . S
C1143 C1160 1.574 . S
C1143 C1162 1.368 . S
C1143 H1167 0.949 . S
H1144 C1148 0.949 . S
C1145 C1146 1.349 . S
C1145 C1147 1.327 . S
C1145 H1168 0.950 . S
C1146 C1145 1.349 . S
C1146 C1158 1.349 . S
C1147 C1145 1.327 . S
C1147 C1163 1.429 . S
C1147 H1169 0.950 . S
C1148 H1144 0.949 . S
C1148 C1156 1.574 . S
C1148 C1164 1.368 . S
H1149 C1157 0.950 . S
H1150 C1155 0.950 . S
H1151 C1156 0.949 . S
H1152 C1158 0.950 . S
H1153 C1159 0.950 . S
H1154 C1160 0.949 . S
C1155 H1150 0.950 . S
C1155 C1157 1.327 . S
C1155 C1161 1.429 . S
C1156 C1148 1.574 . S
C1156 H1151 0.949 . S
C1156 C1162 1.368 . S
C1157 C1141 1.349 . S
C1157 H1149 0.950 . S
C1157 C1155 1.327 . S
C1158 C1146 1.349 . S
C1158 H1152 0.950 . S
C1158 C1159 1.327 . S
C1159 H1153 0.950 . S
C1159 C1158 1.327 . S
C1159 C1163 1.429 . S
C1160 C1143 1.574 . S
C1160 H1154 0.949 . S
C1160 C1164 1.368 . S
C1161 C1142 1.429 . S
C1161 C1155 1.429 . S
C1161 C1162 1.523 . S
C1162 C1143 1.368 . S
C1162 C1156 1.368 . S
C1162 C1161 1.523 . S
C1163 C1147 1.429 . S
C1163 C1159 1.429 . S
C1163 C1164 1.523 . S
C1164 C1148 1.368 . S
C1164 C1160 1.368 . S
C1164 C1163 1.523 . S
H1165 C1140 0.950 . S
H1166 C1142 0.950 . S
H1167 C1143 0.949 . S
H1168 C1145 0.950 . S
H1169 C1147 0.950 . S
C1170 C1171 1.349 . S
C1170 C1172 1.327 . S
C1170 H1195 0.950 . S
C1171 C1170 1.349 . S
C1171 C1187 1.349 . S
C1172 C1170 1.327 . S
C1172 C1191 1.429 . S
C1172 H1196 0.950 . S
C1173 C1190 1.574 . S
C1173 C1192 1.368 . S
C1173 H1197 0.949 . S
H1174 C1178 0.949 . S
C1175 C1176 1.349 . S
C1175 C1177 1.327 . S
C1175 H1198 0.950 . S
C1176 C1175 1.349 . S
C1176 C1188 1.349 . S
C1177 C1175 1.327 . S
C1177 C1193 1.429 . S
C1177 H1199 0.950 . S
C1178 H1174 0.949 . S
C1178 C1186 1.574 . S
C1178 C1194 1.368 . S
H1179 C1187 0.950 . S
H1180 C1185 0.950 . S
H1181 C1186 0.949 . S
H1182 C1188 0.950 . S
H1183 C1189 0.950 . S
H1184 C1190 0.949 . S
C1185 H1180 0.950 . S
C1185 C1187 1.327 . S
C1185 C1191 1.429 . S
C1186 C1178 1.574 . S
C1186 H1181 0.949 . S
C1186 C1192 1.368 . S
C1187 C1171 1.349 . S
C1187 H1179 0.950 . S
C1187 C1185 1.327 . S
C1188 C1176 1.349 . S
C1188 H1182 0.950 . S
C1188 C1189 1.327 . S
C1189 H1183 0.950 . S
C1189 C1188 1.327 . S
C1189 C1193 1.429 . S
C1190 C1173 1.574 . S
C1190 H1184 0.949 . S
C1190 C1194 1.368 . S
C1191 C1172 1.429 . S
C1191 C1185 1.429 . S
C1191 C1192 1.523 . S
C1192 C1173 1.368 . S
C1192 C1186 1.368 . S
C1192 C1191 1.523 . S
C1193 C1177 1.429 . S
C1193 C1189 1.429 . S
C1193 C1194 1.523 . S
C1194 C1178 1.368 . S
C1194 C1190 1.368 . S
C1194 C1193 1.523 . S
H1195 C1170 0.950 . S
H1196 C1172 0.950 . S
H1197 C1173 0.949 . S
H1198 C1175 0.950 . S
H1199 C1177 0.950 . S
C481 C255 2.032 . S
C486 C338 2.169 1_545 S
C516 C378 2.172 . S
C511 C295 2.027 . S
C546 C418 2.171 . S
C541 C175 2.032 . S
C576 C458 2.169 1_455 S
C571 C215 2.033 . S
C606 C328 2.168 1_565 S
C601 C95 2.031 . S
C631 C135 2.032 . S
C636 C368 2.175 . S
C661 C15 2.032 . S
C666 C408 2.171 . S
C691 C55 2.031 . S
C696 C448 2.169 1_655 S
C726 C325 0.220 . S
C721 C221 0.258 . S
C756 C365 0.219 . S
C751 C261 0.256 . S
C786 C405 0.220 . S
C781 C301 0.255 . S
C811 C181 0.256 . S
C816 C445 0.219 . S
C841 C61 0.381 1_655 S
C846 C335 0.222 . S
C876 C375 0.219 . S
C871 C101 0.369 1_565 S
C906 C415 0.220 . S
C901 C141 0.381 . S
C931 C21 0.379 . S
C936 C455 0.219 . S
C961 C202 2.791 . S
C966 C329 3.042 . S
C991 C242 2.791 . S
C996 C369 3.049 . S
C1026 C409 3.049 . S
C1021 C282 2.792 . S
C1056 C449 3.049 . S
C1051 C162 2.791 . S
C1081 C42 2.801 1_655 S
C1086 C339 3.055 . S
C1116 C379 3.049 . S
C1111 C82 2.795 1_565 S
C1146 C419 3.049 . S
C1141 C122 2.801 . S
C1171 C2 2.801 . S
C1176 C459 3.049 . S
