# Generated by pormake.
# Topology anh, (6,3)-cn, num edge types: 1
# Building blocks:
#     Node 0, Type 0, BuildingBlock: VOLQOD_clean_sbu_1, # of connection points: 6
#     Node 1, Type 0, BuildingBlock: VOLQOD_clean_sbu_1, # of connection points: 6
#     Node 2, Type 0, BuildingBlock: VOLQOD_clean_sbu_1, # of connection points: 6
#     Node 3, Type 1, BuildingBlock: OLANEW_clean_sbu_2, # of connection points: 3
#     Node 4, Type 1, BuildingBlock: OLANEW_clean_sbu_2, # of connection points: 3
#     Node 5, Type 1, BuildingBlock: OLANEW_clean_sbu_2, # of connection points: 3
#     Node 6, Type 1, BuildingBlock: OLANEW_clean_sbu_2, # of connection points: 3
#     Node 7, Type 1, BuildingBlock: OLANEW_clean_sbu_2, # of connection points: 3
#     Node 8, Type 1, BuildingBlock: OLANEW_clean_sbu_2, # of connection points: 3
#     Edge 9, Type (0, 1), BuildingBlock: XIVTED_clean_linker_0, # of connection points: 2
#     Edge 10, Type (0, 1), BuildingBlock: XIVTED_clean_linker_0, # of connection points: 2
#     Edge 11, Type (0, 1), BuildingBlock: XIVTED_clean_linker_0, # of connection points: 2
#     Edge 12, Type (0, 1), BuildingBlock: XIVTED_clean_linker_0, # of connection points: 2
#     Edge 13, Type (0, 1), BuildingBlock: XIVTED_clean_linker_0, # of connection points: 2
#     Edge 14, Type (0, 1), BuildingBlock: XIVTED_clean_linker_0, # of connection points: 2
#     Edge 15, Type (0, 1), BuildingBlock: XIVTED_clean_linker_0, # of connection points: 2
#     Edge 16, Type (0, 1), BuildingBlock: XIVTED_clean_linker_0, # of connection points: 2
#     Edge 17, Type (0, 1), BuildingBlock: XIVTED_clean_linker_0, # of connection points: 2
#     Edge 18, Type (0, 1), BuildingBlock: XIVTED_clean_linker_0, # of connection points: 2
#     Edge 19, Type (0, 1), BuildingBlock: XIVTED_clean_linker_0, # of connection points: 2
#     Edge 20, Type (0, 1), BuildingBlock: XIVTED_clean_linker_0, # of connection points: 2
#     Edge 21, Type (0, 1), BuildingBlock: XIVTED_clean_linker_0, # of connection points: 2
#     Edge 22, Type (0, 1), BuildingBlock: XIVTED_clean_linker_0, # of connection points: 2
#     Edge 23, Type (0, 1), BuildingBlock: XIVTED_clean_linker_0, # of connection points: 2
#     Edge 24, Type (0, 1), BuildingBlock: XIVTED_clean_linker_0, # of connection points: 2
#     Edge 25, Type (0, 1), BuildingBlock: XIVTED_clean_linker_0, # of connection points: 2
#     Edge 26, Type (0, 1), BuildingBlock: XIVTED_clean_linker_0, # of connection points: 2
# Relax obj value: 0.157
# Max RMSD: 0.206
# Mean RMSD: 0.141
data_MOF--net-anh--node1-VOLQOD_clean_sbu_1--node2-OLANEW_clean_sbu_2--edge1-XIVTED_clean_linker_0
_symmetry_space_group_name_H-M    P1
_symmetry_Int_Tables_number       1
_symmetry_cell_setting            triclinic
loop_
_symmetry_equiv_pos_as_xyz
'x, y, z'
_cell_length_a     31.818012
_cell_length_b     31.631292
_cell_length_c     58.917087
_cell_angle_alpha  89.828839
_cell_angle_beta   89.856118
_cell_angle_gamma 120.54019
loop_
_atom_site_label
_atom_site_type_symbol
_atom_site_fract_x
_atom_site_fract_y
_atom_site_fract_z
_atom_type_partial_charge
O0 O -0.00332 0.55522 0.20445 0.0
Zn1 Zn 0.00309 0.57346 0.17115 0.0
O2 O 0.0117 0.52618 0.15285 0.0
Zn3 Zn 0.96314 0.49762 0.12886 0.0
Zn4 Zn 0.00728 0.47384 0.17239 0.0
Zn5 Zn 0.07457 0.55958 0.13816 0.0
O6 O 0.99139 0.51503 0.09681 0.0
O7 O 0.06973 0.56334 0.10462 0.0
O8 O 0.94132 0.57302 0.16187 0.0
O9 O 0.91742 0.52241 0.13241 0.0
O10 O 0.91982 0.4246 0.13322 0.0
O11 O 0.94581 0.4098 0.16559 0.0
O12 O 0.06551 0.46508 0.16855 0.0
O13 O 0.06304 0.64217 0.16907 0.0
O14 O 0.11128 0.52533 0.14425 0.0
O15 O 0.11379 0.62833 0.14882 0.0
C16 C -0.00054 0.52193 0.2154 0.0
C17 C 0.03528 0.54355 0.09033 0.0
C18 C 0.91555 0.39549 0.14924 0.0
C19 C 0.91132 0.55025 0.14587 0.0
C20 C 0.10387 0.48907 0.15653 0.0
C21 C 0.10489 0.65705 0.16016 0.0
O22 O 0.00466 0.48943 0.2052 0.0
O23 O 0.50227 0.04161 0.4501 0.0
Zn24 Zn 0.47735 0.03214 0.48225 0.0
O25 O 0.51819 0.01782 0.50219 0.0
Zn26 Zn 0.54988 0.06884 0.52487 0.0
Zn27 Zn 0.56847 0.01366 0.48447 0.0
Zn28 Zn 0.47688 0.95614 0.51787 0.0
O29 O 0.53248 0.04288 0.55692 0.0
O30 O 0.4825 0.9629 0.55187 0.0
O31 O 0.47865 0.09474 0.49162 0.0
O32 O 0.53044 0.11872 0.52049 0.0
O33 O 0.62268 0.10648 0.52079 0.0
O34 O 0.63601 0.06928 0.4922 0.0
O35 O 0.56449 0.94798 0.48876 0.0
O36 O 0.40783 0.97456 0.48138 0.0
O37 O 0.49618 0.90771 0.50909 0.0
O38 O 0.40673 0.92564 0.50879 0.0
C39 C 0.53387 0.03471 0.44015 0.0
C40 C 0.50562 -0.00028 0.56484 0.0
C41 C 0.65169 0.10341 0.50689 0.0
C42 C 0.5031 0.1255 0.50712 0.0
C43 C 0.53132 0.90884 0.49824 0.0
C44 C 0.38516 0.93562 0.49337 0.0
O45 O 0.56006 0.0219 0.45115 0.0
O46 O 0.43 0.41607 0.79131 0.0
Zn47 Zn 0.40958 0.40109 0.82415 0.0
O48 O 0.46084 0.44922 0.84396 0.0
Zn49 Zn 0.43371 0.47823 0.86399 0.0
Zn50 Zn 0.51327 0.50059 0.82558 0.0
Zn51 Zn 0.48718 0.41771 0.86259 0.0
O52 O 0.44662 0.473 0.89696 0.0
O53 O 0.4825 0.42842 0.89592 0.0
O54 O 0.34736 0.40339 0.82776 0.0
O55 O 0.36173 0.4462 0.85957 0.0
O56 O 0.45936 0.54921 0.85561 0.0
O57 O 0.51045 0.56276 0.82702 0.0
O58 O 0.57968 0.51298 0.83524 0.0
O59 O 0.3979 0.33274 0.83033 0.0
O60 O 0.55834 0.44731 0.85675 0.0
O61 O 0.4541 0.34569 0.85609 0.0
C62 C 0.46904 0.44819 0.78146 0.0
C63 C 0.46626 0.45168 0.90695 0.0
C64 C 0.4879 0.57691 0.83998 0.0
C65 C 0.33332 0.42078 0.84361 0.0
C66 C 0.59087 0.48607 0.84686 0.0
C67 C 0.41937 0.31693 0.84309 0.0
O68 O 0.50453 0.4815 0.79268 0.0
O69 O 0.51748 0.06284 0.25941 0.0
Cd70 Cd 0.50653 0.05485 0.21817 0.0
O71 O 0.54384 0.01068 0.26069 0.0
Cd72 Cd 0.5166 0.98516 0.22669 0.0
O73 O 0.45173 0.94477 0.20586 0.0
C74 C 0.41261 0.94054 0.21387 0.0
O75 O 0.4144 0.96199 0.2332 0.0
C76 C 0.53547 0.04133 0.2706 0.0
C77 C 0.59425 0.11755 0.19595 0.0
O78 O 0.56196 0.12982 0.19901 0.0
O79 O 0.5849 0.07538 0.20316 0.0
O80 O 0.52108 0.50776 0.60228 0.0
Cd81 Cd 0.52926 0.52385 0.56143 0.0
O82 O 0.44108 0.4722 0.60183 0.0
Cd83 Cd 0.44363 0.50026 0.56774 0.0
O84 O 0.46169 0.55776 0.54254 0.0
C85 C 0.49951 0.59941 0.54603 0.0
O86 O 0.52595 0.60544 0.56415 0.0
C87 C 0.48022 0.48419 0.61253 0.0
C88 C 0.52339 0.44379 0.53928 0.0
O89 O 0.5645 0.48013 0.54549 0.0
O90 O 0.48478 0.44584 0.54304 0.0
O91 O 0.17257 0.67391 0.92237 0.0
Cd92 Cd 0.17985 0.68861 0.8814 0.0
O93 O 0.0966 0.63392 0.91201 0.0
Cd94 Cd 0.01742 0.59365 0.91376 0.0
O95 O 0.94231 0.56639 0.90402 0.0
C96 C 0.93435 0.59115 0.88944 0.0
O97 O 0.97135 0.63189 0.88134 0.0
C98 C 0.12795 0.64667 0.92775 0.0
C99 C 0.18705 0.61392 0.86041 0.0
O100 O 0.22481 0.65646 0.86329 0.0
O101 O 0.14554 0.60683 0.86697 0.0
O102 O 0.03532 0.51123 0.39585 0.0
Cd103 Cd 0.04866 0.51555 0.43681 0.0
O104 O 0.9768 0.5287 0.39721 0.0
Cd105 Cd 0.96635 0.5095 0.43323 0.0
O106 O 0.93182 0.45005 0.45816 0.0
C107 C 0.93377 0.41162 0.45409 0.0
O108 O 0.95882 0.41143 0.43636 0.0
C109 C 0.00638 0.52147 0.38569 0.0
C110 C 0.11104 0.61314 0.44915 0.0
O111 O 0.12738 0.58748 0.44017 0.0
O112 O 0.06501 0.59265 0.45272 0.0
O113 O 0.4113 0.92938 0.74035 0.0
Cd114 Cd 0.38862 0.90385 0.78008 0.0
O115 O 0.49009 0.96109 0.74558 0.0
Cd116 Cd 0.47794 0.97189 0.78096 0.0
O117 O 0.45609 0.01296 0.80295 0.0
C118 C 0.4227 0.01988 0.79529 0.0
O119 O 0.40232 -6e-05 0.77582 0.0
C120 C 0.45412 0.94711 0.73225 0.0
C121 C 0.41777 0.83791 0.79391 0.0
O122 O 0.38028 0.82416 0.78133 0.0
O123 O 0.44151 0.88278 0.80024 0.0
O124 O 0.47691 0.4675 0.08855 0.0
Cd125 Cd 0.48184 0.47538 0.13 0.0
O126 O 0.533 0.54436 0.08131 0.0
Cd127 Cd 0.52053 0.56337 0.11519 0.0
O128 O 0.45495 0.54582 0.13447 0.0
C129 C 0.41713 0.52006 0.12258 0.0
O130 O 0.42273 0.5103 0.10152 0.0
C131 C 0.50452 0.50079 0.07447 0.0
C132 C 0.5741 0.49511 0.14278 0.0
O133 O 0.53911 0.45105 0.13963 0.0
O134 O 0.56502 0.53001 0.14086 0.0
H135 H 0.1679 0.50215 0.19008 0.0
H136 H 0.33137 0.4542 0.103 0.0
H137 H 0.1259 0.44814 0.12199 0.0
H138 H 0.38992 0.54483 0.16251 0.0
H139 H 0.24951 0.43154 0.11526 0.0
H140 H 0.24247 0.49766 0.18548 0.0
C141 C 0.17379 0.48783 0.17448 0.0
C142 C 0.14122 0.47528 0.15637 0.0
C143 C 0.28018 0.45604 0.12577 0.0
C144 C 0.22567 0.47072 0.15087 0.0
C145 C 0.32699 0.46915 0.11876 0.0
C146 C 0.36758 0.50237 0.1315 0.0
C147 C 0.27375 0.47652 0.14561 0.0
C148 C 0.35959 0.51966 0.15202 0.0
C149 C 0.2163 0.48566 0.17178 0.0
C150 C 0.15037 0.45787 0.1363 0.0
N151 N 0.31347 0.50706 0.15832 0.0
N152 N 0.19199 0.45642 0.13402 0.0
H153 H 0.69542 0.18813 0.53184 0.0
H154 H 0.92136 0.32069 0.44636 0.0
H155 H 0.72446 0.11373 0.4781 0.0
H156 H 0.87505 0.39746 0.49099 0.0
H157 H 0.86115 0.24319 0.46401 0.0
H158 H 0.77285 0.26255 0.52342 0.0
C159 C 0.71845 0.18703 0.51857 0.0
C160 C 0.70283 0.14469 0.50538 0.0
C161 C 0.86459 0.27705 0.47014 0.0
C162 C 0.7915 0.23017 0.49556 0.0
C163 C 0.89903 0.32139 0.46009 0.0
C164 C 0.90274 0.36565 0.46695 0.0
C165 C 0.83364 0.27688 0.4872 0.0
C166 C 0.87307 0.36421 0.48496 0.0
C167 C 0.76262 0.22972 0.5137 0.0
C168 C 0.7346 0.1456 0.48853 0.0
N169 N 0.83941 0.32049 0.4943 0.0
N170 N 0.77709 0.18785 0.4839 0.0
H171 H 0.4704 0.63475 0.86854 0.0
H172 H 0.40467 0.75777 0.77074 0.0
H173 H 0.50535 0.62279 0.7989 0.0
H174 H 0.46606 0.83874 0.83247 0.0
H175 H 0.43 0.69956 0.78231 0.0
H176 H 0.45918 0.70338 0.85746 0.0
C177 C 0.47647 0.64705 0.85102 0.0
C178 C 0.48887 0.6231 0.83461 0.0
C179 C 0.43811 0.73026 0.79323 0.0
C180 C 0.47464 0.70007 0.82185 0.0
C181 C 0.42341 0.7632 0.78675 0.0
C182 C 0.43331 0.803 0.8007 0.0
C183 C 0.46162 0.73639 0.81411 0.0
C184 C 0.45795 0.80856 0.82122 0.0
C185 C 0.47007 0.68609 0.84476 0.0
C186 C 0.4961 0.64038 0.81213 0.0
N187 N 0.47071 0.77515 0.8275 0.0
N188 N 0.48794 0.67719 0.80632 0.0
H189 H 0.8374 0.49901 0.1161 0.0
H190 H 0.65391 0.58097 0.15716 0.0
H191 H 0.87848 0.60011 0.17218 0.0
H192 H 0.60883 0.43344 0.1359 0.0
H193 H 0.73894 0.59942 0.15831 0.0
H194 H 0.75618 0.48783 0.11704 0.0
C195 C 0.82968 0.51944 0.12848 0.0
C196 C 0.86488 0.55017 0.14431 0.0
C197 C 0.71015 0.56299 0.15364 0.0
C198 C 0.77136 0.53718 0.14536 0.0
C199 C 0.66181 0.5524 0.15297 0.0
C200 C 0.62435 0.50563 0.14635 0.0
C201 C 0.72081 0.52688 0.14709 0.0
C202 C 0.63648 0.46993 0.14111 0.0
C203 C 0.78306 0.51265 0.12907 0.0
C204 C 0.8524 0.57584 0.15978 0.0
N205 N 0.68374 0.48152 0.14129 0.0
N206 N 0.80639 0.56869 0.15997 0.0
H207 H 0.34501 0.91541 0.4511 0.0
H208 H 0.10414 0.665 0.48468 0.0
H209 H 0.31341 0.86648 0.52078 0.0
H210 H 0.19413 0.67875 0.42703 0.0
H211 H 0.16438 0.74996 0.49542 0.0
H212 H 0.27125 0.83978 0.43944 0.0
C213 C 0.32175 0.88953 0.46401 0.0
C214 C 0.33544 0.89696 0.48693 0.0
C215 C 0.17038 0.73433 0.48029 0.0
C216 C 0.25136 0.81093 0.4737 0.0
C217 C 0.1362 0.68614 0.47415 0.0
C218 C 0.14463 0.66493 0.45509 0.0
C219 C 0.21221 0.76165 0.46683 0.0
C220 C 0.18668 0.69367 0.442 0.0
C221 C 0.28002 0.84631 0.45731 0.0
C222 C 0.30424 0.8619 0.50292 0.0
N223 N 0.21886 0.74068 0.44806 0.0
N224 N 0.26367 0.82017 0.496 0.0
H225 H 0.45633 0.26996 0.86794 0.0
H226 H 0.35542 0.04455 0.78233 0.0
H227 H 0.35702 0.24661 0.81312 0.0
H228 H 0.46408 0.07508 0.83347 0.0
H229 H 0.34457 0.10992 0.79772 0.0
H230 H 0.44804 0.1905 0.85998 0.0
C231 C 0.4322 0.24787 0.85442 0.0
C232 C 0.40793 0.26548 0.84094 0.0
C233 C 0.37041 0.102 0.80574 0.0
C234 C 0.39863 0.17438 0.83164 0.0
C235 C 0.37663 0.06461 0.79697 0.0
C236 C 0.41126 0.05477 0.80641 0.0
C237 C 0.3991 0.12991 0.82407 0.0
C238 C 0.43732 0.0817 0.8255 0.0
C239 C 0.42759 0.20246 0.84986 0.0
C240 C 0.37681 0.23485 0.82383 0.0
N241 N 0.43108 0.1184 0.83354 0.0
N242 N 0.37355 0.19109 0.81948 0.0
H243 H 0.61099 0.8973 0.50113 0.0
H244 H 0.44165 0.60606 0.51357 0.0
H245 H 0.45458 0.81682 0.4934 0.0
H246 H 0.58209 0.69011 0.54581 0.0
H247 H 0.45504 0.68087 0.49468 0.0
H248 H 0.60892 0.81897 0.50631 0.0
C249 C 0.57649 0.86312 0.49998 0.0
C250 C 0.53281 0.8632 0.4972 0.0
C251 C 0.48321 0.6827 0.50562 0.0
C252 C 0.53018 0.77437 0.50286 0.0
C253 C 0.47565 0.64004 0.51638 0.0
C254 C 0.51036 0.64213 0.53167 0.0
C255 C 0.52585 0.72758 0.5101 0.0
C256 C 0.55396 0.68709 0.53449 0.0
C257 C 0.57528 0.81863 0.50302 0.0
C258 C 0.48895 0.81815 0.49588 0.0
N259 N 0.56026 0.72825 0.52401 0.0
N260 N 0.4887 0.77554 0.49888 0.0
H261 H 0.67342 0.57111 0.83299 0.0
H262 H 0.8511 0.50541 0.90026 0.0
H263 H 0.62621 0.43435 0.86849 0.0
H264 H 0.90343 0.63841 0.86092 0.0
H265 H 0.7684 0.47857 0.88781 0.0
H266 H 0.7582 0.59607 0.84173 0.0
C267 C 0.68083 0.5462 0.84244 0.0
C268 C 0.64257 0.50074 0.85017 0.0
C269 C 0.79793 0.51359 0.88181 0.0
C270 C 0.73918 0.52911 0.8603 0.0
C271 C 0.8452 0.52899 0.88898 0.0
C272 C 0.8842 0.57431 0.8817 0.0
C273 C 0.78942 0.5438 0.86733 0.0
C274 C 0.87437 0.60322 0.86699 0.0
C275 C 0.72919 0.5605 0.84746 0.0
C276 C 0.65436 0.46992 0.86232 0.0
N277 N 0.82786 0.58756 0.86035 0.0
N278 N 0.70149 0.4848 0.86709 0.0
H279 H 0.18907 0.70717 0.13576 0.0
H280 H 0.32142 0.91527 0.22926 0.0
H281 H 0.11428 0.7214 0.19385 0.0
H282 H 0.39539 0.8909 0.17377 0.0
H283 H 0.24314 0.85374 0.21327 0.0
H284 H 0.2619 0.78384 0.14594 0.0
C285 C 0.18778 0.72677 0.15055 0.0
C286 C 0.14574 0.70744 0.1642 0.0
C287 C 0.27648 0.86226 0.20447 0.0
C288 C 0.2295 0.79526 0.17612 0.0
C289 C 0.32123 0.89741 0.21357 0.0
C290 C 0.3651 0.90777 0.203 0.0
C291 C 0.2756 0.83733 0.18465 0.0
C292 C 0.36256 0.88372 0.18264 0.0
C293 C 0.22949 0.7706 0.15636 0.0
C294 C 0.146 0.73485 0.18294 0.0
N295 N 0.3186 0.84935 0.17426 0.0
N296 N 0.18757 0.77709 0.18856 0.0
H297 H 0.43403 0.14811 0.4928 0.0
H298 H 0.59853 0.42796 0.53096 0.0
H299 H 0.57481 0.21019 0.52501 0.0
H300 H 0.44187 0.35847 0.52563 0.0
H301 H 0.59291 0.35133 0.51962 0.0
H302 H 0.43853 0.22796 0.4968 0.0
C303 C 0.46579 0.17843 0.50061 0.0
C304 C 0.50382 0.17241 0.50883 0.0
C305 C 0.55976 0.35292 0.52078 0.0
C306 C 0.5096 0.26319 0.51295 0.0
C307 C 0.56294 0.39672 0.52718 0.0
C308 C 0.52053 0.39941 0.52958 0.0
C309 C 0.51387 0.31139 0.51668 0.0
C310 C 0.47544 0.35778 0.52421 0.0
C311 C 0.46831 0.22376 0.50289 0.0
C312 C 0.54428 0.21286 0.51874 0.0
N313 N 0.47319 0.31518 0.51817 0.0
N314 N 0.5461 0.2564 0.52045 0.0
H315 H 0.26685 0.40711 0.8763 0.0
H316 H 0.25256 0.61907 0.82906 0.0
H317 H 0.30119 0.44359 0.80554 0.0
H318 H 0.13406 0.51706 0.8721 0.0
H319 H 0.26946 0.5539 0.81937 0.0
H320 H 0.21331 0.44169 0.87505 0.0
C321 C 0.2614 0.42051 0.86027 0.0
C322 C 0.28842 0.42274 0.84101 0.0
C323 C 0.23895 0.54545 0.83047 0.0
C324 C 0.2295 0.46426 0.83976 0.0
C325 C 0.22957 0.58265 0.83611 0.0
C326 C 0.19217 0.57333 0.8515 0.0
C327 C 0.21185 0.49925 0.84094 0.0
C328 C 0.16327 0.52557 0.86016 0.0
C329 C 0.23108 0.4404 0.85958 0.0
C330 C 0.28074 0.44106 0.82071 0.0
N331 N 0.17458 0.4905 0.85526 0.0
N332 N 0.25326 0.46277 0.82079 0.0
H333 H 0.83105 0.3622 0.12523 0.0
H334 H 0.67954 0.11633 0.19831 0.0
H335 H 0.89685 0.31791 0.17704 0.0
H336 H 0.61679 0.19703 0.16916 0.0
H337 H 0.75938 0.17793 0.1829 0.0
H338 H 0.75249 0.28849 0.13312 0.0
C339 C 0.82931 0.33651 0.13793 0.0
C340 C 0.87059 0.34662 0.1507 0.0
C341 C 0.72795 0.18175 0.17972 0.0
C342 C 0.78063 0.26231 0.1598 0.0
C343 C 0.68244 0.14664 0.18844 0.0
C344 C 0.64163 0.1519 0.18517 0.0
C345 C 0.7324 0.22181 0.16735 0.0
C346 C 0.64742 0.19188 0.17227 0.0
C347 C 0.78432 0.29463 0.14251 0.0
C348 C 0.8659 0.31187 0.16696 0.0
N349 N 0.69199 0.22535 0.16385 0.0
N350 N 0.82161 0.27139 0.17117 0.0
H351 H 0.97483 0.50545 0.05314 0.0
H352 H 0.17988 0.691 0.96589 0.0
H353 H 0.12309 0.61084 0.07194 0.0
H354 H 0.04431 0.56604 0.94411 0.0
H355 H 0.15673 0.665 0.00525 0.0
H356 H -0.00351 0.52991 0.01327 0.0
C357 C 0.01186 0.53355 0.04893 0.0
C358 C 0.04714 0.55604 0.06597 0.0
C359 C 0.13183 0.64341 0.99186 0.0
C360 C 0.07198 0.58441 0.02052 0.0
C361 C 0.14503 0.65829 0.96938 0.0
C362 C 0.11347 0.63139 0.95164 0.0
C363 C 0.0867 0.60117 0.99674 0.0
C364 C 0.06892 0.58907 0.95719 0.0
C365 C 0.02419 0.54747 0.02618 0.0
C366 C 0.09458 0.59231 0.05947 0.0
N367 N 0.05679 0.57531 0.97925 0.0
N368 N 0.10547 0.60542 0.03734 0.0
H369 H 0.58903 0.01289 0.41203 0.0
H370 H 0.50764 0.09178 0.2987 0.0
H371 H 0.49227 0.07122 0.41135 0.0
H372 H 0.57949 0.00701 0.29906 0.0
H373 H 0.51219 0.09554 0.34011 0.0
H374 H 0.59562 0.02084 0.37074 0.0
C375 C 0.56933 0.02758 0.40324 0.0
C376 C 0.53974 0.04106 0.41521 0.0
C377 C 0.52725 0.07641 0.3311 0.0
C378 C 0.54731 0.05039 0.36791 0.0
C379 C 0.52487 0.07443 0.30744 0.0
C380 C 0.54285 0.04868 0.29538 0.0
C381 C 0.54795 0.05268 0.34278 0.0
C382 C 0.56481 0.02694 0.30765 0.0
C383 C 0.57309 0.03205 0.37965 0.0
C384 C 0.51521 0.05999 0.40286 0.0
N385 N 0.56653 0.02923 0.33068 0.0
N386 N 0.51946 0.06399 0.37989 0.0
H387 H 0.54955 0.50305 0.75471 0.0
H388 H 0.39958 0.4279 0.63905 0.0
H389 H 0.39619 0.39412 0.75103 0.0
H390 H 0.55682 0.51485 0.64185 0.0
H391 H 0.39749 0.41434 0.67999 0.0
H392 H 0.55299 0.50718 0.71333 0.0
C393 C 0.51663 0.47977 0.74521 0.0
C394 C 0.47243 0.44838 0.7564 0.0
C395 C 0.43245 0.43607 0.67162 0.0
C396 C 0.47611 0.45322 0.70896 0.0
C397 C 0.43369 0.44392 0.64824 0.0
C398 C 0.47845 0.47282 0.63701 0.0
C399 C 0.47626 0.45765 0.6839 0.0
C400 C 0.52148 0.49245 0.64979 0.0
C401 C 0.51868 0.48211 0.72157 0.0
C402 C 0.43104 0.41891 0.74316 0.0
N403 N 0.51928 0.48482 0.67257 0.0
N404 N 0.43381 0.42237 0.72015 0.0
H405 H 0.50053 0.92375 0.58921 0.0
H406 H 0.4066 0.97376 0.70249 0.0
H407 H 0.49853 0.05836 0.59655 0.0
H408 H 0.51977 0.93707 0.70609 0.0
H409 H 0.42158 0.98815 0.66151 0.0
H410 H 0.49014 0.91126 0.63058 0.0
C411 C 0.49784 0.95055 0.59955 0.0
C412 C 0.50046 0.99218 0.58961 0.0
C413 C 0.44295 0.97685 0.67135 0.0
C414 C 0.48743 0.97747 0.63638 0.0
C415 C 0.4343 0.96836 0.69458 0.0
C416 C 0.46207 0.95425 0.70756 0.0
C417 C 0.47846 0.96963 0.66097 0.0
C418 C 0.4978 0.94811 0.6966 0.0
C419 C 0.49218 0.94352 0.62303 0.0
C420 C 0.49696 0.02597 0.60366 0.0
N421 N 0.50463 0.95525 0.67378 0.0
N422 N 0.48984 0.01751 0.62637 0.0
H423 H 0.54229 0.46 0.93175 0.0
H424 H 0.42294 0.43462 0.05205 0.0
H425 H 0.40384 0.45307 0.93835 0.0
H426 H 0.57493 0.5424 0.04139 0.0
H427 H 0.41346 0.42056 0.011 0.0
H428 H 0.55308 0.47056 0.97308 0.0
C429 C 0.51401 0.46021 0.94195 0.0
C430 C 0.47212 0.45572 0.93176 0.0
C431 C 0.44888 0.44698 0.01775 0.0
C432 C 0.48385 0.46674 0.97864 0.0
C433 C 0.45445 0.45481 0.04108 0.0
C434 C 0.49981 0.48975 0.05002 0.0
C435 C 0.48924 0.47328 0.00339 0.0
C436 C 0.53936 0.5153 0.03508 0.0
C437 C 0.52035 0.4665 0.96538 0.0
C438 C 0.43671 0.45663 0.94562 0.0
N439 N 0.53328 0.50628 0.01241 0.0
N440 N 0.44313 0.46155 0.96845 0.0
H441 H 0.97365 0.57405 0.24372 0.0
H442 H 0.05201 0.49116 0.35623 0.0
H443 H 0.02349 0.47 0.24442 0.0
H444 H 0.96015 0.55507 0.3579 0.0
H445 H 0.04949 0.49132 0.31489 0.0
H446 H 0.97512 0.57487 0.28532 0.0
C447 C 0.98481 0.55134 0.25258 0.0
C448 C -0.00154 0.52189 0.24053 0.0
C449 C 0.02985 0.50529 0.32428 0.0
C450 C 0.00065 0.5231 0.28802 0.0
C451 C 0.03145 0.50545 0.34791 0.0
C452 C 0.00618 0.52307 0.36058 0.0
C453 C 0.00321 0.52336 0.31314 0.0
C454 C 0.98004 0.54099 0.34881 0.0
C455 C 0.98553 0.55177 0.27631 0.0
C456 C 0.0125 0.49315 0.25294 0.0
N457 N 0.97935 0.54083 0.32572 0.0
N458 N 0.0135 0.49471 0.27597 0.0
loop_
_geom_bond_atom_site_label_1
_geom_bond_atom_site_label_2
_geom_bond_distance
_geom_bond_site_symmetry_2
_ccdc_geom_bond_type
O0 Zn1 1.953 . S
O0 C16 1.225 1_655 S
Zn1 O0 1.953 . S
Zn1 O2 1.949 1_655 S
Zn1 O8 1.919 . S
Zn1 O13 1.924 1_655 S
O2 Zn1 1.949 1_455 S
O2 Zn3 1.923 1_455 S
O2 Zn4 1.950 . S
O2 Zn5 1.945 . S
Zn3 O2 1.923 1_655 S
Zn3 O6 1.933 . S
Zn3 O9 1.941 . S
Zn3 O10 1.965 . S
Zn4 O2 1.950 . S
Zn4 O11 1.938 1_455 S
Zn4 O12 1.906 . S
Zn4 O22 1.953 . S
Zn5 O2 1.945 . S
Zn5 O7 1.932 . S
Zn5 O14 1.977 . S
Zn5 O15 1.910 . S
O6 Zn3 1.933 . S
O6 C17 1.226 1_655 S
O7 Zn5 1.932 . S
O7 C17 1.307 . S
O8 Zn1 1.919 . S
O8 C19 1.253 . S
O9 Zn3 1.941 . S
O9 C19 1.283 . S
O10 Zn3 1.965 . S
O10 C18 1.303 . S
O11 Zn4 1.938 1_655 S
O11 C18 1.247 . S
O12 Zn4 1.906 . S
O12 C20 1.304 . S
O13 Zn1 1.924 1_455 S
O13 C21 1.311 . S
O14 Zn5 1.977 . S
O14 C20 1.272 . S
O15 Zn5 1.910 . S
O15 C21 1.231 . S
C16 O0 1.225 1_455 S
C16 O22 1.298 . S
C17 O6 1.226 1_455 S
C17 O7 1.307 . S
C18 O10 1.303 . S
C18 O11 1.247 . S
C19 O8 1.253 . S
C19 O9 1.283 . S
C20 O12 1.304 . S
C20 O14 1.272 . S
C21 O13 1.311 . S
C21 O15 1.231 . S
O22 Zn4 1.953 . S
O22 C16 1.298 . S
O23 Zn24 1.953 . S
O23 C39 1.225 . S
Zn24 O23 1.953 . S
Zn24 O25 1.949 . S
Zn24 O31 1.919 . S
Zn24 O36 1.924 1_545 S
O25 Zn24 1.949 . S
O25 Zn26 1.923 . S
O25 Zn27 1.950 1_545 S
O25 Zn28 1.945 1_545 S
Zn26 O25 1.923 . S
Zn26 O29 1.933 . S
Zn26 O32 1.941 . S
Zn26 O33 1.965 . S
Zn27 O25 1.950 1_565 S
Zn27 O34 1.938 1_565 S
Zn27 O35 1.906 . S
Zn27 O45 1.953 . S
Zn28 O25 1.945 1_565 S
Zn28 O30 1.932 . S
Zn28 O37 1.977 . S
Zn28 O38 1.910 . S
O29 Zn26 1.933 . S
O29 C40 1.226 . S
O30 Zn28 1.932 . S
O30 C40 1.307 1_565 S
O31 Zn24 1.919 . S
O31 C42 1.253 . S
O32 Zn26 1.941 . S
O32 C42 1.283 . S
O33 Zn26 1.965 . S
O33 C41 1.303 . S
O34 Zn27 1.938 1_545 S
O34 C41 1.247 . S
O35 Zn27 1.906 . S
O35 C43 1.304 . S
O36 Zn24 1.924 1_565 S
O36 C44 1.311 . S
O37 Zn28 1.977 . S
O37 C43 1.272 . S
O38 Zn28 1.910 . S
O38 C44 1.231 . S
C39 O23 1.225 . S
C39 O45 1.298 1_545 S
C40 O29 1.226 . S
C40 O30 1.307 1_545 S
C41 O33 1.303 . S
C41 O34 1.247 . S
C42 O31 1.253 . S
C42 O32 1.283 . S
C43 O35 1.304 . S
C43 O37 1.272 . S
C44 O36 1.311 . S
C44 O38 1.231 . S
O45 Zn27 1.953 . S
O45 C39 1.298 1_565 S
O46 Zn47 1.953 . S
O46 C62 1.225 . S
Zn47 O46 1.953 . S
Zn47 O48 1.949 . S
Zn47 O54 1.919 . S
Zn47 O59 1.924 . S
O48 Zn47 1.949 . S
O48 Zn49 1.923 . S
O48 Zn50 1.950 . S
O48 Zn51 1.945 . S
Zn49 O48 1.923 . S
Zn49 O52 1.933 . S
Zn49 O55 1.941 . S
Zn49 O56 1.965 . S
Zn50 O48 1.950 . S
Zn50 O57 1.938 . S
Zn50 O58 1.906 . S
Zn50 O68 1.953 . S
Zn51 O48 1.945 . S
Zn51 O53 1.932 . S
Zn51 O60 1.977 . S
Zn51 O61 1.910 . S
O52 Zn49 1.933 . S
O52 C63 1.226 . S
O53 Zn51 1.932 . S
O53 C63 1.307 . S
O54 Zn47 1.919 . S
O54 C65 1.253 . S
O55 Zn49 1.941 . S
O55 C65 1.283 . S
O56 Zn49 1.965 . S
O56 C64 1.303 . S
O57 Zn50 1.938 . S
O57 C64 1.247 . S
O58 Zn50 1.906 . S
O58 C66 1.304 . S
O59 Zn47 1.924 . S
O59 C67 1.311 . S
O60 Zn51 1.977 . S
O60 C66 1.272 . S
O61 Zn51 1.910 . S
O61 C67 1.231 . S
C62 O46 1.225 . S
C62 O68 1.298 . S
C63 O52 1.226 . S
C63 O53 1.307 . S
C64 O56 1.303 . S
C64 O57 1.247 . S
C65 O54 1.253 . S
C65 O55 1.283 . S
C66 O58 1.304 . S
C66 O60 1.272 . S
C67 O59 1.311 . S
C67 O61 1.231 . S
O68 Zn50 1.953 . S
O68 C62 1.298 . S
O69 Cd70 2.300 . S
O69 C76 1.275 . S
Cd70 O69 2.300 . S
Cd70 O78 2.381 . S
Cd70 O79 2.378 . S
O71 Cd72 2.385 . S
O71 C76 1.255 1_565 S
Cd72 O71 2.385 . S
Cd72 O73 2.317 . S
O73 Cd72 2.317 . S
O73 C74 1.232 . S
C74 O73 1.232 . S
C74 O75 1.218 . S
O75 C74 1.218 . S
C76 O69 1.275 . S
C76 O71 1.255 1_545 S
C77 O78 1.258 . S
C77 O79 1.256 . S
O78 Cd70 2.381 . S
O78 C77 1.258 . S
O79 Cd70 2.378 . S
O79 C77 1.256 . S
O80 Cd81 2.300 . S
O80 C87 1.275 . S
Cd81 O80 2.300 . S
Cd81 O89 2.381 . S
Cd81 O90 2.378 . S
O82 Cd83 2.385 . S
O82 C87 1.255 . S
Cd83 O82 2.385 . S
Cd83 O84 2.317 . S
O84 Cd83 2.317 . S
O84 C85 1.232 . S
C85 O84 1.232 . S
C85 O86 1.218 . S
O86 C85 1.218 . S
C87 O80 1.275 . S
C87 O82 1.255 . S
C88 O89 1.258 . S
C88 O90 1.256 . S
O89 Cd81 2.381 . S
O89 C88 1.258 . S
O90 Cd81 2.378 . S
O90 C88 1.256 . S
O91 Cd92 2.300 . S
O91 C98 1.275 . S
Cd92 O91 2.300 . S
Cd92 O100 2.381 . S
Cd92 O101 2.378 . S
O93 Cd94 2.385 . S
O93 C98 1.255 1_655 S
Cd94 O93 2.385 . S
Cd94 O95 2.317 . S
O95 Cd94 2.317 . S
O95 C96 1.232 . S
C96 O95 1.232 . S
C96 O97 1.218 . S
O97 C96 1.218 . S
C98 O91 1.275 . S
C98 O93 1.255 1_455 S
C99 O100 1.258 . S
C99 O101 1.256 . S
O100 Cd92 2.381 . S
O100 C99 1.258 . S
O101 Cd92 2.378 . S
O101 C99 1.256 . S
O102 Cd103 2.300 . S
O102 C109 1.275 1_455 S
Cd103 O102 2.300 . S
Cd103 O111 2.381 . S
Cd103 O112 2.378 . S
O104 Cd105 2.385 . S
O104 C109 1.255 . S
Cd105 O104 2.385 . S
Cd105 O106 2.317 . S
O106 Cd105 2.317 . S
O106 C107 1.232 . S
C107 O106 1.232 . S
C107 O108 1.218 . S
O108 C107 1.218 . S
C109 O102 1.275 1_655 S
C109 O104 1.255 . S
C110 O111 1.258 . S
C110 O112 1.256 . S
O111 Cd103 2.381 . S
O111 C110 1.258 . S
O112 Cd103 2.378 . S
O112 C110 1.256 . S
O113 Cd114 2.300 . S
O113 C120 1.275 1_565 S
Cd114 O113 2.300 . S
Cd114 O122 2.381 . S
Cd114 O123 2.378 . S
O115 Cd116 2.385 . S
O115 C120 1.255 . S
Cd116 O115 2.385 . S
Cd116 O117 2.317 . S
O117 Cd116 2.317 . S
O117 C118 1.232 . S
C118 O117 1.232 . S
C118 O119 1.218 . S
O119 C118 1.218 . S
C120 O113 1.275 1_545 S
C120 O115 1.255 . S
C121 O122 1.258 . S
C121 O123 1.256 . S
O122 Cd114 2.381 . S
O122 C121 1.258 . S
O123 Cd114 2.378 . S
O123 C121 1.256 . S
O124 Cd125 2.300 . S
O124 C131 1.275 . S
Cd125 O124 2.300 . S
Cd125 O133 2.381 . S
Cd125 O134 2.378 . S
O126 Cd127 2.385 . S
O126 C131 1.255 . S
Cd127 O126 2.385 . S
Cd127 O128 2.317 . S
O128 Cd127 2.317 . S
O128 C129 1.232 . S
C129 O128 1.232 . S
C129 O130 1.218 . S
O130 C129 1.218 . S
C131 O124 1.275 . S
C131 O126 1.255 . S
C132 O133 1.258 . S
C132 O134 1.256 . S
O133 Cd125 2.381 . S
O133 C132 1.258 . S
O134 Cd125 2.378 . S
O134 C132 1.256 . S
H135 C141 0.930 . S
H136 C145 0.930 . S
H137 C150 0.929 . S
H138 C148 0.929 . S
H139 C143 0.929 . S
H140 C149 0.929 . S
C141 H135 0.930 . S
C141 C142 1.367 . S
C141 C149 1.378 . S
C142 C141 1.367 . S
C142 C150 1.433 . S
C143 H139 0.929 . S
C143 C145 1.378 . S
C143 C147 1.350 . S
C144 C147 1.463 . S
C144 C149 1.350 . S
C144 N152 1.427 . S
C145 H136 0.930 . S
C145 C143 1.378 . S
C145 C146 1.367 . S
C146 C145 1.367 . S
C146 C148 1.433 . S
C147 C143 1.350 . S
C147 C144 1.463 . S
C147 N151 1.427 . S
C148 H138 0.929 . S
C148 C146 1.433 . S
C148 N151 1.384 . S
C149 H140 0.929 . S
C149 C141 1.378 . S
C149 C144 1.350 . S
C150 H137 0.929 . S
C150 C142 1.433 . S
C150 N152 1.384 . S
N151 C147 1.427 . S
N151 C148 1.384 . S
N152 C144 1.427 . S
N152 C150 1.384 . S
H153 C159 0.930 . S
H154 C163 0.930 . S
H155 C168 0.929 . S
H156 C166 0.929 . S
H157 C161 0.929 . S
H158 C167 0.929 . S
C159 H153 0.930 . S
C159 C160 1.367 . S
C159 C167 1.378 . S
C160 C159 1.367 . S
C160 C168 1.433 . S
C161 H157 0.929 . S
C161 C163 1.378 . S
C161 C165 1.350 . S
C162 C165 1.463 . S
C162 C167 1.350 . S
C162 N170 1.427 . S
C163 H154 0.930 . S
C163 C161 1.378 . S
C163 C164 1.367 . S
C164 C163 1.367 . S
C164 C166 1.433 . S
C165 C161 1.350 . S
C165 C162 1.463 . S
C165 N169 1.427 . S
C166 H156 0.929 . S
C166 C164 1.433 . S
C166 N169 1.384 . S
C167 H158 0.929 . S
C167 C159 1.378 . S
C167 C162 1.350 . S
C168 H155 0.929 . S
C168 C160 1.433 . S
C168 N170 1.384 . S
N169 C165 1.427 . S
N169 C166 1.384 . S
N170 C162 1.427 . S
N170 C168 1.384 . S
H171 C177 0.930 . S
H172 C181 0.930 . S
H173 C186 0.929 . S
H174 C184 0.929 . S
H175 C179 0.929 . S
H176 C185 0.929 . S
C177 H171 0.930 . S
C177 C178 1.367 . S
C177 C185 1.378 . S
C178 C177 1.367 . S
C178 C186 1.433 . S
C179 H175 0.929 . S
C179 C181 1.378 . S
C179 C183 1.350 . S
C180 C183 1.463 . S
C180 C185 1.350 . S
C180 N188 1.427 . S
C181 H172 0.930 . S
C181 C179 1.378 . S
C181 C182 1.367 . S
C182 C181 1.367 . S
C182 C184 1.433 . S
C183 C179 1.350 . S
C183 C180 1.463 . S
C183 N187 1.427 . S
C184 H174 0.929 . S
C184 C182 1.433 . S
C184 N187 1.384 . S
C185 H176 0.929 . S
C185 C177 1.378 . S
C185 C180 1.350 . S
C186 H173 0.929 . S
C186 C178 1.433 . S
C186 N188 1.384 . S
N187 C183 1.427 . S
N187 C184 1.384 . S
N188 C180 1.427 . S
N188 C186 1.384 . S
H189 C195 0.930 . S
H190 C199 0.930 . S
H191 C204 0.929 . S
H192 C202 0.929 . S
H193 C197 0.929 . S
H194 C203 0.929 . S
C195 H189 0.930 . S
C195 C196 1.367 . S
C195 C203 1.378 . S
C196 C195 1.367 . S
C196 C204 1.433 . S
C197 H193 0.929 . S
C197 C199 1.378 . S
C197 C201 1.350 . S
C198 C201 1.463 . S
C198 C203 1.350 . S
C198 N206 1.427 . S
C199 H190 0.930 . S
C199 C197 1.378 . S
C199 C200 1.367 . S
C200 C199 1.367 . S
C200 C202 1.433 . S
C201 C197 1.350 . S
C201 C198 1.463 . S
C201 N205 1.427 . S
C202 H192 0.929 . S
C202 C200 1.433 . S
C202 N205 1.384 . S
C203 H194 0.929 . S
C203 C195 1.378 . S
C203 C198 1.350 . S
C204 H191 0.929 . S
C204 C196 1.433 . S
C204 N206 1.384 . S
N205 C201 1.427 . S
N205 C202 1.384 . S
N206 C198 1.427 . S
N206 C204 1.384 . S
H207 C213 0.930 . S
H208 C217 0.930 . S
H209 C222 0.929 . S
H210 C220 0.929 . S
H211 C215 0.929 . S
H212 C221 0.929 . S
C213 H207 0.930 . S
C213 C214 1.367 . S
C213 C221 1.378 . S
C214 C213 1.367 . S
C214 C222 1.433 . S
C215 H211 0.929 . S
C215 C217 1.378 . S
C215 C219 1.350 . S
C216 C219 1.463 . S
C216 C221 1.350 . S
C216 N224 1.427 . S
C217 H208 0.930 . S
C217 C215 1.378 . S
C217 C218 1.367 . S
C218 C217 1.367 . S
C218 C220 1.433 . S
C219 C215 1.350 . S
C219 C216 1.463 . S
C219 N223 1.427 . S
C220 H210 0.929 . S
C220 C218 1.433 . S
C220 N223 1.384 . S
C221 H212 0.929 . S
C221 C213 1.378 . S
C221 C216 1.350 . S
C222 H209 0.929 . S
C222 C214 1.433 . S
C222 N224 1.384 . S
N223 C219 1.427 . S
N223 C220 1.384 . S
N224 C216 1.427 . S
N224 C222 1.384 . S
H225 C231 0.930 . S
H226 C235 0.930 . S
H227 C240 0.929 . S
H228 C238 0.929 . S
H229 C233 0.929 . S
H230 C239 0.929 . S
C231 H225 0.930 . S
C231 C232 1.367 . S
C231 C239 1.378 . S
C232 C231 1.367 . S
C232 C240 1.433 . S
C233 H229 0.929 . S
C233 C235 1.378 . S
C233 C237 1.350 . S
C234 C237 1.463 . S
C234 C239 1.350 . S
C234 N242 1.427 . S
C235 H226 0.930 . S
C235 C233 1.378 . S
C235 C236 1.367 . S
C236 C235 1.367 . S
C236 C238 1.433 . S
C237 C233 1.350 . S
C237 C234 1.463 . S
C237 N241 1.427 . S
C238 H228 0.929 . S
C238 C236 1.433 . S
C238 N241 1.384 . S
C239 H230 0.929 . S
C239 C231 1.378 . S
C239 C234 1.350 . S
C240 H227 0.929 . S
C240 C232 1.433 . S
C240 N242 1.384 . S
N241 C237 1.427 . S
N241 C238 1.384 . S
N242 C234 1.427 . S
N242 C240 1.384 . S
H243 C249 0.930 . S
H244 C253 0.930 . S
H245 C258 0.929 . S
H246 C256 0.929 . S
H247 C251 0.929 . S
H248 C257 0.929 . S
C249 H243 0.930 . S
C249 C250 1.367 . S
C249 C257 1.378 . S
C250 C249 1.367 . S
C250 C258 1.433 . S
C251 H247 0.929 . S
C251 C253 1.378 . S
C251 C255 1.350 . S
C252 C255 1.463 . S
C252 C257 1.350 . S
C252 N260 1.427 . S
C253 H244 0.930 . S
C253 C251 1.378 . S
C253 C254 1.367 . S
C254 C253 1.367 . S
C254 C256 1.433 . S
C255 C251 1.350 . S
C255 C252 1.463 . S
C255 N259 1.427 . S
C256 H246 0.929 . S
C256 C254 1.433 . S
C256 N259 1.384 . S
C257 H248 0.929 . S
C257 C249 1.378 . S
C257 C252 1.350 . S
C258 H245 0.929 . S
C258 C250 1.433 . S
C258 N260 1.384 . S
N259 C255 1.427 . S
N259 C256 1.384 . S
N260 C252 1.427 . S
N260 C258 1.384 . S
H261 C267 0.930 . S
H262 C271 0.930 . S
H263 C276 0.929 . S
H264 C274 0.929 . S
H265 C269 0.929 . S
H266 C275 0.929 . S
C267 H261 0.930 . S
C267 C268 1.367 . S
C267 C275 1.378 . S
C268 C267 1.367 . S
C268 C276 1.433 . S
C269 H265 0.929 . S
C269 C271 1.378 . S
C269 C273 1.350 . S
C270 C273 1.463 . S
C270 C275 1.350 . S
C270 N278 1.427 . S
C271 H262 0.930 . S
C271 C269 1.378 . S
C271 C272 1.367 . S
C272 C271 1.367 . S
C272 C274 1.433 . S
C273 C269 1.350 . S
C273 C270 1.463 . S
C273 N277 1.427 . S
C274 H264 0.929 . S
C274 C272 1.433 . S
C274 N277 1.384 . S
C275 H266 0.929 . S
C275 C267 1.378 . S
C275 C270 1.350 . S
C276 H263 0.929 . S
C276 C268 1.433 . S
C276 N278 1.384 . S
N277 C273 1.427 . S
N277 C274 1.384 . S
N278 C270 1.427 . S
N278 C276 1.384 . S
H279 C285 0.930 . S
H280 C289 0.930 . S
H281 C294 0.929 . S
H282 C292 0.929 . S
H283 C287 0.929 . S
H284 C293 0.929 . S
C285 H279 0.930 . S
C285 C286 1.367 . S
C285 C293 1.378 . S
C286 C285 1.367 . S
C286 C294 1.433 . S
C287 H283 0.929 . S
C287 C289 1.378 . S
C287 C291 1.350 . S
C288 C291 1.463 . S
C288 C293 1.350 . S
C288 N296 1.427 . S
C289 H280 0.930 . S
C289 C287 1.378 . S
C289 C290 1.367 . S
C290 C289 1.367 . S
C290 C292 1.433 . S
C291 C287 1.350 . S
C291 C288 1.463 . S
C291 N295 1.427 . S
C292 H282 0.929 . S
C292 C290 1.433 . S
C292 N295 1.384 . S
C293 H284 0.929 . S
C293 C285 1.378 . S
C293 C288 1.350 . S
C294 H281 0.929 . S
C294 C286 1.433 . S
C294 N296 1.384 . S
N295 C291 1.427 . S
N295 C292 1.384 . S
N296 C288 1.427 . S
N296 C294 1.384 . S
H297 C303 0.930 . S
H298 C307 0.930 . S
H299 C312 0.929 . S
H300 C310 0.929 . S
H301 C305 0.929 . S
H302 C311 0.929 . S
C303 H297 0.930 . S
C303 C304 1.367 . S
C303 C311 1.378 . S
C304 C303 1.367 . S
C304 C312 1.433 . S
C305 H301 0.929 . S
C305 C307 1.378 . S
C305 C309 1.350 . S
C306 C309 1.463 . S
C306 C311 1.350 . S
C306 N314 1.427 . S
C307 H298 0.930 . S
C307 C305 1.378 . S
C307 C308 1.367 . S
C308 C307 1.367 . S
C308 C310 1.433 . S
C309 C305 1.350 . S
C309 C306 1.463 . S
C309 N313 1.427 . S
C310 H300 0.929 . S
C310 C308 1.433 . S
C310 N313 1.384 . S
C311 H302 0.929 . S
C311 C303 1.378 . S
C311 C306 1.350 . S
C312 H299 0.929 . S
C312 C304 1.433 . S
C312 N314 1.384 . S
N313 C309 1.427 . S
N313 C310 1.384 . S
N314 C306 1.427 . S
N314 C312 1.384 . S
H315 C321 0.930 . S
H316 C325 0.930 . S
H317 C330 0.929 . S
H318 C328 0.929 . S
H319 C323 0.929 . S
H320 C329 0.929 . S
C321 H315 0.930 . S
C321 C322 1.367 . S
C321 C329 1.378 . S
C322 C321 1.367 . S
C322 C330 1.433 . S
C323 H319 0.929 . S
C323 C325 1.378 . S
C323 C327 1.350 . S
C324 C327 1.463 . S
C324 C329 1.350 . S
C324 N332 1.427 . S
C325 H316 0.930 . S
C325 C323 1.378 . S
C325 C326 1.367 . S
C326 C325 1.367 . S
C326 C328 1.433 . S
C327 C323 1.350 . S
C327 C324 1.463 . S
C327 N331 1.427 . S
C328 H318 0.929 . S
C328 C326 1.433 . S
C328 N331 1.384 . S
C329 H320 0.929 . S
C329 C321 1.378 . S
C329 C324 1.350 . S
C330 H317 0.929 . S
C330 C322 1.433 . S
C330 N332 1.384 . S
N331 C327 1.427 . S
N331 C328 1.384 . S
N332 C324 1.427 . S
N332 C330 1.384 . S
H333 C339 0.930 . S
H334 C343 0.930 . S
H335 C348 0.929 . S
H336 C346 0.929 . S
H337 C341 0.929 . S
H338 C347 0.929 . S
C339 H333 0.930 . S
C339 C340 1.367 . S
C339 C347 1.378 . S
C340 C339 1.367 . S
C340 C348 1.433 . S
C341 H337 0.929 . S
C341 C343 1.378 . S
C341 C345 1.350 . S
C342 C345 1.463 . S
C342 C347 1.350 . S
C342 N350 1.427 . S
C343 H334 0.930 . S
C343 C341 1.378 . S
C343 C344 1.367 . S
C344 C343 1.367 . S
C344 C346 1.433 . S
C345 C341 1.350 . S
C345 C342 1.463 . S
C345 N349 1.427 . S
C346 H336 0.929 . S
C346 C344 1.433 . S
C346 N349 1.384 . S
C347 H338 0.929 . S
C347 C339 1.378 . S
C347 C342 1.350 . S
C348 H335 0.929 . S
C348 C340 1.433 . S
C348 N350 1.384 . S
N349 C345 1.427 . S
N349 C346 1.384 . S
N350 C342 1.427 . S
N350 C348 1.384 . S
H351 C357 0.930 . S
H352 C361 0.930 . S
H353 C366 0.929 . S
H354 C364 0.929 . S
H355 C359 0.929 1_554 S
H356 C365 0.929 . S
C357 H351 0.930 . S
C357 C358 1.367 1_655 S
C357 C365 1.378 . S
C358 C357 1.367 1_455 S
C358 C366 1.433 . S
C359 H355 0.929 1_556 S
C359 C361 1.378 . S
C359 C363 1.350 1_556 S
C360 C363 1.463 . S
C360 C365 1.350 1_455 S
C360 N368 1.427 . S
C361 H352 0.930 . S
C361 C359 1.378 . S
C361 C362 1.367 . S
C362 C361 1.367 . S
C362 C364 1.433 1_455 S
C363 C359 1.350 1_554 S
C363 C360 1.463 . S
C363 N367 1.427 1_454 S
C364 H354 0.929 . S
C364 C362 1.433 1_655 S
C364 N367 1.384 . S
C365 H356 0.929 . S
C365 C357 1.378 . S
C365 C360 1.350 1_655 S
C366 H353 0.929 . S
C366 C358 1.433 . S
C366 N368 1.384 . S
N367 C363 1.427 1_656 S
N367 C364 1.384 . S
N368 C360 1.427 . S
N368 C366 1.384 . S
H369 C375 0.930 . S
H370 C379 0.930 . S
H371 C384 0.929 . S
H372 C382 0.929 . S
H373 C377 0.929 . S
H374 C383 0.929 . S
C375 H369 0.930 . S
C375 C376 1.367 1_565 S
C375 C383 1.378 . S
C376 C375 1.367 1_545 S
C376 C384 1.433 . S
C377 H373 0.929 . S
C377 C379 1.378 . S
C377 C381 1.350 . S
C378 C381 1.463 . S
C378 C383 1.350 1_545 S
C378 N386 1.427 . S
C379 H370 0.930 . S
C379 C377 1.378 . S
C379 C380 1.367 . S
C380 C379 1.367 . S
C380 C382 1.433 1_545 S
C381 C377 1.350 . S
C381 C378 1.463 . S
C381 N385 1.427 1_545 S
C382 H372 0.929 . S
C382 C380 1.433 1_565 S
C382 N385 1.384 . S
C383 H374 0.929 . S
C383 C375 1.378 . S
C383 C378 1.350 1_565 S
C384 H371 0.929 . S
C384 C376 1.433 . S
C384 N386 1.384 . S
N385 C381 1.427 1_565 S
N385 C382 1.384 . S
N386 C378 1.427 . S
N386 C384 1.384 . S
H387 C393 0.930 . S
H388 C397 0.930 . S
H389 C402 0.929 . S
H390 C400 0.929 . S
H391 C395 0.929 . S
H392 C401 0.929 . S
C393 H387 0.930 . S
C393 C394 1.367 . S
C393 C401 1.378 . S
C394 C393 1.367 . S
C394 C402 1.433 . S
C395 H391 0.929 . S
C395 C397 1.378 . S
C395 C399 1.350 . S
C396 C399 1.463 . S
C396 C401 1.350 . S
C396 N404 1.427 . S
C397 H388 0.930 . S
C397 C395 1.378 . S
C397 C398 1.367 . S
C398 C397 1.367 . S
C398 C400 1.433 . S
C399 C395 1.350 . S
C399 C396 1.463 . S
C399 N403 1.427 . S
C400 H390 0.929 . S
C400 C398 1.433 . S
C400 N403 1.384 . S
C401 H392 0.929 . S
C401 C393 1.378 . S
C401 C396 1.350 . S
C402 H389 0.929 . S
C402 C394 1.433 . S
C402 N404 1.384 . S
N403 C399 1.427 . S
N403 C400 1.384 . S
N404 C396 1.427 . S
N404 C402 1.384 . S
H405 C411 0.930 . S
H406 C415 0.930 . S
H407 C420 0.929 . S
H408 C418 0.929 . S
H409 C413 0.929 . S
H410 C419 0.929 . S
C411 H405 0.930 . S
C411 C412 1.367 1_565 S
C411 C419 1.378 . S
C412 C411 1.367 1_545 S
C412 C420 1.433 . S
C413 H409 0.929 . S
C413 C415 1.378 . S
C413 C417 1.350 . S
C414 C417 1.463 . S
C414 C419 1.350 1_545 S
C414 N422 1.427 . S
C415 H406 0.930 . S
C415 C413 1.378 . S
C415 C416 1.367 . S
C416 C415 1.367 . S
C416 C418 1.433 1_545 S
C417 C413 1.350 . S
C417 C414 1.463 . S
C417 N421 1.427 1_545 S
C418 H408 0.929 . S
C418 C416 1.433 1_565 S
C418 N421 1.384 . S
C419 H410 0.929 . S
C419 C411 1.378 . S
C419 C414 1.350 1_565 S
C420 H407 0.929 . S
C420 C412 1.433 . S
C420 N422 1.384 . S
N421 C417 1.427 1_565 S
N421 C418 1.384 . S
N422 C414 1.427 . S
N422 C420 1.384 . S
H423 C429 0.930 . S
H424 C433 0.930 . S
H425 C438 0.929 . S
H426 C436 0.929 . S
H427 C431 0.929 1_556 S
H428 C437 0.929 . S
C429 H423 0.930 . S
C429 C430 1.367 . S
C429 C437 1.378 . S
C430 C429 1.367 . S
C430 C438 1.433 . S
C431 H427 0.929 1_554 S
C431 C433 1.378 . S
C431 C435 1.350 1_554 S
C432 C435 1.463 . S
C432 C437 1.350 . S
C432 N440 1.427 . S
C433 H424 0.930 . S
C433 C431 1.378 . S
C433 C434 1.367 . S
C434 C433 1.367 . S
C434 C436 1.433 . S
C435 C431 1.350 1_556 S
C435 C432 1.463 . S
C435 N439 1.427 1_556 S
C436 H426 0.929 . S
C436 C434 1.433 . S
C436 N439 1.384 . S
C437 H428 0.929 . S
C437 C429 1.378 . S
C437 C432 1.350 . S
C438 H425 0.929 . S
C438 C430 1.433 . S
C438 N440 1.384 . S
N439 C435 1.427 1_554 S
N439 C436 1.384 . S
N440 C432 1.427 . S
N440 C438 1.384 . S
H441 C447 0.930 . S
H442 C451 0.930 . S
H443 C456 0.929 . S
H444 C454 0.929 . S
H445 C449 0.929 . S
H446 C455 0.929 . S
C447 H441 0.930 . S
C447 C448 1.367 1_655 S
C447 C455 1.378 . S
C448 C447 1.367 1_455 S
C448 C456 1.433 . S
C449 H445 0.929 . S
C449 C451 1.378 . S
C449 C453 1.350 1_455 S
C450 C453 1.463 . S
C450 C455 1.350 . S
C450 N458 1.427 1_655 S
C451 H442 0.930 . S
C451 C449 1.378 . S
C451 C452 1.367 1_455 S
C452 C451 1.367 1_655 S
C452 C454 1.433 . S
C453 C449 1.350 1_655 S
C453 C450 1.463 . S
C453 N457 1.427 . S
C454 H444 0.929 . S
C454 C452 1.433 . S
C454 N457 1.384 . S
C455 H446 0.929 . S
C455 C447 1.378 . S
C455 C450 1.350 . S
C456 H443 0.929 . S
C456 C448 1.433 . S
C456 N458 1.384 . S
N457 C453 1.427 . S
N457 C454 1.384 . S
N458 C450 1.427 1_455 S
N458 C456 1.384 . S
C142 C20 1.383 . S
C146 C129 1.279 . S
C160 C41 1.458 . S
C164 C107 1.308 . S
C178 C64 1.139 . S
C182 C121 1.116 . S
C196 C19 1.101 . S
C200 C132 1.121 . S
C218 C110 1.102 . S
C214 C44 1.114 . S
C236 C118 1.301 . S
C232 C67 1.440 . S
C250 C43 1.395 . S
C254 C85 1.268 . S
C268 C66 1.396 . S
C272 C96 1.263 . S
C286 C21 1.448 . S
C290 C74 1.315 . S
C308 C88 1.105 . S
C304 C42 1.088 . S
C326 C99 1.127 . S
C322 C65 1.111 . S
C340 C18 1.120 . S
C344 C77 1.093 . S
C362 C98 1.431 . S
C358 C17 1.500 . S
C376 C39 1.496 . S
C380 C76 1.425 . S
C394 C62 1.514 . S
C398 C87 1.433 . S
C416 C120 1.422 . S
C412 C40 1.482 . S
C434 C131 1.435 . S
C430 C63 1.499 . S
C448 C16 1.497 . S
C452 C109 1.435 . S
