# Generated by pormake.
# Topology gar, (4,6)-cn, num edge types: 1
# Building blocks:
#     Node 0, Type 0, BuildingBlock: QUQFOY_clean_sbu_3, # of connection points: 4
#     Node 1, Type 0, BuildingBlock: QUQFOY_clean_sbu_3, # of connection points: 4
#     Node 2, Type 0, BuildingBlock: QUQFOY_clean_sbu_3, # of connection points: 4
#     Node 3, Type 0, BuildingBlock: QUQFOY_clean_sbu_3, # of connection points: 4
#     Node 4, Type 0, BuildingBlock: QUQFOY_clean_sbu_3, # of connection points: 4
#     Node 5, Type 0, BuildingBlock: QUQFOY_clean_sbu_3, # of connection points: 4
#     Node 6, Type 0, BuildingBlock: QUQFOY_clean_sbu_3, # of connection points: 4
#     Node 7, Type 0, BuildingBlock: QUQFOY_clean_sbu_3, # of connection points: 4
#     Node 8, Type 0, BuildingBlock: QUQFOY_clean_sbu_3, # of connection points: 4
#     Node 9, Type 0, BuildingBlock: QUQFOY_clean_sbu_3, # of connection points: 4
#     Node 10, Type 0, BuildingBlock: QUQFOY_clean_sbu_3, # of connection points: 4
#     Node 11, Type 0, BuildingBlock: QUQFOY_clean_sbu_3, # of connection points: 4
#     Node 12, Type 0, BuildingBlock: QUQFOY_clean_sbu_3, # of connection points: 4
#     Node 13, Type 0, BuildingBlock: QUQFOY_clean_sbu_3, # of connection points: 4
#     Node 14, Type 0, BuildingBlock: QUQFOY_clean_sbu_3, # of connection points: 4
#     Node 15, Type 0, BuildingBlock: QUQFOY_clean_sbu_3, # of connection points: 4
#     Node 16, Type 0, BuildingBlock: QUQFOY_clean_sbu_3, # of connection points: 4
#     Node 17, Type 0, BuildingBlock: QUQFOY_clean_sbu_3, # of connection points: 4
#     Node 18, Type 0, BuildingBlock: QUQFOY_clean_sbu_3, # of connection points: 4
#     Node 19, Type 0, BuildingBlock: QUQFOY_clean_sbu_3, # of connection points: 4
#     Node 20, Type 0, BuildingBlock: QUQFOY_clean_sbu_3, # of connection points: 4
#     Node 21, Type 0, BuildingBlock: QUQFOY_clean_sbu_3, # of connection points: 4
#     Node 22, Type 0, BuildingBlock: QUQFOY_clean_sbu_3, # of connection points: 4
#     Node 23, Type 0, BuildingBlock: QUQFOY_clean_sbu_3, # of connection points: 4
#     Node 24, Type 1, BuildingBlock: PAMTUU_clean_sbu_0, # of connection points: 6
#     Node 25, Type 1, BuildingBlock: PAMTUU_clean_sbu_0, # of connection points: 6
#     Node 26, Type 1, BuildingBlock: PAMTUU_clean_sbu_0, # of connection points: 6
#     Node 27, Type 1, BuildingBlock: PAMTUU_clean_sbu_0, # of connection points: 6
#     Node 28, Type 1, BuildingBlock: PAMTUU_clean_sbu_0, # of connection points: 6
#     Node 29, Type 1, BuildingBlock: PAMTUU_clean_sbu_0, # of connection points: 6
#     Node 30, Type 1, BuildingBlock: PAMTUU_clean_sbu_0, # of connection points: 6
#     Node 31, Type 1, BuildingBlock: PAMTUU_clean_sbu_0, # of connection points: 6
#     Node 32, Type 1, BuildingBlock: PAMTUU_clean_sbu_0, # of connection points: 6
#     Node 33, Type 1, BuildingBlock: PAMTUU_clean_sbu_0, # of connection points: 6
#     Node 34, Type 1, BuildingBlock: PAMTUU_clean_sbu_0, # of connection points: 6
#     Node 35, Type 1, BuildingBlock: PAMTUU_clean_sbu_0, # of connection points: 6
#     Node 36, Type 1, BuildingBlock: PAMTUU_clean_sbu_0, # of connection points: 6
#     Node 37, Type 1, BuildingBlock: PAMTUU_clean_sbu_0, # of connection points: 6
#     Node 38, Type 1, BuildingBlock: PAMTUU_clean_sbu_0, # of connection points: 6
#     Node 39, Type 1, BuildingBlock: PAMTUU_clean_sbu_0, # of connection points: 6
#     Edge 40, Type (0, 1), BuildingBlock: OJICUG_clean_linker_0, # of connection points: 2
#     Edge 41, Type (0, 1), BuildingBlock: OJICUG_clean_linker_0, # of connection points: 2
#     Edge 42, Type (0, 1), BuildingBlock: OJICUG_clean_linker_0, # of connection points: 2
#     Edge 43, Type (0, 1), BuildingBlock: OJICUG_clean_linker_0, # of connection points: 2
#     Edge 44, Type (0, 1), BuildingBlock: OJICUG_clean_linker_0, # of connection points: 2
#     Edge 45, Type (0, 1), BuildingBlock: OJICUG_clean_linker_0, # of connection points: 2
#     Edge 46, Type (0, 1), BuildingBlock: OJICUG_clean_linker_0, # of connection points: 2
#     Edge 47, Type (0, 1), BuildingBlock: OJICUG_clean_linker_0, # of connection points: 2
#     Edge 48, Type (0, 1), BuildingBlock: OJICUG_clean_linker_0, # of connection points: 2
#     Edge 49, Type (0, 1), BuildingBlock: OJICUG_clean_linker_0, # of connection points: 2
#     Edge 50, Type (0, 1), BuildingBlock: OJICUG_clean_linker_0, # of connection points: 2
#     Edge 51, Type (0, 1), BuildingBlock: OJICUG_clean_linker_0, # of connection points: 2
#     Edge 52, Type (0, 1), BuildingBlock: OJICUG_clean_linker_0, # of connection points: 2
#     Edge 53, Type (0, 1), BuildingBlock: OJICUG_clean_linker_0, # of connection points: 2
#     Edge 54, Type (0, 1), BuildingBlock: OJICUG_clean_linker_0, # of connection points: 2
#     Edge 55, Type (0, 1), BuildingBlock: OJICUG_clean_linker_0, # of connection points: 2
#     Edge 56, Type (0, 1), BuildingBlock: OJICUG_clean_linker_0, # of connection points: 2
#     Edge 57, Type (0, 1), BuildingBlock: OJICUG_clean_linker_0, # of connection points: 2
#     Edge 58, Type (0, 1), BuildingBlock: OJICUG_clean_linker_0, # of connection points: 2
#     Edge 59, Type (0, 1), BuildingBlock: OJICUG_clean_linker_0, # of connection points: 2
#     Edge 60, Type (0, 1), BuildingBlock: OJICUG_clean_linker_0, # of connection points: 2
#     Edge 61, Type (0, 1), BuildingBlock: OJICUG_clean_linker_0, # of connection points: 2
#     Edge 62, Type (0, 1), BuildingBlock: OJICUG_clean_linker_0, # of connection points: 2
#     Edge 63, Type (0, 1), BuildingBlock: OJICUG_clean_linker_0, # of connection points: 2
#     Edge 64, Type (0, 1), BuildingBlock: OJICUG_clean_linker_0, # of connection points: 2
#     Edge 65, Type (0, 1), BuildingBlock: OJICUG_clean_linker_0, # of connection points: 2
#     Edge 66, Type (0, 1), BuildingBlock: OJICUG_clean_linker_0, # of connection points: 2
#     Edge 67, Type (0, 1), BuildingBlock: OJICUG_clean_linker_0, # of connection points: 2
#     Edge 68, Type (0, 1), BuildingBlock: OJICUG_clean_linker_0, # of connection points: 2
#     Edge 69, Type (0, 1), BuildingBlock: OJICUG_clean_linker_0, # of connection points: 2
#     Edge 70, Type (0, 1), BuildingBlock: OJICUG_clean_linker_0, # of connection points: 2
#     Edge 71, Type (0, 1), BuildingBlock: OJICUG_clean_linker_0, # of connection points: 2
#     Edge 72, Type (0, 1), BuildingBlock: OJICUG_clean_linker_0, # of connection points: 2
#     Edge 73, Type (0, 1), BuildingBlock: OJICUG_clean_linker_0, # of connection points: 2
#     Edge 74, Type (0, 1), BuildingBlock: OJICUG_clean_linker_0, # of connection points: 2
#     Edge 75, Type (0, 1), BuildingBlock: OJICUG_clean_linker_0, # of connection points: 2
#     Edge 76, Type (0, 1), BuildingBlock: OJICUG_clean_linker_0, # of connection points: 2
#     Edge 77, Type (0, 1), BuildingBlock: OJICUG_clean_linker_0, # of connection points: 2
#     Edge 78, Type (0, 1), BuildingBlock: OJICUG_clean_linker_0, # of connection points: 2
#     Edge 79, Type (0, 1), BuildingBlock: OJICUG_clean_linker_0, # of connection points: 2
#     Edge 80, Type (0, 1), BuildingBlock: OJICUG_clean_linker_0, # of connection points: 2
#     Edge 81, Type (0, 1), BuildingBlock: OJICUG_clean_linker_0, # of connection points: 2
#     Edge 82, Type (0, 1), BuildingBlock: OJICUG_clean_linker_0, # of connection points: 2
#     Edge 83, Type (0, 1), BuildingBlock: OJICUG_clean_linker_0, # of connection points: 2
#     Edge 84, Type (0, 1), BuildingBlock: OJICUG_clean_linker_0, # of connection points: 2
#     Edge 85, Type (0, 1), BuildingBlock: OJICUG_clean_linker_0, # of connection points: 2
#     Edge 86, Type (0, 1), BuildingBlock: OJICUG_clean_linker_0, # of connection points: 2
#     Edge 87, Type (0, 1), BuildingBlock: OJICUG_clean_linker_0, # of connection points: 2
#     Edge 88, Type (0, 1), BuildingBlock: OJICUG_clean_linker_0, # of connection points: 2
#     Edge 89, Type (0, 1), BuildingBlock: OJICUG_clean_linker_0, # of connection points: 2
#     Edge 90, Type (0, 1), BuildingBlock: OJICUG_clean_linker_0, # of connection points: 2
#     Edge 91, Type (0, 1), BuildingBlock: OJICUG_clean_linker_0, # of connection points: 2
#     Edge 92, Type (0, 1), BuildingBlock: OJICUG_clean_linker_0, # of connection points: 2
#     Edge 93, Type (0, 1), BuildingBlock: OJICUG_clean_linker_0, # of connection points: 2
#     Edge 94, Type (0, 1), BuildingBlock: OJICUG_clean_linker_0, # of connection points: 2
#     Edge 95, Type (0, 1), BuildingBlock: OJICUG_clean_linker_0, # of connection points: 2
#     Edge 96, Type (0, 1), BuildingBlock: OJICUG_clean_linker_0, # of connection points: 2
#     Edge 97, Type (0, 1), BuildingBlock: OJICUG_clean_linker_0, # of connection points: 2
#     Edge 98, Type (0, 1), BuildingBlock: OJICUG_clean_linker_0, # of connection points: 2
#     Edge 99, Type (0, 1), BuildingBlock: OJICUG_clean_linker_0, # of connection points: 2
#     Edge 100, Type (0, 1), BuildingBlock: OJICUG_clean_linker_0, # of connection points: 2
#     Edge 101, Type (0, 1), BuildingBlock: OJICUG_clean_linker_0, # of connection points: 2
#     Edge 102, Type (0, 1), BuildingBlock: OJICUG_clean_linker_0, # of connection points: 2
#     Edge 103, Type (0, 1), BuildingBlock: OJICUG_clean_linker_0, # of connection points: 2
#     Edge 104, Type (0, 1), BuildingBlock: OJICUG_clean_linker_0, # of connection points: 2
#     Edge 105, Type (0, 1), BuildingBlock: OJICUG_clean_linker_0, # of connection points: 2
#     Edge 106, Type (0, 1), BuildingBlock: OJICUG_clean_linker_0, # of connection points: 2
#     Edge 107, Type (0, 1), BuildingBlock: OJICUG_clean_linker_0, # of connection points: 2
#     Edge 108, Type (0, 1), BuildingBlock: OJICUG_clean_linker_0, # of connection points: 2
#     Edge 109, Type (0, 1), BuildingBlock: OJICUG_clean_linker_0, # of connection points: 2
#     Edge 110, Type (0, 1), BuildingBlock: OJICUG_clean_linker_0, # of connection points: 2
#     Edge 111, Type (0, 1), BuildingBlock: OJICUG_clean_linker_0, # of connection points: 2
#     Edge 112, Type (0, 1), BuildingBlock: OJICUG_clean_linker_0, # of connection points: 2
#     Edge 113, Type (0, 1), BuildingBlock: OJICUG_clean_linker_0, # of connection points: 2
#     Edge 114, Type (0, 1), BuildingBlock: OJICUG_clean_linker_0, # of connection points: 2
#     Edge 115, Type (0, 1), BuildingBlock: OJICUG_clean_linker_0, # of connection points: 2
#     Edge 116, Type (0, 1), BuildingBlock: OJICUG_clean_linker_0, # of connection points: 2
#     Edge 117, Type (0, 1), BuildingBlock: OJICUG_clean_linker_0, # of connection points: 2
#     Edge 118, Type (0, 1), BuildingBlock: OJICUG_clean_linker_0, # of connection points: 2
#     Edge 119, Type (0, 1), BuildingBlock: OJICUG_clean_linker_0, # of connection points: 2
#     Edge 120, Type (0, 1), BuildingBlock: OJICUG_clean_linker_0, # of connection points: 2
#     Edge 121, Type (0, 1), BuildingBlock: OJICUG_clean_linker_0, # of connection points: 2
#     Edge 122, Type (0, 1), BuildingBlock: OJICUG_clean_linker_0, # of connection points: 2
#     Edge 123, Type (0, 1), BuildingBlock: OJICUG_clean_linker_0, # of connection points: 2
#     Edge 124, Type (0, 1), BuildingBlock: OJICUG_clean_linker_0, # of connection points: 2
#     Edge 125, Type (0, 1), BuildingBlock: OJICUG_clean_linker_0, # of connection points: 2
#     Edge 126, Type (0, 1), BuildingBlock: OJICUG_clean_linker_0, # of connection points: 2
#     Edge 127, Type (0, 1), BuildingBlock: OJICUG_clean_linker_0, # of connection points: 2
#     Edge 128, Type (0, 1), BuildingBlock: OJICUG_clean_linker_0, # of connection points: 2
#     Edge 129, Type (0, 1), BuildingBlock: OJICUG_clean_linker_0, # of connection points: 2
#     Edge 130, Type (0, 1), BuildingBlock: OJICUG_clean_linker_0, # of connection points: 2
#     Edge 131, Type (0, 1), BuildingBlock: OJICUG_clean_linker_0, # of connection points: 2
#     Edge 132, Type (0, 1), BuildingBlock: OJICUG_clean_linker_0, # of connection points: 2
#     Edge 133, Type (0, 1), BuildingBlock: OJICUG_clean_linker_0, # of connection points: 2
#     Edge 134, Type (0, 1), BuildingBlock: OJICUG_clean_linker_0, # of connection points: 2
#     Edge 135, Type (0, 1), BuildingBlock: OJICUG_clean_linker_0, # of connection points: 2
# Relax obj value: 0.225
# Max RMSD: 0.374
# Mean RMSD: 0.171
data_MOF--net-gar--node1-QUQFOY_clean_sbu_3--node2-PAMTUU_clean_sbu_0--edge1-OJICUG_clean_linker_0
_symmetry_space_group_name_H-M    P1
_symmetry_Int_Tables_number       1
_symmetry_cell_setting            triclinic
loop_
_symmetry_equiv_pos_as_xyz
'x, y, z'
_cell_length_a     45.0906
_cell_length_b     41.896679
_cell_length_c     45.520468
_cell_angle_alpha  94.267181
_cell_angle_beta   93.712445
_cell_angle_gamma 105.03981
loop_
_atom_site_label
_atom_site_type_symbol
_atom_site_fract_x
_atom_site_fract_y
_atom_site_fract_z
_atom_type_partial_charge
C0 C 0.03395 0.33853 0.3713 0.0
O1 O 0.05548 0.35752 0.35935 0.0
Cd2 Cd 0.10204 0.35986 0.39087 0.0
O3 O 0.0428 0.3234 0.39281 0.0
Cd4 Cd 0.10348 0.32684 0.41895 0.0
C5 C 0.10768 0.41244 0.44573 0.0
O6 O 0.13975 0.33095 0.37255 0.0
O7 O 0.16498 0.3436 0.41444 0.0
O8 O 0.09007 0.26211 0.42577 0.0
C9 C 0.16637 0.33747 0.38677 0.0
O10 O 0.11355 0.41526 0.41899 0.0
C11 C 0.09613 0.26337 0.45366 0.0
O12 O 0.10231 0.3828 0.45401 0.0
O13 O 0.10517 0.29306 0.46587 0.0
C14 C 1.02494 0.83376 0.74007 0.0
O15 O 0.03661 0.81035 0.74617 0.0
Cd16 Cd 0.08232 0.81821 0.71709 0.0
O17 O 0.04026 0.8541 0.72268 0.0
Cd18 Cd 0.09607 0.85552 0.69414 0.0
C19 C 0.08352 0.76932 0.66293 0.0
O20 O 0.13472 0.8453 0.74012 0.0
O21 O 0.15575 0.86162 0.7014 0.0
O22 O 0.09988 0.91931 0.68761 0.0
C23 C 0.15979 0.85326 0.72737 0.0
O24 O 0.08121 0.76546 0.69011 0.0
C25 C 0.09944 0.91868 0.65951 0.0
O26 O 0.08707 0.79922 0.65558 0.0
O27 O 0.09827 0.88997 0.64718 0.0
C28 C 0.53304 0.83768 0.87263 0.0
O29 O 0.5547 0.86023 0.86449 0.0
Cd30 Cd 0.6004 0.86054 0.89723 0.0
O31 O 0.5416 0.8197 0.89192 0.0
Cd32 Cd 0.60235 0.82631 0.91996 0.0
C33 C 0.6081 0.9125 0.94963 0.0
O34 O 0.64342 0.84492 0.87602 0.0
O35 O 0.6595 0.82264 0.91194 0.0
O36 O 0.5891 0.76222 0.92855 0.0
C37 C 0.66537 0.83425 0.8873 0.0
O38 O 0.61318 0.9162 0.9229 0.0
C39 C 0.59477 0.76441 0.9566 0.0
O40 O 0.60276 0.88241 0.95698 0.0
O41 O 0.60309 0.7944 0.96821 0.0
C42 C 0.52656 0.33518 0.24152 0.0
O43 O 0.53838 0.31194 0.24779 0.0
Cd44 Cd 0.58449 0.32074 0.21932 0.0
O45 O 0.54187 0.35566 0.22428 0.0
Cd46 Cd 0.59773 0.35743 0.1963 0.0
C47 C 0.58702 0.27099 0.16665 0.0
O48 O 0.63627 0.34853 0.24265 0.0
O49 O 0.65706 0.36267 0.20323 0.0
O50 O 0.60364 0.42172 0.19054 0.0
C51 C 0.66117 0.3555 0.22959 0.0
O52 O 0.58575 0.26813 0.19408 0.0
C53 C 0.60196 0.42122 0.16242 0.0
O54 O 0.58896 0.30032 0.15843 0.0
O55 O 0.59904 0.39227 0.14966 0.0
C56 C 0.09429 0.77689 0.19598 0.0
O57 O 0.11529 0.76581 0.20804 0.0
Cd58 Cd 0.16461 0.7713 0.19155 0.0
O59 O 0.09874 0.79313 0.17324 0.0
Cd60 Cd 0.13961 0.81397 0.13919 0.0
C61 C 0.13807 0.73214 0.12082 0.0
O62 O 0.17654 0.82711 0.18053 0.0
O63 O 0.19791 0.83168 0.13985 0.0
O64 O 0.1264 0.86715 0.14239 0.0
C65 C 0.20113 0.83478 0.16797 0.0
O66 O 0.15032 0.73309 0.147 0.0
C67 C 0.11935 0.86766 0.11505 0.0
O68 O 0.13134 0.75769 0.11149 0.0
O69 O 0.1218 0.84308 0.09809 0.0
C70 C 0.48471 0.7691 0.38119 0.0
O71 O 0.50528 0.78871 0.36857 0.0
Cd72 Cd 0.55602 0.81722 0.38498 0.0
O73 O 0.49017 0.76103 0.40726 0.0
Cd74 Cd 0.53891 0.77193 0.44339 0.0
C75 C 0.54444 0.85503 0.45345 0.0
O76 O 0.57105 0.77332 0.40359 0.0
O77 O 0.59658 0.79084 0.4454 0.0
O78 O 0.52537 0.71191 0.44939 0.0
C79 C 0.597 0.78467 0.41781 0.0
O80 O 0.552 0.85464 0.42696 0.0
C81 C 0.53575 0.7147 0.47631 0.0
O82 O 0.53659 0.82803 0.46595 0.0
O83 O 0.54523 0.74411 0.48885 0.0
C84 C 0.59121 0.28722 0.69415 0.0
O85 O 0.61082 0.27349 0.70515 0.0
Cd86 Cd 0.6616 0.27997 0.69193 0.0
O87 O 0.5974 0.30594 0.6732 0.0
Cd88 Cd 0.64062 0.32668 0.64164 0.0
C89 C 0.63978 0.24541 0.62002 0.0
O90 O 0.67476 0.33689 0.68481 0.0
O91 O 0.69952 0.34206 0.64629 0.0
O92 O 0.62465 0.37863 0.64415 0.0
C93 C 0.70054 0.3438 0.67434 0.0
O94 O 0.65331 0.24509 0.6454 0.0
C95 C 0.62403 0.38226 0.61672 0.0
O96 O 0.63058 0.27057 0.61319 0.0
O97 O 0.63131 0.36003 0.60028 0.0
C98 C 0.97532 0.25653 0.88847 0.0
O99 O 0.9977 0.27094 0.87452 0.0
Cd100 Cd 0.04986 0.29249 0.89181 0.0
O101 O 0.97954 0.25007 0.91528 0.0
Cd102 Cd 1.02709 0.25471 0.95107 0.0
C103 C 0.04305 0.33898 0.95733 0.0
O104 O 0.06024 0.24775 0.91375 0.0
O105 O 0.08453 0.27221 0.95457 0.0
O106 O 1.01146 0.1952 0.95694 0.0
C107 C 0.08585 0.26017 0.92846 0.0
O108 O 0.05192 0.33582 0.93148 0.0
C109 C 1.01897 0.19734 0.98451 0.0
O110 O 0.03019 0.31346 0.97027 0.0
O111 O 1.02749 0.22657 0.99764 0.0
C112 C 0.4995 0.07985 0.37855 0.0
O113 O 0.513 0.07679 0.35527 0.0
Cd114 Cd 0.4885 0.06314 0.30635 0.0
O115 O 0.47039 0.07593 0.3773 0.0
Cd116 Cd 0.42534 0.06402 0.34034 0.0
C117 C 0.43569 0.98944 0.31728 0.0
O118 O 0.45312 0.09593 0.30499 0.0
O119 O 0.40924 0.0649 0.28724 0.0
O120 O 0.40388 0.10284 0.36828 0.0
C121 C 0.43418 0.08539 0.28255 0.0
O122 O 0.45839 1.00476 0.30389 0.0
C123 C 0.37651 0.08418 0.36596 0.0
O124 O 0.42157 1.00511 0.33404 0.0
O125 O 0.37227 0.05519 0.35312 0.0
C126 C 0.36709 0.19526 0.57317 0.0
O127 O 0.34401 0.17877 0.5851 0.0
Cd128 Cd 0.29383 0.1851 0.58605 0.0
O129 O 0.36587 0.22023 0.55903 0.0
Cd130 Cd 0.32681 0.25219 0.5477 0.0
C131 C 0.31973 0.26294 0.62476 0.0
O132 O 0.2867 0.20267 0.5395 0.0
O133 O 0.26973 0.24582 0.54427 0.0
O134 O 0.34105 0.2492 0.49601 0.0
C135 C 0.26371 0.21443 0.53989 0.0
O136 O 0.30361 0.23286 0.62191 0.0
C137 C 0.34296 0.27901 0.49094 0.0
O138 O 0.33323 0.2765 0.60289 0.0
O139 O 0.3391 0.29794 0.51287 0.0
C140 C 0.1598 0.05952 0.91625 0.0
O141 O 0.14827 0.08274 0.90912 0.0
Cd142 Cd 0.14125 0.10183 0.86197 0.0
O143 O 0.17324 0.04488 0.89794 0.0
Cd144 Cd 0.18971 0.06002 0.84898 0.0
C145 C 0.21459 0.14449 0.85622 0.0
O146 O 0.13797 0.05586 0.8267 0.0
O147 O 0.17597 0.07587 0.80121 0.0
O148 O 0.20029 1.01173 0.82267 0.0
C149 C 0.14709 0.06648 0.80265 0.0
O150 O 0.18672 0.14575 0.85631 0.0
C151 C 0.2293 0.02263 0.82831 0.0
O152 O 0.22149 0.11697 0.85658 0.0
O153 O 0.23922 0.04918 0.84532 0.0
C154 C 0.40475 0.04969 1.00363 0.0
O155 O 0.39189 0.06547 0.98631 0.0
Cd156 Cd 0.33614 0.04772 0.97821 0.0
O157 O 0.38905 0.02438 0.01457 0.0
Cd158 Cd 0.33802 0.98845 0.01561 0.0
C159 C 0.32503 0.97337 0.94016 0.0
O160 O 0.31919 0.03715 0.02767 0.0
O161 O 0.28816 0.98866 0.03114 0.0
O162 O 0.36545 0.97505 0.05878 0.0
C163 C 0.2937 0.01999 0.03509 0.0
O164 O 0.3247 1.00328 0.93768 0.0
C165 C 0.35309 0.944 0.05482 0.0
O166 O 0.32973 0.96376 0.96541 0.0
O167 O 0.33285 0.93369 0.0331 0.0
C168 C 0.4166 0.46836 0.04938 0.0
O169 O 0.39669 0.47997 0.03608 0.0
Cd170 Cd 0.34304 0.45901 0.02956 0.0
O171 O 0.40872 0.44185 0.0627 0.0
Cd172 Cd 0.35854 0.39869 0.0707 0.0
C173 C 0.34755 0.38369 0.99327 0.0
O174 O 0.33055 0.43889 0.07466 0.0
O175 O 0.3018 0.3897 0.06238 0.0
O176 O 0.37294 0.40726 0.12492 0.0
C177 C 0.30367 0.42013 0.06904 0.0
O178 O 0.34089 0.41149 0.99529 0.0
C179 C 0.36162 0.37774 0.13112 0.0
O180 O 0.35698 0.37209 0.01656 0.0
O181 O 0.35155 0.35629 0.10889 0.0
C182 C 0.87903 0.1087 0.09612 0.0
O183 O 0.86991 0.09805 0.12022 0.0
Cd184 Cd 0.8342 0.12071 0.14583 0.0
O185 O 0.87162 0.13369 0.08679 0.0
Cd186 Cd 0.84034 0.17119 0.10211 0.0
C187 C 0.86734 0.20108 0.17166 0.0
O188 O 0.79498 0.12603 0.10961 0.0
O189 O 0.79289 0.1764 0.12081 0.0
O190 O 0.82701 0.17024 0.04956 0.0
C191 C 0.77886 0.14593 0.1157 0.0
O192 O 0.85508 0.17159 0.17749 0.0
C193 C 0.83298 0.20137 0.04863 0.0
O194 O 0.86897 0.20786 0.14492 0.0
O195 O 0.84382 0.21919 0.07266 0.0
C196 C 0.13329 0.56831 0.27211 0.0
O197 O 0.12084 0.57522 0.2484 0.0
Cd198 Cd 0.13755 0.56418 0.20076 0.0
O199 O 0.15578 0.55515 0.27182 0.0
Cd200 Cd 0.19002 0.53509 0.24002 0.0
C201 C 0.21149 0.61293 0.21576 0.0
O202 O 0.14737 0.511 0.20627 0.0
O203 O 0.18892 0.50109 0.19241 0.0
O204 O 0.20135 0.5053 0.28195 0.0
C205 C 0.16045 0.49851 0.1865 0.0
O206 O 0.18491 0.61028 0.20285 0.0
C207 C 0.2303 0.51517 0.28003 0.0
O208 O 0.21704 0.58958 0.22948 0.0
O209 O 0.23929 0.53126 0.25825 0.0
C210 C 0.90934 0.96841 0.55328 0.0
O211 O 0.88869 0.97944 0.54053 0.0
Cd212 Cd 0.8365 0.95217 0.52887 0.0
O213 O 0.90266 0.94008 0.56382 0.0
Cd214 Cd 0.8535 0.89487 0.57049 0.0
C215 C 0.84763 0.87898 0.49395 0.0
O216 O 0.82293 0.93261 0.57395 0.0
O217 O 0.79612 0.88323 0.5595 0.0
O218 O 0.86858 0.90401 0.62439 0.0
C219 C 0.79661 0.9131 0.56719 0.0
O220 O 0.83875 0.90552 0.4945 0.0
C221 C 0.85762 0.87453 0.63083 0.0
O222 O 0.85677 0.8687 0.51802 0.0
O223 O 0.8472 0.85286 0.60883 0.0
C224 C 0.04895 0.08462 0.27995 0.0
O225 O 0.0535 0.06779 0.25713 0.0
Cd226 Cd 1.0157 0.04577 0.21655 0.0
O227 O 1.02316 0.09143 0.28231 0.0
Cd228 Cd 0.97237 0.08006 0.25346 0.0
C229 C 0.96448 0.99786 0.25741 0.0
O230 O 0.99146 0.08931 0.20667 0.0
O231 O 0.94373 0.06255 0.20385 0.0
O232 O 0.96149 0.13123 0.27346 0.0
C233 C 0.96674 0.07651 0.19053 0.0
O234 O 0.98192 0.99734 0.23654 0.0
C235 C 0.93561 0.11623 0.28197 0.0
O236 O 0.95967 0.0249 0.26761 0.0
O237 O 0.92717 0.08489 0.27676 0.0
C238 C 0.37614 0.61496 0.58569 0.0
O239 O 0.36261 0.60294 0.60757 0.0
Cd240 Cd 0.32282 0.62343 0.62776 0.0
O241 O 0.37214 0.64157 0.57629 0.0
Cd242 Cd 0.34351 0.683 0.58841 0.0
C243 C 0.35785 0.70004 0.66258 0.0
O244 O 0.29672 0.63695 0.58493 0.0
O245 O 0.29125 0.68648 0.59275 0.0
O246 O 0.3538 0.69466 0.53753 0.0
C247 C 0.27893 0.65568 0.58734 0.0
O248 O 0.34174 0.67054 0.66419 0.0
C249 C 0.35192 0.72439 0.54056 0.0
O250 O 0.36517 0.71015 0.63766 0.0
O251 O 0.34819 0.73561 0.56631 0.0
C252 C 0.52486 0.56591 0.78024 0.0
O253 O 0.53621 0.55538 0.75787 0.0
Cd254 Cd 0.50522 0.53755 0.71231 0.0
O255 O 0.49804 0.57069 0.77784 0.0
Cd256 Cd 0.45448 0.56841 0.74118 0.0
C257 C 0.44417 0.48603 0.74049 0.0
O258 O 0.48415 0.58335 0.70121 0.0
O259 O 0.4363 0.55959 0.68788 0.0
O260 O 0.44598 0.61908 0.76447 0.0
C261 C 0.46266 0.57447 0.68064 0.0
O262 O 0.46791 0.48749 0.72638 0.0
C263 C 0.41778 0.60582 0.76777 0.0
O264 O 0.43591 0.51192 0.748 0.0
O265 O 0.40673 0.5757 0.75765 0.0
C266 C 0.60878 0.05396 0.78001 0.0
O267 O 0.60167 0.0652 0.7561 0.0
Cd268 Cd 0.6252 0.06046 0.71064 0.0
O269 O 0.63075 0.04004 0.78209 0.0
Cd270 Cd 0.67075 0.02773 0.75287 0.0
C271 C 0.69403 0.10988 0.7389 0.0
O272 O 0.63462 1.00655 0.71208 0.0
O273 O 0.68013 1.00486 0.70279 0.0
O274 O 0.68404 0.99266 0.79022 0.0
C275 C 0.65202 0.99954 0.69346 0.0
O276 O 0.67226 0.10743 0.71888 0.0
C277 C 0.71268 1.00736 0.79062 0.0
O278 O 0.69551 0.08537 0.75305 0.0
O279 O 0.72056 0.02881 0.77236 0.0
C280 C 0.87272 0.69296 0.07396 0.0
O281 O 0.84966 0.67774 0.08667 0.0
Cd282 Cd 0.80146 0.6877 0.09054 0.0
O283 O 0.87209 0.71806 0.05966 0.0
Cd284 Cd 0.83363 0.75172 0.04844 0.0
C285 C 0.83392 0.76714 0.12595 0.0
O286 O 0.79296 0.70233 0.04297 0.0
O287 O 0.7764 0.74574 0.04642 0.0
O288 O 0.84648 0.74801 0.99604 0.0
C289 C 0.77011 0.71428 0.04305 0.0
O290 O 0.81862 0.73687 0.12498 0.0
C291 C 0.84796 0.7777 0.9908 0.0
O292 O 0.84357 0.78007 0.10234 0.0
O293 O 0.84454 0.79673 0.01282 0.0
C294 C 0.99323 0.57432 0.87569 0.0
O295 O 1.00609 0.56947 0.85237 0.0
Cd296 Cd 0.98381 0.55914 0.80308 0.0
O297 O 0.96487 0.57431 0.87455 0.0
Cd298 Cd 0.92229 0.56795 0.8356 0.0
C299 C 0.92593 0.49019 0.81312 0.0
O300 O 0.95461 0.59864 0.80295 0.0
O301 O 0.91063 0.57243 0.78163 0.0
O302 O 0.90092 0.60701 0.86354 0.0
C303 C 0.93724 0.59114 0.77929 0.0
O304 O 0.95004 0.50218 0.80014 0.0
C305 C 0.87352 0.58835 0.86084 0.0
O306 O 0.91354 0.50895 0.82849 0.0
O307 O 0.86915 0.55988 0.84697 0.0
C308 C 0.89649 0.53461 0.5108 0.0
O309 O 0.8821 0.55321 0.49863 0.0
Cd310 Cd 0.8267 0.53478 0.49173 0.0
O311 O 0.88192 0.50725 0.5195 0.0
Cd312 Cd 0.83191 0.47031 0.52448 0.0
C313 C 0.817 0.46174 0.44934 0.0
O314 O 0.81563 0.51845 0.54093 0.0
O315 O 0.78323 0.47084 0.54423 0.0
O316 O 0.8634 0.45713 0.5645 0.0
C317 C 0.79026 0.50221 0.5492 0.0
O318 O 0.81721 0.49217 0.44946 0.0
C319 C 0.85075 0.42613 0.56137 0.0
O320 O 0.82126 0.44928 0.47333 0.0
O321 O 0.82875 0.4156 0.54122 0.0
C322 C 0.66941 0.5792 0.41266 0.0
O323 O 0.65585 0.60149 0.4069 0.0
Cd324 Cd 0.63986 0.62441 0.36296 0.0
O325 O 0.68002 0.56352 0.3926 0.0
Cd326 Cd 0.68485 0.5712 0.34033 0.0
C327 C 0.70982 0.65957 0.34409 0.0
O328 O 0.63638 0.57991 0.32745 0.0
O329 O 0.64478 0.54019 0.30008 0.0
O330 O 0.70946 0.5267 0.33143 0.0
C331 C 0.62709 0.5585 0.30567 0.0
O332 O 0.68471 0.66496 0.35148 0.0
C333 C 0.72925 0.54334 0.31575 0.0
O334 O 0.71293 0.6302 0.34047 0.0
O335 O 0.72828 0.57282 0.31201 0.0
Tb336 Tb 0.08361 0.05492 0.08094 0.0
Tb337 Tb 0.03301 1.00463 0.03172 0.0
C338 C 1.01453 0.03227 0.09118 0.0
C339 C 0.15773 0.08716 0.12037 0.0
C340 C 0.21277 0.07293 0.10506 0.0
C341 C 0.20961 0.10552 0.10515 0.0
C342 C 0.18218 0.11252 0.11258 0.0
C343 C 0.16251 0.05584 0.12405 0.0
C344 C 0.18955 0.04871 0.11623 0.0
C345 C 0.12596 0.09049 0.1169 0.0
O346 O 0.09526 1.00766 0.08029 0.0
O347 O 0.04892 0.97229 0.06097 0.0
O348 O 0.07702 1.0039 0.01586 0.0
O349 O 0.10467 0.05414 0.03951 0.0
O350 O 0.99393 0.96404 0.02355 0.0
O351 O 1.01383 0.99072 0.98772 0.0
O352 O 0.03952 0.05516 0.01872 0.0
O353 O 0.05569 0.08574 0.06351 0.0
O354 O 0.04254 0.0355 0.10282 0.0
O355 O 1.00744 0.02646 0.06268 0.0
C356 C 0.07644 0.97771 0.07508 0.0
O357 O 0.11829 0.09952 0.09133 0.0
O358 O 0.10443 0.06584 0.12447 0.0
C359 C 0.10146 0.02937 0.01907 0.0
C360 C 0.96056 0.98338 0.99253 0.0
C361 C 0.92391 0.02195 0.01624 0.0
C362 C 0.91698 0.98778 0.0196 0.0
C363 C 0.93503 0.96848 0.00755 0.0
C364 C 0.96338 1.01571 0.9843 0.0
C365 C 0.94548 0.03505 0.99644 0.0
C366 C 0.98881 0.97197 0.99682 0.0
C367 C 0.04372 0.08292 0.03602 0.0
H368 H 0.22743 0.12511 0.09763 0.0
H369 H 0.17911 0.13695 0.10975 0.0
H370 H 0.14426 0.03574 0.13023 0.0
H371 H 0.19076 0.02327 0.1165 0.0
H372 H 0.89954 0.97668 0.03381 0.0
H373 H 0.93184 0.9434 0.0137 0.0
H374 H 0.98222 0.02772 0.97195 0.0
H375 H 0.951 0.06113 0.99286 0.0
Tb376 Tb 0.32184 0.79408 0.30144 0.0
Tb377 Tb 0.36177 0.78753 0.24395 0.0
C378 C 0.30436 0.81845 0.23994 0.0
C379 C 0.30624 0.79684 0.37868 0.0
C380 C 0.32722 0.78379 0.43498 0.0
C381 C 0.29592 0.7822 0.4283 0.0
C382 C 0.28547 0.78845 0.40022 0.0
C383 C 0.33774 0.8003 0.38587 0.0
C384 C 0.34813 0.79361 0.41373 0.0
C385 C 0.29496 0.79791 0.34785 0.0
O386 O 0.29329 0.75679 0.26845 0.0
O387 O 0.33221 0.73878 0.24908 0.0
O388 O 0.38839 0.77576 0.28099 0.0
O389 O 0.35195 0.7636 0.31462 0.0
O390 O 0.36283 0.76883 0.19999 0.0
O391 O 0.40407 0.7993 0.22501 0.0
O392 O 0.37211 0.83946 0.26034 0.0
O393 O 0.3655 0.8316 0.30872 0.0
O394 O 0.30412 0.82184 0.26896 0.0
O395 O 0.3222 0.80277 0.2266 0.0
C396 C 0.30292 0.73433 0.25307 0.0
O397 O 0.30897 0.82377 0.33496 0.0
O398 O 0.29164 0.77035 0.33109 0.0
C399 C 0.37918 0.76397 0.3058 0.0
C400 C 0.3937 0.81115 0.1762 0.0
C401 C 0.38705 0.85487 0.13358 0.0
C402 C 0.38604 0.82162 0.12485 0.0
C403 C 0.38931 0.79991 0.14604 0.0
C404 C 0.39598 0.84467 0.18479 0.0
C405 C 0.39278 0.86628 0.16374 0.0
C406 C 0.39076 0.78733 0.19872 0.0
C407 C 0.37739 0.85033 0.28841 0.0
H408 H 0.27929 0.7744 0.44423 0.0
H409 H 0.26106 0.78541 0.39495 0.0
H410 H 0.35412 0.80684 0.36948 0.0
H411 H 0.37237 0.7952 0.4184 0.0
H412 H 0.38195 0.8122 0.10173 0.0
H413 H 0.38707 0.77405 0.13898 0.0
H414 H 0.39875 0.85392 0.20792 0.0
H415 H 0.39317 0.89153 0.17132 0.0
Tb416 Tb 0.55434 0.04629 0.55106 0.0
Tb417 Tb 0.61917 0.0551 0.5202 0.0
C418 C 0.60971 0.02477 0.58044 0.0
C419 C 0.48666 0.06921 0.57353 0.0
C420 C 0.45383 0.11784 0.57461 0.0
C421 C 0.44459 0.08961 0.59028 0.0
C422 C 0.46099 0.06556 0.58984 0.0
C423 C 0.49573 0.09696 0.55746 0.0
C424 C 0.47949 0.12113 0.55804 0.0
C425 C 0.505 0.04512 0.57419 0.0
O426 O 0.57511 0.09959 0.55198 0.0
O427 O 0.62548 0.09844 0.55183 0.0
O428 O 0.59373 0.08245 0.49452 0.0
O429 O 0.5455 0.05402 0.50537 0.0
O430 O 0.66745 0.07139 0.52362 0.0
O431 O 0.64209 0.04722 0.48265 0.0
O432 O 0.58679 1.00958 0.50009 0.0
O433 O 0.55541 0.9955 0.53733 0.0
O434 O 0.5879 0.03969 0.58436 0.0
O435 O 0.62164 0.02297 0.5551 0.0
C436 C 0.60462 0.11438 0.55723 0.0
O437 O 0.50609 0.02905 0.54881 0.0
O438 O 0.53222 0.05642 0.58836 0.0
C439 C 0.56363 0.0736 0.48902 0.0
C440 C 0.68609 0.03106 0.49913 0.0
C441 C 0.71838 0.98605 0.51743 0.0
C442 C 0.7343 0.01874 0.51305 0.0
C443 C 0.71824 0.04111 0.50396 0.0
C444 C 0.67033 0.99776 0.50149 0.0
C445 C 0.68642 0.97531 0.51039 0.0
C446 C 0.66887 0.05625 0.49791 0.0
C447 C 0.5669 0.98739 0.51293 0.0
H448 H 0.42448 0.08592 0.60271 0.0
H449 H 0.45375 0.04425 0.6023 0.0
H450 H 0.51558 0.1001 0.54472 0.0
H451 H 0.4873 0.14259 0.54589 0.0
H452 H 0.75906 0.0274 0.51801 0.0
H453 H 0.7307 0.06674 0.50259 0.0
H454 H 0.64539 0.9896 0.49836 0.0
H455 H 0.67368 0.9503 0.5137 0.0
Tb456 Tb 0.3675 0.30113 0.81364 0.0
Tb457 Tb 0.30846 0.3324 0.80689 0.0
C458 C 0.3016 0.26204 0.82694 0.0
C459 C 0.43797 0.27798 0.79768 0.0
C460 C 0.48565 0.2793 0.76058 0.0
C461 C 0.48795 0.26952 0.78941 0.0
C462 C 0.46421 0.26876 0.80777 0.0
C463 C 0.43574 0.2883 0.76917 0.0
C464 C 0.45932 0.28882 0.75071 0.0
C465 C 0.4128 0.27653 0.81667 0.0
O466 O 0.35952 0.30401 0.76608 0.0
O467 O 0.30848 0.30278 0.76505 0.0
O468 O 0.34316 0.36667 0.78658 0.0
O469 O 0.38659 0.35265 0.80487 0.0
O470 O 0.26525 0.3293 0.78521 0.0
O471 O 0.28441 0.36681 0.82126 0.0
O472 O 0.3338 0.35313 0.84955 0.0
O473 O 0.35729 0.31236 0.85923 0.0
O474 O 0.32611 0.26034 0.81356 0.0
O475 O 0.2945 0.29011 0.83166 0.0
C476 C 0.33277 0.30068 0.75121 0.0
O477 O 0.41264 0.30457 0.83112 0.0
O478 O 0.38554 0.26062 0.80434 0.0
C479 C 0.37315 0.37215 0.7907 0.0
C480 C 0.23254 0.33708 0.8216 0.0
C481 C 0.18636 0.31088 0.85863 0.0
C482 C 0.19797 0.34544 0.85843 0.0
C483 C 0.22094 0.35845 0.84002 0.0
C484 C 0.22061 0.30256 0.82163 0.0
C485 C 0.19783 0.28965 0.83993 0.0
C486 C 0.25945 0.35025 0.80517 0.0
C487 C 0.34628 0.3371 0.86855 0.0
H488 H 0.50823 0.26272 0.79791 0.0
H489 H 0.46632 0.26098 0.82981 0.0
H490 H 0.41563 0.29565 0.76108 0.0
H491 H 0.45669 0.2962 0.7286 0.0
H492 H 0.18924 0.36238 0.8724 0.0
H493 H 0.23009 0.38512 0.84061 0.0
H494 H 0.22944 0.28531 0.80815 0.0
H495 H 0.18971 0.26294 0.8399 0.0
Tb496 Tb 0.08198 0.10934 0.58402 0.0
Tb497 Tb 0.09855 0.06882 0.52762 0.0
C498 C 0.03231 0.05242 0.54872 0.0
C499 C 0.06018 0.12508 0.65885 0.0
C500 C 0.06946 0.10445 0.71477 0.0
C501 C 0.05911 0.08076 0.69034 0.0
C502 C 0.05458 0.09108 0.66236 0.0
C503 C 0.06606 0.14816 0.68375 0.0
C504 C 0.07056 0.13785 0.71172 0.0
C505 C 0.06803 0.1369 0.63027 0.0
O506 O 0.0906 0.06307 0.60164 0.0
O507 O 0.10344 0.03446 0.56128 0.0
O508 O 0.14195 0.09459 0.552 0.0
O509 O 0.12682 0.13766 0.57358 0.0
O510 O 0.0839 0.03435 0.49041 0.0
O511 O 0.13147 0.06234 0.49851 0.0
O512 O 0.08856 0.11424 0.50981 0.0
O513 O 0.08408 0.14649 0.55146 0.0
O514 O 0.03864 0.08342 0.55951 0.0
O515 O 0.05378 0.04017 0.53839 0.0
C516 C 0.09803 0.03642 0.58958 0.0
O517 O 0.09616 0.13762 0.62465 0.0
O518 O 0.04829 0.12389 0.60761 0.0
C519 C 0.14817 0.12565 0.56266 0.0
C520 C 0.10868 0.05638 0.44989 0.0
C521 C 0.10449 0.08015 0.39385 0.0
C522 C 0.12839 0.06567 0.40198 0.0
C523 C 0.13042 0.0538 0.42982 0.0
C524 C 0.08566 0.07203 0.44228 0.0
C525 C 0.08345 0.08353 0.4146 0.0
C526 C 0.11024 0.04393 0.47914 0.0
C527 C 0.08635 0.1431 0.52261 0.0
H528 H 0.05827 0.0549 0.69218 0.0
H529 H 0.05004 0.07295 0.64325 0.0
H530 H 0.07048 0.17448 0.68132 0.0
H531 H 0.07838 0.15645 0.7304 0.0
H532 H 0.14521 0.063 0.38669 0.0
H533 H 0.1487 0.04236 0.43554 0.0
H534 H 0.0688 0.07477 0.45751 0.0
H535 H 0.0643 0.09378 0.40915 0.0
Tb536 Tb 0.36012 0.86863 0.78174 0.0
Tb537 Tb 0.32815 0.80906 0.81906 0.0
C538 C 0.35563 0.79542 0.7589 0.0
C539 C 0.36133 0.94174 0.74782 0.0
C540 C 0.31838 0.97637 0.76397 0.0
C541 C 0.35021 0.99114 0.77032 0.0
C542 C 0.37156 0.97383 0.76242 0.0
C543 C 0.33018 0.9298 0.73689 0.0
C544 C 0.30882 0.94671 0.74526 0.0
C545 C 0.37925 0.91762 0.75332 0.0
O546 O 0.31032 0.85432 0.76394 0.0
O547 O 0.28834 0.82778 0.80234 0.0
O548 O 0.33623 0.85279 0.84949 0.0
O549 O 0.33871 0.89123 0.81617 0.0
O550 O 0.29263 0.76562 0.82077 0.0
O551 O 0.32574 0.78508 0.85812 0.0
O552 O 0.37849 0.8113 0.82666 0.0
O553 O 0.39981 0.86239 0.81092 0.0
O554 O 0.37173 0.82637 0.76009 0.0
O555 O 0.33394 0.78562 0.77655 0.0
C556 C 0.28528 0.84227 0.77773 0.0
O557 O 0.38789 0.91726 0.78122 0.0
O558 O 0.36753 0.88757 0.74055 0.0
C559 C 0.33495 0.88221 0.84288 0.0
C560 C 0.31389 0.72747 0.84426 0.0
C561 C 0.3434 0.67833 0.82786 0.0
C562 C 0.3552 0.70099 0.85278 0.0
C563 C 0.34051 0.72531 0.86101 0.0
C564 C 0.29998 0.7021 0.8218 0.0
C565 C 0.31472 0.67782 0.81354 0.0
C566 C 0.305 0.75908 0.84551 0.0
C567 C 0.40319 0.8363 0.82445 0.0
H568 H 0.35849 1.01476 0.78356 0.0
H569 H 0.39552 0.98381 0.77075 0.0
H570 H 0.32154 0.90543 0.72499 0.0
H571 H 0.28463 0.93462 0.73949 0.0
H572 H 0.37688 0.7013 0.8647 0.0
H573 H 0.35149 0.74405 0.87887 0.0
H574 H 0.27919 0.70276 0.80879 0.0
H575 H 0.30496 0.66052 0.79434 0.0
Tb576 Tb 0.5833 0.06939 0.08433 0.0
Tb577 Tb 0.60108 0.11207 0.02904 0.0
C578 C 0.65035 0.10577 0.07741 0.0
C579 C 0.54197 0.04281 0.14792 0.0
C580 C 0.50155 0.0611 0.18647 0.0
C581 C 0.53223 0.06332 0.19658 0.0
C582 C 0.55221 0.05419 0.1775 0.0
C583 C 0.51096 0.03949 0.13804 0.0
C584 C 0.49092 0.04849 0.15719 0.0
C585 C 0.56437 0.03767 0.12705 0.0
O586 O 0.58971 0.12143 0.10352 0.0
O587 O 0.59043 0.14882 0.06152 0.0
O588 O 0.5541 0.08229 0.01949 0.0
O589 O 0.54306 0.08312 0.0672 0.0
O590 O 0.6312 0.12897 0.99687 0.0
O591 O 0.58879 0.14363 0.99974 0.0
O592 O 0.60898 0.0632 0.01443 0.0
O593 O 0.58427 0.03066 0.04862 0.0
O594 O 0.63232 0.0771 0.08223 0.0
O595 O 0.64024 0.12637 0.06178 0.0
C596 C 0.58949 0.1487 0.09051 0.0
O597 O 0.55335 0.02818 0.09965 0.0
O598 O 0.59023 0.06103 0.12888 0.0
C599 C 0.53409 0.08034 0.0391 0.0
C600 C 0.60208 0.13002 0.95287 0.0
C601 C 0.58776 0.10286 0.89393 0.0
C602 C 0.57557 0.08434 0.91688 0.0
C603 C 0.58275 0.09781 0.94614 0.0
C604 C 0.6131 0.14924 0.9301 0.0
C605 C 0.60593 0.13574 0.90071 0.0
C606 C 0.61153 0.14248 0.98376 0.0
C607 C 0.59806 0.03349 0.02379 0.0
H608 H 0.54081 0.07217 0.21931 0.0
H609 H 0.57592 0.05684 0.18568 0.0
H610 H 0.50227 0.03073 0.11535 0.0
H611 H 0.46736 0.04639 0.14888 0.0
H612 H 0.56144 0.05903 0.91223 0.0
H613 H 0.57399 0.0827 0.96358 0.0
H614 H 0.62802 0.17415 0.93506 0.0
H615 H 0.616 0.15037 0.88343 0.0
Tb616 Tb 0.33273 0.29758 0.30171 0.0
Tb617 Tb 0.36016 0.3745 0.32472 0.0
C618 C 0.34375 0.35104 0.25502 0.0
C619 C 0.29752 0.20882 0.30404 0.0
C620 C 0.29578 0.15763 0.34077 0.0
C621 C 0.2929 0.15091 0.30974 0.0
C622 C 0.29399 0.17645 0.29153 0.0
C623 C 0.29598 0.21477 0.33459 0.0
C624 C 0.29497 0.18924 0.35288 0.0
C625 C 0.30965 0.23656 0.28663 0.0
O626 O 0.38056 0.30936 0.28635 0.0
O627 O 0.40243 0.36079 0.31103 0.0
O628 O 0.354 0.34942 0.36525 0.0
O629 O 0.34974 0.29584 0.34761 0.0
O630 O 0.3651 0.42455 0.31931 0.0
O631 O 0.38807 0.41007 0.3572 0.0
O632 O 0.30964 0.36667 0.33094 0.0
O633 O 0.29321 0.30996 0.32363 0.0
O634 O 0.32846 0.32138 0.26109 0.0
O635 O 0.3579 0.37414 0.27624 0.0
C636 C 0.40503 0.33522 0.29323 0.0
O637 O 0.29411 0.25869 0.28506 0.0
O638 O 0.33905 0.25025 0.29254 0.0
C639 C 0.35255 0.31856 0.36988 0.0
C640 C 0.36568 0.45493 0.36372 0.0
C641 C 0.3216 0.49063 0.36325 0.0
C642 C 0.35307 0.50744 0.36342 0.0
C643 C 0.37503 0.48933 0.36273 0.0
C644 C 0.33618 0.44024 0.37205 0.0
C645 C 0.3139 0.45792 0.37135 0.0
C646 C 0.38018 0.43433 0.34523 0.0
C647 C 0.28779 0.33868 0.33257 0.0
H648 H 0.29361 0.12698 0.29952 0.0
H649 H 0.29514 0.17151 0.26798 0.0
H650 H 0.29853 0.23974 0.34458 0.0
H651 H 0.29675 0.19508 0.37663 0.0
H652 H 0.36001 0.53329 0.3591 0.0
H653 H 0.398 0.50129 0.35709 0.0
H654 H 0.32897 0.41382 0.37404 0.0
H655 H 0.29014 0.44427 0.3725 0.0
Tb656 Tb 0.58871 0.61335 0.09002 0.0
Tb657 Tb 0.6024 0.57314 0.03157 0.0
C658 C 0.53819 0.55717 0.05388 0.0
C659 C 0.56273 0.62655 0.16241 0.0
C660 C 0.55703 0.59418 0.21433 0.0
C661 C 0.56864 0.62896 0.21573 0.0
C662 C 0.57154 0.64499 0.18989 0.0
C663 C 0.54786 0.5925 0.16106 0.0
C664 C 0.5448 0.57646 0.1869 0.0
C665 C 0.57487 0.64095 0.13593 0.0
O666 O 0.60314 0.57038 0.10793 0.0
O667 O 0.60091 0.53666 0.06507 0.0
O668 O 0.64622 0.59637 0.0568 0.0
O669 O 0.63302 0.64084 0.07802 0.0
O670 O 0.58948 0.53187 0.9998 0.0
O671 O 0.63151 0.5701 0.9979 0.0
O672 O 0.60072 0.62174 0.01553 0.0
O673 O 0.58022 0.64467 0.05404 0.0
O674 O 0.55114 0.56915 0.08016 0.0
O675 O 0.55271 0.56565 0.03051 0.0
C676 C 0.60289 0.54088 0.09441 0.0
O677 O 0.60279 0.63878 0.13197 0.0
O678 O 0.55645 0.63252 0.1116 0.0
C679 C 0.65364 0.62774 0.06701 0.0
C680 C 0.60162 0.54951 0.95357 0.0
C681 C 0.58113 0.56014 0.89637 0.0
C682 C 0.59801 0.53658 0.90046 0.0
C683 C 0.60834 0.53142 0.92895 0.0
C684 C 0.58499 0.57304 0.94951 0.0
C685 C 0.57525 0.57868 0.92126 0.0
C686 C 0.61166 0.54448 0.98368 0.0
C687 C 0.58984 0.64596 0.02699 0.0
H688 H 0.57855 0.64343 0.2364 0.0
H689 H 0.5832 0.67123 0.19126 0.0
H690 H 0.54095 0.57779 0.13996 0.0
H691 H 0.53535 0.54977 0.18515 0.0
H692 H 0.60257 0.52156 0.88177 0.0
H693 H 0.62112 0.51308 0.93178 0.0
H694 H 0.57923 0.58692 0.96824 0.0
H695 H 0.56286 0.59744 0.91901 0.0
Tb696 Tb 0.86059 0.37318 0.28591 0.0
Tb697 Tb 0.82925 0.31071 0.32092 0.0
C698 C 0.85966 0.30085 0.26118 0.0
C699 C 0.86261 0.44969 0.25575 0.0
C700 C 0.8203 0.48741 0.26479 0.0
C701 C 0.85116 0.49987 0.27633 0.0
C702 C 0.87223 0.48108 0.27181 0.0
C703 C 0.83274 0.43938 0.24116 0.0
C704 C 0.81173 0.45802 0.24578 0.0
C705 C 0.87995 0.42494 0.2609 0.0
O706 O 0.81133 0.35855 0.26715 0.0
O707 O 0.78894 0.32822 0.30352 0.0
O708 O 0.8384 0.35329 0.35268 0.0
O709 O 0.83695 0.39218 0.32078 0.0
O710 O 0.79741 0.26399 0.32019 0.0
O711 O 0.82369 0.28807 0.36059 0.0
O712 O 0.87952 0.31381 0.32901 0.0
O713 O 0.90039 0.36546 0.31396 0.0
O714 O 0.87252 0.33269 0.26124 0.0
O715 O 0.83938 0.28878 0.27957 0.0
C716 C 0.78616 0.34446 0.2799 0.0
O717 O 0.88728 0.42267 0.28876 0.0
O718 O 0.86879 0.39568 0.24643 0.0
C719 C 0.83433 0.382 0.3472 0.0
C720 C 0.82094 0.2315 0.34879 0.0
C721 C 0.85637 0.18671 0.33659 0.0
C722 C 0.86764 0.21378 0.358 0.0
C723 C 0.85005 0.23594 0.36415 0.0
C724 C 0.80829 0.20231 0.32998 0.0
C725 C 0.82592 0.1801 0.32383 0.0
C726 C 0.80751 0.25997 0.34679 0.0
C727 C 0.90396 0.33904 0.32688 0.0
H728 H 0.85831 0.52257 0.29102 0.0
H729 H 0.8951 0.48956 0.28328 0.0
H730 H 0.82456 0.41545 0.22837 0.0
H731 H 0.78815 0.44826 0.23622 0.0
H732 H 0.8908 0.21897 0.36866 0.0
H733 H 0.86043 0.25793 0.37912 0.0
H734 H 0.78587 0.19817 0.31797 0.0
H735 H 0.81661 0.15933 0.30728 0.0
Tb736 Tb 0.08336 0.56932 0.5797 0.0
Tb737 Tb 0.0892 0.6105 0.52234 0.0
C738 C 0.14876 0.6057 0.55986 0.0
C739 C 0.05192 0.5499 0.64907 0.0
C740 C 1.0102 0.56814 0.68631 0.0
C741 C 0.0341 0.59247 0.67621 0.0
C742 C 0.05486 0.58341 0.65809 0.0
C743 C 1.02832 0.52543 0.6592 0.0
C744 C 1.00775 0.53444 0.67784 0.0
C745 C 0.07046 0.54105 0.62592 0.0
O746 O 0.07555 0.61847 0.59455 0.0
O747 O 0.09511 0.65075 0.55813 0.0
O748 O 0.0438 0.60439 0.53713 0.0
O749 O 0.04124 0.55365 0.55084 0.0
O750 O 0.1091 0.64782 0.49579 0.0
O751 O 0.06422 0.61406 0.48292 0.0
O752 O 0.08981 0.55871 0.50569 0.0
O753 O 0.09727 0.53428 0.54834 0.0
O754 O 0.13263 0.58896 0.57937 0.0
O755 O 0.13666 0.61446 0.53581 0.0
C756 C 0.08516 0.6482 0.58472 0.0
O757 O 0.05516 0.53076 0.6003 0.0
O758 O 0.09671 0.56243 0.62339 0.0
C759 C 1.02743 0.5749 0.54105 0.0
C760 C 0.09484 0.63152 0.44498 0.0
C761 C 0.10593 0.61206 0.38734 0.0
C762 C 0.07934 0.62247 0.39243 0.0
C763 C 0.07391 0.63222 0.42108 0.0
C764 C 0.12181 0.62201 0.43996 0.0
C765 C 0.12745 0.61265 0.41131 0.0
C766 C 0.08656 0.63751 0.47499 0.0
C767 C 0.09539 0.53335 0.51914 0.0
H768 H 0.03659 0.61864 0.68192 0.0
H769 H 0.07283 0.60275 0.65053 0.0
H770 H 1.02543 0.49943 0.65222 0.0
H771 H 0.99006 0.51497 0.6857 0.0
H772 H 0.06221 0.62197 0.37448 0.0
H773 H 0.05282 0.6392 0.42471 0.0
H774 H 0.13815 0.62104 0.45818 0.0
H775 H 0.14847 0.60544 0.40801 0.0
Tb776 Tb 0.87761 0.80532 0.31571 0.0
Tb777 Tb 0.8239 0.84352 0.30581 0.0
C778 C 0.80847 0.76919 0.31838 0.0
C779 C 0.94246 0.77178 0.29997 0.0
C780 C 0.98834 0.76809 0.26192 0.0
C781 C 0.99233 0.76287 0.29198 0.0
C782 C 0.9695 0.76464 0.31084 0.0
C783 C 0.9382 0.77675 0.27002 0.0
C784 C 0.96087 0.77472 0.25109 0.0
C785 C 0.91957 0.77603 0.32016 0.0
O786 O 0.85955 0.79402 0.26897 0.0
O787 O 0.83872 0.83764 0.26136 0.0
O788 O 0.86734 0.88132 0.31144 0.0
O789 O 0.89858 0.84984 0.29517 0.0
O790 O 0.78194 0.84627 0.28459 0.0
O791 O 0.80565 0.88278 0.31996 0.0
O792 O 0.82656 0.83431 0.35241 0.0
O793 O 0.87636 0.83146 0.35912 0.0
O794 O 0.83648 0.77325 0.33053 0.0
O795 O 0.80149 0.79092 0.30189 0.0
C796 C 0.84913 0.8128 0.25097 0.0
O797 O 0.92278 0.80651 0.33114 0.0
O798 O 0.891 0.76106 0.31089 0.0
C799 C 0.89287 0.87871 0.3005 0.0
C800 C 0.75282 0.86042 0.32149 0.0
C801 C 0.70233 0.84063 0.35518 0.0
C802 C 0.70277 0.86466 0.33504 0.0
C803 C 0.72809 0.87473 0.31839 0.0
C804 C 0.75205 0.83624 0.34138 0.0
C805 C 0.72724 0.82667 0.35826 0.0
C806 C 0.77956 0.86957 0.3042 0.0
C807 C 0.85127 0.83599 0.37002 0.0
H808 H 1.01347 0.75837 0.30117 0.0
H809 H 0.97322 0.76115 0.334 0.0
H810 H 0.91752 0.78266 0.26137 0.0
H811 H 0.95695 0.77853 0.22804 0.0
H812 H 0.68358 0.87557 0.33224 0.0
H813 H 0.72825 0.89328 0.30301 0.0
H814 H 0.77045 0.82425 0.34355 0.0
H815 H 0.72713 0.80757 0.37309 0.0
Tb816 Tb 0.81078 0.2929 0.81416 0.0
Tb817 Tb 0.84989 0.28242 0.75739 0.0
C818 C 0.79433 0.31467 0.75117 0.0
C819 C 0.78789 0.2813 0.88807 0.0
C820 C 0.80171 0.25527 0.94102 0.0
C821 C 0.787 0.28111 0.94132 0.0
C822 C 0.78018 0.29407 0.91499 0.0
C823 C 0.80225 0.25533 0.88766 0.0
C824 C 0.80906 0.24242 0.91384 0.0
C825 C 0.7845 0.29726 0.86089 0.0
O826 O 0.79847 0.24041 0.79913 0.0
O827 O 0.80576 0.24568 0.75053 0.0
O828 O 0.86281 0.25309 0.79115 0.0
O829 O 0.85398 0.28475 0.83101 0.0
O830 O 0.85069 0.26201 0.71399 0.0
O831 O 0.89268 0.28929 0.73945 0.0
O832 O 0.87429 0.32964 0.78165 0.0
O833 O 0.83428 0.34218 0.80441 0.0
O834 O 0.78425 0.30313 0.77594 0.0
O835 O 0.82174 0.31437 0.74297 0.0
C836 C 0.79162 0.22935 0.77118 0.0
O837 O 0.80953 0.31867 0.85516 0.0
O838 O 0.77154 0.27743 0.83747 0.0
C839 C 0.86752 0.26326 0.81951 0.0
C840 C 0.88577 0.29968 0.6897 0.0
C841 C 0.88385 0.34091 0.64399 0.0
C842 C 0.88242 0.30717 0.63736 0.0
C843 C 0.88337 0.28668 0.66011 0.0
C844 C 0.88875 0.33369 0.69633 0.0
C845 C 0.88794 0.35413 0.6737 0.0
C846 C 0.87965 0.27724 0.71315 0.0
C847 C 0.86205 0.35101 0.79552 0.0
H848 H 0.78083 0.29132 0.96188 0.0
H849 H 0.76951 0.31446 0.91571 0.0
H850 H 0.80898 0.24562 0.86714 0.0
H851 H 0.82087 0.22296 0.91287 0.0
H852 H 0.87948 0.2964 0.61463 0.0
H853 H 0.88063 0.26041 0.65461 0.0
H854 H 0.88995 0.34419 0.719 0.0
H855 H 0.88859 0.37985 0.67956 0.0
Tb856 Tb 0.83183 0.79651 0.80215 0.0
Tb857 Tb 0.85742 0.87257 0.82397 0.0
C858 C 0.84263 0.8497 0.75524 0.0
C859 C 0.79274 0.70908 0.80374 0.0
C860 C 0.78945 0.65829 0.84099 0.0
C861 C 0.78607 0.65103 0.80999 0.0
C862 C 0.788 0.67642 0.7915 0.0
C863 C 0.79111 0.71559 0.83421 0.0
C864 C 0.78921 0.6902 0.85277 0.0
C865 C 0.80623 0.73628 0.78632 0.0
O866 O 0.87973 0.80771 0.78704 0.0
O867 O 0.90037 0.86061 0.80933 0.0
O868 O 0.85288 0.84717 0.86462 0.0
O869 O 0.85121 0.79432 0.84703 0.0
O870 O 0.86063 0.92253 0.81924 0.0
O871 O 0.88328 0.90828 0.85742 0.0
O872 O 0.80583 0.86323 0.82484 0.0
O873 O 0.79571 0.80818 0.82985 0.0
O874 O 0.82574 0.82111 0.76216 0.0
O875 O 0.85846 0.87231 0.77595 0.0
C876 C 0.90368 0.83438 0.79275 0.0
O877 O 0.79204 0.75961 0.78494 0.0
O878 O 0.8359 0.74836 0.79218 0.0
C879 C 0.85358 0.81682 0.86936 0.0
C880 C 0.8567 0.94949 0.8642 0.0
C881 C 0.80876 0.98005 0.86635 0.0
C882 C 0.83955 0.99949 0.86726 0.0
C883 C 0.86339 0.98404 0.86513 0.0
C884 C 0.82767 0.93148 0.87137 0.0
C885 C 0.80353 0.94655 0.87191 0.0
C886 C 0.87407 0.932 0.84586 0.0
C887 C 0.78684 0.83594 0.83283 0.0
H888 H 0.78616 0.62679 0.79999 0.0
H889 H 0.78908 0.67105 0.76799 0.0
H890 H 0.79453 0.7408 0.84398 0.0
H891 H 0.79131 0.69642 0.87649 0.0
H892 H 0.84469 0.02589 0.8651 0.0
H893 H 0.88592 0.99851 0.86039 0.0
H894 H 0.82244 0.90481 0.87187 0.0
H895 H 0.78044 0.93072 0.87238 0.0
Tb896 Tb 0.59809 0.57148 0.57548 0.0
Tb897 Tb 0.54634 0.52136 0.52721 0.0
C898 C 0.52883 0.5569 0.58363 0.0
C899 C 0.66548 0.59241 0.62574 0.0
C900 C 0.71596 0.56593 0.61854 0.0
C901 C 0.72026 0.60059 0.62213 0.0
C902 C 0.69503 0.61375 0.62535 0.0
C903 C 0.66221 0.55835 0.62732 0.0
C904 C 0.68713 0.54516 0.6235 0.0
C905 C 0.63855 0.60316 0.61503 0.0
O906 O 0.58913 0.52069 0.58853 0.0
O907 O 0.57473 0.49074 0.54357 0.0
O908 O 0.58755 0.53468 0.50426 0.0
O909 O 0.6251 0.55473 0.54301 0.0
O910 O 0.50931 0.47839 0.51978 0.0
O911 O 0.52421 0.50833 0.48429 0.0
O912 O 0.54064 0.57081 0.52144 0.0
O913 O 0.58633 0.60455 0.54447 0.0
O914 O 0.55461 0.58016 0.58471 0.0
O915 O 0.52528 0.52823 0.56824 0.0
C916 C 0.58637 0.49342 0.57105 0.0
O917 O 0.63865 0.60942 0.58738 0.0
O918 O 0.61172 0.58489 0.62075 0.0
C919 C 0.61648 0.54448 0.5151 0.0
C920 C 0.47135 0.49522 0.492 0.0
C921 C 0.43 0.52917 0.51383 0.0
C922 C 0.42769 0.4963 0.52019 0.0
C923 C 0.44821 0.47939 0.5093 0.0
C924 C 0.46985 0.52552 0.48139 0.0
C925 C 0.4497 0.5426 0.49257 0.0
C926 C 0.50131 0.48692 0.49402 0.0
C927 C 0.5607 0.60008 0.52716 0.0
H928 H 0.74247 0.61744 0.61971 0.0
H929 H 0.6981 0.64015 0.62431 0.0
H930 H 0.63973 0.54126 0.62791 0.0
H931 H 0.68263 0.5184 0.62113 0.0
H932 H 0.41176 0.48464 0.53549 0.0
H933 H 0.44834 0.45572 0.51732 0.0
H934 H 0.48681 0.53816 0.46741 0.0
H935 H 0.45194 0.56765 0.48675 0.0
Tb936 Tb 0.05013 0.53381 0.04523 0.0
Tb937 Tb 0.1156 0.54676 0.01497 0.0
C938 C 0.10541 0.51329 0.07495 0.0
C939 C 0.98499 0.55943 0.07015 0.0
C940 C 0.95551 0.61088 0.07388 0.0
C941 C 0.94228 0.58017 0.08469 0.0
C942 C 0.95691 0.55459 0.08277 0.0
C943 C 0.99845 0.59013 0.05964 0.0
C944 C 0.98373 0.61561 0.06132 0.0
C945 C 1.00022 0.53258 0.06722 0.0
O946 O 0.08221 0.57845 0.06752 0.0
O947 O 0.11056 0.59583 0.02924 0.0
O948 O 0.08134 0.54855 0.98054 0.0
O949 O 0.04783 0.56511 0.00976 0.0
O950 O 0.16323 0.56931 0.01864 0.0
O951 O 0.14042 0.53978 0.97867 0.0
O952 O 0.0969 0.49312 0.01072 0.0
O953 O 0.0456 0.48792 0.01707 0.0
O954 O 0.07532 0.50543 0.06958 0.0
O955 O 0.12394 0.53392 0.05955 0.0
C956 C 0.10027 0.60221 0.05471 0.0
O957 O 1.00181 0.5213 0.04005 0.0
O958 O 1.02653 0.53801 0.08299 0.0
C959 C 0.05836 0.56167 0.98396 0.0
C960 C 0.18708 0.53117 0.99771 0.0
C961 C 0.22357 0.49116 0.01859 0.0
C962 C 0.23685 0.52495 0.01544 0.0
C963 C 0.21867 0.54485 1.00518 0.0
C964 C 0.17424 0.49699 0.99906 0.0
C965 C 0.19232 0.47716 0.00936 0.0
C966 C 0.1667 0.55303 0.99413 0.0
C967 C 0.06797 0.47545 0.00856 0.0
H968 H 0.92029 0.57571 0.09412 0.0
H969 H 0.94621 0.53103 0.09088 0.0
H970 H 1.02031 0.59433 0.05 0.0
H971 H 0.99451 0.63904 0.05303 0.0
H972 H 0.26109 0.53623 0.02185 0.0
H973 H 0.22891 0.57119 1.00455 0.0
H974 H 0.14985 0.48585 0.99373 0.0
H975 H 0.1814 0.4513 0.01166 0.0
C976 C 1.0144 0.1362 0.98287 0.0
C977 C 1.02153 0.16744 0.99932 0.0
H978 H 1.01598 0.08552 0.98123 0.0
C979 C 0.03439 0.17018 0.0287 0.0
H980 H 1.00455 0.13306 0.96016 0.0
C981 C 0.04097 0.14265 0.0409 0.0
C982 C 0.03503 0.11176 0.02395 0.0
H983 H 0.04032 0.19384 0.04199 0.0
H984 H 0.05145 0.14586 0.06338 0.0
C985 C 1.02112 0.10883 0.99496 0.0
C986 C 0.23258 0.8439 0.21631 0.0
C987 C 0.23072 0.83754 0.18536 0.0
H988 H 0.25736 0.84331 0.25783 0.0
C989 C 0.25554 0.82958 0.17231 0.0
H990 H 0.21391 0.85044 0.22701 0.0
C991 C 0.28055 0.82535 0.19008 0.0
C992 C 0.2812 0.82915 0.2212 0.0
H993 H 0.25479 0.82461 0.14854 0.0
H994 H 0.29861 0.81753 0.1794 0.0
C995 C 0.25754 0.83983 0.23403 0.0
C996 C 0.54328 0.89266 0.49985 0.0
C997 C 0.54644 0.88811 0.46932 0.0
H998 H 0.54698 0.92789 0.53788 0.0
C999 C 0.55365 0.91637 0.45352 0.0
H1000 H 0.53769 0.8715 0.5127 0.0
C1001 C 0.55914 0.94815 0.46778 0.0
C1002 C 0.55729 0.95296 0.49835 0.0
H1003 H 0.55595 0.91417 0.42996 0.0
H1004 H 0.56542 0.96913 0.45476 0.0
C1005 C 0.54852 0.9249 0.51424 0.0
C1006 C 0.55169 0.25653 0.72489 0.0
C1007 C 0.56186 0.28316 0.70777 0.0
H1008 H 0.51921 0.23399 0.75432 0.0
C1009 C 0.54537 0.30726 0.70625 0.0
H1010 H 0.56374 0.23735 0.72618 0.0
C1011 C 0.52014 0.30568 0.72289 0.0
C1012 C 0.5108 0.27977 0.74106 0.0
H1013 H 0.55283 0.32816 0.69335 0.0
H1014 H 0.50876 0.32546 0.72241 0.0
C1015 C 0.52634 0.25475 0.74121 0.0
C1016 C 0.09676 0.97994 0.65546 0.0
C1017 C 0.09978 0.94935 0.64199 0.0
H1018 H 0.09361 0.03014 0.65067 0.0
C1019 C 0.10265 0.94847 0.61111 0.0
H1020 H 0.09436 0.9824 0.67897 0.0
C1021 C 0.10256 0.9763 0.59473 0.0
C1022 C 0.09929 1.00682 0.60806 0.0
H1023 H 0.10499 0.92596 0.59932 0.0
H1024 H 0.10475 0.97361 0.57119 0.0
C1025 C 0.09634 1.00774 0.63898 0.0
C1026 C 0.47244 0.81053 0.86628 0.0
C1027 C 0.49911 0.83521 0.86043 0.0
H1028 H 0.42255 0.79087 0.86001 0.0
C1029 C 0.49304 0.85961 0.84253 0.0
H1030 H 0.47512 0.79113 0.87982 0.0
C1031 C 0.46274 0.85974 0.8314 0.0
C1032 C 0.43604 0.83526 0.83704 0.0
H1033 H 0.51205 0.8794 0.8371 0.0
H1034 H 0.46036 0.87943 0.81807 0.0
C1035 C 0.44183 0.81045 0.85475 0.0
C1036 C 0.58513 0.20943 0.15778 0.0
C1037 C 0.58694 0.24019 0.14595 0.0
H1038 H 0.58448 0.15788 0.15065 0.0
C1039 C 0.58932 0.24029 0.11511 0.0
H1040 H 0.5833 0.20759 0.18123 0.0
C1041 C 0.58997 0.21102 0.09719 0.0
C1042 C 0.58837 0.18037 0.10929 0.0
H1043 H 0.59085 0.26304 0.10477 0.0
H1044 H 0.59193 0.21253 0.07373 0.0
C1045 C 0.58586 0.18044 0.14003 0.0
C1046 C 0.1991 0.31647 0.34725 0.0
C1047 C 0.1973 0.33823 0.37223 0.0
H1048 H 0.22723 0.29855 0.31626 0.0
C1049 C 0.22607 0.36053 0.38337 0.0
H1050 H 0.17824 0.2986 0.33753 0.0
C1051 C 0.25446 0.36138 0.37023 0.0
C1052 C 0.25639 0.33914 0.34567 0.0
H1053 H 0.22671 0.37791 0.40238 0.0
H1054 H 0.27529 0.37917 0.38004 0.0
C1055 C 0.22771 0.31644 0.33484 0.0
C1056 C 0.95848 0.03357 0.14796 0.0
C1057 C 0.96898 0.06709 0.15929 0.0
H1058 H 0.96531 0.99573 0.11656 0.0
C1059 C 0.98901 0.08966 0.14359 0.0
H1060 H 0.94326 1.01569 0.15996 0.0
C1061 C 1.00136 0.0783 0.11895 0.0
C1062 C 0.99387 0.04427 0.10986 0.0
H1063 H 0.99742 0.11556 0.15204 0.0
H1064 H 1.01888 0.09571 0.10867 0.0
C1065 C 0.97116 0.0221 0.12334 0.0
C1066 C 0.33536 0.76904 0.51587 0.0
C1067 C 0.35016 0.74333 0.51469 0.0
H1068 H 0.31617 0.80187 0.49135 0.0
C1069 C 0.35987 0.73334 0.48763 0.0
H1070 H 0.32743 0.77712 0.53639 0.0
C1071 C 0.35378 0.74781 0.46202 0.0
C1072 C 0.33736 0.77212 0.46288 0.0
H1073 H 0.37128 0.71356 0.48606 0.0
H1074 H 0.36054 0.73878 0.44124 0.0
C1075 C 0.32871 0.78306 0.49012 0.0
C1076 C 0.61013 0.98976 0.65346 0.0
C1077 C 0.64184 0.99679 0.66176 0.0
H1078 H 0.57522 0.9932 0.62083 0.0
C1079 C 0.66292 1.00711 0.64065 0.0
H1080 H 0.59336 0.9813 0.66913 0.0
C1081 C 0.65238 1.01372 0.61268 0.0
C1082 C 0.62082 1.01028 0.60591 0.0
H1083 H 0.68751 1.01265 0.6465 0.0
H1084 H 0.66899 0.02404 0.59742 0.0
C1085 C 0.59974 0.99668 0.62588 0.0
C1086 C 0.36326 0.3458 0.95351 0.0
C1087 C 0.34533 0.36723 0.96237 0.0
H1088 H 0.37797 0.31946 0.91697 0.0
C1089 C 0.32698 0.37681 0.94017 0.0
H1090 H 0.37784 0.33803 0.96981 0.0
C1091 C 0.32748 0.36687 0.91026 0.0
C1092 C 0.34613 0.34655 0.90105 0.0
H1093 H 0.31249 0.39293 0.94582 0.0
H1094 H 0.31317 0.37543 0.89427 0.0
C1095 C 0.36355 0.33545 0.92315 0.0
C1096 C 0.0889 0.068 0.3109 0.0
C1097 C 0.07109 0.09047 0.30632 0.0
H1098 H 0.11308 0.04665 0.34243 0.0
C1099 C 0.07042 0.11435 0.32937 0.0
H1100 H 0.08993 0.04934 0.29348 0.0
C1101 C 0.08456 0.11347 0.35738 0.0
C1102 C 0.09871 0.088 0.36302 0.0
H1103 H 0.05731 0.13234 0.32625 0.0
H1104 H 0.08239 0.13125 0.37509 0.0
C1105 C 0.10235 0.06655 0.33908 0.0
C1106 C 0.35114 0.71365 0.71569 0.0
C1107 C 0.36327 0.72404 0.68921 0.0
H1108 H 0.33912 0.72811 0.75839 0.0
C1109 C 0.37636 0.75808 0.68737 0.0
H1110 H 0.34114 0.68761 0.71805 0.0
C1111 C 0.37526 0.78136 0.71067 0.0
C1112 C 0.36083 0.771 0.73608 0.0
H1113 H 0.386 0.76692 0.66736 0.0
H1114 H 0.38427 0.80751 0.7081 0.0
C1115 C 0.34977 0.73689 0.73878 0.0
C1116 C 0.58508 0.09071 0.81082 0.0
C1117 C 0.59524 0.06177 0.80724 0.0
H1118 H 0.57462 0.12666 0.8416 0.0
C1119 C 0.59751 0.04366 0.83161 0.0
H1120 H 0.58314 0.10515 0.79235 0.0
C1121 C 0.59256 0.05588 0.8596 0.0
C1122 C 0.58547 0.08654 0.86371 0.0
H1123 H 0.60509 0.02115 0.82938 0.0
H1124 H 0.5967 0.04258 0.8783 0.0
C1125 C 0.58046 0.10317 0.83897 0.0
C1126 C 0.3696 0.39502 0.18626 0.0
C1127 C 0.35802 0.36999 0.16277 0.0
H1128 H 0.37411 0.40907 0.233 0.0
C1129 C 0.34106 0.3387 0.16999 0.0
H1130 H 0.38257 0.41954 0.18181 0.0
C1131 C 0.33586 0.33274 0.19964 0.0
C1132 C 0.34742 0.35787 0.22312 0.0
H1133 H 0.33146 0.31883 0.15268 0.0
H1134 H 0.32289 0.30824 0.20413 0.0
C1135 C 0.36449 0.38907 0.21581 0.0
C1136 C 0.26614 0.0218 0.08027 0.0
C1137 C 0.27509 0.0353 0.05396 0.0
H1138 H 0.24158 0.02474 0.11841 0.0
C1139 C 0.2666 0.06361 0.04622 0.0
H1140 H 0.27325 1.00045 0.08701 0.0
C1141 C 0.2475 0.07694 0.06362 0.0
C1142 C 0.2374 0.06273 0.08956 0.0
H1143 H 0.2736 0.07451 0.02608 0.0
H1144 H 0.23954 0.09734 0.05586 0.0
C1145 C 0.24799 0.03576 0.0982 0.0
C1146 C 0.71675 0.70578 0.05945 0.0
C1147 C 0.73966 0.69262 0.04799 0.0
H1148 H 0.67187 0.69555 0.0751 0.0
C1149 C 0.73432 0.65792 0.0434 0.0
H1150 H 0.7203 0.73237 0.06345 0.0
C1151 C 0.70672 0.63677 0.0502 0.0
C1152 C 0.68388 0.64985 0.06193 0.0
H1153 H 0.75162 0.64701 0.03465 0.0
H1154 H 0.70326 0.6102 0.04614 0.0
C1155 C 0.68918 0.6846 0.06646 0.0
C1156 C 0.77766 0.54971 0.29032 0.0
C1157 C 0.75228 0.52911 0.30213 0.0
H1158 H 0.81931 0.55259 0.26912 0.0
C1159 C 0.749 0.4948 0.30062 0.0
H1160 H 0.78075 0.5763 0.29123 0.0
C1161 C 0.77073 0.48132 0.28763 0.0
C1162 C 0.79632 0.50194 0.27618 0.0
H1163 H 0.72964 0.47834 0.30947 0.0
H1164 H 0.76794 0.4548 0.28723 0.0
C1165 C 0.79968 0.53625 0.27768 0.0
C1166 C 0.94747 0.57703 0.51231 0.0
C1167 C 0.93025 0.54498 0.51686 0.0
H1168 H 0.992 0.61186 0.51667 0.0
C1169 C 0.94537 0.5229 0.52895 0.0
H1170 H 0.93641 0.59458 0.50312 0.0
C1171 C 0.97691 0.53276 0.5368 0.0
C1172 C 0.99409 0.5649 0.53271 0.0
H1173 H 0.93282 0.49796 0.5327 0.0
H1174 H 0.98775 0.51516 0.54623 0.0
C1175 C 0.9792 0.58695 0.52022 0.0
C1176 C 0.32094 0.08245 0.35752 0.0
C1177 C 0.35037 0.09824 0.3715 0.0
H1178 H 0.27903 0.08928 0.33745 0.0
C1179 C 0.35625 0.1311 0.3841 0.0
H1180 H 0.31546 0.05685 0.34816 0.0
C1181 C 0.33539 0.14965 0.37796 0.0
C1182 C 0.30848 0.13552 0.35902 0.0
H1183 H 0.37847 0.14369 0.39564 0.0
H1184 H 0.34257 0.17605 0.38471 0.0
C1185 C 0.30005 0.10104 0.35133 0.0
C1186 C 0.40329 0.1711 0.60111 0.0
C1187 C 0.39479 0.18308 0.57477 0.0
H1188 H 0.42945 0.14197 0.62193 0.0
C1189 C 0.409 0.17737 0.54914 0.0
H1190 H 0.39267 0.17543 0.62119 0.0
C1191 C 0.42951 0.15737 0.54931 0.0
C1192 C 0.4362 0.14319 0.57521 0.0
H1193 H 0.40245 0.1861 0.52851 0.0
H1194 H 0.43851 0.15134 0.52874 0.0
C1195 C 0.42401 0.15161 0.60141 0.0
C1196 C 0.76586 0.68518 0.33995 0.0
C1197 C 0.73531 0.68768 0.33814 0.0
H1198 H 0.81325 0.70941 0.33544 0.0
C1199 C 0.72911 0.71701 0.32976 0.0
H1200 H 0.77123 0.66281 0.3464 0.0
C1201 C 0.75293 0.7432 0.32286 0.0
C1202 C 0.78351 0.74088 0.32488 0.0
H1203 H 0.70577 0.71953 0.32798 0.0
H1204 H 0.74737 0.76541 0.31624 0.0
C1205 C 0.78985 0.71178 0.33372 0.0
C1206 C 0.8841 0.44161 0.82364 0.0
C1207 C 0.91096 0.45417 0.80954 0.0
H1208 H 0.8478 0.39943 0.83031 0.0
C1209 C 0.92237 0.43221 0.79146 0.0
H1210 H 0.87469 0.45774 0.83783 0.0
C1211 C 0.9068 0.39845 0.78716 0.0
C1212 C 0.87955 0.3862 0.80079 0.0
H1213 H 0.94302 0.44114 0.78031 0.0
H1214 H 0.91581 0.38213 0.77278 0.0
C1215 C 0.86857 0.40809 0.81927 0.0
C1216 C 0.11774 0.92707 0.12023 0.0
C1217 C 0.10874 0.8957 0.10401 0.0
H1218 H 0.11487 0.97743 0.12363 0.0
C1219 C 0.08887 0.89139 0.07806 0.0
H1220 H 0.13304 0.93122 0.14031 0.0
C1221 C 0.07781 0.91781 0.06888 0.0
C1222 C 0.08711 0.94926 0.08502 0.0
H1223 H 0.08139 0.86746 0.06521 0.0
H1224 H 0.06236 0.91377 0.04892 0.0
C1225 C 0.1074 0.9536 0.11064 0.0
C1226 C 0.92023 0.25862 0.88649 0.0
C1227 C 0.94426 0.24958 0.87289 0.0
H1228 H 0.87675 0.27009 0.88005 0.0
C1229 C 0.94046 0.23996 0.84232 0.0
H1230 H 0.92271 0.26638 0.90996 0.0
C1231 C 0.91425 0.24188 0.8252 0.0
C1232 C 0.89153 0.25403 0.83826 0.0
H1233 H 0.95869 0.23282 0.83132 0.0
H1234 H 0.91293 0.23609 0.80148 0.0
C1235 C 0.89411 0.26103 0.86926 0.0
C1236 C 0.60356 0.20254 0.58361 0.0
C1237 C 0.63242 0.21438 0.5999 0.0
H1238 H 0.57179 0.16129 0.55776 0.0
C1239 C 0.65273 0.19397 0.60022 0.0
H1240 H 0.58728 0.21755 0.58329 0.0
C1241 C 0.6441 0.16207 0.58538 0.0
C1242 C 0.61463 0.14943 0.57042 0.0
H1243 H 0.67508 0.20238 0.6127 0.0
H1244 H 0.66012 0.14681 0.5867 0.0
C1245 C 0.5946 0.17021 0.56927 0.0
C1246 C 0.62083 0.80128 0.3715 0.0
C1247 C 0.62428 0.79895 0.40216 0.0
H1248 H 0.64283 0.81709 0.33282 0.0
C1249 C 0.65351 0.8116 0.41751 0.0
H1250 H 0.59857 0.79186 0.35902 0.0
C1251 C 0.67889 0.82588 0.40233 0.0
C1252 C 0.67528 0.82822 0.37172 0.0
H1253 H 0.65678 0.81024 0.44112 0.0
H1254 H 0.70138 0.83505 0.41446 0.0
C1255 C 0.64604 0.81603 0.35649 0.0
C1256 C 0.09511 0.23442 0.50234 0.0
C1257 C 0.09302 0.23218 0.47101 0.0
H1258 H 0.09435 0.20973 0.54243 0.0
C1259 C 0.08818 0.19963 0.45683 0.0
H1260 H 0.09881 0.25846 0.51464 0.0
C1261 C 0.08593 0.17115 0.47306 0.0
C1262 C 0.08785 0.17345 0.50445 0.0
H1263 H 0.08645 0.19606 0.43292 0.0
H1264 H 0.08263 0.14715 0.46083 0.0
C1265 C 0.0924 0.20598 0.51852 0.0
C1266 C 0.69724 0.33956 0.27033 0.0
C1267 C 0.69327 0.35381 0.24347 0.0
H1268 H 0.72786 0.32509 0.3024 0.0
C1269 C 0.72064 0.36501 0.22914 0.0
H1270 H 0.67737 0.33026 0.28241 0.0
C1271 C 0.75002 0.36218 0.24082 0.0
C1272 C 0.754 0.34754 0.26745 0.0
H1273 H 0.71944 0.37606 0.20849 0.0
H1274 H 0.7698 0.37139 0.22859 0.0
C1275 C 0.72664 0.3364 0.28189 0.0
C1276 C 0.61591 0.97528 0.96054 0.0
C1277 C 0.60691 0.94301 0.97023 0.0
H1278 H 0.62046 0.02774 0.96878 0.0
C1279 C 0.59527 0.94109 0.99838 0.0
H1280 H 0.6249 0.97854 0.93915 0.0
C1281 C 0.59247 0.96996 0.01562 0.0
C1282 C 0.60132 1.00217 0.00566 0.0
H1283 H 0.58775 0.91715 0.00694 0.0
H1284 H 0.58314 0.96692 0.03687 0.0
C1285 C 0.6133 1.00396 0.97773 0.0
C1286 C 0.98464 0.86483 0.75957 0.0
C1287 C 0.99362 0.83523 0.75259 0.0
H1288 H 0.95122 0.88828 0.77784 0.0
C1289 C 0.97224 0.80572 0.75931 0.0
H1290 H 0.99976 0.88837 0.75532 0.0
C1291 C 0.94379 0.80555 0.77169 0.0
C1292 C 0.935 0.83503 0.77931 0.0
H1293 H 0.97741 0.7821 0.75469 0.0
H1294 H 0.9287 0.7819 0.77575 0.0
C1295 C 0.95644 0.86475 0.7729 0.0
C1296 C 0.16033 0.07112 0.97003 0.0
C1297 C 0.15403 0.04777 0.94526 0.0
H1298 H 0.14927 0.08312 0.01354 0.0
C1299 C 0.13527 1.01573 0.94719 0.0
H1300 H 0.17477 0.096 0.96882 0.0
C1301 C 0.11988 1.00847 0.97255 0.0
C1302 C 0.12347 0.03316 0.99618 0.0
H1303 H 0.13001 0.99751 0.9281 0.0
H1304 H 0.10346 0.98448 0.97264 0.0
C1305 C 0.14548 0.06373 0.9955 0.0
C1306 C 0.88616 0.4159 0.60193 0.0
C1307 C 0.86089 0.40357 0.58074 0.0
H1308 H 0.91381 0.40546 0.63808 0.0
C1309 C 0.845 0.36978 0.57879 0.0
H1310 H 0.89909 0.44176 0.60375 0.0
C1311 C 0.85342 0.34902 0.59851 0.0
C1312 C 0.87792 0.36165 0.62048 0.0
H1313 H 0.8255 0.35956 0.56261 0.0
H1314 H 0.83985 0.32343 0.59736 0.0
C1315 C 0.89461 0.39513 0.62159 0.0
C1316 C 0.50209 0.08311 0.43358 0.0
C1317 C 0.51736 0.08493 0.4076 0.0
H1318 H 0.50517 0.07861 0.48001 0.0
C1319 C 0.54936 0.08845 0.40956 0.0
H1320 H 0.47757 0.08086 0.43292 0.0
C1321 C 0.56524 0.08739 0.43669 0.0
C1322 C 0.54927 0.08254 0.46209 0.0
H1323 H 0.56186 0.09034 0.38995 0.0
H1324 H 0.58947 0.0881 0.43735 0.0
C1325 C 0.51789 0.08181 0.46056 0.0
C1326 C 0.83226 0.81136 0.16675 0.0
C1327 C 0.8433 0.78455 0.15624 0.0
H1328 H 0.82527 0.84141 0.20488 0.0
C1329 C 0.85812 0.76911 0.17686 0.0
H1330 H 0.82005 0.82324 0.15156 0.0
C1331 C 0.86081 0.77908 0.20719 0.0
C1332 C 0.84853 0.80477 0.21814 0.0
H1333 H 0.86647 0.74806 0.16956 0.0
H1334 H 0.87164 0.76568 0.22213 0.0
C1335 C 0.83492 0.82143 0.19739 0.0
C1336 C 0.1378 0.10385 0.76567 0.0
C1337 C 0.12622 0.07627 0.78118 0.0
H1338 H 0.12839 0.13471 0.73314 0.0
C1339 C 0.09485 0.05908 0.77646 0.0
H1340 H 0.16181 0.11777 0.76916 0.0
C1341 C 0.07559 0.06871 0.75548 0.0
C1342 C 0.08741 0.09624 0.73988 0.0
H1343 H 0.0855 0.03779 0.78836 0.0
H1344 H 0.05173 0.05451 0.75113 0.0
C1345 C 0.11855 0.11388 0.74542 0.0
C1346 C 0.82345 0.45571 0.39487 0.0
C1347 C 0.81593 0.44121 0.42126 0.0
H1348 H 0.83541 0.44827 0.3504 0.0
C1349 C 0.81144 0.40685 0.42178 0.0
H1350 H 0.82706 0.48218 0.39383 0.0
C1351 C 0.81652 0.38774 0.3973 0.0
C1352 C 0.82609 0.40243 0.37157 0.0
H1353 H 0.80525 0.39481 0.4416 0.0
H1354 H 0.8137 0.36147 0.39893 0.0
C1355 C 0.82845 0.43639 0.37011 0.0
C1356 C 0.43396 0.05733 0.23216 0.0
C1357 C 0.44635 0.08451 0.25334 0.0
H1358 H 0.44217 0.02824 0.19437 0.0
C1359 C 0.47453 0.10695 0.2492 0.0
H1360 H 0.4123 0.03957 0.2348 0.0
C1361 C 0.49161 0.10039 0.22618 0.0
C1362 C 0.48079 0.07133 0.20687 0.0
H1363 H 0.48445 0.12827 0.26506 0.0
H1364 H 0.51406 0.11716 0.22442 0.0
C1365 C 0.45113 0.05073 0.20908 0.0
C1366 C 0.85314 0.82136 0.95402 0.0
C1367 C 0.85165 0.78853 0.96007 0.0
H1368 H 0.85518 0.85604 0.92124 0.0
C1369 C 0.85213 0.76543 0.93599 0.0
H1370 H 0.85273 0.83988 0.97179 0.0
C1371 C 0.85342 0.77464 0.90684 0.0
C1372 C 0.85443 0.80736 0.90069 0.0
H1373 H 0.85088 0.73986 0.93955 0.0
H1374 H 0.85308 0.75586 0.88904 0.0
C1375 C 0.85456 0.83062 0.92486 0.0
C1376 C 0.89523 0.09432 0.0464 0.0
C1377 C 0.89367 0.08878 0.07645 0.0
H1378 H 0.90491 0.07696 1.00356 0.0
C1379 C 0.90263 0.06152 0.08653 0.0
H1380 H 0.88826 0.11496 0.03785 0.0
C1381 C 0.91203 0.03972 0.06682 0.0
C1382 C 0.91255 0.04457 0.03658 0.0
H1383 H 0.90186 0.05664 0.10954 0.0
H1384 H 0.91912 0.01916 0.07539 0.0
C1385 C 0.90452 0.07241 0.02666 0.0
C1386 C 0.46981 0.49127 0.07447 0.0
C1387 C 0.44916 0.48717 0.04929 0.0
H1388 H 0.51413 0.51722 0.09574 0.0
C1389 C 0.45877 0.50452 0.02472 0.0
H1390 H 0.46293 0.47837 0.0937 0.0
C1391 C 0.4881 0.52649 0.02567 0.0
C1392 C 0.5081 0.53208 0.05148 0.0
H1393 H 0.44326 0.50166 1.00493 0.0
H1394 H 0.49464 0.54 0.00668 0.0
C1395 C 0.49893 0.51379 0.07566 0.0
C1396 C 0.36783 0.60859 0.78715 0.0
C1397 C 0.39883 0.62411 0.78355 0.0
H1398 H 0.32603 0.61337 0.8046 0.0
C1399 C 0.41173 0.65692 0.79577 0.0
H1400 H 0.35731 0.5832 0.77812 0.0
C1401 C 0.39387 0.67405 0.811 0.0
C1402 C 0.36277 0.65871 0.81432 0.0
H1403 H 0.43556 0.66949 0.79341 0.0
H1404 H 0.40422 0.69969 0.81941 0.0
C1405 C 0.34993 0.62577 0.80235 0.0
C1406 C 0.22878 0.66231 0.56738 0.0
C1407 C 0.24563 0.6427 0.58078 0.0
H1408 H 0.1847 0.66527 0.5495 0.0
C1409 C 0.23062 0.61042 0.58688 0.0
H1410 H 0.24002 0.68718 0.56227 0.0
C1411 C 0.19886 0.59813 0.58013 0.0
C1412 C 0.18215 0.61764 0.56633 0.0
H1413 H 0.24335 0.59495 0.5972 0.0
H1414 H 0.18744 0.57336 0.58537 0.0
C1415 C 0.19731 0.64969 0.55983 0.0
C1416 C 0.76746 1.01603 0.80817 0.0
C1417 C 0.73639 1.00136 0.81173 0.0
H1418 H 0.81413 0.02111 0.82219 0.0
C1419 C 0.72887 0.98262 0.83582 0.0
H1420 H 0.77413 0.03083 0.78997 0.0
C1421 C 0.7523 0.97771 0.85537 0.0
C1422 C 0.78359 0.99121 0.85091 0.0
H1423 H 0.70502 0.97157 0.83941 0.0
H1424 H 0.74587 0.96259 0.8734 0.0
C1425 C 0.79064 1.01096 0.8273 0.0
C1426 C 0.75043 0.91335 0.5335 0.0
C1427 C 0.77136 0.92749 0.55816 0.0
H1428 H 0.71716 0.92129 0.50078 0.0
C1429 C 0.77203 0.95919 0.57101 0.0
H1430 H 0.74969 0.88904 0.52305 0.0
C1431 C 0.75398 0.97758 0.55816 0.0
C1432 C 0.7348 0.96463 0.53223 0.0
H1433 H 0.78784 0.97053 0.59015 0.0
H1434 H 0.75573 1.00243 0.56803 0.0
C1435 C 0.73212 0.93187 0.52062 0.0
C1436 C 0.39491 0.45134 0.75407 0.0
C1437 C 0.4261 0.4547 0.75006 0.0
H1438 H 0.35413 0.4232 0.77044 0.0
C1439 C 0.44003 0.43021 0.75887 0.0
H1440 H 0.38361 0.46988 0.74742 0.0
C1441 C 0.42305 0.40329 0.77256 0.0
C1442 C 0.39198 0.40057 0.77724 0.0
H1443 H 0.46419 0.43254 0.75626 0.0
H1444 H 0.4342 0.38475 0.77948 0.0
C1445 C 0.37806 0.42463 0.76743 0.0
C1446 C 0.26656 0.64519 0.2235 0.0
C1447 C 0.23531 0.64483 0.21909 0.0
H1448 H 0.31261 0.674 0.2375 0.0
C1449 C 0.22692 0.67473 0.22319 0.0
H1450 H 0.27358 0.62239 0.22052 0.0
C1451 C 0.24913 0.70405 0.23366 0.0
C1452 C 0.28013 0.70402 0.2396 0.0
H1453 H 0.20297 0.67507 0.22022 0.0
H1454 H 0.24191 0.72658 0.2378 0.0
C1455 C 0.28885 0.67463 0.23335 0.0
C1456 C 0.52455 0.65295 0.47891 0.0
C1457 C 0.53977 0.68539 0.4911 0.0
H1458 H 0.51896 0.60075 0.48079 0.0
C1459 C 0.56122 0.68946 0.51586 0.0
H1460 H 0.50798 0.64891 0.45978 0.0
C1461 C 0.56805 0.66185 0.52751 0.0
C1462 C 0.55321 0.62942 0.51502 0.0
H1463 H 0.57356 0.71407 0.52566 0.0
H1464 H 0.58506 0.66597 0.54629 0.0
C1465 C 0.53095 0.62532 0.4909 0.0
C1466 C 0.75395 0.33544 0.68203 0.0
C1467 C 0.72805 0.34281 0.69354 0.0
H1468 H 0.79561 0.32082 0.69142 0.0
C1469 C 0.72639 0.34479 0.72436 0.0
H1470 H 0.75587 0.33371 0.65841 0.0
C1471 C 0.74864 0.33699 0.74306 0.0
C1472 C 0.77345 0.32742 0.73153 0.0
H1473 H 0.70694 0.3508 0.73402 0.0
H1474 H 0.74583 0.33745 0.76653 0.0
C1475 C 0.77659 0.32794 0.70094 0.0
C1476 C 0.07466 0.39776 0.96458 0.0
C1477 C 0.04922 0.37323 0.97205 0.0
H1478 H 0.10034 0.44868 0.97015 0.0
C1479 C 0.02978 0.38246 0.99212 0.0
H1480 H 0.0902 0.39155 0.94928 0.0
C1481 C 0.0354 0.41578 1.00384 0.0
C1482 C 0.06096 0.44018 0.99622 0.0
H1483 H 1.00991 0.36416 0.99817 0.0
H1484 H 1.01996 0.42238 0.01903 0.0
C1485 C 0.08058 0.4306 0.97666 0.0
C1486 C 0.04626 0.79378 0.20561 0.0
C1487 C 0.06504 0.77225 0.20985 0.0
H1488 H 1.00759 0.80985 0.2193 0.0
C1489 C 0.05691 0.74758 0.22936 0.0
H1490 H 0.05206 0.81309 0.19078 0.0
C1491 C 0.03126 0.74538 0.24534 0.0
C1492 C 1.01339 0.76805 0.24242 0.0
H1493 H 0.07073 0.73031 0.23274 0.0
H1494 H 1.02577 0.72628 0.2604 0.0
C1495 C 1.02074 0.79182 0.2219 0.0
C1496 C 0.60211 0.45082 0.11409 0.0
C1497 C 0.60292 0.45235 0.14537 0.0
H1498 H 0.60166 0.4758 0.07427 0.0
C1499 C 0.60421 0.48408 0.15973 0.0
H1500 H 0.60105 0.42745 0.10163 0.0
C1501 C 0.60451 0.51241 0.14373 0.0
C1502 C 0.6037 0.51079 0.11239 0.0
H1503 H 0.60475 0.48709 0.18361 0.0
H1504 H 0.60518 0.5357 0.15612 0.0
C1505 C 0.60252 0.47907 0.09815 0.0
C1506 C 0.99382 0.36082 0.34212 0.0
C1507 C 0.99993 0.33699 0.36065 0.0
H1508 H 0.96097 0.38055 0.31788 0.0
C1509 C 0.97332 0.31336 0.36805 0.0
H1510 H 1.01287 0.37979 0.33555 0.0
C1511 C 0.94263 0.31359 0.3572 0.0
C1512 C 0.93682 0.33783 0.33884 0.0
H1513 H 0.97611 0.2944 0.38208 0.0
H1514 H 0.92333 0.29472 0.36347 0.0
C1515 C 0.96346 0.36139 0.3318 0.0
C1516 C 0.0927 0.74096 0.61263 0.0
C1517 C 0.08262 0.73893 0.64139 0.0
H1518 H 0.10178 0.71504 0.57268 0.0
C1519 C 0.0728 0.70655 0.65059 0.0
H1520 H 0.10064 0.76503 0.60439 0.0
C1521 C 0.07323 0.6778 0.63233 0.0
C1522 C 0.08391 0.67963 0.60388 0.0
H1523 H 0.06469 0.70323 0.67233 0.0
H1524 H 0.06521 0.65395 0.64079 0.0
C1525 C 0.09345 0.71198 0.59435 0.0
C1526 C 0.71333 0.81143 0.87809 0.0
C1527 C 0.69626 0.83489 0.87267 0.0
H1528 H 0.75288 0.7926 0.87012 0.0
C1529 C 0.70995 0.8591 0.85367 0.0
H1530 H 0.70457 0.79223 0.89237 0.0
C1531 C 0.73886 0.85999 0.84138 0.0
C1532 C 0.75556 0.83603 0.84639 0.0
H1533 H 0.69855 0.87807 0.84864 0.0
H1534 H 0.74797 0.87949 0.82749 0.0
C1535 C 0.74159 0.81165 0.86504 0.0
C1536 C 0.49211 0.59907 0.64073 0.0
C1537 C 0.47092 0.57196 0.65023 0.0
H1538 H 0.52653 0.61563 0.61135 0.0
C1539 C 0.46436 0.54081 0.63389 0.0
H1540 H 0.49738 0.62328 0.65311 0.0
C1541 C 0.48164 0.53607 0.61029 0.0
C1542 C 0.50538 0.56255 0.60294 0.0
H1543 H 0.44816 0.51952 0.64112 0.0
H1544 H 0.47803 0.5113 0.59942 0.0
C1545 C 0.50899 0.5945 0.61706 0.0
C1546 C 0.81348 0.19454 0.99537 0.0
C1547 C 0.82604 0.21566 0.02109 0.0
H1548 H 0.7954 0.19039 0.95028 0.0
C1549 C 0.83046 0.25005 0.02043 0.0
H1550 H 0.80956 0.1679 0.99518 0.0
C1551 C 0.82234 0.263 0.99453 0.0
C1552 C 0.80973 0.24179 0.96882 0.0
H1553 H 0.83999 0.26694 0.03994 0.0
H1554 H 0.8263 0.28962 0.99453 0.0
C1555 C 0.80541 0.20744 0.96958 0.0
C1556 C 0.16441 0.50079 0.13233 0.0
C1557 C 0.14621 0.4928 0.15596 0.0
H1558 H 0.16554 0.51369 0.08773 0.0
C1559 C 0.11401 0.48587 0.15105 0.0
H1560 H 0.18929 0.50625 0.13555 0.0
C1561 C 0.1004 0.49004 0.12375 0.0
C1562 C 0.11886 0.50163 0.10108 0.0
H1563 H 0.09951 0.47947 0.16896 0.0
H1564 H 0.07568 0.48656 0.12123 0.0
C1565 C 0.15082 0.50538 0.10508 0.0
C1566 C 0.8222 0.85911 0.44327 0.0
C1567 C 0.84737 0.86153 0.46403 0.0
H1568 H 0.80355 0.84911 0.39821 0.0
C1569 C 0.87351 0.85311 0.454 0.0
H1570 H 0.80181 0.86568 0.45013 0.0
C1571 C 0.87485 0.84406 0.42363 0.0
C1572 C 0.84996 0.843 0.40272 0.0
H1573 H 0.89353 0.85536 0.46929 0.0
H1574 H 0.89567 0.83884 0.41644 0.0
C1575 C 0.82336 0.84981 0.41328 0.0
C1576 C 0.52523 0.57172 0.83507 0.0
C1577 C 0.54102 0.5685 0.8099 0.0
H1578 H 0.52493 0.57035 0.88168 0.0
C1579 C 0.57095 0.56431 0.81342 0.0
H1580 H 0.50203 0.57466 0.83316 0.0
C1581 C 0.5844 0.56232 0.84154 0.0
C1582 C 0.56806 0.56426 0.86659 0.0
H1583 H 0.58373 0.5618 0.79442 0.0
H1584 H 0.60743 0.55895 0.84361 0.0
C1585 C 0.53847 0.56935 0.86301 0.0
C1586 C 0.86794 0.22027 0.22492 0.0
C1587 C 0.87336 0.22818 0.19591 0.0
H1588 H 0.85913 0.23709 0.26813 0.0
C1589 C 0.87879 0.26156 0.18975 0.0
H1590 H 0.86404 0.19495 0.23062 0.0
C1591 C 0.87611 0.2859 0.2115 0.0
C1592 C 0.86765 0.2771 0.23955 0.0
H1593 H 0.8831 0.26853 0.16767 0.0
H1594 H 0.87873 0.31107 0.2058 0.0
C1595 C 0.86486 0.24439 0.2464 0.0
C1596 C 0.10947 0.60378 0.30433 0.0
C1597 C 0.12325 0.57747 0.30082 0.0
H1598 H 0.09401 0.63612 0.33472 0.0
C1599 C 0.12968 0.5615 0.32553 0.0
H1600 H 0.10449 0.61663 0.28559 0.0
C1601 C 0.12332 0.57228 0.35347 0.0
C1602 C 0.11085 0.59959 0.35732 0.0
H1603 H 0.13999 0.54088 0.32334 0.0
H1604 H 0.1284 0.55932 0.37208 0.0
C1605 C 0.10349 0.61491 0.33242 0.0
C1606 C 0.83738 0.8362 0.67023 0.0
C1607 C 0.85485 0.86706 0.66256 0.0
H1608 H 0.81941 0.80658 0.70498 0.0
C1609 C 0.86779 0.89206 0.68573 0.0
H1610 H 0.82677 0.8164 0.65313 0.0
C1611 C 0.86344 0.88654 0.71545 0.0
C1612 C 0.84577 0.85584 0.72321 0.0
H1613 H 0.88123 0.91624 0.68091 0.0
H1614 H 0.87403 0.90652 0.7324 0.0
C1615 C 0.83289 0.83069 0.70007 0.0
C1616 C 0.77229 0.55167 0.56423 0.0
C1617 C 0.77256 0.51889 0.56804 0.0
H1618 H 0.75389 0.59204 0.57672 0.0
C1619 C 0.75699 0.50283 0.59073 0.0
H1620 H 0.78439 0.56459 0.54696 0.0
C1621 C 0.74063 0.51909 0.6089 0.0
C1622 C 0.7387 0.55134 0.60406 0.0
H1623 H 0.75762 0.47779 0.59456 0.0
H1624 H 0.72885 0.50601 0.62622 0.0
C1625 C 0.75523 0.56759 0.58177 0.0
C1626 C 0.22865 0.15777 0.53964 0.0
C1627 C 0.23341 0.19234 0.54452 0.0
H1628 H 0.19841 0.10965 0.54209 0.0
C1629 C 0.21018 0.20488 0.55614 0.0
H1630 H 0.24618 0.14732 0.53079 0.0
C1631 C 0.18282 0.18315 0.56299 0.0
C1632 C 0.17817 0.14853 0.55819 0.0
H1633 H 0.21332 0.23138 0.56037 0.0
H1634 H 0.16517 0.19353 0.57166 0.0
C1635 C 0.20136 0.13612 0.54637 0.0
C1636 C 0.28083 1.01211 0.82588 0.0
C1637 C 0.25093 1.0081 0.81284 0.0
H1638 H 0.32525 1.00461 0.82102 0.0
C1639 C 0.2432 0.99405 0.78351 0.0
H1640 H 0.28731 0.023 0.84849 0.0
C1641 C 0.26533 0.98487 0.76719 0.0
C1642 C 0.29543 0.98886 0.78014 0.0
H1643 H 0.22041 0.99141 0.7728 0.0
H1644 H 0.25887 0.97498 0.74435 0.0
C1645 C 0.30273 1.0022 0.80985 0.0
C1646 C 0.44814 0.05593 0.04133 0.0
C1647 C 0.43789 0.06063 0.01261 0.0
H1648 H 0.48651 0.05885 0.07219 0.0
C1649 C 0.45947 0.07328 0.9927 0.0
H1650 H 0.43187 0.04636 0.05714 0.0
C1651 C 0.49103 0.07984 1.0012 0.0
C1652 C 0.50115 0.07448 0.02986 0.0
H1653 H 0.45196 0.07689 0.9704 0.0
H1654 H 0.50744 0.08891 0.98538 0.0
C1655 C 0.47942 0.06307 0.04995 0.0
C1656 C 0.85301 0.63432 0.88091 0.0
C1657 C 0.84735 0.60162 0.86804 0.0
H1658 H 0.8378 0.6783 0.88328 0.0
C1659 C 0.81736 0.58482 0.85601 0.0
H1660 H 0.87565 0.64759 0.89115 0.0
C1661 C 0.79529 0.60243 0.85168 0.0
C1662 C 0.80322 0.63693 0.85913 0.0
H1663 H 0.81204 0.55923 0.84667 0.0
H1664 H 0.77366 0.59003 0.83899 0.0
C1665 C 0.83099 0.65188 0.87663 0.0
C1666 C 0.90613 0.66482 0.10119 0.0
C1667 C 0.89972 0.6794 0.07554 0.0
H1668 H 0.92921 0.6321 0.12083 0.0
C1669 C 0.91539 0.67526 0.0505 0.0
H1670 H 0.89457 0.66796 0.12093 0.0
C1671 C 0.93511 0.6543 0.05037 0.0
C1672 C 0.93931 0.63743 0.0753 0.0
H1673 H 0.91061 0.68607 0.03042 0.0
H1674 H 0.94542 0.64963 0.0302 0.0
C1675 C 0.92574 0.6441 0.10109 0.0
C1676 C 0.26616 0.1725 0.84012 0.0
C1677 C 0.23871 0.17475 0.85212 0.0
H1678 H 0.30754 0.19836 0.82227 0.0
C1679 C 0.23323 0.206 0.85753 0.0
H1680 H 0.27093 0.14865 0.8356 0.0
C1681 C 0.25425 0.23434 0.85015 0.0
C1682 C 0.28093 0.23201 0.8367 0.0
H1683 H 0.2124 0.20854 0.86694 0.0
H1684 H 0.24915 0.25802 0.85448 0.0
C1685 C 0.28703 0.2009 0.8323 0.0
C1686 C 0.4053 0.93475 0.33134 0.0
C1687 C 0.4238 0.95307 0.31146 0.0
H1688 H 0.37651 0.88766 0.33983 0.0
C1689 C 0.42877 0.93675 0.28487 0.0
H1690 H 0.40119 0.94667 0.35206 0.0
C1691 C 0.41424 0.90308 0.27764 0.0
C1692 C 0.39496 0.88502 0.29712 0.0
H1693 H 0.44284 0.95028 0.26907 0.0
H1694 H 0.41769 0.89135 0.25659 0.0
C1695 C 0.39125 0.90096 0.32436 0.0
C1696 C 0.6118 0.43745 0.62411 0.0
C1697 C 0.6149 0.41087 0.60479 0.0
H1698 H 0.60056 0.48414 0.62878 0.0
C1699 C 0.60868 0.4118 0.57424 0.0
H1700 H 0.61646 0.43765 0.64777 0.0
C1701 C 0.59922 0.43842 0.56334 0.0
C1702 C 0.59609 0.46498 0.58268 0.0
H1703 H 0.6108 0.39178 0.55874 0.0
H1704 H 0.59456 0.43823 0.53968 0.0
C1705 C 0.6027 0.46421 0.6132 0.0
C1706 C 0.42712 0.75925 0.37596 0.0
C1707 C 0.45441 0.75649 0.36411 0.0
H1708 H 0.38094 0.76287 0.36637 0.0
C1709 C 0.45407 0.74891 0.33347 0.0
H1710 H 0.42683 0.76521 0.39949 0.0
C1711 C 0.42829 0.74822 0.31462 0.0
C1712 C 0.40215 0.75489 0.32601 0.0
H1713 H 0.47477 0.74631 0.32381 0.0
H1714 H 0.42972 0.74485 0.29097 0.0
C1715 C 0.40099 0.75823 0.35694 0.0
C1716 C 0.12215 0.67038 0.11751 0.0
C1717 C 0.12888 0.69947 0.10284 0.0
H1718 H 0.10763 0.6174 0.1139 0.0
C1719 C 0.1264 0.69645 0.07172 0.0
H1720 H 0.12355 0.67169 0.14145 0.0
C1721 C 0.11779 0.66484 0.05576 0.0
C1722 C 0.11064 0.6359 0.07069 0.0
H1723 H 0.13144 0.71839 0.05981 0.0
H1724 H 0.11612 0.66304 0.03182 0.0
C1725 C 0.11284 0.63914 0.1017 0.0
C1726 C 0.1136 0.25651 0.88363 0.0
C1727 C 0.11373 0.27046 0.91266 0.0
H1728 H 0.13596 0.25889 0.84369 0.0
C1729 C 0.13881 0.2968 0.92456 0.0
H1730 H 0.09453 0.23623 0.87386 0.0
C1731 C 0.16269 0.30987 0.90715 0.0
C1732 C 0.1619 0.29663 0.87772 0.0
H1733 H 0.1394 0.30813 0.94684 0.0
H1734 H 0.18162 0.33047 0.91662 0.0
C1735 C 0.13736 0.26949 0.86634 0.0
C1736 C 0.59218 0.70211 0.96116 0.0
C1737 C 0.59247 0.73384 0.97465 0.0
H1738 H 0.59166 0.65098 0.96605 0.0
C1739 C 0.5911 0.73577 0.00581 0.0
H1740 H 0.5933 0.69881 0.93748 0.0
C1741 C 0.58936 0.70766 0.0224 0.0
C1742 C 0.58964 0.67608 0.00895 0.0
H1743 H 0.59127 0.75925 0.01758 0.0
H1744 H 0.58847 0.71099 0.04611 0.0
C1745 C 0.59122 0.67425 0.97782 0.0
C1746 C 0.19635 0.83847 0.76862 0.0
C1747 C 0.19203 0.85152 0.74118 0.0
H1748 H 0.22726 0.82517 0.80124 0.0
C1749 C 0.21923 0.86153 0.7263 0.0
H1750 H 0.17668 0.8301 0.78121 0.0
C1751 C 0.24866 0.85866 0.73794 0.0
C1752 C 0.25302 0.8454 0.76524 0.0
H1753 H 0.21783 0.87158 0.70518 0.0
H1754 H 0.26818 0.86673 0.72513 0.0
C1755 C 0.22584 0.83547 0.78024 0.0
C1756 C 0.10589 0.47349 0.45303 0.0
C1757 C 0.10539 0.44325 0.46544 0.0
H1758 H 0.10302 0.52419 0.45908 0.0
C1759 C 0.10176 0.44338 0.4961 0.0
H1760 H 0.10843 0.4751 0.42966 0.0
C1761 C 0.09895 0.47224 0.51333 0.0
C1762 C 0.09913 0.50233 0.50074 0.0
H1763 H 0.10108 0.42107 0.50692 0.0
H1764 H 0.09624 0.47076 0.53669 0.0
C1765 C 0.10265 0.50207 0.4701 0.0
C1766 C 0.47333 0.30667 0.25934 0.0
C1767 C 0.4951 0.33639 0.25368 0.0
H1768 H 0.4293 0.28261 0.27474 0.0
C1769 C 0.48646 0.36599 0.26144 0.0
H1770 H 0.4783 0.28307 0.25407 0.0
C1771 C 0.45816 0.36572 0.27456 0.0
C1772 C 0.43631 0.33583 0.2799 0.0
H1773 H 0.50194 0.38964 0.25802 0.0
H1774 H 0.4532 0.38925 0.2802 0.0
C1775 C 0.44474 0.30635 0.27147 0.0
C1776 C 0.67245 0.59046 0.46702 0.0
C1777 C 0.66691 0.56737 0.44203 0.0
H1778 H 0.66142 0.60027 0.51122 0.0
C1779 C 0.65114 0.53419 0.44429 0.0
H1780 H 0.68446 0.61621 0.46554 0.0
C1781 C 0.63712 0.52536 0.46999 0.0
C1782 C 0.63977 0.54941 0.49383 0.0
H1783 H 0.64641 0.51613 0.42511 0.0
H1784 H 0.62197 0.50065 0.47025 0.0
C1785 C 0.65935 0.58132 0.49308 0.0
C1786 C 0.38725 0.93262 0.09595 0.0
C1787 C 0.36237 0.92093 0.07426 0.0
H1788 H 0.4152 0.92076 0.13106 0.0
C1789 C 0.34676 0.88701 0.0711 0.0
H1790 H 0.39998 0.95857 0.09869 0.0
C1791 C 0.35539 0.86534 0.08977 0.0
C1792 C 0.3799 0.87715 0.11188 0.0
H1793 H 0.32755 0.87725 0.05451 0.0
H1794 H 0.34222 0.83955 0.08746 0.0
C1795 C 0.39597 0.91096 0.1145 0.0
C1796 C 0.04229 0.57737 0.90531 0.0
C1797 C 1.01102 0.57706 0.90446 0.0
H1798 H 0.08184 0.57304 0.93132 0.0
C1799 C 0.99659 0.57626 0.93096 0.0
H1800 H 0.05426 0.57856 0.88538 0.0
C1801 C 1.01259 0.57326 0.95748 0.0
C1802 C 0.04309 0.57085 0.9577 0.0
H1803 H 0.97258 0.57629 0.93102 0.0
H1804 H 1.00057 0.57098 0.97739 0.0
C1805 C 0.05812 0.57418 0.93164 0.0
C1806 C 0.2977 0.27706 0.67139 0.0
C1807 C 0.32378 0.27998 0.65531 0.0
H1808 H 0.27993 0.28133 0.71364 0.0
C1809 C 0.35308 0.29166 0.67086 0.0
H1810 H 0.27479 0.26748 0.6602 0.0
C1811 C 0.3561 0.29876 0.70189 0.0
C1812 C 0.32988 0.29465 0.71808 0.0
H1813 H 0.37362 0.29329 0.65932 0.0
H1814 H 0.37902 0.30677 0.71325 0.0
C1815 C 0.30067 0.28462 0.70218 0.0
C1816 C 0.59636 0.54166 0.25704 0.0
C1817 C 0.60068 0.55911 0.28516 0.0
H1818 H 0.57864 0.53906 0.21219 0.0
C1819 C 0.58335 0.58185 0.2914 0.0
H1820 H 0.60911 0.52365 0.25173 0.0
C1821 C 0.56537 0.59041 0.26875 0.0
C1822 C 0.56476 0.57655 0.23958 0.0
H1823 H 0.58577 0.59516 0.31313 0.0
H1824 H 0.55431 0.61004 0.27356 0.0
C1825 C 0.57858 0.55037 0.23436 0.0
C1826 C 0.31906 0.9161 0.91745 0.0
C1827 C 0.32297 0.94988 0.9138 0.0
H1828 H 0.31971 0.86851 0.8981 0.0
C1829 C 0.32813 0.96093 0.88567 0.0
H1830 H 0.31466 0.90666 0.93872 0.0
C1831 C 0.3312 0.93883 0.86212 0.0
C1832 C 0.3291 0.90543 0.86643 0.0
H1833 H 0.33116 0.98684 0.88219 0.0
H1834 H 0.33621 0.94812 0.8409 0.0
C1835 C 0.3221 0.89419 0.89411 0.0
C1836 C 0.93951 0.56611 0.72805 0.0
C1837 C 0.95193 0.59094 0.7513 0.0
H1838 H 0.94816 0.53956 0.68889 0.0
C1839 C 0.98199 0.61115 0.75052 0.0
H1840 H 0.91639 0.55011 0.72807 0.0
C1841 C 1.00041 0.60456 0.72872 0.0
C1842 C 0.98903 0.5779 0.70681 0.0
H1843 H 0.99216 0.63052 0.76815 0.0
H1844 H 1.0242 0.6191 0.73032 0.0
C1845 C 0.95793 0.55967 0.70595 0.0
C1846 C 0.34845 0.26688 0.43645 0.0
C1847 C 0.34761 0.29001 0.46039 0.0
H1848 H 0.3506 0.25737 0.38968 0.0
C1849 C 0.34971 0.32294 0.45431 0.0
H1850 H 0.34677 0.24123 0.44003 0.0
C1851 C 0.35208 0.33229 0.42522 0.0
C1852 C 0.3523 0.30899 0.40118 0.0
H1853 H 0.34905 0.34147 0.47198 0.0
H1854 H 0.35315 0.35779 0.42154 0.0
C1855 C 0.35065 0.27616 0.40738 0.0
C1856 C 0.40264 0.56964 0.58038 0.0
C1857 C 0.39229 0.59493 0.56804 0.0
H1858 H 0.42281 0.5293 0.57304 0.0
C1859 C 0.39405 0.59832 0.53768 0.0
H1860 H 0.40153 0.56643 0.60372 0.0
C1861 C 0.40531 0.57637 0.51985 0.0
C1862 C 0.41555 0.55087 0.53208 0.0
H1863 H 0.38569 0.61721 0.52742 0.0
H1864 H 0.40567 0.57922 0.49642 0.0
C1865 C 0.41434 0.548 0.56264 0.0
C1866 C 0.9467 0.02399 0.55588 0.0
C1867 C 0.94139 0.9893 0.55473 0.0
H1868 H 0.97941 0.07099 0.55485 0.0
C1869 C 0.96632 0.97537 0.55192 0.0
H1870 H 0.92789 0.03544 0.55805 0.0
C1871 C 0.99589 0.99583 0.54939 0.0
C1872 C 1.00101 0.03054 0.55017 0.0
H1873 H 0.96278 0.94871 0.55068 0.0
H1874 H 1.01475 0.98451 0.54702 0.0
C1875 C 0.97618 0.04438 0.55389 0.0
C1876 C 0.8869 0.11667 0.30496 0.0
C1877 C 0.91595 0.13412 0.29715 0.0
H1878 H 0.84536 0.1196 0.32402 0.0
C1879 C 0.92582 0.16867 0.30377 0.0
H1880 H 0.87871 0.08997 0.30024 0.0
C1881 C 0.90676 0.18553 0.31747 0.0
C1882 C 0.87747 0.16816 0.32479 0.0
H1883 H 0.94807 0.18276 0.29802 0.0
H1884 H 0.91458 0.21233 0.32149 0.0
C1885 C 0.86779 0.13356 0.31857 0.0
C1886 C 0.7294 0.10154 0.10605 0.0
C1887 C 0.74513 0.13541 0.11035 0.0
H1888 H 0.68657 0.06547 0.09233 0.0
C1889 C 0.72882 0.15928 0.10609 0.0
H1890 H 0.74149 0.08268 0.10927 0.0
C1891 C 0.69778 0.14947 0.09587 0.0
C1892 C 0.68239 0.11567 0.09029 0.0
H1893 H 0.74033 0.18557 0.10925 0.0
H1894 H 0.68596 0.1684 0.09186 0.0
C1895 C 0.6981 0.09172 0.09632 0.0
C1896 C 0.24432 0.49671 0.3292 0.0
C1897 C 0.25309 0.51028 0.30276 0.0
H1898 H 0.25931 0.48131 0.37022 0.0
C1899 C 0.28449 0.52098 0.29846 0.0
H1900 H 0.22024 0.48888 0.33335 0.0
C1901 C 0.30665 0.51689 0.31936 0.0
C1902 C 0.29818 0.50205 0.3454 0.0
H1903 H 0.29209 0.53187 0.27848 0.0
H1904 H 0.33037 0.52365 0.31395 0.0
C1905 C 0.26671 0.49269 0.35041 0.0
C1906 C 0.28039 0.46737 0.07138 0.0
C1907 C 0.27901 0.43506 0.05962 0.0
H1908 H 0.2637 0.51026 0.06776 0.0
C1909 C 0.25754 0.42011 0.03563 0.0
H1910 H 0.29676 0.47936 0.08995 0.0
C1911 C 0.23906 0.43811 0.02244 0.0
C1912 C 0.24174 0.47118 0.03322 0.0
H1913 H 0.25635 0.39535 0.02593 0.0
H1914 H 0.22366 0.42664 1.00311 0.0
C1915 C 0.26186 0.48522 0.05839 0.0
C1916 C 0.95183 0.93587 0.25926 0.0
C1917 C 0.94845 0.96703 0.26976 0.0
H1918 H 0.93699 0.88313 0.26109 0.0
C1919 C 0.92858 0.96876 0.29206 0.0
H1920 H 0.96709 0.93376 0.24222 0.0
C1921 C 0.91148 0.94005 0.30272 0.0
C1922 C 0.91392 0.90886 0.29153 0.0
H1923 H 0.92557 0.99232 0.30095 0.0
H1924 H 0.89584 0.94234 0.31936 0.0
C1925 C 0.93474 0.90696 0.27016 0.0
C1926 C 0.73349 0.14734 0.77542 0.0
C1927 C 0.71811 0.14125 0.74683 0.0
H1928 H 0.7686 0.17997 0.80554 0.0
C1929 C 0.7269 0.16452 0.72629 0.0
H1930 H 0.72706 0.12991 0.79183 0.0
C1931 C 0.7512 0.19302 0.73407 0.0
C1932 C 0.7666 0.19892 0.76267 0.0
H1933 H 0.71548 0.16036 0.70412 0.0
H1934 H 0.75772 0.21057 0.71779 0.0
C1935 C 0.75727 0.17599 0.78334 0.0
loop_
_geom_bond_atom_site_label_1
_geom_bond_atom_site_label_2
_geom_bond_distance
_geom_bond_site_symmetry_2
_ccdc_geom_bond_type
C0 O1 1.306 1_655 S
C0 O3 1.160 1_655 S
O1 C0 1.306 1_455 S
O1 Cd2 2.228 . S
Cd2 O1 2.228 . S
Cd2 O6 2.273 . S
Cd2 O10 2.277 . S
O3 C0 1.160 1_455 S
O3 Cd4 2.203 . S
Cd4 O3 2.203 . S
Cd4 O6 2.411 . S
Cd4 O7 2.333 . S
Cd4 O8 2.352 . S
Cd4 O12 2.277 . S
Cd4 O13 2.356 . S
C5 O10 1.209 . S
C5 O12 1.226 . S
O6 Cd2 2.273 . S
O6 Cd4 2.411 . S
O6 C9 1.320 . S
O7 Cd4 2.333 . S
O7 C9 1.214 . S
O8 Cd4 2.352 . S
O8 C11 1.258 . S
C9 O6 1.320 . S
C9 O7 1.214 . S
O10 Cd2 2.277 . S
O10 C5 1.209 . S
C11 O8 1.258 . S
C11 O13 1.282 . S
O12 Cd4 2.277 . S
O12 C5 1.226 . S
O13 Cd4 2.356 . S
O13 C11 1.282 . S
C14 O15 1.306 . S
C14 O17 1.160 . S
O15 C14 1.306 . S
O15 Cd16 2.228 . S
Cd16 O15 2.228 . S
Cd16 O20 2.273 . S
Cd16 O24 2.277 . S
O17 C14 1.160 . S
O17 Cd18 2.203 . S
Cd18 O17 2.203 . S
Cd18 O20 2.411 . S
Cd18 O21 2.333 . S
Cd18 O22 2.352 . S
Cd18 O26 2.277 . S
Cd18 O27 2.356 . S
C19 O24 1.209 . S
C19 O26 1.226 . S
O20 Cd16 2.273 . S
O20 Cd18 2.411 . S
O20 C23 1.320 . S
O21 Cd18 2.333 . S
O21 C23 1.214 . S
O22 Cd18 2.352 . S
O22 C25 1.258 . S
C23 O20 1.320 . S
C23 O21 1.214 . S
O24 Cd16 2.277 . S
O24 C19 1.209 . S
C25 O22 1.258 . S
C25 O27 1.282 . S
O26 Cd18 2.277 . S
O26 C19 1.226 . S
O27 Cd18 2.356 . S
O27 C25 1.282 . S
C28 O29 1.306 . S
C28 O31 1.160 . S
O29 C28 1.306 . S
O29 Cd30 2.228 . S
Cd30 O29 2.228 . S
Cd30 O34 2.273 . S
Cd30 O38 2.277 . S
O31 C28 1.160 . S
O31 Cd32 2.203 . S
Cd32 O31 2.203 . S
Cd32 O34 2.411 . S
Cd32 O35 2.333 . S
Cd32 O36 2.352 . S
Cd32 O40 2.277 . S
Cd32 O41 2.356 . S
C33 O38 1.209 . S
C33 O40 1.226 . S
O34 Cd30 2.273 . S
O34 Cd32 2.411 . S
O34 C37 1.320 . S
O35 Cd32 2.333 . S
O35 C37 1.214 . S
O36 Cd32 2.352 . S
O36 C39 1.258 . S
C37 O34 1.320 . S
C37 O35 1.214 . S
O38 Cd30 2.277 . S
O38 C33 1.209 . S
C39 O36 1.258 . S
C39 O41 1.282 . S
O40 Cd32 2.277 . S
O40 C33 1.226 . S
O41 Cd32 2.356 . S
O41 C39 1.282 . S
C42 O43 1.306 . S
C42 O45 1.160 . S
O43 C42 1.306 . S
O43 Cd44 2.228 . S
Cd44 O43 2.228 . S
Cd44 O48 2.273 . S
Cd44 O52 2.277 . S
O45 C42 1.160 . S
O45 Cd46 2.203 . S
Cd46 O45 2.203 . S
Cd46 O48 2.411 . S
Cd46 O49 2.333 . S
Cd46 O50 2.352 . S
Cd46 O54 2.277 . S
Cd46 O55 2.356 . S
C47 O52 1.209 . S
C47 O54 1.226 . S
O48 Cd44 2.273 . S
O48 Cd46 2.411 . S
O48 C51 1.320 . S
O49 Cd46 2.333 . S
O49 C51 1.214 . S
O50 Cd46 2.352 . S
O50 C53 1.258 . S
C51 O48 1.320 . S
C51 O49 1.214 . S
O52 Cd44 2.277 . S
O52 C47 1.209 . S
C53 O50 1.258 . S
C53 O55 1.282 . S
O54 Cd46 2.277 . S
O54 C47 1.226 . S
O55 Cd46 2.356 . S
O55 C53 1.282 . S
C56 O57 1.306 . S
C56 O59 1.160 . S
O57 C56 1.306 . S
O57 Cd58 2.228 . S
Cd58 O57 2.228 . S
Cd58 O62 2.273 . S
Cd58 O66 2.277 . S
O59 C56 1.160 . S
O59 Cd60 2.203 . S
Cd60 O59 2.203 . S
Cd60 O62 2.411 . S
Cd60 O63 2.333 . S
Cd60 O64 2.352 . S
Cd60 O68 2.277 . S
Cd60 O69 2.356 . S
C61 O66 1.209 . S
C61 O68 1.226 . S
O62 Cd58 2.273 . S
O62 Cd60 2.411 . S
O62 C65 1.320 . S
O63 Cd60 2.333 . S
O63 C65 1.214 . S
O64 Cd60 2.352 . S
O64 C67 1.258 . S
C65 O62 1.320 . S
C65 O63 1.214 . S
O66 Cd58 2.277 . S
O66 C61 1.209 . S
C67 O64 1.258 . S
C67 O69 1.282 . S
O68 Cd60 2.277 . S
O68 C61 1.226 . S
O69 Cd60 2.356 . S
O69 C67 1.282 . S
C70 O71 1.306 . S
C70 O73 1.160 . S
O71 C70 1.306 . S
O71 Cd72 2.228 . S
Cd72 O71 2.228 . S
Cd72 O76 2.273 . S
Cd72 O80 2.277 . S
O73 C70 1.160 . S
O73 Cd74 2.203 . S
Cd74 O73 2.203 . S
Cd74 O76 2.411 . S
Cd74 O77 2.333 . S
Cd74 O78 2.352 . S
Cd74 O82 2.277 . S
Cd74 O83 2.356 . S
C75 O80 1.209 . S
C75 O82 1.226 . S
O76 Cd72 2.273 . S
O76 Cd74 2.411 . S
O76 C79 1.320 . S
O77 Cd74 2.333 . S
O77 C79 1.214 . S
O78 Cd74 2.352 . S
O78 C81 1.258 . S
C79 O76 1.320 . S
C79 O77 1.214 . S
O80 Cd72 2.277 . S
O80 C75 1.209 . S
C81 O78 1.258 . S
C81 O83 1.282 . S
O82 Cd74 2.277 . S
O82 C75 1.226 . S
O83 Cd74 2.356 . S
O83 C81 1.282 . S
C84 O85 1.306 . S
C84 O87 1.160 . S
O85 C84 1.306 . S
O85 Cd86 2.228 . S
Cd86 O85 2.228 . S
Cd86 O90 2.273 . S
Cd86 O94 2.277 . S
O87 C84 1.160 . S
O87 Cd88 2.203 . S
Cd88 O87 2.203 . S
Cd88 O90 2.411 . S
Cd88 O91 2.333 . S
Cd88 O92 2.352 . S
Cd88 O96 2.277 . S
Cd88 O97 2.356 . S
C89 O94 1.209 . S
C89 O96 1.226 . S
O90 Cd86 2.273 . S
O90 Cd88 2.411 . S
O90 C93 1.320 . S
O91 Cd88 2.333 . S
O91 C93 1.214 . S
O92 Cd88 2.352 . S
O92 C95 1.258 . S
C93 O90 1.320 . S
C93 O91 1.214 . S
O94 Cd86 2.277 . S
O94 C89 1.209 . S
C95 O92 1.258 . S
C95 O97 1.282 . S
O96 Cd88 2.277 . S
O96 C89 1.226 . S
O97 Cd88 2.356 . S
O97 C95 1.282 . S
C98 O99 1.306 . S
C98 O101 1.160 . S
O99 C98 1.306 . S
O99 Cd100 2.228 1_655 S
Cd100 O99 2.228 1_455 S
Cd100 O104 2.273 . S
Cd100 O108 2.277 . S
O101 C98 1.160 . S
O101 Cd102 2.203 1_655 S
Cd102 O101 2.203 1_455 S
Cd102 O104 2.411 . S
Cd102 O105 2.333 . S
Cd102 O106 2.352 1_455 S
Cd102 O110 2.277 . S
Cd102 O111 2.356 . S
C103 O108 1.209 . S
C103 O110 1.226 . S
O104 Cd100 2.273 . S
O104 Cd102 2.411 . S
O104 C107 1.320 . S
O105 Cd102 2.333 . S
O105 C107 1.214 . S
O106 Cd102 2.352 1_655 S
O106 C109 1.258 . S
C107 O104 1.320 . S
C107 O105 1.214 . S
O108 Cd100 2.277 . S
O108 C103 1.209 . S
C109 O106 1.258 . S
C109 O111 1.282 1_655 S
O110 Cd102 2.277 . S
O110 C103 1.226 . S
O111 Cd102 2.356 . S
O111 C109 1.282 1_455 S
C112 O113 1.306 . S
C112 O115 1.160 . S
O113 C112 1.306 . S
O113 Cd114 2.228 1_545 S
Cd114 O113 2.228 1_565 S
Cd114 O118 2.273 1_565 S
Cd114 O122 2.277 . S
O115 C112 1.160 . S
O115 Cd116 2.203 . S
Cd116 O115 2.203 . S
Cd116 O118 2.411 . S
Cd116 O119 2.333 . S
Cd116 O120 2.352 . S
Cd116 O124 2.277 1_545 S
Cd116 O125 2.356 . S
C117 O122 1.209 . S
C117 O124 1.226 . S
O118 Cd114 2.273 1_545 S
O118 Cd116 2.411 . S
O118 C121 1.320 . S
O119 Cd116 2.333 . S
O119 C121 1.214 . S
O120 Cd116 2.352 . S
O120 C123 1.258 . S
C121 O118 1.320 . S
C121 O119 1.214 . S
O122 Cd114 2.277 . S
O122 C117 1.209 . S
C123 O120 1.258 . S
C123 O125 1.282 . S
O124 Cd116 2.277 1_565 S
O124 C117 1.226 . S
O125 Cd116 2.356 . S
O125 C123 1.282 . S
C126 O127 1.306 . S
C126 O129 1.160 . S
O127 C126 1.306 . S
O127 Cd128 2.228 . S
Cd128 O127 2.228 . S
Cd128 O132 2.273 . S
Cd128 O136 2.277 . S
O129 C126 1.160 . S
O129 Cd130 2.203 . S
Cd130 O129 2.203 . S
Cd130 O132 2.411 . S
Cd130 O133 2.333 . S
Cd130 O134 2.352 . S
Cd130 O138 2.277 . S
Cd130 O139 2.356 . S
C131 O136 1.209 . S
C131 O138 1.226 . S
O132 Cd128 2.273 . S
O132 Cd130 2.411 . S
O132 C135 1.320 . S
O133 Cd130 2.333 . S
O133 C135 1.214 . S
O134 Cd130 2.352 . S
O134 C137 1.258 . S
C135 O132 1.320 . S
C135 O133 1.214 . S
O136 Cd128 2.277 . S
O136 C131 1.209 . S
C137 O134 1.258 . S
C137 O139 1.282 . S
O138 Cd130 2.277 . S
O138 C131 1.226 . S
O139 Cd130 2.356 . S
O139 C137 1.282 . S
C140 O141 1.306 . S
C140 O143 1.160 . S
O141 C140 1.306 . S
O141 Cd142 2.228 . S
Cd142 O141 2.228 . S
Cd142 O146 2.273 . S
Cd142 O150 2.277 . S
O143 C140 1.160 . S
O143 Cd144 2.203 . S
Cd144 O143 2.203 . S
Cd144 O146 2.411 . S
Cd144 O147 2.333 . S
Cd144 O148 2.352 . S
Cd144 O152 2.277 . S
Cd144 O153 2.356 . S
C145 O150 1.209 . S
C145 O152 1.226 . S
O146 Cd142 2.273 . S
O146 Cd144 2.411 . S
O146 C149 1.320 . S
O147 Cd144 2.333 . S
O147 C149 1.214 . S
O148 Cd144 2.352 . S
O148 C151 1.258 . S
C149 O146 1.320 . S
C149 O147 1.214 . S
O150 Cd142 2.277 . S
O150 C145 1.209 . S
C151 O148 1.258 . S
C151 O153 1.282 . S
O152 Cd144 2.277 . S
O152 C145 1.226 . S
O153 Cd144 2.356 . S
O153 C151 1.282 . S
C154 O155 1.296 1_564 S
C154 O157 1.168 . S
O155 C154 1.296 1_546 S
O155 Cd156 2.228 . S
Cd156 O155 2.228 . S
Cd156 O160 2.274 1_546 S
Cd156 O164 2.277 1_545 S
O157 C154 1.168 . S
O157 Cd158 2.203 . S
Cd158 O157 2.203 . S
Cd158 O160 2.411 . S
Cd158 O161 2.333 . S
Cd158 O162 2.352 . S
Cd158 O166 2.277 1_554 S
Cd158 O167 2.356 . S
C159 O164 1.209 . S
C159 O166 1.226 . S
O160 Cd156 2.274 1_564 S
O160 Cd158 2.411 . S
O160 C163 1.321 . S
O161 Cd158 2.333 . S
O161 C163 1.213 . S
O162 Cd158 2.352 . S
O162 C165 1.258 . S
C163 O160 1.321 . S
C163 O161 1.213 . S
O164 Cd156 2.277 1_565 S
O164 C159 1.209 . S
C165 O162 1.258 . S
C165 O167 1.282 . S
O166 Cd158 2.277 1_556 S
O166 C159 1.226 . S
O167 Cd158 2.356 . S
O167 C165 1.282 . S
C168 O169 1.306 . S
C168 O171 1.160 . S
O169 C168 1.306 . S
O169 Cd170 2.228 . S
Cd170 O169 2.228 . S
Cd170 O174 2.273 . S
Cd170 O178 2.277 1_554 S
O171 C168 1.160 . S
O171 Cd172 2.203 . S
Cd172 O171 2.203 . S
Cd172 O174 2.411 . S
Cd172 O175 2.333 . S
Cd172 O176 2.352 . S
Cd172 O180 2.277 . S
Cd172 O181 2.356 . S
C173 O178 1.209 . S
C173 O180 1.226 1_556 S
O174 Cd170 2.273 . S
O174 Cd172 2.411 . S
O174 C177 1.320 . S
O175 Cd172 2.333 . S
O175 C177 1.214 . S
O176 Cd172 2.352 . S
O176 C179 1.258 . S
C177 O174 1.320 . S
C177 O175 1.214 . S
O178 Cd170 2.277 1_556 S
O178 C173 1.209 . S
C179 O176 1.258 . S
C179 O181 1.282 . S
O180 Cd172 2.277 . S
O180 C173 1.226 1_554 S
O181 Cd172 2.356 . S
O181 C179 1.282 . S
C182 O183 1.306 . S
C182 O185 1.160 . S
O183 C182 1.306 . S
O183 Cd184 2.228 . S
Cd184 O183 2.228 . S
Cd184 O188 2.273 . S
Cd184 O192 2.277 . S
O185 C182 1.160 . S
O185 Cd186 2.203 . S
Cd186 O185 2.203 . S
Cd186 O188 2.411 . S
Cd186 O189 2.333 . S
Cd186 O190 2.352 . S
Cd186 O194 2.277 . S
Cd186 O195 2.356 . S
C187 O192 1.209 . S
C187 O194 1.226 . S
O188 Cd184 2.273 . S
O188 Cd186 2.411 . S
O188 C191 1.320 . S
O189 Cd186 2.333 . S
O189 C191 1.214 . S
O190 Cd186 2.352 . S
O190 C193 1.258 . S
C191 O188 1.320 . S
C191 O189 1.214 . S
O192 Cd184 2.277 . S
O192 C187 1.209 . S
C193 O190 1.258 . S
C193 O195 1.282 . S
O194 Cd186 2.277 . S
O194 C187 1.226 . S
O195 Cd186 2.356 . S
O195 C193 1.282 . S
C196 O197 1.306 . S
C196 O199 1.160 . S
O197 C196 1.306 . S
O197 Cd198 2.228 . S
Cd198 O197 2.228 . S
Cd198 O202 2.273 . S
Cd198 O206 2.277 . S
O199 C196 1.160 . S
O199 Cd200 2.203 . S
Cd200 O199 2.203 . S
Cd200 O202 2.411 . S
Cd200 O203 2.333 . S
Cd200 O204 2.352 . S
Cd200 O208 2.277 . S
Cd200 O209 2.356 . S
C201 O206 1.209 . S
C201 O208 1.226 . S
O202 Cd198 2.273 . S
O202 Cd200 2.411 . S
O202 C205 1.320 . S
O203 Cd200 2.333 . S
O203 C205 1.214 . S
O204 Cd200 2.352 . S
O204 C207 1.258 . S
C205 O202 1.320 . S
C205 O203 1.214 . S
O206 Cd198 2.277 . S
O206 C201 1.209 . S
C207 O204 1.258 . S
C207 O209 1.282 . S
O208 Cd200 2.277 . S
O208 C201 1.226 . S
O209 Cd200 2.356 . S
O209 C207 1.282 . S
C210 O211 1.306 . S
C210 O213 1.160 . S
O211 C210 1.306 . S
O211 Cd212 2.228 . S
Cd212 O211 2.228 . S
Cd212 O216 2.273 . S
Cd212 O220 2.277 . S
O213 C210 1.160 . S
O213 Cd214 2.203 . S
Cd214 O213 2.203 . S
Cd214 O216 2.411 . S
Cd214 O217 2.333 . S
Cd214 O218 2.352 . S
Cd214 O222 2.277 . S
Cd214 O223 2.356 . S
C215 O220 1.209 . S
C215 O222 1.226 . S
O216 Cd212 2.273 . S
O216 Cd214 2.411 . S
O216 C219 1.320 . S
O217 Cd214 2.333 . S
O217 C219 1.214 . S
O218 Cd214 2.352 . S
O218 C221 1.258 . S
C219 O216 1.320 . S
C219 O217 1.214 . S
O220 Cd212 2.277 . S
O220 C215 1.209 . S
C221 O218 1.258 . S
C221 O223 1.282 . S
O222 Cd214 2.277 . S
O222 C215 1.226 . S
O223 Cd214 2.356 . S
O223 C221 1.282 . S
C224 O225 1.306 1_545 S
C224 O227 1.160 . S
O225 C224 1.306 1_565 S
O225 Cd226 2.228 . S
Cd226 O225 2.228 . S
Cd226 O230 2.273 1_565 S
Cd226 O234 2.277 . S
O227 C224 1.160 . S
O227 Cd228 2.203 . S
Cd228 O227 2.203 . S
Cd228 O230 2.411 . S
Cd228 O231 2.332 . S
Cd228 O232 2.352 . S
Cd228 O236 2.277 1_545 S
Cd228 O237 2.356 . S
C229 O234 1.209 . S
C229 O236 1.226 . S
O230 Cd226 2.273 1_545 S
O230 Cd228 2.411 . S
O230 C233 1.320 . S
O231 Cd228 2.332 . S
O231 C233 1.207 . S
O232 Cd228 2.352 . S
O232 C235 1.258 . S
C233 O230 1.320 . S
C233 O231 1.207 . S
O234 Cd226 2.277 . S
O234 C229 1.209 . S
C235 O232 1.258 . S
C235 O237 1.282 . S
O236 Cd228 2.277 1_565 S
O236 C229 1.226 . S
O237 Cd228 2.356 . S
O237 C235 1.282 . S
C238 O239 1.306 . S
C238 O241 1.160 . S
O239 C238 1.306 . S
O239 Cd240 2.228 . S
Cd240 O239 2.228 . S
Cd240 O244 2.273 . S
Cd240 O248 2.277 . S
O241 C238 1.160 . S
O241 Cd242 2.203 . S
Cd242 O241 2.203 . S
Cd242 O244 2.411 . S
Cd242 O245 2.333 . S
Cd242 O246 2.352 . S
Cd242 O250 2.277 . S
Cd242 O251 2.356 . S
C243 O248 1.209 . S
C243 O250 1.226 . S
O244 Cd240 2.273 . S
O244 Cd242 2.411 . S
O244 C247 1.320 . S
O245 Cd242 2.333 . S
O245 C247 1.214 . S
O246 Cd242 2.352 . S
O246 C249 1.258 . S
C247 O244 1.320 . S
C247 O245 1.214 . S
O248 Cd240 2.277 . S
O248 C243 1.209 . S
C249 O246 1.258 . S
C249 O251 1.282 . S
O250 Cd242 2.277 . S
O250 C243 1.226 . S
O251 Cd242 2.356 . S
O251 C249 1.282 . S
C252 O253 1.306 . S
C252 O255 1.160 . S
O253 C252 1.306 . S
O253 Cd254 2.228 . S
Cd254 O253 2.228 . S
Cd254 O258 2.273 . S
Cd254 O262 2.277 . S
O255 C252 1.160 . S
O255 Cd256 2.203 . S
Cd256 O255 2.203 . S
Cd256 O258 2.411 . S
Cd256 O259 2.333 . S
Cd256 O260 2.352 . S
Cd256 O264 2.277 . S
Cd256 O265 2.356 . S
C257 O262 1.209 . S
C257 O264 1.226 . S
O258 Cd254 2.273 . S
O258 Cd256 2.411 . S
O258 C261 1.320 . S
O259 Cd256 2.333 . S
O259 C261 1.214 . S
O260 Cd256 2.352 . S
O260 C263 1.258 . S
C261 O258 1.320 . S
C261 O259 1.214 . S
O262 Cd254 2.277 . S
O262 C257 1.209 . S
C263 O260 1.258 . S
C263 O265 1.282 . S
O264 Cd256 2.277 . S
O264 C257 1.226 . S
O265 Cd256 2.356 . S
O265 C263 1.282 . S
C266 O267 1.306 . S
C266 O269 1.160 . S
O267 C266 1.306 . S
O267 Cd268 2.228 . S
Cd268 O267 2.228 . S
Cd268 O272 2.273 . S
Cd268 O276 2.277 . S
O269 C266 1.160 . S
O269 Cd270 2.203 . S
Cd270 O269 2.203 . S
Cd270 O272 2.411 . S
Cd270 O273 2.333 . S
Cd270 O274 2.352 . S
Cd270 O278 2.277 . S
Cd270 O279 2.356 . S
C271 O276 1.209 . S
C271 O278 1.226 . S
O272 Cd268 2.273 . S
O272 Cd270 2.411 . S
O272 C275 1.320 . S
O273 Cd270 2.333 . S
O273 C275 1.214 . S
O274 Cd270 2.352 . S
O274 C277 1.258 . S
C275 O272 1.320 . S
C275 O273 1.214 . S
O276 Cd268 2.277 . S
O276 C271 1.209 . S
C277 O274 1.258 . S
C277 O279 1.282 . S
O278 Cd270 2.277 . S
O278 C271 1.226 . S
O279 Cd270 2.356 . S
O279 C277 1.282 . S
C280 O281 1.306 . S
C280 O283 1.160 . S
O281 C280 1.306 . S
O281 Cd282 2.228 . S
Cd282 O281 2.228 . S
Cd282 O286 2.273 . S
Cd282 O290 2.277 . S
O283 C280 1.160 . S
O283 Cd284 2.203 . S
Cd284 O283 2.203 . S
Cd284 O286 2.411 . S
Cd284 O287 2.333 . S
Cd284 O288 2.352 1_554 S
Cd284 O292 2.277 . S
Cd284 O293 2.356 . S
C285 O290 1.209 . S
C285 O292 1.226 . S
O286 Cd282 2.273 . S
O286 Cd284 2.411 . S
O286 C289 1.320 . S
O287 Cd284 2.333 . S
O287 C289 1.214 . S
O288 Cd284 2.352 1_556 S
O288 C291 1.258 . S
C289 O286 1.320 . S
C289 O287 1.214 . S
O290 Cd282 2.277 . S
O290 C285 1.209 . S
C291 O288 1.258 . S
C291 O293 1.282 1_556 S
O292 Cd284 2.277 . S
O292 C285 1.226 . S
O293 Cd284 2.356 . S
O293 C291 1.282 1_554 S
C294 O295 1.306 . S
C294 O297 1.160 . S
O295 C294 1.306 . S
O295 Cd296 2.228 . S
Cd296 O295 2.228 . S
Cd296 O300 2.273 . S
Cd296 O304 2.277 . S
O297 C294 1.160 . S
O297 Cd298 2.203 . S
Cd298 O297 2.203 . S
Cd298 O300 2.411 . S
Cd298 O301 2.333 . S
Cd298 O302 2.352 . S
Cd298 O306 2.277 . S
Cd298 O307 2.356 . S
C299 O304 1.209 . S
C299 O306 1.226 . S
O300 Cd296 2.273 . S
O300 Cd298 2.411 . S
O300 C303 1.320 . S
O301 Cd298 2.333 . S
O301 C303 1.214 . S
O302 Cd298 2.352 . S
O302 C305 1.258 . S
C303 O300 1.320 . S
C303 O301 1.214 . S
O304 Cd296 2.277 . S
O304 C299 1.209 . S
C305 O302 1.258 . S
C305 O307 1.282 . S
O306 Cd298 2.277 . S
O306 C299 1.226 . S
O307 Cd298 2.356 . S
O307 C305 1.282 . S
C308 O309 1.306 . S
C308 O311 1.160 . S
O309 C308 1.306 . S
O309 Cd310 2.228 . S
Cd310 O309 2.228 . S
Cd310 O314 2.273 . S
Cd310 O318 2.277 . S
O311 C308 1.160 . S
O311 Cd312 2.203 . S
Cd312 O311 2.203 . S
Cd312 O314 2.411 . S
Cd312 O315 2.333 . S
Cd312 O316 2.352 . S
Cd312 O320 2.277 . S
Cd312 O321 2.356 . S
C313 O318 1.209 . S
C313 O320 1.226 . S
O314 Cd310 2.273 . S
O314 Cd312 2.411 . S
O314 C317 1.320 . S
O315 Cd312 2.333 . S
O315 C317 1.214 . S
O316 Cd312 2.352 . S
O316 C319 1.258 . S
C317 O314 1.320 . S
C317 O315 1.214 . S
O318 Cd310 2.277 . S
O318 C313 1.209 . S
C319 O316 1.258 . S
C319 O321 1.282 . S
O320 Cd312 2.277 . S
O320 C313 1.226 . S
O321 Cd312 2.356 . S
O321 C319 1.282 . S
C322 O323 1.306 . S
C322 O325 1.160 . S
O323 C322 1.306 . S
O323 Cd324 2.228 . S
Cd324 O323 2.228 . S
Cd324 O328 2.273 . S
Cd324 O332 2.277 . S
O325 C322 1.160 . S
O325 Cd326 2.203 . S
Cd326 O325 2.203 . S
Cd326 O328 2.411 . S
Cd326 O329 2.333 . S
Cd326 O330 2.352 . S
Cd326 O334 2.277 . S
Cd326 O335 2.356 . S
C327 O332 1.209 . S
C327 O334 1.226 . S
O328 Cd324 2.273 . S
O328 Cd326 2.411 . S
O328 C331 1.320 . S
O329 Cd326 2.333 . S
O329 C331 1.214 . S
O330 Cd326 2.352 . S
O330 C333 1.258 . S
C331 O328 1.320 . S
C331 O329 1.214 . S
O332 Cd324 2.277 . S
O332 C327 1.209 . S
C333 O330 1.258 . S
C333 O335 1.282 . S
O334 Cd326 2.277 . S
O334 C327 1.226 . S
O335 Cd326 2.356 . S
O335 C333 1.282 . S
Tb336 C345 2.764 . S
Tb336 O346 2.325 . S
Tb336 O349 2.303 . S
Tb336 O353 2.322 . S
Tb336 O354 2.349 . S
Tb336 O357 2.415 . S
Tb336 O358 2.399 . S
Tb337 O347 2.322 1_545 S
Tb337 O348 2.349 1_554 S
Tb337 O350 2.415 1_455 S
Tb337 O351 2.399 1_454 S
Tb337 O352 2.325 . S
Tb337 O355 2.303 . S
Tb337 C366 2.764 1_455 S
C338 O354 1.261 . S
C338 O355 1.257 . S
C339 C342 1.358 . S
C339 C343 1.332 . S
C339 C345 1.504 . S
C340 C341 1.373 . S
C340 C344 1.308 . S
C341 C340 1.373 . S
C341 C342 1.429 . S
C341 H368 0.932 . S
C342 C339 1.358 . S
C342 C341 1.429 . S
C342 H369 0.930 . S
C343 C339 1.332 . S
C343 C344 1.394 . S
C343 H370 0.932 . S
C344 C340 1.308 . S
C344 C343 1.394 . S
C344 H371 0.929 . S
C345 Tb336 2.764 . S
C345 C339 1.504 . S
C345 O357 1.239 . S
C345 O358 1.263 . S
O346 Tb336 2.325 . S
O346 C356 1.236 1_545 S
O347 Tb337 2.322 1_565 S
O347 C356 1.257 . S
O348 Tb337 2.349 1_556 S
O348 C359 1.261 . S
O349 Tb336 2.303 . S
O349 C359 1.257 1_554 S
O350 Tb337 2.415 1_655 S
O350 C366 1.239 . S
O351 Tb337 2.399 1_656 S
O351 C366 1.263 1_556 S
O352 Tb337 2.325 . S
O352 C367 1.236 . S
O353 Tb336 2.322 . S
O353 C367 1.257 . S
O354 Tb336 2.349 . S
O354 C338 1.261 . S
O355 Tb337 2.303 . S
O355 C338 1.257 . S
C356 O346 1.236 1_565 S
C356 O347 1.257 . S
O357 Tb336 2.415 . S
O357 C345 1.239 . S
O358 Tb336 2.399 . S
O358 C345 1.263 . S
C359 O348 1.261 . S
C359 O349 1.257 1_556 S
C360 C363 1.358 1_554 S
C360 C364 1.332 . S
C360 C366 1.504 . S
C361 C362 1.370 1_554 S
C361 C365 1.312 . S
C362 C361 1.370 1_556 S
C362 C363 1.429 . S
C362 H372 0.932 . S
C363 C360 1.358 1_556 S
C363 C362 1.429 . S
C363 H373 0.930 . S
C364 C360 1.332 . S
C364 C365 1.394 . S
C364 H374 0.932 . S
C365 C361 1.312 . S
C365 C364 1.394 . S
C365 H375 0.929 . S
C366 Tb337 2.764 1_655 S
C366 O350 1.239 . S
C366 O351 1.263 1_554 S
C366 C360 1.504 . S
C367 O352 1.236 . S
C367 O353 1.257 . S
H368 C341 0.932 . S
H369 C342 0.930 . S
H370 C343 0.932 . S
H371 C344 0.929 . S
H372 C362 0.932 . S
H373 C363 0.930 . S
H374 C364 0.932 . S
H375 C365 0.929 . S
Tb376 C385 2.764 . S
Tb376 O386 2.325 . S
Tb376 O389 2.303 . S
Tb376 O393 2.322 . S
Tb376 O394 2.349 . S
Tb376 O397 2.415 . S
Tb376 O398 2.399 . S
Tb377 O387 2.322 . S
Tb377 O388 2.349 . S
Tb377 O390 2.415 . S
Tb377 O391 2.399 . S
Tb377 O392 2.325 . S
Tb377 O395 2.303 . S
Tb377 C406 2.764 . S
C378 O394 1.261 . S
C378 O395 1.257 . S
C379 C382 1.358 . S
C379 C383 1.332 . S
C379 C385 1.504 . S
C380 C381 1.373 . S
C380 C384 1.308 . S
C381 C380 1.373 . S
C381 C382 1.429 . S
C381 H408 0.932 . S
C382 C379 1.358 . S
C382 C381 1.429 . S
C382 H409 0.930 . S
C383 C379 1.332 . S
C383 C384 1.394 . S
C383 H410 0.932 . S
C384 C380 1.308 . S
C384 C383 1.394 . S
C384 H411 0.929 . S
C385 Tb376 2.764 . S
C385 C379 1.504 . S
C385 O397 1.239 . S
C385 O398 1.263 . S
O386 Tb376 2.325 . S
O386 C396 1.236 . S
O387 Tb377 2.322 . S
O387 C396 1.257 . S
O388 Tb377 2.349 . S
O388 C399 1.261 . S
O389 Tb376 2.303 . S
O389 C399 1.257 . S
O390 Tb377 2.415 . S
O390 C406 1.239 . S
O391 Tb377 2.399 . S
O391 C406 1.263 . S
O392 Tb377 2.325 . S
O392 C407 1.236 . S
O393 Tb376 2.322 . S
O393 C407 1.257 . S
O394 Tb376 2.349 . S
O394 C378 1.261 . S
O395 Tb377 2.303 . S
O395 C378 1.257 . S
C396 O386 1.236 . S
C396 O387 1.257 . S
O397 Tb376 2.415 . S
O397 C385 1.239 . S
O398 Tb376 2.399 . S
O398 C385 1.263 . S
C399 O388 1.261 . S
C399 O389 1.257 . S
C400 C403 1.358 . S
C400 C404 1.332 . S
C400 C406 1.504 . S
C401 C402 1.373 . S
C401 C405 1.308 . S
C402 C401 1.373 . S
C402 C403 1.429 . S
C402 H412 0.932 . S
C403 C400 1.358 . S
C403 C402 1.429 . S
C403 H413 0.930 . S
C404 C400 1.332 . S
C404 C405 1.394 . S
C404 H414 0.932 . S
C405 C401 1.308 . S
C405 C404 1.394 . S
C405 H415 0.929 . S
C406 Tb377 2.764 . S
C406 O390 1.239 . S
C406 O391 1.263 . S
C406 C400 1.504 . S
C407 O392 1.236 . S
C407 O393 1.257 . S
H408 C381 0.932 . S
H409 C382 0.930 . S
H410 C383 0.932 . S
H411 C384 0.929 . S
H412 C402 0.932 . S
H413 C403 0.930 . S
H414 C404 0.932 . S
H415 C405 0.929 . S
Tb416 C425 2.764 . S
Tb416 O426 2.325 . S
Tb416 O429 2.303 . S
Tb416 O433 2.322 1_545 S
Tb416 O434 2.349 . S
Tb416 O437 2.415 . S
Tb416 O438 2.399 . S
Tb417 O427 2.322 . S
Tb417 O428 2.349 . S
Tb417 O430 2.415 . S
Tb417 O431 2.399 . S
Tb417 O432 2.325 . S
Tb417 O435 2.303 . S
Tb417 C446 2.764 . S
C418 O434 1.261 . S
C418 O435 1.257 . S
C419 C422 1.358 . S
C419 C423 1.332 . S
C419 C425 1.504 . S
C420 C421 1.373 . S
C420 C424 1.308 . S
C421 C420 1.373 . S
C421 C422 1.429 . S
C421 H448 0.932 . S
C422 C419 1.358 . S
C422 C421 1.429 . S
C422 H449 0.930 . S
C423 C419 1.332 . S
C423 C424 1.394 . S
C423 H450 0.932 . S
C424 C420 1.308 . S
C424 C423 1.394 . S
C424 H451 0.929 . S
C425 Tb416 2.764 . S
C425 C419 1.504 . S
C425 O437 1.239 . S
C425 O438 1.263 . S
O426 Tb416 2.325 . S
O426 C436 1.236 . S
O427 Tb417 2.322 . S
O427 C436 1.257 . S
O428 Tb417 2.349 . S
O428 C439 1.261 . S
O429 Tb416 2.303 . S
O429 C439 1.257 . S
O430 Tb417 2.415 . S
O430 C446 1.239 . S
O431 Tb417 2.399 . S
O431 C446 1.263 . S
O432 Tb417 2.325 . S
O432 C447 1.236 1_545 S
O433 Tb416 2.322 1_565 S
O433 C447 1.257 . S
O434 Tb416 2.349 . S
O434 C418 1.261 . S
O435 Tb417 2.303 . S
O435 C418 1.257 . S
C436 O426 1.236 . S
C436 O427 1.257 . S
O437 Tb416 2.415 . S
O437 C425 1.239 . S
O438 Tb416 2.399 . S
O438 C425 1.263 . S
C439 O428 1.261 . S
C439 O429 1.257 . S
C440 C443 1.358 . S
C440 C444 1.332 1_545 S
C440 C446 1.504 . S
C441 C442 1.373 . S
C441 C445 1.308 . S
C442 C441 1.373 . S
C442 C443 1.429 1_565 S
C442 H452 0.932 . S
C443 C440 1.358 . S
C443 C442 1.429 1_545 S
C443 H453 0.930 . S
C444 C440 1.332 1_565 S
C444 C445 1.394 . S
C444 H454 0.932 . S
C445 C441 1.308 . S
C445 C444 1.394 . S
C445 H455 0.929 . S
C446 Tb417 2.764 . S
C446 O430 1.239 . S
C446 O431 1.263 . S
C446 C440 1.504 . S
C447 O432 1.236 1_565 S
C447 O433 1.257 . S
H448 C421 0.932 . S
H449 C422 0.930 . S
H450 C423 0.932 . S
H451 C424 0.929 . S
H452 C442 0.932 . S
H453 C443 0.930 . S
H454 C444 0.932 . S
H455 C445 0.929 . S
Tb456 C465 2.764 . S
Tb456 O466 2.325 . S
Tb456 O469 2.303 . S
Tb456 O473 2.322 . S
Tb456 O474 2.349 . S
Tb456 O477 2.415 . S
Tb456 O478 2.399 . S
Tb457 O467 2.322 . S
Tb457 O468 2.349 . S
Tb457 O470 2.415 . S
Tb457 O471 2.399 . S
Tb457 O472 2.325 . S
Tb457 O475 2.303 . S
Tb457 C486 2.764 . S
C458 O474 1.261 . S
C458 O475 1.257 . S
C459 C462 1.358 . S
C459 C463 1.332 . S
C459 C465 1.504 . S
C460 C461 1.373 . S
C460 C464 1.308 . S
C461 C460 1.373 . S
C461 C462 1.429 . S
C461 H488 0.932 . S
C462 C459 1.358 . S
C462 C461 1.429 . S
C462 H489 0.930 . S
C463 C459 1.332 . S
C463 C464 1.394 . S
C463 H490 0.932 . S
C464 C460 1.308 . S
C464 C463 1.394 . S
C464 H491 0.929 . S
C465 Tb456 2.764 . S
C465 C459 1.504 . S
C465 O477 1.239 . S
C465 O478 1.263 . S
O466 Tb456 2.325 . S
O466 C476 1.236 . S
O467 Tb457 2.322 . S
O467 C476 1.257 . S
O468 Tb457 2.349 . S
O468 C479 1.261 . S
O469 Tb456 2.303 . S
O469 C479 1.257 . S
O470 Tb457 2.415 . S
O470 C486 1.239 . S
O471 Tb457 2.399 . S
O471 C486 1.263 . S
O472 Tb457 2.325 . S
O472 C487 1.236 . S
O473 Tb456 2.322 . S
O473 C487 1.257 . S
O474 Tb456 2.349 . S
O474 C458 1.261 . S
O475 Tb457 2.303 . S
O475 C458 1.257 . S
C476 O466 1.236 . S
C476 O467 1.257 . S
O477 Tb456 2.415 . S
O477 C465 1.239 . S
O478 Tb456 2.399 . S
O478 C465 1.263 . S
C479 O468 1.261 . S
C479 O469 1.257 . S
C480 C483 1.358 . S
C480 C484 1.332 . S
C480 C486 1.504 . S
C481 C482 1.373 . S
C481 C485 1.308 . S
C482 C481 1.373 . S
C482 C483 1.429 . S
C482 H492 0.932 . S
C483 C480 1.358 . S
C483 C482 1.429 . S
C483 H493 0.930 . S
C484 C480 1.332 . S
C484 C485 1.394 . S
C484 H494 0.932 . S
C485 C481 1.308 . S
C485 C484 1.394 . S
C485 H495 0.929 . S
C486 Tb457 2.764 . S
C486 O470 1.239 . S
C486 O471 1.263 . S
C486 C480 1.504 . S
C487 O472 1.236 . S
C487 O473 1.257 . S
H488 C461 0.932 . S
H489 C462 0.930 . S
H490 C463 0.932 . S
H491 C464 0.929 . S
H492 C482 0.932 . S
H493 C483 0.930 . S
H494 C484 0.932 . S
H495 C485 0.929 . S
Tb496 C505 2.764 . S
Tb496 O506 2.325 . S
Tb496 O509 2.303 . S
Tb496 O513 2.322 . S
Tb496 O514 2.349 . S
Tb496 O517 2.415 . S
Tb496 O518 2.399 . S
Tb497 O507 2.322 . S
Tb497 O508 2.349 . S
Tb497 O510 2.415 . S
Tb497 O511 2.399 . S
Tb497 O512 2.325 . S
Tb497 O515 2.303 . S
Tb497 C526 2.764 . S
C498 O514 1.262 1_655 S
C498 O515 1.247 1_655 S
C499 C502 1.358 . S
C499 C503 1.332 . S
C499 C505 1.504 . S
C500 C501 1.373 . S
C500 C504 1.308 . S
C501 C500 1.373 . S
C501 C502 1.429 . S
C501 H528 0.932 . S
C502 C499 1.358 . S
C502 C501 1.429 . S
C502 H529 0.930 . S
C503 C499 1.332 . S
C503 C504 1.394 . S
C503 H530 0.932 . S
C504 C500 1.308 . S
C504 C503 1.394 . S
C504 H531 0.929 . S
C505 Tb496 2.764 . S
C505 C499 1.504 . S
C505 O517 1.239 . S
C505 O518 1.263 . S
O506 Tb496 2.325 . S
O506 C516 1.236 . S
O507 Tb497 2.322 . S
O507 C516 1.257 . S
O508 Tb497 2.349 . S
O508 C519 1.261 . S
O509 Tb496 2.303 . S
O509 C519 1.257 . S
O510 Tb497 2.415 . S
O510 C526 1.239 . S
O511 Tb497 2.399 . S
O511 C526 1.263 . S
O512 Tb497 2.325 . S
O512 C527 1.236 . S
O513 Tb496 2.322 . S
O513 C527 1.257 . S
O514 Tb496 2.349 . S
O514 C498 1.262 1_455 S
O515 Tb497 2.303 . S
O515 C498 1.247 1_455 S
C516 O506 1.236 . S
C516 O507 1.257 . S
O517 Tb496 2.415 . S
O517 C505 1.239 . S
O518 Tb496 2.399 . S
O518 C505 1.263 . S
C519 O508 1.261 . S
C519 O509 1.257 . S
C520 C523 1.358 . S
C520 C524 1.332 1_455 S
C520 C526 1.504 . S
C521 C522 1.373 . S
C521 C525 1.308 1_455 S
C522 C521 1.373 . S
C522 C523 1.429 . S
C522 H532 0.932 . S
C523 C520 1.358 . S
C523 C522 1.429 . S
C523 H533 0.930 . S
C524 C520 1.332 1_655 S
C524 C525 1.394 . S
C524 H534 0.932 . S
C525 C521 1.308 1_655 S
C525 C524 1.394 . S
C525 H535 0.929 . S
C526 Tb497 2.764 . S
C526 O510 1.239 . S
C526 O511 1.263 . S
C526 C520 1.504 . S
C527 O512 1.236 . S
C527 O513 1.257 . S
H528 C501 0.932 . S
H529 C502 0.930 . S
H530 C503 0.932 . S
H531 C504 0.929 . S
H532 C522 0.932 . S
H533 C523 0.930 . S
H534 C524 0.932 . S
H535 C525 0.929 . S
Tb536 C545 2.764 . S
Tb536 O546 2.325 . S
Tb536 O549 2.303 . S
Tb536 O553 2.322 . S
Tb536 O554 2.349 . S
Tb536 O557 2.415 . S
Tb536 O558 2.399 . S
Tb537 O547 2.322 . S
Tb537 O548 2.349 . S
Tb537 O550 2.415 . S
Tb537 O551 2.399 . S
Tb537 O552 2.325 . S
Tb537 O555 2.303 . S
Tb537 C566 2.764 . S
C538 O554 1.261 . S
C538 O555 1.257 . S
C539 C542 1.358 . S
C539 C543 1.332 . S
C539 C545 1.504 . S
C540 C541 1.373 . S
C540 C544 1.308 . S
C541 C540 1.373 . S
C541 C542 1.429 . S
C541 H568 0.932 . S
C542 C539 1.358 . S
C542 C541 1.429 . S
C542 H569 0.930 . S
C543 C539 1.332 . S
C543 C544 1.394 . S
C543 H570 0.932 . S
C544 C540 1.308 . S
C544 C543 1.394 . S
C544 H571 0.929 . S
C545 Tb536 2.764 . S
C545 C539 1.504 . S
C545 O557 1.239 . S
C545 O558 1.263 . S
O546 Tb536 2.325 . S
O546 C556 1.236 . S
O547 Tb537 2.322 . S
O547 C556 1.257 . S
O548 Tb537 2.349 . S
O548 C559 1.261 . S
O549 Tb536 2.303 . S
O549 C559 1.257 . S
O550 Tb537 2.415 . S
O550 C566 1.239 . S
O551 Tb537 2.399 . S
O551 C566 1.263 . S
O552 Tb537 2.325 . S
O552 C567 1.236 . S
O553 Tb536 2.322 . S
O553 C567 1.257 . S
O554 Tb536 2.349 . S
O554 C538 1.261 . S
O555 Tb537 2.303 . S
O555 C538 1.257 . S
C556 O546 1.236 . S
C556 O547 1.257 . S
O557 Tb536 2.415 . S
O557 C545 1.239 . S
O558 Tb536 2.399 . S
O558 C545 1.263 . S
C559 O548 1.261 . S
C559 O549 1.257 . S
C560 C563 1.358 . S
C560 C564 1.332 . S
C560 C566 1.504 . S
C561 C562 1.373 . S
C561 C565 1.308 . S
C562 C561 1.373 . S
C562 C563 1.429 . S
C562 H572 0.932 . S
C563 C560 1.358 . S
C563 C562 1.429 . S
C563 H573 0.930 . S
C564 C560 1.332 . S
C564 C565 1.394 . S
C564 H574 0.932 . S
C565 C561 1.308 . S
C565 C564 1.394 . S
C565 H575 0.929 . S
C566 Tb537 2.764 . S
C566 O550 1.239 . S
C566 O551 1.263 . S
C566 C560 1.504 . S
C567 O552 1.236 . S
C567 O553 1.257 . S
H568 C541 0.932 . S
H569 C542 0.930 . S
H570 C543 0.932 . S
H571 C544 0.929 . S
H572 C562 0.932 . S
H573 C563 0.930 . S
H574 C564 0.932 . S
H575 C565 0.929 . S
Tb576 C585 2.764 . S
Tb576 O586 2.325 . S
Tb576 O589 2.303 . S
Tb576 O593 2.322 . S
Tb576 O594 2.349 . S
Tb576 O597 2.415 . S
Tb576 O598 2.399 . S
Tb577 O587 2.322 . S
Tb577 O588 2.349 . S
Tb577 O590 2.415 1_554 S
Tb577 O591 2.399 1_554 S
Tb577 O592 2.325 . S
Tb577 O595 2.303 . S
Tb577 C606 2.764 1_554 S
C578 O594 1.261 . S
C578 O595 1.257 . S
C579 C582 1.358 . S
C579 C583 1.332 . S
C579 C585 1.504 . S
C580 C581 1.373 . S
C580 C584 1.308 . S
C581 C580 1.373 . S
C581 C582 1.429 . S
C581 H608 0.932 . S
C582 C579 1.358 . S
C582 C581 1.429 . S
C582 H609 0.930 . S
C583 C579 1.332 . S
C583 C584 1.394 . S
C583 H610 0.932 . S
C584 C580 1.308 . S
C584 C583 1.394 . S
C584 H611 0.929 . S
C585 Tb576 2.764 . S
C585 C579 1.504 . S
C585 O597 1.239 . S
C585 O598 1.263 . S
O586 Tb576 2.325 . S
O586 C596 1.236 . S
O587 Tb577 2.322 . S
O587 C596 1.257 . S
O588 Tb577 2.349 . S
O588 C599 1.261 . S
O589 Tb576 2.303 . S
O589 C599 1.257 . S
O590 Tb577 2.415 1_556 S
O590 C606 1.239 . S
O591 Tb577 2.399 1_556 S
O591 C606 1.263 . S
O592 Tb577 2.325 . S
O592 C607 1.238 . S
O593 Tb576 2.322 . S
O593 C607 1.257 . S
O594 Tb576 2.349 . S
O594 C578 1.261 . S
O595 Tb577 2.303 . S
O595 C578 1.257 . S
C596 O586 1.236 . S
C596 O587 1.257 . S
O597 Tb576 2.415 . S
O597 C585 1.239 . S
O598 Tb576 2.399 . S
O598 C585 1.263 . S
C599 O588 1.261 . S
C599 O589 1.257 . S
C600 C603 1.358 . S
C600 C604 1.332 . S
C600 C606 1.504 . S
C601 C602 1.373 . S
C601 C605 1.308 . S
C602 C601 1.373 . S
C602 C603 1.429 . S
C602 H612 0.932 . S
C603 C600 1.358 . S
C603 C602 1.429 . S
C603 H613 0.930 . S
C604 C600 1.332 . S
C604 C605 1.394 . S
C604 H614 0.932 . S
C605 C601 1.308 . S
C605 C604 1.394 . S
C605 H615 0.929 . S
C606 Tb577 2.764 1_556 S
C606 O590 1.239 . S
C606 O591 1.263 . S
C606 C600 1.504 . S
C607 O592 1.238 . S
C607 O593 1.257 . S
H608 C581 0.932 . S
H609 C582 0.930 . S
H610 C583 0.932 . S
H611 C584 0.929 . S
H612 C602 0.932 . S
H613 C603 0.930 . S
H614 C604 0.932 . S
H615 C605 0.929 . S
Tb616 C625 2.764 . S
Tb616 O626 2.325 . S
Tb616 O629 2.303 . S
Tb616 O633 2.322 . S
Tb616 O634 2.349 . S
Tb616 O637 2.415 . S
Tb616 O638 2.399 . S
Tb617 O627 2.322 . S
Tb617 O628 2.349 . S
Tb617 O630 2.415 . S
Tb617 O631 2.399 . S
Tb617 O632 2.325 . S
Tb617 O635 2.303 . S
Tb617 C646 2.764 . S
C618 O634 1.261 . S
C618 O635 1.257 . S
C619 C622 1.358 . S
C619 C623 1.332 . S
C619 C625 1.504 . S
C620 C621 1.373 . S
C620 C624 1.308 . S
C621 C620 1.373 . S
C621 C622 1.429 . S
C621 H648 0.932 . S
C622 C619 1.358 . S
C622 C621 1.429 . S
C622 H649 0.930 . S
C623 C619 1.332 . S
C623 C624 1.394 . S
C623 H650 0.932 . S
C624 C620 1.308 . S
C624 C623 1.394 . S
C624 H651 0.929 . S
C625 Tb616 2.764 . S
C625 C619 1.504 . S
C625 O637 1.239 . S
C625 O638 1.263 . S
O626 Tb616 2.325 . S
O626 C636 1.236 . S
O627 Tb617 2.322 . S
O627 C636 1.257 . S
O628 Tb617 2.349 . S
O628 C639 1.261 . S
O629 Tb616 2.303 . S
O629 C639 1.257 . S
O630 Tb617 2.415 . S
O630 C646 1.239 . S
O631 Tb617 2.399 . S
O631 C646 1.263 . S
O632 Tb617 2.325 . S
O632 C647 1.236 . S
O633 Tb616 2.322 . S
O633 C647 1.257 . S
O634 Tb616 2.349 . S
O634 C618 1.261 . S
O635 Tb617 2.303 . S
O635 C618 1.257 . S
C636 O626 1.236 . S
C636 O627 1.257 . S
O637 Tb616 2.415 . S
O637 C625 1.239 . S
O638 Tb616 2.399 . S
O638 C625 1.263 . S
C639 O628 1.261 . S
C639 O629 1.257 . S
C640 C643 1.358 . S
C640 C644 1.332 . S
C640 C646 1.504 . S
C641 C642 1.373 . S
C641 C645 1.308 . S
C642 C641 1.373 . S
C642 C643 1.429 . S
C642 H652 0.932 . S
C643 C640 1.358 . S
C643 C642 1.429 . S
C643 H653 0.930 . S
C644 C640 1.332 . S
C644 C645 1.394 . S
C644 H654 0.932 . S
C645 C641 1.308 . S
C645 C644 1.394 . S
C645 H655 0.929 . S
C646 Tb617 2.764 . S
C646 O630 1.239 . S
C646 O631 1.263 . S
C646 C640 1.504 . S
C647 O632 1.236 . S
C647 O633 1.257 . S
H648 C621 0.932 . S
H649 C622 0.930 . S
H650 C623 0.932 . S
H651 C624 0.929 . S
H652 C642 0.932 . S
H653 C643 0.930 . S
H654 C644 0.932 . S
H655 C645 0.929 . S
Tb656 C665 2.764 . S
Tb656 O666 2.325 . S
Tb656 O669 2.303 . S
Tb656 O673 2.322 . S
Tb656 O674 2.349 . S
Tb656 O677 2.415 . S
Tb656 O678 2.399 . S
Tb657 O667 2.322 . S
Tb657 O668 2.349 . S
Tb657 O670 2.415 1_554 S
Tb657 O671 2.399 1_554 S
Tb657 O672 2.325 . S
Tb657 O675 2.303 . S
Tb657 C686 2.764 1_554 S
C658 O674 1.261 . S
C658 O675 1.257 . S
C659 C662 1.358 . S
C659 C663 1.332 . S
C659 C665 1.504 . S
C660 C661 1.373 . S
C660 C664 1.308 . S
C661 C660 1.373 . S
C661 C662 1.429 . S
C661 H688 0.932 . S
C662 C659 1.358 . S
C662 C661 1.429 . S
C662 H689 0.930 . S
C663 C659 1.332 . S
C663 C664 1.394 . S
C663 H690 0.932 . S
C664 C660 1.308 . S
C664 C663 1.394 . S
C664 H691 0.929 . S
C665 Tb656 2.764 . S
C665 C659 1.504 . S
C665 O677 1.239 . S
C665 O678 1.263 . S
O666 Tb656 2.325 . S
O666 C676 1.236 . S
O667 Tb657 2.322 . S
O667 C676 1.257 . S
O668 Tb657 2.349 . S
O668 C679 1.261 . S
O669 Tb656 2.303 . S
O669 C679 1.257 . S
O670 Tb657 2.415 1_556 S
O670 C686 1.239 . S
O671 Tb657 2.399 1_556 S
O671 C686 1.263 . S
O672 Tb657 2.325 . S
O672 C687 1.236 . S
O673 Tb656 2.322 . S
O673 C687 1.257 . S
O674 Tb656 2.349 . S
O674 C658 1.261 . S
O675 Tb657 2.303 . S
O675 C658 1.257 . S
C676 O666 1.236 . S
C676 O667 1.257 . S
O677 Tb656 2.415 . S
O677 C665 1.239 . S
O678 Tb656 2.399 . S
O678 C665 1.263 . S
C679 O668 1.261 . S
C679 O669 1.257 . S
C680 C683 1.358 . S
C680 C684 1.332 . S
C680 C686 1.504 . S
C681 C682 1.373 . S
C681 C685 1.308 . S
C682 C681 1.373 . S
C682 C683 1.429 . S
C682 H692 0.932 . S
C683 C680 1.358 . S
C683 C682 1.429 . S
C683 H693 0.930 . S
C684 C680 1.332 . S
C684 C685 1.394 . S
C684 H694 0.932 . S
C685 C681 1.308 . S
C685 C684 1.394 . S
C685 H695 0.929 . S
C686 Tb657 2.764 1_556 S
C686 O670 1.239 . S
C686 O671 1.263 . S
C686 C680 1.504 . S
C687 O672 1.236 . S
C687 O673 1.257 . S
H688 C661 0.932 . S
H689 C662 0.930 . S
H690 C663 0.932 . S
H691 C664 0.929 . S
H692 C682 0.932 . S
H693 C683 0.930 . S
H694 C684 0.932 . S
H695 C685 0.929 . S
Tb696 C705 2.764 . S
Tb696 O706 2.325 . S
Tb696 O709 2.303 . S
Tb696 O713 2.322 . S
Tb696 O714 2.349 . S
Tb696 O717 2.415 . S
Tb696 O718 2.399 . S
Tb697 O707 2.322 . S
Tb697 O708 2.349 . S
Tb697 O710 2.415 . S
Tb697 O711 2.399 . S
Tb697 O712 2.325 . S
Tb697 O715 2.303 . S
Tb697 C726 2.764 . S
C698 O714 1.261 . S
C698 O715 1.257 . S
C699 C702 1.358 . S
C699 C703 1.332 . S
C699 C705 1.504 . S
C700 C701 1.373 . S
C700 C704 1.308 . S
C701 C700 1.373 . S
C701 C702 1.429 . S
C701 H728 0.932 . S
C702 C699 1.358 . S
C702 C701 1.429 . S
C702 H729 0.930 . S
C703 C699 1.332 . S
C703 C704 1.394 . S
C703 H730 0.932 . S
C704 C700 1.308 . S
C704 C703 1.394 . S
C704 H731 0.929 . S
C705 Tb696 2.764 . S
C705 C699 1.504 . S
C705 O717 1.239 . S
C705 O718 1.263 . S
O706 Tb696 2.325 . S
O706 C716 1.236 . S
O707 Tb697 2.322 . S
O707 C716 1.257 . S
O708 Tb697 2.349 . S
O708 C719 1.261 . S
O709 Tb696 2.303 . S
O709 C719 1.257 . S
O710 Tb697 2.415 . S
O710 C726 1.239 . S
O711 Tb697 2.399 . S
O711 C726 1.263 . S
O712 Tb697 2.325 . S
O712 C727 1.236 . S
O713 Tb696 2.322 . S
O713 C727 1.257 . S
O714 Tb696 2.349 . S
O714 C698 1.261 . S
O715 Tb697 2.303 . S
O715 C698 1.257 . S
C716 O706 1.236 . S
C716 O707 1.257 . S
O717 Tb696 2.415 . S
O717 C705 1.239 . S
O718 Tb696 2.399 . S
O718 C705 1.263 . S
C719 O708 1.261 . S
C719 O709 1.257 . S
C720 C723 1.358 . S
C720 C724 1.332 . S
C720 C726 1.504 . S
C721 C722 1.373 . S
C721 C725 1.308 . S
C722 C721 1.373 . S
C722 C723 1.429 . S
C722 H732 0.932 . S
C723 C720 1.358 . S
C723 C722 1.429 . S
C723 H733 0.930 . S
C724 C720 1.332 . S
C724 C725 1.394 . S
C724 H734 0.932 . S
C725 C721 1.308 . S
C725 C724 1.394 . S
C725 H735 0.929 . S
C726 Tb697 2.764 . S
C726 O710 1.239 . S
C726 O711 1.263 . S
C726 C720 1.504 . S
C727 O712 1.236 . S
C727 O713 1.257 . S
H728 C701 0.932 . S
H729 C702 0.930 . S
H730 C703 0.932 . S
H731 C704 0.929 . S
H732 C722 0.932 . S
H733 C723 0.930 . S
H734 C724 0.932 . S
H735 C725 0.929 . S
Tb736 C745 2.764 . S
Tb736 O746 2.325 . S
Tb736 O749 2.303 . S
Tb736 O753 2.322 . S
Tb736 O754 2.349 . S
Tb736 O757 2.415 . S
Tb736 O758 2.399 . S
Tb737 O747 2.322 . S
Tb737 O748 2.349 . S
Tb737 O750 2.415 . S
Tb737 O751 2.399 . S
Tb737 O752 2.325 . S
Tb737 O755 2.303 . S
Tb737 C766 2.764 . S
C738 O754 1.261 . S
C738 O755 1.257 . S
C739 C742 1.358 . S
C739 C743 1.332 1_455 S
C739 C745 1.504 . S
C740 C741 1.373 . S
C740 C744 1.308 1_455 S
C741 C740 1.373 . S
C741 C742 1.429 . S
C741 H768 0.932 . S
C742 C739 1.358 . S
C742 C741 1.429 . S
C742 H769 0.930 . S
C743 C739 1.332 1_655 S
C743 C744 1.394 . S
C743 H770 0.932 . S
C744 C740 1.308 1_655 S
C744 C743 1.394 . S
C744 H771 0.929 . S
C745 Tb736 2.764 . S
C745 C739 1.504 . S
C745 O757 1.239 . S
C745 O758 1.263 . S
O746 Tb736 2.325 . S
O746 C756 1.236 . S
O747 Tb737 2.322 . S
O747 C756 1.257 . S
O748 Tb737 2.349 . S
O748 C759 1.261 1_455 S
O749 Tb736 2.303 . S
O749 C759 1.257 1_455 S
O750 Tb737 2.415 . S
O750 C766 1.239 . S
O751 Tb737 2.399 . S
O751 C766 1.263 . S
O752 Tb737 2.325 . S
O752 C767 1.236 . S
O753 Tb736 2.322 . S
O753 C767 1.257 . S
O754 Tb736 2.349 . S
O754 C738 1.261 . S
O755 Tb737 2.303 . S
O755 C738 1.257 . S
C756 O746 1.236 . S
C756 O747 1.257 . S
O757 Tb736 2.415 . S
O757 C745 1.239 . S
O758 Tb736 2.399 . S
O758 C745 1.263 . S
C759 O748 1.261 1_655 S
C759 O749 1.257 1_655 S
C760 C763 1.358 . S
C760 C764 1.332 . S
C760 C766 1.504 . S
C761 C762 1.373 . S
C761 C765 1.308 . S
C762 C761 1.373 . S
C762 C763 1.429 . S
C762 H772 0.932 . S
C763 C760 1.358 . S
C763 C762 1.429 . S
C763 H773 0.930 . S
C764 C760 1.332 . S
C764 C765 1.394 . S
C764 H774 0.932 . S
C765 C761 1.308 . S
C765 C764 1.394 . S
C765 H775 0.929 . S
C766 Tb737 2.764 . S
C766 O750 1.239 . S
C766 O751 1.263 . S
C766 C760 1.504 . S
C767 O752 1.236 . S
C767 O753 1.257 . S
H768 C741 0.932 . S
H769 C742 0.930 . S
H770 C743 0.932 . S
H771 C744 0.929 . S
H772 C762 0.932 . S
H773 C763 0.930 . S
H774 C764 0.932 . S
H775 C765 0.929 . S
Tb776 C785 2.764 . S
Tb776 O786 2.325 . S
Tb776 O789 2.303 . S
Tb776 O793 2.322 . S
Tb776 O794 2.349 . S
Tb776 O797 2.415 . S
Tb776 O798 2.399 . S
Tb777 O787 2.322 . S
Tb777 O788 2.349 . S
Tb777 O790 2.415 . S
Tb777 O791 2.399 . S
Tb777 O792 2.325 . S
Tb777 O795 2.303 . S
Tb777 C806 2.764 . S
C778 O794 1.261 . S
C778 O795 1.257 . S
C779 C782 1.358 . S
C779 C783 1.332 . S
C779 C785 1.504 . S
C780 C781 1.373 . S
C780 C784 1.308 . S
C781 C780 1.373 . S
C781 C782 1.429 . S
C781 H808 0.932 . S
C782 C779 1.358 . S
C782 C781 1.429 . S
C782 H809 0.930 . S
C783 C779 1.332 . S
C783 C784 1.394 . S
C783 H810 0.932 . S
C784 C780 1.308 . S
C784 C783 1.394 . S
C784 H811 0.929 . S
C785 Tb776 2.764 . S
C785 C779 1.504 . S
C785 O797 1.239 . S
C785 O798 1.263 . S
O786 Tb776 2.325 . S
O786 C796 1.236 . S
O787 Tb777 2.322 . S
O787 C796 1.257 . S
O788 Tb777 2.349 . S
O788 C799 1.261 . S
O789 Tb776 2.303 . S
O789 C799 1.257 . S
O790 Tb777 2.415 . S
O790 C806 1.239 . S
O791 Tb777 2.399 . S
O791 C806 1.263 . S
O792 Tb777 2.325 . S
O792 C807 1.236 . S
O793 Tb776 2.322 . S
O793 C807 1.257 . S
O794 Tb776 2.349 . S
O794 C778 1.261 . S
O795 Tb777 2.303 . S
O795 C778 1.257 . S
C796 O786 1.236 . S
C796 O787 1.257 . S
O797 Tb776 2.415 . S
O797 C785 1.239 . S
O798 Tb776 2.399 . S
O798 C785 1.263 . S
C799 O788 1.261 . S
C799 O789 1.257 . S
C800 C803 1.358 . S
C800 C804 1.332 . S
C800 C806 1.504 . S
C801 C802 1.373 . S
C801 C805 1.308 . S
C802 C801 1.373 . S
C802 C803 1.429 . S
C802 H812 0.932 . S
C803 C800 1.358 . S
C803 C802 1.429 . S
C803 H813 0.930 . S
C804 C800 1.332 . S
C804 C805 1.394 . S
C804 H814 0.932 . S
C805 C801 1.308 . S
C805 C804 1.394 . S
C805 H815 0.929 . S
C806 Tb777 2.764 . S
C806 O790 1.239 . S
C806 O791 1.263 . S
C806 C800 1.504 . S
C807 O792 1.236 . S
C807 O793 1.257 . S
H808 C781 0.932 . S
H809 C782 0.930 . S
H810 C783 0.932 . S
H811 C784 0.929 . S
H812 C802 0.932 . S
H813 C803 0.930 . S
H814 C804 0.932 . S
H815 C805 0.929 . S
Tb816 C825 2.764 . S
Tb816 O826 2.325 . S
Tb816 O829 2.303 . S
Tb816 O833 2.322 . S
Tb816 O834 2.349 . S
Tb816 O837 2.415 . S
Tb816 O838 2.399 . S
Tb817 O827 2.322 . S
Tb817 O828 2.349 . S
Tb817 O830 2.415 . S
Tb817 O831 2.399 . S
Tb817 O832 2.325 . S
Tb817 O835 2.303 . S
Tb817 C846 2.764 . S
C818 O834 1.261 . S
C818 O835 1.257 . S
C819 C822 1.358 . S
C819 C823 1.332 . S
C819 C825 1.504 . S
C820 C821 1.373 . S
C820 C824 1.308 . S
C821 C820 1.373 . S
C821 C822 1.429 . S
C821 H848 0.932 . S
C822 C819 1.358 . S
C822 C821 1.429 . S
C822 H849 0.930 . S
C823 C819 1.332 . S
C823 C824 1.394 . S
C823 H850 0.932 . S
C824 C820 1.308 . S
C824 C823 1.394 . S
C824 H851 0.929 . S
C825 Tb816 2.764 . S
C825 C819 1.504 . S
C825 O837 1.239 . S
C825 O838 1.263 . S
O826 Tb816 2.325 . S
O826 C836 1.236 . S
O827 Tb817 2.322 . S
O827 C836 1.257 . S
O828 Tb817 2.349 . S
O828 C839 1.261 . S
O829 Tb816 2.303 . S
O829 C839 1.257 . S
O830 Tb817 2.415 . S
O830 C846 1.239 . S
O831 Tb817 2.399 . S
O831 C846 1.263 . S
O832 Tb817 2.325 . S
O832 C847 1.236 . S
O833 Tb816 2.322 . S
O833 C847 1.257 . S
O834 Tb816 2.349 . S
O834 C818 1.261 . S
O835 Tb817 2.303 . S
O835 C818 1.257 . S
C836 O826 1.236 . S
C836 O827 1.257 . S
O837 Tb816 2.415 . S
O837 C825 1.239 . S
O838 Tb816 2.399 . S
O838 C825 1.263 . S
C839 O828 1.261 . S
C839 O829 1.257 . S
C840 C843 1.358 . S
C840 C844 1.332 . S
C840 C846 1.504 . S
C841 C842 1.373 . S
C841 C845 1.308 . S
C842 C841 1.373 . S
C842 C843 1.429 . S
C842 H852 0.932 . S
C843 C840 1.358 . S
C843 C842 1.429 . S
C843 H853 0.930 . S
C844 C840 1.332 . S
C844 C845 1.394 . S
C844 H854 0.932 . S
C845 C841 1.308 . S
C845 C844 1.394 . S
C845 H855 0.929 . S
C846 Tb817 2.764 . S
C846 O830 1.239 . S
C846 O831 1.263 . S
C846 C840 1.504 . S
C847 O832 1.236 . S
C847 O833 1.257 . S
H848 C821 0.932 . S
H849 C822 0.930 . S
H850 C823 0.932 . S
H851 C824 0.929 . S
H852 C842 0.932 . S
H853 C843 0.930 . S
H854 C844 0.932 . S
H855 C845 0.929 . S
Tb856 C865 2.764 . S
Tb856 O866 2.325 . S
Tb856 O869 2.303 . S
Tb856 O873 2.322 . S
Tb856 O874 2.349 . S
Tb856 O877 2.415 . S
Tb856 O878 2.399 . S
Tb857 O867 2.322 . S
Tb857 O868 2.349 . S
Tb857 O870 2.415 . S
Tb857 O871 2.399 . S
Tb857 O872 2.325 . S
Tb857 O875 2.303 . S
Tb857 C886 2.764 . S
C858 O874 1.261 . S
C858 O875 1.257 . S
C859 C862 1.358 . S
C859 C863 1.332 . S
C859 C865 1.504 . S
C860 C861 1.373 . S
C860 C864 1.308 . S
C861 C860 1.373 . S
C861 C862 1.429 . S
C861 H888 0.932 . S
C862 C859 1.358 . S
C862 C861 1.429 . S
C862 H889 0.930 . S
C863 C859 1.332 . S
C863 C864 1.394 . S
C863 H890 0.932 . S
C864 C860 1.308 . S
C864 C863 1.394 . S
C864 H891 0.929 . S
C865 Tb856 2.764 . S
C865 C859 1.504 . S
C865 O877 1.239 . S
C865 O878 1.263 . S
O866 Tb856 2.325 . S
O866 C876 1.236 . S
O867 Tb857 2.322 . S
O867 C876 1.257 . S
O868 Tb857 2.349 . S
O868 C879 1.261 . S
O869 Tb856 2.303 . S
O869 C879 1.257 . S
O870 Tb857 2.415 . S
O870 C886 1.239 . S
O871 Tb857 2.399 . S
O871 C886 1.263 . S
O872 Tb857 2.325 . S
O872 C887 1.236 . S
O873 Tb856 2.322 . S
O873 C887 1.257 . S
O874 Tb856 2.349 . S
O874 C858 1.261 . S
O875 Tb857 2.303 . S
O875 C858 1.257 . S
C876 O866 1.236 . S
C876 O867 1.257 . S
O877 Tb856 2.415 . S
O877 C865 1.239 . S
O878 Tb856 2.399 . S
O878 C865 1.263 . S
C879 O868 1.261 . S
C879 O869 1.257 . S
C880 C883 1.358 . S
C880 C884 1.332 . S
C880 C886 1.504 . S
C881 C882 1.373 . S
C881 C885 1.308 . S
C882 C881 1.373 . S
C882 C883 1.429 . S
C882 H892 0.932 . S
C883 C880 1.358 . S
C883 C882 1.429 . S
C883 H893 0.930 . S
C884 C880 1.332 . S
C884 C885 1.394 . S
C884 H894 0.932 . S
C885 C881 1.308 . S
C885 C884 1.394 . S
C885 H895 0.929 . S
C886 Tb857 2.764 . S
C886 O870 1.239 . S
C886 O871 1.263 . S
C886 C880 1.504 . S
C887 O872 1.236 . S
C887 O873 1.257 . S
H888 C861 0.932 . S
H889 C862 0.930 . S
H890 C863 0.932 . S
H891 C864 0.929 . S
H892 C882 0.932 . S
H893 C883 0.930 . S
H894 C884 0.932 . S
H895 C885 0.929 . S
Tb896 C905 2.764 . S
Tb896 O906 2.325 . S
Tb896 O909 2.303 . S
Tb896 O913 2.322 . S
Tb896 O914 2.349 . S
Tb896 O917 2.415 . S
Tb896 O918 2.399 . S
Tb897 O907 2.322 . S
Tb897 O908 2.349 . S
Tb897 O910 2.415 . S
Tb897 O911 2.399 . S
Tb897 O912 2.325 . S
Tb897 O915 2.303 . S
Tb897 C926 2.764 . S
C898 O914 1.261 . S
C898 O915 1.257 . S
C899 C902 1.358 . S
C899 C903 1.332 . S
C899 C905 1.504 . S
C900 C901 1.373 . S
C900 C904 1.308 . S
C901 C900 1.373 . S
C901 C902 1.429 . S
C901 H928 0.932 . S
C902 C899 1.358 . S
C902 C901 1.429 . S
C902 H929 0.930 . S
C903 C899 1.332 . S
C903 C904 1.394 . S
C903 H930 0.932 . S
C904 C900 1.308 . S
C904 C903 1.394 . S
C904 H931 0.929 . S
C905 Tb896 2.764 . S
C905 C899 1.504 . S
C905 O917 1.239 . S
C905 O918 1.263 . S
O906 Tb896 2.325 . S
O906 C916 1.236 . S
O907 Tb897 2.322 . S
O907 C916 1.257 . S
O908 Tb897 2.349 . S
O908 C919 1.261 . S
O909 Tb896 2.303 . S
O909 C919 1.257 . S
O910 Tb897 2.415 . S
O910 C926 1.239 . S
O911 Tb897 2.399 . S
O911 C926 1.263 . S
O912 Tb897 2.325 . S
O912 C927 1.236 . S
O913 Tb896 2.322 . S
O913 C927 1.257 . S
O914 Tb896 2.349 . S
O914 C898 1.261 . S
O915 Tb897 2.303 . S
O915 C898 1.257 . S
C916 O906 1.236 . S
C916 O907 1.257 . S
O917 Tb896 2.415 . S
O917 C905 1.239 . S
O918 Tb896 2.399 . S
O918 C905 1.263 . S
C919 O908 1.261 . S
C919 O909 1.257 . S
C920 C923 1.358 . S
C920 C924 1.332 . S
C920 C926 1.504 . S
C921 C922 1.373 . S
C921 C925 1.308 . S
C922 C921 1.373 . S
C922 C923 1.429 . S
C922 H932 0.932 . S
C923 C920 1.358 . S
C923 C922 1.429 . S
C923 H933 0.930 . S
C924 C920 1.332 . S
C924 C925 1.394 . S
C924 H934 0.932 . S
C925 C921 1.308 . S
C925 C924 1.394 . S
C925 H935 0.929 . S
C926 Tb897 2.764 . S
C926 O910 1.239 . S
C926 O911 1.263 . S
C926 C920 1.504 . S
C927 O912 1.236 . S
C927 O913 1.257 . S
H928 C901 0.932 . S
H929 C902 0.930 . S
H930 C903 0.932 . S
H931 C904 0.929 . S
H932 C922 0.932 . S
H933 C923 0.930 . S
H934 C924 0.932 . S
H935 C925 0.929 . S
Tb936 C945 2.764 1_455 S
Tb936 O946 2.325 . S
Tb936 O949 2.303 . S
Tb936 O953 2.322 . S
Tb936 O954 2.349 . S
Tb936 O957 2.415 1_455 S
Tb936 O958 2.399 1_455 S
Tb937 O947 2.322 . S
Tb937 O948 2.349 1_554 S
Tb937 O950 2.415 . S
Tb937 O951 2.399 . S
Tb937 O952 2.325 . S
Tb937 O955 2.303 . S
Tb937 C966 2.764 . S
C938 O954 1.261 . S
C938 O955 1.257 . S
C939 C942 1.358 . S
C939 C943 1.332 . S
C939 C945 1.504 . S
C940 C941 1.373 . S
C940 C944 1.308 . S
C941 C940 1.373 . S
C941 C942 1.429 . S
C941 H968 0.932 . S
C942 C939 1.358 . S
C942 C941 1.429 . S
C942 H969 0.930 . S
C943 C939 1.332 . S
C943 C944 1.394 . S
C943 H970 0.932 . S
C944 C940 1.308 . S
C944 C943 1.394 . S
C944 H971 0.929 . S
C945 Tb936 2.764 1_655 S
C945 C939 1.504 . S
C945 O957 1.239 . S
C945 O958 1.263 . S
O946 Tb936 2.325 . S
O946 C956 1.236 . S
O947 Tb937 2.322 . S
O947 C956 1.257 . S
O948 Tb937 2.349 1_556 S
O948 C959 1.261 . S
O949 Tb936 2.303 . S
O949 C959 1.257 1_554 S
O950 Tb937 2.415 . S
O950 C966 1.239 . S
O951 Tb937 2.399 . S
O951 C966 1.263 . S
O952 Tb937 2.325 . S
O952 C967 1.236 . S
O953 Tb936 2.322 . S
O953 C967 1.257 . S
O954 Tb936 2.349 . S
O954 C938 1.261 . S
O955 Tb937 2.303 . S
O955 C938 1.257 . S
C956 O946 1.236 . S
C956 O947 1.257 . S
O957 Tb936 2.415 1_655 S
O957 C945 1.239 . S
O958 Tb936 2.399 1_655 S
O958 C945 1.263 . S
C959 O948 1.261 . S
C959 O949 1.257 1_556 S
C960 C963 1.358 1_554 S
C960 C964 1.332 . S
C960 C966 1.504 . S
C961 C962 1.373 1_554 S
C961 C965 1.308 . S
C962 C961 1.373 1_556 S
C962 C963 1.429 . S
C962 H972 0.932 . S
C963 C960 1.358 1_556 S
C963 C962 1.429 . S
C963 H973 0.930 . S
C964 C960 1.332 . S
C964 C965 1.394 . S
C964 H974 0.932 . S
C965 C961 1.308 . S
C965 C964 1.394 . S
C965 H975 0.929 . S
C966 Tb937 2.764 . S
C966 O950 1.239 . S
C966 O951 1.263 . S
C966 C960 1.504 . S
C967 O952 1.236 . S
C967 O953 1.257 . S
H968 C941 0.932 . S
H969 C942 0.930 . S
H970 C943 0.932 . S
H971 C944 0.929 . S
H972 C962 0.932 . S
H973 C963 0.930 . S
H974 C964 0.932 . S
H975 C965 0.929 . S
C976 C977 1.387 . S
C976 H980 0.950 . S
C976 C985 1.390 . S
C977 C976 1.387 . S
C977 C979 1.387 1_556 S
H978 C985 0.950 . S
C979 C977 1.387 1_554 S
C979 C981 1.390 . S
C979 H983 0.950 . S
H980 C976 0.950 . S
C981 C979 1.390 . S
C981 C982 1.387 . S
C981 H984 0.950 . S
C982 C981 1.387 . S
C982 C985 1.387 1_554 S
H983 C979 0.950 . S
H984 C981 0.950 . S
C985 C976 1.390 . S
C985 H978 0.950 . S
C985 C982 1.387 1_556 S
C986 C987 1.387 . S
C986 H990 0.950 . S
C986 C995 1.390 . S
C987 C986 1.387 . S
C987 C989 1.387 . S
H988 C995 0.950 . S
C989 C987 1.387 . S
C989 C991 1.390 . S
C989 H993 0.950 . S
H990 C986 0.950 . S
C991 C989 1.390 . S
C991 C992 1.387 . S
C991 H994 0.950 . S
C992 C991 1.387 . S
C992 C995 1.387 . S
H993 C989 0.950 . S
H994 C991 0.950 . S
C995 C986 1.390 . S
C995 H988 0.950 . S
C995 C992 1.387 . S
C996 C997 1.387 . S
C996 H1000 0.950 . S
C996 C1005 1.390 . S
C997 C996 1.387 . S
C997 C999 1.387 . S
H998 C1005 0.950 . S
C999 C997 1.387 . S
C999 C1001 1.390 . S
C999 H1003 0.950 . S
H1000 C996 0.950 . S
C1001 C999 1.390 . S
C1001 C1002 1.387 . S
C1001 H1004 0.950 . S
C1002 C1001 1.387 . S
C1002 C1005 1.387 . S
H1003 C999 0.950 . S
H1004 C1001 0.950 . S
C1005 C996 1.390 . S
C1005 H998 0.950 . S
C1005 C1002 1.387 . S
C1006 C1007 1.387 . S
C1006 H1010 0.950 . S
C1006 C1015 1.390 . S
C1007 C1006 1.387 . S
C1007 C1009 1.387 . S
H1008 C1015 0.950 . S
C1009 C1007 1.387 . S
C1009 C1011 1.390 . S
C1009 H1013 0.950 . S
H1010 C1006 0.950 . S
C1011 C1009 1.390 . S
C1011 C1012 1.387 . S
C1011 H1014 0.950 . S
C1012 C1011 1.387 . S
C1012 C1015 1.387 . S
H1013 C1009 0.950 . S
H1014 C1011 0.950 . S
C1015 C1006 1.390 . S
C1015 H1008 0.950 . S
C1015 C1012 1.387 . S
C1016 C1017 1.387 . S
C1016 H1020 0.950 . S
C1016 C1025 1.390 . S
C1017 C1016 1.387 . S
C1017 C1019 1.387 . S
H1018 C1025 0.950 . S
C1019 C1017 1.387 . S
C1019 C1021 1.390 . S
C1019 H1023 0.950 . S
H1020 C1016 0.950 . S
C1021 C1019 1.390 . S
C1021 C1022 1.387 . S
C1021 H1024 0.950 . S
C1022 C1021 1.387 . S
C1022 C1025 1.387 . S
H1023 C1019 0.950 . S
H1024 C1021 0.950 . S
C1025 C1016 1.390 . S
C1025 H1018 0.950 . S
C1025 C1022 1.387 . S
C1026 C1027 1.387 . S
C1026 H1030 0.950 . S
C1026 C1035 1.390 . S
C1027 C1026 1.387 . S
C1027 C1029 1.387 . S
H1028 C1035 0.950 . S
C1029 C1027 1.387 . S
C1029 C1031 1.390 . S
C1029 H1033 0.950 . S
H1030 C1026 0.950 . S
C1031 C1029 1.390 . S
C1031 C1032 1.387 . S
C1031 H1034 0.950 . S
C1032 C1031 1.387 . S
C1032 C1035 1.387 . S
H1033 C1029 0.950 . S
H1034 C1031 0.950 . S
C1035 C1026 1.390 . S
C1035 H1028 0.950 . S
C1035 C1032 1.387 . S
C1036 C1037 1.387 . S
C1036 H1040 0.950 . S
C1036 C1045 1.390 . S
C1037 C1036 1.387 . S
C1037 C1039 1.387 . S
H1038 C1045 0.950 . S
C1039 C1037 1.387 . S
C1039 C1041 1.390 . S
C1039 H1043 0.950 . S
H1040 C1036 0.950 . S
C1041 C1039 1.390 . S
C1041 C1042 1.387 . S
C1041 H1044 0.950 . S
C1042 C1041 1.387 . S
C1042 C1045 1.387 . S
H1043 C1039 0.950 . S
H1044 C1041 0.950 . S
C1045 C1036 1.390 . S
C1045 H1038 0.950 . S
C1045 C1042 1.387 . S
C1046 C1047 1.387 . S
C1046 H1050 0.950 . S
C1046 C1055 1.390 . S
C1047 C1046 1.387 . S
C1047 C1049 1.387 . S
H1048 C1055 0.950 . S
C1049 C1047 1.387 . S
C1049 C1051 1.390 . S
C1049 H1053 0.950 . S
H1050 C1046 0.950 . S
C1051 C1049 1.390 . S
C1051 C1052 1.387 . S
C1051 H1054 0.950 . S
C1052 C1051 1.387 . S
C1052 C1055 1.387 . S
H1053 C1049 0.950 . S
H1054 C1051 0.950 . S
C1055 C1046 1.390 . S
C1055 H1048 0.950 . S
C1055 C1052 1.387 . S
C1056 C1057 1.381 1_565 S
C1056 H1060 0.960 . S
C1056 C1065 1.386 1_565 S
C1057 C1056 1.381 1_545 S
C1057 C1059 1.387 . S
H1058 C1065 0.950 1_455 S
C1059 C1057 1.387 . S
C1059 C1061 1.390 1_655 S
C1059 H1063 0.950 . S
H1060 C1056 0.960 . S
C1061 C1059 1.390 1_455 S
C1061 C1062 1.387 . S
C1061 H1064 0.950 . S
C1062 C1061 1.387 . S
C1062 C1065 1.387 1_455 S
H1063 C1059 0.950 . S
H1064 C1061 0.950 . S
C1065 C1056 1.386 1_545 S
C1065 H1058 0.950 1_655 S
C1065 C1062 1.387 1_655 S
C1066 C1067 1.387 . S
C1066 H1070 0.950 . S
C1066 C1075 1.390 . S
C1067 C1066 1.387 . S
C1067 C1069 1.387 . S
H1068 C1075 0.950 . S
C1069 C1067 1.387 . S
C1069 C1071 1.390 . S
C1069 H1073 0.950 . S
H1070 C1066 0.950 . S
C1071 C1069 1.390 . S
C1071 C1072 1.387 . S
C1071 H1074 0.950 . S
C1072 C1071 1.387 . S
C1072 C1075 1.387 . S
H1073 C1069 0.950 . S
H1074 C1071 0.950 . S
C1075 C1066 1.390 . S
C1075 H1068 0.950 . S
C1075 C1072 1.387 . S
C1076 C1077 1.387 . S
C1076 H1080 0.950 . S
C1076 C1085 1.390 . S
C1077 C1076 1.387 . S
C1077 C1079 1.387 . S
H1078 C1085 0.950 1_565 S
C1079 C1077 1.387 . S
C1079 C1081 1.390 . S
C1079 H1083 0.950 . S
H1080 C1076 0.950 . S
C1081 C1079 1.390 . S
C1081 C1082 1.387 . S
C1081 H1084 0.950 . S
C1082 C1081 1.387 . S
C1082 C1085 1.387 . S
H1083 C1079 0.950 . S
H1084 C1081 0.950 . S
C1085 C1076 1.390 . S
C1085 H1078 0.950 1_545 S
C1085 C1082 1.387 . S
C1086 C1087 1.387 . S
C1086 H1090 0.950 . S
C1086 C1095 1.390 . S
C1087 C1086 1.387 . S
C1087 C1089 1.387 . S
H1088 C1095 0.950 . S
C1089 C1087 1.387 . S
C1089 C1091 1.390 . S
C1089 H1093 0.950 . S
H1090 C1086 0.950 . S
C1091 C1089 1.390 . S
C1091 C1092 1.387 . S
C1091 H1094 0.950 . S
C1092 C1091 1.387 . S
C1092 C1095 1.387 . S
H1093 C1089 0.950 . S
H1094 C1091 0.950 . S
C1095 C1086 1.390 . S
C1095 H1088 0.950 . S
C1095 C1092 1.387 . S
C1096 C1097 1.387 1_565 S
C1096 H1100 0.950 . S
C1096 C1105 1.390 . S
C1097 C1096 1.387 1_545 S
C1097 C1099 1.387 . S
H1098 C1105 0.950 . S
C1099 C1097 1.387 . S
C1099 C1101 1.390 . S
C1099 H1103 0.950 . S
H1100 C1096 0.950 . S
C1101 C1099 1.390 . S
C1101 C1102 1.387 . S
C1101 H1104 0.950 . S
C1102 C1101 1.387 . S
C1102 C1105 1.387 1_545 S
H1103 C1099 0.950 . S
H1104 C1101 0.950 . S
C1105 C1096 1.390 . S
C1105 H1098 0.950 . S
C1105 C1102 1.387 1_565 S
C1106 C1107 1.387 . S
C1106 H1110 0.950 . S
C1106 C1115 1.390 . S
C1107 C1106 1.387 . S
C1107 C1109 1.387 . S
H1108 C1115 0.950 . S
C1109 C1107 1.387 . S
C1109 C1111 1.390 . S
C1109 H1113 0.950 . S
H1110 C1106 0.950 . S
C1111 C1109 1.390 . S
C1111 C1112 1.387 . S
C1111 H1114 0.950 . S
C1112 C1111 1.387 . S
C1112 C1115 1.387 . S
H1113 C1109 0.950 . S
H1114 C1111 0.950 . S
C1115 C1106 1.390 . S
C1115 H1108 0.950 . S
C1115 C1112 1.387 . S
C1116 C1117 1.387 . S
C1116 H1120 0.950 . S
C1116 C1125 1.390 . S
C1117 C1116 1.387 . S
C1117 C1119 1.387 . S
H1118 C1125 0.950 . S
C1119 C1117 1.387 . S
C1119 C1121 1.390 . S
C1119 H1123 0.950 . S
H1120 C1116 0.950 . S
C1121 C1119 1.390 . S
C1121 C1122 1.387 . S
C1121 H1124 0.950 . S
C1122 C1121 1.387 . S
C1122 C1125 1.387 . S
H1123 C1119 0.950 . S
H1124 C1121 0.950 . S
C1125 C1116 1.390 . S
C1125 H1118 0.950 . S
C1125 C1122 1.387 . S
C1126 C1127 1.387 . S
C1126 H1130 0.950 . S
C1126 C1135 1.390 . S
C1127 C1126 1.387 . S
C1127 C1129 1.387 . S
H1128 C1135 0.950 . S
C1129 C1127 1.387 . S
C1129 C1131 1.390 . S
C1129 H1133 0.950 . S
H1130 C1126 0.950 . S
C1131 C1129 1.390 . S
C1131 C1132 1.387 . S
C1131 H1134 0.950 . S
C1132 C1131 1.387 . S
C1132 C1135 1.387 . S
H1133 C1129 0.950 . S
H1134 C1131 0.950 . S
C1135 C1126 1.390 . S
C1135 H1128 0.950 . S
C1135 C1132 1.387 . S
C1136 C1137 1.387 . S
C1136 H1140 0.950 . S
C1136 C1145 1.390 . S
C1137 C1136 1.387 . S
C1137 C1139 1.387 1_565 S
H1138 C1145 0.950 . S
C1139 C1137 1.387 1_545 S
C1139 C1141 1.390 . S
C1139 H1143 0.950 . S
H1140 C1136 0.950 . S
C1141 C1139 1.390 . S
C1141 C1142 1.387 . S
C1141 H1144 0.950 . S
C1142 C1141 1.387 . S
C1142 C1145 1.387 1_545 S
H1143 C1139 0.950 . S
H1144 C1141 0.950 . S
C1145 C1136 1.390 . S
C1145 H1138 0.950 . S
C1145 C1142 1.387 1_565 S
C1146 C1147 1.387 . S
C1146 H1150 0.950 . S
C1146 C1155 1.390 . S
C1147 C1146 1.387 . S
C1147 C1149 1.387 . S
H1148 C1155 0.950 . S
C1149 C1147 1.387 . S
C1149 C1151 1.390 . S
C1149 H1153 0.950 . S
H1150 C1146 0.950 . S
C1151 C1149 1.390 . S
C1151 C1152 1.387 . S
C1151 H1154 0.950 . S
C1152 C1151 1.387 . S
C1152 C1155 1.387 . S
H1153 C1149 0.950 . S
H1154 C1151 0.950 . S
C1155 C1146 1.390 . S
C1155 H1148 0.950 . S
C1155 C1152 1.387 . S
C1156 C1157 1.387 . S
C1156 H1160 0.950 . S
C1156 C1165 1.390 . S
C1157 C1156 1.387 . S
C1157 C1159 1.387 . S
H1158 C1165 0.950 . S
C1159 C1157 1.387 . S
C1159 C1161 1.390 . S
C1159 H1163 0.950 . S
H1160 C1156 0.950 . S
C1161 C1159 1.390 . S
C1161 C1162 1.387 . S
C1161 H1164 0.950 . S
C1162 C1161 1.387 . S
C1162 C1165 1.387 . S
H1163 C1159 0.950 . S
H1164 C1161 0.950 . S
C1165 C1156 1.390 . S
C1165 H1158 0.950 . S
C1165 C1162 1.387 . S
C1166 C1167 1.387 . S
C1166 H1170 0.950 . S
C1166 C1175 1.390 . S
C1167 C1166 1.387 . S
C1167 C1169 1.387 . S
H1168 C1175 0.950 . S
C1169 C1167 1.387 . S
C1169 C1171 1.390 . S
C1169 H1173 0.950 . S
H1170 C1166 0.950 . S
C1171 C1169 1.390 . S
C1171 C1172 1.387 . S
C1171 H1174 0.950 . S
C1172 C1171 1.387 . S
C1172 C1175 1.387 . S
H1173 C1169 0.950 . S
H1174 C1171 0.950 . S
C1175 C1166 1.390 . S
C1175 H1168 0.950 . S
C1175 C1172 1.387 . S
C1176 C1177 1.387 . S
C1176 H1180 0.950 . S
C1176 C1185 1.390 . S
C1177 C1176 1.387 . S
C1177 C1179 1.387 . S
H1178 C1185 0.950 . S
C1179 C1177 1.387 . S
C1179 C1181 1.390 . S
C1179 H1183 0.950 . S
H1180 C1176 0.950 . S
C1181 C1179 1.390 . S
C1181 C1182 1.387 . S
C1181 H1184 0.950 . S
C1182 C1181 1.387 . S
C1182 C1185 1.387 . S
H1183 C1179 0.950 . S
H1184 C1181 0.950 . S
C1185 C1176 1.390 . S
C1185 H1178 0.950 . S
C1185 C1182 1.387 . S
C1186 C1187 1.387 . S
C1186 H1190 0.950 . S
C1186 C1195 1.390 . S
C1187 C1186 1.387 . S
C1187 C1189 1.387 . S
H1188 C1195 0.950 . S
C1189 C1187 1.387 . S
C1189 C1191 1.390 . S
C1189 H1193 0.950 . S
H1190 C1186 0.950 . S
C1191 C1189 1.390 . S
C1191 C1192 1.387 . S
C1191 H1194 0.950 . S
C1192 C1191 1.387 . S
C1192 C1195 1.387 . S
H1193 C1189 0.950 . S
H1194 C1191 0.950 . S
C1195 C1186 1.390 . S
C1195 H1188 0.950 . S
C1195 C1192 1.387 . S
C1196 C1197 1.387 . S
C1196 H1200 0.950 . S
C1196 C1205 1.390 . S
C1197 C1196 1.387 . S
C1197 C1199 1.387 . S
H1198 C1205 0.950 . S
C1199 C1197 1.387 . S
C1199 C1201 1.390 . S
C1199 H1203 0.950 . S
H1200 C1196 0.950 . S
C1201 C1199 1.390 . S
C1201 C1202 1.387 . S
C1201 H1204 0.950 . S
C1202 C1201 1.387 . S
C1202 C1205 1.387 . S
H1203 C1199 0.950 . S
H1204 C1201 0.950 . S
C1205 C1196 1.390 . S
C1205 H1198 0.950 . S
C1205 C1202 1.387 . S
C1206 C1207 1.387 . S
C1206 H1210 0.950 . S
C1206 C1215 1.390 . S
C1207 C1206 1.387 . S
C1207 C1209 1.387 . S
H1208 C1215 0.950 . S
C1209 C1207 1.387 . S
C1209 C1211 1.390 . S
C1209 H1213 0.950 . S
H1210 C1206 0.950 . S
C1211 C1209 1.390 . S
C1211 C1212 1.387 . S
C1211 H1214 0.950 . S
C1212 C1211 1.387 . S
C1212 C1215 1.387 . S
H1213 C1209 0.950 . S
H1214 C1211 0.950 . S
C1215 C1206 1.390 . S
C1215 H1208 0.950 . S
C1215 C1212 1.387 . S
C1216 C1217 1.387 . S
C1216 H1220 0.950 . S
C1216 C1225 1.390 . S
C1217 C1216 1.387 . S
C1217 C1219 1.387 . S
H1218 C1225 0.950 . S
C1219 C1217 1.387 . S
C1219 C1221 1.390 . S
C1219 H1223 0.950 . S
H1220 C1216 0.950 . S
C1221 C1219 1.390 . S
C1221 C1222 1.387 . S
C1221 H1224 0.950 . S
C1222 C1221 1.387 . S
C1222 C1225 1.387 . S
H1223 C1219 0.950 . S
H1224 C1221 0.950 . S
C1225 C1216 1.390 . S
C1225 H1218 0.950 . S
C1225 C1222 1.387 . S
C1226 C1227 1.387 . S
C1226 H1230 0.950 . S
C1226 C1235 1.390 . S
C1227 C1226 1.387 . S
C1227 C1229 1.387 . S
H1228 C1235 0.950 . S
C1229 C1227 1.387 . S
C1229 C1231 1.390 . S
C1229 H1233 0.950 . S
H1230 C1226 0.950 . S
C1231 C1229 1.390 . S
C1231 C1232 1.387 . S
C1231 H1234 0.950 . S
C1232 C1231 1.387 . S
C1232 C1235 1.387 . S
H1233 C1229 0.950 . S
H1234 C1231 0.950 . S
C1235 C1226 1.390 . S
C1235 H1228 0.950 . S
C1235 C1232 1.387 . S
C1236 C1237 1.387 . S
C1236 H1240 0.950 . S
C1236 C1245 1.390 . S
C1237 C1236 1.387 . S
C1237 C1239 1.387 . S
H1238 C1245 0.950 . S
C1239 C1237 1.387 . S
C1239 C1241 1.390 . S
C1239 H1243 0.950 . S
H1240 C1236 0.950 . S
C1241 C1239 1.390 . S
C1241 C1242 1.387 . S
C1241 H1244 0.950 . S
C1242 C1241 1.387 . S
C1242 C1245 1.387 . S
H1243 C1239 0.950 . S
H1244 C1241 0.950 . S
C1245 C1236 1.390 . S
C1245 H1238 0.950 . S
C1245 C1242 1.387 . S
C1246 C1247 1.387 . S
C1246 H1250 0.950 . S
C1246 C1255 1.390 . S
C1247 C1246 1.387 . S
C1247 C1249 1.387 . S
H1248 C1255 0.950 . S
C1249 C1247 1.387 . S
C1249 C1251 1.390 . S
C1249 H1253 0.950 . S
H1250 C1246 0.950 . S
C1251 C1249 1.390 . S
C1251 C1252 1.387 . S
C1251 H1254 0.950 . S
C1252 C1251 1.387 . S
C1252 C1255 1.387 . S
H1253 C1249 0.950 . S
H1254 C1251 0.950 . S
C1255 C1246 1.390 . S
C1255 H1248 0.950 . S
C1255 C1252 1.387 . S
C1256 C1257 1.387 . S
C1256 H1260 0.950 . S
C1256 C1265 1.390 . S
C1257 C1256 1.387 . S
C1257 C1259 1.387 . S
H1258 C1265 0.950 . S
C1259 C1257 1.387 . S
C1259 C1261 1.390 . S
C1259 H1263 0.950 1_455 S
H1260 C1256 0.950 . S
C1261 C1259 1.390 . S
C1261 C1262 1.387 . S
C1261 H1264 0.950 1_455 S
C1262 C1261 1.387 . S
C1262 C1265 1.387 . S
H1263 C1259 0.950 1_655 S
H1264 C1261 0.950 1_655 S
C1265 C1256 1.390 . S
C1265 H1258 0.950 . S
C1265 C1262 1.387 . S
C1266 C1267 1.387 . S
C1266 H1270 0.950 . S
C1266 C1275 1.390 . S
C1267 C1266 1.387 . S
C1267 C1269 1.387 . S
H1268 C1275 0.950 . S
C1269 C1267 1.387 . S
C1269 C1271 1.390 . S
C1269 H1273 0.950 . S
H1270 C1266 0.950 . S
C1271 C1269 1.390 . S
C1271 C1272 1.387 . S
C1271 H1274 0.950 . S
C1272 C1271 1.387 . S
C1272 C1275 1.387 . S
H1273 C1269 0.950 . S
H1274 C1271 0.950 . S
C1275 C1266 1.390 . S
C1275 H1268 0.950 . S
C1275 C1272 1.387 . S
C1276 C1277 1.387 . S
C1276 H1280 0.950 . S
C1276 C1285 1.390 . S
C1277 C1276 1.387 . S
C1277 C1279 1.387 . S
H1278 C1285 0.950 . S
C1279 C1277 1.387 . S
C1279 C1281 1.390 . S
C1279 H1283 0.950 . S
H1280 C1276 0.950 . S
C1281 C1279 1.390 . S
C1281 C1282 1.387 . S
C1281 H1284 0.950 . S
C1282 C1281 1.387 . S
C1282 C1285 1.387 . S
H1283 C1279 0.950 . S
H1284 C1281 0.950 . S
C1285 C1276 1.390 . S
C1285 H1278 0.950 . S
C1285 C1282 1.387 . S
C1286 C1287 1.387 . S
C1286 H1290 0.950 . S
C1286 C1295 1.390 . S
C1287 C1286 1.387 . S
C1287 C1289 1.387 . S
H1288 C1295 0.950 . S
C1289 C1287 1.387 . S
C1289 C1291 1.390 . S
C1289 H1293 0.950 . S
H1290 C1286 0.950 . S
C1291 C1289 1.390 . S
C1291 C1292 1.387 . S
C1291 H1294 0.950 . S
C1292 C1291 1.387 . S
C1292 C1295 1.387 . S
H1293 C1289 0.950 . S
H1294 C1291 0.950 . S
C1295 C1286 1.390 . S
C1295 H1288 0.950 . S
C1295 C1292 1.387 . S
C1296 C1297 1.387 . S
C1296 H1300 0.950 . S
C1296 C1305 1.390 . S
C1297 C1296 1.387 . S
C1297 C1299 1.387 . S
H1298 C1305 0.950 1_554 S
C1299 C1297 1.387 . S
C1299 C1301 1.390 . S
C1299 H1303 0.950 . S
H1300 C1296 0.950 . S
C1301 C1299 1.390 . S
C1301 C1302 1.387 . S
C1301 H1304 0.950 . S
C1302 C1301 1.387 . S
C1302 C1305 1.387 . S
H1303 C1299 0.950 . S
H1304 C1301 0.950 . S
C1305 C1296 1.390 . S
C1305 H1298 0.950 1_556 S
C1305 C1302 1.387 . S
C1306 C1307 1.387 . S
C1306 H1310 0.950 . S
C1306 C1315 1.390 . S
C1307 C1306 1.387 . S
C1307 C1309 1.387 . S
H1308 C1315 0.950 . S
C1309 C1307 1.387 . S
C1309 C1311 1.390 . S
C1309 H1313 0.950 . S
H1310 C1306 0.950 . S
C1311 C1309 1.390 . S
C1311 C1312 1.387 . S
C1311 H1314 0.950 . S
C1312 C1311 1.387 . S
C1312 C1315 1.387 . S
H1313 C1309 0.950 . S
H1314 C1311 0.950 . S
C1315 C1306 1.390 . S
C1315 H1308 0.950 . S
C1315 C1312 1.387 . S
C1316 C1317 1.387 . S
C1316 H1320 0.950 . S
C1316 C1325 1.390 . S
C1317 C1316 1.387 . S
C1317 C1319 1.387 . S
H1318 C1325 0.950 . S
C1319 C1317 1.387 . S
C1319 C1321 1.390 . S
C1319 H1323 0.950 1_545 S
H1320 C1316 0.950 . S
C1321 C1319 1.390 . S
C1321 C1322 1.387 . S
C1321 H1324 0.950 . S
C1322 C1321 1.387 . S
C1322 C1325 1.387 . S
H1323 C1319 0.950 1_565 S
H1324 C1321 0.950 . S
C1325 C1316 1.390 . S
C1325 H1318 0.950 . S
C1325 C1322 1.387 . S
C1326 C1327 1.387 . S
C1326 H1330 0.950 . S
C1326 C1335 1.390 . S
C1327 C1326 1.387 . S
C1327 C1329 1.387 . S
H1328 C1335 0.950 . S
C1329 C1327 1.387 . S
C1329 C1331 1.390 . S
C1329 H1333 0.950 . S
H1330 C1326 0.950 . S
C1331 C1329 1.390 . S
C1331 C1332 1.387 . S
C1331 H1334 0.950 . S
C1332 C1331 1.387 . S
C1332 C1335 1.387 . S
H1333 C1329 0.950 . S
H1334 C1331 0.950 . S
C1335 C1326 1.390 . S
C1335 H1328 0.950 . S
C1335 C1332 1.387 . S
C1336 C1337 1.387 . S
C1336 H1340 0.950 . S
C1336 C1345 1.390 . S
C1337 C1336 1.387 . S
C1337 C1339 1.387 . S
H1338 C1345 0.950 . S
C1339 C1337 1.387 . S
C1339 C1341 1.390 . S
C1339 H1343 0.950 . S
H1340 C1336 0.950 . S
C1341 C1339 1.390 . S
C1341 C1342 1.387 . S
C1341 H1344 0.950 . S
C1342 C1341 1.387 . S
C1342 C1345 1.387 . S
H1343 C1339 0.950 . S
H1344 C1341 0.950 . S
C1345 C1336 1.390 . S
C1345 H1338 0.950 . S
C1345 C1342 1.387 . S
C1346 C1347 1.387 . S
C1346 H1350 0.950 . S
C1346 C1355 1.390 . S
C1347 C1346 1.387 . S
C1347 C1349 1.387 . S
H1348 C1355 0.950 . S
C1349 C1347 1.387 . S
C1349 C1351 1.390 . S
C1349 H1353 0.950 . S
H1350 C1346 0.950 . S
C1351 C1349 1.390 . S
C1351 C1352 1.387 . S
C1351 H1354 0.950 . S
C1352 C1351 1.387 . S
C1352 C1355 1.387 . S
H1353 C1349 0.950 . S
H1354 C1351 0.950 . S
C1355 C1346 1.390 . S
C1355 H1348 0.950 . S
C1355 C1352 1.387 . S
C1356 C1357 1.387 . S
C1356 H1360 0.950 1_545 S
C1356 C1365 1.390 . S
C1357 C1356 1.387 . S
C1357 C1359 1.387 . S
H1358 C1365 0.950 1_565 S
C1359 C1357 1.387 . S
C1359 C1361 1.390 . S
C1359 H1363 0.950 . S
H1360 C1356 0.950 1_565 S
C1361 C1359 1.390 . S
C1361 C1362 1.387 . S
C1361 H1364 0.950 . S
C1362 C1361 1.387 . S
C1362 C1365 1.387 . S
H1363 C1359 0.950 . S
H1364 C1361 0.950 . S
C1365 C1356 1.390 . S
C1365 H1358 0.950 1_545 S
C1365 C1362 1.387 . S
C1366 C1367 1.387 . S
C1366 H1370 0.950 . S
C1366 C1375 1.390 . S
C1367 C1366 1.387 . S
C1367 C1369 1.387 . S
H1368 C1375 0.950 . S
C1369 C1367 1.387 . S
C1369 C1371 1.390 . S
C1369 H1373 0.950 . S
H1370 C1366 0.950 . S
C1371 C1369 1.390 . S
C1371 C1372 1.387 . S
C1371 H1374 0.950 . S
C1372 C1371 1.387 . S
C1372 C1375 1.387 . S
H1373 C1369 0.950 . S
H1374 C1371 0.950 . S
C1375 C1366 1.390 . S
C1375 H1368 0.950 . S
C1375 C1372 1.387 . S
C1376 C1377 1.387 . S
C1376 H1380 0.950 . S
C1376 C1385 1.390 . S
C1377 C1376 1.387 . S
C1377 C1379 1.387 . S
H1378 C1385 0.950 . S
C1379 C1377 1.387 . S
C1379 C1381 1.390 . S
C1379 H1383 0.950 . S
H1380 C1376 0.950 . S
C1381 C1379 1.390 . S
C1381 C1382 1.387 . S
C1381 H1384 0.950 . S
C1382 C1381 1.387 . S
C1382 C1385 1.387 . S
H1383 C1379 0.950 . S
H1384 C1381 0.950 . S
C1385 C1376 1.390 . S
C1385 H1378 0.950 . S
C1385 C1382 1.387 . S
C1386 C1387 1.387 . S
C1386 H1390 0.950 . S
C1386 C1395 1.390 . S
C1387 C1386 1.387 . S
C1387 C1389 1.387 . S
H1388 C1395 0.950 . S
C1389 C1387 1.387 . S
C1389 C1391 1.390 . S
C1389 H1393 0.950 . S
H1390 C1386 0.950 . S
C1391 C1389 1.390 . S
C1391 C1392 1.387 . S
C1391 H1394 0.950 . S
C1392 C1391 1.387 . S
C1392 C1395 1.387 . S
H1393 C1389 0.950 . S
H1394 C1391 0.950 . S
C1395 C1386 1.390 . S
C1395 H1388 0.950 . S
C1395 C1392 1.387 . S
C1396 C1397 1.387 . S
C1396 H1400 0.950 . S
C1396 C1405 1.390 . S
C1397 C1396 1.387 . S
C1397 C1399 1.387 . S
H1398 C1405 0.950 . S
C1399 C1397 1.387 . S
C1399 C1401 1.390 . S
C1399 H1403 0.950 . S
H1400 C1396 0.950 . S
C1401 C1399 1.390 . S
C1401 C1402 1.387 . S
C1401 H1404 0.950 . S
C1402 C1401 1.387 . S
C1402 C1405 1.387 . S
H1403 C1399 0.950 . S
H1404 C1401 0.950 . S
C1405 C1396 1.390 . S
C1405 H1398 0.950 . S
C1405 C1402 1.387 . S
C1406 C1407 1.387 . S
C1406 H1410 0.950 . S
C1406 C1415 1.390 . S
C1407 C1406 1.387 . S
C1407 C1409 1.387 . S
H1408 C1415 0.950 . S
C1409 C1407 1.387 . S
C1409 C1411 1.390 . S
C1409 H1413 0.950 . S
H1410 C1406 0.950 . S
C1411 C1409 1.390 . S
C1411 C1412 1.387 . S
C1411 H1414 0.950 . S
C1412 C1411 1.387 . S
C1412 C1415 1.387 . S
H1413 C1409 0.950 . S
H1414 C1411 0.950 . S
C1415 C1406 1.390 . S
C1415 H1408 0.950 . S
C1415 C1412 1.387 . S
C1416 C1417 1.387 . S
C1416 H1420 0.950 . S
C1416 C1425 1.390 . S
C1417 C1416 1.387 . S
C1417 C1419 1.387 1_565 S
H1418 C1425 0.950 . S
C1419 C1417 1.387 1_545 S
C1419 C1421 1.390 . S
C1419 H1423 0.950 . S
H1420 C1416 0.950 . S
C1421 C1419 1.390 . S
C1421 C1422 1.387 1_545 S
C1421 H1424 0.950 . S
C1422 C1421 1.387 1_565 S
C1422 C1425 1.387 . S
H1423 C1419 0.950 . S
H1424 C1421 0.950 . S
C1425 C1416 1.390 . S
C1425 H1418 0.950 . S
C1425 C1422 1.387 . S
C1426 C1427 1.387 . S
C1426 H1430 0.950 . S
C1426 C1435 1.390 . S
C1427 C1426 1.387 . S
C1427 C1429 1.387 . S
H1428 C1435 0.950 . S
C1429 C1427 1.387 . S
C1429 C1431 1.390 . S
C1429 H1433 0.950 . S
H1430 C1426 0.950 . S
C1431 C1429 1.390 . S
C1431 C1432 1.387 . S
C1431 H1434 0.950 . S
C1432 C1431 1.387 . S
C1432 C1435 1.387 . S
H1433 C1429 0.950 . S
H1434 C1431 0.950 . S
C1435 C1426 1.390 . S
C1435 H1428 0.950 . S
C1435 C1432 1.387 . S
C1436 C1437 1.387 . S
C1436 H1440 0.950 . S
C1436 C1445 1.390 . S
C1437 C1436 1.387 . S
C1437 C1439 1.387 . S
H1438 C1445 0.950 . S
C1439 C1437 1.387 . S
C1439 C1441 1.390 . S
C1439 H1443 0.950 . S
H1440 C1436 0.950 . S
C1441 C1439 1.390 . S
C1441 C1442 1.387 . S
C1441 H1444 0.950 . S
C1442 C1441 1.387 . S
C1442 C1445 1.387 . S
H1443 C1439 0.950 . S
H1444 C1441 0.950 . S
C1445 C1436 1.390 . S
C1445 H1438 0.950 . S
C1445 C1442 1.387 . S
C1446 C1447 1.387 . S
C1446 H1450 0.950 . S
C1446 C1455 1.390 . S
C1447 C1446 1.387 . S
C1447 C1449 1.387 . S
H1448 C1455 0.950 . S
C1449 C1447 1.387 . S
C1449 C1451 1.390 . S
C1449 H1453 0.950 . S
H1450 C1446 0.950 . S
C1451 C1449 1.390 . S
C1451 C1452 1.387 . S
C1451 H1454 0.950 . S
C1452 C1451 1.387 . S
C1452 C1455 1.387 . S
H1453 C1449 0.950 . S
H1454 C1451 0.950 . S
C1455 C1446 1.390 . S
C1455 H1448 0.950 . S
C1455 C1452 1.387 . S
C1456 C1457 1.387 . S
C1456 H1460 0.950 . S
C1456 C1465 1.390 . S
C1457 C1456 1.387 . S
C1457 C1459 1.387 . S
H1458 C1465 0.950 . S
C1459 C1457 1.387 . S
C1459 C1461 1.390 . S
C1459 H1463 0.950 . S
H1460 C1456 0.950 . S
C1461 C1459 1.390 . S
C1461 C1462 1.387 . S
C1461 H1464 0.950 . S
C1462 C1461 1.387 . S
C1462 C1465 1.387 . S
H1463 C1459 0.950 . S
H1464 C1461 0.950 . S
C1465 C1456 1.390 . S
C1465 H1458 0.950 . S
C1465 C1462 1.387 . S
C1466 C1467 1.387 . S
C1466 H1470 0.950 . S
C1466 C1475 1.390 . S
C1467 C1466 1.387 . S
C1467 C1469 1.387 . S
H1468 C1475 0.950 . S
C1469 C1467 1.387 . S
C1469 C1471 1.390 . S
C1469 H1473 0.950 . S
H1470 C1466 0.950 . S
C1471 C1469 1.390 . S
C1471 C1472 1.387 . S
C1471 H1474 0.950 . S
C1472 C1471 1.387 . S
C1472 C1475 1.387 . S
H1473 C1469 0.950 . S
H1474 C1471 0.950 . S
C1475 C1466 1.390 . S
C1475 H1468 0.950 . S
C1475 C1472 1.387 . S
C1476 C1477 1.387 . S
C1476 H1480 0.950 . S
C1476 C1485 1.390 1_556 S
C1477 C1476 1.387 . S
C1477 C1479 1.387 1_456 S
H1478 C1485 0.950 . S
C1479 C1477 1.387 1_654 S
C1479 C1481 1.390 1_655 S
C1479 H1483 0.950 . S
H1480 C1476 0.950 . S
C1481 C1479 1.390 1_455 S
C1481 C1482 1.387 . S
C1481 H1484 0.950 1_455 S
C1482 C1481 1.387 . S
C1482 C1485 1.387 . S
H1483 C1479 0.950 . S
H1484 C1481 0.950 1_655 S
C1485 C1476 1.390 1_554 S
C1485 H1478 0.950 . S
C1485 C1482 1.387 . S
C1486 C1487 1.387 . S
C1486 H1490 0.950 . S
C1486 C1495 1.390 1_455 S
C1487 C1486 1.387 . S
C1487 C1489 1.387 . S
H1488 C1495 0.950 . S
C1489 C1487 1.387 . S
C1489 C1491 1.390 1_455 S
C1489 H1493 0.950 . S
H1490 C1486 0.950 . S
C1491 C1489 1.390 1_655 S
C1491 C1492 1.387 . S
C1491 H1494 0.950 . S
C1492 C1491 1.387 . S
C1492 C1495 1.387 . S
H1493 C1489 0.950 . S
H1494 C1491 0.950 . S
C1495 C1486 1.390 1_655 S
C1495 H1488 0.950 . S
C1495 C1492 1.387 . S
C1496 C1497 1.387 . S
C1496 H1500 0.950 . S
C1496 C1505 1.390 . S
C1497 C1496 1.387 . S
C1497 C1499 1.387 . S
H1498 C1505 0.950 . S
C1499 C1497 1.387 . S
C1499 C1501 1.390 . S
C1499 H1503 0.950 . S
H1500 C1496 0.950 . S
C1501 C1499 1.390 . S
C1501 C1502 1.387 . S
C1501 H1504 0.950 . S
C1502 C1501 1.387 . S
C1502 C1505 1.387 . S
H1503 C1499 0.950 . S
H1504 C1501 0.950 . S
C1505 C1496 1.390 . S
C1505 H1498 0.950 . S
C1505 C1502 1.387 . S
C1506 C1507 1.387 . S
C1506 H1510 0.950 . S
C1506 C1515 1.390 . S
C1507 C1506 1.387 . S
C1507 C1509 1.387 . S
H1508 C1515 0.950 . S
C1509 C1507 1.387 . S
C1509 C1511 1.390 . S
C1509 H1513 0.950 . S
H1510 C1506 0.950 . S
C1511 C1509 1.390 . S
C1511 C1512 1.387 . S
C1511 H1514 0.950 . S
C1512 C1511 1.387 . S
C1512 C1515 1.387 . S
H1513 C1509 0.950 . S
H1514 C1511 0.950 . S
C1515 C1506 1.390 . S
C1515 H1508 0.950 . S
C1515 C1512 1.387 . S
C1516 C1517 1.387 . S
C1516 H1520 0.950 . S
C1516 C1525 1.390 . S
C1517 C1516 1.387 . S
C1517 C1519 1.387 . S
H1518 C1525 0.950 . S
C1519 C1517 1.387 . S
C1519 C1521 1.390 . S
C1519 H1523 0.950 . S
H1520 C1516 0.950 . S
C1521 C1519 1.390 . S
C1521 C1522 1.387 . S
C1521 H1524 0.950 . S
C1522 C1521 1.387 . S
C1522 C1525 1.387 . S
H1523 C1519 0.950 . S
H1524 C1521 0.950 . S
C1525 C1516 1.390 . S
C1525 H1518 0.950 . S
C1525 C1522 1.387 . S
C1526 C1527 1.387 . S
C1526 H1530 0.950 . S
C1526 C1535 1.390 . S
C1527 C1526 1.387 . S
C1527 C1529 1.387 . S
H1528 C1535 0.950 . S
C1529 C1527 1.387 . S
C1529 C1531 1.390 . S
C1529 H1533 0.950 . S
H1530 C1526 0.950 . S
C1531 C1529 1.390 . S
C1531 C1532 1.387 . S
C1531 H1534 0.950 . S
C1532 C1531 1.387 . S
C1532 C1535 1.387 . S
H1533 C1529 0.950 . S
H1534 C1531 0.950 . S
C1535 C1526 1.390 . S
C1535 H1528 0.950 . S
C1535 C1532 1.387 . S
C1536 C1537 1.387 . S
C1536 H1540 0.950 . S
C1536 C1545 1.390 . S
C1537 C1536 1.387 . S
C1537 C1539 1.387 . S
H1538 C1545 0.950 . S
C1539 C1537 1.387 . S
C1539 C1541 1.390 . S
C1539 H1543 0.950 . S
H1540 C1536 0.950 . S
C1541 C1539 1.390 . S
C1541 C1542 1.387 . S
C1541 H1544 0.950 . S
C1542 C1541 1.387 . S
C1542 C1545 1.387 . S
H1543 C1539 0.950 . S
H1544 C1541 0.950 . S
C1545 C1536 1.390 . S
C1545 H1538 0.950 . S
C1545 C1542 1.387 . S
C1546 C1547 1.387 1_556 S
C1546 H1550 0.950 . S
C1546 C1555 1.390 . S
C1547 C1546 1.387 1_554 S
C1547 C1549 1.387 . S
H1548 C1555 0.950 . S
C1549 C1547 1.387 . S
C1549 C1551 1.390 1_554 S
C1549 H1553 0.950 . S
H1550 C1546 0.950 . S
C1551 C1549 1.390 1_556 S
C1551 C1552 1.387 . S
C1551 H1554 0.950 . S
C1552 C1551 1.387 . S
C1552 C1555 1.387 . S
H1553 C1549 0.950 . S
H1554 C1551 0.950 . S
C1555 C1546 1.390 . S
C1555 H1548 0.950 . S
C1555 C1552 1.387 . S
C1556 C1557 1.387 . S
C1556 H1560 0.950 . S
C1556 C1565 1.390 . S
C1557 C1556 1.387 . S
C1557 C1559 1.387 . S
H1558 C1565 0.950 . S
C1559 C1557 1.387 . S
C1559 C1561 1.390 . S
C1559 H1563 0.950 . S
H1560 C1556 0.950 . S
C1561 C1559 1.390 . S
C1561 C1562 1.387 . S
C1561 H1564 0.950 . S
C1562 C1561 1.387 . S
C1562 C1565 1.387 . S
H1563 C1559 0.950 . S
H1564 C1561 0.950 . S
C1565 C1556 1.390 . S
C1565 H1558 0.950 . S
C1565 C1562 1.387 . S
C1566 C1567 1.387 . S
C1566 H1570 0.950 . S
C1566 C1575 1.390 . S
C1567 C1566 1.387 . S
C1567 C1569 1.387 . S
H1568 C1575 0.950 . S
C1569 C1567 1.387 . S
C1569 C1571 1.390 . S
C1569 H1573 0.950 . S
H1570 C1566 0.950 . S
C1571 C1569 1.390 . S
C1571 C1572 1.387 . S
C1571 H1574 0.950 . S
C1572 C1571 1.387 . S
C1572 C1575 1.387 . S
H1573 C1569 0.950 . S
H1574 C1571 0.950 . S
C1575 C1566 1.390 . S
C1575 H1568 0.950 . S
C1575 C1572 1.387 . S
C1576 C1577 1.387 . S
C1576 H1580 0.950 . S
C1576 C1585 1.390 . S
C1577 C1576 1.387 . S
C1577 C1579 1.387 . S
H1578 C1585 0.950 . S
C1579 C1577 1.387 . S
C1579 C1581 1.390 . S
C1579 H1583 0.950 . S
H1580 C1576 0.950 . S
C1581 C1579 1.390 . S
C1581 C1582 1.387 . S
C1581 H1584 0.950 . S
C1582 C1581 1.387 . S
C1582 C1585 1.387 . S
H1583 C1579 0.950 . S
H1584 C1581 0.950 . S
C1585 C1576 1.390 . S
C1585 H1578 0.950 . S
C1585 C1582 1.387 . S
C1586 C1587 1.387 . S
C1586 H1590 0.950 . S
C1586 C1595 1.390 . S
C1587 C1586 1.387 . S
C1587 C1589 1.387 . S
H1588 C1595 0.950 . S
C1589 C1587 1.387 . S
C1589 C1591 1.390 . S
C1589 H1593 0.950 . S
H1590 C1586 0.950 . S
C1591 C1589 1.390 . S
C1591 C1592 1.387 . S
C1591 H1594 0.950 . S
C1592 C1591 1.387 . S
C1592 C1595 1.387 . S
H1593 C1589 0.950 . S
H1594 C1591 0.950 . S
C1595 C1586 1.390 . S
C1595 H1588 0.950 . S
C1595 C1592 1.387 . S
C1596 C1597 1.387 . S
C1596 H1600 0.950 . S
C1596 C1605 1.390 . S
C1597 C1596 1.387 . S
C1597 C1599 1.387 . S
H1598 C1605 0.950 . S
C1599 C1597 1.387 . S
C1599 C1601 1.390 . S
C1599 H1603 0.950 . S
H1600 C1596 0.950 . S
C1601 C1599 1.390 . S
C1601 C1602 1.387 . S
C1601 H1604 0.950 . S
C1602 C1601 1.387 . S
C1602 C1605 1.387 . S
H1603 C1599 0.950 . S
H1604 C1601 0.950 . S
C1605 C1596 1.390 . S
C1605 H1598 0.950 . S
C1605 C1602 1.387 . S
C1606 C1607 1.387 . S
C1606 H1610 0.950 . S
C1606 C1615 1.390 . S
C1607 C1606 1.387 . S
C1607 C1609 1.387 . S
H1608 C1615 0.950 . S
C1609 C1607 1.387 . S
C1609 C1611 1.390 . S
C1609 H1613 0.950 . S
H1610 C1606 0.950 . S
C1611 C1609 1.390 . S
C1611 C1612 1.387 . S
C1611 H1614 0.950 . S
C1612 C1611 1.387 . S
C1612 C1615 1.387 . S
H1613 C1609 0.950 . S
H1614 C1611 0.950 . S
C1615 C1606 1.390 . S
C1615 H1608 0.950 . S
C1615 C1612 1.387 . S
C1616 C1617 1.387 . S
C1616 H1620 0.950 . S
C1616 C1625 1.390 . S
C1617 C1616 1.387 . S
C1617 C1619 1.387 . S
H1618 C1625 0.950 . S
C1619 C1617 1.387 . S
C1619 C1621 1.390 . S
C1619 H1623 0.950 . S
H1620 C1616 0.950 . S
C1621 C1619 1.390 . S
C1621 C1622 1.387 . S
C1621 H1624 0.950 . S
C1622 C1621 1.387 . S
C1622 C1625 1.387 . S
H1623 C1619 0.950 . S
H1624 C1621 0.950 . S
C1625 C1616 1.390 . S
C1625 H1618 0.950 . S
C1625 C1622 1.387 . S
C1626 C1627 1.387 . S
C1626 H1630 0.950 . S
C1626 C1635 1.390 . S
C1627 C1626 1.387 . S
C1627 C1629 1.387 . S
H1628 C1635 0.950 . S
C1629 C1627 1.387 . S
C1629 C1631 1.390 . S
C1629 H1633 0.950 . S
H1630 C1626 0.950 . S
C1631 C1629 1.390 . S
C1631 C1632 1.387 . S
C1631 H1634 0.950 . S
C1632 C1631 1.387 . S
C1632 C1635 1.387 . S
H1633 C1629 0.950 . S
H1634 C1631 0.950 . S
C1635 C1626 1.390 . S
C1635 H1628 0.950 . S
C1635 C1632 1.387 . S
C1636 C1637 1.387 . S
C1636 H1640 0.950 . S
C1636 C1645 1.390 . S
C1637 C1636 1.387 . S
C1637 C1639 1.387 1_545 S
H1638 C1645 0.950 . S
C1639 C1637 1.387 1_565 S
C1639 C1641 1.390 . S
C1639 H1643 0.950 . S
H1640 C1636 0.950 . S
C1641 C1639 1.390 . S
C1641 C1642 1.387 1_565 S
C1641 H1644 0.950 . S
C1642 C1641 1.387 1_545 S
C1642 C1645 1.387 . S
H1643 C1639 0.950 . S
H1644 C1641 0.950 . S
C1645 C1636 1.390 . S
C1645 H1638 0.950 . S
C1645 C1642 1.387 . S
C1646 C1647 1.387 . S
C1646 H1650 0.950 . S
C1646 C1655 1.390 1_565 S
C1647 C1646 1.387 . S
C1647 C1649 1.387 1_564 S
H1648 C1655 0.933 1_565 S
C1649 C1647 1.387 1_546 S
C1649 C1651 1.390 1_556 S
C1649 H1653 0.950 . S
H1650 C1646 0.950 . S
C1651 C1649 1.390 1_554 S
C1651 C1652 1.387 . S
C1651 H1654 0.950 1_554 S
C1652 C1651 1.387 . S
C1652 C1655 1.387 . S
H1653 C1649 0.950 . S
H1654 C1651 0.950 1_556 S
C1655 C1646 1.390 1_545 S
C1655 H1648 0.933 1_545 S
C1655 C1652 1.387 . S
C1656 C1657 1.387 . S
C1656 H1660 0.950 . S
C1656 C1665 1.390 . S
C1657 C1656 1.387 . S
C1657 C1659 1.387 . S
H1658 C1665 0.950 . S
C1659 C1657 1.387 . S
C1659 C1661 1.390 . S
C1659 H1663 0.950 . S
H1660 C1656 0.950 . S
C1661 C1659 1.390 . S
C1661 C1662 1.387 . S
C1661 H1664 0.950 . S
C1662 C1661 1.387 . S
C1662 C1665 1.387 . S
H1663 C1659 0.950 . S
H1664 C1661 0.950 . S
C1665 C1656 1.390 . S
C1665 H1658 0.950 . S
C1665 C1662 1.387 . S
C1666 C1667 1.387 . S
C1666 H1670 0.950 . S
C1666 C1675 1.390 . S
C1667 C1666 1.387 . S
C1667 C1669 1.387 . S
H1668 C1675 0.950 . S
C1669 C1667 1.387 . S
C1669 C1671 1.390 . S
C1669 H1673 0.950 . S
H1670 C1666 0.950 . S
C1671 C1669 1.390 . S
C1671 C1672 1.387 . S
C1671 H1674 0.950 . S
C1672 C1671 1.387 . S
C1672 C1675 1.387 . S
H1673 C1669 0.950 . S
H1674 C1671 0.950 . S
C1675 C1666 1.390 . S
C1675 H1668 0.950 . S
C1675 C1672 1.387 . S
C1676 C1677 1.387 . S
C1676 H1680 0.950 . S
C1676 C1685 1.390 . S
C1677 C1676 1.387 . S
C1677 C1679 1.387 . S
H1678 C1685 0.950 . S
C1679 C1677 1.387 . S
C1679 C1681 1.390 . S
C1679 H1683 0.950 . S
H1680 C1676 0.950 . S
C1681 C1679 1.390 . S
C1681 C1682 1.387 . S
C1681 H1684 0.950 . S
C1682 C1681 1.387 . S
C1682 C1685 1.387 . S
H1683 C1679 0.950 . S
H1684 C1681 0.950 . S
C1685 C1676 1.390 . S
C1685 H1678 0.950 . S
C1685 C1682 1.387 . S
C1686 C1687 1.387 . S
C1686 H1690 0.950 . S
C1686 C1695 1.390 . S
C1687 C1686 1.387 . S
C1687 C1689 1.387 . S
H1688 C1695 0.950 . S
C1689 C1687 1.387 . S
C1689 C1691 1.390 . S
C1689 H1693 0.950 . S
H1690 C1686 0.950 . S
C1691 C1689 1.390 . S
C1691 C1692 1.387 . S
C1691 H1694 0.950 . S
C1692 C1691 1.387 . S
C1692 C1695 1.387 . S
H1693 C1689 0.950 . S
H1694 C1691 0.950 . S
C1695 C1686 1.390 . S
C1695 H1688 0.950 . S
C1695 C1692 1.387 . S
C1696 C1697 1.387 . S
C1696 H1700 0.950 . S
C1696 C1705 1.390 . S
C1697 C1696 1.387 . S
C1697 C1699 1.387 . S
H1698 C1705 0.950 . S
C1699 C1697 1.387 . S
C1699 C1701 1.390 . S
C1699 H1703 0.950 . S
H1700 C1696 0.950 . S
C1701 C1699 1.390 . S
C1701 C1702 1.387 . S
C1701 H1704 0.950 . S
C1702 C1701 1.387 . S
C1702 C1705 1.387 . S
H1703 C1699 0.950 . S
H1704 C1701 0.950 . S
C1705 C1696 1.390 . S
C1705 H1698 0.950 . S
C1705 C1702 1.387 . S
C1706 C1707 1.387 . S
C1706 H1710 0.950 . S
C1706 C1715 1.390 . S
C1707 C1706 1.387 . S
C1707 C1709 1.387 . S
H1708 C1715 0.950 . S
C1709 C1707 1.387 . S
C1709 C1711 1.390 . S
C1709 H1713 0.950 . S
H1710 C1706 0.950 . S
C1711 C1709 1.390 . S
C1711 C1712 1.387 . S
C1711 H1714 0.950 . S
C1712 C1711 1.387 . S
C1712 C1715 1.387 . S
H1713 C1709 0.950 . S
H1714 C1711 0.950 . S
C1715 C1706 1.390 . S
C1715 H1708 0.950 . S
C1715 C1712 1.387 . S
C1716 C1717 1.387 . S
C1716 H1720 0.950 . S
C1716 C1725 1.390 . S
C1717 C1716 1.387 . S
C1717 C1719 1.387 . S
H1718 C1725 0.950 . S
C1719 C1717 1.387 . S
C1719 C1721 1.390 . S
C1719 H1723 0.950 . S
H1720 C1716 0.950 . S
C1721 C1719 1.390 . S
C1721 C1722 1.387 . S
C1721 H1724 0.950 . S
C1722 C1721 1.387 . S
C1722 C1725 1.387 . S
H1723 C1719 0.950 . S
H1724 C1721 0.950 . S
C1725 C1716 1.390 . S
C1725 H1718 0.950 . S
C1725 C1722 1.387 . S
C1726 C1727 1.387 . S
C1726 H1730 0.950 . S
C1726 C1735 1.390 . S
C1727 C1726 1.387 . S
C1727 C1729 1.387 . S
H1728 C1735 0.950 . S
C1729 C1727 1.387 . S
C1729 C1731 1.390 . S
C1729 H1733 0.950 . S
H1730 C1726 0.950 . S
C1731 C1729 1.390 . S
C1731 C1732 1.387 . S
C1731 H1734 0.950 . S
C1732 C1731 1.387 . S
C1732 C1735 1.387 . S
H1733 C1729 0.950 . S
H1734 C1731 0.950 . S
C1735 C1726 1.390 . S
C1735 H1728 0.950 . S
C1735 C1732 1.387 . S
C1736 C1737 1.387 . S
C1736 H1740 0.950 . S
C1736 C1745 1.390 . S
C1737 C1736 1.387 . S
C1737 C1739 1.387 . S
H1738 C1745 0.950 . S
C1739 C1737 1.387 . S
C1739 C1741 1.390 . S
C1739 H1743 0.950 . S
H1740 C1736 0.950 . S
C1741 C1739 1.390 . S
C1741 C1742 1.387 . S
C1741 H1744 0.950 1_556 S
C1742 C1741 1.387 . S
C1742 C1745 1.387 . S
H1743 C1739 0.950 . S
H1744 C1741 0.950 1_554 S
C1745 C1736 1.390 . S
C1745 H1738 0.950 . S
C1745 C1742 1.387 . S
C1746 C1747 1.387 . S
C1746 H1750 0.950 . S
C1746 C1755 1.390 . S
C1747 C1746 1.387 . S
C1747 C1749 1.387 . S
H1748 C1755 0.950 . S
C1749 C1747 1.387 . S
C1749 C1751 1.390 . S
C1749 H1753 0.950 . S
H1750 C1746 0.950 . S
C1751 C1749 1.390 . S
C1751 C1752 1.387 . S
C1751 H1754 0.950 . S
C1752 C1751 1.387 . S
C1752 C1755 1.387 . S
H1753 C1749 0.950 . S
H1754 C1751 0.950 . S
C1755 C1746 1.390 . S
C1755 H1748 0.950 . S
C1755 C1752 1.387 . S
C1756 C1757 1.387 . S
C1756 H1760 0.950 . S
C1756 C1765 1.390 . S
C1757 C1756 1.387 . S
C1757 C1759 1.387 . S
H1758 C1765 0.950 . S
C1759 C1757 1.387 . S
C1759 C1761 1.390 . S
C1759 H1763 0.950 . S
H1760 C1756 0.950 . S
C1761 C1759 1.390 . S
C1761 C1762 1.387 . S
C1761 H1764 0.950 . S
C1762 C1761 1.387 . S
C1762 C1765 1.387 . S
H1763 C1759 0.950 . S
H1764 C1761 0.950 . S
C1765 C1756 1.390 . S
C1765 H1758 0.950 . S
C1765 C1762 1.387 . S
C1766 C1767 1.387 . S
C1766 H1770 0.950 . S
C1766 C1775 1.390 . S
C1767 C1766 1.387 . S
C1767 C1769 1.387 . S
H1768 C1775 0.950 . S
C1769 C1767 1.387 . S
C1769 C1771 1.390 . S
C1769 H1773 0.950 . S
H1770 C1766 0.950 . S
C1771 C1769 1.390 . S
C1771 C1772 1.387 . S
C1771 H1774 0.950 . S
C1772 C1771 1.387 . S
C1772 C1775 1.387 . S
H1773 C1769 0.950 . S
H1774 C1771 0.950 . S
C1775 C1766 1.390 . S
C1775 H1768 0.950 . S
C1775 C1772 1.387 . S
C1776 C1777 1.387 . S
C1776 H1780 0.950 . S
C1776 C1785 1.390 . S
C1777 C1776 1.387 . S
C1777 C1779 1.387 . S
H1778 C1785 0.950 . S
C1779 C1777 1.387 . S
C1779 C1781 1.390 . S
C1779 H1783 0.950 . S
H1780 C1776 0.950 . S
C1781 C1779 1.390 . S
C1781 C1782 1.387 . S
C1781 H1784 0.950 . S
C1782 C1781 1.387 . S
C1782 C1785 1.387 . S
H1783 C1779 0.950 . S
H1784 C1781 0.950 . S
C1785 C1776 1.390 . S
C1785 H1778 0.950 . S
C1785 C1782 1.387 . S
C1786 C1787 1.387 . S
C1786 H1790 0.950 . S
C1786 C1795 1.390 . S
C1787 C1786 1.387 . S
C1787 C1789 1.387 . S
H1788 C1795 0.950 . S
C1789 C1787 1.387 . S
C1789 C1791 1.390 . S
C1789 H1793 0.950 . S
H1790 C1786 0.950 . S
C1791 C1789 1.390 . S
C1791 C1792 1.387 . S
C1791 H1794 0.950 . S
C1792 C1791 1.387 . S
C1792 C1795 1.387 . S
H1793 C1789 0.950 . S
H1794 C1791 0.950 . S
C1795 C1786 1.390 . S
C1795 H1788 0.950 . S
C1795 C1792 1.387 . S
C1796 C1797 1.387 . S
C1796 H1800 0.950 . S
C1796 C1805 1.390 1_655 S
C1797 C1796 1.387 . S
C1797 C1799 1.387 1_655 S
H1798 C1805 0.950 . S
C1799 C1797 1.387 1_455 S
C1799 C1801 1.390 . S
C1799 H1803 0.950 1_455 S
H1800 C1796 0.950 . S
C1801 C1799 1.390 . S
C1801 C1802 1.387 . S
C1801 H1804 0.950 . S
C1802 C1801 1.387 . S
C1802 C1805 1.387 . S
H1803 C1799 0.950 1_655 S
H1804 C1801 0.950 . S
C1805 C1796 1.390 1_455 S
C1805 H1798 0.950 . S
C1805 C1802 1.387 . S
C1806 C1807 1.387 . S
C1806 H1810 0.950 . S
C1806 C1815 1.390 . S
C1807 C1806 1.387 . S
C1807 C1809 1.387 . S
H1808 C1815 0.950 . S
C1809 C1807 1.387 . S
C1809 C1811 1.390 . S
C1809 H1813 0.950 . S
H1810 C1806 0.950 . S
C1811 C1809 1.390 . S
C1811 C1812 1.387 . S
C1811 H1814 0.950 . S
C1812 C1811 1.387 . S
C1812 C1815 1.387 . S
H1813 C1809 0.950 . S
H1814 C1811 0.950 . S
C1815 C1806 1.390 . S
C1815 H1808 0.950 . S
C1815 C1812 1.387 . S
C1816 C1817 1.387 . S
C1816 H1820 0.950 . S
C1816 C1825 1.390 . S
C1817 C1816 1.387 . S
C1817 C1819 1.387 . S
H1818 C1825 0.950 . S
C1819 C1817 1.387 . S
C1819 C1821 1.390 . S
C1819 H1823 0.950 . S
H1820 C1816 0.950 . S
C1821 C1819 1.390 . S
C1821 C1822 1.387 . S
C1821 H1824 0.950 . S
C1822 C1821 1.387 . S
C1822 C1825 1.387 . S
H1823 C1819 0.950 . S
H1824 C1821 0.950 . S
C1825 C1816 1.390 . S
C1825 H1818 0.950 . S
C1825 C1822 1.387 . S
C1826 C1827 1.387 . S
C1826 H1830 0.950 . S
C1826 C1835 1.390 . S
C1827 C1826 1.387 . S
C1827 C1829 1.387 . S
H1828 C1835 0.950 . S
C1829 C1827 1.387 . S
C1829 C1831 1.390 . S
C1829 H1833 0.950 . S
H1830 C1826 0.950 . S
C1831 C1829 1.390 . S
C1831 C1832 1.387 . S
C1831 H1834 0.950 . S
C1832 C1831 1.387 . S
C1832 C1835 1.387 . S
H1833 C1829 0.950 . S
H1834 C1831 0.950 . S
C1835 C1826 1.390 . S
C1835 H1828 0.950 . S
C1835 C1832 1.387 . S
C1836 C1837 1.387 . S
C1836 H1840 0.950 . S
C1836 C1845 1.390 . S
C1837 C1836 1.387 . S
C1837 C1839 1.387 . S
H1838 C1845 0.950 . S
C1839 C1837 1.387 . S
C1839 C1841 1.390 1_655 S
C1839 H1843 0.950 . S
H1840 C1836 0.950 . S
C1841 C1839 1.390 1_455 S
C1841 C1842 1.387 . S
C1841 H1844 0.950 . S
C1842 C1841 1.387 . S
C1842 C1845 1.387 1_455 S
H1843 C1839 0.950 . S
H1844 C1841 0.950 . S
C1845 C1836 1.390 . S
C1845 H1838 0.950 . S
C1845 C1842 1.387 1_655 S
C1846 C1847 1.387 . S
C1846 H1850 0.950 . S
C1846 C1855 1.390 . S
C1847 C1846 1.387 . S
C1847 C1849 1.387 . S
H1848 C1855 0.950 . S
C1849 C1847 1.387 . S
C1849 C1851 1.390 . S
C1849 H1853 0.950 . S
H1850 C1846 0.950 . S
C1851 C1849 1.390 . S
C1851 C1852 1.387 . S
C1851 H1854 0.950 . S
C1852 C1851 1.387 . S
C1852 C1855 1.387 . S
H1853 C1849 0.950 . S
H1854 C1851 0.950 . S
C1855 C1846 1.390 . S
C1855 H1848 0.950 . S
C1855 C1852 1.387 . S
C1856 C1857 1.387 . S
C1856 H1860 0.950 . S
C1856 C1865 1.390 . S
C1857 C1856 1.387 . S
C1857 C1859 1.387 . S
H1858 C1865 0.950 . S
C1859 C1857 1.387 . S
C1859 C1861 1.390 . S
C1859 H1863 0.950 . S
H1860 C1856 0.950 . S
C1861 C1859 1.390 . S
C1861 C1862 1.387 . S
C1861 H1864 0.950 . S
C1862 C1861 1.387 . S
C1862 C1865 1.387 . S
H1863 C1859 0.950 . S
H1864 C1861 0.950 . S
C1865 C1856 1.390 . S
C1865 H1858 0.950 . S
C1865 C1862 1.387 . S
C1866 C1867 1.387 . S
C1866 H1870 0.950 . S
C1866 C1875 1.390 1_565 S
C1867 C1866 1.387 . S
C1867 C1869 1.387 . S
H1868 C1875 0.950 . S
C1869 C1867 1.387 . S
C1869 C1871 1.390 . S
C1869 H1873 0.950 . S
H1870 C1866 0.950 . S
C1871 C1869 1.390 . S
C1871 C1872 1.387 . S
C1871 H1874 0.950 . S
C1872 C1871 1.387 . S
C1872 C1875 1.387 1_565 S
H1873 C1869 0.950 . S
H1874 C1871 0.950 . S
C1875 C1866 1.390 1_545 S
C1875 H1868 0.950 . S
C1875 C1872 1.387 1_545 S
C1876 C1877 1.387 . S
C1876 H1880 0.950 . S
C1876 C1885 1.390 . S
C1877 C1876 1.387 . S
C1877 C1879 1.387 . S
H1878 C1885 0.950 . S
C1879 C1877 1.387 . S
C1879 C1881 1.390 . S
C1879 H1883 0.950 . S
H1880 C1876 0.950 . S
C1881 C1879 1.390 . S
C1881 C1882 1.387 . S
C1881 H1884 0.950 . S
C1882 C1881 1.387 . S
C1882 C1885 1.387 . S
H1883 C1879 0.950 . S
H1884 C1881 0.950 . S
C1885 C1876 1.390 . S
C1885 H1878 0.950 . S
C1885 C1882 1.387 . S
C1886 C1887 1.387 . S
C1886 H1890 0.950 . S
C1886 C1895 1.390 . S
C1887 C1886 1.387 . S
C1887 C1889 1.387 . S
H1888 C1895 0.950 . S
C1889 C1887 1.387 . S
C1889 C1891 1.390 . S
C1889 H1893 0.950 . S
H1890 C1886 0.950 . S
C1891 C1889 1.390 . S
C1891 C1892 1.387 . S
C1891 H1894 0.950 . S
C1892 C1891 1.387 . S
C1892 C1895 1.387 . S
H1893 C1889 0.950 . S
H1894 C1891 0.950 . S
C1895 C1886 1.390 . S
C1895 H1888 0.950 . S
C1895 C1892 1.387 . S
C1896 C1897 1.387 . S
C1896 H1900 0.950 . S
C1896 C1905 1.390 . S
C1897 C1896 1.387 . S
C1897 C1899 1.387 . S
H1898 C1905 0.950 . S
C1899 C1897 1.387 . S
C1899 C1901 1.390 . S
C1899 H1903 0.950 . S
H1900 C1896 0.950 . S
C1901 C1899 1.390 . S
C1901 C1902 1.387 . S
C1901 H1904 0.950 . S
C1902 C1901 1.387 . S
C1902 C1905 1.387 . S
H1903 C1899 0.950 . S
H1904 C1901 0.950 . S
C1905 C1896 1.390 . S
C1905 H1898 0.950 . S
C1905 C1902 1.387 . S
C1906 C1907 1.387 . S
C1906 H1910 0.950 . S
C1906 C1915 1.390 . S
C1907 C1906 1.387 . S
C1907 C1909 1.387 . S
H1908 C1915 0.950 . S
C1909 C1907 1.387 . S
C1909 C1911 1.390 1_554 S
C1909 H1913 0.930 1_554 S
H1910 C1906 0.950 . S
C1911 C1909 1.390 1_556 S
C1911 C1912 1.387 1_556 S
C1911 H1914 0.951 . S
C1912 C1911 1.387 1_554 S
C1912 C1915 1.387 . S
H1913 C1909 0.930 1_556 S
H1914 C1911 0.951 . S
C1915 C1906 1.390 . S
C1915 H1908 0.950 . S
C1915 C1912 1.387 . S
C1916 C1917 1.387 . S
C1916 H1920 0.950 . S
C1916 C1925 1.390 . S
C1917 C1916 1.387 . S
C1917 C1919 1.387 . S
H1918 C1925 0.950 . S
C1919 C1917 1.387 . S
C1919 C1921 1.390 . S
C1919 H1923 0.950 . S
H1920 C1916 0.950 . S
C1921 C1919 1.390 . S
C1921 C1922 1.387 . S
C1921 H1924 0.950 . S
C1922 C1921 1.387 . S
C1922 C1925 1.387 . S
H1923 C1919 0.950 . S
H1924 C1921 0.950 . S
C1925 C1916 1.390 . S
C1925 H1918 0.950 . S
C1925 C1922 1.387 . S
C1926 C1927 1.387 . S
C1926 H1930 0.950 . S
C1926 C1935 1.390 . S
C1927 C1926 1.387 . S
C1927 C1929 1.387 . S
H1928 C1935 0.950 . S
C1929 C1927 1.387 . S
C1929 C1931 1.390 . S
C1929 H1933 0.950 . S
H1930 C1926 0.950 . S
C1931 C1929 1.390 . S
C1931 C1932 1.387 . S
C1931 H1934 0.950 . S
C1932 C1931 1.387 . S
C1932 C1935 1.387 . S
H1933 C1929 0.950 . S
H1934 C1931 0.950 . S
C1935 C1926 1.390 . S
C1935 H1928 0.950 . S
C1935 C1932 1.387 . S
C977 C109 2.338 1_455 S
C982 C367 2.327 . S
C987 C65 1.948 . S
C992 C378 1.981 . S
C997 C75 1.854 . S
C1002 C447 1.798 . S
C1012 C460 1.202 . S
C1007 C84 1.219 . S
C1017 C25 2.524 . S
C1022 C516 2.502 1_565 S
C1032 C567 2.267 . S
C1027 C28 2.279 . S
C1042 C596 2.390 . S
C1037 C47 2.391 . S
C1047 C9 2.623 . S
C1052 C647 2.548 . S
C1062 C338 1.659 . S
C1057 C233 1.633 . S
C1067 C249 1.176 . S
C1072 C380 1.105 . S
C1082 C418 1.112 . S
C1077 C275 1.125 . S
C1092 C487 1.831 . S
C1087 C173 1.810 . S
C1097 C224 0.806 . S
C1102 C521 0.804 1_655 S
C1112 C538 1.556 . S
C1107 C243 1.533 . S
C1122 C601 0.533 . S
C1117 C266 0.527 . S
C1132 C618 2.096 . S
C1127 C179 2.139 . S
C1142 C340 2.098 . S
C1137 C163 2.241 . S
C1147 C289 1.700 . S
C1152 C679 1.631 . S
C1162 C700 1.852 . S
C1157 C333 1.946 . S
C1172 C759 0.640 . S
C1167 C308 0.599 . S
C1177 C123 1.384 . S
C1182 C620 1.369 . S
C1187 C126 1.523 . S
C1192 C420 1.508 . S
C1197 C327 1.189 . S
C1202 C778 1.297 . S
C1212 C847 1.105 . S
C1207 C299 1.143 . S
C1222 C356 2.337 . S
C1217 C67 2.363 . S
C1232 C839 2.006 . S
C1227 C98 1.902 . S
C1237 C89 1.868 . S
C1242 C436 1.818 . S
C1247 C79 1.272 . S
C1252 C801 1.228 . S
C1262 C527 2.536 . S
C1257 C11 2.556 . S
C1267 C51 2.332 . S
C1272 C716 2.278 . S
C1282 C607 2.436 1_566 S
C1277 C33 2.439 . S
C1292 C876 2.536 . S
C1287 C14 2.617 1_655 S
C1302 C359 1.614 . S
C1297 C140 1.589 . S
C1312 C841 1.107 . S
C1307 C319 1.190 . S
C1317 C112 1.134 . S
C1322 C439 1.132 . S
C1327 C285 1.838 . S
C1332 C796 1.861 . S
C1337 C149 0.813 . S
C1342 C500 0.806 . S
C1352 C719 1.570 . S
C1347 C313 1.549 . S
C1357 C121 0.588 . S
C1362 C580 0.582 . S
C1367 C291 2.184 . S
C1372 C879 2.131 . S
C1377 C182 2.261 . S
C1382 C361 2.051 . S
C1387 C168 1.652 . S
C1392 C658 1.635 . S
C1397 C263 1.962 . S
C1402 C561 1.833 . S
C1407 C247 0.638 . S
C1412 C738 0.653 . S
C1422 C881 1.355 . S
C1417 C277 1.400 1_565 S
C1427 C219 1.577 . S
C1432 C441 1.499 . S
C1442 C479 1.332 . S
C1437 C257 1.228 . S
C1452 C396 1.089 . S
C1447 C201 1.123 . S
C1457 C81 2.338 . S
C1462 C927 2.330 . S
C1472 C818 1.982 . S
C1467 C93 1.948 . S
C1477 C103 1.853 . S
C1482 C967 1.796 . S
C1487 C56 1.217 . S
C1492 C780 1.200 . S
C1497 C53 2.524 . S
C1502 C676 2.502 . S
C1512 C727 2.269 . S
C1507 C0 2.281 . S
C1522 C756 2.389 . S
C1517 C19 2.392 . S
C1532 C887 2.549 . S
C1527 C37 2.624 . S
C1542 C898 1.658 . S
C1537 C261 1.633 . S
C1547 C193 1.180 . S
C1552 C820 1.111 . S
C1562 C938 1.113 . S
C1557 C205 1.125 . S
C1572 C807 1.831 . S
C1567 C215 1.812 . S
C1582 C681 0.803 . S
C1577 C252 0.807 . S
C1587 C187 1.530 . S
C1592 C698 1.556 . S
C1602 C761 0.533 . S
C1597 C196 0.527 . S
C1607 C221 2.138 . S
C1612 C858 2.094 . S
C1622 C900 2.094 . S
C1617 C317 2.240 . S
C1627 C135 1.701 . S
C1632 C519 1.634 . S
C1642 C540 1.850 1_545 S
C1637 C151 1.944 . S
C1652 C599 0.633 . S
C1647 C154 0.596 . S
C1662 C860 1.371 . S
C1657 C305 1.387 . S
C1667 C280 1.522 . S
C1672 C940 1.507 . S
C1682 C458 1.298 . S
C1677 C145 1.189 . S
C1692 C407 1.104 . S
C1687 C117 1.142 . S
C1697 C95 2.363 . S
C1702 C916 2.337 . S
C1712 C399 2.005 . S
C1707 C70 1.895 . S
C1717 C61 1.867 . S
C1722 C956 1.818 . S
C1727 C107 1.272 . S
C1732 C481 1.224 . S
C1737 C39 2.555 . S
C1742 C687 2.534 1_556 S
C1752 C556 2.280 . S
C1747 C23 2.332 . S
C1757 C5 2.439 . S
C1762 C767 2.436 . S
C1767 C42 2.617 . S
C1772 C636 2.537 . S
C1782 C919 1.614 . S
C1777 C322 1.589 . S
C1787 C165 1.191 . S
C1792 C401 1.110 . S
C1802 C959 1.131 . S
C1797 C294 1.136 . S
C1807 C131 1.838 . S
C1812 C476 1.861 . S
C1817 C331 0.813 . S
C1822 C660 0.804 . S
C1832 C559 1.571 . S
C1827 C159 1.549 . S
C1837 C303 0.586 . S
C1842 C740 0.586 . S
C1852 C639 2.130 . S
C1847 C137 2.183 . S
C1862 C921 2.052 . S
C1857 C238 2.264 . S
C1872 C498 1.643 1_565 S
C1867 C210 1.652 . S
C1877 C235 1.962 . S
C1882 C721 1.833 . S
C1892 C578 0.646 . S
C1887 C191 0.635 . S
C1897 C207 1.398 . S
C1902 C641 1.352 . S
C1907 C177 1.579 . S
C1912 C961 1.503 . S
C1922 C799 1.333 . S
C1917 C229 1.230 . S
C1932 C836 1.088 . S
C1927 C271 1.122 . S
