# Generated by pormake.
# Topology nia, (6,6)-cn, num edge types: 1
# Building blocks:
#     Node 0, Type 0, BuildingBlock: KUMBUR_clean_sbu_0, # of connection points: 6
#     Node 1, Type 0, BuildingBlock: KUMBUR_clean_sbu_0, # of connection points: 6
#     Node 2, Type 1, BuildingBlock: MIDCAF_clean_sbu_0, # of connection points: 6
#     Node 3, Type 1, BuildingBlock: MIDCAF_clean_sbu_0, # of connection points: 6
#     Edge 4, Type (0, 1), BuildingBlock: ZUJKAS_clean_linker_0, # of connection points: 2
#     Edge 5, Type (0, 1), BuildingBlock: ZUJKAS_clean_linker_0, # of connection points: 2
#     Edge 6, Type (0, 1), BuildingBlock: ZUJKAS_clean_linker_0, # of connection points: 2
#     Edge 7, Type (0, 1), BuildingBlock: ZUJKAS_clean_linker_0, # of connection points: 2
#     Edge 8, Type (0, 1), BuildingBlock: ZUJKAS_clean_linker_0, # of connection points: 2
#     Edge 9, Type (0, 1), BuildingBlock: ZUJKAS_clean_linker_0, # of connection points: 2
#     Edge 10, Type (0, 1), BuildingBlock: ZUJKAS_clean_linker_0, # of connection points: 2
#     Edge 11, Type (0, 1), BuildingBlock: ZUJKAS_clean_linker_0, # of connection points: 2
#     Edge 12, Type (0, 1), BuildingBlock: ZUJKAS_clean_linker_0, # of connection points: 2
#     Edge 13, Type (0, 1), BuildingBlock: ZUJKAS_clean_linker_0, # of connection points: 2
#     Edge 14, Type (0, 1), BuildingBlock: ZUJKAS_clean_linker_0, # of connection points: 2
#     Edge 15, Type (0, 1), BuildingBlock: ZUJKAS_clean_linker_0, # of connection points: 2
# Relax obj value: 0.167
# Max RMSD: 0.278
# Mean RMSD: 0.202
data_MOF--net-nia--node1-KUMBUR_clean_sbu_0--node2-MIDCAF_clean_sbu_0--edge1-ZUJKAS_clean_linker_0
_symmetry_space_group_name_H-M    P1
_symmetry_Int_Tables_number       1
_symmetry_cell_setting            triclinic
loop_
_symmetry_equiv_pos_as_xyz
'x, y, z'
_cell_length_a     35.221453
_cell_length_b     35.39935
_cell_length_c     41.509826
_cell_angle_alpha  89.96741
_cell_angle_beta   90.076821
_cell_angle_gamma 137.60927
loop_
_atom_site_label
_atom_site_type_symbol
_atom_site_fract_x
_atom_site_fract_y
_atom_site_fract_z
_atom_type_partial_charge
Tb0 Tb 0.99731 0.96279 0.04097 0.0
C1 C 0.02307 0.03764 0.90191 0.0
C2 C 0.12406 0.11532 0.89492 0.0
C3 C 0.06364 0.05997 0.84856 0.0
C4 C 0.07614 0.08074 0.91497 0.0
C5 C 0.01598 0.02764 0.86844 0.0
C6 C 0.11763 0.1037 0.8618 0.0
C7 C 0.91543 0.95849 0.87644 0.0
N8 N 0.97815 0.00754 0.92189 0.0
C9 C 0.92466 0.96999 0.90949 0.0
C10 C 0.96125 0.98684 0.85587 0.0
Tb11 Tb -0.00233 0.03155 0.97534 0.0
N12 N 0.0805 0.09114 0.947 0.0
C13 C 0.1314 0.13864 0.95992 0.0
C14 C 0.1767 0.16171 0.90856 0.0
C15 C 0.18023 0.17391 0.94109 0.0
H16 H 0.88908 0.94785 0.92534 0.0
H17 H 0.22056 0.21049 0.95172 0.0
H18 H 0.154 0.12936 0.84608 0.0
H19 H 0.87302 0.92778 0.86688 0.0
H20 H 0.1351 0.14896 0.98498 0.0
H21 H 0.77444 0.76604 0.02953 0.0
H22 H 0.21455 0.18926 0.89402 0.0
H23 H 0.07611 0.03603 0.10556 0.0
H24 H 0.86859 0.84803 0.00949 0.0
H25 H 0.06328 0.03341 0.16419 0.0
H26 H 0.05914 0.05255 0.82282 0.0
H27 H 0.75362 0.75597 0.0876 0.0
H28 H 0.78832 0.7935 0.14356 0.0
H29 H 0.95402 0.97799 0.83027 0.0
H30 H 0.86645 0.86662 0.18008 0.0
N31 N 0.9042 0.88671 0.05577 0.0
C32 C 0.86196 0.84518 0.03502 0.0
C33 C 0.79581 0.79271 0.07898 0.0
C34 C 0.83884 0.83447 0.10023 0.0
C35 C 0.80749 0.79811 0.04624 0.0
C36 C 0.89305 0.88174 0.08774 0.0
H37 H 0.96831 0.95727 0.1879 0.0
N38 N 0.98844 0.96682 0.0954 0.0
C39 C 0.02709 0.00253 0.14873 0.0
C40 C 0.93658 0.92329 0.1082 0.0
C41 C 0.03404 0.00445 0.11543 0.0
C42 C 0.97351 0.95949 0.16201 0.0
C43 C 0.92769 0.91829 0.14183 0.0
O44 O 0.05435 0.96829 0.06397 0.0
O45 O 0.03532 0.00952 0.99673 0.0
O46 O 0.97056 0.95843 0.95345 0.0
O47 O 0.96257 0.91069 0.99709 0.0
O48 O 0.08835 0.02963 0.03177 0.0
O49 O 0.97984 0.89167 0.04071 0.0
O50 O 0.94686 0.04041 0.96116 0.0
O51 O 0.96159 0.98669 0.02017 0.0
O52 O 0.02634 0.03765 0.06148 0.0
O53 O 0.04942 0.09048 0.01581 0.0
O54 O 0.90765 0.97017 0.98789 0.0
O55 O 0.03248 0.11161 0.97684 0.0
C56 C 0.08624 0.03968 1.00243 0.0
C57 C 0.06059 0.91181 0.04273 0.0
C58 C 0.11483 0.89401 0.05232 0.0
C59 C 0.07934 0.89695 0.06355 0.0
C60 C 0.13105 0.90621 0.01967 0.0
C61 C 0.07688 0.92341 0.01031 0.0
C62 C 0.11203 0.92063 0.99888 0.0
C63 C 0.95643 0.91497 0.96611 0.0
C64 C 0.02645 0.91764 0.05586 0.0
C65 C 0.87402 0.87125 0.15436 0.0
C66 C 0.82957 0.82958 0.13357 0.0
C67 C 0.91107 0.95878 0.01641 0.0
C68 C 0.00052 0.12593 0.93326 0.0
C69 C 0.96036 0.12226 0.92129 0.0
C70 C 0.97148 0.15156 0.89308 0.0
C71 C 0.0223 0.18268 0.87651 0.0
C72 C 0.05181 0.15936 0.91674 0.0
C73 C 0.0621 0.18665 0.88837 0.0
C74 C 0.05008 0.08467 0.04737 0.0
C75 C 0.98896 0.0949 0.96269 0.0
H76 H 0.06592 0.88745 0.0885 0.0
H77 H 0.15908 0.90538 0.01024 0.0
H78 H 0.06277 0.93496 0.99398 0.0
H79 H 0.12491 0.93007 0.97388 0.0
H80 H 0.92133 0.09781 0.93431 0.0
H81 H 0.03155 0.20439 0.85435 0.0
H82 H 0.08439 0.16484 0.92564 0.0
H83 H 0.10141 0.21145 0.87565 0.0
Tb84 Tb 0.00674 0.03658 0.54375 0.0
C85 C 0.97829 0.9592 0.40576 0.0
C86 C 0.87737 0.88086 0.39791 0.0
C87 C 0.93824 0.93926 0.35239 0.0
C88 C 0.92484 0.91461 0.41845 0.0
C89 C 0.98561 0.97087 0.37246 0.0
C90 C 0.88423 0.89437 0.3651 0.0
C91 C 0.08614 0.03979 0.38051 0.0
N92 N 0.02335 0.98877 0.42569 0.0
C93 C 0.07685 0.02656 0.4133 0.0
C94 C 0.04038 0.01257 0.36008 0.0
Tb95 Tb 0.00296 0.96482 0.47899 0.0
N96 N 0.91956 0.90277 0.45045 0.0
C97 C 0.86799 0.85457 0.46247 0.0
C98 C 0.82444 0.83371 0.41073 0.0
C99 C 0.81993 0.82009 0.44298 0.0
H100 H 0.1125 0.0478 0.42891 0.0
H101 H 0.77925 0.78293 0.45296 0.0
H102 H 0.84812 0.86939 0.34916 0.0
H103 H 0.12856 0.07093 0.37101 0.0
H104 H 0.86211 0.84196 0.4871 0.0
H105 H 0.22769 0.21222 0.57303 0.0
H106 H 0.78705 0.80681 0.39575 0.0
H107 H 0.89469 0.94674 0.59071 0.0
H108 H 0.14455 0.15348 0.53768 0.0
H109 H 0.87454 0.91935 0.64816 0.0
H110 H 0.943 0.9481 0.32683 0.0
H111 H 0.21767 0.18582 0.63006 0.0
H112 H 0.15386 0.12125 0.67598 0.0
H113 H 0.04769 0.02273 0.33464 0.0
H114 H 0.05758 0.04137 0.69649 0.0
N115 N 0.08749 0.09255 0.57388 0.0
C116 C 0.13925 0.141 0.56243 0.0
C117 C 0.18088 0.15956 0.6146 0.0
C118 C 0.1274 0.11178 0.62669 0.0
C119 C 0.18668 0.17467 0.58245 0.0
C120 C 0.08094 0.07908 0.60552 0.0
H121 H 0.95302 0.96628 0.68639 0.0
N122 N 0.98353 0.00695 0.59623 0.0
C123 C 0.91763 0.9517 0.63972 0.0
C124 C 0.02702 0.0348 0.61713 0.0
C125 C 0.92916 0.96735 0.60725 0.0
C126 C 0.96204 0.97819 0.66121 0.0
C127 C 0.01761 0.02101 0.65013 0.0
O128 O 0.9583 0.04769 0.55913 0.0
O129 O 0.96924 0.99147 0.4988 0.0
O130 O 0.03681 0.04208 0.45883 0.0
O131 O 0.06108 0.09618 0.50392 0.0
O132 O 0.91723 0.97864 0.53076 0.0
O133 O 0.04389 0.11776 0.54306 0.0
O134 O 0.01194 0.91854 0.50184 0.0
O135 O 0.04367 0.0143 0.52191 0.0
O136 O 0.98032 0.96242 0.56289 0.0
O137 O 0.94141 0.90627 0.51702 0.0
O138 O 0.0946 0.02965 0.48759 0.0
O139 O 0.01201 0.92239 0.45052 0.0
C140 C 0.91945 0.96583 0.50243 0.0
C141 C 0.01354 0.13378 0.58671 0.0
C142 C 0.9885 0.16523 0.62521 0.0
C143 C 0.97696 0.13598 0.59681 0.0
C144 C 0.03574 0.18988 0.64389 0.0
C145 C 0.06206 0.16191 0.60503 0.0
C146 C 0.07238 0.18866 0.63365 0.0
C147 C 0.0614 0.08972 0.47242 0.0
C148 C 0.00104 0.10213 0.55735 0.0
C149 C 0.06384 0.05153 0.67108 0.0
C150 C 0.11867 0.09696 0.65938 0.0
C151 C 0.09414 0.04287 0.51637 0.0
C152 C 0.07124 0.91956 0.47339 0.0
C153 C 0.07837 0.90015 0.44705 0.0
C154 C 0.12642 0.91217 0.44484 0.0
C155 C 0.16722 0.94397 0.46943 0.0
C156 C 0.11236 0.95054 0.49777 0.0
C157 C 0.16011 0.96291 0.49562 0.0
C158 C 0.94806 0.91306 0.54877 0.0
C159 C 0.02092 0.90718 0.4751 0.0
H160 H 0.94057 0.11615 0.58218 0.0
H161 H 0.04487 0.21072 0.66642 0.0
H162 H 0.09253 0.16378 0.59737 0.0
H163 H 0.1093 0.209 0.64784 0.0
H164 H 0.04672 0.87608 0.42822 0.0
H165 H 0.20414 0.95315 0.46884 0.0
H166 H 0.10766 0.96509 0.51859 0.0
H167 H 0.19153 0.98684 0.51452 0.0
Zn168 Zn 0.36055 0.68104 0.19953 0.0
Zn169 Zn 0.35249 0.68364 0.32339 0.0
Zn170 Zn 0.35971 0.68058 0.26098 0.0
C171 C 0.46622 0.75302 0.30908 0.0
C172 C 0.28814 0.57259 0.30753 0.0
O173 O 0.32339 0.70766 0.24061 0.0
O174 O 0.31092 0.68744 0.18868 0.0
C175 C 0.47239 0.76251 0.21817 0.0
O176 O 0.44702 0.73771 0.28001 0.0
O177 O 0.43331 0.73518 0.33232 0.0
O178 O 0.29954 0.60222 0.33108 0.0
O179 O 0.30751 0.59457 0.27926 0.0
O180 O 0.44261 0.74853 0.19391 0.0
O181 O 0.44907 0.73934 0.24575 0.0
O182 O 0.31113 0.59422 0.24558 0.0
O183 O 0.33131 0.60771 0.19359 0.0
C184 C 0.30877 0.57607 0.2179 0.0
O185 O 0.32186 0.70905 0.27412 0.0
O186 O 0.32431 0.71482 0.32732 0.0
C187 C 0.30541 0.70498 0.2126 0.0
C188 C 0.3125 0.72062 0.30042 0.0
Zn189 Zn 0.6661 0.33512 0.82043 0.0
Zn190 Zn 0.63557 0.30242 0.69666 0.0
Zn191 Zn 0.64389 0.31724 0.7599 0.0
C192 C 0.70623 0.41652 0.70749 0.0
C193 C 0.5276 0.24038 0.72104 0.0
O194 O 0.67662 0.28507 0.77759 0.0
O195 O 0.6886 0.29969 0.83019 0.0
C196 C 0.72915 0.43882 0.79606 0.0
O197 O 0.69318 0.39942 0.73696 0.0
O198 O 0.68866 0.38282 0.68488 0.0
O199 O 0.55372 0.25247 0.69529 0.0
O200 O 0.55364 0.26014 0.7483 0.0
O201 O 0.72558 0.41733 0.82172 0.0
O202 O 0.70062 0.40801 0.77092 0.0
O203 O 0.56068 0.26755 0.78214 0.0
O204 O 0.58915 0.295 0.83252 0.0
C205 C 0.55009 0.26758 0.81185 0.0
O206 O 0.67638 0.28432 0.74378 0.0
O207 O 0.66044 0.26809 0.69133 0.0
C208 C 0.69022 0.28075 0.8052 0.0
C209 C 0.67883 0.26732 0.7171 0.0
H210 H 0.12846 0.82859 0.0393 0.0
H211 H 0.16188 0.80356 0.07558 0.0
H212 H 0.17853 0.89706 0.15224 0.0
H213 H 0.14674 0.92391 0.11589 0.0
H214 H 0.27105 0.88558 0.11276 0.0
H215 H 0.07789 0.73249 0.18835 0.0
H216 H 0.07597 0.75037 0.14805 0.0
H217 H 0.10651 0.7997 0.1802 0.0
C218 C 0.13976 0.84445 0.06375 0.0
C219 C 0.13482 0.87835 0.07457 0.0
C220 C 0.15849 0.82974 0.08451 0.0
C221 C 0.17219 0.84809 0.11662 0.0
C222 C 0.16744 0.88189 0.12764 0.0
H223 H 0.34081 0.79898 0.2367 0.0
H224 H 0.30808 0.83801 0.22003 0.0
C225 C 0.14902 0.89697 0.10681 0.0
C226 C 0.19246 0.83243 0.13815 0.0
H227 H 0.15081 0.74262 0.1987 0.0
C228 C 0.24523 0.85502 0.1319 0.0
C229 C 0.15855 0.79256 0.16307 0.0
C230 C 0.1014 0.76695 0.17045 0.0
C231 C 0.26422 0.83736 0.14922 0.0
C232 C 0.22946 0.79599 0.17334 0.0
C233 C 0.17746 0.77468 0.18035 0.0
C234 C 0.24339 0.76926 0.18805 0.0
C235 C 0.32013 0.86092 0.14061 0.0
C236 C 0.21664 0.71708 0.17635 0.0
C237 C 0.23521 0.69497 0.18574 0.0
C238 C 0.28036 0.72426 0.20736 0.0
C239 C 0.30532 0.7752 0.2204 0.0
C240 C 0.28691 0.7976 0.2108 0.0
H241 H 0.34068 0.89053 0.12 0.0
H242 H 0.34881 0.88336 0.16171 0.0
H243 H 0.31428 0.82637 0.13438 0.0
H244 H 0.18319 0.69476 0.15867 0.0
H245 H 0.21548 0.65577 0.17524 0.0
H246 H 0.20856 0.12581 0.51386 0.0
H247 H 0.27399 0.1509 0.55535 0.0
H248 H 0.13329 0.01429 0.61462 0.0
H249 H 0.0684 0.98981 0.57357 0.0
H250 H 0.21145 0.10876 0.64977 0.0
H251 H 0.31397 0.07266 0.57706 0.0
H252 H 0.31804 0.12125 0.55835 0.0
H253 H 0.25048 0.04958 0.56419 0.0
C254 C 0.19186 0.10127 0.53577 0.0
C255 C 0.13354 0.05721 0.54101 0.0
C256 C 0.22912 0.11531 0.55936 0.0
C257 C 0.20857 0.08433 0.58812 0.0
C258 C 0.1502 0.03912 0.59282 0.0
H259 H 0.44128 0.12974 0.70813 0.0
H260 H 0.35301 0.0832 0.68192 0.0
C261 C 0.11308 0.0254 0.56939 0.0
C262 C 0.24774 0.09938 0.61352 0.0
H263 H 0.35897 0.1221 0.62645 0.0
C264 C 0.24353 0.1114 0.64475 0.0
C265 C 0.28868 0.10143 0.60725 0.0
C266 C 0.29278 0.08497 0.575 0.0
C267 C 0.2804 0.1273 0.66953 0.0
C268 C 0.32326 0.13221 0.66277 0.0
C269 C 0.32629 0.11857 0.63176 0.0
C270 C 0.36743 0.15395 0.68657 0.0
C271 C 0.27267 0.13821 0.7027 0.0
C272 C 0.40327 0.20788 0.69978 0.0
C273 C 0.453 0.23385 0.71556 0.0
C274 C 0.46789 0.20654 0.71793 0.0
C275 C 0.42996 0.15106 0.70716 0.0
C276 C 0.3799 0.12478 0.69185 0.0
H277 H 0.22833 0.1145 0.70669 0.0
H278 H 0.28477 0.12667 0.7218 0.0
H279 H 0.29959 0.18346 0.70509 0.0
H280 H 0.39546 0.23186 0.69549 0.0
H281 H 0.48247 0.27725 0.72289 0.0
H282 H 0.11517 0.12357 0.10126 0.0
H283 H 0.15229 0.20018 0.13652 0.0
H284 H 0.07625 0.22931 0.07591 0.0
H285 H 0.04008 0.15328 0.04025 0.0
H286 H 0.17914 0.32355 0.08925 0.0
H287 H 0.07745 0.20817 0.20394 0.0
H288 H 0.11791 0.19991 0.18726 0.0
H289 H 0.05734 0.17295 0.1658 0.0
C290 C 0.10562 0.14567 0.09578 0.0
C291 C 0.07427 0.13208 0.06823 0.0
C292 C 0.12668 0.18941 0.11604 0.0
C293 C 0.11588 0.21972 0.10944 0.0
C294 C 0.08482 0.20632 0.08171 0.0
H295 H 0.19873 0.47682 0.22964 0.0
H296 H 0.14852 0.38529 0.20656 0.0
C297 C 0.06446 0.16312 0.06124 0.0
C298 C 0.14024 0.26793 0.13004 0.0
H299 H 0.1539 0.30865 0.20787 0.0
C300 C 0.17309 0.31998 0.11513 0.0
C301 C 0.1318 0.26336 0.16383 0.0
C302 C 0.0937 0.20794 0.1811 0.0
C303 C 0.19883 0.36771 0.133 0.0
C304 C 0.19325 0.36394 0.16697 0.0
C305 C 0.15901 0.31165 0.18191 0.0
C306 C 0.22355 0.41451 0.18688 0.0
C307 C 0.23144 0.42174 0.11516 0.0
C308 C 0.28245 0.45998 0.18518 0.0
C309 C 0.31071 0.51189 0.19787 0.0
C310 C 0.28079 0.51886 0.21328 0.0
C311 C 0.22257 0.47211 0.218 0.0
C312 C 0.19397 0.42006 0.20474 0.0
H313 H 0.21807 0.41397 0.08956 0.0
H314 H 0.22602 0.44587 0.1266 0.0
H315 H 0.2769 0.44789 0.11553 0.0
H316 H 0.30622 0.45625 0.17218 0.0
H317 H 0.35569 0.54747 0.19402 0.0
H318 H 0.87302 0.08926 0.62069 0.0
H319 H 0.81674 0.10211 0.63857 0.0
H320 H 0.96751 0.26788 0.67264 0.0
H321 H 0.02398 0.25727 0.65289 0.0
H322 H 0.79992 0.12001 0.69704 0.0
H323 H 0.90163 0.30209 0.61983 0.0
H324 H 0.91341 0.26087 0.61435 0.0
H325 H 0.95257 0.31559 0.64429 0.0
C326 C 0.89428 0.12886 0.6314 0.0
C327 C 0.95319 0.17211 0.63533 0.0
C328 C 0.86198 0.13593 0.64193 0.0
C329 C 0.88795 0.18635 0.65652 0.0
C330 C 0.94651 0.22912 0.66078 0.0
H331 H 0.77834 0.31707 0.74353 0.0
H332 H 0.82712 0.2928 0.73311 0.0
C333 C 0.97874 0.2225 0.6499 0.0
C334 C 0.85432 0.19456 0.66775 0.0
H335 H 0.84662 0.28518 0.6636 0.0
C336 C 0.80993 0.15594 0.68955 0.0
C337 C 0.86698 0.24123 0.65784 0.0
C338 C 0.91083 0.2819 0.63253 0.0
C339 C 0.77881 0.16345 0.70217 0.0
C340 C 0.79285 0.21104 0.693 0.0
C341 C 0.83683 0.24937 0.67111 0.0
C342 C 0.76016 0.2203 0.7038 0.0
C343 C 0.731 0.12032 0.72502 0.0
C344 C 0.70621 0.18704 0.6912 0.0
C345 C 0.67877 0.20114 0.69684 0.0
C346 C 0.70446 0.24825 0.71555 0.0
C347 C 0.75745 0.28017 0.72936 0.0
C348 C 0.78526 0.26642 0.72338 0.0
H349 H 0.73605 0.09619 0.73706 0.0
H350 H 0.72759 0.14007 0.74369 0.0
H351 H 0.69091 0.09049 0.71124 0.0
H352 H 0.6865 0.15178 0.67571 0.0
H353 H 0.63807 0.17616 0.68577 0.0
H354 H 0.9388 0.01495 0.07261 0.0
H355 H 0.87506 0.99419 0.11282 0.0
H356 H 0.7331 0.84637 0.0593 0.0
H357 H 0.79712 0.87054 0.01751 0.0
H358 H 0.70818 0.89276 0.07679 0.0
H359 H 0.79859 0.89168 0.18517 0.0
H360 H 0.84716 0.96073 0.16829 0.0
H361 H 0.82723 0.90493 0.14566 0.0
C362 C 0.8941 0.97754 0.06972 0.0
C363 C 0.87291 0.94325 0.04244 0.0
C364 C 0.85749 0.9655 0.09288 0.0
C365 C 0.79891 0.91766 0.08989 0.0
C366 C 0.77797 0.8834 0.06251 0.0
H367 H 0.52659 0.73551 0.22382 0.0
H368 H 0.614 0.78253 0.19625 0.0
C369 C 0.8145 0.89684 0.03871 0.0
C370 C 0.7589 0.90456 0.11402 0.0
H371 H 0.72746 0.88628 0.19445 0.0
C372 C 0.71253 0.89116 0.10248 0.0
C373 C 0.76439 0.90301 0.14779 0.0
C374 C 0.81182 0.91542 0.16244 0.0
C375 C 0.67095 0.87463 0.12329 0.0
C376 C 0.67666 0.87328 0.15692 0.0
C377 C 0.72344 0.88783 0.1687 0.0
C378 C 0.63199 0.8525 0.17977 0.0
C379 C 0.62012 0.85657 0.10883 0.0
C380 C 0.6151 0.87806 0.18147 0.0
C381 C 0.56524 0.85123 0.1973 0.0
C382 C 0.53246 0.79931 0.21241 0.0
C383 C 0.55217 0.77645 0.21332 0.0
C384 C 0.60174 0.80298 0.1972 0.0
H385 H 0.61587 0.84749 0.08266 0.0
H386 H 0.58084 0.81856 0.12105 0.0
H387 H 0.62436 0.8907 0.11184 0.0
H388 H 0.63841 0.91683 0.16874 0.0
H389 H 0.55026 0.86908 0.19581 0.0
H390 H 0.87189 0.80265 0.53084 0.0
H391 H 0.83261 0.7234 0.56413 0.0
H392 H 0.92546 0.83299 0.64619 0.0
H393 H 0.96618 0.91273 0.61294 0.0
H394 H 0.93581 0.76434 0.63903 0.0
H395 H 0.7109 0.63969 0.63276 0.0
H396 H 0.74247 0.65827 0.5937 0.0
H397 H 0.7669 0.71235 0.62082 0.0
C398 C 0.88353 0.80995 0.55604 0.0
C399 C 0.92151 0.86413 0.56926 0.0
C400 C 0.86075 0.76443 0.57512 0.0
C401 C 0.8752 0.77201 0.60784 0.0
C402 C 0.91321 0.826 0.62109 0.0
H403 H 0.69342 0.47823 0.73094 0.0
H404 H 0.74007 0.57039 0.71225 0.0
C405 C 0.93611 0.87155 0.60203 0.0
C406 C 0.85277 0.72405 0.62776 0.0
H407 H 0.73068 0.59153 0.65128 0.0
C408 C 0.89096 0.72677 0.642 0.0
C409 C 0.7943 0.67543 0.63218 0.0
C410 C 0.75126 0.67134 0.61935 0.0
C411 C 0.87218 0.68127 0.65932 0.0
C412 C 0.81369 0.63138 0.662 0.0
C413 C 0.77554 0.62957 0.64897 0.0
C414 C 0.79107 0.57949 0.67647 0.0
C415 C 0.91517 0.68703 0.67455 0.0
C416 C 0.80458 0.55424 0.6629 0.0
C417 C 0.77877 0.50229 0.67407 0.0
C418 C 0.73906 0.47465 0.69908 0.0
C419 C 0.72605 0.50014 0.71293 0.0
C420 C 0.75191 0.55221 0.70179 0.0
H421 H 0.9555 0.73166 0.67915 0.0
H422 H 0.8995 0.66367 0.69764 0.0
H423 H 0.92403 0.66974 0.65793 0.0
H424 H 0.83344 0.57363 0.64278 0.0
H425 H 0.7887 0.48296 0.66255 0.0
H426 H 0.04654 0.80759 0.41718 0.0
H427 H 0.06205 0.76789 0.37839 0.0
H428 H 0.23823 0.92623 0.37369 0.0
H429 H 0.22277 0.96673 0.41145 0.0
H430 H 0.1933 0.86989 0.31353 0.0
H431 H 0.14141 0.73165 0.41283 0.0
H432 H 0.08762 0.72565 0.40239 0.0
H433 H 0.15252 0.78949 0.41989 0.0
C434 C 0.08829 0.83438 0.40726 0.0
C435 C 0.13363 0.8901 0.41788 0.0
C436 C 0.09716 0.81148 0.38527 0.0
C437 C 0.15151 0.84378 0.37363 0.0
C438 C 0.196 0.9004 0.38248 0.0
H439 H 0.3569 0.81485 0.32855 0.0
H440 H 0.31054 0.84147 0.33807 0.0
C441 C 0.18718 0.92333 0.40435 0.0
C442 C 0.16384 0.81781 0.35522 0.0
H443 H 0.17495 0.7304 0.36478 0.0
C444 C 0.18829 0.83858 0.32445 0.0
C445 C 0.15762 0.77717 0.36959 0.0
C446 C 0.13378 0.75482 0.40306 0.0
C447 C 0.20848 0.8212 0.30828 0.0
C448 C 0.20429 0.78252 0.32335 0.0
C449 C 0.17748 0.75974 0.35328 0.0
C450 C 0.23525 0.77189 0.31139 0.0
C451 C 0.23642 0.84581 0.27588 0.0
C452 C 0.20864 0.72468 0.29249 0.0
C453 C 0.23543 0.70967 0.28675 0.0
C454 C 0.2887 0.74152 0.30015 0.0
C455 C 0.31602 0.79 0.31778 0.0
C456 C 0.28968 0.80525 0.32317 0.0
H457 H 0.23094 0.87056 0.26566 0.0
H458 H 0.28215 0.87351 0.27835 0.0
H459 H 0.21886 0.81188 0.25873 0.0
H460 H 0.16633 0.69816 0.28351 0.0
H461 H 0.21337 0.67167 0.27346 0.0
H462 H 0.06426 0.99375 0.94244 0.0
H463 H 0.13184 0.01892 0.90348 0.0
H464 H 0.26732 0.14232 0.96968 0.0
H465 H 0.19946 0.11728 0.00883 0.0
H466 H 0.22528 0.12556 0.87496 0.0
H467 H 0.29117 0.0482 0.94487 0.0
H468 H 0.22763 0.02755 0.95373 0.0
H469 H 0.29473 0.09375 0.9678 0.0
C470 C 0.10832 0.02647 0.94869 0.0
C471 C 0.12669 0.05456 0.97842 0.0
C472 C 0.14694 0.04063 0.92639 0.0
C473 C 0.20453 0.08223 0.93373 0.0
C474 C 0.22293 0.10961 0.96367 0.0
H475 H 0.52672 0.29239 0.86433 0.0
H476 H 0.43552 0.23927 0.88786 0.0
C477 C 0.18428 0.09552 0.98593 0.0
C478 C 0.24583 0.09796 0.91006 0.0
H479 H 0.35335 0.11373 0.90244 0.0
C480 C 0.25265 0.12207 0.88062 0.0
C481 C 0.28074 0.09238 0.91725 0.0
C482 C 0.27291 0.06352 0.94748 0.0
C483 C 0.29645 0.14464 0.85934 0.0
C484 C 0.33377 0.14259 0.86771 0.0
C485 C 0.32462 0.11528 0.89613 0.0
C486 C 0.3876 0.17623 0.8505 0.0
C487 C 0.3049 0.17361 0.82903 0.0
C488 C 0.39082 0.15889 0.82115 0.0
C489 C 0.44359 0.18949 0.80741 0.0
C490 C 0.49339 0.2374 0.82307 0.0
C491 C 0.48931 0.25533 0.85178 0.0
C492 C 0.43716 0.22512 0.8653 0.0
H493 H 0.27163 0.17089 0.82568 0.0
H494 H 0.34655 0.21845 0.82987 0.0
H495 H 0.3049 0.15453 0.80781 0.0
H496 H 0.35284 0.12097 0.80947 0.0
H497 H 0.44543 0.17443 0.78546 0.0
H498 H 0.04704 0.08638 0.40736 0.0
H499 H 0.08611 0.1631 0.37175 0.0
H500 H 0.1707 0.2769 0.45247 0.0
H501 H 0.13295 0.2004 0.48833 0.0
H502 H 0.06819 0.22629 0.37476 0.0
H503 H 0.2961 0.36255 0.38533 0.0
H504 H 0.24241 0.29026 0.39817 0.0
H505 H 0.2622 0.34373 0.42361 0.0
C506 C 0.07507 0.12791 0.41754 0.0
C507 C 0.08758 0.13728 0.45072 0.0
C508 C 0.097 0.17171 0.3971 0.0
C509 C 0.13205 0.22595 0.40929 0.0
C510 C 0.14476 0.23562 0.44237 0.0
H511 H 0.20469 0.50249 0.35119 0.0
H512 H 0.1629 0.41276 0.36982 0.0
C513 C 0.12281 0.19174 0.4629 0.0
C514 C 0.15251 0.2716 0.38775 0.0
H515 H 0.27149 0.40451 0.36264 0.0
C516 C 0.11268 0.26499 0.3718 0.0
C517 C 0.21054 0.32168 0.38336 0.0
C518 C 0.25534 0.32991 0.39825 0.0
C519 C 0.12927 0.3082 0.35294 0.0
C520 C 0.18714 0.35958 0.35025 0.0
C521 C 0.22709 0.36518 0.36484 0.0
C522 C 0.20679 0.40984 0.33542 0.0
C523 C 0.08465 0.2988 0.33643 0.0
C524 C 0.24504 0.43792 0.30959 0.0
C525 C 0.26895 0.48944 0.29875 0.0
C526 C 0.25546 0.51383 0.31393 0.0
C527 C 0.21561 0.48452 0.33893 0.0
C528 C 0.19149 0.43309 0.34951 0.0
H529 H 0.04554 0.25348 0.33239 0.0
H530 H 0.07387 0.31537 0.35191 0.0
H531 H 0.09984 0.32087 0.3129 0.0
H532 H 0.25778 0.42091 0.29857 0.0
H533 H 0.30047 0.51169 0.27996 0.0
H534 H 0.85543 0.06372 0.88933 0.0
H535 H 0.79216 0.06602 0.86752 0.0
H536 H 0.93518 0.24257 0.8481 0.0
H537 H -0.00201 0.2409 0.87006 0.0
H538 H 0.77782 0.1295 0.88811 0.0
H539 H 0.85189 0.1835 0.762 0.0
H540 H 0.86688 0.15634 0.78964 0.0
H541 H 0.9095 0.22976 0.78978 0.0
C542 C 0.87326 0.103 0.88049 0.0
C543 C 0.93188 0.15196 0.88105 0.0
C544 C 0.83715 0.10415 0.86779 0.0
C545 C 0.85912 0.15412 0.85526 0.0
C546 C 0.91739 0.20311 0.85653 0.0
H547 H 0.77504 0.31864 0.84301 0.0
H548 H 0.80625 0.27668 0.85202 0.0
C549 C 0.95328 0.20207 0.86922 0.0
C550 C 0.82173 0.15705 0.84293 0.0
H551 H 0.80851 0.20984 0.78058 0.0
C552 C 0.78328 0.14547 0.86426 0.0
C553 C 0.82837 0.17739 0.81165 0.0
C554 C 0.86598 0.18687 0.78684 0.0
C555 C 0.75471 0.15786 0.85604 0.0
C556 C 0.76521 0.18276 0.8259 0.0
C557 C 0.80053 0.1907 0.80369 0.0
C558 C 0.7461 0.20769 0.81909 0.0
C559 C 0.71564 0.14697 0.88027 0.0
C560 C 0.70235 0.18306 0.7972 0.0
C561 C 0.6843 0.20707 0.79201 0.0
C562 C 0.71034 0.25626 0.80838 0.0
C563 C 0.75439 0.28084 0.82999 0.0
C564 C 0.77222 0.25694 0.83518 0.0
H565 H 0.70195 0.11631 0.89889 0.0
H566 H 0.73785 0.18684 0.89254 0.0
H567 H 0.67782 0.13101 0.86815 0.0
H568 H 0.68145 0.14479 0.78474 0.0
H569 H 0.64941 0.18669 0.77579 0.0
H570 H 0.94578 0.01052 0.44197 0.0
H571 H 0.88064 0.98207 0.39941 0.0
H572 H 0.74042 0.85879 0.46316 0.0
H573 H 0.80573 0.88578 0.50534 0.0
H574 H 0.72086 0.81578 0.40394 0.0
H575 H 0.79808 0.02008 0.39275 0.0
H576 H 0.85067 0.02319 0.38603 0.0
H577 H 0.81945 0.00514 0.42526 0.0
C578 C 0.90106 0.97689 0.44673 0.0
C579 C 0.88055 0.94899 0.47653 0.0
C580 C 0.86385 0.96122 0.42253 0.0
C581 C 0.80554 0.91851 0.42809 0.0
C582 C 0.7852 0.89161 0.45821 0.0
H583 H 0.52706 0.83052 0.3563 0.0
H584 H 0.61679 0.87538 0.37826 0.0
C585 C 0.82241 0.90706 0.4823 0.0
C586 C 0.76527 0.90135 0.40274 0.0
H587 H 0.72451 0.94777 0.35805 0.0
C588 C 0.72196 0.84472 0.39362 0.0
C589 C 0.76676 0.93922 0.38932 0.0
C590 C 0.81089 0.00019 0.39898 0.0
C591 C 0.67872 0.82435 0.37262 0.0
C592 C 0.67951 0.86198 0.3597 0.0
C593 C 0.72426 0.9191 0.36769 0.0
C594 C 0.63007 0.84169 0.3424 0.0
C595 C 0.63081 0.76216 0.36609 0.0
C596 C 0.6086 0.80967 0.31397 0.0
C597 C 0.55665 0.7835 0.30139 0.0
C598 C 0.52598 0.78956 0.3169 0.0
C599 C 0.54971 0.82495 0.34388 0.0
C600 C 0.60114 0.85076 0.35643 0.0
H601 H 0.63173 0.73798 0.38243 0.0
H602 H 0.58961 0.74633 0.36891 0.0
H603 H 0.63382 0.75392 0.34096 0.0
H604 H 0.63068 0.80288 0.30236 0.0
H605 H 0.53877 0.75558 0.28103 0.0
H606 H 0.95357 0.91399 0.90004 0.0
H607 H 0.91606 0.83859 0.8638 0.0
H608 H 0.88101 0.74064 0.94506 0.0
H609 H 0.91536 0.81467 0.9817 0.0
H610 H 0.94652 0.7906 0.85089 0.0
H611 H 0.73077 0.63017 0.90109 0.0
H612 H 0.78153 0.7032 0.91187 0.0
H613 H 0.78284 0.65862 0.93126 0.0
C614 C 0.93665 0.87601 0.91037 0.0
C615 C 0.93584 0.86992 0.94395 0.0
C616 C 0.91584 0.83307 0.8895 0.0
C617 C 0.89429 0.78323 0.90169 0.0
C618 C 0.89564 0.77791 0.93511 0.0
H619 H 0.83821 0.52805 0.8132 0.0
H620 H 0.88128 0.61816 0.83258 0.0
C621 C 0.91577 0.82057 0.95605 0.0
C622 C 0.87081 0.73706 0.87944 0.0
H623 H 0.75523 0.59695 0.86637 0.0
C624 C 0.90447 0.74834 0.85407 0.0
C625 C 0.81545 0.68217 0.88302 0.0
C626 C 0.77536 0.6679 0.90806 0.0
C627 C 0.88508 0.70576 0.83307 0.0
C628 C 0.83111 0.65022 0.83802 0.0
C629 C 0.79676 0.63945 0.86261 0.0
C630 C 0.81048 0.6017 0.81974 0.0
C631 C 0.92251 0.72075 0.80575 0.0
C632 C 0.75672 0.56264 0.80552 0.0
C633 C 0.73195 0.5109 0.79472 0.0
C634 C 0.76086 0.49775 0.79748 0.0
C635 C 0.81586 0.53804 0.80991 0.0
C636 C 0.8405 0.5896 0.82093 0.0
H637 H 0.95189 0.76521 0.79843 0.0
H638 H 0.94825 0.71524 0.81378 0.0
H639 H 0.89743 0.69358 0.78442 0.0
H640 H 0.73243 0.57068 0.80474 0.0
H641 H 0.68846 0.47946 0.78686 0.0
loop_
_geom_bond_atom_site_label_1
_geom_bond_atom_site_label_2
_geom_bond_distance
_geom_bond_site_symmetry_2
_ccdc_geom_bond_type
Tb0 N31 2.660 1_455 S
Tb0 N38 2.600 . S
Tb0 O44 2.546 1_565 S
Tb0 O45 2.610 1_564 S
Tb0 O47 2.320 1_454 S
Tb0 O48 2.552 1_565 S
Tb0 O49 2.413 . S
Tb0 O51 2.362 1_455 S
Tb0 O52 2.421 1_565 S
Tb0 C64 2.833 . S
C1 C4 1.432 . S
C1 C5 1.414 . S
C1 N8 1.359 1_455 S
C2 C4 1.417 . S
C2 C6 1.432 . S
C2 C14 1.410 . S
C3 C5 1.444 . S
C3 C6 1.317 . S
C3 H26 0.929 . S
C4 C1 1.432 . S
C4 C2 1.417 . S
C4 N12 1.360 . S
C5 C1 1.414 . S
C5 C3 1.444 . S
C5 C10 1.385 1_455 S
C6 C2 1.432 . S
C6 C3 1.317 . S
C6 H18 0.930 . S
C7 C9 1.392 . S
C7 C10 1.370 1_565 S
C7 H19 0.931 . S
N8 C1 1.359 1_655 S
N8 C9 1.327 1_545 S
N8 Tb11 2.600 . S
C9 C7 1.392 . S
C9 N8 1.327 1_565 S
C9 H16 0.930 . S
C10 C5 1.385 1_655 S
C10 C7 1.370 1_545 S
C10 H29 0.931 . S
Tb11 N8 2.600 . S
Tb11 N12 2.660 1_655 S
Tb11 O45 2.362 1_655 S
Tb11 O46 2.421 1_545 S
Tb11 O50 2.546 1_545 S
Tb11 O51 2.610 1_546 S
Tb11 O53 2.320 1_656 S
Tb11 O54 2.552 1_545 S
Tb11 O55 2.413 . S
Tb11 C75 2.833 . S
N12 C4 1.360 . S
N12 Tb11 2.660 1_455 S
N12 C13 1.305 . S
C13 N12 1.305 . S
C13 C15 1.407 . S
C13 H20 0.930 . S
C14 C2 1.410 . S
C14 C15 1.345 . S
C14 H22 0.930 . S
C15 C13 1.407 . S
C15 C14 1.345 . S
C15 H17 0.930 . S
H16 C9 0.930 . S
H17 C15 0.930 . S
H18 C6 0.930 . S
H19 C7 0.931 . S
H20 C13 0.930 . S
H21 C35 0.930 . S
H22 C14 0.930 . S
H23 C41 0.930 . S
H24 C32 0.930 . S
H25 C39 0.931 . S
H26 C3 0.929 . S
H27 C33 0.930 . S
H28 C66 0.930 . S
H29 C10 0.931 . S
H30 C65 0.929 . S
N31 Tb0 2.660 1_655 S
N31 C32 1.305 . S
N31 C36 1.360 . S
C32 H24 0.930 . S
C32 N31 1.305 . S
C32 C35 1.407 . S
C33 H27 0.930 . S
C33 C34 1.410 . S
C33 C35 1.345 . S
C34 C33 1.410 . S
C34 C36 1.417 . S
C34 C66 1.432 . S
C35 H21 0.930 . S
C35 C32 1.407 . S
C35 C33 1.345 . S
C36 N31 1.360 . S
C36 C34 1.417 . S
C36 C40 1.432 . S
H37 C42 0.926 1_545 S
N38 Tb0 2.600 . S
N38 C40 1.359 1_455 S
N38 C41 1.327 1_565 S
C39 H25 0.931 . S
C39 C41 1.392 . S
C39 C42 1.362 1_545 S
C40 C36 1.432 . S
C40 N38 1.359 1_655 S
C40 C43 1.414 . S
C41 H23 0.930 . S
C41 N38 1.327 1_545 S
C41 C39 1.392 . S
C42 H37 0.926 1_565 S
C42 C39 1.362 1_565 S
C42 C43 1.397 1_455 S
C43 C40 1.414 . S
C43 C42 1.397 1_655 S
C43 C65 1.444 . S
O44 Tb0 2.546 1_545 S
O44 C64 1.251 1_545 S
O45 Tb0 2.610 1_546 S
O45 Tb11 2.362 1_455 S
O45 C56 1.283 . S
O46 Tb11 2.421 1_565 S
O46 C63 1.262 . S
O47 Tb0 2.320 1_656 S
O47 C63 1.260 . S
O48 Tb0 2.552 1_545 S
O48 C56 1.243 1_554 S
O49 Tb0 2.413 . S
O49 C64 1.256 . S
O50 Tb11 2.546 1_565 S
O50 C75 1.251 1_565 S
O51 Tb0 2.362 1_655 S
O51 Tb11 2.610 1_564 S
O51 C67 1.283 . S
O52 Tb0 2.421 1_545 S
O52 C74 1.262 . S
O53 Tb11 2.320 1_454 S
O53 C74 1.260 . S
O54 Tb11 2.552 1_565 S
O54 C67 1.243 1_556 S
O55 Tb11 2.413 . S
O55 C75 1.256 . S
C56 O45 1.283 . S
C56 O48 1.243 1_556 S
C57 C59 1.382 . S
C57 C61 1.393 . S
C57 C64 1.500 . S
C58 C59 1.400 . S
C58 C60 1.384 . S
C59 C57 1.382 . S
C59 C58 1.400 . S
C59 H76 0.930 . S
C60 C58 1.384 . S
C60 C62 1.392 . S
C60 H77 0.931 . S
C61 C57 1.393 . S
C61 C62 1.401 . S
C61 H78 0.930 . S
C62 C60 1.392 . S
C62 C61 1.401 . S
C62 H79 0.930 . S
C63 O46 1.262 . S
C63 O47 1.260 . S
C64 Tb0 2.833 . S
C64 O44 1.251 1_565 S
C64 O49 1.256 . S
C64 C57 1.500 . S
C65 H30 0.929 . S
C65 C43 1.444 . S
C65 C66 1.317 . S
C66 H28 0.930 . S
C66 C34 1.432 . S
C66 C65 1.317 . S
C67 O51 1.283 . S
C67 O54 1.243 1_554 S
C68 C69 1.382 . S
C68 C72 1.393 . S
C68 C75 1.500 . S
C69 C68 1.382 . S
C69 C70 1.400 . S
C69 H80 0.930 . S
C70 C69 1.400 . S
C70 C71 1.384 . S
C71 C70 1.384 . S
C71 C73 1.392 . S
C71 H81 0.931 . S
C72 C68 1.393 . S
C72 C73 1.401 . S
C72 H82 0.930 . S
C73 C71 1.392 . S
C73 C72 1.401 . S
C73 H83 0.930 . S
C74 O52 1.262 . S
C74 O53 1.260 . S
C75 Tb11 2.833 . S
C75 O50 1.251 1_545 S
C75 O55 1.256 . S
C75 C68 1.500 . S
H76 C59 0.930 . S
H77 C60 0.931 . S
H78 C61 0.930 . S
H79 C62 0.930 . S
H80 C69 0.930 . S
H81 C71 0.931 . S
H82 C72 0.930 . S
H83 C73 0.930 . S
Tb84 N115 2.660 1_655 S
Tb84 N122 2.600 1_655 S
Tb84 O128 2.546 . S
Tb84 O129 2.610 1_545 S
Tb84 O131 2.320 1_655 S
Tb84 O132 2.552 1_545 S
Tb84 O133 2.413 . S
Tb84 O135 2.362 1_655 S
Tb84 O136 2.421 1_545 S
Tb84 C148 2.833 . S
C85 C88 1.432 . S
C85 C89 1.414 . S
C85 N92 1.359 1_665 S
C86 C88 1.417 . S
C86 C90 1.432 . S
C86 C98 1.410 . S
C87 C89 1.444 . S
C87 C90 1.317 . S
C87 H110 0.929 . S
C88 C85 1.432 . S
C88 C86 1.417 . S
C88 N96 1.360 . S
C89 C85 1.414 . S
C89 C87 1.444 . S
C89 C94 1.385 1_665 S
C90 C86 1.432 . S
C90 C87 1.317 . S
C90 H102 0.930 . S
C91 C93 1.392 . S
C91 C94 1.370 . S
C91 H103 0.931 . S
N92 C85 1.359 1_445 S
N92 C93 1.327 . S
N92 Tb95 2.600 1_545 S
C93 C91 1.392 . S
C93 N92 1.327 . S
C93 H100 0.930 . S
C94 C89 1.385 1_445 S
C94 C91 1.370 . S
C94 H113 0.930 . S
Tb95 N92 2.600 1_565 S
Tb95 N96 2.660 1_455 S
Tb95 O129 2.362 1_455 S
Tb95 O130 2.421 1_565 S
Tb95 O134 2.546 1_565 S
Tb95 O135 2.610 1_565 S
Tb95 O137 2.320 1_455 S
Tb95 O138 2.552 1_565 S
Tb95 O139 2.413 . S
Tb95 C159 2.833 . S
N96 C88 1.360 . S
N96 Tb95 2.660 1_655 S
N96 C97 1.305 . S
C97 N96 1.305 . S
C97 C99 1.407 . S
C97 H104 0.930 . S
C98 C86 1.410 . S
C98 C99 1.345 . S
C98 H106 0.930 . S
C99 C97 1.407 . S
C99 C98 1.345 . S
C99 H101 0.930 . S
H100 C93 0.930 . S
H101 C99 0.930 . S
H102 C90 0.930 . S
H103 C91 0.931 . S
H104 C97 0.930 . S
H105 C119 0.930 . S
H106 C98 0.930 . S
H107 C125 0.930 . S
H108 C116 0.930 . S
H109 C123 0.931 . S
H110 C87 0.929 . S
H111 C117 0.930 . S
H112 C150 0.930 . S
H113 C94 0.930 . S
H114 C149 0.929 . S
N115 Tb84 2.660 1_455 S
N115 C116 1.305 . S
N115 C120 1.360 . S
C116 H108 0.930 . S
C116 N115 1.305 . S
C116 C119 1.407 . S
C117 H111 0.930 . S
C117 C118 1.410 . S
C117 C119 1.345 . S
C118 C117 1.410 . S
C118 C120 1.417 . S
C118 C150 1.432 . S
C119 H105 0.930 . S
C119 C116 1.407 . S
C119 C117 1.345 . S
C120 N115 1.360 . S
C120 C118 1.417 . S
C120 C124 1.432 . S
H121 C126 0.930 . S
N122 Tb84 2.600 1_455 S
N122 C124 1.359 . S
N122 C125 1.327 1_445 S
C123 H109 0.931 . S
C123 C125 1.392 . S
C123 C126 1.370 1_665 S
C124 C120 1.432 . S
C124 N122 1.359 . S
C124 C127 1.414 . S
C125 H107 0.930 . S
C125 N122 1.327 1_665 S
C125 C123 1.392 . S
C126 H121 0.930 . S
C126 C123 1.370 1_445 S
C126 C127 1.385 . S
C127 C124 1.414 . S
C127 C126 1.385 . S
C127 C149 1.444 . S
O128 Tb84 2.546 . S
O128 C148 1.251 . S
O129 Tb84 2.610 1_565 S
O129 Tb95 2.362 1_655 S
O129 C140 1.283 . S
O130 Tb95 2.421 1_545 S
O130 C147 1.262 . S
O131 Tb84 2.320 1_455 S
O131 C147 1.260 . S
O132 Tb84 2.552 1_565 S
O132 C140 1.243 . S
O133 Tb84 2.413 . S
O133 C148 1.256 . S
O134 Tb95 2.546 1_545 S
O134 C159 1.251 1_545 S
O135 Tb84 2.362 1_455 S
O135 Tb95 2.610 1_545 S
O135 C151 1.283 . S
O136 Tb84 2.421 1_565 S
O136 C158 1.262 . S
O137 Tb95 2.320 1_655 S
O137 C158 1.260 . S
O138 Tb95 2.552 1_545 S
O138 C151 1.243 . S
O139 Tb95 2.413 . S
O139 C159 1.256 . S
C140 O129 1.283 . S
C140 O132 1.243 . S
C141 C143 1.382 . S
C141 C145 1.393 . S
C141 C148 1.500 . S
C142 C143 1.400 . S
C142 C144 1.384 . S
C143 C141 1.382 . S
C143 C142 1.400 . S
C143 H160 0.930 . S
C144 C142 1.384 . S
C144 C146 1.392 . S
C144 H161 0.931 . S
C145 C141 1.393 . S
C145 C146 1.401 . S
C145 H162 0.930 . S
C146 C144 1.392 . S
C146 C145 1.401 . S
C146 H163 0.930 . S
C147 O130 1.262 . S
C147 O131 1.260 . S
C148 Tb84 2.833 . S
C148 O128 1.251 . S
C148 O133 1.256 . S
C148 C141 1.500 . S
C149 H114 0.929 . S
C149 C127 1.444 . S
C149 C150 1.317 . S
C150 H112 0.930 . S
C150 C118 1.432 . S
C150 C149 1.317 . S
C151 O135 1.283 . S
C151 O138 1.243 . S
C152 C153 1.382 . S
C152 C156 1.393 . S
C152 C159 1.500 . S
C153 C152 1.382 . S
C153 C154 1.400 . S
C153 H164 0.930 . S
C154 C153 1.400 . S
C154 C155 1.384 . S
C155 C154 1.384 . S
C155 C157 1.392 . S
C155 H165 0.931 . S
C156 C152 1.393 . S
C156 C157 1.401 . S
C156 H166 0.930 1_565 S
C157 C155 1.392 . S
C157 C156 1.401 . S
C157 H167 0.930 . S
C158 O136 1.262 . S
C158 O137 1.260 . S
C159 Tb95 2.833 . S
C159 O134 1.251 1_565 S
C159 O139 1.256 . S
C159 C152 1.500 . S
H160 C143 0.930 . S
H161 C144 0.931 . S
H162 C145 0.930 . S
H163 C146 0.930 . S
H164 C153 0.930 . S
H165 C155 0.931 . S
H166 C156 0.930 1_545 S
H167 C157 0.930 . S
Zn168 O174 1.920 . S
Zn168 O180 1.898 . S
Zn168 O183 1.905 . S
Zn169 O177 1.905 . S
Zn169 O178 1.898 . S
Zn169 O186 1.920 . S
Zn170 O173 2.080 . S
Zn170 O176 2.114 . S
Zn170 O179 2.120 . S
Zn170 O181 2.120 . S
Zn170 O182 2.114 . S
Zn170 O185 2.080 . S
C171 O176 1.166 . S
C171 O177 1.182 . S
C172 O178 1.167 . S
C172 O179 1.299 . S
O173 Zn170 2.080 . S
O173 C187 1.305 . S
O174 Zn168 1.920 . S
O174 C187 1.234 . S
C175 O180 1.167 . S
C175 O181 1.299 . S
O176 Zn170 2.114 . S
O176 C171 1.166 . S
O177 Zn169 1.905 . S
O177 C171 1.182 . S
O178 Zn169 1.898 . S
O178 C172 1.167 . S
O179 Zn170 2.120 . S
O179 C172 1.299 . S
O180 Zn168 1.898 . S
O180 C175 1.167 . S
O181 Zn170 2.120 . S
O181 C175 1.299 . S
O182 Zn170 2.114 . S
O182 C184 1.166 . S
O183 Zn168 1.905 . S
O183 C184 1.182 . S
C184 O182 1.166 . S
C184 O183 1.182 . S
O185 Zn170 2.080 . S
O185 C188 1.305 . S
O186 Zn169 1.920 . S
O186 C188 1.234 . S
C187 O173 1.305 . S
C187 O174 1.234 . S
C188 O185 1.305 . S
C188 O186 1.234 . S
Zn189 O195 1.920 . S
Zn189 O201 1.898 . S
Zn189 O204 1.905 . S
Zn190 O198 1.905 . S
Zn190 O199 1.898 . S
Zn190 O207 1.920 . S
Zn191 O194 2.080 . S
Zn191 O197 2.114 . S
Zn191 O200 2.120 . S
Zn191 O202 2.120 . S
Zn191 O203 2.114 . S
Zn191 O206 2.080 . S
C192 O197 1.166 . S
C192 O198 1.182 . S
C193 O199 1.167 . S
C193 O200 1.299 . S
O194 Zn191 2.080 . S
O194 C208 1.305 . S
O195 Zn189 1.920 . S
O195 C208 1.234 . S
C196 O201 1.167 . S
C196 O202 1.299 . S
O197 Zn191 2.114 . S
O197 C192 1.166 . S
O198 Zn190 1.905 . S
O198 C192 1.182 . S
O199 Zn190 1.898 . S
O199 C193 1.167 . S
O200 Zn191 2.120 . S
O200 C193 1.299 . S
O201 Zn189 1.898 . S
O201 C196 1.167 . S
O202 Zn191 2.120 . S
O202 C196 1.299 . S
O203 Zn191 2.114 . S
O203 C205 1.166 . S
O204 Zn189 1.905 . S
O204 C205 1.182 . S
C205 O203 1.166 . S
C205 O204 1.182 . S
O206 Zn191 2.080 . S
O206 C209 1.305 . S
O207 Zn190 1.920 . S
O207 C209 1.234 . S
C208 O194 1.305 . S
C208 O195 1.234 . S
C209 O206 1.305 . S
C209 O207 1.234 . S
H210 C218 0.929 . S
H211 C220 0.930 . S
H212 C222 0.930 . S
H213 C225 0.929 . S
H214 C228 0.930 . S
H215 C230 0.960 . S
H216 C230 0.960 . S
H217 C230 0.960 . S
C218 H210 0.929 . S
C218 C219 1.377 . S
C218 C220 1.384 . S
C219 C218 1.377 . S
C219 C225 1.390 . S
C220 H211 0.930 . S
C220 C218 1.384 . S
C220 C221 1.372 . S
C221 C220 1.372 . S
C221 C222 1.400 . S
C221 C226 1.490 . S
C222 H212 0.930 . S
C222 C221 1.400 . S
C222 C225 1.386 . S
H223 C239 0.930 . S
H224 C240 0.931 . S
C225 H213 0.929 . S
C225 C219 1.390 . S
C225 C222 1.386 . S
C226 C221 1.490 . S
C226 C228 1.395 . S
C226 C229 1.403 . S
H227 C233 0.930 . S
C228 H214 0.930 . S
C228 C226 1.395 . S
C228 C231 1.403 . S
C229 C226 1.403 . S
C229 C230 1.524 . S
C229 C233 1.400 . S
C230 H215 0.960 . S
C230 H216 0.960 . S
C230 H217 0.960 . S
C230 C229 1.524 . S
C231 C228 1.403 . S
C231 C232 1.392 . S
C231 C235 1.495 . S
C232 C231 1.392 . S
C232 C233 1.385 . S
C232 C234 1.478 . S
C233 H227 0.930 . S
C233 C229 1.400 . S
C233 C232 1.385 . S
C234 C232 1.478 . S
C234 C236 1.381 . S
C234 C240 1.383 . S
C235 C231 1.495 . S
C235 H241 0.959 . S
C235 H242 0.961 . S
C235 H243 0.960 . S
C236 C234 1.381 . S
C236 C237 1.394 . S
C236 H244 0.930 . S
C237 C236 1.394 . S
C237 C238 1.383 . S
C237 H245 0.929 . S
C238 C237 1.383 . S
C238 C239 1.377 . S
C239 H223 0.930 . S
C239 C238 1.377 . S
C239 C240 1.379 . S
C240 H224 0.931 . S
C240 C234 1.383 . S
C240 C239 1.379 . S
H241 C235 0.959 . S
H242 C235 0.961 . S
H243 C235 0.960 . S
H244 C236 0.930 . S
H245 C237 0.929 . S
H246 C254 0.929 . S
H247 C256 0.930 . S
H248 C258 0.930 . S
H249 C261 0.919 1_565 S
H250 C264 0.930 . S
H251 C266 0.960 . S
H252 C266 0.960 . S
H253 C266 0.960 . S
C254 H246 0.929 . S
C254 C255 1.377 . S
C254 C256 1.384 . S
C255 C254 1.377 . S
C255 C261 1.390 . S
C256 H247 0.930 . S
C256 C254 1.384 . S
C256 C257 1.372 . S
C257 C256 1.372 . S
C257 C258 1.400 . S
C257 C262 1.490 . S
C258 H248 0.930 . S
C258 C257 1.400 . S
C258 C261 1.386 . S
H259 C275 0.930 . S
H260 C276 0.931 . S
C261 H249 0.919 1_545 S
C261 C255 1.390 . S
C261 C258 1.386 . S
C262 C257 1.490 . S
C262 C264 1.395 . S
C262 C265 1.403 . S
H263 C269 0.930 . S
C264 H250 0.930 . S
C264 C262 1.395 . S
C264 C267 1.403 . S
C265 C262 1.403 . S
C265 C266 1.524 . S
C265 C269 1.400 . S
C266 H251 0.960 . S
C266 H252 0.960 . S
C266 H253 0.960 . S
C266 C265 1.524 . S
C267 C264 1.403 . S
C267 C268 1.392 . S
C267 C271 1.495 . S
C268 C267 1.392 . S
C268 C269 1.385 . S
C268 C270 1.478 . S
C269 H263 0.930 . S
C269 C265 1.400 . S
C269 C268 1.385 . S
C270 C268 1.478 . S
C270 C272 1.381 . S
C270 C276 1.383 . S
C271 C267 1.495 . S
C271 H277 0.959 . S
C271 H278 0.961 . S
C271 H279 0.960 . S
C272 C270 1.381 . S
C272 C273 1.394 . S
C272 H280 0.930 . S
C273 C272 1.394 . S
C273 C274 1.383 . S
C273 H281 0.929 . S
C274 C273 1.383 . S
C274 C275 1.377 . S
C275 H259 0.930 . S
C275 C274 1.377 . S
C275 C276 1.379 . S
C276 H260 0.931 . S
C276 C270 1.383 . S
C276 C275 1.379 . S
H277 C271 0.959 . S
H278 C271 0.961 . S
H279 C271 0.960 . S
H280 C272 0.930 . S
H281 C273 0.929 . S
H282 C290 0.929 . S
H283 C292 0.930 . S
H284 C294 0.930 . S
H285 C297 0.929 . S
H286 C300 0.930 . S
H287 C302 0.960 . S
H288 C302 0.960 . S
H289 C302 0.960 . S
C290 H282 0.929 . S
C290 C291 1.377 . S
C290 C292 1.384 . S
C291 C290 1.377 . S
C291 C297 1.390 . S
C292 H283 0.930 . S
C292 C290 1.384 . S
C292 C293 1.372 . S
C293 C292 1.372 . S
C293 C294 1.400 . S
C293 C298 1.490 . S
C294 H284 0.930 . S
C294 C293 1.400 . S
C294 C297 1.386 . S
H295 C311 0.930 . S
H296 C312 0.931 . S
C297 H285 0.929 . S
C297 C291 1.390 . S
C297 C294 1.386 . S
C298 C293 1.490 . S
C298 C300 1.395 . S
C298 C301 1.403 . S
H299 C305 0.930 . S
C300 H286 0.930 . S
C300 C298 1.395 . S
C300 C303 1.403 . S
C301 C298 1.403 . S
C301 C302 1.524 . S
C301 C305 1.400 . S
C302 H287 0.960 . S
C302 H288 0.960 . S
C302 H289 0.960 . S
C302 C301 1.524 . S
C303 C300 1.403 . S
C303 C304 1.392 . S
C303 C307 1.495 . S
C304 C303 1.392 . S
C304 C305 1.385 . S
C304 C306 1.478 . S
C305 H299 0.930 . S
C305 C301 1.400 . S
C305 C304 1.385 . S
C306 C304 1.478 . S
C306 C308 1.381 . S
C306 C312 1.383 . S
C307 C303 1.495 . S
C307 H313 0.959 . S
C307 H314 0.961 . S
C307 H315 0.960 . S
C308 C306 1.381 . S
C308 C309 1.394 . S
C308 H316 0.930 . S
C309 C308 1.394 . S
C309 C310 1.383 . S
C309 H317 0.929 . S
C310 C309 1.383 . S
C310 C311 1.377 . S
C311 H295 0.930 . S
C311 C310 1.377 . S
C311 C312 1.379 . S
C312 H296 0.931 . S
C312 C306 1.383 . S
C312 C311 1.379 . S
H313 C307 0.959 . S
H314 C307 0.961 . S
H315 C307 0.960 . S
H316 C308 0.930 . S
H317 C309 0.929 . S
H318 C326 0.929 . S
H319 C328 0.930 . S
H320 C330 0.930 . S
H321 C333 0.929 . S
H322 C336 0.930 . S
H323 C338 0.960 . S
H324 C338 0.960 . S
H325 C338 0.960 . S
C326 H318 0.929 . S
C326 C327 1.377 . S
C326 C328 1.384 . S
C327 C326 1.377 . S
C327 C333 1.390 . S
C328 H319 0.930 . S
C328 C326 1.384 . S
C328 C329 1.372 . S
C329 C328 1.372 . S
C329 C330 1.400 . S
C329 C334 1.490 . S
C330 H320 0.930 . S
C330 C329 1.400 . S
C330 C333 1.386 . S
H331 C347 0.930 . S
H332 C348 0.931 . S
C333 H321 0.929 . S
C333 C327 1.390 . S
C333 C330 1.386 . S
C334 C329 1.490 . S
C334 C336 1.395 . S
C334 C337 1.403 . S
H335 C341 0.930 . S
C336 H322 0.930 . S
C336 C334 1.395 . S
C336 C339 1.403 . S
C337 C334 1.403 . S
C337 C338 1.524 . S
C337 C341 1.400 . S
C338 H323 0.960 . S
C338 H324 0.960 . S
C338 H325 0.960 . S
C338 C337 1.524 . S
C339 C336 1.403 . S
C339 C340 1.392 . S
C339 C343 1.495 . S
C340 C339 1.392 . S
C340 C341 1.385 . S
C340 C342 1.478 . S
C341 H335 0.930 . S
C341 C337 1.400 . S
C341 C340 1.385 . S
C342 C340 1.478 . S
C342 C344 1.381 . S
C342 C348 1.383 . S
C343 C339 1.495 . S
C343 H349 0.959 . S
C343 H350 0.961 . S
C343 H351 0.960 . S
C344 C342 1.381 . S
C344 C345 1.394 . S
C344 H352 0.930 . S
C345 C344 1.394 . S
C345 C346 1.383 . S
C345 H353 0.929 . S
C346 C345 1.383 . S
C346 C347 1.377 . S
C347 H331 0.930 . S
C347 C346 1.377 . S
C347 C348 1.379 . S
C348 H332 0.931 . S
C348 C342 1.383 . S
C348 C347 1.379 . S
H349 C343 0.959 . S
H350 C343 0.961 . S
H351 C343 0.960 . S
H352 C344 0.930 . S
H353 C345 0.929 . S
H354 C362 0.929 1_545 S
H355 C364 0.930 . S
H356 C366 0.930 . S
H357 C369 0.929 . S
H358 C372 0.930 . S
H359 C374 0.960 . S
H360 C374 0.960 . S
H361 C374 0.960 . S
C362 H354 0.929 1_565 S
C362 C363 1.377 . S
C362 C364 1.384 . S
C363 C362 1.377 . S
C363 C369 1.390 . S
C364 H355 0.930 . S
C364 C362 1.384 . S
C364 C365 1.372 . S
C365 C364 1.372 . S
C365 C366 1.400 . S
C365 C370 1.490 . S
C366 H356 0.930 . S
C366 C365 1.400 . S
C366 C369 1.386 . S
H367 C383 0.930 . S
H368 C384 0.931 . S
C369 H357 0.929 . S
C369 C363 1.390 . S
C369 C366 1.386 . S
C370 C365 1.490 . S
C370 C372 1.395 . S
C370 C373 1.403 . S
H371 C377 0.930 . S
C372 H358 0.930 . S
C372 C370 1.395 . S
C372 C375 1.403 . S
C373 C370 1.403 . S
C373 C374 1.524 . S
C373 C377 1.400 . S
C374 H359 0.960 . S
C374 H360 0.960 . S
C374 H361 0.960 . S
C374 C373 1.524 . S
C375 C372 1.403 . S
C375 C376 1.392 . S
C375 C379 1.495 . S
C376 C375 1.392 . S
C376 C377 1.385 . S
C376 C378 1.478 . S
C377 H371 0.930 . S
C377 C373 1.400 . S
C377 C376 1.385 . S
C378 C376 1.478 . S
C378 C380 1.381 . S
C378 C384 1.383 . S
C379 C375 1.495 . S
C379 H385 0.959 . S
C379 H386 0.961 . S
C379 H387 0.960 . S
C380 C378 1.381 . S
C380 C381 1.394 . S
C380 H388 0.930 . S
C381 C380 1.394 . S
C381 C382 1.383 . S
C381 H389 0.929 . S
C382 C381 1.383 . S
C382 C383 1.377 . S
C383 H367 0.930 . S
C383 C382 1.377 . S
C383 C384 1.379 . S
C384 H368 0.931 . S
C384 C378 1.383 . S
C384 C383 1.379 . S
H385 C379 0.959 . S
H386 C379 0.961 . S
H387 C379 0.960 . S
H388 C380 0.930 . S
H389 C381 0.929 . S
H390 C398 0.929 1_455 S
H391 C400 0.930 . S
H392 C402 0.930 . S
H393 C405 0.929 . S
H394 C408 0.930 . S
H395 C410 0.960 . S
H396 C410 0.960 . S
H397 C410 0.960 . S
C398 H390 0.929 1_655 S
C398 C399 1.377 . S
C398 C400 1.384 . S
C399 C398 1.377 . S
C399 C405 1.390 . S
C400 H391 0.930 . S
C400 C398 1.384 . S
C400 C401 1.372 . S
C401 C400 1.372 . S
C401 C402 1.400 . S
C401 C406 1.490 . S
C402 H392 0.930 . S
C402 C401 1.400 . S
C402 C405 1.386 . S
H403 C419 0.930 . S
H404 C420 0.931 . S
C405 H393 0.929 . S
C405 C399 1.390 . S
C405 C402 1.386 . S
C406 C401 1.490 . S
C406 C408 1.395 . S
C406 C409 1.403 . S
H407 C413 0.930 . S
C408 H394 0.930 . S
C408 C406 1.395 . S
C408 C411 1.403 . S
C409 C406 1.403 . S
C409 C410 1.524 . S
C409 C413 1.400 . S
C410 H395 0.960 . S
C410 H396 0.960 . S
C410 H397 0.960 . S
C410 C409 1.524 . S
C411 C408 1.403 . S
C411 C412 1.392 . S
C411 C415 1.495 . S
C412 C411 1.392 . S
C412 C413 1.385 . S
C412 C414 1.478 . S
C413 H407 0.930 . S
C413 C409 1.400 . S
C413 C412 1.385 . S
C414 C412 1.478 . S
C414 C416 1.381 . S
C414 C420 1.383 . S
C415 C411 1.495 . S
C415 H421 0.959 . S
C415 H422 0.961 . S
C415 H423 0.960 . S
C416 C414 1.381 . S
C416 C417 1.394 . S
C416 H424 0.930 . S
C417 C416 1.394 . S
C417 C418 1.383 . S
C417 H425 0.929 . S
C418 C417 1.383 . S
C418 C419 1.377 . S
C419 H403 0.930 . S
C419 C418 1.377 . S
C419 C420 1.379 . S
C420 H404 0.931 . S
C420 C414 1.383 . S
C420 C419 1.379 . S
H421 C415 0.959 . S
H422 C415 0.961 . S
H423 C415 0.960 . S
H424 C416 0.930 . S
H425 C417 0.929 . S
H426 C434 0.929 . S
H427 C436 0.930 . S
H428 C438 0.930 . S
H429 C441 0.929 . S
H430 C444 0.930 . S
H431 C446 0.960 . S
H432 C446 0.960 . S
H433 C446 0.960 . S
C434 H426 0.929 . S
C434 C435 1.377 . S
C434 C436 1.384 . S
C435 C434 1.377 . S
C435 C441 1.390 . S
C436 H427 0.930 . S
C436 C434 1.384 . S
C436 C437 1.372 . S
C437 C436 1.372 . S
C437 C438 1.400 . S
C437 C442 1.490 . S
C438 H428 0.930 . S
C438 C437 1.400 . S
C438 C441 1.386 . S
H439 C455 0.930 . S
H440 C456 0.931 . S
C441 H429 0.929 . S
C441 C435 1.390 . S
C441 C438 1.386 . S
C442 C437 1.490 . S
C442 C444 1.395 . S
C442 C445 1.403 . S
H443 C449 0.930 . S
C444 H430 0.930 . S
C444 C442 1.395 . S
C444 C447 1.403 . S
C445 C442 1.403 . S
C445 C446 1.524 . S
C445 C449 1.400 . S
C446 H431 0.960 . S
C446 H432 0.960 . S
C446 H433 0.960 . S
C446 C445 1.524 . S
C447 C444 1.403 . S
C447 C448 1.392 . S
C447 C451 1.495 . S
C448 C447 1.392 . S
C448 C449 1.385 . S
C448 C450 1.478 . S
C449 H443 0.930 . S
C449 C445 1.400 . S
C449 C448 1.385 . S
C450 C448 1.478 . S
C450 C452 1.381 . S
C450 C456 1.383 . S
C451 C447 1.495 . S
C451 H457 0.959 . S
C451 H458 0.961 . S
C451 H459 0.960 . S
C452 C450 1.381 . S
C452 C453 1.394 . S
C452 H460 0.930 . S
C453 C452 1.394 . S
C453 C454 1.383 . S
C453 H461 0.929 . S
C454 C453 1.383 . S
C454 C455 1.377 . S
C455 H439 0.930 . S
C455 C454 1.377 . S
C455 C456 1.379 . S
C456 H440 0.931 . S
C456 C450 1.383 . S
C456 C455 1.379 . S
H457 C451 0.959 . S
H458 C451 0.961 . S
H459 C451 0.960 . S
H460 C452 0.930 . S
H461 C453 0.929 . S
H462 C470 0.929 1_565 S
H463 C472 0.930 . S
H464 C474 0.930 . S
H465 C477 0.929 . S
H466 C480 0.930 . S
H467 C482 0.960 . S
H468 C482 0.960 . S
H469 C482 0.960 . S
C470 H462 0.929 1_545 S
C470 C471 1.377 . S
C470 C472 1.384 . S
C471 C470 1.377 . S
C471 C477 1.390 . S
C472 H463 0.930 . S
C472 C470 1.384 . S
C472 C473 1.372 . S
C473 C472 1.372 . S
C473 C474 1.400 . S
C473 C478 1.490 . S
C474 H464 0.930 . S
C474 C473 1.400 . S
C474 C477 1.386 . S
H475 C491 0.930 . S
H476 C492 0.931 . S
C477 H465 0.929 . S
C477 C471 1.390 . S
C477 C474 1.386 . S
C478 C473 1.490 . S
C478 C480 1.395 . S
C478 C481 1.403 . S
H479 C485 0.930 . S
C480 H466 0.930 . S
C480 C478 1.395 . S
C480 C483 1.403 . S
C481 C478 1.403 . S
C481 C482 1.524 . S
C481 C485 1.400 . S
C482 H467 0.960 . S
C482 H468 0.960 . S
C482 H469 0.960 . S
C482 C481 1.524 . S
C483 C480 1.403 . S
C483 C484 1.392 . S
C483 C487 1.495 . S
C484 C483 1.392 . S
C484 C485 1.385 . S
C484 C486 1.478 . S
C485 H479 0.930 . S
C485 C481 1.400 . S
C485 C484 1.385 . S
C486 C484 1.478 . S
C486 C488 1.381 . S
C486 C492 1.383 . S
C487 C483 1.495 . S
C487 H493 0.959 . S
C487 H494 0.961 . S
C487 H495 0.960 . S
C488 C486 1.381 . S
C488 C489 1.394 . S
C488 H496 0.930 . S
C489 C488 1.394 . S
C489 C490 1.383 . S
C489 H497 0.929 . S
C490 C489 1.383 . S
C490 C491 1.377 . S
C491 H475 0.930 . S
C491 C490 1.377 . S
C491 C492 1.379 . S
C492 H476 0.931 . S
C492 C486 1.383 . S
C492 C491 1.379 . S
H493 C487 0.959 . S
H494 C487 0.961 . S
H495 C487 0.960 . S
H496 C488 0.930 . S
H497 C489 0.929 . S
H498 C506 0.929 . S
H499 C508 0.930 . S
H500 C510 0.930 . S
H501 C513 0.929 . S
H502 C516 0.930 . S
H503 C518 0.960 . S
H504 C518 0.960 . S
H505 C518 0.960 . S
C506 H498 0.929 . S
C506 C507 1.377 . S
C506 C508 1.384 . S
C507 C506 1.377 . S
C507 C513 1.390 . S
C508 H499 0.930 . S
C508 C506 1.384 . S
C508 C509 1.372 . S
C509 C508 1.372 . S
C509 C510 1.400 . S
C509 C514 1.490 . S
C510 H500 0.930 . S
C510 C509 1.400 . S
C510 C513 1.386 . S
H511 C527 0.930 . S
H512 C528 0.931 . S
C513 H501 0.929 . S
C513 C507 1.390 . S
C513 C510 1.386 . S
C514 C509 1.490 . S
C514 C516 1.395 . S
C514 C517 1.403 . S
H515 C521 0.930 . S
C516 H502 0.930 . S
C516 C514 1.395 . S
C516 C519 1.403 . S
C517 C514 1.403 . S
C517 C518 1.524 . S
C517 C521 1.400 . S
C518 H503 0.960 . S
C518 H504 0.960 . S
C518 H505 0.960 . S
C518 C517 1.524 . S
C519 C516 1.403 . S
C519 C520 1.392 . S
C519 C523 1.495 . S
C520 C519 1.392 . S
C520 C521 1.385 . S
C520 C522 1.478 . S
C521 H515 0.930 . S
C521 C517 1.400 . S
C521 C520 1.385 . S
C522 C520 1.478 . S
C522 C524 1.381 . S
C522 C528 1.383 . S
C523 C519 1.495 . S
C523 H529 0.959 . S
C523 H530 0.961 . S
C523 H531 0.960 . S
C524 C522 1.381 . S
C524 C525 1.394 . S
C524 H532 0.930 . S
C525 C524 1.394 . S
C525 C526 1.383 . S
C525 H533 0.929 . S
C526 C525 1.383 . S
C526 C527 1.377 . S
C527 H511 0.930 . S
C527 C526 1.377 . S
C527 C528 1.379 . S
C528 H512 0.931 . S
C528 C522 1.383 . S
C528 C527 1.379 . S
H529 C523 0.959 . S
H530 C523 0.961 . S
H531 C523 0.960 . S
H532 C524 0.930 . S
H533 C525 0.929 . S
H534 C542 0.929 . S
H535 C544 0.930 . S
H536 C546 0.930 . S
H537 C549 0.929 . S
H538 C552 0.930 . S
H539 C554 0.960 . S
H540 C554 0.960 . S
H541 C554 0.960 . S
C542 H534 0.929 . S
C542 C543 1.377 . S
C542 C544 1.384 . S
C543 C542 1.377 . S
C543 C549 1.390 . S
C544 H535 0.930 . S
C544 C542 1.384 . S
C544 C545 1.372 . S
C545 C544 1.372 . S
C545 C546 1.400 . S
C545 C550 1.490 . S
C546 H536 0.930 . S
C546 C545 1.400 . S
C546 C549 1.386 . S
H547 C563 0.930 . S
H548 C564 0.931 . S
C549 H537 0.929 . S
C549 C543 1.390 . S
C549 C546 1.386 . S
C550 C545 1.490 . S
C550 C552 1.395 . S
C550 C553 1.403 . S
H551 C557 0.930 . S
C552 H538 0.930 . S
C552 C550 1.395 . S
C552 C555 1.403 . S
C553 C550 1.403 . S
C553 C554 1.524 . S
C553 C557 1.400 . S
C554 H539 0.960 . S
C554 H540 0.960 . S
C554 H541 0.960 . S
C554 C553 1.524 . S
C555 C552 1.403 . S
C555 C556 1.392 . S
C555 C559 1.495 . S
C556 C555 1.392 . S
C556 C557 1.385 . S
C556 C558 1.478 . S
C557 H551 0.930 . S
C557 C553 1.400 . S
C557 C556 1.385 . S
C558 C556 1.478 . S
C558 C560 1.381 . S
C558 C564 1.383 . S
C559 C555 1.495 . S
C559 H565 0.959 . S
C559 H566 0.961 . S
C559 H567 0.960 . S
C560 C558 1.381 . S
C560 C561 1.394 . S
C560 H568 0.930 . S
C561 C560 1.394 . S
C561 C562 1.383 . S
C561 H569 0.929 . S
C562 C561 1.383 . S
C562 C563 1.377 . S
C563 H547 0.930 . S
C563 C562 1.377 . S
C563 C564 1.379 . S
C564 H548 0.931 . S
C564 C558 1.383 . S
C564 C563 1.379 . S
H565 C559 0.959 . S
H566 C559 0.961 . S
H567 C559 0.960 . S
H568 C560 0.930 . S
H569 C561 0.929 . S
H570 C578 0.929 . S
H571 C580 0.930 . S
H572 C582 0.930 . S
H573 C585 0.929 . S
H574 C588 0.930 . S
H575 C590 0.960 . S
H576 C590 0.960 . S
H577 C590 0.960 . S
C578 H570 0.929 . S
C578 C579 1.377 . S
C578 C580 1.384 . S
C579 C578 1.377 . S
C579 C585 1.390 . S
C580 H571 0.930 . S
C580 C578 1.384 . S
C580 C581 1.372 . S
C581 C580 1.372 . S
C581 C582 1.400 . S
C581 C586 1.490 . S
C582 H572 0.930 . S
C582 C581 1.400 . S
C582 C585 1.386 . S
H583 C599 0.930 . S
H584 C600 0.931 . S
C585 H573 0.929 . S
C585 C579 1.390 . S
C585 C582 1.386 . S
C586 C581 1.490 . S
C586 C588 1.395 . S
C586 C589 1.403 . S
H587 C593 0.930 . S
C588 H574 0.930 . S
C588 C586 1.395 . S
C588 C591 1.403 . S
C589 C586 1.403 . S
C589 C590 1.524 . S
C589 C593 1.400 . S
C590 H575 0.960 . S
C590 H576 0.960 . S
C590 H577 0.960 . S
C590 C589 1.524 . S
C591 C588 1.403 . S
C591 C592 1.392 . S
C591 C595 1.495 . S
C592 C591 1.392 . S
C592 C593 1.385 . S
C592 C594 1.478 . S
C593 H587 0.930 . S
C593 C589 1.400 . S
C593 C592 1.385 . S
C594 C592 1.478 . S
C594 C596 1.381 . S
C594 C600 1.383 . S
C595 C591 1.495 . S
C595 H601 0.959 . S
C595 H602 0.961 . S
C595 H603 0.960 . S
C596 C594 1.381 . S
C596 C597 1.394 . S
C596 H604 0.930 . S
C597 C596 1.394 . S
C597 C598 1.383 . S
C597 H605 0.929 . S
C598 C597 1.383 . S
C598 C599 1.377 . S
C599 H583 0.930 . S
C599 C598 1.377 . S
C599 C600 1.379 . S
C600 H584 0.931 . S
C600 C594 1.383 . S
C600 C599 1.379 . S
H601 C595 0.959 . S
H602 C595 0.961 . S
H603 C595 0.960 . S
H604 C596 0.930 . S
H605 C597 0.929 . S
H606 C614 0.929 . S
H607 C616 0.930 . S
H608 C618 0.930 . S
H609 C621 0.929 1_455 S
H610 C624 0.930 . S
H611 C626 0.960 . S
H612 C626 0.960 . S
H613 C626 0.960 . S
C614 H606 0.929 . S
C614 C615 1.377 . S
C614 C616 1.384 . S
C615 C614 1.377 . S
C615 C621 1.390 . S
C616 H607 0.930 . S
C616 C614 1.384 . S
C616 C617 1.372 . S
C617 C616 1.372 . S
C617 C618 1.400 . S
C617 C622 1.490 . S
C618 H608 0.930 . S
C618 C617 1.400 . S
C618 C621 1.386 . S
H619 C635 0.930 . S
H620 C636 0.931 . S
C621 H609 0.929 1_655 S
C621 C615 1.390 . S
C621 C618 1.386 . S
C622 C617 1.490 . S
C622 C624 1.395 . S
C622 C625 1.403 . S
H623 C629 0.930 . S
C624 H610 0.930 . S
C624 C622 1.395 . S
C624 C627 1.403 . S
C625 C622 1.403 . S
C625 C626 1.524 . S
C625 C629 1.400 . S
C626 H611 0.960 . S
C626 H612 0.960 . S
C626 H613 0.960 . S
C626 C625 1.524 . S
C627 C624 1.403 . S
C627 C628 1.392 . S
C627 C631 1.495 . S
C628 C627 1.392 . S
C628 C629 1.385 . S
C628 C630 1.478 . S
C629 H623 0.930 . S
C629 C625 1.400 . S
C629 C628 1.385 . S
C630 C628 1.478 . S
C630 C632 1.381 . S
C630 C636 1.383 . S
C631 C627 1.495 . S
C631 H637 0.959 . S
C631 H638 0.961 . S
C631 H639 0.960 . S
C632 C630 1.381 . S
C632 C633 1.394 . S
C632 H640 0.930 . S
C633 C632 1.394 . S
C633 C634 1.383 . S
C633 H641 0.929 . S
C634 C633 1.383 . S
C634 C635 1.377 . S
C635 H619 0.930 . S
C635 C634 1.377 . S
C635 C636 1.379 . S
C636 H620 0.931 . S
C636 C630 1.383 . S
C636 C635 1.379 . S
H637 C631 0.959 . S
H638 C631 0.961 . S
H639 C631 0.960 . S
H640 C632 0.930 . S
H641 C633 0.929 . S
C219 C58 1.139 . S
C238 C187 1.200 . S
C255 C151 1.547 . S
C274 C193 1.457 . S
C291 C74 1.529 . S
C310 C184 1.423 . S
C327 C142 1.146 . S
C346 C209 1.241 . S
C363 C67 1.550 . S
C382 C175 1.392 . S
C418 C192 1.471 . S
C399 C158 1.531 . S
C435 C154 1.141 . S
C454 C188 1.238 . S
C490 C205 1.505 . S
C471 C56 1.556 . S
C526 C172 1.426 . S
C507 C147 1.527 . S
C562 C208 1.213 . S
C543 C70 1.121 . S
C598 C171 1.478 . S
C579 C140 1.563 . S
C634 C196 1.410 . S
C615 C63 1.527 . S
