# Generated by pormake.
# Topology pth, (4,4)-cn, num edge types: 1
# Building blocks:
#     Node 0, Type 0, BuildingBlock: NAHDIM_clean_sbu_0, # of connection points: 4
#     Node 1, Type 0, BuildingBlock: NAHDIM_clean_sbu_0, # of connection points: 4
#     Node 2, Type 0, BuildingBlock: NAHDIM_clean_sbu_0, # of connection points: 4
#     Node 3, Type 1, BuildingBlock: NAWXER_clean_sbu_0, # of connection points: 4
#     Node 4, Type 1, BuildingBlock: NAWXER_clean_sbu_0, # of connection points: 4
#     Node 5, Type 1, BuildingBlock: NAWXER_clean_sbu_0, # of connection points: 4
#     Edge 6, Type (0, 1), BuildingBlock: XIVTED_clean_linker_0, # of connection points: 2
#     Edge 7, Type (0, 1), BuildingBlock: XIVTED_clean_linker_0, # of connection points: 2
#     Edge 8, Type (0, 1), BuildingBlock: XIVTED_clean_linker_0, # of connection points: 2
#     Edge 9, Type (0, 1), BuildingBlock: XIVTED_clean_linker_0, # of connection points: 2
#     Edge 10, Type (0, 1), BuildingBlock: XIVTED_clean_linker_0, # of connection points: 2
#     Edge 11, Type (0, 1), BuildingBlock: XIVTED_clean_linker_0, # of connection points: 2
#     Edge 12, Type (0, 1), BuildingBlock: XIVTED_clean_linker_0, # of connection points: 2
#     Edge 13, Type (0, 1), BuildingBlock: XIVTED_clean_linker_0, # of connection points: 2
#     Edge 14, Type (0, 1), BuildingBlock: XIVTED_clean_linker_0, # of connection points: 2
#     Edge 15, Type (0, 1), BuildingBlock: XIVTED_clean_linker_0, # of connection points: 2
#     Edge 16, Type (0, 1), BuildingBlock: XIVTED_clean_linker_0, # of connection points: 2
#     Edge 17, Type (0, 1), BuildingBlock: XIVTED_clean_linker_0, # of connection points: 2
# Relax obj value: 0.052
# Max RMSD: 0.176
# Mean RMSD: 0.101
data_MOF--net-pth--node1-NAHDIM_clean_sbu_0--node2-NAWXER_clean_sbu_0--edge1-XIVTED_clean_linker_0
_symmetry_space_group_name_H-M    P1
_symmetry_Int_Tables_number       1
_symmetry_cell_setting            triclinic
loop_
_symmetry_equiv_pos_as_xyz
'x, y, z'
_cell_length_a     23.245992
_cell_length_b     23.421681
_cell_length_c     57.272403
_cell_angle_alpha  92.156259
_cell_angle_beta   89.949041
_cell_angle_gamma 120.81786
loop_
_atom_site_label
_atom_site_type_symbol
_atom_site_fract_x
_atom_site_fract_y
_atom_site_fract_z
_atom_type_partial_charge
C0 C 0.99186 0.95776 0.10313 0.0
O1 O 0.94121 0.96747 0.10118 0.0
O2 O 0.02172 0.11872 0.09261 0.0
Zn3 Zn 0.03231 0.05485 0.07118 0.0
O4 O 0.95396 0.99266 0.04995 0.0
C5 C 0.09409 0.14485 0.03682 0.0
O6 O 0.03207 0.13199 0.03639 0.0
O7 O 0.04458 0.9937 0.09168 0.0
C8 C 0.96687 0.95308 0.03843 0.0
O9 O 0.02645 0.9603 0.04101 0.0
C10 C 0.98527 0.14405 0.09023 0.0
O11 O 0.94226 0.12389 0.07258 0.0
O12 O 0.10977 0.11365 0.05078 0.0
C13 C 0.02066 0.1595 0.36877 0.0
O14 O 0.9713 0.09806 0.37109 0.0
O15 O 0.05207 0.03062 0.37766 0.0
Zn16 Zn 0.06702 0.1061 0.3997 0.0
O17 O 0.99185 0.08901 0.42132 0.0
C18 C 0.13186 0.07529 0.43221 0.0
O19 O 0.0693 0.02614 0.43207 0.0
O20 O 0.07579 0.17911 0.37974 0.0
C21 C 0.00631 0.14052 0.4341 0.0
O22 O 0.06628 0.19359 0.43268 0.0
C23 C 0.01279 0.96846 0.37924 0.0
O24 O 0.96994 0.94623 0.39633 0.0
O25 O 0.14718 0.12441 0.41949 0.0
C26 C 0.124 0.05285 0.70056 0.0
O27 O 0.11041 0.10047 0.70403 0.0
O28 O 0.95922 0.01648 0.70881 0.0
Zn29 Zn 0.01977 0.0041 0.73042 0.0
O30 O 0.07637 0.08044 0.7533 0.0
C31 C 0.91966 0.93796 0.76136 0.0
O32 O 0.92804 -0.00224 0.76072 0.0
O33 O 0.0875 -0.00232 0.71021 0.0
C34 C 0.11553 0.06924 0.76521 0.0
O35 O 0.11119 0.01123 0.76227 0.0
C36 C 0.9415 0.05947 0.71033 0.0
O37 O 0.96671 0.10585 0.72719 0.0
O38 O 0.95771 0.92487 0.74917 0.0
C39 C 0.06147 0.66044 0.26667 0.0
C40 C 0.0554 0.51054 0.20313 0.0
O41 O 0.1131 0.66724 0.25634 0.0
Zn42 Zn 0.06527 0.58886 0.23493 0.0
O43 O 0.00314 0.61298 0.26023 0.0
Zn44 Zn 0.95518 0.53189 0.23575 0.0
O45 O 0.9129 0.45625 0.25633 0.0
O46 O 0.02355 0.51096 0.25833 0.0
O47 O -0.00168 0.49819 0.21045 0.0
O48 O 0.10896 0.55799 0.21273 0.0
O49 O 0.01609 0.61994 0.21233 0.0
O50 O 0.9062 0.56047 0.21597 0.0
C51 C 0.96702 0.46435 0.2652 0.0
C52 C 0.9575 0.60706 0.20636 0.0
C53 C 0.60483 0.03181 0.59462 0.0
C54 C 0.46096 0.03845 0.53328 0.0
O55 O 0.5601 0.98094 0.58286 0.0
Zn56 Zn 0.53033 0.02878 0.56353 0.0
O57 O 0.61588 0.0897 0.59023 0.0
Zn58 Zn 0.58298 0.13757 0.56793 0.0
O59 O 0.54761 0.17653 0.59049 0.0
O60 O 0.49114 0.06655 0.58889 0.0
O61 O 0.50557 0.09514 0.54217 0.0
O62 O 0.45603 0.98549 0.54068 0.0
O63 O 0.61341 0.081 0.54197 0.0
O64 O 0.66288 0.18953 0.54923 0.0
C65 C 0.50038 0.12161 0.59778 0.0
C66 C 0.6598 0.14023 0.53781 0.0
C67 C 0.4305 0.48223 0.93159 0.0
C68 C 0.57508 0.61857 0.86915 0.0
O69 O 0.42483 0.5266 0.9214 0.0
Zn70 Zn 0.49987 0.55314 0.90034 0.0
O71 O 0.47618 0.46999 0.92544 0.0
Zn72 Zn 0.55475 0.50053 0.90133 0.0
O73 O 0.6335 0.53667 0.92221 0.0
O74 O 0.58276 0.59468 0.9239 0.0
O75 O 0.58783 0.57512 0.87642 0.0
O76 O 0.52806 0.62405 0.87831 0.0
O77 O 0.46245 0.46782 0.87772 0.0
O78 O 0.52207 0.41945 0.8814 0.0
C79 C 0.62959 0.5855 0.93085 0.0
C80 C 0.47343 0.42107 0.87186 0.0
H81 H 0.9177 0.21174 0.09112 0.0
H82 H 0.14784 0.47236 0.19401 0.0
H83 H 0.08134 0.20711 0.12478 0.0
H84 H 0.96244 0.44974 0.16844 0.0
H85 H 0.13444 0.38596 0.16493 0.0
H86 H 0.94192 0.30847 0.11628 0.0
C87 C 0.95853 0.23086 0.10384 0.0
C88 C -0.00285 0.2009 0.10593 0.0
C89 C 0.09713 0.40054 0.1656 0.0
C90 C 0.02578 0.31216 0.13463 0.0
C91 C 0.10514 0.45014 0.18201 0.0
C92 C 0.05589 0.46759 0.18372 0.0
C93 C 0.03988 0.36906 0.15078 0.0
C94 C 0.00119 0.43707 0.16789 0.0
C95 C 0.97254 0.28625 0.11816 0.0
C96 C 0.04986 0.22825 0.12265 0.0
N97 N -0.00549 0.38918 0.1522 0.0
N98 N 0.06261 0.28229 0.13634 0.0
H99 H 0.02415 0.2422 0.46414 0.0
H100 H 0.64142 0.05351 0.50205 0.0
H101 H 0.87358 0.04575 0.43809 0.0
H102 H 0.79055 0.24335 0.53337 0.0
H103 H 0.72508 0.05599 0.47607 0.0
H104 H 0.93951 0.24797 0.48777 0.0
C105 C 0.97331 0.20015 0.46342 0.0
C106 C 0.95594 0.14321 0.44914 0.0
C107 C 0.73978 0.09741 0.48849 0.0
C108 C 0.85881 0.14993 0.47603 0.0
C109 C 0.69191 0.09616 0.50334 0.0
C110 C 0.70925 0.14805 0.52008 0.0
C111 C 0.80601 0.15081 0.49036 0.0
C112 C 0.77517 0.20236 0.52071 0.0
C113 C 0.92503 0.20365 0.47689 0.0
C114 C 0.88933 0.09046 0.44889 0.0
N115 N 0.82152 0.20205 0.50618 0.0
N116 N 0.84326 0.09516 0.46212 0.0
H117 H 0.88781 0.8095 0.7685 0.0
H118 H 0.58801 0.73613 0.85527 0.0
H119 H 0.82786 0.95188 0.78666 0.0
H120 H 0.66001 0.60131 0.84121 0.0
H121 H 0.66843 0.81205 0.82728 0.0
H122 H 0.79802 0.72869 0.79266 0.0
C123 C 0.85581 0.82374 0.77753 0.0
C124 C 0.86569 0.88765 0.77566 0.0
C125 C 0.66622 0.7656 0.83026 0.0
C126 C 0.76271 0.79555 0.80325 0.0
C127 C 0.62014 0.7222 0.84614 0.0
C128 C 0.61772 0.66265 0.85076 0.0
C129 C 0.70981 0.74902 0.81891 0.0
C130 C 0.66059 0.64707 0.83844 0.0
C131 C 0.80449 0.77763 0.79131 0.0
C132 C 0.82244 0.90331 0.78769 0.0
N133 N 0.70496 0.69004 0.82321 0.0
N134 N 0.77302 0.8577 0.80098 0.0
H135 H 0.08089 0.915 0.10825 0.0
H136 H 0.85713 0.6352 0.19874 0.0
H137 H 0.8869 0.87615 0.13036 0.0
H138 H 0.04866 0.67456 0.17361 0.0
H139 H 0.86225 0.71803 0.17222 0.0
H140 H 0.06679 0.82325 0.13129 0.0
C141 C 0.03544 0.88732 0.118 0.0
C142 C 0.98521 0.9035 0.11745 0.0
C143 C 0.90278 0.70794 0.17243 0.0
C144 C 0.96834 0.79796 0.14383 0.0
C145 C 0.89958 0.66044 0.18743 0.0
C146 C 0.95285 0.64864 0.18856 0.0
C147 C 0.9595 0.7433 0.15854 0.0
C148 C 0.00689 0.68282 0.17359 0.0
C149 C 0.02718 0.83467 0.1311 0.0
C150 C 0.92706 0.86553 0.13033 0.0
N151 N 0.00899 0.72872 0.15938 0.0
N152 N 0.92027 0.81464 0.14305 0.0
H153 H 0.26689 0.16619 0.43744 0.0
H154 H 0.33533 0.93544 0.51948 0.0
H155 H 0.11302 0.97116 0.45762 0.0
H156 H 0.48179 0.13965 0.5062 0.0
H157 H 0.2561 0.94242 0.49307 0.0
H158 H 0.34938 0.15323 0.45955 0.0
C159 C 0.25045 0.12079 0.44653 0.0
C160 C 0.18292 0.06996 0.44579 0.0
C161 C 0.30583 0.98549 0.49584 0.0
C162 C 0.2769 0.0544 0.47093 0.0
C163 C 0.35108 0.98129 0.51077 0.0
C164 C 0.41488 0.03718 0.51522 0.0
C165 C 0.32488 0.04584 0.48526 0.0
C166 C 0.43274 0.09554 0.50353 0.0
C167 C 0.29751 0.11326 0.4591 0.0
C168 C 0.16448 0.01192 0.45781 0.0
N169 N 0.38796 0.09843 0.48922 0.0
N170 N 0.21112 0.00577 0.46987 0.0
H171 H 0.1449 0.1975 0.77378 0.0
H172 H 0.45428 0.296 0.86156 0.0
H173 H 0.20739 0.05989 0.79202 0.0
H174 H 0.38609 0.42871 0.84271 0.0
H175 H 0.36789 0.20946 0.83501 0.0
H176 H 0.23574 0.2836 0.79852 0.0
C177 C 0.17754 0.18531 0.78306 0.0
C178 C 0.16841 0.12139 0.78085 0.0
C179 C 0.37226 0.25774 0.83667 0.0
C180 C 0.27297 0.21984 0.80913 0.0
C181 C 0.42174 0.30713 0.8517 0.0
C182 C 0.42709 0.36944 0.8545 0.0
C183 C 0.32831 0.27115 0.82439 0.0
C184 C 0.38346 0.3812 0.84134 0.0
C185 C 0.22962 0.23455 0.79714 0.0
C186 C 0.2125 0.10852 0.79323 0.0
N187 N 0.33596 0.33258 0.827 0.0
N188 N 0.26287 0.15729 0.80684 0.0
H189 H 0.88909 0.14071 0.70822 0.0
H190 H 0.63438 0.93313 0.60133 0.0
H191 H 0.87409 0.96435 0.67545 0.0
H192 H 0.66894 0.121 0.63053 0.0
H193 H 0.7137 0.93656 0.63063 0.0
H194 H 0.80105 0.12837 0.68163 0.0
C195 C 0.86743 0.09949 0.69541 0.0
C196 C 0.88932 0.05378 0.69401 0.0
C197 C 0.70342 0.97673 0.63064 0.0
C198 C 0.78803 0.03895 0.66354 0.0
C199 C 0.65793 0.97451 0.61405 0.0
C200 C 0.64565 0.02713 0.61336 0.0
C201 C 0.7361 0.03167 0.64665 0.0
C202 C 0.67759 0.07974 0.63019 0.0
C203 C 0.81699 0.0923 0.68024 0.0
C204 C 0.85903 0.00104 0.6771 0.0
N205 N 0.72138 0.08076 0.64602 0.0
N206 N 0.80999 0.99509 0.66251 0.0
H207 H 0.83733 0.92029 0.02916 0.0
H208 H 0.75323 0.60541 0.944 0.0
H209 H 0.98013 0.85934 0.01322 0.0
H210 H 0.61713 0.67613 0.95784 0.0
H211 H 0.83532 0.69346 0.97117 0.0
H212 H 0.75404 0.82693 0.00438 0.0
C213 C 0.8512 0.88739 0.02042 0.0
C214 C 0.91583 0.89782 0.02321 0.0
C215 C 0.78728 0.68932 0.96827 0.0
C216 C 0.82075 0.79058 0.99491 0.0
C217 C 0.74042 0.63894 0.95287 0.0
C218 C 0.67851 0.63371 0.94849 0.0
C219 C 0.77175 0.73432 0.97937 0.0
C220 C 0.66449 0.67859 0.96044 0.0
C221 C 0.80363 0.83396 0.00631 0.0
C222 C 0.93094 0.85336 0.01152 0.0
N223 N 0.7107 0.72695 0.97521 0.0
N224 N 0.88381 0.80175 -0.00212 0.0
H225 H 0.94155 0.83198 0.3778 0.0
H226 H 0.15504 0.79383 0.27454 0.0
H227 H 0.10479 -0.00053 0.34482 0.0
H228 H 0.97535 0.63089 0.30211 0.0
H229 H 0.14679 0.86998 0.30334 0.0
H230 H 0.96063 0.75711 0.35257 0.0
C231 C 0.98118 0.85303 0.3652 0.0
C232 C 0.02128 0.92208 0.36336 0.0
C233 C 0.10961 0.8174 0.30317 0.0
C234 C 0.04401 0.8367 0.33454 0.0
C235 C 0.11472 0.77403 0.28691 0.0
C236 C 0.06549 0.70627 0.28585 0.0
C237 C 0.05525 0.79237 0.31845 0.0
C238 C 0.01393 0.68302 0.30214 0.0
C239 C 0.99229 0.81028 0.35084 0.0
C240 C 0.07232 0.94652 0.34678 0.0
N241 N 0.00997 0.72595 0.31764 0.0
N242 N 0.08221 0.9039 0.33301 0.0
H243 H 0.20934 0.1659 0.67819 0.0
H244 H 0.42817 0.01941 0.62592 0.0
H245 H 0.17293 0.96977 0.69115 0.0
H246 H 0.46598 0.21487 0.61107 0.0
H247 H 0.34034 0.00494 0.6523 0.0
H248 H 0.30699 0.18789 0.65553 0.0
C249 C 0.22179 0.12732 0.67627 0.0
C250 C 0.18257 0.06563 0.68652 0.0
C251 C 0.3679 0.05124 0.64344 0.0
C252 C 0.29484 0.09091 0.66063 0.0
C253 C 0.41826 0.05967 0.62835 0.0
C254 C 0.454 0.11825 0.61606 0.0
C255 C 0.35246 0.10156 0.64627 0.0
C256 C 0.43957 0.16895 0.62018 0.0
C257 C 0.27777 0.14012 0.66336 0.0
C258 C 0.20143 0.01784 0.68348 0.0
N259 N 0.38926 0.15915 0.6348 0.0
N260 N 0.25614 0.03148 0.67078 0.0
H261 H 0.07484 0.22288 0.00741 0.0
H262 H 0.45182 0.41285 0.96387 0.0
H263 H 0.22807 0.18766 0.03308 0.0
H264 H 0.3035 0.45811 0.94072 0.0
H265 H 0.37166 0.33446 0.9907 0.0
H266 H 0.15799 0.31126 0.98389 0.0
C267 C 0.12601 0.2336 0.00809 0.0
C268 C 0.14444 0.19747 0.02219 0.0
C269 C 0.35655 0.36173 0.97992 0.0
C270 C 0.2401 0.29916 0.99528 0.0
C271 C 0.40235 0.40665 0.96456 0.0
C272 C 0.38408 0.44168 0.94986 0.0
C273 C 0.29148 0.35105 0.98055 0.0
C274 C 0.31961 0.43212 0.95174 0.0
C275 C 0.17352 0.28436 0.99469 0.0
C276 C 0.21155 0.21396 0.02241 0.0
N277 N 0.27528 0.38709 0.96665 0.0
N278 N 0.25689 0.26349 0.0091 0.0
H279 H 0.90899 0.12941 0.34303 0.0
H280 H 0.06659 0.49623 0.29669 0.0
H281 H 0.10718 0.29227 0.36194 0.0
H282 H 0.87069 0.33493 0.27468 0.0
H283 H 0.07727 0.42336 0.32307 0.0
H284 H 0.8905 0.20416 0.31986 0.0
C285 C 0.94875 0.18093 0.34231 0.0
C286 C 0.00998 0.20457 0.35439 0.0
C287 C 0.0317 0.40367 0.31262 0.0
C288 C 0.9887 0.29047 0.32795 0.0
C289 C 0.02544 0.44533 0.29753 0.0
C290 C 0.96787 0.42135 0.28325 0.0
C291 C 0.98022 0.33703 0.31347 0.0
C292 C 0.9159 0.35532 0.28536 0.0
C293 C 0.93795 0.22357 0.3291 0.0
C294 C 0.05939 0.27179 0.35284 0.0
N295 N 0.92359 0.31509 0.30005 0.0
N296 N 0.04766 0.31231 0.33984 0.0
loop_
_geom_bond_atom_site_label_1
_geom_bond_atom_site_label_2
_geom_bond_distance
_geom_bond_site_symmetry_2
_ccdc_geom_bond_type
C0 O1 1.160 . S
C0 O7 1.185 1_565 S
O1 C0 1.160 . S
O2 Zn3 1.899 . S
O2 C10 1.284 . S
Zn3 O2 1.899 . S
Zn3 O4 2.032 1_445 S
Zn3 O7 2.086 . S
Zn3 O12 1.977 . S
O4 Zn3 2.032 1_665 S
O4 C8 1.278 . S
C5 O6 1.203 . S
C5 O12 1.267 . S
O6 C5 1.203 . S
O7 C0 1.185 1_545 S
O7 Zn3 2.086 . S
C8 O4 1.278 . S
C8 O9 1.211 1_565 S
O9 C8 1.211 1_545 S
C10 O2 1.284 . S
C10 O11 1.273 1_455 S
O11 C10 1.273 1_655 S
O12 Zn3 1.977 . S
O12 C5 1.267 . S
C13 O14 1.160 . S
C13 O20 1.185 . S
O14 C13 1.160 . S
O15 Zn16 1.899 . S
O15 C23 1.284 1_545 S
Zn16 O15 1.899 . S
Zn16 O17 2.032 1_455 S
Zn16 O20 2.086 . S
Zn16 O25 1.977 . S
O17 Zn16 2.032 1_655 S
O17 C21 1.278 . S
C18 O19 1.203 . S
C18 O25 1.267 . S
O19 C18 1.203 . S
O20 C13 1.185 . S
O20 Zn16 2.086 . S
C21 O17 1.278 . S
C21 O22 1.211 . S
O22 C21 1.211 . S
C23 O15 1.284 1_565 S
C23 O24 1.273 1_455 S
O24 C23 1.273 1_655 S
O25 Zn16 1.977 . S
O25 C18 1.267 . S
C26 O27 1.160 . S
C26 O33 1.185 1_545 S
O27 C26 1.160 . S
O28 Zn29 1.899 1_655 S
O28 C36 1.284 . S
Zn29 O28 1.899 1_455 S
Zn29 O30 2.032 . S
Zn29 O33 2.086 1_545 S
Zn29 O38 1.977 1_445 S
O30 Zn29 2.032 . S
O30 C34 1.278 . S
C31 O32 1.203 . S
C31 O38 1.267 . S
O32 C31 1.203 . S
O33 C26 1.185 1_565 S
O33 Zn29 2.086 1_565 S
C34 O30 1.278 . S
C34 O35 1.211 . S
O35 C34 1.211 . S
C36 O28 1.284 . S
C36 O37 1.273 . S
O37 C36 1.273 . S
O38 Zn29 1.977 1_665 S
O38 C31 1.267 . S
C39 O41 1.247 . S
C39 O43 1.258 1_455 S
C40 O47 1.247 1_455 S
C40 O48 1.258 . S
O41 C39 1.247 . S
O41 Zn42 2.028 . S
Zn42 O41 2.028 . S
Zn42 O46 2.035 . S
Zn42 O48 2.035 . S
Zn42 O49 2.028 . S
O43 C39 1.258 1_655 S
O43 Zn44 2.035 . S
Zn44 O43 2.035 . S
Zn44 O45 2.028 . S
Zn44 O47 2.028 . S
Zn44 O50 2.035 . S
O45 Zn44 2.028 . S
O45 C51 1.247 1_655 S
O46 Zn42 2.035 . S
O46 C51 1.258 . S
O47 C40 1.247 1_655 S
O47 Zn44 2.028 . S
O48 C40 1.258 . S
O48 Zn42 2.035 . S
O49 Zn42 2.028 . S
O49 C52 1.247 . S
O50 Zn44 2.035 . S
O50 C52 1.258 1_655 S
C51 O45 1.247 1_455 S
C51 O46 1.258 . S
C52 O49 1.247 . S
C52 O50 1.258 1_455 S
C53 O55 1.247 1_545 S
C53 O57 1.258 . S
C54 O61 1.247 . S
C54 O62 1.258 1_545 S
O55 C53 1.247 1_565 S
O55 Zn56 2.028 . S
Zn56 O55 2.028 . S
Zn56 O60 2.035 . S
Zn56 O62 2.035 . S
Zn56 O63 2.028 . S
O57 C53 1.258 . S
O57 Zn58 2.035 . S
Zn58 O57 2.035 . S
Zn58 O59 2.028 . S
Zn58 O61 2.028 . S
Zn58 O64 2.035 . S
O59 Zn58 2.028 . S
O59 C65 1.247 . S
O60 Zn56 2.035 . S
O60 C65 1.258 1_565 S
O61 C54 1.247 . S
O61 Zn58 2.028 . S
O62 C54 1.258 1_565 S
O62 Zn56 2.035 . S
O63 Zn56 2.028 . S
O63 C66 1.247 1_565 S
O64 Zn58 2.035 . S
O64 C66 1.258 . S
C65 O59 1.247 . S
C65 O60 1.258 1_545 S
C66 O63 1.247 1_545 S
C66 O64 1.258 . S
C67 O69 1.247 . S
C67 O71 1.258 . S
C68 O75 1.247 . S
C68 O76 1.258 . S
O69 C67 1.247 . S
O69 Zn70 2.028 . S
Zn70 O69 2.028 . S
Zn70 O74 2.035 . S
Zn70 O76 2.035 . S
Zn70 O77 2.028 . S
O71 C67 1.258 . S
O71 Zn72 2.035 . S
Zn72 O71 2.035 . S
Zn72 O73 2.028 . S
Zn72 O75 2.028 . S
Zn72 O78 2.035 . S
O73 Zn72 2.028 . S
O73 C79 1.247 . S
O74 Zn70 2.035 . S
O74 C79 1.258 . S
O75 C68 1.247 . S
O75 Zn72 2.028 . S
O76 C68 1.258 . S
O76 Zn70 2.035 . S
O77 Zn70 2.028 . S
O77 C80 1.247 . S
O78 Zn72 2.035 . S
O78 C80 1.258 . S
C79 O73 1.247 . S
C79 O74 1.258 . S
C80 O77 1.247 . S
C80 O78 1.258 . S
H81 C87 0.930 . S
H82 C91 0.930 . S
H83 C96 0.929 . S
H84 C94 0.929 . S
H85 C89 0.929 . S
H86 C95 0.929 . S
C87 H81 0.930 . S
C87 C88 1.367 1_655 S
C87 C95 1.378 . S
C88 C87 1.367 1_455 S
C88 C96 1.433 . S
C89 H85 0.929 . S
C89 C91 1.378 . S
C89 C93 1.350 . S
C90 C93 1.463 . S
C90 C95 1.350 1_455 S
C90 N98 1.427 . S
C91 H82 0.930 . S
C91 C89 1.378 . S
C91 C92 1.367 . S
C92 C91 1.367 . S
C92 C94 1.433 1_455 S
C93 C89 1.350 . S
C93 C90 1.463 . S
C93 N97 1.427 1_455 S
C94 H84 0.929 . S
C94 C92 1.433 1_655 S
C94 N97 1.384 . S
C95 H86 0.929 . S
C95 C87 1.378 . S
C95 C90 1.350 1_655 S
C96 H83 0.929 . S
C96 C88 1.433 . S
C96 N98 1.384 . S
N97 C93 1.427 1_655 S
N97 C94 1.384 . S
N98 C90 1.427 . S
N98 C96 1.384 . S
H99 C105 0.930 . S
H100 C109 0.930 . S
H101 C114 0.929 . S
H102 C112 0.929 . S
H103 C107 0.929 . S
H104 C113 0.929 . S
C105 H99 0.930 . S
C105 C106 1.367 1_565 S
C105 C113 1.378 . S
C106 C105 1.367 1_545 S
C106 C114 1.433 . S
C107 H103 0.929 . S
C107 C109 1.378 . S
C107 C111 1.350 . S
C108 C111 1.463 . S
C108 C113 1.350 1_545 S
C108 N116 1.427 . S
C109 H100 0.930 . S
C109 C107 1.378 . S
C109 C110 1.367 . S
C110 C109 1.367 . S
C110 C112 1.433 1_545 S
C111 C107 1.350 . S
C111 C108 1.463 . S
C111 N115 1.427 1_545 S
C112 H102 0.929 . S
C112 C110 1.433 1_565 S
C112 N115 1.384 . S
C113 H104 0.929 . S
C113 C105 1.378 . S
C113 C108 1.350 1_565 S
C114 H101 0.929 . S
C114 C106 1.433 . S
C114 N116 1.384 . S
N115 C111 1.427 1_565 S
N115 C112 1.384 . S
N116 C108 1.427 . S
N116 C114 1.384 . S
H117 C123 0.930 . S
H118 C127 0.930 . S
H119 C132 0.929 . S
H120 C130 0.929 . S
H121 C125 0.929 . S
H122 C131 0.929 . S
C123 H117 0.930 . S
C123 C124 1.367 . S
C123 C131 1.378 . S
C124 C123 1.367 . S
C124 C132 1.433 . S
C125 H121 0.929 . S
C125 C127 1.378 . S
C125 C129 1.350 . S
C126 C129 1.463 . S
C126 C131 1.350 . S
C126 N134 1.427 . S
C127 H118 0.930 . S
C127 C125 1.378 . S
C127 C128 1.367 . S
C128 C127 1.367 . S
C128 C130 1.433 . S
C129 C125 1.350 . S
C129 C126 1.463 . S
C129 N133 1.427 . S
C130 H120 0.929 . S
C130 C128 1.433 . S
C130 N133 1.384 . S
C131 H122 0.929 . S
C131 C123 1.378 . S
C131 C126 1.350 . S
C132 H119 0.929 . S
C132 C124 1.433 . S
C132 N134 1.384 . S
N133 C129 1.427 . S
N133 C130 1.384 . S
N134 C126 1.427 . S
N134 C132 1.384 . S
H135 C141 0.930 . S
H136 C145 0.930 . S
H137 C150 0.929 . S
H138 C148 0.929 . S
H139 C143 0.929 . S
H140 C149 0.929 . S
C141 H135 0.930 . S
C141 C142 1.367 . S
C141 C149 1.378 . S
C142 C141 1.367 . S
C142 C150 1.433 . S
C143 H139 0.929 . S
C143 C145 1.378 . S
C143 C147 1.350 . S
C144 C147 1.463 . S
C144 C149 1.350 . S
C144 N152 1.427 . S
C145 H136 0.930 . S
C145 C143 1.378 . S
C145 C146 1.367 . S
C146 C145 1.367 . S
C146 C148 1.433 . S
C147 C143 1.350 . S
C147 C144 1.463 . S
C147 N151 1.427 . S
C148 H138 0.929 . S
C148 C146 1.433 . S
C148 N151 1.384 . S
C149 H140 0.929 . S
C149 C141 1.378 . S
C149 C144 1.350 . S
C150 H137 0.929 . S
C150 C142 1.433 . S
C150 N152 1.384 . S
N151 C147 1.427 . S
N151 C148 1.384 . S
N152 C144 1.427 . S
N152 C150 1.384 . S
H153 C159 0.930 . S
H154 C163 0.930 1_565 S
H155 C168 0.929 . S
H156 C166 0.929 . S
H157 C161 0.929 1_565 S
H158 C167 0.929 . S
C159 H153 0.930 . S
C159 C160 1.367 . S
C159 C167 1.378 . S
C160 C159 1.367 . S
C160 C168 1.433 . S
C161 H157 0.929 1_545 S
C161 C163 1.378 . S
C161 C165 1.350 . S
C162 C165 1.463 . S
C162 C167 1.350 . S
C162 N170 1.427 . S
C163 H154 0.930 1_545 S
C163 C161 1.378 . S
C163 C164 1.367 . S
C164 C163 1.367 . S
C164 C166 1.433 . S
C165 C161 1.350 . S
C165 C162 1.463 . S
C165 N169 1.427 . S
C166 H156 0.929 . S
C166 C164 1.433 . S
C166 N169 1.384 . S
C167 H158 0.929 . S
C167 C159 1.378 . S
C167 C162 1.350 . S
C168 H155 0.929 . S
C168 C160 1.433 . S
C168 N170 1.384 . S
N169 C165 1.427 . S
N169 C166 1.384 . S
N170 C162 1.427 . S
N170 C168 1.384 . S
H171 C177 0.930 . S
H172 C181 0.930 . S
H173 C186 0.929 . S
H174 C184 0.929 . S
H175 C179 0.929 . S
H176 C185 0.929 . S
C177 H171 0.930 . S
C177 C178 1.367 . S
C177 C185 1.378 . S
C178 C177 1.367 . S
C178 C186 1.433 . S
C179 H175 0.929 . S
C179 C181 1.378 . S
C179 C183 1.350 . S
C180 C183 1.463 . S
C180 C185 1.350 . S
C180 N188 1.427 . S
C181 H172 0.930 . S
C181 C179 1.378 . S
C181 C182 1.367 . S
C182 C181 1.367 . S
C182 C184 1.433 . S
C183 C179 1.350 . S
C183 C180 1.463 . S
C183 N187 1.427 . S
C184 H174 0.929 . S
C184 C182 1.433 . S
C184 N187 1.384 . S
C185 H176 0.929 . S
C185 C177 1.378 . S
C185 C180 1.350 . S
C186 H173 0.929 . S
C186 C178 1.433 . S
C186 N188 1.384 . S
N187 C183 1.427 . S
N187 C184 1.384 . S
N188 C180 1.427 . S
N188 C186 1.384 . S
H189 C195 0.930 . S
H190 C199 0.922 1_565 S
H191 C204 0.929 1_565 S
H192 C202 0.929 . S
H193 C197 0.929 1_565 S
H194 C203 0.929 . S
C195 H189 0.930 . S
C195 C196 1.367 . S
C195 C203 1.378 . S
C196 C195 1.367 . S
C196 C204 1.433 . S
C197 H193 0.929 1_545 S
C197 C199 1.372 . S
C197 C201 1.350 . S
C198 C201 1.463 . S
C198 C203 1.350 . S
C198 N206 1.427 . S
C199 H190 0.922 1_545 S
C199 C197 1.372 . S
C199 C200 1.381 . S
C200 C199 1.381 . S
C200 C202 1.433 . S
C201 C197 1.350 . S
C201 C198 1.463 . S
C201 N205 1.427 . S
C202 H192 0.929 . S
C202 C200 1.433 . S
C202 N205 1.384 . S
C203 H194 0.929 . S
C203 C195 1.378 . S
C203 C198 1.350 . S
C204 H191 0.929 1_545 S
C204 C196 1.433 . S
C204 N206 1.384 . S
N205 C201 1.427 . S
N205 C202 1.384 . S
N206 C198 1.427 . S
N206 C204 1.384 . S
H207 C213 0.930 . S
H208 C217 0.930 . S
H209 C222 0.929 . S
H210 C220 0.929 . S
H211 C215 0.929 . S
H212 C221 0.929 . S
C213 H207 0.930 . S
C213 C214 1.367 . S
C213 C221 1.378 . S
C214 C213 1.367 . S
C214 C222 1.433 . S
C215 H211 0.929 . S
C215 C217 1.378 . S
C215 C219 1.350 . S
C216 C219 1.461 . S
C216 C221 1.352 1_556 S
C216 N224 1.426 . S
C217 H208 0.930 . S
C217 C215 1.378 . S
C217 C218 1.367 . S
C218 C217 1.367 . S
C218 C220 1.433 . S
C219 C215 1.350 . S
C219 C216 1.461 . S
C219 N223 1.427 . S
C220 H210 0.929 . S
C220 C218 1.433 . S
C220 N223 1.384 . S
C221 H212 0.929 . S
C221 C213 1.378 . S
C221 C216 1.352 1_554 S
C222 H209 0.929 . S
C222 C214 1.433 . S
C222 N224 1.384 1_554 S
N223 C219 1.427 . S
N223 C220 1.384 . S
N224 C216 1.426 . S
N224 C222 1.384 1_556 S
H225 C231 0.930 . S
H226 C235 0.930 . S
H227 C240 0.929 . S
H228 C238 0.929 . S
H229 C233 0.929 . S
H230 C239 0.929 . S
C231 H225 0.930 . S
C231 C232 1.367 . S
C231 C239 1.378 . S
C232 C231 1.367 . S
C232 C240 1.433 . S
C233 H229 0.929 . S
C233 C235 1.378 . S
C233 C237 1.350 . S
C234 C237 1.463 . S
C234 C239 1.350 . S
C234 N242 1.427 . S
C235 H226 0.930 . S
C235 C233 1.378 . S
C235 C236 1.367 . S
C236 C235 1.367 . S
C236 C238 1.433 . S
C237 C233 1.350 . S
C237 C234 1.463 . S
C237 N241 1.427 . S
C238 H228 0.929 . S
C238 C236 1.433 . S
C238 N241 1.384 . S
C239 H230 0.929 . S
C239 C231 1.378 . S
C239 C234 1.350 . S
C240 H227 0.929 . S
C240 C232 1.433 . S
C240 N242 1.384 . S
N241 C237 1.427 . S
N241 C238 1.384 . S
N242 C234 1.427 . S
N242 C240 1.384 . S
H243 C249 0.930 . S
H244 C253 0.930 . S
H245 C258 0.929 . S
H246 C256 0.929 . S
H247 C251 0.929 . S
H248 C257 0.929 . S
C249 H243 0.930 . S
C249 C250 1.367 . S
C249 C257 1.378 . S
C250 C249 1.367 . S
C250 C258 1.433 1_545 S
C251 H247 0.929 . S
C251 C253 1.378 . S
C251 C255 1.350 1_565 S
C252 C255 1.463 . S
C252 C257 1.350 . S
C252 N260 1.427 1_545 S
C253 H244 0.930 . S
C253 C251 1.378 . S
C253 C254 1.367 1_565 S
C254 C253 1.367 1_545 S
C254 C256 1.433 . S
C255 C251 1.350 1_545 S
C255 C252 1.463 . S
C255 N259 1.427 . S
C256 H246 0.929 . S
C256 C254 1.433 . S
C256 N259 1.384 . S
C257 H248 0.929 . S
C257 C249 1.378 . S
C257 C252 1.350 . S
C258 H245 0.929 . S
C258 C250 1.433 1_565 S
C258 N260 1.384 . S
N259 C255 1.427 . S
N259 C256 1.384 . S
N260 C252 1.427 1_565 S
N260 C258 1.384 . S
H261 C267 0.930 . S
H262 C271 0.930 . S
H263 C276 0.929 . S
H264 C274 0.929 . S
H265 C269 0.929 1_554 S
H266 C275 0.929 . S
C267 H261 0.930 . S
C267 C268 1.367 . S
C267 C275 1.378 1_554 S
C268 C267 1.367 . S
C268 C276 1.433 . S
C269 H265 0.929 1_556 S
C269 C271 1.378 . S
C269 C273 1.350 . S
C270 C273 1.463 . S
C270 C275 1.350 . S
C270 N278 1.427 1_556 S
C271 H262 0.930 . S
C271 C269 1.378 . S
C271 C272 1.367 . S
C272 C271 1.367 . S
C272 C274 1.433 . S
C273 C269 1.350 . S
C273 C270 1.463 . S
C273 N277 1.427 . S
C274 H264 0.929 . S
C274 C272 1.433 . S
C274 N277 1.384 . S
C275 H266 0.929 . S
C275 C267 1.378 1_556 S
C275 C270 1.350 . S
C276 H263 0.929 . S
C276 C268 1.433 . S
C276 N278 1.384 . S
N277 C273 1.427 . S
N277 C274 1.384 . S
N278 C270 1.427 1_554 S
N278 C276 1.384 . S
H279 C285 0.930 1_655 S
H280 C289 0.930 . S
H281 C294 0.929 . S
H282 C292 0.929 . S
H283 C287 0.929 . S
H284 C293 0.929 1_655 S
C285 H279 0.930 1_455 S
C285 C286 1.367 . S
C285 C293 1.378 . S
C286 C285 1.367 . S
C286 C294 1.433 . S
C287 H283 0.929 . S
C287 C289 1.378 . S
C287 C291 1.350 . S
C288 C291 1.463 . S
C288 C293 1.350 . S
C288 N296 1.427 . S
C289 H280 0.930 . S
C289 C287 1.378 . S
C289 C290 1.367 . S
C290 C289 1.367 . S
C290 C292 1.433 1_455 S
C291 C287 1.350 . S
C291 C288 1.463 . S
C291 N295 1.427 1_455 S
C292 H282 0.929 . S
C292 C290 1.433 1_655 S
C292 N295 1.384 . S
C293 H284 0.929 1_455 S
C293 C285 1.378 . S
C293 C288 1.350 . S
C294 H281 0.929 . S
C294 C286 1.433 . S
C294 N296 1.384 . S
N295 C291 1.427 1_655 S
N295 C292 1.384 . S
N296 C288 1.427 . S
N296 C294 1.384 . S
C92 C40 1.407 . S
C88 C10 1.409 . S
C106 C21 1.423 . S
C110 C66 1.461 . S
C124 C31 1.369 . S
C128 C68 1.433 . S
C142 C0 1.372 . S
C146 C52 1.417 . S
C164 C54 1.432 . S
C160 C18 1.372 . S
C178 C34 1.381 . S
C182 C80 1.417 . S
C200 C53 1.406 . S
C196 C36 1.406 . S
C214 C8 1.385 . S
C218 C79 1.417 . S
C236 C39 1.413 . S
C232 C23 1.412 . S
C254 C65 1.365 . S
C250 C26 1.312 . S
C272 C67 1.431 . S
C268 C5 1.365 . S
C286 C13 1.363 . S
C290 C51 1.421 . S
