# Generated by pormake.
# Topology ocu, (6,8)-cn, num edge types: 1
# Building blocks:
#     Node 0, Type 0, BuildingBlock: KUMJIN_clean_sbu_0, # of connection points: 6
#     Node 1, Type 0, BuildingBlock: KUMJIN_clean_sbu_0, # of connection points: 6
#     Node 2, Type 0, BuildingBlock: KUMJIN_clean_sbu_0, # of connection points: 6
#     Node 3, Type 0, BuildingBlock: KUMJIN_clean_sbu_0, # of connection points: 6
#     Node 4, Type 0, BuildingBlock: KUMJIN_clean_sbu_0, # of connection points: 6
#     Node 5, Type 0, BuildingBlock: KUMJIN_clean_sbu_0, # of connection points: 6
#     Node 6, Type 0, BuildingBlock: KUMJIN_clean_sbu_0, # of connection points: 6
#     Node 7, Type 0, BuildingBlock: KUMJIN_clean_sbu_0, # of connection points: 6
#     Node 8, Type 1, BuildingBlock: GIZVER_clean_sbu_0, # of connection points: 8
#     Node 9, Type 1, BuildingBlock: GIZVER_clean_sbu_0, # of connection points: 8
#     Node 10, Type 1, BuildingBlock: GIZVER_clean_sbu_0, # of connection points: 8
#     Node 11, Type 1, BuildingBlock: GIZVER_clean_sbu_0, # of connection points: 8
#     Node 12, Type 1, BuildingBlock: GIZVER_clean_sbu_0, # of connection points: 8
#     Node 13, Type 1, BuildingBlock: GIZVER_clean_sbu_0, # of connection points: 8
#     Edge 14, Type (0, 1), BuildingBlock: XIVTED_clean_linker_0, # of connection points: 2
#     Edge 15, Type (0, 1), BuildingBlock: XIVTED_clean_linker_0, # of connection points: 2
#     Edge 16, Type (0, 1), BuildingBlock: XIVTED_clean_linker_0, # of connection points: 2
#     Edge 17, Type (0, 1), BuildingBlock: XIVTED_clean_linker_0, # of connection points: 2
#     Edge 18, Type (0, 1), BuildingBlock: XIVTED_clean_linker_0, # of connection points: 2
#     Edge 19, Type (0, 1), BuildingBlock: XIVTED_clean_linker_0, # of connection points: 2
#     Edge 20, Type (0, 1), BuildingBlock: XIVTED_clean_linker_0, # of connection points: 2
#     Edge 21, Type (0, 1), BuildingBlock: XIVTED_clean_linker_0, # of connection points: 2
#     Edge 22, Type (0, 1), BuildingBlock: XIVTED_clean_linker_0, # of connection points: 2
#     Edge 23, Type (0, 1), BuildingBlock: XIVTED_clean_linker_0, # of connection points: 2
#     Edge 24, Type (0, 1), BuildingBlock: XIVTED_clean_linker_0, # of connection points: 2
#     Edge 25, Type (0, 1), BuildingBlock: XIVTED_clean_linker_0, # of connection points: 2
#     Edge 26, Type (0, 1), BuildingBlock: XIVTED_clean_linker_0, # of connection points: 2
#     Edge 27, Type (0, 1), BuildingBlock: XIVTED_clean_linker_0, # of connection points: 2
#     Edge 28, Type (0, 1), BuildingBlock: XIVTED_clean_linker_0, # of connection points: 2
#     Edge 29, Type (0, 1), BuildingBlock: XIVTED_clean_linker_0, # of connection points: 2
#     Edge 30, Type (0, 1), BuildingBlock: XIVTED_clean_linker_0, # of connection points: 2
#     Edge 31, Type (0, 1), BuildingBlock: XIVTED_clean_linker_0, # of connection points: 2
#     Edge 32, Type (0, 1), BuildingBlock: XIVTED_clean_linker_0, # of connection points: 2
#     Edge 33, Type (0, 1), BuildingBlock: XIVTED_clean_linker_0, # of connection points: 2
#     Edge 34, Type (0, 1), BuildingBlock: XIVTED_clean_linker_0, # of connection points: 2
#     Edge 35, Type (0, 1), BuildingBlock: XIVTED_clean_linker_0, # of connection points: 2
#     Edge 36, Type (0, 1), BuildingBlock: XIVTED_clean_linker_0, # of connection points: 2
#     Edge 37, Type (0, 1), BuildingBlock: XIVTED_clean_linker_0, # of connection points: 2
#     Edge 38, Type (0, 1), BuildingBlock: XIVTED_clean_linker_0, # of connection points: 2
#     Edge 39, Type (0, 1), BuildingBlock: XIVTED_clean_linker_0, # of connection points: 2
#     Edge 40, Type (0, 1), BuildingBlock: XIVTED_clean_linker_0, # of connection points: 2
#     Edge 41, Type (0, 1), BuildingBlock: XIVTED_clean_linker_0, # of connection points: 2
#     Edge 42, Type (0, 1), BuildingBlock: XIVTED_clean_linker_0, # of connection points: 2
#     Edge 43, Type (0, 1), BuildingBlock: XIVTED_clean_linker_0, # of connection points: 2
#     Edge 44, Type (0, 1), BuildingBlock: XIVTED_clean_linker_0, # of connection points: 2
#     Edge 45, Type (0, 1), BuildingBlock: XIVTED_clean_linker_0, # of connection points: 2
#     Edge 46, Type (0, 1), BuildingBlock: XIVTED_clean_linker_0, # of connection points: 2
#     Edge 47, Type (0, 1), BuildingBlock: XIVTED_clean_linker_0, # of connection points: 2
#     Edge 48, Type (0, 1), BuildingBlock: XIVTED_clean_linker_0, # of connection points: 2
#     Edge 49, Type (0, 1), BuildingBlock: XIVTED_clean_linker_0, # of connection points: 2
#     Edge 50, Type (0, 1), BuildingBlock: XIVTED_clean_linker_0, # of connection points: 2
#     Edge 51, Type (0, 1), BuildingBlock: XIVTED_clean_linker_0, # of connection points: 2
#     Edge 52, Type (0, 1), BuildingBlock: XIVTED_clean_linker_0, # of connection points: 2
#     Edge 53, Type (0, 1), BuildingBlock: XIVTED_clean_linker_0, # of connection points: 2
#     Edge 54, Type (0, 1), BuildingBlock: XIVTED_clean_linker_0, # of connection points: 2
#     Edge 55, Type (0, 1), BuildingBlock: XIVTED_clean_linker_0, # of connection points: 2
#     Edge 56, Type (0, 1), BuildingBlock: XIVTED_clean_linker_0, # of connection points: 2
#     Edge 57, Type (0, 1), BuildingBlock: XIVTED_clean_linker_0, # of connection points: 2
#     Edge 58, Type (0, 1), BuildingBlock: XIVTED_clean_linker_0, # of connection points: 2
#     Edge 59, Type (0, 1), BuildingBlock: XIVTED_clean_linker_0, # of connection points: 2
#     Edge 60, Type (0, 1), BuildingBlock: XIVTED_clean_linker_0, # of connection points: 2
#     Edge 61, Type (0, 1), BuildingBlock: XIVTED_clean_linker_0, # of connection points: 2
# Relax obj value: 0.167
# Max RMSD: 0.298
# Mean RMSD: 0.214
data_MOF--net-ocu--node1-KUMJIN_clean_sbu_0--node2-GIZVER_clean_sbu_0--edge1-XIVTED_clean_linker_0
_symmetry_space_group_name_H-M    P1
_symmetry_Int_Tables_number       1
_symmetry_cell_setting            triclinic
loop_
_symmetry_equiv_pos_as_xyz
'x, y, z'
_cell_length_a     42.745338
_cell_length_b     44.158389
_cell_length_c     35.229335
_cell_angle_alpha  76.764672
_cell_angle_beta   102.29397
_cell_angle_gamma 111.36258
loop_
_atom_site_label
_atom_site_type_symbol
_atom_site_fract_x
_atom_site_fract_y
_atom_site_fract_z
_atom_type_partial_charge
Eu0 Eu 0.27171 0.24617 0.20933 0.0
C1 C 0.37461 0.30804 0.34827 0.0
C2 C 0.37645 0.26054 0.39806 0.0
C3 C 0.42581 0.3103 0.3953 0.0
C4 C 0.35915 0.27583 0.36503 0.0
C5 C 0.40772 0.32602 0.36401 0.0
C6 C 0.41019 0.27759 0.4123 0.0
C7 C 0.40081 0.37481 0.32049 0.0
N8 N 0.35613 0.32271 0.31881 0.0
C9 C 0.36797 0.35598 0.30619 0.0
C10 C 0.42102 0.35964 0.34905 0.0
Eu11 Eu 0.30106 0.2895 0.29501 0.0
N12 N 0.32631 0.26035 0.35101 0.0
C13 C 0.30847 0.23062 0.37082 0.0
C14 C 0.35888 0.22913 0.41678 0.0
C15 C 0.32457 0.21437 0.4035 0.0
H16 H 0.35233 0.36774 0.28411 0.0
H17 H 0.3105 0.19042 0.41836 0.0
H18 H 0.42399 0.26611 0.43733 0.0
H19 H 0.41045 0.40099 0.30954 0.0
H20 H 0.28197 0.21873 0.36102 0.0
H21 H 0.25894 0.34533 0.08753 0.0
H22 H 0.37125 0.21655 0.4422 0.0
H23 H 0.22172 0.16734 0.2204 0.0
H24 H 0.2889 0.31721 0.14352 0.0
H25 H 0.16357 0.1334 0.19608 0.0
H26 H 0.45141 0.32359 0.40749 0.0
H27 H 0.19813 0.3183 0.06482 0.0
H28 H 0.14635 0.26773 0.06963 0.0
H29 H 0.44634 0.37433 0.36036 0.0
H30 H 0.12025 0.20985 0.09922 0.0
N31 N 0.24535 0.27475 0.15377 0.0
C32 C 0.26243 0.30489 0.13411 0.0
C33 C 0.21119 0.30574 0.08948 0.0
C34 C 0.19446 0.27391 0.10788 0.0
C35 C 0.24551 0.32104 0.10219 0.0
C36 C 0.21255 0.25878 0.14017 0.0
H37 H 0.12666 0.15935 0.14594 0.0
N38 N 0.21694 0.21208 0.18584 0.0
C39 C 0.17278 0.15958 0.18499 0.0
C40 C 0.19784 0.22638 0.15681 0.0
C41 C 0.20562 0.17881 0.19869 0.0
C42 C 0.152 0.17434 0.15677 0.0
C43 C 0.1647 0.208 0.14167 0.0
O44 O 0.28436 0.20591 0.19688 0.0
O45 O 0.30669 0.25129 0.26702 0.0
O46 O 0.34568 0.30779 0.26082 0.0
O47 O 0.31808 0.29186 0.20012 0.0
O48 O 0.27956 0.20391 0.25619 0.0
O49 O 0.29931 0.25376 0.16043 0.0
O50 O 0.28978 0.33034 0.30786 0.0
O51 O 0.26592 0.28437 0.23749 0.0
O52 O 0.2273 0.2273 0.2433 0.0
O53 O 0.25361 0.2445 0.30383 0.0
O54 O 0.29316 0.33174 0.24814 0.0
O55 O 0.27363 0.28234 0.34394 0.0
C56 C 0.30224 0.22101 0.28065 0.0
C57 C 0.28933 0.20735 0.1309 0.0
C58 C 0.30331 0.17813 0.08891 0.0
C59 C 0.31151 0.19357 0.1224 0.0
C60 C 0.2724 0.17678 0.06421 0.0
C61 C 0.25875 0.20569 0.1058 0.0
C62 C 0.25038 0.19046 0.07266 0.0
C63 C 0.34476 0.30853 0.22282 0.0
C64 C 0.29847 0.22328 0.16606 0.0
C65 C 0.14588 0.22345 0.11097 0.0
C66 C 0.16074 0.25638 0.09412 0.0
C67 C 0.27022 0.31465 0.22384 0.0
C68 C 0.28566 0.32892 0.37407 0.0
C69 C 0.26404 0.34285 0.38337 0.0
C70 C 0.27358 0.35954 0.416 0.0
C71 C 0.3052 0.36144 0.43939 0.0
C72 C 0.31676 0.33086 0.39808 0.0
C73 C 0.3264 0.347 0.43059 0.0
C74 C 0.22771 0.22692 0.28102 0.0
C75 C 0.27559 0.31313 0.33872 0.0
H76 H 0.33497 0.19462 0.14212 0.0
H77 H 0.26545 0.16567 0.03791 0.0
H78 H 0.24144 0.21625 0.11173 0.0
H79 H 0.22679 0.18941 0.05329 0.0
H80 H 0.23969 0.34038 0.36511 0.0
H81 H 0.31397 0.37453 0.46417 0.0
H82 H 0.33361 0.32006 0.39167 0.0
H83 H 0.35058 0.34862 0.44886 0.0
Eu84 Eu 0.81362 0.24588 0.26345 0.0
C85 C 0.6859 0.26659 0.27785 0.0
C86 C 0.64141 0.26037 0.22146 0.0
C87 C 0.6264 0.24225 0.28756 0.0
C88 C 0.67616 0.26973 0.23739 0.0
C89 C 0.66088 0.25354 0.30327 0.0
C90 C 0.61668 0.24575 0.24674 0.0
C91 C 0.70527 0.26708 0.35778 0.0
N92 N 0.71951 0.27801 0.29227 0.0
C93 C 0.72915 0.27992 0.33161 0.0
C94 C 0.67108 0.2532 0.3437 0.0
Eu95 Eu 0.75756 0.29566 0.24433 0.0
N96 N 0.70049 0.28394 0.21351 0.0
C97 C 0.69185 0.29224 0.17381 0.0
C98 C 0.63247 0.26701 0.1806 0.0
C99 C 0.65782 0.28358 0.15674 0.0
H100 H 0.75515 0.29035 0.34401 0.0
H101 H 0.65121 0.28937 0.12516 0.0
H102 H 0.58992 0.23798 0.23502 0.0
H103 H 0.71334 0.26782 0.38893 0.0
H104 H 0.71135 0.30402 0.15506 0.0
H105 H 0.92552 0.26495 0.37587 0.0
H106 H 0.60608 0.26026 0.1673 0.0
H107 H 0.80928 0.24882 0.164 0.0
H108 H 0.86421 0.24802 0.35014 0.0
H109 H 0.84778 0.26611 0.11529 0.0
H110 H 0.60699 0.23178 0.30673 0.0
H111 H 0.96781 0.28654 0.32961 0.0
H112 H 0.97995 0.2999 0.25998 0.0
H113 H 0.65267 0.24329 0.36412 0.0
H114 H 0.95877 0.3001 0.18937 0.0
N115 N 0.87191 0.26018 0.29006 0.0
C116 C 0.8826 0.25715 0.3298 0.0
C117 C 0.94098 0.27901 0.31823 0.0
C118 C 0.92985 0.28074 0.27769 0.0
C119 C 0.91722 0.2668 0.34443 0.0
C120 C 0.89462 0.27063 0.26433 0.0
H121 H 0.90976 0.28733 0.1354 0.0
N122 N 0.84849 0.2598 0.213 0.0
C123 C 0.85795 0.26746 0.14598 0.0
C124 C 0.88261 0.27038 0.22468 0.0
C125 C 0.83605 0.25743 0.17421 0.0
C126 C 0.89289 0.27946 0.15741 0.0
C127 C 0.90568 0.28074 0.19717 0.0
O128 O 0.79035 0.19633 0.24815 0.0
O129 O 0.76488 0.248 0.27413 0.0
O130 O 0.79315 0.30356 0.30171 0.0
O131 O 0.83924 0.29052 0.29419 0.0
O132 O 0.79442 0.23157 0.32282 0.0
O133 O 0.827 0.20443 0.30058 0.0
O134 O 0.79253 0.34569 0.24922 0.0
O135 O 0.80521 0.29265 0.23279 0.0
O136 O 0.77363 0.23066 0.21107 0.0
O137 O 0.73356 0.25695 0.20433 0.0
O138 O 0.77651 0.31056 0.1846 0.0
O139 O 0.73955 0.33793 0.22916 0.0
C140 C 0.76538 0.23566 0.31016 0.0
C141 C 0.7782 0.15746 0.30683 0.0
C142 C 0.76706 0.1268 0.37248 0.0
C143 C 0.78969 0.14771 0.34642 0.0
C144 C 0.73236 0.11456 0.35818 0.0
C145 C 0.74331 0.14517 0.29292 0.0
C146 C 0.72063 0.12372 0.31851 0.0
C147 C 0.82559 0.30612 0.31028 0.0
C148 C 0.80268 0.18274 0.28207 0.0
C149 C 0.94075 0.29183 0.21014 0.0
C150 C 0.95282 0.29177 0.25032 0.0
C151 C 0.80513 0.30532 0.19688 0.0
C152 C 0.77895 0.3858 0.19907 0.0
C153 C 0.76545 0.3793 0.16078 0.0
C154 C 0.77141 0.40435 0.1278 0.0
C155 C 0.79384 0.43599 0.13394 0.0
C156 C 0.8012 0.41729 0.20456 0.0
C157 C 0.80895 0.44216 0.172 0.0
C158 C 0.74447 0.23545 0.19505 0.0
C159 C 0.76987 0.35956 0.23305 0.0
H160 H 0.81667 0.15641 0.35701 0.0
H161 H 0.71447 0.09797 0.37757 0.0
H162 H 0.73346 0.1525 0.26261 0.0
H163 H 0.69381 0.11441 0.30763 0.0
H164 H 0.74951 0.35467 0.15696 0.0
H165 H 0.79882 0.45644 0.1098 0.0
H166 H 0.81237 0.42265 0.23393 0.0
H167 H 0.82593 0.46659 0.17633 0.0
Eu168 Eu 0.76726 0.75782 0.2986 0.0
C169 C 0.83886 0.86061 0.16076 0.0
C170 C 0.79321 0.87007 0.11108 0.0
C171 C 0.84765 0.9138 0.11783 0.0
C172 C 0.80577 0.84955 0.14282 0.0
C173 C 0.86051 0.8926 0.1479 0.0
C174 C 0.81403 0.90253 0.09941 0.0
C175 C 0.90673 0.879 0.1924 0.0
N176 N 0.85054 0.83927 0.18911 0.0
C177 C 0.88431 0.84745 0.2038 0.0
C178 C 0.89468 0.90187 0.16471 0.0
Eu179 Eu 0.81085 0.78705 0.20981 0.0
N180 N 0.7866 0.81793 0.15456 0.0
C181 C 0.75567 0.80444 0.13338 0.0
C182 C 0.7606 0.85694 0.09107 0.0
C183 C 0.74201 0.82379 0.10185 0.0
H184 H 0.89377 0.82983 0.22511 0.0
H185 H 0.7171 0.8131 0.08593 0.0
H186 H 0.80472 0.91876 0.0754 0.0
H187 H 0.93328 0.88562 0.20489 0.0
H188 H 0.7409 0.77889 0.141 0.0
H189 H 0.86132 0.73343 0.42276 0.0
H190 H 0.75002 0.87185 0.06654 0.0
H191 H 0.68531 0.71318 0.27933 0.0
H192 H 0.8379 0.7667 0.36607 0.0
H193 H 0.64595 0.65755 0.30062 0.0
H194 H 0.86378 0.93858 0.1078 0.0
H195 H 0.82783 0.67528 0.44439 0.0
H196 H 0.773 0.62841 0.43677 0.0
H197 H 0.91213 0.92622 0.15568 0.0
H198 H 0.71432 0.60776 0.40363 0.0
N199 N 0.79182 0.72759 0.35398 0.0
C200 C 0.82288 0.74137 0.37472 0.0
C201 C 0.81742 0.68974 0.41916 0.0
C202 C 0.7848 0.67633 0.39932 0.0
C203 C 0.83634 0.72256 0.40711 0.0
C204 C 0.77244 0.69624 0.36664 0.0
H205 H 0.66662 0.61857 0.35318 0.0
N206 N 0.72793 0.70533 0.31863 0.0
C207 C 0.67221 0.66483 0.31422 0.0
C208 C 0.73944 0.68474 0.34833 0.0
C209 C 0.69451 0.69632 0.30232 0.0
C210 C 0.684 0.64287 0.34381 0.0
C211 C 0.71785 0.65287 0.3617 0.0
O212 O 0.72876 0.7693 0.3197 0.0
O213 O 0.7729 0.79266 0.24084 0.0
O214 O 0.83145 0.82825 0.24581 0.0
O215 O 0.81807 0.79812 0.30754 0.0
O216 O 0.72445 0.77117 0.2556 0.0
O217 O 0.78179 0.78965 0.34293 0.0
O218 O 0.79724 0.75807 0.16238 0.0
O219 O 0.80511 0.75228 0.26766 0.0
O220 O 0.74893 0.71637 0.26276 0.0
O221 O 0.75893 0.74836 0.2013 0.0
O222 O 0.85367 0.77456 0.25346 0.0
O223 O 0.84863 0.77239 0.19198 0.0
C224 C 0.74233 0.79186 0.22969 0.0
C225 C 0.74184 0.78391 0.38361 0.0
C226 C 0.72198 0.80557 0.42871 0.0
C227 C 0.72958 0.80723 0.39103 0.0
C228 C 0.72723 0.78013 0.45897 0.0
C229 C 0.74664 0.75867 0.41411 0.0
C230 C 0.73941 0.75689 0.45161 0.0
C231 C 0.83462 0.82484 0.28456 0.0
C232 C 0.7508 0.78742 0.34431 0.0
C233 C 0.73045 0.6324 0.39309 0.0
C234 C 0.76386 0.64413 0.41192 0.0
C235 C 0.83581 0.7538 0.27934 0.0
C236 C 0.82629 0.71992 0.17309 0.0
C237 C 0.8403 0.70983 0.14739 0.0
C238 C 0.84006 0.67693 0.15343 0.0
C239 C 0.82558 0.6546 0.18563 0.0
C240 C 0.81213 0.69708 0.20489 0.0
C241 C 0.81173 0.66464 0.21103 0.0
C242 C 0.74339 0.72086 0.22386 0.0
C243 C 0.82673 0.75424 0.16741 0.0
H244 H 0.72643 0.82698 0.36745 0.0
H245 H 0.7213 0.77778 0.48813 0.0
H246 H 0.75618 0.74055 0.40902 0.0
H247 H 0.74319 0.73736 0.47506 0.0
H248 H 0.85114 0.72749 0.12276 0.0
H249 H 0.82559 0.62943 0.19182 0.0
H250 H 0.80152 0.70437 0.22514 0.0
H251 H 0.80091 0.64727 0.23582 0.0
Eu252 Eu 0.3106 0.74142 0.26489 0.0
C253 C 0.27511 0.84742 0.14506 0.0
C254 C 0.32874 0.89204 0.1481 0.0
C255 C 0.29153 0.88641 0.08571 0.0
C256 C 0.30526 0.86349 0.16639 0.0
C257 C 0.26727 0.85947 0.10476 0.0
C258 C 0.32225 0.90272 0.1074 0.0
C259 C 0.21009 0.82157 0.107 0.0
N260 N 0.25191 0.82231 0.16476 0.0
C261 C 0.21901 0.81109 0.1471 0.0
C262 C 0.23459 0.84536 0.08546 0.0
Eu263 Eu 0.26883 0.80417 0.23253 0.0
N264 N 0.3106 0.85251 0.20563 0.0
C265 C 0.33774 0.87049 0.22881 0.0
C266 C 0.35748 0.90955 0.17149 0.0
C267 C 0.36167 0.89904 0.21215 0.0
H268 H 0.19977 0.79356 0.16407 0.0
H269 H 0.38339 0.91281 0.23069 0.0
H270 H 0.34026 0.92422 0.09271 0.0
H271 H 0.18426 0.81165 0.09292 0.0
H272 H 0.3412 0.86305 0.26021 0.0
H273 H 0.27541 0.62607 0.20949 0.0
H274 H 0.37611 0.93159 0.15861 0.0
H275 H 0.31079 0.75186 0.35742 0.0
H276 H 0.30196 0.68611 0.20958 0.0
H277 H 0.28983 0.71897 0.41858 0.0
H278 H 0.28618 0.8957 0.05466 0.0
H279 H 0.24524 0.5902 0.26469 0.0
H280 H 0.22981 0.58435 0.3315 0.0
H281 H 0.22753 0.85389 0.05454 0.0
H282 H 0.23473 0.60954 0.38888 0.0
N283 N 0.28436 0.68439 0.26232 0.0
C284 C 0.28808 0.67061 0.23325 0.0
C285 C 0.2564 0.61654 0.2645 0.0
C286 C 0.25573 0.6304 0.29616 0.0
C287 C 0.27336 0.63668 0.23329 0.0
C288 C 0.2708 0.66483 0.29455 0.0
H289 H 0.25802 0.65935 0.42203 0.0
N290 N 0.29068 0.71189 0.32532 0.0
C291 C 0.28511 0.70739 0.39301 0.0
C292 C 0.27423 0.67894 0.32709 0.0
C293 C 0.29686 0.72612 0.35795 0.0
C294 C 0.26719 0.67377 0.39486 0.0
C295 C 0.26177 0.65905 0.3618 0.0
O296 O 0.35348 0.73184 0.30617 0.0
O297 O 0.31575 0.79284 0.23272 0.0
O298 O 0.24798 0.76744 0.18894 0.0
O299 O 0.26599 0.72212 0.21855 0.0
O300 O 0.32427 0.76168 0.20326 0.0
O301 O 0.35144 0.73367 0.24413 0.0
O302 O 0.22359 0.81628 0.23298 0.0
O303 O 0.26979 0.75801 0.27492 0.0
O304 O 0.33986 0.78407 0.29923 0.0
O305 O 0.30064 0.81098 0.29201 0.0
O306 O 0.22229 0.76082 0.24705 0.0
O307 O 0.27082 0.84067 0.26653 0.0
C308 C 0.32509 0.79144 0.20157 0.0
C309 C 0.3703 0.69217 0.28676 0.0
C310 C 0.38517 0.65109 0.26401 0.0
C311 C 0.38367 0.68326 0.25915 0.0
C312 C 0.3736 0.62822 0.29728 0.0
C313 C 0.35903 0.66864 0.31966 0.0
C314 C 0.36076 0.637 0.32481 0.0
C315 C 0.24754 0.73686 0.19078 0.0
C316 C 0.36552 0.72485 0.27939 0.0
C317 C 0.24486 0.62508 0.36268 0.0
C318 C 0.24191 0.61077 0.32995 0.0
C319 C 0.23798 0.74275 0.2716 0.0
C320 C 0.23373 0.87101 0.2406 0.0
C321 C 0.22343 0.88467 0.26605 0.0
C322 C 0.21738 0.91492 0.25317 0.0
C323 C 0.22224 0.93153 0.21464 0.0
C324 C 0.23868 0.88806 0.20236 0.0
C325 C 0.23301 0.9182 0.18953 0.0
C326 C 0.32935 0.80581 0.30876 0.0
C327 C 0.2395 0.83918 0.25448 0.0
H328 H 0.39191 0.70103 0.23335 0.0
H329 H 0.37483 0.60352 0.30234 0.0
H330 H 0.34829 0.6744 0.3412 0.0
H331 H 0.35188 0.61909 0.3502 0.0
H332 H 0.21939 0.8714 0.29554 0.0
H333 H 0.21784 0.95488 0.20403 0.0
H334 H 0.24679 0.87809 0.18242 0.0
H335 H 0.23682 0.9312 0.15995 0.0
Eu336 Eu 0.32034 0.73232 0.76415 0.0
C337 C 0.19608 0.75854 0.78529 0.0
C338 C 0.14894 0.7492 0.73208 0.0
C339 C 0.13789 0.73698 0.79968 0.0
C340 C 0.18415 0.75895 0.74555 0.0
C341 C 0.17294 0.74786 0.81278 0.0
C342 C 0.1259 0.73772 0.7594 0.0
C343 C 0.2206 0.76066 0.86414 0.0
N344 N 0.23018 0.769 0.79704 0.0
C345 C 0.24256 0.77105 0.83592 0.0
C346 C 0.18567 0.74867 0.85262 0.0
Eu347 Eu 0.26518 0.78328 0.74662 0.0
N348 N 0.20694 0.76988 0.71988 0.0
C349 C 0.19635 0.77386 0.6801 0.0
C350 C 0.13791 0.75181 0.69146 0.0
C351 C 0.16176 0.76459 0.66534 0.0
H352 H 0.26931 0.7797 0.8462 0.0
H353 H 0.15354 0.76716 0.63387 0.0
H354 H 0.09878 0.72983 0.74965 0.0
H355 H 0.23072 0.76173 0.89489 0.0
H356 H 0.2148 0.78342 0.65982 0.0
H357 H 0.42388 0.73191 0.88507 0.0
H358 H 0.1111 0.74458 0.67999 0.0
H359 H 0.32396 0.74012 0.66467 0.0
H360 H 0.36413 0.71972 0.85336 0.0
H361 H 0.36658 0.76209 0.62063 0.0
H362 H 0.11983 0.72843 0.82043 0.0
H363 H 0.47037 0.76019 0.84461 0.0
H364 H 0.48827 0.78325 0.77758 0.0
H365 H 0.16876 0.74054 0.87462 0.0
H366 H 0.47251 0.79169 0.7056 0.0
N367 N 0.37685 0.74094 0.79575 0.0
C368 C 0.38434 0.73168 0.83547 0.0
C369 C 0.44422 0.75471 0.83059 0.0
C370 C 0.4363 0.76249 0.78968 0.0
C371 C 0.41809 0.73865 0.8535 0.0
C372 C 0.40184 0.75474 0.77284 0.0
H373 H 0.42737 0.78341 0.64698 0.0
N374 N 0.35934 0.74919 0.71735 0.0
C375 C 0.37436 0.76155 0.65203 0.0
C376 C 0.39285 0.75912 0.73241 0.0
C377 C 0.35003 0.74892 0.67767 0.0
C378 C 0.40862 0.77366 0.66697 0.0
C379 C 0.41833 0.77188 0.70763 0.0
O380 O 0.28772 0.68464 0.74733 0.0
O381 O 0.273 0.73606 0.77593 0.0
O382 O 0.30517 0.79662 0.79965 0.0
O383 O 0.34619 0.77235 0.80213 0.0
O384 O 0.30097 0.717 0.82371 0.0
O385 O 0.33195 0.68701 0.79026 0.0
O386 O 0.28929 0.83234 0.76318 0.0
O387 O 0.31354 0.7805 0.73587 0.0
O388 O 0.28496 0.72597 0.70635 0.0
O389 O 0.23929 0.73986 0.71379 0.0
O390 O 0.28465 0.79825 0.68745 0.0
O391 O 0.25291 0.82564 0.71038 0.0
C392 C 0.27277 0.72295 0.81161 0.0
C393 C 0.28077 0.64441 0.80469 0.0
C394 C 0.27267 0.62234 0.87353 0.0
C395 C 0.29377 0.64075 0.84489 0.0
C396 C 0.23815 0.60629 0.86155 0.0
C397 C 0.24606 0.62838 0.79315 0.0
C398 C 0.22497 0.60937 0.82147 0.0
C399 C 0.33512 0.79283 0.81345 0.0
C400 C 0.30257 0.66808 0.7759 0.0
C401 C 0.45269 0.7815 0.72421 0.0
C402 C 0.46167 0.77671 0.76518 0.0
C403 C 0.31333 0.79336 0.70001 0.0
C404 C 0.30236 0.87206 0.70537 0.0
C405 C 0.29121 0.88289 0.66601 0.0
C406 C 0.31417 0.90418 0.6405 0.0
C407 C 0.34886 0.91564 0.65511 0.0
C408 C 0.33725 0.88354 0.71959 0.0
C409 C 0.36026 0.90532 0.69455 0.0
C410 C 0.25285 0.72462 0.69701 0.0
C411 C 0.27744 0.84669 0.72952 0.0
H412 H 0.32062 0.65243 0.8541 0.0
H413 H 0.22146 0.5916 0.88308 0.0
H414 H 0.23512 0.6311 0.76238 0.0
H415 H 0.19824 0.59729 0.81235 0.0
H416 H 0.26425 0.87478 0.65517 0.0
H417 H 0.36698 0.93252 0.63616 0.0
H418 H 0.34684 0.87536 0.74973 0.0
H419 H 0.38708 0.91401 0.70567 0.0
Eu420 Eu 0.27015 0.25305 0.79398 0.0
C421 C 0.35397 0.3598 0.66656 0.0
C422 C 0.31345 0.37388 0.61246 0.0
C423 C 0.36907 0.4144 0.62647 0.0
C424 C 0.32216 0.35129 0.64465 0.0
C425 C 0.37802 0.39132 0.65744 0.0
C426 C 0.33683 0.40568 0.60398 0.0
C427 C 0.41862 0.37418 0.70858 0.0
N428 N 0.36186 0.33678 0.69593 0.0
C429 C 0.39396 0.34324 0.71638 0.0
C430 C 0.41055 0.39844 0.67919 0.0
Eu431 Eu 0.31833 0.28533 0.70894 0.0
N432 N 0.30034 0.3203 0.65348 0.0
C433 C 0.27047 0.3095 0.6293 0.0
C434 C 0.2819 0.36351 0.58907 0.0
C435 C 0.26053 0.33099 0.5972 0.0
H436 H 0.40048 0.32487 0.73943 0.0
H437 H 0.23641 0.32243 0.57875 0.0
H438 H 0.3305 0.42345 0.57958 0.0
H439 H 0.44381 0.37931 0.72532 0.0
H440 H 0.25386 0.28445 0.63494 0.0
H441 H 0.35736 0.21911 0.92015 0.0
H442 H 0.27424 0.3801 0.56413 0.0
H443 H 0.18769 0.21209 0.76853 0.0
H444 H 0.33714 0.25628 0.86509 0.0
H445 H 0.14617 0.15644 0.78362 0.0
H446 H 0.38711 0.4388 0.61916 0.0
H447 H 0.32177 0.16065 0.93543 0.0
H448 H 0.26633 0.11567 0.92154 0.0
H449 H 0.42973 0.42237 0.67314 0.0
H450 H 0.20875 0.09863 0.88446 0.0
N451 N 0.29094 0.21913 0.84826 0.0
C452 C 0.32129 0.23086 0.87131 0.0
C453 C 0.31278 0.17686 0.91109 0.0
C454 C 0.28081 0.16548 0.88883 0.0
C455 C 0.33289 0.20985 0.90263 0.0
C456 C 0.27037 0.18762 0.85743 0.0
H457 H 0.16356 0.11378 0.83334 0.0
N458 N 0.22838 0.20078 0.8085 0.0
C459 C 0.17196 0.16216 0.79874 0.0
C460 C 0.23804 0.17811 0.83684 0.0
C461 C 0.19551 0.19369 0.79037 0.0
C462 C 0.1819 0.13813 0.82673 0.0
C463 C 0.21514 0.14609 0.84666 0.0
O464 O 0.23288 0.2701 0.80877 0.0
O465 O 0.27822 0.28932 0.73764 0.0
O466 O 0.33228 0.32579 0.74548 0.0
O467 O 0.32142 0.29221 0.80566 0.0
O468 O 0.22899 0.26848 0.75007 0.0
O469 O 0.28148 0.27718 0.84543 0.0
O470 O 0.35586 0.2713 0.68932 0.0
O471 O 0.31018 0.24884 0.76523 0.0
O472 O 0.2527 0.21405 0.75507 0.0
O473 O 0.26584 0.24838 0.69553 0.0
O474 O 0.35937 0.27032 0.75369 0.0
O475 O 0.3033 0.25527 0.66266 0.0
C476 C 0.24801 0.28941 0.72534 0.0
C477 C 0.23522 0.27347 0.87523 0.0
C478 C 0.21119 0.29178 0.91968 0.0
C479 C 0.22866 0.29865 0.88719 0.0
C480 C 0.20078 0.25903 0.93993 0.0
C481 C 0.22485 0.24128 0.89613 0.0
C482 C 0.20779 0.23419 0.92839 0.0
C483 C 0.33489 0.32126 0.78436 0.0
C484 C 0.25197 0.28102 0.84016 0.0
C485 C 0.22587 0.12343 0.87668 0.0
C486 C 0.25866 0.13312 0.89776 0.0
C487 C 0.34039 0.24919 0.77822 0.0
C488 C 0.34403 0.25759 0.62487 0.0
C489 C 0.35495 0.23285 0.6187 0.0
C490 C 0.36321 0.23344 0.58173 0.0
C491 C 0.36013 0.25933 0.55094 0.0
C492 C 0.34141 0.28325 0.59386 0.0
C493 C 0.34941 0.28403 0.55708 0.0
C494 C 0.24844 0.22045 0.71616 0.0
C495 C 0.33372 0.25488 0.66322 0.0
H496 H 0.23728 0.32354 0.8711 0.0
H497 H 0.18651 0.25223 0.96431 0.0
H498 H 0.22968 0.22165 0.88727 0.0
H499 H 0.19955 0.2092 0.94425 0.0
H500 H 0.35642 0.2128 0.64263 0.0
H501 H 0.36663 0.26087 0.52232 0.0
H502 H 0.33291 0.30243 0.59797 0.0
H503 H 0.3473 0.30388 0.5332 0.0
Eu504 Eu 0.81025 0.23508 0.76051 0.0
C505 C 0.78662 0.33957 0.64522 0.0
C506 C 0.83203 0.39077 0.65539 0.0
C507 C 0.81134 0.37831 0.58923 0.0
C508 C 0.80926 0.36004 0.67059 0.0
C509 C 0.78681 0.34919 0.60406 0.0
C510 C 0.83376 0.39919 0.61484 0.0
C511 C 0.73447 0.30452 0.5944 0.0
N512 N 0.76241 0.31207 0.66032 0.0
C513 C 0.73483 0.2966 0.63518 0.0
C514 C 0.76112 0.33034 0.57877 0.0
Eu515 Eu 0.76838 0.29839 0.73111 0.0
N516 N 0.8077 0.351 0.70986 0.0
C517 C 0.82478 0.37356 0.73448 0.0
C518 C 0.85177 0.41259 0.68124 0.0
C519 C 0.84754 0.40421 0.72084 0.0
H520 H 0.71235 0.27844 0.64589 0.0
H521 H 0.86144 0.42154 0.74082 0.0
H522 H 0.85165 0.42228 0.60287 0.0
H523 H 0.71312 0.29124 0.575 0.0
H524 H 0.82038 0.36872 0.76455 0.0
H525 H 0.75748 0.12064 0.69861 0.0
H526 H 0.86942 0.43638 0.6707 0.0
H527 H 0.81695 0.24399 0.85615 0.0
H528 H 0.79127 0.17891 0.70086 0.0
H529 H 0.79808 0.21078 0.91771 0.0
H530 H 0.81212 0.3857 0.55783 0.0
H531 H 0.72879 0.086 0.75529 0.0
H532 H 0.71942 0.08018 0.82467 0.0
H533 H 0.76044 0.33687 0.54709 0.0
H534 H 0.73176 0.10433 0.8847 0.0
N535 N 0.77848 0.17873 0.75627 0.0
C536 C 0.77765 0.16452 0.72516 0.0
C537 C 0.74293 0.11186 0.75604 0.0
C538 C 0.74697 0.12555 0.78957 0.0
C539 C 0.75899 0.13131 0.72398 0.0
C540 C 0.76562 0.15943 0.78905 0.0
H541 H 0.76187 0.15242 0.91987 0.0
N542 N 0.79186 0.20539 0.82196 0.0
C543 C 0.79068 0.19984 0.89126 0.0
C544 C 0.77292 0.17297 0.82298 0.0
C545 C 0.80131 0.21875 0.85578 0.0
C546 C 0.77029 0.16693 0.89237 0.0
C547 C 0.76126 0.15302 0.85811 0.0
O548 O 0.85349 0.22492 0.80037 0.0
O549 O 0.81667 0.28819 0.73321 0.0
O550 O 0.73653 0.25245 0.70175 0.0
O551 O 0.77456 0.22506 0.7044 0.0
O552 O 0.83147 0.26095 0.70382 0.0
O553 O 0.84643 0.22119 0.73888 0.0
O554 O 0.72549 0.31669 0.70822 0.0
O555 O 0.76356 0.24667 0.76054 0.0
O556 O 0.83871 0.27502 0.79853 0.0
O557 O 0.80857 0.312 0.78372 0.0
O558 O 0.73945 0.27017 0.78243 0.0
O559 O 0.75335 0.32437 0.766 0.0
C560 C 0.8299 0.28959 0.70362 0.0
C561 C 0.86457 0.18066 0.78374 0.0
C562 C 0.87707 0.13698 0.76409 0.0
C563 C 0.87752 0.16982 0.75783 0.0
C564 C 0.86349 0.11505 0.79692 0.0
C565 C 0.85138 0.15833 0.81654 0.0
C566 C 0.85087 0.12576 0.82297 0.0
C567 C 0.74613 0.23123 0.6894 0.0
C568 C 0.8621 0.21421 0.77388 0.0
C569 C 0.74128 0.1198 0.85814 0.0
C570 C 0.73412 0.10609 0.82393 0.0
C571 C 0.74626 0.24341 0.78709 0.0
C572 C 0.73185 0.36617 0.73052 0.0
C573 C 0.72194 0.37848 0.75791 0.0
C574 C 0.72524 0.41217 0.7525 0.0
C575 C 0.73891 0.43332 0.71923 0.0
C576 C 0.74509 0.38781 0.69744 0.0
C577 C 0.74867 0.42116 0.69199 0.0
C578 C 0.8329 0.30088 0.8048 0.0
C579 C 0.73028 0.33131 0.73834 0.0
H580 H 0.88705 0.18682 0.73207 0.0
H581 H 0.86307 0.08975 0.80281 0.0
H582 H 0.84095 0.1658 0.83687 0.0
H583 H 0.84049 0.10869 0.84818 0.0
H584 H 0.71211 0.36184 0.78372 0.0
H585 H 0.74135 0.45918 0.71372 0.0
H586 H 0.7529 0.37903 0.67596 0.0
H587 H 0.75896 0.43768 0.66641 0.0
Eu588 Eu 0.77052 0.73662 0.70573 0.0
C589 C 0.8721 0.79556 0.84583 0.0
C590 C 0.8735 0.74798 0.8958 0.0
C591 C 0.92342 0.79724 0.8924 0.0
C592 C 0.8562 0.76352 0.86307 0.0
C593 C 0.90561 0.81307 0.86089 0.0
C594 C 0.9074 0.76474 0.9098 0.0
C595 C 0.90033 0.86145 0.81497 0.0
N596 N 0.8541 0.81028 0.81576 0.0
C597 C 0.86709 0.84315 0.80128 0.0
C598 C 0.91985 0.84624 0.84458 0.0
Eu599 Eu 0.79851 0.77738 0.79325 0.0
N600 N 0.82335 0.74807 0.84903 0.0
C601 C 0.80559 0.71796 0.86804 0.0
C602 C 0.85594 0.71636 0.91408 0.0
C603 C 0.82171 0.70149 0.90045 0.0
H604 H 0.85206 0.85492 0.77829 0.0
H605 H 0.80773 0.67727 0.91479 0.0
H606 H 0.92119 0.75308 0.93466 0.0
H607 H 0.91086 0.88726 0.80274 0.0
H608 H 0.77919 0.70606 0.85776 0.0
H609 H 0.75297 0.83317 0.58273 0.0
H610 H 0.86835 0.70354 0.9392 0.0
H611 H 0.72355 0.65673 0.71773 0.0
H612 H 0.78435 0.80688 0.63916 0.0
H613 H 0.6665 0.62063 0.69381 0.0
H614 H 0.9493 0.81017 0.90414 0.0
H615 H 0.69268 0.80381 0.56037 0.0
H616 H 0.64244 0.75177 0.56627 0.0
H617 H 0.94553 0.86053 0.85531 0.0
H618 H 0.61882 0.69364 0.59651 0.0
N619 N 0.74217 0.76345 0.65026 0.0
C620 C 0.75813 0.79372 0.63004 0.0
C621 C 0.70633 0.79219 0.58544 0.0
C622 C 0.69077 0.76022 0.60443 0.0
C623 C 0.74037 0.80878 0.59787 0.0
C624 C 0.70973 0.74624 0.63693 0.0
H625 H 0.62785 0.64433 0.64356 0.0
N626 N 0.71669 0.70051 0.6826 0.0
C627 C 0.67453 0.6468 0.68242 0.0
C628 C 0.69654 0.71365 0.65367 0.0
C629 C 0.70682 0.66729 0.69586 0.0
C630 C 0.65275 0.66028 0.65417 0.0
C631 C 0.66391 0.69398 0.63879 0.0
O632 O 0.78462 0.6987 0.68963 0.0
O633 O 0.80422 0.73985 0.76435 0.0
O634 O 0.84383 0.79187 0.76129 0.0
O635 O 0.81482 0.78485 0.69841 0.0
O636 O 0.77881 0.69332 0.75097 0.0
O637 O 0.80111 0.74861 0.65847 0.0
O638 O 0.78728 0.81836 0.80564 0.0
O639 O 0.76406 0.77384 0.73502 0.0
O640 O 0.72517 0.71785 0.73837 0.0
O641 O 0.75054 0.73265 0.80033 0.0
O642 O 0.7916 0.8207 0.74759 0.0
O643 O 0.77275 0.77102 0.84353 0.0
C644 C 0.80038 0.70956 0.7769 0.0
C645 C 0.79248 0.70588 0.62325 0.0
C646 C 0.8084 0.68111 0.57785 0.0
C647 C 0.8149 0.6929 0.61379 0.0
C648 C 0.77887 0.68253 0.55167 0.0
C649 C 0.76322 0.7069 0.59671 0.0
C650 C 0.7565 0.69525 0.56116 0.0
C651 C 0.84248 0.79784 0.7226 0.0
C652 C 0.80012 0.71842 0.66074 0.0
C653 C 0.64409 0.70826 0.60807 0.0
C654 C 0.65752 0.74135 0.59089 0.0
C655 C 0.76881 0.80436 0.72252 0.0
C656 C 0.78457 0.81883 0.87166 0.0
C657 C 0.7631 0.83318 0.88072 0.0
C658 C 0.77356 0.85163 0.91191 0.0
C659 C 0.80601 0.85504 0.93385 0.0
C660 C 0.81642 0.82228 0.8944 0.0
C661 C 0.82702 0.84027 0.92531 0.0
C662 C 0.72469 0.7165 0.77616 0.0
C663 C 0.774 0.80171 0.83729 0.0
H664 H 0.83723 0.69174 0.6347 0.0
H665 H 0.77326 0.67426 0.52355 0.0
H666 H 0.74568 0.7168 0.60338 0.0
H667 H 0.73391 0.69622 0.54076 0.0
H668 H 0.73826 0.82978 0.86337 0.0
H669 H 0.81565 0.86961 0.95727 0.0
H670 H 0.83322 0.81137 0.88807 0.0
H671 H 0.85185 0.84313 0.94247 0.0
Co672 Co 0.07872 0.97564 0.47336 0.0
Co673 Co 0.09249 0.97546 0.5465 0.0
Co674 Co 0.03987 1.01507 0.50946 0.0
O675 O 0.08094 1.00552 0.5061 0.0
H676 H 0.10024 0.02548 0.50296 0.0
O677 O 0.9989 0.02479 0.51373 0.0
Co678 Co 1.0038 0.05896 0.54202 0.0
Co679 Co 0.98585 0.05215 0.47078 0.0
H680 H 0.97996 1.00506 0.51972 0.0
O681 O 0.13747 0.98441 0.56155 0.0
O682 O 0.10281 0.95166 0.51765 0.0
O683 O 0.06011 0.95027 0.58227 0.0
O684 O 1.02463 0.97834 0.55442 0.0
O685 O 0.06837 0.04474 0.54727 0.0
O686 O 1.00623 0.0885 0.56938 0.0
O687 O 0.96549 0.03919 0.56566 0.0
O688 O 0.04525 0.08354 0.52298 0.0
O689 O 0.05535 0.05166 0.46403 0.0
O690 O 1.0171 0.07605 0.43391 0.0
O691 O 0.97763 0.0794 0.49637 0.0
O692 O 0.94074 0.04296 0.45777 0.0
C693 C 0.10736 0.97431 0.43463 0.0
C694 C 1.01075 0.95667 0.47152 0.0
C695 C 1.03249 0.95563 0.58007 0.0
C696 C 0.13308 0.96564 0.5359 0.0
C697 C 0.97818 0.06678 0.57993 0.0
C698 C 0.06966 0.07449 0.54337 0.0
C699 C 0.04574 0.07257 0.43699 0.0
C700 C 0.94664 0.06415 0.48094 0.0
O701 O 0.07916 0.95067 0.4411 0.0
O702 O 0.11847 0.99894 0.45412 0.0
O703 O 1.01103 0.98559 0.47141 0.0
O704 O 1.03626 0.94786 0.48805 0.0
Co705 Co 0.58315 0.96467 0.99637 0.0
Co706 Co 0.58568 0.97737 0.06394 0.0
Co707 Co 0.54033 0.0179 0.99859 0.0
O708 O 0.58132 1.00223 0.01423 0.0
H709 H 0.60206 0.02067 0.01136 0.0
O710 O 0.49959 0.03395 0.98295 0.0
Co711 Co 0.49914 0.07262 0.99998 0.0
Co712 Co 0.49488 0.05802 0.93237 0.0
H713 H 0.47877 1.01578 0.98662 0.0
O714 O 0.62794 0.97659 0.09165 0.0
O715 O 0.59251 0.94124 0.05196 0.0
O716 O 0.54581 0.96203 0.08901 0.0
O717 O 0.51347 0.98473 0.04085 0.0
O718 O 0.56333 0.05068 0.03532 0.0
O719 O 0.49511 0.10568 0.01718 0.0
O720 O 0.45405 0.05862 0.00381 0.0
O721 O 0.54679 0.09212 0.99984 0.0
O722 O 0.56697 0.05068 0.95609 0.0
O723 O 0.53414 0.0711 0.90599 0.0
O724 O 0.49004 0.09533 0.94412 0.0
O725 O 0.45262 0.0605 0.90529 0.0
C726 C 0.61964 0.95194 0.98008 0.0
C727 C 0.51371 0.95432 0.97124 0.0
C728 C 0.51738 0.96567 0.07376 0.0
C729 C 0.62011 0.94963 0.0775 0.0
C730 C 0.46346 0.08697 0.01583 0.0
C731 C 0.56773 0.08152 0.02596 0.0
C732 C 0.56269 0.06795 0.92191 0.0
C733 C 0.46182 0.08765 0.91943 0.0
O734 O 0.58818 0.93268 0.97791 0.0
O735 O 0.62841 0.97971 0.99324 0.0
O736 O 0.51735 0.98502 0.962 0.0
O737 O 0.53563 0.94415 0.99612 0.0
Co738 Co 0.07527 0.45589 0.00589 0.0
Co739 Co 0.08034 0.47379 0.07148 0.0
Co740 Co 1.03813 0.51502 0.00324 0.0
O741 O 0.07751 0.4969 0.02009 0.0
H742 H 0.09895 0.51407 0.01612 0.0
O743 O 0.99863 0.53293 0.98634 0.0
Co744 Co 1.00012 0.57241 0.00312 0.0
Co745 Co 0.99624 0.55824 0.93661 0.0
H746 H 0.97717 0.51548 0.98922 0.0
O747 O 0.12223 0.4725 0.09959 0.0
O748 O 0.0852 0.4356 0.06281 0.0
O749 O 0.04015 0.46069 0.0959 0.0
O750 O 1.00985 0.48371 0.04559 0.0
O751 O 0.06241 0.54885 0.0386 0.0
O752 O 0.99863 0.60642 0.02031 0.0
O753 O 0.95569 0.5597 0.00986 0.0
O754 O 0.04729 0.59037 1.00058 0.0
O755 O 0.06629 0.54631 0.96079 0.0
O756 O 1.037 0.57267 0.91297 0.0
O757 O 0.98891 0.59469 0.94712 0.0
O758 O 0.95438 0.55846 0.90792 0.0
C759 C 0.1082 0.4369 0.99212 0.0
C760 C 1.00865 0.4503 0.97891 0.0
C761 C 1.01231 0.46504 0.07919 0.0
C762 C 0.11355 0.44472 0.08698 0.0
C763 C 0.96695 0.58849 0.02124 0.0
C764 C 0.0676 0.57981 0.02779 0.0
C765 C 0.06427 0.56657 0.92839 0.0
C766 C 0.96131 0.58541 0.92175 0.0
O767 O 0.07615 0.4201 0.99201 0.0
O768 O 0.11996 0.46675 1.00062 0.0
O769 O 1.01407 0.48127 0.96795 0.0
O770 O 1.02796 0.43958 0.00737 0.0
Co771 Co 0.57876 0.50074 0.93719 0.0
Co772 Co 0.56722 0.46417 0.00228 0.0
Co773 Co 0.54061 0.52016 0.00398 0.0
O774 O 0.57795 0.50876 0.99013 0.0
H775 H 0.60016 0.52002 0.00312 0.0
O776 O 0.50359 0.53133 0.01811 0.0
Co777 Co 0.5124 0.56726 0.0454 0.0
Co778 Co 0.48592 0.55677 0.97583 0.0
H779 H 0.48574 0.51187 0.02774 0.0
O780 O 0.60317 0.45052 0.02209 0.0
O781 O 0.57547 0.45353 0.95929 0.0
O782 O 0.52695 0.43975 0.0268 0.0
O783 O 0.53171 0.48367 0.05111 0.0
O784 O 0.57559 0.55053 0.03818 0.0
O785 O 0.51834 0.59897 0.07239 0.0
O786 O 0.47672 0.54983 0.07348 0.0
O787 O 0.55138 0.58907 0.0206 0.0
O788 O 0.55086 0.55585 0.95688 0.0
O789 O 0.51098 0.57907 0.93217 0.0
O790 O 0.48369 0.58688 0.00195 0.0
O791 O 0.44086 0.54828 0.97114 0.0
C792 C 0.61381 0.50099 0.905 0.0
C793 C 0.50458 0.48343 0.9381 0.0
C794 C 0.51977 0.45249 0.05128 0.0
C795 C 0.59879 0.44544 0.98611 0.0
C796 C 0.49071 0.57838 0.08548 0.0
C797 C 0.57664 0.57991 0.03765 0.0
C798 C 0.53891 0.57571 0.93097 0.0
C799 C 0.45129 0.57198 0.99177 0.0
O800 O 0.58191 0.49424 0.8911 0.0
O801 O 0.62484 0.51141 0.93901 0.0
O802 O 0.50377 0.49086 0.97045 0.0
O803 O 0.53211 0.48802 0.92645 0.0
Co804 Co 0.10446 0.48246 0.53597 0.0
Co805 Co 0.07663 0.4825 0.46323 0.0
Co806 Co 0.04044 0.51882 0.49803 0.0
O807 O 0.05942 0.48142 0.50731 0.0
H808 H 0.0424 0.46017 0.5135 0.0
O809 O 1.02147 0.55613 0.48936 0.0
Co810 Co 0.97679 0.55586 0.4603 0.0
Co811 Co 1.00382 0.5544 0.53402 0.0
H812 H 0.03865 0.57736 0.48365 0.0
O813 O 0.07941 0.44559 0.45167 0.0
O814 O 0.12024 0.48296 0.48588 0.0
O815 O 0.07949 0.51969 0.42196 0.0
O816 O 0.07354 0.55014 0.46038 0.0
O817 O 1.0069 0.50003 0.45379 0.0
O818 O 0.93725 0.55963 0.43271 0.0
O819 O 0.98489 0.60079 0.44814 0.0
O820 O 0.96195 0.50842 0.46661 0.0
O821 O 1.00748 0.48737 0.53527 0.0
O822 O 0.99846 0.51573 0.57401 0.0
O823 O 0.96082 0.55509 0.51025 0.0
O824 O 1.001 0.59156 0.54579 0.0
C825 C 0.12867 0.44782 0.56576 0.0
C826 C 0.10575 0.54581 0.54357 0.0
C827 C 0.08336 0.54758 0.42962 0.0
C828 C 0.11084 0.4578 0.46729 0.0
C829 C 0.95323 0.59114 0.43125 0.0
C830 C 0.97484 0.49193 0.45272 0.0
C831 C 0.99603 0.48853 0.5655 0.0
C832 C 0.97006 0.58053 0.52825 0.0
O833 O 0.14425 0.47945 0.56348 0.0
O834 O 0.09704 0.4376 0.54891 0.0
O835 O 0.0737 0.53753 0.54232 0.0
O836 O 0.11878 0.5299 0.52896 0.0
Co837 Co 0.60058 0.9781 0.54124 0.0
Co838 Co 0.57669 0.98388 0.46766 0.0
Co839 Co 0.53731 1.01543 0.50434 0.0
O840 O 0.55667 0.97886 0.51082 0.0
H841 H 0.53944 0.95736 0.51411 0.0
O842 O 0.51799 0.0521 0.49791 0.0
Co843 Co 0.47376 0.05216 0.46801 0.0
Co844 Co 0.49823 0.04708 0.54137 0.0
H845 H 0.53512 0.07364 0.49427 0.0
O846 O 0.57426 0.94763 0.45146 0.0
O847 O 0.61764 0.97818 0.49148 0.0
O848 O 0.58379 0.02388 0.43013 0.0
O849 O 0.57079 0.04941 0.46892 0.0
O850 O 0.50436 0.99866 0.45859 0.0
O851 O 0.43477 0.0554 0.43984 0.0
O852 O 0.48165 0.09744 0.45469 0.0
O853 O 0.45902 1.00431 0.47422 0.0
O854 O 0.50405 0.98152 0.53983 0.0
O855 O 0.49114 1.00691 0.57886 0.0
O856 O 0.4573 0.053 0.51783 0.0
O857 O 0.50097 0.08343 0.55767 0.0
C858 C 0.62332 0.94225 0.57098 0.0
C859 C 0.60204 0.04164 0.5509 0.0
C860 C 0.58426 0.05008 0.4394 0.0
C861 C 0.60518 0.95449 0.46992 0.0
C862 C 0.45013 0.08702 0.43747 0.0
C863 C 0.47228 0.98916 0.4585 0.0
C864 C 0.49081 0.98077 0.56953 0.0
C865 C 0.47007 0.07684 0.53918 0.0
O866 O 0.63923 0.97373 0.56992 0.0
O867 O 0.59198 0.93277 0.55307 0.0
O868 O 0.56992 0.03191 0.55026 0.0
O869 O 0.61596 0.02623 0.53646 0.0
H870 H 0.19372 0.24222 0.32678 0.0
H871 H 0.09441 0.05882 0.41171 0.0
H872 H 0.19538 0.16136 0.27907 0.0
H873 H 0.05207 0.13595 0.40089 0.0
H874 H 0.13651 0.09648 0.36977 0.0
H875 H 0.14631 0.20421 0.36137 0.0
C876 C 0.1838 0.2165 0.32334 0.0
C877 C 0.19794 0.20484 0.29968 0.0
C878 C 0.11779 0.10499 0.37634 0.0
C879 C 0.14474 0.16139 0.33967 0.0
C880 C 0.0939 0.08363 0.40033 0.0
C881 C 0.06974 0.09433 0.40967 0.0
C882 C 0.11808 0.13751 0.36253 0.0
C883 C 0.07014 0.1267 0.39414 0.0
C884 C 0.15682 0.19495 0.34289 0.0
C885 C 0.18457 0.17135 0.29632 0.0
N886 N 0.09428 0.14735 0.37175 0.0
N887 N 0.15895 0.15062 0.31655 0.0
H888 H 0.75357 0.06372 0.41255 0.0
H889 H 0.94451 0.12083 0.49889 0.0
H890 H 0.81362 0.16428 0.42448 0.0
H891 H 0.88243 0.02175 0.4821 0.0
H892 H 0.89279 0.13363 0.49669 0.0
H893 H 0.79353 0.04495 0.46425 0.0
C894 C 0.77445 0.08183 0.42716 0.0
C895 C 0.78128 0.11559 0.41311 0.0
C896 C 0.89054 0.10884 0.49448 0.0
C897 C 0.82788 0.09449 0.47078 0.0
C898 C 0.92004 0.10163 0.49559 0.0
C899 C 0.91744 0.07073 0.48875 0.0
C900 C 0.85857 0.08489 0.48646 0.0
C901 C 0.88535 0.04638 0.48572 0.0
C902 C 0.79755 0.07115 0.45647 0.0
C903 C 0.80838 0.13797 0.43352 0.0
N904 N 0.85714 0.05416 0.48381 0.0
N905 N 0.83148 0.1271 0.46039 0.0
H906 H 0.82492 0.86468 0.32541 0.0
H907 H 1.01199 0.90506 0.44175 0.0
H908 H 0.90257 0.83906 0.29296 0.0
H909 H 0.94844 0.96214 0.44094 0.0
H910 H 0.96952 0.87597 0.39219 0.0
H911 H 0.86802 0.89784 0.37148 0.0
C912 C 0.85131 0.86698 0.32724 0.0
C913 C 0.86069 0.85017 0.30482 0.0
C914 C 0.96493 0.89487 0.40292 0.0
C915 C 0.90947 0.88636 0.35829 0.0
C916 C 0.98897 0.91124 0.43148 0.0
C917 C 0.98377 0.93615 0.44534 0.0
C918 C 0.93532 0.90314 0.38863 0.0
C919 C 0.9535 0.94319 0.43088 0.0
C920 C 0.87575 0.88557 0.35363 0.0
C921 C 0.89477 0.8527 0.30892 0.0
N922 N 0.93034 0.92671 0.40332 0.0
N923 N 0.91801 0.87023 0.33557 0.0
H924 H 0.24161 0.92263 0.33034 0.0
H925 H 0.08068 0.95424 0.36453 0.0
H926 H 0.16375 0.93761 0.2351 0.0
H927 H 0.17617 0.98819 0.43909 0.0
H928 H 0.10994 0.9441 0.31882 0.0
H929 H 0.21759 0.94255 0.37335 0.0
C930 C 0.21957 0.93024 0.31851 0.0
C931 C 0.20454 0.92842 0.27918 0.0
C932 C 0.12464 0.95415 0.3449 0.0
C933 C 0.17699 0.95087 0.32802 0.0
C934 C 0.10796 0.95988 0.37098 0.0
C935 C 0.12614 0.97216 0.40541 0.0
C936 C 0.15968 0.95985 0.35378 0.0
C937 C 0.16139 0.97898 0.41259 0.0
C938 C 0.20608 0.9418 0.34291 0.0
C939 C 0.1762 0.93879 0.26516 0.0
N940 N 0.17706 0.97222 0.3872 0.0
N941 N 0.16311 0.94918 0.28967 0.0
H942 H 0.32772 0.9681 0.60348 0.0
H943 H 0.13722 0.9121 0.51227 0.0
H944 H 0.26824 0.86852 0.58649 0.0
H945 H 0.19728 1.00854 0.54036 0.0
H946 H 0.18979 0.90106 0.5135 0.0
H947 H 0.28776 0.98805 0.55295 0.0
C948 C 0.307 0.95053 0.58794 0.0
C949 C 0.3003 0.91658 0.60025 0.0
C950 C 0.19142 0.92495 0.51842 0.0
C951 C 0.25377 0.93895 0.54391 0.0
C952 C 0.16145 0.93114 0.51788 0.0
C953 C 0.16316 0.96063 0.52805 0.0
C954 C 0.22297 0.9485 0.52915 0.0
C955 C 0.195 0.98489 0.53405 0.0
C956 C 0.28391 0.96186 0.55932 0.0
C957 C 0.2734 0.8949 0.57874 0.0
N958 N 0.22364 0.97807 0.53523 0.0
N959 N 0.25032 0.90633 0.55254 0.0
H960 H 0.22215 0.15296 0.73404 0.0
H961 H 0.08255 0.14007 0.54158 0.0
H962 H 0.20976 0.23656 0.64874 0.0
H963 H 0.11523 0.05802 0.60433 0.0
H964 H 0.12403 0.17486 0.58662 0.0
H965 H 0.17683 0.11625 0.69297 0.0
C966 C 0.20987 0.1635 0.70676 0.0
C967 C 0.22017 0.19767 0.69408 0.0
C968 C 0.12212 0.14923 0.59047 0.0
C969 C 0.16868 0.15641 0.64769 0.0
C970 C 0.09851 0.12941 0.56475 0.0
C971 C 0.09557 0.0962 0.56911 0.0
C972 C 0.14273 0.13566 0.62092 0.0
C973 C 0.11682 0.0836 0.59975 0.0
C974 C 0.18423 0.14268 0.68337 0.0
C975 C 0.20333 0.21032 0.65889 0.0
N976 N 0.1395 0.10336 0.62462 0.0
N977 N 0.17846 0.1897 0.63689 0.0
H978 H 0.9348 0.17032 0.73045 0.0
H979 H 0.91695 0.03069 0.60815 0.0
H980 H 0.85148 0.07829 0.73515 0.0
H981 H 1.00087 0.12189 0.6133 0.0
H982 H 0.89091 0.04684 0.65299 0.0
H983 H 0.9577 0.15244 0.68535 0.0
C984 C 0.92116 0.14638 0.72178 0.0
C985 C 0.89109 0.12587 0.73658 0.0
C986 C 0.91505 0.06317 0.6442 0.0
C987 C 0.91753 0.10483 0.68495 0.0
C988 C 0.9299 0.05396 0.61869 0.0
C989 C 0.9612 0.07486 0.60698 0.0
C990 C 0.93167 0.09348 0.65786 0.0
C991 C 0.97676 0.10483 0.62139 0.0
C992 C 0.93438 0.13603 0.69614 0.0
C993 C 0.87492 0.09479 0.72477 0.0
N994 N 0.96189 0.11313 0.6459 0.0
N995 N 0.88831 0.08521 0.69958 0.0
H996 H 0.84113 0.83836 0.65225 0.0
H997 H 1.038 0.90534 0.64183 0.0
H998 H 0.91042 0.81373 0.75276 0.0
H999 H 0.96895 0.95694 0.57812 0.0
H1000 H 0.99301 0.86804 0.68068 0.0
H1001 H 0.88888 0.87794 0.62137 0.0
C1002 C 0.86646 0.84114 0.66776 0.0
C1003 C 0.87183 0.82246 0.7049 0.0
C1004 C 0.98808 0.88782 0.65841 0.0
C1005 C 0.92693 0.86804 0.66963 0.0
C1006 C 1.01361 0.90901 0.63616 0.0
C1007 C 1.00722 0.93417 0.60631 0.0
C1008 C 0.95597 0.89163 0.65021 0.0
C1009 C 0.97516 0.93785 0.60046 0.0
C1010 C 0.89377 0.864 0.65024 0.0
C1011 C 0.90531 0.82767 0.72398 0.0
N1012 N 0.95076 0.91665 0.62185 0.0
N1013 N 0.9318 0.84981 0.70589 0.0
H1014 H 0.37294 0.20327 0.09585 0.0
H1015 H 0.39376 0.05817 0.01162 0.0
H1016 H 0.28789 0.1208 0.05948 0.0
H1017 H 0.47677 0.14334 0.04482 0.0
H1018 H 0.35433 0.07964 0.0297 0.0
H1019 H 0.41118 0.18045 0.07865 0.0
C1020 C 0.36226 0.18021 0.08456 0.0
C1021 C 0.32702 0.16399 0.07924 0.0
C1022 C 0.3812 0.09356 0.03304 0.0
C1023 C 0.3709 0.13775 0.05885 0.0
C1024 C 0.40373 0.08128 0.02278 0.0
C1025 C 0.43871 0.09887 0.02678 0.0
C1026 C 0.39375 0.12361 0.0475 0.0
C1027 C 0.45009 0.12881 0.04122 0.0
C1028 C 0.38415 0.16727 0.07443 0.0
C1029 C 0.3148 0.13444 0.06371 0.0
N1030 N 0.42776 0.14012 0.05104 0.0
N1031 N 0.33665 0.12229 0.05412 0.0
H1032 H 0.87002 0.32934 0.23509 0.0
H1033 H 0.94537 0.45211 0.04507 0.0
H1034 H 0.81062 0.33438 0.11995 0.0
H1035 H 1.00753 0.42996 0.15424 0.0
H1036 H 0.89494 0.41309 0.07321 0.0
H1037 H 0.91983 0.36888 0.207 0.0
C1038 C 0.86754 0.33831 0.20373 0.0
C1039 C 0.83624 0.32762 0.17966 0.0
C1040 C 0.91961 0.41692 0.09105 0.0
C1041 C 0.89316 0.37444 0.14734 0.0
C1042 C 0.94846 0.43947 0.07513 0.0
C1043 C 0.98096 0.44455 0.09726 0.0
C1044 C 0.92309 0.39941 0.12957 0.0
C1045 C 0.98316 0.42698 0.13594 0.0
C1046 C 0.89601 0.36122 0.18771 0.0
C1047 C 0.83441 0.34138 0.13945 0.0
N1048 N 0.95476 0.40532 0.15075 0.0
N1049 N 0.8624 0.36404 0.12456 0.0
H1050 H 0.67996 0.77791 0.18629 0.0
H1051 H 0.68416 0.96454 0.12002 0.0
H1052 H 0.77129 0.85966 0.20697 0.0
H1053 H 0.60448 0.8837 0.07266 0.0
H1054 H 0.71651 0.92735 0.15143 0.0
H1055 H 0.65243 0.81619 0.14442 0.0
C1056 C 0.6945 0.80395 0.18134 0.0
C1057 C 0.72833 0.81537 0.19951 0.0
C1058 C 0.69209 0.91773 0.13395 0.0
C1059 C 0.69618 0.86 0.15252 0.0
C1060 C 0.67343 0.93899 0.11598 0.0
C1061 C 0.64117 0.92737 0.09374 0.0
C1062 C 0.6784 0.88417 0.13043 0.0
C1063 C 0.62904 0.89393 0.08952 0.0
C1064 C 0.67865 0.82588 0.15749 0.0
C1065 C 0.74547 0.8496 0.19289 0.0
N1066 N 0.64738 0.87356 0.10802 0.0
N1067 N 0.72915 0.87065 0.17031 0.0
H1068 H 0.18549 0.74087 0.15359 0.0
H1069 H 0.12439 0.57046 0.07539 0.0
H1070 H 0.2528 0.68614 0.16261 0.0
H1071 H 0.07578 0.64413 0.02839 0.0
H1072 H 0.16991 0.61039 0.11187 0.0
H1073 H 0.14335 0.70434 0.11082 0.0
C1074 C 0.19177 0.72161 0.14612 0.0
C1075 C 0.22289 0.71668 0.16197 0.0
C1076 C 0.14935 0.61782 0.09336 0.0
C1077 C 0.1741 0.67379 0.11406 0.0
C1078 C 0.12331 0.59501 0.07267 0.0
C1079 C 0.09616 0.6039 0.04885 0.0
C1080 C 0.14795 0.64955 0.09076 0.0
C1081 C 0.09621 0.63616 0.0463 0.0
C1082 C 0.16748 0.70047 0.12198 0.0
C1083 C 0.22894 0.69042 0.15209 0.0
N1084 N 0.12148 0.65768 0.06726 0.0
N1085 N 0.20471 0.6698 0.12911 0.0
H1086 H 0.38908 0.78316 0.86658 0.0
H1087 H 0.45872 0.96454 0.92001 0.0
H1088 H 0.33444 0.85215 0.82462 0.0
H1089 H 0.50209 0.88836 0.97706 0.0
H1090 H 0.4127 0.92407 0.88496 0.0
H1091 H 0.43046 0.82147 0.90749 0.0
C1092 C 0.38577 0.80634 0.86582 0.0
C1093 C 0.35847 0.81447 0.84148 0.0
C1094 C 0.43219 0.91622 0.90537 0.0
C1095 C 0.40585 0.85879 0.88863 0.0
C1096 C 0.45853 0.93933 0.92532 0.0
C1097 C 0.48451 0.92996 0.95136 0.0
C1098 C 0.43197 0.88356 0.91125 0.0
C1099 C 0.48275 0.89684 0.95721 0.0
C1100 C 0.40934 0.82822 0.88946 0.0
C1101 C 0.35511 0.84474 0.8427 0.0
N1102 N 0.45714 0.87498 0.93713 0.0
N1103 N 0.3787 0.86594 0.86553 0.0
H1104 H 0.19708 0.34647 0.87317 0.0
H1105 H 0.11002 0.37658 0.02778 0.0
H1106 H 0.20601 0.29776 0.99434 0.0
H1107 H 0.15565 0.45834 0.94095 0.0
H1108 H 0.14132 0.34516 0.013 0.0
H1109 H 0.17895 0.38616 0.89355 0.0
C1110 C 0.19578 0.3442 0.90409 0.0
C1111 C 0.20277 0.31807 0.93185 0.0
C1112 C 0.14493 0.37013 0.9975 0.0
C1113 C 0.18101 0.36323 0.95499 0.0
C1114 C 0.12716 0.38811 0.00602 0.0
C1115 C 0.13064 0.42022 0.98593 0.0
C1116 C 0.16536 0.38378 0.96743 0.0
C1117 C 0.15265 0.43378 0.9574 0.0
C1118 C 0.18527 0.36693 0.9156 0.0
C1119 C 0.19994 0.31657 0.97141 0.0
N1120 N 0.16875 0.41522 0.94839 0.0
N1121 N 0.1888 0.3384 0.98158 0.0
H1122 H 0.70576 0.18734 0.75662 0.0
H1123 H 0.6287 0.09311 0.95553 0.0
H1124 H 0.73334 0.23085 0.86177 0.0
H1125 H 0.56514 0.08886 0.84257 0.0
H1126 H 0.67655 0.13211 0.92255 0.0
H1127 H 0.66263 0.13984 0.78924 0.0
C1128 C 0.70328 0.18646 0.78684 0.0
C1129 C 0.72375 0.21244 0.80711 0.0
C1130 C 0.6522 0.1222 0.90504 0.0
C1131 C 0.67472 0.15877 0.84415 0.0
C1132 C 0.62495 0.09983 0.92374 0.0
C1133 C 0.59278 0.08786 0.90179 0.0
C1134 C 0.64748 0.13215 0.86402 0.0
C1135 C 0.58942 0.09769 0.86065 0.0
C1136 C 0.67861 0.15959 0.80525 0.0
C1137 C 0.71863 0.21084 0.84562 0.0
N1138 N 0.61642 0.11928 0.84306 0.0
N1139 N 0.69492 0.18433 0.86307 0.0
H1140 H 0.78626 0.64654 0.81448 0.0
H1141 H 0.97493 0.65282 0.91918 0.0
H1142 H 0.87045 0.7371 0.80096 0.0
H1143 H 0.89523 0.5654 0.88698 0.0
H1144 H 0.93694 0.68534 0.88747 0.0
H1145 H 0.82525 0.61815 0.85286 0.0
C1146 C 0.81298 0.66065 0.8201 0.0
C1147 C 0.82478 0.69448 0.80479 0.0
C1148 C 0.92785 0.65902 0.88753 0.0
C1149 C 0.87034 0.66159 0.84891 0.0
C1150 C 0.94947 0.64036 0.90585 0.0
C1151 C 0.93854 0.60614 0.90572 0.0
C1152 C 0.89471 0.6433 0.86964 0.0
C1153 C 0.90515 0.5916 0.88776 0.0
C1154 C 0.83536 0.64431 0.84197 0.0
C1155 C 0.85996 0.71119 0.8128 0.0
N1156 N 0.88467 0.61006 0.87079 0.0
N1157 N 0.88145 0.69465 0.83429 0.0
H1158 H 0.19976 0.2871 0.20339 0.0
H1159 H 0.18181 0.46494 0.11053 0.0
H1160 H 0.28374 0.37724 0.1851 0.0
H1161 H 0.09634 0.37616 0.09865 0.0
H1162 H 0.21837 0.43168 0.13904 0.0
H1163 H 0.16058 0.31682 0.16589 0.0
C1164 C 0.21002 0.3129 0.19094 0.0
C1165 C 0.24527 0.32956 0.1971 0.0
C1166 C 0.19168 0.41922 0.13009 0.0
C1167 C 0.20048 0.36404 0.15528 0.0
C1168 C 0.17065 0.43834 0.11378 0.0
C1169 C 0.13577 0.42352 0.10199 0.0
C1170 C 0.17803 0.38458 0.13564 0.0
C1171 C 0.12307 0.38877 0.10705 0.0
C1172 C 0.18762 0.32995 0.16974 0.0
C1173 C 0.2569 0.36325 0.18104 0.0
N1174 N 0.14405 0.37049 0.12377 0.0
N1175 N 0.23477 0.37921 0.1613 0.0
H1176 H 0.2083 0.69896 0.77266 0.0
H1177 H 0.13109 0.57666 0.9615 0.0
H1178 H 0.26642 0.6951 0.88863 0.0
H1179 H 0.06925 0.6031 0.85412 0.0
H1180 H 0.18193 0.61478 0.93336 0.0
H1181 H 0.15803 0.65993 0.8004 0.0
C1182 C 0.21038 0.69035 0.80411 0.0
C1183 C 0.24144 0.70114 0.82853 0.0
C1184 C 0.15721 0.61209 0.91595 0.0
C1185 C 0.18407 0.65507 0.86043 0.0
C1186 C 0.12815 0.59007 0.93183 0.0
C1187 C 0.09565 0.58651 0.91021 0.0
C1188 C 0.15392 0.63055 0.87798 0.0
C1189 C 0.09362 0.60496 0.87203 0.0
C1190 C 0.18167 0.66778 0.81992 0.0
C1191 C 0.24282 0.68796 0.86887 0.0
N1192 N 0.12223 0.62607 0.85722 0.0
N1193 N 0.2146 0.66562 0.88357 0.0
H1194 H 0.30984 0.18096 0.79414 0.0
H1195 H 0.47775 0.15202 0.93088 0.0
H1196 H 0.40105 0.25967 0.82523 0.0
H1197 H 0.39898 0.07625 0.87365 0.0
H1198 H 0.44557 0.19 0.90187 0.0
H1199 H 0.33727 0.1407 0.83267 0.0
C1200 C 0.33529 0.18978 0.80979 0.0
C1201 C 0.35297 0.22384 0.80682 0.0
C1202 C 0.43522 0.165 0.89579 0.0
C1203 C 0.3849 0.17786 0.85047 0.0
C1204 C 0.45364 0.14321 0.91247 0.0
C1205 C 0.44148 0.11077 0.90452 0.0
C1206 C 0.40401 0.15442 0.87116 0.0
C1207 C 0.40976 0.10101 0.88047 0.0
C1208 C 0.35112 0.1668 0.83149 0.0
C1209 C 0.38631 0.23372 0.82697 0.0
N1210 N 0.39231 0.1226 0.86471 0.0
N1211 N 0.40105 0.21104 0.84779 0.0
H1212 H 0.82609 0.35086 0.83287 0.0
H1213 H 1.00101 0.38602 0.97879 0.0
H1214 H 0.89348 0.29511 0.84583 0.0
H1215 H 0.95353 0.46016 0.92829 0.0
H1216 H 0.95683 0.34774 0.93937 0.0
H1217 H 0.8677 0.38628 0.87705 0.0
C1218 C 0.84969 0.3461 0.84475 0.0
C1219 C 0.85661 0.32042 0.83464 0.0
C1220 C 0.95607 0.37236 0.93705 0.0
C1221 C 0.90399 0.36048 0.88633 0.0
C1222 C 0.98117 0.3942 0.95964 0.0
C1223 C 0.98107 0.42645 0.95668 0.0
C1224 C 0.93035 0.38261 0.91178 0.0
C1225 C 0.95474 0.43564 0.93128 0.0
C1226 C 0.87336 0.3663 0.87017 0.0
C1227 C 0.88715 0.31479 0.85238 0.0
N1228 N 0.93039 0.4138 0.90987 0.0
N1229 N 0.90976 0.33473 0.8773 0.0
H1230 H 0.72645 0.87671 0.86111 0.0
H1231 H 0.68482 0.95775 0.01618 0.0
H1232 H 0.76944 0.86413 0.98408 0.0
H1233 H 0.61101 0.92041 0.91904 0.0
H1234 H 0.72345 0.93415 0.99966 0.0
H1235 H 0.69043 0.90269 0.87705 0.0
C1236 C 0.72833 0.87906 0.89149 0.0
C1237 C 0.75124 0.86779 0.92118 0.0
C1238 C 0.69889 0.93145 0.98183 0.0
C1239 C 0.71062 0.89896 0.93924 0.0
C1240 C 0.67705 0.94512 0.991 0.0
C1241 C 0.64483 0.94112 0.96876 0.0
C1242 C 0.68868 0.91447 0.94962 0.0
C1243 C 0.63567 0.92403 0.93688 0.0
C1244 C 0.70787 0.89425 0.90044 0.0
C1245 C 0.75284 0.87278 0.95982 0.0
N1246 N 0.65753 0.91155 0.92809 0.0
N1247 N 0.73299 0.8881 0.96765 0.0
H1248 H 0.89873 0.71099 0.12063 0.0
H1249 H 0.90172 0.55637 0.03956 0.0
H1250 H 0.81768 0.6173 0.12726 0.0
H1251 H 0.98142 0.65093 0.03434 0.0
H1252 H 0.86814 0.57893 0.06691 0.0
H1253 H 0.92673 0.69044 0.08358 0.0
C1254 C 0.88654 0.68625 0.1139 0.0
C1255 C 0.85586 0.66583 0.12753 0.0
C1256 C 0.89291 0.59474 0.05952 0.0
C1257 C 0.88828 0.64177 0.08551 0.0
C1258 C 0.91205 0.58187 0.04385 0.0
C1259 C 0.94462 0.60162 0.03502 0.0
C1260 C 0.90643 0.62761 0.06624 0.0
C1261 C 0.95665 0.63456 0.04112 0.0
C1262 C 0.90272 0.67439 0.09294 0.0
C1263 C 0.84163 0.63378 0.11814 0.0
N1264 N 0.9377 0.64638 0.05645 0.0
N1265 N 0.85802 0.62269 0.09801 0.0
H1266 H 0.38494 0.82805 0.23768 0.0
H1267 H 0.45018 0.94595 0.0405 0.0
H1268 H 0.32754 0.81532 0.12272 0.0
H1269 H 0.51579 0.93503 0.15053 0.0
H1270 H 0.4022 0.90424 0.07114 0.0
H1271 H 0.43083 0.87243 0.20698 0.0
C1272 C 0.38198 0.8349 0.20589 0.0
C1273 C 0.35215 0.81878 0.18265 0.0
C1274 C 0.42709 0.91118 0.08854 0.0
C1275 C 0.40466 0.86932 0.14717 0.0
C1276 C 0.45443 0.93523 0.07123 0.0
C1277 C 0.48716 0.94405 0.09295 0.0
C1278 C 0.43245 0.89609 0.12795 0.0
C1279 C 0.49112 0.92898 0.13255 0.0
C1280 C 0.4082 0.86009 0.18835 0.0
C1281 C 0.34994 0.82773 0.14157 0.0
N1282 N 0.46419 0.90583 0.14868 0.0
N1283 N 0.37571 0.85272 0.12507 0.0
H1284 H 0.74185 0.17373 0.18903 0.0
H1285 H 0.58162 0.14813 0.01862 0.0
H1286 H 0.69594 0.24831 0.1349 0.0
H1287 H 0.61931 0.06948 0.08213 0.0
H1288 H 0.62692 0.18651 0.05653 0.0
H1289 H 0.70116 0.13689 0.14549 0.0
C1290 C 0.72335 0.18251 0.16791 0.0
C1291 C 0.7219 0.21407 0.16632 0.0
C1292 C 0.62539 0.16089 0.06211 0.0
C1293 C 0.67514 0.17187 0.11622 0.0
C1294 C 0.59951 0.1389 0.04038 0.0
C1295 C 0.59641 0.10537 0.0473 0.0
C1296 C 0.64854 0.14943 0.09102 0.0
C1297 C 0.62052 0.09502 0.0759 0.0
C1298 C 0.69999 0.16135 0.14313 0.0
C1299 C 0.69737 0.22397 0.13815 0.0
N1300 N 0.64546 0.11693 0.09677 0.0
N1301 N 0.67493 0.20296 0.11435 0.0
H1302 H 0.68615 0.65289 0.76855 0.0
H1303 H 0.54859 0.64057 0.89864 0.0
H1304 H 0.69276 0.73359 0.82265 0.0
H1305 H 0.5777 0.5577 0.89455 0.0
H1306 H 0.59093 0.67597 0.85538 0.0
H1307 H 0.63577 0.61862 0.79976 0.0
C1308 C 0.67654 0.66357 0.78628 0.0
C1309 C 0.69334 0.69607 0.79285 0.0
C1310 C 0.5876 0.64992 0.86359 0.0
C1311 C 0.63603 0.65722 0.82863 0.0
C1312 C 0.56335 0.62974 0.88791 0.0
C1313 C 0.55987 0.5963 0.90019 0.0
C1314 C 0.60782 0.63627 0.85095 0.0
C1315 C 0.57983 0.58345 0.88588 0.0
C1316 C 0.64803 0.64397 0.80435 0.0
C1317 C 0.68046 0.70852 0.81705 0.0
N1318 N 0.60297 0.60345 0.86202 0.0
N1319 N 0.65245 0.68909 0.83404 0.0
H1320 H 0.31735 0.66976 0.91531 0.0
H1321 H 0.393 0.53184 0.01889 0.0
H1322 H 0.26457 0.56503 0.92626 0.0
H1323 H 0.4508 0.63448 0.98819 0.0
H1324 H 0.34279 0.54682 0.01558 0.0
H1325 H 0.35977 0.65975 0.97065 0.0
C1326 C 0.314 0.64471 0.93039 0.0
C1327 C 0.28841 0.61801 0.91519 0.0
C1328 C 0.36662 0.56624 0.01066 0.0
C1329 C 0.33676 0.60646 0.97798 0.0
C1330 C 0.39522 0.55768 0.01245 0.0
C1331 C 0.42547 0.58196 0.00226 0.0
C1332 C 0.36814 0.59914 0.99723 0.0
C1333 C 0.42755 0.61506 0.99527 0.0
C1334 C 0.33824 0.63903 0.96194 0.0
C1335 C 0.28448 0.58623 0.93641 0.0
N1336 N 0.39883 0.62269 0.99157 0.0
N1337 N 0.30908 0.58122 0.96607 0.0
H1338 H 0.34308 0.32102 0.86337 0.0
H1339 H 0.49286 0.48973 0.85866 0.0
H1340 H 0.37137 0.3849 0.75447 0.0
H1341 H 0.44558 0.43871 0.96252 0.0
H1342 H 0.4458 0.45442 0.81906 0.0
H1343 H 0.37763 0.36552 0.89926 0.0
C1344 C 0.35644 0.34444 0.84683 0.0
C1345 C 0.35478 0.34896 0.80575 0.0
C1346 C 0.44531 0.45127 0.85035 0.0
C1347 C 0.39469 0.4002 0.84711 0.0
C1348 C 0.47217 0.47136 0.87297 0.0
C1349 C 0.47318 0.46667 0.91391 0.0
C1350 C 0.41964 0.42588 0.86895 0.0
C1351 C 0.4457 0.44293 0.93103 0.0
C1352 C 0.37608 0.36997 0.86749 0.0
C1353 C 0.37246 0.38007 0.78616 0.0
N1354 N 0.42026 0.42288 0.90851 0.0
N1355 N 0.39211 0.40442 0.80712 0.0
H1356 H 0.75449 0.47162 0.78024 0.0
H1357 H 0.58991 0.44765 0.86997 0.0
H1358 H 0.66786 0.38237 0.7879 0.0
H1359 H 0.68322 0.52588 0.89724 0.0
H1360 H 0.61935 0.42572 0.83772 0.0
H1361 H 0.73063 0.49375 0.82099 0.0
C1362 C 0.73057 0.45658 0.7906 0.0
C1363 C 0.71307 0.42505 0.78027 0.0
C1364 C 0.63367 0.44768 0.85062 0.0
C1365 C 0.68578 0.45034 0.82697 0.0
C1366 C 0.61674 0.46055 0.86882 0.0
C1367 C 0.63393 0.48913 0.88579 0.0
C1368 C 0.66835 0.46353 0.8485 0.0
C1369 C 0.66893 0.50401 0.8842 0.0
C1370 C 0.71714 0.46921 0.81408 0.0
C1371 C 0.68249 0.40661 0.79516 0.0
N1372 N 0.68501 0.49122 0.86538 0.0
N1373 N 0.66979 0.41962 0.8173 0.0
H1374 H 0.78703 0.43605 0.05292 0.0
H1375 H 0.59092 0.38186 0.98393 0.0
H1376 H 0.70772 0.35855 0.11146 0.0
H1377 H 0.66287 0.48043 0.97191 0.0
H1378 H 0.63842 0.36032 0.99803 0.0
H1379 H 0.74592 0.43723 0.9931 0.0
C1380 C 0.76145 0.4188 0.05332 0.0
C1381 C 0.75078 0.39849 0.08848 0.0
C1382 C 0.64348 0.38667 0.98969 0.0
C1383 C 0.70426 0.39868 0.01942 0.0
C1384 C 0.61642 0.39892 0.9816 0.0
C1385 C 0.62297 0.43296 0.97627 0.0
C1386 C 0.67697 0.40879 0.9927 0.0
C1387 C 0.65648 0.45411 0.97471 0.0
C1388 C 0.73822 0.41907 0.01881 0.0
C1389 C 0.71769 0.37527 0.08597 0.0
N1390 N 0.68226 0.44169 0.98338 0.0
N1391 N 0.69553 0.37654 0.05238 0.0
H1392 H 0.73161 0.65447 0.23049 0.0
H1393 H 0.58686 0.64341 0.04255 0.0
H1394 H 0.69324 0.73306 0.16981 0.0
H1395 H 0.62456 0.56268 0.09575 0.0
H1396 H 0.62481 0.67523 0.09175 0.0
H1397 H 0.69035 0.61813 0.18556 0.0
C1398 C 0.71396 0.66371 0.20831 0.0
C1399 C 0.71559 0.6966 0.20348 0.0
C1400 C 0.62498 0.65059 0.09278 0.0
C1401 C 0.66933 0.65603 0.15221 0.0
C1402 C 0.60334 0.63242 0.06448 0.0
C1403 C 0.60244 0.60029 0.06505 0.0
C1404 C 0.64612 0.63671 0.12205 0.0
C1405 C 0.62451 0.58743 0.09419 0.0
C1406 C 0.69078 0.64323 0.18251 0.0
C1407 C 0.69278 0.70785 0.17416 0.0
N1408 N 0.64546 0.60569 0.1217 0.0
N1409 N 0.67074 0.68768 0.14957 0.0
H1410 H 0.35999 0.59269 0.23507 0.0
H1411 H 0.51475 0.63591 0.11523 0.0
H1412 H 0.44125 0.68609 0.22652 0.0
H1413 H 0.43001 0.54508 0.11517 0.0
H1414 H 0.48815 0.65414 0.15627 0.0
H1415 H 0.3848 0.5747 0.19144 0.0
C1416 C 0.38308 0.60946 0.22404 0.0
C1417 C 0.39867 0.64094 0.23487 0.0
C1418 C 0.4753 0.6302 0.14738 0.0
C1419 C 0.42725 0.62038 0.18454 0.0
C1420 C 0.49055 0.61965 0.12394 0.0
C1421 C 0.47475 0.58873 0.11176 0.0
C1422 C 0.44387 0.60977 0.15906 0.0
C1423 C 0.4433 0.56897 0.12402 0.0
C1424 C 0.39717 0.59917 0.19896 0.0
C1425 C 0.4282 0.66172 0.21891 0.0
N1426 N 0.42894 0.5798 0.14701 0.0
N1427 N 0.4416 0.65101 0.19485 0.0
H1428 H 0.39006 0.36974 0.23523 0.0
H1429 H 0.4896 0.38559 0.05933 0.0
H1430 H 0.36711 0.29421 0.16497 0.0
H1431 H 0.49896 0.4693 0.11005 0.0
H1432 H 0.45067 0.35002 0.1051 0.0
H1433 H 0.4361 0.4046 0.19712 0.0
C1434 C 0.39509 0.36023 0.2124 0.0
C1435 C 0.37477 0.32903 0.20334 0.0
C1436 C 0.46131 0.37614 0.10638 0.0
C1437 C 0.42695 0.36876 0.15933 0.0
C1438 C 0.48365 0.39654 0.08024 0.0
C1439 C 0.49752 0.4306 0.08063 0.0
C1440 C 0.45265 0.38974 0.13332 0.0
C1441 C 0.48881 0.44321 0.10859 0.0
C1442 C 0.42114 0.38026 0.19035 0.0
C1443 C 0.38196 0.31824 0.17273 0.0
N1444 N 0.46682 0.42278 0.13376 0.0
N1445 N 0.40737 0.33804 0.15185 0.0
H1446 H 0.87812 0.70322 0.592 0.0
H1447 H 0.90115 0.56283 0.50104 0.0
H1448 H 0.79358 0.62839 0.53961 0.0
H1449 H 0.98291 0.63507 0.56075 0.0
H1450 H 0.86141 0.58846 0.50983 0.0
H1451 H 0.91685 0.6802 0.57649 0.0
C1452 C 0.86761 0.68182 0.57745 0.0
C1453 C 0.83237 0.66762 0.56756 0.0
C1454 C 0.88808 0.59869 0.52088 0.0
C1455 C 0.87693 0.6412 0.54904 0.0
C1456 C 0.91079 0.58409 0.51583 0.0
C1457 C 0.94544 0.59652 0.53054 0.0
C1458 C 0.90014 0.62592 0.54075 0.0
C1459 C 0.95645 0.62431 0.54919 0.0
C1460 C 0.88983 0.66878 0.56829 0.0
C1461 C 0.8205 0.64036 0.54769 0.0
N1462 N 0.93395 0.63788 0.55388 0.0
N1463 N 0.84268 0.62797 0.53927 0.0
H1464 H 0.37745 0.82237 0.7371 0.0
H1465 H 0.45378 0.92408 0.53944 0.0
H1466 H 0.31811 0.81524 0.62208 0.0
H1467 H 0.48007 0.96491 0.64662 0.0
H1468 H 0.4135 0.87422 0.57194 0.0
H1469 H 0.42498 0.86478 0.70634 0.0
C1470 C 0.37471 0.82918 0.70533 0.0
C1471 C 0.34393 0.81513 0.68199 0.0
C1472 C 0.42852 0.89394 0.58842 0.0
C1473 C 0.39797 0.86357 0.64681 0.0
C1474 C 0.45166 0.92226 0.57005 0.0
C1475 C 0.47031 0.9487 0.59037 0.0
C1476 C 0.42458 0.89173 0.62765 0.0
C1477 C 0.46614 0.94516 0.62985 0.0
C1478 C 0.40172 0.85349 0.68787 0.0
C1479 C 0.3415 0.82538 0.64103 0.0
N1480 N 0.44377 0.91721 0.64722 0.0
N1481 N 0.36815 0.84894 0.62471 0.0
H1482 H 0.1873 0.27469 0.67885 0.0
H1483 H 0.19524 0.46284 0.6008 0.0
H1484 H 0.27693 0.35724 0.70273 0.0
H1485 H 0.10642 0.37928 0.57698 0.0
H1486 H 0.22653 0.42523 0.63425 0.0
H1487 H 0.15931 0.31264 0.63715 0.0
C1488 C 0.2014 0.30088 0.67458 0.0
C1489 C 0.23479 0.31264 0.69386 0.0
C1490 C 0.20023 0.41503 0.6217 0.0
C1491 C 0.20216 0.35683 0.64682 0.0
C1492 C 0.18215 0.43656 0.60257 0.0
C1493 C 0.14776 0.42443 0.5861 0.0
C1494 C 0.18406 0.38076 0.62475 0.0
C1495 C 0.13267 0.38998 0.58931 0.0
C1496 C 0.18524 0.32262 0.65093 0.0
C1497 C 0.25146 0.34695 0.68786 0.0
N1498 N 0.15078 0.36952 0.60828 0.0
N1499 N 0.23493 0.36778 0.66515 0.0
H1500 H 0.76441 0.20809 0.63571 0.0
H1501 H 0.57996 0.07811 0.58571 0.0
H1502 H 0.67613 0.20445 0.67955 0.0
H1503 H 0.67098 0.0755 0.55392 0.0
H1504 H 0.61334 0.12765 0.61398 0.0
H1505 H 0.7291 0.16406 0.59871 0.0
C1506 C 0.73738 0.19831 0.63705 0.0
C1507 C 0.72321 0.20978 0.66103 0.0
C1508 C 0.62605 0.11634 0.60076 0.0
C1509 C 0.68249 0.1589 0.61881 0.0
C1510 C 0.60701 0.08791 0.58456 0.0
C1511 C 0.62266 0.07224 0.56754 0.0
C1512 C 0.66114 0.12955 0.59998 0.0
C1513 C 0.65779 0.08646 0.56691 0.0
C1514 C 0.71725 0.17303 0.61602 0.0
C1515 C 0.68805 0.19643 0.66133 0.0
N1516 N 0.67581 0.11422 0.58296 0.0
N1517 N 0.66891 0.17141 0.64088 0.0
H1518 H 0.89516 0.32744 0.32599 0.0
H1519 H 0.90529 0.46526 0.44565 0.0
H1520 H 0.80713 0.33971 0.35339 0.0
H1521 H 0.99316 0.45069 0.42115 0.0
H1522 H 0.86894 0.41732 0.41524 0.0
H1523 H 0.93148 0.37014 0.36447 0.0
C1524 C 0.88339 0.33864 0.34062 0.0
C1525 C 0.84794 0.32971 0.33655 0.0
C1526 C 0.89619 0.42456 0.41667 0.0
C1527 C 0.88953 0.37929 0.38007 0.0
C1528 C 0.91697 0.45197 0.434 0.0
C1529 C 0.95236 0.46226 0.43572 0.0
C1530 C 0.91085 0.4073 0.40084 0.0
C1531 C 0.96602 0.44389 0.4203 0.0
C1532 C 0.90421 0.36325 0.3624 0.0
C1533 C 0.83429 0.34568 0.35565 0.0
N1534 N 0.94525 0.41745 0.40337 0.0
N1535 N 0.85508 0.36979 0.37637 0.0
H1536 H 0.73563 0.83534 0.49444 0.0
H1537 H 0.59079 0.91705 0.41334 0.0
H1538 H 0.67501 0.83047 0.37968 0.0
H1539 H 0.66639 0.94817 0.51227 0.0
H1540 H 0.62069 0.88284 0.4042 0.0
H1541 H 0.70984 0.87364 0.50528 0.0
C1542 C 0.717 0.84231 0.47149 0.0
C1543 C 0.70762 0.82963 0.43593 0.0
C1544 C 0.63097 0.89709 0.42796 0.0
C1545 C 0.67821 0.87354 0.44821 0.0
C1546 C 0.61376 0.91672 0.43338 0.0
C1547 C 0.62572 0.93539 0.46406 0.0
C1548 C 0.66052 0.8955 0.45353 0.0
C1549 C 0.65599 0.93398 0.48852 0.0
C1550 C 0.70251 0.86437 0.47764 0.0
C1551 C 0.68354 0.83983 0.40726 0.0
N1552 N 0.67224 0.91408 0.48299 0.0
N1553 N 0.66968 0.86093 0.41412 0.0
H1554 H 0.22843 0.73777 0.34686 0.0
H1555 H 0.0999 0.55182 0.35728 0.0
H1556 H 0.20165 0.68207 0.25238 0.0
H1557 H 0.11523 0.611 0.44593 0.0
H1558 H 0.13886 0.59854 0.32008 0.0
H1559 H 0.18978 0.69088 0.38551 0.0
C1560 C 0.21499 0.71526 0.33475 0.0
C1561 C 0.21926 0.71308 0.29722 0.0
C1562 C 0.13359 0.60148 0.3475 0.0
C1563 C 0.17399 0.65991 0.34035 0.0
C1564 C 0.11119 0.57476 0.36883 0.0
C1565 C 0.10405 0.57735 0.4049 0.0
C1566 C 0.14933 0.63127 0.36221 0.0
C1567 C 0.11967 0.60784 0.41817 0.0
C1568 C 0.19263 0.6887 0.35654 0.0
C1569 C 0.19994 0.68419 0.28182 0.0
N1570 N 0.14169 0.63352 0.39696 0.0
N1571 N 0.17838 0.65865 0.30355 0.0
H1572 H 0.37271 0.24742 0.30193 0.0
H1573 H 0.38211 0.06976 0.41325 0.0
H1574 H 0.28685 0.15927 0.32166 0.0
H1575 H 0.47191 0.15604 0.41468 0.0
H1576 H 0.34839 0.10416 0.37924 0.0
H1577 H 0.4105 0.21729 0.34275 0.0
C1578 C 0.36176 0.22198 0.31533 0.0
C1579 C 0.32639 0.20599 0.30873 0.0
C1580 C 0.37544 0.1159 0.38684 0.0
C1581 C 0.36952 0.17109 0.35447 0.0
C1582 C 0.39498 0.09606 0.40633 0.0
C1583 C 0.43027 0.1097 0.41687 0.0
C1584 C 0.39085 0.15016 0.37692 0.0
C1585 C 0.44488 0.14425 0.40714 0.0
C1586 C 0.38336 0.20471 0.33842 0.0
C1587 C 0.31381 0.17274 0.32604 0.0
N1588 N 0.4252 0.16325 0.38749 0.0
N1589 N 0.33515 0.15661 0.34778 0.0
H1590 H 0.78676 0.86626 0.68238 0.0
H1591 H 0.59986 0.87305 0.58735 0.0
H1592 H 0.69828 0.78022 0.6992 0.0
H1593 H 0.69068 0.95725 0.59991 0.0
H1594 H 0.63355 0.83662 0.62063 0.0
H1595 H 0.75062 0.89728 0.64344 0.0
C1596 C 0.7596 0.85373 0.67745 0.0
C1597 C 0.74574 0.82046 0.69398 0.0
C1598 C 0.64595 0.86309 0.61603 0.0
C1599 C 0.70336 0.8565 0.64949 0.0
C1600 C 0.62673 0.88395 0.59701 0.0
C1601 C 0.64218 0.91853 0.59089 0.0
C1602 C 0.68103 0.87685 0.62858 0.0
C1603 C 0.67724 0.93096 0.60401 0.0
C1604 C 0.73882 0.87157 0.65526 0.0
C1605 C 0.71018 0.8057 0.68664 0.0
N1606 N 0.69518 0.91034 0.6219 0.0
N1607 N 0.6902 0.82383 0.66509 0.0
H1608 H 0.70197 0.20511 0.27283 0.0
H1609 H 0.62303 0.10623 0.47011 0.0
H1610 H 0.7601 0.21384 0.38825 0.0
H1611 H 0.59503 0.06593 0.36242 0.0
H1612 H 0.66488 0.15509 0.43815 0.0
H1613 H 0.65406 0.16331 0.30335 0.0
C1614 C 0.7044 0.1987 0.30464 0.0
C1615 C 0.7349 0.21323 0.32814 0.0
C1616 C 0.64917 0.13572 0.42144 0.0
C1617 C 0.68034 0.1653 0.36313 0.0
C1618 C 0.62509 0.108 0.4395 0.0
C1619 C 0.60545 0.08197 0.41886 0.0
C1620 C 0.65311 0.13775 0.38223 0.0
C1621 C 0.60965 0.08539 0.37942 0.0
C1622 C 0.67716 0.17473 0.32198 0.0
C1623 C 0.73693 0.2034 0.36916 0.0
N1624 N 0.63293 0.11272 0.36239 0.0
N1625 N 0.71001 0.18013 0.38539 0.0
H1626 H 0.89874 0.76692 0.32087 0.0
H1627 H 0.88613 0.57752 0.39857 0.0
H1628 H 0.80611 0.686 0.3022 0.0
H1629 H 0.97725 0.65961 0.41988 0.0
H1630 H 0.8558 0.61623 0.36632 0.0
H1631 H 0.92649 0.72801 0.36041 0.0
C1632 C 0.88404 0.7409 0.32567 0.0
C1633 C 0.84985 0.72988 0.30858 0.0
C1634 C 0.8824 0.62586 0.37805 0.0
C1635 C 0.88201 0.68459 0.3533 0.0
C1636 C 0.89992 0.60371 0.39648 0.0
C1637 C 0.93465 0.61511 0.41184 0.0
C1638 C 0.89952 0.66001 0.3746 0.0
C1639 C 0.95069 0.64946 0.40837 0.0
C1640 C 0.9 0.71861 0.34816 0.0
C1641 C 0.83229 0.69575 0.31534 0.0
N1642 N 0.93312 0.67054 0.39006 0.0
N1643 N 0.84859 0.67437 0.33692 0.0
H1644 H 0.39844 0.82259 0.33285 0.0
H1645 H 0.40265 0.96047 0.45032 0.0
H1646 H 0.30922 0.83857 0.35063 0.0
H1647 H 0.49267 0.94908 0.42729 0.0
H1648 H 0.36808 0.91225 0.41932 0.0
H1649 H 0.43352 0.86476 0.37351 0.0
C1650 C 0.38619 0.83447 0.34587 0.0
C1651 C 0.35085 0.82711 0.33811 0.0
C1652 C 0.39542 0.92024 0.42119 0.0
C1653 C 0.39076 0.87567 0.38419 0.0
C1654 C 0.41519 0.94783 0.43889 0.0
C1655 C 0.45067 0.95918 0.44118 0.0
C1656 C 0.41116 0.90374 0.4056 0.0
C1657 C 0.46541 0.94153 0.42597 0.0
C1658 C 0.40622 0.85875 0.36881 0.0
C1659 C 0.33638 0.8436 0.35546 0.0
N1660 N 0.44565 0.91488 0.40874 0.0
N1661 N 0.35634 0.86715 0.37737 0.0
H1662 H 0.26586 0.36804 0.48876 0.0
H1663 H 0.10385 0.42155 0.41135 0.0
H1664 H 0.22934 0.38751 0.36441 0.0
H1665 H 0.17515 0.46296 0.50818 0.0
H1666 H 0.14449 0.39889 0.39986 0.0
H1667 H 0.22843 0.39391 0.50229 0.0
C1668 C 0.25033 0.37786 0.46419 0.0
C1669 C 0.25093 0.37524 0.4252 0.0
C1670 C 0.1512 0.41288 0.42368 0.0
C1671 C 0.20724 0.40394 0.44104 0.0
C1672 C 0.12797 0.42572 0.43046 0.0
C1673 C 0.13595 0.44408 0.461 0.0
C1674 C 0.18251 0.41769 0.44808 0.0
C1675 C 0.16783 0.44883 0.48449 0.0
C1676 C 0.22886 0.3925 0.47212 0.0
C1677 C 0.22939 0.38794 0.39499 0.0
N1678 N 0.1899 0.43539 0.47781 0.0
N1679 N 0.20828 0.40136 0.40359 0.0
H1680 H 0.40733 0.20598 0.6328 0.0
H1681 H 0.40932 0.08394 0.49648 0.0
H1682 H 0.34862 0.20238 0.51692 0.0
H1683 H 0.4847 0.11434 0.59583 0.0
H1684 H 0.38083 0.12083 0.50588 0.0
H1685 H 0.42944 0.16532 0.62271 0.0
C1686 C 0.39876 0.19641 0.60532 0.0
C1687 C 0.37598 0.20775 0.57576 0.0
C1688 C 0.40361 0.11923 0.52553 0.0
C1689 C 0.40178 0.16105 0.56365 0.0
C1690 C 0.41986 0.09821 0.52015 0.0
C1691 C 0.44987 0.09637 0.54486 0.0
C1692 C 0.41708 0.1378 0.55642 0.0
C1693 C 0.46198 0.11509 0.57555 0.0
C1694 C 0.41165 0.17329 0.59942 0.0
C1695 C 0.3664 0.19466 0.54044 0.0
N1696 N 0.44563 0.13479 0.58038 0.0
N1697 N 0.37932 0.172 0.53534 0.0
H1698 H 0.8767 0.3412 0.73745 0.0
H1699 H 0.96621 0.42733 0.54363 0.0
H1700 H 0.84224 0.30337 0.62806 0.0
H1701 H 0.97762 0.47903 0.63858 0.0
H1702 H 0.92717 0.37818 0.57828 0.0
H1703 H 0.92012 0.38844 0.70567 0.0
C1704 C 0.87802 0.34315 0.70658 0.0
C1705 C 0.85508 0.31915 0.68481 0.0
C1706 C 0.93843 0.40022 0.59165 0.0
C1707 C 0.90528 0.37234 0.64866 0.0
C1708 C 0.96095 0.42825 0.57202 0.0
C1709 C 0.97532 0.45746 0.58816 0.0
C1710 C 0.93046 0.40116 0.62798 0.0
C1711 C 0.96714 0.45715 0.62491 0.0
C1712 C 0.90295 0.3699 0.68856 0.0
C1713 C 0.8589 0.3219 0.64547 0.0
N1714 N 0.94531 0.42951 0.64353 0.0
N1715 N 0.88332 0.34812 0.62856 0.0
H1716 H 0.18329 0.70373 0.68032 0.0
H1717 H 0.17535 0.57248 0.5521 0.0
H1718 H 0.27186 0.69398 0.65093 0.0
H1719 H 0.0867 0.58553 0.57673 0.0
H1720 H 0.21114 0.61912 0.58509 0.0
H1721 H 0.14741 0.66299 0.63891 0.0
C1722 C 0.19526 0.69352 0.66466 0.0
C1723 C 0.23072 0.70251 0.66905 0.0
C1724 C 0.18384 0.61185 0.58309 0.0
C1725 C 0.18973 0.65523 0.62219 0.0
C1726 C 0.16339 0.58518 0.56429 0.0
C1727 C 0.12795 0.57484 0.56188 0.0
C1728 C 0.16878 0.62825 0.59973 0.0
C1729 C 0.1139 0.59241 0.57807 0.0
C1730 C 0.17472 0.67004 0.6412 0.0
C1731 C 0.24469 0.68788 0.64853 0.0
N1732 N 0.13434 0.6181 0.59646 0.0
N1733 N 0.22417 0.66485 0.62623 0.0
loop_
_geom_bond_atom_site_label_1
_geom_bond_atom_site_label_2
_geom_bond_distance
_geom_bond_site_symmetry_2
_ccdc_geom_bond_type
Eu0 N31 2.657 . S
Eu0 N38 2.609 . S
Eu0 O44 2.558 . S
Eu0 O45 2.612 . S
Eu0 O47 2.339 . S
Eu0 O48 2.563 . S
Eu0 O49 2.419 . S
Eu0 O51 2.380 . S
Eu0 O52 2.432 . S
Eu0 C64 2.848 . S
C1 C4 1.429 . S
C1 C5 1.411 . S
C1 N8 1.377 . S
C2 C4 1.420 . S
C2 C6 1.423 . S
C2 C14 1.392 . S
C3 C5 1.420 . S
C3 C6 1.351 . S
C3 H26 0.931 . S
C4 C1 1.429 . S
C4 C2 1.420 . S
C4 N12 1.362 . S
C5 C1 1.411 . S
C5 C3 1.420 . S
C5 C10 1.395 . S
C6 C2 1.423 . S
C6 C3 1.351 . S
C6 H18 0.930 . S
C7 C9 1.400 . S
C7 C10 1.386 . S
C7 H19 0.930 . S
N8 C1 1.377 . S
N8 C9 1.321 . S
N8 Eu11 2.609 . S
C9 C7 1.400 . S
C9 N8 1.321 . S
C9 H16 0.930 . S
C10 C5 1.395 . S
C10 C7 1.386 . S
C10 H29 0.930 . S
Eu11 N8 2.609 . S
Eu11 N12 2.657 . S
Eu11 O45 2.380 . S
Eu11 O46 2.432 . S
Eu11 O50 2.558 . S
Eu11 O51 2.612 . S
Eu11 O53 2.339 . S
Eu11 O54 2.563 . S
Eu11 O55 2.419 . S
Eu11 C75 2.848 . S
N12 C4 1.362 . S
N12 Eu11 2.657 . S
N12 C13 1.334 . S
C13 N12 1.334 . S
C13 C15 1.413 . S
C13 H20 0.929 . S
C14 C2 1.392 . S
C14 C15 1.367 . S
C14 H22 0.930 . S
C15 C13 1.413 . S
C15 C14 1.367 . S
C15 H17 0.930 . S
H16 C9 0.930 . S
H17 C15 0.930 . S
H18 C6 0.930 . S
H19 C7 0.930 . S
H20 C13 0.929 . S
H21 C35 0.930 . S
H22 C14 0.930 . S
H23 C41 0.930 . S
H24 C32 0.929 . S
H25 C39 0.930 . S
H26 C3 0.931 . S
H27 C33 0.930 . S
H28 C66 0.930 . S
H29 C10 0.930 . S
H30 C65 0.931 . S
N31 Eu0 2.657 . S
N31 C32 1.334 . S
N31 C36 1.362 . S
C32 H24 0.929 . S
C32 N31 1.334 . S
C32 C35 1.413 . S
C33 H27 0.930 . S
C33 C34 1.392 . S
C33 C35 1.367 . S
C34 C33 1.392 . S
C34 C36 1.420 . S
C34 C66 1.423 . S
C35 H21 0.930 . S
C35 C32 1.413 . S
C35 C33 1.367 . S
C36 N31 1.362 . S
C36 C34 1.420 . S
C36 C40 1.429 . S
H37 C42 0.930 . S
N38 Eu0 2.609 . S
N38 C40 1.377 . S
N38 C41 1.321 . S
C39 H25 0.930 . S
C39 C41 1.400 . S
C39 C42 1.386 . S
C40 C36 1.429 . S
C40 N38 1.377 . S
C40 C43 1.411 . S
C41 H23 0.930 . S
C41 N38 1.321 . S
C41 C39 1.400 . S
C42 H37 0.930 . S
C42 C39 1.386 . S
C42 C43 1.395 . S
C43 C40 1.411 . S
C43 C42 1.395 . S
C43 C65 1.420 . S
O44 Eu0 2.558 . S
O44 C64 1.257 . S
O45 Eu0 2.612 . S
O45 Eu11 2.380 . S
O45 C56 1.276 . S
O46 Eu11 2.432 . S
O46 C63 1.264 . S
O47 Eu0 2.339 . S
O47 C63 1.254 . S
O48 Eu0 2.563 . S
O48 C56 1.235 . S
O49 Eu0 2.419 . S
O49 C64 1.249 . S
O50 Eu11 2.558 . S
O50 C75 1.257 . S
O51 Eu0 2.380 . S
O51 Eu11 2.612 . S
O51 C67 1.276 . S
O52 Eu0 2.432 . S
O52 C74 1.264 . S
O53 Eu11 2.339 . S
O53 C74 1.254 . S
O54 Eu11 2.563 . S
O54 C67 1.235 . S
O55 Eu11 2.419 . S
O55 C75 1.249 . S
C56 O45 1.276 . S
C56 O48 1.235 . S
C57 C59 1.393 . S
C57 C61 1.395 . S
C57 C64 1.492 . S
C58 C59 1.392 . S
C58 C60 1.386 . S
C59 C57 1.393 . S
C59 C58 1.392 . S
C59 H76 0.930 . S
C60 C58 1.386 . S
C60 C62 1.395 . S
C60 H77 0.930 . S
C61 C57 1.395 . S
C61 C62 1.379 . S
C61 H78 0.930 . S
C62 C60 1.395 . S
C62 C61 1.379 . S
C62 H79 0.930 . S
C63 O46 1.264 . S
C63 O47 1.254 . S
C64 Eu0 2.848 . S
C64 O44 1.257 . S
C64 O49 1.249 . S
C64 C57 1.492 . S
C65 H30 0.931 . S
C65 C43 1.420 . S
C65 C66 1.351 . S
C66 H28 0.930 . S
C66 C34 1.423 . S
C66 C65 1.351 . S
C67 O51 1.276 . S
C67 O54 1.235 . S
C68 C69 1.393 . S
C68 C72 1.395 . S
C68 C75 1.492 . S
C69 C68 1.393 . S
C69 C70 1.392 . S
C69 H80 0.930 . S
C70 C69 1.392 . S
C70 C71 1.386 . S
C71 C70 1.386 . S
C71 C73 1.395 . S
C71 H81 0.930 . S
C72 C68 1.395 . S
C72 C73 1.379 . S
C72 H82 0.930 . S
C73 C71 1.395 . S
C73 C72 1.379 . S
C73 H83 0.930 . S
C74 O52 1.264 . S
C74 O53 1.254 . S
C75 Eu11 2.848 . S
C75 O50 1.257 . S
C75 O55 1.249 . S
C75 C68 1.492 . S
H76 C59 0.930 . S
H77 C60 0.930 . S
H78 C61 0.930 . S
H79 C62 0.930 . S
H80 C69 0.930 . S
H81 C71 0.930 . S
H82 C72 0.930 . S
H83 C73 0.930 . S
Eu84 N115 2.657 . S
Eu84 N122 2.609 . S
Eu84 O128 2.558 . S
Eu84 O129 2.612 . S
Eu84 O131 2.339 . S
Eu84 O132 2.563 . S
Eu84 O133 2.419 . S
Eu84 O135 2.380 . S
Eu84 O136 2.432 . S
Eu84 C148 2.848 . S
C85 C88 1.429 . S
C85 C89 1.411 . S
C85 N92 1.377 . S
C86 C88 1.420 . S
C86 C90 1.423 . S
C86 C98 1.392 . S
C87 C89 1.420 . S
C87 C90 1.351 . S
C87 H110 0.931 . S
C88 C85 1.429 . S
C88 C86 1.420 . S
C88 N96 1.362 . S
C89 C85 1.411 . S
C89 C87 1.420 . S
C89 C94 1.395 . S
C90 C86 1.423 . S
C90 C87 1.351 . S
C90 H102 0.930 . S
C91 C93 1.400 . S
C91 C94 1.386 . S
C91 H103 0.930 . S
N92 C85 1.377 . S
N92 C93 1.321 . S
N92 Eu95 2.609 . S
C93 C91 1.400 . S
C93 N92 1.321 . S
C93 H100 0.930 . S
C94 C89 1.395 . S
C94 C91 1.386 . S
C94 H113 0.930 . S
Eu95 N92 2.609 . S
Eu95 N96 2.657 . S
Eu95 O129 2.380 . S
Eu95 O130 2.432 . S
Eu95 O134 2.558 . S
Eu95 O135 2.612 . S
Eu95 O137 2.339 . S
Eu95 O138 2.563 . S
Eu95 O139 2.419 . S
Eu95 C159 2.848 . S
N96 C88 1.362 . S
N96 Eu95 2.657 . S
N96 C97 1.334 . S
C97 N96 1.334 . S
C97 C99 1.413 . S
C97 H104 0.929 . S
C98 C86 1.392 . S
C98 C99 1.367 . S
C98 H106 0.930 . S
C99 C97 1.413 . S
C99 C98 1.367 . S
C99 H101 0.930 . S
H100 C93 0.930 . S
H101 C99 0.930 . S
H102 C90 0.930 . S
H103 C91 0.930 . S
H104 C97 0.929 . S
H105 C119 0.930 . S
H106 C98 0.930 . S
H107 C125 0.930 . S
H108 C116 0.929 . S
H109 C123 0.930 . S
H110 C87 0.931 . S
H111 C117 0.930 . S
H112 C150 0.930 . S
H113 C94 0.930 . S
H114 C149 0.931 . S
N115 Eu84 2.657 . S
N115 C116 1.334 . S
N115 C120 1.362 . S
C116 H108 0.929 . S
C116 N115 1.334 . S
C116 C119 1.413 . S
C117 H111 0.930 . S
C117 C118 1.392 . S
C117 C119 1.367 . S
C118 C117 1.392 . S
C118 C120 1.420 . S
C118 C150 1.423 . S
C119 H105 0.930 . S
C119 C116 1.413 . S
C119 C117 1.367 . S
C120 N115 1.362 . S
C120 C118 1.420 . S
C120 C124 1.429 . S
H121 C126 0.930 . S
N122 Eu84 2.609 . S
N122 C124 1.377 . S
N122 C125 1.321 . S
C123 H109 0.930 . S
C123 C125 1.400 . S
C123 C126 1.386 . S
C124 C120 1.429 . S
C124 N122 1.377 . S
C124 C127 1.411 . S
C125 H107 0.930 . S
C125 N122 1.321 . S
C125 C123 1.400 . S
C126 H121 0.930 . S
C126 C123 1.386 . S
C126 C127 1.395 . S
C127 C124 1.411 . S
C127 C126 1.395 . S
C127 C149 1.420 . S
O128 Eu84 2.558 . S
O128 C148 1.257 . S
O129 Eu84 2.612 . S
O129 Eu95 2.380 . S
O129 C140 1.276 . S
O130 Eu95 2.432 . S
O130 C147 1.264 . S
O131 Eu84 2.339 . S
O131 C147 1.254 . S
O132 Eu84 2.563 . S
O132 C140 1.235 . S
O133 Eu84 2.419 . S
O133 C148 1.249 . S
O134 Eu95 2.558 . S
O134 C159 1.257 . S
O135 Eu84 2.380 . S
O135 Eu95 2.612 . S
O135 C151 1.276 . S
O136 Eu84 2.432 . S
O136 C158 1.264 . S
O137 Eu95 2.339 . S
O137 C158 1.254 . S
O138 Eu95 2.563 . S
O138 C151 1.235 . S
O139 Eu95 2.419 . S
O139 C159 1.249 . S
C140 O129 1.276 . S
C140 O132 1.235 . S
C141 C143 1.393 . S
C141 C145 1.395 . S
C141 C148 1.492 . S
C142 C143 1.392 . S
C142 C144 1.386 . S
C143 C141 1.393 . S
C143 C142 1.392 . S
C143 H160 0.930 . S
C144 C142 1.386 . S
C144 C146 1.395 . S
C144 H161 0.930 . S
C145 C141 1.395 . S
C145 C146 1.379 . S
C145 H162 0.930 . S
C146 C144 1.395 . S
C146 C145 1.379 . S
C146 H163 0.930 . S
C147 O130 1.264 . S
C147 O131 1.254 . S
C148 Eu84 2.848 . S
C148 O128 1.257 . S
C148 O133 1.249 . S
C148 C141 1.492 . S
C149 H114 0.931 . S
C149 C127 1.420 . S
C149 C150 1.351 . S
C150 H112 0.930 . S
C150 C118 1.423 . S
C150 C149 1.351 . S
C151 O135 1.276 . S
C151 O138 1.235 . S
C152 C153 1.393 . S
C152 C156 1.395 . S
C152 C159 1.492 . S
C153 C152 1.393 . S
C153 C154 1.392 . S
C153 H164 0.930 . S
C154 C153 1.392 . S
C154 C155 1.386 . S
C155 C154 1.386 . S
C155 C157 1.395 . S
C155 H165 0.930 . S
C156 C152 1.395 . S
C156 C157 1.379 . S
C156 H166 0.930 . S
C157 C155 1.395 . S
C157 C156 1.379 . S
C157 H167 0.930 . S
C158 O136 1.264 . S
C158 O137 1.254 . S
C159 Eu95 2.848 . S
C159 O134 1.257 . S
C159 O139 1.249 . S
C159 C152 1.492 . S
H160 C143 0.930 . S
H161 C144 0.930 . S
H162 C145 0.930 . S
H163 C146 0.930 . S
H164 C153 0.930 . S
H165 C155 0.930 . S
H166 C156 0.930 . S
H167 C157 0.930 . S
Eu168 N199 2.657 . S
Eu168 N206 2.609 . S
Eu168 O212 2.558 . S
Eu168 O213 2.612 . S
Eu168 O215 2.339 . S
Eu168 O216 2.563 . S
Eu168 O217 2.419 . S
Eu168 O219 2.380 . S
Eu168 O220 2.432 . S
Eu168 C232 2.848 . S
C169 C172 1.429 . S
C169 C173 1.411 . S
C169 N176 1.377 . S
C170 C172 1.420 . S
C170 C174 1.423 . S
C170 C182 1.392 . S
C171 C173 1.420 . S
C171 C174 1.351 . S
C171 H194 0.931 . S
C172 C169 1.429 . S
C172 C170 1.420 . S
C172 N180 1.362 . S
C173 C169 1.411 . S
C173 C171 1.420 . S
C173 C178 1.395 . S
C174 C170 1.423 . S
C174 C171 1.351 . S
C174 H186 0.930 . S
C175 C177 1.400 . S
C175 C178 1.386 . S
C175 H187 0.930 . S
N176 C169 1.377 . S
N176 C177 1.321 . S
N176 Eu179 2.609 . S
C177 C175 1.400 . S
C177 N176 1.321 . S
C177 H184 0.930 . S
C178 C173 1.395 . S
C178 C175 1.386 . S
C178 H197 0.930 . S
Eu179 N176 2.609 . S
Eu179 N180 2.657 . S
Eu179 O213 2.380 . S
Eu179 O214 2.432 . S
Eu179 O218 2.558 . S
Eu179 O219 2.612 . S
Eu179 O221 2.339 . S
Eu179 O222 2.563 . S
Eu179 O223 2.419 . S
Eu179 C243 2.848 . S
N180 C172 1.362 . S
N180 Eu179 2.657 . S
N180 C181 1.334 . S
C181 N180 1.334 . S
C181 C183 1.413 . S
C181 H188 0.929 . S
C182 C170 1.392 . S
C182 C183 1.367 . S
C182 H190 0.930 . S
C183 C181 1.413 . S
C183 C182 1.367 . S
C183 H185 0.930 . S
H184 C177 0.930 . S
H185 C183 0.930 . S
H186 C174 0.930 . S
H187 C175 0.930 . S
H188 C181 0.929 . S
H189 C203 0.930 . S
H190 C182 0.930 . S
H191 C209 0.930 . S
H192 C200 0.929 . S
H193 C207 0.930 . S
H194 C171 0.931 . S
H195 C201 0.930 . S
H196 C234 0.930 . S
H197 C178 0.930 . S
H198 C233 0.931 . S
N199 Eu168 2.657 . S
N199 C200 1.334 . S
N199 C204 1.362 . S
C200 H192 0.929 . S
C200 N199 1.334 . S
C200 C203 1.413 . S
C201 H195 0.930 . S
C201 C202 1.392 . S
C201 C203 1.367 . S
C202 C201 1.392 . S
C202 C204 1.420 . S
C202 C234 1.423 . S
C203 H189 0.930 . S
C203 C200 1.413 . S
C203 C201 1.367 . S
C204 N199 1.362 . S
C204 C202 1.420 . S
C204 C208 1.429 . S
H205 C210 0.930 . S
N206 Eu168 2.609 . S
N206 C208 1.377 . S
N206 C209 1.321 . S
C207 H193 0.930 . S
C207 C209 1.400 . S
C207 C210 1.386 . S
C208 C204 1.429 . S
C208 N206 1.377 . S
C208 C211 1.411 . S
C209 H191 0.930 . S
C209 N206 1.321 . S
C209 C207 1.400 . S
C210 H205 0.930 . S
C210 C207 1.386 . S
C210 C211 1.395 . S
C211 C208 1.411 . S
C211 C210 1.395 . S
C211 C233 1.420 . S
O212 Eu168 2.558 . S
O212 C232 1.257 . S
O213 Eu168 2.612 . S
O213 Eu179 2.380 . S
O213 C224 1.276 . S
O214 Eu179 2.432 . S
O214 C231 1.264 . S
O215 Eu168 2.339 . S
O215 C231 1.254 . S
O216 Eu168 2.563 . S
O216 C224 1.235 . S
O217 Eu168 2.419 . S
O217 C232 1.249 . S
O218 Eu179 2.558 . S
O218 C243 1.257 . S
O219 Eu168 2.380 . S
O219 Eu179 2.612 . S
O219 C235 1.276 . S
O220 Eu168 2.432 . S
O220 C242 1.264 . S
O221 Eu179 2.339 . S
O221 C242 1.254 . S
O222 Eu179 2.563 . S
O222 C235 1.235 . S
O223 Eu179 2.419 . S
O223 C243 1.249 . S
C224 O213 1.276 . S
C224 O216 1.235 . S
C225 C227 1.393 . S
C225 C229 1.395 . S
C225 C232 1.492 . S
C226 C227 1.392 . S
C226 C228 1.386 . S
C227 C225 1.393 . S
C227 C226 1.392 . S
C227 H244 0.930 . S
C228 C226 1.386 . S
C228 C230 1.395 . S
C228 H245 0.930 . S
C229 C225 1.395 . S
C229 C230 1.379 . S
C229 H246 0.930 . S
C230 C228 1.395 . S
C230 C229 1.379 . S
C230 H247 0.930 . S
C231 O214 1.264 . S
C231 O215 1.254 . S
C232 Eu168 2.848 . S
C232 O212 1.257 . S
C232 O217 1.249 . S
C232 C225 1.492 . S
C233 H198 0.931 . S
C233 C211 1.420 . S
C233 C234 1.351 . S
C234 H196 0.930 . S
C234 C202 1.423 . S
C234 C233 1.351 . S
C235 O219 1.276 . S
C235 O222 1.235 . S
C236 C237 1.393 . S
C236 C240 1.395 . S
C236 C243 1.492 . S
C237 C236 1.393 . S
C237 C238 1.392 . S
C237 H248 0.930 . S
C238 C237 1.392 . S
C238 C239 1.386 . S
C239 C238 1.386 . S
C239 C241 1.395 . S
C239 H249 0.930 . S
C240 C236 1.395 . S
C240 C241 1.379 . S
C240 H250 0.930 . S
C241 C239 1.395 . S
C241 C240 1.379 . S
C241 H251 0.930 . S
C242 O220 1.264 . S
C242 O221 1.254 . S
C243 Eu179 2.848 . S
C243 O218 1.257 . S
C243 O223 1.249 . S
C243 C236 1.492 . S
H244 C227 0.930 . S
H245 C228 0.930 . S
H246 C229 0.930 . S
H247 C230 0.930 . S
H248 C237 0.930 . S
H249 C239 0.930 . S
H250 C240 0.930 . S
H251 C241 0.930 . S
Eu252 N283 2.657 . S
Eu252 N290 2.609 . S
Eu252 O296 2.558 . S
Eu252 O297 2.612 . S
Eu252 O299 2.339 . S
Eu252 O300 2.563 . S
Eu252 O301 2.419 . S
Eu252 O303 2.380 . S
Eu252 O304 2.432 . S
Eu252 C316 2.848 . S
C253 C256 1.429 . S
C253 C257 1.411 . S
C253 N260 1.377 . S
C254 C256 1.420 . S
C254 C258 1.423 . S
C254 C266 1.392 . S
C255 C257 1.420 . S
C255 C258 1.351 . S
C255 H278 0.931 . S
C256 C253 1.429 . S
C256 C254 1.420 . S
C256 N264 1.362 . S
C257 C253 1.411 . S
C257 C255 1.420 . S
C257 C262 1.395 . S
C258 C254 1.423 . S
C258 C255 1.351 . S
C258 H270 0.930 . S
C259 C261 1.400 . S
C259 C262 1.386 . S
C259 H271 0.930 . S
N260 C253 1.377 . S
N260 C261 1.321 . S
N260 Eu263 2.609 . S
C261 C259 1.400 . S
C261 N260 1.321 . S
C261 H268 0.930 . S
C262 C257 1.395 . S
C262 C259 1.386 . S
C262 H281 0.930 . S
Eu263 N260 2.609 . S
Eu263 N264 2.657 . S
Eu263 O297 2.380 . S
Eu263 O298 2.432 . S
Eu263 O302 2.558 . S
Eu263 O303 2.612 . S
Eu263 O305 2.339 . S
Eu263 O306 2.563 . S
Eu263 O307 2.419 . S
Eu263 C327 2.848 . S
N264 C256 1.362 . S
N264 Eu263 2.657 . S
N264 C265 1.334 . S
C265 N264 1.334 . S
C265 C267 1.413 . S
C265 H272 0.929 . S
C266 C254 1.392 . S
C266 C267 1.367 . S
C266 H274 0.930 . S
C267 C265 1.413 . S
C267 C266 1.367 . S
C267 H269 0.930 . S
H268 C261 0.930 . S
H269 C267 0.930 . S
H270 C258 0.930 . S
H271 C259 0.930 . S
H272 C265 0.929 . S
H273 C287 0.930 . S
H274 C266 0.930 . S
H275 C293 0.930 . S
H276 C284 0.929 . S
H277 C291 0.930 . S
H278 C255 0.931 . S
H279 C285 0.930 . S
H280 C318 0.930 . S
H281 C262 0.930 . S
H282 C317 0.931 . S
N283 Eu252 2.657 . S
N283 C284 1.334 . S
N283 C288 1.362 . S
C284 H276 0.929 . S
C284 N283 1.334 . S
C284 C287 1.413 . S
C285 H279 0.930 . S
C285 C286 1.392 . S
C285 C287 1.367 . S
C286 C285 1.392 . S
C286 C288 1.420 . S
C286 C318 1.423 . S
C287 H273 0.930 . S
C287 C284 1.413 . S
C287 C285 1.367 . S
C288 N283 1.362 . S
C288 C286 1.420 . S
C288 C292 1.429 . S
H289 C294 0.930 . S
N290 Eu252 2.609 . S
N290 C292 1.377 . S
N290 C293 1.321 . S
C291 H277 0.930 . S
C291 C293 1.400 . S
C291 C294 1.386 . S
C292 C288 1.429 . S
C292 N290 1.377 . S
C292 C295 1.411 . S
C293 H275 0.930 . S
C293 N290 1.321 . S
C293 C291 1.400 . S
C294 H289 0.930 . S
C294 C291 1.386 . S
C294 C295 1.395 . S
C295 C292 1.411 . S
C295 C294 1.395 . S
C295 C317 1.420 . S
O296 Eu252 2.558 . S
O296 C316 1.257 . S
O297 Eu252 2.612 . S
O297 Eu263 2.380 . S
O297 C308 1.276 . S
O298 Eu263 2.432 . S
O298 C315 1.264 . S
O299 Eu252 2.339 . S
O299 C315 1.254 . S
O300 Eu252 2.563 . S
O300 C308 1.235 . S
O301 Eu252 2.419 . S
O301 C316 1.249 . S
O302 Eu263 2.558 . S
O302 C327 1.257 . S
O303 Eu252 2.380 . S
O303 Eu263 2.612 . S
O303 C319 1.276 . S
O304 Eu252 2.432 . S
O304 C326 1.264 . S
O305 Eu263 2.339 . S
O305 C326 1.254 . S
O306 Eu263 2.563 . S
O306 C319 1.235 . S
O307 Eu263 2.419 . S
O307 C327 1.249 . S
C308 O297 1.276 . S
C308 O300 1.235 . S
C309 C311 1.393 . S
C309 C313 1.395 . S
C309 C316 1.492 . S
C310 C311 1.392 . S
C310 C312 1.386 . S
C311 C309 1.393 . S
C311 C310 1.392 . S
C311 H328 0.930 . S
C312 C310 1.386 . S
C312 C314 1.395 . S
C312 H329 0.930 . S
C313 C309 1.395 . S
C313 C314 1.379 . S
C313 H330 0.930 . S
C314 C312 1.395 . S
C314 C313 1.379 . S
C314 H331 0.930 . S
C315 O298 1.264 . S
C315 O299 1.254 . S
C316 Eu252 2.848 . S
C316 O296 1.257 . S
C316 O301 1.249 . S
C316 C309 1.492 . S
C317 H282 0.931 . S
C317 C295 1.420 . S
C317 C318 1.351 . S
C318 H280 0.930 . S
C318 C286 1.423 . S
C318 C317 1.351 . S
C319 O303 1.276 . S
C319 O306 1.235 . S
C320 C321 1.393 . S
C320 C324 1.395 . S
C320 C327 1.492 . S
C321 C320 1.393 . S
C321 C322 1.392 . S
C321 H332 0.930 . S
C322 C321 1.392 . S
C322 C323 1.386 . S
C323 C322 1.386 . S
C323 C325 1.395 . S
C323 H333 0.930 . S
C324 C320 1.395 . S
C324 C325 1.379 . S
C324 H334 0.930 . S
C325 C323 1.395 . S
C325 C324 1.379 . S
C325 H335 0.930 . S
C326 O304 1.264 . S
C326 O305 1.254 . S
C327 Eu263 2.848 . S
C327 O302 1.257 . S
C327 O307 1.249 . S
C327 C320 1.492 . S
H328 C311 0.930 . S
H329 C312 0.930 . S
H330 C313 0.930 . S
H331 C314 0.930 . S
H332 C321 0.930 . S
H333 C323 0.930 . S
H334 C324 0.930 . S
H335 C325 0.930 . S
Eu336 N367 2.657 . S
Eu336 N374 2.609 . S
Eu336 O380 2.558 . S
Eu336 O381 2.612 . S
Eu336 O383 2.339 . S
Eu336 O384 2.563 . S
Eu336 O385 2.419 . S
Eu336 O387 2.380 . S
Eu336 O388 2.432 . S
Eu336 C400 2.848 . S
C337 C340 1.429 . S
C337 C341 1.411 . S
C337 N344 1.377 . S
C338 C340 1.420 . S
C338 C342 1.423 . S
C338 C350 1.392 . S
C339 C341 1.420 . S
C339 C342 1.351 . S
C339 H362 0.931 . S
C340 C337 1.429 . S
C340 C338 1.420 . S
C340 N348 1.362 . S
C341 C337 1.411 . S
C341 C339 1.420 . S
C341 C346 1.395 . S
C342 C338 1.423 . S
C342 C339 1.351 . S
C342 H354 0.930 . S
C343 C345 1.400 . S
C343 C346 1.386 . S
C343 H355 0.930 . S
N344 C337 1.377 . S
N344 C345 1.321 . S
N344 Eu347 2.609 . S
C345 C343 1.400 . S
C345 N344 1.321 . S
C345 H352 0.930 . S
C346 C341 1.395 . S
C346 C343 1.386 . S
C346 H365 0.930 . S
Eu347 N344 2.609 . S
Eu347 N348 2.657 . S
Eu347 O381 2.380 . S
Eu347 O382 2.432 . S
Eu347 O386 2.558 . S
Eu347 O387 2.612 . S
Eu347 O389 2.339 . S
Eu347 O390 2.563 . S
Eu347 O391 2.419 . S
Eu347 C411 2.848 . S
N348 C340 1.362 . S
N348 Eu347 2.657 . S
N348 C349 1.334 . S
C349 N348 1.334 . S
C349 C351 1.413 . S
C349 H356 0.929 . S
C350 C338 1.392 . S
C350 C351 1.367 . S
C350 H358 0.930 . S
C351 C349 1.413 . S
C351 C350 1.367 . S
C351 H353 0.930 . S
H352 C345 0.930 . S
H353 C351 0.930 . S
H354 C342 0.930 . S
H355 C343 0.930 . S
H356 C349 0.929 . S
H357 C371 0.930 . S
H358 C350 0.930 . S
H359 C377 0.930 . S
H360 C368 0.929 . S
H361 C375 0.930 . S
H362 C339 0.931 . S
H363 C369 0.930 . S
H364 C402 0.930 . S
H365 C346 0.930 . S
H366 C401 0.931 . S
N367 Eu336 2.657 . S
N367 C368 1.334 . S
N367 C372 1.362 . S
C368 H360 0.929 . S
C368 N367 1.334 . S
C368 C371 1.413 . S
C369 H363 0.930 . S
C369 C370 1.392 . S
C369 C371 1.367 . S
C370 C369 1.392 . S
C370 C372 1.420 . S
C370 C402 1.423 . S
C371 H357 0.930 . S
C371 C368 1.413 . S
C371 C369 1.367 . S
C372 N367 1.362 . S
C372 C370 1.420 . S
C372 C376 1.429 . S
H373 C378 0.930 . S
N374 Eu336 2.609 . S
N374 C376 1.377 . S
N374 C377 1.321 . S
C375 H361 0.930 . S
C375 C377 1.400 . S
C375 C378 1.386 . S
C376 C372 1.429 . S
C376 N374 1.377 . S
C376 C379 1.411 . S
C377 H359 0.930 . S
C377 N374 1.321 . S
C377 C375 1.400 . S
C378 H373 0.930 . S
C378 C375 1.386 . S
C378 C379 1.395 . S
C379 C376 1.411 . S
C379 C378 1.395 . S
C379 C401 1.420 . S
O380 Eu336 2.558 . S
O380 C400 1.257 . S
O381 Eu336 2.612 . S
O381 Eu347 2.380 . S
O381 C392 1.276 . S
O382 Eu347 2.432 . S
O382 C399 1.264 . S
O383 Eu336 2.339 . S
O383 C399 1.254 . S
O384 Eu336 2.563 . S
O384 C392 1.235 . S
O385 Eu336 2.419 . S
O385 C400 1.249 . S
O386 Eu347 2.558 . S
O386 C411 1.257 . S
O387 Eu336 2.380 . S
O387 Eu347 2.612 . S
O387 C403 1.276 . S
O388 Eu336 2.432 . S
O388 C410 1.264 . S
O389 Eu347 2.339 . S
O389 C410 1.254 . S
O390 Eu347 2.563 . S
O390 C403 1.235 . S
O391 Eu347 2.419 . S
O391 C411 1.249 . S
C392 O381 1.276 . S
C392 O384 1.235 . S
C393 C395 1.393 . S
C393 C397 1.395 . S
C393 C400 1.492 . S
C394 C395 1.392 . S
C394 C396 1.386 . S
C395 C393 1.393 . S
C395 C394 1.392 . S
C395 H412 0.930 . S
C396 C394 1.386 . S
C396 C398 1.395 . S
C396 H413 0.930 . S
C397 C393 1.395 . S
C397 C398 1.379 . S
C397 H414 0.930 . S
C398 C396 1.395 . S
C398 C397 1.379 . S
C398 H415 0.930 . S
C399 O382 1.264 . S
C399 O383 1.254 . S
C400 Eu336 2.848 . S
C400 O380 1.257 . S
C400 O385 1.249 . S
C400 C393 1.492 . S
C401 H366 0.931 . S
C401 C379 1.420 . S
C401 C402 1.351 . S
C402 H364 0.930 . S
C402 C370 1.423 . S
C402 C401 1.351 . S
C403 O387 1.276 . S
C403 O390 1.235 . S
C404 C405 1.393 . S
C404 C408 1.395 . S
C404 C411 1.492 . S
C405 C404 1.393 . S
C405 C406 1.392 . S
C405 H416 0.930 . S
C406 C405 1.392 . S
C406 C407 1.386 . S
C407 C406 1.386 . S
C407 C409 1.395 . S
C407 H417 0.930 . S
C408 C404 1.395 . S
C408 C409 1.379 . S
C408 H418 0.930 . S
C409 C407 1.395 . S
C409 C408 1.379 . S
C409 H419 0.930 . S
C410 O388 1.264 . S
C410 O389 1.254 . S
C411 Eu347 2.848 . S
C411 O386 1.257 . S
C411 O391 1.249 . S
C411 C404 1.492 . S
H412 C395 0.930 . S
H413 C396 0.930 . S
H414 C397 0.930 . S
H415 C398 0.930 . S
H416 C405 0.930 . S
H417 C407 0.930 . S
H418 C408 0.930 . S
H419 C409 0.930 . S
Eu420 N451 2.657 . S
Eu420 N458 2.609 . S
Eu420 O464 2.558 . S
Eu420 O465 2.612 . S
Eu420 O467 2.339 . S
Eu420 O468 2.563 . S
Eu420 O469 2.419 . S
Eu420 O471 2.380 . S
Eu420 O472 2.432 . S
Eu420 C484 2.848 . S
C421 C424 1.429 . S
C421 C425 1.411 . S
C421 N428 1.377 . S
C422 C424 1.420 . S
C422 C426 1.423 . S
C422 C434 1.392 . S
C423 C425 1.420 . S
C423 C426 1.351 . S
C423 H446 0.931 . S
C424 C421 1.429 . S
C424 C422 1.420 . S
C424 N432 1.362 . S
C425 C421 1.411 . S
C425 C423 1.420 . S
C425 C430 1.395 . S
C426 C422 1.423 . S
C426 C423 1.351 . S
C426 H438 0.930 . S
C427 C429 1.400 . S
C427 C430 1.386 . S
C427 H439 0.930 . S
N428 C421 1.377 . S
N428 C429 1.321 . S
N428 Eu431 2.609 . S
C429 C427 1.400 . S
C429 N428 1.321 . S
C429 H436 0.930 . S
C430 C425 1.395 . S
C430 C427 1.386 . S
C430 H449 0.930 . S
Eu431 N428 2.609 . S
Eu431 N432 2.657 . S
Eu431 O465 2.380 . S
Eu431 O466 2.432 . S
Eu431 O470 2.558 . S
Eu431 O471 2.612 . S
Eu431 O473 2.339 . S
Eu431 O474 2.563 . S
Eu431 O475 2.419 . S
Eu431 C495 2.848 . S
N432 C424 1.362 . S
N432 Eu431 2.657 . S
N432 C433 1.334 . S
C433 N432 1.334 . S
C433 C435 1.413 . S
C433 H440 0.929 . S
C434 C422 1.392 . S
C434 C435 1.367 . S
C434 H442 0.930 . S
C435 C433 1.413 . S
C435 C434 1.367 . S
C435 H437 0.930 . S
H436 C429 0.930 . S
H437 C435 0.930 . S
H438 C426 0.930 . S
H439 C427 0.930 . S
H440 C433 0.929 . S
H441 C455 0.930 . S
H442 C434 0.930 . S
H443 C461 0.930 . S
H444 C452 0.929 . S
H445 C459 0.930 . S
H446 C423 0.931 . S
H447 C453 0.930 . S
H448 C486 0.930 . S
H449 C430 0.930 . S
H450 C485 0.931 . S
N451 Eu420 2.657 . S
N451 C452 1.334 . S
N451 C456 1.362 . S
C452 H444 0.929 . S
C452 N451 1.334 . S
C452 C455 1.413 . S
C453 H447 0.930 . S
C453 C454 1.392 . S
C453 C455 1.367 . S
C454 C453 1.392 . S
C454 C456 1.420 . S
C454 C486 1.423 . S
C455 H441 0.930 . S
C455 C452 1.413 . S
C455 C453 1.367 . S
C456 N451 1.362 . S
C456 C454 1.420 . S
C456 C460 1.429 . S
H457 C462 0.930 . S
N458 Eu420 2.609 . S
N458 C460 1.377 . S
N458 C461 1.321 . S
C459 H445 0.930 . S
C459 C461 1.400 . S
C459 C462 1.386 . S
C460 C456 1.429 . S
C460 N458 1.377 . S
C460 C463 1.411 . S
C461 H443 0.930 . S
C461 N458 1.321 . S
C461 C459 1.400 . S
C462 H457 0.930 . S
C462 C459 1.386 . S
C462 C463 1.395 . S
C463 C460 1.411 . S
C463 C462 1.395 . S
C463 C485 1.420 . S
O464 Eu420 2.558 . S
O464 C484 1.257 . S
O465 Eu420 2.612 . S
O465 Eu431 2.380 . S
O465 C476 1.276 . S
O466 Eu431 2.432 . S
O466 C483 1.264 . S
O467 Eu420 2.339 . S
O467 C483 1.254 . S
O468 Eu420 2.563 . S
O468 C476 1.235 . S
O469 Eu420 2.419 . S
O469 C484 1.249 . S
O470 Eu431 2.558 . S
O470 C495 1.257 . S
O471 Eu420 2.380 . S
O471 Eu431 2.612 . S
O471 C487 1.276 . S
O472 Eu420 2.432 . S
O472 C494 1.264 . S
O473 Eu431 2.339 . S
O473 C494 1.254 . S
O474 Eu431 2.563 . S
O474 C487 1.235 . S
O475 Eu431 2.419 . S
O475 C495 1.249 . S
C476 O465 1.276 . S
C476 O468 1.235 . S
C477 C479 1.393 . S
C477 C481 1.395 . S
C477 C484 1.492 . S
C478 C479 1.392 . S
C478 C480 1.386 . S
C479 C477 1.393 . S
C479 C478 1.392 . S
C479 H496 0.930 . S
C480 C478 1.386 . S
C480 C482 1.395 . S
C480 H497 0.930 . S
C481 C477 1.395 . S
C481 C482 1.379 . S
C481 H498 0.930 . S
C482 C480 1.395 . S
C482 C481 1.379 . S
C482 H499 0.930 . S
C483 O466 1.264 . S
C483 O467 1.254 . S
C484 Eu420 2.848 . S
C484 O464 1.257 . S
C484 O469 1.249 . S
C484 C477 1.492 . S
C485 H450 0.931 . S
C485 C463 1.420 . S
C485 C486 1.351 . S
C486 H448 0.930 . S
C486 C454 1.423 . S
C486 C485 1.351 . S
C487 O471 1.276 . S
C487 O474 1.235 . S
C488 C489 1.393 . S
C488 C492 1.395 . S
C488 C495 1.492 . S
C489 C488 1.393 . S
C489 C490 1.392 . S
C489 H500 0.930 . S
C490 C489 1.392 . S
C490 C491 1.386 . S
C491 C490 1.386 . S
C491 C493 1.395 . S
C491 H501 0.930 . S
C492 C488 1.395 . S
C492 C493 1.379 . S
C492 H502 0.930 . S
C493 C491 1.395 . S
C493 C492 1.379 . S
C493 H503 0.930 . S
C494 O472 1.264 . S
C494 O473 1.254 . S
C495 Eu431 2.848 . S
C495 O470 1.257 . S
C495 O475 1.249 . S
C495 C488 1.492 . S
H496 C479 0.930 . S
H497 C480 0.930 . S
H498 C481 0.930 . S
H499 C482 0.930 . S
H500 C489 0.930 . S
H501 C491 0.930 . S
H502 C492 0.930 . S
H503 C493 0.930 . S
Eu504 N535 2.657 . S
Eu504 N542 2.609 . S
Eu504 O548 2.558 . S
Eu504 O549 2.612 . S
Eu504 O551 2.339 . S
Eu504 O552 2.563 . S
Eu504 O553 2.419 . S
Eu504 O555 2.380 . S
Eu504 O556 2.432 . S
Eu504 C568 2.848 . S
C505 C508 1.429 . S
C505 C509 1.411 . S
C505 N512 1.377 . S
C506 C508 1.420 . S
C506 C510 1.423 . S
C506 C518 1.392 . S
C507 C509 1.420 . S
C507 C510 1.351 . S
C507 H530 0.931 . S
C508 C505 1.429 . S
C508 C506 1.420 . S
C508 N516 1.362 . S
C509 C505 1.411 . S
C509 C507 1.420 . S
C509 C514 1.395 . S
C510 C506 1.423 . S
C510 C507 1.351 . S
C510 H522 0.930 . S
C511 C513 1.400 . S
C511 C514 1.386 . S
C511 H523 0.930 . S
N512 C505 1.377 . S
N512 C513 1.321 . S
N512 Eu515 2.609 . S
C513 C511 1.400 . S
C513 N512 1.321 . S
C513 H520 0.930 . S
C514 C509 1.395 . S
C514 C511 1.386 . S
C514 H533 0.930 . S
Eu515 N512 2.609 . S
Eu515 N516 2.657 . S
Eu515 O549 2.380 . S
Eu515 O550 2.432 . S
Eu515 O554 2.558 . S
Eu515 O555 2.612 . S
Eu515 O557 2.339 . S
Eu515 O558 2.563 . S
Eu515 O559 2.419 . S
Eu515 C579 2.848 . S
N516 C508 1.362 . S
N516 Eu515 2.657 . S
N516 C517 1.334 . S
C517 N516 1.334 . S
C517 C519 1.413 . S
C517 H524 0.929 . S
C518 C506 1.392 . S
C518 C519 1.367 . S
C518 H526 0.930 . S
C519 C517 1.413 . S
C519 C518 1.367 . S
C519 H521 0.930 . S
H520 C513 0.930 . S
H521 C519 0.930 . S
H522 C510 0.930 . S
H523 C511 0.930 . S
H524 C517 0.929 . S
H525 C539 0.930 . S
H526 C518 0.930 . S
H527 C545 0.930 . S
H528 C536 0.929 . S
H529 C543 0.930 . S
H530 C507 0.931 . S
H531 C537 0.930 . S
H532 C570 0.930 . S
H533 C514 0.930 . S
H534 C569 0.931 . S
N535 Eu504 2.657 . S
N535 C536 1.334 . S
N535 C540 1.362 . S
C536 H528 0.929 . S
C536 N535 1.334 . S
C536 C539 1.413 . S
C537 H531 0.930 . S
C537 C538 1.392 . S
C537 C539 1.367 . S
C538 C537 1.392 . S
C538 C540 1.420 . S
C538 C570 1.423 . S
C539 H525 0.930 . S
C539 C536 1.413 . S
C539 C537 1.367 . S
C540 N535 1.362 . S
C540 C538 1.420 . S
C540 C544 1.429 . S
H541 C546 0.930 . S
N542 Eu504 2.609 . S
N542 C544 1.377 . S
N542 C545 1.321 . S
C543 H529 0.930 . S
C543 C545 1.400 . S
C543 C546 1.386 . S
C544 C540 1.429 . S
C544 N542 1.377 . S
C544 C547 1.411 . S
C545 H527 0.930 . S
C545 N542 1.321 . S
C545 C543 1.400 . S
C546 H541 0.930 . S
C546 C543 1.386 . S
C546 C547 1.395 . S
C547 C544 1.411 . S
C547 C546 1.395 . S
C547 C569 1.420 . S
O548 Eu504 2.558 . S
O548 C568 1.257 . S
O549 Eu504 2.612 . S
O549 Eu515 2.380 . S
O549 C560 1.276 . S
O550 Eu515 2.432 . S
O550 C567 1.264 . S
O551 Eu504 2.339 . S
O551 C567 1.254 . S
O552 Eu504 2.563 . S
O552 C560 1.235 . S
O553 Eu504 2.419 . S
O553 C568 1.249 . S
O554 Eu515 2.558 . S
O554 C579 1.257 . S
O555 Eu504 2.380 . S
O555 Eu515 2.612 . S
O555 C571 1.276 . S
O556 Eu504 2.432 . S
O556 C578 1.264 . S
O557 Eu515 2.339 . S
O557 C578 1.254 . S
O558 Eu515 2.563 . S
O558 C571 1.235 . S
O559 Eu515 2.419 . S
O559 C579 1.249 . S
C560 O549 1.276 . S
C560 O552 1.235 . S
C561 C563 1.393 . S
C561 C565 1.395 . S
C561 C568 1.492 . S
C562 C563 1.392 . S
C562 C564 1.386 . S
C563 C561 1.393 . S
C563 C562 1.392 . S
C563 H580 0.930 . S
C564 C562 1.386 . S
C564 C566 1.395 . S
C564 H581 0.930 . S
C565 C561 1.395 . S
C565 C566 1.379 . S
C565 H582 0.930 . S
C566 C564 1.395 . S
C566 C565 1.379 . S
C566 H583 0.930 . S
C567 O550 1.264 . S
C567 O551 1.254 . S
C568 Eu504 2.848 . S
C568 O548 1.257 . S
C568 O553 1.249 . S
C568 C561 1.492 . S
C569 H534 0.931 . S
C569 C547 1.420 . S
C569 C570 1.351 . S
C570 H532 0.930 . S
C570 C538 1.423 . S
C570 C569 1.351 . S
C571 O555 1.276 . S
C571 O558 1.235 . S
C572 C573 1.393 . S
C572 C576 1.395 . S
C572 C579 1.492 . S
C573 C572 1.393 . S
C573 C574 1.392 . S
C573 H584 0.930 . S
C574 C573 1.392 . S
C574 C575 1.386 . S
C575 C574 1.386 . S
C575 C577 1.395 . S
C575 H585 0.930 . S
C576 C572 1.395 . S
C576 C577 1.379 . S
C576 H586 0.930 . S
C577 C575 1.395 . S
C577 C576 1.379 . S
C577 H587 0.930 . S
C578 O556 1.264 . S
C578 O557 1.254 . S
C579 Eu515 2.848 . S
C579 O554 1.257 . S
C579 O559 1.249 . S
C579 C572 1.492 . S
H580 C563 0.930 . S
H581 C564 0.930 . S
H582 C565 0.930 . S
H583 C566 0.930 . S
H584 C573 0.930 . S
H585 C575 0.930 . S
H586 C576 0.930 . S
H587 C577 0.930 . S
Eu588 N619 2.657 . S
Eu588 N626 2.609 . S
Eu588 O632 2.558 . S
Eu588 O633 2.612 . S
Eu588 O635 2.339 . S
Eu588 O636 2.563 . S
Eu588 O637 2.419 . S
Eu588 O639 2.380 . S
Eu588 O640 2.432 . S
Eu588 C652 2.848 . S
C589 C592 1.429 . S
C589 C593 1.411 . S
C589 N596 1.377 . S
C590 C592 1.420 . S
C590 C594 1.423 . S
C590 C602 1.392 . S
C591 C593 1.420 . S
C591 C594 1.351 . S
C591 H614 0.931 . S
C592 C589 1.429 . S
C592 C590 1.420 . S
C592 N600 1.362 . S
C593 C589 1.411 . S
C593 C591 1.420 . S
C593 C598 1.395 . S
C594 C590 1.423 . S
C594 C591 1.351 . S
C594 H606 0.930 . S
C595 C597 1.400 . S
C595 C598 1.386 . S
C595 H607 0.930 . S
N596 C589 1.377 . S
N596 C597 1.321 . S
N596 Eu599 2.609 . S
C597 C595 1.400 . S
C597 N596 1.321 . S
C597 H604 0.930 . S
C598 C593 1.395 . S
C598 C595 1.386 . S
C598 H617 0.930 . S
Eu599 N596 2.609 . S
Eu599 N600 2.657 . S
Eu599 O633 2.380 . S
Eu599 O634 2.432 . S
Eu599 O638 2.558 . S
Eu599 O639 2.612 . S
Eu599 O641 2.339 . S
Eu599 O642 2.563 . S
Eu599 O643 2.419 . S
Eu599 C663 2.848 . S
N600 C592 1.362 . S
N600 Eu599 2.657 . S
N600 C601 1.334 . S
C601 N600 1.334 . S
C601 C603 1.413 . S
C601 H608 0.929 . S
C602 C590 1.392 . S
C602 C603 1.367 . S
C602 H610 0.930 . S
C603 C601 1.413 . S
C603 C602 1.367 . S
C603 H605 0.930 . S
H604 C597 0.930 . S
H605 C603 0.930 . S
H606 C594 0.930 . S
H607 C595 0.930 . S
H608 C601 0.929 . S
H609 C623 0.930 . S
H610 C602 0.930 . S
H611 C629 0.930 . S
H612 C620 0.929 . S
H613 C627 0.930 . S
H614 C591 0.931 . S
H615 C621 0.930 . S
H616 C654 0.930 . S
H617 C598 0.930 . S
H618 C653 0.931 . S
N619 Eu588 2.657 . S
N619 C620 1.334 . S
N619 C624 1.362 . S
C620 H612 0.929 . S
C620 N619 1.334 . S
C620 C623 1.413 . S
C621 H615 0.930 . S
C621 C622 1.392 . S
C621 C623 1.367 . S
C622 C621 1.392 . S
C622 C624 1.420 . S
C622 C654 1.423 . S
C623 H609 0.930 . S
C623 C620 1.413 . S
C623 C621 1.367 . S
C624 N619 1.362 . S
C624 C622 1.420 . S
C624 C628 1.429 . S
H625 C630 0.930 . S
N626 Eu588 2.609 . S
N626 C628 1.377 . S
N626 C629 1.321 . S
C627 H613 0.930 . S
C627 C629 1.400 . S
C627 C630 1.386 . S
C628 C624 1.429 . S
C628 N626 1.377 . S
C628 C631 1.411 . S
C629 H611 0.930 . S
C629 N626 1.321 . S
C629 C627 1.400 . S
C630 H625 0.930 . S
C630 C627 1.386 . S
C630 C631 1.395 . S
C631 C628 1.411 . S
C631 C630 1.395 . S
C631 C653 1.420 . S
O632 Eu588 2.558 . S
O632 C652 1.257 . S
O633 Eu588 2.612 . S
O633 Eu599 2.380 . S
O633 C644 1.276 . S
O634 Eu599 2.432 . S
O634 C651 1.264 . S
O635 Eu588 2.339 . S
O635 C651 1.254 . S
O636 Eu588 2.563 . S
O636 C644 1.235 . S
O637 Eu588 2.419 . S
O637 C652 1.249 . S
O638 Eu599 2.558 . S
O638 C663 1.257 . S
O639 Eu588 2.380 . S
O639 Eu599 2.612 . S
O639 C655 1.276 . S
O640 Eu588 2.432 . S
O640 C662 1.264 . S
O641 Eu599 2.339 . S
O641 C662 1.254 . S
O642 Eu599 2.563 . S
O642 C655 1.235 . S
O643 Eu599 2.419 . S
O643 C663 1.249 . S
C644 O633 1.276 . S
C644 O636 1.235 . S
C645 C647 1.393 . S
C645 C649 1.395 . S
C645 C652 1.492 . S
C646 C647 1.392 . S
C646 C648 1.386 . S
C647 C645 1.393 . S
C647 C646 1.392 . S
C647 H664 0.930 . S
C648 C646 1.386 . S
C648 C650 1.395 . S
C648 H665 0.930 . S
C649 C645 1.395 . S
C649 C650 1.379 . S
C649 H666 0.930 . S
C650 C648 1.395 . S
C650 C649 1.379 . S
C650 H667 0.930 . S
C651 O634 1.264 . S
C651 O635 1.254 . S
C652 Eu588 2.848 . S
C652 O632 1.257 . S
C652 O637 1.249 . S
C652 C645 1.492 . S
C653 H618 0.931 . S
C653 C631 1.420 . S
C653 C654 1.351 . S
C654 H616 0.930 . S
C654 C622 1.423 . S
C654 C653 1.351 . S
C655 O639 1.276 . S
C655 O642 1.235 . S
C656 C657 1.393 . S
C656 C660 1.395 . S
C656 C663 1.492 . S
C657 C656 1.393 . S
C657 C658 1.392 . S
C657 H668 0.930 . S
C658 C657 1.392 . S
C658 C659 1.386 . S
C659 C658 1.386 . S
C659 C661 1.395 . S
C659 H669 0.930 . S
C660 C656 1.395 . S
C660 C661 1.379 . S
C660 H670 0.930 . S
C661 C659 1.395 . S
C661 C660 1.379 . S
C661 H671 0.930 . S
C662 O640 1.264 . S
C662 O641 1.254 . S
C663 Eu599 2.848 . S
C663 O638 1.257 . S
C663 O643 1.249 . S
C663 C656 1.492 . S
H664 C647 0.930 . S
H665 C648 0.930 . S
H666 C649 0.930 . S
H667 C650 0.930 . S
H668 C657 0.930 . S
H669 C659 0.930 . S
H670 C660 0.930 . S
H671 C661 0.930 . S
Co672 O675 2.042 . S
Co672 O682 2.264 . S
Co672 O701 2.286 . S
Co672 O702 2.069 . S
Co672 O704 2.015 1_455 S
Co673 O675 2.122 . S
Co673 O681 2.073 . S
Co673 O682 2.327 . S
Co673 O683 1.976 1_455 S
Co674 O675 2.084 1_545 S
Co674 O677 2.090 1_455 S
Co674 O684 2.107 1_445 S
Co674 O685 2.149 . S
Co674 O689 2.115 . S
Co674 O703 2.138 1_445 S
O675 Co672 2.042 . S
O675 Co673 2.122 . S
O675 Co674 2.084 1_565 S
O675 H676 0.980 . S
H676 O675 0.980 . S
O677 Co674 2.090 1_655 S
O677 Co678 2.042 . S
O677 Co679 2.122 . S
O677 H680 0.980 . S
Co678 O677 2.042 . S
Co678 O686 2.286 . S
Co678 O687 2.069 . S
Co678 O688 2.015 1_655 S
Co678 O691 2.264 . S
Co679 O677 2.122 . S
Co679 O690 1.976 1_655 S
Co679 O691 2.327 . S
Co679 O692 2.073 . S
H680 O677 0.980 . S
O681 Co673 2.073 . S
O681 C696 1.245 . S
O682 Co672 2.264 . S
O682 Co673 2.327 . S
O682 C696 1.257 . S
O683 Co673 1.976 1_655 S
O683 C695 1.251 . S
O684 Co674 2.107 1_665 S
O684 C695 1.274 . S
O685 Co674 2.149 . S
O685 C698 1.246 . S
O686 Co678 2.286 . S
O686 C697 1.259 . S
O687 Co678 2.069 . S
O687 C697 1.289 . S
O688 Co678 2.015 1_455 S
O688 C698 1.257 . S
O689 Co674 2.115 . S
O689 C699 1.274 . S
O690 Co679 1.976 1_455 S
O690 C699 1.251 . S
O691 Co678 2.264 . S
O691 Co679 2.327 . S
O691 C700 1.257 . S
O692 Co679 2.073 . S
O692 C700 1.245 . S
C693 O701 1.259 . S
C693 O702 1.289 . S
C694 O703 1.246 . S
C694 O704 1.257 . S
C695 O683 1.251 . S
C695 O684 1.274 . S
C696 O681 1.245 . S
C696 O682 1.257 . S
C697 O686 1.259 . S
C697 O687 1.289 . S
C698 O685 1.246 . S
C698 O688 1.257 . S
C699 O689 1.274 . S
C699 O690 1.251 . S
C700 O691 1.257 . S
C700 O692 1.245 . S
O701 Co672 2.286 . S
O701 C693 1.259 . S
O702 Co672 2.069 . S
O702 C693 1.289 . S
O703 Co674 2.138 1_665 S
O703 C694 1.246 . S
O704 Co672 2.015 1_655 S
O704 C694 1.257 . S
Co705 O708 2.042 1_556 S
Co705 O715 2.264 1_556 S
Co705 O734 2.286 . S
Co705 O735 2.069 . S
Co705 O737 2.015 . S
Co706 O708 2.122 . S
Co706 O714 2.073 . S
Co706 O715 2.327 . S
Co706 O716 1.976 . S
Co707 O708 2.081 1_545 S
Co707 O710 2.093 1_554 S
Co707 O717 2.110 1_545 S
Co707 O718 2.147 . S
Co707 O722 2.113 1_554 S
Co707 O736 2.140 1_544 S
O708 Co705 2.042 1_554 S
O708 Co706 2.122 . S
O708 Co707 2.081 1_565 S
O708 H709 0.980 . S
H709 O708 0.980 . S
O710 Co707 2.093 1_556 S
O710 Co711 2.042 1_556 S
O710 Co712 2.122 . S
O710 H713 0.980 . S
Co711 O710 2.042 1_554 S
Co711 O719 2.286 . S
Co711 O720 2.069 . S
Co711 O721 2.015 . S
Co711 O724 2.264 1_554 S
Co712 O710 2.122 . S
Co712 O723 1.976 . S
Co712 O724 2.327 . S
Co712 O725 2.073 . S
H713 O710 0.980 . S
O714 Co706 2.073 . S
O714 C729 1.245 . S
O715 Co705 2.264 1_554 S
O715 Co706 2.327 . S
O715 C729 1.257 . S
O716 Co706 1.976 . S
O716 C728 1.251 . S
O717 Co707 2.110 1_565 S
O717 C728 1.274 . S
O718 Co707 2.147 . S
O718 C731 1.246 . S
O719 Co711 2.286 . S
O719 C730 1.259 . S
O720 Co711 2.069 . S
O720 C730 1.289 . S
O721 Co711 2.015 . S
O721 C731 1.257 . S
O722 Co707 2.113 1_556 S
O722 C732 1.274 . S
O723 Co712 1.976 . S
O723 C732 1.251 . S
O724 Co711 2.264 1_556 S
O724 Co712 2.327 . S
O724 C733 1.257 . S
O725 Co712 2.073 . S
O725 C733 1.245 . S
C726 O734 1.259 . S
C726 O735 1.289 . S
C727 O736 1.246 . S
C727 O737 1.257 . S
C728 O716 1.251 . S
C728 O717 1.274 . S
C729 O714 1.245 . S
C729 O715 1.257 . S
C730 O719 1.259 . S
C730 O720 1.289 . S
C731 O718 1.246 . S
C731 O721 1.257 . S
C732 O722 1.274 . S
C732 O723 1.251 . S
C733 O724 1.257 . S
C733 O725 1.245 . S
O734 Co705 2.286 . S
O734 C726 1.259 . S
O735 Co705 2.069 . S
O735 C726 1.289 . S
O736 Co707 2.140 1_566 S
O736 C727 1.246 . S
O737 Co705 2.015 . S
O737 C727 1.257 . S
Co738 O741 2.042 1_556 S
Co738 O748 2.264 1_556 S
Co738 O767 2.286 . S
Co738 O768 2.069 . S
Co738 O770 2.015 1_455 S
Co739 O741 2.122 . S
Co739 O747 2.073 . S
Co739 O748 2.327 . S
Co739 O749 1.976 1_455 S
Co740 O741 2.091 . S
Co740 O743 2.083 1_454 S
Co740 O750 2.109 1_455 S
Co740 O751 2.145 . S
Co740 O755 2.114 1_554 S
Co740 O769 2.142 1_454 S
O741 Co738 2.042 1_554 S
O741 Co739 2.122 . S
O741 Co740 2.091 . S
O741 H742 0.980 . S
H742 O741 0.980 . S
O743 Co740 2.083 1_656 S
O743 Co744 2.042 1_556 S
O743 Co745 2.122 . S
O743 H746 0.980 . S
Co744 O743 2.042 1_554 S
Co744 O752 2.286 . S
Co744 O753 2.069 . S
Co744 O754 2.015 1_655 S
Co744 O757 2.264 1_554 S
Co745 O743 2.122 . S
Co745 O756 1.976 1_655 S
Co745 O757 2.327 . S
Co745 O758 2.073 . S
H746 O743 0.980 . S
O747 Co739 2.073 . S
O747 C762 1.245 . S
O748 Co738 2.264 1_554 S
O748 Co739 2.327 . S
O748 C762 1.257 . S
O749 Co739 1.976 1_655 S
O749 C761 1.251 . S
O750 Co740 2.109 1_655 S
O750 C761 1.274 . S
O751 Co740 2.145 . S
O751 C764 1.246 . S
O752 Co744 2.286 . S
O752 C763 1.259 . S
O753 Co744 2.069 . S
O753 C763 1.289 . S
O754 Co744 2.015 1_455 S
O754 C764 1.257 . S
O755 Co740 2.114 1_556 S
O755 C765 1.274 . S
O756 Co745 1.976 1_455 S
O756 C765 1.251 . S
O757 Co744 2.264 1_556 S
O757 Co745 2.327 . S
O757 C766 1.257 . S
O758 Co745 2.073 . S
O758 C766 1.245 . S
C759 O767 1.259 . S
C759 O768 1.289 . S
C760 O769 1.246 . S
C760 O770 1.257 . S
C761 O749 1.251 . S
C761 O750 1.274 . S
C762 O747 1.245 . S
C762 O748 1.257 . S
C763 O752 1.259 . S
C763 O753 1.289 . S
C764 O751 1.246 . S
C764 O754 1.257 . S
C765 O755 1.274 . S
C765 O756 1.251 . S
C766 O757 1.257 . S
C766 O758 1.245 . S
O767 Co738 2.286 . S
O767 C759 1.259 . S
O768 Co738 2.069 . S
O768 C759 1.289 . S
O769 Co740 2.142 1_656 S
O769 C760 1.246 . S
O770 Co738 2.015 1_655 S
O770 C760 1.257 . S
Co771 O774 2.042 1_556 S
Co771 O781 2.264 1_556 S
Co771 O800 2.286 . S
Co771 O801 2.069 . S
Co771 O803 2.015 . S
Co772 O774 2.122 . S
Co772 O780 2.073 . S
Co772 O781 2.327 . S
Co772 O782 1.976 . S
Co773 O774 2.087 . S
Co773 O776 2.087 1_554 S
Co773 O783 2.111 . S
Co773 O784 2.144 . S
Co773 O788 2.111 1_554 S
Co773 O802 2.143 1_554 S
O774 Co771 2.042 1_554 S
O774 Co772 2.122 . S
O774 Co773 2.087 . S
O774 H775 0.980 . S
H775 O774 0.980 . S
O776 Co773 2.087 1_556 S
O776 Co777 2.042 1_556 S
O776 Co778 2.122 . S
O776 H779 0.980 . S
Co777 O776 2.042 1_554 S
Co777 O785 2.286 . S
Co777 O786 2.069 . S
Co777 O787 2.015 . S
Co777 O790 2.264 1_554 S
Co778 O776 2.122 . S
Co778 O789 1.976 . S
Co778 O790 2.327 . S
Co778 O791 2.073 . S
H779 O776 0.980 . S
O780 Co772 2.073 . S
O780 C795 1.245 . S
O781 Co771 2.264 1_554 S
O781 Co772 2.327 . S
O781 C795 1.257 . S
O782 Co772 1.976 . S
O782 C794 1.251 . S
O783 Co773 2.111 . S
O783 C794 1.274 . S
O784 Co773 2.144 . S
O784 C797 1.246 . S
O785 Co777 2.286 . S
O785 C796 1.259 . S
O786 Co777 2.069 . S
O786 C796 1.289 . S
O787 Co777 2.015 . S
O787 C797 1.257 . S
O788 Co773 2.111 1_556 S
O788 C798 1.274 . S
O789 Co778 1.976 . S
O789 C798 1.251 . S
O790 Co777 2.264 1_556 S
O790 Co778 2.327 . S
O790 C799 1.257 . S
O791 Co778 2.073 . S
O791 C799 1.245 . S
C792 O800 1.259 . S
C792 O801 1.289 . S
C793 O802 1.246 . S
C793 O803 1.257 . S
C794 O782 1.251 . S
C794 O783 1.274 . S
C795 O780 1.245 . S
C795 O781 1.257 . S
C796 O785 1.259 . S
C796 O786 1.289 . S
C797 O784 1.246 . S
C797 O787 1.257 . S
C798 O788 1.274 . S
C798 O789 1.251 . S
C799 O790 1.257 . S
C799 O791 1.245 . S
O800 Co771 2.286 . S
O800 C792 1.259 . S
O801 Co771 2.069 . S
O801 C792 1.289 . S
O802 Co773 2.143 1_556 S
O802 C793 1.246 . S
O803 Co771 2.015 . S
O803 C793 1.257 . S
Co804 O807 2.042 . S
Co804 O814 2.264 . S
Co804 O833 2.286 . S
Co804 O834 2.069 . S
Co804 O836 2.015 . S
Co805 O807 2.122 . S
Co805 O813 2.073 . S
Co805 O814 2.327 . S
Co805 O815 1.976 . S
Co806 O807 2.091 . S
Co806 O809 2.083 1_455 S
Co806 O816 2.112 . S
Co806 O817 2.142 1_455 S
Co806 O821 2.110 1_455 S
Co806 O835 2.145 . S
O807 Co804 2.042 . S
O807 Co805 2.122 . S
O807 Co806 2.091 . S
O807 H808 0.980 . S
H808 O807 0.980 . S
O809 Co806 2.083 1_655 S
O809 Co810 2.042 . S
O809 Co811 2.122 . S
O809 H812 0.980 . S
Co810 O809 2.042 . S
Co810 O818 2.286 . S
Co810 O819 2.069 . S
Co810 O820 2.015 . S
Co810 O823 2.264 . S
Co811 O809 2.122 . S
Co811 O822 1.976 . S
Co811 O823 2.327 . S
Co811 O824 2.073 . S
H812 O809 0.980 . S
O813 Co805 2.073 . S
O813 C828 1.245 . S
O814 Co804 2.264 . S
O814 Co805 2.327 . S
O814 C828 1.257 . S
O815 Co805 1.976 . S
O815 C827 1.251 . S
O816 Co806 2.112 . S
O816 C827 1.274 . S
O817 Co806 2.142 1_655 S
O817 C830 1.246 . S
O818 Co810 2.286 . S
O818 C829 1.259 . S
O819 Co810 2.069 . S
O819 C829 1.289 . S
O820 Co810 2.015 . S
O820 C830 1.257 . S
O821 Co806 2.110 1_655 S
O821 C831 1.274 . S
O822 Co811 1.976 . S
O822 C831 1.251 . S
O823 Co810 2.264 . S
O823 Co811 2.327 . S
O823 C832 1.257 . S
O824 Co811 2.073 . S
O824 C832 1.245 . S
C825 O833 1.259 . S
C825 O834 1.289 . S
C826 O835 1.246 . S
C826 O836 1.257 . S
C827 O815 1.251 . S
C827 O816 1.274 . S
C828 O813 1.245 . S
C828 O814 1.257 . S
C829 O818 1.259 . S
C829 O819 1.289 . S
C830 O817 1.246 . S
C830 O820 1.257 . S
C831 O821 1.274 . S
C831 O822 1.251 . S
C832 O823 1.257 . S
C832 O824 1.245 . S
O833 Co804 2.286 . S
O833 C825 1.259 . S
O834 Co804 2.069 . S
O834 C825 1.289 . S
O835 Co806 2.145 . S
O835 C826 1.246 . S
O836 Co804 2.015 . S
O836 C826 1.257 . S
Co837 O840 2.042 . S
Co837 O847 2.264 . S
Co837 O866 2.286 . S
Co837 O867 2.069 . S
Co837 O869 2.015 1_565 S
Co838 O840 2.122 . S
Co838 O846 2.073 . S
Co838 O847 2.327 . S
Co838 O848 1.976 1_565 S
Co839 O840 2.081 1_545 S
Co839 O842 2.093 . S
Co839 O849 2.115 . S
Co839 O850 2.141 1_545 S
Co839 O854 2.108 1_545 S
Co839 O868 2.146 . S
O840 Co837 2.042 . S
O840 Co838 2.122 . S
O840 Co839 2.081 1_565 S
O840 H841 0.980 . S
H841 O840 0.980 . S
O842 Co839 2.093 . S
O842 Co843 2.042 . S
O842 Co844 2.122 . S
O842 H845 0.980 . S
Co843 O842 2.042 . S
Co843 O851 2.286 . S
Co843 O852 2.069 . S
Co843 O853 2.015 1_545 S
Co843 O856 2.264 . S
Co844 O842 2.122 . S
Co844 O855 1.976 1_545 S
Co844 O856 2.327 . S
Co844 O857 2.073 . S
H845 O842 0.980 . S
O846 Co838 2.073 . S
O846 C861 1.245 . S
O847 Co837 2.264 . S
O847 Co838 2.327 . S
O847 C861 1.257 . S
O848 Co838 1.976 1_545 S
O848 C860 1.251 . S
O849 Co839 2.115 . S
O849 C860 1.274 . S
O850 Co839 2.141 1_565 S
O850 C863 1.246 . S
O851 Co843 2.286 . S
O851 C862 1.259 . S
O852 Co843 2.069 . S
O852 C862 1.289 . S
O853 Co843 2.015 1_565 S
O853 C863 1.257 . S
O854 Co839 2.108 1_565 S
O854 C864 1.274 . S
O855 Co844 1.976 1_565 S
O855 C864 1.251 . S
O856 Co843 2.264 . S
O856 Co844 2.327 . S
O856 C865 1.257 . S
O857 Co844 2.073 . S
O857 C865 1.245 . S
C858 O866 1.259 . S
C858 O867 1.289 . S
C859 O868 1.246 . S
C859 O869 1.257 . S
C860 O848 1.251 . S
C860 O849 1.274 . S
C861 O846 1.245 . S
C861 O847 1.257 . S
C862 O851 1.259 . S
C862 O852 1.289 . S
C863 O850 1.246 . S
C863 O853 1.257 . S
C864 O854 1.274 . S
C864 O855 1.251 . S
C865 O856 1.257 . S
C865 O857 1.245 . S
O866 Co837 2.286 . S
O866 C858 1.259 . S
O867 Co837 2.069 . S
O867 C858 1.289 . S
O868 Co839 2.146 . S
O868 C859 1.246 . S
O869 Co837 2.015 1_545 S
O869 C859 1.257 . S
H870 C876 0.930 . S
H871 C880 0.930 . S
H872 C885 0.929 . S
H873 C883 0.929 . S
H874 C878 0.929 . S
H875 C884 0.929 . S
C876 H870 0.930 . S
C876 C877 1.367 . S
C876 C884 1.378 . S
C877 C876 1.367 . S
C877 C885 1.433 . S
C878 H874 0.929 . S
C878 C880 1.378 . S
C878 C882 1.350 . S
C879 C882 1.463 . S
C879 C884 1.350 . S
C879 N887 1.427 . S
C880 H871 0.930 . S
C880 C878 1.378 . S
C880 C881 1.367 . S
C881 C880 1.367 . S
C881 C883 1.433 . S
C882 C878 1.350 . S
C882 C879 1.463 . S
C882 N886 1.427 . S
C883 H873 0.929 . S
C883 C881 1.433 . S
C883 N886 1.384 . S
C884 H875 0.929 . S
C884 C876 1.378 . S
C884 C879 1.350 . S
C885 H872 0.929 . S
C885 C877 1.433 . S
C885 N887 1.384 . S
N886 C882 1.427 . S
N886 C883 1.384 . S
N887 C879 1.427 . S
N887 C885 1.384 . S
H888 C894 0.930 . S
H889 C898 0.930 . S
H890 C903 0.929 . S
H891 C901 0.929 . S
H892 C896 0.929 . S
H893 C902 0.929 . S
C894 H888 0.930 . S
C894 C895 1.367 . S
C894 C902 1.378 . S
C895 C894 1.367 . S
C895 C903 1.433 . S
C896 H892 0.929 . S
C896 C898 1.378 . S
C896 C900 1.350 . S
C897 C900 1.463 . S
C897 C902 1.350 . S
C897 N905 1.427 . S
C898 H889 0.930 . S
C898 C896 1.378 . S
C898 C899 1.367 . S
C899 C898 1.367 . S
C899 C901 1.433 . S
C900 C896 1.350 . S
C900 C897 1.463 . S
C900 N904 1.427 . S
C901 H891 0.929 . S
C901 C899 1.433 . S
C901 N904 1.384 . S
C902 H893 0.929 . S
C902 C894 1.378 . S
C902 C897 1.350 . S
C903 H890 0.929 . S
C903 C895 1.433 . S
C903 N905 1.384 . S
N904 C900 1.427 . S
N904 C901 1.384 . S
N905 C897 1.427 . S
N905 C903 1.384 . S
H906 C912 0.930 . S
H907 C916 0.930 . S
H908 C921 0.929 . S
H909 C919 0.929 . S
H910 C914 0.929 . S
H911 C920 0.929 . S
C912 H906 0.930 . S
C912 C913 1.367 . S
C912 C920 1.378 . S
C913 C912 1.367 . S
C913 C921 1.433 . S
C914 H910 0.929 . S
C914 C916 1.378 . S
C914 C918 1.350 . S
C915 C918 1.463 . S
C915 C920 1.350 . S
C915 N923 1.427 . S
C916 H907 0.930 . S
C916 C914 1.378 . S
C916 C917 1.367 . S
C917 C916 1.367 . S
C917 C919 1.433 . S
C918 C914 1.350 . S
C918 C915 1.463 . S
C918 N922 1.427 . S
C919 H909 0.929 . S
C919 C917 1.433 . S
C919 N922 1.384 . S
C920 H911 0.929 . S
C920 C912 1.378 . S
C920 C915 1.350 . S
C921 H908 0.929 . S
C921 C913 1.433 . S
C921 N923 1.384 . S
N922 C918 1.427 . S
N922 C919 1.384 . S
N923 C915 1.427 . S
N923 C921 1.384 . S
H924 C930 0.930 . S
H925 C934 0.930 . S
H926 C939 0.929 . S
H927 C937 0.929 . S
H928 C932 0.929 . S
H929 C938 0.929 . S
C930 H924 0.930 . S
C930 C931 1.367 . S
C930 C938 1.378 . S
C931 C930 1.367 . S
C931 C939 1.433 . S
C932 H928 0.929 . S
C932 C934 1.378 . S
C932 C936 1.350 . S
C933 C936 1.463 . S
C933 C938 1.350 . S
C933 N941 1.427 . S
C934 H925 0.930 . S
C934 C932 1.378 . S
C934 C935 1.367 . S
C935 C934 1.367 . S
C935 C937 1.433 . S
C936 C932 1.350 . S
C936 C933 1.463 . S
C936 N940 1.427 . S
C937 H927 0.929 . S
C937 C935 1.433 . S
C937 N940 1.384 . S
C938 H929 0.929 . S
C938 C930 1.378 . S
C938 C933 1.350 . S
C939 H926 0.929 . S
C939 C931 1.433 . S
C939 N941 1.384 . S
N940 C936 1.427 . S
N940 C937 1.384 . S
N941 C933 1.427 . S
N941 C939 1.384 . S
H942 C948 0.930 . S
H943 C952 0.930 . S
H944 C957 0.929 . S
H945 C955 0.929 . S
H946 C950 0.929 . S
H947 C956 0.929 . S
C948 H942 0.930 . S
C948 C949 1.367 . S
C948 C956 1.378 . S
C949 C948 1.367 . S
C949 C957 1.433 . S
C950 H946 0.929 . S
C950 C952 1.378 . S
C950 C954 1.350 . S
C951 C954 1.463 . S
C951 C956 1.350 . S
C951 N959 1.427 . S
C952 H943 0.930 . S
C952 C950 1.378 . S
C952 C953 1.367 . S
C953 C952 1.367 . S
C953 C955 1.433 . S
C954 C950 1.350 . S
C954 C951 1.463 . S
C954 N958 1.427 . S
C955 H945 0.929 . S
C955 C953 1.433 . S
C955 N958 1.384 . S
C956 H947 0.929 . S
C956 C948 1.378 . S
C956 C951 1.350 . S
C957 H944 0.929 . S
C957 C949 1.433 . S
C957 N959 1.384 . S
N958 C954 1.427 . S
N958 C955 1.384 . S
N959 C951 1.427 . S
N959 C957 1.384 . S
H960 C966 0.930 . S
H961 C970 0.930 . S
H962 C975 0.929 . S
H963 C973 0.929 . S
H964 C968 0.929 . S
H965 C974 0.929 . S
C966 H960 0.930 . S
C966 C967 1.367 . S
C966 C974 1.378 . S
C967 C966 1.367 . S
C967 C975 1.433 . S
C968 H964 0.929 . S
C968 C970 1.378 . S
C968 C972 1.350 . S
C969 C972 1.463 . S
C969 C974 1.350 . S
C969 N977 1.427 . S
C970 H961 0.930 . S
C970 C968 1.378 . S
C970 C971 1.367 . S
C971 C970 1.367 . S
C971 C973 1.433 . S
C972 C968 1.350 . S
C972 C969 1.463 . S
C972 N976 1.427 . S
C973 H963 0.929 . S
C973 C971 1.433 . S
C973 N976 1.384 . S
C974 H965 0.929 . S
C974 C966 1.378 . S
C974 C969 1.350 . S
C975 H962 0.929 . S
C975 C967 1.433 . S
C975 N977 1.384 . S
N976 C972 1.427 . S
N976 C973 1.384 . S
N977 C969 1.427 . S
N977 C975 1.384 . S
H978 C984 0.930 . S
H979 C988 0.930 . S
H980 C993 0.929 . S
H981 C991 0.929 . S
H982 C986 0.929 . S
H983 C992 0.929 . S
C984 H978 0.930 . S
C984 C985 1.367 . S
C984 C992 1.378 . S
C985 C984 1.367 . S
C985 C993 1.433 . S
C986 H982 0.929 . S
C986 C988 1.378 . S
C986 C990 1.350 . S
C987 C990 1.463 . S
C987 C992 1.350 . S
C987 N995 1.427 . S
C988 H979 0.930 . S
C988 C986 1.378 . S
C988 C989 1.367 . S
C989 C988 1.367 . S
C989 C991 1.433 . S
C990 C986 1.350 . S
C990 C987 1.463 . S
C990 N994 1.427 . S
C991 H981 0.929 . S
C991 C989 1.433 . S
C991 N994 1.384 . S
C992 H983 0.929 . S
C992 C984 1.378 . S
C992 C987 1.350 . S
C993 H980 0.929 . S
C993 C985 1.433 . S
C993 N995 1.384 . S
N994 C990 1.427 . S
N994 C991 1.384 . S
N995 C987 1.427 . S
N995 C993 1.384 . S
H996 C1002 0.930 . S
H997 C1006 0.930 . S
H998 C1011 0.929 . S
H999 C1009 0.929 . S
H1000 C1004 0.929 . S
H1001 C1010 0.929 . S
C1002 H996 0.930 . S
C1002 C1003 1.367 . S
C1002 C1010 1.378 . S
C1003 C1002 1.367 . S
C1003 C1011 1.433 . S
C1004 H1000 0.929 . S
C1004 C1006 1.378 . S
C1004 C1008 1.350 . S
C1005 C1008 1.463 . S
C1005 C1010 1.350 . S
C1005 N1013 1.427 . S
C1006 H997 0.930 . S
C1006 C1004 1.378 . S
C1006 C1007 1.367 . S
C1007 C1006 1.367 . S
C1007 C1009 1.433 . S
C1008 C1004 1.350 . S
C1008 C1005 1.463 . S
C1008 N1012 1.427 . S
C1009 H999 0.929 . S
C1009 C1007 1.433 . S
C1009 N1012 1.384 . S
C1010 H1001 0.929 . S
C1010 C1002 1.378 . S
C1010 C1005 1.350 . S
C1011 H998 0.929 . S
C1011 C1003 1.433 . S
C1011 N1013 1.384 . S
N1012 C1008 1.427 . S
N1012 C1009 1.384 . S
N1013 C1005 1.427 . S
N1013 C1011 1.384 . S
H1014 C1020 0.930 . S
H1015 C1024 0.930 . S
H1016 C1029 0.929 . S
H1017 C1027 0.929 . S
H1018 C1022 0.929 . S
H1019 C1028 0.929 . S
C1020 H1014 0.930 . S
C1020 C1021 1.367 . S
C1020 C1028 1.378 . S
C1021 C1020 1.367 . S
C1021 C1029 1.433 . S
C1022 H1018 0.929 . S
C1022 C1024 1.378 . S
C1022 C1026 1.350 . S
C1023 C1026 1.463 . S
C1023 C1028 1.350 . S
C1023 N1031 1.427 . S
C1024 H1015 0.930 . S
C1024 C1022 1.378 . S
C1024 C1025 1.367 . S
C1025 C1024 1.367 . S
C1025 C1027 1.433 . S
C1026 C1022 1.350 . S
C1026 C1023 1.463 . S
C1026 N1030 1.427 . S
C1027 H1017 0.929 . S
C1027 C1025 1.433 . S
C1027 N1030 1.384 . S
C1028 H1019 0.929 . S
C1028 C1020 1.378 . S
C1028 C1023 1.350 . S
C1029 H1016 0.929 . S
C1029 C1021 1.433 . S
C1029 N1031 1.384 . S
N1030 C1026 1.427 . S
N1030 C1027 1.384 . S
N1031 C1023 1.427 . S
N1031 C1029 1.384 . S
H1032 C1038 0.930 . S
H1033 C1042 0.930 . S
H1034 C1047 0.929 . S
H1035 C1045 0.929 . S
H1036 C1040 0.929 . S
H1037 C1046 0.929 . S
C1038 H1032 0.930 . S
C1038 C1039 1.367 . S
C1038 C1046 1.378 . S
C1039 C1038 1.367 . S
C1039 C1047 1.433 . S
C1040 H1036 0.929 . S
C1040 C1042 1.378 . S
C1040 C1044 1.350 . S
C1041 C1044 1.463 . S
C1041 C1046 1.350 . S
C1041 N1049 1.427 . S
C1042 H1033 0.930 . S
C1042 C1040 1.378 . S
C1042 C1043 1.367 . S
C1043 C1042 1.367 . S
C1043 C1045 1.433 . S
C1044 C1040 1.350 . S
C1044 C1041 1.463 . S
C1044 N1048 1.427 . S
C1045 H1035 0.929 . S
C1045 C1043 1.433 . S
C1045 N1048 1.384 . S
C1046 H1037 0.929 . S
C1046 C1038 1.378 . S
C1046 C1041 1.350 . S
C1047 H1034 0.929 . S
C1047 C1039 1.433 . S
C1047 N1049 1.384 . S
N1048 C1044 1.427 . S
N1048 C1045 1.384 . S
N1049 C1041 1.427 . S
N1049 C1047 1.384 . S
H1050 C1056 0.930 . S
H1051 C1060 0.930 . S
H1052 C1065 0.929 . S
H1053 C1063 0.929 . S
H1054 C1058 0.929 . S
H1055 C1064 0.929 . S
C1056 H1050 0.930 . S
C1056 C1057 1.367 . S
C1056 C1064 1.378 . S
C1057 C1056 1.367 . S
C1057 C1065 1.433 . S
C1058 H1054 0.929 . S
C1058 C1060 1.378 . S
C1058 C1062 1.350 . S
C1059 C1062 1.463 . S
C1059 C1064 1.350 . S
C1059 N1067 1.427 . S
C1060 H1051 0.930 . S
C1060 C1058 1.378 . S
C1060 C1061 1.367 . S
C1061 C1060 1.367 . S
C1061 C1063 1.433 . S
C1062 C1058 1.350 . S
C1062 C1059 1.463 . S
C1062 N1066 1.427 . S
C1063 H1053 0.929 . S
C1063 C1061 1.433 . S
C1063 N1066 1.384 . S
C1064 H1055 0.929 . S
C1064 C1056 1.378 . S
C1064 C1059 1.350 . S
C1065 H1052 0.929 . S
C1065 C1057 1.433 . S
C1065 N1067 1.384 . S
N1066 C1062 1.427 . S
N1066 C1063 1.384 . S
N1067 C1059 1.427 . S
N1067 C1065 1.384 . S
H1068 C1074 0.930 . S
H1069 C1078 0.930 . S
H1070 C1083 0.929 . S
H1071 C1081 0.929 . S
H1072 C1076 0.929 . S
H1073 C1082 0.929 . S
C1074 H1068 0.930 . S
C1074 C1075 1.367 . S
C1074 C1082 1.378 . S
C1075 C1074 1.367 . S
C1075 C1083 1.433 . S
C1076 H1072 0.929 . S
C1076 C1078 1.378 . S
C1076 C1080 1.350 . S
C1077 C1080 1.463 . S
C1077 C1082 1.350 . S
C1077 N1085 1.427 . S
C1078 H1069 0.930 . S
C1078 C1076 1.378 . S
C1078 C1079 1.367 . S
C1079 C1078 1.367 . S
C1079 C1081 1.433 . S
C1080 C1076 1.350 . S
C1080 C1077 1.463 . S
C1080 N1084 1.427 . S
C1081 H1071 0.929 . S
C1081 C1079 1.433 . S
C1081 N1084 1.384 . S
C1082 H1073 0.929 . S
C1082 C1074 1.378 . S
C1082 C1077 1.350 . S
C1083 H1070 0.929 . S
C1083 C1075 1.433 . S
C1083 N1085 1.384 . S
N1084 C1080 1.427 . S
N1084 C1081 1.384 . S
N1085 C1077 1.427 . S
N1085 C1083 1.384 . S
H1086 C1092 0.930 . S
H1087 C1096 0.930 . S
H1088 C1101 0.929 . S
H1089 C1099 0.929 . S
H1090 C1094 0.929 . S
H1091 C1100 0.929 . S
C1092 H1086 0.930 . S
C1092 C1093 1.367 . S
C1092 C1100 1.378 . S
C1093 C1092 1.367 . S
C1093 C1101 1.433 . S
C1094 H1090 0.929 . S
C1094 C1096 1.378 . S
C1094 C1098 1.350 . S
C1095 C1098 1.463 . S
C1095 C1100 1.350 . S
C1095 N1103 1.427 . S
C1096 H1087 0.930 . S
C1096 C1094 1.378 . S
C1096 C1097 1.367 . S
C1097 C1096 1.367 . S
C1097 C1099 1.433 . S
C1098 C1094 1.350 . S
C1098 C1095 1.463 . S
C1098 N1102 1.427 . S
C1099 H1089 0.929 . S
C1099 C1097 1.433 . S
C1099 N1102 1.384 . S
C1100 H1091 0.929 . S
C1100 C1092 1.378 . S
C1100 C1095 1.350 . S
C1101 H1088 0.929 . S
C1101 C1093 1.433 . S
C1101 N1103 1.384 . S
N1102 C1098 1.427 . S
N1102 C1099 1.384 . S
N1103 C1095 1.427 . S
N1103 C1101 1.384 . S
H1104 C1110 0.930 . S
H1105 C1114 0.930 . S
H1106 C1119 0.929 . S
H1107 C1117 0.929 . S
H1108 C1112 0.929 . S
H1109 C1118 0.929 . S
C1110 H1104 0.930 . S
C1110 C1111 1.367 . S
C1110 C1118 1.378 . S
C1111 C1110 1.367 . S
C1111 C1119 1.433 . S
C1112 H1108 0.929 . S
C1112 C1114 1.378 . S
C1112 C1116 1.350 . S
C1113 C1116 1.463 . S
C1113 C1118 1.350 . S
C1113 N1121 1.427 . S
C1114 H1105 0.930 . S
C1114 C1112 1.378 . S
C1114 C1115 1.367 . S
C1115 C1114 1.367 . S
C1115 C1117 1.433 . S
C1116 C1112 1.350 . S
C1116 C1113 1.463 . S
C1116 N1120 1.427 . S
C1117 H1107 0.929 . S
C1117 C1115 1.433 . S
C1117 N1120 1.384 . S
C1118 H1109 0.929 . S
C1118 C1110 1.378 . S
C1118 C1113 1.350 . S
C1119 H1106 0.929 . S
C1119 C1111 1.433 . S
C1119 N1121 1.384 . S
N1120 C1116 1.427 . S
N1120 C1117 1.384 . S
N1121 C1113 1.427 . S
N1121 C1119 1.384 . S
H1122 C1128 0.930 . S
H1123 C1132 0.930 . S
H1124 C1137 0.929 . S
H1125 C1135 0.929 . S
H1126 C1130 0.929 . S
H1127 C1136 0.929 . S
C1128 H1122 0.930 . S
C1128 C1129 1.367 . S
C1128 C1136 1.378 . S
C1129 C1128 1.367 . S
C1129 C1137 1.433 . S
C1130 H1126 0.929 . S
C1130 C1132 1.378 . S
C1130 C1134 1.350 . S
C1131 C1134 1.463 . S
C1131 C1136 1.350 . S
C1131 N1139 1.427 . S
C1132 H1123 0.930 . S
C1132 C1130 1.378 . S
C1132 C1133 1.367 . S
C1133 C1132 1.367 . S
C1133 C1135 1.433 . S
C1134 C1130 1.350 . S
C1134 C1131 1.463 . S
C1134 N1138 1.427 . S
C1135 H1125 0.929 . S
C1135 C1133 1.433 . S
C1135 N1138 1.384 . S
C1136 H1127 0.929 . S
C1136 C1128 1.378 . S
C1136 C1131 1.350 . S
C1137 H1124 0.929 . S
C1137 C1129 1.433 . S
C1137 N1139 1.384 . S
N1138 C1134 1.427 . S
N1138 C1135 1.384 . S
N1139 C1131 1.427 . S
N1139 C1137 1.384 . S
H1140 C1146 0.930 . S
H1141 C1150 0.930 . S
H1142 C1155 0.929 . S
H1143 C1153 0.929 . S
H1144 C1148 0.929 . S
H1145 C1154 0.929 . S
C1146 H1140 0.930 . S
C1146 C1147 1.367 . S
C1146 C1154 1.378 . S
C1147 C1146 1.367 . S
C1147 C1155 1.433 . S
C1148 H1144 0.929 . S
C1148 C1150 1.378 . S
C1148 C1152 1.350 . S
C1149 C1152 1.463 . S
C1149 C1154 1.350 . S
C1149 N1157 1.427 . S
C1150 H1141 0.930 . S
C1150 C1148 1.378 . S
C1150 C1151 1.367 . S
C1151 C1150 1.367 . S
C1151 C1153 1.433 . S
C1152 C1148 1.350 . S
C1152 C1149 1.463 . S
C1152 N1156 1.427 . S
C1153 H1143 0.929 . S
C1153 C1151 1.433 . S
C1153 N1156 1.384 . S
C1154 H1145 0.929 . S
C1154 C1146 1.378 . S
C1154 C1149 1.350 . S
C1155 H1142 0.929 . S
C1155 C1147 1.433 . S
C1155 N1157 1.384 . S
N1156 C1152 1.427 . S
N1156 C1153 1.384 . S
N1157 C1149 1.427 . S
N1157 C1155 1.384 . S
H1158 C1164 0.930 . S
H1159 C1168 0.930 . S
H1160 C1173 0.929 . S
H1161 C1171 0.929 . S
H1162 C1166 0.929 . S
H1163 C1172 0.929 . S
C1164 H1158 0.930 . S
C1164 C1165 1.367 . S
C1164 C1172 1.378 . S
C1165 C1164 1.367 . S
C1165 C1173 1.433 . S
C1166 H1162 0.929 . S
C1166 C1168 1.378 . S
C1166 C1170 1.350 . S
C1167 C1170 1.463 . S
C1167 C1172 1.350 . S
C1167 N1175 1.427 . S
C1168 H1159 0.930 . S
C1168 C1166 1.378 . S
C1168 C1169 1.367 . S
C1169 C1168 1.367 . S
C1169 C1171 1.433 . S
C1170 C1166 1.350 . S
C1170 C1167 1.463 . S
C1170 N1174 1.427 . S
C1171 H1161 0.929 . S
C1171 C1169 1.433 . S
C1171 N1174 1.384 . S
C1172 H1163 0.929 . S
C1172 C1164 1.378 . S
C1172 C1167 1.350 . S
C1173 H1160 0.929 . S
C1173 C1165 1.433 . S
C1173 N1175 1.384 . S
N1174 C1170 1.427 . S
N1174 C1171 1.384 . S
N1175 C1167 1.427 . S
N1175 C1173 1.384 . S
H1176 C1182 0.930 . S
H1177 C1186 0.930 . S
H1178 C1191 0.929 . S
H1179 C1189 0.929 . S
H1180 C1184 0.929 . S
H1181 C1190 0.929 . S
C1182 H1176 0.930 . S
C1182 C1183 1.367 . S
C1182 C1190 1.378 . S
C1183 C1182 1.367 . S
C1183 C1191 1.433 . S
C1184 H1180 0.929 . S
C1184 C1186 1.378 . S
C1184 C1188 1.350 . S
C1185 C1188 1.463 . S
C1185 C1190 1.350 . S
C1185 N1193 1.427 . S
C1186 H1177 0.930 . S
C1186 C1184 1.378 . S
C1186 C1187 1.367 . S
C1187 C1186 1.367 . S
C1187 C1189 1.433 . S
C1188 C1184 1.350 . S
C1188 C1185 1.463 . S
C1188 N1192 1.427 . S
C1189 H1179 0.929 . S
C1189 C1187 1.433 . S
C1189 N1192 1.384 . S
C1190 H1181 0.929 . S
C1190 C1182 1.378 . S
C1190 C1185 1.350 . S
C1191 H1178 0.929 . S
C1191 C1183 1.433 . S
C1191 N1193 1.384 . S
N1192 C1188 1.427 . S
N1192 C1189 1.384 . S
N1193 C1185 1.427 . S
N1193 C1191 1.384 . S
H1194 C1200 0.930 . S
H1195 C1204 0.930 . S
H1196 C1209 0.929 . S
H1197 C1207 0.929 . S
H1198 C1202 0.929 . S
H1199 C1208 0.929 . S
C1200 H1194 0.930 . S
C1200 C1201 1.367 . S
C1200 C1208 1.378 . S
C1201 C1200 1.367 . S
C1201 C1209 1.433 . S
C1202 H1198 0.929 . S
C1202 C1204 1.378 . S
C1202 C1206 1.350 . S
C1203 C1206 1.463 . S
C1203 C1208 1.350 . S
C1203 N1211 1.427 . S
C1204 H1195 0.930 . S
C1204 C1202 1.378 . S
C1204 C1205 1.367 . S
C1205 C1204 1.367 . S
C1205 C1207 1.433 . S
C1206 C1202 1.350 . S
C1206 C1203 1.463 . S
C1206 N1210 1.427 . S
C1207 H1197 0.929 . S
C1207 C1205 1.433 . S
C1207 N1210 1.384 . S
C1208 H1199 0.929 . S
C1208 C1200 1.378 . S
C1208 C1203 1.350 . S
C1209 H1196 0.929 . S
C1209 C1201 1.433 . S
C1209 N1211 1.384 . S
N1210 C1206 1.427 . S
N1210 C1207 1.384 . S
N1211 C1203 1.427 . S
N1211 C1209 1.384 . S
H1212 C1218 0.930 . S
H1213 C1222 0.930 . S
H1214 C1227 0.929 . S
H1215 C1225 0.929 . S
H1216 C1220 0.929 . S
H1217 C1226 0.929 . S
C1218 H1212 0.930 . S
C1218 C1219 1.367 . S
C1218 C1226 1.378 . S
C1219 C1218 1.367 . S
C1219 C1227 1.433 . S
C1220 H1216 0.929 . S
C1220 C1222 1.378 . S
C1220 C1224 1.350 . S
C1221 C1224 1.463 . S
C1221 C1226 1.350 . S
C1221 N1229 1.427 . S
C1222 H1213 0.930 . S
C1222 C1220 1.378 . S
C1222 C1223 1.367 . S
C1223 C1222 1.367 . S
C1223 C1225 1.433 . S
C1224 C1220 1.350 . S
C1224 C1221 1.463 . S
C1224 N1228 1.427 . S
C1225 H1215 0.929 . S
C1225 C1223 1.433 . S
C1225 N1228 1.384 . S
C1226 H1217 0.929 . S
C1226 C1218 1.378 . S
C1226 C1221 1.350 . S
C1227 H1214 0.929 . S
C1227 C1219 1.433 . S
C1227 N1229 1.384 . S
N1228 C1224 1.427 . S
N1228 C1225 1.384 . S
N1229 C1221 1.427 . S
N1229 C1227 1.384 . S
H1230 C1236 0.930 . S
H1231 C1240 0.913 1_554 S
H1232 C1245 0.929 . S
H1233 C1243 0.929 . S
H1234 C1238 0.929 . S
H1235 C1244 0.929 . S
C1236 H1230 0.930 . S
C1236 C1237 1.367 . S
C1236 C1244 1.378 . S
C1237 C1236 1.367 . S
C1237 C1245 1.433 . S
C1238 H1234 0.929 . S
C1238 C1240 1.378 . S
C1238 C1242 1.350 . S
C1239 C1242 1.463 . S
C1239 C1244 1.350 . S
C1239 N1247 1.427 . S
C1240 H1231 0.913 1_556 S
C1240 C1238 1.378 . S
C1240 C1241 1.367 . S
C1241 C1240 1.367 . S
C1241 C1243 1.433 . S
C1242 C1238 1.350 . S
C1242 C1239 1.463 . S
C1242 N1246 1.427 . S
C1243 H1233 0.929 . S
C1243 C1241 1.433 . S
C1243 N1246 1.384 . S
C1244 H1235 0.929 . S
C1244 C1236 1.378 . S
C1244 C1239 1.350 . S
C1245 H1232 0.929 . S
C1245 C1237 1.433 . S
C1245 N1247 1.384 . S
N1246 C1242 1.427 . S
N1246 C1243 1.384 . S
N1247 C1239 1.427 . S
N1247 C1245 1.384 . S
H1248 C1254 0.930 . S
H1249 C1258 0.930 . S
H1250 C1263 0.929 . S
H1251 C1261 0.929 . S
H1252 C1256 0.929 . S
H1253 C1262 0.929 . S
C1254 H1248 0.930 . S
C1254 C1255 1.367 . S
C1254 C1262 1.378 . S
C1255 C1254 1.367 . S
C1255 C1263 1.433 . S
C1256 H1252 0.929 . S
C1256 C1258 1.378 . S
C1256 C1260 1.350 . S
C1257 C1260 1.463 . S
C1257 C1262 1.350 . S
C1257 N1265 1.427 . S
C1258 H1249 0.930 . S
C1258 C1256 1.378 . S
C1258 C1259 1.367 . S
C1259 C1258 1.367 . S
C1259 C1261 1.433 . S
C1260 C1256 1.350 . S
C1260 C1257 1.463 . S
C1260 N1264 1.427 . S
C1261 H1251 0.929 . S
C1261 C1259 1.433 . S
C1261 N1264 1.384 . S
C1262 H1253 0.929 . S
C1262 C1254 1.378 . S
C1262 C1257 1.350 . S
C1263 H1250 0.929 . S
C1263 C1255 1.433 . S
C1263 N1265 1.384 . S
N1264 C1260 1.427 . S
N1264 C1261 1.384 . S
N1265 C1257 1.427 . S
N1265 C1263 1.384 . S
H1266 C1272 0.930 . S
H1267 C1276 0.930 . S
H1268 C1281 0.929 . S
H1269 C1279 0.929 . S
H1270 C1274 0.929 . S
H1271 C1280 0.929 . S
C1272 H1266 0.930 . S
C1272 C1273 1.367 . S
C1272 C1280 1.378 . S
C1273 C1272 1.367 . S
C1273 C1281 1.433 . S
C1274 H1270 0.929 . S
C1274 C1276 1.378 . S
C1274 C1278 1.350 . S
C1275 C1278 1.463 . S
C1275 C1280 1.350 . S
C1275 N1283 1.427 . S
C1276 H1267 0.930 . S
C1276 C1274 1.378 . S
C1276 C1277 1.367 . S
C1277 C1276 1.367 . S
C1277 C1279 1.433 . S
C1278 C1274 1.350 . S
C1278 C1275 1.463 . S
C1278 N1282 1.427 . S
C1279 H1269 0.929 . S
C1279 C1277 1.433 . S
C1279 N1282 1.384 . S
C1280 H1271 0.929 . S
C1280 C1272 1.378 . S
C1280 C1275 1.350 . S
C1281 H1268 0.929 . S
C1281 C1273 1.433 . S
C1281 N1283 1.384 . S
N1282 C1278 1.427 . S
N1282 C1279 1.384 . S
N1283 C1275 1.427 . S
N1283 C1281 1.384 . S
H1284 C1290 0.930 . S
H1285 C1294 0.930 . S
H1286 C1299 0.929 . S
H1287 C1297 0.929 . S
H1288 C1292 0.929 . S
H1289 C1298 0.929 . S
C1290 H1284 0.930 . S
C1290 C1291 1.367 . S
C1290 C1298 1.378 . S
C1291 C1290 1.367 . S
C1291 C1299 1.433 . S
C1292 H1288 0.929 . S
C1292 C1294 1.378 . S
C1292 C1296 1.350 . S
C1293 C1296 1.463 . S
C1293 C1298 1.350 . S
C1293 N1301 1.427 . S
C1294 H1285 0.930 . S
C1294 C1292 1.378 . S
C1294 C1295 1.367 . S
C1295 C1294 1.367 . S
C1295 C1297 1.433 . S
C1296 C1292 1.350 . S
C1296 C1293 1.463 . S
C1296 N1300 1.427 . S
C1297 H1287 0.929 . S
C1297 C1295 1.433 . S
C1297 N1300 1.384 . S
C1298 H1289 0.929 . S
C1298 C1290 1.378 . S
C1298 C1293 1.350 . S
C1299 H1286 0.929 . S
C1299 C1291 1.433 . S
C1299 N1301 1.384 . S
N1300 C1296 1.427 . S
N1300 C1297 1.384 . S
N1301 C1293 1.427 . S
N1301 C1299 1.384 . S
H1302 C1308 0.930 . S
H1303 C1312 0.930 . S
H1304 C1317 0.929 . S
H1305 C1315 0.929 . S
H1306 C1310 0.929 . S
H1307 C1316 0.929 . S
C1308 H1302 0.930 . S
C1308 C1309 1.367 . S
C1308 C1316 1.378 . S
C1309 C1308 1.367 . S
C1309 C1317 1.433 . S
C1310 H1306 0.929 . S
C1310 C1312 1.378 . S
C1310 C1314 1.350 . S
C1311 C1314 1.463 . S
C1311 C1316 1.350 . S
C1311 N1319 1.427 . S
C1312 H1303 0.930 . S
C1312 C1310 1.378 . S
C1312 C1313 1.367 . S
C1313 C1312 1.367 . S
C1313 C1315 1.433 . S
C1314 C1310 1.350 . S
C1314 C1311 1.463 . S
C1314 N1318 1.427 . S
C1315 H1305 0.929 . S
C1315 C1313 1.433 . S
C1315 N1318 1.384 . S
C1316 H1307 0.929 . S
C1316 C1308 1.378 . S
C1316 C1311 1.350 . S
C1317 H1304 0.929 . S
C1317 C1309 1.433 . S
C1317 N1319 1.384 . S
N1318 C1314 1.427 . S
N1318 C1315 1.384 . S
N1319 C1311 1.427 . S
N1319 C1317 1.384 . S
H1320 C1326 0.930 . S
H1321 C1330 0.930 . S
H1322 C1335 0.929 . S
H1323 C1333 0.929 . S
H1324 C1328 0.929 . S
H1325 C1334 0.929 . S
C1326 H1320 0.930 . S
C1326 C1327 1.367 . S
C1326 C1334 1.378 . S
C1327 C1326 1.367 . S
C1327 C1335 1.433 . S
C1328 H1324 0.929 . S
C1328 C1330 1.378 . S
C1328 C1332 1.350 . S
C1329 C1332 1.463 . S
C1329 C1334 1.350 . S
C1329 N1337 1.427 . S
C1330 H1321 0.930 . S
C1330 C1328 1.378 . S
C1330 C1331 1.367 . S
C1331 C1330 1.367 . S
C1331 C1333 1.433 . S
C1332 C1328 1.350 . S
C1332 C1329 1.463 . S
C1332 N1336 1.427 . S
C1333 H1323 0.929 . S
C1333 C1331 1.433 . S
C1333 N1336 1.384 . S
C1334 H1325 0.929 . S
C1334 C1326 1.378 . S
C1334 C1329 1.350 . S
C1335 H1322 0.929 . S
C1335 C1327 1.433 . S
C1335 N1337 1.384 . S
N1336 C1332 1.427 . S
N1336 C1333 1.384 . S
N1337 C1329 1.427 . S
N1337 C1335 1.384 . S
H1338 C1344 0.930 . S
H1339 C1348 0.930 . S
H1340 C1353 0.929 . S
H1341 C1351 0.929 . S
H1342 C1346 0.929 . S
H1343 C1352 0.929 . S
C1344 H1338 0.930 . S
C1344 C1345 1.367 . S
C1344 C1352 1.378 . S
C1345 C1344 1.367 . S
C1345 C1353 1.433 . S
C1346 H1342 0.929 . S
C1346 C1348 1.378 . S
C1346 C1350 1.350 . S
C1347 C1350 1.463 . S
C1347 C1352 1.350 . S
C1347 N1355 1.427 . S
C1348 H1339 0.930 . S
C1348 C1346 1.378 . S
C1348 C1349 1.367 . S
C1349 C1348 1.367 . S
C1349 C1351 1.433 . S
C1350 C1346 1.350 . S
C1350 C1347 1.463 . S
C1350 N1354 1.427 . S
C1351 H1341 0.929 . S
C1351 C1349 1.433 . S
C1351 N1354 1.384 . S
C1352 H1343 0.929 . S
C1352 C1344 1.378 . S
C1352 C1347 1.350 . S
C1353 H1340 0.929 . S
C1353 C1345 1.433 . S
C1353 N1355 1.384 . S
N1354 C1350 1.427 . S
N1354 C1351 1.384 . S
N1355 C1347 1.427 . S
N1355 C1353 1.384 . S
H1356 C1362 0.930 . S
H1357 C1366 0.930 1_554 S
H1358 C1371 0.929 . S
H1359 C1369 0.929 . S
H1360 C1364 0.929 . S
H1361 C1370 0.929 . S
C1362 H1356 0.930 . S
C1362 C1363 1.367 . S
C1362 C1370 1.378 . S
C1363 C1362 1.367 . S
C1363 C1371 1.433 . S
C1364 H1360 0.929 . S
C1364 C1366 1.378 . S
C1364 C1368 1.350 . S
C1365 C1368 1.463 . S
C1365 C1370 1.350 . S
C1365 N1373 1.427 . S
C1366 H1357 0.930 1_556 S
C1366 C1364 1.378 . S
C1366 C1367 1.367 . S
C1367 C1366 1.367 . S
C1367 C1369 1.433 . S
C1368 C1364 1.350 . S
C1368 C1365 1.463 . S
C1368 N1372 1.427 . S
C1369 H1359 0.929 . S
C1369 C1367 1.433 . S
C1369 N1372 1.384 . S
C1370 H1361 0.929 . S
C1370 C1362 1.378 . S
C1370 C1365 1.350 . S
C1371 H1358 0.929 . S
C1371 C1363 1.433 . S
C1371 N1373 1.384 . S
N1372 C1368 1.427 . S
N1372 C1369 1.384 . S
N1373 C1365 1.427 . S
N1373 C1371 1.384 . S
H1374 C1380 0.930 . S
H1375 C1384 0.930 . S
H1376 C1389 0.929 . S
H1377 C1387 0.929 . S
H1378 C1382 0.929 . S
H1379 C1388 0.929 . S
C1380 H1374 0.930 . S
C1380 C1381 1.367 . S
C1380 C1388 1.378 . S
C1381 C1380 1.367 . S
C1381 C1389 1.433 . S
C1382 H1378 0.929 . S
C1382 C1384 1.378 . S
C1382 C1386 1.350 . S
C1383 C1386 1.463 . S
C1383 C1388 1.350 . S
C1383 N1391 1.427 . S
C1384 H1375 0.930 . S
C1384 C1382 1.378 . S
C1384 C1385 1.367 . S
C1385 C1384 1.367 . S
C1385 C1387 1.433 . S
C1386 C1382 1.350 . S
C1386 C1383 1.463 . S
C1386 N1390 1.427 . S
C1387 H1377 0.929 . S
C1387 C1385 1.433 . S
C1387 N1390 1.384 . S
C1388 H1379 0.929 . S
C1388 C1380 1.378 . S
C1388 C1383 1.350 . S
C1389 H1376 0.929 . S
C1389 C1381 1.433 . S
C1389 N1391 1.384 . S
N1390 C1386 1.427 . S
N1390 C1387 1.384 . S
N1391 C1383 1.427 . S
N1391 C1389 1.384 . S
H1392 C1398 0.930 . S
H1393 C1402 0.930 . S
H1394 C1407 0.929 . S
H1395 C1405 0.929 . S
H1396 C1400 0.929 . S
H1397 C1406 0.929 . S
C1398 H1392 0.930 . S
C1398 C1399 1.367 . S
C1398 C1406 1.378 . S
C1399 C1398 1.367 . S
C1399 C1407 1.433 . S
C1400 H1396 0.929 . S
C1400 C1402 1.378 . S
C1400 C1404 1.350 . S
C1401 C1404 1.463 . S
C1401 C1406 1.350 . S
C1401 N1409 1.427 . S
C1402 H1393 0.930 . S
C1402 C1400 1.378 . S
C1402 C1403 1.367 . S
C1403 C1402 1.367 . S
C1403 C1405 1.433 . S
C1404 C1400 1.350 . S
C1404 C1401 1.463 . S
C1404 N1408 1.427 . S
C1405 H1395 0.929 . S
C1405 C1403 1.433 . S
C1405 N1408 1.384 . S
C1406 H1397 0.929 . S
C1406 C1398 1.378 . S
C1406 C1401 1.350 . S
C1407 H1394 0.929 . S
C1407 C1399 1.433 . S
C1407 N1409 1.384 . S
N1408 C1404 1.427 . S
N1408 C1405 1.384 . S
N1409 C1401 1.427 . S
N1409 C1407 1.384 . S
H1410 C1416 0.930 . S
H1411 C1420 0.930 . S
H1412 C1425 0.929 . S
H1413 C1423 0.929 . S
H1414 C1418 0.929 . S
H1415 C1424 0.929 . S
C1416 H1410 0.930 . S
C1416 C1417 1.367 . S
C1416 C1424 1.378 . S
C1417 C1416 1.367 . S
C1417 C1425 1.433 . S
C1418 H1414 0.929 . S
C1418 C1420 1.378 . S
C1418 C1422 1.350 . S
C1419 C1422 1.463 . S
C1419 C1424 1.350 . S
C1419 N1427 1.427 . S
C1420 H1411 0.930 . S
C1420 C1418 1.378 . S
C1420 C1421 1.367 . S
C1421 C1420 1.367 . S
C1421 C1423 1.433 . S
C1422 C1418 1.350 . S
C1422 C1419 1.463 . S
C1422 N1426 1.427 . S
C1423 H1413 0.929 . S
C1423 C1421 1.433 . S
C1423 N1426 1.384 . S
C1424 H1415 0.929 . S
C1424 C1416 1.378 . S
C1424 C1419 1.350 . S
C1425 H1412 0.929 . S
C1425 C1417 1.433 . S
C1425 N1427 1.384 . S
N1426 C1422 1.427 . S
N1426 C1423 1.384 . S
N1427 C1419 1.427 . S
N1427 C1425 1.384 . S
H1428 C1434 0.930 . S
H1429 C1438 0.930 . S
H1430 C1443 0.929 . S
H1431 C1441 0.929 . S
H1432 C1436 0.929 . S
H1433 C1442 0.929 . S
C1434 H1428 0.930 . S
C1434 C1435 1.367 . S
C1434 C1442 1.378 . S
C1435 C1434 1.367 . S
C1435 C1443 1.433 . S
C1436 H1432 0.929 . S
C1436 C1438 1.378 . S
C1436 C1440 1.350 . S
C1437 C1440 1.463 . S
C1437 C1442 1.350 . S
C1437 N1445 1.427 . S
C1438 H1429 0.930 . S
C1438 C1436 1.378 . S
C1438 C1439 1.367 . S
C1439 C1438 1.367 . S
C1439 C1441 1.433 . S
C1440 C1436 1.350 . S
C1440 C1437 1.463 . S
C1440 N1444 1.427 . S
C1441 H1431 0.929 . S
C1441 C1439 1.433 . S
C1441 N1444 1.384 . S
C1442 H1433 0.929 . S
C1442 C1434 1.378 . S
C1442 C1437 1.350 . S
C1443 H1430 0.929 . S
C1443 C1435 1.433 . S
C1443 N1445 1.384 . S
N1444 C1440 1.427 . S
N1444 C1441 1.384 . S
N1445 C1437 1.427 . S
N1445 C1443 1.384 . S
H1446 C1452 0.930 . S
H1447 C1456 0.930 . S
H1448 C1461 0.929 . S
H1449 C1459 0.929 . S
H1450 C1454 0.929 . S
H1451 C1460 0.929 . S
C1452 H1446 0.930 . S
C1452 C1453 1.367 . S
C1452 C1460 1.378 . S
C1453 C1452 1.367 . S
C1453 C1461 1.433 . S
C1454 H1450 0.929 . S
C1454 C1456 1.378 . S
C1454 C1458 1.350 . S
C1455 C1458 1.463 . S
C1455 C1460 1.350 . S
C1455 N1463 1.427 . S
C1456 H1447 0.930 . S
C1456 C1454 1.378 . S
C1456 C1457 1.367 . S
C1457 C1456 1.367 . S
C1457 C1459 1.433 . S
C1458 C1454 1.350 . S
C1458 C1455 1.463 . S
C1458 N1462 1.427 . S
C1459 H1449 0.929 . S
C1459 C1457 1.433 . S
C1459 N1462 1.384 . S
C1460 H1451 0.929 . S
C1460 C1452 1.378 . S
C1460 C1455 1.350 . S
C1461 H1448 0.929 . S
C1461 C1453 1.433 . S
C1461 N1463 1.384 . S
N1462 C1458 1.427 . S
N1462 C1459 1.384 . S
N1463 C1455 1.427 . S
N1463 C1461 1.384 . S
H1464 C1470 0.930 . S
H1465 C1474 0.930 . S
H1466 C1479 0.929 . S
H1467 C1477 0.929 . S
H1468 C1472 0.929 . S
H1469 C1478 0.929 . S
C1470 H1464 0.930 . S
C1470 C1471 1.367 . S
C1470 C1478 1.378 . S
C1471 C1470 1.367 . S
C1471 C1479 1.433 . S
C1472 H1468 0.929 . S
C1472 C1474 1.378 . S
C1472 C1476 1.350 . S
C1473 C1476 1.463 . S
C1473 C1478 1.350 . S
C1473 N1481 1.427 . S
C1474 H1465 0.930 . S
C1474 C1472 1.378 . S
C1474 C1475 1.367 . S
C1475 C1474 1.367 . S
C1475 C1477 1.433 . S
C1476 C1472 1.350 . S
C1476 C1473 1.463 . S
C1476 N1480 1.427 . S
C1477 H1467 0.929 . S
C1477 C1475 1.433 . S
C1477 N1480 1.384 . S
C1478 H1469 0.929 . S
C1478 C1470 1.378 . S
C1478 C1473 1.350 . S
C1479 H1466 0.929 . S
C1479 C1471 1.433 . S
C1479 N1481 1.384 . S
N1480 C1476 1.427 . S
N1480 C1477 1.384 . S
N1481 C1473 1.427 . S
N1481 C1479 1.384 . S
H1482 C1488 0.930 . S
H1483 C1492 0.930 . S
H1484 C1497 0.929 . S
H1485 C1495 0.929 . S
H1486 C1490 0.929 . S
H1487 C1496 0.929 . S
C1488 H1482 0.930 . S
C1488 C1489 1.367 . S
C1488 C1496 1.378 . S
C1489 C1488 1.367 . S
C1489 C1497 1.433 . S
C1490 H1486 0.929 . S
C1490 C1492 1.378 . S
C1490 C1494 1.350 . S
C1491 C1494 1.463 . S
C1491 C1496 1.350 . S
C1491 N1499 1.427 . S
C1492 H1483 0.930 . S
C1492 C1490 1.378 . S
C1492 C1493 1.367 . S
C1493 C1492 1.367 . S
C1493 C1495 1.433 . S
C1494 C1490 1.350 . S
C1494 C1491 1.463 . S
C1494 N1498 1.427 . S
C1495 H1485 0.929 . S
C1495 C1493 1.433 . S
C1495 N1498 1.384 . S
C1496 H1487 0.929 . S
C1496 C1488 1.378 . S
C1496 C1491 1.350 . S
C1497 H1484 0.929 . S
C1497 C1489 1.433 . S
C1497 N1499 1.384 . S
N1498 C1494 1.427 . S
N1498 C1495 1.384 . S
N1499 C1491 1.427 . S
N1499 C1497 1.384 . S
H1500 C1506 0.930 . S
H1501 C1510 0.930 . S
H1502 C1515 0.929 . S
H1503 C1513 0.929 . S
H1504 C1508 0.929 . S
H1505 C1514 0.929 . S
C1506 H1500 0.930 . S
C1506 C1507 1.367 . S
C1506 C1514 1.378 . S
C1507 C1506 1.367 . S
C1507 C1515 1.433 . S
C1508 H1504 0.929 . S
C1508 C1510 1.378 . S
C1508 C1512 1.350 . S
C1509 C1512 1.463 . S
C1509 C1514 1.350 . S
C1509 N1517 1.427 . S
C1510 H1501 0.930 . S
C1510 C1508 1.378 . S
C1510 C1511 1.367 . S
C1511 C1510 1.367 . S
C1511 C1513 1.433 . S
C1512 C1508 1.350 . S
C1512 C1509 1.463 . S
C1512 N1516 1.427 . S
C1513 H1503 0.929 . S
C1513 C1511 1.433 . S
C1513 N1516 1.384 . S
C1514 H1505 0.929 . S
C1514 C1506 1.378 . S
C1514 C1509 1.350 . S
C1515 H1502 0.929 . S
C1515 C1507 1.433 . S
C1515 N1517 1.384 . S
N1516 C1512 1.427 . S
N1516 C1513 1.384 . S
N1517 C1509 1.427 . S
N1517 C1515 1.384 . S
H1518 C1524 0.930 . S
H1519 C1528 0.930 . S
H1520 C1533 0.929 . S
H1521 C1531 0.929 . S
H1522 C1526 0.929 . S
H1523 C1532 0.929 . S
C1524 H1518 0.930 . S
C1524 C1525 1.367 . S
C1524 C1532 1.378 . S
C1525 C1524 1.367 . S
C1525 C1533 1.433 . S
C1526 H1522 0.929 . S
C1526 C1528 1.378 . S
C1526 C1530 1.350 . S
C1527 C1530 1.463 . S
C1527 C1532 1.350 . S
C1527 N1535 1.427 . S
C1528 H1519 0.930 . S
C1528 C1526 1.378 . S
C1528 C1529 1.367 . S
C1529 C1528 1.367 . S
C1529 C1531 1.433 . S
C1530 C1526 1.350 . S
C1530 C1527 1.463 . S
C1530 N1534 1.427 . S
C1531 H1521 0.929 . S
C1531 C1529 1.433 . S
C1531 N1534 1.384 . S
C1532 H1523 0.929 . S
C1532 C1524 1.378 . S
C1532 C1527 1.350 . S
C1533 H1520 0.929 . S
C1533 C1525 1.433 . S
C1533 N1535 1.384 . S
N1534 C1530 1.427 . S
N1534 C1531 1.384 . S
N1535 C1527 1.427 . S
N1535 C1533 1.384 . S
H1536 C1542 0.930 . S
H1537 C1546 0.930 . S
H1538 C1551 0.929 . S
H1539 C1549 0.929 . S
H1540 C1544 0.929 . S
H1541 C1550 0.929 . S
C1542 H1536 0.930 . S
C1542 C1543 1.367 . S
C1542 C1550 1.378 . S
C1543 C1542 1.367 . S
C1543 C1551 1.433 . S
C1544 H1540 0.929 . S
C1544 C1546 1.378 . S
C1544 C1548 1.350 . S
C1545 C1548 1.463 . S
C1545 C1550 1.350 . S
C1545 N1553 1.427 . S
C1546 H1537 0.930 . S
C1546 C1544 1.378 . S
C1546 C1547 1.367 . S
C1547 C1546 1.367 . S
C1547 C1549 1.433 . S
C1548 C1544 1.350 . S
C1548 C1545 1.463 . S
C1548 N1552 1.427 . S
C1549 H1539 0.929 . S
C1549 C1547 1.433 . S
C1549 N1552 1.384 . S
C1550 H1541 0.929 . S
C1550 C1542 1.378 . S
C1550 C1545 1.350 . S
C1551 H1538 0.929 . S
C1551 C1543 1.433 . S
C1551 N1553 1.384 . S
N1552 C1548 1.427 . S
N1552 C1549 1.384 . S
N1553 C1545 1.427 . S
N1553 C1551 1.384 . S
H1554 C1560 0.930 . S
H1555 C1564 0.930 . S
H1556 C1569 0.929 . S
H1557 C1567 0.929 . S
H1558 C1562 0.929 . S
H1559 C1568 0.929 . S
C1560 H1554 0.930 . S
C1560 C1561 1.367 . S
C1560 C1568 1.378 . S
C1561 C1560 1.367 . S
C1561 C1569 1.433 . S
C1562 H1558 0.929 . S
C1562 C1564 1.378 . S
C1562 C1566 1.350 . S
C1563 C1566 1.463 . S
C1563 C1568 1.350 . S
C1563 N1571 1.427 . S
C1564 H1555 0.930 . S
C1564 C1562 1.378 . S
C1564 C1565 1.367 . S
C1565 C1564 1.367 . S
C1565 C1567 1.433 . S
C1566 C1562 1.350 . S
C1566 C1563 1.463 . S
C1566 N1570 1.427 . S
C1567 H1557 0.929 . S
C1567 C1565 1.433 . S
C1567 N1570 1.384 . S
C1568 H1559 0.929 . S
C1568 C1560 1.378 . S
C1568 C1563 1.350 . S
C1569 H1556 0.929 . S
C1569 C1561 1.433 . S
C1569 N1571 1.384 . S
N1570 C1566 1.427 . S
N1570 C1567 1.384 . S
N1571 C1563 1.427 . S
N1571 C1569 1.384 . S
H1572 C1578 0.930 . S
H1573 C1582 0.930 . S
H1574 C1587 0.929 . S
H1575 C1585 0.929 . S
H1576 C1580 0.929 . S
H1577 C1586 0.929 . S
C1578 H1572 0.930 . S
C1578 C1579 1.367 . S
C1578 C1586 1.378 . S
C1579 C1578 1.367 . S
C1579 C1587 1.433 . S
C1580 H1576 0.929 . S
C1580 C1582 1.378 . S
C1580 C1584 1.350 . S
C1581 C1584 1.463 . S
C1581 C1586 1.350 . S
C1581 N1589 1.427 . S
C1582 H1573 0.930 . S
C1582 C1580 1.378 . S
C1582 C1583 1.367 . S
C1583 C1582 1.367 . S
C1583 C1585 1.433 . S
C1584 C1580 1.350 . S
C1584 C1581 1.463 . S
C1584 N1588 1.427 . S
C1585 H1575 0.929 . S
C1585 C1583 1.433 . S
C1585 N1588 1.384 . S
C1586 H1577 0.929 . S
C1586 C1578 1.378 . S
C1586 C1581 1.350 . S
C1587 H1574 0.929 . S
C1587 C1579 1.433 . S
C1587 N1589 1.384 . S
N1588 C1584 1.427 . S
N1588 C1585 1.384 . S
N1589 C1581 1.427 . S
N1589 C1587 1.384 . S
H1590 C1596 0.930 . S
H1591 C1600 0.930 . S
H1592 C1605 0.929 . S
H1593 C1603 0.929 . S
H1594 C1598 0.929 . S
H1595 C1604 0.929 . S
C1596 H1590 0.930 . S
C1596 C1597 1.367 . S
C1596 C1604 1.378 . S
C1597 C1596 1.367 . S
C1597 C1605 1.433 . S
C1598 H1594 0.929 . S
C1598 C1600 1.378 . S
C1598 C1602 1.350 . S
C1599 C1602 1.463 . S
C1599 C1604 1.350 . S
C1599 N1607 1.427 . S
C1600 H1591 0.930 . S
C1600 C1598 1.378 . S
C1600 C1601 1.367 . S
C1601 C1600 1.367 . S
C1601 C1603 1.433 . S
C1602 C1598 1.350 . S
C1602 C1599 1.463 . S
C1602 N1606 1.427 . S
C1603 H1593 0.929 . S
C1603 C1601 1.433 . S
C1603 N1606 1.384 . S
C1604 H1595 0.929 . S
C1604 C1596 1.378 . S
C1604 C1599 1.350 . S
C1605 H1592 0.929 . S
C1605 C1597 1.433 . S
C1605 N1607 1.384 . S
N1606 C1602 1.427 . S
N1606 C1603 1.384 . S
N1607 C1599 1.427 . S
N1607 C1605 1.384 . S
H1608 C1614 0.930 . S
H1609 C1618 0.930 . S
H1610 C1623 0.929 . S
H1611 C1621 0.929 . S
H1612 C1616 0.929 . S
H1613 C1622 0.929 . S
C1614 H1608 0.930 . S
C1614 C1615 1.367 . S
C1614 C1622 1.378 . S
C1615 C1614 1.367 . S
C1615 C1623 1.433 . S
C1616 H1612 0.929 . S
C1616 C1618 1.378 . S
C1616 C1620 1.350 . S
C1617 C1620 1.463 . S
C1617 C1622 1.350 . S
C1617 N1625 1.427 . S
C1618 H1609 0.930 . S
C1618 C1616 1.378 . S
C1618 C1619 1.367 . S
C1619 C1618 1.367 . S
C1619 C1621 1.433 . S
C1620 C1616 1.350 . S
C1620 C1617 1.463 . S
C1620 N1624 1.427 . S
C1621 H1611 0.929 . S
C1621 C1619 1.433 . S
C1621 N1624 1.384 . S
C1622 H1613 0.929 . S
C1622 C1614 1.378 . S
C1622 C1617 1.350 . S
C1623 H1610 0.929 . S
C1623 C1615 1.433 . S
C1623 N1625 1.384 . S
N1624 C1620 1.427 . S
N1624 C1621 1.384 . S
N1625 C1617 1.427 . S
N1625 C1623 1.384 . S
H1626 C1632 0.930 . S
H1627 C1636 0.930 . S
H1628 C1641 0.929 . S
H1629 C1639 0.929 . S
H1630 C1634 0.929 . S
H1631 C1640 0.929 . S
C1632 H1626 0.930 . S
C1632 C1633 1.367 . S
C1632 C1640 1.378 . S
C1633 C1632 1.367 . S
C1633 C1641 1.433 . S
C1634 H1630 0.929 . S
C1634 C1636 1.378 . S
C1634 C1638 1.350 . S
C1635 C1638 1.463 . S
C1635 C1640 1.350 . S
C1635 N1643 1.427 . S
C1636 H1627 0.930 . S
C1636 C1634 1.378 . S
C1636 C1637 1.367 . S
C1637 C1636 1.367 . S
C1637 C1639 1.433 . S
C1638 C1634 1.350 . S
C1638 C1635 1.463 . S
C1638 N1642 1.427 . S
C1639 H1629 0.929 . S
C1639 C1637 1.433 . S
C1639 N1642 1.384 . S
C1640 H1631 0.929 . S
C1640 C1632 1.378 . S
C1640 C1635 1.350 . S
C1641 H1628 0.929 . S
C1641 C1633 1.433 . S
C1641 N1643 1.384 . S
N1642 C1638 1.427 . S
N1642 C1639 1.384 . S
N1643 C1635 1.427 . S
N1643 C1641 1.384 . S
H1644 C1650 0.930 . S
H1645 C1654 0.930 . S
H1646 C1659 0.929 . S
H1647 C1657 0.929 . S
H1648 C1652 0.929 . S
H1649 C1658 0.929 . S
C1650 H1644 0.930 . S
C1650 C1651 1.367 . S
C1650 C1658 1.378 . S
C1651 C1650 1.367 . S
C1651 C1659 1.433 . S
C1652 H1648 0.929 . S
C1652 C1654 1.378 . S
C1652 C1656 1.350 . S
C1653 C1656 1.463 . S
C1653 C1658 1.350 . S
C1653 N1661 1.427 . S
C1654 H1645 0.930 . S
C1654 C1652 1.378 . S
C1654 C1655 1.367 . S
C1655 C1654 1.367 . S
C1655 C1657 1.433 . S
C1656 C1652 1.350 . S
C1656 C1653 1.463 . S
C1656 N1660 1.427 . S
C1657 H1647 0.929 . S
C1657 C1655 1.433 . S
C1657 N1660 1.384 . S
C1658 H1649 0.929 . S
C1658 C1650 1.378 . S
C1658 C1653 1.350 . S
C1659 H1646 0.929 . S
C1659 C1651 1.433 . S
C1659 N1661 1.384 . S
N1660 C1656 1.427 . S
N1660 C1657 1.384 . S
N1661 C1653 1.427 . S
N1661 C1659 1.384 . S
H1662 C1668 0.930 . S
H1663 C1672 0.930 . S
H1664 C1677 0.929 . S
H1665 C1675 0.929 . S
H1666 C1670 0.929 . S
H1667 C1676 0.929 . S
C1668 H1662 0.930 . S
C1668 C1669 1.367 . S
C1668 C1676 1.378 . S
C1669 C1668 1.367 . S
C1669 C1677 1.433 . S
C1670 H1666 0.929 . S
C1670 C1672 1.378 . S
C1670 C1674 1.350 . S
C1671 C1674 1.463 . S
C1671 C1676 1.350 . S
C1671 N1679 1.427 . S
C1672 H1663 0.930 . S
C1672 C1670 1.378 . S
C1672 C1673 1.367 . S
C1673 C1672 1.367 . S
C1673 C1675 1.433 . S
C1674 C1670 1.350 . S
C1674 C1671 1.463 . S
C1674 N1678 1.427 . S
C1675 H1665 0.929 . S
C1675 C1673 1.433 . S
C1675 N1678 1.384 . S
C1676 H1667 0.929 . S
C1676 C1668 1.378 . S
C1676 C1671 1.350 . S
C1677 H1664 0.929 . S
C1677 C1669 1.433 . S
C1677 N1679 1.384 . S
N1678 C1674 1.427 . S
N1678 C1675 1.384 . S
N1679 C1671 1.427 . S
N1679 C1677 1.384 . S
H1680 C1686 0.930 . S
H1681 C1690 0.930 . S
H1682 C1695 0.929 . S
H1683 C1693 0.929 . S
H1684 C1688 0.929 . S
H1685 C1694 0.929 . S
C1686 H1680 0.930 . S
C1686 C1687 1.367 . S
C1686 C1694 1.378 . S
C1687 C1686 1.367 . S
C1687 C1695 1.433 . S
C1688 H1684 0.929 . S
C1688 C1690 1.378 . S
C1688 C1692 1.350 . S
C1689 C1692 1.463 . S
C1689 C1694 1.350 . S
C1689 N1697 1.427 . S
C1690 H1681 0.930 . S
C1690 C1688 1.378 . S
C1690 C1691 1.367 . S
C1691 C1690 1.367 . S
C1691 C1693 1.433 . S
C1692 C1688 1.350 . S
C1692 C1689 1.463 . S
C1692 N1696 1.427 . S
C1693 H1683 0.929 . S
C1693 C1691 1.433 . S
C1693 N1696 1.384 . S
C1694 H1685 0.929 . S
C1694 C1686 1.378 . S
C1694 C1689 1.350 . S
C1695 H1682 0.929 . S
C1695 C1687 1.433 . S
C1695 N1697 1.384 . S
N1696 C1692 1.427 . S
N1696 C1693 1.384 . S
N1697 C1689 1.427 . S
N1697 C1695 1.384 . S
H1698 C1704 0.930 . S
H1699 C1708 0.930 . S
H1700 C1713 0.929 . S
H1701 C1711 0.929 . S
H1702 C1706 0.929 . S
H1703 C1712 0.929 . S
C1704 H1698 0.930 . S
C1704 C1705 1.367 . S
C1704 C1712 1.378 . S
C1705 C1704 1.367 . S
C1705 C1713 1.433 . S
C1706 H1702 0.929 . S
C1706 C1708 1.378 . S
C1706 C1710 1.350 . S
C1707 C1710 1.463 . S
C1707 C1712 1.350 . S
C1707 N1715 1.427 . S
C1708 H1699 0.930 . S
C1708 C1706 1.378 . S
C1708 C1709 1.367 . S
C1709 C1708 1.367 . S
C1709 C1711 1.433 . S
C1710 C1706 1.350 . S
C1710 C1707 1.463 . S
C1710 N1714 1.427 . S
C1711 H1701 0.929 . S
C1711 C1709 1.433 . S
C1711 N1714 1.384 . S
C1712 H1703 0.929 . S
C1712 C1704 1.378 . S
C1712 C1707 1.350 . S
C1713 H1700 0.929 . S
C1713 C1705 1.433 . S
C1713 N1715 1.384 . S
N1714 C1710 1.427 . S
N1714 C1711 1.384 . S
N1715 C1707 1.427 . S
N1715 C1713 1.384 . S
H1716 C1722 0.930 . S
H1717 C1726 0.930 . S
H1718 C1731 0.929 . S
H1719 C1729 0.929 . S
H1720 C1724 0.929 . S
H1721 C1730 0.929 . S
C1722 H1716 0.930 . S
C1722 C1723 1.367 . S
C1722 C1730 1.378 . S
C1723 C1722 1.367 . S
C1723 C1731 1.433 . S
C1724 H1720 0.929 . S
C1724 C1726 1.378 . S
C1724 C1728 1.350 . S
C1725 C1728 1.463 . S
C1725 C1730 1.350 . S
C1725 N1733 1.427 . S
C1726 H1717 0.930 . S
C1726 C1724 1.378 . S
C1726 C1727 1.367 . S
C1727 C1726 1.367 . S
C1727 C1729 1.433 . S
C1728 C1724 1.350 . S
C1728 C1725 1.463 . S
C1728 N1732 1.427 . S
C1729 H1719 0.929 . S
C1729 C1727 1.433 . S
C1729 N1732 1.384 . S
C1730 H1721 0.929 . S
C1730 C1722 1.378 . S
C1730 C1725 1.350 . S
C1731 H1718 0.929 . S
C1731 C1723 1.433 . S
C1731 N1733 1.384 . S
N1732 C1728 1.427 . S
N1732 C1729 1.384 . S
N1733 C1725 1.427 . S
N1733 C1731 1.384 . S
C881 C699 1.285 . S
C877 C74 1.325 . S
C899 C700 0.435 . S
C895 C142 0.737 . S
C917 C694 1.250 . S
C913 C231 1.225 . S
C931 C322 1.137 . S
C935 C693 1.191 . S
C949 C406 0.779 . S
C953 C696 0.411 . S
C971 C698 1.258 . S
C967 C494 1.221 . S
C985 C562 1.114 . S
C989 C697 1.203 . S
C1003 C651 1.311 . S
C1007 C695 1.275 . S
C1025 C730 1.588 . S
C1021 C58 1.474 . S
C1039 C151 1.654 . S
C1043 C761 1.623 . S
C1061 C729 2.550 . S
C1057 C224 2.443 . S
C1079 C764 1.212 . S
C1075 C315 1.189 . S
C1093 C399 1.480 . S
C1097 C727 1.511 . S
C1115 C759 1.540 . S
C1111 C478 1.440 . S
C1129 C571 1.264 . S
C1133 C732 1.323 . S
C1147 C644 2.480 . S
C1151 C766 2.550 . S
C1165 C67 2.487 . S
C1169 C762 2.550 . S
C1183 C392 1.652 . S
C1187 C765 1.629 . S
C1205 C733 2.556 . S
C1201 C487 2.446 . S
C1223 C760 1.203 . S
C1219 C578 1.178 . S
C1237 C658 1.465 . S
C1241 C726 1.589 . S
C1255 C238 1.419 . S
C1259 C763 1.546 . S
C1277 C728 1.326 . S
C1273 C308 1.262 . S
C1291 C158 1.463 . S
C1295 C731 1.502 . S
C1309 C662 1.264 . S
C1313 C798 1.224 . S
C1327 C394 0.906 . S
C1331 C799 0.399 . S
C1349 C793 1.414 . S
C1345 C483 1.375 . S
C1367 C792 1.544 . S
C1363 C574 1.369 . S
C1381 C154 0.917 . S
C1385 C795 0.369 . S
C1403 C797 1.416 . S
C1399 C242 1.392 . S
C1417 C310 1.374 . S
C1421 C796 1.542 . S
C1435 C63 1.275 . S
C1439 C794 1.238 . S
C1453 C646 1.529 . S
C1457 C832 1.609 . S
C1475 C864 1.229 . S
C1471 C403 1.252 . S
C1489 C476 2.329 . S
C1493 C825 2.468 . S
C1507 C567 1.507 . S
C1511 C859 1.568 . S
C1529 C830 1.333 . S
C1525 C147 1.231 . S
C1543 C226 1.639 . S
C1547 C861 1.679 . S
C1565 C827 1.521 . S
C1561 C319 1.564 . S
C1583 C862 2.500 . S
C1579 C56 2.282 . S
C1601 C858 2.499 . S
C1597 C655 2.279 . S
C1615 C140 1.240 . S
C1619 C860 1.242 . S
C1633 C235 2.328 . S
C1637 C829 2.467 . S
C1655 C863 1.561 . S
C1651 C326 1.505 . S
C1669 C70 1.518 . S
C1673 C828 1.607 . S
C1687 C490 1.636 . S
C1691 C865 1.686 . S
C1709 C831 1.523 . S
C1705 C560 1.549 . S
C1727 C826 1.332 . S
C1723 C410 1.236 . S
