# Generated by pormake.
# Topology soc, (4,6)-cn, num edge types: 1
# Building blocks:
#     Node 0, Type 0, BuildingBlock: ESEHIV_clean_sbu_0, # of connection points: 4
#     Node 1, Type 0, BuildingBlock: ESEHIV_clean_sbu_0, # of connection points: 4
#     Node 2, Type 0, BuildingBlock: ESEHIV_clean_sbu_0, # of connection points: 4
#     Node 3, Type 0, BuildingBlock: ESEHIV_clean_sbu_0, # of connection points: 4
#     Node 4, Type 0, BuildingBlock: ESEHIV_clean_sbu_0, # of connection points: 4
#     Node 5, Type 0, BuildingBlock: ESEHIV_clean_sbu_0, # of connection points: 4
#     Node 6, Type 0, BuildingBlock: ESEHIV_clean_sbu_0, # of connection points: 4
#     Node 7, Type 0, BuildingBlock: ESEHIV_clean_sbu_0, # of connection points: 4
#     Node 8, Type 0, BuildingBlock: ESEHIV_clean_sbu_0, # of connection points: 4
#     Node 9, Type 0, BuildingBlock: ESEHIV_clean_sbu_0, # of connection points: 4
#     Node 10, Type 0, BuildingBlock: ESEHIV_clean_sbu_0, # of connection points: 4
#     Node 11, Type 0, BuildingBlock: ESEHIV_clean_sbu_0, # of connection points: 4
#     Node 12, Type 1, BuildingBlock: CUKXOW_clean_sbu_0, # of connection points: 6
#     Node 13, Type 1, BuildingBlock: CUKXOW_clean_sbu_0, # of connection points: 6
#     Node 14, Type 1, BuildingBlock: CUKXOW_clean_sbu_0, # of connection points: 6
#     Node 15, Type 1, BuildingBlock: CUKXOW_clean_sbu_0, # of connection points: 6
#     Node 16, Type 1, BuildingBlock: CUKXOW_clean_sbu_0, # of connection points: 6
#     Node 17, Type 1, BuildingBlock: CUKXOW_clean_sbu_0, # of connection points: 6
#     Node 18, Type 1, BuildingBlock: CUKXOW_clean_sbu_0, # of connection points: 6
#     Node 19, Type 1, BuildingBlock: CUKXOW_clean_sbu_0, # of connection points: 6
#     Edge 20, Type (0, 1), BuildingBlock: KIFKEQ_clean_linker_1, # of connection points: 2
#     Edge 21, Type (0, 1), BuildingBlock: KIFKEQ_clean_linker_1, # of connection points: 2
#     Edge 22, Type (0, 1), BuildingBlock: KIFKEQ_clean_linker_1, # of connection points: 2
#     Edge 23, Type (0, 1), BuildingBlock: KIFKEQ_clean_linker_1, # of connection points: 2
#     Edge 24, Type (0, 1), BuildingBlock: KIFKEQ_clean_linker_1, # of connection points: 2
#     Edge 25, Type (0, 1), BuildingBlock: KIFKEQ_clean_linker_1, # of connection points: 2
#     Edge 26, Type (0, 1), BuildingBlock: KIFKEQ_clean_linker_1, # of connection points: 2
#     Edge 27, Type (0, 1), BuildingBlock: KIFKEQ_clean_linker_1, # of connection points: 2
#     Edge 28, Type (0, 1), BuildingBlock: KIFKEQ_clean_linker_1, # of connection points: 2
#     Edge 29, Type (0, 1), BuildingBlock: KIFKEQ_clean_linker_1, # of connection points: 2
#     Edge 30, Type (0, 1), BuildingBlock: KIFKEQ_clean_linker_1, # of connection points: 2
#     Edge 31, Type (0, 1), BuildingBlock: KIFKEQ_clean_linker_1, # of connection points: 2
#     Edge 32, Type (0, 1), BuildingBlock: KIFKEQ_clean_linker_1, # of connection points: 2
#     Edge 33, Type (0, 1), BuildingBlock: KIFKEQ_clean_linker_1, # of connection points: 2
#     Edge 34, Type (0, 1), BuildingBlock: KIFKEQ_clean_linker_1, # of connection points: 2
#     Edge 35, Type (0, 1), BuildingBlock: KIFKEQ_clean_linker_1, # of connection points: 2
#     Edge 36, Type (0, 1), BuildingBlock: KIFKEQ_clean_linker_1, # of connection points: 2
#     Edge 37, Type (0, 1), BuildingBlock: KIFKEQ_clean_linker_1, # of connection points: 2
#     Edge 38, Type (0, 1), BuildingBlock: KIFKEQ_clean_linker_1, # of connection points: 2
#     Edge 39, Type (0, 1), BuildingBlock: KIFKEQ_clean_linker_1, # of connection points: 2
#     Edge 40, Type (0, 1), BuildingBlock: KIFKEQ_clean_linker_1, # of connection points: 2
#     Edge 41, Type (0, 1), BuildingBlock: KIFKEQ_clean_linker_1, # of connection points: 2
#     Edge 42, Type (0, 1), BuildingBlock: KIFKEQ_clean_linker_1, # of connection points: 2
#     Edge 43, Type (0, 1), BuildingBlock: KIFKEQ_clean_linker_1, # of connection points: 2
#     Edge 44, Type (0, 1), BuildingBlock: KIFKEQ_clean_linker_1, # of connection points: 2
#     Edge 45, Type (0, 1), BuildingBlock: KIFKEQ_clean_linker_1, # of connection points: 2
#     Edge 46, Type (0, 1), BuildingBlock: KIFKEQ_clean_linker_1, # of connection points: 2
#     Edge 47, Type (0, 1), BuildingBlock: KIFKEQ_clean_linker_1, # of connection points: 2
#     Edge 48, Type (0, 1), BuildingBlock: KIFKEQ_clean_linker_1, # of connection points: 2
#     Edge 49, Type (0, 1), BuildingBlock: KIFKEQ_clean_linker_1, # of connection points: 2
#     Edge 50, Type (0, 1), BuildingBlock: KIFKEQ_clean_linker_1, # of connection points: 2
#     Edge 51, Type (0, 1), BuildingBlock: KIFKEQ_clean_linker_1, # of connection points: 2
#     Edge 52, Type (0, 1), BuildingBlock: KIFKEQ_clean_linker_1, # of connection points: 2
#     Edge 53, Type (0, 1), BuildingBlock: KIFKEQ_clean_linker_1, # of connection points: 2
#     Edge 54, Type (0, 1), BuildingBlock: KIFKEQ_clean_linker_1, # of connection points: 2
#     Edge 55, Type (0, 1), BuildingBlock: KIFKEQ_clean_linker_1, # of connection points: 2
#     Edge 56, Type (0, 1), BuildingBlock: KIFKEQ_clean_linker_1, # of connection points: 2
#     Edge 57, Type (0, 1), BuildingBlock: KIFKEQ_clean_linker_1, # of connection points: 2
#     Edge 58, Type (0, 1), BuildingBlock: KIFKEQ_clean_linker_1, # of connection points: 2
#     Edge 59, Type (0, 1), BuildingBlock: KIFKEQ_clean_linker_1, # of connection points: 2
#     Edge 60, Type (0, 1), BuildingBlock: KIFKEQ_clean_linker_1, # of connection points: 2
#     Edge 61, Type (0, 1), BuildingBlock: KIFKEQ_clean_linker_1, # of connection points: 2
#     Edge 62, Type (0, 1), BuildingBlock: KIFKEQ_clean_linker_1, # of connection points: 2
#     Edge 63, Type (0, 1), BuildingBlock: KIFKEQ_clean_linker_1, # of connection points: 2
#     Edge 64, Type (0, 1), BuildingBlock: KIFKEQ_clean_linker_1, # of connection points: 2
#     Edge 65, Type (0, 1), BuildingBlock: KIFKEQ_clean_linker_1, # of connection points: 2
#     Edge 66, Type (0, 1), BuildingBlock: KIFKEQ_clean_linker_1, # of connection points: 2
#     Edge 67, Type (0, 1), BuildingBlock: KIFKEQ_clean_linker_1, # of connection points: 2
# Relax obj value: 0.089
# Max RMSD: 0.171
# Mean RMSD: 0.144
data_MOF--net-soc--node1-ESEHIV_clean_sbu_0--node2-CUKXOW_clean_sbu_0--edge1-KIFKEQ_clean_linker_1
_symmetry_space_group_name_H-M    P1
_symmetry_Int_Tables_number       1
_symmetry_cell_setting            triclinic
loop_
_symmetry_equiv_pos_as_xyz
'x, y, z'
_cell_length_a     44.255036
_cell_length_b     44.86303
_cell_length_c     45.780335
_cell_angle_alpha  95.624169
_cell_angle_beta   93.57431
_cell_angle_gamma 87.87925
loop_
_atom_site_label
_atom_site_type_symbol
_atom_site_fract_x
_atom_site_fract_y
_atom_site_fract_z
_atom_type_partial_charge
Cu0 Cu 0.06529 0.02991 0.26964 0.0
N1 N 0.09331 0.05482 0.29245 0.0
N2 N 0.12842 0.09016 0.3021 0.0
C3 C 0.10477 0.08006 0.28406 0.0
C4 C 0.1314 0.07072 0.32299 0.0
C5 C 0.10993 0.04902 0.31693 0.0
O6 O 0.09011 1.00027 0.24633 0.0
C7 C 1.02353 0.07514 0.27114 0.0
O8 O 1.03177 0.07184 0.29874 0.0
H9 H 0.0973 0.08949 0.26386 0.0
H10 H 0.10765 0.02955 0.3287 0.0
N11 N 1.04176 1.00632 0.29123 0.0
N12 N 1.0077 0.9725 0.30015 0.0
C13 C 1.02264 0.98482 0.27947 0.0
C14 C 1.03888 1.00776 0.32038 0.0
C15 C 1.01806 0.98711 0.32592 0.0
C16 C 0.11681 1.00533 0.23934 0.0
O17 O 0.12503 0.03318 0.23971 0.0
H18 H 1.01985 0.97844 0.25608 0.0
H19 H 0.05064 0.02314 0.33648 0.0
O20 O 1.03604 0.05764 0.25129 0.0
H21 H 0.14848 0.07148 0.34098 0.0
H22 H 1.01081 0.98372 0.34744 0.0
Cu23 Cu 0.05092 0.01916 0.72765 0.0
N24 N 1.02667 0.99147 0.70403 0.0
N25 N 0.99063 0.95732 0.69364 0.0
C26 C 1.00351 0.97746 0.71419 0.0
C27 C 1.00652 0.9588 0.66954 0.0
C28 C 1.02875 0.97972 0.67604 0.0
O29 O 1.02128 0.04678 0.74766 0.0
C30 C 0.09979 0.98051 0.73296 0.0
O31 O 0.1001 0.98703 0.70565 0.0
H32 H 0.99644 0.98197 0.73644 0.0
H33 H 0.04566 0.98533 0.6616 0.0
N34 N 0.0748 0.04378 0.70758 0.0
N35 N 0.11054 0.07639 0.70046 0.0
C36 C 0.09761 0.06086 0.72011 0.0
C37 C 0.07308 0.04877 0.67904 0.0
C38 C 0.09498 0.06873 0.67459 0.0
C39 C 1.00273 0.05811 0.72883 0.0
O40 O 1.00661 0.05071 0.7008 0.0
H41 H 0.10466 0.06162 0.74322 0.0
H42 H 0.05681 0.03892 0.66264 0.0
O43 O 0.07949 0.99317 0.74917 0.0
H44 H 1.00308 0.94506 0.6489 0.0
H45 H 0.0986 0.07739 0.65389 0.0
Cu46 Cu 0.32511 0.02848 -0.00504 0.0
N47 N 0.29903 1.00534 0.9695 0.0
N48 N 0.28546 0.96502 0.93965 0.0
C49 C 0.30373 0.97584 0.96262 0.0
C50 C 0.26832 0.98893 0.93196 0.0
C51 C 0.27689 1.01382 0.95033 0.0
O52 O 0.34704 1.00061 0.01918 0.0
C53 C 0.35577 0.07685 0.97507 0.0
O54 O 0.35239 0.09022 0.00152 0.0
H55 H 0.32149 0.96306 0.97344 0.0
H56 H 0.26906 0.03671 0.94848 0.0
N57 N 0.3039 0.05583 0.01991 0.0
N58 N 0.29598 0.08961 0.058 0.0
C59 C 0.31539 0.0689 0.0457 0.0
C60 C 0.27598 0.06814 0.01592 0.0
C61 C 0.27103 0.08908 0.03939 0.0
C62 C 0.32916 0.98641 0.0332 0.0
O63 O 0.30005 0.99345 0.03114 0.0
H64 H 0.33828 0.06448 0.05429 0.0
H65 H 0.26063 0.0629 -0.00303 0.0
O66 O 0.34882 0.04952 0.96953 0.0
H67 H 0.25223 0.98904 0.91319 0.0
H68 H 0.25088 0.10323 0.04215 0.0
Cu69 Cu 0.05478 0.35002 0.98494 0.0
N70 N 0.08258 0.37183 0.96776 0.0
N71 N 0.12019 0.37826 0.9389 0.0
C72 C 0.10763 0.35957 0.9557 0.0
C73 C 0.10239 0.4034 0.94058 0.0
C74 C 0.07916 0.39937 0.9585 0.0
O75 O 0.07852 0.32291 0.00915 0.0
C76 C 1.01114 0.31128 0.94952 0.0
O77 O 1.01205 0.29269 0.97003 0.0
H78 H 0.11492 0.33642 0.95713 0.0
H79 H 0.06003 0.41454 0.96276 0.0
N80 N 1.03027 0.37464 0.00923 0.0
N81 N 0.99189 0.38457 0.03847 0.0
C82 C 1.00227 0.36741 0.01514 0.0
C83 C 1.03778 0.39781 0.02889 0.0
C84 C 1.01402 0.4041 0.04695 0.0
C85 C 0.07031 0.31548 0.0336 0.0
O86 O 1.0421 0.32065 0.04043 0.0
H87 H 0.99086 0.34824 0.00397 0.0
H88 H 0.05981 0.40775 0.03143 0.0
O89 O 1.02827 0.33364 0.95227 0.0
H90 H 0.10511 0.42266 0.92858 0.0
H91 H 1.01422 0.41994 0.06637 0.0
Cu92 Cu 0.82037 0.05057 0.00682 0.0
N93 N 0.84338 0.07996 -0.00589 0.0
N94 N 0.85125 0.12613 0.98298 0.0
C95 C 0.83054 0.10577 0.98646 0.0
C96 C 0.87844 0.1124 -0.01187 0.0
C97 C 0.87348 0.08385 -0.00458 0.0
O98 O 0.79225 0.0736 0.03228 0.0
C99 C 0.81869 0.01783 0.95179 0.0
O100 O 0.8467 0.02685 0.95345 0.0
H101 H 0.80626 0.10965 0.98419 0.0
H102 H 0.89051 0.0677 0.00234 0.0
N103 N 0.84402 0.02569 0.02964 0.0
N104 N 0.85595 0.99658 0.0656 0.0
C105 C 0.83573 0.01651 0.0549 0.0
C106 C 0.87044 1.01111 0.02398 0.0
C107 C 0.87785 0.99296 0.04619 0.0
C108 C 0.80566 0.08975 0.05332 0.0
O109 O 0.83533 0.08781 0.05668 0.0
H110 H 0.81437 0.02305 0.06434 0.0
H111 H 0.8828 1.01267 0.00458 0.0
O112 O 0.80191 0.02622 0.97295 0.0
H113 H 0.90018 0.12257 0.98763 0.0
H114 H 0.89725 0.97764 0.04746 0.0
Cu115 Cu 0.05059 0.74924 0.01579 0.0
N116 N 1.02928 0.77056 0.98756 0.0
N117 N 0.99873 0.7778 0.94796 0.0
C118 C 1.00616 0.75986 0.96947 0.0
C119 C 1.01788 0.80073 0.95272 0.0
C120 C 1.03671 0.79619 0.97716 0.0
O121 O 1.02167 0.73232 0.04038 0.0
C122 C 0.09859 0.73409 0.98146 0.0
O123 O 0.10158 0.7631 0.98724 0.0
H124 H 0.99617 0.73846 0.97109 0.0
H125 H 0.05547 0.80983 0.98581 0.0
N126 N 0.07579 0.77373 0.04134 0.0
N127 N 0.11537 0.78632 0.0723 0.0
C128 C 0.10123 0.76396 0.05553 0.0
C129 C 0.07347 0.80331 0.04948 0.0
C130 C 0.09794 0.81119 0.06854 0.0
C131 C 0.99922 0.74947 0.04801 0.0
O132 O 0.99633 0.776 0.03813 0.0
H133 H 0.10935 0.74086 0.05317 0.0
H134 H 0.05522 0.81805 0.04223 0.0
O135 O 0.07716 0.72144 -0.00746 0.0
H136 H 1.01866 0.81909 0.93913 0.0
H137 H 0.10217 0.83335 0.07927 0.0
Cu138 Cu 0.55128 0.52322 0.74849 0.0
N139 N 0.57179 0.54902 0.72662 0.0
N140 N 0.60505 0.58369 0.71857 0.0
C141 C 0.59378 0.5674 0.73854 0.0
C142 C 0.58939 0.57524 0.69302 0.0
C143 C 0.56886 0.55406 0.69805 0.0
O144 O 0.58365 0.49884 0.76712 0.0
C145 C 0.5008 0.55938 0.7587 0.0
O146 O 0.49691 0.55082 0.73051 0.0
H147 H 0.60148 0.5686 0.76152 0.0
H148 H 0.55276 0.54357 0.68198 0.0
N149 N 0.52555 0.49482 0.72715 0.0
N150 N 0.49127 0.45862 0.72044 0.0
C151 C 0.50897 0.47568 0.7401 0.0
C152 C 0.51827 0.48942 0.69815 0.0
C153 C 0.49707 0.46727 0.69399 0.0
C154 C 0.5986 0.48324 0.74766 0.0
O155 O 0.59056 0.48595 0.7199 0.0
H156 H 0.50943 0.4748 0.76367 0.0
H157 H 0.52746 0.5007 0.68111 0.0
O158 O 0.52443 0.54982 0.77297 0.0
H159 H 0.59201 0.58426 0.67228 0.0
H160 H 0.48699 0.45801 0.67306 0.0
Cu161 Cu 0.5616 0.53148 0.23183 0.0
N162 N 0.53527 0.5027 0.21216 0.0
N163 N 0.50029 0.46689 0.20654 0.0
C164 C 0.51464 0.48779 0.22534 0.0
C165 C 0.51262 0.46885 0.18049 0.0
C166 C 0.53413 0.49071 0.18404 0.0
O167 O 0.53547 0.56195 0.25252 0.0
C168 C 0.6106 0.49359 0.23561 0.0
O169 O 0.6068 0.49665 0.20737 0.0
H170 H 0.51038 0.49225 0.2484 0.0
H171 H 0.54841 0.49688 0.16743 0.0
N172 N 0.58405 0.55443 0.20854 0.0
N173 N 0.61663 0.58923 0.19923 0.0
C174 C 0.60684 0.57239 0.2195 0.0
C175 C 0.57948 0.55993 0.18019 0.0
C176 C 0.59939 0.5814 0.17446 0.0
C177 C 0.51786 0.57517 0.23426 0.0
O178 O 0.51811 0.56568 0.20623 0.0
H179 H 0.61507 0.5741 0.24235 0.0
H180 H 0.56211 0.54999 0.16504 0.0
O181 O 0.59234 0.50773 0.2531 0.0
H182 H 0.50714 0.45497 0.16032 0.0
H183 H 0.60072 0.5909 0.15375 0.0
Cu184 Cu 0.80647 0.48719 0.48052 0.0
N185 N 0.78553 0.50839 0.45247 0.0
N186 N 0.78015 0.53871 0.41646 0.0
C187 C 0.79825 0.52951 0.43888 0.0
C188 C 0.75475 0.52281 0.41625 0.0
C189 C 0.75822 0.50396 0.43846 0.0
O190 O 0.82242 0.51654 0.51099 0.0
C191 C 0.85479 0.44325 0.46795 0.0
O192 O 0.85637 0.43817 0.49578 0.0
H193 H 0.82078 0.53734 0.44509 0.0
H194 H 0.74257 0.48738 0.44324 0.0
N195 N 0.78098 0.46184 0.49676 0.0
N196 N 0.77016 0.42207 0.51965 0.0
C197 C 0.78639 0.43243 0.49899 0.0
C198 C 0.75946 0.47021 0.51564 0.0
C199 C 0.75271 0.44573 0.52977 0.0
C200 C 0.82807 0.51187 0.5378 0.0
O201 O 0.82639 0.48463 0.54568 0.0
H202 H 0.80357 0.41937 0.48734 0.0
H203 H 0.75165 0.49311 0.52099 0.0
O204 O 0.83714 0.46392 0.45911 0.0
H205 H 0.73557 0.52373 0.40047 0.0
H206 H 0.73861 0.44623 0.54832 0.0
Cu207 Cu 0.54933 0.8165 0.49092 0.0
N208 N 0.57401 0.83954 0.4706 0.0
N209 N 0.61075 0.84734 0.44059 0.0
C210 C 0.59247 0.82718 0.45006 0.0
C211 C 0.6031 0.87363 0.45588 0.0
C212 C 0.58056 0.86873 0.4744 0.0
O213 O 0.57703 0.79796 0.51909 0.0
C214 C 0.50135 0.78304 0.45995 0.0
O215 O 0.48781 0.78583 0.48481 0.0
H216 H 0.59271 0.80352 0.44275 0.0
H217 H 0.5705 0.88505 0.4902 0.0
N218 N 0.51927 0.83788 0.51255 0.0
N219 N 0.48223 0.84457 0.54416 0.0
C220 C 0.50593 0.82707 0.53487 0.0
C221 C 0.5038 0.8635 0.50776 0.0
C222 C 0.48104 0.86777 0.52734 0.0
C223 C 0.58677 0.81662 0.54011 0.0
O224 O 0.57687 0.84463 0.54078 0.0
H225 H 0.51282 0.80598 0.54328 0.0
H226 H 0.5079 0.87736 0.49046 0.0
O227 O 0.52892 0.79032 0.45989 0.0
H228 H 0.6137 0.89478 0.45471 0.0
H229 H 0.46399 0.88571 0.52804 0.0
Cu230 Cu 0.30065 0.54092 0.49244 0.0
N231 N 0.3264 0.56544 0.47591 0.0
N232 N 0.33961 0.60708 0.45756 0.0
C233 C 0.32104 0.595 0.47516 0.0
C234 C 0.35775 0.58404 0.44719 0.0
C235 C 0.34942 0.55831 0.45846 0.0
O236 O 0.27979 0.56659 0.52212 0.0
C237 C 0.25923 0.49896 0.46348 0.0
O238 O 0.25417 0.49261 0.4901 0.0
H239 H 0.30265 0.60695 0.48615 0.0
H240 H 0.3581 0.53579 0.45273 0.0
N241 N 0.32186 0.51157 0.51216 0.0
N242 N 0.32943 0.47756 0.54442 0.0
C243 C 0.30968 0.49726 0.53275 0.0
C244 C 0.35065 0.5009 0.51093 0.0
C245 C 0.35542 0.47981 0.53099 0.0
C246 C 0.29812 0.57667 0.54305 0.0
O247 O 0.32698 0.5689 0.54184 0.0
H248 H 0.28681 0.5017 0.5395 0.0
H249 H 0.36701 0.50799 0.49668 0.0
O250 O 0.27576 0.52091 0.46038 0.0
H251 H 0.37423 0.58514 0.43086 0.0
H252 H 0.37612 0.46685 0.53504 0.0
Cu253 Cu 0.57703 0.25196 0.5284 0.0
N254 N 0.60085 0.27856 0.51225 0.0
N255 N 0.6376 0.28864 0.48377 0.0
C256 C 0.62778 0.26968 0.50193 0.0
C257 C 0.61632 0.31101 0.48341 0.0
C258 C 0.59347 0.30461 0.50094 0.0
O259 O 0.60634 0.22445 0.54584 0.0
C260 C 0.55229 0.23408 0.47014 0.0
O261 O 0.57996 0.23595 0.46181 0.0
H262 H 0.63852 0.24819 0.50552 0.0
H263 H 0.57189 0.31652 0.503 0.0
N264 N 0.55466 0.27035 0.5585 0.0
N265 N 0.51968 0.27307 0.59186 0.0
C266 C 0.52866 0.25954 0.56609 0.0
C267 C 0.5625 0.29176 0.57998 0.0
C268 C 0.54085 0.29356 0.60063 0.0
C269 C 0.60347 0.21359 0.57015 0.0
O270 O 0.57631 0.21166 0.57965 0.0
H271 H 0.51791 0.24046 0.55397 0.0
H272 H 0.58324 0.30397 0.58132 0.0
O273 O 0.54771 0.23642 0.49751 0.0
H274 H 0.61583 0.32905 0.46931 0.0
H275 H 0.54124 0.30816 0.62091 0.0
Tb276 Tb 0.33044 0.2821 0.28587 0.0
C277 C 0.32353 0.24622 0.22394 0.0
Tb278 Tb 0.27725 0.30117 0.23932 0.0
O279 O 0.30576 0.24619 0.30282 0.0
O280 O 0.28592 0.27022 0.27088 0.0
O281 O 0.34247 0.25312 0.24708 0.0
C282 C 0.23057 0.29941 0.19907 0.0
O283 O 0.2964 0.25919 0.21961 0.0
C284 C 0.32631 0.33425 0.23858 0.0
C285 C 0.28273 0.33567 0.30238 0.0
O286 O 0.25884 0.29414 0.19401 0.0
O287 O 0.22825 0.30604 0.22728 0.0
O288 O 0.30122 0.33776 0.22282 0.0
O289 O 0.32205 0.31292 0.25378 0.0
O290 O 0.26415 0.32817 0.27897 0.0
O291 O 0.31045 0.32353 0.30672 0.0
C292 C 0.37907 0.27673 0.32305 0.0
O293 O 0.35106 0.27883 0.33 0.0
O294 O 0.38 0.27852 0.29486 0.0
C295 C 0.28116 0.24935 0.28636 0.0
Tb296 Tb 0.79656 0.26744 0.2702 0.0
C297 C 0.8599 0.23757 0.25054 0.0
Tb298 Tb 0.83165 0.29699 0.22702 0.0
O299 O 0.76393 0.24973 0.23534 0.0
O300 O 0.80811 0.25676 0.22607 0.0
O301 O 0.83861 0.23949 0.27014 0.0
C302 C 0.85364 0.32209 0.18252 0.0
O303 O 0.85983 0.25602 0.22943 0.0
C304 C 0.8467 0.31177 0.28273 0.0
C305 C 0.76811 0.32596 0.24592 0.0
O306 O 0.85893 0.33031 0.2102 0.0
O307 O 0.83582 0.29949 0.17967 0.0
O308 O 0.86569 0.31008 0.26214 0.0
O309 O 0.82045 0.30735 0.27124 0.0
O310 O 0.78813 0.32273 0.22521 0.0
O311 O 0.76967 0.30887 0.26802 0.0
C312 C 0.77628 0.2517 0.32006 0.0
O313 O 0.76315 0.24628 0.29404 0.0
O314 O 0.80154 0.26477 0.31774 0.0
C315 C 0.78252 0.24971 0.21446 0.0
Tb316 Tb 0.79867 0.80714 0.23244 0.0
C317 C 0.77328 0.80058 0.29411 0.0
Tb318 Tb 0.8256 0.75344 0.26943 0.0
O319 O 0.75891 0.78243 0.21177 0.0
O320 O 0.78955 0.76336 0.23992 0.0
O321 O 0.77591 0.81866 0.27301 0.0
C322 C 0.82704 0.70199 0.29381 0.0
O323 O 0.7885 0.77432 0.29526 0.0
C324 C 0.85994 0.80161 0.27666 0.0
C325 C 0.85251 0.76226 0.20861 0.0
O326 O 0.83497 0.72767 0.30712 0.0
O327 O 0.81904 0.70508 0.26641 0.0
O328 O 0.86646 0.77685 0.28878 0.0
O329 O 0.83496 0.79746 0.26226 0.0
O330 O 0.84917 0.74294 0.22855 0.0
O331 O 0.83769 0.78869 0.20885 0.0
C332 C 0.79508 0.8558 0.20375 0.0
O333 O 0.79146 0.82854 0.19206 0.0
O334 O 0.79989 0.85592 0.23212 0.0
C335 C 0.76552 0.75814 0.22452 0.0
Tb336 Tb 0.34362 0.81197 0.22537 0.0
C337 C 0.36641 0.74974 0.24453 0.0
Tb338 Tb 0.31528 0.79016 0.27795 0.0
O339 O 0.38759 0.814 0.24958 0.0
O340 O 0.34801 0.8214 0.27175 0.0
O341 O 0.36374 0.76657 0.22204 0.0
C342 C 0.30832 0.76952 0.32967 0.0
O343 O 0.35127 0.75625 0.26863 0.0
C344 C 0.28186 0.78176 0.22919 0.0
C345 C 0.2885 0.84948 0.25534 0.0
O346 O 0.29581 0.75891 0.30465 0.0
O347 O 0.32427 0.79228 0.32571 0.0
O348 O 0.2713 0.78413 0.25518 0.0
O349 O 0.31061 0.7802 0.23135 0.0
O350 O 0.29221 0.83418 0.27887 0.0
O351 O 0.30429 0.8427 0.23168 0.0
C352 C 0.35808 0.83769 0.17818 0.0
O353 O 0.36201 0.8489 0.20525 0.0
O354 O 0.3459 0.81166 0.17748 0.0
C355 C 0.37645 0.81814 0.27521 0.0
Tb356 Tb 0.26687 0.74119 0.77507 0.0
C357 C 0.33552 0.71634 0.76889 0.0
Tb358 Tb 0.30933 0.77243 0.73724 0.0
O359 O 0.24151 0.722 0.73548 0.0
O360 O 0.28703 0.73124 0.73432 0.0
O361 O 0.31015 0.71623 0.78329 0.0
C362 C 0.33892 0.79274 0.69386 0.0
O363 O 0.33879 0.7344 0.74795 0.0
C364 C 0.31198 0.78998 0.79383 0.0
C365 C 0.24227 0.79988 0.74662 0.0
O366 O 0.34119 0.80282 0.72143 0.0
O367 O 0.31948 0.77148 0.69058 0.0
O368 O 0.33461 0.79099 0.7772 0.0
O369 O 0.2892 0.78198 0.77771 0.0
O370 O 0.26598 0.79777 0.72969 0.0
O371 O 0.23988 0.78195 0.76783 0.0
C372 C 0.23827 0.72291 0.81995 0.0
O373 O 0.23086 0.7165 0.79221 0.0
O374 O 0.26221 0.73907 0.82235 0.0
C375 C 0.26389 0.72311 0.71859 0.0
Tb376 Tb 0.29174 0.2928 0.72704 0.0
C377 C 0.26759 0.29706 0.79014 0.0
Tb378 Tb 0.32053 0.24886 0.77108 0.0
O379 O 0.25238 0.26652 0.70993 0.0
O380 O 0.28347 0.25023 0.74006 0.0
O381 O 0.26819 0.31024 0.76541 0.0
C382 C 0.33315 0.20981 0.81078 0.0
O383 O 0.28414 0.2725 0.7956 0.0
C384 C 0.35393 0.2945 0.76246 0.0
C385 C 0.34394 0.24538 0.70827 0.0
O386 O 0.31966 0.20337 0.78495 0.0
O387 O 0.33909 0.23809 0.81416 0.0
O388 O 0.36483 0.26916 0.77061 0.0
O389 O 0.32537 0.29414 0.76235 0.0
O390 O 0.33993 0.22945 0.73064 0.0
O391 O 0.33044 0.27187 0.70536 0.0
C392 C 0.28661 0.33649 0.69151 0.0
O393 O 0.28556 0.30808 0.68328 0.0
O394 O 0.28976 0.3405 0.71999 0.0
C395 C 0.25944 0.24375 0.72478 0.0
Tb396 Tb 0.81598 0.2853 0.7332 0.0
C397 C 0.83941 0.2217 0.7534 0.0
Tb398 Tb 0.7919 0.26423 0.78828 0.0
O399 O 0.84814 0.31503 0.7596 0.0
O400 O 0.83388 0.27672 0.77532 0.0
O401 O 0.83608 0.23937 0.73149 0.0
C402 C 0.78614 0.26111 0.8453 0.0
O403 O 0.82654 0.22879 0.77884 0.0
C404 C 0.7606 0.24716 0.73942 0.0
C405 C 0.76814 0.32757 0.76818 0.0
O406 O 0.77408 0.24296 0.82423 0.0
O407 O 0.80083 0.28124 0.83409 0.0
O408 O 0.76151 0.23268 0.76278 0.0
O409 O 0.77383 0.27159 0.7457 0.0
O410 O 0.77022 0.30931 0.78948 0.0
O411 O 0.78206 0.32115 0.74327 0.0
C412 C 0.82322 0.29364 0.67713 0.0
O413 O 0.83495 0.30968 0.69987 0.0
O414 O 0.80833 0.27223 0.68605 0.0
C415 C 0.84856 0.29992 0.78246 0.0
Tb416 Tb 0.81266 0.74569 0.71711 0.0
C417 C 0.84131 0.76197 0.78094 0.0
Tb418 Tb 0.78513 0.80138 0.75536 0.0
O419 O 0.84977 0.76893 0.6997 0.0
O420 O 0.82014 0.79168 0.72683 0.0
O421 O 0.84052 0.74175 0.75761 0.0
C422 C 0.77825 0.85184 0.79112 0.0
O423 O 0.82327 0.78637 0.78341 0.0
C424 C 0.7519 0.75325 0.74958 0.0
C425 C 0.75823 0.78555 0.69146 0.0
O426 O 0.77297 0.82497 0.79735 0.0
O427 O 0.7869 0.85042 0.76433 0.0
O428 O 0.74138 0.78043 0.75581 0.0
O429 O 0.78061 0.75378 0.75032 0.0
O430 O 0.76426 0.80806 0.71195 0.0
O431 O 0.77136 0.75847 0.69213 0.0
C432 C 0.82275 0.69371 0.68494 0.0
O433 O 0.82011 0.71988 0.67523 0.0
O434 O 0.81948 0.6965 0.71316 0.0
C435 C 0.84296 0.79512 0.71257 0.0
H436 H 0.11592 0.13988 0.27266 0.0
H437 H 0.18738 0.09501 0.3217 0.0
H438 H 0.15012 0.1806 0.26715 0.0
H439 H 0.22119 0.13498 0.31604 0.0
H440 H 0.2662 0.22187 0.33242 0.0
H441 H 0.2277 0.18548 0.33505 0.0
H442 H 0.19686 0.19596 0.24515 0.0
H443 H 0.23564 0.23383 0.24292 0.0
C444 C 0.13888 0.13855 0.28216 0.0
C445 C 0.14855 0.11421 0.29813 0.0
C446 C 0.15856 0.16191 0.27891 0.0
C447 C 0.18843 0.16155 0.29155 0.0
C448 C 0.19817 0.13672 0.3067 0.0
C449 C 0.17863 0.1136 0.31002 0.0
C450 C 0.25102 0.21678 0.31322 0.0
C451 C 0.25417 0.23066 0.28741 0.0
C452 C 0.229 0.19557 0.31464 0.0
C453 C 0.20948 0.18694 0.2901 0.0
C454 C 0.21151 0.20191 0.26451 0.0
C455 C 0.23367 0.22364 0.26318 0.0
H456 H 0.99537 0.08902 0.21766 0.0
H457 H 0.99848 0.11549 0.31112 0.0
H458 H 0.9551 0.12758 0.21041 0.0
H459 H 0.95937 0.1533 0.30391 0.0
H460 H 0.86695 0.19471 0.28926 0.0
H461 H 0.90543 0.15474 0.29106 0.0
H462 H 0.94491 0.18389 0.21522 0.0
H463 H 0.90588 0.22389 0.21304 0.0
C464 C 0.98765 0.103 0.23655 0.0
C465 C 1.00007 0.09882 0.26497 0.0
C466 C 0.96466 0.12512 0.23243 0.0
C467 C 0.95361 0.14326 0.25667 0.0
C468 C 0.96666 0.13935 0.2848 0.0
C469 C 0.98939 0.11759 0.28887 0.0
C470 C 0.88372 0.1927 0.27288 0.0
C471 C 0.88337 0.21287 0.25122 0.0
C472 C 0.9059 0.16973 0.27394 0.0
C473 C 0.92852 0.16619 0.25343 0.0
C474 C 0.92777 0.18582 0.23124 0.0
C475 C 0.90551 0.20893 0.23019 0.0
H476 H 0.97706 0.95061 0.24888 0.0
H477 H 0.98689 0.94004 0.34183 0.0
H478 H 0.94086 0.91041 0.24225 0.0
H479 H 0.94999 0.90121 0.33538 0.0
H480 H 0.9104 0.81006 0.31238 0.0
H481 H 0.94516 0.85102 0.31683 0.0
H482 H 0.89077 0.89413 0.25044 0.0
H483 H 0.85641 0.85189 0.24526 0.0
C484 C 0.97164 0.93994 0.26798 0.0
C485 C 0.98546 0.94894 0.29595 0.0
C486 C 0.95045 0.91694 0.26418 0.0
C487 C 0.94237 0.90211 0.28819 0.0
C488 C 0.95584 0.91147 0.31613 0.0
C489 C 0.97699 0.93427 0.31992 0.0
C490 C 0.9057 0.82828 0.29872 0.0
C491 C 0.88018 0.82782 0.2788 0.0
C492 C 0.92564 0.85207 0.30145 0.0
C493 C 0.92083 0.87647 0.28438 0.0
C494 C 0.89543 0.87586 0.26402 0.0
C495 C 0.87539 0.85181 0.26127 0.0
H496 H 0.17498 1.00818 0.22313 0.0
H497 H 0.11306 0.94712 0.25301 0.0
H498 H 0.21614 0.97112 0.22757 0.0
H499 H 0.15437 0.90968 0.25706 0.0
H500 H 0.24295 0.8644 0.29331 0.0
H501 H 0.20083 0.90076 0.28765 0.0
H502 H 0.23558 0.9235 0.20689 0.0
H503 H 0.27764 0.88784 0.21273 0.0
C504 C 0.16997 0.98663 0.23015 0.0
C505 C 0.14054 0.98074 0.23761 0.0
C506 C 0.19368 0.96527 0.2327 0.0
C507 C 0.18879 0.93734 0.24291 0.0
C508 C 0.15916 0.93108 0.24958 0.0
C509 C 0.13533 0.95244 0.24687 0.0
C510 C 0.24179 0.8774 0.27453 0.0
C511 C 0.26395 0.87318 0.25362 0.0
C512 C 0.2174 0.89804 0.27108 0.0
C513 C 0.21461 0.91512 0.24672 0.0
C514 C 0.23702 0.91109 0.22609 0.0
C515 C 0.26122 0.89047 0.22945 0.0
H516 H 0.15897 0.97523 0.72205 0.0
H517 H 0.08972 0.93184 0.76299 0.0
H518 H 0.19306 0.93198 0.72664 0.0
H519 H 0.12337 0.88751 0.76652 0.0
H520 H 0.20005 0.81923 0.78612 0.0
H521 H 0.16695 0.86367 0.78666 0.0
H522 H 0.20036 0.88361 0.70423 0.0
H523 H 0.23448 0.83969 0.7044 0.0
C524 C 0.15124 0.95649 0.73253 0.0
C525 C 0.12178 0.95705 0.74241 0.0
C526 C 0.17063 0.93137 0.7347 0.0
C527 C 0.16096 0.90565 0.74627 0.0
C528 C 0.13187 0.90681 0.75756 0.0
C529 C 0.11253 0.9323 0.75576 0.0
C530 C 0.20026 0.83293 0.76793 0.0
C531 C 0.2201 0.82571 0.74516 0.0
C532 C 0.18108 0.85855 0.76824 0.0
C533 C 0.1809 0.87771 0.74567 0.0
C534 C 0.20023 0.87 0.72248 0.0
C535 C 0.21966 0.84452 0.72234 0.0
H536 H 0.1477 0.09347 0.66042 0.0
H537 H 0.1301 0.10693 0.75259 0.0
H538 H 0.18619 0.13112 0.66798 0.0
H539 H 0.16915 0.14469 0.76016 0.0
H540 H 0.25961 0.19859 0.76274 0.0
H541 H 0.22578 0.15554 0.75847 0.0
H542 H 0.18323 0.18569 0.67869 0.0
H543 H 0.21641 0.22782 0.68292 0.0
C544 C 0.15189 0.10443 0.68233 0.0
C545 C 0.13513 0.09728 0.70572 0.0
C546 C 0.17418 0.12605 0.68671 0.0
C547 C 0.18065 0.14129 0.71464 0.0
C548 C 0.16494 0.13331 0.73838 0.0
C549 C 0.14243 0.11164 0.73398 0.0
C550 C 0.24318 0.1957 0.74423 0.0
C551 C 0.24084 0.21655 0.72309 0.0
C552 C 0.22366 0.17122 0.74186 0.0
C553 C 0.20187 0.16692 0.71805 0.0
C554 C 0.19995 0.18782 0.69703 0.0
C555 C 0.21897 0.21219 0.69958 0.0
H556 H 0.99464 0.09636 0.77971 0.0
H557 H 0.95192 0.06736 0.69485 0.0
H558 H 0.95411 0.13508 0.78713 0.0
H559 H 0.91194 0.10508 0.70228 0.0
H560 H 0.86964 0.19888 0.70527 0.0
H561 H 0.9082 0.15879 0.70222 0.0
H562 H 0.89878 0.14555 0.79331 0.0
H563 H 0.8603 0.18612 0.79654 0.0
C564 C 0.97645 0.09788 0.76293 0.0
C565 C 0.97683 0.07901 0.73654 0.0
C566 C 0.95322 0.12006 0.76711 0.0
C567 C 0.93001 0.12368 0.74499 0.0
C568 C 0.92979 0.10365 0.71943 0.0
C569 C 0.95277 0.0818 0.71527 0.0
C570 C 0.87555 0.18737 0.72464 0.0
C571 C 0.86155 0.19575 0.75106 0.0
C572 C 0.8977 0.16423 0.72289 0.0
C573 C 0.90663 0.14871 0.74751 0.0
C574 C 0.89269 0.15709 0.77399 0.0
C575 C 0.87036 0.1802 0.77571 0.0
H576 H 0.95299 0.93044 0.65055 0.0
H577 H 0.97211 0.93872 0.74459 0.0
H578 H 0.91415 0.89464 0.6557 0.0
H579 H 0.93309 0.9028 0.74971 0.0
H580 H 0.84492 0.84881 0.74877 0.0
H581 H 0.87804 0.89108 0.7447 0.0
H582 H 0.9148 0.84348 0.66757 0.0
H583 H 0.88197 0.80222 0.67147 0.0
C584 C 0.94904 0.92464 0.67235 0.0
C585 C 0.96618 0.93739 0.69705 0.0
C586 C 0.92661 0.90408 0.67534 0.0
C587 C 0.92055 0.89549 0.70313 0.0
C588 C 0.93687 0.90902 0.72799 0.0
C589 C 0.95938 0.92965 0.725 0.0
C590 C 0.85974 0.84778 0.73075 0.0
C591 C 0.86063 0.82229 0.71032 0.0
C592 C 0.87894 0.87181 0.72853 0.0
C593 C 0.89906 0.87088 0.70564 0.0
C594 C 0.89936 0.84543 0.68515 0.0
C595 C 0.88057 0.82158 0.68752 0.0
H596 H 0.2713 0.1454 0.06905 0.0
H597 H 0.33575 0.08164 0.10443 0.0
H598 H 0.28442 0.18193 0.11009 0.0
H599 H 0.34975 0.11886 0.14522 0.0
H600 H 0.3319 0.18664 0.22993 0.0
H601 H 0.32825 0.14651 0.18948 0.0
H602 H 0.32751 0.21263 0.12682 0.0
H603 H 0.33021 0.25236 0.16714 0.0
C604 C 0.28814 0.13906 0.08566 0.0
C605 C 0.30251 0.11057 0.08334 0.0
C606 C 0.29605 0.16021 0.10899 0.0
C607 C 0.31857 0.15347 0.13061 0.0
C608 C 0.33243 0.12474 0.12882 0.0
C609 C 0.32452 0.10352 0.10537 0.0
C610 C 0.33218 0.19228 0.20747 0.0
C611 C 0.33155 0.22233 0.20141 0.0
C612 C 0.32989 0.16943 0.18434 0.0
C613 C 0.3269 0.17652 0.15499 0.0
C614 C 0.32902 0.20653 0.14919 0.0
C615 C 0.33103 0.22922 0.17219 0.0
H616 H 0.96641 0.33076 0.04061 0.0
H617 H 0.96013 0.42395 0.07455 0.0
H618 H 0.9279 0.31899 0.07245 0.0
H619 H 0.92098 0.41209 0.10666 0.0
H620 H 0.84772 0.30515 0.12345 0.0
H621 H 0.87591 0.32373 0.08496 0.0
H622 H 0.92094 0.38594 0.1501 0.0
H623 H 0.89226 0.36797 0.18808 0.0
C624 C 0.95625 0.34899 0.05426 0.0
C625 C 0.9665 0.3784 0.055 0.0
C626 C 0.93401 0.34217 0.07261 0.0
C627 C 0.92134 0.36455 0.09221 0.0
C628 C 0.9306 0.39422 0.09211 0.0
C629 C 0.953 0.40105 0.07374 0.0
C630 C 0.86331 0.32311 0.12932 0.0
C631 C 0.86805 0.33497 0.15868 0.0
C632 C 0.87955 0.33368 0.10737 0.0
C633 C 0.90086 0.35622 0.11445 0.0
C634 C 0.90448 0.36888 0.14373 0.0
C635 C 0.88823 0.35839 0.16558 0.0
H636 H 0.87285 0.93861 0.06966 0.0
H637 H 0.8285 0.01508 0.11557 0.0
H638 H 0.85771 0.90697 0.10627 0.0
H639 H 0.81303 0.98322 0.15216 0.0
H640 H 0.81741 0.91092 0.22299 0.0
H641 H 0.83488 0.94778 0.19193 0.0
H642 H 0.80314 0.89245 0.1144 0.0
H643 H 0.78563 0.85607 0.14508 0.0
C644 C 0.86049 0.94878 0.08794 0.0
C645 C 0.85155 0.97919 0.08963 0.0
C646 C 0.85158 0.93065 0.1087 0.0
C647 C 0.83381 0.94267 0.13166 0.0
C648 C 0.82663 0.97347 0.13458 0.0
C649 C 0.83532 0.99158 0.11361 0.0
C650 C 0.81358 0.90712 0.19934 0.0
C651 C 0.80031 0.88071 0.18634 0.0
C652 C 0.8237 0.92803 0.18165 0.0
C653 C 0.8209 0.92249 0.15087 0.0
C654 C 0.80616 0.89685 0.13808 0.0
C655 C 0.79589 0.87621 0.15565 0.0
H656 H 0.13704 0.73688 0.09726 0.0
H657 H 0.15561 0.82971 0.09036 0.0
H658 H 0.18132 0.73282 0.13096 0.0
H659 H 0.19972 0.82577 0.12494 0.0
H660 H 0.2897 0.80083 0.17485 0.0
H661 H 0.25187 0.80027 0.1331 0.0
H662 H 0.19065 0.75476 0.18232 0.0
H663 H 0.22813 0.75538 0.22343 0.0
C664 C 0.15074 0.75636 0.10259 0.0
C665 C 0.14255 0.7837 0.09118 0.0
C666 C 0.17606 0.75405 0.1221 0.0
C667 C 0.19394 0.779 0.1307 0.0
C668 C 0.18651 0.80609 0.11853 0.0
C669 C 0.161 0.80845 0.09905 0.0
C670 C 0.26851 0.79003 0.17625 0.0
C671 C 0.26196 0.77785 0.20214 0.0
C672 C 0.24671 0.79003 0.15259 0.0
C673 C 0.21831 0.77738 0.15441 0.0
C674 C 0.21241 0.7643 0.18001 0.0
C675 C 0.23387 0.76474 0.20361 0.0
H676 H 0.33138 0.92293 0.94436 0.0
H677 H 0.24456 0.93933 0.8988 0.0
H678 H 0.33702 0.87573 0.91491 0.0
H679 H 0.25123 0.89247 0.86816 0.0
H680 H 0.26195 0.7998 0.82545 0.0
H681 H 0.2545 0.83831 0.8659 0.0
H682 H 0.34802 0.86249 0.86442 0.0
H683 H 0.35563 0.82333 0.82458 0.0
C684 C 0.31323 0.91659 0.92837 0.0
C685 C 0.28757 0.93555 0.92388 0.0
C686 C 0.31672 0.88942 0.91121 0.0
C687 C 0.29481 0.88047 0.88897 0.0
C688 C 0.2685 0.89861 0.88528 0.0
C689 C 0.26487 0.92577 0.9026 0.0
C690 C 0.28112 0.81279 0.83433 0.0
C691 C 0.30934 0.80878 0.82178 0.0
C692 C 0.27675 0.83505 0.8573 0.0
C693 C 0.3005 0.85376 0.86807 0.0
C694 C 0.32928 0.84834 0.85678 0.0
C695 C 0.33367 0.82597 0.83388 0.0
H696 H 0.17012 0.34375 0.94923 0.0
H697 H 0.1234 0.39402 0.88366 0.0
H698 H 0.20776 0.32589 0.91433 0.0
H699 H 0.16011 0.37538 0.84822 0.0
H700 H 0.24282 0.35394 0.79589 0.0
H701 H 0.20973 0.37598 0.83326 0.0
H702 H 0.21256 0.29199 0.87249 0.0
H703 H 0.24671 0.27048 0.8359 0.0
C704 C 0.16802 0.351 0.9273 0.0
C705 C 0.1439 0.37026 0.91915 0.0
C706 C 0.18941 0.3406 0.90718 0.0
C707 C 0.18692 0.34885 0.87821 0.0
C708 C 0.16314 0.36882 0.87037 0.0
C709 C 0.14201 0.37955 0.89067 0.0
C710 C 0.23641 0.3402 0.81255 0.0
C711 C 0.2474 0.31043 0.81288 0.0
C712 C 0.21728 0.35282 0.83395 0.0
C713 C 0.2083 0.33585 0.85602 0.0
C714 C 0.21938 0.30603 0.85628 0.0
C715 C 0.23884 0.29356 0.83512 0.0
H716 H 0.88507 0.15811 0.95079 0.0
H717 H 0.80228 0.16147 -0.00368 0.0
H718 H 0.86768 0.20257 0.92703 0.0
H719 H 0.78488 0.20566 0.97253 0.0
H720 H 0.75352 0.22397 0.87331 0.0
H721 H 0.77039 0.20078 0.91765 0.0
H722 H 0.84784 0.25754 0.92939 0.0
H723 H 0.83051 0.28124 0.88519 0.0
C724 C 0.8637 0.16894 0.95651 0.0
C725 C 0.84467 0.15585 0.97469 0.0
C726 C 0.85377 0.19447 0.94306 0.0
C727 C 0.82472 0.20718 0.94769 0.0
C728 C 0.80718 0.19601 0.96835 0.0
C729 C 0.81709 0.17059 0.98176 0.0
C730 C 0.77342 0.23232 0.88607 0.0
C731 C 0.79092 0.25402 0.87582 0.0
C732 C 0.78307 0.21917 0.9115 0.0
C733 C 0.8106 0.22723 0.92671 0.0
C734 C 0.82663 0.25091 0.91793 0.0
C735 C 0.81663 0.26449 0.89276 0.0
H736 H 0.94482 0.75175 0.94912 0.0
H737 H 1.00271 0.79114 0.89195 0.0
H738 H 0.9067 0.74323 0.90826 0.0
H739 H 0.96471 0.78251 0.85106 0.0
H740 H 0.89887 0.73721 0.77889 0.0
H741 H 0.93801 0.73799 0.81947 0.0
H742 H 0.87367 0.77993 0.87895 0.0
H743 H 0.83496 0.77961 0.83863 0.0
C744 C 0.94946 0.75833 0.92775 0.0
C745 C 0.9766 0.77229 0.92375 0.0
C746 C 0.92767 0.75354 0.90443 0.0
C747 C 0.93282 0.76211 0.87649 0.0
C748 C 0.96028 0.77542 0.8723 0.0
C749 C 0.98184 0.78067 0.89575 0.0
C750 C 0.89305 0.7461 0.80075 0.0
C751 C 0.86393 0.7584 0.80562 0.0
C752 C 0.91544 0.74675 0.82387 0.0
C753 C 0.90884 0.75908 0.85231 0.0
C754 C 0.87934 0.77011 0.85733 0.0
C755 C 0.85724 0.77002 0.83421 0.0
H756 H 0.06102 0.29811 0.08805 0.0
H757 H 0.13213 0.31504 0.03191 0.0
H758 H 0.09872 0.29132 0.12824 0.0
H759 H 0.16963 0.30927 0.07219 0.0
H760 H 0.23433 0.27687 0.14237 0.0
H761 H 0.19539 0.27629 0.1025 0.0
H762 H 0.13198 0.31959 0.16244 0.0
H763 H 0.17107 0.319 0.20278 0.0
C764 C 0.08472 0.3001 0.08415 0.0
C765 C 0.09347 0.3071 0.05664 0.0
C766 C 0.10636 0.29653 0.10737 0.0
C767 C 0.13736 0.29998 0.10375 0.0
C768 C 0.14611 0.30601 0.07588 0.0
C769 C 0.12451 0.30939 0.05265 0.0
C770 C 0.212 0.28611 0.1471 0.0
C771 C 0.20579 0.29816 0.17568 0.0
C772 C 0.18965 0.28597 0.12413 0.0
C773 C 0.16045 0.2982 0.12895 0.0
C774 C 0.15405 0.30968 0.15782 0.0
C775 C 0.17647 0.30954 0.18097 0.0
H776 H 0.0837 0.71672 0.92415 0.0
H777 H 0.15829 0.72008 -0.01072 0.0
H778 H 0.1191 0.70834 0.88515 0.0
H779 H 0.19396 0.71013 0.95064 0.0
H780 H 0.24609 0.74439 0.87752 0.0
H781 H 0.21292 0.73919 0.91698 0.0
H782 H 0.15596 0.68135 0.8577 0.0
H783 H 0.18877 0.68779 0.81787 0.0
C784 C 0.10766 0.71404 0.93011 0.0
C785 C 0.11828 0.71844 0.95968 0.0
C786 C 0.1281 0.70941 0.90775 0.0
C787 C 0.15966 0.70903 0.91451 0.0
C788 C 0.16997 0.71103 0.94438 0.0
C789 C 0.14954 0.71611 0.96664 0.0
C790 C 0.2267 0.73025 0.87304 0.0
C791 C 0.21999 0.71659 0.84459 0.0
C792 C 0.20767 0.72703 0.89578 0.0
C793 C 0.18151 0.70977 0.89079 0.0
C794 C 0.17552 0.69518 0.86243 0.0
C795 C 0.19446 0.69867 0.8396 0.0
H796 H 0.36035 0.13753 0.97761 0.0
H797 H 0.36079 0.05762 0.9167 0.0
H798 H 0.35798 0.16827 0.93682 0.0
H799 H 0.35964 0.08853 0.87564 0.0
H800 H 0.31344 0.15288 0.81196 0.0
H801 H 0.32392 0.11967 0.85089 0.0
H802 H 0.382 0.18587 0.89806 0.0
H803 H 0.37031 0.21932 0.85986 0.0
C804 C 0.36075 0.12646 0.95551 0.0
C805 C 0.3605 0.09507 0.95048 0.0
C806 C 0.35949 0.14417 0.93199 0.0
C807 C 0.3583 0.13098 0.90277 0.0
C808 C 0.35985 0.09951 0.89779 0.0
C809 C 0.36086 0.08176 0.92137 0.0
C810 C 0.32852 0.16015 0.83064 0.0
C811 C 0.3408 0.18873 0.83311 0.0
C812 C 0.33477 0.14107 0.85287 0.0
C813 C 0.35372 0.15008 0.87784 0.0
C814 C 0.36681 0.17835 0.87957 0.0
C815 C 0.36023 0.19751 0.85759 0.0
H816 H 0.98682 0.35645 0.91934 0.0
H817 H 0.98205 0.26119 0.92416 0.0
H818 H 0.9471 0.35428 0.88045 0.0
H819 H 0.94351 0.25836 0.88351 0.0
H820 H 0.85628 0.26446 0.8276 0.0
H821 H 0.89424 0.2676 0.86823 0.0
H822 H 0.93383 0.3418 0.83219 0.0
H823 H 0.89382 0.34021 0.79313 0.0
C824 C 0.97761 0.33484 0.91165 0.0
C825 C 0.98772 0.30894 0.92479 0.0
C826 C 0.95483 0.33353 0.88906 0.0
C827 C 0.94186 0.30612 0.87831 0.0
C828 C 0.95231 0.28007 0.89134 0.0
C829 C 0.97468 0.28154 0.91454 0.0
C830 C 0.87259 0.28198 0.82883 0.0
C831 C 0.87155 0.30257 0.80751 0.0
C832 C 0.89493 0.2834 0.8519 0.0
C833 C 0.91754 0.30491 0.85385 0.0
C834 C 0.91659 0.32531 0.83215 0.0
C835 C 0.89372 0.32434 0.80949 0.0
H836 H 0.76605 0.98607 0.94409 0.0
H837 H 0.84788 1.00151 0.90183 0.0
H838 H 0.7518 0.94846 0.90353 0.0
H839 H 0.83405 0.96392 0.86198 0.0
H840 H 0.76278 0.85576 0.84804 0.0
H841 H 0.76864 0.89821 0.88533 0.0
H842 H 0.7998 0.9514 0.82009 0.0
H843 H 0.79449 0.90856 0.78293 0.0
C844 C 0.78085 0.98167 0.92608 0.0
C845 C 0.80818 0.99675 0.92635 0.0
C846 C 0.77279 0.95998 0.90291 0.0
C847 C 0.79178 0.95304 0.87941 0.0
C848 C 0.81861 0.96886 0.87938 0.0
C849 C 0.82668 0.99034 0.90248 0.0
C850 C 0.77051 0.87666 0.84159 0.0
C851 C 0.77835 0.8788 0.81261 0.0
C852 C 0.7737 0.9011 0.86296 0.0
C853 C 0.78489 0.92828 0.85587 0.0
C854 C 0.79156 0.9307 0.82649 0.0
C855 C 0.78834 0.90624 0.80512 0.0
H856 H 0.939 0.76105 0.04438 0.0
H857 H 1.0092 0.72138 0.09908 0.0
H858 H 0.90327 0.75879 0.08224 0.0
H859 H 0.9734 0.72009 0.13803 0.0
H860 H 0.89016 0.71172 0.19681 0.0
H861 H 0.92517 0.70247 0.15684 0.0
H862 H 0.89955 0.78903 0.12778 0.0
H863 H 0.86497 0.79795 0.16638 0.0
C864 C 0.94666 0.75136 0.06443 0.0
C865 C 0.97694 0.74154 0.06877 0.0
C866 C 0.92623 0.75031 0.08633 0.0
C867 C 0.93555 0.74003 0.11366 0.0
C868 C 0.96538 0.72819 0.11733 0.0
C869 C 0.9859 0.72885 0.095 0.0
C870 C 0.89197 0.72865 0.18176 0.0
C871 C 0.87433 0.75547 0.1849 0.0
C872 C 0.91214 0.72339 0.15891 0.0
C873 C 0.91489 0.74475 0.13863 0.0
C874 C 0.89758 0.77161 0.14228 0.0
C875 C 0.8777 0.77682 0.16483 0.0
H876 H 0.29522 0.94085 0.04501 0.0
H877 H 0.38602 0.9738 0.05804 0.0
H878 H 0.30904 0.90079 0.0755 0.0
H879 H 0.40012 0.93304 0.08899 0.0
H880 H 0.34042 0.82244 0.12056 0.0
H881 H 0.34004 0.8547 0.08037 0.0
H882 H 0.3848 0.92309 0.13877 0.0
H883 H 0.38549 0.89077 0.17861 0.0
C884 C 0.31832 0.93933 0.0542 0.0
C885 C 0.33945 0.96072 0.0495 0.0
C886 C 0.32635 0.91606 0.0714 0.0
C887 C 0.35569 0.91365 0.08461 0.0
C888 C 0.37728 0.93442 0.07912 0.0
C889 C 0.36928 0.95766 0.06143 0.0
C890 C 0.35083 0.84406 0.12451 0.0
C891 C 0.36261 0.85434 0.15269 0.0
C892 C 0.35055 0.86255 0.10159 0.0
C893 C 0.3621 0.89157 0.10651 0.0
C894 C 0.37594 0.90082 0.13419 0.0
C895 C 0.37611 0.88239 0.15708 0.0
H896 H 0.77052 0.08756 0.10005 0.0
H897 H 0.80904 0.14801 0.0461 0.0
H898 H 0.75881 0.12987 0.13619 0.0
H899 H 0.79661 0.19036 0.08131 0.0
H900 H 0.82302 0.24022 0.17213 0.0
H901 H 0.82099 0.20369 0.1293 0.0
H902 H 0.73217 0.17847 0.15029 0.0
H903 H 0.73434 0.21536 0.19355 0.0
C904 C 0.77512 0.11009 0.09532 0.0
C905 C 0.79015 0.11475 0.07016 0.0
C906 C 0.76856 0.13433 0.116 0.0
C907 C 0.77715 0.16351 0.11184 0.0
C908 C 0.7901 0.16819 0.08546 0.0
C909 C 0.7968 0.14404 0.06503 0.0
C910 C 0.80275 0.22742 0.16727 0.0
C911 C 0.77886 0.23072 0.1862 0.0
C912 C 0.80151 0.20645 0.14262 0.0
C913 C 0.77637 0.18808 0.13626 0.0
C914 C 0.75193 0.19211 0.15465 0.0
C915 C 0.7531 0.21336 0.1793 0.0
H916 H 0.61795 0.61944 0.76887 0.0
H917 H 0.64449 0.59931 0.67981 0.0
H918 H 0.65526 0.65864 0.77692 0.0
H919 H 0.68184 0.63871 0.68785 0.0
H920 H 0.7651 0.69557 0.72527 0.0
H921 H 0.73104 0.65307 0.71794 0.0
H922 H 0.66029 0.7087 0.75791 0.0
H923 H 0.69401 0.75082 0.76477 0.0
C924 C 0.63192 0.62314 0.75107 0.0
C925 C 0.62803 0.60619 0.72364 0.0
C926 C 0.65321 0.6458 0.75562 0.0
C927 C 0.67156 0.65194 0.73301 0.0
C928 C 0.66826 0.63449 0.7058 0.0
C929 C 0.64662 0.61208 0.70111 0.0
C930 C 0.74241 0.69857 0.73262 0.0
C931 C 0.73244 0.72655 0.74574 0.0
C932 C 0.72277 0.67431 0.72827 0.0
C933 C 0.6929 0.67738 0.7375 0.0
C934 C 0.68318 0.70534 0.75086 0.0
C935 C 0.70255 0.72957 0.75468 0.0
H936 H 0.4405 0.55212 0.75617 0.0
H937 H 0.50894 0.61502 0.78833 0.0
H938 H 0.40103 0.59078 0.76507 0.0
H939 H 0.46929 0.65424 0.79697 0.0
H940 H 0.39462 0.71829 0.75512 0.0
H941 H 0.43506 0.68056 0.7608 0.0
H942 H 0.37437 0.62627 0.80151 0.0
H943 H 0.3337 0.66426 0.79599 0.0
C944 C 0.44698 0.57405 0.76615 0.0
C945 C 0.47774 0.58045 0.77196 0.0
C946 C 0.42435 0.59626 0.77119 0.0
C947 C 0.43191 0.62574 0.78156 0.0
C948 C 0.46268 0.6318 0.78882 0.0
C949 C 0.48538 0.60929 0.78426 0.0
C950 C 0.38988 0.69848 0.76559 0.0
C951 C 0.36072 0.69429 0.77487 0.0
C952 C 0.41324 0.67693 0.7691 0.0
C953 C 0.40807 0.65033 0.78164 0.0
C954 C 0.37912 0.64645 0.79166 0.0
C955 C 0.35582 0.66827 0.78855 0.0
H956 H 0.49729 0.42204 0.76434 0.0
H957 H 0.43836 0.44351 0.69018 0.0
H958 H 0.4631 0.38301 0.77401 0.0
H959 H 0.40398 0.40448 0.69995 0.0
H960 H 0.33641 0.35247 0.7521 0.0
H961 H 0.36876 0.39255 0.74061 0.0
H962 H 0.4471 0.3329 0.7474 0.0
H963 H 0.41471 0.29273 0.75753 0.0
C964 C 0.47693 0.41858 0.75022 0.0
C965 C 0.47066 0.4359 0.72644 0.0
C966 C 0.45743 0.39606 0.75563 0.0
C967 C 0.43082 0.39055 0.73771 0.0
C968 C 0.4242 0.40823 0.71424 0.0
C969 C 0.44402 0.43042 0.70851 0.0
C970 C 0.36037 0.34775 0.75038 0.0
C971 C 0.37283 0.31926 0.75526 0.0
C972 C 0.37898 0.37076 0.74406 0.0
C973 C 0.41057 0.36598 0.74322 0.0
C974 C 0.42294 0.33747 0.74818 0.0
C975 C 0.40432 0.31442 0.75393 0.0
H976 H 0.63137 0.4489 0.70841 0.0
H977 H 0.62464 0.46932 0.80203 0.0
H978 H 0.67312 0.41431 0.71694 0.0
H979 H 0.6678 0.43425 0.81072 0.0
H980 H 0.72294 0.34052 0.80682 0.0
H981 H 0.68333 0.38005 0.8052 0.0
H982 H 0.72528 0.41417 0.73311 0.0
H983 H 0.76407 0.37445 0.73417 0.0
C984 C 0.63891 0.44624 0.731 0.0
C985 C 0.6245 0.46222 0.75454 0.0
C986 C 0.66326 0.42638 0.73587 0.0
C987 C 0.67438 0.42169 0.76451 0.0
C988 C 0.65986 0.43731 0.78832 0.0
C989 C 0.63521 0.45748 0.78338 0.0
C990 C 0.72392 0.35672 0.79088 0.0
C991 C 0.74653 0.35395 0.77032 0.0
C992 C 0.70122 0.37949 0.79004 0.0
C993 C 0.70066 0.40008 0.76867 0.0
C994 C 0.7244 0.3983 0.74938 0.0
C995 C 0.74684 0.37553 0.75008 0.0
H996 H 0.66834 0.49329 0.22048 0.0
H997 H 0.60857 0.44688 0.27005 0.0
H998 H 0.70696 0.45376 0.22506 0.0
H999 H 0.64679 0.40619 0.27371 0.0
H1000 H 0.7308 0.34558 0.28988 0.0
H1001 H 0.69458 0.38776 0.29166 0.0
H1002 H 0.71572 0.40477 0.20402 0.0
H1003 H 0.75281 0.36324 0.20274 0.0
C1004 C 0.66375 0.47476 0.2329 0.0
C1005 C 0.6356 0.47327 0.24515 0.0
C1006 C 0.68571 0.45177 0.23511 0.0
C1007 C 0.67992 0.42619 0.2491 0.0
C1008 C 0.65225 0.4255 0.26283 0.0
C1009 C 0.63034 0.44889 0.26096 0.0
C1010 C 0.72773 0.35827 0.27091 0.0
C1011 C 0.7449 0.35094 0.24614 0.0
C1012 C 0.70676 0.3825 0.27193 0.0
C1013 C 0.70216 0.40006 0.24813 0.0
C1014 C 0.71902 0.39236 0.22315 0.0
C1015 C 0.74018 0.36827 0.22224 0.0
H1016 H 0.61467 0.64185 0.17488 0.0
H1017 H 0.66885 0.58977 0.23399 0.0
H1018 H 0.65122 0.68126 0.18209 0.0
H1019 H 0.70684 0.62857 0.24022 0.0
H1020 H 0.75788 0.71699 0.26458 0.0
H1021 H 0.72253 0.67572 0.2594 0.0
H1022 H 0.69681 0.69634 0.1707 0.0
H1023 H 0.73053 0.73814 0.17686 0.0
C1024 C 0.63477 0.63862 0.18909 0.0
C1025 C 0.63886 0.61249 0.20364 0.0
C1026 C 0.65607 0.66125 0.19316 0.0
C1027 C 0.68274 0.65835 0.21143 0.0
C1028 C 0.68669 0.63213 0.22619 0.0
C1029 C 0.66494 0.60968 0.22254 0.0
C1030 C 0.74484 0.71233 0.24394 0.0
C1031 C 0.74701 0.73082 0.22112 0.0
C1032 C 0.72444 0.68861 0.24086 0.0
C1033 C 0.70599 0.68255 0.21471 0.0
C1034 C 0.70946 0.70053 0.1916 0.0
C1035 C 0.72923 0.72445 0.19494 0.0
H1036 H 0.47349 0.58466 0.27414 0.0
H1037 H 0.52035 0.62738 0.21064 0.0
H1038 H 0.4365 0.62687 0.2774 0.0
H1039 H 0.48462 0.66988 0.21455 0.0
H1040 H 0.39706 0.72256 0.19804 0.0
H1041 H 0.43458 0.68138 0.19861 0.0
H1042 H 0.42485 0.67818 0.29159 0.0
H1043 H 0.38667 0.71851 0.29073 0.0
C1044 C 0.47644 0.60357 0.2617 0.0
C1045 C 0.49985 0.6029 0.24231 0.0
C1046 C 0.45518 0.62774 0.26336 0.0
C1047 C 0.45706 0.65174 0.24577 0.0
C1048 C 0.4817 0.65157 0.22777 0.0
C1049 C 0.50255 0.6274 0.22587 0.0
C1050 C 0.40279 0.71296 0.21855 0.0
C1051 C 0.3886 0.72386 0.24422 0.0
C1052 C 0.42459 0.68944 0.21901 0.0
C1053 C 0.43315 0.67638 0.24526 0.0
C1054 C 0.41874 0.68723 0.27088 0.0
C1055 C 0.39678 0.71053 0.27035 0.0
H1056 H 0.45942 0.43877 0.16734 0.0
H1057 H 0.48747 0.44848 0.25971 0.0
H1058 H 0.42003 0.40548 0.177 0.0
H1059 H 0.44705 0.41552 0.26953 0.0
H1060 H 0.38371 0.33148 0.26811 0.0
H1061 H 0.42728 0.36271 0.26178 0.0
H1062 H 0.37237 0.411 0.1997 0.0
H1063 H 0.32991 0.3802 0.20568 0.0
C1064 C 0.4574 0.43378 0.18975 0.0
C1065 C 0.47688 0.4467 0.21266 0.0
C1066 C 0.43445 0.41476 0.19539 0.0
C1067 C 0.42995 0.40786 0.22415 0.0
C1068 C 0.44979 0.42015 0.24709 0.0
C1069 C 0.47282 0.4394 0.24145 0.0
C1070 C 0.3811 0.34883 0.25322 0.0
C1071 C 0.35331 0.35308 0.23725 0.0
C1072 C 0.40601 0.36682 0.24962 0.0
C1073 C 0.40364 0.38922 0.22981 0.0
C1074 C 0.37553 0.39365 0.21458 0.0
C1075 C 0.35095 0.37597 0.21821 0.0
H1076 H 0.84272 0.51116 0.59699 0.0
H1077 H 0.82212 0.5712 0.52973 0.0
H1078 H 0.84541 0.55406 0.63427 0.0
H1079 H 0.82343 0.61358 0.5667 0.0
H1080 H 0.8482 0.68845 0.63268 0.0
H1081 H 0.85442 0.64379 0.59885 0.0
H1082 H 0.81446 0.59123 0.65988 0.0
H1083 H 0.80991 0.63618 0.69459 0.0
C1084 C 0.83892 0.53349 0.59013 0.0
C1085 C 0.83232 0.53772 0.56034 0.0
C1086 C 0.84019 0.55809 0.61155 0.0
C1087 C 0.83467 0.58744 0.60365 0.0
C1088 C 0.82849 0.5915 0.57373 0.0
C1089 C 0.82755 0.56706 0.5524 0.0
C1090 C 0.84106 0.66726 0.63899 0.0
C1091 C 0.82837 0.66573 0.66609 0.0
C1092 C 0.84439 0.64164 0.61948 0.0
C1093 C 0.8344 0.61384 0.62623 0.0
C1094 C 0.82263 0.61214 0.65394 0.0
C1095 C 0.81985 0.63786 0.67381 0.0
H1096 H 0.44891 0.88434 0.57863 0.0
H1097 H 0.46644 0.7897 0.55728 0.0
H1098 H 0.41249 0.87299 0.61383 0.0
H1099 H 0.43063 0.77839 0.59265 0.0
H1100 H 0.34248 0.76761 0.6372 0.0
H1101 H 0.37604 0.78101 0.60031 0.0
H1102 H 0.41181 0.85207 0.66177 0.0
H1103 H 0.37818 0.83869 0.69851 0.0
C1104 C 0.445 0.86115 0.58141 0.0
C1105 C 0.46083 0.838 0.5652 0.0
C1106 C 0.42427 0.85461 0.60174 0.0
C1107 C 0.41854 0.82474 0.60612 0.0
C1108 C 0.43419 0.80163 0.5897 0.0
C1109 C 0.45509 0.80816 0.56963 0.0
C1110 C 0.35734 0.78625 0.6427 0.0
C1111 C 0.35769 0.80209 0.67075 0.0
C1112 C 0.37674 0.79382 0.62164 0.0
C1113 C 0.39679 0.81758 0.62805 0.0
C1114 C 0.39653 0.83385 0.65593 0.0
C1115 C 0.37732 0.82611 0.67705 0.0
H1116 H 0.36759 0.45949 0.58829 0.0
H1117 H 0.27661 0.4512 0.54923 0.0
H1118 H 0.35554 0.42678 0.6257 0.0
H1119 H 0.26454 0.41896 0.58646 0.0
H1120 H 0.27175 0.33164 0.63315 0.0
H1121 H 0.28209 0.36691 0.59797 0.0
H1122 H 0.31979 0.42777 0.66872 0.0
H1123 H 0.30918 0.39235 0.70412 0.0
C1124 C 0.34513 0.45059 0.5877 0.0
C1125 C 0.32302 0.45785 0.56599 0.0
C1126 C 0.33814 0.43223 0.6092 0.0
C1127 C 0.30908 0.42051 0.60895 0.0
C1128 C 0.28712 0.42764 0.58709 0.0
C1129 C 0.29398 0.4462 0.56592 0.0
C1130 C 0.28179 0.35277 0.64121 0.0
C1131 C 0.28947 0.35949 0.67125 0.0
C1132 C 0.28772 0.3729 0.62112 0.0
C1133 C 0.30182 0.39996 0.63068 0.0
C1134 C 0.3091 0.40693 0.66083 0.0
C1135 C 0.30274 0.3869 0.68105 0.0
H1136 H 0.63426 0.26311 0.58821 0.0
H1137 H 0.62966 0.16995 0.60241 0.0
H1138 H 0.67231 0.27042 0.62822 0.0
H1139 H 0.67032 0.17604 0.641 0.0
H1140 H 0.72085 0.20171 0.72906 0.0
H1141 H 0.68438 0.19246 0.68756 0.0
H1142 H 0.71915 0.26682 0.64756 0.0
H1143 H 0.75237 0.27809 0.69089 0.0
C1144 C 0.64227 0.24391 0.59947 0.0
C1145 C 0.62935 0.21591 0.59209 0.0
C1146 C 0.66443 0.24796 0.62245 0.0
C1147 C 0.67512 0.22385 0.63826 0.0
C1148 C 0.66257 0.19548 0.63008 0.0
C1149 C 0.63951 0.19172 0.60763 0.0
C1150 C 0.72052 0.21608 0.71135 0.0
C1151 C 0.73986 0.24038 0.71309 0.0
C1152 C 0.69976 0.21057 0.68718 0.0
C1153 C 0.69832 0.22876 0.66362 0.0
C1154 C 0.71855 0.25257 0.66523 0.0
C1155 C 0.7384 0.25871 0.6899 0.0
H1156 H 0.87816 0.45221 0.41621 0.0
H1157 H 0.8527 0.38273 0.46791 0.0
H1158 H 0.88197 0.41538 0.3734 0.0
H1159 H 0.85553 0.34603 0.42472 0.0
H1160 H 0.9003 0.33395 0.30628 0.0
H1161 H 0.90981 0.36229 0.35434 0.0
H1162 H 0.81777 0.34941 0.37526 0.0
H1163 H 0.80776 0.32244 0.32682 0.0
C1164 C 0.87443 0.42887 0.41863 0.0
C1165 C 0.86537 0.42023 0.44534 0.0
C1166 C 0.87653 0.40784 0.39417 0.0
C1167 C 0.86885 0.37799 0.39583 0.0
C1168 C 0.86156 0.36895 0.42299 0.0
C1169 C 0.86024 0.38986 0.4477 0.0
C1170 C 0.88222 0.33686 0.3213 0.0
C1171 C 0.85332 0.32584 0.31288 0.0
C1172 C 0.88772 0.35299 0.34875 0.0
C1173 C 0.86461 0.35771 0.36849 0.0
C1174 C 0.8361 0.34561 0.36058 0.0
C1175 C 0.83039 0.33014 0.33288 0.0
H1176 H 0.64032 0.88803 0.41289 0.0
H1177 H 0.63593 0.79307 0.42076 0.0
H1178 H 0.68064 0.87804 0.37911 0.0
H1179 H 0.67485 0.78314 0.38602 0.0
H1180 H 0.76498 0.77394 0.3444 0.0
H1181 H 0.72698 0.78629 0.38018 0.0
H1182 H 0.69168 0.85846 0.33075 0.0
H1183 H 0.7304 0.84669 0.29544 0.0
C1184 C 0.64776 0.86502 0.40752 0.0
C1185 C 0.63447 0.84148 0.41991 0.0
C1186 C 0.67081 0.85924 0.38776 0.0
C1187 C 0.6813 0.82972 0.37967 0.0
C1188 C 0.66792 0.80623 0.39195 0.0
C1189 C 0.64504 0.81198 0.41176 0.0
C1190 C 0.74926 0.79258 0.34118 0.0
C1191 C 0.75089 0.80923 0.31685 0.0
C1192 C 0.72719 0.79956 0.36168 0.0
C1193 C 0.70583 0.82328 0.35843 0.0
C1194 C 0.70782 0.84027 0.33435 0.0
C1195 C 0.73005 0.8334 0.31392 0.0
H1196 H 0.382 0.63728 0.43287 0.0
H1197 H 0.28934 0.64397 0.45843 0.0
H1198 H 0.3735 0.68307 0.40833 0.0
H1199 H 0.28144 0.68984 0.43495 0.0
H1200 H 0.26981 0.72836 0.34315 0.0
H1201 H 0.27796 0.69408 0.38112 0.0
H1202 H 0.36 0.73899 0.41305 0.0
H1203 H 0.35157 0.77363 0.37487 0.0
C1204 C 0.36006 0.64868 0.43373 0.0
C1205 C 0.3363 0.63648 0.44724 0.0
C1206 C 0.35531 0.67513 0.42002 0.0
C1207 C 0.3267 0.68981 0.41954 0.0
C1208 C 0.30363 0.67879 0.43475 0.0
C1209 C 0.30833 0.65247 0.44842 0.0
C1210 C 0.2891 0.73142 0.35881 0.0
C1211 C 0.31005 0.7535 0.35619 0.0
C1212 C 0.29376 0.71188 0.3806 0.0
C1213 C 0.31969 0.71383 0.39997 0.0
C1214 C 0.33992 0.73695 0.3983 0.0
C1215 C 0.33497 0.75686 0.37667 0.0
H1216 H 0.55207 0.22249 0.41016 0.0
H1217 H 0.4937 0.25102 0.48038 0.0
H1218 H 0.51054 0.23118 0.37405 0.0
H1219 H 0.4529 0.26139 0.44468 0.0
H1220 H 0.37578 0.25675 0.37652 0.0
H1221 H 0.41677 0.24289 0.41064 0.0
H1222 H 0.48182 0.268 0.35141 0.0
H1223 H 0.4402 0.28006 0.31628 0.0
C1224 C 0.5303 0.23045 0.41789 0.0
C1225 C 0.52621 0.23582 0.4482 0.0
C1226 C 0.50652 0.23585 0.39716 0.0
C1227 C 0.47812 0.24724 0.40617 0.0
C1228 C 0.47404 0.25207 0.43659 0.0
C1229 C 0.4976 0.24617 0.45725 0.0
C1230 C 0.39886 0.25934 0.37078 0.0
C1231 C 0.40478 0.26967 0.3438 0.0
C1232 C 0.42252 0.25155 0.39052 0.0
C1233 C 0.45294 0.25448 0.3842 0.0
C1234 C 0.45883 0.26493 0.35705 0.0
C1235 C 0.435 0.27217 0.33696 0.0
H1236 H 0.59583 0.84406 0.59501 0.0
H1237 H 0.6306 0.77148 0.53629 0.0
H1238 H 0.63711 0.83574 0.63099 0.0
H1239 H 0.67302 0.76371 0.57202 0.0
H1240 H 0.73032 0.7419 0.65474 0.0
H1241 H 0.6884 0.74752 0.61869 0.0
H1242 H 0.68942 0.84369 0.6387 0.0
H1243 H 0.73074 0.83794 0.67568 0.0
C1244 C 0.61238 0.82622 0.58982 0.0
C1245 C 0.61006 0.80848 0.56279 0.0
C1246 C 0.63629 0.82165 0.61036 0.0
C1247 C 0.65887 0.79945 0.6043 0.0
C1248 C 0.656 0.78094 0.57757 0.0
C1249 C 0.6317 0.78532 0.55706 0.0
C1250 C 0.72176 0.76432 0.65139 0.0
C1251 C 0.73391 0.78952 0.66823 0.0
C1252 C 0.69771 0.76752 0.63053 0.0
C1253 C 0.68527 0.79602 0.62578 0.0
C1254 C 0.69792 0.82129 0.64217 0.0
C1255 C 0.72181 0.81806 0.66326 0.0
H1256 H 0.67213 0.32824 0.46092 0.0
H1257 H 0.65574 0.23381 0.45982 0.0
H1258 H 0.70956 0.31663 0.42372 0.0
H1259 H 0.69316 0.22234 0.4235 0.0
H1260 H 0.72458 0.22365 0.32816 0.0
H1261 H 0.6935 0.23169 0.37061 0.0
H1262 H 0.76081 0.28961 0.41581 0.0
H1263 H 0.79205 0.28139 0.37326 0.0
C1264 C 0.67676 0.30508 0.45301 0.0
C1265 C 0.66111 0.28201 0.46347 0.0
C1266 C 0.6983 0.2984 0.43196 0.0
C1267 C 0.70423 0.26855 0.42077 0.0
C1268 C 0.68897 0.24553 0.43164 0.0
C1269 C 0.66773 0.25215 0.45274 0.0
C1270 C 0.73305 0.23748 0.34745 0.0
C1271 C 0.76069 0.25178 0.34754 0.0
C1272 C 0.71527 0.24214 0.37172 0.0
C1273 C 0.72467 0.26147 0.39641 0.0
C1274 C 0.75292 0.27485 0.39694 0.0
C1275 C 0.77091 0.26986 0.37277 0.0
H1276 H 0.8363 0.55517 0.4046 0.0
H1277 H 0.74101 0.56986 0.38157 0.0
H1278 H 0.84876 0.59256 0.37283 0.0
H1279 H 0.75385 0.60691 0.34897 0.0
H1280 H 0.79351 0.65341 0.27424 0.0
H1281 H 0.78228 0.61152 0.3021 0.0
H1282 H 0.83965 0.6488 0.37539 0.0
H1283 H 0.8506 0.69058 0.34775 0.0
C1284 C 0.81791 0.56639 0.39296 0.0
C1285 C 0.78752 0.55972 0.39619 0.0
C1286 C 0.82516 0.58772 0.37454 0.0
C1287 C 0.80228 0.60272 0.35858 0.0
C1288 C 0.77196 0.59546 0.36088 0.0
C1289 C 0.76463 0.57425 0.37959 0.0
C1290 C 0.80405 0.65229 0.29613 0.0
C1291 C 0.82304 0.67503 0.30887 0.0
C1292 C 0.79741 0.62855 0.31212 0.0
C1293 C 0.81008 0.62698 0.34088 0.0
C1294 C 0.8298 0.64931 0.35317 0.0
C1295 C 0.83604 0.67321 0.3374 0.0
H1296 H 0.52031 0.78407 0.40427 0.0
H1297 H 0.44005 0.77587 0.4517 0.0
H1298 H 0.48886 0.78975 0.35961 0.0
H1299 H 0.40853 0.78096 0.40669 0.0
H1300 H 0.36532 0.83619 0.33259 0.0
H1301 H 0.39447 0.82214 0.37674 0.0
H1302 H 0.45463 0.76652 0.32213 0.0
H1303 H 0.42589 0.78098 0.27839 0.0
C1304 C 0.49599 0.78271 0.40505 0.0
C1305 C 0.48277 0.77978 0.43172 0.0
C1306 C 0.47788 0.78595 0.37935 0.0
C1307 C 0.44609 0.78626 0.37961 0.0
C1308 C 0.43291 0.78148 0.40586 0.0
C1309 C 0.45104 0.77822 0.4316 0.0
C1310 C 0.38463 0.82078 0.33019 0.0
C1311 C 0.39334 0.80969 0.30217 0.0
C1312 C 0.40126 0.8126 0.35541 0.0
C1313 C 0.42697 0.79319 0.35301 0.0
C1314 C 0.43528 0.78183 0.32484 0.0
C1315 C 0.41879 0.79012 0.29976 0.0
H1316 H 0.23916 0.44217 0.46411 0.0
H1317 H 0.26458 0.50514 0.40499 0.0
H1318 H 0.23877 0.40235 0.42382 0.0
H1319 H 0.26384 0.46513 0.36463 0.0
H1320 H 0.24355 0.3838 0.29545 0.0
H1321 H 0.23054 0.42433 0.33318 0.0
H1322 H 0.28623 0.38043 0.39798 0.0
H1323 H 0.29958 0.34056 0.36057 0.0
C1324 C 0.24386 0.44776 0.44239 0.0
C1325 C 0.25229 0.47681 0.43789 0.0
C1326 C 0.24376 0.42487 0.41936 0.0
C1327 C 0.25161 0.4306 0.39122 0.0
C1328 C 0.25761 0.46012 0.38609 0.0
C1329 C 0.25812 0.48298 0.40925 0.0
C1330 C 0.2527 0.38274 0.31784 0.0
C1331 C 0.27269 0.35912 0.32506 0.0
C1332 C 0.24534 0.40593 0.33934 0.0
C1333 C 0.25724 0.40539 0.3685 0.0
C1334 C 0.27643 0.38126 0.37578 0.0
C1335 C 0.28426 0.35855 0.35428 0.0
H1336 H 0.46889 0.24537 0.56905 0.0
H1337 H 0.51358 0.28115 0.65093 0.0
H1338 H 0.42739 0.22958 0.59568 0.0
H1339 H 0.47127 0.26656 0.67747 0.0
H1340 H 0.40039 0.22209 0.72179 0.0
H1341 H 0.44457 0.2239 0.69234 0.0
H1342 H 0.38656 0.25484 0.62127 0.0
H1343 H 0.34284 0.25255 0.65041 0.0
C1344 C 0.46998 0.24978 0.59274 0.0
C1345 C 0.49466 0.26462 0.60778 0.0
C1346 C 0.44604 0.24086 0.60801 0.0
C1347 C 0.44603 0.24668 0.63872 0.0
C1348 C 0.4708 0.26127 0.65385 0.0
C1349 C 0.49483 0.27014 0.63856 0.0
C1350 C 0.39706 0.22797 0.6994 0.0
C1351 C 0.36827 0.23703 0.68825 0.0
C1352 C 0.42236 0.22955 0.68273 0.0
C1353 C 0.41915 0.23995 0.65462 0.0
C1354 C 0.38991 0.24654 0.64271 0.0
C1355 C 0.3648 0.24518 0.65938 0.0
H1356 H 0.8242 0.39126 0.52273 0.0
H1357 H 0.73269 0.39276 0.55088 0.0
H1358 H 0.83873 0.35271 0.55494 0.0
H1359 H 0.74763 0.3543 0.58378 0.0
H1360 H 0.78121 0.27616 0.63338 0.0
H1361 H 0.76826 0.30106 0.58876 0.0
H1362 H 0.84369 0.35928 0.61011 0.0
H1363 H 0.85634 0.33467 0.65466 0.0
C1364 C 0.80687 0.38286 0.5351 0.0
C1365 C 0.77721 0.39543 0.53438 0.0
C1366 C 0.81538 0.36086 0.55381 0.0
C1367 C 0.79444 0.35076 0.57209 0.0
C1368 C 0.76424 0.36159 0.56982 0.0
C1369 C 0.75574 0.38378 0.55119 0.0
C1370 C 0.7955 0.2937 0.62802 0.0
C1371 C 0.81975 0.3036 0.64739 0.0
C1372 C 0.78794 0.30807 0.60266 0.0
C1373 C 0.80486 0.33218 0.59606 0.0
C1374 C 0.83039 0.34058 0.61445 0.0
C1375 C 0.83764 0.32655 0.63998 0.0
H1376 H 0.2463 0.61291 0.54735 0.0
H1377 H 0.32883 0.58757 0.59546 0.0
H1378 H 0.23526 0.65135 0.58781 0.0
H1379 H 0.31777 0.62502 0.63535 0.0
H1380 H 0.31313 0.71318 0.68609 0.0
H1381 H 0.31798 0.67951 0.64164 0.0
H1382 H 0.2235 0.65853 0.64162 0.0
H1383 H 0.21835 0.69347 0.68586 0.0
C1384 C 0.2618 0.61527 0.56664 0.0
C1385 C 0.28862 0.59754 0.56807 0.0
C1386 C 0.25554 0.63725 0.58972 0.0
C1387 C 0.27604 0.6417 0.61444 0.0
C1388 C 0.30199 0.62286 0.61625 0.0
C1389 C 0.30823 0.60121 0.59339 0.0
C1390 C 0.29317 0.70206 0.67623 0.0
C1391 C 0.2654 0.70591 0.68949 0.0
C1392 C 0.29602 0.68246 0.65092 0.0
C1393 C 0.27126 0.66588 0.63845 0.0
C1394 C 0.24297 0.67098 0.65071 0.0
C1395 C 0.24007 0.69086 0.67607 0.0
loop_
_geom_bond_atom_site_label_1
_geom_bond_atom_site_label_2
_geom_bond_distance
_geom_bond_site_symmetry_2
_ccdc_geom_bond_type
Cu0 N1 1.999 . S
Cu0 O6 1.980 . S
Cu0 N11 1.985 1_445 S
Cu0 O20 1.959 1_455 S
N1 Cu0 1.999 . S
N1 C3 1.263 . S
N1 C5 1.389 . S
N2 C3 1.358 . S
N2 C4 1.400 . S
C3 N1 1.263 . S
C3 N2 1.358 . S
C3 H9 0.930 . S
C4 N2 1.400 . S
C4 C5 1.351 . S
C4 H21 0.930 . S
C5 N1 1.389 . S
C5 C4 1.351 . S
C5 H10 0.930 . S
O6 Cu0 1.980 . S
O6 C16 1.279 1_545 S
C7 O8 1.261 . S
C7 O20 1.251 . S
O8 C7 1.261 . S
H9 C3 0.930 . S
H10 C5 0.930 . S
N11 Cu0 1.985 1_665 S
N11 C13 1.335 . S
N11 C14 1.390 . S
N12 C13 1.345 . S
N12 C15 1.336 . S
C13 N11 1.335 . S
C13 N12 1.345 . S
C13 H18 0.930 1_565 S
C14 N11 1.390 . S
C14 C15 1.346 . S
C14 H19 0.930 1_655 S
C15 N12 1.336 . S
C15 C14 1.346 . S
C15 H22 0.929 . S
C16 O6 1.279 1_565 S
C16 O17 1.216 . S
O17 C16 1.216 . S
H18 C13 0.930 1_545 S
H19 C14 0.930 1_455 S
O20 Cu0 1.959 1_655 S
O20 C7 1.251 . S
H21 C4 0.930 . S
H22 C15 0.929 . S
Cu23 N24 1.999 1_445 S
Cu23 O29 1.974 1_455 S
Cu23 N34 1.985 . S
Cu23 O43 1.959 1_545 S
N24 Cu23 1.999 1_665 S
N24 C26 1.263 . S
N24 C28 1.389 . S
N25 C26 1.358 . S
N25 C27 1.400 . S
C26 N24 1.263 . S
C26 N25 1.358 . S
C26 H32 0.930 . S
C27 N25 1.400 . S
C27 C28 1.351 . S
C27 H44 0.930 . S
C28 N24 1.389 . S
C28 C27 1.351 . S
C28 H33 0.930 1_655 S
O29 Cu23 1.974 1_655 S
O29 C39 1.282 . S
C30 O31 1.261 . S
C30 O43 1.251 . S
O31 C30 1.261 . S
H32 C26 0.930 . S
H33 C28 0.930 1_455 S
N34 Cu23 1.985 . S
N34 C36 1.335 . S
N34 C37 1.390 . S
N35 C36 1.345 . S
N35 C38 1.336 . S
C36 N34 1.335 . S
C36 N35 1.345 . S
C36 H41 0.930 . S
C37 N34 1.390 . S
C37 C38 1.346 . S
C37 H42 0.930 . S
C38 N35 1.336 . S
C38 C37 1.346 . S
C38 H45 0.929 . S
C39 O29 1.282 . S
C39 O40 1.216 . S
O40 C39 1.216 . S
H41 C36 0.930 . S
H42 C37 0.930 . S
O43 Cu23 1.959 1_565 S
O43 C30 1.251 . S
H44 C27 0.930 . S
H45 C38 0.929 . S
Cu46 N47 1.994 1_544 S
Cu46 O52 1.967 1_545 S
Cu46 N57 1.990 . S
Cu46 O66 1.966 1_554 S
N47 Cu46 1.994 1_566 S
N47 C49 1.263 . S
N47 C51 1.389 . S
N48 C49 1.358 . S
N48 C50 1.400 . S
C49 N47 1.263 . S
C49 N48 1.358 . S
C49 H55 0.930 . S
C50 N48 1.400 . S
C50 C51 1.351 . S
C50 H67 0.930 . S
C51 N47 1.389 . S
C51 C50 1.351 . S
C51 H56 0.930 . S
O52 Cu46 1.967 1_565 S
O52 C62 1.282 . S
C53 O54 1.261 . S
C53 O66 1.251 . S
O54 C53 1.261 . S
H55 C49 0.930 . S
H56 C51 0.930 . S
N57 Cu46 1.990 . S
N57 C59 1.335 . S
N57 C60 1.390 . S
N58 C59 1.345 . S
N58 C61 1.336 . S
C59 N57 1.335 . S
C59 N58 1.345 . S
C59 H64 0.930 . S
C60 N57 1.390 . S
C60 C61 1.346 . S
C60 H65 0.930 . S
C61 N58 1.336 . S
C61 C60 1.346 . S
C61 H68 0.929 . S
C62 O52 1.282 . S
C62 O63 1.216 . S
O63 C62 1.216 . S
H64 C59 0.930 . S
H65 C60 0.930 . S
O66 Cu46 1.966 1_556 S
O66 C53 1.251 . S
H67 C50 0.930 . S
H68 C61 0.929 . S
Cu69 N70 1.999 1_554 S
Cu69 O75 1.974 . S
Cu69 N80 1.985 1_455 S
Cu69 O89 1.959 1_454 S
N70 Cu69 1.999 1_556 S
N70 C72 1.263 . S
N70 C74 1.389 . S
N71 C72 1.358 . S
N71 C73 1.400 . S
C72 N70 1.263 . S
C72 N71 1.358 . S
C72 H78 0.930 . S
C73 N71 1.400 . S
C73 C74 1.351 . S
C73 H90 0.930 . S
C74 N70 1.389 . S
C74 C73 1.351 . S
C74 H79 0.930 . S
O75 Cu69 1.974 . S
O75 C85 1.282 . S
C76 O77 1.261 . S
C76 O89 1.251 . S
O77 C76 1.261 . S
H78 C72 0.930 . S
H79 C74 0.930 . S
N80 Cu69 1.985 1_655 S
N80 C82 1.335 . S
N80 C83 1.390 . S
N81 C82 1.345 . S
N81 C84 1.336 . S
C82 N80 1.335 . S
C82 N81 1.345 . S
C82 H87 0.930 . S
C83 N80 1.390 . S
C83 C84 1.346 . S
C83 H88 0.930 1_655 S
C84 N81 1.336 . S
C84 C83 1.346 . S
C84 H91 0.929 . S
C85 O75 1.282 . S
C85 O86 1.216 . S
O86 C85 1.216 . S
H87 C82 0.930 . S
H88 C83 0.930 1_455 S
O89 Cu69 1.959 1_656 S
O89 C76 1.251 . S
H90 C73 0.930 . S
H91 C84 0.929 . S
Cu92 N93 1.999 1_554 S
Cu92 O98 1.974 . S
Cu92 N103 1.985 . S
Cu92 O112 1.959 1_554 S
N93 Cu92 1.999 1_556 S
N93 C95 1.263 . S
N93 C97 1.389 . S
N94 C95 1.358 . S
N94 C96 1.400 . S
C95 N93 1.263 . S
C95 N94 1.358 . S
C95 H101 0.930 1_556 S
C96 N94 1.400 . S
C96 C97 1.351 . S
C96 H113 0.930 . S
C97 N93 1.389 . S
C97 C96 1.351 . S
C97 H102 0.930 . S
O98 Cu92 1.974 . S
O98 C108 1.282 . S
C99 O100 1.261 . S
C99 O112 1.251 . S
O100 C99 1.261 . S
H101 C95 0.930 1_554 S
H102 C97 0.930 . S
N103 Cu92 1.985 . S
N103 C105 1.335 1_545 S
N103 C106 1.390 . S
N104 C105 1.345 . S
N104 C107 1.336 1_565 S
C105 N103 1.335 1_565 S
C105 N104 1.345 . S
C105 H110 0.930 . S
C106 N103 1.390 . S
C106 C107 1.346 . S
C106 H111 0.930 . S
C107 N104 1.336 1_545 S
C107 C106 1.346 . S
C107 H114 0.929 . S
C108 O98 1.282 . S
C108 O109 1.216 . S
O109 C108 1.216 . S
H110 C105 0.930 . S
H111 C106 0.930 . S
O112 Cu92 1.959 1_556 S
O112 C99 1.251 . S
H113 C96 0.930 . S
H114 C107 0.929 . S
Cu115 N116 1.999 1_454 S
Cu115 O121 1.974 1_455 S
Cu115 N126 1.985 . S
Cu115 O135 1.959 1_554 S
N116 Cu115 1.999 1_656 S
N116 C118 1.263 . S
N116 C120 1.389 . S
N117 C118 1.358 . S
N117 C119 1.400 . S
C118 N116 1.263 . S
C118 N117 1.358 . S
C118 H124 0.930 . S
C119 N117 1.400 . S
C119 C120 1.351 . S
C119 H136 0.930 . S
C120 N116 1.389 . S
C120 C119 1.351 . S
C120 H125 0.930 1_655 S
O121 Cu115 1.974 1_655 S
O121 C131 1.282 . S
C122 O123 1.261 . S
C122 O135 1.251 . S
O123 C122 1.261 . S
H124 C118 0.930 . S
H125 C120 0.930 1_455 S
N126 Cu115 1.985 . S
N126 C128 1.335 . S
N126 C129 1.390 . S
N127 C128 1.345 . S
N127 C130 1.336 . S
C128 N126 1.335 . S
C128 N127 1.345 . S
C128 H133 0.930 . S
C129 N126 1.390 . S
C129 C130 1.346 . S
C129 H134 0.930 . S
C130 N127 1.336 . S
C130 C129 1.346 . S
C130 H137 0.929 . S
C131 O121 1.282 . S
C131 O132 1.216 . S
O132 C131 1.216 . S
H133 C128 0.930 . S
H134 C129 0.930 . S
O135 Cu115 1.959 1_556 S
O135 C122 1.251 . S
H136 C119 0.930 . S
H137 C130 0.929 . S
Cu138 N139 1.999 . S
Cu138 O144 1.974 . S
Cu138 N149 1.985 . S
Cu138 O158 1.959 . S
N139 Cu138 1.999 . S
N139 C141 1.263 . S
N139 C143 1.389 . S
N140 C141 1.358 . S
N140 C142 1.400 . S
C141 N139 1.263 . S
C141 N140 1.358 . S
C141 H147 0.930 . S
C142 N140 1.400 . S
C142 C143 1.351 . S
C142 H159 0.930 . S
C143 N139 1.389 . S
C143 C142 1.351 . S
C143 H148 0.930 . S
O144 Cu138 1.974 . S
O144 C154 1.282 . S
C145 O146 1.261 . S
C145 O158 1.251 . S
O146 C145 1.261 . S
H147 C141 0.930 . S
H148 C143 0.930 . S
N149 Cu138 1.985 . S
N149 C151 1.335 . S
N149 C152 1.390 . S
N150 C151 1.345 . S
N150 C153 1.336 . S
C151 N149 1.335 . S
C151 N150 1.345 . S
C151 H156 0.930 . S
C152 N149 1.390 . S
C152 C153 1.346 . S
C152 H157 0.930 . S
C153 N150 1.336 . S
C153 C152 1.346 . S
C153 H160 0.929 . S
C154 O144 1.282 . S
C154 O155 1.216 . S
O155 C154 1.216 . S
H156 C151 0.930 . S
H157 C152 0.930 . S
O158 Cu138 1.959 . S
O158 C145 1.251 . S
H159 C142 0.930 . S
H160 C153 0.929 . S
Cu161 N162 1.999 . S
Cu161 O167 1.974 . S
Cu161 N172 1.985 . S
Cu161 O181 1.959 . S
N162 Cu161 1.999 . S
N162 C164 1.263 . S
N162 C166 1.389 . S
N163 C164 1.358 . S
N163 C165 1.400 . S
C164 N162 1.263 . S
C164 N163 1.358 . S
C164 H170 0.930 . S
C165 N163 1.400 . S
C165 C166 1.351 . S
C165 H182 0.930 . S
C166 N162 1.389 . S
C166 C165 1.351 . S
C166 H171 0.930 . S
O167 Cu161 1.974 . S
O167 C177 1.282 . S
C168 O169 1.261 . S
C168 O181 1.251 . S
O169 C168 1.261 . S
H170 C164 0.930 . S
H171 C166 0.930 . S
N172 Cu161 1.985 . S
N172 C174 1.335 . S
N172 C175 1.390 . S
N173 C174 1.345 . S
N173 C176 1.336 . S
C174 N172 1.335 . S
C174 N173 1.345 . S
C174 H179 0.930 . S
C175 N172 1.390 . S
C175 C176 1.346 . S
C175 H180 0.930 . S
C176 N173 1.336 . S
C176 C175 1.346 . S
C176 H183 0.929 . S
C177 O167 1.282 . S
C177 O178 1.216 . S
O178 C177 1.216 . S
H179 C174 0.930 . S
H180 C175 0.930 . S
O181 Cu161 1.959 . S
O181 C168 1.251 . S
H182 C165 0.930 . S
H183 C176 0.929 . S
Cu184 N185 1.999 . S
Cu184 O190 1.974 . S
Cu184 N195 1.985 . S
Cu184 O204 1.959 . S
N185 Cu184 1.999 . S
N185 C187 1.263 . S
N185 C189 1.389 . S
N186 C187 1.358 . S
N186 C188 1.400 . S
C187 N185 1.263 . S
C187 N186 1.358 . S
C187 H193 0.930 . S
C188 N186 1.400 . S
C188 C189 1.351 . S
C188 H205 0.930 . S
C189 N185 1.389 . S
C189 C188 1.351 . S
C189 H194 0.930 . S
O190 Cu184 1.974 . S
O190 C200 1.282 . S
C191 O192 1.261 . S
C191 O204 1.251 . S
O192 C191 1.261 . S
H193 C187 0.930 . S
H194 C189 0.930 . S
N195 Cu184 1.985 . S
N195 C197 1.335 . S
N195 C198 1.390 . S
N196 C197 1.345 . S
N196 C199 1.336 . S
C197 N195 1.335 . S
C197 N196 1.345 . S
C197 H202 0.930 . S
C198 N195 1.390 . S
C198 C199 1.346 . S
C198 H203 0.930 . S
C199 N196 1.336 . S
C199 C198 1.346 . S
C199 H206 0.929 . S
C200 O190 1.282 . S
C200 O201 1.216 . S
O201 C200 1.216 . S
H202 C197 0.930 . S
H203 C198 0.930 . S
O204 Cu184 1.959 . S
O204 C191 1.251 . S
H205 C188 0.930 . S
H206 C199 0.929 . S
Cu207 N208 1.999 . S
Cu207 O213 1.974 . S
Cu207 N218 1.985 . S
Cu207 O227 1.959 . S
N208 Cu207 1.999 . S
N208 C210 1.263 . S
N208 C212 1.389 . S
N209 C210 1.358 . S
N209 C211 1.400 . S
C210 N208 1.263 . S
C210 N209 1.358 . S
C210 H216 0.930 . S
C211 N209 1.400 . S
C211 C212 1.351 . S
C211 H228 0.930 . S
C212 N208 1.389 . S
C212 C211 1.351 . S
C212 H217 0.930 . S
O213 Cu207 1.974 . S
O213 C223 1.282 . S
C214 O215 1.261 . S
C214 O227 1.251 . S
O215 C214 1.261 . S
H216 C210 0.930 . S
H217 C212 0.930 . S
N218 Cu207 1.985 . S
N218 C220 1.335 . S
N218 C221 1.390 . S
N219 C220 1.345 . S
N219 C222 1.336 . S
C220 N218 1.335 . S
C220 N219 1.345 . S
C220 H225 0.930 . S
C221 N218 1.390 . S
C221 C222 1.346 . S
C221 H226 0.930 . S
C222 N219 1.336 . S
C222 C221 1.346 . S
C222 H229 0.929 . S
C223 O213 1.282 . S
C223 O224 1.216 . S
O224 C223 1.216 . S
H225 C220 0.930 . S
H226 C221 0.930 . S
O227 Cu207 1.959 . S
O227 C214 1.251 . S
H228 C211 0.930 . S
H229 C222 0.929 . S
Cu230 N231 1.999 . S
Cu230 O236 1.974 . S
Cu230 N241 1.985 . S
Cu230 O250 1.959 . S
N231 Cu230 1.999 . S
N231 C233 1.263 . S
N231 C235 1.389 . S
N232 C233 1.358 . S
N232 C234 1.400 . S
C233 N231 1.263 . S
C233 N232 1.358 . S
C233 H239 0.930 . S
C234 N232 1.400 . S
C234 C235 1.351 . S
C234 H251 0.930 . S
C235 N231 1.389 . S
C235 C234 1.351 . S
C235 H240 0.930 . S
O236 Cu230 1.974 . S
O236 C246 1.282 . S
C237 O238 1.261 . S
C237 O250 1.251 . S
O238 C237 1.261 . S
H239 C233 0.930 . S
H240 C235 0.930 . S
N241 Cu230 1.985 . S
N241 C243 1.335 . S
N241 C244 1.390 . S
N242 C243 1.345 . S
N242 C245 1.336 . S
C243 N241 1.335 . S
C243 N242 1.345 . S
C243 H248 0.930 . S
C244 N241 1.390 . S
C244 C245 1.346 . S
C244 H249 0.930 . S
C245 N242 1.336 . S
C245 C244 1.346 . S
C245 H252 0.929 . S
C246 O236 1.282 . S
C246 O247 1.216 . S
O247 C246 1.216 . S
H248 C243 0.930 . S
H249 C244 0.930 . S
O250 Cu230 1.959 . S
O250 C237 1.251 . S
H251 C234 0.930 . S
H252 C245 0.929 . S
Cu253 N254 1.999 . S
Cu253 O259 1.974 . S
Cu253 N264 1.985 . S
Cu253 O273 1.959 . S
N254 Cu253 1.999 . S
N254 C256 1.263 . S
N254 C258 1.389 . S
N255 C256 1.358 . S
N255 C257 1.400 . S
C256 N254 1.263 . S
C256 N255 1.358 . S
C256 H262 0.930 . S
C257 N255 1.400 . S
C257 C258 1.351 . S
C257 H274 0.930 . S
C258 N254 1.389 . S
C258 C257 1.351 . S
C258 H263 0.930 . S
O259 Cu253 1.974 . S
O259 C269 1.282 . S
C260 O261 1.261 . S
C260 O273 1.251 . S
O261 C260 1.261 . S
H262 C256 0.930 . S
H263 C258 0.930 . S
N264 Cu253 1.985 . S
N264 C266 1.335 . S
N264 C267 1.390 . S
N265 C266 1.345 . S
N265 C268 1.336 . S
C266 N264 1.335 . S
C266 N265 1.345 . S
C266 H271 0.930 . S
C267 N264 1.390 . S
C267 C268 1.346 . S
C267 H272 0.930 . S
C268 N265 1.336 . S
C268 C267 1.346 . S
C268 H275 0.929 . S
C269 O259 1.282 . S
C269 O270 1.216 . S
O270 C269 1.216 . S
H271 C266 0.930 . S
H272 C267 0.930 . S
O273 Cu253 1.959 . S
O273 C260 1.251 . S
H274 C257 0.930 . S
H275 C268 0.929 . S
Tb276 O279 2.453 . S
Tb276 O280 2.596 . S
Tb276 O281 2.374 . S
Tb276 O289 2.343 . S
Tb276 O291 2.353 . S
Tb276 O293 2.427 . S
Tb276 O294 2.513 . S
C277 O281 1.251 . S
C277 O283 1.263 . S
Tb278 O280 2.343 . S
Tb278 O283 2.353 . S
Tb278 O286 2.427 . S
Tb278 O287 2.513 . S
Tb278 O288 2.453 . S
Tb278 O289 2.596 . S
Tb278 O290 2.374 . S
O279 Tb276 2.453 . S
O279 C295 1.245 . S
O280 Tb276 2.596 . S
O280 Tb278 2.343 . S
O280 C295 1.259 . S
O281 Tb276 2.374 . S
O281 C277 1.251 . S
C282 O286 1.275 . S
C282 O287 1.246 . S
O283 C277 1.263 . S
O283 Tb278 2.353 . S
C284 O288 1.245 . S
C284 O289 1.259 . S
C285 O290 1.250 . S
C285 O291 1.263 . S
O286 Tb278 2.427 . S
O286 C282 1.275 . S
O287 Tb278 2.513 . S
O287 C282 1.246 . S
O288 Tb278 2.453 . S
O288 C284 1.245 . S
O289 Tb276 2.343 . S
O289 Tb278 2.596 . S
O289 C284 1.259 . S
O290 Tb278 2.374 . S
O290 C285 1.250 . S
O291 Tb276 2.353 . S
O291 C285 1.263 . S
C292 O293 1.275 . S
C292 O294 1.246 . S
O293 Tb276 2.427 . S
O293 C292 1.275 . S
O294 Tb276 2.513 . S
O294 C292 1.246 . S
C295 O279 1.245 . S
C295 O280 1.259 . S
Tb296 O299 2.453 . S
Tb296 O300 2.596 . S
Tb296 O301 2.374 . S
Tb296 O309 2.343 . S
Tb296 O311 2.353 . S
Tb296 O313 2.427 . S
Tb296 O314 2.513 . S
C297 O301 1.251 . S
C297 O303 1.263 . S
Tb298 O300 2.343 . S
Tb298 O303 2.353 . S
Tb298 O306 2.427 . S
Tb298 O307 2.513 . S
Tb298 O308 2.453 . S
Tb298 O309 2.596 . S
Tb298 O310 2.374 . S
O299 Tb296 2.453 . S
O299 C315 1.245 . S
O300 Tb296 2.596 . S
O300 Tb298 2.343 . S
O300 C315 1.259 . S
O301 Tb296 2.374 . S
O301 C297 1.251 . S
C302 O306 1.275 . S
C302 O307 1.246 . S
O303 C297 1.263 . S
O303 Tb298 2.353 . S
C304 O308 1.245 . S
C304 O309 1.259 . S
C305 O310 1.250 . S
C305 O311 1.263 . S
O306 Tb298 2.427 . S
O306 C302 1.275 . S
O307 Tb298 2.513 . S
O307 C302 1.246 . S
O308 Tb298 2.453 . S
O308 C304 1.245 . S
O309 Tb296 2.343 . S
O309 Tb298 2.596 . S
O309 C304 1.259 . S
O310 Tb298 2.374 . S
O310 C305 1.250 . S
O311 Tb296 2.353 . S
O311 C305 1.263 . S
C312 O313 1.275 . S
C312 O314 1.246 . S
O313 Tb296 2.427 . S
O313 C312 1.275 . S
O314 Tb296 2.513 . S
O314 C312 1.246 . S
C315 O299 1.245 . S
C315 O300 1.259 . S
Tb316 O319 2.453 . S
Tb316 O320 2.596 . S
Tb316 O321 2.374 . S
Tb316 O329 2.343 . S
Tb316 O331 2.353 . S
Tb316 O333 2.427 . S
Tb316 O334 2.513 . S
C317 O321 1.251 . S
C317 O323 1.263 . S
Tb318 O320 2.343 . S
Tb318 O323 2.353 . S
Tb318 O326 2.427 . S
Tb318 O327 2.513 . S
Tb318 O328 2.453 . S
Tb318 O329 2.596 . S
Tb318 O330 2.374 . S
O319 Tb316 2.453 . S
O319 C335 1.245 . S
O320 Tb316 2.596 . S
O320 Tb318 2.343 . S
O320 C335 1.259 . S
O321 Tb316 2.374 . S
O321 C317 1.251 . S
C322 O326 1.275 . S
C322 O327 1.246 . S
O323 C317 1.263 . S
O323 Tb318 2.353 . S
C324 O328 1.245 . S
C324 O329 1.259 . S
C325 O330 1.250 . S
C325 O331 1.263 . S
O326 Tb318 2.427 . S
O326 C322 1.275 . S
O327 Tb318 2.513 . S
O327 C322 1.246 . S
O328 Tb318 2.453 . S
O328 C324 1.245 . S
O329 Tb316 2.343 . S
O329 Tb318 2.596 . S
O329 C324 1.259 . S
O330 Tb318 2.374 . S
O330 C325 1.250 . S
O331 Tb316 2.353 . S
O331 C325 1.263 . S
C332 O333 1.275 . S
C332 O334 1.246 . S
O333 Tb316 2.427 . S
O333 C332 1.275 . S
O334 Tb316 2.513 . S
O334 C332 1.246 . S
C335 O319 1.245 . S
C335 O320 1.259 . S
Tb336 O339 2.453 . S
Tb336 O340 2.596 . S
Tb336 O341 2.374 . S
Tb336 O349 2.343 . S
Tb336 O351 2.353 . S
Tb336 O353 2.427 . S
Tb336 O354 2.513 . S
C337 O341 1.251 . S
C337 O343 1.263 . S
Tb338 O340 2.343 . S
Tb338 O343 2.353 . S
Tb338 O346 2.427 . S
Tb338 O347 2.513 . S
Tb338 O348 2.453 . S
Tb338 O349 2.596 . S
Tb338 O350 2.374 . S
O339 Tb336 2.453 . S
O339 C355 1.245 . S
O340 Tb336 2.596 . S
O340 Tb338 2.343 . S
O340 C355 1.259 . S
O341 Tb336 2.374 . S
O341 C337 1.251 . S
C342 O346 1.275 . S
C342 O347 1.246 . S
O343 C337 1.263 . S
O343 Tb338 2.353 . S
C344 O348 1.245 . S
C344 O349 1.259 . S
C345 O350 1.250 . S
C345 O351 1.263 . S
O346 Tb338 2.427 . S
O346 C342 1.275 . S
O347 Tb338 2.513 . S
O347 C342 1.246 . S
O348 Tb338 2.453 . S
O348 C344 1.245 . S
O349 Tb336 2.343 . S
O349 Tb338 2.596 . S
O349 C344 1.259 . S
O350 Tb338 2.374 . S
O350 C345 1.250 . S
O351 Tb336 2.353 . S
O351 C345 1.263 . S
C352 O353 1.275 . S
C352 O354 1.246 . S
O353 Tb336 2.427 . S
O353 C352 1.275 . S
O354 Tb336 2.513 . S
O354 C352 1.246 . S
C355 O339 1.245 . S
C355 O340 1.259 . S
Tb356 O359 2.453 . S
Tb356 O360 2.596 . S
Tb356 O361 2.374 . S
Tb356 O369 2.343 . S
Tb356 O371 2.353 . S
Tb356 O373 2.427 . S
Tb356 O374 2.513 . S
C357 O361 1.251 . S
C357 O363 1.263 . S
Tb358 O360 2.343 . S
Tb358 O363 2.353 . S
Tb358 O366 2.427 . S
Tb358 O367 2.513 . S
Tb358 O368 2.453 . S
Tb358 O369 2.596 . S
Tb358 O370 2.374 . S
O359 Tb356 2.453 . S
O359 C375 1.245 . S
O360 Tb356 2.596 . S
O360 Tb358 2.343 . S
O360 C375 1.259 . S
O361 Tb356 2.374 . S
O361 C357 1.251 . S
C362 O366 1.275 . S
C362 O367 1.246 . S
O363 C357 1.263 . S
O363 Tb358 2.353 . S
C364 O368 1.245 . S
C364 O369 1.259 . S
C365 O370 1.250 . S
C365 O371 1.263 . S
O366 Tb358 2.427 . S
O366 C362 1.275 . S
O367 Tb358 2.513 . S
O367 C362 1.246 . S
O368 Tb358 2.453 . S
O368 C364 1.245 . S
O369 Tb356 2.343 . S
O369 Tb358 2.596 . S
O369 C364 1.259 . S
O370 Tb358 2.374 . S
O370 C365 1.250 . S
O371 Tb356 2.353 . S
O371 C365 1.263 . S
C372 O373 1.275 . S
C372 O374 1.246 . S
O373 Tb356 2.427 . S
O373 C372 1.275 . S
O374 Tb356 2.513 . S
O374 C372 1.246 . S
C375 O359 1.245 . S
C375 O360 1.259 . S
Tb376 O379 2.453 . S
Tb376 O380 2.596 . S
Tb376 O381 2.374 . S
Tb376 O389 2.343 . S
Tb376 O391 2.353 . S
Tb376 O393 2.427 . S
Tb376 O394 2.513 . S
C377 O381 1.251 . S
C377 O383 1.263 . S
Tb378 O380 2.343 . S
Tb378 O383 2.353 . S
Tb378 O386 2.427 . S
Tb378 O387 2.513 . S
Tb378 O388 2.453 . S
Tb378 O389 2.596 . S
Tb378 O390 2.374 . S
O379 Tb376 2.453 . S
O379 C395 1.245 . S
O380 Tb376 2.596 . S
O380 Tb378 2.343 . S
O380 C395 1.259 . S
O381 Tb376 2.374 . S
O381 C377 1.251 . S
C382 O386 1.275 . S
C382 O387 1.246 . S
O383 C377 1.263 . S
O383 Tb378 2.353 . S
C384 O388 1.245 . S
C384 O389 1.259 . S
C385 O390 1.250 . S
C385 O391 1.263 . S
O386 Tb378 2.427 . S
O386 C382 1.275 . S
O387 Tb378 2.513 . S
O387 C382 1.246 . S
O388 Tb378 2.453 . S
O388 C384 1.245 . S
O389 Tb376 2.343 . S
O389 Tb378 2.596 . S
O389 C384 1.259 . S
O390 Tb378 2.374 . S
O390 C385 1.250 . S
O391 Tb376 2.353 . S
O391 C385 1.263 . S
C392 O393 1.275 . S
C392 O394 1.246 . S
O393 Tb376 2.427 . S
O393 C392 1.275 . S
O394 Tb376 2.513 . S
O394 C392 1.246 . S
C395 O379 1.245 . S
C395 O380 1.259 . S
Tb396 O399 2.453 . S
Tb396 O400 2.596 . S
Tb396 O401 2.374 . S
Tb396 O409 2.343 . S
Tb396 O411 2.353 . S
Tb396 O413 2.427 . S
Tb396 O414 2.513 . S
C397 O401 1.251 . S
C397 O403 1.263 . S
Tb398 O400 2.343 . S
Tb398 O403 2.353 . S
Tb398 O406 2.427 . S
Tb398 O407 2.513 . S
Tb398 O408 2.453 . S
Tb398 O409 2.596 . S
Tb398 O410 2.374 . S
O399 Tb396 2.453 . S
O399 C415 1.245 . S
O400 Tb396 2.596 . S
O400 Tb398 2.343 . S
O400 C415 1.259 . S
O401 Tb396 2.374 . S
O401 C397 1.251 . S
C402 O406 1.275 . S
C402 O407 1.246 . S
O403 C397 1.263 . S
O403 Tb398 2.353 . S
C404 O408 1.245 . S
C404 O409 1.259 . S
C405 O410 1.250 . S
C405 O411 1.263 . S
O406 Tb398 2.427 . S
O406 C402 1.275 . S
O407 Tb398 2.513 . S
O407 C402 1.246 . S
O408 Tb398 2.453 . S
O408 C404 1.245 . S
O409 Tb396 2.343 . S
O409 Tb398 2.596 . S
O409 C404 1.259 . S
O410 Tb398 2.374 . S
O410 C405 1.250 . S
O411 Tb396 2.353 . S
O411 C405 1.263 . S
C412 O413 1.275 . S
C412 O414 1.246 . S
O413 Tb396 2.427 . S
O413 C412 1.275 . S
O414 Tb396 2.513 . S
O414 C412 1.246 . S
C415 O399 1.245 . S
C415 O400 1.259 . S
Tb416 O419 2.453 . S
Tb416 O420 2.596 . S
Tb416 O421 2.374 . S
Tb416 O429 2.343 . S
Tb416 O431 2.353 . S
Tb416 O433 2.427 . S
Tb416 O434 2.513 . S
C417 O421 1.251 . S
C417 O423 1.263 . S
Tb418 O420 2.343 . S
Tb418 O423 2.353 . S
Tb418 O426 2.427 . S
Tb418 O427 2.513 . S
Tb418 O428 2.453 . S
Tb418 O429 2.596 . S
Tb418 O430 2.374 . S
O419 Tb416 2.453 . S
O419 C435 1.245 . S
O420 Tb416 2.596 . S
O420 Tb418 2.343 . S
O420 C435 1.259 . S
O421 Tb416 2.374 . S
O421 C417 1.251 . S
C422 O426 1.275 . S
C422 O427 1.246 . S
O423 C417 1.263 . S
O423 Tb418 2.353 . S
C424 O428 1.245 . S
C424 O429 1.259 . S
C425 O430 1.250 . S
C425 O431 1.263 . S
O426 Tb418 2.427 . S
O426 C422 1.275 . S
O427 Tb418 2.513 . S
O427 C422 1.246 . S
O428 Tb418 2.453 . S
O428 C424 1.245 . S
O429 Tb416 2.343 . S
O429 Tb418 2.596 . S
O429 C424 1.259 . S
O430 Tb418 2.374 . S
O430 C425 1.250 . S
O431 Tb416 2.353 . S
O431 C425 1.263 . S
C432 O433 1.275 . S
C432 O434 1.246 . S
O433 Tb416 2.427 . S
O433 C432 1.275 . S
O434 Tb416 2.513 . S
O434 C432 1.246 . S
C435 O419 1.245 . S
C435 O420 1.259 . S
H436 C444 0.950 . S
H437 C449 0.950 . S
H438 C446 0.950 . S
H439 C448 0.950 . S
H440 C450 0.950 . S
H441 C452 0.950 . S
H442 C454 0.950 . S
H443 C455 0.950 . S
C444 H436 0.950 . S
C444 C445 1.386 . S
C444 C446 1.391 . S
C445 C444 1.386 . S
C445 C449 1.393 . S
C446 H438 0.950 . S
C446 C444 1.391 . S
C446 C447 1.400 . S
C447 C446 1.400 . S
C447 C448 1.398 . S
C447 C453 1.491 . S
C448 H439 0.950 . S
C448 C447 1.398 . S
C448 C449 1.391 . S
C449 H437 0.950 . S
C449 C445 1.393 . S
C449 C448 1.391 . S
C450 H440 0.950 . S
C450 C451 1.386 . S
C450 C452 1.391 . S
C451 C450 1.386 . S
C451 C455 1.393 . S
C452 H441 0.950 . S
C452 C450 1.391 . S
C452 C453 1.400 . S
C453 C447 1.491 . S
C453 C452 1.400 . S
C453 C454 1.398 . S
C454 H442 0.950 . S
C454 C453 1.398 . S
C454 C455 1.391 . S
C455 H443 0.950 . S
C455 C451 1.393 . S
C455 C454 1.391 . S
H456 C464 0.950 . S
H457 C469 0.950 . S
H458 C466 0.950 . S
H459 C468 0.950 . S
H460 C470 0.950 . S
H461 C472 0.950 . S
H462 C474 0.950 . S
H463 C475 0.950 . S
C464 H456 0.950 . S
C464 C465 1.386 . S
C464 C466 1.391 . S
C465 C464 1.386 . S
C465 C469 1.393 . S
C466 H458 0.950 . S
C466 C464 1.391 . S
C466 C467 1.400 . S
C467 C466 1.400 . S
C467 C468 1.398 . S
C467 C473 1.491 . S
C468 H459 0.950 . S
C468 C467 1.398 . S
C468 C469 1.391 . S
C469 H457 0.950 . S
C469 C465 1.393 . S
C469 C468 1.391 . S
C470 H460 0.950 . S
C470 C471 1.386 . S
C470 C472 1.391 . S
C471 C470 1.386 . S
C471 C475 1.393 . S
C472 H461 0.950 . S
C472 C470 1.391 . S
C472 C473 1.400 . S
C473 C467 1.491 . S
C473 C472 1.400 . S
C473 C474 1.398 . S
C474 H462 0.950 . S
C474 C473 1.398 . S
C474 C475 1.391 . S
C475 H463 0.950 . S
C475 C471 1.393 . S
C475 C474 1.391 . S
H476 C484 0.950 . S
H477 C489 0.950 . S
H478 C486 0.950 . S
H479 C488 0.950 . S
H480 C490 0.950 . S
H481 C492 0.950 . S
H482 C494 0.950 . S
H483 C495 0.950 . S
C484 H476 0.950 . S
C484 C485 1.386 . S
C484 C486 1.391 . S
C485 C484 1.386 . S
C485 C489 1.393 . S
C486 H478 0.950 . S
C486 C484 1.391 . S
C486 C487 1.400 . S
C487 C486 1.400 . S
C487 C488 1.398 . S
C487 C493 1.491 . S
C488 H479 0.950 . S
C488 C487 1.398 . S
C488 C489 1.391 . S
C489 H477 0.950 . S
C489 C485 1.393 . S
C489 C488 1.391 . S
C490 H480 0.950 . S
C490 C491 1.386 . S
C490 C492 1.391 . S
C491 C490 1.386 . S
C491 C495 1.393 . S
C492 H481 0.950 . S
C492 C490 1.391 . S
C492 C493 1.400 . S
C493 C487 1.491 . S
C493 C492 1.400 . S
C493 C494 1.398 . S
C494 H482 0.950 . S
C494 C493 1.398 . S
C494 C495 1.391 . S
C495 H483 0.950 . S
C495 C491 1.393 . S
C495 C494 1.391 . S
H496 C504 0.950 . S
H497 C509 0.950 . S
H498 C506 0.950 . S
H499 C508 0.950 . S
H500 C510 0.950 . S
H501 C512 0.950 . S
H502 C514 0.950 . S
H503 C515 0.950 . S
C504 H496 0.950 . S
C504 C505 1.386 . S
C504 C506 1.391 . S
C505 C504 1.386 . S
C505 C509 1.393 . S
C506 H498 0.950 . S
C506 C504 1.391 . S
C506 C507 1.400 . S
C507 C506 1.400 . S
C507 C508 1.398 . S
C507 C513 1.491 . S
C508 H499 0.950 . S
C508 C507 1.398 . S
C508 C509 1.391 . S
C509 H497 0.950 . S
C509 C505 1.393 . S
C509 C508 1.391 . S
C510 H500 0.950 . S
C510 C511 1.386 . S
C510 C512 1.391 . S
C511 C510 1.386 . S
C511 C515 1.393 . S
C512 H501 0.950 . S
C512 C510 1.391 . S
C512 C513 1.400 . S
C513 C507 1.491 . S
C513 C512 1.400 . S
C513 C514 1.398 . S
C514 H502 0.950 . S
C514 C513 1.398 . S
C514 C515 1.391 . S
C515 H503 0.950 . S
C515 C511 1.393 . S
C515 C514 1.391 . S
H516 C524 0.950 . S
H517 C529 0.950 . S
H518 C526 0.950 . S
H519 C528 0.950 . S
H520 C530 0.950 . S
H521 C532 0.950 . S
H522 C534 0.950 . S
H523 C535 0.950 . S
C524 H516 0.950 . S
C524 C525 1.386 . S
C524 C526 1.391 . S
C525 C524 1.386 . S
C525 C529 1.393 . S
C526 H518 0.950 . S
C526 C524 1.391 . S
C526 C527 1.400 . S
C527 C526 1.400 . S
C527 C528 1.398 . S
C527 C533 1.491 . S
C528 H519 0.950 . S
C528 C527 1.398 . S
C528 C529 1.391 . S
C529 H517 0.950 . S
C529 C525 1.393 . S
C529 C528 1.391 . S
C530 H520 0.950 . S
C530 C531 1.386 . S
C530 C532 1.391 . S
C531 C530 1.386 . S
C531 C535 1.393 . S
C532 H521 0.950 . S
C532 C530 1.391 . S
C532 C533 1.400 . S
C533 C527 1.491 . S
C533 C532 1.400 . S
C533 C534 1.398 . S
C534 H522 0.950 . S
C534 C533 1.398 . S
C534 C535 1.391 . S
C535 H523 0.950 . S
C535 C531 1.393 . S
C535 C534 1.391 . S
H536 C544 0.950 . S
H537 C549 0.950 . S
H538 C546 0.950 . S
H539 C548 0.950 . S
H540 C550 0.950 . S
H541 C552 0.950 . S
H542 C554 0.950 . S
H543 C555 0.950 . S
C544 H536 0.950 . S
C544 C545 1.386 . S
C544 C546 1.391 . S
C545 C544 1.386 . S
C545 C549 1.393 . S
C546 H538 0.950 . S
C546 C544 1.391 . S
C546 C547 1.400 . S
C547 C546 1.400 . S
C547 C548 1.398 . S
C547 C553 1.491 . S
C548 H539 0.950 . S
C548 C547 1.398 . S
C548 C549 1.391 . S
C549 H537 0.950 . S
C549 C545 1.393 . S
C549 C548 1.391 . S
C550 H540 0.950 . S
C550 C551 1.386 . S
C550 C552 1.391 . S
C551 C550 1.386 . S
C551 C555 1.393 . S
C552 H541 0.950 . S
C552 C550 1.391 . S
C552 C553 1.400 . S
C553 C547 1.491 . S
C553 C552 1.400 . S
C553 C554 1.398 . S
C554 H542 0.950 . S
C554 C553 1.398 . S
C554 C555 1.391 . S
C555 H543 0.950 . S
C555 C551 1.393 . S
C555 C554 1.391 . S
H556 C564 0.950 . S
H557 C569 0.950 . S
H558 C566 0.950 . S
H559 C568 0.950 . S
H560 C570 0.950 . S
H561 C572 0.950 . S
H562 C574 0.950 . S
H563 C575 0.950 . S
C564 H556 0.950 . S
C564 C565 1.386 . S
C564 C566 1.391 . S
C565 C564 1.386 . S
C565 C569 1.393 . S
C566 H558 0.950 . S
C566 C564 1.391 . S
C566 C567 1.400 . S
C567 C566 1.400 . S
C567 C568 1.398 . S
C567 C573 1.491 . S
C568 H559 0.950 . S
C568 C567 1.398 . S
C568 C569 1.391 . S
C569 H557 0.950 . S
C569 C565 1.393 . S
C569 C568 1.391 . S
C570 H560 0.950 . S
C570 C571 1.386 . S
C570 C572 1.391 . S
C571 C570 1.386 . S
C571 C575 1.393 . S
C572 H561 0.950 . S
C572 C570 1.391 . S
C572 C573 1.400 . S
C573 C567 1.491 . S
C573 C572 1.400 . S
C573 C574 1.398 . S
C574 H562 0.950 . S
C574 C573 1.398 . S
C574 C575 1.391 . S
C575 H563 0.950 . S
C575 C571 1.393 . S
C575 C574 1.391 . S
H576 C584 0.950 . S
H577 C589 0.950 . S
H578 C586 0.950 . S
H579 C588 0.950 . S
H580 C590 0.950 . S
H581 C592 0.950 . S
H582 C594 0.950 . S
H583 C595 0.950 . S
C584 H576 0.950 . S
C584 C585 1.386 . S
C584 C586 1.391 . S
C585 C584 1.386 . S
C585 C589 1.393 . S
C586 H578 0.950 . S
C586 C584 1.391 . S
C586 C587 1.400 . S
C587 C586 1.400 . S
C587 C588 1.398 . S
C587 C593 1.491 . S
C588 H579 0.950 . S
C588 C587 1.398 . S
C588 C589 1.391 . S
C589 H577 0.950 . S
C589 C585 1.393 . S
C589 C588 1.391 . S
C590 H580 0.950 . S
C590 C591 1.386 . S
C590 C592 1.391 . S
C591 C590 1.386 . S
C591 C595 1.393 . S
C592 H581 0.950 . S
C592 C590 1.391 . S
C592 C593 1.400 . S
C593 C587 1.491 . S
C593 C592 1.400 . S
C593 C594 1.398 . S
C594 H582 0.950 . S
C594 C593 1.398 . S
C594 C595 1.391 . S
C595 H583 0.950 . S
C595 C591 1.393 . S
C595 C594 1.391 . S
H596 C604 0.950 . S
H597 C609 0.950 . S
H598 C606 0.950 . S
H599 C608 0.950 . S
H600 C610 0.950 . S
H601 C612 0.950 . S
H602 C614 0.950 . S
H603 C615 0.950 . S
C604 H596 0.950 . S
C604 C605 1.386 . S
C604 C606 1.391 . S
C605 C604 1.386 . S
C605 C609 1.393 . S
C606 H598 0.950 . S
C606 C604 1.391 . S
C606 C607 1.400 . S
C607 C606 1.400 . S
C607 C608 1.398 . S
C607 C613 1.491 . S
C608 H599 0.950 . S
C608 C607 1.398 . S
C608 C609 1.391 . S
C609 H597 0.950 . S
C609 C605 1.393 . S
C609 C608 1.391 . S
C610 H600 0.950 . S
C610 C611 1.386 . S
C610 C612 1.391 . S
C611 C610 1.386 . S
C611 C615 1.393 . S
C612 H601 0.950 . S
C612 C610 1.391 . S
C612 C613 1.400 . S
C613 C607 1.491 . S
C613 C612 1.400 . S
C613 C614 1.398 . S
C614 H602 0.950 . S
C614 C613 1.398 . S
C614 C615 1.391 . S
C615 H603 0.950 . S
C615 C611 1.393 . S
C615 C614 1.391 . S
H616 C624 0.950 . S
H617 C629 0.950 . S
H618 C626 0.950 . S
H619 C628 0.950 . S
H620 C630 0.950 . S
H621 C632 0.950 . S
H622 C634 0.950 . S
H623 C635 0.950 . S
C624 H616 0.950 . S
C624 C625 1.386 . S
C624 C626 1.391 . S
C625 C624 1.386 . S
C625 C629 1.393 . S
C626 H618 0.950 . S
C626 C624 1.391 . S
C626 C627 1.400 . S
C627 C626 1.400 . S
C627 C628 1.398 . S
C627 C633 1.491 . S
C628 H619 0.950 . S
C628 C627 1.398 . S
C628 C629 1.391 . S
C629 H617 0.950 . S
C629 C625 1.393 . S
C629 C628 1.391 . S
C630 H620 0.950 . S
C630 C631 1.386 . S
C630 C632 1.391 . S
C631 C630 1.386 . S
C631 C635 1.393 . S
C632 H621 0.950 . S
C632 C630 1.391 . S
C632 C633 1.400 . S
C633 C627 1.491 . S
C633 C632 1.400 . S
C633 C634 1.398 . S
C634 H622 0.950 . S
C634 C633 1.398 . S
C634 C635 1.391 . S
C635 H623 0.950 . S
C635 C631 1.393 . S
C635 C634 1.391 . S
H636 C644 0.950 . S
H637 C649 0.950 . S
H638 C646 0.950 . S
H639 C648 0.950 . S
H640 C650 0.950 . S
H641 C652 0.950 . S
H642 C654 0.950 . S
H643 C655 0.950 . S
C644 H636 0.950 . S
C644 C645 1.386 . S
C644 C646 1.391 . S
C645 C644 1.386 . S
C645 C649 1.393 . S
C646 H638 0.950 . S
C646 C644 1.391 . S
C646 C647 1.400 . S
C647 C646 1.400 . S
C647 C648 1.398 . S
C647 C653 1.491 . S
C648 H639 0.950 . S
C648 C647 1.398 . S
C648 C649 1.391 . S
C649 H637 0.950 . S
C649 C645 1.393 . S
C649 C648 1.391 . S
C650 H640 0.950 . S
C650 C651 1.386 . S
C650 C652 1.391 . S
C651 C650 1.386 . S
C651 C655 1.393 . S
C652 H641 0.950 . S
C652 C650 1.391 . S
C652 C653 1.400 . S
C653 C647 1.491 . S
C653 C652 1.400 . S
C653 C654 1.398 . S
C654 H642 0.950 . S
C654 C653 1.398 . S
C654 C655 1.391 . S
C655 H643 0.950 . S
C655 C651 1.393 . S
C655 C654 1.391 . S
H656 C664 0.950 . S
H657 C669 0.950 . S
H658 C666 0.950 . S
H659 C668 0.950 . S
H660 C670 0.950 . S
H661 C672 0.950 . S
H662 C674 0.950 . S
H663 C675 0.950 . S
C664 H656 0.950 . S
C664 C665 1.386 . S
C664 C666 1.391 . S
C665 C664 1.386 . S
C665 C669 1.393 . S
C666 H658 0.950 . S
C666 C664 1.391 . S
C666 C667 1.400 . S
C667 C666 1.400 . S
C667 C668 1.398 . S
C667 C673 1.491 . S
C668 H659 0.950 . S
C668 C667 1.398 . S
C668 C669 1.391 . S
C669 H657 0.950 . S
C669 C665 1.393 . S
C669 C668 1.391 . S
C670 H660 0.950 . S
C670 C671 1.386 . S
C670 C672 1.391 . S
C671 C670 1.386 . S
C671 C675 1.393 . S
C672 H661 0.950 . S
C672 C670 1.391 . S
C672 C673 1.400 . S
C673 C667 1.491 . S
C673 C672 1.400 . S
C673 C674 1.398 . S
C674 H662 0.950 . S
C674 C673 1.398 . S
C674 C675 1.391 . S
C675 H663 0.950 . S
C675 C671 1.393 . S
C675 C674 1.391 . S
H676 C684 0.950 . S
H677 C689 0.950 . S
H678 C686 0.950 . S
H679 C688 0.950 . S
H680 C690 0.950 . S
H681 C692 0.950 . S
H682 C694 0.950 . S
H683 C695 0.950 . S
C684 H676 0.950 . S
C684 C685 1.386 . S
C684 C686 1.391 . S
C685 C684 1.386 . S
C685 C689 1.393 . S
C686 H678 0.950 . S
C686 C684 1.391 . S
C686 C687 1.400 . S
C687 C686 1.400 . S
C687 C688 1.398 . S
C687 C693 1.491 . S
C688 H679 0.950 . S
C688 C687 1.398 . S
C688 C689 1.391 . S
C689 H677 0.950 . S
C689 C685 1.393 . S
C689 C688 1.391 . S
C690 H680 0.950 . S
C690 C691 1.386 . S
C690 C692 1.391 . S
C691 C690 1.386 . S
C691 C695 1.393 . S
C692 H681 0.950 . S
C692 C690 1.391 . S
C692 C693 1.400 . S
C693 C687 1.491 . S
C693 C692 1.400 . S
C693 C694 1.398 . S
C694 H682 0.950 . S
C694 C693 1.398 . S
C694 C695 1.391 . S
C695 H683 0.950 . S
C695 C691 1.393 . S
C695 C694 1.391 . S
H696 C704 0.950 . S
H697 C709 0.950 . S
H698 C706 0.950 . S
H699 C708 0.950 . S
H700 C710 0.950 . S
H701 C712 0.950 . S
H702 C714 0.950 . S
H703 C715 0.950 . S
C704 H696 0.950 . S
C704 C705 1.386 . S
C704 C706 1.391 . S
C705 C704 1.386 . S
C705 C709 1.393 . S
C706 H698 0.950 . S
C706 C704 1.391 . S
C706 C707 1.400 . S
C707 C706 1.400 . S
C707 C708 1.398 . S
C707 C713 1.491 . S
C708 H699 0.950 . S
C708 C707 1.398 . S
C708 C709 1.391 . S
C709 H697 0.950 . S
C709 C705 1.393 . S
C709 C708 1.391 . S
C710 H700 0.950 . S
C710 C711 1.386 . S
C710 C712 1.391 . S
C711 C710 1.386 . S
C711 C715 1.393 . S
C712 H701 0.950 . S
C712 C710 1.391 . S
C712 C713 1.400 . S
C713 C707 1.491 . S
C713 C712 1.400 . S
C713 C714 1.398 . S
C714 H702 0.950 . S
C714 C713 1.398 . S
C714 C715 1.391 . S
C715 H703 0.950 . S
C715 C711 1.393 . S
C715 C714 1.391 . S
H716 C724 0.950 . S
H717 C729 0.950 . S
H718 C726 0.950 . S
H719 C728 0.950 . S
H720 C730 0.950 . S
H721 C732 0.950 . S
H722 C734 0.950 . S
H723 C735 0.950 . S
C724 H716 0.950 . S
C724 C725 1.386 . S
C724 C726 1.391 . S
C725 C724 1.386 . S
C725 C729 1.393 . S
C726 H718 0.950 . S
C726 C724 1.391 . S
C726 C727 1.400 . S
C727 C726 1.400 . S
C727 C728 1.398 . S
C727 C733 1.491 . S
C728 H719 0.950 . S
C728 C727 1.398 . S
C728 C729 1.391 . S
C729 H717 0.950 . S
C729 C725 1.393 . S
C729 C728 1.391 . S
C730 H720 0.950 . S
C730 C731 1.386 . S
C730 C732 1.391 . S
C731 C730 1.386 . S
C731 C735 1.393 . S
C732 H721 0.950 . S
C732 C730 1.391 . S
C732 C733 1.400 . S
C733 C727 1.491 . S
C733 C732 1.400 . S
C733 C734 1.398 . S
C734 H722 0.950 . S
C734 C733 1.398 . S
C734 C735 1.391 . S
C735 H723 0.950 . S
C735 C731 1.393 . S
C735 C734 1.391 . S
H736 C744 0.950 . S
H737 C749 0.950 . S
H738 C746 0.950 . S
H739 C748 0.950 . S
H740 C750 0.950 . S
H741 C752 0.950 . S
H742 C754 0.950 . S
H743 C755 0.950 . S
C744 H736 0.950 . S
C744 C745 1.386 . S
C744 C746 1.391 . S
C745 C744 1.386 . S
C745 C749 1.393 . S
C746 H738 0.950 . S
C746 C744 1.391 . S
C746 C747 1.400 . S
C747 C746 1.400 . S
C747 C748 1.398 . S
C747 C753 1.491 . S
C748 H739 0.950 . S
C748 C747 1.398 . S
C748 C749 1.391 . S
C749 H737 0.950 . S
C749 C745 1.393 . S
C749 C748 1.391 . S
C750 H740 0.950 . S
C750 C751 1.386 . S
C750 C752 1.391 . S
C751 C750 1.386 . S
C751 C755 1.393 . S
C752 H741 0.950 . S
C752 C750 1.391 . S
C752 C753 1.400 . S
C753 C747 1.491 . S
C753 C752 1.400 . S
C753 C754 1.398 . S
C754 H742 0.950 . S
C754 C753 1.398 . S
C754 C755 1.391 . S
C755 H743 0.950 . S
C755 C751 1.393 . S
C755 C754 1.391 . S
H756 C764 0.950 . S
H757 C769 0.950 . S
H758 C766 0.950 . S
H759 C768 0.950 . S
H760 C770 0.950 . S
H761 C772 0.950 . S
H762 C774 0.950 . S
H763 C775 0.950 . S
C764 H756 0.950 . S
C764 C765 1.386 . S
C764 C766 1.391 . S
C765 C764 1.386 . S
C765 C769 1.393 . S
C766 H758 0.950 . S
C766 C764 1.391 . S
C766 C767 1.400 . S
C767 C766 1.400 . S
C767 C768 1.398 . S
C767 C773 1.491 . S
C768 H759 0.950 . S
C768 C767 1.398 . S
C768 C769 1.391 . S
C769 H757 0.950 . S
C769 C765 1.393 . S
C769 C768 1.391 . S
C770 H760 0.950 . S
C770 C771 1.386 . S
C770 C772 1.391 . S
C771 C770 1.386 . S
C771 C775 1.393 . S
C772 H761 0.950 . S
C772 C770 1.391 . S
C772 C773 1.400 . S
C773 C767 1.491 . S
C773 C772 1.400 . S
C773 C774 1.398 . S
C774 H762 0.950 . S
C774 C773 1.398 . S
C774 C775 1.391 . S
C775 H763 0.950 . S
C775 C771 1.393 . S
C775 C774 1.391 . S
H776 C784 0.950 . S
H777 C789 0.950 . S
H778 C786 0.950 . S
H779 C788 0.950 . S
H780 C790 0.950 . S
H781 C792 0.950 . S
H782 C794 0.950 . S
H783 C795 0.950 . S
C784 H776 0.950 . S
C784 C785 1.386 . S
C784 C786 1.391 . S
C785 C784 1.386 . S
C785 C789 1.393 . S
C786 H778 0.950 . S
C786 C784 1.391 . S
C786 C787 1.400 . S
C787 C786 1.400 . S
C787 C788 1.398 . S
C787 C793 1.491 . S
C788 H779 0.950 . S
C788 C787 1.398 . S
C788 C789 1.391 . S
C789 H777 0.950 . S
C789 C785 1.393 . S
C789 C788 1.391 . S
C790 H780 0.950 . S
C790 C791 1.386 . S
C790 C792 1.391 . S
C791 C790 1.386 . S
C791 C795 1.393 . S
C792 H781 0.950 . S
C792 C790 1.391 . S
C792 C793 1.400 . S
C793 C787 1.491 . S
C793 C792 1.400 . S
C793 C794 1.398 . S
C794 H782 0.950 . S
C794 C793 1.398 . S
C794 C795 1.391 . S
C795 H783 0.950 . S
C795 C791 1.393 . S
C795 C794 1.391 . S
H796 C804 0.950 . S
H797 C809 0.950 . S
H798 C806 0.950 . S
H799 C808 0.950 . S
H800 C810 0.950 . S
H801 C812 0.950 . S
H802 C814 0.950 . S
H803 C815 0.950 . S
C804 H796 0.950 . S
C804 C805 1.386 . S
C804 C806 1.391 . S
C805 C804 1.386 . S
C805 C809 1.393 . S
C806 H798 0.950 . S
C806 C804 1.391 . S
C806 C807 1.400 . S
C807 C806 1.400 . S
C807 C808 1.398 . S
C807 C813 1.491 . S
C808 H799 0.950 . S
C808 C807 1.398 . S
C808 C809 1.391 . S
C809 H797 0.950 . S
C809 C805 1.393 . S
C809 C808 1.391 . S
C810 H800 0.950 . S
C810 C811 1.386 . S
C810 C812 1.391 . S
C811 C810 1.386 . S
C811 C815 1.393 . S
C812 H801 0.950 . S
C812 C810 1.391 . S
C812 C813 1.400 . S
C813 C807 1.491 . S
C813 C812 1.400 . S
C813 C814 1.398 . S
C814 H802 0.950 . S
C814 C813 1.398 . S
C814 C815 1.391 . S
C815 H803 0.950 . S
C815 C811 1.393 . S
C815 C814 1.391 . S
H816 C824 0.950 . S
H817 C829 0.950 . S
H818 C826 0.950 . S
H819 C828 0.950 . S
H820 C830 0.950 . S
H821 C832 0.950 . S
H822 C834 0.950 . S
H823 C835 0.950 . S
C824 H816 0.950 . S
C824 C825 1.386 . S
C824 C826 1.391 . S
C825 C824 1.386 . S
C825 C829 1.393 . S
C826 H818 0.950 . S
C826 C824 1.391 . S
C826 C827 1.400 . S
C827 C826 1.400 . S
C827 C828 1.398 . S
C827 C833 1.491 . S
C828 H819 0.950 . S
C828 C827 1.398 . S
C828 C829 1.391 . S
C829 H817 0.950 . S
C829 C825 1.393 . S
C829 C828 1.391 . S
C830 H820 0.950 . S
C830 C831 1.386 . S
C830 C832 1.391 . S
C831 C830 1.386 . S
C831 C835 1.393 . S
C832 H821 0.950 . S
C832 C830 1.391 . S
C832 C833 1.400 . S
C833 C827 1.491 . S
C833 C832 1.400 . S
C833 C834 1.398 . S
C834 H822 0.950 . S
C834 C833 1.398 . S
C834 C835 1.391 . S
C835 H823 0.950 . S
C835 C831 1.393 . S
C835 C834 1.391 . S
H836 C844 0.950 1_545 S
H837 C849 0.950 . S
H838 C846 0.950 . S
H839 C848 0.950 . S
H840 C850 0.950 . S
H841 C852 0.950 . S
H842 C854 0.950 . S
H843 C855 0.950 . S
C844 H836 0.950 1_565 S
C844 C845 1.386 . S
C844 C846 1.391 . S
C845 C844 1.386 . S
C845 C849 1.393 . S
C846 H838 0.950 . S
C846 C844 1.391 . S
C846 C847 1.400 . S
C847 C846 1.400 . S
C847 C848 1.398 . S
C847 C853 1.491 . S
C848 H839 0.950 . S
C848 C847 1.398 . S
C848 C849 1.391 . S
C849 H837 0.950 . S
C849 C845 1.393 . S
C849 C848 1.391 . S
C850 H840 0.950 . S
C850 C851 1.386 . S
C850 C852 1.391 . S
C851 C850 1.386 . S
C851 C855 1.393 . S
C852 H841 0.950 . S
C852 C850 1.391 . S
C852 C853 1.400 . S
C853 C847 1.491 . S
C853 C852 1.400 . S
C853 C854 1.398 . S
C854 H842 0.950 . S
C854 C853 1.398 . S
C854 C855 1.391 . S
C855 H843 0.950 . S
C855 C851 1.393 . S
C855 C854 1.391 . S
H856 C864 0.950 . S
H857 C869 0.950 . S
H858 C866 0.950 . S
H859 C868 0.950 . S
H860 C870 0.950 . S
H861 C872 0.950 . S
H862 C874 0.950 . S
H863 C875 0.950 . S
C864 H856 0.950 . S
C864 C865 1.386 . S
C864 C866 1.391 . S
C865 C864 1.386 . S
C865 C869 1.393 . S
C866 H858 0.950 . S
C866 C864 1.391 . S
C866 C867 1.400 . S
C867 C866 1.400 . S
C867 C868 1.398 . S
C867 C873 1.491 . S
C868 H859 0.950 . S
C868 C867 1.398 . S
C868 C869 1.391 . S
C869 H857 0.950 . S
C869 C865 1.393 . S
C869 C868 1.391 . S
C870 H860 0.950 . S
C870 C871 1.386 . S
C870 C872 1.391 . S
C871 C870 1.386 . S
C871 C875 1.393 . S
C872 H861 0.950 . S
C872 C870 1.391 . S
C872 C873 1.400 . S
C873 C867 1.491 . S
C873 C872 1.400 . S
C873 C874 1.398 . S
C874 H862 0.950 . S
C874 C873 1.398 . S
C874 C875 1.391 . S
C875 H863 0.950 . S
C875 C871 1.393 . S
C875 C874 1.391 . S
H876 C884 0.950 . S
H877 C889 0.950 . S
H878 C886 0.950 . S
H879 C888 0.950 . S
H880 C890 0.950 . S
H881 C892 0.950 . S
H882 C894 0.950 . S
H883 C895 0.950 . S
C884 H876 0.950 . S
C884 C885 1.386 . S
C884 C886 1.391 . S
C885 C884 1.386 . S
C885 C889 1.393 . S
C886 H878 0.950 . S
C886 C884 1.391 . S
C886 C887 1.400 . S
C887 C886 1.400 . S
C887 C888 1.398 . S
C887 C893 1.491 . S
C888 H879 0.950 . S
C888 C887 1.398 . S
C888 C889 1.391 . S
C889 H877 0.950 . S
C889 C885 1.393 . S
C889 C888 1.391 . S
C890 H880 0.950 . S
C890 C891 1.386 . S
C890 C892 1.391 . S
C891 C890 1.386 . S
C891 C895 1.393 . S
C892 H881 0.950 . S
C892 C890 1.391 . S
C892 C893 1.400 . S
C893 C887 1.491 . S
C893 C892 1.400 . S
C893 C894 1.398 . S
C894 H882 0.950 . S
C894 C893 1.398 . S
C894 C895 1.391 . S
C895 H883 0.950 . S
C895 C891 1.393 . S
C895 C894 1.391 . S
H896 C904 0.950 . S
H897 C909 0.950 . S
H898 C906 0.950 . S
H899 C908 0.950 . S
H900 C910 0.950 . S
H901 C912 0.950 . S
H902 C914 0.950 . S
H903 C915 0.950 . S
C904 H896 0.950 . S
C904 C905 1.386 . S
C904 C906 1.391 . S
C905 C904 1.386 . S
C905 C909 1.393 . S
C906 H898 0.950 . S
C906 C904 1.391 . S
C906 C907 1.400 . S
C907 C906 1.400 . S
C907 C908 1.398 . S
C907 C913 1.491 . S
C908 H899 0.950 . S
C908 C907 1.398 . S
C908 C909 1.391 . S
C909 H897 0.950 . S
C909 C905 1.393 . S
C909 C908 1.391 . S
C910 H900 0.950 . S
C910 C911 1.386 . S
C910 C912 1.391 . S
C911 C910 1.386 . S
C911 C915 1.393 . S
C912 H901 0.950 . S
C912 C910 1.391 . S
C912 C913 1.400 . S
C913 C907 1.491 . S
C913 C912 1.400 . S
C913 C914 1.398 . S
C914 H902 0.950 . S
C914 C913 1.398 . S
C914 C915 1.391 . S
C915 H903 0.950 . S
C915 C911 1.393 . S
C915 C914 1.391 . S
H916 C924 0.950 . S
H917 C929 0.950 . S
H918 C926 0.950 . S
H919 C928 0.950 . S
H920 C930 0.950 . S
H921 C932 0.950 . S
H922 C934 0.950 . S
H923 C935 0.950 . S
C924 H916 0.950 . S
C924 C925 1.386 . S
C924 C926 1.391 . S
C925 C924 1.386 . S
C925 C929 1.393 . S
C926 H918 0.950 . S
C926 C924 1.391 . S
C926 C927 1.400 . S
C927 C926 1.400 . S
C927 C928 1.398 . S
C927 C933 1.491 . S
C928 H919 0.950 . S
C928 C927 1.398 . S
C928 C929 1.391 . S
C929 H917 0.950 . S
C929 C925 1.393 . S
C929 C928 1.391 . S
C930 H920 0.950 . S
C930 C931 1.386 . S
C930 C932 1.391 . S
C931 C930 1.386 . S
C931 C935 1.393 . S
C932 H921 0.950 . S
C932 C930 1.391 . S
C932 C933 1.400 . S
C933 C927 1.491 . S
C933 C932 1.400 . S
C933 C934 1.398 . S
C934 H922 0.950 . S
C934 C933 1.398 . S
C934 C935 1.391 . S
C935 H923 0.950 . S
C935 C931 1.393 . S
C935 C934 1.391 . S
H936 C944 0.950 . S
H937 C949 0.950 . S
H938 C946 0.950 . S
H939 C948 0.950 . S
H940 C950 0.950 . S
H941 C952 0.950 . S
H942 C954 0.950 . S
H943 C955 0.950 . S
C944 H936 0.950 . S
C944 C945 1.386 . S
C944 C946 1.391 . S
C945 C944 1.386 . S
C945 C949 1.393 . S
C946 H938 0.950 . S
C946 C944 1.391 . S
C946 C947 1.400 . S
C947 C946 1.400 . S
C947 C948 1.398 . S
C947 C953 1.491 . S
C948 H939 0.950 . S
C948 C947 1.398 . S
C948 C949 1.391 . S
C949 H937 0.950 . S
C949 C945 1.393 . S
C949 C948 1.391 . S
C950 H940 0.950 . S
C950 C951 1.386 . S
C950 C952 1.391 . S
C951 C950 1.386 . S
C951 C955 1.393 . S
C952 H941 0.950 . S
C952 C950 1.391 . S
C952 C953 1.400 . S
C953 C947 1.491 . S
C953 C952 1.400 . S
C953 C954 1.398 . S
C954 H942 0.950 . S
C954 C953 1.398 . S
C954 C955 1.391 . S
C955 H943 0.950 . S
C955 C951 1.393 . S
C955 C954 1.391 . S
H956 C964 0.950 . S
H957 C969 0.950 . S
H958 C966 0.950 . S
H959 C968 0.950 . S
H960 C970 0.950 . S
H961 C972 0.950 . S
H962 C974 0.950 . S
H963 C975 0.950 . S
C964 H956 0.950 . S
C964 C965 1.386 . S
C964 C966 1.391 . S
C965 C964 1.386 . S
C965 C969 1.393 . S
C966 H958 0.950 . S
C966 C964 1.391 . S
C966 C967 1.400 . S
C967 C966 1.400 . S
C967 C968 1.398 . S
C967 C973 1.491 . S
C968 H959 0.950 . S
C968 C967 1.398 . S
C968 C969 1.391 . S
C969 H957 0.950 . S
C969 C965 1.393 . S
C969 C968 1.391 . S
C970 H960 0.950 . S
C970 C971 1.386 . S
C970 C972 1.391 . S
C971 C970 1.386 . S
C971 C975 1.393 . S
C972 H961 0.950 . S
C972 C970 1.391 . S
C972 C973 1.400 . S
C973 C967 1.491 . S
C973 C972 1.400 . S
C973 C974 1.398 . S
C974 H962 0.950 . S
C974 C973 1.398 . S
C974 C975 1.391 . S
C975 H963 0.950 . S
C975 C971 1.393 . S
C975 C974 1.391 . S
H976 C984 0.950 . S
H977 C989 0.950 . S
H978 C986 0.950 . S
H979 C988 0.950 . S
H980 C990 0.950 . S
H981 C992 0.950 . S
H982 C994 0.950 . S
H983 C995 0.950 . S
C984 H976 0.950 . S
C984 C985 1.386 . S
C984 C986 1.391 . S
C985 C984 1.386 . S
C985 C989 1.393 . S
C986 H978 0.950 . S
C986 C984 1.391 . S
C986 C987 1.400 . S
C987 C986 1.400 . S
C987 C988 1.398 . S
C987 C993 1.491 . S
C988 H979 0.950 . S
C988 C987 1.398 . S
C988 C989 1.391 . S
C989 H977 0.950 . S
C989 C985 1.393 . S
C989 C988 1.391 . S
C990 H980 0.950 . S
C990 C991 1.386 . S
C990 C992 1.391 . S
C991 C990 1.386 . S
C991 C995 1.393 . S
C992 H981 0.950 . S
C992 C990 1.391 . S
C992 C993 1.400 . S
C993 C987 1.491 . S
C993 C992 1.400 . S
C993 C994 1.398 . S
C994 H982 0.950 . S
C994 C993 1.398 . S
C994 C995 1.391 . S
C995 H983 0.950 . S
C995 C991 1.393 . S
C995 C994 1.391 . S
H996 C1004 0.950 . S
H997 C1009 0.950 . S
H998 C1006 0.950 . S
H999 C1008 0.950 . S
H1000 C1010 0.950 . S
H1001 C1012 0.950 . S
H1002 C1014 0.950 . S
H1003 C1015 0.950 . S
C1004 H996 0.950 . S
C1004 C1005 1.386 . S
C1004 C1006 1.391 . S
C1005 C1004 1.386 . S
C1005 C1009 1.393 . S
C1006 H998 0.950 . S
C1006 C1004 1.391 . S
C1006 C1007 1.400 . S
C1007 C1006 1.400 . S
C1007 C1008 1.398 . S
C1007 C1013 1.491 . S
C1008 H999 0.950 . S
C1008 C1007 1.398 . S
C1008 C1009 1.391 . S
C1009 H997 0.950 . S
C1009 C1005 1.393 . S
C1009 C1008 1.391 . S
C1010 H1000 0.950 . S
C1010 C1011 1.386 . S
C1010 C1012 1.391 . S
C1011 C1010 1.386 . S
C1011 C1015 1.393 . S
C1012 H1001 0.950 . S
C1012 C1010 1.391 . S
C1012 C1013 1.400 . S
C1013 C1007 1.491 . S
C1013 C1012 1.400 . S
C1013 C1014 1.398 . S
C1014 H1002 0.950 . S
C1014 C1013 1.398 . S
C1014 C1015 1.391 . S
C1015 H1003 0.950 . S
C1015 C1011 1.393 . S
C1015 C1014 1.391 . S
H1016 C1024 0.950 . S
H1017 C1029 0.950 . S
H1018 C1026 0.950 . S
H1019 C1028 0.950 . S
H1020 C1030 0.950 . S
H1021 C1032 0.950 . S
H1022 C1034 0.950 . S
H1023 C1035 0.950 . S
C1024 H1016 0.950 . S
C1024 C1025 1.386 . S
C1024 C1026 1.391 . S
C1025 C1024 1.386 . S
C1025 C1029 1.393 . S
C1026 H1018 0.950 . S
C1026 C1024 1.391 . S
C1026 C1027 1.400 . S
C1027 C1026 1.400 . S
C1027 C1028 1.398 . S
C1027 C1033 1.491 . S
C1028 H1019 0.950 . S
C1028 C1027 1.398 . S
C1028 C1029 1.391 . S
C1029 H1017 0.950 . S
C1029 C1025 1.393 . S
C1029 C1028 1.391 . S
C1030 H1020 0.950 . S
C1030 C1031 1.386 . S
C1030 C1032 1.391 . S
C1031 C1030 1.386 . S
C1031 C1035 1.393 . S
C1032 H1021 0.950 . S
C1032 C1030 1.391 . S
C1032 C1033 1.400 . S
C1033 C1027 1.491 . S
C1033 C1032 1.400 . S
C1033 C1034 1.398 . S
C1034 H1022 0.950 . S
C1034 C1033 1.398 . S
C1034 C1035 1.391 . S
C1035 H1023 0.950 . S
C1035 C1031 1.393 . S
C1035 C1034 1.391 . S
H1036 C1044 0.950 . S
H1037 C1049 0.950 . S
H1038 C1046 0.950 . S
H1039 C1048 0.950 . S
H1040 C1050 0.950 . S
H1041 C1052 0.950 . S
H1042 C1054 0.950 . S
H1043 C1055 0.950 . S
C1044 H1036 0.950 . S
C1044 C1045 1.386 . S
C1044 C1046 1.391 . S
C1045 C1044 1.386 . S
C1045 C1049 1.393 . S
C1046 H1038 0.950 . S
C1046 C1044 1.391 . S
C1046 C1047 1.400 . S
C1047 C1046 1.400 . S
C1047 C1048 1.398 . S
C1047 C1053 1.491 . S
C1048 H1039 0.950 . S
C1048 C1047 1.398 . S
C1048 C1049 1.391 . S
C1049 H1037 0.950 . S
C1049 C1045 1.393 . S
C1049 C1048 1.391 . S
C1050 H1040 0.950 . S
C1050 C1051 1.386 . S
C1050 C1052 1.391 . S
C1051 C1050 1.386 . S
C1051 C1055 1.393 . S
C1052 H1041 0.950 . S
C1052 C1050 1.391 . S
C1052 C1053 1.400 . S
C1053 C1047 1.491 . S
C1053 C1052 1.400 . S
C1053 C1054 1.398 . S
C1054 H1042 0.950 . S
C1054 C1053 1.398 . S
C1054 C1055 1.391 . S
C1055 H1043 0.950 . S
C1055 C1051 1.393 . S
C1055 C1054 1.391 . S
H1056 C1064 0.950 . S
H1057 C1069 0.950 . S
H1058 C1066 0.950 . S
H1059 C1068 0.950 . S
H1060 C1070 0.950 . S
H1061 C1072 0.950 . S
H1062 C1074 0.950 . S
H1063 C1075 0.950 . S
C1064 H1056 0.950 . S
C1064 C1065 1.386 . S
C1064 C1066 1.391 . S
C1065 C1064 1.386 . S
C1065 C1069 1.393 . S
C1066 H1058 0.950 . S
C1066 C1064 1.391 . S
C1066 C1067 1.400 . S
C1067 C1066 1.400 . S
C1067 C1068 1.398 . S
C1067 C1073 1.491 . S
C1068 H1059 0.950 . S
C1068 C1067 1.398 . S
C1068 C1069 1.391 . S
C1069 H1057 0.950 . S
C1069 C1065 1.393 . S
C1069 C1068 1.391 . S
C1070 H1060 0.950 . S
C1070 C1071 1.386 . S
C1070 C1072 1.391 . S
C1071 C1070 1.386 . S
C1071 C1075 1.393 . S
C1072 H1061 0.950 . S
C1072 C1070 1.391 . S
C1072 C1073 1.400 . S
C1073 C1067 1.491 . S
C1073 C1072 1.400 . S
C1073 C1074 1.398 . S
C1074 H1062 0.950 . S
C1074 C1073 1.398 . S
C1074 C1075 1.391 . S
C1075 H1063 0.950 . S
C1075 C1071 1.393 . S
C1075 C1074 1.391 . S
H1076 C1084 0.950 . S
H1077 C1089 0.950 . S
H1078 C1086 0.950 . S
H1079 C1088 0.950 . S
H1080 C1090 0.950 . S
H1081 C1092 0.950 . S
H1082 C1094 0.950 . S
H1083 C1095 0.950 . S
C1084 H1076 0.950 . S
C1084 C1085 1.386 . S
C1084 C1086 1.391 . S
C1085 C1084 1.386 . S
C1085 C1089 1.393 . S
C1086 H1078 0.950 . S
C1086 C1084 1.391 . S
C1086 C1087 1.400 . S
C1087 C1086 1.400 . S
C1087 C1088 1.398 . S
C1087 C1093 1.491 . S
C1088 H1079 0.950 . S
C1088 C1087 1.398 . S
C1088 C1089 1.391 . S
C1089 H1077 0.950 . S
C1089 C1085 1.393 . S
C1089 C1088 1.391 . S
C1090 H1080 0.950 . S
C1090 C1091 1.386 . S
C1090 C1092 1.391 . S
C1091 C1090 1.386 . S
C1091 C1095 1.393 . S
C1092 H1081 0.950 . S
C1092 C1090 1.391 . S
C1092 C1093 1.400 . S
C1093 C1087 1.491 . S
C1093 C1092 1.400 . S
C1093 C1094 1.398 . S
C1094 H1082 0.950 . S
C1094 C1093 1.398 . S
C1094 C1095 1.391 . S
C1095 H1083 0.950 . S
C1095 C1091 1.393 . S
C1095 C1094 1.391 . S
H1096 C1104 0.950 . S
H1097 C1109 0.950 . S
H1098 C1106 0.950 . S
H1099 C1108 0.950 . S
H1100 C1110 0.950 . S
H1101 C1112 0.950 . S
H1102 C1114 0.950 . S
H1103 C1115 0.950 . S
C1104 H1096 0.950 . S
C1104 C1105 1.386 . S
C1104 C1106 1.391 . S
C1105 C1104 1.386 . S
C1105 C1109 1.393 . S
C1106 H1098 0.950 . S
C1106 C1104 1.391 . S
C1106 C1107 1.400 . S
C1107 C1106 1.400 . S
C1107 C1108 1.398 . S
C1107 C1113 1.491 . S
C1108 H1099 0.950 . S
C1108 C1107 1.398 . S
C1108 C1109 1.391 . S
C1109 H1097 0.950 . S
C1109 C1105 1.393 . S
C1109 C1108 1.391 . S
C1110 H1100 0.950 . S
C1110 C1111 1.386 . S
C1110 C1112 1.391 . S
C1111 C1110 1.386 . S
C1111 C1115 1.393 . S
C1112 H1101 0.950 . S
C1112 C1110 1.391 . S
C1112 C1113 1.400 . S
C1113 C1107 1.491 . S
C1113 C1112 1.400 . S
C1113 C1114 1.398 . S
C1114 H1102 0.950 . S
C1114 C1113 1.398 . S
C1114 C1115 1.391 . S
C1115 H1103 0.950 . S
C1115 C1111 1.393 . S
C1115 C1114 1.391 . S
H1116 C1124 0.950 . S
H1117 C1129 0.950 . S
H1118 C1126 0.950 . S
H1119 C1128 0.950 . S
H1120 C1130 0.950 . S
H1121 C1132 0.950 . S
H1122 C1134 0.950 . S
H1123 C1135 0.950 . S
C1124 H1116 0.950 . S
C1124 C1125 1.386 . S
C1124 C1126 1.391 . S
C1125 C1124 1.386 . S
C1125 C1129 1.393 . S
C1126 H1118 0.950 . S
C1126 C1124 1.391 . S
C1126 C1127 1.400 . S
C1127 C1126 1.400 . S
C1127 C1128 1.398 . S
C1127 C1133 1.491 . S
C1128 H1119 0.950 . S
C1128 C1127 1.398 . S
C1128 C1129 1.391 . S
C1129 H1117 0.950 . S
C1129 C1125 1.393 . S
C1129 C1128 1.391 . S
C1130 H1120 0.950 . S
C1130 C1131 1.386 . S
C1130 C1132 1.391 . S
C1131 C1130 1.386 . S
C1131 C1135 1.393 . S
C1132 H1121 0.950 . S
C1132 C1130 1.391 . S
C1132 C1133 1.400 . S
C1133 C1127 1.491 . S
C1133 C1132 1.400 . S
C1133 C1134 1.398 . S
C1134 H1122 0.950 . S
C1134 C1133 1.398 . S
C1134 C1135 1.391 . S
C1135 H1123 0.950 . S
C1135 C1131 1.393 . S
C1135 C1134 1.391 . S
H1136 C1144 0.950 . S
H1137 C1149 0.950 . S
H1138 C1146 0.950 . S
H1139 C1148 0.950 . S
H1140 C1150 0.950 . S
H1141 C1152 0.950 . S
H1142 C1154 0.950 . S
H1143 C1155 0.950 . S
C1144 H1136 0.950 . S
C1144 C1145 1.386 . S
C1144 C1146 1.391 . S
C1145 C1144 1.386 . S
C1145 C1149 1.393 . S
C1146 H1138 0.950 . S
C1146 C1144 1.391 . S
C1146 C1147 1.400 . S
C1147 C1146 1.400 . S
C1147 C1148 1.398 . S
C1147 C1153 1.491 . S
C1148 H1139 0.950 . S
C1148 C1147 1.398 . S
C1148 C1149 1.391 . S
C1149 H1137 0.950 . S
C1149 C1145 1.393 . S
C1149 C1148 1.391 . S
C1150 H1140 0.950 . S
C1150 C1151 1.386 . S
C1150 C1152 1.391 . S
C1151 C1150 1.386 . S
C1151 C1155 1.393 . S
C1152 H1141 0.950 . S
C1152 C1150 1.391 . S
C1152 C1153 1.400 . S
C1153 C1147 1.491 . S
C1153 C1152 1.400 . S
C1153 C1154 1.398 . S
C1154 H1142 0.950 . S
C1154 C1153 1.398 . S
C1154 C1155 1.391 . S
C1155 H1143 0.950 . S
C1155 C1151 1.393 . S
C1155 C1154 1.391 . S
H1156 C1164 0.950 . S
H1157 C1169 0.950 . S
H1158 C1166 0.950 . S
H1159 C1168 0.950 . S
H1160 C1170 0.950 . S
H1161 C1172 0.950 . S
H1162 C1174 0.950 . S
H1163 C1175 0.950 . S
C1164 H1156 0.950 . S
C1164 C1165 1.386 . S
C1164 C1166 1.391 . S
C1165 C1164 1.386 . S
C1165 C1169 1.393 . S
C1166 H1158 0.950 . S
C1166 C1164 1.391 . S
C1166 C1167 1.400 . S
C1167 C1166 1.400 . S
C1167 C1168 1.398 . S
C1167 C1173 1.491 . S
C1168 H1159 0.950 . S
C1168 C1167 1.398 . S
C1168 C1169 1.391 . S
C1169 H1157 0.950 . S
C1169 C1165 1.393 . S
C1169 C1168 1.391 . S
C1170 H1160 0.950 . S
C1170 C1171 1.386 . S
C1170 C1172 1.391 . S
C1171 C1170 1.386 . S
C1171 C1175 1.393 . S
C1172 H1161 0.950 . S
C1172 C1170 1.391 . S
C1172 C1173 1.400 . S
C1173 C1167 1.491 . S
C1173 C1172 1.400 . S
C1173 C1174 1.398 . S
C1174 H1162 0.950 . S
C1174 C1173 1.398 . S
C1174 C1175 1.391 . S
C1175 H1163 0.950 . S
C1175 C1171 1.393 . S
C1175 C1174 1.391 . S
H1176 C1184 0.950 . S
H1177 C1189 0.950 . S
H1178 C1186 0.950 . S
H1179 C1188 0.950 . S
H1180 C1190 0.950 . S
H1181 C1192 0.950 . S
H1182 C1194 0.950 . S
H1183 C1195 0.950 . S
C1184 H1176 0.950 . S
C1184 C1185 1.386 . S
C1184 C1186 1.391 . S
C1185 C1184 1.386 . S
C1185 C1189 1.393 . S
C1186 H1178 0.950 . S
C1186 C1184 1.391 . S
C1186 C1187 1.400 . S
C1187 C1186 1.400 . S
C1187 C1188 1.398 . S
C1187 C1193 1.491 . S
C1188 H1179 0.950 . S
C1188 C1187 1.398 . S
C1188 C1189 1.391 . S
C1189 H1177 0.950 . S
C1189 C1185 1.393 . S
C1189 C1188 1.391 . S
C1190 H1180 0.950 . S
C1190 C1191 1.386 . S
C1190 C1192 1.391 . S
C1191 C1190 1.386 . S
C1191 C1195 1.393 . S
C1192 H1181 0.950 . S
C1192 C1190 1.391 . S
C1192 C1193 1.400 . S
C1193 C1187 1.491 . S
C1193 C1192 1.400 . S
C1193 C1194 1.398 . S
C1194 H1182 0.950 . S
C1194 C1193 1.398 . S
C1194 C1195 1.391 . S
C1195 H1183 0.950 . S
C1195 C1191 1.393 . S
C1195 C1194 1.391 . S
H1196 C1204 0.950 . S
H1197 C1209 0.950 . S
H1198 C1206 0.950 . S
H1199 C1208 0.950 . S
H1200 C1210 0.950 . S
H1201 C1212 0.950 . S
H1202 C1214 0.950 . S
H1203 C1215 0.950 . S
C1204 H1196 0.950 . S
C1204 C1205 1.386 . S
C1204 C1206 1.391 . S
C1205 C1204 1.386 . S
C1205 C1209 1.393 . S
C1206 H1198 0.950 . S
C1206 C1204 1.391 . S
C1206 C1207 1.400 . S
C1207 C1206 1.400 . S
C1207 C1208 1.398 . S
C1207 C1213 1.491 . S
C1208 H1199 0.950 . S
C1208 C1207 1.398 . S
C1208 C1209 1.391 . S
C1209 H1197 0.950 . S
C1209 C1205 1.393 . S
C1209 C1208 1.391 . S
C1210 H1200 0.950 . S
C1210 C1211 1.386 . S
C1210 C1212 1.391 . S
C1211 C1210 1.386 . S
C1211 C1215 1.393 . S
C1212 H1201 0.950 . S
C1212 C1210 1.391 . S
C1212 C1213 1.400 . S
C1213 C1207 1.491 . S
C1213 C1212 1.400 . S
C1213 C1214 1.398 . S
C1214 H1202 0.950 . S
C1214 C1213 1.398 . S
C1214 C1215 1.391 . S
C1215 H1203 0.950 . S
C1215 C1211 1.393 . S
C1215 C1214 1.391 . S
H1216 C1224 0.950 . S
H1217 C1229 0.950 . S
H1218 C1226 0.950 . S
H1219 C1228 0.950 . S
H1220 C1230 0.950 . S
H1221 C1232 0.950 . S
H1222 C1234 0.950 . S
H1223 C1235 0.950 . S
C1224 H1216 0.950 . S
C1224 C1225 1.386 . S
C1224 C1226 1.391 . S
C1225 C1224 1.386 . S
C1225 C1229 1.393 . S
C1226 H1218 0.950 . S
C1226 C1224 1.391 . S
C1226 C1227 1.400 . S
C1227 C1226 1.400 . S
C1227 C1228 1.398 . S
C1227 C1233 1.491 . S
C1228 H1219 0.950 . S
C1228 C1227 1.398 . S
C1228 C1229 1.391 . S
C1229 H1217 0.950 . S
C1229 C1225 1.393 . S
C1229 C1228 1.391 . S
C1230 H1220 0.950 . S
C1230 C1231 1.386 . S
C1230 C1232 1.391 . S
C1231 C1230 1.386 . S
C1231 C1235 1.393 . S
C1232 H1221 0.950 . S
C1232 C1230 1.391 . S
C1232 C1233 1.400 . S
C1233 C1227 1.491 . S
C1233 C1232 1.400 . S
C1233 C1234 1.398 . S
C1234 H1222 0.950 . S
C1234 C1233 1.398 . S
C1234 C1235 1.391 . S
C1235 H1223 0.950 . S
C1235 C1231 1.393 . S
C1235 C1234 1.391 . S
H1236 C1244 0.950 . S
H1237 C1249 0.950 . S
H1238 C1246 0.950 . S
H1239 C1248 0.950 . S
H1240 C1250 0.950 . S
H1241 C1252 0.950 . S
H1242 C1254 0.950 . S
H1243 C1255 0.950 . S
C1244 H1236 0.950 . S
C1244 C1245 1.386 . S
C1244 C1246 1.391 . S
C1245 C1244 1.386 . S
C1245 C1249 1.393 . S
C1246 H1238 0.950 . S
C1246 C1244 1.391 . S
C1246 C1247 1.400 . S
C1247 C1246 1.400 . S
C1247 C1248 1.398 . S
C1247 C1253 1.491 . S
C1248 H1239 0.950 . S
C1248 C1247 1.398 . S
C1248 C1249 1.391 . S
C1249 H1237 0.950 . S
C1249 C1245 1.393 . S
C1249 C1248 1.391 . S
C1250 H1240 0.950 . S
C1250 C1251 1.386 . S
C1250 C1252 1.391 . S
C1251 C1250 1.386 . S
C1251 C1255 1.393 . S
C1252 H1241 0.950 . S
C1252 C1250 1.391 . S
C1252 C1253 1.400 . S
C1253 C1247 1.491 . S
C1253 C1252 1.400 . S
C1253 C1254 1.398 . S
C1254 H1242 0.950 . S
C1254 C1253 1.398 . S
C1254 C1255 1.391 . S
C1255 H1243 0.950 . S
C1255 C1251 1.393 . S
C1255 C1254 1.391 . S
H1256 C1264 0.950 . S
H1257 C1269 0.950 . S
H1258 C1266 0.950 . S
H1259 C1268 0.950 . S
H1260 C1270 0.950 . S
H1261 C1272 0.950 . S
H1262 C1274 0.950 . S
H1263 C1275 0.950 . S
C1264 H1256 0.950 . S
C1264 C1265 1.386 . S
C1264 C1266 1.391 . S
C1265 C1264 1.386 . S
C1265 C1269 1.393 . S
C1266 H1258 0.950 . S
C1266 C1264 1.391 . S
C1266 C1267 1.400 . S
C1267 C1266 1.400 . S
C1267 C1268 1.398 . S
C1267 C1273 1.491 . S
C1268 H1259 0.950 . S
C1268 C1267 1.398 . S
C1268 C1269 1.391 . S
C1269 H1257 0.950 . S
C1269 C1265 1.393 . S
C1269 C1268 1.391 . S
C1270 H1260 0.950 . S
C1270 C1271 1.386 . S
C1270 C1272 1.391 . S
C1271 C1270 1.386 . S
C1271 C1275 1.393 . S
C1272 H1261 0.950 . S
C1272 C1270 1.391 . S
C1272 C1273 1.400 . S
C1273 C1267 1.491 . S
C1273 C1272 1.400 . S
C1273 C1274 1.398 . S
C1274 H1262 0.950 . S
C1274 C1273 1.398 . S
C1274 C1275 1.391 . S
C1275 H1263 0.950 . S
C1275 C1271 1.393 . S
C1275 C1274 1.391 . S
H1276 C1284 0.950 . S
H1277 C1289 0.950 . S
H1278 C1286 0.950 . S
H1279 C1288 0.950 . S
H1280 C1290 0.950 . S
H1281 C1292 0.950 . S
H1282 C1294 0.950 . S
H1283 C1295 0.950 . S
C1284 H1276 0.950 . S
C1284 C1285 1.386 . S
C1284 C1286 1.391 . S
C1285 C1284 1.386 . S
C1285 C1289 1.393 . S
C1286 H1278 0.950 . S
C1286 C1284 1.391 . S
C1286 C1287 1.400 . S
C1287 C1286 1.400 . S
C1287 C1288 1.398 . S
C1287 C1293 1.491 . S
C1288 H1279 0.950 . S
C1288 C1287 1.398 . S
C1288 C1289 1.391 . S
C1289 H1277 0.950 . S
C1289 C1285 1.393 . S
C1289 C1288 1.391 . S
C1290 H1280 0.950 . S
C1290 C1291 1.386 . S
C1290 C1292 1.391 . S
C1291 C1290 1.386 . S
C1291 C1295 1.393 . S
C1292 H1281 0.950 . S
C1292 C1290 1.391 . S
C1292 C1293 1.400 . S
C1293 C1287 1.491 . S
C1293 C1292 1.400 . S
C1293 C1294 1.398 . S
C1294 H1282 0.950 . S
C1294 C1293 1.398 . S
C1294 C1295 1.391 . S
C1295 H1283 0.950 . S
C1295 C1291 1.393 . S
C1295 C1294 1.391 . S
H1296 C1304 0.950 . S
H1297 C1309 0.950 . S
H1298 C1306 0.950 . S
H1299 C1308 0.950 . S
H1300 C1310 0.950 . S
H1301 C1312 0.950 . S
H1302 C1314 0.950 . S
H1303 C1315 0.950 . S
C1304 H1296 0.950 . S
C1304 C1305 1.386 . S
C1304 C1306 1.391 . S
C1305 C1304 1.386 . S
C1305 C1309 1.393 . S
C1306 H1298 0.950 . S
C1306 C1304 1.391 . S
C1306 C1307 1.400 . S
C1307 C1306 1.400 . S
C1307 C1308 1.398 . S
C1307 C1313 1.491 . S
C1308 H1299 0.950 . S
C1308 C1307 1.398 . S
C1308 C1309 1.391 . S
C1309 H1297 0.950 . S
C1309 C1305 1.393 . S
C1309 C1308 1.391 . S
C1310 H1300 0.950 . S
C1310 C1311 1.386 . S
C1310 C1312 1.391 . S
C1311 C1310 1.386 . S
C1311 C1315 1.393 . S
C1312 H1301 0.950 . S
C1312 C1310 1.391 . S
C1312 C1313 1.400 . S
C1313 C1307 1.491 . S
C1313 C1312 1.400 . S
C1313 C1314 1.398 . S
C1314 H1302 0.950 . S
C1314 C1313 1.398 . S
C1314 C1315 1.391 . S
C1315 H1303 0.950 . S
C1315 C1311 1.393 . S
C1315 C1314 1.391 . S
H1316 C1324 0.950 . S
H1317 C1329 0.950 . S
H1318 C1326 0.950 . S
H1319 C1328 0.950 . S
H1320 C1330 0.950 . S
H1321 C1332 0.950 . S
H1322 C1334 0.950 . S
H1323 C1335 0.950 . S
C1324 H1316 0.950 . S
C1324 C1325 1.386 . S
C1324 C1326 1.391 . S
C1325 C1324 1.386 . S
C1325 C1329 1.393 . S
C1326 H1318 0.950 . S
C1326 C1324 1.391 . S
C1326 C1327 1.400 . S
C1327 C1326 1.400 . S
C1327 C1328 1.398 . S
C1327 C1333 1.491 . S
C1328 H1319 0.950 . S
C1328 C1327 1.398 . S
C1328 C1329 1.391 . S
C1329 H1317 0.950 . S
C1329 C1325 1.393 . S
C1329 C1328 1.391 . S
C1330 H1320 0.950 . S
C1330 C1331 1.386 . S
C1330 C1332 1.391 . S
C1331 C1330 1.386 . S
C1331 C1335 1.393 . S
C1332 H1321 0.950 . S
C1332 C1330 1.391 . S
C1332 C1333 1.400 . S
C1333 C1327 1.491 . S
C1333 C1332 1.400 . S
C1333 C1334 1.398 . S
C1334 H1322 0.950 . S
C1334 C1333 1.398 . S
C1334 C1335 1.391 . S
C1335 H1323 0.950 . S
C1335 C1331 1.393 . S
C1335 C1334 1.391 . S
H1336 C1344 0.950 . S
H1337 C1349 0.950 . S
H1338 C1346 0.950 . S
H1339 C1348 0.950 . S
H1340 C1350 0.950 . S
H1341 C1352 0.950 . S
H1342 C1354 0.950 . S
H1343 C1355 0.950 . S
C1344 H1336 0.950 . S
C1344 C1345 1.386 . S
C1344 C1346 1.391 . S
C1345 C1344 1.386 . S
C1345 C1349 1.393 . S
C1346 H1338 0.950 . S
C1346 C1344 1.391 . S
C1346 C1347 1.400 . S
C1347 C1346 1.400 . S
C1347 C1348 1.398 . S
C1347 C1353 1.491 . S
C1348 H1339 0.950 . S
C1348 C1347 1.398 . S
C1348 C1349 1.391 . S
C1349 H1337 0.950 . S
C1349 C1345 1.393 . S
C1349 C1348 1.391 . S
C1350 H1340 0.950 . S
C1350 C1351 1.386 . S
C1350 C1352 1.391 . S
C1351 C1350 1.386 . S
C1351 C1355 1.393 . S
C1352 H1341 0.950 . S
C1352 C1350 1.391 . S
C1352 C1353 1.400 . S
C1353 C1347 1.491 . S
C1353 C1352 1.400 . S
C1353 C1354 1.398 . S
C1354 H1342 0.950 . S
C1354 C1353 1.398 . S
C1354 C1355 1.391 . S
C1355 H1343 0.950 . S
C1355 C1351 1.393 . S
C1355 C1354 1.391 . S
H1356 C1364 0.950 . S
H1357 C1369 0.950 . S
H1358 C1366 0.950 . S
H1359 C1368 0.950 . S
H1360 C1370 0.950 . S
H1361 C1372 0.950 . S
H1362 C1374 0.950 . S
H1363 C1375 0.950 . S
C1364 H1356 0.950 . S
C1364 C1365 1.386 . S
C1364 C1366 1.391 . S
C1365 C1364 1.386 . S
C1365 C1369 1.393 . S
C1366 H1358 0.950 . S
C1366 C1364 1.391 . S
C1366 C1367 1.400 . S
C1367 C1366 1.400 . S
C1367 C1368 1.398 . S
C1367 C1373 1.491 . S
C1368 H1359 0.950 . S
C1368 C1367 1.398 . S
C1368 C1369 1.391 . S
C1369 H1357 0.950 . S
C1369 C1365 1.393 . S
C1369 C1368 1.391 . S
C1370 H1360 0.950 . S
C1370 C1371 1.386 . S
C1370 C1372 1.391 . S
C1371 C1370 1.386 . S
C1371 C1375 1.393 . S
C1372 H1361 0.950 . S
C1372 C1370 1.391 . S
C1372 C1373 1.400 . S
C1373 C1367 1.491 . S
C1373 C1372 1.400 . S
C1373 C1374 1.398 . S
C1374 H1362 0.950 . S
C1374 C1373 1.398 . S
C1374 C1375 1.391 . S
C1375 H1363 0.950 . S
C1375 C1371 1.393 . S
C1375 C1374 1.391 . S
H1376 C1384 0.950 . S
H1377 C1389 0.950 . S
H1378 C1386 0.950 . S
H1379 C1388 0.950 . S
H1380 C1390 0.950 . S
H1381 C1392 0.950 . S
H1382 C1394 0.950 . S
H1383 C1395 0.950 . S
C1384 H1376 0.950 . S
C1384 C1385 1.386 . S
C1384 C1386 1.391 . S
C1385 C1384 1.386 . S
C1385 C1389 1.393 . S
C1386 H1378 0.950 . S
C1386 C1384 1.391 . S
C1386 C1387 1.400 . S
C1387 C1386 1.400 . S
C1387 C1388 1.398 . S
C1387 C1393 1.491 . S
C1388 H1379 0.950 . S
C1388 C1387 1.398 . S
C1388 C1389 1.391 . S
C1389 H1377 0.950 . S
C1389 C1385 1.393 . S
C1389 C1388 1.391 . S
C1390 H1380 0.950 . S
C1390 C1391 1.386 . S
C1390 C1392 1.391 . S
C1391 C1390 1.386 . S
C1391 C1395 1.393 . S
C1392 H1381 0.950 . S
C1392 C1390 1.391 . S
C1392 C1393 1.400 . S
C1393 C1387 1.491 . S
C1393 C1392 1.400 . S
C1393 C1394 1.398 . S
C1394 H1382 0.950 . S
C1394 C1393 1.398 . S
C1394 C1395 1.391 . S
C1395 H1383 0.950 . S
C1395 C1391 1.393 . S
C1395 C1394 1.391 . S
C451 C295 1.928 . S
C445 N2 2.056 . S
C471 C297 1.926 . S
C465 C7 1.921 . S
C491 C324 1.778 . S
C485 N12 1.756 . S
C505 C16 2.225 . S
C511 C345 2.253 . S
C531 C365 2.104 . S
C525 C30 2.093 . S
C551 C395 1.609 . S
C545 N35 1.660 . S
C565 C39 2.120 . S
C571 C397 2.116 . S
C591 C435 1.843 . S
C585 N25 1.846 . S
C611 C277 1.331 . S
C605 N58 1.270 . S
C625 N81 1.141 . S
C631 C302 1.181 . S
C651 C332 1.062 . S
C645 N104 1.057 . S
C665 N127 1.648 . S
C671 C344 1.583 . S
C691 C364 0.899 . S
C685 N48 0.952 . S
C711 C377 1.612 . S
C705 N71 1.605 . S
C725 N94 0.565 . S
C731 C402 0.580 . S
C751 C417 1.695 . S
C745 N117 1.683 . S
C765 C85 1.662 . S
C771 C282 1.632 . S
C785 C122 1.665 . S
C791 C372 1.623 . S
C805 C53 1.497 . S
C811 C382 1.455 . S
C831 C415 1.543 . S
C825 C76 1.636 . S
C851 C422 1.522 . S
C845 C99 1.568 1_565 S
C871 C325 1.934 . S
C865 C131 1.903 . S
C891 C352 1.002 . S
C885 C62 1.045 . S
C905 C108 0.887 . S
C911 C315 0.886 . S
C931 C424 2.022 . S
C925 N140 2.152 . S
C945 C145 2.063 . S
C951 C357 2.074 . S
C971 C384 1.695 . S
C965 N150 1.694 . S
C985 C154 2.070 . S
C991 C405 2.095 . S
C1011 C305 1.937 . S
C1005 C168 1.921 . S
C1025 N173 1.586 . S
C1031 C335 1.608 . S
C1051 C337 2.266 . S
C1045 C177 2.268 . S
C1071 C284 1.881 . S
C1065 N163 1.922 . S
C1091 C432 1.445 . S
C1085 C200 1.480 . S
C1111 C362 1.600 . S
C1105 N219 1.607 . S
C1125 N242 1.216 . S
C1131 C392 1.237 . S
C1151 C404 1.516 . S
C1145 C269 1.641 . S
C1171 C304 0.805 . S
C1165 C191 0.814 . S
C1185 N209 1.814 . S
C1191 C317 1.827 . S
C1205 N232 0.983 . S
C1211 C342 0.990 . S
C1225 C260 1.780 . S
C1231 C292 1.719 . S
C1245 C223 1.767 . S
C1251 C425 1.798 . S
C1265 N255 1.119 . S
C1271 C312 1.167 . S
C1285 N186 1.171 . S
C1291 C322 1.178 . S
C1311 C355 1.578 . S
C1305 C214 1.696 . S
C1331 C285 1.611 . S
C1325 C237 1.607 . S
C1351 C385 1.543 . S
C1345 N265 1.497 . S
C1371 C412 0.652 . S
C1365 N196 0.652 . S
C1391 C375 0.906 . S
C1385 C246 0.917 . S
