# Generated by pormake.
# Topology iac, (4,6)-cn, num edge types: 1
# Building blocks:
#     Node 0, Type 0, BuildingBlock: AZAVOO_clean_sbu_0, # of connection points: 4
#     Node 1, Type 0, BuildingBlock: AZAVOO_clean_sbu_0, # of connection points: 4
#     Node 2, Type 0, BuildingBlock: AZAVOO_clean_sbu_0, # of connection points: 4
#     Node 3, Type 0, BuildingBlock: AZAVOO_clean_sbu_0, # of connection points: 4
#     Node 4, Type 0, BuildingBlock: AZAVOO_clean_sbu_0, # of connection points: 4
#     Node 5, Type 0, BuildingBlock: AZAVOO_clean_sbu_0, # of connection points: 4
#     Node 6, Type 0, BuildingBlock: AZAVOO_clean_sbu_0, # of connection points: 4
#     Node 7, Type 0, BuildingBlock: AZAVOO_clean_sbu_0, # of connection points: 4
#     Node 8, Type 0, BuildingBlock: AZAVOO_clean_sbu_0, # of connection points: 4
#     Node 9, Type 0, BuildingBlock: AZAVOO_clean_sbu_0, # of connection points: 4
#     Node 10, Type 0, BuildingBlock: AZAVOO_clean_sbu_0, # of connection points: 4
#     Node 11, Type 0, BuildingBlock: AZAVOO_clean_sbu_0, # of connection points: 4
#     Node 12, Type 0, BuildingBlock: AZAVOO_clean_sbu_0, # of connection points: 4
#     Node 13, Type 0, BuildingBlock: AZAVOO_clean_sbu_0, # of connection points: 4
#     Node 14, Type 0, BuildingBlock: AZAVOO_clean_sbu_0, # of connection points: 4
#     Node 15, Type 0, BuildingBlock: AZAVOO_clean_sbu_0, # of connection points: 4
#     Node 16, Type 0, BuildingBlock: AZAVOO_clean_sbu_0, # of connection points: 4
#     Node 17, Type 0, BuildingBlock: AZAVOO_clean_sbu_0, # of connection points: 4
#     Node 18, Type 0, BuildingBlock: AZAVOO_clean_sbu_0, # of connection points: 4
#     Node 19, Type 0, BuildingBlock: AZAVOO_clean_sbu_0, # of connection points: 4
#     Node 20, Type 0, BuildingBlock: AZAVOO_clean_sbu_0, # of connection points: 4
#     Node 21, Type 0, BuildingBlock: AZAVOO_clean_sbu_0, # of connection points: 4
#     Node 22, Type 0, BuildingBlock: AZAVOO_clean_sbu_0, # of connection points: 4
#     Node 23, Type 0, BuildingBlock: AZAVOO_clean_sbu_0, # of connection points: 4
#     Node 24, Type 1, BuildingBlock: CIFDUS_clean_sbu_1, # of connection points: 6
#     Node 25, Type 1, BuildingBlock: CIFDUS_clean_sbu_1, # of connection points: 6
#     Node 26, Type 1, BuildingBlock: CIFDUS_clean_sbu_1, # of connection points: 6
#     Node 27, Type 1, BuildingBlock: CIFDUS_clean_sbu_1, # of connection points: 6
#     Node 28, Type 1, BuildingBlock: CIFDUS_clean_sbu_1, # of connection points: 6
#     Node 29, Type 1, BuildingBlock: CIFDUS_clean_sbu_1, # of connection points: 6
#     Node 30, Type 1, BuildingBlock: CIFDUS_clean_sbu_1, # of connection points: 6
#     Node 31, Type 1, BuildingBlock: CIFDUS_clean_sbu_1, # of connection points: 6
#     Node 32, Type 1, BuildingBlock: CIFDUS_clean_sbu_1, # of connection points: 6
#     Node 33, Type 1, BuildingBlock: CIFDUS_clean_sbu_1, # of connection points: 6
#     Node 34, Type 1, BuildingBlock: CIFDUS_clean_sbu_1, # of connection points: 6
#     Node 35, Type 1, BuildingBlock: CIFDUS_clean_sbu_1, # of connection points: 6
#     Node 36, Type 1, BuildingBlock: CIFDUS_clean_sbu_1, # of connection points: 6
#     Node 37, Type 1, BuildingBlock: CIFDUS_clean_sbu_1, # of connection points: 6
#     Node 38, Type 1, BuildingBlock: CIFDUS_clean_sbu_1, # of connection points: 6
#     Node 39, Type 1, BuildingBlock: CIFDUS_clean_sbu_1, # of connection points: 6
#     Edge 40, Type (0, 1), BuildingBlock: XIVTED_clean_linker_0, # of connection points: 2
#     Edge 41, Type (0, 1), BuildingBlock: XIVTED_clean_linker_0, # of connection points: 2
#     Edge 42, Type (0, 1), BuildingBlock: XIVTED_clean_linker_0, # of connection points: 2
#     Edge 43, Type (0, 1), BuildingBlock: XIVTED_clean_linker_0, # of connection points: 2
#     Edge 44, Type (0, 1), BuildingBlock: XIVTED_clean_linker_0, # of connection points: 2
#     Edge 45, Type (0, 1), BuildingBlock: XIVTED_clean_linker_0, # of connection points: 2
#     Edge 46, Type (0, 1), BuildingBlock: XIVTED_clean_linker_0, # of connection points: 2
#     Edge 47, Type (0, 1), BuildingBlock: XIVTED_clean_linker_0, # of connection points: 2
#     Edge 48, Type (0, 1), BuildingBlock: XIVTED_clean_linker_0, # of connection points: 2
#     Edge 49, Type (0, 1), BuildingBlock: XIVTED_clean_linker_0, # of connection points: 2
#     Edge 50, Type (0, 1), BuildingBlock: XIVTED_clean_linker_0, # of connection points: 2
#     Edge 51, Type (0, 1), BuildingBlock: XIVTED_clean_linker_0, # of connection points: 2
#     Edge 52, Type (0, 1), BuildingBlock: XIVTED_clean_linker_0, # of connection points: 2
#     Edge 53, Type (0, 1), BuildingBlock: XIVTED_clean_linker_0, # of connection points: 2
#     Edge 54, Type (0, 1), BuildingBlock: XIVTED_clean_linker_0, # of connection points: 2
#     Edge 55, Type (0, 1), BuildingBlock: XIVTED_clean_linker_0, # of connection points: 2
#     Edge 56, Type (0, 1), BuildingBlock: XIVTED_clean_linker_0, # of connection points: 2
#     Edge 57, Type (0, 1), BuildingBlock: XIVTED_clean_linker_0, # of connection points: 2
#     Edge 58, Type (0, 1), BuildingBlock: XIVTED_clean_linker_0, # of connection points: 2
#     Edge 59, Type (0, 1), BuildingBlock: XIVTED_clean_linker_0, # of connection points: 2
#     Edge 60, Type (0, 1), BuildingBlock: XIVTED_clean_linker_0, # of connection points: 2
#     Edge 61, Type (0, 1), BuildingBlock: XIVTED_clean_linker_0, # of connection points: 2
#     Edge 62, Type (0, 1), BuildingBlock: XIVTED_clean_linker_0, # of connection points: 2
#     Edge 63, Type (0, 1), BuildingBlock: XIVTED_clean_linker_0, # of connection points: 2
#     Edge 64, Type (0, 1), BuildingBlock: XIVTED_clean_linker_0, # of connection points: 2
#     Edge 65, Type (0, 1), BuildingBlock: XIVTED_clean_linker_0, # of connection points: 2
#     Edge 66, Type (0, 1), BuildingBlock: XIVTED_clean_linker_0, # of connection points: 2
#     Edge 67, Type (0, 1), BuildingBlock: XIVTED_clean_linker_0, # of connection points: 2
#     Edge 68, Type (0, 1), BuildingBlock: XIVTED_clean_linker_0, # of connection points: 2
#     Edge 69, Type (0, 1), BuildingBlock: XIVTED_clean_linker_0, # of connection points: 2
#     Edge 70, Type (0, 1), BuildingBlock: XIVTED_clean_linker_0, # of connection points: 2
#     Edge 71, Type (0, 1), BuildingBlock: XIVTED_clean_linker_0, # of connection points: 2
#     Edge 72, Type (0, 1), BuildingBlock: XIVTED_clean_linker_0, # of connection points: 2
#     Edge 73, Type (0, 1), BuildingBlock: XIVTED_clean_linker_0, # of connection points: 2
#     Edge 74, Type (0, 1), BuildingBlock: XIVTED_clean_linker_0, # of connection points: 2
#     Edge 75, Type (0, 1), BuildingBlock: XIVTED_clean_linker_0, # of connection points: 2
#     Edge 76, Type (0, 1), BuildingBlock: XIVTED_clean_linker_0, # of connection points: 2
#     Edge 77, Type (0, 1), BuildingBlock: XIVTED_clean_linker_0, # of connection points: 2
#     Edge 78, Type (0, 1), BuildingBlock: XIVTED_clean_linker_0, # of connection points: 2
#     Edge 79, Type (0, 1), BuildingBlock: XIVTED_clean_linker_0, # of connection points: 2
#     Edge 80, Type (0, 1), BuildingBlock: XIVTED_clean_linker_0, # of connection points: 2
#     Edge 81, Type (0, 1), BuildingBlock: XIVTED_clean_linker_0, # of connection points: 2
#     Edge 82, Type (0, 1), BuildingBlock: XIVTED_clean_linker_0, # of connection points: 2
#     Edge 83, Type (0, 1), BuildingBlock: XIVTED_clean_linker_0, # of connection points: 2
#     Edge 84, Type (0, 1), BuildingBlock: XIVTED_clean_linker_0, # of connection points: 2
#     Edge 85, Type (0, 1), BuildingBlock: XIVTED_clean_linker_0, # of connection points: 2
#     Edge 86, Type (0, 1), BuildingBlock: XIVTED_clean_linker_0, # of connection points: 2
#     Edge 87, Type (0, 1), BuildingBlock: XIVTED_clean_linker_0, # of connection points: 2
#     Edge 88, Type (0, 1), BuildingBlock: XIVTED_clean_linker_0, # of connection points: 2
#     Edge 89, Type (0, 1), BuildingBlock: XIVTED_clean_linker_0, # of connection points: 2
#     Edge 90, Type (0, 1), BuildingBlock: XIVTED_clean_linker_0, # of connection points: 2
#     Edge 91, Type (0, 1), BuildingBlock: XIVTED_clean_linker_0, # of connection points: 2
#     Edge 92, Type (0, 1), BuildingBlock: XIVTED_clean_linker_0, # of connection points: 2
#     Edge 93, Type (0, 1), BuildingBlock: XIVTED_clean_linker_0, # of connection points: 2
#     Edge 94, Type (0, 1), BuildingBlock: XIVTED_clean_linker_0, # of connection points: 2
#     Edge 95, Type (0, 1), BuildingBlock: XIVTED_clean_linker_0, # of connection points: 2
#     Edge 96, Type (0, 1), BuildingBlock: XIVTED_clean_linker_0, # of connection points: 2
#     Edge 97, Type (0, 1), BuildingBlock: XIVTED_clean_linker_0, # of connection points: 2
#     Edge 98, Type (0, 1), BuildingBlock: XIVTED_clean_linker_0, # of connection points: 2
#     Edge 99, Type (0, 1), BuildingBlock: XIVTED_clean_linker_0, # of connection points: 2
#     Edge 100, Type (0, 1), BuildingBlock: XIVTED_clean_linker_0, # of connection points: 2
#     Edge 101, Type (0, 1), BuildingBlock: XIVTED_clean_linker_0, # of connection points: 2
#     Edge 102, Type (0, 1), BuildingBlock: XIVTED_clean_linker_0, # of connection points: 2
#     Edge 103, Type (0, 1), BuildingBlock: XIVTED_clean_linker_0, # of connection points: 2
#     Edge 104, Type (0, 1), BuildingBlock: XIVTED_clean_linker_0, # of connection points: 2
#     Edge 105, Type (0, 1), BuildingBlock: XIVTED_clean_linker_0, # of connection points: 2
#     Edge 106, Type (0, 1), BuildingBlock: XIVTED_clean_linker_0, # of connection points: 2
#     Edge 107, Type (0, 1), BuildingBlock: XIVTED_clean_linker_0, # of connection points: 2
#     Edge 108, Type (0, 1), BuildingBlock: XIVTED_clean_linker_0, # of connection points: 2
#     Edge 109, Type (0, 1), BuildingBlock: XIVTED_clean_linker_0, # of connection points: 2
#     Edge 110, Type (0, 1), BuildingBlock: XIVTED_clean_linker_0, # of connection points: 2
#     Edge 111, Type (0, 1), BuildingBlock: XIVTED_clean_linker_0, # of connection points: 2
#     Edge 112, Type (0, 1), BuildingBlock: XIVTED_clean_linker_0, # of connection points: 2
#     Edge 113, Type (0, 1), BuildingBlock: XIVTED_clean_linker_0, # of connection points: 2
#     Edge 114, Type (0, 1), BuildingBlock: XIVTED_clean_linker_0, # of connection points: 2
#     Edge 115, Type (0, 1), BuildingBlock: XIVTED_clean_linker_0, # of connection points: 2
#     Edge 116, Type (0, 1), BuildingBlock: XIVTED_clean_linker_0, # of connection points: 2
#     Edge 117, Type (0, 1), BuildingBlock: XIVTED_clean_linker_0, # of connection points: 2
#     Edge 118, Type (0, 1), BuildingBlock: XIVTED_clean_linker_0, # of connection points: 2
#     Edge 119, Type (0, 1), BuildingBlock: XIVTED_clean_linker_0, # of connection points: 2
#     Edge 120, Type (0, 1), BuildingBlock: XIVTED_clean_linker_0, # of connection points: 2
#     Edge 121, Type (0, 1), BuildingBlock: XIVTED_clean_linker_0, # of connection points: 2
#     Edge 122, Type (0, 1), BuildingBlock: XIVTED_clean_linker_0, # of connection points: 2
#     Edge 123, Type (0, 1), BuildingBlock: XIVTED_clean_linker_0, # of connection points: 2
#     Edge 124, Type (0, 1), BuildingBlock: XIVTED_clean_linker_0, # of connection points: 2
#     Edge 125, Type (0, 1), BuildingBlock: XIVTED_clean_linker_0, # of connection points: 2
#     Edge 126, Type (0, 1), BuildingBlock: XIVTED_clean_linker_0, # of connection points: 2
#     Edge 127, Type (0, 1), BuildingBlock: XIVTED_clean_linker_0, # of connection points: 2
#     Edge 128, Type (0, 1), BuildingBlock: XIVTED_clean_linker_0, # of connection points: 2
#     Edge 129, Type (0, 1), BuildingBlock: XIVTED_clean_linker_0, # of connection points: 2
#     Edge 130, Type (0, 1), BuildingBlock: XIVTED_clean_linker_0, # of connection points: 2
#     Edge 131, Type (0, 1), BuildingBlock: XIVTED_clean_linker_0, # of connection points: 2
#     Edge 132, Type (0, 1), BuildingBlock: XIVTED_clean_linker_0, # of connection points: 2
#     Edge 133, Type (0, 1), BuildingBlock: XIVTED_clean_linker_0, # of connection points: 2
#     Edge 134, Type (0, 1), BuildingBlock: XIVTED_clean_linker_0, # of connection points: 2
#     Edge 135, Type (0, 1), BuildingBlock: XIVTED_clean_linker_0, # of connection points: 2
# Relax obj value: 0.128
# Max RMSD: 0.178
# Mean RMSD: 0.151
data_MOF--net-iac--node1-AZAVOO_clean_sbu_0--node2-CIFDUS_clean_sbu_1--edge1-XIVTED_clean_linker_0
_symmetry_space_group_name_H-M    P1
_symmetry_Int_Tables_number       1
_symmetry_cell_setting            triclinic
loop_
_symmetry_equiv_pos_as_xyz
'x, y, z'
_cell_length_a     54.92178
_cell_length_b     52.321694
_cell_length_c     53.683148
_cell_angle_alpha  92.15214
_cell_angle_beta   89.779643
_cell_angle_gamma 90.937814
loop_
_atom_site_label
_atom_site_type_symbol
_atom_site_fract_x
_atom_site_fract_y
_atom_site_fract_z
_atom_type_partial_charge
Mg0 Mg 0.9841 0.26306 0.15372 0.0
O1 O 0.99458 0.22845 0.12853 0.0
O2 O 0.9693 0.22755 0.09605 0.0
Mg3 Mg 0.93938 0.25724 0.10352 0.0
C4 C 0.98759 0.2189 0.10749 0.0
C5 C 0.03044 0.24291 0.18116 0.0
O6 O 0.01848 0.22099 0.17901 0.0
O7 O 0.99681 0.29157 0.12516 0.0
O8 O 0.96596 0.29094 0.09801 0.0
O9 O 0.95952 0.23958 0.17724 0.0
O10 O 0.94784 0.2591 0.14368 0.0
C11 C 0.98587 0.30068 0.10655 0.0
C12 C 0.94219 0.2453 0.16221 0.0
O13 O 0.02125 0.26283 0.17241 0.0
Mg14 Mg 0.9869 0.7227 0.37757 0.0
O15 O 0.98924 0.76295 0.39639 0.0
O16 O 0.95284 0.7691 0.41436 0.0
Mg17 Mg 0.92867 0.73347 0.40886 0.0
C18 C 0.97416 0.77705 0.40856 0.0
C19 C 0.03273 0.716 0.34779 0.0
O20 O 0.01491 0.71166 0.33185 0.0
O21 O 0.99075 0.70389 0.41449 0.0
O22 O 0.954 0.70828 0.43193 0.0
O23 O 0.97324 0.74051 0.34422 0.0
O24 O 0.94942 0.72629 0.3743 0.0
C25 C 0.97567 0.69969 0.43205 0.0
C26 C 0.9518 0.73884 0.35414 0.0
O27 O 0.02755 0.72177 0.37039 0.0
Mg28 Mg 0.48339 0.7762 0.64242 0.0
O29 O 0.48568 0.73869 0.61873 0.0
O30 O 0.45208 0.73647 0.59529 0.0
Mg31 Mg 0.42821 0.77135 0.60436 0.0
C32 C 0.47222 0.72725 0.60234 0.0
C33 C 0.53198 0.76367 0.67061 0.0
O34 O 0.51678 0.75201 0.68554 0.0
O35 O 0.49146 0.8 0.60901 0.0
O36 O 0.45589 0.8007 0.58898 0.0
O37 O 0.46322 0.75708 0.673 0.0
O38 O 0.44565 0.7748 0.64115 0.0
C39 C 0.4779 0.80853 0.59206 0.0
C40 C 0.44348 0.7625 0.66132 0.0
O41 O 0.52376 0.77445 0.65163 0.0
Mg42 Mg 0.49538 0.26945 0.84931 0.0
O43 O 0.49977 0.30867 0.86962 0.0
O44 O 0.4686 0.31161 0.89654 0.0
Mg45 Mg 0.4462 0.27454 0.89549 0.0
C46 C 0.48744 0.32111 0.88611 0.0
C47 C 0.53805 0.29212 0.81736 0.0
O48 O 0.52403 0.31224 0.81807 0.0
O49 O 0.51027 0.24914 0.8828 0.0
O50 O 0.47858 0.25126 0.90905 0.0
O51 O 0.47088 0.28669 0.82226 0.0
O52 O 0.4583 0.26903 0.85693 0.0
C53 C 0.50001 0.24374 0.90343 0.0
C54 C 0.45328 0.28154 0.83747 0.0
O55 O 0.53227 0.27289 0.8301 0.0
Mg56 Mg 0.1309 0.97969 0.27639 0.0
O57 O 0.15038 0.0185 0.27222 0.0
O58 O 0.17527 0.02359 0.30491 0.0
Mg59 Mg 0.17011 0.9897 0.33083 0.0
C60 C 0.1664 0.03142 0.28463 0.0
C61 C 0.10102 0.99052 0.22831 0.0
O62 O 0.08727 0.00287 0.24464 0.0
O63 O 0.16508 0.95789 0.26692 0.0
O64 O 0.18505 0.9588 0.30314 0.0
O65 O 0.10014 0.99691 0.29838 0.0
O66 O 0.13372 0.98245 0.31488 0.0
C67 C 0.18191 0.94988 0.28085 0.0
C68 C 0.1128 0.99268 0.31807 0.0
O69 O 0.11997 0.97949 0.23569 0.0
Mg70 Mg 0.27058 0.88026 0.51655 0.0
O71 O 0.2705 0.8598 0.47762 0.0
O72 O 0.30462 0.83697 0.47646 0.0
Mg73 Mg 0.32495 0.84056 0.51342 0.0
C74 C 0.28544 0.845 0.4661 0.0
C75 C 0.2233 0.90492 0.53213 0.0
O76 O 0.23728 0.90657 0.55196 0.0
O77 O 0.25883 0.84369 0.53562 0.0
O78 O 0.29346 0.82183 0.53509 0.0
O79 O 0.29286 0.91162 0.5007 0.0
O80 O 0.30837 0.87806 0.51834 0.0
C81 C 0.27115 0.8243 0.5415 0.0
C82 C 0.3118 0.89855 0.50621 0.0
O83 O 0.23137 0.89352 0.51252 0.0
Mg84 Mg 0.37885 0.01168 0.78672 0.0
O85 O 0.36412 0.9706 0.78549 0.0
O86 O 0.3427 0.9655 0.82057 0.0
Mg87 Mg 0.34257 0.00321 0.84345 0.0
C88 C 0.35147 0.95677 0.79994 0.0
C89 C 0.41226 0.00975 0.73993 0.0
O90 O 0.42852 0.01145 0.75781 0.0
O91 O 0.34162 0.02604 0.77741 0.0
O92 O 0.32086 0.02321 0.81319 0.0
O93 O 0.41088 0.99873 0.80719 0.0
O94 O 0.37711 0.01288 0.82529 0.0
C95 C 0.32241 0.02957 0.79046 0.0
C96 C 0.39809 0.00263 0.82727 0.0
O97 O 0.38978 0.00857 0.74568 0.0
Mg98 Mg 0.28867 0.11801 0.96695 0.0
O99 O 0.28951 0.14252 0.00312 0.0
O100 O 0.32314 0.167 0.00369 0.0
Mg101 Mg 0.34419 0.15757 0.96719 0.0
C102 C 0.30339 0.15929 0.01383 0.0
C103 C 0.23277 0.11052 0.95658 0.0
O104 O 0.24049 0.1152 0.93398 0.0
O105 O 0.27946 0.15195 0.94405 0.0
O106 O 0.31475 0.17353 0.94126 0.0
O107 O 0.30985 0.08776 0.98521 0.0
O108 O 0.32672 0.11916 0.96451 0.0
C109 C 0.29242 0.1699 0.93515 0.0
C110 C 0.32941 0.0994 0.9777 0.0
O111 O 0.24819 0.10969 0.97415 0.0
Mg112 Mg 0.77706 0.39131 0.99846 0.0
O113 O 0.77236 0.36889 0.96098 0.0
O114 O 0.80137 0.33926 0.9594 0.0
Mg115 Mg 0.82318 0.34113 0.99554 0.0
C116 C 0.78336 0.3504 0.94979 0.0
C117 C 0.73906 0.43196 0.00875 0.0
O118 O 0.75672 0.4372 0.02469 0.0
O119 O 0.75899 0.35812 0.01832 0.0
O120 O 0.78886 0.32949 0.01732 0.0
O121 O 0.8053 0.41718 0.98212 0.0
O122 O 0.81357 0.3813 0.00039 0.0
C123 C 0.76748 0.33643 0.02387 0.0
C124 C 0.82129 0.40087 0.98879 0.0
O125 O 0.74112 0.41254 0.99391 0.0
Mg126 Mg 0.87185 0.51243 0.293 0.0
O127 O 0.85194 0.4743 0.28519 0.0
O128 O 0.82605 0.46854 0.31684 0.0
Mg129 Mg 0.82789 0.5037 0.34354 0.0
C130 C 0.8361 0.46082 0.29647 0.0
C131 C 0.9094 0.50978 0.24924 0.0
O132 O 0.92417 0.5072 0.26813 0.0
O133 O 0.83887 0.53434 0.28164 0.0
O134 O 0.81345 0.53078 0.31403 0.0
O135 O 0.89861 0.49149 0.31459 0.0
O136 O 0.8656 0.50936 0.33097 0.0
C137 C 0.81893 0.53963 0.2928 0.0
C138 C 0.88415 0.49498 0.3335 0.0
O139 O 0.88669 0.51182 0.25333 0.0
Mg140 Mg 0.77884 0.60961 0.47544 0.0
O141 O 0.78252 0.6347 0.51165 0.0
O142 O 0.81995 0.65193 0.51176 0.0
Mg143 Mg 0.84008 0.63795 0.47637 0.0
C144 C 0.79918 0.64865 0.52204 0.0
C145 C 0.73033 0.59786 0.50146 0.0
O146 O 0.74637 0.59301 0.51868 0.0
O147 O 0.77598 0.64392 0.45123 0.0
O148 O 0.81437 0.65877 0.45002 0.0
O149 O 0.79288 0.57686 0.49536 0.0
O150 O 0.81627 0.60364 0.47463 0.0
C151 C 0.79218 0.65921 0.44294 0.0
C152 C 0.81448 0.58448 0.48894 0.0
O153 O 0.73779 0.60657 0.48097 0.0
Mg154 Mg 0.60696 0.50726 0.76284 0.0
O155 O 0.6341 0.53817 0.75045 0.0
O156 O 0.66625 0.53723 0.7757 0.0
Mg157 Mg 0.65844 0.50859 0.8063 0.0
C158 C 0.65523 0.54619 0.7571 0.0
C159 C 0.57857 0.53203 0.71969 0.0
O160 O 0.58518 0.55295 0.73237 0.0
O161 O 0.631 0.47449 0.74765 0.0
O162 O 0.65855 0.47482 0.77838 0.0
O163 O 0.5893 0.53539 0.78938 0.0
O164 O 0.61942 0.51034 0.79926 0.0
C165 C 0.64897 0.46457 0.75873 0.0
C166 C 0.60435 0.52773 0.80593 0.0
O167 O 0.58558 0.51043 0.72682 0.0
Mg168 Mg 0.0011 0.74361 0.8734 0.0
O169 O 0.99725 0.78298 0.89312 0.0
O170 O 0.9629 0.78344 0.91547 0.0
Mg171 Mg 0.94429 0.74422 0.90862 0.0
C172 C 0.9823 0.79443 0.90781 0.0
C173 C 0.05613 0.73389 0.86563 0.0
O174 O 0.04828 0.7103 0.86834 0.0
O175 O 0.01055 0.72501 0.90945 0.0
O176 O 0.97487 0.72402 0.92955 0.0
O177 O 0.98101 0.75718 0.84043 0.0
O178 O 0.96365 0.73877 0.87255 0.0
C179 C 0.9975 0.71873 0.92799 0.0
C180 C 0.96135 0.74938 0.85142 0.0
O181 O 0.04099 0.75202 0.86647 0.0
Mg182 Mg 0.99321 0.24918 0.6741 0.0
O183 O 0.98919 0.20833 0.65954 0.0
O184 O 0.95153 0.20006 0.64587 0.0
Mg185 Mg 0.93061 0.23738 0.65335 0.0
C186 C 0.97328 0.19308 0.64993 0.0
C187 C 0.04834 0.25445 0.65663 0.0
O188 O 0.04086 0.27402 0.64429 0.0
O189 O 0.99204 0.26349 0.63481 0.0
O190 O 0.95298 0.25909 0.62386 0.0
O191 O 0.98235 0.23708 0.71215 0.0
O192 O 0.95669 0.24921 0.6832 0.0
C193 C 0.9748 0.26661 0.61944 0.0
C194 C 0.96018 0.23996 0.70477 0.0
O195 O 0.03379 0.24304 0.67111 0.0
Mg196 Mg 0.50204 0.2562 0.36113 0.0
O197 O 0.49472 0.29384 0.38301 0.0
O198 O 0.45728 0.29173 0.39914 0.0
Mg199 Mg 0.44096 0.25251 0.38727 0.0
C200 C 0.47734 0.30378 0.3957 0.0
C201 C 0.55716 0.24757 0.35885 0.0
O202 O 0.5488 0.22389 0.35885 0.0
O203 O 0.50705 0.2347 0.39657 0.0
O204 O 0.46896 0.23169 0.41113 0.0
O205 O 0.48611 0.27208 0.32676 0.0
O206 O 0.46535 0.2502 0.35444 0.0
C207 C 0.49168 0.22688 0.41252 0.0
C208 C 0.46555 0.26236 0.33402 0.0
O209 O 0.54221 0.26585 0.36003 0.0
Mg210 Mg 0.4945 0.79374 0.14975 0.0
O211 O 0.4952 0.75397 0.13147 0.0
O212 O 0.46375 0.74849 0.10564 0.0
Mg213 Mg 0.44313 0.78645 0.10739 0.0
C214 C 0.48271 0.74015 0.11612 0.0
C215 C 0.549 0.77806 0.14727 0.0
O216 O 0.54447 0.77547 0.12329 0.0
O217 O 0.5075 0.812 0.11469 0.0
O218 O 0.4749 0.80974 0.08997 0.0
O219 O 0.47171 0.77856 0.17984 0.0
O220 O 0.45706 0.79505 0.1456 0.0
C221 C 0.49683 0.81711 0.09449 0.0
C222 C 0.45315 0.78355 0.16613 0.0
O223 O 0.53274 0.78666 0.16211 0.0
Mg224 Mg 0.88689 0.0205 0.75841 0.0
O225 O 0.86602 0.98309 0.76473 0.0
O226 O 0.84663 0.98599 0.80128 0.0
Mg227 Mg 0.85836 0.02469 0.81995 0.0
C228 C 0.85207 0.97357 0.78115 0.0
C229 C 0.89304 0.02644 0.701 0.0
O230 O 0.89504 0.05068 0.70811 0.0
O231 O 0.85217 0.04265 0.75198 0.0
O232 O 0.83906 0.04869 0.79123 0.0
O233 O 0.92018 0.00501 0.77668 0.0
O234 O 0.89123 0.02651 0.79635 0.0
C235 C 0.83796 0.05322 0.76803 0.0
C236 C 0.91146 0.01464 0.79737 0.0
O237 O 0.88972 0.00971 0.71728 0.0
Mg238 Mg 0.75379 0.10851 0.47669 0.0
O239 O 0.76442 0.13335 0.51047 0.0
O240 O 0.80127 0.1507 0.50511 0.0
Mg241 Mg 0.815 0.13538 0.46702 0.0
C242 C 0.78204 0.14758 0.51814 0.0
C243 C 0.69677 0.11968 0.48241 0.0
O244 O 0.69909 0.12919 0.46022 0.0
O245 O 0.74787 0.14396 0.4538 0.0
O246 O 0.78588 0.1581 0.44703 0.0
O247 O 0.7723 0.07484 0.49337 0.0
O248 O 0.79017 0.10172 0.46813 0.0
C249 C 0.76288 0.15959 0.44395 0.0
C250 C 0.79181 0.08224 0.48187 0.0
O251 O 0.71499 0.10945 0.49242 0.0
Mg252 Mg 0.61608 0.98908 0.25932 0.0
O253 O 0.62462 0.0314 0.2612 0.0
O254 O 0.64516 0.04306 0.2955 0.0
Mg255 Mg 0.65 0.00577 0.31621 0.0
C256 C 0.6349 0.04847 0.27512 0.0
C257 C 0.61953 0.98528 0.20047 0.0
O258 O 0.6339 0.96602 0.20425 0.0
O259 O 0.65542 0.97974 0.24982 0.0
O260 O 0.67497 0.98821 0.28564 0.0
O261 O 0.58187 0.99672 0.28146 0.0
O262 O 0.61745 0.98777 0.29782 0.0
C263 C 0.67478 0.98 0.2629 0.0
C264 C 0.5951 0.99405 0.3011 0.0
O265 O 0.60799 0.99559 0.21868 0.0
Mg266 Mg 0.77587 0.88971 0.00929 0.0
O267 O 0.77012 0.86826 0.97156 0.0
O268 O 0.79639 0.8362 0.9689 0.0
Mg269 Mg 0.81693 0.8357 0.00604 0.0
C270 C 0.77961 0.84941 0.95957 0.0
C271 C 0.73224 0.9263 0.01916 0.0
O272 O 0.74507 0.93241 0.03918 0.0
O273 O 0.75555 0.85931 0.03032 0.0
O274 O 0.78201 0.82727 0.02884 0.0
O275 O 0.80597 0.91314 0.99291 0.0
O276 O 0.81157 0.87717 0.01223 0.0
C277 C 0.76181 0.83695 0.03609 0.0
C278 C 0.82076 0.89609 0.00062 0.0
O279 O 0.74054 0.91017 0.00316 0.0
Mg280 Mg 0.26138 0.60672 0.99157 0.0
O281 O 0.26626 0.62171 0.0311 0.0
O282 O 0.30231 0.64056 0.03742 0.0
Mg283 Mg 0.32134 0.63716 0.99886 0.0
C284 C 0.28155 0.63318 0.04542 0.0
C285 C 0.20371 0.61612 0.99435 0.0
O286 O 0.2074 0.63141 0.97582 0.0
O287 O 0.2565 0.64679 0.97666 0.0
O288 O 0.29429 0.66309 0.97931 0.0
O289 O 0.27963 0.57007 0.00194 0.0
O290 O 0.29886 0.60334 0.98646 0.0
C291 C 0.27206 0.6646 0.97255 0.0
C292 C 0.2998 0.5807 0.9948 0.0
O293 O 0.22122 0.60312 0.00238 0.0
Mg294 Mg 0.12253 0.4741 0.77608 0.0
O295 O 0.13675 0.51491 0.77827 0.0
O296 O 0.15993 0.52223 0.81183 0.0
Mg297 Mg 0.16158 0.48359 0.83061 0.0
C298 C 0.14966 0.52982 0.79221 0.0
C299 C 0.1051 0.50115 0.7285 0.0
O300 O 0.10014 0.51952 0.74499 0.0
O301 O 0.15937 0.46078 0.76338 0.0
O302 O 0.18275 0.46493 0.79726 0.0
O303 O 0.09072 0.48563 0.79949 0.0
O304 O 0.12566 0.47224 0.81435 0.0
C305 C 0.17972 0.45834 0.77427 0.0
C306 C 0.10436 0.48149 0.81853 0.0
O307 O 0.11263 0.47987 0.73581 0.0
Mg308 Mg 0.25797 0.39057 0.50747 0.0
O309 O 0.25978 0.3685 0.46927 0.0
O310 O 0.29668 0.35111 0.46682 0.0
Mg311 Mg 0.31715 0.35993 0.50319 0.0
C312 C 0.2759 0.35547 0.45743 0.0
C313 C 0.20594 0.40168 0.52383 0.0
O314 O 0.21834 0.40618 0.54445 0.0
O315 O 0.25217 0.35396 0.52789 0.0
O316 O 0.28913 0.33673 0.52574 0.0
O317 O 0.27523 0.42531 0.49123 0.0
O318 O 0.29554 0.39466 0.50867 0.0
C319 C 0.26695 0.33643 0.53309 0.0
C320 C 0.29595 0.41593 0.49744 0.0
O321 O 0.21723 0.39481 0.50404 0.0
Mg322 Mg 0.41273 0.49454 0.25063 0.0
O323 O 0.38961 0.45786 0.25388 0.0
O324 O 0.37458 0.45777 0.29265 0.0
Mg325 Mg 0.39082 0.49242 0.31482 0.0
C326 C 0.37663 0.44759 0.27074 0.0
C327 C 0.41245 0.5123 0.19671 0.0
O328 O 0.4125 0.53425 0.20944 0.0
O329 O 0.37894 0.51904 0.25111 0.0
O330 O 0.37009 0.52148 0.29178 0.0
O331 O 0.4467 0.47456 0.26162 0.0
O332 O 0.42111 0.4933 0.28807 0.0
C333 C 0.36689 0.52851 0.26947 0.0
C334 C 0.44047 0.48017 0.28443 0.0
O335 O 0.41188 0.49163 0.20844 0.0
O336 O 0.05421 0.0328 0.99744 0.0
Mn337 Mn 0.02631 0.00587 0.00445 0.0
O338 O 0.08731 0.01009 0.98598 0.0
Mn339 Mn 0.07611 0.97904 0.99701 0.0
O340 O -0.00122 0.97846 0.0103 0.0
O341 O 0.00733 0.03424 0.02165 0.0
Mn342 Mn 0.97625 0.02939 0.01482 0.0
O343 O 0.01029 0.01315 0.97038 0.0
O344 O 0.96678 0.99843 0.02739 0.0
O345 O 0.04168 0.99848 0.03868 0.0
O346 O 0.07579 0.97608 0.03146 0.0
O347 O 0.9777 0.05863 0.03472 0.0
O348 O 0.97434 0.03126 0.98042 0.0
C349 C 0.05011 0.95718 0.9748 0.0
C350 C 0.07618 0.03115 0.98908 0.0
C351 C 0.97762 0.9781 0.02051 0.0
C352 C 0.0009 0.05474 0.0341 0.0
C353 C 0.98998 0.02315 0.96441 0.0
C354 C 0.06028 0.98646 0.0463 0.0
O355 O 0.04536 0.97755 0.98801 0.0
O356 O 0.07273 0.95078 0.97536 0.0
O357 O 0.27775 0.73666 0.23968 0.0
Mn358 Mn 0.24589 0.72639 0.25764 0.0
O359 O 0.26524 0.74625 0.20107 0.0
Mn360 Mn 0.23163 0.74364 0.20587 0.0
O361 O 0.21324 0.71626 0.27482 0.0
O362 O 0.26384 0.70122 0.27762 0.0
Mn363 Mn 0.25574 0.70413 0.30932 0.0
O364 O 0.25166 0.75566 0.28503 0.0
O365 O 0.22248 0.69776 0.31071 0.0
O366 O 0.24154 0.69663 0.23045 0.0
O367 O 0.2181 0.71147 0.20083 0.0
O368 O 0.27789 0.67806 0.30684 0.0
O369 O 0.26534 0.73682 0.31924 0.0
C370 C 0.21619 0.77164 0.23068 0.0
C371 C 0.28201 0.74325 0.21721 0.0
C372 C 0.20704 0.70528 0.29497 0.0
C373 C 0.27786 0.68285 0.28337 0.0
C374 C 0.26052 0.7566 0.30721 0.0
C375 C 0.22907 0.69314 0.2104 0.0
O376 O 0.22791 0.75191 0.23765 0.0
O377 O 0.21297 0.77245 0.20685 0.0
O378 O 0.47818 0.99896 0.50872 0.0
Mn379 Mn 0.50311 0.02786 0.5205 0.0
O380 O 0.44509 0.019 0.49508 0.0
Mn381 Mn 0.45058 0.04814 0.51475 0.0
O382 O 0.52751 0.05764 0.5313 0.0
O383 O 0.52507 1.00019 0.53246 0.0
Mn384 Mn 0.55534 0.0103 0.52747 0.0
O385 O 0.51979 0.02581 0.48555 0.0
O386 O 0.56042 0.0397 0.54671 0.0
O387 O 0.48631 0.02953 0.55542 0.0
O388 O 0.44834 0.04368 0.54895 0.0
O389 O 0.55775 0.97907 0.54139 0.0
O390 O 0.55814 0.01358 0.49323 0.0
C391 C 0.47518 0.07731 0.50201 0.0
C392 C 0.45758 0.99892 0.49729 0.0
C393 C 0.54811 0.05936 0.54251 0.0
C394 C 0.53419 0.97964 0.54112 0.0
C395 C 0.54147 0.02018 0.47831 0.0
C396 C 0.46488 0.03551 0.56322 0.0
O397 O 0.48134 0.05517 0.50913 0.0
O398 O 0.45192 0.08074 0.50231 0.0
O399 O 0.28242 0.25384 0.75516 0.0
Mn400 Mn 0.25434 0.2433 0.73097 0.0
O401 O 0.31773 0.24625 0.73483 0.0
Mn402 Mn 0.30431 0.22502 0.70998 0.0
O403 O 0.22662 0.23333 0.70586 0.0
O404 O 0.23116 0.24552 0.7601 0.0
Mn405 Mn 0.20404 0.26013 0.75128 0.0
O406 O 0.25003 0.28202 0.7249 0.0
O407 O 0.19119 0.23898 0.72621 0.0
O408 O 0.25856 0.2047 0.7376 0.0
O409 O 0.2937 0.1928 0.71897 0.0
O410 O 0.20008 0.25205 0.78432 0.0
O411 O 0.21368 0.29257 0.74189 0.0
C412 C 0.28514 0.24107 0.6795 0.0
C413 C 0.30563 0.25566 0.75319 0.0
C414 C 0.20345 0.23089 0.70745 0.0
C415 C 0.22182 0.2431 0.78203 0.0
C416 C 0.23346 0.29825 0.73063 0.0
C417 C 0.2741 0.18775 0.7308 0.0
O418 O 0.27746 0.24062 0.70214 0.0
O419 O 0.30665 0.23173 0.67643 0.0
O420 O 0.00451 0.96531 0.48955 0.0
Mn421 Mn 0.00642 0.99263 0.51902 0.0
O422 O 0.00802 0.92723 0.50776 0.0
Mn423 Mn 0.00995 0.93893 0.54064 0.0
O424 O 0.00831 0.01951 0.54909 0.0
O425 O 0.0202 0.018 0.49578 0.0
Mn426 Mn 0.00838 0.04858 0.50099 0.0
O427 O 0.97093 0.00429 0.511 0.0
O428 O 0.01718 0.05781 0.53324 0.0
O429 O 0.04243 0.98193 0.52616 0.0
O430 O 0.0409 0.94848 0.55101 0.0
O431 O 0.03039 0.05108 0.47493 0.0
O432 O 0.9753 0.04364 0.49525 0.0
C433 C 0.97865 0.95582 0.55823 0.0
C434 C 0.00599 0.94076 0.48861 0.0
C435 C 0.01412 0.0434 0.55162 0.0
C436 C 0.03308 0.0269 0.47798 0.0
C437 C 0.96223 0.02432 0.50118 0.0
C438 C 0.05277 0.96592 0.54014 0.0
O439 O 0.9925 0.96688 0.54225 0.0
O440 O 0.98518 0.93286 0.56302 0.0
O441 O 0.26866 0.77544 0.75742 0.0
Mn442 Mn 0.24285 0.7459 0.75566 0.0
O443 O 0.2492 0.81051 0.7451 0.0
Mn444 Mn 0.21829 0.79614 0.74101 0.0
O445 O 0.21691 0.71616 0.75415 0.0
O446 O 0.2694 0.72124 0.74928 0.0
Mn447 Mn 0.26704 0.69356 0.76635 0.0
O448 O 0.24606 0.74177 0.79423 0.0
O449 O 0.23756 0.67927 0.75613 0.0
O450 O 0.23989 0.74936 0.71674 0.0
O451 O 0.2129 0.78015 0.71029 0.0
O452 O 0.29515 0.69072 0.74696 0.0
O453 O 0.26796 0.70606 0.79924 0.0
C454 C 0.19906 0.78318 0.7733 0.0
C455 C 0.26827 0.79916 0.75211 0.0
C456 C 0.21796 0.6916 0.75344 0.0
C457 C 0.28921 0.71298 0.73956 0.0
C458 C 0.25709 0.72592 0.80792 0.0
C459 C 0.22623 0.76194 0.70223 0.0
O460 O 0.21663 0.77137 0.76221 0.0
O461 O 0.19332 0.80424 0.76305 0.0
O462 O 0.50962 0.02297 0.98101 0.0
Mn463 Mn 0.53794 0.03364 0.00507 0.0
O464 O 0.52662 0.01544 0.94321 0.0
Mn465 Mn 0.55591 0.0322 0.9498 0.0
O466 O 0.56671 0.0429 0.02958 0.0
O467 O 0.51272 0.04383 0.03049 0.0
Mn468 Mn 0.5228 0.03724 0.06056 0.0
O469 O 0.53709 0.99696 0.01829 0.0
O470 O 0.54983 0.05823 0.06484 0.0
O471 O 0.53874 0.07079 0.99164 0.0
O472 O 0.55533 0.06762 0.95307 0.0
O473 O 0.49123 0.04866 0.06404 0.0
O474 O 0.52877 0.00208 0.0594 0.0
C475 C 0.58198 0.01196 0.97091 0.0
C476 C 0.50874 0.01432 0.95836 0.0
C477 C 0.56848 0.05375 0.0514 0.0
C478 C 0.49187 0.04967 0.04001 0.0
C479 C 0.53393 0.9881 0.04006 0.0
C480 C 0.5468 0.08079 0.97156 0.0
O481 O 0.56289 0.02283 0.97985 0.0
O482 O 0.58476 0.01428 0.94718 0.0
O483 O 0.29498 0.24888 0.24082 0.0
Mn484 Mn 0.25689 0.24813 0.23741 0.0
O485 O 0.30451 0.21748 0.26623 0.0
Mn486 Mn 0.27344 0.21352 0.27864 0.0
O487 O 0.21869 0.24806 0.23418 0.0
O488 O 0.26 0.28211 0.22167 0.0
Mn489 Mn 0.23954 0.28451 0.19682 0.0
O490 O 0.26038 0.22976 0.20208 0.0
O491 O 0.20931 0.28195 0.21166 0.0
O492 O 0.25402 0.26729 0.2724 0.0
O493 O 0.26321 0.23884 0.30122 0.0
O494 O 0.25794 0.31454 0.19804 0.0
O495 O 0.24732 0.25799 0.17438 0.0
C496 C 0.24718 0.19046 0.25933 0.0
C497 C 0.31061 0.23503 0.25156 0.0
C498 C 0.20321 0.26363 0.22548 0.0
C499 C 0.26863 0.30432 0.21654 0.0
C500 C 0.25594 0.23633 0.17964 0.0
C501 C 0.25643 0.26092 0.29516 0.0
O502 O 0.2534 0.21342 0.25301 0.0
O503 O 0.25872 0.182 0.27824 0.0
O504 O 0.52548 0.49858 0.98234 0.0
Mn505 Mn 0.52607 0.52642 0.01115 0.0
O506 O 0.5397 0.46282 -0.00065 0.0
Mn507 Mn 0.54305 0.47484 0.0322 0.0
O508 O 0.5264 0.55402 0.04059 0.0
O509 O 0.53086 0.55414 0.98624 0.0
Mn510 Mn 0.50872 0.57761 0.99203 0.0
O511 O 0.48773 0.52797 0.00915 0.0
O512 O 0.5142 0.59061 0.02388 0.0
O513 O 0.56442 0.52353 0.01292 0.0
O514 O 0.57209 0.49185 0.03888 0.0
O515 O 0.52678 0.5893 0.96608 0.0
O516 O 0.47895 0.5618 0.98654 0.0
C517 C 0.51028 0.48599 0.05184 0.0
C518 C 0.532 0.47506 0.98085 0.0
C519 C 0.5213 0.57795 0.0422 0.0
C520 C 0.5387 0.56839 0.96858 0.0
C521 C 0.47261 0.54148 0.99726 0.0
C522 C 0.57917 0.51043 0.02586 0.0
O523 O 0.52157 0.49906 0.03555 0.0
O524 O 0.52091 0.46483 0.05645 0.0
O525 O 0.75826 0.28122 0.23538 0.0
Mn526 Mn 0.72962 0.25455 0.23237 0.0
O527 O 0.7416 0.31879 0.22546 0.0
Mn528 Mn 0.70936 0.30809 0.22199 0.0
O529 O 0.69995 0.22857 0.22996 0.0
O530 O 0.75336 0.2273 0.22323 0.0
Mn531 Mn 0.7442 0.19773 0.23462 0.0
O532 O 0.7336 0.24635 0.26978 0.0
O533 O 0.71521 0.1905 0.21858 0.0
O534 O 0.72591 0.2613 0.19425 0.0
O535 O 0.70115 0.29458 0.19088 0.0
O536 O 0.77385 0.19249 0.21878 0.0
O537 O 0.74149 0.20393 0.26901 0.0
C538 C 0.69088 0.29526 0.25484 0.0
C539 C 0.75971 0.30533 0.23152 0.0
C540 C 0.69722 0.20514 0.22225 0.0
C541 C 0.7727 0.21662 0.21464 0.0
C542 C 0.73721 0.22523 0.28063 0.0
C543 C 0.71266 0.27576 0.1812 0.0
O544 O 0.7065 0.28235 0.24192 0.0
O545 O 0.6864 0.31733 0.24594 0.0
O546 O 0.97352 0.47366 0.49887 0.0
Mn547 Mn 0.0013 0.48243 0.52432 0.0
O548 O 0.99076 0.47413 0.46066 0.0
Mn549 Mn 0.02004 0.4895 0.47002 0.0
O550 O 0.02922 0.49127 0.54965 0.0
O551 O 0.97572 0.48894 0.55066 0.0
Mn552 Mn 0.98382 0.47433 0.57842 0.0
O553 O 0.002 0.44362 0.53232 0.0
O554 O 0.01261 0.4903 0.58806 0.0
O555 O 0.00067 0.5212 0.51557 0.0
O556 O 0.01943 0.52423 0.47826 0.0
O557 O 0.9544 0.48964 0.58474 0.0
O558 O 0.98502 0.43967 0.5703 0.0
C559 C 0.04576 0.46598 0.48812 0.0
C560 C 0.97285 0.46964 0.47514 0.0
C561 C 0.03024 0.49502 0.57338 0.0
C562 C 0.95607 0.49638 0.56183 0.0
C563 C 0.99405 0.43013 0.5502 0.0
C564 C 0.00947 0.53433 0.49771 0.0
O565 O 0.02665 0.47565 0.4983 0.0
O566 O 0.04882 0.47186 0.46514 0.0
O567 O 0.79007 0.77004 0.26025 0.0
Mn568 Mn 0.75604 0.76321 0.24448 0.0
O569 O 0.81836 0.76353 0.23047 0.0
Mn570 Mn 0.79776 0.74434 0.20958 0.0
O571 O 0.72186 0.75661 0.22903 0.0
O572 O 0.74186 0.76534 0.27905 0.0
Mn573 Mn 0.71639 0.78515 0.2804 0.0
O574 O 0.7526 0.80273 0.24067 0.0
O575 O 0.69457 0.76926 0.25831 0.0
O576 O 0.76005 0.72375 0.24781 0.0
O577 O 0.78924 0.71205 0.22011 0.0
O578 O 0.72024 0.77348 0.31221 0.0
O579 O 0.72835 0.81695 0.27201 0.0
C580 C 0.77187 0.76223 0.18632 0.0
C581 C 0.81213 0.77111 0.2524 0.0
C582 C 0.69998 0.75894 0.23712 0.0
C583 C 0.73853 0.76152 0.3024 0.0
C584 C 0.74264 0.82083 0.25373 0.0
C585 C 0.77322 0.70673 0.23652 0.0
O586 O 0.77017 0.76087 0.21013 0.0
O587 O 0.79152 0.75244 0.177 0.0
O588 O 0.7779 0.2486 0.73978 0.0
Mn589 Mn 0.7417 0.2579 0.73253 0.0
O590 O 0.80076 0.28307 0.7312 0.0
Mn591 Mn 0.77966 0.2927 0.70664 0.0
O592 O 0.70503 0.26721 0.72625 0.0
O593 O 0.73193 0.22309 0.74364 0.0
Mn594 Mn 0.70643 0.22425 0.7635 0.0
O595 O 0.73908 0.27246 0.76881 0.0
O596 O 0.68215 0.23659 0.74396 0.0
O597 O 0.74598 0.24359 0.6959 0.0
O598 O 0.77557 0.26906 0.68024 0.0
O599 O 0.71549 0.19028 0.76077 0.0
O600 O 0.7158 0.24547 0.79073 0.0
C601 C 0.74911 0.31626 0.71611 0.0
C602 C 0.798 0.26148 0.74111 0.0
C603 C 0.68433 0.25637 0.73093 0.0
C604 C 0.73275 0.19886 0.74678 0.0
C605 C 0.72935 0.26547 0.78927 0.0
C606 C 0.76083 0.24987 0.67837 0.0
O607 O 0.7513 0.29268 0.72149 0.0
O608 O 0.76776 0.32553 0.70454 0.0
O609 O 0.78989 0.75159 0.7533 0.0
Mn610 Mn 0.75508 0.7581 0.73931 0.0
O611 O 0.78351 0.72656 0.78614 0.0
Mn612 Mn 0.74978 0.72577 0.78577 0.0
O613 O 0.72007 0.76439 0.72616 0.0
O614 O 0.76745 0.79058 0.7244 0.0
Mn615 Mn 0.757 0.79224 0.6935 0.0
O616 O 0.76345 0.73634 0.70639 0.0
O617 O 0.72321 0.79194 0.69512 0.0
O618 O 0.7478 0.78023 0.77204 0.0
O619 O 0.73522 0.75363 0.80135 0.0
O620 O 0.77512 0.82174 0.69978 0.0
O621 O 0.77056 0.76467 0.67647 0.0
C622 C 0.73183 0.70363 0.75716 0.0
C623 C 0.79763 0.73883 0.77167 0.0
C624 C 0.71051 0.77806 0.70949 0.0
C625 C 0.77802 0.81251 0.72157 0.0
C626 C 0.77031 0.74196 0.68421 0.0
C627 C 0.73928 0.77608 0.79391 0.0
O628 O 0.74199 0.72577 0.75406 0.0
O629 O 0.73294 0.69563 0.77964 0.0
O630 O 0.54585 0.52591 0.50171 0.0
Mn631 Mn 0.50917 0.51545 0.50006 0.0
O632 O 0.56429 0.49605 0.52397 0.0
Mn633 Mn 0.53689 0.47614 0.5312 0.0
O634 O 0.4726 0.50515 0.4982 0.0
O635 O 0.5008 0.55182 0.49387 0.0
Mn636 Mn 0.4826 0.55333 0.46702 0.0
O637 O 0.51238 0.50626 0.46196 0.0
O638 O 0.45472 0.53393 0.4742 0.0
O639 O 0.50598 0.52375 0.5386 0.0
O640 O 0.51833 0.48851 0.55757 0.0
O641 O 0.48642 0.58659 0.47962 0.0
O642 O 0.50112 0.54018 0.44081 0.0
C643 C 0.51905 0.45505 0.50103 0.0
C644 C 0.5648 0.51661 0.51178 0.0
C645 C 0.45386 0.51397 0.4873 0.0
C646 C 0.49857 0.57621 0.49706 0.0
C647 C 0.51001 0.51791 0.44151 0.0
C648 C 0.50856 0.51047 0.55812 0.0
O649 O 0.51751 0.47921 0.50576 0.0
O650 O 0.5324 0.44353 0.51673 0.0
O651 O 0.98896 0.49107 0.02216 0.0
Mn652 Mn 0.01275 0.52051 0.03554 0.0
O653 O 0.95702 0.51095 0.00564 0.0
Mn654 Mn 0.96093 0.54065 0.02479 0.0
O655 O 0.03633 0.55055 0.04729 0.0
O656 O 0.03366 0.49379 0.05049 0.0
Mn657 Mn 0.06447 0.50252 0.0467 0.0
O658 O 0.03215 0.51731 0.00221 0.0
O659 O 0.06921 0.53332 0.06387 0.0
O660 O 0.99322 0.52336 0.06886 0.0
O661 O 0.95608 0.53763 0.0589 0.0
O662 O 0.06472 0.4724 0.06314 0.0
O663 O 0.06921 0.50309 0.01244 0.0
C664 C 0.98678 0.5691 0.01298 0.0
C665 C 0.96952 0.49102 0.00876 0.0
C666 C 0.05682 0.5527 0.0587 0.0
C667 C 0.04129 0.47376 0.06128 0.0
C668 C 0.05379 0.51014 0.99639 0.0
C669 C 0.9714 0.52993 0.07476 0.0
O670 O 0.99208 0.54726 0.02142 0.0
O671 O 0.96364 0.5727 0.01123 0.0
H672 H 0.01312 0.18279 0.13188 0.0
H673 H 0.0227 0.09261 0.00911 0.0
H674 H 0.99032 0.20293 0.05844 0.0
H675 H 0.0128 0.06394 0.0826 0.0
H676 H 0.02847 0.13583 0.02754 0.0
H677 H 0.02866 0.14229 0.11407 0.0
C678 C 0.01181 0.17894 0.11196 0.0
C679 C 3e-05 0.19608 0.09666 0.0
C680 C 0.02604 0.11993 0.03971 0.0
C681 C 0.0182 0.15011 0.07621 0.0
C682 C 0.02325 0.09519 0.02923 0.0
C683 C 0.01736 0.07476 0.04441 0.0
C684 C 0.023 0.12409 0.06553 0.0
C685 C 0.01752 0.07923 0.07032 0.0
C686 C 0.02068 0.15585 0.10185 0.0
C687 C -0.00111 0.1901 0.07097 0.0
N688 N 0.01975 0.10353 0.0801 0.0
N689 N 0.00771 0.16757 0.06159 0.0
H690 H 0.04962 0.71334 0.29994 0.0
H691 H 0.18712 0.69023 0.33892 0.0
H692 H 0.07371 0.71299 0.37639 0.0
H693 H 0.16737 0.71624 0.26636 0.0
H694 H 0.1445 0.69172 0.3514 0.0
H695 H 0.09179 0.70849 0.2861 0.0
C696 C 0.06378 0.71223 0.31382 0.0
C697 C 0.0582 0.71361 0.33937 0.0
C698 C 0.1495 0.69699 0.33272 0.0
C699 C 0.10633 0.70781 0.32362 0.0
C700 C 0.17383 0.69599 0.32547 0.0
C701 C 0.18093 0.70328 0.30155 0.0
C702 C 0.13204 0.70511 0.31591 0.0
C703 C 0.16278 0.71057 0.28501 0.0
C704 C 0.08782 0.7095 0.30588 0.0
C705 C 0.07725 0.71212 0.35652 0.0
N706 N 0.13913 0.71135 0.29253 0.0
N707 N 0.1005 0.70918 0.34832 0.0
H708 H 0.52289 0.83141 0.59484 0.0
H709 H 0.4974 0.95324 0.51653 0.0
H710 H 0.45254 0.83864 0.56024 0.0
H711 H 0.54171 0.95397 0.58253 0.0
H712 H 0.48234 0.90997 0.52619 0.0
H713 H 0.53391 0.87406 0.58181 0.0
C714 C 0.50985 0.84173 0.58413 0.0
C715 C 0.48656 0.83149 0.57904 0.0
C716 C 0.49494 0.91993 0.53878 0.0
C717 C 0.49911 0.88064 0.56428 0.0
C718 C 0.50308 0.94473 0.53357 0.0
C719 C 0.52019 0.9573 0.54919 0.0
C720 C 0.5047 0.9077 0.55926 0.0
C721 C 0.52825 0.94496 0.57024 0.0
C722 C 0.51611 0.86623 0.57691 0.0
C723 C 0.47063 0.84584 0.56478 0.0
N724 N 0.52066 0.92077 0.57451 0.0
N725 N 0.47712 0.86988 0.55804 0.0
H726 H 0.43766 0.31238 0.80117 0.0
H727 H 0.32492 0.3034 0.75227 0.0
H728 H 0.41162 0.26651 0.8612 0.0
H729 H 0.31796 0.23787 0.7981 0.0
H730 H 0.35664 0.32106 0.78007 0.0
H731 H 0.39622 0.31608 0.78666 0.0
C732 C 0.42307 0.30365 0.81169 0.0
C733 C 0.4281 0.28861 0.83202 0.0
C734 C 0.34819 0.30288 0.78421 0.0
C735 C 0.38028 0.29296 0.81576 0.0
C736 C 0.32988 0.29305 0.76855 0.0
C737 C 0.31938 0.26911 0.77292 0.0
C738 C 0.35648 0.28805 0.80368 0.0
C739 C 0.32597 0.25634 0.79419 0.0
C740 C 0.39921 0.30599 0.80356 0.0
C741 C 0.40854 0.27798 0.84518 0.0
N742 N 0.34454 0.26575 0.80858 0.0
N743 N 0.38551 0.27984 0.83645 0.0
H744 H 0.01944 0.80051 0.40825 0.0
H745 H 0.96616 0.93362 0.4593 0.0
H746 H 0.9433 0.81576 0.4212 0.0
H747 H 0.04136 0.91305 0.46612 0.0
H748 H 0.9592 0.8955 0.43215 0.0
H749 H 0.02894 0.84572 0.41831 0.0
C750 C 0.00474 0.81333 0.41313 0.0
C751 C 0.9806 0.8042 0.41441 0.0
C752 C 0.97742 0.89976 0.43891 0.0
C753 C 0.99126 0.8559 0.42529 0.0
C754 C 0.98145 0.92174 0.45401 0.0
C755 C 0.00432 0.92629 0.46481 0.0
C756 C 0.99641 0.88234 0.43488 0.0
C757 C 0.02347 0.91006 0.45798 0.0
C758 C 0.01015 0.83912 0.41871 0.0
C759 C 0.96224 0.82176 0.4205 0.0
N760 N 0.01901 0.88847 0.4438 0.0
N761 N 0.96796 0.84669 0.42581 0.0
H762 H 0.43089 0.75937 0.7101 0.0
H763 H 0.29984 0.70398 0.69083 0.0
H764 H 0.401 0.75288 0.63589 0.0
H765 H 0.31735 0.75346 0.75438 0.0
H766 H 0.33655 0.71955 0.66959 0.0
H767 H 0.38988 0.75322 0.72718 0.0
C768 C 0.41571 0.7564 0.69742 0.0
C769 C 0.41926 0.75653 0.67158 0.0
C770 C 0.33197 0.72754 0.68788 0.0
C771 C 0.37254 0.74968 0.6909 0.0
C772 C 0.31102 0.71884 0.69986 0.0
C773 C 0.30566 0.72781 0.7241 0.0
C774 C 0.34796 0.74445 0.70079 0.0
C775 C 0.32085 0.74649 0.73547 0.0
C776 C 0.39234 0.75329 0.70716 0.0
C777 C 0.39899 0.75299 0.65593 0.0
N778 N 0.34172 0.75382 0.72392 0.0
N779 N 0.37644 0.74939 0.66583 0.0
H780 H 0.48296 0.22572 0.94773 0.0
H781 H 0.57529 0.11033 0.94227 0.0
H782 H 0.54365 0.21945 0.89659 0.0
H783 H 0.51458 0.11477 0.99342 0.0
H784 H 0.56829 0.15422 0.93109 0.0
H785 H 0.49845 0.18961 0.97002 0.0
C786 C 0.49978 0.21708 0.9414 0.0
C787 C 0.51176 0.22541 0.91988 0.0
C788 C 0.55664 0.1458 0.94499 0.0
C789 C 0.52948 0.18384 0.94536 0.0
C790 C 0.56061 0.12068 0.9514 0.0
C791 C 0.54519 0.10869 0.96847 0.0
C792 C 0.53685 0.15907 0.95544 0.0
C793 C 0.52677 0.12321 0.98001 0.0
C794 C 0.50858 0.19638 0.95416 0.0
C795 C 0.53359 0.21355 0.91283 0.0
N796 N 0.52282 0.14753 0.97295 0.0
N797 N 0.54153 0.19317 0.92531 0.0
H798 H 0.05955 0.20361 0.19505 0.0
H799 H 0.16888 0.29966 0.23248 0.0
H800 H 0.05618 0.286 0.19536 0.0
H801 H 0.17772 0.21798 0.22542 0.0
H802 H 0.12511 0.2937 0.22752 0.0
H803 H 0.10048 0.20736 0.21316 0.0
C804 C 0.06731 0.22247 0.1991 0.0
C805 C 0.05454 0.24454 0.19339 0.0
C806 C 0.13647 0.27697 0.2274 0.0
C807 C 0.10113 0.24892 0.21427 0.0
C808 C 0.16146 0.28038 0.2304 0.0
C809 C 0.17687 0.2593 0.22905 0.0
C810 C 0.12678 0.2523 0.22255 0.0
C811 C 0.16637 0.23472 0.22652 0.0
C812 C 0.09064 0.22457 0.20946 0.0
C813 C 0.06543 0.26845 0.19913 0.0
N814 N 0.14192 0.23189 0.22284 0.0
N815 N 0.08808 0.26997 0.20911 0.0
H816 H 0.12502 0.96557 0.19017 0.0
H817 H 0.03394 0.00922 0.08443 0.0
H818 H 0.06211 0.01208 0.20559 0.0
H819 H 0.0966 0.96189 0.07021 0.0
H820 H 0.04301 0.0095 0.12896 0.0
H821 H 0.11411 0.96333 0.1462 0.0
C822 C 0.10889 0.97533 0.18432 0.0
C823 C 0.09448 0.98909 0.20161 0.0
C824 C 0.05469 0.99897 0.11608 0.0
C825 C 0.08185 0.98656 0.15116 0.0
C826 C 0.0495 0.99874 0.09064 0.0
C827 C 0.06456 0.98556 0.07346 0.0
C828 C 0.0751 0.98596 0.12444 0.0
C829 C 0.0845 0.97239 0.08267 0.0
C830 C 0.10265 0.97401 0.15917 0.0
C831 C 0.07376 0.00129 0.19291 0.0
N832 N 0.08921 0.973 0.10748 0.0
N833 N 0.06808 0.99978 0.16827 0.0
H834 H 0.31973 0.82961 0.43243 0.0
H835 H 0.22565 0.78795 0.32656 0.0
H836 H 0.24305 0.84565 0.4385 0.0
H837 H 0.30323 0.77857 0.3213 0.0
H838 H 0.23167 0.81661 0.36342 0.0
H839 H 0.31416 0.81725 0.38883 0.0
C840 C 0.30162 0.83045 0.42459 0.0
C841 C 0.28172 0.83819 0.43933 0.0
C842 C 0.24743 0.80899 0.35371 0.0
C843 C 0.27516 0.82396 0.38896 0.0
C844 C 0.24401 0.79297 0.33248 0.0
C845 C 0.26403 0.78108 0.32099 0.0
C846 C 0.27102 0.81277 0.36343 0.0
C847 C 0.28739 0.78756 0.32963 0.0
C848 C 0.29849 0.82358 0.39953 0.0
C849 C 0.25883 0.8395 0.42788 0.0
N850 N 0.29022 0.80262 0.35057 0.0
N851 N 0.25609 0.83205 0.40342 0.0
H852 H 0.38343 0.01355 0.69877 0.0
H853 H 0.49423 0.021 0.60169 0.0
H854 H 0.45871 0.00992 0.72106 0.0
H855 H 0.42016 0.04094 0.58508 0.0
H856 H 0.48172 0.01324 0.64471 0.0
H857 H 0.39668 0.01922 0.65585 0.0
C858 C 0.40275 0.01377 0.69463 0.0
C859 C 0.41998 0.01138 0.71358 0.0
C860 C 0.46828 0.01939 0.63159 0.0
C861 C 0.43532 0.01798 0.66443 0.0
C862 C 0.47541 0.02386 0.60705 0.0
C863 C 0.45828 0.03174 0.58967 0.0
C864 C 0.44383 0.02259 0.6387 0.0
C865 C 0.4341 0.03501 0.59773 0.0
C866 C 0.41032 0.01713 0.67012 0.0
C867 C 0.44479 0.01182 0.70706 0.0
N868 N 0.42763 0.03035 0.62155 0.0
N869 N 0.45173 0.0151 0.68303 0.0
H870 H 0.31629 0.20199 0.90327 0.0
H871 H 0.19982 0.21302 0.81519 0.0
H872 H 0.24518 0.16994 0.91915 0.0
H873 H 0.26954 0.24687 0.798 0.0
H874 H 0.21679 0.19687 0.85328 0.0
H875 H 0.29992 0.21957 0.86525 0.0
C876 C 0.29717 0.19898 0.89902 0.0
C877 C 0.28214 0.18432 0.91446 0.0
C878 C 0.22857 0.20757 0.84108 0.0
C879 C 0.26345 0.20404 0.87073 0.0
C880 C 0.2189 0.21667 0.81925 0.0
C881 C 0.23348 0.23078 0.80309 0.0
C882 C 0.25304 0.21285 0.84708 0.0
C883 C 0.25797 0.23524 0.80937 0.0
C884 C 0.2879 0.20885 0.87718 0.0
C885 C 0.25755 0.18096 0.90784 0.0
N886 N 0.26701 0.22639 0.83097 0.0
N887 N 0.24906 0.19058 0.88647 0.0
H888 H 0.13752 0.99936 0.362 0.0
H889 H 0.0173 0.98967 0.44523 0.0
H890 H 0.06497 0.99292 0.33159 0.0
H891 H 0.08128 0.03207 0.46967 0.0
H892 H 0.0385 0.97746 0.40632 0.0
H893 H 0.12012 1.00045 0.40408 0.0
C894 C 0.11794 0.99831 0.36417 0.0
C895 C 0.10262 0.99636 0.34332 0.0
C896 C 0.0481 0.9888 0.42056 0.0
C897 C 0.08277 0.99667 0.39122 0.0
C898 C 0.03621 0.99533 0.44287 0.0
C899 C 0.04778 0.01166 0.46051 0.0
C900 C 0.07163 0.99862 0.41622 0.0
C901 C 0.07197 0.01926 0.45641 0.0
C902 C 0.10808 0.99876 0.38814 0.0
C903 C 0.07738 0.99489 0.34719 0.0
N904 N 0.0831 0.01288 0.43451 0.0
N905 N 0.06822 0.99494 0.37073 0.0
H906 H 0.22438 0.822 0.55984 0.0
H907 H 0.26522 0.74348 0.67519 0.0
H908 H 0.29388 0.785 0.56406 0.0
H909 H 0.19353 0.7745 0.66682 0.0
H910 H 0.27328 0.7507 0.63109 0.0
H911 H 0.21008 0.79763 0.59506 0.0
C912 C 0.23652 0.80844 0.56785 0.0
C913 C 0.26055 0.80599 0.55922 0.0
C914 C 0.25557 0.75538 0.63876 0.0
C915 C 0.24438 0.77822 0.59993 0.0
C916 C 0.2509 0.75105 0.66392 0.0
C917 C 0.22885 0.75888 0.67482 0.0
C918 C 0.2381 0.76769 0.62453 0.0
C919 C 0.21098 0.76866 0.6593 0.0
C920 C 0.22834 0.7945 0.58803 0.0
C921 C 0.27531 0.78785 0.57026 0.0
N922 N 0.21615 0.77322 0.63511 0.0
N923 N 0.26716 0.77505 0.59031 0.0
H924 H 0.38253 0.01948 0.8733 0.0
H925 H 0.50377 0.9701 0.93139 0.0
H926 H 0.43416 0.9693 0.8366 0.0
H927 H 0.46265 0.03299 0.96277 0.0
H928 H 0.46909 0.95751 0.90524 0.0
H929 H 0.40284 0.01305 0.91306 0.0
C930 C 0.39782 0.00668 0.87372 0.0
C931 C 0.40722 0.99547 0.85164 0.0
C932 C 0.46737 0.97372 0.91825 0.0
C933 C 0.4302 0.98793 0.89679 0.0
C934 C 0.48711 0.98086 0.93314 0.0
C935 C 0.48607 0.00297 0.94858 0.0
C936 C 0.44682 0.98931 0.91831 0.0
C937 C 0.46411 0.01605 0.95072 0.0
C938 C 0.40933 0.003 0.89638 0.0
C939 C 0.4268 0.97885 0.85315 0.0
N940 N 0.44543 0.00945 0.93511 0.0
N941 N 0.43787 0.97585 0.87532 0.0
H942 H 0.33305 0.18221 0.04963 0.0
H943 H 0.22599 0.22142 0.14172 0.0
H944 H 0.2585 0.15841 0.03612 0.0
H945 H 0.29938 0.21369 0.16809 0.0
H946 H 0.23758 0.20038 0.10204 0.0
H947 H 0.32146 0.19692 0.09194 0.0
C948 C 0.31424 0.1802 0.05548 0.0
C949 C 0.2967 0.16917 0.03921 0.0
C950 C 0.25109 0.20285 0.11662 0.0
C951 C 0.28339 0.18594 0.08756 0.0
C952 C 0.24444 0.21472 0.13928 0.0
C953 C 0.2617 0.21896 0.15822 0.0
C954 C 0.27539 0.19585 0.11254 0.0
C955 C 0.28548 0.21036 0.15404 0.0
C956 C 0.30771 0.18837 0.0797 0.0
C957 C 0.27265 0.1668 0.04796 0.0
N958 N 0.29176 0.19956 0.13145 0.0
N959 N 0.26668 0.17531 0.07141 0.0
H960 H 0.1959 0.10616 0.92244 0.0
H961 H 0.09663 0.0646 0.02303 0.0
H962 H 0.20964 0.1043 0.00147 0.0
H963 H 0.09081 0.0475 0.94419 0.0
H964 H 0.13304 0.09104 0.01525 0.0
H965 H 0.15313 0.09548 0.93022 0.0
C966 C 0.18992 0.1037 0.94146 0.0
C967 C 0.20651 0.10571 0.9613 0.0
C968 C 0.12336 0.08216 -0.00043 0.0
C969 C 0.15744 0.0937 0.97032 0.0
C970 C 0.10238 0.06745 0.00399 0.0
C971 C 0.09071 0.05418 0.98416 0.0
C972 C 0.13259 0.08342 0.97517 0.0
C973 C 0.09923 0.05775 0.95989 0.0
C974 C 0.16546 0.09766 0.94588 0.0
C975 C 0.19758 0.10257 0.98557 0.0
N976 N 0.11985 0.07178 0.95608 0.0
N977 N 0.1737 0.09653 0.98938 0.0
H978 H 0.70202 0.43253 0.97423 0.0
H979 H 0.61526 0.51534 0.06025 0.0
H980 H 0.72648 0.46905 0.0433 0.0
H981 H 0.60253 0.50509 0.98137 0.0
H982 H 0.65695 0.50064 0.05399 0.0
H983 H 0.6657 0.45933 0.97596 0.0
C984 C 0.69982 0.44621 0.98969 0.0
C985 C 0.71725 0.44836 0.00875 0.0
C986 C 0.64533 0.50229 0.0379 0.0
C987 C 0.67579 0.47905 0.01084 0.0
C988 C 0.62164 0.51102 0.04146 0.0
C989 C 0.60561 0.51175 0.02126 0.0
C990 C 0.65277 0.49341 0.01408 0.0
C991 C 0.61452 0.50523 0.99736 0.0
C992 C 0.67919 0.46164 0.99056 0.0
C993 C 0.71351 0.4666 0.02823 0.0
N994 N 0.63734 0.4957 0.99448 0.0
N995 N 0.69311 0.48097 0.02892 0.0
H996 H 0.81646 0.42085 0.32142 0.0
H997 H 0.78378 0.33855 0.20234 0.0
H998 H 0.84324 0.44115 0.24896 0.0
H999 H 0.78462 0.30659 0.27511 0.0
H1000 H 0.80945 0.37417 0.21799 0.0
H1001 H 0.80674 0.37791 0.30467 0.0
C1002 C 0.82026 0.41629 0.30196 0.0
C1003 C 0.83029 0.43475 0.28645 0.0
C1004 C 0.80473 0.35898 0.23037 0.0
C1005 C 0.81937 0.38552 0.26721 0.0
C1006 C 0.79029 0.33854 0.22137 0.0
C1007 C 0.78214 0.31978 0.23754 0.0
C1008 C 0.81032 0.36096 0.25587 0.0
C1009 C 0.7907 0.3207 0.26209 0.0
C1010 C 0.81501 0.39165 0.29249 0.0
C1011 C 0.83529 0.42758 0.26151 0.0
N1012 N 0.8038 0.34141 0.27076 0.0
N1013 N 0.82943 0.40363 0.25255 0.0
H1014 H 0.86189 0.58942 0.47325 0.0
H1015 H 0.91227 0.5066 0.58234 0.0
H1016 H 0.81644 0.55182 0.52701 0.0
H1017 H 0.95419 0.51761 0.51533 0.0
H1018 H 0.87859 0.52865 0.56426 0.0
H1019 H 0.89754 0.56829 0.49019 0.0
C1020 C 0.85944 0.57682 0.48864 0.0
C1021 C 0.83623 0.57237 0.49883 0.0
C1022 C 0.89514 0.52627 0.55343 0.0
C1023 C 0.87665 0.54846 0.51817 0.0
C1024 C 0.91447 0.51373 0.56377 0.0
C1025 C 0.93615 0.51021 0.55028 0.0
C1026 C 0.89742 0.53566 0.52944 0.0
C1027 C 0.93786 0.51993 0.52634 0.0
C1028 C 0.87972 0.56471 0.49816 0.0
C1029 C 0.83398 0.55577 0.51859 0.0
N1030 N 0.91869 0.53236 0.51662 0.0
N1031 N 0.85395 0.54453 0.52768 0.0
H1032 H 0.17448 0.07451 0.31339 0.0
H1033 H 0.2488 0.15281 0.22311 0.0
H1034 H 0.17494 0.0466 0.2368 0.0
H1035 H 0.20088 0.19054 0.27575 0.0
H1036 H 0.22332 0.11391 0.22495 0.0
H1037 H 0.18697 0.11688 0.29974 0.0
C1038 C 0.17727 0.07733 0.29368 0.0
C1039 C 0.17385 0.05703 0.2762 0.0
C1040 C 0.21778 0.13106 0.23525 0.0
C1041 C 0.18833 0.10541 0.26047 0.0
C1042 C 0.23207 0.1534 0.23386 0.0
C1043 C 0.22677 0.17497 0.24912 0.0
C1044 C 0.19863 0.13024 0.25261 0.0
C1045 C 0.2054 0.1744 0.26347 0.0
C1046 C 0.1841 0.10155 0.28588 0.0
C1047 C 0.17744 0.0618 0.25084 0.0
N1048 N 0.19258 0.15212 0.26557 0.0
N1049 N 0.185 0.08542 0.24372 0.0
H1050 H 0.32432 0.93233 0.4706 0.0
H1051 H 0.45374 0.95646 0.52486 0.0
H1052 H 0.35533 0.88271 0.52406 0.0
H1053 H 0.43066 0.9878 0.45591 0.0
H1054 H 0.42148 0.92401 0.52084 0.0
H1055 H 0.36507 0.94872 0.46131 0.0
C1056 C 0.33976 0.92472 0.48021 0.0
C1057 C 0.33645 0.9065 0.49843 0.0
C1058 C 0.42398 0.93737 0.50608 0.0
C1059 C 0.38314 0.92526 0.48807 0.0
C1060 C 0.44276 0.95561 0.50815 0.0
C1061 C 0.44495 0.97466 0.4906 0.0
C1062 C 0.40699 0.93875 0.48667 0.0
C1063 C 0.42944 0.97344 0.46989 0.0
C1064 C 0.36307 0.93393 0.47477 0.0
C1065 C 0.3571 0.89697 0.51004 0.0
N1066 N 0.41073 0.95618 0.46879 0.0
N1067 N 0.37955 0.90684 0.50503 0.0
H1068 H 0.8164 0.55306 0.24429 0.0
H1069 H 0.75743 0.68675 0.2805 0.0
H1070 H 0.78647 0.57113 0.31716 0.0
H1071 H 0.78409 0.6649 0.20729 0.0
H1072 H 0.76082 0.64224 0.29268 0.0
H1073 H 0.79743 0.59098 0.22862 0.0
C1074 C 0.80548 0.56481 0.2569 0.0
C1075 C 0.80335 0.55918 0.28215 0.0
C1076 C 0.7655 0.64712 0.27382 0.0
C1077 C 0.78197 0.60304 0.26449 0.0
C1078 C 0.76347 0.67252 0.26688 0.0
C1079 C 0.77091 0.67962 0.24308 0.0
C1080 C 0.77501 0.62882 0.25672 0.0
C1081 C 0.77865 0.66039 0.22605 0.0
C1082 C 0.79465 0.58652 0.24797 0.0
C1083 C 0.78872 0.57488 0.29759 0.0
N1084 N 0.78077 0.636 0.23329 0.0
N1085 N 0.77898 0.59643 0.28863 0.0
H1086 H 0.65131 0.4425 0.71118 0.0
H1087 H 0.72301 0.32158 0.75932 0.0
H1088 H 0.66645 0.42861 0.78828 0.0
H1089 H 0.72716 0.34668 0.68387 0.0
H1090 H 0.69254 0.35442 0.76871 0.0
H1091 H 0.66993 0.4012 0.6994 0.0
C1092 C 0.6583 0.43067 0.72557 0.0
C1093 C 0.65792 0.43917 0.75062 0.0
C1094 C 0.69979 0.35242 0.74996 0.0
C1095 C 0.67863 0.39214 0.73753 0.0
C1096 C 0.71697 0.33357 0.74462 0.0
C1097 C 0.72743 0.33163 0.72087 0.0
C1098 C 0.69311 0.36918 0.73133 0.0
C1099 C 0.7194 0.34778 0.70245 0.0
C1100 C 0.66888 0.40719 0.7189 0.0
C1101 C 0.66696 0.42306 0.76865 0.0
N1102 N 0.70279 0.36604 0.70808 0.0
N1103 N 0.67704 0.40043 0.76175 0.0
H1104 H 0.9615 0.82272 0.94637 0.0
H1105 H 0.05024 0.94296 0.92607 0.0
H1106 H 0.0151 0.82769 0.88763 0.0
H1107 H 0.01141 0.93162 0.99468 0.0
H1108 H 0.02899 0.90569 0.90721 0.0
H1109 H 0.9722 0.86669 0.96026 0.0
C1110 C 0.97538 0.83307 0.93629 0.0
C1111 C 0.98764 0.82134 0.91597 0.0
C1112 C 0.0246 0.91168 0.9262 0.0
C1113 C -0.00032 0.87168 0.93158 0.0
C1114 C 0.0365 0.93311 0.93684 0.0
C1115 C 0.03212 0.94057 0.96174 0.0
C1116 C 0.00856 0.89727 0.94077 0.0
C1117 C 0.01468 0.92688 0.97518 0.0
C1118 C 0.98144 0.85816 0.94422 0.0
C1119 C 0.00538 0.83576 0.90357 0.0
N1120 N 0.00371 0.90561 0.96463 0.0
N1121 N 0.01089 0.86008 0.91161 0.0
H1122 H 0.94964 0.25594 0.75237 0.0
H1123 H 0.81231 0.21315 0.72937 0.0
H1124 H 0.92304 0.20784 0.69118 0.0
H1125 H 0.83485 0.28247 0.76928 0.0
H1126 H 0.85413 0.19805 0.73071 0.0
H1127 H 0.90948 0.25255 0.77255 0.0
C1128 C 0.93557 0.24395 0.74367 0.0
C1129 C 0.93923 0.23253 0.71998 0.0
C1130 C 0.84975 0.21614 0.74002 0.0
C1131 C 0.89379 0.22849 0.74272 0.0
C1132 C 0.82581 0.22459 0.73956 0.0
C1133 C 0.82026 0.24906 0.7492 0.0
C1134 C 0.86813 0.23245 0.74993 0.0
C1135 C 0.83859 0.26355 0.76145 0.0
C1136 C 0.91273 0.24208 0.7551 0.0
C1137 C 0.92059 0.2173 0.70927 0.0
N1138 N 0.86188 0.25524 0.76106 0.0
N1139 N 0.89852 0.21596 0.72058 0.0
H1140 H 0.52805 0.19189 0.40809 0.0
H1141 H 0.47931 0.12198 0.52791 0.0
H1142 H 0.47295 0.22019 0.45904 0.0
H1143 H 0.50684 0.08129 0.46281 0.0
H1144 H 0.49323 0.16227 0.5107 0.0
H1145 H 0.53481 0.15608 0.43542 0.0
C1146 C 0.51789 0.19099 0.42539 0.0
C1147 C 0.49965 0.2088 0.43121 0.0
C1148 C 0.49697 0.14449 0.50052 0.0
C1149 C 0.50753 0.16825 0.46247 0.0
C1150 C 0.48926 0.12152 0.51043 0.0
C1151 C 0.4919 0.0985 0.49662 0.0
C1152 C 0.50696 0.1444 0.47644 0.0
C1153 C 0.50459 0.09878 0.47396 0.0
C1154 C 0.52172 0.17053 0.44086 0.0
C1155 C 0.48695 0.20668 0.45373 0.0
N1156 N 0.51122 0.12155 0.46422 0.0
N1157 N 0.491 0.18665 0.46844 0.0
H1158 H 0.59268 0.77054 0.1232 0.0
H1159 H 0.65673 0.73837 0.25087 0.0
H1160 H 0.55693 0.76394 0.19449 0.0
H1161 H 0.69711 0.76228 0.18646 0.0
H1162 H 0.61998 0.73498 0.2257 0.0
H1163 H 0.63084 0.75686 0.14211 0.0
C1164 C 0.59285 0.76604 0.14273 0.0
C1165 C 0.57187 0.76888 0.15749 0.0
C1166 C 0.63691 0.74062 0.21691 0.0
C1167 C 0.61486 0.75281 0.17886 0.0
C1168 C 0.65786 0.74248 0.23125 0.0
C1169 C 0.67969 0.75116 0.22076 0.0
C1170 C 0.63772 0.74807 0.19207 0.0
C1171 C 0.68044 0.75577 0.1952 0.0
C1172 C 0.61451 0.75817 0.15343 0.0
C1173 C 0.57285 0.76257 0.18257 0.0
N1174 N 0.65951 0.75475 0.18174 0.0
N1175 N 0.594 0.75495 0.19246 0.0
H1176 H 0.01952 0.17469 0.64807 0.0
H1177 H 0.97879 0.03986 0.58701 0.0
H1178 H 0.94454 0.15149 0.63572 0.0
H1179 H 0.0466 0.07831 0.571 0.0
H1180 H 0.96978 0.07321 0.61874 0.0
H1181 H 0.03237 0.13252 0.63291 0.0
C1182 C 0.00569 0.16067 0.64244 0.0
C1183 C 0.98088 0.16683 0.64271 0.0
C1184 C 0.98698 0.07386 0.60883 0.0
C1185 C 0.99561 0.1184 0.62568 0.0
C1186 C 0.99227 0.05464 0.59098 0.0
C1187 C 0.0133 0.05651 0.57629 0.0
C1188 C 0.00312 0.09477 0.61209 0.0
C1189 C 0.03009 0.07633 0.5819 0.0
C1190 C 0.0131 0.13658 0.63387 0.0
C1191 C 0.96386 0.14772 0.6354 0.0
N1192 N 0.02449 0.09494 0.59915 0.0
N1193 N 0.97157 0.12438 0.62697 0.0
H1194 H 0.5817 0.2931 0.36458 0.0
H1195 H 0.68642 0.24668 0.27241 0.0
H1196 H 0.59144 0.21425 0.34061 0.0
H1197 H 0.6685 0.32516 0.28978 0.0
H1198 H 0.65993 0.23333 0.30658 0.0
H1199 H 0.62156 0.30363 0.34734 0.0
C1200 C 0.59241 0.27792 0.35601 0.0
C1201 C 0.58301 0.25292 0.35336 0.0
C1202 C 0.66217 0.25351 0.30316 0.0
C1203 C 0.62843 0.26488 0.33322 0.0
C1204 C 0.67728 0.26106 0.28367 0.0
C1205 C 0.67904 0.28687 0.27783 0.0
C1206 C 0.6489 0.27207 0.31681 0.0
C1207 C 0.66713 0.30493 0.29324 0.0
C1208 C 0.61518 0.28392 0.34618 0.0
C1209 C 0.59786 0.23388 0.34262 0.0
N1210 N 0.65231 0.29716 0.31179 0.0
N1211 N 0.61967 0.24036 0.3324 0.0
H1212 H 0.47897 0.83784 0.05193 0.0
H1213 H 0.55227 0.96331 0.07923 0.0
H1214 H 0.54148 0.84045 0.10062 0.0
H1215 H 0.51801 0.94985 0.00769 0.0
H1216 H 0.54931 0.91754 0.08646 0.0
H1217 H 0.49381 0.87715 0.03328 0.0
C1218 C 0.4961 0.84625 0.05829 0.0
C1219 C 0.50863 0.83614 0.07836 0.0
C1220 C 0.54281 0.92448 0.06897 0.0
C1221 C 0.52538 0.88129 0.05742 0.0
C1222 C 0.54437 0.9506 0.06494 0.0
C1223 C 0.53515 0.96027 0.04297 0.0
C1224 C 0.5313 0.90802 0.05123 0.0
C1225 C 0.52528 0.94303 0.0249 0.0
C1226 C 0.50454 0.86872 0.04763 0.0
C1227 C 0.53087 0.8478 0.08559 0.0
N1228 N 0.52309 0.91773 0.02966 0.0
N1229 N 0.5382 0.87008 0.07557 0.0
H1230 H 0.91865 0.7286 0.86737 0.0
H1231 H 0.83329 0.77422 0.7593 0.0
H1232 H 0.9492 0.7725 0.80796 0.0
H1233 H 0.82136 0.70538 0.79992 0.0
H1234 H 0.87423 0.77843 0.77791 0.0
H1235 H 0.88003 0.72615 0.84543 0.0
C1236 C 0.91718 0.738 0.84982 0.0
C1237 C 0.93724 0.75067 0.83944 0.0
C1238 C 0.86263 0.7623 0.78239 0.0
C1239 C 0.89295 0.74767 0.81399 0.0
C1240 C 0.8394 0.75977 0.77168 0.0
C1241 C 0.82376 0.73959 0.77831 0.0
C1242 C 0.86991 0.74468 0.79993 0.0
C1243 C 0.83257 0.7215 0.79456 0.0
C1244 C 0.89515 0.73638 0.83717 0.0
C1245 C 0.93417 0.76245 0.81656 0.0
N1246 N 0.85484 0.72467 0.805 0.0
N1247 N 0.91237 0.76067 0.80451 0.0
H1248 H 0.95418 0.98997 0.80793 0.0
H1249 H 0.95972 0.05683 0.94405 0.0
H1250 H 0.89893 0.03826 0.84119 0.0
H1251 H 0.00414 0.99166 0.92478 0.0
H1252 H 0.94255 0.0545 0.90246 0.0
H1253 H 0.97674 0.99301 0.84761 0.0
C1254 C 0.9467 0.00097 0.82356 0.0
C1255 C 0.92459 0.0138 0.82127 0.0
C1256 C 0.95613 0.04072 0.90718 0.0
C1257 C 0.95036 0.01777 0.86609 0.0
C1258 C 0.96604 0.04214 0.93092 0.0
C1259 C 0.98313 0.02421 0.93795 0.0
C1260 C 0.96316 0.02113 0.89022 0.0
C1261 C 0.99095 0.00583 0.92003 0.0
C1262 C 0.9596 0.00276 0.84607 0.0
C1263 C 0.91577 0.02789 0.84202 0.0
N1264 N 0.98066 0.00454 0.89694 0.0
N1265 N 0.92872 0.02958 0.8634 0.0
H1266 H 0.81267 0.1841 0.53923 0.0
H1267 H 0.73457 0.20594 0.66437 0.0
H1268 H 0.74567 0.14244 0.55288 0.0
H1269 H 0.79103 0.25735 0.63888 0.0
H1270 H 0.73987 0.17962 0.62583 0.0
H1271 H 0.80708 0.20797 0.57865 0.0
C1272 C 0.79684 0.17987 0.55054 0.0
C1273 C 0.77956 0.16134 0.5426 0.0
C1274 C 0.75098 0.19675 0.6288 0.0
C1275 C 0.77297 0.1887 0.58783 0.0
C1276 C 0.74793 0.21178 0.65073 0.0
C1277 C 0.76231 0.23396 0.65497 0.0
C1278 C 0.76867 0.20388 0.61123 0.0
C1279 C 0.77945 0.24049 0.63663 0.0
C1280 C 0.79359 0.19358 0.57303 0.0
C1281 C 0.7594 0.15669 0.55816 0.0
N1282 N 0.78217 0.22552 0.61574 0.0
N1283 N 0.75663 0.1703 0.58003 0.0
H1284 H 0.61885 0.98668 0.3443 0.0
H1285 H 0.51089 0.02259 0.43754 0.0
H1286 H 0.55034 0.01286 0.31636 0.0
H1287 H 0.58672 0.01828 0.45785 0.0
H1288 H 0.52285 0.01808 0.39331 0.0
H1289 H 0.60513 0.99595 0.38635 0.0
C1290 C 0.60093 0.99466 0.34695 0.0
C1291 C 0.5859 0.9994 0.32666 0.0
C1292 C 0.53676 0.01837 0.40757 0.0
C1293 C 0.56974 0.00979 0.37536 0.0
C1294 C 0.52999 0.02096 0.43275 0.0
C1295 C 0.54779 0.02035 0.45148 0.0
C1296 C 0.56141 0.0151 0.4013 0.0
C1297 C 0.57226 0.01835 0.4442 0.0
C1298 C 0.59304 0.99993 0.37112 0.0
C1299 C 0.56256 0.00909 0.33151 0.0
N1300 N 0.57825 0.0156 0.41981 0.0
N1301 N 0.5551 0.01395 0.35548 0.0
H1302 H 0.7571 0.78562 0.04294 0.0
H1303 H 0.75552 0.81103 0.18374 0.0
H1304 H 0.73625 0.85899 0.07471 0.0
H1305 H 0.74799 0.73532 0.15023 0.0
H1306 H 0.73929 0.82869 0.14562 0.0
H1307 H 0.74515 0.76587 0.08165 0.0
C1308 C 0.74935 0.79745 0.05785 0.0
C1309 C 0.74805 0.82399 0.05579 0.0
C1310 C 0.7402 0.80812 0.14693 0.0
C1311 C 0.73518 0.80176 0.10056 0.0
C1312 C 0.74921 0.79809 0.16883 0.0
C1313 C 0.75316 0.77181 0.16985 0.0
C1314 C 0.73577 0.79164 0.12602 0.0
C1315 C 0.74532 0.75577 0.14992 0.0
C1316 C 0.74251 0.78621 0.08002 0.0
C1317 C 0.73772 0.83844 0.07562 0.0
N1318 N 0.73756 0.76596 0.12855 0.0
N1319 N 0.73239 0.82727 0.0975 0.0
H1320 H 0.88231 0.97993 0.6789 0.0
H1321 H 0.96435 0.00628 0.55979 0.0
H1322 H 0.91298 0.05415 0.66331 0.0
H1323 H 0.94523 0.93202 0.58669 0.0
H1324 H 0.93549 0.02567 0.58982 0.0
H1325 H 0.89504 0.96422 0.63769 0.0
C1326 C 0.89151 0.99302 0.66668 0.0
C1327 C 0.89715 0.01819 0.67475 0.0
C1328 C 0.93749 0.0051 0.58886 0.0
C1329 C 0.91201 1.00025 0.6276 0.0
C1330 C 0.95396 0.99409 0.57179 0.0
C1331 C 0.95795 0.96771 0.57154 0.0
C1332 C 0.92497 0.98945 0.60551 0.0
C1333 C 0.94331 0.95258 0.58679 0.0
C1334 C 0.89872 0.98405 0.64311 0.0
C1335 C 0.90861 0.03447 0.65793 0.0
N1336 N 0.92779 0.96369 0.60341 0.0
N1337 N 0.91612 0.02507 0.63525 0.0
H1338 H 0.71762 0.16101 0.42254 0.0
H1339 H 0.76396 0.2526 0.3157 0.0
H1340 H 0.78782 0.19941 0.42321 0.0
H1341 H 0.7067 0.19574 0.30703 0.0
H1342 H 0.76591 0.24381 0.36043 0.0
H1343 H 0.70653 0.18466 0.38601 0.0
C1344 C 0.73052 0.17481 0.4154 0.0
C1345 C 0.75391 0.17776 0.42566 0.0
C1346 C 0.75257 0.23369 0.34881 0.0
C1347 C 0.74134 0.20477 0.38371 0.0
C1348 C 0.7514 0.23879 0.32342 0.0
C1349 C 0.73537 0.22459 0.30789 0.0
C1350 C 0.7374 0.2145 0.3585 0.0
C1351 C 0.7195 0.20681 0.31853 0.0
C1352 C 0.72419 0.18823 0.39445 0.0
C1353 C 0.76976 0.19611 0.41562 0.0
N1354 N 0.72104 0.2021 0.34315 0.0
N1355 N 0.76333 0.20864 0.39498 0.0
H1356 H 0.63557 0.9659 0.15518 0.0
H1357 H 0.58785 0.0871 0.08652 0.0
H1358 H 0.6049 0.0334 0.19086 0.0
H1359 H 0.59825 0.01318 0.05037 0.0
H1360 H 0.61001 0.07279 0.12271 0.0
H1361 H 0.63535 0.98741 0.11531 0.0
C1362 C 0.62887 0.98523 0.15464 0.0
C1363 C 0.61964 0.99764 0.1762 0.0
C1364 C 0.60834 0.06006 0.1064 0.0
C1365 C 0.62005 0.02252 0.13103 0.0
C1366 C 0.59606 0.06839 0.08559 0.0
C1367 C 0.5912 0.05129 0.06543 0.0
C1368 C 0.6155 0.03442 0.10698 0.0
C1369 C 0.60201 0.02716 0.06524 0.0
C1370 C 0.62896 0.99755 0.13198 0.0
C1371 C 0.61159 0.02284 0.17458 0.0
N1372 N 0.61305 0.01913 0.08606 0.0
N1373 N 0.61185 0.03436 0.15238 0.0
H1374 H 0.73394 0.85353 0.9397 0.0
H1375 H 0.77559 0.81112 0.80192 0.0
H1376 H 0.80726 0.83178 0.92051 0.0
H1377 H 0.70688 0.7855 0.83188 0.0
H1378 H 0.78425 0.83415 0.84156 0.0
H1379 H 0.72129 0.84214 0.89665 0.0
C1380 C 0.74738 0.84657 0.92639 0.0
C1381 C 0.77162 0.84328 0.9337 0.0
C1382 C 0.76696 0.82412 0.83914 0.0
C1383 C 0.75749 0.83118 0.88455 0.0
C1384 C 0.7618 0.81138 0.81639 0.0
C1385 C 0.74038 0.79659 0.81356 0.0
C1386 C 0.75043 0.82234 0.85903 0.0
C1387 C 0.72353 0.79683 0.83332 0.0
C1388 C 0.74016 0.84014 0.90192 0.0
C1389 C 0.78833 0.83425 0.91573 0.0
N1390 N 0.72898 0.80933 0.85534 0.0
N1391 N 0.78099 0.82864 0.89196 0.0
H1392 H 0.84708 0.92469 0.9679 0.0
H1393 H 0.95181 0.95389 0.05649 0.0
H1394 H 0.85492 0.87654 0.03079 0.0
H1395 H 0.96647 0.95238 0.97756 0.0
H1396 H 0.91633 0.92557 0.04875 0.0
H1397 H 0.89054 0.93612 0.97097 0.0
C1398 C 0.85804 0.91619 0.98203 0.0
C1399 C 0.84742 0.8998 0.99919 0.0
C1400 C 0.92784 0.93071 0.03324 0.0
C1401 C 0.89669 0.91321 0.00318 0.0
C1402 C 0.94811 0.94669 0.03768 0.0
C1403 C 0.9622 0.955 0.01767 0.0
C1404 C 0.92117 0.92407 0.00857 0.0
C1405 C 0.95629 0.94585 0.9935 0.0
C1406 C 0.88279 0.9226 0.98371 0.0
C1407 C 0.86242 0.88927 0.01718 0.0
N1408 N 0.93578 0.93143 0.98951 0.0
N1409 N 0.88619 0.89667 0.01913 0.0
H1410 H 0.33359 0.58211 0.95875 0.0
H1411 H 0.44204 0.53093 0.03647 0.0
H1412 H 0.31947 0.54964 0.03009 0.0
H1413 H 0.44369 0.53887 0.95688 0.0
H1414 H 0.39726 0.53382 0.03555 0.0
H1415 H 0.37395 0.56399 0.95839 0.0
C1416 C 0.33904 0.57096 0.97434 0.0
C1417 C 0.32331 0.56747 0.99452 0.0
C1418 C 0.40741 0.53413 0.01823 0.0
C1419 C 0.36994 0.54681 0.99453 0.0
C1420 C 0.4329 0.53229 0.01873 0.0
C1421 C 0.44643 0.53491 0.99671 0.0
C1422 C 0.39575 0.53876 0.99558 0.0
C1423 C 0.43387 0.53701 0.97427 0.0
C1424 C 0.36208 0.56045 0.97409 0.0
C1425 C 0.33118 0.55269 0.01417 0.0
N1426 N 0.40934 0.53926 0.97434 0.0
N1427 N 0.35424 0.54324 0.01394 0.0
H1428 H 0.14432 0.54892 0.74598 0.0
H1429 H 0.18601 0.68921 0.7915 0.0
H1430 H 0.16131 0.57177 0.82215 0.0
H1431 H 0.20161 0.65694 0.7183 0.0
H1432 H 0.16094 0.65155 0.80014 0.0
H1433 H 0.15098 0.59311 0.73394 0.0
C1434 C 0.14917 0.56328 0.76023 0.0
C1435 C 0.15265 0.55663 0.78507 0.0
C1436 C 0.16906 0.65318 0.78184 0.0
C1437 C 0.15978 0.60713 0.77142 0.0
C1438 C 0.18295 0.6749 0.77671 0.0
C1439 C 0.19557 0.67618 0.75406 0.0
C1440 C 0.16795 0.63277 0.76416 0.0
C1441 C 0.19191 0.65661 0.73589 0.0
C1442 C 0.15288 0.58845 0.75332 0.0
C1443 C 0.15889 0.57601 0.80274 0.0
N1444 N 0.17869 0.63542 0.74147 0.0
N1445 N 0.16237 0.60042 0.79554 0.0
H1446 H 0.17781 0.42644 0.5591 0.0
H1447 H 0.06142 0.42028 0.47076 0.0
H1448 H 0.1737 0.38597 0.48762 0.0
H1449 H 0.07043 0.47555 0.53159 0.0
H1450 H 0.09784 0.39855 0.48423 0.0
H1451 H 0.13449 0.43628 0.55593 0.0
C1452 C 0.16774 0.41937 0.54289 0.0
C1453 C 0.17943 0.40574 0.52337 0.0
C1454 C 0.09155 0.41505 0.49507 0.0
C1455 C 0.13 0.41667 0.51982 0.0
C1456 C 0.07071 0.4273 0.4875 0.0
C1457 C 0.06295 0.44948 0.50032 0.0
C1458 C 0.10501 0.42546 0.51529 0.0
C1459 C 0.0756 0.4581 0.52168 0.0
C1460 C 0.14305 0.42498 0.54113 0.0
C1461 C 0.16551 0.3969 0.5029 0.0
N1462 N 0.09636 0.4463 0.52831 0.0
N1463 N 0.14157 0.40267 0.50159 0.0
H1464 H 0.87016 0.93689 0.7491 0.0
H1465 H 0.76007 0.83913 0.76202 0.0
H1466 H 0.81355 0.94912 0.80404 0.0
H1467 H 0.82626 0.82203 0.72207 0.0
H1468 H 0.78036 0.87682 0.78188 0.0
H1469 H 0.85513 0.89332 0.74167 0.0
C1470 C 0.8545 0.93043 0.75961 0.0
C1471 C 0.84294 0.94687 0.77702 0.0
C1472 C 0.7907 0.86437 0.7694 0.0
C1473 C 0.8255 0.89659 0.76857 0.0
C1474 C 0.77923 0.84266 0.75838 0.0
C1475 C 0.7917 0.82739 0.7407 0.0
C1476 C 0.81456 0.87098 0.76212 0.0
C1477 C 0.81619 0.83321 0.73588 0.0
C1478 C 0.84602 0.90538 0.75551 0.0
C1479 C 0.82293 0.93716 0.79033 0.0
N1480 N 0.82669 0.85475 0.74618 0.0
N1481 N 0.81463 0.91276 0.7856 0.0
H1482 H 0.68769 0.1101 0.53131 0.0
H1483 H 0.54665 0.09703 0.50877 0.0
H1484 H 0.65206 0.13205 0.46404 0.0
H1485 H 0.58276 0.07587 0.5759 0.0
H1486 H 0.58248 0.12233 0.49761 0.0
H1487 H 0.64822 0.10821 0.5521 0.0
C1488 C 0.67155 0.11465 0.52092 0.0
C1489 C 0.67312 0.12062 0.4957 0.0
C1490 C 0.5823 0.11288 0.51522 0.0
C1491 C 0.62771 0.11849 0.51946 0.0
C1492 C 0.5616 0.09876 0.52184 0.0
C1493 C 0.56206 0.0837 0.54293 0.0
C1494 C 0.60341 0.11182 0.52985 0.0
C1495 C 0.58194 0.08675 0.55916 0.0
C1496 C 0.64899 0.11376 0.53288 0.0
C1497 C 0.65165 0.12692 0.48339 0.0
N1498 N 0.60215 0.09982 0.55191 0.0
N1499 N 0.62978 0.12525 0.49526 0.0
H1500 H 0.18171 0.44537 0.72447 0.0
H1501 H 0.26731 0.32988 0.75258 0.0
H1502 H 0.22115 0.43751 0.79312 0.0
H1503 H 0.20805 0.32801 0.70021 0.0
H1504 H 0.26416 0.37665 0.75663 0.0
H1505 H 0.20554 0.41094 0.70533 0.0
C1506 C 0.1958 0.43687 0.73538 0.0
C1507 C 0.19879 0.44367 0.76076 0.0
C1508 C 0.25249 0.36608 0.74354 0.0
C1509 C 0.22601 0.40422 0.73889 0.0
C1510 C 0.25441 0.33951 0.74109 0.0
C1511 C 0.23777 0.32537 0.72618 0.0
C1512 C 0.23388 0.37829 0.73088 0.0
C1513 C 0.2211 0.33843 0.71194 0.0
C1514 C 0.20941 0.41723 0.72438 0.0
C1515 C 0.21779 0.43245 0.77369 0.0
N1516 N 0.21933 0.3642 0.71491 0.0
N1517 N 0.2303 0.41277 0.76279 0.0
H1518 H 0.3428 0.54178 0.22687 0.0
H1519 H 0.3265 0.68274 0.27965 0.0
H1520 H 0.35786 0.56748 0.30269 0.0
H1521 H 0.26165 0.64531 0.25063 0.0
H1522 H 0.34944 0.64405 0.26951 0.0
H1523 H 0.32194 0.58256 0.22034 0.0
C1524 C 0.34156 0.55585 0.24213 0.0
C1525 C 0.35184 0.55116 0.26546 0.0
C1526 C 0.33042 0.64473 0.26434 0.0
C1527 C 0.32938 0.5977 0.25768 0.0
C1528 C 0.31742 0.66686 0.26977 0.0
C1529 C 0.29226 0.66708 0.26592 0.0
C1530 C 0.31808 0.62276 0.25504 0.0
C1531 C 0.28114 0.64581 0.25366 0.0
C1532 C 0.32984 0.579 0.23831 0.0
C1533 C 0.34994 0.57007 0.28454 0.0
N1534 N 0.29404 0.62407 0.24917 0.0
N1535 N 0.33923 0.5926 0.28012 0.0
H1536 H 0.44279 0.68651 0.58979 0.0
H1537 H 0.53161 0.61503 0.50266 0.0
H1538 H 0.51827 0.71052 0.59098 0.0
H1539 H 0.47635 0.57324 0.54196 0.0
H1540 H 0.52886 0.65006 0.53422 0.0
H1541 H 0.45465 0.64529 0.57078 0.0
C1542 C 0.46188 0.68305 0.58607 0.0
C1543 C 0.47956 0.702 0.59174 0.0
C1544 C 0.51799 0.63283 0.53645 0.0
C1545 C 0.49322 0.65498 0.56981 0.0
C1546 C 0.51974 0.61277 0.51862 0.0
C1547 C 0.50444 0.59116 0.52001 0.0
C1548 C 0.50009 0.6316 0.55512 0.0
C1549 C 0.48873 0.58945 0.54053 0.0
C1550 C 0.46866 0.65945 0.57549 0.0
C1551 C 0.50409 0.69641 0.58681 0.0
N1552 N 0.48644 0.60974 0.55694 0.0
N1553 N 0.51018 0.67356 0.57562 0.0
H1554 H 0.55567 0.2487 0.7952 0.0
H1555 H 0.67394 0.30581 0.74305 0.0
H1556 H 0.5651 0.33077 0.7968 0.0
H1557 H 0.64198 0.23589 0.71269 0.0
H1558 H 0.634 0.31873 0.75874 0.0
H1559 H 0.58753 0.24501 0.76369 0.0
C1560 C 0.56457 0.26597 0.789 0.0
C1561 C 0.55799 0.29006 0.79887 0.0
C1562 C 0.63549 0.30106 0.7477 0.0
C1563 C 0.5945 0.286 0.76256 0.0
C1564 C 0.65828 0.29394 0.73828 0.0
C1565 C 0.66133 0.26964 0.72689 0.0
C1566 C 0.61592 0.28349 0.74584 0.0
C1567 C 0.64042 0.25467 0.72169 0.0
C1568 C 0.58252 0.26389 0.7707 0.0
C1569 C 0.56983 0.31183 0.78977 0.0
N1570 N 0.61873 0.26141 0.73195 0.0
N1571 N 0.58788 0.30928 0.77239 0.0
H1572 H 0.96844 0.32649 0.06676 0.0
H1573 H 0.04293 0.45382 0.10645 0.0
H1574 H 0.02143 0.33264 0.12604 0.0
H1575 H 0.00711 0.44496 0.03536 0.0
H1576 H 0.02809 0.41147 0.11719 0.0
H1577 H 0.97767 0.37094 0.05675 0.0
C1578 C 0.98224 0.33701 0.07746 0.0
C1579 C 0.99415 0.32573 0.09734 0.0
C1580 C 0.02304 0.41887 0.09939 0.0
C1581 C 0.00422 0.37671 0.08635 0.0
C1582 C 0.03119 0.44318 0.09345 0.0
C1583 C 0.0259 0.45286 0.07018 0.0
C1584 C 0.00979 0.40394 0.08175 0.0
C1585 C 0.01103 0.43828 0.05373 0.0
C1586 C 0.98733 0.36243 0.07182 0.0
C1587 C 0.01179 0.34037 0.11055 0.0
N1588 N 0.00368 0.41427 0.0597 0.0
N1589 N 0.01611 0.36511 0.10494 0.0
H1590 H 0.95327 0.77072 0.31526 0.0
H1591 H 0.80922 0.77218 0.30316 0.0
H1592 H 0.90363 0.73715 0.36788 0.0
H1593 H 0.85942 0.78474 0.24267 0.0
H1594 H 0.8434 0.7728 0.33212 0.0
H1595 H 0.91878 0.78865 0.29397 0.0
C1596 C 0.93512 0.7673 0.32249 0.0
C1597 C 0.93123 0.75194 0.34304 0.0
C1598 C 0.84685 0.77596 0.31259 0.0
C1599 C 0.89177 0.77251 0.31879 0.0
C1600 C 0.82735 0.77574 0.29607 0.0
C1601 C 0.83157 0.77776 0.27043 0.0
C1602 C 0.87064 0.77838 0.30331 0.0
C1603 C 0.85542 0.78251 0.26224 0.0
C1604 C 0.91547 0.77765 0.31037 0.0
C1605 C 0.90739 0.74859 0.35189 0.0
N1606 N 0.87414 0.78228 0.27861 0.0
N1607 N 0.88846 0.75852 0.33948 0.0
H1608 H 0.45819 0.35907 0.90403 0.0
H1609 H 0.56417 0.44267 0.95874 0.0
H1610 H 0.53279 0.34378 0.88368 0.0
H1611 H 0.49201 0.47241 0.95091 0.0
H1612 H 0.5543 0.40863 0.92784 0.0
H1613 H 0.47042 0.40203 0.91865 0.0
C1614 C 0.47716 0.36482 0.90254 0.0
C1615 C 0.49461 0.3477 0.8931 0.0
C1616 C 0.54082 0.42298 0.93229 0.0
C1617 C 0.50873 0.39687 0.90983 0.0
C1618 C 0.54647 0.44242 0.94986 0.0
C1619 C 0.52875 0.46008 0.95741 0.0
C1620 C 0.51706 0.42084 0.92286 0.0
C1621 C 0.50611 0.45907 0.9455 0.0
C1622 C 0.48408 0.38946 0.91064 0.0
C1623 C 0.51883 0.35633 0.89111 0.0
N1624 N 0.50065 0.43928 0.92924 0.0
N1625 N 0.52529 0.3802 0.8999 0.0
H1626 H 0.92306 0.2346 0.20756 0.0
H1627 H 0.78705 0.21505 0.16639 0.0
H1628 H 0.90267 0.24589 0.13123 0.0
H1629 H 0.80647 0.2456 0.23935 0.0
H1630 H 0.82871 0.22392 0.15193 0.0
H1631 H 0.87996 0.23349 0.21907 0.0
C1632 C 0.90951 0.23638 0.19314 0.0
C1633 C 0.91643 0.24024 0.16838 0.0
C1634 C 0.82365 0.22935 0.1709 0.0
C1635 C 0.86721 0.23936 0.1815 0.0
C1636 C 0.7999 0.22459 0.17903 0.0
C1637 C 0.79348 0.23005 0.2039 0.0
C1638 C 0.8411 0.23871 0.18811 0.0
C1639 C 0.81079 0.2416 0.2199 0.0
C1640 C 0.88497 0.23617 0.1998 0.0
C1641 C 0.8981 0.24283 0.15052 0.0
N1642 N 0.83405 0.24508 0.21188 0.0
N1643 N 0.87425 0.2422 0.1574 0.0
H1644 H 0.02138 0.68383 0.44326 0.0
H1645 H 0.97146 0.56333 0.51582 0.0
H1646 H 0.94598 0.67368 0.46422 0.0
H1647 H 0.04183 0.56909 0.4804 0.0
H1648 H 0.96468 0.60859 0.50765 0.0
H1649 H 0.03176 0.64739 0.46784 0.0
C1650 C 0.00703 0.67421 0.45337 0.0
C1651 C 0.98268 0.68151 0.4512 0.0
C1652 C 0.98179 0.60003 0.50216 0.0
C1653 C 0.99444 0.6394 0.47917 0.0
C1654 C 0.98571 0.57428 0.50693 0.0
C1655 C 0.00705 0.56241 0.49837 0.0
C1656 C -0.00049 0.61391 0.48904 0.0
C1657 C 0.02494 0.57743 0.48693 0.0
C1658 C 0.01298 0.65334 0.46739 0.0
C1659 C 0.96496 0.66854 0.46511 0.0
N1660 N 0.02067 0.60227 0.4824 0.0
N1661 N 0.97111 0.64778 0.47814 0.0
H1662 H 0.56752 0.78946 0.64557 0.0
H1663 H 0.6763 0.74915 0.73405 0.0
H1664 H 0.55647 0.74211 0.70893 0.0
H1665 H 0.68368 0.80366 0.67588 0.0
H1666 H 0.63266 0.74538 0.72507 0.0
H1667 H 0.61056 0.79346 0.65594 0.0
C1668 C 0.57414 0.77982 0.66164 0.0
C1669 C 0.55831 0.76544 0.67641 0.0
C1670 C 0.64387 0.75824 0.71439 0.0
C1671 C 0.60776 0.77 0.68848 0.0
C1672 C 0.66878 0.76045 0.71953 0.0
C1673 C 0.68378 0.77672 0.70569 0.0
C1674 C 0.63391 0.77231 0.69522 0.0
C1675 C 0.67295 0.79083 0.68705 0.0
C1676 C 0.59876 0.78218 0.66762 0.0
C1677 C 0.568 0.75341 0.69704 0.0
N1678 N 0.64877 0.78821 0.68233 0.0
N1679 N 0.59213 0.75595 0.70247 0.0
H1680 H 0.56978 0.57339 0.69121 0.0
H1681 H 0.48677 0.48883 0.5976 0.0
H1682 H 0.54972 0.49402 0.69919 0.0
H1683 H 0.52438 0.55739 0.57579 0.0
H1684 H 0.49772 0.49885 0.64092 0.0
H1685 H 0.54353 0.57436 0.65427 0.0
C1686 C 0.55971 0.55626 0.68533 0.0
C1687 C 0.56222 0.53345 0.69801 0.0
C1688 C 0.50301 0.51214 0.62679 0.0
C1689 C 0.53186 0.53466 0.65636 0.0
C1690 C 0.49644 0.50661 0.60214 0.0
C1691 C 0.505 0.52214 0.58317 0.0
C1692 C 0.51852 0.53313 0.63241 0.0
C1693 C 0.51751 0.54492 0.58995 0.0
C1694 C 0.5447 0.55688 0.66435 0.0
C1695 C 0.54866 0.51187 0.68972 0.0
N1696 N 0.52454 0.54942 0.61403 0.0
N1697 N 0.53415 0.513 0.66941 0.0
H1698 H 0.81088 0.33149 0.9114 0.0
H1699 H 0.70322 0.26941 0.83301 0.0
H1700 H 0.73656 0.34739 0.93221 0.0
H1701 H 0.76943 0.29578 0.79798 0.0
H1702 H 0.71535 0.293 0.87159 0.0
H1703 H 0.79655 0.31314 0.87139 0.0
C1704 C 0.79154 0.33119 0.90746 0.0
C1705 C 0.77485 0.34097 0.92504 0.0
C1706 C 0.72702 0.29373 0.85532 0.0
C1707 C 0.75836 0.31959 0.87964 0.0
C1708 C 0.72021 0.28022 0.8334 0.0
C1709 C 0.73537 0.2806 0.8123 0.0
C1710 C 0.74939 0.3071 0.85622 0.0
C1711 C 0.75715 0.29502 0.81377 0.0
C1712 C 0.78341 0.32083 0.88465 0.0
C1713 C 0.74999 0.34019 0.91903 0.0
N1714 N 0.76366 0.30739 0.83546 0.0
N1715 N 0.74241 0.3293 0.8969 0.0
H1716 H 0.95665 0.50423 0.23335 0.0
H1717 H 0.92646 0.54113 0.09383 0.0
H1718 H 0.88451 0.51998 0.20682 0.0
H1719 H 0.99679 0.51354 0.11533 0.0
H1720 H 0.91184 0.53577 0.13604 0.0
H1721 H 0.97251 0.50928 0.19108 0.0
C1722 C 0.94414 0.50867 0.21865 0.0
C1723 C 0.9192 0.51172 0.22365 0.0
C1724 C 0.93048 0.53088 0.1316 0.0
C1725 C 0.93727 0.51767 0.17536 0.0
C1726 C 0.93893 0.53401 0.10743 0.0
C1727 C 0.96296 0.52776 0.10088 0.0
C1728 C 0.9461 0.52148 0.14959 0.0
C1729 C 0.97814 0.51864 0.11948 0.0
C1730 C 0.95321 0.51154 0.19454 0.0
C1731 C 0.90385 0.51744 0.20387 0.0
N1732 N 0.96945 0.51576 0.14302 0.0
N1733 N 0.91314 0.52032 0.18066 0.0
H1734 H 0.81814 0.69975 0.42436 0.0
H1735 H 0.72937 0.7114 0.30779 0.0
H1736 H 0.75196 0.65513 0.41322 0.0
H1737 H 0.77637 0.77354 0.33315 0.0
H1738 H 0.74454 0.68549 0.34132 0.0
H1739 H 0.80876 0.72322 0.38692 0.0
C1740 C 0.80158 0.69501 0.4142 0.0
C1741 C 0.78573 0.67554 0.42208 0.0
C1742 C 0.75202 0.70457 0.33919 0.0
C1743 C 0.77535 0.70175 0.37899 0.0
C1744 C 0.74371 0.71911 0.31982 0.0
C1745 C 0.7525 0.74408 0.31721 0.0
C1746 C 0.7689 0.71536 0.35632 0.0
C1747 C 0.77002 0.75389 0.33404 0.0
C1748 C 0.79633 0.70832 0.3928 0.0
C1749 C 0.7646 0.67013 0.40807 0.0
N1750 N 0.77767 0.73952 0.353 0.0
N1751 N 0.76013 0.68303 0.38715 0.0
H1752 H 0.58583 0.5725 0.82504 0.0
H1753 H 0.55714 0.52116 0.95429 0.0
H1754 H 0.61916 0.50251 0.84638 0.0
H1755 H 0.56571 0.60205 0.94328 0.0
H1756 H 0.58137 0.51263 0.91638 0.0
H1757 H 0.5785 0.58349 0.8691 0.0
C1758 C 0.59191 0.55968 0.83904 0.0
C1759 C 0.60296 0.53659 0.83218 0.0
C1760 C 0.57845 0.53223 0.92275 0.0
C1761 C 0.59422 0.54861 0.88232 0.0
C1762 C 0.56469 0.53706 0.94437 0.0
C1763 C 0.55882 0.56227 0.95136 0.0
C1764 C 0.58592 0.55282 0.90825 0.0
C1765 C 0.56924 0.58227 0.93803 0.0
C1766 C 0.58785 0.56595 0.86414 0.0
C1767 C 0.61057 0.52056 0.851 0.0
N1768 N 0.58177 0.57713 0.91674 0.0
N1769 N 0.60555 0.52658 0.87528 0.0
H1770 H 0.72165 0.34393 0.0433 0.0
H1771 H 0.74624 0.25039 0.15181 0.0
H1772 H 0.78131 0.29114 0.04311 0.0
H1773 H 0.68265 0.29748 0.14779 0.0
H1774 H 0.75457 0.25787 0.10792 0.0
H1775 H 0.70258 0.32072 0.077 0.0
C1776 C 0.73057 0.32723 0.05004 0.0
C1777 C 0.75343 0.31991 0.04075 0.0
C1778 C 0.73849 0.26612 0.11649 0.0
C1779 C 0.73182 0.29338 0.07957 0.0
C1780 C 0.73365 0.26172 0.14155 0.0
C1781 C 0.7141 0.27392 0.15368 0.0
C1782 C 0.72376 0.28294 0.10361 0.0
C1783 C 0.69831 0.28824 0.13937 0.0
C1784 C 0.71965 0.31394 0.06931 0.0
C1785 C 0.76391 0.29784 0.05 0.0
N1786 N 0.70376 0.29279 0.11526 0.0
N1787 N 0.75326 0.28568 0.06922 0.0
H1788 H 0.91078 0.45242 0.34036 0.0
H1789 H 0.92794 0.4907 0.48052 0.0
H1790 H 0.86666 0.5082 0.37982 0.0
H1791 H 0.96681 0.43072 0.44124 0.0
H1792 H 0.89637 0.48789 0.44846 0.0
H1793 H 0.92258 0.43533 0.38003 0.0
C1794 C 0.90341 0.4609 0.35744 0.0
C1795 C 0.88838 0.48221 0.35697 0.0
C1796 C 0.91134 0.47467 0.44728 0.0
C1797 C 0.90206 0.46311 0.40248 0.0
C1798 C 0.92922 0.47615 0.46573 0.0
C1799 C 0.95012 0.46134 0.463 0.0
C1800 C 0.91479 0.45846 0.42608 0.0
C1801 C 0.95109 0.44281 0.44356 0.0
C1802 C 0.91 0.45105 0.38011 0.0
C1803 C 0.87874 0.49205 0.3795 0.0
N1804 N 0.93396 0.44229 0.42548 0.0
N1805 N 0.88624 0.48283 0.40146 0.0
H1806 H 0.75902 0.64338 0.55268 0.0
H1807 H 0.81242 0.74016 0.65833 0.0
H1808 H 0.83004 0.67982 0.54985 0.0
H1809 H 0.74402 0.69992 0.66674 0.0
H1810 H 0.82036 0.71485 0.6202 0.0
H1811 H 0.75359 0.66163 0.59508 0.0
C1812 C 0.77344 0.65525 0.56087 0.0
C1813 C 0.79497 0.66018 0.54746 0.0
C1814 C 0.80378 0.7111 0.63049 0.0
C1815 C 0.78893 0.68089 0.59617 0.0
C1816 C 0.79938 0.72539 0.65243 0.0
C1817 C 0.77767 0.72191 0.66576 0.0
C1818 C 0.78607 0.69351 0.62137 0.0
C1819 C 0.76115 0.70288 0.65713 0.0
C1820 C 0.77037 0.66552 0.58517 0.0
C1821 C 0.81307 0.67554 0.55925 0.0
N1822 N 0.7655 0.68961 0.63522 0.0
N1823 N 0.80959 0.68534 0.58277 0.0
H1824 H 0.70984 0.57449 0.54116 0.0
H1825 H 0.57763 0.55541 0.4807 0.0
H1826 H 0.69216 0.60289 0.46904 0.0
H1827 H 0.60557 0.51014 0.53954 0.0
H1828 H 0.61698 0.57831 0.47918 0.0
H1829 H 0.66867 0.5569 0.54433 0.0
C1830 C 0.69724 0.57726 0.52607 0.0
C1831 C 0.70457 0.58995 0.50467 0.0
C1832 C 0.61438 0.56335 0.49239 0.0
C1833 C 0.65733 0.56969 0.50816 0.0
C1834 C 0.59197 0.55029 0.49328 0.0
C1835 C 0.58833 0.53067 0.51014 0.0
C1836 C 0.63306 0.55696 0.50872 0.0
C1837 C 0.60755 0.52491 0.52605 0.0
C1838 C 0.67374 0.56709 0.52785 0.0
C1839 C 0.68733 0.59307 0.48579 0.0
N1840 N 0.629 0.53801 0.52498 0.0
N1841 N 0.6645 0.58286 0.48791 0.0
H1842 H 0.19298 0.91456 0.49294 0.0
H1843 H 0.08118 0.95324 0.57903 0.0
H1844 H 0.19838 0.92274 0.57304 0.0
H1845 H 0.08496 0.9737 0.50203 0.0
H1846 H 0.12404 0.94151 0.57713 0.0
H1847 H 0.1529 0.93468 0.49529 0.0
C1848 C 0.18575 0.92055 0.51099 0.0
C1849 C 0.19899 0.9168 0.53284 0.0
C1850 C 0.11566 0.94898 0.56075 0.0
C1851 C 0.15329 0.9398 0.53563 0.0
C1852 C 0.09124 0.95577 0.56187 0.0
C1853 C 0.07958 0.96449 0.54069 0.0
C1854 C 0.1284 0.95026 0.53808 0.0
C1855 C 0.09338 0.96726 0.51885 0.0
C1856 C 0.16299 0.93221 0.51229 0.0
C1857 C 0.18882 0.92515 0.55571 0.0
N1858 N 0.11699 0.9597 0.51795 0.0
N1859 N 0.16654 0.93602 0.55652 0.0
H1860 H 0.33761 0.91793 0.8298 0.0
H1861 H 0.28768 0.83253 0.72 0.0
H1862 H 0.3546 0.93397 0.75331 0.0
H1863 H 0.29746 0.8029 0.79304 0.0
H1864 H 0.31616 0.86752 0.73069 0.0
H1865 H 0.32606 0.87425 0.81669 0.0
C1866 C 0.33907 0.9122 0.81026 0.0
C1867 C 0.34659 0.92974 0.79253 0.0
C1868 C 0.31265 0.85303 0.7442 0.0
C1869 C 0.33341 0.87982 0.77743 0.0
C1870 C 0.29646 0.83308 0.73807 0.0
C1871 C 0.29018 0.81516 0.75582 0.0
C1872 C 0.32193 0.85544 0.76851 0.0
C1873 C 0.30191 0.8165 0.77894 0.0
C1874 C 0.33271 0.88719 0.80283 0.0
C1875 C 0.3486 0.92115 0.76755 0.0
N1876 N 0.3168 0.8368 0.78492 0.0
N1877 N 0.34159 0.8969 0.76066 0.0
H1878 H 0.37373 0.11778 0.96191 0.0
H1879 H 0.44832 0.02891 0.05052 0.0
H1880 H 0.34113 0.06071 0.00814 0.0
H1881 H 0.48388 0.07797 0.99839 0.0
H1882 H 0.40912 0.03879 0.03276 0.0
H1883 H 0.41413 0.10289 0.9732 0.0
C1884 C 0.37504 0.10217 0.97448 0.0
C1885 C 0.35398 0.09067 0.98435 0.0
C1886 C 0.4254 0.04729 0.02491 0.0
C1887 C 0.40016 0.0734 0.99709 0.0
C1888 C 0.44781 0.04161 0.03503 0.0
C1889 C 0.46925 0.0528 0.02595 0.0
C1890 C 0.42422 0.06479 0.00582 0.0
C1891 C 0.46767 0.06899 0.00584 0.0
C1892 C 0.39812 0.09358 0.98076 0.0
C1893 C 0.35681 0.07029 0.00024 0.0
N1894 N 0.4454 0.07486 0.99662 0.0
N1895 N 0.37943 0.06244 0.00619 0.0
H1896 H 0.63226 0.58447 0.73333 0.0
H1897 H 0.75493 0.66732 0.72969 0.0
H1898 H 0.70363 0.55837 0.75259 0.0
H1899 H 0.68436 0.69946 0.74362 0.0
H1900 H 0.73539 0.62612 0.71851 0.0
H1901 H 0.65079 0.62459 0.71956 0.0
C1902 C 0.65187 0.58689 0.73408 0.0
C1903 C 0.66642 0.56824 0.74452 0.0
C1904 C 0.72411 0.64247 0.72297 0.0
C1905 C 0.68764 0.6138 0.72844 0.0
C1906 C 0.73523 0.66611 0.72887 0.0
C1907 C 0.72119 0.68672 0.73759 0.0
C1908 C 0.6988 0.63957 0.72585 0.0
C1909 C 0.69577 0.684 0.73683 0.0
C1910 C 0.66239 0.60978 0.72624 0.0
C1911 C 0.69171 0.57241 0.74505 0.0
N1912 N 0.68534 0.66063 0.73171 0.0
N1913 N 0.70149 0.59481 0.73734 0.0
H1914 H 0.85908 0.37803 0.01174 0.0
H1915 H 0.95295 0.48151 0.96202 0.0
H1916 H 0.84345 0.43402 0.95725 0.0
H1917 H 0.95931 0.44729 0.0334 0.0
H1918 H 0.92051 0.45078 0.95079 0.0
H1919 H 0.90208 0.39118 0.01072 0.0
C1920 C 0.86477 0.39267 0.99912 0.0
C1921 C 0.84762 0.40531 0.98485 0.0
C1922 C 0.92953 0.44942 0.96859 0.0
C1923 C 0.8967 0.42013 0.98347 0.0
C1924 C 0.9482 0.46675 0.97489 0.0
C1925 C 0.95857 0.46699 0.99873 0.0
C1926 C 0.92102 0.43245 0.98639 0.0
C1927 C 0.95178 0.44762 0.01481 0.0
C1928 C 0.8893 0.40014 0.9986 0.0
C1929 C 0.85601 0.42407 0.96883 0.0
N1930 N 0.93292 0.43144 0.00859 0.0
N1931 N 0.87993 0.43109 0.96875 0.0
H1932 H 0.28801 0.05788 0.81569 0.0
H1933 H 0.28203 0.14608 0.70086 0.0
H1934 H 0.31313 0.03731 0.74145 0.0
H1935 H 0.25611 0.1687 0.77419 0.0
H1936 H 0.28221 0.10172 0.71297 0.0
H1937 H 0.26516 0.09293 0.79875 0.0
C1938 C 0.28813 0.06023 0.79573 0.0
C1939 C 0.3031 0.0452 0.78002 0.0
C1940 C 0.27608 0.11622 0.72638 0.0
C1941 C 0.27728 0.08532 0.76064 0.0
C1942 C 0.27605 0.14154 0.71947 0.0
C1943 C 0.26961 0.16094 0.73679 0.0
C1944 C 0.27035 0.11035 0.75106 0.0
C1945 C 0.26149 0.15416 0.76045 0.0
C1946 C 0.27515 0.08033 0.78609 0.0
C1947 C 0.30237 0.04892 0.75432 0.0
N1948 N 0.26269 0.12939 0.76716 0.0
N1949 N 0.2901 0.06893 0.7455 0.0
H1950 H 0.17762 0.92354 0.23615 0.0
H1951 H 0.24566 0.79767 0.2646 0.0
H1952 H 0.21221 0.91997 0.30809 0.0
H1953 H 0.17525 0.79874 0.22957 0.0
H1954 H 0.24047 0.84253 0.27874 0.0
H1955 H 0.18635 0.87854 0.22821 0.0
C1956 C 0.18755 0.91353 0.25009 0.0
C1957 C 0.1937 0.92554 0.27308 0.0
C1958 C 0.22593 0.83261 0.26858 0.0
C1959 C 0.20352 0.87381 0.26405 0.0
C1960 C 0.22859 0.80685 0.26106 0.0
C1961 C 0.21054 0.79433 0.24646 0.0
C1962 C 0.20551 0.84581 0.2606 0.0
C1963 C 0.18945 0.80767 0.241 0.0
C1964 C 0.19224 0.88773 0.24563 0.0
C1965 C 0.20686 0.91144 0.29022 0.0
N1966 N 0.18771 0.83281 0.24765 0.0
N1967 N 0.21116 0.88614 0.28547 0.0
H1968 H 0.44532 0.33152 0.42506 0.0
H1969 H 0.54419 0.43993 0.46007 0.0
H1970 H 0.51704 0.33598 0.39208 0.0
H1971 H 0.47282 0.43693 0.49331 0.0
H1972 H 0.53167 0.40642 0.42958 0.0
H1973 H 0.45245 0.37353 0.44548 0.0
C1974 C 0.46251 0.34135 0.42196 0.0
C1975 C 0.48074 0.32993 0.40706 0.0
C1976 C 0.51849 0.41342 0.44313 0.0
C1977 C 0.48895 0.37819 0.43036 0.0
C1978 C 0.52558 0.43272 0.46034 0.0
C1979 C 0.50934 0.4413 0.47885 0.0
C1980 C 0.49518 0.40212 0.44495 0.0
C1981 C 0.48565 0.43104 0.47894 0.0
C1982 C 0.46652 0.36541 0.43358 0.0
C1983 C 0.50254 0.34379 0.4036 0.0
N1984 N 0.47934 0.41167 0.46246 0.0
N1985 N 0.50609 0.36703 0.41531 0.0
H1986 H 0.43913 0.75802 0.20752 0.0
H1987 H 0.29801 0.76054 0.17258 0.0
H1988 H 0.41069 0.79149 0.14153 0.0
H1989 H 0.32404 0.73615 0.24363 0.0
H1990 H 0.33974 0.76862 0.15976 0.0
H1991 H 0.39756 0.74663 0.21991 0.0
C1992 C 0.42417 0.76286 0.19558 0.0
C1993 C 0.42836 0.77569 0.17343 0.0
C1994 C 0.33637 0.7615 0.17817 0.0
C1995 C 0.38092 0.76277 0.18749 0.0
C1996 C 0.31249 0.75685 0.18553 0.0
C1997 C 0.30744 0.74779 0.20932 0.0
C1998 C 0.35547 0.75707 0.19463 0.0
C1999 C 0.32706 0.7433 0.22519 0.0
C2000 C 0.40048 0.75639 0.20268 0.0
C2001 C 0.40835 0.7815 0.15868 0.0
N2002 N 0.35026 0.74803 0.21755 0.0
N2003 N 0.3855 0.77502 0.166 0.0
H2004 H 0.03462 0.68494 0.92088 0.0
H2005 H 0.99288 0.61218 0.04117 0.0
H2006 H 0.98327 0.71245 0.97628 0.0
H2007 H 0.01755 0.57414 0.97343 0.0
H2008 H 0.00669 0.65314 0.02524 0.0
H2009 H 0.04414 0.64935 0.94743 0.0
C2010 C 0.02591 0.68398 0.93896 0.0
C2011 C 0.00775 0.70138 0.94622 0.0
C2012 C 0.00992 0.63576 0.01421 0.0
C2013 C 0.01876 0.66096 0.97659 0.0
C2014 C 0.0023 0.61239 0.0234 0.0
C2015 C 0.00408 0.58998 0.00848 0.0
C2016 C 0.01895 0.63663 0.98977 0.0
C2017 C 0.01599 0.59113 0.98544 0.0
C2018 C 0.03132 0.66362 0.95402 0.0
C2019 C 0.99705 0.69919 0.9698 0.0
N2020 N 0.02251 0.61426 0.97647 0.0
N2021 N 0.00251 0.67915 0.98402 0.0
H2022 H 0.08735 0.27786 0.63419 0.0
H2023 H 0.17461 0.18865 0.70247 0.0
H2024 H 0.06583 0.20878 0.67052 0.0
H2025 H 0.19884 0.25544 0.6644 0.0
H2026 H 0.13771 0.18707 0.67739 0.0
H2027 H 0.12946 0.26319 0.63324 0.0
C2028 C 0.09144 0.2595 0.64172 0.0
C2029 C 0.07329 0.24496 0.65331 0.0
C2030 C 0.15139 0.20162 0.6738 0.0
C2031 C 0.12118 0.22794 0.65202 0.0
C2032 C 0.1726 0.20225 0.68791 0.0
C2033 C 0.18935 0.22242 0.68562 0.0
C2034 C 0.14664 0.22198 0.65824 0.0
C2035 C 0.18606 0.23972 0.66671 0.0
C2036 C 0.11543 0.25103 0.64099 0.0
C2037 C 0.07942 0.22105 0.6622 0.0
N2038 N 0.16457 0.23971 0.65428 0.0
N2039 N 0.10289 0.21349 0.66172 0.0
H2040 H 0.52793 0.71995 0.12164 0.0
H2041 H 0.48383 0.58056 0.07451 0.0
H2042 H 0.45429 0.69929 0.1003 0.0
H2043 H 0.55638 0.60971 0.06174 0.0
H2044 H 0.47499 0.6191 0.09993 0.0
H2045 H 0.5399 0.6755 0.11329 0.0
C2046 C 0.51425 0.70605 0.11534 0.0
C2047 C 0.49013 0.71339 0.11125 0.0
C2048 C 0.49315 0.61661 0.09238 0.0
C2049 C 0.50361 0.66254 0.10247 0.0
C2050 C 0.49837 0.59439 0.07834 0.0
C2051 C 0.52092 0.59199 0.06625 0.0
C2052 C 0.51067 0.63641 0.09426 0.0
C2053 C 0.53888 0.61083 0.07105 0.0
C2054 C 0.5211 0.68072 0.11072 0.0
C2055 C 0.47315 0.69456 0.10325 0.0
N2056 N 0.53324 0.63257 0.08434 0.0
N2057 N 0.48023 0.66999 0.0991 0.0
H2058 H 0.09144 0.69987 0.85109 0.0
H2059 H 0.17843 0.81295 0.80937 0.0
H2060 H 0.07961 0.78018 0.86719 0.0
H2061 H 0.18952 0.73412 0.7872 0.0
H2062 H 0.1485 0.79957 0.83998 0.0
H2063 H 0.13254 0.71036 0.83629 0.0
C2064 C 0.09761 0.71965 0.85187 0.0
C2065 C 0.08193 0.73927 0.85983 0.0
C2066 C 0.15772 0.78504 0.82876 0.0
C2067 C 0.12879 0.75132 0.84313 0.0
C2068 C 0.17486 0.79269 0.81133 0.0
C2069 C 0.18603 0.77452 0.79546 0.0
C2070 C 0.15126 0.75904 0.82989 0.0
C2071 C 0.18111 0.74859 0.79897 0.0
C2072 C 0.12106 0.72561 0.84345 0.0
C2073 C 0.09091 0.76451 0.86069 0.0
N2074 N 0.1636 0.74155 0.81545 0.0
N2075 N 0.11362 0.76981 0.85218 0.0
H2076 H 0.01895 0.28323 0.60144 0.0
H2077 H 0.95555 0.39937 0.53886 0.0
H2078 H 0.94164 0.28833 0.58883 0.0
H2079 H 0.03173 0.39798 0.55723 0.0
H2080 H 0.95231 0.3535 0.54586 0.0
H2081 H 0.0258 0.3192 0.57452 0.0
C2082 C 0.00342 0.29158 0.59268 0.0
C2083 C 0.9796 0.28324 0.59812 0.0
C2084 C 0.96991 0.36299 0.54777 0.0
C2085 C 0.98737 0.32452 0.56725 0.0
C2086 C 0.97176 0.38909 0.54361 0.0
C2087 C 0.99392 0.40217 0.54748 0.0
C2088 C 0.99028 0.3501 0.55642 0.0
C2089 C 0.01438 0.38833 0.55397 0.0
C2090 C 0.00738 0.31214 0.57726 0.0
C2091 C 0.96029 0.29438 0.5856 0.0
N2092 N 0.01198 0.36304 0.55868 0.0
N2093 N 0.96456 0.31478 0.57117 0.0
H2094 H 0.45419 0.29485 0.29648 0.0
H2095 H 0.34797 0.20209 0.24933 0.0
H2096 H 0.42757 0.22896 0.33495 0.0
H2097 H 0.33238 0.28266 0.25393 0.0
H2098 H 0.38891 0.2116 0.26499 0.0
H2099 H 0.41872 0.29066 0.2682 0.0
C2100 C 0.44088 0.27967 0.29904 0.0
C2101 C 0.44369 0.26229 0.31814 0.0
C2102 C 0.37677 0.22726 0.26178 0.0
C2103 C 0.4043 0.25687 0.28557 0.0
C2104 C 0.35353 0.22189 0.25267 0.0
C2105 C 0.33675 0.24159 0.25074 0.0
C2106 C 0.38324 0.25245 0.26901 0.0
C2107 C 0.34486 0.26695 0.25526 0.0
C2108 C 0.42085 0.27728 0.28292 0.0
C2109 C 0.42606 0.2429 0.32065 0.0
N2110 N 0.36751 0.27171 0.26486 0.0
N2111 N 0.40733 0.24054 0.30438 0.0
H2112 H 0.42623 0.46275 0.32941 0.0
H2113 H 0.49695 0.4681 0.43285 0.0
H2114 H 0.48969 0.48519 0.28758 0.0
H2115 H 0.5241 0.53458 0.39588 0.0
H2116 H 0.48556 0.44857 0.39238 0.0
H2117 H 0.4511 0.46244 0.36711 0.0
C2118 C 0.44557 0.46692 0.32811 0.0
C2119 C 0.45601 0.47406 0.30554 0.0
C2120 C 0.49471 0.46709 0.39311 0.0
C2121 C 0.48442 0.4742 0.34844 0.0
C2122 C 0.50161 0.47808 0.41615 0.0
C2123 C 0.51135 0.50305 0.41768 0.0
C2124 C 0.49767 0.48124 0.37159 0.0
C2125 C 0.5164 0.51538 0.39545 0.0
C2126 C 0.45981 0.46654 0.34953 0.0
C2127 C 0.4811 0.47944 0.30472 0.0
N2128 N 0.50915 0.50449 0.37327 0.0
N2129 N 0.49436 0.48022 0.32609 0.0
H2130 H 0.31039 0.64971 0.08512 0.0
H2131 H 0.19908 0.66799 0.17704 0.0
H2132 H 0.23701 0.62499 0.06666 0.0
H2133 H 0.2735 0.67208 0.2023 0.0
H2134 H 0.21273 0.64755 0.13792 0.0
H2135 H 0.29777 0.65565 0.12884 0.0
C2136 C 0.29168 0.64552 0.09021 0.0
C2137 C 0.27472 0.6371 0.07207 0.0
C2138 C 0.22606 0.65223 0.15226 0.0
C2139 C 0.26022 0.64362 0.12204 0.0
C2140 C 0.21818 0.66357 0.17474 0.0
C2141 C 0.23516 0.67179 0.19289 0.0
C2142 C 0.25114 0.64969 0.14766 0.0
C2143 C 0.25977 0.66591 0.18884 0.0
C2144 C 0.28454 0.64867 0.1152 0.0
C2145 C 0.25076 0.63168 0.07987 0.0
N2146 N 0.26713 0.65588 0.16636 0.0
N2147 N 0.24422 0.63525 0.10413 0.0
H2148 H 0.06153 0.50357 0.83419 0.0
H2149 H 0.09913 0.50075 0.97777 0.0
H2150 H 0.12896 0.47412 0.86153 0.0
H2151 H 0.02603 0.51759 0.95458 0.0
H2152 H 0.11131 0.49626 0.93444 0.0
H2153 H 0.04896 0.51336 0.87742 0.0
C2154 C 0.07373 0.4993 0.84922 0.0
C2155 C 0.0964 0.48814 0.84423 0.0
C2156 C 0.09258 0.50096 0.93873 0.0
C2157 C 0.08222 0.49932 0.89345 0.0
C2158 C 0.08558 0.50356 0.96356 0.0
C2159 C 0.0614 0.50923 0.96991 0.0
C2160 C 0.07536 0.50399 0.9199 0.0
C2161 C 0.04483 0.51301 0.95055 0.0
C2162 C 0.06654 0.50488 0.87384 0.0
C2163 C 0.11146 0.48295 0.86438 0.0
N2164 N 0.05209 0.51015 0.92633 0.0
N2165 N 0.1041 0.48858 0.88803 0.0
H2166 H 0.23341 0.34151 0.57071 0.0
H2167 H 0.28444 0.21835 0.63386 0.0
H2168 H 0.28395 0.2881 0.53706 0.0
H2169 H 0.25468 0.28227 0.67607 0.0
H2170 H 0.2705 0.23672 0.59553 0.0
H2171 H 0.22844 0.31338 0.60601 0.0
C2172 C 0.2429 0.32351 0.57039 0.0
C2173 C 0.25942 0.31724 0.55115 0.0
C2174 C 0.26655 0.24654 0.61318 0.0
C2175 C 0.25372 0.28516 0.59123 0.0
C2176 C 0.27445 0.23605 0.63505 0.0
C2177 C 0.27107 0.24912 0.65802 0.0
C2178 C 0.25561 0.27056 0.61421 0.0
C2179 C 0.25773 0.27173 0.65866 0.0
C2180 C 0.24014 0.30759 0.59059 0.0
C2181 C 0.27131 0.29381 0.55169 0.0
N2182 N 0.25092 0.28214 0.63691 0.0
N2183 N 0.2684 0.27874 0.57153 0.0
H2184 H 0.42586 0.55203 0.16746 0.0
H2185 H 0.47309 0.45421 0.06319 0.0
H2186 H 0.40988 0.47092 0.16419 0.0
H2187 H 0.49576 0.53335 0.06907 0.0
H2188 H 0.44 0.46329 0.09241 0.0
H2189 H 0.44162 0.54858 0.12482 0.0
C2190 C 0.42519 0.53359 0.15761 0.0
C2191 C 0.41717 0.51158 0.16961 0.0
C2192 C 0.45184 0.47888 0.08695 0.0
C2193 C 0.43517 0.50753 0.12094 0.0
C2194 C 0.47069 0.47369 0.07024 0.0
C2195 C 0.48727 0.49306 0.06406 0.0
C2196 C 0.45001 0.50348 0.09808 0.0
C2197 C 0.48332 0.51798 0.0734 0.0
C2198 C 0.43421 0.53164 0.13326 0.0
C2199 C 0.41642 0.48827 0.15585 0.0
N2200 N 0.46538 0.52242 0.09048 0.0
N2201 N 0.42569 0.4868 0.1324 0.0
H2202 H 0.30102 0.70405 0.95674 0.0
H2203 H 0.21725 0.72654 0.83851 0.0
H2204 H 0.22888 0.67103 0.94757 0.0
H2205 H 0.29562 0.73121 0.83906 0.0
H2206 H 0.21761 0.7203 0.88377 0.0
H2207 H 0.29478 0.72861 0.91966 0.0
C2208 C 0.2836 0.70239 0.94737 0.0
C2209 C 0.2657 0.68482 0.95503 0.0
C2210 C 0.23466 0.72343 0.87407 0.0
C2211 C 0.25857 0.71296 0.91233 0.0
C2212 C 0.23445 0.72721 0.84836 0.0
C2213 C 0.25646 0.72941 0.83524 0.0
C2214 C 0.25704 0.72219 0.88657 0.0
C2215 C 0.2783 0.72962 0.84863 0.0
C2216 C 0.28013 0.71639 0.92608 0.0
C2217 C 0.24339 0.68394 0.94218 0.0
N2218 N 0.27806 0.72586 0.87353 0.0
N2219 N 0.24062 0.69741 0.92118 0.0
H2220 H 0.09018 0.54436 0.70615 0.0
H2221 H 0.0715 0.46802 0.57821 0.0
H2222 H 0.11497 0.46766 0.68958 0.0
H2223 H 0.03882 0.54038 0.59747 0.0
H2224 H 0.10005 0.47486 0.61273 0.0
H2225 H 0.08281 0.54939 0.66179 0.0
C2226 C 0.09421 0.52863 0.69318 0.0
C2227 C 0.10246 0.50527 0.70163 0.0
C2228 C 0.08725 0.48972 0.60888 0.0
C2229 C 0.09429 0.51097 0.65089 0.0
C2230 C 0.07125 0.48598 0.58892 0.0
C2231 C 0.05291 0.50368 0.58525 0.0
C2232 C 0.08436 0.51102 0.62534 0.0
C2233 C 0.05279 0.52633 0.59994 0.0
C2234 C 0.09019 0.53158 0.66783 0.0
C2235 C 0.10799 0.48578 0.68394 0.0
N2236 N 0.06792 0.52913 0.61977 0.0
N2237 N 0.10343 0.48893 0.65944 0.0
H2238 H 0.30852 0.34766 0.41976 0.0
H2239 H 0.22349 0.26166 0.33327 0.0
H2240 H 0.23195 0.3403 0.43671 0.0
H2241 H 0.28561 0.30237 0.30447 0.0
H2242 H 0.22576 0.28867 0.37175 0.0
H2243 H 0.3008 0.3291 0.37805 0.0
C2244 C 0.29004 0.34217 0.41466 0.0
C2245 C 0.27086 0.34539 0.43177 0.0
C2246 C 0.23847 0.29213 0.35673 0.0
C2247 C 0.26194 0.32386 0.38406 0.0
C2248 C 0.23711 0.27684 0.33481 0.0
C2249 C 0.25403 0.28032 0.31556 0.0
C2250 C 0.25743 0.31034 0.35966 0.0
C2251 C 0.2718 0.29968 0.31861 0.0
C2252 C 0.28563 0.33175 0.39079 0.0
C2253 C 0.24724 0.33815 0.42406 0.0
N2254 N 0.27329 0.3137 0.34042 0.0
N2255 N 0.24347 0.32733 0.40086 0.0
H2256 H 0.30367 0.46094 0.47362 0.0
H2257 H 0.44433 0.46995 0.51196 0.0
H2258 H 0.3413 0.40236 0.51205 0.0
H2259 H 0.40988 0.52522 0.46641 0.0
H2260 H 0.40627 0.44545 0.51267 0.0
H2261 H 0.34216 0.485 0.47058 0.0
C2262 C 0.32004 0.45301 0.48117 0.0
C2263 C 0.31925 0.42959 0.49308 0.0
C2264 C 0.40702 0.46294 0.5025 0.0
C2265 C 0.3632 0.4571 0.48997 0.0
C2266 C 0.42878 0.47701 0.50214 0.0
C2267 C 0.43042 0.4997 0.48904 0.0
C2268 C 0.38661 0.47163 0.4898 0.0
C2269 C 0.40953 0.50786 0.47676 0.0
C2270 C 0.34198 0.46677 0.47951 0.0
C2271 C 0.34101 0.42026 0.50262 0.0
N2272 N 0.38849 0.49384 0.47745 0.0
N2273 N 0.36202 0.43409 0.50097 0.0
H2274 H 0.80602 0.04754 0.51659 0.0
H2275 H 0.94157 0.04419 0.46097 0.0
H2276 H 0.83175 0.08805 0.45281 0.0
H2277 H 0.92312 0.00898 0.53002 0.0
H2278 H 0.89907 0.05438 0.45521 0.0
H2279 H 0.8466 0.02844 0.5201 0.0
C2280 C 0.82011 0.05233 0.50331 0.0
C2281 C 0.81557 0.06965 0.48455 0.0
C2282 C 0.9041 0.04426 0.47161 0.0
C2283 C 0.86164 0.04775 0.48824 0.0
C2284 C 0.92841 0.03834 0.47483 0.0
C2285 C 0.93589 0.02598 0.49612 0.0
C2286 C 0.88692 0.03818 0.49 0.0
C2287 C 0.91804 0.01858 0.51336 0.0
C2288 C 0.84321 0.04143 0.50531 0.0
C2289 C 0.83443 0.07511 0.46779 0.0
N2290 N 0.89433 0.02515 0.51012 0.0
N2291 N 0.85649 0.06427 0.47007 0.0
H2292 H 0.62376 0.06497 0.2289 0.0
H2293 H 0.66779 0.20724 0.26284 0.0
H2294 H 0.64631 0.09272 0.30217 0.0
H2295 H 0.67518 0.17078 0.18999 0.0
H2296 H 0.64304 0.17102 0.27597 0.0
H2297 H 0.62739 0.10844 0.21419 0.0
C2298 C 0.62919 0.08023 0.24202 0.0
C2299 C 0.63523 0.0751 0.26674 0.0
C2300 C 0.64925 0.17143 0.25681 0.0
C2301 C 0.63895 0.12493 0.24997 0.0
C2302 C 0.663 0.19238 0.24912 0.0
C2303 C 0.6737 0.19187 0.22535 0.0
C2304 C 0.64611 0.1501 0.24046 0.0
C2305 C 0.66732 0.17176 0.20853 0.0
C2306 C 0.63114 0.10503 0.23357 0.0
C2307 C 0.64193 0.09572 0.28286 0.0
N2308 N 0.65435 0.15133 0.21657 0.0
N2309 N 0.64382 0.11973 0.27413 0.0
H2310 H 0.6972 0.90957 0.98643 0.0
H2311 H 0.61248 0.02971 0.0077 0.0
H2312 H 0.71195 0.96777 0.04377 0.0
H2313 H 0.59174 0.96202 0.96435 0.0
H2314 H 0.6476 0.00695 0.02374 0.0
H2315 H 0.6576 0.92819 0.97968 0.0
C2316 C 0.69209 0.9263 0.99763 0.0
C2317 C 0.70799 0.9373 0.01552 0.0
C2318 C 0.63504 0.99686 0.0112 0.0
C2319 C 0.66254 0.95881 0.00786 0.0
C2320 C 0.61492 0.00975 0.00232 0.0
C2321 C 0.59916 0.9974 0.98519 0.0
C2322 C 0.6395 0.97174 0.00232 0.0
C2323 C 0.60344 0.97195 0.97785 0.0
C2324 C 0.66937 0.93685 0.99388 0.0
C2325 C 0.70026 0.95879 0.02969 0.0
N2326 N 0.62333 0.96 0.98629 0.0
N2327 N 0.67814 0.96905 0.02537 0.0
H2328 H 0.38057 0.41714 0.22834 0.0
H2329 H 0.27343 0.32043 0.26528 0.0
H2330 H 0.34385 0.42133 0.29962 0.0
H2331 H 0.31008 0.31933 0.19429 0.0
H2332 H 0.30346 0.35238 0.28135 0.0
H2333 H 0.35877 0.37725 0.21822 0.0
C2334 C 0.36793 0.40969 0.24191 0.0
C2335 C 0.36386 0.42288 0.26476 0.0
C2336 C 0.3053 0.34466 0.26245 0.0
C2337 C 0.3387 0.3769 0.25324 0.0
C2338 C 0.28843 0.32617 0.25349 0.0
C2339 C 0.28964 0.31717 0.22864 0.0
C2340 C 0.32322 0.35419 0.24623 0.0
C2341 C 0.30873 0.32579 0.21364 0.0
C2342 C 0.35553 0.38678 0.23616 0.0
C2343 C 0.34744 0.41198 0.28168 0.0
N2344 N 0.32463 0.34398 0.22258 0.0
N2345 N 0.3353 0.38976 0.27549 0.0
H2346 H 0.1595 0.63258 0.97787 0.0
H2347 H 0.09108 0.57073 0.09187 0.0
H2348 H 0.19378 0.59862 0.04054 0.0
H2349 H 0.05553 0.58885 0.02348 0.0
H2350 H 0.12645 0.59608 0.07949 0.0
H2351 H 0.12006 0.62914 -0.00071 0.0
C2352 C 0.15876 0.62458 0.99618 0.0
C2353 C 0.17985 0.6153 0.00719 0.0
C2354 C 0.11062 0.5952 0.0675 0.0
C2355 C 0.13504 0.61189 0.03196 0.0
C2356 C 0.09025 0.58106 0.07478 0.0
C2357 C 0.07061 0.57711 0.05837 0.0
C2358 C 0.11135 0.6052 0.04358 0.0
C2359 C 0.0704 0.59112 0.03656 0.0
C2360 C 0.1363 0.62277 0.00844 0.0
C2361 C 0.17792 0.60544 0.03107 0.0
N2362 N 0.09086 0.60386 0.02934 0.0
N2363 N 0.15592 0.60384 0.04254 0.0
H2364 H 0.71885 0.97361 0.28565 0.0
H2365 H 0.73198 0.84263 0.20978 0.0
H2366 H 0.67939 0.95279 0.21831 0.0
H2367 H 0.76006 0.85966 0.28344 0.0
H2368 H 0.72571 0.88848 0.20464 0.0
H2369 H 0.74693 0.93893 0.27633 0.0
C2370 C 0.7164 0.96222 0.26855 0.0
C2371 C 0.69606 0.9655 0.25329 0.0
C2372 C 0.73404 0.88228 0.22159 0.0
C2373 C 0.72799 0.92546 0.24275 0.0
C2374 C 0.73782 0.85616 0.2244 0.0
C2375 C 0.74638 0.84757 0.24711 0.0
C2376 C 0.73879 0.89964 0.24171 0.0
C2377 C 0.75324 0.86569 0.26573 0.0
C2378 C 0.73245 0.94232 0.26327 0.0
C2379 C 0.69431 0.9505 0.23107 0.0
N2380 N 0.74894 0.89085 0.26279 0.0
N2381 N 0.70964 0.93066 0.22681 0.0
H2382 H 0.81761 0.06166 0.7221 0.0
H2383 H 0.77841 0.20264 0.7647 0.0
H2384 H 0.82518 0.09451 0.7967 0.0
H2385 H 0.73208 0.15657 0.71586 0.0
H2386 H 0.80719 0.1674 0.76553 0.0
H2387 H 0.79544 0.10012 0.71039 0.0
C2388 C 0.81452 0.07683 0.73597 0.0
C2389 C 0.82286 0.07473 0.76051 0.0
C2390 C 0.7911 0.16533 0.75397 0.0
C2391 C 0.7989 0.1188 0.74699 0.0
C2392 C 0.77495 0.18555 0.75315 0.0
C2393 C 0.75323 0.18252 0.73982 0.0
C2394 C 0.78532 0.14199 0.74143 0.0
C2395 C 0.74894 0.1596 0.72602 0.0
C2396 C 0.80209 0.09872 0.72925 0.0
C2397 C 0.81869 0.09506 0.77771 0.0
N2398 N 0.76478 0.13998 0.72734 0.0
N2399 N 0.8072 0.11628 0.77057 0.0
loop_
_geom_bond_atom_site_label_1
_geom_bond_atom_site_label_2
_geom_bond_distance
_geom_bond_site_symmetry_2
_ccdc_geom_bond_type
Mg0 O1 2.028 . S
Mg0 O7 1.986 . S
Mg0 O9 2.114 1_455 S
Mg0 O10 2.251 1_455 S
Mg0 O13 2.010 . S
O1 Mg0 2.028 . S
O1 C4 1.250 . S
O2 Mg3 2.028 . S
O2 C4 1.248 1_655 S
Mg3 O2 2.028 . S
Mg3 O8 2.032 . S
Mg3 O10 2.079 . S
C4 O1 1.250 . S
C4 O2 1.248 1_455 S
C5 O6 1.264 . S
C5 O13 1.249 . S
O6 C5 1.264 . S
O7 Mg0 1.986 . S
O7 C11 1.246 . S
O8 Mg3 2.032 . S
O8 C11 1.259 1_655 S
O9 Mg0 2.114 1_655 S
O9 C12 1.252 . S
O10 Mg0 2.251 1_655 S
O10 Mg3 2.079 . S
O10 C12 1.273 . S
C11 O7 1.246 . S
C11 O8 1.259 1_455 S
C12 O9 1.252 . S
C12 O10 1.273 . S
O13 Mg0 2.010 . S
O13 C5 1.249 . S
Mg14 O15 2.028 . S
Mg14 O21 1.986 . S
Mg14 O23 2.114 1_455 S
Mg14 O24 2.251 1_455 S
Mg14 O27 2.010 . S
O15 Mg14 2.028 . S
O15 C18 1.250 . S
O16 Mg17 2.028 . S
O16 C18 1.248 1_655 S
Mg17 O16 2.028 . S
Mg17 O22 2.032 . S
Mg17 O24 2.079 . S
C18 O15 1.250 . S
C18 O16 1.248 1_455 S
C19 O20 1.264 . S
C19 O27 1.249 . S
O20 C19 1.264 . S
O21 Mg14 1.986 . S
O21 C25 1.246 . S
O22 Mg17 2.032 . S
O22 C25 1.259 1_655 S
O23 Mg14 2.114 1_655 S
O23 C26 1.252 . S
O24 Mg14 2.251 1_655 S
O24 Mg17 2.079 . S
O24 C26 1.273 . S
C25 O21 1.246 . S
C25 O22 1.259 1_455 S
C26 O23 1.252 . S
C26 O24 1.273 . S
O27 Mg14 2.010 . S
O27 C19 1.249 . S
Mg28 O29 2.028 . S
Mg28 O35 1.986 . S
Mg28 O37 2.114 . S
Mg28 O38 2.251 . S
Mg28 O41 2.010 . S
O29 Mg28 2.028 . S
O29 C32 1.250 . S
O30 Mg31 2.028 . S
O30 C32 1.248 . S
Mg31 O30 2.028 . S
Mg31 O36 2.032 . S
Mg31 O38 2.079 . S
C32 O29 1.250 . S
C32 O30 1.248 . S
C33 O34 1.264 . S
C33 O41 1.249 . S
O34 C33 1.264 . S
O35 Mg28 1.986 . S
O35 C39 1.246 . S
O36 Mg31 2.032 . S
O36 C39 1.259 . S
O37 Mg28 2.114 . S
O37 C40 1.252 . S
O38 Mg28 2.251 . S
O38 Mg31 2.079 . S
O38 C40 1.273 . S
C39 O35 1.246 . S
C39 O36 1.259 . S
C40 O37 1.252 . S
C40 O38 1.273 . S
O41 Mg28 2.010 . S
O41 C33 1.249 . S
Mg42 O43 2.028 . S
Mg42 O49 1.986 . S
Mg42 O51 2.114 . S
Mg42 O52 2.251 . S
Mg42 O55 2.010 . S
O43 Mg42 2.028 . S
O43 C46 1.250 . S
O44 Mg45 2.028 . S
O44 C46 1.248 . S
Mg45 O44 2.028 . S
Mg45 O50 2.032 . S
Mg45 O52 2.079 . S
C46 O43 1.250 . S
C46 O44 1.248 . S
C47 O48 1.264 . S
C47 O55 1.249 . S
O48 C47 1.264 . S
O49 Mg42 1.986 . S
O49 C53 1.246 . S
O50 Mg45 2.032 . S
O50 C53 1.259 . S
O51 Mg42 2.114 . S
O51 C54 1.252 . S
O52 Mg42 2.251 . S
O52 Mg45 2.079 . S
O52 C54 1.273 . S
C53 O49 1.246 . S
C53 O50 1.259 . S
C54 O51 1.252 . S
C54 O52 1.273 . S
O55 Mg42 2.010 . S
O55 C47 1.249 . S
Mg56 O57 2.028 1_565 S
Mg56 O63 1.986 . S
Mg56 O65 2.114 1_565 S
Mg56 O66 2.251 . S
Mg56 O69 2.010 . S
O57 Mg56 2.028 1_545 S
O57 C60 1.250 . S
O58 Mg59 2.059 . S
O58 C60 1.248 . S
Mg59 O58 2.059 . S
Mg59 O64 2.005 1_545 S
Mg59 O66 2.076 1_545 S
C60 O57 1.250 . S
C60 O58 1.248 . S
C61 O62 1.264 . S
C61 O69 1.249 . S
O62 C61 1.264 . S
O63 Mg56 1.986 . S
O63 C67 1.246 . S
O64 Mg59 2.005 1_565 S
O64 C67 1.259 . S
O65 Mg56 2.114 1_545 S
O65 C68 1.252 . S
O66 Mg56 2.251 . S
O66 Mg59 2.076 1_565 S
O66 C68 1.273 1_565 S
C67 O63 1.246 . S
C67 O64 1.259 . S
C68 O65 1.252 . S
C68 O66 1.273 1_545 S
O69 Mg56 2.010 . S
O69 C61 1.249 . S
Mg70 O71 2.028 . S
Mg70 O77 1.986 . S
Mg70 O79 2.114 . S
Mg70 O80 2.251 . S
Mg70 O83 2.010 . S
O71 Mg70 2.028 . S
O71 C74 1.250 . S
O72 Mg73 2.028 . S
O72 C74 1.248 . S
Mg73 O72 2.028 . S
Mg73 O78 2.032 . S
Mg73 O80 2.079 . S
C74 O71 1.250 . S
C74 O72 1.248 . S
C75 O76 1.264 . S
C75 O83 1.249 . S
O76 C75 1.264 . S
O77 Mg70 1.986 . S
O77 C81 1.246 . S
O78 Mg73 2.032 . S
O78 C81 1.259 . S
O79 Mg70 2.114 . S
O79 C82 1.252 . S
O80 Mg70 2.251 . S
O80 Mg73 2.079 . S
O80 C82 1.273 . S
C81 O77 1.246 . S
C81 O78 1.259 . S
C82 O79 1.252 . S
C82 O80 1.273 . S
O83 Mg70 2.010 . S
O83 C75 1.249 . S
Mg84 O85 2.028 1_545 S
Mg84 O91 1.986 . S
Mg84 O93 2.114 1_545 S
Mg84 O94 2.251 . S
Mg84 O97 2.010 . S
O85 Mg84 2.028 1_565 S
O85 C88 1.250 . S
O86 Mg87 2.028 1_565 S
O86 C88 1.248 . S
Mg87 O86 2.028 1_545 S
Mg87 O92 2.032 . S
Mg87 O94 2.079 . S
C88 O85 1.250 . S
C88 O86 1.248 . S
C89 O90 1.264 . S
C89 O97 1.249 . S
O90 C89 1.264 . S
O91 Mg84 1.986 . S
O91 C95 1.246 . S
O92 Mg87 2.032 . S
O92 C95 1.259 . S
O93 Mg84 2.114 1_565 S
O93 C96 1.252 1_565 S
O94 Mg84 2.251 . S
O94 Mg87 2.079 . S
O94 C96 1.273 . S
C95 O91 1.246 . S
C95 O92 1.259 . S
C96 O93 1.252 1_545 S
C96 O94 1.273 . S
O97 Mg84 2.010 . S
O97 C89 1.249 . S
Mg98 O99 2.028 1_556 S
Mg98 O105 1.986 . S
Mg98 O107 2.114 1_556 S
Mg98 O108 2.251 1_556 S
Mg98 O111 2.010 . S
O99 Mg98 2.028 1_554 S
O99 C102 1.250 . S
O100 Mg101 2.028 . S
O100 C102 1.248 . S
Mg101 O100 2.028 . S
Mg101 O106 2.032 1_554 S
Mg101 O108 2.079 . S
C102 O99 1.250 . S
C102 O100 1.248 . S
C103 O104 1.240 1_554 S
C103 O111 1.241 1_554 S
O104 C103 1.240 1_556 S
O105 Mg98 1.986 . S
O105 C109 1.246 . S
O106 Mg101 2.032 1_556 S
O106 C109 1.259 . S
O107 Mg98 2.114 1_554 S
O107 C110 1.252 . S
O108 Mg98 2.251 1_554 S
O108 Mg101 2.079 . S
O108 C110 1.273 . S
C109 O105 1.246 . S
C109 O106 1.259 . S
C110 O107 1.252 . S
C110 O108 1.273 . S
O111 Mg98 2.010 . S
O111 C103 1.241 1_556 S
Mg112 O113 2.028 1_554 S
Mg112 O119 1.986 . S
Mg112 O121 2.114 1_554 S
Mg112 O122 2.251 . S
Mg112 O125 2.010 . S
O113 Mg112 2.028 1_556 S
O113 C116 1.250 . S
O114 Mg115 2.028 1_556 S
O114 C116 1.248 . S
Mg115 O114 2.028 1_554 S
Mg115 O120 2.032 . S
Mg115 O122 2.079 . S
C116 O113 1.250 . S
C116 O114 1.248 . S
C117 O118 1.264 . S
C117 O125 1.249 . S
O118 C117 1.264 . S
O119 Mg112 1.986 . S
O119 C123 1.246 . S
O120 Mg115 2.032 . S
O120 C123 1.259 . S
O121 Mg112 2.114 1_556 S
O121 C124 1.252 1_556 S
O122 Mg112 2.251 . S
O122 Mg115 2.079 . S
O122 C124 1.273 . S
C123 O119 1.246 . S
C123 O120 1.259 . S
C124 O121 1.252 1_554 S
C124 O122 1.273 . S
O125 Mg112 2.010 . S
O125 C117 1.249 . S
Mg126 O127 2.028 . S
Mg126 O133 1.986 . S
Mg126 O135 2.114 . S
Mg126 O136 2.251 . S
Mg126 O139 2.010 . S
O127 Mg126 2.028 . S
O127 C130 1.250 . S
O128 Mg129 2.028 . S
O128 C130 1.248 . S
Mg129 O128 2.028 . S
Mg129 O134 2.032 . S
Mg129 O136 2.079 . S
C130 O127 1.250 . S
C130 O128 1.248 . S
C131 O132 1.264 . S
C131 O139 1.249 . S
O132 C131 1.264 . S
O133 Mg126 1.986 . S
O133 C137 1.246 . S
O134 Mg129 2.032 . S
O134 C137 1.259 . S
O135 Mg126 2.114 . S
O135 C138 1.252 . S
O136 Mg126 2.251 . S
O136 Mg129 2.079 . S
O136 C138 1.273 . S
C137 O133 1.246 . S
C137 O134 1.259 . S
C138 O135 1.252 . S
C138 O136 1.273 . S
O139 Mg126 2.010 . S
O139 C131 1.249 . S
Mg140 O141 2.028 . S
Mg140 O147 1.986 . S
Mg140 O149 2.114 . S
Mg140 O150 2.251 . S
Mg140 O153 2.010 . S
O141 Mg140 2.028 . S
O141 C144 1.250 . S
O142 Mg143 2.028 . S
O142 C144 1.248 . S
Mg143 O142 2.028 . S
Mg143 O148 2.032 . S
Mg143 O150 2.079 . S
C144 O141 1.250 . S
C144 O142 1.248 . S
C145 O146 1.264 . S
C145 O153 1.249 . S
O146 C145 1.264 . S
O147 Mg140 1.986 . S
O147 C151 1.246 . S
O148 Mg143 2.032 . S
O148 C151 1.259 . S
O149 Mg140 2.114 . S
O149 C152 1.252 . S
O150 Mg140 2.251 . S
O150 Mg143 2.079 . S
O150 C152 1.273 . S
C151 O147 1.246 . S
C151 O148 1.259 . S
C152 O149 1.252 . S
C152 O150 1.273 . S
O153 Mg140 2.010 . S
O153 C145 1.249 . S
Mg154 O155 2.028 . S
Mg154 O161 1.986 . S
Mg154 O163 2.114 . S
Mg154 O164 2.251 . S
Mg154 O167 2.010 . S
O155 Mg154 2.028 . S
O155 C158 1.250 . S
O156 Mg157 2.028 . S
O156 C158 1.248 . S
Mg157 O156 2.028 . S
Mg157 O162 2.032 . S
Mg157 O164 2.079 . S
C158 O155 1.250 . S
C158 O156 1.248 . S
C159 O160 1.264 . S
C159 O167 1.249 . S
O160 C159 1.264 . S
O161 Mg154 1.986 . S
O161 C165 1.246 . S
O162 Mg157 2.032 . S
O162 C165 1.259 . S
O163 Mg154 2.114 . S
O163 C166 1.252 . S
O164 Mg154 2.251 . S
O164 Mg157 2.079 . S
O164 C166 1.273 . S
C165 O161 1.246 . S
C165 O162 1.259 . S
C166 O163 1.252 . S
C166 O164 1.273 . S
O167 Mg154 2.010 . S
O167 C159 1.249 . S
Mg168 O169 2.028 . S
Mg168 O175 1.986 . S
Mg168 O177 2.114 1_455 S
Mg168 O178 2.251 1_455 S
Mg168 O181 2.010 . S
O169 Mg168 2.028 . S
O169 C172 1.250 . S
O170 Mg171 2.028 . S
O170 C172 1.248 1_655 S
Mg171 O170 2.028 . S
Mg171 O176 2.032 . S
Mg171 O178 2.079 . S
C172 O169 1.250 . S
C172 O170 1.248 1_455 S
C173 O174 1.264 . S
C173 O181 1.249 . S
O174 C173 1.264 . S
O175 Mg168 1.986 . S
O175 C179 1.246 . S
O176 Mg171 2.032 . S
O176 C179 1.259 1_655 S
O177 Mg168 2.114 1_655 S
O177 C180 1.252 . S
O178 Mg168 2.251 1_655 S
O178 Mg171 2.079 . S
O178 C180 1.273 . S
C179 O175 1.246 . S
C179 O176 1.259 1_455 S
C180 O177 1.252 . S
C180 O178 1.273 . S
O181 Mg168 2.010 . S
O181 C173 1.249 . S
Mg182 O183 2.028 . S
Mg182 O189 1.986 . S
Mg182 O191 2.114 1_455 S
Mg182 O192 2.251 1_455 S
Mg182 O195 2.010 . S
O183 Mg182 2.028 . S
O183 C186 1.250 . S
O184 Mg185 2.028 . S
O184 C186 1.248 1_655 S
Mg185 O184 2.028 . S
Mg185 O190 2.032 . S
Mg185 O192 2.079 . S
C186 O183 1.250 . S
C186 O184 1.248 1_455 S
C187 O188 1.264 . S
C187 O195 1.249 . S
O188 C187 1.264 . S
O189 Mg182 1.986 . S
O189 C193 1.246 . S
O190 Mg185 2.032 . S
O190 C193 1.259 1_655 S
O191 Mg182 2.114 1_655 S
O191 C194 1.252 . S
O192 Mg182 2.251 1_655 S
O192 Mg185 2.079 . S
O192 C194 1.273 . S
C193 O189 1.246 . S
C193 O190 1.259 1_455 S
C194 O191 1.252 . S
C194 O192 1.273 . S
O195 Mg182 2.010 . S
O195 C187 1.249 . S
Mg196 O197 2.028 . S
Mg196 O203 1.986 . S
Mg196 O205 2.114 . S
Mg196 O206 2.251 . S
Mg196 O209 2.010 . S
O197 Mg196 2.028 . S
O197 C200 1.250 . S
O198 Mg199 2.028 . S
O198 C200 1.248 . S
Mg199 O198 2.028 . S
Mg199 O204 2.032 . S
Mg199 O206 2.079 . S
C200 O197 1.250 . S
C200 O198 1.248 . S
C201 O202 1.264 . S
C201 O209 1.249 . S
O202 C201 1.264 . S
O203 Mg196 1.986 . S
O203 C207 1.246 . S
O204 Mg199 2.032 . S
O204 C207 1.259 . S
O205 Mg196 2.114 . S
O205 C208 1.252 . S
O206 Mg196 2.251 . S
O206 Mg199 2.079 . S
O206 C208 1.273 . S
C207 O203 1.246 . S
C207 O204 1.259 . S
C208 O205 1.252 . S
C208 O206 1.273 . S
O209 Mg196 2.010 . S
O209 C201 1.249 . S
Mg210 O211 2.028 . S
Mg210 O217 1.986 . S
Mg210 O219 2.114 . S
Mg210 O220 2.251 . S
Mg210 O223 2.010 . S
O211 Mg210 2.028 . S
O211 C214 1.250 . S
O212 Mg213 2.028 . S
O212 C214 1.248 . S
Mg213 O212 2.028 . S
Mg213 O218 2.032 . S
Mg213 O220 2.079 . S
C214 O211 1.250 . S
C214 O212 1.248 . S
C215 O216 1.264 . S
C215 O223 1.249 . S
O216 C215 1.264 . S
O217 Mg210 1.986 . S
O217 C221 1.246 . S
O218 Mg213 2.032 . S
O218 C221 1.259 . S
O219 Mg210 2.114 . S
O219 C222 1.252 . S
O220 Mg210 2.251 . S
O220 Mg213 2.079 . S
O220 C222 1.273 . S
C221 O217 1.246 . S
C221 O218 1.259 . S
C222 O219 1.252 . S
C222 O220 1.273 . S
O223 Mg210 2.010 . S
O223 C215 1.249 . S
Mg224 O225 2.028 1_545 S
Mg224 O231 1.986 . S
Mg224 O233 2.114 1_545 S
Mg224 O234 2.251 . S
Mg224 O237 2.010 . S
O225 Mg224 2.028 1_565 S
O225 C228 1.250 . S
O226 Mg227 2.028 1_565 S
O226 C228 1.248 . S
Mg227 O226 2.028 1_545 S
Mg227 O232 2.032 . S
Mg227 O234 2.079 . S
C228 O225 1.250 . S
C228 O226 1.248 . S
C229 O230 1.264 . S
C229 O237 1.249 . S
O230 C229 1.264 . S
O231 Mg224 1.986 . S
O231 C235 1.246 . S
O232 Mg227 2.032 . S
O232 C235 1.259 . S
O233 Mg224 2.114 1_565 S
O233 C236 1.262 . S
O234 Mg224 2.251 . S
O234 Mg227 2.079 . S
O234 C236 1.258 1_545 S
C235 O231 1.246 . S
C235 O232 1.259 . S
C236 O233 1.262 . S
C236 O234 1.258 1_565 S
O237 Mg224 2.010 . S
O237 C229 1.249 . S
Mg238 O239 2.028 . S
Mg238 O245 1.986 . S
Mg238 O247 2.114 . S
Mg238 O248 2.251 . S
Mg238 O251 2.010 . S
O239 Mg238 2.028 . S
O239 C242 1.250 . S
O240 Mg241 2.028 . S
O240 C242 1.248 . S
Mg241 O240 2.028 . S
Mg241 O246 2.032 . S
Mg241 O248 2.079 . S
C242 O239 1.250 . S
C242 O240 1.248 . S
C243 O244 1.264 . S
C243 O251 1.249 . S
O244 C243 1.264 . S
O245 Mg238 1.986 . S
O245 C249 1.246 . S
O246 Mg241 2.032 . S
O246 C249 1.259 . S
O247 Mg238 2.114 . S
O247 C250 1.252 . S
O248 Mg238 2.251 . S
O248 Mg241 2.079 . S
O248 C250 1.273 . S
C249 O245 1.246 . S
C249 O246 1.259 . S
C250 O247 1.252 . S
C250 O248 1.273 . S
O251 Mg238 2.010 . S
O251 C243 1.249 . S
Mg252 O253 2.028 1_565 S
Mg252 O259 1.986 . S
Mg252 O261 2.114 1_565 S
Mg252 O262 2.251 1_565 S
Mg252 O265 2.010 . S
O253 Mg252 2.028 1_545 S
O253 C256 1.250 . S
O254 Mg255 2.028 . S
O254 C256 1.248 . S
Mg255 O254 2.028 . S
Mg255 O260 2.032 1_545 S
Mg255 O262 2.079 . S
C256 O253 1.250 . S
C256 O254 1.248 . S
C257 O258 1.264 . S
C257 O265 1.249 . S
O258 C257 1.264 . S
O259 Mg252 1.986 . S
O259 C263 1.246 . S
O260 Mg255 2.032 1_565 S
O260 C263 1.259 . S
O261 Mg252 2.114 1_545 S
O261 C264 1.252 . S
O262 Mg252 2.251 1_545 S
O262 Mg255 2.079 . S
O262 C264 1.275 . S
C263 O259 1.246 . S
C263 O260 1.259 . S
C264 O261 1.252 . S
C264 O262 1.275 . S
O265 Mg252 2.010 . S
O265 C257 1.249 . S
Mg266 O267 2.028 1_554 S
Mg266 O273 1.986 . S
Mg266 O275 2.114 . S
Mg266 O276 2.251 . S
Mg266 O279 2.010 . S
O267 Mg266 2.028 1_556 S
O267 C270 1.250 . S
O268 Mg269 2.028 1_556 S
O268 C270 1.248 . S
Mg269 O268 2.028 1_554 S
Mg269 O274 2.032 . S
Mg269 O276 2.079 . S
C270 O267 1.250 . S
C270 O268 1.248 . S
C271 O272 1.264 . S
C271 O279 1.249 . S
O272 C271 1.264 . S
O273 Mg266 1.986 . S
O273 C277 1.246 . S
O274 Mg269 2.032 . S
O274 C277 1.259 . S
O275 Mg266 2.114 . S
O275 C278 1.252 . S
O276 Mg266 2.251 . S
O276 Mg269 2.079 . S
O276 C278 1.273 . S
C277 O273 1.246 . S
C277 O274 1.259 . S
C278 O275 1.252 . S
C278 O276 1.273 . S
O279 Mg266 2.010 . S
O279 C271 1.249 . S
Mg280 O281 2.028 1_556 S
Mg280 O287 1.986 . S
Mg280 O289 2.114 1_556 S
Mg280 O290 2.251 . S
Mg280 O293 2.010 . S
O281 Mg280 2.028 1_554 S
O281 C284 1.250 . S
O282 Mg283 2.028 . S
O282 C284 1.248 . S
Mg283 O282 2.028 . S
Mg283 O288 2.032 1_554 S
Mg283 O290 2.079 1_554 S
C284 O281 1.250 . S
C284 O282 1.248 . S
C285 O286 1.264 . S
C285 O293 1.249 . S
O286 C285 1.264 . S
O287 Mg280 1.986 . S
O287 C291 1.246 . S
O288 Mg283 2.032 1_556 S
O288 C291 1.259 . S
O289 Mg280 2.114 1_554 S
O289 C292 1.252 . S
O290 Mg280 2.251 . S
O290 Mg283 2.079 1_556 S
O290 C292 1.273 1_556 S
C291 O287 1.246 . S
C291 O288 1.259 . S
C292 O289 1.252 . S
C292 O290 1.273 1_554 S
O293 Mg280 2.010 . S
O293 C285 1.249 . S
Mg294 O295 2.028 . S
Mg294 O301 1.986 . S
Mg294 O303 2.114 . S
Mg294 O304 2.251 . S
Mg294 O307 2.010 . S
O295 Mg294 2.028 . S
O295 C298 1.250 . S
O296 Mg297 2.028 . S
O296 C298 1.248 . S
Mg297 O296 2.028 . S
Mg297 O302 2.032 . S
Mg297 O304 2.079 . S
C298 O295 1.250 . S
C298 O296 1.248 . S
C299 O300 1.264 . S
C299 O307 1.249 . S
O300 C299 1.264 . S
O301 Mg294 1.986 . S
O301 C305 1.246 . S
O302 Mg297 2.032 . S
O302 C305 1.259 . S
O303 Mg294 2.114 . S
O303 C306 1.252 . S
O304 Mg294 2.251 . S
O304 Mg297 2.079 . S
O304 C306 1.273 . S
C305 O301 1.246 . S
C305 O302 1.259 . S
C306 O303 1.252 . S
C306 O304 1.273 . S
O307 Mg294 2.010 . S
O307 C299 1.249 . S
Mg308 O309 2.028 . S
Mg308 O315 1.986 . S
Mg308 O317 2.114 . S
Mg308 O318 2.251 . S
Mg308 O321 2.010 . S
O309 Mg308 2.028 . S
O309 C312 1.250 . S
O310 Mg311 2.028 . S
O310 C312 1.248 . S
Mg311 O310 2.028 . S
Mg311 O316 2.032 . S
Mg311 O318 2.079 . S
C312 O309 1.250 . S
C312 O310 1.248 . S
C313 O314 1.264 . S
C313 O321 1.249 . S
O314 C313 1.264 . S
O315 Mg308 1.986 . S
O315 C319 1.246 . S
O316 Mg311 2.032 . S
O316 C319 1.259 . S
O317 Mg308 2.114 . S
O317 C320 1.252 . S
O318 Mg308 2.251 . S
O318 Mg311 2.079 . S
O318 C320 1.273 . S
C319 O315 1.246 . S
C319 O316 1.259 . S
C320 O317 1.252 . S
C320 O318 1.273 . S
O321 Mg308 2.010 . S
O321 C313 1.249 . S
Mg322 O323 2.028 . S
Mg322 O329 1.986 . S
Mg322 O331 2.114 . S
Mg322 O332 2.251 . S
Mg322 O335 2.010 . S
O323 Mg322 2.028 . S
O323 C326 1.250 . S
O324 Mg325 2.028 . S
O324 C326 1.248 . S
Mg325 O324 2.028 . S
Mg325 O330 2.032 . S
Mg325 O332 2.079 . S
C326 O323 1.250 . S
C326 O324 1.248 . S
C327 O328 1.264 . S
C327 O335 1.249 . S
O328 C327 1.264 . S
O329 Mg322 1.986 . S
O329 C333 1.246 . S
O330 Mg325 2.032 . S
O330 C333 1.259 . S
O331 Mg322 2.114 . S
O331 C334 1.252 . S
O332 Mg322 2.251 . S
O332 Mg325 2.079 . S
O332 C334 1.273 . S
C333 O329 1.246 . S
C333 O330 1.259 . S
C334 O331 1.252 . S
C334 O332 1.273 . S
O335 Mg322 2.010 . S
O335 C327 1.249 . S
O336 Mn337 2.163 . S
O336 C350 1.244 . S
Mn337 O336 2.163 . S
Mn337 O340 2.160 1_445 S
Mn337 O341 2.221 1_455 S
Mn337 O343 2.163 1_454 S
Mn337 O345 2.160 1_545 S
Mn337 O355 2.227 1_545 S
O338 Mn339 2.087 1_556 S
O338 C350 1.256 1_566 S
Mn339 O338 2.087 1_554 S
Mn339 O346 2.089 . S
Mn339 O355 2.301 . S
Mn339 O356 2.251 1_554 S
O340 Mn337 2.160 1_665 S
O340 C351 1.239 . S
O341 Mn337 2.221 1_655 S
O341 Mn342 2.298 . S
O341 C352 1.278 . S
Mn342 O341 2.298 . S
Mn342 O344 2.091 . S
Mn342 O347 2.254 . S
Mn342 O348 2.074 1_554 S
O343 Mn337 2.163 1_656 S
O343 C353 1.244 . S
O344 Mn342 2.091 . S
O344 C351 1.256 1_545 S
O345 Mn337 2.160 1_565 S
O345 C354 1.239 . S
O346 Mn339 2.089 . S
O346 C354 1.256 . S
O347 Mn342 2.254 . S
O347 C352 1.241 . S
O348 Mn342 2.074 1_556 S
O348 C353 1.256 . S
C349 O355 1.255 1_556 S
C349 O356 1.241 . S
C350 O336 1.244 . S
C350 O338 1.256 1_544 S
C351 O340 1.239 . S
C351 O344 1.256 1_565 S
C352 O341 1.278 . S
C352 O347 1.241 . S
C353 O343 1.244 . S
C353 O348 1.256 . S
C354 O345 1.239 . S
C354 O346 1.256 . S
O355 Mn337 2.227 1_565 S
O355 Mn339 2.301 . S
O355 C349 1.255 1_554 S
O356 Mn339 2.251 1_556 S
O356 C349 1.241 . S
O357 Mn358 2.163 . S
O357 C371 1.244 . S
Mn358 O357 2.163 . S
Mn358 O361 2.160 . S
Mn358 O362 2.221 . S
Mn358 O364 2.163 . S
Mn358 O366 2.160 . S
Mn358 O376 2.221 . S
O359 Mn360 2.087 . S
O359 C371 1.256 . S
Mn360 O359 2.087 . S
Mn360 O367 2.089 . S
Mn360 O376 2.290 . S
Mn360 O377 2.251 . S
O361 Mn358 2.160 . S
O361 C372 1.239 . S
O362 Mn358 2.221 . S
O362 Mn363 2.290 . S
O362 C373 1.278 . S
Mn363 O362 2.290 . S
Mn363 O365 2.089 . S
Mn363 O368 2.251 . S
Mn363 O369 2.087 . S
O364 Mn358 2.163 . S
O364 C374 1.244 . S
O365 Mn363 2.089 . S
O365 C372 1.256 . S
O366 Mn358 2.160 . S
O366 C375 1.239 . S
O367 Mn360 2.089 . S
O367 C375 1.256 . S
O368 Mn363 2.251 . S
O368 C373 1.241 . S
O369 Mn363 2.087 . S
O369 C374 1.256 . S
C370 O376 1.278 . S
C370 O377 1.241 . S
C371 O357 1.244 . S
C371 O359 1.256 . S
C372 O361 1.239 . S
C372 O365 1.256 . S
C373 O362 1.278 . S
C373 O368 1.241 . S
C374 O364 1.244 . S
C374 O369 1.256 . S
C375 O366 1.239 . S
C375 O367 1.256 . S
O376 Mn358 2.221 . S
O376 Mn360 2.290 . S
O376 C370 1.278 . S
O377 Mn360 2.251 . S
O377 C370 1.241 . S
O378 Mn379 2.163 1_565 S
O378 C392 1.244 . S
Mn379 O378 2.163 1_545 S
Mn379 O382 2.160 . S
Mn379 O383 2.221 1_545 S
Mn379 O385 2.163 . S
Mn379 O387 2.160 . S
Mn379 O397 2.221 . S
O380 Mn381 2.087 . S
O380 C392 1.256 1_545 S
Mn381 O380 2.087 . S
Mn381 O388 2.089 . S
Mn381 O397 2.290 . S
Mn381 O398 2.251 . S
O382 Mn379 2.160 . S
O382 C393 1.239 . S
O383 Mn379 2.221 1_565 S
O383 Mn384 2.290 . S
O383 C394 1.278 . S
Mn384 O383 2.290 . S
Mn384 O386 2.089 1_565 S
Mn384 O389 2.251 . S
Mn384 O390 2.087 . S
O385 Mn379 2.163 . S
O385 C395 1.244 1_545 S
O386 Mn384 2.089 1_545 S
O386 C393 1.256 . S
O387 Mn379 2.160 . S
O387 C396 1.239 . S
O388 Mn381 2.089 . S
O388 C396 1.256 . S
O389 Mn384 2.251 . S
O389 C394 1.241 . S
O390 Mn384 2.087 . S
O390 C395 1.256 . S
C391 O397 1.278 . S
C391 O398 1.241 . S
C392 O378 1.244 . S
C392 O380 1.256 1_565 S
C393 O382 1.239 . S
C393 O386 1.256 . S
C394 O383 1.278 . S
C394 O389 1.241 . S
C395 O385 1.244 1_565 S
C395 O390 1.256 . S
C396 O387 1.239 . S
C396 O388 1.256 . S
O397 Mn379 2.221 . S
O397 Mn381 2.290 . S
O397 C391 1.278 . S
O398 Mn381 2.251 . S
O398 C391 1.241 . S
O399 Mn400 2.163 . S
O399 C413 1.244 . S
Mn400 O399 2.163 . S
Mn400 O403 2.160 . S
Mn400 O404 2.221 . S
Mn400 O406 2.163 . S
Mn400 O408 2.160 . S
Mn400 O418 2.221 . S
O401 Mn402 2.087 . S
O401 C413 1.256 . S
Mn402 O401 2.087 . S
Mn402 O409 2.089 . S
Mn402 O418 2.290 . S
Mn402 O419 2.251 . S
O403 Mn400 2.160 . S
O403 C414 1.239 . S
O404 Mn400 2.221 . S
O404 Mn405 2.290 . S
O404 C415 1.278 . S
Mn405 O404 2.290 . S
Mn405 O407 2.089 . S
Mn405 O410 2.251 . S
Mn405 O411 2.087 . S
O406 Mn400 2.163 . S
O406 C416 1.244 . S
O407 Mn405 2.089 . S
O407 C414 1.256 . S
O408 Mn400 2.160 . S
O408 C417 1.239 . S
O409 Mn402 2.089 . S
O409 C417 1.256 . S
O410 Mn405 2.251 . S
O410 C415 1.241 . S
O411 Mn405 2.087 . S
O411 C416 1.256 . S
C412 O418 1.278 . S
C412 O419 1.241 . S
C413 O399 1.244 . S
C413 O401 1.256 . S
C414 O403 1.239 . S
C414 O407 1.256 . S
C415 O404 1.278 . S
C415 O410 1.241 . S
C416 O406 1.244 . S
C416 O411 1.256 . S
C417 O408 1.239 . S
C417 O409 1.256 . S
O418 Mn400 2.221 . S
O418 Mn402 2.290 . S
O418 C412 1.278 . S
O419 Mn402 2.251 . S
O419 C412 1.241 . S
O420 Mn421 2.163 1_565 S
O420 C434 1.244 . S
Mn421 O420 2.163 1_545 S
Mn421 O424 2.160 . S
Mn421 O425 2.221 . S
Mn421 O427 2.163 1_455 S
Mn421 O429 2.160 1_545 S
Mn421 O439 2.221 1_545 S
O422 Mn423 2.087 . S
O422 C434 1.256 . S
Mn423 O422 2.087 . S
Mn423 O430 2.089 . S
Mn423 O439 2.290 . S
Mn423 O440 2.251 1_455 S
O424 Mn421 2.160 . S
O424 C435 1.239 . S
O425 Mn421 2.221 . S
O425 Mn426 2.290 . S
O425 C436 1.278 . S
Mn426 O425 2.290 . S
Mn426 O428 2.089 . S
Mn426 O431 2.251 . S
Mn426 O432 2.087 1_455 S
O427 Mn421 2.163 1_655 S
O427 C437 1.244 . S
O428 Mn426 2.089 . S
O428 C435 1.256 . S
O429 Mn421 2.160 1_565 S
O429 C438 1.239 . S
O430 Mn423 2.089 . S
O430 C438 1.256 . S
O431 Mn426 2.251 . S
O431 C436 1.241 . S
O432 Mn426 2.087 1_655 S
O432 C437 1.256 . S
C433 O439 1.278 1_655 S
C433 O440 1.241 . S
C434 O420 1.244 . S
C434 O422 1.256 . S
C435 O424 1.239 . S
C435 O428 1.256 . S
C436 O425 1.278 . S
C436 O431 1.241 . S
C437 O427 1.244 . S
C437 O432 1.256 . S
C438 O429 1.239 . S
C438 O430 1.256 . S
O439 Mn421 2.221 1_565 S
O439 Mn423 2.290 . S
O439 C433 1.278 1_455 S
O440 Mn423 2.251 1_655 S
O440 C433 1.241 . S
O441 Mn442 2.163 . S
O441 C455 1.244 . S
Mn442 O441 2.163 . S
Mn442 O445 2.160 . S
Mn442 O446 2.221 . S
Mn442 O448 2.163 . S
Mn442 O450 2.160 . S
Mn442 O460 2.221 . S
O443 Mn444 2.087 . S
O443 C455 1.256 . S
Mn444 O443 2.087 . S
Mn444 O451 2.089 . S
Mn444 O460 2.290 . S
Mn444 O461 2.251 . S
O445 Mn442 2.160 . S
O445 C456 1.239 . S
O446 Mn442 2.221 . S
O446 Mn447 2.290 . S
O446 C457 1.278 . S
Mn447 O446 2.290 . S
Mn447 O449 2.089 . S
Mn447 O452 2.251 . S
Mn447 O453 2.087 . S
O448 Mn442 2.163 . S
O448 C458 1.244 . S
O449 Mn447 2.089 . S
O449 C456 1.256 . S
O450 Mn442 2.160 . S
O450 C459 1.239 . S
O451 Mn444 2.089 . S
O451 C459 1.256 . S
O452 Mn447 2.251 . S
O452 C457 1.241 . S
O453 Mn447 2.087 . S
O453 C458 1.256 . S
C454 O460 1.278 . S
C454 O461 1.241 . S
C455 O441 1.244 . S
C455 O443 1.256 . S
C456 O445 1.239 . S
C456 O449 1.256 . S
C457 O446 1.278 . S
C457 O452 1.241 . S
C458 O448 1.244 . S
C458 O453 1.256 . S
C459 O450 1.239 . S
C459 O451 1.256 . S
O460 Mn442 2.221 . S
O460 Mn444 2.290 . S
O460 C454 1.278 . S
O461 Mn444 2.251 . S
O461 C454 1.241 . S
O462 Mn463 2.163 1_556 S
O462 C476 1.244 1_545 S
Mn463 O462 2.163 1_554 S
Mn463 O466 2.160 . S
Mn463 O467 2.221 . S
Mn463 O469 2.163 1_545 S
Mn463 O471 2.160 1_554 S
Mn463 O481 2.220 1_544 S
O464 Mn465 2.087 1_565 S
O464 C476 1.256 . S
Mn465 O464 2.087 1_545 S
Mn465 O472 2.089 . S
Mn465 O481 2.287 1_545 S
Mn465 O482 2.251 1_545 S
O466 Mn463 2.160 . S
O466 C477 1.239 . S
O467 Mn463 2.221 . S
O467 Mn468 2.290 1_545 S
O467 C478 1.278 . S
Mn468 O467 2.290 1_565 S
Mn468 O470 2.089 1_565 S
Mn468 O473 2.251 1_565 S
Mn468 O474 2.087 . S
O469 Mn463 2.163 1_565 S
O469 C479 1.244 . S
O470 Mn468 2.089 1_545 S
O470 C477 1.256 . S
O471 Mn463 2.160 1_556 S
O471 C480 1.239 . S
O472 Mn465 2.089 . S
O472 C480 1.256 . S
O473 Mn468 2.251 1_545 S
O473 C478 1.241 . S
O474 Mn468 2.087 . S
O474 C479 1.256 . S
C475 O481 1.284 . S
C475 O482 1.241 . S
C476 O462 1.244 1_565 S
C476 O464 1.256 . S
C477 O466 1.239 . S
C477 O470 1.256 . S
C478 O467 1.278 . S
C478 O473 1.241 . S
C479 O469 1.244 . S
C479 O474 1.256 . S
C480 O471 1.239 . S
C480 O472 1.256 . S
O481 Mn463 2.220 1_566 S
O481 Mn465 2.287 1_565 S
O481 C475 1.284 . S
O482 Mn465 2.251 1_565 S
O482 C475 1.241 . S
O483 Mn484 2.163 . S
O483 C497 1.244 . S
Mn484 O483 2.163 . S
Mn484 O487 2.160 . S
Mn484 O488 2.221 . S
Mn484 O490 2.163 . S
Mn484 O492 2.160 . S
Mn484 O502 2.221 . S
O485 Mn486 2.087 . S
O485 C497 1.256 . S
Mn486 O485 2.087 . S
Mn486 O493 2.089 . S
Mn486 O502 2.290 . S
Mn486 O503 2.251 . S
O487 Mn484 2.160 . S
O487 C498 1.239 . S
O488 Mn484 2.221 . S
O488 Mn489 2.290 . S
O488 C499 1.278 . S
Mn489 O488 2.290 . S
Mn489 O491 2.089 . S
Mn489 O494 2.251 . S
Mn489 O495 2.087 . S
O490 Mn484 2.163 . S
O490 C500 1.244 . S
O491 Mn489 2.089 . S
O491 C498 1.256 . S
O492 Mn484 2.160 . S
O492 C501 1.239 . S
O493 Mn486 2.089 . S
O493 C501 1.256 . S
O494 Mn489 2.251 . S
O494 C499 1.241 . S
O495 Mn489 2.087 . S
O495 C500 1.256 . S
C496 O502 1.278 . S
C496 O503 1.241 . S
C497 O483 1.244 . S
C497 O485 1.256 . S
C498 O487 1.239 . S
C498 O491 1.256 . S
C499 O488 1.278 . S
C499 O494 1.241 . S
C500 O490 1.244 . S
C500 O495 1.256 . S
C501 O492 1.239 . S
C501 O493 1.256 . S
O502 Mn484 2.221 . S
O502 Mn486 2.290 . S
O502 C496 1.278 . S
O503 Mn486 2.251 . S
O503 C496 1.241 . S
O504 Mn505 2.163 1_556 S
O504 C518 1.244 . S
Mn505 O504 2.163 1_554 S
Mn505 O508 2.160 . S
Mn505 O509 2.221 1_554 S
Mn505 O511 2.163 . S
Mn505 O513 2.160 . S
Mn505 O523 2.221 . S
O506 Mn507 2.087 . S
O506 C518 1.256 1_554 S
Mn507 O506 2.087 . S
Mn507 O514 2.089 . S
Mn507 O523 2.290 . S
Mn507 O524 2.251 . S
O508 Mn505 2.160 . S
O508 C519 1.239 . S
O509 Mn505 2.221 1_556 S
O509 Mn510 2.290 . S
O509 C520 1.278 . S
Mn510 O509 2.290 . S
Mn510 O512 2.089 1_556 S
Mn510 O515 2.251 . S
Mn510 O516 2.087 . S
O511 Mn505 2.163 . S
O511 C521 1.244 1_554 S
O512 Mn510 2.089 1_554 S
O512 C519 1.256 . S
O513 Mn505 2.160 . S
O513 C522 1.239 . S
O514 Mn507 2.089 . S
O514 C522 1.256 . S
O515 Mn510 2.251 . S
O515 C520 1.241 . S
O516 Mn510 2.087 . S
O516 C521 1.256 . S
C517 O523 1.278 . S
C517 O524 1.241 . S
C518 O504 1.244 . S
C518 O506 1.256 1_556 S
C519 O508 1.239 . S
C519 O512 1.256 . S
C520 O509 1.278 . S
C520 O515 1.241 . S
C521 O511 1.244 1_556 S
C521 O516 1.256 . S
C522 O513 1.239 . S
C522 O514 1.256 . S
O523 Mn505 2.221 . S
O523 Mn507 2.290 . S
O523 C517 1.278 . S
O524 Mn507 2.251 . S
O524 C517 1.241 . S
O525 Mn526 2.163 . S
O525 C539 1.244 . S
Mn526 O525 2.163 . S
Mn526 O529 2.160 . S
Mn526 O530 2.221 . S
Mn526 O532 2.163 . S
Mn526 O534 2.160 . S
Mn526 O544 2.221 . S
O527 Mn528 2.087 . S
O527 C539 1.256 . S
Mn528 O527 2.087 . S
Mn528 O535 2.089 . S
Mn528 O544 2.290 . S
Mn528 O545 2.251 . S
O529 Mn526 2.160 . S
O529 C540 1.239 . S
O530 Mn526 2.221 . S
O530 Mn531 2.290 . S
O530 C541 1.278 . S
Mn531 O530 2.290 . S
Mn531 O533 2.089 . S
Mn531 O536 2.251 . S
Mn531 O537 2.087 . S
O532 Mn526 2.163 . S
O532 C542 1.244 . S
O533 Mn531 2.089 . S
O533 C540 1.256 . S
O534 Mn526 2.160 . S
O534 C543 1.239 . S
O535 Mn528 2.089 . S
O535 C543 1.256 . S
O536 Mn531 2.251 . S
O536 C541 1.241 . S
O537 Mn531 2.087 . S
O537 C542 1.256 . S
C538 O544 1.278 . S
C538 O545 1.241 . S
C539 O525 1.244 . S
C539 O527 1.256 . S
C540 O529 1.239 . S
C540 O533 1.256 . S
C541 O530 1.278 . S
C541 O536 1.241 . S
C542 O532 1.244 . S
C542 O537 1.256 . S
C543 O534 1.239 . S
C543 O535 1.256 . S
O544 Mn526 2.221 . S
O544 Mn528 2.290 . S
O544 C538 1.278 . S
O545 Mn528 2.251 . S
O545 C538 1.241 . S
O546 Mn547 2.163 1_655 S
O546 C560 1.244 . S
Mn547 O546 2.163 1_455 S
Mn547 O550 2.160 . S
Mn547 O551 2.221 1_455 S
Mn547 O553 2.163 . S
Mn547 O555 2.160 . S
Mn547 O565 2.221 . S
O548 Mn549 2.087 . S
O548 C560 1.256 1_455 S
Mn549 O548 2.087 . S
Mn549 O556 2.089 . S
Mn549 O565 2.290 . S
Mn549 O566 2.251 . S
O550 Mn547 2.160 . S
O550 C561 1.239 . S
O551 Mn547 2.221 1_655 S
O551 Mn552 2.290 . S
O551 C562 1.278 . S
Mn552 O551 2.290 . S
Mn552 O554 2.091 . S
Mn552 O557 2.251 . S
Mn552 O558 2.087 . S
O553 Mn547 2.163 . S
O553 C563 1.244 1_455 S
O554 Mn552 2.091 . S
O554 C561 1.254 1_655 S
O555 Mn547 2.160 . S
O555 C564 1.239 . S
O556 Mn549 2.089 . S
O556 C564 1.256 . S
O557 Mn552 2.251 . S
O557 C562 1.241 . S
O558 Mn552 2.087 . S
O558 C563 1.256 . S
C559 O565 1.278 . S
C559 O566 1.241 . S
C560 O546 1.244 . S
C560 O548 1.256 1_655 S
C561 O550 1.239 . S
C561 O554 1.254 1_455 S
C562 O551 1.278 . S
C562 O557 1.241 . S
C563 O553 1.244 1_655 S
C563 O558 1.256 . S
C564 O555 1.239 . S
C564 O556 1.256 . S
O565 Mn547 2.221 . S
O565 Mn549 2.290 . S
O565 C559 1.278 . S
O566 Mn549 2.251 . S
O566 C559 1.241 . S
O567 Mn568 2.163 . S
O567 C581 1.244 . S
Mn568 O567 2.163 . S
Mn568 O571 2.160 . S
Mn568 O572 2.221 . S
Mn568 O574 2.163 . S
Mn568 O576 2.160 . S
Mn568 O586 2.221 . S
O569 Mn570 2.087 . S
O569 C581 1.256 . S
Mn570 O569 2.087 . S
Mn570 O577 2.089 . S
Mn570 O586 2.290 . S
Mn570 O587 2.251 . S
O571 Mn568 2.160 . S
O571 C582 1.239 . S
O572 Mn568 2.221 . S
O572 Mn573 2.290 . S
O572 C583 1.278 . S
Mn573 O572 2.290 . S
Mn573 O575 2.089 . S
Mn573 O578 2.251 . S
Mn573 O579 2.087 . S
O574 Mn568 2.163 . S
O574 C584 1.244 . S
O575 Mn573 2.089 . S
O575 C582 1.256 . S
O576 Mn568 2.160 . S
O576 C585 1.239 . S
O577 Mn570 2.089 . S
O577 C585 1.256 . S
O578 Mn573 2.251 . S
O578 C583 1.241 . S
O579 Mn573 2.087 . S
O579 C584 1.256 . S
C580 O586 1.278 . S
C580 O587 1.241 . S
C581 O567 1.244 . S
C581 O569 1.256 . S
C582 O571 1.239 . S
C582 O575 1.256 . S
C583 O572 1.278 . S
C583 O578 1.241 . S
C584 O574 1.244 . S
C584 O579 1.256 . S
C585 O576 1.239 . S
C585 O577 1.256 . S
O586 Mn568 2.221 . S
O586 Mn570 2.290 . S
O586 C580 1.278 . S
O587 Mn570 2.251 . S
O587 C580 1.241 . S
O588 Mn589 2.163 . S
O588 C602 1.244 . S
Mn589 O588 2.163 . S
Mn589 O592 2.160 . S
Mn589 O593 2.221 . S
Mn589 O595 2.163 . S
Mn589 O597 2.160 . S
Mn589 O607 2.221 . S
O590 Mn591 2.087 . S
O590 C602 1.256 . S
Mn591 O590 2.087 . S
Mn591 O598 2.089 . S
Mn591 O607 2.290 . S
Mn591 O608 2.251 . S
O592 Mn589 2.160 . S
O592 C603 1.239 . S
O593 Mn589 2.221 . S
O593 Mn594 2.290 . S
O593 C604 1.278 . S
Mn594 O593 2.290 . S
Mn594 O596 2.089 . S
Mn594 O599 2.251 . S
Mn594 O600 2.087 . S
O595 Mn589 2.163 . S
O595 C605 1.244 . S
O596 Mn594 2.089 . S
O596 C603 1.256 . S
O597 Mn589 2.160 . S
O597 C606 1.239 . S
O598 Mn591 2.089 . S
O598 C606 1.256 . S
O599 Mn594 2.251 . S
O599 C604 1.241 . S
O600 Mn594 2.087 . S
O600 C605 1.256 . S
C601 O607 1.278 . S
C601 O608 1.241 . S
C602 O588 1.244 . S
C602 O590 1.256 . S
C603 O592 1.239 . S
C603 O596 1.256 . S
C604 O593 1.278 . S
C604 O599 1.241 . S
C605 O595 1.244 . S
C605 O600 1.256 . S
C606 O597 1.239 . S
C606 O598 1.256 . S
O607 Mn589 2.221 . S
O607 Mn591 2.290 . S
O607 C601 1.278 . S
O608 Mn591 2.251 . S
O608 C601 1.241 . S
O609 Mn610 2.163 . S
O609 C623 1.244 . S
Mn610 O609 2.163 . S
Mn610 O613 2.160 . S
Mn610 O614 2.221 . S
Mn610 O616 2.163 . S
Mn610 O618 2.160 . S
Mn610 O628 2.221 . S
O611 Mn612 2.087 . S
O611 C623 1.256 . S
Mn612 O611 2.087 . S
Mn612 O619 2.089 . S
Mn612 O628 2.290 . S
Mn612 O629 2.251 . S
O613 Mn610 2.160 . S
O613 C624 1.239 . S
O614 Mn610 2.221 . S
O614 Mn615 2.290 . S
O614 C625 1.278 . S
Mn615 O614 2.290 . S
Mn615 O617 2.089 . S
Mn615 O620 2.251 . S
Mn615 O621 2.087 . S
O616 Mn610 2.163 . S
O616 C626 1.244 . S
O617 Mn615 2.089 . S
O617 C624 1.256 . S
O618 Mn610 2.160 . S
O618 C627 1.239 . S
O619 Mn612 2.089 . S
O619 C627 1.256 . S
O620 Mn615 2.251 . S
O620 C625 1.241 . S
O621 Mn615 2.087 . S
O621 C626 1.256 . S
C622 O628 1.278 . S
C622 O629 1.241 . S
C623 O609 1.244 . S
C623 O611 1.256 . S
C624 O613 1.239 . S
C624 O617 1.256 . S
C625 O614 1.278 . S
C625 O620 1.241 . S
C626 O616 1.244 . S
C626 O621 1.256 . S
C627 O618 1.239 . S
C627 O619 1.256 . S
O628 Mn610 2.221 . S
O628 Mn612 2.290 . S
O628 C622 1.278 . S
O629 Mn612 2.251 . S
O629 C622 1.241 . S
O630 Mn631 2.163 . S
O630 C644 1.244 . S
Mn631 O630 2.163 . S
Mn631 O634 2.160 . S
Mn631 O635 2.221 . S
Mn631 O637 2.163 . S
Mn631 O639 2.160 . S
Mn631 O649 2.221 . S
O632 Mn633 2.087 . S
O632 C644 1.256 . S
Mn633 O632 2.087 . S
Mn633 O640 2.089 . S
Mn633 O649 2.290 . S
Mn633 O650 2.251 . S
O634 Mn631 2.160 . S
O634 C645 1.239 . S
O635 Mn631 2.221 . S
O635 Mn636 2.290 . S
O635 C646 1.278 . S
Mn636 O635 2.290 . S
Mn636 O638 2.089 . S
Mn636 O641 2.251 . S
Mn636 O642 2.087 . S
O637 Mn631 2.163 . S
O637 C647 1.244 . S
O638 Mn636 2.089 . S
O638 C645 1.256 . S
O639 Mn631 2.160 . S
O639 C648 1.239 . S
O640 Mn633 2.089 . S
O640 C648 1.256 . S
O641 Mn636 2.251 . S
O641 C646 1.241 . S
O642 Mn636 2.087 . S
O642 C647 1.256 . S
C643 O649 1.278 . S
C643 O650 1.241 . S
C644 O630 1.244 . S
C644 O632 1.256 . S
C645 O634 1.239 . S
C645 O638 1.256 . S
C646 O635 1.278 . S
C646 O641 1.241 . S
C647 O637 1.244 . S
C647 O642 1.256 . S
C648 O639 1.239 . S
C648 O640 1.256 . S
O649 Mn631 2.221 . S
O649 Mn633 2.290 . S
O649 C643 1.278 . S
O650 Mn633 2.251 . S
O650 C643 1.241 . S
O651 Mn652 2.163 1_656 S
O651 C665 1.244 . S
Mn652 O651 2.163 1_454 S
Mn652 O655 2.160 . S
Mn652 O656 2.221 . S
Mn652 O658 2.163 1_554 S
Mn652 O660 2.160 1_455 S
Mn652 O670 2.221 1_454 S
O653 Mn654 2.087 1_556 S
O653 C665 1.256 . S
Mn654 O653 2.087 1_554 S
Mn654 O661 2.089 . S
Mn654 O670 2.290 1_554 S
Mn654 O671 2.251 1_554 S
O655 Mn652 2.160 . S
O655 C666 1.239 . S
O656 Mn652 2.221 . S
O656 Mn657 2.290 1_554 S
O656 C667 1.278 . S
Mn657 O656 2.290 1_556 S
Mn657 O659 2.089 1_556 S
Mn657 O662 2.251 1_556 S
Mn657 O663 2.087 . S
O658 Mn652 2.163 1_556 S
O658 C668 1.244 . S
O659 Mn657 2.089 1_554 S
O659 C666 1.254 . S
O660 Mn652 2.160 1_655 S
O660 C669 1.239 . S
O661 Mn654 2.089 . S
O661 C669 1.256 . S
O662 Mn657 2.251 1_554 S
O662 C667 1.241 . S
O663 Mn657 2.087 . S
O663 C668 1.256 . S
C664 O670 1.278 . S
C664 O671 1.241 . S
C665 O651 1.244 . S
C665 O653 1.256 . S
C666 O655 1.239 . S
C666 O659 1.254 . S
C667 O656 1.278 . S
C667 O662 1.241 . S
C668 O658 1.244 . S
C668 O663 1.256 . S
C669 O660 1.239 . S
C669 O661 1.256 . S
O670 Mn652 2.221 1_656 S
O670 Mn654 2.290 1_556 S
O670 C664 1.278 . S
O671 Mn654 2.251 1_556 S
O671 C664 1.241 . S
H672 C678 0.930 . S
H673 C682 0.930 . S
H674 C687 0.929 . S
H675 C685 0.929 . S
H676 C680 0.929 . S
H677 C686 0.929 . S
C678 H672 0.930 . S
C678 C679 1.367 1_655 S
C678 C686 1.378 . S
C679 C678 1.367 1_455 S
C679 C687 1.433 . S
C680 H676 0.929 . S
C680 C682 1.378 . S
C680 C684 1.350 . S
C681 C684 1.463 . S
C681 C686 1.350 1_455 S
C681 N689 1.427 . S
C682 H673 0.930 . S
C682 C680 1.378 . S
C682 C683 1.367 1_455 S
C683 C682 1.367 1_655 S
C683 C685 1.433 . S
C684 C680 1.350 . S
C684 C681 1.463 . S
C684 N688 1.427 1_455 S
C685 H675 0.929 . S
C685 C683 1.433 . S
C685 N688 1.384 . S
C686 H677 0.929 . S
C686 C678 1.378 . S
C686 C681 1.350 1_655 S
C687 H674 0.929 . S
C687 C679 1.433 . S
C687 N689 1.384 . S
N688 C684 1.427 1_655 S
N688 C685 1.384 . S
N689 C681 1.427 . S
N689 C687 1.384 . S
H690 C696 0.930 . S
H691 C700 0.930 . S
H692 C705 0.929 . S
H693 C703 0.929 . S
H694 C698 0.929 . S
H695 C704 0.929 . S
C696 H690 0.930 . S
C696 C697 1.367 . S
C696 C704 1.378 . S
C697 C696 1.367 . S
C697 C705 1.433 . S
C698 H694 0.929 . S
C698 C700 1.378 . S
C698 C702 1.350 . S
C699 C702 1.463 . S
C699 C704 1.350 . S
C699 N707 1.427 . S
C700 H691 0.930 . S
C700 C698 1.378 . S
C700 C701 1.367 . S
C701 C700 1.367 . S
C701 C703 1.433 . S
C702 C698 1.350 . S
C702 C699 1.463 . S
C702 N706 1.427 . S
C703 H693 0.929 . S
C703 C701 1.433 . S
C703 N706 1.384 . S
C704 H695 0.929 . S
C704 C696 1.378 . S
C704 C699 1.350 . S
C705 H692 0.929 . S
C705 C697 1.433 . S
C705 N707 1.384 . S
N706 C702 1.427 . S
N706 C703 1.384 . S
N707 C699 1.427 . S
N707 C705 1.384 . S
H708 C714 0.930 . S
H709 C718 0.930 . S
H710 C723 0.929 . S
H711 C721 0.929 . S
H712 C716 0.929 . S
H713 C722 0.929 . S
C714 H708 0.930 . S
C714 C715 1.367 . S
C714 C722 1.378 . S
C715 C714 1.367 . S
C715 C723 1.433 . S
C716 H712 0.929 . S
C716 C718 1.378 . S
C716 C720 1.350 . S
C717 C720 1.463 . S
C717 C722 1.350 . S
C717 N725 1.427 . S
C718 H709 0.930 . S
C718 C716 1.378 . S
C718 C719 1.367 . S
C719 C718 1.367 . S
C719 C721 1.433 . S
C720 C716 1.350 . S
C720 C717 1.463 . S
C720 N724 1.427 . S
C721 H711 0.929 . S
C721 C719 1.433 . S
C721 N724 1.384 . S
C722 H713 0.929 . S
C722 C714 1.378 . S
C722 C717 1.350 . S
C723 H710 0.929 . S
C723 C715 1.433 . S
C723 N725 1.384 . S
N724 C720 1.427 . S
N724 C721 1.384 . S
N725 C717 1.427 . S
N725 C723 1.384 . S
H726 C732 0.930 . S
H727 C736 0.930 . S
H728 C741 0.929 . S
H729 C739 0.929 . S
H730 C734 0.929 . S
H731 C740 0.929 . S
C732 H726 0.930 . S
C732 C733 1.367 . S
C732 C740 1.378 . S
C733 C732 1.367 . S
C733 C741 1.433 . S
C734 H730 0.929 . S
C734 C736 1.378 . S
C734 C738 1.350 . S
C735 C738 1.463 . S
C735 C740 1.350 . S
C735 N743 1.427 . S
C736 H727 0.930 . S
C736 C734 1.378 . S
C736 C737 1.367 . S
C737 C736 1.367 . S
C737 C739 1.433 . S
C738 C734 1.350 . S
C738 C735 1.463 . S
C738 N742 1.427 . S
C739 H729 0.929 . S
C739 C737 1.433 . S
C739 N742 1.384 . S
C740 H731 0.929 . S
C740 C732 1.378 . S
C740 C735 1.350 . S
C741 H728 0.929 . S
C741 C733 1.433 . S
C741 N743 1.384 . S
N742 C738 1.427 . S
N742 C739 1.384 . S
N743 C735 1.427 . S
N743 C741 1.384 . S
H744 C750 0.930 . S
H745 C754 0.930 . S
H746 C759 0.929 . S
H747 C757 0.929 . S
H748 C752 0.929 . S
H749 C758 0.929 . S
C750 H744 0.930 . S
C750 C751 1.367 . S
C750 C758 1.378 . S
C751 C750 1.367 . S
C751 C759 1.433 1_455 S
C752 H748 0.929 . S
C752 C754 1.378 . S
C752 C756 1.350 1_655 S
C753 C756 1.463 . S
C753 C758 1.350 . S
C753 N761 1.427 1_455 S
C754 H745 0.930 . S
C754 C752 1.378 . S
C754 C755 1.367 1_655 S
C755 C754 1.367 1_455 S
C755 C757 1.433 . S
C756 C752 1.350 1_455 S
C756 C753 1.463 . S
C756 N760 1.427 . S
C757 H747 0.929 . S
C757 C755 1.433 . S
C757 N760 1.384 . S
C758 H749 0.929 . S
C758 C750 1.378 . S
C758 C753 1.350 . S
C759 H746 0.929 . S
C759 C751 1.433 1_655 S
C759 N761 1.384 . S
N760 C756 1.427 . S
N760 C757 1.384 . S
N761 C753 1.427 1_655 S
N761 C759 1.384 . S
H762 C768 0.930 . S
H763 C772 0.930 . S
H764 C777 0.929 . S
H765 C775 0.929 . S
H766 C770 0.929 . S
H767 C776 0.929 . S
C768 H762 0.930 . S
C768 C769 1.367 . S
C768 C776 1.378 . S
C769 C768 1.367 . S
C769 C777 1.433 . S
C770 H766 0.929 . S
C770 C772 1.378 . S
C770 C774 1.350 . S
C771 C774 1.463 . S
C771 C776 1.350 . S
C771 N779 1.427 . S
C772 H763 0.930 . S
C772 C770 1.378 . S
C772 C773 1.367 . S
C773 C772 1.367 . S
C773 C775 1.433 . S
C774 C770 1.350 . S
C774 C771 1.463 . S
C774 N778 1.427 . S
C775 H765 0.929 . S
C775 C773 1.433 . S
C775 N778 1.384 . S
C776 H767 0.929 . S
C776 C768 1.378 . S
C776 C771 1.350 . S
C777 H764 0.929 . S
C777 C769 1.433 . S
C777 N779 1.384 . S
N778 C774 1.427 . S
N778 C775 1.384 . S
N779 C771 1.427 . S
N779 C777 1.384 . S
H780 C786 0.930 . S
H781 C790 0.930 . S
H782 C795 0.929 . S
H783 C793 0.929 . S
H784 C788 0.929 . S
H785 C794 0.929 . S
C786 H780 0.930 . S
C786 C787 1.367 . S
C786 C794 1.378 . S
C787 C786 1.367 . S
C787 C795 1.433 . S
C788 H784 0.929 . S
C788 C790 1.378 . S
C788 C792 1.350 . S
C789 C792 1.463 . S
C789 C794 1.350 . S
C789 N797 1.427 . S
C790 H781 0.930 . S
C790 C788 1.378 . S
C790 C791 1.367 . S
C791 C790 1.367 . S
C791 C793 1.433 . S
C792 C788 1.350 . S
C792 C789 1.463 . S
C792 N796 1.427 . S
C793 H783 0.929 . S
C793 C791 1.433 . S
C793 N796 1.384 . S
C794 H785 0.929 . S
C794 C786 1.378 . S
C794 C789 1.350 . S
C795 H782 0.929 . S
C795 C787 1.433 . S
C795 N797 1.384 . S
N796 C792 1.427 . S
N796 C793 1.384 . S
N797 C789 1.427 . S
N797 C795 1.384 . S
H798 C804 0.930 . S
H799 C808 0.930 . S
H800 C813 0.929 . S
H801 C811 0.929 . S
H802 C806 0.929 . S
H803 C812 0.929 . S
C804 H798 0.930 . S
C804 C805 1.367 . S
C804 C812 1.378 . S
C805 C804 1.367 . S
C805 C813 1.433 . S
C806 H802 0.929 . S
C806 C808 1.378 . S
C806 C810 1.350 . S
C807 C810 1.463 . S
C807 C812 1.350 . S
C807 N815 1.427 . S
C808 H799 0.930 . S
C808 C806 1.378 . S
C808 C809 1.367 . S
C809 C808 1.367 . S
C809 C811 1.433 . S
C810 C806 1.350 . S
C810 C807 1.463 . S
C810 N814 1.427 . S
C811 H801 0.929 . S
C811 C809 1.433 . S
C811 N814 1.384 . S
C812 H803 0.929 . S
C812 C804 1.378 . S
C812 C807 1.350 . S
C813 H800 0.929 . S
C813 C805 1.433 . S
C813 N815 1.384 . S
N814 C810 1.427 . S
N814 C811 1.384 . S
N815 C807 1.427 . S
N815 C813 1.384 . S
H816 C822 0.930 . S
H817 C826 0.930 . S
H818 C831 0.929 . S
H819 C829 0.929 . S
H820 C824 0.929 . S
H821 C830 0.929 . S
C822 H816 0.930 . S
C822 C823 1.367 . S
C822 C830 1.378 . S
C823 C822 1.367 . S
C823 C831 1.433 1_545 S
C824 H820 0.929 . S
C824 C826 1.378 . S
C824 C828 1.350 . S
C825 C828 1.463 1_545 S
C825 C830 1.350 . S
C825 N833 1.427 1_545 S
C826 H817 0.930 . S
C826 C824 1.378 . S
C826 C827 1.367 . S
C827 C826 1.367 . S
C827 C829 1.433 1_565 S
C828 C824 1.350 . S
C828 C825 1.463 1_565 S
C828 N832 1.427 1_565 S
C829 H819 0.929 . S
C829 C827 1.433 1_545 S
C829 N832 1.384 . S
C830 H821 0.929 . S
C830 C822 1.378 . S
C830 C825 1.350 . S
C831 H818 0.929 . S
C831 C823 1.433 1_565 S
C831 N833 1.384 . S
N832 C828 1.427 1_545 S
N832 C829 1.384 . S
N833 C825 1.427 1_565 S
N833 C831 1.384 . S
H834 C840 0.930 . S
H835 C844 0.930 . S
H836 C849 0.929 . S
H837 C847 0.929 . S
H838 C842 0.929 . S
H839 C848 0.929 . S
C840 H834 0.930 . S
C840 C841 1.367 . S
C840 C848 1.378 . S
C841 C840 1.367 . S
C841 C849 1.433 . S
C842 H838 0.929 . S
C842 C844 1.378 . S
C842 C846 1.350 . S
C843 C846 1.463 . S
C843 C848 1.350 . S
C843 N851 1.427 . S
C844 H835 0.930 . S
C844 C842 1.378 . S
C844 C845 1.367 . S
C845 C844 1.367 . S
C845 C847 1.433 . S
C846 C842 1.350 . S
C846 C843 1.463 . S
C846 N850 1.427 . S
C847 H837 0.929 . S
C847 C845 1.433 . S
C847 N850 1.384 . S
C848 H839 0.929 . S
C848 C840 1.378 . S
C848 C843 1.350 . S
C849 H836 0.929 . S
C849 C841 1.433 . S
C849 N851 1.384 . S
N850 C846 1.427 . S
N850 C847 1.384 . S
N851 C843 1.427 . S
N851 C849 1.384 . S
H852 C858 0.930 . S
H853 C862 0.930 . S
H854 C867 0.929 . S
H855 C865 0.929 . S
H856 C860 0.929 . S
H857 C866 0.929 . S
C858 H852 0.930 . S
C858 C859 1.344 1_565 S
C858 C866 1.378 . S
C859 C858 1.344 1_545 S
C859 C867 1.462 . S
C860 H856 0.929 . S
C860 C862 1.378 . S
C860 C864 1.350 . S
C861 C864 1.463 . S
C861 C866 1.350 1_545 S
C861 N869 1.427 . S
C862 H853 0.930 . S
C862 C860 1.378 . S
C862 C863 1.367 . S
C863 C862 1.367 . S
C863 C865 1.433 1_545 S
C864 C860 1.350 . S
C864 C861 1.463 . S
C864 N868 1.427 1_545 S
C865 H855 0.929 . S
C865 C863 1.433 1_565 S
C865 N868 1.384 . S
C866 H857 0.929 . S
C866 C858 1.378 . S
C866 C861 1.350 1_565 S
C867 H854 0.929 . S
C867 C859 1.462 . S
C867 N869 1.384 . S
N868 C864 1.427 1_565 S
N868 C865 1.384 . S
N869 C861 1.427 . S
N869 C867 1.384 . S
H870 C876 0.930 . S
H871 C880 0.930 . S
H872 C885 0.929 . S
H873 C883 0.929 . S
H874 C878 0.929 . S
H875 C884 0.929 . S
C876 H870 0.930 . S
C876 C877 1.367 . S
C876 C884 1.378 . S
C877 C876 1.367 . S
C877 C885 1.433 . S
C878 H874 0.929 . S
C878 C880 1.378 . S
C878 C882 1.350 . S
C879 C882 1.463 . S
C879 C884 1.350 . S
C879 N887 1.427 . S
C880 H871 0.930 . S
C880 C878 1.378 . S
C880 C881 1.367 . S
C881 C880 1.367 . S
C881 C883 1.433 . S
C882 C878 1.350 . S
C882 C879 1.463 . S
C882 N886 1.427 . S
C883 H873 0.929 . S
C883 C881 1.433 . S
C883 N886 1.384 . S
C884 H875 0.929 . S
C884 C876 1.378 . S
C884 C879 1.350 . S
C885 H872 0.929 . S
C885 C877 1.433 . S
C885 N887 1.384 . S
N886 C882 1.427 . S
N886 C883 1.384 . S
N887 C879 1.427 . S
N887 C885 1.384 . S
H888 C894 0.930 . S
H889 C898 0.930 . S
H890 C903 0.929 . S
H891 C901 0.929 . S
H892 C896 0.929 . S
H893 C902 0.929 . S
C894 H888 0.930 . S
C894 C895 1.367 . S
C894 C902 1.378 . S
C895 C894 1.367 . S
C895 C903 1.433 1_545 S
C896 H892 0.929 . S
C896 C898 1.378 . S
C896 C900 1.350 1_565 S
C897 C900 1.463 . S
C897 C902 1.350 . S
C897 N905 1.427 1_545 S
C898 H889 0.930 . S
C898 C896 1.378 . S
C898 C899 1.367 1_565 S
C899 C898 1.367 1_545 S
C899 C901 1.433 . S
C900 C896 1.350 1_545 S
C900 C897 1.463 . S
C900 N904 1.427 . S
C901 H891 0.929 . S
C901 C899 1.433 . S
C901 N904 1.384 . S
C902 H893 0.929 . S
C902 C894 1.378 . S
C902 C897 1.350 . S
C903 H890 0.929 . S
C903 C895 1.433 1_565 S
C903 N905 1.384 . S
N904 C900 1.427 . S
N904 C901 1.384 . S
N905 C897 1.427 1_565 S
N905 C903 1.384 . S
H906 C912 0.930 . S
H907 C916 0.930 . S
H908 C921 0.929 . S
H909 C919 0.929 . S
H910 C914 0.929 . S
H911 C920 0.929 . S
C912 H906 0.930 . S
C912 C913 1.367 . S
C912 C920 1.378 . S
C913 C912 1.367 . S
C913 C921 1.433 . S
C914 H910 0.929 . S
C914 C916 1.378 . S
C914 C918 1.350 . S
C915 C918 1.463 . S
C915 C920 1.350 . S
C915 N923 1.427 . S
C916 H907 0.930 . S
C916 C914 1.378 . S
C916 C917 1.367 . S
C917 C916 1.367 . S
C917 C919 1.433 . S
C918 C914 1.350 . S
C918 C915 1.463 . S
C918 N922 1.427 . S
C919 H909 0.929 . S
C919 C917 1.433 . S
C919 N922 1.384 . S
C920 H911 0.929 . S
C920 C912 1.378 . S
C920 C915 1.350 . S
C921 H908 0.929 . S
C921 C913 1.433 . S
C921 N923 1.384 . S
N922 C918 1.427 . S
N922 C919 1.384 . S
N923 C915 1.427 . S
N923 C921 1.384 . S
H924 C930 0.930 . S
H925 C934 0.930 . S
H926 C939 0.929 . S
H927 C937 0.929 . S
H928 C932 0.929 . S
H929 C938 0.929 . S
C930 H924 0.930 . S
C930 C931 1.367 . S
C930 C938 1.378 . S
C931 C930 1.367 . S
C931 C939 1.433 1_545 S
C932 H928 0.929 . S
C932 C934 1.378 . S
C932 C936 1.350 . S
C933 C936 1.463 1_545 S
C933 C938 1.350 . S
C933 N941 1.427 1_545 S
C934 H925 0.930 . S
C934 C932 1.378 . S
C934 C935 1.367 . S
C935 C934 1.367 . S
C935 C937 1.433 1_565 S
C936 C932 1.350 . S
C936 C933 1.463 1_565 S
C936 N940 1.427 1_565 S
C937 H927 0.929 . S
C937 C935 1.433 1_545 S
C937 N940 1.384 . S
C938 H929 0.929 . S
C938 C930 1.378 . S
C938 C933 1.350 . S
C939 H926 0.929 . S
C939 C931 1.433 1_565 S
C939 N941 1.384 . S
N940 C936 1.427 1_545 S
N940 C937 1.384 . S
N941 C933 1.427 1_565 S
N941 C939 1.384 . S
H942 C948 0.930 . S
H943 C952 0.930 . S
H944 C957 0.929 . S
H945 C955 0.929 . S
H946 C950 0.929 . S
H947 C956 0.929 . S
C948 H942 0.930 . S
C948 C949 1.367 . S
C948 C956 1.378 . S
C949 C948 1.367 . S
C949 C957 1.433 . S
C950 H946 0.929 . S
C950 C952 1.378 . S
C950 C954 1.350 . S
C951 C954 1.463 . S
C951 C956 1.350 . S
C951 N959 1.427 . S
C952 H943 0.930 . S
C952 C950 1.378 . S
C952 C953 1.367 . S
C953 C952 1.367 . S
C953 C955 1.433 . S
C954 C950 1.350 . S
C954 C951 1.463 . S
C954 N958 1.427 . S
C955 H945 0.929 . S
C955 C953 1.433 . S
C955 N958 1.384 . S
C956 H947 0.929 . S
C956 C948 1.378 . S
C956 C951 1.350 . S
C957 H944 0.929 . S
C957 C949 1.433 . S
C957 N959 1.384 . S
N958 C954 1.427 . S
N958 C955 1.384 . S
N959 C951 1.427 . S
N959 C957 1.384 . S
H960 C966 0.930 . S
H961 C970 0.930 . S
H962 C975 0.929 . S
H963 C973 0.929 . S
H964 C968 0.929 . S
H965 C974 0.929 . S
C966 H960 0.930 . S
C966 C967 1.367 1_556 S
C966 C974 1.378 . S
C967 C966 1.367 1_554 S
C967 C975 1.433 . S
C968 H964 0.929 . S
C968 C970 1.378 . S
C968 C972 1.350 . S
C969 C972 1.463 . S
C969 C974 1.350 1_554 S
C969 N977 1.427 . S
C970 H961 0.930 . S
C970 C968 1.378 . S
C970 C971 1.382 . S
C971 C970 1.382 . S
C971 C973 1.419 1_554 S
C972 C968 1.350 . S
C972 C969 1.463 . S
C972 N976 1.427 1_554 S
C973 H963 0.929 . S
C973 C971 1.419 1_556 S
C973 N976 1.384 . S
C974 H965 0.929 . S
C974 C966 1.378 . S
C974 C969 1.350 1_556 S
C975 H962 0.929 . S
C975 C967 1.433 . S
C975 N977 1.384 . S
N976 C972 1.427 1_556 S
N976 C973 1.384 . S
N977 C969 1.427 . S
N977 C975 1.384 . S
H978 C984 0.929 1_556 S
H979 C988 0.930 . S
H980 C993 0.929 . S
H981 C991 0.929 . S
H982 C986 0.929 . S
H983 C992 0.929 . S
C984 H978 0.929 1_554 S
C984 C985 1.367 . S
C984 C992 1.378 . S
C985 C984 1.367 . S
C985 C993 1.433 . S
C986 H982 0.929 . S
C986 C988 1.378 . S
C986 C990 1.350 . S
C987 C990 1.463 . S
C987 C992 1.350 . S
C987 N995 1.427 . S
C988 H979 0.930 . S
C988 C986 1.378 . S
C988 C989 1.367 . S
C989 C988 1.367 . S
C989 C991 1.433 . S
C990 C986 1.350 . S
C990 C987 1.463 . S
C990 N994 1.427 . S
C991 H981 0.929 . S
C991 C989 1.433 . S
C991 N994 1.384 . S
C992 H983 0.929 . S
C992 C984 1.378 . S
C992 C987 1.350 . S
C993 H980 0.929 . S
C993 C985 1.433 . S
C993 N995 1.384 . S
N994 C990 1.427 . S
N994 C991 1.384 . S
N995 C987 1.427 . S
N995 C993 1.384 . S
H996 C1002 0.930 . S
H997 C1006 0.930 . S
H998 C1011 0.929 . S
H999 C1009 0.929 . S
H1000 C1004 0.929 . S
H1001 C1010 0.929 . S
C1002 H996 0.930 . S
C1002 C1003 1.367 . S
C1002 C1010 1.378 . S
C1003 C1002 1.367 . S
C1003 C1011 1.433 . S
C1004 H1000 0.929 . S
C1004 C1006 1.378 . S
C1004 C1008 1.350 . S
C1005 C1008 1.463 . S
C1005 C1010 1.350 . S
C1005 N1013 1.427 . S
C1006 H997 0.930 . S
C1006 C1004 1.378 . S
C1006 C1007 1.367 . S
C1007 C1006 1.367 . S
C1007 C1009 1.433 . S
C1008 C1004 1.350 . S
C1008 C1005 1.463 . S
C1008 N1012 1.427 . S
C1009 H999 0.929 . S
C1009 C1007 1.433 . S
C1009 N1012 1.384 . S
C1010 H1001 0.929 . S
C1010 C1002 1.378 . S
C1010 C1005 1.350 . S
C1011 H998 0.929 . S
C1011 C1003 1.433 . S
C1011 N1013 1.384 . S
N1012 C1008 1.427 . S
N1012 C1009 1.384 . S
N1013 C1005 1.427 . S
N1013 C1011 1.384 . S
H1014 C1020 0.930 . S
H1015 C1024 0.930 . S
H1016 C1029 0.929 . S
H1017 C1027 0.929 . S
H1018 C1022 0.929 . S
H1019 C1028 0.929 . S
C1020 H1014 0.930 . S
C1020 C1021 1.367 . S
C1020 C1028 1.378 . S
C1021 C1020 1.367 . S
C1021 C1029 1.433 . S
C1022 H1018 0.929 . S
C1022 C1024 1.378 . S
C1022 C1026 1.350 . S
C1023 C1026 1.463 . S
C1023 C1028 1.350 . S
C1023 N1031 1.427 . S
C1024 H1015 0.930 . S
C1024 C1022 1.378 . S
C1024 C1025 1.367 . S
C1025 C1024 1.367 . S
C1025 C1027 1.433 . S
C1026 C1022 1.350 . S
C1026 C1023 1.463 . S
C1026 N1030 1.427 . S
C1027 H1017 0.929 . S
C1027 C1025 1.433 . S
C1027 N1030 1.384 . S
C1028 H1019 0.929 . S
C1028 C1020 1.378 . S
C1028 C1023 1.350 . S
C1029 H1016 0.929 . S
C1029 C1021 1.433 . S
C1029 N1031 1.384 . S
N1030 C1026 1.427 . S
N1030 C1027 1.384 . S
N1031 C1023 1.427 . S
N1031 C1029 1.384 . S
H1032 C1038 0.930 . S
H1033 C1042 0.930 . S
H1034 C1047 0.929 . S
H1035 C1045 0.929 . S
H1036 C1040 0.929 . S
H1037 C1046 0.929 . S
C1038 H1032 0.930 . S
C1038 C1039 1.367 . S
C1038 C1046 1.378 . S
C1039 C1038 1.367 . S
C1039 C1047 1.433 . S
C1040 H1036 0.929 . S
C1040 C1042 1.378 . S
C1040 C1044 1.350 . S
C1041 C1044 1.463 . S
C1041 C1046 1.350 . S
C1041 N1049 1.427 . S
C1042 H1033 0.930 . S
C1042 C1040 1.378 . S
C1042 C1043 1.367 . S
C1043 C1042 1.367 . S
C1043 C1045 1.433 . S
C1044 C1040 1.350 . S
C1044 C1041 1.463 . S
C1044 N1048 1.427 . S
C1045 H1035 0.929 . S
C1045 C1043 1.433 . S
C1045 N1048 1.384 . S
C1046 H1037 0.929 . S
C1046 C1038 1.378 . S
C1046 C1041 1.350 . S
C1047 H1034 0.929 . S
C1047 C1039 1.433 . S
C1047 N1049 1.384 . S
N1048 C1044 1.427 . S
N1048 C1045 1.384 . S
N1049 C1041 1.427 . S
N1049 C1047 1.384 . S
H1050 C1056 0.930 . S
H1051 C1060 0.930 . S
H1052 C1065 0.929 . S
H1053 C1063 0.929 . S
H1054 C1058 0.929 . S
H1055 C1064 0.929 . S
C1056 H1050 0.930 . S
C1056 C1057 1.367 . S
C1056 C1064 1.378 . S
C1057 C1056 1.367 . S
C1057 C1065 1.433 . S
C1058 H1054 0.929 . S
C1058 C1060 1.378 . S
C1058 C1062 1.350 . S
C1059 C1062 1.463 . S
C1059 C1064 1.350 . S
C1059 N1067 1.427 . S
C1060 H1051 0.930 . S
C1060 C1058 1.378 . S
C1060 C1061 1.367 . S
C1061 C1060 1.367 . S
C1061 C1063 1.433 . S
C1062 C1058 1.350 . S
C1062 C1059 1.463 . S
C1062 N1066 1.427 . S
C1063 H1053 0.929 . S
C1063 C1061 1.433 . S
C1063 N1066 1.384 . S
C1064 H1055 0.929 . S
C1064 C1056 1.378 . S
C1064 C1059 1.350 . S
C1065 H1052 0.929 . S
C1065 C1057 1.433 . S
C1065 N1067 1.384 . S
N1066 C1062 1.427 . S
N1066 C1063 1.384 . S
N1067 C1059 1.427 . S
N1067 C1065 1.384 . S
H1068 C1074 0.930 . S
H1069 C1078 0.930 . S
H1070 C1083 0.929 . S
H1071 C1081 0.929 . S
H1072 C1076 0.929 . S
H1073 C1082 0.929 . S
C1074 H1068 0.930 . S
C1074 C1075 1.367 . S
C1074 C1082 1.378 . S
C1075 C1074 1.367 . S
C1075 C1083 1.433 . S
C1076 H1072 0.929 . S
C1076 C1078 1.378 . S
C1076 C1080 1.350 . S
C1077 C1080 1.463 . S
C1077 C1082 1.350 . S
C1077 N1085 1.427 . S
C1078 H1069 0.930 . S
C1078 C1076 1.378 . S
C1078 C1079 1.367 . S
C1079 C1078 1.367 . S
C1079 C1081 1.433 . S
C1080 C1076 1.350 . S
C1080 C1077 1.463 . S
C1080 N1084 1.427 . S
C1081 H1071 0.929 . S
C1081 C1079 1.433 . S
C1081 N1084 1.384 . S
C1082 H1073 0.929 . S
C1082 C1074 1.378 . S
C1082 C1077 1.350 . S
C1083 H1070 0.929 . S
C1083 C1075 1.433 . S
C1083 N1085 1.384 . S
N1084 C1080 1.427 . S
N1084 C1081 1.384 . S
N1085 C1077 1.427 . S
N1085 C1083 1.384 . S
H1086 C1092 0.930 . S
H1087 C1096 0.930 . S
H1088 C1101 0.929 . S
H1089 C1099 0.929 . S
H1090 C1094 0.929 . S
H1091 C1100 0.929 . S
C1092 H1086 0.930 . S
C1092 C1093 1.367 . S
C1092 C1100 1.378 . S
C1093 C1092 1.367 . S
C1093 C1101 1.433 . S
C1094 H1090 0.929 . S
C1094 C1096 1.378 . S
C1094 C1098 1.350 . S
C1095 C1098 1.463 . S
C1095 C1100 1.350 . S
C1095 N1103 1.427 . S
C1096 H1087 0.930 . S
C1096 C1094 1.378 . S
C1096 C1097 1.367 . S
C1097 C1096 1.367 . S
C1097 C1099 1.433 . S
C1098 C1094 1.350 . S
C1098 C1095 1.463 . S
C1098 N1102 1.427 . S
C1099 H1089 0.929 . S
C1099 C1097 1.433 . S
C1099 N1102 1.384 . S
C1100 H1091 0.929 . S
C1100 C1092 1.378 . S
C1100 C1095 1.350 . S
C1101 H1088 0.929 . S
C1101 C1093 1.433 . S
C1101 N1103 1.384 . S
N1102 C1098 1.427 . S
N1102 C1099 1.384 . S
N1103 C1095 1.427 . S
N1103 C1101 1.384 . S
H1104 C1110 0.930 . S
H1105 C1114 0.930 1_655 S
H1106 C1119 0.933 . S
H1107 C1117 0.929 . S
H1108 C1112 0.929 1_655 S
H1109 C1118 0.929 . S
C1110 H1104 0.930 . S
C1110 C1111 1.367 . S
C1110 C1118 1.378 . S
C1111 C1110 1.367 . S
C1111 C1119 1.430 1_455 S
C1112 H1108 0.929 1_455 S
C1112 C1114 1.378 . S
C1112 C1116 1.350 . S
C1113 C1116 1.463 . S
C1113 C1118 1.350 . S
C1113 N1121 1.439 . S
C1114 H1105 0.930 1_455 S
C1114 C1112 1.378 . S
C1114 C1115 1.367 . S
C1115 C1114 1.367 . S
C1115 C1117 1.433 . S
C1116 C1112 1.350 . S
C1116 C1113 1.463 . S
C1116 N1120 1.427 . S
C1117 H1107 0.929 . S
C1117 C1115 1.433 . S
C1117 N1120 1.384 . S
C1118 H1109 0.929 . S
C1118 C1110 1.378 . S
C1118 C1113 1.350 . S
C1119 H1106 0.933 . S
C1119 C1111 1.430 1_655 S
C1119 N1121 1.383 1_655 S
N1120 C1116 1.427 . S
N1120 C1117 1.384 . S
N1121 C1113 1.439 . S
N1121 C1119 1.383 1_455 S
H1122 C1128 0.930 . S
H1123 C1132 0.930 . S
H1124 C1137 0.929 . S
H1125 C1135 0.929 . S
H1126 C1130 0.929 . S
H1127 C1136 0.929 . S
C1128 H1122 0.930 . S
C1128 C1129 1.367 . S
C1128 C1136 1.378 . S
C1129 C1128 1.367 . S
C1129 C1137 1.433 . S
C1130 H1126 0.929 . S
C1130 C1132 1.378 . S
C1130 C1134 1.350 . S
C1131 C1134 1.463 . S
C1131 C1136 1.350 . S
C1131 N1139 1.427 . S
C1132 H1123 0.930 . S
C1132 C1130 1.378 . S
C1132 C1133 1.367 . S
C1133 C1132 1.367 . S
C1133 C1135 1.433 . S
C1134 C1130 1.350 . S
C1134 C1131 1.463 . S
C1134 N1138 1.427 . S
C1135 H1125 0.929 . S
C1135 C1133 1.433 . S
C1135 N1138 1.384 . S
C1136 H1127 0.929 . S
C1136 C1128 1.378 . S
C1136 C1131 1.350 . S
C1137 H1124 0.929 . S
C1137 C1129 1.433 . S
C1137 N1139 1.384 . S
N1138 C1134 1.427 . S
N1138 C1135 1.384 . S
N1139 C1131 1.427 . S
N1139 C1137 1.384 . S
H1140 C1146 0.930 . S
H1141 C1150 0.930 . S
H1142 C1155 0.929 . S
H1143 C1153 0.929 . S
H1144 C1148 0.929 . S
H1145 C1154 0.929 . S
C1146 H1140 0.930 . S
C1146 C1147 1.367 . S
C1146 C1154 1.378 . S
C1147 C1146 1.367 . S
C1147 C1155 1.433 . S
C1148 H1144 0.929 . S
C1148 C1150 1.378 . S
C1148 C1152 1.350 . S
C1149 C1152 1.463 . S
C1149 C1154 1.350 . S
C1149 N1157 1.427 . S
C1150 H1141 0.930 . S
C1150 C1148 1.378 . S
C1150 C1151 1.367 . S
C1151 C1150 1.367 . S
C1151 C1153 1.433 . S
C1152 C1148 1.350 . S
C1152 C1149 1.463 . S
C1152 N1156 1.427 . S
C1153 H1143 0.929 . S
C1153 C1151 1.433 . S
C1153 N1156 1.384 . S
C1154 H1145 0.929 . S
C1154 C1146 1.378 . S
C1154 C1149 1.350 . S
C1155 H1142 0.929 . S
C1155 C1147 1.433 . S
C1155 N1157 1.384 . S
N1156 C1152 1.427 . S
N1156 C1153 1.384 . S
N1157 C1149 1.427 . S
N1157 C1155 1.384 . S
H1158 C1164 0.930 . S
H1159 C1168 0.930 . S
H1160 C1173 0.929 . S
H1161 C1171 0.929 . S
H1162 C1166 0.929 . S
H1163 C1172 0.929 . S
C1164 H1158 0.930 . S
C1164 C1165 1.367 . S
C1164 C1172 1.378 . S
C1165 C1164 1.367 . S
C1165 C1173 1.433 . S
C1166 H1162 0.929 . S
C1166 C1168 1.378 . S
C1166 C1170 1.350 . S
C1167 C1170 1.463 . S
C1167 C1172 1.350 . S
C1167 N1175 1.427 . S
C1168 H1159 0.930 . S
C1168 C1166 1.378 . S
C1168 C1169 1.367 . S
C1169 C1168 1.367 . S
C1169 C1171 1.433 . S
C1170 C1166 1.350 . S
C1170 C1167 1.463 . S
C1170 N1174 1.427 . S
C1171 H1161 0.929 . S
C1171 C1169 1.433 . S
C1171 N1174 1.384 . S
C1172 H1163 0.929 . S
C1172 C1164 1.378 . S
C1172 C1167 1.350 . S
C1173 H1160 0.929 . S
C1173 C1165 1.433 . S
C1173 N1175 1.384 . S
N1174 C1170 1.427 . S
N1174 C1171 1.384 . S
N1175 C1167 1.427 . S
N1175 C1173 1.384 . S
H1176 C1182 0.930 . S
H1177 C1186 0.929 1_655 S
H1178 C1191 0.929 . S
H1179 C1189 0.929 . S
H1180 C1184 0.929 . S
H1181 C1190 0.929 . S
C1182 H1176 0.930 . S
C1182 C1183 1.367 . S
C1182 C1190 1.378 . S
C1183 C1182 1.367 . S
C1183 C1191 1.433 1_455 S
C1184 H1180 0.929 . S
C1184 C1186 1.378 1_655 S
C1184 C1188 1.350 1_655 S
C1185 C1188 1.463 . S
C1185 C1190 1.350 . S
C1185 N1193 1.427 1_455 S
C1186 H1177 0.929 1_455 S
C1186 C1184 1.378 1_455 S
C1186 C1187 1.369 . S
C1187 C1186 1.369 . S
C1187 C1189 1.433 . S
C1188 C1184 1.350 1_455 S
C1188 C1185 1.463 . S
C1188 N1192 1.427 . S
C1189 H1179 0.929 . S
C1189 C1187 1.433 . S
C1189 N1192 1.384 . S
C1190 H1181 0.929 . S
C1190 C1182 1.378 . S
C1190 C1185 1.350 . S
C1191 H1178 0.929 . S
C1191 C1183 1.433 1_655 S
C1191 N1193 1.384 . S
N1192 C1188 1.427 . S
N1192 C1189 1.384 . S
N1193 C1185 1.427 1_655 S
N1193 C1191 1.384 . S
H1194 C1200 0.930 . S
H1195 C1204 0.930 . S
H1196 C1209 0.929 . S
H1197 C1207 0.929 . S
H1198 C1202 0.929 . S
H1199 C1208 0.929 . S
C1200 H1194 0.930 . S
C1200 C1201 1.367 . S
C1200 C1208 1.378 . S
C1201 C1200 1.367 . S
C1201 C1209 1.433 . S
C1202 H1198 0.929 . S
C1202 C1204 1.378 . S
C1202 C1206 1.350 . S
C1203 C1206 1.463 . S
C1203 C1208 1.350 . S
C1203 N1211 1.427 . S
C1204 H1195 0.930 . S
C1204 C1202 1.378 . S
C1204 C1205 1.367 . S
C1205 C1204 1.367 . S
C1205 C1207 1.433 . S
C1206 C1202 1.350 . S
C1206 C1203 1.463 . S
C1206 N1210 1.427 . S
C1207 H1197 0.929 . S
C1207 C1205 1.433 . S
C1207 N1210 1.384 . S
C1208 H1199 0.929 . S
C1208 C1200 1.378 . S
C1208 C1203 1.350 . S
C1209 H1196 0.929 . S
C1209 C1201 1.433 . S
C1209 N1211 1.384 . S
N1210 C1206 1.427 . S
N1210 C1207 1.384 . S
N1211 C1203 1.427 . S
N1211 C1209 1.384 . S
H1212 C1218 0.930 . S
H1213 C1222 0.930 . S
H1214 C1227 0.929 . S
H1215 C1225 0.929 . S
H1216 C1220 0.929 . S
H1217 C1226 0.929 . S
C1218 H1212 0.930 . S
C1218 C1219 1.367 . S
C1218 C1226 1.378 . S
C1219 C1218 1.367 . S
C1219 C1227 1.433 . S
C1220 H1216 0.929 . S
C1220 C1222 1.378 . S
C1220 C1224 1.350 . S
C1221 C1224 1.463 . S
C1221 C1226 1.350 . S
C1221 N1229 1.427 . S
C1222 H1213 0.930 . S
C1222 C1220 1.378 . S
C1222 C1223 1.367 . S
C1223 C1222 1.367 . S
C1223 C1225 1.433 . S
C1224 C1220 1.350 . S
C1224 C1221 1.463 . S
C1224 N1228 1.427 . S
C1225 H1215 0.929 . S
C1225 C1223 1.433 . S
C1225 N1228 1.384 . S
C1226 H1217 0.929 . S
C1226 C1218 1.378 . S
C1226 C1221 1.350 . S
C1227 H1214 0.929 . S
C1227 C1219 1.433 . S
C1227 N1229 1.384 . S
N1228 C1224 1.427 . S
N1228 C1225 1.384 . S
N1229 C1221 1.427 . S
N1229 C1227 1.384 . S
H1230 C1236 0.930 . S
H1231 C1240 0.930 . S
H1232 C1245 0.929 . S
H1233 C1243 0.929 . S
H1234 C1238 0.929 . S
H1235 C1244 0.929 . S
C1236 H1230 0.930 . S
C1236 C1237 1.367 . S
C1236 C1244 1.378 . S
C1237 C1236 1.367 . S
C1237 C1245 1.433 . S
C1238 H1234 0.929 . S
C1238 C1240 1.378 . S
C1238 C1242 1.350 . S
C1239 C1242 1.463 . S
C1239 C1244 1.350 . S
C1239 N1247 1.427 . S
C1240 H1231 0.930 . S
C1240 C1238 1.378 . S
C1240 C1241 1.367 . S
C1241 C1240 1.367 . S
C1241 C1243 1.433 . S
C1242 C1238 1.350 . S
C1242 C1239 1.463 . S
C1242 N1246 1.427 . S
C1243 H1233 0.929 . S
C1243 C1241 1.433 . S
C1243 N1246 1.384 . S
C1244 H1235 0.929 . S
C1244 C1236 1.378 . S
C1244 C1239 1.350 . S
C1245 H1232 0.929 . S
C1245 C1237 1.433 . S
C1245 N1247 1.384 . S
N1246 C1242 1.427 . S
N1246 C1243 1.384 . S
N1247 C1239 1.427 . S
N1247 C1245 1.384 . S
H1248 C1254 0.930 . S
H1249 C1258 0.934 . S
H1250 C1263 0.929 . S
H1251 C1261 0.929 1_455 S
H1252 C1256 0.929 1_565 S
H1253 C1262 0.929 . S
C1254 H1248 0.930 . S
C1254 C1255 1.364 1_545 S
C1254 C1262 1.378 . S
C1255 C1254 1.364 1_565 S
C1255 C1263 1.436 . S
C1256 H1252 0.929 1_545 S
C1256 C1258 1.378 . S
C1256 C1260 1.350 . S
C1257 C1260 1.463 . S
C1257 C1262 1.350 . S
C1257 N1265 1.427 1_545 S
C1258 H1249 0.934 . S
C1258 C1256 1.378 . S
C1258 C1259 1.367 . S
C1259 C1258 1.367 . S
C1259 C1261 1.433 . S
C1260 C1256 1.350 . S
C1260 C1257 1.463 . S
C1260 N1264 1.427 . S
C1261 H1251 0.929 1_655 S
C1261 C1259 1.433 . S
C1261 N1264 1.384 . S
C1262 H1253 0.929 . S
C1262 C1254 1.378 . S
C1262 C1257 1.350 . S
C1263 H1250 0.929 . S
C1263 C1255 1.436 . S
C1263 N1265 1.384 . S
N1264 C1260 1.427 . S
N1264 C1261 1.384 . S
N1265 C1257 1.427 1_565 S
N1265 C1263 1.384 . S
H1266 C1272 0.930 . S
H1267 C1276 0.930 . S
H1268 C1281 0.929 . S
H1269 C1279 0.929 . S
H1270 C1274 0.929 . S
H1271 C1280 0.929 . S
C1272 H1266 0.930 . S
C1272 C1273 1.367 . S
C1272 C1280 1.378 . S
C1273 C1272 1.367 . S
C1273 C1281 1.433 . S
C1274 H1270 0.929 . S
C1274 C1276 1.378 . S
C1274 C1278 1.350 . S
C1275 C1278 1.463 . S
C1275 C1280 1.350 . S
C1275 N1283 1.427 . S
C1276 H1267 0.930 . S
C1276 C1274 1.378 . S
C1276 C1277 1.367 . S
C1277 C1276 1.367 . S
C1277 C1279 1.433 . S
C1278 C1274 1.350 . S
C1278 C1275 1.463 . S
C1278 N1282 1.427 . S
C1279 H1269 0.929 . S
C1279 C1277 1.433 . S
C1279 N1282 1.384 . S
C1280 H1271 0.929 . S
C1280 C1272 1.378 . S
C1280 C1275 1.350 . S
C1281 H1268 0.929 . S
C1281 C1273 1.433 . S
C1281 N1283 1.384 . S
N1282 C1278 1.427 . S
N1282 C1279 1.384 . S
N1283 C1275 1.427 . S
N1283 C1281 1.384 . S
H1284 C1290 0.930 . S
H1285 C1294 0.930 . S
H1286 C1299 0.929 . S
H1287 C1297 0.929 . S
H1288 C1292 0.929 . S
H1289 C1298 0.929 . S
C1290 H1284 0.930 . S
C1290 C1291 1.367 1_565 S
C1290 C1298 1.378 . S
C1291 C1290 1.367 1_545 S
C1291 C1299 1.433 . S
C1292 H1288 0.929 . S
C1292 C1294 1.378 . S
C1292 C1296 1.350 . S
C1293 C1296 1.463 . S
C1293 C1298 1.350 1_545 S
C1293 N1301 1.427 . S
C1294 H1285 0.930 . S
C1294 C1292 1.378 . S
C1294 C1295 1.367 1_545 S
C1295 C1294 1.367 1_565 S
C1295 C1297 1.433 . S
C1296 C1292 1.350 . S
C1296 C1293 1.463 . S
C1296 N1300 1.427 1_545 S
C1297 H1287 0.929 . S
C1297 C1295 1.433 . S
C1297 N1300 1.384 . S
C1298 H1289 0.929 . S
C1298 C1290 1.378 . S
C1298 C1293 1.350 1_565 S
C1299 H1286 0.929 . S
C1299 C1291 1.433 . S
C1299 N1301 1.384 . S
N1300 C1296 1.427 1_565 S
N1300 C1297 1.384 . S
N1301 C1293 1.427 . S
N1301 C1299 1.384 . S
H1302 C1308 0.930 . S
H1303 C1312 0.930 . S
H1304 C1317 0.929 . S
H1305 C1315 0.929 . S
H1306 C1310 0.929 . S
H1307 C1316 0.929 . S
C1308 H1302 0.930 . S
C1308 C1309 1.367 . S
C1308 C1316 1.378 . S
C1309 C1308 1.367 . S
C1309 C1317 1.433 . S
C1310 H1306 0.929 . S
C1310 C1312 1.378 . S
C1310 C1314 1.350 . S
C1311 C1314 1.463 . S
C1311 C1316 1.350 . S
C1311 N1319 1.427 . S
C1312 H1303 0.930 . S
C1312 C1310 1.378 . S
C1312 C1313 1.367 . S
C1313 C1312 1.367 . S
C1313 C1315 1.433 . S
C1314 C1310 1.350 . S
C1314 C1311 1.463 . S
C1314 N1318 1.427 . S
C1315 H1305 0.929 . S
C1315 C1313 1.433 . S
C1315 N1318 1.384 . S
C1316 H1307 0.929 . S
C1316 C1308 1.378 . S
C1316 C1311 1.350 . S
C1317 H1304 0.929 . S
C1317 C1309 1.433 . S
C1317 N1319 1.384 . S
N1318 C1314 1.427 . S
N1318 C1315 1.384 . S
N1319 C1311 1.427 . S
N1319 C1317 1.384 . S
H1320 C1326 0.930 . S
H1321 C1330 0.930 . S
H1322 C1335 0.929 . S
H1323 C1333 0.929 . S
H1324 C1328 0.929 . S
H1325 C1334 0.929 . S
C1326 H1320 0.930 . S
C1326 C1327 1.367 . S
C1326 C1334 1.378 . S
C1327 C1326 1.367 . S
C1327 C1335 1.433 1_565 S
C1328 H1324 0.929 . S
C1328 C1330 1.378 . S
C1328 C1332 1.350 1_545 S
C1329 C1332 1.463 . S
C1329 C1334 1.350 . S
C1329 N1337 1.427 1_565 S
C1330 H1321 0.930 . S
C1330 C1328 1.378 . S
C1330 C1331 1.367 1_545 S
C1331 C1330 1.367 1_565 S
C1331 C1333 1.433 . S
C1332 C1328 1.350 1_565 S
C1332 C1329 1.463 . S
C1332 N1336 1.427 . S
C1333 H1323 0.929 . S
C1333 C1331 1.433 . S
C1333 N1336 1.384 . S
C1334 H1325 0.929 . S
C1334 C1326 1.378 . S
C1334 C1329 1.350 . S
C1335 H1322 0.929 . S
C1335 C1327 1.433 1_545 S
C1335 N1337 1.384 . S
N1336 C1332 1.427 . S
N1336 C1333 1.384 . S
N1337 C1329 1.427 1_545 S
N1337 C1335 1.384 . S
H1338 C1344 0.930 . S
H1339 C1348 0.930 . S
H1340 C1353 0.929 . S
H1341 C1351 0.929 . S
H1342 C1346 0.929 . S
H1343 C1352 0.929 . S
C1344 H1338 0.930 . S
C1344 C1345 1.367 . S
C1344 C1352 1.378 . S
C1345 C1344 1.367 . S
C1345 C1353 1.433 . S
C1346 H1342 0.929 . S
C1346 C1348 1.378 . S
C1346 C1350 1.350 . S
C1347 C1350 1.463 . S
C1347 C1352 1.350 . S
C1347 N1355 1.427 . S
C1348 H1339 0.930 . S
C1348 C1346 1.378 . S
C1348 C1349 1.367 . S
C1349 C1348 1.367 . S
C1349 C1351 1.433 . S
C1350 C1346 1.350 . S
C1350 C1347 1.463 . S
C1350 N1354 1.427 . S
C1351 H1341 0.929 . S
C1351 C1349 1.433 . S
C1351 N1354 1.384 . S
C1352 H1343 0.929 . S
C1352 C1344 1.378 . S
C1352 C1347 1.350 . S
C1353 H1340 0.929 . S
C1353 C1345 1.433 . S
C1353 N1355 1.384 . S
N1354 C1350 1.427 . S
N1354 C1351 1.384 . S
N1355 C1347 1.427 . S
N1355 C1353 1.384 . S
H1356 C1362 0.930 . S
H1357 C1366 0.930 . S
H1358 C1371 0.929 . S
H1359 C1369 0.929 . S
H1360 C1364 0.929 . S
H1361 C1370 0.929 . S
C1362 H1356 0.930 . S
C1362 C1363 1.367 1_565 S
C1362 C1370 1.378 . S
C1363 C1362 1.367 1_545 S
C1363 C1371 1.433 . S
C1364 H1360 0.929 . S
C1364 C1366 1.378 . S
C1364 C1368 1.350 . S
C1365 C1368 1.463 . S
C1365 C1370 1.350 1_545 S
C1365 N1373 1.427 . S
C1366 H1357 0.930 . S
C1366 C1364 1.378 . S
C1366 C1367 1.367 . S
C1367 C1366 1.367 . S
C1367 C1369 1.433 1_545 S
C1368 C1364 1.350 . S
C1368 C1365 1.463 . S
C1368 N1372 1.427 1_545 S
C1369 H1359 0.929 . S
C1369 C1367 1.433 1_565 S
C1369 N1372 1.384 . S
C1370 H1361 0.929 . S
C1370 C1362 1.378 . S
C1370 C1365 1.350 1_565 S
C1371 H1358 0.929 . S
C1371 C1363 1.433 . S
C1371 N1373 1.384 . S
N1372 C1368 1.427 1_565 S
N1372 C1369 1.384 . S
N1373 C1365 1.427 . S
N1373 C1371 1.384 . S
H1374 C1380 0.930 . S
H1375 C1384 0.930 . S
H1376 C1389 0.929 . S
H1377 C1387 0.929 . S
H1378 C1382 0.929 . S
H1379 C1388 0.929 . S
C1380 H1374 0.930 . S
C1380 C1381 1.367 . S
C1380 C1388 1.378 . S
C1381 C1380 1.367 . S
C1381 C1389 1.433 . S
C1382 H1378 0.929 . S
C1382 C1384 1.378 . S
C1382 C1386 1.350 . S
C1383 C1386 1.463 . S
C1383 C1388 1.350 . S
C1383 N1391 1.427 . S
C1384 H1375 0.930 . S
C1384 C1382 1.378 . S
C1384 C1385 1.367 . S
C1385 C1384 1.367 . S
C1385 C1387 1.433 . S
C1386 C1382 1.350 . S
C1386 C1383 1.463 . S
C1386 N1390 1.427 . S
C1387 H1377 0.929 . S
C1387 C1385 1.433 . S
C1387 N1390 1.384 . S
C1388 H1379 0.929 . S
C1388 C1380 1.378 . S
C1388 C1383 1.350 . S
C1389 H1376 0.929 . S
C1389 C1381 1.433 . S
C1389 N1391 1.384 . S
N1390 C1386 1.427 . S
N1390 C1387 1.384 . S
N1391 C1383 1.427 . S
N1391 C1389 1.384 . S
H1392 C1398 0.930 . S
H1393 C1402 0.930 . S
H1394 C1407 0.929 . S
H1395 C1405 0.929 . S
H1396 C1400 0.929 . S
H1397 C1406 0.929 . S
C1398 H1392 0.930 . S
C1398 C1399 1.367 1_556 S
C1398 C1406 1.378 . S
C1399 C1398 1.367 1_554 S
C1399 C1407 1.433 . S
C1400 H1396 0.929 . S
C1400 C1402 1.378 . S
C1400 C1404 1.350 . S
C1401 C1404 1.463 . S
C1401 C1406 1.350 1_554 S
C1401 N1409 1.427 . S
C1402 H1393 0.930 . S
C1402 C1400 1.378 . S
C1402 C1403 1.367 . S
C1403 C1402 1.367 . S
C1403 C1405 1.433 1_554 S
C1404 C1400 1.350 . S
C1404 C1401 1.463 . S
C1404 N1408 1.427 1_554 S
C1405 H1395 0.929 . S
C1405 C1403 1.433 1_556 S
C1405 N1408 1.384 . S
C1406 H1397 0.929 . S
C1406 C1398 1.378 . S
C1406 C1401 1.350 1_556 S
C1407 H1394 0.929 . S
C1407 C1399 1.433 . S
C1407 N1409 1.384 . S
N1408 C1404 1.427 1_556 S
N1408 C1405 1.384 . S
N1409 C1401 1.427 . S
N1409 C1407 1.384 . S
H1410 C1416 0.930 . S
H1411 C1420 0.930 . S
H1412 C1425 0.929 . S
H1413 C1423 0.929 . S
H1414 C1418 0.929 . S
H1415 C1424 0.929 . S
C1416 H1410 0.930 . S
C1416 C1417 1.367 1_556 S
C1416 C1424 1.378 . S
C1417 C1416 1.367 1_554 S
C1417 C1425 1.433 . S
C1418 H1414 0.929 . S
C1418 C1420 1.378 . S
C1418 C1422 1.313 1_554 S
C1419 C1422 1.463 . S
C1419 C1424 1.364 . S
C1419 N1427 1.413 1_556 S
C1420 H1411 0.930 . S
C1420 C1418 1.378 . S
C1420 C1421 1.367 1_554 S
C1421 C1420 1.367 1_556 S
C1421 C1423 1.433 . S
C1422 C1418 1.313 1_556 S
C1422 C1419 1.463 . S
C1422 N1426 1.468 . S
C1423 H1413 0.929 . S
C1423 C1421 1.433 . S
C1423 N1426 1.384 . S
C1424 H1415 0.929 . S
C1424 C1416 1.378 . S
C1424 C1419 1.364 . S
C1425 H1412 0.929 . S
C1425 C1417 1.433 . S
C1425 N1427 1.384 . S
N1426 C1422 1.468 . S
N1426 C1423 1.384 . S
N1427 C1419 1.413 1_554 S
N1427 C1425 1.384 . S
H1428 C1434 0.930 . S
H1429 C1438 0.930 . S
H1430 C1443 0.929 . S
H1431 C1441 0.929 . S
H1432 C1436 0.929 . S
H1433 C1442 0.929 . S
C1434 H1428 0.930 . S
C1434 C1435 1.367 . S
C1434 C1442 1.378 . S
C1435 C1434 1.367 . S
C1435 C1443 1.433 . S
C1436 H1432 0.929 . S
C1436 C1438 1.378 . S
C1436 C1440 1.350 . S
C1437 C1440 1.463 . S
C1437 C1442 1.350 . S
C1437 N1445 1.427 . S
C1438 H1429 0.930 . S
C1438 C1436 1.378 . S
C1438 C1439 1.367 . S
C1439 C1438 1.367 . S
C1439 C1441 1.433 . S
C1440 C1436 1.350 . S
C1440 C1437 1.463 . S
C1440 N1444 1.427 . S
C1441 H1431 0.929 . S
C1441 C1439 1.433 . S
C1441 N1444 1.384 . S
C1442 H1433 0.929 . S
C1442 C1434 1.378 . S
C1442 C1437 1.350 . S
C1443 H1430 0.929 . S
C1443 C1435 1.433 . S
C1443 N1445 1.384 . S
N1444 C1440 1.427 . S
N1444 C1441 1.384 . S
N1445 C1437 1.427 . S
N1445 C1443 1.384 . S
H1446 C1452 0.930 . S
H1447 C1456 0.930 . S
H1448 C1461 0.929 . S
H1449 C1459 0.929 . S
H1450 C1454 0.929 . S
H1451 C1460 0.929 . S
C1452 H1446 0.930 . S
C1452 C1453 1.367 . S
C1452 C1460 1.378 . S
C1453 C1452 1.367 . S
C1453 C1461 1.433 . S
C1454 H1450 0.929 . S
C1454 C1456 1.378 . S
C1454 C1458 1.350 . S
C1455 C1458 1.463 . S
C1455 C1460 1.350 . S
C1455 N1463 1.427 . S
C1456 H1447 0.930 . S
C1456 C1454 1.378 . S
C1456 C1457 1.367 . S
C1457 C1456 1.367 . S
C1457 C1459 1.433 . S
C1458 C1454 1.350 . S
C1458 C1455 1.463 . S
C1458 N1462 1.427 . S
C1459 H1449 0.929 . S
C1459 C1457 1.433 . S
C1459 N1462 1.384 . S
C1460 H1451 0.929 . S
C1460 C1452 1.378 . S
C1460 C1455 1.350 . S
C1461 H1448 0.929 . S
C1461 C1453 1.433 . S
C1461 N1463 1.384 . S
N1462 C1458 1.427 . S
N1462 C1459 1.384 . S
N1463 C1455 1.427 . S
N1463 C1461 1.384 . S
H1464 C1470 0.930 . S
H1465 C1474 0.930 . S
H1466 C1479 0.929 . S
H1467 C1477 0.929 . S
H1468 C1472 0.929 . S
H1469 C1478 0.929 . S
C1470 H1464 0.930 . S
C1470 C1471 1.367 . S
C1470 C1478 1.378 . S
C1471 C1470 1.367 . S
C1471 C1479 1.433 . S
C1472 H1468 0.929 . S
C1472 C1474 1.378 . S
C1472 C1476 1.350 . S
C1473 C1476 1.463 . S
C1473 C1478 1.350 . S
C1473 N1481 1.427 . S
C1474 H1465 0.930 . S
C1474 C1472 1.378 . S
C1474 C1475 1.367 . S
C1475 C1474 1.367 . S
C1475 C1477 1.433 . S
C1476 C1472 1.350 . S
C1476 C1473 1.463 . S
C1476 N1480 1.427 . S
C1477 H1467 0.929 . S
C1477 C1475 1.433 . S
C1477 N1480 1.384 . S
C1478 H1469 0.929 . S
C1478 C1470 1.378 . S
C1478 C1473 1.350 . S
C1479 H1466 0.929 . S
C1479 C1471 1.433 . S
C1479 N1481 1.384 . S
N1480 C1476 1.427 . S
N1480 C1477 1.384 . S
N1481 C1473 1.427 . S
N1481 C1479 1.384 . S
H1482 C1488 0.930 . S
H1483 C1492 0.930 . S
H1484 C1497 0.929 . S
H1485 C1495 0.929 . S
H1486 C1490 0.929 . S
H1487 C1496 0.929 . S
C1488 H1482 0.930 . S
C1488 C1489 1.367 . S
C1488 C1496 1.378 . S
C1489 C1488 1.367 . S
C1489 C1497 1.433 . S
C1490 H1486 0.929 . S
C1490 C1492 1.378 . S
C1490 C1494 1.350 . S
C1491 C1494 1.463 . S
C1491 C1496 1.350 . S
C1491 N1499 1.427 . S
C1492 H1483 0.930 . S
C1492 C1490 1.378 . S
C1492 C1493 1.367 . S
C1493 C1492 1.367 . S
C1493 C1495 1.433 . S
C1494 C1490 1.350 . S
C1494 C1491 1.463 . S
C1494 N1498 1.427 . S
C1495 H1485 0.929 . S
C1495 C1493 1.433 . S
C1495 N1498 1.384 . S
C1496 H1487 0.929 . S
C1496 C1488 1.378 . S
C1496 C1491 1.350 . S
C1497 H1484 0.929 . S
C1497 C1489 1.433 . S
C1497 N1499 1.384 . S
N1498 C1494 1.427 . S
N1498 C1495 1.384 . S
N1499 C1491 1.427 . S
N1499 C1497 1.384 . S
H1500 C1506 0.930 . S
H1501 C1510 0.930 . S
H1502 C1515 0.929 . S
H1503 C1513 0.929 . S
H1504 C1508 0.929 . S
H1505 C1514 0.929 . S
C1506 H1500 0.930 . S
C1506 C1507 1.367 . S
C1506 C1514 1.378 . S
C1507 C1506 1.367 . S
C1507 C1515 1.433 . S
C1508 H1504 0.929 . S
C1508 C1510 1.378 . S
C1508 C1512 1.350 . S
C1509 C1512 1.463 . S
C1509 C1514 1.350 . S
C1509 N1517 1.427 . S
C1510 H1501 0.930 . S
C1510 C1508 1.378 . S
C1510 C1511 1.367 . S
C1511 C1510 1.367 . S
C1511 C1513 1.433 . S
C1512 C1508 1.350 . S
C1512 C1509 1.463 . S
C1512 N1516 1.427 . S
C1513 H1503 0.929 . S
C1513 C1511 1.433 . S
C1513 N1516 1.384 . S
C1514 H1505 0.929 . S
C1514 C1506 1.378 . S
C1514 C1509 1.350 . S
C1515 H1502 0.929 . S
C1515 C1507 1.433 . S
C1515 N1517 1.384 . S
N1516 C1512 1.427 . S
N1516 C1513 1.384 . S
N1517 C1509 1.427 . S
N1517 C1515 1.384 . S
H1518 C1524 0.930 . S
H1519 C1528 0.930 . S
H1520 C1533 0.929 . S
H1521 C1531 0.929 . S
H1522 C1526 0.929 . S
H1523 C1532 0.929 . S
C1524 H1518 0.930 . S
C1524 C1525 1.367 . S
C1524 C1532 1.378 . S
C1525 C1524 1.367 . S
C1525 C1533 1.433 . S
C1526 H1522 0.929 . S
C1526 C1528 1.378 . S
C1526 C1530 1.350 . S
C1527 C1530 1.463 . S
C1527 C1532 1.350 . S
C1527 N1535 1.427 . S
C1528 H1519 0.930 . S
C1528 C1526 1.378 . S
C1528 C1529 1.367 . S
C1529 C1528 1.367 . S
C1529 C1531 1.433 . S
C1530 C1526 1.350 . S
C1530 C1527 1.463 . S
C1530 N1534 1.427 . S
C1531 H1521 0.929 . S
C1531 C1529 1.433 . S
C1531 N1534 1.384 . S
C1532 H1523 0.929 . S
C1532 C1524 1.378 . S
C1532 C1527 1.350 . S
C1533 H1520 0.929 . S
C1533 C1525 1.433 . S
C1533 N1535 1.384 . S
N1534 C1530 1.427 . S
N1534 C1531 1.384 . S
N1535 C1527 1.427 . S
N1535 C1533 1.384 . S
H1536 C1542 0.930 . S
H1537 C1546 0.930 . S
H1538 C1551 0.929 . S
H1539 C1549 0.929 . S
H1540 C1544 0.929 . S
H1541 C1550 0.929 . S
C1542 H1536 0.930 . S
C1542 C1543 1.367 . S
C1542 C1550 1.378 . S
C1543 C1542 1.367 . S
C1543 C1551 1.433 . S
C1544 H1540 0.929 . S
C1544 C1546 1.378 . S
C1544 C1548 1.350 . S
C1545 C1548 1.463 . S
C1545 C1550 1.350 . S
C1545 N1553 1.427 . S
C1546 H1537 0.930 . S
C1546 C1544 1.378 . S
C1546 C1547 1.367 . S
C1547 C1546 1.367 . S
C1547 C1549 1.433 . S
C1548 C1544 1.350 . S
C1548 C1545 1.463 . S
C1548 N1552 1.427 . S
C1549 H1539 0.929 . S
C1549 C1547 1.433 . S
C1549 N1552 1.384 . S
C1550 H1541 0.929 . S
C1550 C1542 1.378 . S
C1550 C1545 1.350 . S
C1551 H1538 0.929 . S
C1551 C1543 1.433 . S
C1551 N1553 1.384 . S
N1552 C1548 1.427 . S
N1552 C1549 1.384 . S
N1553 C1545 1.427 . S
N1553 C1551 1.384 . S
H1554 C1560 0.930 . S
H1555 C1564 0.930 . S
H1556 C1569 0.929 . S
H1557 C1567 0.929 . S
H1558 C1562 0.929 . S
H1559 C1568 0.929 . S
C1560 H1554 0.930 . S
C1560 C1561 1.367 . S
C1560 C1568 1.378 . S
C1561 C1560 1.367 . S
C1561 C1569 1.433 . S
C1562 H1558 0.929 . S
C1562 C1564 1.378 . S
C1562 C1566 1.350 . S
C1563 C1566 1.463 . S
C1563 C1568 1.350 . S
C1563 N1571 1.427 . S
C1564 H1555 0.930 . S
C1564 C1562 1.378 . S
C1564 C1565 1.367 . S
C1565 C1564 1.367 . S
C1565 C1567 1.433 . S
C1566 C1562 1.350 . S
C1566 C1563 1.463 . S
C1566 N1570 1.427 . S
C1567 H1557 0.929 . S
C1567 C1565 1.433 . S
C1567 N1570 1.384 . S
C1568 H1559 0.929 . S
C1568 C1560 1.378 . S
C1568 C1563 1.350 . S
C1569 H1556 0.929 . S
C1569 C1561 1.433 . S
C1569 N1571 1.384 . S
N1570 C1566 1.427 . S
N1570 C1567 1.384 . S
N1571 C1563 1.427 . S
N1571 C1569 1.384 . S
H1572 C1578 0.930 1_655 S
H1573 C1582 0.930 . S
H1574 C1587 0.929 . S
H1575 C1585 0.929 1_556 S
H1576 C1580 0.929 . S
H1577 C1586 0.928 . S
C1578 H1572 0.930 1_455 S
C1578 C1579 1.367 . S
C1578 C1586 1.378 . S
C1579 C1578 1.367 . S
C1579 C1587 1.433 . S
C1580 H1576 0.929 . S
C1580 C1582 1.378 . S
C1580 C1584 1.350 . S
C1581 C1584 1.463 . S
C1581 C1586 1.350 . S
C1581 N1589 1.427 . S
C1582 H1573 0.930 . S
C1582 C1580 1.378 . S
C1582 C1583 1.367 . S
C1583 C1582 1.367 . S
C1583 C1585 1.433 . S
C1584 C1580 1.350 . S
C1584 C1581 1.463 . S
C1584 N1588 1.427 . S
C1585 H1575 0.929 1_554 S
C1585 C1583 1.433 . S
C1585 N1588 1.384 . S
C1586 H1577 0.928 . S
C1586 C1578 1.378 . S
C1586 C1581 1.350 . S
C1587 H1574 0.929 . S
C1587 C1579 1.433 . S
C1587 N1589 1.384 . S
N1588 C1584 1.427 . S
N1588 C1585 1.384 . S
N1589 C1581 1.427 . S
N1589 C1587 1.384 . S
H1590 C1596 0.930 . S
H1591 C1600 0.930 . S
H1592 C1605 0.929 . S
H1593 C1603 0.929 . S
H1594 C1598 0.929 . S
H1595 C1604 0.929 . S
C1596 H1590 0.930 . S
C1596 C1597 1.367 . S
C1596 C1604 1.378 . S
C1597 C1596 1.367 . S
C1597 C1605 1.433 . S
C1598 H1594 0.929 . S
C1598 C1600 1.378 . S
C1598 C1602 1.350 . S
C1599 C1602 1.463 . S
C1599 C1604 1.350 . S
C1599 N1607 1.427 . S
C1600 H1591 0.930 . S
C1600 C1598 1.378 . S
C1600 C1601 1.367 . S
C1601 C1600 1.367 . S
C1601 C1603 1.433 . S
C1602 C1598 1.350 . S
C1602 C1599 1.463 . S
C1602 N1606 1.427 . S
C1603 H1593 0.929 . S
C1603 C1601 1.433 . S
C1603 N1606 1.384 . S
C1604 H1595 0.929 . S
C1604 C1596 1.378 . S
C1604 C1599 1.350 . S
C1605 H1592 0.929 . S
C1605 C1597 1.433 . S
C1605 N1607 1.384 . S
N1606 C1602 1.427 . S
N1606 C1603 1.384 . S
N1607 C1599 1.427 . S
N1607 C1605 1.384 . S
H1608 C1614 0.930 . S
H1609 C1618 0.929 1_554 S
H1610 C1623 0.929 . S
H1611 C1621 0.929 . S
H1612 C1616 0.929 . S
H1613 C1622 0.929 . S
C1614 H1608 0.930 . S
C1614 C1615 1.367 . S
C1614 C1622 1.378 . S
C1615 C1614 1.367 . S
C1615 C1623 1.433 . S
C1616 H1612 0.929 . S
C1616 C1618 1.378 . S
C1616 C1620 1.350 . S
C1617 C1620 1.463 . S
C1617 C1622 1.350 . S
C1617 N1625 1.427 . S
C1618 H1609 0.929 1_556 S
C1618 C1616 1.378 . S
C1618 C1619 1.367 . S
C1619 C1618 1.367 . S
C1619 C1621 1.433 . S
C1620 C1616 1.350 . S
C1620 C1617 1.463 . S
C1620 N1624 1.427 . S
C1621 H1611 0.929 . S
C1621 C1619 1.433 . S
C1621 N1624 1.384 . S
C1622 H1613 0.929 . S
C1622 C1614 1.378 . S
C1622 C1617 1.350 . S
C1623 H1610 0.929 . S
C1623 C1615 1.433 . S
C1623 N1625 1.384 . S
N1624 C1620 1.427 . S
N1624 C1621 1.384 . S
N1625 C1617 1.427 . S
N1625 C1623 1.384 . S
H1626 C1632 0.930 . S
H1627 C1636 0.930 . S
H1628 C1641 0.929 . S
H1629 C1639 0.929 . S
H1630 C1634 0.929 . S
H1631 C1640 0.929 . S
C1632 H1626 0.930 . S
C1632 C1633 1.367 . S
C1632 C1640 1.378 . S
C1633 C1632 1.367 . S
C1633 C1641 1.433 . S
C1634 H1630 0.929 . S
C1634 C1636 1.378 . S
C1634 C1638 1.350 . S
C1635 C1638 1.463 . S
C1635 C1640 1.350 . S
C1635 N1643 1.427 . S
C1636 H1627 0.930 . S
C1636 C1634 1.378 . S
C1636 C1637 1.367 . S
C1637 C1636 1.367 . S
C1637 C1639 1.433 . S
C1638 C1634 1.350 . S
C1638 C1635 1.463 . S
C1638 N1642 1.427 . S
C1639 H1629 0.929 . S
C1639 C1637 1.433 . S
C1639 N1642 1.384 . S
C1640 H1631 0.929 . S
C1640 C1632 1.378 . S
C1640 C1635 1.350 . S
C1641 H1628 0.929 . S
C1641 C1633 1.433 . S
C1641 N1643 1.384 . S
N1642 C1638 1.427 . S
N1642 C1639 1.384 . S
N1643 C1635 1.427 . S
N1643 C1641 1.384 . S
H1644 C1650 0.930 . S
H1645 C1654 0.930 . S
H1646 C1659 0.929 . S
H1647 C1657 0.929 . S
H1648 C1652 0.929 . S
H1649 C1658 0.929 . S
C1650 H1644 0.930 . S
C1650 C1651 1.367 . S
C1650 C1658 1.378 . S
C1651 C1650 1.367 . S
C1651 C1659 1.433 1_455 S
C1652 H1648 0.929 . S
C1652 C1654 1.378 . S
C1652 C1656 1.350 1_655 S
C1653 C1656 1.463 . S
C1653 C1658 1.350 . S
C1653 N1661 1.427 1_455 S
C1654 H1645 0.930 . S
C1654 C1652 1.378 . S
C1654 C1655 1.367 1_655 S
C1655 C1654 1.367 1_455 S
C1655 C1657 1.433 . S
C1656 C1652 1.350 1_455 S
C1656 C1653 1.463 . S
C1656 N1660 1.427 . S
C1657 H1647 0.929 . S
C1657 C1655 1.433 . S
C1657 N1660 1.384 . S
C1658 H1649 0.929 . S
C1658 C1650 1.378 . S
C1658 C1653 1.350 . S
C1659 H1646 0.929 . S
C1659 C1651 1.433 1_655 S
C1659 N1661 1.384 . S
N1660 C1656 1.427 . S
N1660 C1657 1.384 . S
N1661 C1653 1.427 1_655 S
N1661 C1659 1.384 . S
H1662 C1668 0.930 . S
H1663 C1672 0.930 . S
H1664 C1677 0.929 . S
H1665 C1675 0.929 . S
H1666 C1670 0.929 . S
H1667 C1676 0.929 . S
C1668 H1662 0.930 . S
C1668 C1669 1.367 . S
C1668 C1676 1.378 . S
C1669 C1668 1.367 . S
C1669 C1677 1.433 . S
C1670 H1666 0.929 . S
C1670 C1672 1.378 . S
C1670 C1674 1.350 . S
C1671 C1674 1.463 . S
C1671 C1676 1.350 . S
C1671 N1679 1.427 . S
C1672 H1663 0.930 . S
C1672 C1670 1.378 . S
C1672 C1673 1.367 . S
C1673 C1672 1.367 . S
C1673 C1675 1.433 . S
C1674 C1670 1.350 . S
C1674 C1671 1.463 . S
C1674 N1678 1.427 . S
C1675 H1665 0.929 . S
C1675 C1673 1.433 . S
C1675 N1678 1.384 . S
C1676 H1667 0.929 . S
C1676 C1668 1.378 . S
C1676 C1671 1.350 . S
C1677 H1664 0.929 . S
C1677 C1669 1.433 . S
C1677 N1679 1.384 . S
N1678 C1674 1.427 . S
N1678 C1675 1.384 . S
N1679 C1671 1.427 . S
N1679 C1677 1.384 . S
H1680 C1686 0.930 . S
H1681 C1690 0.930 . S
H1682 C1695 0.929 . S
H1683 C1693 0.929 . S
H1684 C1688 0.929 . S
H1685 C1694 0.929 . S
C1686 H1680 0.930 . S
C1686 C1687 1.367 . S
C1686 C1694 1.378 . S
C1687 C1686 1.367 . S
C1687 C1695 1.433 . S
C1688 H1684 0.929 . S
C1688 C1690 1.378 . S
C1688 C1692 1.350 . S
C1689 C1692 1.463 . S
C1689 C1694 1.350 . S
C1689 N1697 1.427 . S
C1690 H1681 0.930 . S
C1690 C1688 1.378 . S
C1690 C1691 1.367 . S
C1691 C1690 1.367 . S
C1691 C1693 1.433 . S
C1692 C1688 1.350 . S
C1692 C1689 1.463 . S
C1692 N1696 1.427 . S
C1693 H1683 0.929 . S
C1693 C1691 1.433 . S
C1693 N1696 1.384 . S
C1694 H1685 0.929 . S
C1694 C1686 1.378 . S
C1694 C1689 1.350 . S
C1695 H1682 0.929 . S
C1695 C1687 1.433 . S
C1695 N1697 1.384 . S
N1696 C1692 1.427 . S
N1696 C1693 1.384 . S
N1697 C1689 1.427 . S
N1697 C1695 1.384 . S
H1698 C1704 0.930 . S
H1699 C1708 0.930 . S
H1700 C1713 0.929 . S
H1701 C1711 0.929 . S
H1702 C1706 0.929 . S
H1703 C1712 0.929 . S
C1704 H1698 0.930 . S
C1704 C1705 1.367 . S
C1704 C1712 1.378 . S
C1705 C1704 1.367 . S
C1705 C1713 1.433 . S
C1706 H1702 0.929 . S
C1706 C1708 1.378 . S
C1706 C1710 1.350 . S
C1707 C1710 1.463 . S
C1707 C1712 1.350 . S
C1707 N1715 1.427 . S
C1708 H1699 0.930 . S
C1708 C1706 1.378 . S
C1708 C1709 1.367 . S
C1709 C1708 1.367 . S
C1709 C1711 1.433 . S
C1710 C1706 1.350 . S
C1710 C1707 1.463 . S
C1710 N1714 1.427 . S
C1711 H1701 0.929 . S
C1711 C1709 1.433 . S
C1711 N1714 1.384 . S
C1712 H1703 0.929 . S
C1712 C1704 1.378 . S
C1712 C1707 1.350 . S
C1713 H1700 0.929 . S
C1713 C1705 1.433 . S
C1713 N1715 1.384 . S
N1714 C1710 1.427 . S
N1714 C1711 1.384 . S
N1715 C1707 1.427 . S
N1715 C1713 1.384 . S
H1716 C1722 0.930 . S
H1717 C1726 0.930 . S
H1718 C1731 0.929 . S
H1719 C1729 0.929 1_455 S
H1720 C1724 0.929 . S
H1721 C1730 0.929 . S
C1722 H1716 0.930 . S
C1722 C1723 1.367 . S
C1722 C1730 1.378 . S
C1723 C1722 1.367 . S
C1723 C1731 1.433 . S
C1724 H1720 0.929 . S
C1724 C1726 1.378 . S
C1724 C1728 1.350 . S
C1725 C1728 1.463 . S
C1725 C1730 1.350 . S
C1725 N1733 1.427 . S
C1726 H1717 0.930 . S
C1726 C1724 1.378 . S
C1726 C1727 1.367 . S
C1727 C1726 1.367 . S
C1727 C1729 1.433 . S
C1728 C1724 1.350 . S
C1728 C1725 1.463 . S
C1728 N1732 1.427 . S
C1729 H1719 0.929 1_655 S
C1729 C1727 1.433 . S
C1729 N1732 1.384 . S
C1730 H1721 0.929 . S
C1730 C1722 1.378 . S
C1730 C1725 1.350 . S
C1731 H1718 0.929 . S
C1731 C1723 1.433 . S
C1731 N1733 1.384 . S
N1732 C1728 1.427 . S
N1732 C1729 1.384 . S
N1733 C1725 1.427 . S
N1733 C1731 1.384 . S
H1734 C1740 0.930 . S
H1735 C1744 0.930 . S
H1736 C1749 0.929 . S
H1737 C1747 0.929 . S
H1738 C1742 0.929 . S
H1739 C1748 0.929 . S
C1740 H1734 0.930 . S
C1740 C1741 1.367 . S
C1740 C1748 1.378 . S
C1741 C1740 1.367 . S
C1741 C1749 1.433 . S
C1742 H1738 0.929 . S
C1742 C1744 1.378 . S
C1742 C1746 1.350 . S
C1743 C1746 1.463 . S
C1743 C1748 1.350 . S
C1743 N1751 1.427 . S
C1744 H1735 0.930 . S
C1744 C1742 1.378 . S
C1744 C1745 1.367 . S
C1745 C1744 1.367 . S
C1745 C1747 1.433 . S
C1746 C1742 1.350 . S
C1746 C1743 1.463 . S
C1746 N1750 1.427 . S
C1747 H1737 0.929 . S
C1747 C1745 1.433 . S
C1747 N1750 1.384 . S
C1748 H1739 0.929 . S
C1748 C1740 1.378 . S
C1748 C1743 1.350 . S
C1749 H1736 0.929 . S
C1749 C1741 1.433 . S
C1749 N1751 1.384 . S
N1750 C1746 1.427 . S
N1750 C1747 1.384 . S
N1751 C1743 1.427 . S
N1751 C1749 1.384 . S
H1752 C1758 0.930 . S
H1753 C1762 0.930 . S
H1754 C1767 0.929 . S
H1755 C1765 0.929 . S
H1756 C1760 0.929 . S
H1757 C1766 0.929 . S
C1758 H1752 0.930 . S
C1758 C1759 1.367 . S
C1758 C1766 1.378 . S
C1759 C1758 1.367 . S
C1759 C1767 1.433 . S
C1760 H1756 0.929 . S
C1760 C1762 1.378 . S
C1760 C1764 1.350 . S
C1761 C1764 1.463 . S
C1761 C1766 1.350 . S
C1761 N1769 1.427 . S
C1762 H1753 0.930 . S
C1762 C1760 1.378 . S
C1762 C1763 1.367 . S
C1763 C1762 1.367 . S
C1763 C1765 1.433 . S
C1764 C1760 1.350 . S
C1764 C1761 1.463 . S
C1764 N1768 1.427 . S
C1765 H1755 0.929 . S
C1765 C1763 1.433 . S
C1765 N1768 1.384 . S
C1766 H1757 0.929 . S
C1766 C1758 1.378 . S
C1766 C1761 1.350 . S
C1767 H1754 0.929 . S
C1767 C1759 1.433 . S
C1767 N1769 1.384 . S
N1768 C1764 1.427 . S
N1768 C1765 1.384 . S
N1769 C1761 1.427 . S
N1769 C1767 1.384 . S
H1770 C1776 0.930 . S
H1771 C1780 0.930 . S
H1772 C1785 0.929 . S
H1773 C1783 0.929 . S
H1774 C1778 0.929 . S
H1775 C1784 0.929 . S
C1776 H1770 0.930 . S
C1776 C1777 1.367 . S
C1776 C1784 1.378 . S
C1777 C1776 1.367 . S
C1777 C1785 1.433 . S
C1778 H1774 0.929 . S
C1778 C1780 1.378 . S
C1778 C1782 1.350 . S
C1779 C1782 1.463 . S
C1779 C1784 1.350 . S
C1779 N1787 1.427 . S
C1780 H1771 0.930 . S
C1780 C1778 1.378 . S
C1780 C1781 1.367 . S
C1781 C1780 1.367 . S
C1781 C1783 1.433 . S
C1782 C1778 1.350 . S
C1782 C1779 1.463 . S
C1782 N1786 1.427 . S
C1783 H1773 0.929 . S
C1783 C1781 1.433 . S
C1783 N1786 1.384 . S
C1784 H1775 0.929 . S
C1784 C1776 1.378 . S
C1784 C1779 1.350 . S
C1785 H1772 0.929 . S
C1785 C1777 1.433 . S
C1785 N1787 1.384 . S
N1786 C1782 1.427 . S
N1786 C1783 1.384 . S
N1787 C1779 1.427 . S
N1787 C1785 1.384 . S
H1788 C1794 0.930 . S
H1789 C1798 0.930 . S
H1790 C1803 0.929 . S
H1791 C1801 0.929 . S
H1792 C1796 0.929 . S
H1793 C1802 0.929 . S
C1794 H1788 0.930 . S
C1794 C1795 1.367 . S
C1794 C1802 1.378 . S
C1795 C1794 1.367 . S
C1795 C1803 1.433 . S
C1796 H1792 0.929 . S
C1796 C1798 1.378 . S
C1796 C1800 1.350 . S
C1797 C1800 1.463 . S
C1797 C1802 1.350 . S
C1797 N1805 1.427 . S
C1798 H1789 0.930 . S
C1798 C1796 1.378 . S
C1798 C1799 1.367 . S
C1799 C1798 1.367 . S
C1799 C1801 1.433 . S
C1800 C1796 1.350 . S
C1800 C1797 1.463 . S
C1800 N1804 1.427 . S
C1801 H1791 0.929 . S
C1801 C1799 1.433 . S
C1801 N1804 1.384 . S
C1802 H1793 0.929 . S
C1802 C1794 1.378 . S
C1802 C1797 1.350 . S
C1803 H1790 0.929 . S
C1803 C1795 1.433 . S
C1803 N1805 1.384 . S
N1804 C1800 1.427 . S
N1804 C1801 1.384 . S
N1805 C1797 1.427 . S
N1805 C1803 1.384 . S
H1806 C1812 0.930 . S
H1807 C1816 0.930 . S
H1808 C1821 0.929 . S
H1809 C1819 0.929 . S
H1810 C1814 0.929 . S
H1811 C1820 0.929 . S
C1812 H1806 0.930 . S
C1812 C1813 1.367 . S
C1812 C1820 1.378 . S
C1813 C1812 1.367 . S
C1813 C1821 1.433 . S
C1814 H1810 0.929 . S
C1814 C1816 1.378 . S
C1814 C1818 1.350 . S
C1815 C1818 1.463 . S
C1815 C1820 1.350 . S
C1815 N1823 1.427 . S
C1816 H1807 0.930 . S
C1816 C1814 1.378 . S
C1816 C1817 1.367 . S
C1817 C1816 1.367 . S
C1817 C1819 1.433 . S
C1818 C1814 1.350 . S
C1818 C1815 1.463 . S
C1818 N1822 1.427 . S
C1819 H1809 0.929 . S
C1819 C1817 1.433 . S
C1819 N1822 1.384 . S
C1820 H1811 0.929 . S
C1820 C1812 1.378 . S
C1820 C1815 1.350 . S
C1821 H1808 0.929 . S
C1821 C1813 1.433 . S
C1821 N1823 1.384 . S
N1822 C1818 1.427 . S
N1822 C1819 1.384 . S
N1823 C1815 1.427 . S
N1823 C1821 1.384 . S
H1824 C1830 0.930 . S
H1825 C1834 0.930 . S
H1826 C1839 0.929 . S
H1827 C1837 0.929 . S
H1828 C1832 0.929 . S
H1829 C1838 0.929 . S
C1830 H1824 0.930 . S
C1830 C1831 1.367 . S
C1830 C1838 1.378 . S
C1831 C1830 1.367 . S
C1831 C1839 1.433 . S
C1832 H1828 0.929 . S
C1832 C1834 1.378 . S
C1832 C1836 1.350 . S
C1833 C1836 1.463 . S
C1833 C1838 1.350 . S
C1833 N1841 1.427 . S
C1834 H1825 0.930 . S
C1834 C1832 1.378 . S
C1834 C1835 1.367 . S
C1835 C1834 1.367 . S
C1835 C1837 1.433 . S
C1836 C1832 1.350 . S
C1836 C1833 1.463 . S
C1836 N1840 1.427 . S
C1837 H1827 0.929 . S
C1837 C1835 1.433 . S
C1837 N1840 1.384 . S
C1838 H1829 0.929 . S
C1838 C1830 1.378 . S
C1838 C1833 1.350 . S
C1839 H1826 0.929 . S
C1839 C1831 1.433 . S
C1839 N1841 1.384 . S
N1840 C1836 1.427 . S
N1840 C1837 1.384 . S
N1841 C1833 1.427 . S
N1841 C1839 1.384 . S
H1842 C1848 0.930 . S
H1843 C1852 0.930 . S
H1844 C1857 0.929 . S
H1845 C1855 0.929 . S
H1846 C1850 0.929 . S
H1847 C1856 0.929 . S
C1848 H1842 0.930 . S
C1848 C1849 1.367 . S
C1848 C1856 1.378 . S
C1849 C1848 1.367 . S
C1849 C1857 1.433 . S
C1850 H1846 0.929 . S
C1850 C1852 1.378 . S
C1850 C1854 1.350 . S
C1851 C1854 1.463 . S
C1851 C1856 1.350 . S
C1851 N1859 1.427 . S
C1852 H1843 0.930 . S
C1852 C1850 1.378 . S
C1852 C1853 1.367 . S
C1853 C1852 1.367 . S
C1853 C1855 1.433 . S
C1854 C1850 1.350 . S
C1854 C1851 1.463 . S
C1854 N1858 1.427 . S
C1855 H1845 0.929 . S
C1855 C1853 1.433 . S
C1855 N1858 1.384 . S
C1856 H1847 0.929 . S
C1856 C1848 1.378 . S
C1856 C1851 1.350 . S
C1857 H1844 0.929 . S
C1857 C1849 1.433 . S
C1857 N1859 1.384 . S
N1858 C1854 1.427 . S
N1858 C1855 1.384 . S
N1859 C1851 1.427 . S
N1859 C1857 1.384 . S
H1860 C1866 0.930 . S
H1861 C1870 0.930 . S
H1862 C1875 0.929 . S
H1863 C1873 0.929 . S
H1864 C1868 0.929 . S
H1865 C1874 0.929 . S
C1866 H1860 0.930 . S
C1866 C1867 1.367 . S
C1866 C1874 1.378 . S
C1867 C1866 1.367 . S
C1867 C1875 1.433 . S
C1868 H1864 0.929 . S
C1868 C1870 1.378 . S
C1868 C1872 1.350 . S
C1869 C1872 1.463 . S
C1869 C1874 1.350 . S
C1869 N1877 1.427 . S
C1870 H1861 0.930 . S
C1870 C1868 1.378 . S
C1870 C1871 1.367 . S
C1871 C1870 1.367 . S
C1871 C1873 1.433 . S
C1872 C1868 1.350 . S
C1872 C1869 1.463 . S
C1872 N1876 1.427 . S
C1873 H1863 0.929 . S
C1873 C1871 1.433 . S
C1873 N1876 1.384 . S
C1874 H1865 0.929 . S
C1874 C1866 1.378 . S
C1874 C1869 1.350 . S
C1875 H1862 0.929 . S
C1875 C1867 1.433 . S
C1875 N1877 1.384 . S
N1876 C1872 1.427 . S
N1876 C1873 1.384 . S
N1877 C1869 1.427 . S
N1877 C1875 1.384 . S
H1878 C1884 0.930 . S
H1879 C1888 0.930 . S
H1880 C1893 0.929 . S
H1881 C1891 0.929 . S
H1882 C1886 0.929 . S
H1883 C1892 0.929 . S
C1884 H1878 0.930 . S
C1884 C1885 1.367 1_556 S
C1884 C1892 1.378 . S
C1885 C1884 1.367 1_554 S
C1885 C1893 1.433 . S
C1886 H1882 0.929 . S
C1886 C1888 1.378 . S
C1886 C1890 1.350 . S
C1887 C1890 1.463 . S
C1887 C1892 1.350 1_554 S
C1887 N1895 1.427 . S
C1888 H1879 0.930 . S
C1888 C1886 1.378 . S
C1888 C1889 1.367 . S
C1889 C1888 1.367 . S
C1889 C1891 1.433 1_554 S
C1890 C1886 1.350 . S
C1890 C1887 1.463 . S
C1890 N1894 1.427 1_554 S
C1891 H1881 0.929 . S
C1891 C1889 1.433 1_556 S
C1891 N1894 1.384 . S
C1892 H1883 0.929 . S
C1892 C1884 1.378 . S
C1892 C1887 1.350 1_556 S
C1893 H1880 0.929 . S
C1893 C1885 1.433 . S
C1893 N1895 1.384 . S
N1894 C1890 1.427 1_556 S
N1894 C1891 1.384 . S
N1895 C1887 1.427 . S
N1895 C1893 1.384 . S
H1896 C1902 0.930 . S
H1897 C1906 0.930 . S
H1898 C1911 0.929 . S
H1899 C1909 0.929 . S
H1900 C1904 0.929 . S
H1901 C1910 0.929 . S
C1902 H1896 0.930 . S
C1902 C1903 1.367 . S
C1902 C1910 1.378 . S
C1903 C1902 1.367 . S
C1903 C1911 1.433 . S
C1904 H1900 0.929 . S
C1904 C1906 1.378 . S
C1904 C1908 1.350 . S
C1905 C1908 1.463 . S
C1905 C1910 1.350 . S
C1905 N1913 1.427 . S
C1906 H1897 0.930 . S
C1906 C1904 1.378 . S
C1906 C1907 1.367 . S
C1907 C1906 1.367 . S
C1907 C1909 1.433 . S
C1908 C1904 1.350 . S
C1908 C1905 1.463 . S
C1908 N1912 1.427 . S
C1909 H1899 0.929 . S
C1909 C1907 1.433 . S
C1909 N1912 1.384 . S
C1910 H1901 0.929 . S
C1910 C1902 1.378 . S
C1910 C1905 1.350 . S
C1911 H1898 0.929 . S
C1911 C1903 1.433 . S
C1911 N1913 1.384 . S
N1912 C1908 1.427 . S
N1912 C1909 1.384 . S
N1913 C1905 1.427 . S
N1913 C1911 1.384 . S
H1914 C1920 0.930 . S
H1915 C1924 0.930 . S
H1916 C1929 0.929 . S
H1917 C1927 0.929 . S
H1918 C1922 0.929 . S
H1919 C1928 0.929 . S
C1920 H1914 0.930 . S
C1920 C1921 1.367 . S
C1920 C1928 1.378 . S
C1921 C1920 1.367 . S
C1921 C1929 1.433 1_554 S
C1922 H1918 0.929 . S
C1922 C1924 1.378 . S
C1922 C1926 1.350 . S
C1923 C1926 1.459 1_554 S
C1923 C1928 1.379 . S
C1923 N1931 1.400 1_554 S
C1924 H1915 0.930 . S
C1924 C1922 1.378 . S
C1924 C1925 1.367 . S
C1925 C1924 1.367 . S
C1925 C1927 1.433 1_556 S
C1926 C1922 1.350 . S
C1926 C1923 1.459 1_556 S
C1926 N1930 1.427 1_556 S
C1927 H1917 0.929 . S
C1927 C1925 1.433 1_554 S
C1927 N1930 1.384 . S
C1928 H1919 0.929 . S
C1928 C1920 1.378 . S
C1928 C1923 1.379 . S
C1929 H1916 0.929 . S
C1929 C1921 1.433 1_556 S
C1929 N1931 1.384 . S
N1930 C1926 1.427 1_554 S
N1930 C1927 1.384 . S
N1931 C1923 1.400 1_556 S
N1931 C1929 1.384 . S
H1932 C1938 0.930 . S
H1933 C1942 0.930 . S
H1934 C1947 0.929 . S
H1935 C1945 0.929 . S
H1936 C1940 0.929 . S
H1937 C1946 0.929 . S
C1938 H1932 0.930 . S
C1938 C1939 1.367 . S
C1938 C1946 1.378 . S
C1939 C1938 1.367 . S
C1939 C1947 1.433 . S
C1940 H1936 0.929 . S
C1940 C1942 1.378 . S
C1940 C1944 1.350 . S
C1941 C1944 1.463 . S
C1941 C1946 1.350 . S
C1941 N1949 1.427 . S
C1942 H1933 0.930 . S
C1942 C1940 1.378 . S
C1942 C1943 1.367 . S
C1943 C1942 1.367 . S
C1943 C1945 1.433 . S
C1944 C1940 1.350 . S
C1944 C1941 1.463 . S
C1944 N1948 1.427 . S
C1945 H1935 0.929 . S
C1945 C1943 1.433 . S
C1945 N1948 1.384 . S
C1946 H1937 0.929 . S
C1946 C1938 1.378 . S
C1946 C1941 1.350 . S
C1947 H1934 0.929 . S
C1947 C1939 1.433 . S
C1947 N1949 1.384 . S
N1948 C1944 1.427 . S
N1948 C1945 1.384 . S
N1949 C1941 1.427 . S
N1949 C1947 1.384 . S
H1950 C1956 0.930 . S
H1951 C1960 0.930 . S
H1952 C1965 0.929 . S
H1953 C1963 0.929 . S
H1954 C1958 0.929 . S
H1955 C1964 0.929 . S
C1956 H1950 0.930 . S
C1956 C1957 1.367 . S
C1956 C1964 1.378 . S
C1957 C1956 1.367 . S
C1957 C1965 1.433 . S
C1958 H1954 0.929 . S
C1958 C1960 1.378 . S
C1958 C1962 1.350 . S
C1959 C1962 1.463 . S
C1959 C1964 1.350 . S
C1959 N1967 1.427 . S
C1960 H1951 0.930 . S
C1960 C1958 1.378 . S
C1960 C1961 1.367 . S
C1961 C1960 1.367 . S
C1961 C1963 1.433 . S
C1962 C1958 1.350 . S
C1962 C1959 1.463 . S
C1962 N1966 1.427 . S
C1963 H1953 0.929 . S
C1963 C1961 1.433 . S
C1963 N1966 1.384 . S
C1964 H1955 0.929 . S
C1964 C1956 1.378 . S
C1964 C1959 1.350 . S
C1965 H1952 0.929 . S
C1965 C1957 1.433 . S
C1965 N1967 1.384 . S
N1966 C1962 1.427 . S
N1966 C1963 1.384 . S
N1967 C1959 1.427 . S
N1967 C1965 1.384 . S
H1968 C1974 0.930 . S
H1969 C1978 0.930 . S
H1970 C1983 0.929 . S
H1971 C1981 0.929 . S
H1972 C1976 0.929 . S
H1973 C1982 0.929 . S
C1974 H1968 0.930 . S
C1974 C1975 1.367 . S
C1974 C1982 1.378 . S
C1975 C1974 1.367 . S
C1975 C1983 1.433 . S
C1976 H1972 0.929 . S
C1976 C1978 1.378 . S
C1976 C1980 1.350 . S
C1977 C1980 1.463 . S
C1977 C1982 1.350 . S
C1977 N1985 1.427 . S
C1978 H1969 0.930 . S
C1978 C1976 1.378 . S
C1978 C1979 1.367 . S
C1979 C1978 1.367 . S
C1979 C1981 1.433 . S
C1980 C1976 1.350 . S
C1980 C1977 1.463 . S
C1980 N1984 1.427 . S
C1981 H1971 0.929 . S
C1981 C1979 1.433 . S
C1981 N1984 1.384 . S
C1982 H1973 0.929 . S
C1982 C1974 1.378 . S
C1982 C1977 1.350 . S
C1983 H1970 0.929 . S
C1983 C1975 1.433 . S
C1983 N1985 1.384 . S
N1984 C1980 1.427 . S
N1984 C1981 1.384 . S
N1985 C1977 1.427 . S
N1985 C1983 1.384 . S
H1986 C1992 0.930 . S
H1987 C1996 0.930 . S
H1988 C2001 0.929 . S
H1989 C1999 0.929 . S
H1990 C1994 0.929 . S
H1991 C2000 0.929 . S
C1992 H1986 0.930 . S
C1992 C1993 1.367 . S
C1992 C2000 1.378 . S
C1993 C1992 1.367 . S
C1993 C2001 1.433 . S
C1994 H1990 0.929 . S
C1994 C1996 1.378 . S
C1994 C1998 1.350 . S
C1995 C1998 1.463 . S
C1995 C2000 1.350 . S
C1995 N2003 1.427 . S
C1996 H1987 0.930 . S
C1996 C1994 1.378 . S
C1996 C1997 1.367 . S
C1997 C1996 1.367 . S
C1997 C1999 1.433 . S
C1998 C1994 1.350 . S
C1998 C1995 1.463 . S
C1998 N2002 1.427 . S
C1999 H1989 0.929 . S
C1999 C1997 1.433 . S
C1999 N2002 1.384 . S
C2000 H1991 0.929 . S
C2000 C1992 1.378 . S
C2000 C1995 1.350 . S
C2001 H1988 0.929 . S
C2001 C1993 1.433 . S
C2001 N2003 1.384 . S
N2002 C1998 1.427 . S
N2002 C1999 1.384 . S
N2003 C1995 1.427 . S
N2003 C2001 1.384 . S
H2004 C2010 0.930 . S
H2005 C2014 0.930 . S
H2006 C2019 0.929 . S
H2007 C2017 0.929 . S
H2008 C2012 0.929 . S
H2009 C2018 0.929 . S
C2010 H2004 0.930 . S
C2010 C2011 1.367 . S
C2010 C2018 1.378 . S
C2011 C2010 1.367 . S
C2011 C2019 1.433 1_455 S
C2012 H2008 0.929 . S
C2012 C2014 1.378 . S
C2012 C2016 1.345 1_655 S
C2013 C2016 1.463 . S
C2013 C2018 1.350 . S
C2013 N2021 1.427 1_455 S
C2014 H2005 0.930 . S
C2014 C2012 1.378 . S
C2014 C2015 1.367 . S
C2015 C2014 1.367 . S
C2015 C2017 1.433 1_655 S
C2016 C2012 1.345 1_455 S
C2016 C2013 1.463 . S
C2016 N2020 1.432 . S
C2017 H2007 0.929 . S
C2017 C2015 1.433 1_455 S
C2017 N2020 1.384 . S
C2018 H2009 0.929 . S
C2018 C2010 1.378 . S
C2018 C2013 1.350 . S
C2019 H2006 0.929 . S
C2019 C2011 1.433 1_655 S
C2019 N2021 1.384 . S
N2020 C2016 1.432 . S
N2020 C2017 1.384 . S
N2021 C2013 1.427 1_655 S
N2021 C2019 1.384 . S
H2022 C2028 0.930 . S
H2023 C2032 0.930 . S
H2024 C2037 0.929 . S
H2025 C2035 0.929 . S
H2026 C2030 0.929 . S
H2027 C2036 0.929 . S
C2028 H2022 0.930 . S
C2028 C2029 1.367 . S
C2028 C2036 1.378 . S
C2029 C2028 1.367 . S
C2029 C2037 1.433 . S
C2030 H2026 0.929 . S
C2030 C2032 1.378 . S
C2030 C2034 1.350 . S
C2031 C2034 1.463 . S
C2031 C2036 1.350 . S
C2031 N2039 1.427 . S
C2032 H2023 0.930 . S
C2032 C2030 1.378 . S
C2032 C2033 1.367 . S
C2033 C2032 1.367 . S
C2033 C2035 1.433 . S
C2034 C2030 1.350 . S
C2034 C2031 1.463 . S
C2034 N2038 1.427 . S
C2035 H2025 0.929 . S
C2035 C2033 1.433 . S
C2035 N2038 1.384 . S
C2036 H2027 0.929 . S
C2036 C2028 1.378 . S
C2036 C2031 1.350 . S
C2037 H2024 0.929 . S
C2037 C2029 1.433 . S
C2037 N2039 1.384 . S
N2038 C2034 1.427 . S
N2038 C2035 1.384 . S
N2039 C2031 1.427 . S
N2039 C2037 1.384 . S
H2040 C2046 0.930 . S
H2041 C2050 0.930 . S
H2042 C2055 0.929 . S
H2043 C2053 0.929 . S
H2044 C2048 0.929 . S
H2045 C2054 0.929 . S
C2046 H2040 0.930 . S
C2046 C2047 1.367 . S
C2046 C2054 1.378 . S
C2047 C2046 1.367 . S
C2047 C2055 1.433 . S
C2048 H2044 0.929 . S
C2048 C2050 1.378 . S
C2048 C2052 1.350 . S
C2049 C2052 1.463 . S
C2049 C2054 1.350 . S
C2049 N2057 1.427 . S
C2050 H2041 0.930 . S
C2050 C2048 1.378 . S
C2050 C2051 1.367 . S
C2051 C2050 1.367 . S
C2051 C2053 1.433 . S
C2052 C2048 1.350 . S
C2052 C2049 1.463 . S
C2052 N2056 1.427 . S
C2053 H2043 0.929 . S
C2053 C2051 1.433 . S
C2053 N2056 1.384 . S
C2054 H2045 0.929 . S
C2054 C2046 1.378 . S
C2054 C2049 1.350 . S
C2055 H2042 0.929 . S
C2055 C2047 1.433 . S
C2055 N2057 1.384 . S
N2056 C2052 1.427 . S
N2056 C2053 1.384 . S
N2057 C2049 1.427 . S
N2057 C2055 1.384 . S
H2058 C2064 0.930 . S
H2059 C2068 0.930 . S
H2060 C2073 0.929 . S
H2061 C2071 0.929 . S
H2062 C2066 0.929 . S
H2063 C2072 0.929 . S
C2064 H2058 0.930 . S
C2064 C2065 1.367 . S
C2064 C2072 1.378 . S
C2065 C2064 1.367 . S
C2065 C2073 1.433 . S
C2066 H2062 0.929 . S
C2066 C2068 1.378 . S
C2066 C2070 1.350 . S
C2067 C2070 1.463 . S
C2067 C2072 1.350 . S
C2067 N2075 1.427 . S
C2068 H2059 0.930 . S
C2068 C2066 1.378 . S
C2068 C2069 1.367 . S
C2069 C2068 1.367 . S
C2069 C2071 1.433 . S
C2070 C2066 1.350 . S
C2070 C2067 1.463 . S
C2070 N2074 1.427 . S
C2071 H2061 0.929 . S
C2071 C2069 1.433 . S
C2071 N2074 1.384 . S
C2072 H2063 0.929 . S
C2072 C2064 1.378 . S
C2072 C2067 1.350 . S
C2073 H2060 0.929 . S
C2073 C2065 1.433 . S
C2073 N2075 1.384 . S
N2074 C2070 1.427 . S
N2074 C2071 1.384 . S
N2075 C2067 1.427 . S
N2075 C2073 1.384 . S
H2076 C2082 0.930 . S
H2077 C2086 0.930 . S
H2078 C2091 0.929 . S
H2079 C2089 0.929 . S
H2080 C2084 0.929 . S
H2081 C2090 0.929 . S
C2082 H2076 0.930 . S
C2082 C2083 1.367 . S
C2082 C2090 1.378 . S
C2083 C2082 1.367 . S
C2083 C2091 1.433 1_455 S
C2084 H2080 0.929 . S
C2084 C2086 1.378 . S
C2084 C2088 1.350 . S
C2085 C2088 1.458 1_455 S
C2085 C2090 1.364 . S
C2085 N2093 1.418 1_455 S
C2086 H2077 0.930 . S
C2086 C2084 1.378 . S
C2086 C2087 1.367 . S
C2087 C2086 1.367 . S
C2087 C2089 1.433 1_655 S
C2088 C2084 1.350 . S
C2088 C2085 1.458 1_655 S
C2088 N2092 1.427 1_655 S
C2089 H2079 0.929 . S
C2089 C2087 1.433 1_455 S
C2089 N2092 1.384 . S
C2090 H2081 0.929 . S
C2090 C2082 1.378 . S
C2090 C2085 1.364 . S
C2091 H2078 0.929 . S
C2091 C2083 1.433 1_655 S
C2091 N2093 1.384 . S
N2092 C2088 1.427 1_455 S
N2092 C2089 1.384 . S
N2093 C2085 1.418 1_655 S
N2093 C2091 1.384 . S
H2094 C2100 0.930 . S
H2095 C2104 0.930 . S
H2096 C2109 0.929 . S
H2097 C2107 0.929 . S
H2098 C2102 0.929 . S
H2099 C2108 0.929 . S
C2100 H2094 0.930 . S
C2100 C2101 1.367 . S
C2100 C2108 1.378 . S
C2101 C2100 1.367 . S
C2101 C2109 1.433 . S
C2102 H2098 0.929 . S
C2102 C2104 1.378 . S
C2102 C2106 1.350 . S
C2103 C2106 1.463 . S
C2103 C2108 1.350 . S
C2103 N2111 1.427 . S
C2104 H2095 0.930 . S
C2104 C2102 1.378 . S
C2104 C2105 1.367 . S
C2105 C2104 1.367 . S
C2105 C2107 1.433 . S
C2106 C2102 1.350 . S
C2106 C2103 1.463 . S
C2106 N2110 1.427 . S
C2107 H2097 0.929 . S
C2107 C2105 1.433 . S
C2107 N2110 1.384 . S
C2108 H2099 0.929 . S
C2108 C2100 1.378 . S
C2108 C2103 1.350 . S
C2109 H2096 0.929 . S
C2109 C2101 1.433 . S
C2109 N2111 1.384 . S
N2110 C2106 1.427 . S
N2110 C2107 1.384 . S
N2111 C2103 1.427 . S
N2111 C2109 1.384 . S
H2112 C2118 0.930 . S
H2113 C2122 0.930 . S
H2114 C2127 0.929 . S
H2115 C2125 0.929 . S
H2116 C2120 0.929 . S
H2117 C2126 0.929 . S
C2118 H2112 0.930 . S
C2118 C2119 1.367 . S
C2118 C2126 1.378 . S
C2119 C2118 1.367 . S
C2119 C2127 1.433 . S
C2120 H2116 0.929 . S
C2120 C2122 1.378 . S
C2120 C2124 1.350 . S
C2121 C2124 1.463 . S
C2121 C2126 1.350 . S
C2121 N2129 1.427 . S
C2122 H2113 0.930 . S
C2122 C2120 1.378 . S
C2122 C2123 1.367 . S
C2123 C2122 1.367 . S
C2123 C2125 1.433 . S
C2124 C2120 1.350 . S
C2124 C2121 1.463 . S
C2124 N2128 1.427 . S
C2125 H2115 0.929 . S
C2125 C2123 1.433 . S
C2125 N2128 1.384 . S
C2126 H2117 0.929 . S
C2126 C2118 1.378 . S
C2126 C2121 1.350 . S
C2127 H2114 0.929 . S
C2127 C2119 1.433 . S
C2127 N2129 1.384 . S
N2128 C2124 1.427 . S
N2128 C2125 1.384 . S
N2129 C2121 1.427 . S
N2129 C2127 1.384 . S
H2130 C2136 0.930 . S
H2131 C2140 0.930 . S
H2132 C2145 0.929 . S
H2133 C2143 0.929 . S
H2134 C2138 0.929 . S
H2135 C2144 0.929 . S
C2136 H2130 0.930 . S
C2136 C2137 1.367 . S
C2136 C2144 1.378 . S
C2137 C2136 1.367 . S
C2137 C2145 1.433 . S
C2138 H2134 0.929 . S
C2138 C2140 1.378 . S
C2138 C2142 1.350 . S
C2139 C2142 1.463 . S
C2139 C2144 1.350 . S
C2139 N2147 1.427 . S
C2140 H2131 0.930 . S
C2140 C2138 1.378 . S
C2140 C2141 1.367 . S
C2141 C2140 1.367 . S
C2141 C2143 1.433 . S
C2142 C2138 1.350 . S
C2142 C2139 1.463 . S
C2142 N2146 1.427 . S
C2143 H2133 0.929 . S
C2143 C2141 1.433 . S
C2143 N2146 1.384 . S
C2144 H2135 0.929 . S
C2144 C2136 1.378 . S
C2144 C2139 1.350 . S
C2145 H2132 0.929 . S
C2145 C2137 1.433 . S
C2145 N2147 1.384 . S
N2146 C2142 1.427 . S
N2146 C2143 1.384 . S
N2147 C2139 1.427 . S
N2147 C2145 1.384 . S
H2148 C2154 0.930 . S
H2149 C2158 0.930 . S
H2150 C2163 0.929 . S
H2151 C2161 0.929 . S
H2152 C2156 0.929 . S
H2153 C2162 0.929 . S
C2154 H2148 0.930 . S
C2154 C2155 1.367 . S
C2154 C2162 1.378 . S
C2155 C2154 1.367 . S
C2155 C2163 1.433 . S
C2156 H2152 0.929 . S
C2156 C2158 1.378 . S
C2156 C2160 1.350 . S
C2157 C2160 1.463 . S
C2157 C2162 1.350 . S
C2157 N2165 1.427 . S
C2158 H2149 0.930 . S
C2158 C2156 1.378 . S
C2158 C2159 1.367 . S
C2159 C2158 1.367 . S
C2159 C2161 1.433 . S
C2160 C2156 1.350 . S
C2160 C2157 1.463 . S
C2160 N2164 1.427 . S
C2161 H2151 0.929 . S
C2161 C2159 1.433 . S
C2161 N2164 1.384 . S
C2162 H2153 0.929 . S
C2162 C2154 1.378 . S
C2162 C2157 1.350 . S
C2163 H2150 0.929 . S
C2163 C2155 1.433 . S
C2163 N2165 1.384 . S
N2164 C2160 1.427 . S
N2164 C2161 1.384 . S
N2165 C2157 1.427 . S
N2165 C2163 1.384 . S
H2166 C2172 0.930 . S
H2167 C2176 0.930 . S
H2168 C2181 0.929 . S
H2169 C2179 0.929 . S
H2170 C2174 0.929 . S
H2171 C2180 0.929 . S
C2172 H2166 0.930 . S
C2172 C2173 1.367 . S
C2172 C2180 1.378 . S
C2173 C2172 1.367 . S
C2173 C2181 1.433 . S
C2174 H2170 0.929 . S
C2174 C2176 1.378 . S
C2174 C2178 1.350 . S
C2175 C2178 1.463 . S
C2175 C2180 1.350 . S
C2175 N2183 1.427 . S
C2176 H2167 0.930 . S
C2176 C2174 1.378 . S
C2176 C2177 1.367 . S
C2177 C2176 1.367 . S
C2177 C2179 1.433 . S
C2178 C2174 1.350 . S
C2178 C2175 1.463 . S
C2178 N2182 1.427 . S
C2179 H2169 0.929 . S
C2179 C2177 1.433 . S
C2179 N2182 1.384 . S
C2180 H2171 0.929 . S
C2180 C2172 1.378 . S
C2180 C2175 1.350 . S
C2181 H2168 0.929 . S
C2181 C2173 1.433 . S
C2181 N2183 1.384 . S
N2182 C2178 1.427 . S
N2182 C2179 1.384 . S
N2183 C2175 1.427 . S
N2183 C2181 1.384 . S
H2184 C2190 0.930 . S
H2185 C2194 0.930 . S
H2186 C2199 0.929 . S
H2187 C2197 0.929 . S
H2188 C2192 0.929 . S
H2189 C2198 0.929 . S
C2190 H2184 0.930 . S
C2190 C2191 1.367 . S
C2190 C2198 1.378 . S
C2191 C2190 1.367 . S
C2191 C2199 1.433 . S
C2192 H2188 0.929 . S
C2192 C2194 1.378 . S
C2192 C2196 1.350 . S
C2193 C2196 1.463 . S
C2193 C2198 1.350 . S
C2193 N2201 1.427 . S
C2194 H2185 0.930 . S
C2194 C2192 1.378 . S
C2194 C2195 1.367 . S
C2195 C2194 1.367 . S
C2195 C2197 1.433 . S
C2196 C2192 1.350 . S
C2196 C2193 1.463 . S
C2196 N2200 1.427 . S
C2197 H2187 0.929 . S
C2197 C2195 1.433 . S
C2197 N2200 1.384 . S
C2198 H2189 0.929 . S
C2198 C2190 1.378 . S
C2198 C2193 1.350 . S
C2199 H2186 0.929 . S
C2199 C2191 1.433 . S
C2199 N2201 1.384 . S
N2200 C2196 1.427 . S
N2200 C2197 1.384 . S
N2201 C2193 1.427 . S
N2201 C2199 1.384 . S
H2202 C2208 0.930 . S
H2203 C2212 0.930 . S
H2204 C2217 0.929 . S
H2205 C2215 0.929 . S
H2206 C2210 0.929 . S
H2207 C2216 0.929 . S
C2208 H2202 0.930 . S
C2208 C2209 1.367 . S
C2208 C2216 1.378 . S
C2209 C2208 1.367 . S
C2209 C2217 1.433 . S
C2210 H2206 0.929 . S
C2210 C2212 1.378 . S
C2210 C2214 1.350 . S
C2211 C2214 1.463 . S
C2211 C2216 1.350 . S
C2211 N2219 1.427 . S
C2212 H2203 0.930 . S
C2212 C2210 1.378 . S
C2212 C2213 1.367 . S
C2213 C2212 1.367 . S
C2213 C2215 1.433 . S
C2214 C2210 1.350 . S
C2214 C2211 1.463 . S
C2214 N2218 1.427 . S
C2215 H2205 0.929 . S
C2215 C2213 1.433 . S
C2215 N2218 1.384 . S
C2216 H2207 0.929 . S
C2216 C2208 1.378 . S
C2216 C2211 1.350 . S
C2217 H2204 0.929 . S
C2217 C2209 1.433 . S
C2217 N2219 1.384 . S
N2218 C2214 1.427 . S
N2218 C2215 1.384 . S
N2219 C2211 1.427 . S
N2219 C2217 1.384 . S
H2220 C2226 0.930 . S
H2221 C2230 0.930 . S
H2222 C2235 0.929 . S
H2223 C2233 0.929 . S
H2224 C2228 0.929 . S
H2225 C2234 0.929 . S
C2226 H2220 0.930 . S
C2226 C2227 1.367 . S
C2226 C2234 1.378 . S
C2227 C2226 1.367 . S
C2227 C2235 1.433 . S
C2228 H2224 0.929 . S
C2228 C2230 1.378 . S
C2228 C2232 1.350 . S
C2229 C2232 1.463 . S
C2229 C2234 1.350 . S
C2229 N2237 1.427 . S
C2230 H2221 0.930 . S
C2230 C2228 1.378 . S
C2230 C2231 1.367 . S
C2231 C2230 1.367 . S
C2231 C2233 1.433 . S
C2232 C2228 1.350 . S
C2232 C2229 1.463 . S
C2232 N2236 1.427 . S
C2233 H2223 0.929 . S
C2233 C2231 1.433 . S
C2233 N2236 1.384 . S
C2234 H2225 0.929 . S
C2234 C2226 1.378 . S
C2234 C2229 1.350 . S
C2235 H2222 0.929 . S
C2235 C2227 1.433 . S
C2235 N2237 1.384 . S
N2236 C2232 1.427 . S
N2236 C2233 1.384 . S
N2237 C2229 1.427 . S
N2237 C2235 1.384 . S
H2238 C2244 0.930 . S
H2239 C2248 0.930 . S
H2240 C2253 0.929 . S
H2241 C2251 0.929 . S
H2242 C2246 0.929 . S
H2243 C2252 0.929 . S
C2244 H2238 0.930 . S
C2244 C2245 1.367 . S
C2244 C2252 1.378 . S
C2245 C2244 1.367 . S
C2245 C2253 1.433 . S
C2246 H2242 0.929 . S
C2246 C2248 1.378 . S
C2246 C2250 1.350 . S
C2247 C2250 1.463 . S
C2247 C2252 1.350 . S
C2247 N2255 1.427 . S
C2248 H2239 0.930 . S
C2248 C2246 1.378 . S
C2248 C2249 1.367 . S
C2249 C2248 1.367 . S
C2249 C2251 1.433 . S
C2250 C2246 1.350 . S
C2250 C2247 1.463 . S
C2250 N2254 1.427 . S
C2251 H2241 0.929 . S
C2251 C2249 1.433 . S
C2251 N2254 1.384 . S
C2252 H2243 0.929 . S
C2252 C2244 1.378 . S
C2252 C2247 1.350 . S
C2253 H2240 0.929 . S
C2253 C2245 1.433 . S
C2253 N2255 1.384 . S
N2254 C2250 1.427 . S
N2254 C2251 1.384 . S
N2255 C2247 1.427 . S
N2255 C2253 1.384 . S
H2256 C2262 0.930 . S
H2257 C2266 0.930 . S
H2258 C2271 0.929 . S
H2259 C2269 0.929 . S
H2260 C2264 0.929 . S
H2261 C2270 0.929 . S
C2262 H2256 0.930 . S
C2262 C2263 1.367 . S
C2262 C2270 1.378 . S
C2263 C2262 1.367 . S
C2263 C2271 1.433 . S
C2264 H2260 0.929 . S
C2264 C2266 1.378 . S
C2264 C2268 1.350 . S
C2265 C2268 1.463 . S
C2265 C2270 1.350 . S
C2265 N2273 1.427 . S
C2266 H2257 0.930 . S
C2266 C2264 1.378 . S
C2266 C2267 1.367 . S
C2267 C2266 1.367 . S
C2267 C2269 1.433 . S
C2268 C2264 1.350 . S
C2268 C2265 1.463 . S
C2268 N2272 1.427 . S
C2269 H2259 0.929 . S
C2269 C2267 1.433 . S
C2269 N2272 1.384 . S
C2270 H2261 0.929 . S
C2270 C2262 1.378 . S
C2270 C2265 1.350 . S
C2271 H2258 0.929 . S
C2271 C2263 1.433 . S
C2271 N2273 1.384 . S
N2272 C2268 1.427 . S
N2272 C2269 1.384 . S
N2273 C2265 1.427 . S
N2273 C2271 1.384 . S
H2274 C2280 0.930 . S
H2275 C2284 0.930 . S
H2276 C2289 0.929 . S
H2277 C2287 0.929 . S
H2278 C2282 0.929 . S
H2279 C2288 0.929 . S
C2280 H2274 0.930 . S
C2280 C2281 1.367 . S
C2280 C2288 1.378 . S
C2281 C2280 1.367 . S
C2281 C2289 1.433 . S
C2282 H2278 0.929 . S
C2282 C2284 1.378 . S
C2282 C2286 1.350 . S
C2283 C2286 1.463 . S
C2283 C2288 1.350 . S
C2283 N2291 1.427 . S
C2284 H2275 0.930 . S
C2284 C2282 1.378 . S
C2284 C2285 1.367 . S
C2285 C2284 1.367 . S
C2285 C2287 1.433 . S
C2286 C2282 1.350 . S
C2286 C2283 1.463 . S
C2286 N2290 1.427 . S
C2287 H2277 0.929 . S
C2287 C2285 1.433 . S
C2287 N2290 1.384 . S
C2288 H2279 0.929 . S
C2288 C2280 1.378 . S
C2288 C2283 1.350 . S
C2289 H2276 0.929 . S
C2289 C2281 1.433 . S
C2289 N2291 1.384 . S
N2290 C2286 1.427 . S
N2290 C2287 1.384 . S
N2291 C2283 1.427 . S
N2291 C2289 1.384 . S
H2292 C2298 0.930 . S
H2293 C2302 0.930 . S
H2294 C2307 0.929 . S
H2295 C2305 0.929 . S
H2296 C2300 0.929 . S
H2297 C2306 0.929 . S
C2298 H2292 0.930 . S
C2298 C2299 1.367 . S
C2298 C2306 1.378 . S
C2299 C2298 1.367 . S
C2299 C2307 1.433 . S
C2300 H2296 0.929 . S
C2300 C2302 1.378 . S
C2300 C2304 1.350 . S
C2301 C2304 1.463 . S
C2301 C2306 1.350 . S
C2301 N2309 1.427 . S
C2302 H2293 0.930 . S
C2302 C2300 1.378 . S
C2302 C2303 1.367 . S
C2303 C2302 1.367 . S
C2303 C2305 1.433 . S
C2304 C2300 1.350 . S
C2304 C2301 1.463 . S
C2304 N2308 1.427 . S
C2305 H2295 0.929 . S
C2305 C2303 1.433 . S
C2305 N2308 1.384 . S
C2306 H2297 0.929 . S
C2306 C2298 1.378 . S
C2306 C2301 1.350 . S
C2307 H2294 0.929 . S
C2307 C2299 1.433 . S
C2307 N2309 1.384 . S
N2308 C2304 1.427 . S
N2308 C2305 1.384 . S
N2309 C2301 1.427 . S
N2309 C2307 1.384 . S
H2310 C2316 0.930 . S
H2311 C2320 0.930 . S
H2312 C2325 0.929 . S
H2313 C2323 0.929 . S
H2314 C2318 0.929 . S
H2315 C2324 0.929 . S
C2316 H2310 0.930 . S
C2316 C2317 1.367 1_556 S
C2316 C2324 1.378 . S
C2317 C2316 1.367 1_554 S
C2317 C2325 1.433 . S
C2318 H2314 0.929 . S
C2318 C2320 1.378 . S
C2318 C2322 1.332 1_554 S
C2319 C2322 1.459 1_554 S
C2319 C2324 1.335 1_554 S
C2319 N2327 1.447 . S
C2320 H2311 0.930 . S
C2320 C2318 1.378 . S
C2320 C2321 1.367 1_554 S
C2321 C2320 1.367 1_556 S
C2321 C2323 1.433 . S
C2322 C2318 1.332 1_556 S
C2322 C2319 1.459 1_556 S
C2322 N2326 1.451 . S
C2323 H2313 0.929 . S
C2323 C2321 1.433 . S
C2323 N2326 1.384 . S
C2324 H2315 0.929 . S
C2324 C2316 1.378 . S
C2324 C2319 1.335 1_556 S
C2325 H2312 0.929 . S
C2325 C2317 1.433 . S
C2325 N2327 1.384 . S
N2326 C2322 1.451 . S
N2326 C2323 1.384 . S
N2327 C2319 1.447 . S
N2327 C2325 1.384 . S
H2328 C2334 0.930 . S
H2329 C2338 0.930 . S
H2330 C2343 0.929 . S
H2331 C2341 0.929 . S
H2332 C2336 0.929 . S
H2333 C2342 0.929 . S
C2334 H2328 0.930 . S
C2334 C2335 1.367 . S
C2334 C2342 1.378 . S
C2335 C2334 1.367 . S
C2335 C2343 1.433 . S
C2336 H2332 0.929 . S
C2336 C2338 1.378 . S
C2336 C2340 1.350 . S
C2337 C2340 1.463 . S
C2337 C2342 1.350 . S
C2337 N2345 1.427 . S
C2338 H2329 0.930 . S
C2338 C2336 1.378 . S
C2338 C2339 1.367 . S
C2339 C2338 1.367 . S
C2339 C2341 1.433 . S
C2340 C2336 1.350 . S
C2340 C2337 1.463 . S
C2340 N2344 1.427 . S
C2341 H2331 0.929 . S
C2341 C2339 1.433 . S
C2341 N2344 1.384 . S
C2342 H2333 0.929 . S
C2342 C2334 1.378 . S
C2342 C2337 1.350 . S
C2343 H2330 0.929 . S
C2343 C2335 1.433 . S
C2343 N2345 1.384 . S
N2344 C2340 1.427 . S
N2344 C2341 1.384 . S
N2345 C2337 1.427 . S
N2345 C2343 1.384 . S
H2346 C2352 0.930 . S
H2347 C2356 0.930 . S
H2348 C2361 0.929 . S
H2349 C2359 0.921 1_556 S
H2350 C2354 0.929 . S
H2351 C2360 0.929 . S
C2352 H2346 0.930 . S
C2352 C2353 1.367 1_556 S
C2352 C2360 1.378 . S
C2353 C2352 1.367 1_554 S
C2353 C2361 1.433 . S
C2354 H2350 0.929 . S
C2354 C2356 1.378 . S
C2354 C2358 1.350 . S
C2355 C2358 1.463 . S
C2355 C2360 1.350 1_554 S
C2355 N2363 1.427 . S
C2356 H2347 0.930 . S
C2356 C2354 1.378 . S
C2356 C2357 1.367 . S
C2357 C2356 1.367 . S
C2357 C2359 1.444 . S
C2358 C2354 1.350 . S
C2358 C2355 1.463 . S
C2358 N2362 1.415 1_554 S
C2359 H2349 0.921 1_554 S
C2359 C2357 1.444 . S
C2359 N2362 1.381 1_554 S
C2360 H2351 0.929 . S
C2360 C2352 1.378 . S
C2360 C2355 1.350 1_556 S
C2361 H2348 0.929 . S
C2361 C2353 1.433 . S
C2361 N2363 1.384 . S
N2362 C2358 1.415 1_556 S
N2362 C2359 1.381 1_556 S
N2363 C2355 1.427 . S
N2363 C2361 1.384 . S
H2364 C2370 0.930 . S
H2365 C2374 0.930 . S
H2366 C2379 0.929 . S
H2367 C2377 0.929 . S
H2368 C2372 0.929 . S
H2369 C2378 0.929 . S
C2370 H2364 0.930 . S
C2370 C2371 1.367 . S
C2370 C2378 1.378 . S
C2371 C2370 1.367 . S
C2371 C2379 1.433 . S
C2372 H2368 0.929 . S
C2372 C2374 1.378 . S
C2372 C2376 1.350 . S
C2373 C2376 1.463 . S
C2373 C2378 1.350 . S
C2373 N2381 1.427 . S
C2374 H2365 0.930 . S
C2374 C2372 1.378 . S
C2374 C2375 1.367 . S
C2375 C2374 1.367 . S
C2375 C2377 1.433 . S
C2376 C2372 1.350 . S
C2376 C2373 1.463 . S
C2376 N2380 1.427 . S
C2377 H2367 0.929 . S
C2377 C2375 1.433 . S
C2377 N2380 1.384 . S
C2378 H2369 0.929 . S
C2378 C2370 1.378 . S
C2378 C2373 1.350 . S
C2379 H2366 0.929 . S
C2379 C2371 1.433 . S
C2379 N2381 1.384 . S
N2380 C2376 1.427 . S
N2380 C2377 1.384 . S
N2381 C2373 1.427 . S
N2381 C2379 1.384 . S
H2382 C2388 0.930 . S
H2383 C2392 0.930 . S
H2384 C2397 0.929 . S
H2385 C2395 0.929 . S
H2386 C2390 0.929 . S
H2387 C2396 0.929 . S
C2388 H2382 0.930 . S
C2388 C2389 1.367 . S
C2388 C2396 1.378 . S
C2389 C2388 1.367 . S
C2389 C2397 1.433 . S
C2390 H2386 0.929 . S
C2390 C2392 1.378 . S
C2390 C2394 1.350 . S
C2391 C2394 1.463 . S
C2391 C2396 1.350 . S
C2391 N2399 1.427 . S
C2392 H2383 0.930 . S
C2392 C2390 1.378 . S
C2392 C2393 1.367 . S
C2393 C2392 1.367 . S
C2393 C2395 1.433 . S
C2394 C2390 1.350 . S
C2394 C2391 1.463 . S
C2394 N2398 1.427 . S
C2395 H2385 0.929 . S
C2395 C2393 1.433 . S
C2395 N2398 1.384 . S
C2396 H2387 0.929 . S
C2396 C2388 1.378 . S
C2396 C2391 1.350 . S
C2397 H2384 0.929 . S
C2397 C2389 1.433 . S
C2397 N2399 1.384 . S
N2398 C2394 1.427 . S
N2398 C2395 1.384 . S
N2399 C2391 1.427 . S
N2399 C2397 1.384 . S
C683 C352 1.181 . S
C679 C4 1.257 . S
C697 C19 0.936 . S
C701 C372 1.098 . S
C715 C39 1.196 . S
C719 C394 1.107 . S
C737 C413 1.247 . S
C733 C54 1.280 . S
C751 C18 1.262 . S
C755 C434 1.262 . S
C773 C457 1.212 . S
C769 C40 1.327 . S
C791 C480 1.056 . S
C787 C53 1.079 . S
C805 C5 1.049 . S
C809 C498 1.200 . S
C823 C61 0.992 1_545 S
C827 C354 1.137 . S
C841 C74 1.323 . S
C845 C374 1.318 . S
C863 C396 1.041 . S
C859 C89 0.944 . S
C881 C415 1.201 . S
C877 C109 1.309 . S
C895 C68 1.280 . S
C899 C436 1.192 . S
C917 C459 1.132 . S
C913 C81 1.144 . S
C935 C476 1.199 . S
C931 C96 1.231 . S
C953 C500 1.297 . S
C949 C102 1.313 . S
C971 C350 1.178 . S
C967 C103 1.025 . S
C989 C522 1.099 . S
C985 C117 0.957 . S
C1003 C130 1.259 . S
C1007 C539 1.267 . S
C1025 C562 1.208 . S
C1021 C152 1.332 . S
C1039 C60 1.297 . S
C1043 C496 1.224 . S
C1061 C392 1.233 . S
C1057 C82 1.268 . S
C1075 C137 1.061 . S
C1079 C585 1.034 . S
C1097 C601 1.116 . S
C1093 C165 1.192 . S
C1111 C172 1.295 . S
C1115 C349 1.204 . S
C1133 C602 1.246 . S
C1129 C194 1.255 . S
C1147 C207 1.275 . S
C1151 C391 1.176 . S
C1165 C215 1.024 . S
C1169 C582 1.159 . S
C1187 C435 1.214 . S
C1183 C186 1.243 . S
C1205 C538 1.223 . S
C1201 C201 1.175 . S
C1223 C479 1.212 . S
C1219 C221 1.218 . S
C1241 C623 1.327 . S
C1237 C180 1.332 . S
C1259 C353 1.264 . S
C1255 C236 1.284 . S
C1273 C242 1.320 . S
C1277 C606 1.278 . S
C1295 C395 1.225 . S
C1291 C264 1.233 . S
C1309 C277 1.321 . S
C1313 C580 1.255 . S
C1327 C229 1.075 1_565 S
C1331 C433 1.131 . S
C1345 C249 1.261 . S
C1349 C542 1.253 . S
C1367 C477 1.098 . S
C1363 C257 0.963 1_545 S
C1381 C270 1.318 . S
C1385 C627 1.282 . S
C1399 C278 1.205 . S
C1403 C351 1.169 . S
C1417 C292 1.314 . S
C1421 C521 1.303 . S
C1435 C298 1.296 . S
C1439 C456 1.264 . S
C1453 C313 1.157 . S
C1457 C559 1.227 . S
C1475 C625 1.229 . S
C1471 C228 1.334 . S
C1493 C393 1.102 . S
C1489 C243 1.031 . S
C1511 C416 1.192 . S
C1507 C305 1.193 . S
C1529 C373 1.142 . S
C1525 C333 1.245 . S
C1543 C32 1.252 . S
C1547 C646 1.195 . S
C1565 C603 1.108 . S
C1561 C47 0.940 . S
C1583 C667 1.112 . S
C1579 C11 1.194 . S
C1597 C26 1.279 . S
C1601 C581 1.245 . S
C1615 C46 1.256 . S
C1619 C518 1.247 . S
C1637 C541 1.212 . S
C1633 C12 1.327 . S
C1655 C564 1.065 . S
C1651 C25 1.087 . S
C1673 C624 1.210 . S
C1669 C33 1.043 . S
C1691 C648 1.130 . S
C1687 C159 0.994 . S
C1705 C116 1.321 . S
C1709 C605 1.325 . S
C1723 C131 0.906 . S
C1727 C669 1.029 . S
C1745 C583 1.207 . S
C1741 C151 1.310 . S
C1763 C520 1.193 . S
C1759 C166 1.280 . S
C1777 C123 1.143 . S
C1781 C543 1.133 . S
C1799 C560 1.199 . S
C1795 C138 1.231 . S
C1813 C144 1.322 . S
C1817 C626 1.311 . S
C1835 C644 1.177 . S
C1831 C145 1.036 . S
C1853 C438 1.093 . S
C1849 C75 0.967 . S
C1871 C455 1.269 . S
C1867 C88 1.260 . S
C1885 C110 1.332 . S
C1889 C478 1.208 . S
C1907 C622 1.212 . S
C1903 C158 1.303 . S
C1921 C124 1.268 . S
C1925 C665 1.237 . S
C1943 C417 1.039 . S
C1939 C95 1.055 . S
C1961 C370 1.117 . S
C1957 C67 1.193 . S
C1975 C200 1.287 . S
C1979 C643 1.182 . S
C1997 C371 1.235 . S
C1993 C222 1.261 . S
C2015 C664 1.173 . S
C2011 C179 1.278 . S
C2029 C187 1.024 . S
C2033 C414 1.160 . S
C2047 C214 1.245 . S
C2051 C519 1.206 . S
C2065 C173 1.167 . S
C2069 C454 1.231 . S
C2083 C193 1.219 . S
C2087 C563 1.221 . S
C2101 C208 1.338 . S
C2105 C497 1.318 . S
C2123 C647 1.273 . S
C2119 C334 1.279 . S
C2137 C284 1.316 . S
C2141 C375 1.292 . S
C2159 C668 1.213 . S
C2155 C306 1.239 . S
C2173 C319 1.325 . S
C2177 C412 1.233 . S
C2191 C327 1.040 . S
C2195 C517 1.111 . S
C2213 C458 1.250 . S
C2209 C291 1.257 . S
C2227 C299 0.996 . S
C2231 C561 1.084 . S
C2249 C501 1.287 . S
C2245 C312 1.310 . S
C2267 C645 1.171 . S
C2263 C320 1.205 . S
C2285 C437 1.293 . S
C2281 C250 1.319 . S
C2299 C256 1.297 . S
C2303 C540 1.263 . S
C2321 C475 1.234 . S
C2317 C271 1.186 . S
C2339 C499 1.234 . S
C2335 C326 1.329 . S
C2353 C285 0.999 1_554 S
C2357 C666 1.123 . S
C2375 C584 1.193 . S
C2371 C263 1.182 . S
C2393 C604 1.138 . S
C2389 C235 1.239 . S
