# Generated by pormake.
# Topology pth, (4,4)-cn, num edge types: 1
# Building blocks:
#     Node 0, Type 0, BuildingBlock: CEKHIL_clean_sbu_0, # of connection points: 4
#     Node 1, Type 0, BuildingBlock: CEKHIL_clean_sbu_0, # of connection points: 4
#     Node 2, Type 0, BuildingBlock: CEKHIL_clean_sbu_0, # of connection points: 4
#     Node 3, Type 1, BuildingBlock: MUDLON_clean_sbu_0, # of connection points: 4
#     Node 4, Type 1, BuildingBlock: MUDLON_clean_sbu_0, # of connection points: 4
#     Node 5, Type 1, BuildingBlock: MUDLON_clean_sbu_0, # of connection points: 4
#     Edge 6, Type (0, 1), BuildingBlock: XUDNAN_clean_linker_2, # of connection points: 2
#     Edge 7, Type (0, 1), BuildingBlock: XUDNAN_clean_linker_2, # of connection points: 2
#     Edge 8, Type (0, 1), BuildingBlock: XUDNAN_clean_linker_2, # of connection points: 2
#     Edge 9, Type (0, 1), BuildingBlock: XUDNAN_clean_linker_2, # of connection points: 2
#     Edge 10, Type (0, 1), BuildingBlock: XUDNAN_clean_linker_2, # of connection points: 2
#     Edge 11, Type (0, 1), BuildingBlock: XUDNAN_clean_linker_2, # of connection points: 2
#     Edge 12, Type (0, 1), BuildingBlock: XUDNAN_clean_linker_2, # of connection points: 2
#     Edge 13, Type (0, 1), BuildingBlock: XUDNAN_clean_linker_2, # of connection points: 2
#     Edge 14, Type (0, 1), BuildingBlock: XUDNAN_clean_linker_2, # of connection points: 2
#     Edge 15, Type (0, 1), BuildingBlock: XUDNAN_clean_linker_2, # of connection points: 2
#     Edge 16, Type (0, 1), BuildingBlock: XUDNAN_clean_linker_2, # of connection points: 2
#     Edge 17, Type (0, 1), BuildingBlock: XUDNAN_clean_linker_2, # of connection points: 2
# Relax obj value: 0.014
# Max RMSD: 0.063
# Mean RMSD: 0.051
data_MOF--net-pth--node1-CEKHIL_clean_sbu_0--node2-MUDLON_clean_sbu_0--edge1-XUDNAN_clean_linker_2
_symmetry_space_group_name_H-M    P1
_symmetry_Int_Tables_number       1
_symmetry_cell_setting            triclinic
loop_
_symmetry_equiv_pos_as_xyz
'x, y, z'
_cell_length_a     22.452624
_cell_length_b     22.541748
_cell_length_c     59.944578
_cell_angle_alpha  91.135809
_cell_angle_beta   89.816744
_cell_angle_gamma 120.15965
loop_
_atom_site_label
_atom_site_type_symbol
_atom_site_fract_x
_atom_site_fract_y
_atom_site_fract_z
_atom_type_partial_charge
Co0 Co 0.06842 0.07225 0.10917 0.0
O1 O 0.02903 1.00242 0.13182 0.0
O2 O 0.12529 0.03167 0.11361 0.0
C3 C 0.05422 0.15187 0.12861 0.0
O4 O 0.1295 0.14106 0.08584 0.0
Co5 Co 0.99338 0.13654 0.0851 0.0
O6 O 0.08386 0.20102 0.07194 0.0
C7 C 0.96146 0.99537 0.07278 0.0
C8 C 0.08207 0.99449 0.12881 0.0
C9 C 0.13303 0.18849 0.07335 0.0
O10 O 0.01186 1.002 0.08502 0.0
O11 O 0.9435 0.04096 0.07209 0.0
O12 O 0.10671 0.14409 0.13276 0.0
O13 O 0.01147 0.11025 0.11377 0.0
Co14 Co 0.03503 0.04989 0.42393 0.0
O15 O 0.00814 0.09268 0.40172 0.0
O16 O 0.10313 0.1473 0.42207 0.0
C17 C 0.01267 0.9577 0.40186 0.0
O18 O 0.08174 0.02223 0.44774 0.0
Co19 Co 0.93122 0.90613 0.4418 0.0
O20 O 0.01421 0.91003 0.45469 0.0
C21 C 0.92257 0.02783 0.45679 0.0
C22 C 0.06468 0.14948 0.40626 0.0
C23 C 0.07094 0.96639 0.45698 0.0
O24 O 0.98068 0.06852 0.44749 0.0
O25 O 0.89264 0.96236 0.45471 0.0
O26 O 0.07116 0.01462 0.40046 0.0
O27 O 0.96897 0.95963 0.41541 0.0
Co28 Co 0.03708 0.08461 0.76022 0.0
O29 O 0.10066 0.14792 0.73874 0.0
O30 O 0.11365 0.06894 0.7557 0.0
C31 C 0.94084 0.05441 0.73982 0.0
O32 O 0.98241 0.00794 0.78244 0.0
Co33 Co 0.92515 0.10532 0.78321 0.0
O34 O 0.88746 0.00979 0.79321 0.0
C35 C 0.07084 0.19085 0.79762 0.0
C36 C 0.13623 0.11747 0.74116 0.0
C37 C 0.92435 0.98152 0.79277 0.0
O38 O 0.0874 0.15359 0.78539 0.0
O39 O 0.01014 0.18277 0.79764 0.0
O40 O 0.97778 0.02593 0.73579 0.0
O41 O 0.9653 0.10296 0.75483 0.0
Mg42 Mg 0.0882 0.57772 0.26818 0.0
C43 C 0.096 0.48991 0.29973 0.0
O44 O 0.03152 0.46683 0.2939 0.0
C45 C 0.09258 0.68119 0.23904 0.0
O46 O 0.03156 0.65058 0.24835 0.0
C47 C 0.01078 0.48212 0.22742 0.0
O48 O 1.00639 0.53429 0.22011 0.0
O49 O 0.03424 0.48506 0.24695 0.0
O50 O 0.14232 0.54518 0.29094 0.0
O51 O 0.0405 0.61506 0.29215 0.0
C52 C 0.97947 0.59962 0.29721 0.0
O53 O 0.92692 0.54776 0.28697 0.0
O54 O 0.13562 0.6627 0.24465 0.0
Mg55 Mg 0.53736 0.07852 0.60058 0.0
C56 C 0.43545 0.05814 0.56656 0.0
O57 O 0.47698 0.12487 0.56822 0.0
C58 C 0.62194 0.02546 0.62456 0.0
O59 O 0.66157 0.04999 0.60704 0.0
C60 C 0.46115 0.09735 0.63593 0.0
O61 O 0.44467 0.03254 0.6355 0.0
O62 O 0.50539 0.13741 0.62193 0.0
O63 O 0.44677 0.01973 0.5791 0.0
O64 O 0.62354 0.12628 0.57712 0.0
C65 C 0.6186 0.08095 0.56299 0.0
O66 O 0.56525 0.01867 0.56441 0.0
O67 O 0.56488 0.02486 0.62508 0.0
Mg68 Mg 0.56613 0.56248 0.92902 0.0
C69 C 0.46133 0.49451 0.89602 0.0
O70 O 0.50316 0.46962 0.89521 0.0
C71 C 0.65456 0.62756 0.96701 0.0
O72 O 0.6511 0.56829 0.9632 0.0
C73 C 0.47307 0.4735 0.96115 0.0
O74 O 0.46421 0.52631 0.95848 0.0
O75 O 0.51898 0.47027 0.94942 0.0
O76 O 0.47484 0.54315 0.91003 0.0
O77 O 0.64009 0.58808 0.90179 0.0
C78 C 0.70545 0.6229 0.9035 0.0
O79 O 0.73464 0.63475 0.92327 0.0
O80 O 0.61959 0.64389 0.9544 0.0
H81 H 0.11415 0.2259 0.16763 0.0
H82 H 0.96256 0.19086 0.11658 0.0
H83 H 0.93227 0.26785 0.13693 0.0
H84 H 0.01462 0.22852 0.21422 0.0
H85 H 0.08701 0.29582 0.22941 0.0
H86 H 0.09944 0.23986 0.21053 0.0
H87 H 0.19135 0.34491 0.18909 0.0
H88 H 0.17978 0.4012 0.20808 0.0
H89 H 0.16976 0.40607 0.17847 0.0
H90 H 0.91905 0.34994 0.16228 0.0
H91 H 0.92472 0.4325 0.19121 0.0
H92 H 0.07953 0.41016 0.22712 0.0
C93 C 0.07516 0.23509 0.16065 0.0
C94 C 0.04101 0.20255 0.14042 0.0
C95 C 0.98962 0.21525 0.13199 0.0
C96 C 0.97187 0.25886 0.14345 0.0
C97 C 1.00555 0.28927 0.16348 0.0
C98 C 0.05618 0.27816 0.17205 0.0
C99 C 0.08367 0.31689 0.19408 0.0
C100 C 0.07036 0.26729 0.21319 0.0
C101 C 0.16071 0.37045 0.19232 0.0
C102 C 0.04033 0.35103 0.19654 0.0
C103 C 0.99598 0.33477 0.1786 0.0
C104 C 0.95312 0.36261 0.17653 0.0
C105 C 0.9565 0.40928 0.19304 0.0
C106 C 1.00156 0.4268 0.21157 0.0
C107 C 0.04327 0.39642 0.21343 0.0
H108 H 0.79081 0.95863 0.47181 0.0
H109 H 0.97511 0.15974 0.47466 0.0
H110 H 0.91649 0.19995 0.50104 0.0
H111 H 0.66615 0.01511 0.47464 0.0
H112 H 0.60834 0.94396 0.49155 0.0
H113 H 0.66429 0.93436 0.47207 0.0
H114 H 0.71386 0.89587 0.50411 0.0
H115 H 0.6583 0.90554 0.52368 0.0
H116 H 0.75004 0.95063 0.5285 0.0
H117 H 0.83603 0.21379 0.52984 0.0
H118 H 0.74433 0.19983 0.55625 0.0
H119 H 0.61682 0.98942 0.53261 0.0
C120 C 0.81919 0.01146 0.47774 0.0
C121 C 0.88785 0.0559 0.47115 0.0
C122 C 0.9224 0.12467 0.47938 0.0
C123 C 0.88949 0.14788 0.49441 0.0
C124 C 0.82194 0.10185 0.50086 0.0
C125 C 0.78739 0.03517 0.49254 0.0
C126 C 0.71632 0.99423 0.5023 0.0
C127 C 0.66049 0.97056 0.48405 0.0
C128 C 0.70927 0.93299 0.51543 0.0
C129 C 0.71582 0.04781 0.51765 0.0
C130 C 0.77682 0.10978 0.51676 0.0
C131 C 0.78795 0.16555 0.53042 0.0
C132 C 0.73562 0.15725 0.54537 0.0
C133 C 0.67314 0.09366 0.54649 0.0
C134 C 0.66356 0.03897 0.53219 0.0
H135 H 0.79489 0.89545 0.80885 0.0
H136 H 1.00194 0.92658 0.80758 0.0
H137 H 0.96612 0.8305 0.83348 0.0
H138 H 0.76495 0.86069 0.86553 0.0
H139 H 0.67537 0.79629 0.86226 0.0
H140 H 0.71589 0.86317 0.84219 0.0
H141 H 0.67978 0.77192 0.81033 0.0
H142 H 0.6389 0.70463 0.83034 0.0
H143 H 0.7036 0.70673 0.81195 0.0
H144 H 0.91089 0.7411 0.8637 0.0
H145 H 0.83859 0.66038 0.89293 0.0
H146 H 0.66624 0.68244 0.87208 0.0
C147 C 0.83256 0.88145 0.81369 0.0
C148 C 0.90137 0.91881 0.80614 0.0
C149 C 0.94887 0.89863 0.81298 0.0
C150 C 0.929 0.84415 0.82775 0.0
C151 C 0.86111 0.80947 0.83525 0.0
C152 C 0.81338 0.82675 0.82814 0.0
C153 C 0.74437 0.7834 0.83925 0.0
C154 C 0.72399 0.82859 0.85313 0.0
C155 C 0.68836 0.73903 0.82193 0.0
C156 C 0.7609 0.7398 0.85405 0.0
C157 C 0.82861 0.75578 0.85166 0.0
C158 C 0.85734 0.72694 0.86528 0.0
C159 C 0.81602 0.68117 0.88182 0.0
C160 C 0.74642 0.66373 0.88434 0.0
C161 C 0.71854 0.69282 0.87 0.0
H162 H 0.99649 0.9018 0.15973 0.0
H163 H 0.1983 0.98408 0.1298 0.0
H164 H 0.22413 0.91338 0.15452 0.0
H165 H 0.0463 0.89601 0.21542 0.0
H166 H 0.9698 0.81603 0.22161 0.0
H167 H 0.9665 0.87153 0.20108 0.0
H168 H 0.91928 0.77215 0.17168 0.0
H169 H 0.92204 0.71622 0.19218 0.0
H170 H 0.96641 0.72823 0.16609 0.0
H171 H 0.2293 0.83535 0.18384 0.0
H172 H 0.21051 0.75376 0.21394 0.0
H173 H 1.00542 0.72309 0.22398 0.0
C174 C 0.04594 0.90464 0.15827 0.0
C175 C 0.09533 0.9486 0.14281 0.0
C176 C 0.15944 0.95066 0.14145 0.0
C177 C 0.17472 0.91076 0.15547 0.0
C178 C 0.12521 0.86851 0.1707 0.0
C179 C 0.06186 0.86477 0.17203 0.0
C180 C 0.01751 0.81523 0.18976 0.0
C181 C 0.99897 0.85192 0.20805 0.0
C182 C 0.95247 0.75435 0.1793 0.0
C183 C 0.06623 0.79281 0.19851 0.0
C184 C 0.12806 0.82373 0.18731 0.0
C185 C 0.18091 0.81068 0.19267 0.0
C186 C 0.16994 0.76443 0.20982 0.0
C187 C 0.10668 0.732 0.22141 0.0
C188 C 0.05457 0.74692 0.21557 0.0
H189 H 0.18839 0.07838 0.47476 0.0
H190 H 0.07365 0.85547 0.47344 0.0
H191 H 0.15545 0.85442 0.50041 0.0
H192 H 0.35977 0.09721 0.48009 0.0
H193 H 0.39111 0.17082 0.49869 0.0
H194 H 0.32563 0.15426 0.47823 0.0
H195 H 0.24656 0.15562 0.50957 0.0
H196 H 0.3116 0.17175 0.53011 0.0
H197 H 0.22605 0.09895 0.53276 0.0
H198 H 0.24649 0.87692 0.52915 0.0
H199 H 0.34227 0.9225 0.55664 0.0
H200 H 0.39778 0.13007 0.53929 0.0
C201 C 0.18098 0.02934 0.47988 0.0
C202 C 0.12427 0.96706 0.47188 0.0
C203 C 0.11635 0.90404 0.47929 0.0
C204 C 0.16268 0.90277 0.49464 0.0
C205 C 0.21711 0.96491 0.5025 0.0
C206 C 0.2268 0.02707 0.4953 0.0
C207 C 0.28848 0.08645 0.5069 0.0
C208 C 0.34457 0.12972 0.48997 0.0
C209 C 0.26685 0.13078 0.52065 0.0
C210 C 0.31127 0.04789 0.52187 0.0
C211 C 0.26959 0.97783 0.51905 0.0
C212 C 0.27978 0.93177 0.53141 0.0
C213 C 0.3342 0.95807 0.54703 0.0
C214 C 0.37769 0.02978 0.55016 0.0
C215 C 0.36574 0.07493 0.53731 0.0
H216 H 0.20537 0.22282 0.8053 0.0
H217 H 0.05535 0.28191 0.82456 0.0
H218 H 0.14005 0.36979 0.85043 0.0
H219 H 0.27764 0.24032 0.8594 0.0
H220 H 0.3646 0.27407 0.84967 0.0
H221 H 0.29314 0.21784 0.83182 0.0
H222 H 0.33941 0.30967 0.80118 0.0
H223 H 0.41102 0.36627 0.81897 0.0
H224 H 0.35551 0.39488 0.80779 0.0
H225 H 0.24087 0.45008 0.8754 0.0
H226 H 0.34861 0.51291 0.89775 0.0
H227 H 0.43145 0.40113 0.86211 0.0
C228 C 0.19035 0.25449 0.81481 0.0
C229 C 0.12339 0.2451 0.81274 0.0
C230 C 0.10613 0.28772 0.82571 0.0
C231 C 0.15402 0.3381 0.84048 0.0
C232 C 0.21932 0.34575 0.84218 0.0
C233 C 0.23754 0.30511 0.82969 0.0
C234 C 0.31042 0.3224 0.83512 0.0
C235 C 0.31147 0.25994 0.84457 0.0
C236 C 0.35682 0.34995 0.81454 0.0
C237 C 0.32985 0.3783 0.85279 0.0
C238 C 0.27694 0.39156 0.85655 0.0
C239 C 0.28285 0.44037 0.8725 0.0
C240 C 0.34423 0.47598 0.88508 0.0
C241 C 0.39856 0.46217 0.88171 0.0
C242 C 0.39105 0.41313 0.86515 0.0
H243 H 0.91607 0.01693 0.69573 0.0
H244 H 0.82695 0.05735 0.75418 0.0
H245 H 0.72661 0.03841 0.73154 0.0
H246 H 0.87462 0.11089 0.65968 0.0
H247 H 0.85789 0.05532 0.63562 0.0
H248 H 0.91643 0.06064 0.65702 0.0
H249 H 0.84468 0.9289 0.66165 0.0
H250 H 0.7857 0.9232 0.64024 0.0
H251 H 0.75388 0.88902 0.66743 0.0
H252 H 0.63948 0.02188 0.70203 0.0
H253 H 0.5796 0.02271 0.66766 0.0
H254 H 0.73026 1.00206 0.62787 0.0
C255 C 0.87441 0.01985 0.70383 0.0
C256 C 0.87831 0.03719 0.72676 0.0
C257 C 0.82434 0.04332 0.73668 0.0
C258 C 0.7671 0.03235 0.72397 0.0
C259 C 0.76513 0.01627 0.70128 0.0
C260 C 0.81778 0.01079 0.69125 0.0
C261 C 0.8074 1.00134 0.66617 0.0
C262 C 0.86764 0.06058 0.65391 0.0
C263 C 0.7973 0.93144 0.65842 0.0
C264 C 0.74143 1.00363 0.6636 0.0
C265 C 0.71698 0.0106 0.6841 0.0
C266 C 0.65791 0.01596 0.68591 0.0
C267 C 0.62402 0.01607 0.66627 0.0
C268 C 0.65008 0.01227 0.64505 0.0
C269 C 0.7088 1.0046 0.64383 0.0
H270 H 0.86553 0.97282 0.04048 0.0
H271 H 0.9663 0.87558 0.07291 0.0
H272 H 0.89674 0.77077 0.04978 0.0
H273 H 0.69702 0.8239 0.03622 0.0
H274 H 0.67872 0.84511 1.00922 0.0
H275 H 0.73623 0.91237 0.02828 0.0
H276 H 0.83155 0.9589 0.99827 0.0
H277 H 0.77428 0.89199 0.97909 0.0
H278 H 0.85727 0.90214 0.98559 0.0
H279 H 0.81555 0.67675 0.02363 0.0
H280 H 0.73236 0.60068 0.99517 0.0
H281 H 0.68475 0.75952 0.97912 0.0
C282 C 0.87317 0.92959 0.04282 0.0
C283 C 0.92148 0.93254 0.05865 0.0
C284 C 0.92985 0.87475 0.06093 0.0
C285 C 0.89041 0.81494 0.04791 0.0
C286 C 0.84307 0.81387 0.03262 0.0
C287 C 0.83457 0.86978 0.02993 0.0
C288 C 0.78086 0.85574 1.01212 0.0
C289 C 0.71958 0.8595 0.02206 0.0
C290 C 0.81293 0.90512 0.99261 0.0
C291 C 0.76028 0.7829 1.00516 0.0
C292 C 0.79669 0.75982 0.0173 0.0
C293 C 0.78692 0.69434 1.014 0.0
C294 C 0.7393 0.65147 0.99773 0.0
C295 C 0.70185 0.67401 0.98479 0.0
C296 C 0.71236 0.74067 0.98871 0.0
H297 H 0.09962 0.92851 0.37758 0.0
H298 H 0.88476 0.84718 0.39455 0.0
H299 H 0.85229 0.74609 0.37001 0.0
H300 H 0.07459 0.87507 0.32043 0.0
H301 H 0.14074 0.85206 0.32006 0.0
H302 H 0.1473 0.91761 0.33923 0.0
H303 H 0.15727 0.85093 0.37237 0.0
H304 H 0.15098 0.78524 0.35328 0.0
H305 H 0.09164 0.76269 0.37615 0.0
H306 H 0.84254 0.65574 0.34212 0.0
H307 H 0.8576 0.58068 0.31474 0.0
H308 H 0.07895 0.71889 0.31724 0.0
C309 C 0.04582 0.88926 0.37619 0.0
C310 C 0.99471 0.8958 0.38794 0.0
C311 C 0.92487 0.84316 0.38578 0.0
C312 C 0.90584 0.78557 0.37183 0.0
C313 C 0.95733 0.78077 0.36034 0.0
C314 C 0.02598 0.83083 0.36257 0.0
C315 C 0.07125 0.81281 0.34859 0.0
C316 C 0.11077 0.86765 0.33104 0.0
C317 C 0.1207 0.80229 0.36349 0.0
C318 C 0.01725 0.74567 0.33784 0.0
C319 C 0.95183 0.72797 0.3448 0.0
C320 C 0.89364 0.66878 0.3367 0.0
C321 C 0.90264 0.62646 0.32113 0.0
C322 C 0.96936 0.6434 0.31389 0.0
C323 C 0.02716 0.70391 0.32249 0.0
H324 H 0.19484 0.03807 0.73288 0.0
H325 H 0.21013 0.23123 0.71577 0.0
H326 H 0.30203 0.25242 0.68876 0.0
H327 H 0.37777 0.09132 0.727 0.0
H328 H 0.35881 0.00998 0.71472 0.0
H329 H 0.29986 0.01403 0.73431 0.0
H330 H 0.201 0.95399 0.70519 0.0
H331 H 0.25964 0.95 0.68553 0.0
H332 H 0.21114 0.99062 0.67801 0.0
H333 H 0.38862 0.24886 0.66174 0.0
H334 H 0.45779 0.21837 0.63666 0.0
H335 H 0.38174 0.02622 0.67105 0.0
C336 C 0.21861 0.08558 0.72384 0.0
C337 C 0.19592 0.13343 0.72665 0.0
C338 C 0.22707 0.19408 0.71401 0.0
C339 C 0.27938 0.2066 0.69864 0.0
C340 C 0.29977 0.15778 0.69597 0.0
C341 C 0.27017 0.09841 0.70823 0.0
C342 C 0.29729 0.0516 0.70111 0.0
C343 C 0.33573 0.04115 0.72044 0.0
C344 C 0.23879 0.9825 0.69191 0.0
C345 C 0.34633 0.09354 0.68284 0.0
C346 C 0.34777 0.15495 0.68019 0.0
C347 C 0.38817 0.20105 0.6638 0.0
C348 C 0.42742 0.18346 0.64965 0.0
C349 C 0.42533 0.12002 0.65185 0.0
C350 C 0.3847 0.07521 0.66887 0.0
H351 H 0.16683 0.30144 0.04813 0.0
H352 H 0.23693 0.16004 0.06501 0.0
H353 H 0.33228 0.21647 0.03816 0.0
H354 H 0.19994 0.30749 0.9903 0.0
H355 H 0.22852 0.39752 0.98814 0.0
H356 H 0.16783 0.34767 1.00933 0.0
H357 H 0.24906 0.43238 0.03994 0.0
H358 H 0.30974 0.48288 0.01881 0.0
H359 H 0.33694 0.45088 0.04162 0.0
H360 H 0.41792 0.28658 1.00736 0.0
H361 H 0.48843 0.36805 0.97792 0.0
H362 H 0.36089 0.46202 0.98245 0.0
C363 C 0.20245 0.28254 0.04638 0.0
C364 C 0.19405 0.22612 0.05874 0.0
C365 C 0.24221 0.20334 0.05585 0.0
C366 C 0.2965 0.23492 0.04055 0.0
C367 C 0.30243 0.28964 0.02834 0.0
C368 C 0.25699 0.3136 0.03133 0.0
C369 C 0.27397 0.3729 1.01623 0.0
C370 C 0.214 0.3553 1.00004 0.0
C371 C 0.29361 0.43865 0.02997 0.0
C372 C 0.33552 0.37817 1.00405 0.0
C373 C 0.35144 0.32984 1.01114 0.0
C374 C 0.40602 0.32488 1.00181 0.0
C375 C 0.44563 0.37108 0.98504 0.0
C376 C 0.43047 0.42159 0.97789 0.0
C377 C 0.37436 0.42441 0.98755 0.0
H378 H 0.99195 0.16221 0.37231 0.0
H379 H 0.1827 0.27724 0.40986 0.0
H380 H 0.21573 0.3779 0.386 0.0
H381 H 0.06164 0.22784 0.3187 0.0
H382 H 0.98581 0.22881 0.30948 0.0
H383 H 0.97839 0.16725 0.32961 0.0
H384 H 0.91766 0.20988 0.35705 0.0
H385 H 0.92438 0.27111 0.33693 0.0
H386 H 0.95912 0.29976 0.36467 0.0
H387 H 0.22695 0.46679 0.35657 0.0
H388 H 0.21139 0.53374 0.32691 0.0
H389 H 0.01307 0.35663 0.31001 0.0
C390 C 0.04067 0.20854 0.37567 0.0
C391 C 0.08469 0.21177 0.39302 0.0
C392 C 0.14801 0.27356 0.3967 0.0
C393 C 0.16727 0.3309 0.38317 0.0
C394 C 0.12268 0.32552 0.36601 0.0
C395 C 0.06052 0.26569 0.3624 0.0
C396 C 0.02099 0.27201 0.34314 0.0
C397 C 0.01116 0.22095 0.32411 0.0
C398 C 0.95145 0.26267 0.35092 0.0
C399 C 0.06994 0.34506 0.33652 0.0
C400 C 0.12877 0.37544 0.34964 0.0
C401 C 0.18094 0.44323 0.34626 0.0
C402 C 0.17194 0.48083 0.32932 0.0
C403 C 0.11096 0.45061 0.31619 0.0
C404 C 0.06016 0.38162 0.31982 0.0
loop_
_geom_bond_atom_site_label_1
_geom_bond_atom_site_label_2
_geom_bond_distance
_geom_bond_site_symmetry_2
_ccdc_geom_bond_type
Co0 O1 2.216 1_445 S
Co0 O2 2.091 . S
Co0 O4 2.004 . S
Co0 O10 2.021 1_445 S
Co0 O12 2.137 . S
Co0 O13 2.244 1_455 S
O1 Co0 2.216 1_665 S
O1 C8 1.247 1_655 S
O2 Co0 2.091 . S
O2 C8 1.261 1_545 S
C3 O12 1.247 . S
C3 O13 1.272 1_455 S
O4 Co0 2.004 . S
O4 C9 1.259 . S
Co5 O6 2.061 1_655 S
Co5 O11 2.052 . S
Co5 O13 2.135 . S
O6 Co5 2.061 1_455 S
O6 C9 1.235 . S
C7 O10 1.238 . S
C7 O11 1.241 1_565 S
C8 O1 1.247 1_455 S
C8 O2 1.261 1_565 S
C9 O4 1.259 . S
C9 O6 1.235 . S
O10 Co0 2.021 1_665 S
O10 C7 1.238 . S
O11 Co5 2.052 . S
O11 C7 1.241 1_545 S
O12 Co0 2.137 . S
O12 C3 1.247 . S
O13 Co0 2.244 1_655 S
O13 C3 1.272 1_655 S
O13 Co5 2.135 . S
Co14 O15 2.216 . S
Co14 O16 2.091 . S
Co14 O18 2.004 . S
Co14 O24 2.021 . S
Co14 O26 2.137 . S
Co14 O27 2.244 1_545 S
O15 Co14 2.216 . S
O15 C22 1.247 . S
O16 Co14 2.091 . S
O16 C22 1.261 . S
C17 O26 1.247 1_565 S
C17 O27 1.272 . S
O18 Co14 2.004 . S
O18 C23 1.259 . S
Co19 O20 2.061 1_665 S
Co19 O25 2.052 . S
Co19 O27 2.135 1_655 S
O20 Co19 2.061 1_445 S
O20 C23 1.235 . S
C21 O24 1.238 1_655 S
C21 O25 1.241 1_545 S
C22 O15 1.247 . S
C22 O16 1.261 . S
C23 O18 1.259 . S
C23 O20 1.235 . S
O24 Co14 2.021 . S
O24 C21 1.238 1_455 S
O25 Co19 2.052 . S
O25 C21 1.241 1_565 S
O26 Co14 2.137 . S
O26 C17 1.247 1_545 S
O27 Co14 2.244 1_565 S
O27 C17 1.272 . S
O27 Co19 2.135 1_455 S
Co28 O29 2.216 . S
Co28 O30 2.091 1_545 S
Co28 O32 2.004 1_445 S
Co28 O38 2.021 . S
Co28 O40 2.137 1_455 S
Co28 O41 2.244 1_455 S
O29 Co28 2.216 . S
O29 C36 1.247 . S
O30 Co28 2.091 1_565 S
O30 C36 1.261 1_565 S
C31 O40 1.247 . S
C31 O41 1.272 . S
O32 Co28 2.004 1_665 S
O32 C37 1.259 . S
Co33 O34 2.061 . S
Co33 O39 2.052 1_655 S
Co33 O41 2.135 . S
O34 Co33 2.061 . S
O34 C37 1.235 1_545 S
C35 O38 1.238 . S
C35 O39 1.241 . S
C36 O29 1.247 . S
C36 O30 1.261 1_545 S
C37 O32 1.259 . S
C37 O34 1.235 1_565 S
O38 Co28 2.021 . S
O38 C35 1.238 . S
O39 Co33 2.052 1_455 S
O39 C35 1.241 . S
O40 Co28 2.137 1_655 S
O40 C31 1.247 . S
O41 Co28 2.244 1_655 S
O41 C31 1.272 . S
O41 Co33 2.135 . S
Mg42 O49 2.141 . S
Mg42 O50 2.048 . S
Mg42 O51 2.048 . S
Mg42 O54 2.141 . S
C43 O44 1.313 1_455 S
C43 O50 1.195 . S
O44 C43 1.313 1_655 S
C45 O46 1.245 1_455 S
C45 O54 1.289 . S
O46 C45 1.245 1_655 S
C47 O48 1.245 1_455 S
C47 O49 1.289 . S
O48 C47 1.245 1_655 S
O49 Mg42 2.141 . S
O49 C47 1.289 . S
O50 Mg42 2.048 . S
O50 C43 1.195 . S
O51 Mg42 2.048 . S
O51 C52 1.195 . S
C52 O51 1.195 . S
C52 O53 1.313 1_455 S
O53 C52 1.313 1_655 S
O54 Mg42 2.141 . S
O54 C45 1.289 . S
Mg55 O62 2.141 . S
Mg55 O63 2.048 . S
Mg55 O64 2.048 . S
Mg55 O67 2.141 . S
C56 O57 1.313 1_545 S
C56 O63 1.195 . S
O57 C56 1.313 1_565 S
C58 O59 1.245 1_545 S
C58 O67 1.289 . S
O59 C58 1.245 1_565 S
C60 O61 1.245 1_545 S
C60 O62 1.289 . S
O61 C60 1.245 1_565 S
O62 Mg55 2.141 . S
O62 C60 1.289 . S
O63 Mg55 2.048 . S
O63 C56 1.195 . S
O64 Mg55 2.048 . S
O64 C65 1.195 . S
C65 O64 1.195 . S
C65 O66 1.313 1_545 S
O66 C65 1.313 1_565 S
O67 Mg55 2.141 . S
O67 C58 1.289 . S
Mg68 O75 2.141 . S
Mg68 O76 2.048 . S
Mg68 O77 2.048 . S
Mg68 O80 2.141 . S
C69 O70 1.313 . S
C69 O76 1.195 . S
O70 C69 1.313 . S
C71 O72 1.245 . S
C71 O80 1.289 . S
O72 C71 1.245 . S
C73 O74 1.245 . S
C73 O75 1.289 . S
O74 C73 1.245 . S
O75 Mg68 2.141 . S
O75 C73 1.289 . S
O76 Mg68 2.048 . S
O76 C69 1.195 . S
O77 Mg68 2.048 . S
O77 C78 1.195 . S
C78 O77 1.195 . S
C78 O79 1.313 . S
O79 C78 1.313 . S
O80 Mg68 2.141 . S
O80 C71 1.289 . S
H81 C93 0.930 . S
H82 C95 0.930 1_655 S
H83 C96 0.930 1_655 S
H84 C100 0.959 1_655 S
H85 C100 0.959 . S
H86 C100 0.961 . S
H87 C101 0.960 . S
H88 C101 0.961 . S
H89 C101 0.959 . S
H90 C104 0.929 1_655 S
H91 C105 0.931 1_655 S
H92 C107 0.930 . S
C93 H81 0.930 . S
C93 C94 1.399 . S
C93 C98 1.399 . S
C94 C93 1.399 . S
C94 C95 1.376 . S
C95 H82 0.930 1_455 S
C95 C94 1.376 . S
C95 C96 1.388 . S
C96 H83 0.930 1_455 S
C96 C95 1.388 . S
C96 C97 1.390 . S
C97 C96 1.390 . S
C97 C98 1.394 . S
C97 C103 1.465 . S
C98 C93 1.399 . S
C98 C97 1.394 . S
C98 C99 1.516 . S
C99 C98 1.516 . S
C99 C100 1.502 . S
C99 C101 1.561 . S
C99 C102 1.526 . S
C100 H84 0.959 1_455 S
C100 H85 0.959 . S
C100 H86 0.961 . S
C100 C99 1.502 . S
C101 H87 0.960 . S
C101 H88 0.961 . S
C101 H89 0.959 . S
C101 C99 1.561 . S
C102 C99 1.526 . S
C102 C103 1.396 . S
C102 C107 1.390 . S
C103 C97 1.465 . S
C103 C102 1.396 . S
C103 C104 1.399 . S
C104 H90 0.929 1_455 S
C104 C103 1.399 . S
C104 C105 1.385 . S
C105 H91 0.931 1_455 S
C105 C104 1.385 . S
C105 C106 1.389 . S
C106 C105 1.389 . S
C106 C107 1.387 . S
C107 H92 0.930 . S
C107 C102 1.390 . S
C107 C106 1.387 . S
H108 C120 0.930 1_565 S
H109 C122 0.930 . S
H110 C123 0.930 . S
H111 C127 0.959 . S
H112 C127 0.959 . S
H113 C127 0.961 . S
H114 C128 0.960 . S
H115 C128 0.961 . S
H116 C128 0.959 . S
H117 C131 0.929 . S
H118 C132 0.931 . S
H119 C134 0.930 1_565 S
C120 H108 0.930 1_545 S
C120 C121 1.399 . S
C120 C125 1.399 . S
C121 C120 1.399 . S
C121 C122 1.376 . S
C122 H109 0.930 . S
C122 C121 1.376 . S
C122 C123 1.388 . S
C123 H110 0.930 . S
C123 C122 1.388 . S
C123 C124 1.390 . S
C124 C123 1.390 . S
C124 C125 1.394 . S
C124 C130 1.465 . S
C125 C120 1.399 . S
C125 C124 1.394 . S
C125 C126 1.516 1_545 S
C126 C125 1.516 1_565 S
C126 C127 1.502 . S
C126 C128 1.561 . S
C126 C129 1.526 1_565 S
C127 H111 0.959 . S
C127 H112 0.959 . S
C127 H113 0.961 . S
C127 C126 1.502 . S
C128 H114 0.960 . S
C128 H115 0.961 . S
C128 H116 0.959 . S
C128 C126 1.561 . S
C129 C126 1.526 1_545 S
C129 C130 1.396 . S
C129 C134 1.390 . S
C130 C124 1.465 . S
C130 C129 1.396 . S
C130 C131 1.399 . S
C131 H117 0.929 . S
C131 C130 1.399 . S
C131 C132 1.385 . S
C132 H118 0.931 . S
C132 C131 1.385 . S
C132 C133 1.389 . S
C133 C132 1.389 . S
C133 C134 1.387 . S
C134 H119 0.930 1_545 S
C134 C129 1.390 . S
C134 C133 1.387 . S
H135 C147 0.930 . S
H136 C149 0.930 . S
H137 C150 0.930 . S
H138 C154 0.959 . S
H139 C154 0.959 . S
H140 C154 0.961 . S
H141 C155 0.960 . S
H142 C155 0.961 . S
H143 C155 0.959 . S
H144 C158 0.929 . S
H145 C159 0.931 . S
H146 C161 0.930 . S
C147 H135 0.930 . S
C147 C148 1.399 . S
C147 C152 1.399 . S
C148 C147 1.399 . S
C148 C149 1.376 . S
C149 H136 0.930 . S
C149 C148 1.376 . S
C149 C150 1.388 . S
C150 H137 0.930 . S
C150 C149 1.388 . S
C150 C151 1.390 . S
C151 C150 1.390 . S
C151 C152 1.394 . S
C151 C157 1.465 . S
C152 C147 1.399 . S
C152 C151 1.394 . S
C152 C153 1.516 . S
C153 C152 1.516 . S
C153 C154 1.502 . S
C153 C155 1.561 . S
C153 C156 1.526 . S
C154 H138 0.959 . S
C154 H139 0.959 . S
C154 H140 0.961 . S
C154 C153 1.502 . S
C155 H141 0.960 . S
C155 H142 0.961 . S
C155 H143 0.959 . S
C155 C153 1.561 . S
C156 C153 1.526 . S
C156 C157 1.396 . S
C156 C161 1.390 . S
C157 C151 1.465 . S
C157 C156 1.396 . S
C157 C158 1.399 . S
C158 H144 0.929 . S
C158 C157 1.399 . S
C158 C159 1.385 . S
C159 H145 0.931 . S
C159 C158 1.385 . S
C159 C160 1.389 . S
C160 C159 1.389 . S
C160 C161 1.387 . S
C161 H146 0.930 . S
C161 C156 1.390 . S
C161 C160 1.387 . S
H162 C174 0.930 1_655 S
H163 C176 0.930 1_545 S
H164 C177 0.930 . S
H165 C181 0.959 . S
H166 C181 0.959 . S
H167 C181 0.961 . S
H168 C182 0.960 . S
H169 C182 0.961 . S
H170 C182 0.959 1_455 S
H171 C185 0.929 . S
H172 C186 0.931 . S
H173 C188 0.930 . S
C174 H162 0.930 1_455 S
C174 C175 1.399 . S
C174 C179 1.399 . S
C175 C174 1.399 . S
C175 C176 1.376 . S
C176 H163 0.930 1_565 S
C176 C175 1.376 . S
C176 C177 1.388 . S
C177 H164 0.930 . S
C177 C176 1.388 . S
C177 C178 1.390 . S
C178 C177 1.390 . S
C178 C179 1.394 . S
C178 C184 1.465 . S
C179 C174 1.399 . S
C179 C178 1.394 . S
C179 C180 1.516 1_455 S
C180 C179 1.516 1_655 S
C180 C181 1.502 . S
C180 C182 1.561 . S
C180 C183 1.526 1_655 S
C181 H165 0.959 . S
C181 H166 0.959 . S
C181 H167 0.961 . S
C181 C180 1.502 . S
C182 H168 0.960 . S
C182 H169 0.961 . S
C182 H170 0.959 1_655 S
C182 C180 1.561 . S
C183 C180 1.526 1_455 S
C183 C184 1.396 . S
C183 C188 1.390 1_455 S
C184 C178 1.465 . S
C184 C183 1.396 . S
C184 C185 1.399 . S
C185 H171 0.929 . S
C185 C184 1.399 . S
C185 C186 1.385 . S
C186 H172 0.931 . S
C186 C185 1.385 . S
C186 C187 1.389 . S
C187 C186 1.389 . S
C187 C188 1.387 1_455 S
C188 H173 0.930 . S
C188 C183 1.390 1_655 S
C188 C187 1.387 1_655 S
H189 C201 0.930 . S
H190 C203 0.930 1_565 S
H191 C204 0.930 . S
H192 C208 0.959 . S
H193 C208 0.959 . S
H194 C208 0.961 . S
H195 C209 0.960 . S
H196 C209 0.961 . S
H197 C209 0.959 . S
H198 C212 0.929 . S
H199 C213 0.931 . S
H200 C215 0.930 . S
C201 H189 0.930 . S
C201 C202 1.399 . S
C201 C206 1.399 . S
C202 C201 1.399 . S
C202 C203 1.376 . S
C203 H190 0.930 1_545 S
C203 C202 1.376 . S
C203 C204 1.388 1_545 S
C204 H191 0.930 . S
C204 C203 1.388 1_565 S
C204 C205 1.390 1_565 S
C205 C204 1.390 1_545 S
C205 C206 1.394 . S
C205 C211 1.465 . S
C206 C201 1.399 . S
C206 C205 1.394 . S
C206 C207 1.516 . S
C207 C206 1.516 . S
C207 C208 1.502 . S
C207 C209 1.561 . S
C207 C210 1.526 . S
C208 H192 0.959 . S
C208 H193 0.959 . S
C208 H194 0.961 . S
C208 C207 1.502 . S
C209 H195 0.960 . S
C209 H196 0.961 . S
C209 H197 0.959 . S
C209 C207 1.561 . S
C210 C207 1.526 . S
C210 C211 1.396 . S
C210 C215 1.390 . S
C211 C205 1.465 . S
C211 C210 1.396 . S
C211 C212 1.399 1_545 S
C212 H198 0.929 . S
C212 C211 1.399 1_565 S
C212 C213 1.385 . S
C213 H199 0.931 . S
C213 C212 1.385 . S
C213 C214 1.389 1_565 S
C214 C213 1.389 1_545 S
C214 C215 1.387 . S
C215 H200 0.930 . S
C215 C210 1.390 . S
C215 C214 1.387 . S
H216 C228 0.930 . S
H217 C230 0.930 . S
H218 C231 0.930 . S
H219 C235 0.959 . S
H220 C235 0.959 . S
H221 C235 0.961 . S
H222 C236 0.960 . S
H223 C236 0.961 . S
H224 C236 0.959 . S
H225 C239 0.929 . S
H226 C240 0.931 . S
H227 C242 0.930 . S
C228 H216 0.930 . S
C228 C229 1.399 . S
C228 C233 1.399 . S
C229 C228 1.399 . S
C229 C230 1.376 . S
C230 H217 0.930 . S
C230 C229 1.376 . S
C230 C231 1.388 . S
C231 H218 0.930 . S
C231 C230 1.388 . S
C231 C232 1.390 . S
C232 C231 1.390 . S
C232 C233 1.394 . S
C232 C238 1.465 . S
C233 C228 1.399 . S
C233 C232 1.394 . S
C233 C234 1.516 . S
C234 C233 1.516 . S
C234 C235 1.502 . S
C234 C236 1.561 . S
C234 C237 1.526 . S
C235 H219 0.959 . S
C235 H220 0.959 . S
C235 H221 0.961 . S
C235 C234 1.502 . S
C236 H222 0.960 . S
C236 H223 0.961 . S
C236 H224 0.959 . S
C236 C234 1.561 . S
C237 C234 1.526 . S
C237 C238 1.396 . S
C237 C242 1.390 . S
C238 C232 1.465 . S
C238 C237 1.396 . S
C238 C239 1.399 . S
C239 H225 0.929 . S
C239 C238 1.399 . S
C239 C240 1.385 . S
C240 H226 0.931 . S
C240 C239 1.385 . S
C240 C241 1.389 . S
C241 C240 1.389 . S
C241 C242 1.387 . S
C242 H227 0.930 . S
C242 C237 1.390 . S
C242 C241 1.387 . S
H243 C255 0.930 1_565 S
H244 C257 0.930 . S
H245 C258 0.930 . S
H246 C262 0.959 . S
H247 C262 0.959 . S
H248 C262 0.961 . S
H249 C263 0.960 . S
H250 C263 0.961 . S
H251 C263 0.959 . S
H252 C266 0.929 . S
H253 C267 0.931 . S
H254 C269 0.930 1_565 S
C255 H243 0.930 1_545 S
C255 C256 1.399 . S
C255 C260 1.399 . S
C256 C255 1.399 . S
C256 C257 1.376 . S
C257 H244 0.930 . S
C257 C256 1.376 . S
C257 C258 1.388 . S
C258 H245 0.930 . S
C258 C257 1.388 . S
C258 C259 1.390 . S
C259 C258 1.390 . S
C259 C260 1.394 . S
C259 C265 1.465 . S
C260 C255 1.399 . S
C260 C259 1.394 . S
C260 C261 1.516 1_545 S
C261 C260 1.516 1_565 S
C261 C262 1.502 . S
C261 C263 1.561 . S
C261 C264 1.526 1_565 S
C262 H246 0.959 . S
C262 H247 0.959 . S
C262 H248 0.961 . S
C262 C261 1.502 . S
C263 H249 0.960 . S
C263 H250 0.961 . S
C263 H251 0.959 . S
C263 C261 1.561 . S
C264 C261 1.526 1_545 S
C264 C265 1.396 . S
C264 C269 1.390 . S
C265 C259 1.465 . S
C265 C264 1.396 . S
C265 C266 1.399 . S
C266 H252 0.929 . S
C266 C265 1.399 . S
C266 C267 1.385 . S
C267 H253 0.931 . S
C267 C266 1.385 . S
C267 C268 1.389 . S
C268 C267 1.389 . S
C268 C269 1.387 . S
C269 H254 0.930 1_545 S
C269 C264 1.390 . S
C269 C268 1.387 . S
H270 C282 0.930 . S
H271 C284 0.930 . S
H272 C285 0.930 . S
H273 C289 0.959 . S
H274 C289 0.959 . S
H275 C289 0.961 . S
H276 C290 0.960 . S
H277 C290 0.961 . S
H278 C290 0.959 . S
H279 C293 0.929 1_554 S
H280 C294 0.931 . S
H281 C296 0.930 . S
C282 H270 0.930 . S
C282 C283 1.399 . S
C282 C287 1.399 . S
C283 C282 1.399 . S
C283 C284 1.376 . S
C284 H271 0.930 . S
C284 C283 1.376 . S
C284 C285 1.388 . S
C285 H272 0.930 . S
C285 C284 1.388 . S
C285 C286 1.390 . S
C286 C285 1.390 . S
C286 C287 1.394 . S
C286 C292 1.461 1_554 S
C287 C282 1.399 . S
C287 C286 1.394 . S
C287 C288 1.516 1_554 S
C288 C287 1.516 1_556 S
C288 C289 1.502 . S
C288 C290 1.561 . S
C288 C291 1.526 . S
C289 H273 0.959 . S
C289 H274 0.959 . S
C289 H275 0.961 . S
C289 C288 1.502 . S
C290 H276 0.960 . S
C290 H277 0.961 . S
C290 H278 0.959 . S
C290 C288 1.561 . S
C291 C288 1.526 . S
C291 C292 1.401 . S
C291 C296 1.390 . S
C292 C286 1.461 1_556 S
C292 C291 1.401 . S
C292 C293 1.399 . S
C293 H279 0.929 1_556 S
C293 C292 1.399 . S
C293 C294 1.385 . S
C294 H280 0.931 . S
C294 C293 1.385 . S
C294 C295 1.389 . S
C295 C294 1.389 . S
C295 C296 1.387 . S
C296 H281 0.930 . S
C296 C291 1.390 . S
C296 C295 1.387 . S
H297 C309 0.930 . S
H298 C311 0.934 . S
H299 C312 0.930 . S
H300 C316 0.959 . S
H301 C316 0.959 . S
H302 C316 0.961 . S
H303 C317 0.960 . S
H304 C317 0.961 . S
H305 C317 0.959 1_655 S
H306 C320 0.929 . S
H307 C321 0.931 . S
H308 C323 0.930 . S
C309 H297 0.930 . S
C309 C310 1.399 . S
C309 C314 1.399 . S
C310 C309 1.399 . S
C310 C311 1.374 1_455 S
C311 H298 0.934 . S
C311 C310 1.374 1_655 S
C311 C312 1.387 . S
C312 H299 0.930 . S
C312 C311 1.387 . S
C312 C313 1.390 1_655 S
C313 C312 1.390 1_455 S
C313 C314 1.394 . S
C313 C319 1.465 . S
C314 C309 1.399 . S
C314 C313 1.394 . S
C314 C315 1.516 . S
C315 C314 1.516 . S
C315 C316 1.502 . S
C315 C317 1.561 . S
C315 C318 1.526 . S
C316 H300 0.959 . S
C316 H301 0.959 . S
C316 H302 0.961 . S
C316 C315 1.502 . S
C317 H303 0.960 . S
C317 H304 0.961 . S
C317 H305 0.959 1_455 S
C317 C315 1.561 . S
C318 C315 1.526 . S
C318 C319 1.396 . S
C318 C323 1.390 . S
C319 C313 1.465 . S
C319 C318 1.396 . S
C319 C320 1.399 1_455 S
C320 H306 0.929 . S
C320 C319 1.399 1_655 S
C320 C321 1.385 . S
C321 H307 0.931 . S
C321 C320 1.385 . S
C321 C322 1.389 1_655 S
C322 C321 1.389 1_455 S
C322 C323 1.387 . S
C323 H308 0.930 . S
C323 C318 1.390 . S
C323 C322 1.387 . S
H324 C336 0.930 . S
H325 C338 0.930 . S
H326 C339 0.930 . S
H327 C343 0.959 . S
H328 C343 0.959 . S
H329 C343 0.961 . S
H330 C344 0.960 . S
H331 C344 0.961 . S
H332 C344 0.959 . S
H333 C347 0.929 . S
H334 C348 0.931 . S
H335 C350 0.930 1_565 S
C336 H324 0.930 . S
C336 C337 1.399 1_565 S
C336 C341 1.399 1_565 S
C337 C336 1.399 1_545 S
C337 C338 1.376 . S
C338 H325 0.930 . S
C338 C337 1.376 . S
C338 C339 1.388 . S
C339 H326 0.930 . S
C339 C338 1.388 . S
C339 C340 1.390 . S
C340 C339 1.390 . S
C340 C341 1.394 . S
C340 C346 1.465 . S
C341 C336 1.399 1_545 S
C341 C340 1.394 . S
C341 C342 1.516 1_545 S
C342 C341 1.516 1_565 S
C342 C343 1.502 . S
C342 C344 1.561 . S
C342 C345 1.526 1_565 S
C343 H327 0.959 . S
C343 H328 0.959 . S
C343 H329 0.961 . S
C343 C342 1.502 . S
C344 H330 0.960 . S
C344 H331 0.961 . S
C344 H332 0.959 . S
C344 C342 1.561 . S
C345 C342 1.526 1_545 S
C345 C346 1.396 . S
C345 C350 1.390 . S
C346 C340 1.465 . S
C346 C345 1.396 . S
C346 C347 1.399 . S
C347 H333 0.929 . S
C347 C346 1.399 . S
C347 C348 1.385 . S
C348 H334 0.931 . S
C348 C347 1.385 . S
C348 C349 1.389 . S
C349 C348 1.389 . S
C349 C350 1.387 . S
C350 H335 0.930 1_545 S
C350 C345 1.390 . S
C350 C349 1.387 . S
H351 C363 0.930 . S
H352 C365 0.930 . S
H353 C366 0.930 1_556 S
H354 C370 0.959 . S
H355 C370 0.959 . S
H356 C370 0.961 . S
H357 C371 0.960 . S
H358 C371 0.961 . S
H359 C371 0.959 . S
H360 C374 0.929 . S
H361 C375 0.931 . S
H362 C377 0.930 . S
C363 H351 0.930 . S
C363 C364 1.399 . S
C363 C368 1.399 . S
C364 C363 1.399 . S
C364 C365 1.376 . S
C365 H352 0.930 . S
C365 C364 1.376 . S
C365 C366 1.388 . S
C366 H353 0.930 1_554 S
C366 C365 1.388 . S
C366 C367 1.390 . S
C367 C366 1.390 . S
C367 C368 1.394 . S
C367 C373 1.465 1_554 S
C368 C363 1.399 . S
C368 C367 1.394 . S
C368 C369 1.516 . S
C369 C368 1.516 . S
C369 C370 1.502 . S
C369 C371 1.561 . S
C369 C372 1.526 1_554 S
C370 H354 0.959 . S
C370 H355 0.959 . S
C370 H356 0.961 . S
C370 C369 1.502 . S
C371 H357 0.960 . S
C371 H358 0.961 . S
C371 H359 0.959 . S
C371 C369 1.561 . S
C372 C369 1.526 1_556 S
C372 C373 1.396 . S
C372 C377 1.390 . S
C373 C367 1.465 1_556 S
C373 C372 1.396 . S
C373 C374 1.399 . S
C374 H360 0.929 . S
C374 C373 1.399 . S
C374 C375 1.385 . S
C375 H361 0.931 . S
C375 C374 1.385 . S
C375 C376 1.389 . S
C376 C375 1.389 . S
C376 C377 1.387 . S
C377 H362 0.930 . S
C377 C372 1.390 . S
C377 C376 1.387 . S
H378 C390 0.930 . S
H379 C392 0.930 1_655 S
H380 C393 0.924 1_655 S
H381 C397 0.959 . S
H382 C397 0.959 . S
H383 C397 0.961 . S
H384 C398 0.960 . S
H385 C398 0.961 . S
H386 C398 0.959 1_655 S
H387 C401 0.929 . S
H388 C402 0.919 1_655 S
H389 C404 0.930 . S
C390 H378 0.930 . S
C390 C391 1.399 . S
C390 C395 1.399 . S
C391 C390 1.399 . S
C391 C392 1.376 . S
C392 H379 0.930 1_455 S
C392 C391 1.376 . S
C392 C393 1.393 . S
C393 H380 0.924 1_455 S
C393 C392 1.393 . S
C393 C394 1.392 . S
C394 C393 1.392 . S
C394 C395 1.394 . S
C394 C400 1.465 . S
C395 C390 1.399 . S
C395 C394 1.394 . S
C395 C396 1.516 . S
C396 C395 1.516 . S
C396 C397 1.502 . S
C396 C398 1.561 . S
C396 C399 1.526 . S
C397 H381 0.959 . S
C397 H382 0.959 . S
C397 H383 0.961 . S
C397 C396 1.502 . S
C398 H384 0.960 . S
C398 H385 0.961 . S
C398 H386 0.959 1_455 S
C398 C396 1.561 . S
C399 C396 1.526 . S
C399 C400 1.396 . S
C399 C404 1.390 . S
C400 C394 1.465 . S
C400 C399 1.396 . S
C400 C401 1.399 1_455 S
C401 H387 0.929 . S
C401 C400 1.399 1_655 S
C401 C402 1.389 1_655 S
C402 H388 0.919 1_455 S
C402 C401 1.389 1_455 S
C402 C403 1.397 . S
C403 C402 1.397 . S
C403 C404 1.387 . S
C404 H389 0.930 . S
C404 C399 1.390 . S
C404 C403 1.387 . S
C106 C47 1.408 . S
C94 C3 1.426 . S
C121 C21 1.499 . S
C133 C65 1.526 . S
C148 C37 1.500 . S
C160 C78 1.470 . S
C175 C8 1.417 . S
C187 C45 1.430 . S
C214 C56 1.474 . S
C202 C23 1.443 . S
C229 C35 1.444 . S
C241 C69 1.490 . S
C268 C58 1.430 . S
C256 C31 1.432 . S
C283 C7 1.430 . S
C295 C71 1.399 . S
C322 C52 1.477 . S
C310 C17 1.484 . S
C349 C60 1.394 . S
C337 C36 1.379 . S
C376 C73 1.400 . S
C364 C9 1.433 . S
C391 C22 1.489 . S
C403 C43 1.475 . S
