# Generated by pormake.
# Topology pyr, (3,6)-cn, num edge types: 1
# Building blocks:
#     Node 0, Type 0, BuildingBlock: WUSLED_clean_sbu_0, # of connection points: 3
#     Node 1, Type 0, BuildingBlock: WUSLED_clean_sbu_0, # of connection points: 3
#     Node 2, Type 0, BuildingBlock: WUSLED_clean_sbu_0, # of connection points: 3
#     Node 3, Type 0, BuildingBlock: WUSLED_clean_sbu_0, # of connection points: 3
#     Node 4, Type 0, BuildingBlock: WUSLED_clean_sbu_0, # of connection points: 3
#     Node 5, Type 0, BuildingBlock: WUSLED_clean_sbu_0, # of connection points: 3
#     Node 6, Type 0, BuildingBlock: WUSLED_clean_sbu_0, # of connection points: 3
#     Node 7, Type 0, BuildingBlock: WUSLED_clean_sbu_0, # of connection points: 3
#     Node 8, Type 1, BuildingBlock: BETDEL_clean_sbu_0, # of connection points: 6
#     Node 9, Type 1, BuildingBlock: BETDEL_clean_sbu_0, # of connection points: 6
#     Node 10, Type 1, BuildingBlock: BETDEL_clean_sbu_0, # of connection points: 6
#     Node 11, Type 1, BuildingBlock: BETDEL_clean_sbu_0, # of connection points: 6
#     Edge 12, Type (0, 1), None
#     Edge 13, Type (0, 1), None
#     Edge 14, Type (0, 1), None
#     Edge 15, Type (0, 1), None
#     Edge 16, Type (0, 1), None
#     Edge 17, Type (0, 1), None
#     Edge 18, Type (0, 1), None
#     Edge 19, Type (0, 1), None
#     Edge 20, Type (0, 1), None
#     Edge 21, Type (0, 1), None
#     Edge 22, Type (0, 1), None
#     Edge 23, Type (0, 1), None
#     Edge 24, Type (0, 1), None
#     Edge 25, Type (0, 1), None
#     Edge 26, Type (0, 1), None
#     Edge 27, Type (0, 1), None
#     Edge 28, Type (0, 1), None
#     Edge 29, Type (0, 1), None
#     Edge 30, Type (0, 1), None
#     Edge 31, Type (0, 1), None
#     Edge 32, Type (0, 1), None
#     Edge 33, Type (0, 1), None
#     Edge 34, Type (0, 1), None
#     Edge 35, Type (0, 1), None
# Relax obj value: 0.038
# Max RMSD: 0.097
# Mean RMSD: 0.041
data_MOF--net-pyr--node1-WUSLED_clean_sbu_0--node2-BETDEL_clean_sbu_0--edge1-none
_symmetry_space_group_name_H-M    P1
_symmetry_Int_Tables_number       1
_symmetry_cell_setting            triclinic
loop_
_symmetry_equiv_pos_as_xyz
'x, y, z'
_cell_length_a     27.152967
_cell_length_b     28.801276
_cell_length_c     26.700212
_cell_angle_alpha  90.665388
_cell_angle_beta   89.377763
_cell_angle_gamma 97.158726
loop_
_atom_site_label
_atom_site_type_symbol
_atom_site_fract_x
_atom_site_fract_y
_atom_site_fract_z
_atom_type_partial_charge
C0 C 0.20407 0.33264 0.12299 0.0
C1 C 0.15681 0.32581 0.14605 0.0
C2 C 0.12909 0.3868 0.09441 0.0
C3 C 0.11953 0.35284 0.13194 0.0
C4 C 0.17725 0.39504 0.0738 0.0
C5 C 0.21423 0.36828 0.0879 0.0
U6 U 0.24878 0.23097 0.19191 0.0
O7 O 0.2685 0.16448 0.16247 0.0
O8 O 0.32302 0.21009 0.20713 0.0
C9 C 0.31299 0.1704 0.18217 0.0
C10 C 0.24093 0.29963 0.13001 0.0
C11 C 0.35285 0.15178 0.15333 0.0
C12 C 0.38751 0.12662 0.07453 0.0
C13 C 0.35567 0.15341 0.10074 0.0
C14 C 0.41595 0.09891 0.15318 0.0
C15 C 0.41702 0.09842 0.10071 0.0
C16 C 0.38384 0.12503 0.17919 0.0
C17 C 0.1638 0.18392 0.30179 0.0
C18 C 0.15611 0.10621 0.33825 0.0
C19 C 0.09879 0.161 0.36204 0.0
C20 C 0.12364 0.19446 0.33086 0.0
C21 C 0.11399 0.11632 0.36539 0.0
C22 C 0.18075 0.13989 0.30596 0.0
C23 C 0.1818 0.21753 0.26312 0.0
O24 O 0.26832 0.30503 0.17056 0.0
O25 O 0.22436 0.25573 0.12015 0.0
O26 O 0.17445 0.20236 0.21698 0.0
O27 O 0.22514 0.2426 0.26994 0.0
H28 H 0.14828 0.29857 0.17359 0.0
H29 H 0.08318 0.3465 0.14945 0.0
H30 H 0.18627 0.42171 0.04576 0.0
H31 H 0.25037 0.37431 0.06987 0.0
H32 H 0.38899 0.12775 0.03399 0.0
H33 H 0.33209 0.1739 0.08005 0.0
H34 H 0.43879 0.07781 0.17406 0.0
H35 H 0.38176 0.1228 0.21967 0.0
H36 H 0.16914 0.0723 0.34115 0.0
H37 H 0.0673 0.17031 0.38348 0.0
H38 H 0.11016 0.22821 0.32802 0.0
H39 H 0.21184 0.13128 0.28343 0.0
C40 C 0.20477 0.90951 0.5833 0.0
C41 C 0.20741 0.95181 0.61076 0.0
C42 C 0.13221 0.97063 0.57068 0.0
C43 C 0.17161 0.98248 0.60401 0.0
C44 C 0.12889 0.9276 0.54482 0.0
C45 C 0.16495 0.89755 0.55085 0.0
U46 U 0.31531 0.86949 0.64981 0.0
O47 O 0.38514 0.84583 0.62165 0.0
O48 O 0.3329 0.79926 0.66831 0.0
C49 C 0.37614 0.80574 0.64518 0.0
C50 C 0.2433 0.8777 0.58703 0.0
C51 C 0.39845 0.76458 0.62706 0.0
C52 C 0.39673 0.69111 0.58089 0.0
C53 C 0.37542 0.73207 0.59239 0.0
C54 C 0.46393 0.71535 0.63812 0.0
C55 C 0.44087 0.6822 0.60431 0.0
C56 C 0.44295 0.75608 0.64924 0.0
C57 C 0.35562 0.94043 0.76977 0.0
C58 C 0.4085 0.92038 0.83716 0.0
C59 C 0.37706 0.9956 0.83731 0.0
C60 C 0.35288 0.98396 0.79248 0.0
C61 C 0.40456 0.96387 0.86039 0.0
C62 C 0.38401 0.90863 0.79185 0.0
C63 C 0.32565 0.92899 0.725 0.0
O64 O 0.28935 0.89671 0.5794 0.0
O65 O 0.2385 0.84888 0.62506 0.0
O66 O 0.29558 0.88961 0.72618 0.0
O67 O 0.34805 0.93713 0.68155 0.0
H68 H 0.23768 0.96154 0.63642 0.0
H69 H 0.1751 1.01563 0.62407 0.0
H70 H 0.09945 0.91804 0.51816 0.0
H71 H 0.16223 0.86522 0.52933 0.0
H72 H 0.37864 0.66641 0.55395 0.0
H73 H 0.34097 0.73801 0.5749 0.0
H74 H 0.49818 0.70977 0.65621 0.0
H75 H 0.46111 0.78071 0.67625 0.0
H76 H 0.43032 0.89571 0.8539 0.0
H77 H 0.37393 0.02957 0.85406 0.0
H78 H 0.33121 1.00884 0.77586 0.0
H79 H 0.38665 0.87482 0.77451 0.0
C80 C 0.59622 0.40456 0.74519 0.0
C81 C 0.60742 0.45387 0.74505 0.0
C82 C 0.56703 0.45869 0.66303 0.0
C83 C 0.59279 0.48065 0.70448 0.0
C84 C 0.55615 0.40962 0.66388 0.0
C85 C 0.57014 0.3833 0.7041 0.0
U86 U 0.66862 0.35291 0.85912 0.0
O87 O 0.63481 0.31353 0.92436 0.0
O88 O 0.67821 0.27834 0.86938 0.0
C89 C 0.6531 0.27477 0.91178 0.0
C90 C 0.60795 0.37322 0.78725 0.0
C91 C 0.62446 0.22865 0.92478 0.0
C92 C 0.54975 0.17195 0.92429 0.0
C93 C 0.57562 0.21505 0.90904 0.0
C94 C 0.62117 0.15461 0.97045 0.0
C95 C 0.57206 0.14113 0.95538 0.0
C96 C 0.64687 0.19785 0.95547 0.0
C97 C 0.79632 0.4231 0.90609 0.0
C98 C 0.85706 0.41165 0.97092 0.0
C99 C 0.86934 0.47983 0.91808 0.0
C100 C 0.82565 0.46455 0.89275 0.0
C101 C 0.88556 0.45424 0.95808 0.0
C102 C 0.81243 0.39624 0.94523 0.0
C103 C 0.74964 0.41097 0.87758 0.0
O104 O 0.64387 0.34709 0.78024 0.0
O105 O 0.60433 0.38721 0.83408 0.0
O106 O 0.70705 0.41348 0.90067 0.0
O107 O 0.74779 0.37707 0.84406 0.0
H108 H 0.62738 0.47165 0.77607 0.0
H109 H 0.60247 0.51828 0.7051 0.0
H110 H 0.53618 0.39122 0.6332 0.0
H111 H 0.5602 0.34567 0.70309 0.0
H112 H 0.51194 0.16282 0.91176 0.0
H113 H 0.55731 0.23785 0.88544 0.0
H114 H 0.6394 0.13219 0.99457 0.0
H115 H 0.68446 0.20756 0.96843 0.0
H116 H 0.86841 0.39113 1.00149 0.0
H117 H 0.89031 0.51241 0.90625 0.0
H118 H 0.81439 0.48575 0.86265 0.0
H119 H 0.79045 0.36392 0.95619 0.0
C120 C 0.74151 0.60848 0.41664 0.0
C121 C 0.73111 0.63893 0.45585 0.0
C122 C 0.65322 0.58868 0.47741 0.0
C123 C 0.68765 0.62918 0.48565 0.0
C124 C 0.6644 0.55779 0.43896 0.0
C125 C 0.70775 0.56761 0.40912 0.0
U126 U 0.86528 0.67701 0.3551 0.0
O127 O 0.92834 0.64499 0.32171 0.0
O128 O 0.88239 0.68241 0.27361 0.0
C129 C 0.92059 0.65865 0.27591 0.0
C130 C 0.78554 0.61842 0.38165 0.0
C131 C 0.9307 0.62702 0.23257 0.0
C132 C 0.92952 0.54963 0.19282 0.0
C133 C 0.91482 0.57864 0.23198 0.0
C134 C 0.97491 0.61663 0.15274 0.0
C135 C 0.96035 0.56794 0.15283 0.0
C136 C 0.96048 0.64556 0.19205 0.0
C137 C 0.9149 0.80172 0.42334 0.0
C138 C 0.9761 0.87184 0.4132 0.0
C139 C 0.92031 0.86592 0.48446 0.0
C140 C 0.89873 0.82192 0.46758 0.0
C141 C 0.95928 0.89206 0.4578 0.0
C142 C 0.95412 0.82707 0.39612 0.0
C143 C 0.88782 0.75525 0.40769 0.0
O144 O 0.78494 0.65218 0.34906 0.0
O145 O 0.83033 0.61627 0.39905 0.0
O146 O 0.90589 0.7161 0.41755 0.0
O147 O 0.85877 0.75215 0.36844 0.0
H148 H 0.7561 0.6706 0.46297 0.0
H149 H 0.68062 0.65394 0.51491 0.0
H150 H 0.63905 0.52654 0.43109 0.0
H151 H 0.71452 0.54335 0.37926 0.0
H152 H 0.9175 0.51239 0.19444 0.0
H153 H 0.89203 0.56303 0.26239 0.0
H154 H 0.99896 0.63221 0.12321 0.0
H155 H 0.97385 0.6826 0.19147 0.0
H156 H 1.00619 0.89043 0.39168 0.0
H157 H 0.90574 0.87955 0.51878 0.0
H158 H 0.86859 0.80359 0.48934 0.0
H159 H 0.96755 0.81249 0.36177 0.0
C160 C 0.82747 0.71104 0.91912 0.0
C161 C 0.87436 0.71701 0.89529 0.0
C162 C 0.9045 0.66227 0.95307 0.0
C163 C 0.91268 0.69262 0.9121 0.0
C164 C 0.85663 0.65445 0.97444 0.0
C165 C 0.81858 0.67859 0.95765 0.0
U166 U 0.7836 0.80916 0.84482 0.0
O167 O 0.7684 0.878 0.87169 0.0
O168 O 0.71026 0.83251 0.83147 0.0
C169 C 0.72279 0.8727 0.85482 0.0
C170 C 0.79061 0.74342 0.91028 0.0
C171 C 0.68552 0.89163 0.88687 0.0
C172 C 0.65351 0.91182 0.9688 0.0
C173 C 0.6839 0.88619 0.93919 0.0
C174 C 0.62475 0.94636 0.89388 0.0
C175 C 0.62436 0.94259 0.94616 0.0
C176 C 0.65532 0.92139 0.86458 0.0
C177 C 0.8663 0.85393 0.7346 0.0
C178 C 0.8602 0.92745 0.69268 0.0
C179 C 0.93702 0.89254 0.68938 0.0
C180 C 0.9151 0.85494 0.71717 0.0
C181 C 0.91016 0.92938 0.67768 0.0
C182 C 0.83847 0.89008 0.72195 0.0
C183 C 0.84918 0.81879 0.772 0.0
O184 O 0.80772 0.78755 0.91782 0.0
O185 O 0.76308 0.7363 0.86993 0.0
O186 O 0.80475 0.79537 0.76645 0.0
O187 O 0.85867 0.83295 0.81812 0.0
H188 H 0.88188 0.74194 0.86525 0.0
H189 H 0.94878 0.69836 0.894 0.0
H190 H 0.84872 0.63032 1.00513 0.0
H191 H 0.78275 0.67345 0.97641 0.0
H192 H 0.65263 0.90756 1.00907 0.0
H193 H 0.70703 0.86331 0.95707 0.0
H194 H 0.60223 0.96963 0.8757 0.0
H195 H 0.65655 0.92651 0.82441 0.0
H196 H 0.8387 0.9553 0.68313 0.0
H197 H 0.97513 0.89268 0.67685 0.0
H198 H 0.93703 0.82742 0.72682 0.0
H199 H 0.80081 0.89003 0.7358 0.0
C200 C 0.64098 0.14887 0.27591 0.0
C201 C 0.66568 0.10993 0.26435 0.0
C202 C 0.62329 0.10126 0.18451 0.0
C203 C 0.6563 0.08572 0.21886 0.0
C204 C 0.59869 0.13997 0.1967 0.0
C205 C 0.60719 0.1633 0.24216 0.0
U206 U 0.71471 0.18723 0.39482 0.0
O207 O 0.73872 0.2593 0.41983 0.0
O208 O 0.68558 0.21375 0.46556 0.0
C209 C 0.70733 0.25653 0.45776 0.0
C210 C 0.65123 0.17714 0.32124 0.0
C211 C 0.67518 0.29419 0.4602 0.0
C212 C 0.60792 0.33393 0.42782 0.0
C213 C 0.63572 0.29583 0.42668 0.0
C214 C 0.65912 0.3688 0.49546 0.0
C215 C 0.61989 0.37106 0.46192 0.0
C216 C 0.68628 0.33074 0.4947 0.0
C217 C 0.82764 0.12071 0.42689 0.0
C218 C 0.88163 0.12901 0.49938 0.0
C219 C 0.89503 0.07297 0.4338 0.0
C220 C 0.85505 0.08638 0.40742 0.0
C221 C 0.9081 0.09337 0.48057 0.0
C222 C 0.84165 0.14269 0.47264 0.0
C223 C 0.78397 0.1312 0.39891 0.0
O224 O 0.64317 0.15563 0.36425 0.0
O225 O 0.69246 0.20622 0.31989 0.0
O226 O 0.78895 0.17023 0.37333 0.0
O227 O 0.74051 0.12239 0.42139 0.0
H228 H 0.69214 0.09859 0.2902 0.0
H229 H 0.67507 0.0555 0.21029 0.0
H230 H 0.572 0.1518 0.17141 0.0
H231 H 0.58772 0.19311 0.25074 0.0
H232 H 0.57755 0.33453 0.40196 0.0
H233 H 0.62677 0.26793 0.39947 0.0
H234 H 0.66873 0.39641 0.52283 0.0
H235 H 0.7165 0.33016 0.52077 0.0
H236 H 0.89102 0.14542 0.53531 0.0
H237 H 0.91448 0.04534 0.41841 0.0
H238 H 0.84478 0.06908 0.37212 0.0
H239 H 0.82109 0.16951 0.4881 0.0
C240 C 0.23627 0.6301 0.15267 0.0
C241 C 0.2182 0.65953 0.11702 0.0
C242 C 0.14856 0.59917 0.09762 0.0
C243 C 0.17436 0.6442 0.08981 0.0
C244 C 0.16687 0.57092 0.13413 0.0
C245 C 0.20972 0.58608 0.16089 0.0
U246 U 0.36455 0.69786 0.20218 0.0
O247 O 0.38955 0.70093 0.28122 0.0
O248 O 0.42851 0.66241 0.2253 0.0
C249 C 0.42569 0.67537 0.27252 0.0
C250 C 0.2823 0.64185 0.18253 0.0
C251 C 0.43992 0.64354 0.31289 0.0
C252 C 0.43834 0.56794 0.3558 0.0
C253 C 0.42129 0.59567 0.31734 0.0
C254 C 0.4922 0.63525 0.38575 0.0
C255 C 0.47408 0.58759 0.39067 0.0
C256 C 0.47573 0.66248 0.34753 0.0
C257 C 0.41344 0.82009 0.13442 0.0
C258 C 0.48923 0.87548 0.13466 0.0
C259 C 0.42123 0.89004 0.08181 0.0
C260 C 0.39369 0.84865 0.09923 0.0
C261 C 0.46963 0.9038 0.09878 0.0
C262 C 0.46142 0.8342 0.15244 0.0
C263 C 0.38316 0.7754 0.14916 0.0
O264 O 0.32519 0.63779 0.16076 0.0
O265 O 0.28443 0.67613 0.21566 0.0
O266 O 0.35904 0.77338 0.19219 0.0
O267 O 0.39893 0.73554 0.13633 0.0
H268 H 0.23801 0.69386 0.10994 0.0
H269 H 0.16145 0.66692 0.0621 0.0
H270 H 0.14814 0.53635 0.14227 0.0
H271 H 0.22248 0.56278 0.18818 0.0
H272 H 0.42265 0.53164 0.35906 0.0
H273 H 0.39359 0.57981 0.2914 0.0
H274 H 0.51939 0.65177 0.41188 0.0
H275 H 0.49123 0.69893 0.34511 0.0
H276 H 0.52631 0.88515 0.14896 0.0
H277 H 0.40504 0.9107 0.0542 0.0
H278 H 0.35683 0.83851 0.08454 0.0
H279 H 0.47759 0.8131 0.17964 0.0
C280 C 0.1148 0.2473 0.64058 0.0
C281 C 0.12566 0.23468 0.59116 0.0
C282 C 0.07419 0.15871 0.59953 0.0
C283 C 0.10579 0.19113 0.57097 0.0
C284 C 0.06283 0.17157 0.64905 0.0
C285 C 0.08289 0.21535 0.66931 0.0
U286 U 0.176 0.37511 0.69836 0.0
O287 O 0.12093 0.41825 0.7309 0.0
O288 O 0.16638 0.38131 0.7809 0.0
C289 C 0.12998 0.40711 0.77724 0.0
C290 C 0.13694 0.29356 0.66153 0.0
C291 C 0.11496 0.4359 0.82083 0.0
C292 C 0.05903 0.44291 0.89305 0.0
C293 C 0.07602 0.41681 0.8527 0.0
C294 C 0.11981 0.50806 0.87107 0.0
C295 C 0.08025 0.48925 0.90257 0.0
C296 C 0.13711 0.48175 0.83094 0.0
C297 C 0.30315 0.43393 0.62768 0.0
C298 C 0.38156 0.48478 0.61088 0.0
C299 C 0.35779 0.41771 0.55759 0.0
C300 C 0.31355 0.40649 0.58586 0.0
C301 C 0.3928 0.45679 0.56993 0.0
C302 C 0.33756 0.4734 0.63926 0.0
C303 C 0.2582 0.42292 0.66114 0.0
O304 O 0.17036 0.29737 0.69708 0.0
O305 O 0.12589 0.33359 0.64447 0.0
O306 O 0.21347 0.42687 0.64456 0.0
O307 O 0.25814 0.3912 0.69617 0.0
H308 H 0.15009 0.25844 0.56815 0.0
H309 H 0.11568 0.18272 0.53282 0.0
H310 H 0.03816 0.14799 0.67201 0.0
H311 H 0.07329 0.22431 0.7074 0.0
H312 H 0.02821 0.42725 0.91578 0.0
H313 H 0.058 0.38162 0.84584 0.0
H314 H 0.1371 0.54361 0.87712 0.0
H315 H 0.16725 0.49751 0.80742 0.0
H316 H 0.40738 0.5148 0.62188 0.0
H317 H 0.36494 0.39522 0.52623 0.0
H318 H 0.28801 0.37605 0.57549 0.0
H319 H 0.3307 0.49536 0.67116 0.0
Dy320 Dy 0.0466 0.03989 0.48342 0.0
C321 C 0.93459 0.96741 0.64698 0.0
C322 C 0.08648 0.08297 0.40001 0.0
Dy323 Dy 0.98565 1.01508 0.57172 0.0
O324 O 0.103 0.04697 0.42004 0.0
O325 O 0.04669 0.0923 0.42329 0.0
O326 O 0.11506 0.03988 0.52986 0.0
O327 O 0.05418 0.99082 0.54404 0.0
C328 C 0.09809 1.00459 0.55732 0.0
C329 C 0.94555 0.07412 0.51154 0.0
O330 O 0.03412 0.07704 0.60489 0.0
O331 O 0.05425 0.10778 0.52741 0.0
O332 O 0.91433 0.98399 0.60846 0.0
O333 O 0.98239 0.97877 0.64541 0.0
O334 O 0.94455 0.07687 0.56007 0.0
O335 O 0.96722 0.03962 0.49787 0.0
O336 O 1.01248 0.96916 0.45252 0.0
O337 O 0.96668 0.94993 0.52464 0.0
C338 C 0.05332 0.11249 0.57673 0.0
C339 C 0.98095 0.93923 0.47863 0.0
Dy340 Dy 0.55571 0.02976 0.06318 0.0
C341 C 0.43053 0.97835 0.90707 0.0
C342 C 0.61045 0.07624 0.13745 0.0
Dy343 Dy 0.48808 1.0122 0.98587 0.0
O344 O 0.60283 0.0311 0.13265 0.0
O345 O 0.59039 0.09536 0.10051 0.0
O346 O 0.5471 0.95599 0.08905 0.0
O347 O 0.48369 0.98275 0.06205 0.0
C348 C 0.50045 0.94647 0.07863 0.0
C349 C 0.5427 0.09649 0.97278 0.0
O350 O 0.43444 0.04079 0.03803 0.0
O351 O 0.49733 0.07381 0.08845 0.0
O352 O 0.43377 0.02035 0.92526 0.0
O353 O 0.45727 0.95357 0.93331 0.0
O354 O 0.49616 0.08686 0.963 0.0
O355 O 0.55974 0.05964 0.9873 0.0
O356 O 0.60806 0.99741 1.01237 0.0
O357 O 0.54457 0.96644 0.96111 0.0
C358 C 0.45076 0.07008 0.07416 0.0
C359 C 0.59105 0.96914 0.97552 0.0
Dy360 Dy 0.53188 0.47711 0.49443 0.0
C361 C 0.46456 0.63997 0.59186 0.0
C362 C 0.59089 0.41124 0.46589 0.0
Dy363 Dy 0.5152 0.57014 0.55657 0.0
O364 O 0.54625 0.41305 0.44881 0.0
O365 O 0.60348 0.44677 0.49532 0.0
O366 O 0.45771 0.43437 0.51163 0.0
O367 O 0.4748 0.50061 0.54287 0.0
C368 C 0.44172 0.46511 0.54197 0.0
C369 C 0.60514 0.58133 0.50719 0.0
O370 O 0.53613 0.52604 0.62144 0.0
O371 O 0.55581 0.46236 0.5734 0.0
O372 O 0.50793 0.63177 0.6076 0.0
O373 O 0.44795 0.60849 0.55898 0.0
O374 O 0.58975 0.61253 0.53721 0.0
O375 O 0.57162 0.54642 0.50781 0.0
O376 O 0.50863 0.52124 0.43042 0.0
O377 O 0.48667 0.58368 0.47947 0.0
C378 C 0.55306 0.48454 0.61727 0.0
C379 C 0.48958 0.56178 0.43553 0.0
Dy380 Dy 0.02903 0.48021 0.05265 0.0
C381 C 0.944 0.63665 0.97317 0.0
C382 C 0.0907 0.41526 0.0768 0.0
Dy383 Dy 1.00641 0.57358 1.00057 0.0
O384 O 0.04578 0.41548 0.0947 0.0
O385 O 0.09969 0.44807 0.04383 0.0
O386 O 0.98438 0.49178 0.12349 0.0
O387 O 1.00795 0.5474 0.07715 0.0
C388 C 0.97984 0.53551 0.1144 0.0
C389 C 0.0593 0.51951 0.94197 0.0
O390 O 0.07285 0.60453 0.04688 0.0
O391 O 0.09591 0.53207 0.06841 0.0
O392 O 0.98835 0.63531 0.95431 0.0
O393 O 0.93619 0.60642 1.00892 0.0
O394 O 0.05916 0.56446 0.93616 0.0
O395 O 0.02664 0.50569 0.97495 0.0
O396 O 0.96047 0.44955 1.00955 0.0
O397 O 0.94023 0.52156 0.98274 0.0
C398 C 0.10421 0.5785 0.06818 0.0
C399 C 0.93031 0.4754 0.98626 0.0
loop_
_geom_bond_atom_site_label_1
_geom_bond_atom_site_label_2
_geom_bond_distance
_geom_bond_site_symmetry_2
_ccdc_geom_bond_type
C0 C1 1.264 . S
C0 C5 1.479 . S
C0 C10 1.465 . S
C1 C0 1.264 . S
C1 C3 1.339 . S
C1 H28 0.931 . S
C2 C3 1.395 . S
C2 C4 1.320 . S
C3 C1 1.339 . S
C3 C2 1.395 . S
C3 H29 0.929 . S
C4 C2 1.320 . S
C4 C5 1.405 . S
C4 H30 0.930 . S
C5 C0 1.479 . S
C5 C4 1.405 . S
C5 H31 0.931 . S
U6 O7 2.454 . S
U6 O8 2.458 . S
U6 C9 2.984 . S
U6 C10 2.847 . S
U6 C23 2.882 . S
U6 O24 2.441 . S
U6 O25 2.420 . S
U6 O26 2.455 . S
U6 O27 2.449 . S
O7 U6 2.454 . S
O7 C9 1.353 . S
O8 U6 2.458 . S
O8 C9 1.286 . S
C9 U6 2.984 . S
C9 O7 1.353 . S
C9 O8 1.286 . S
C9 C11 1.363 . S
C10 C0 1.465 . S
C10 U6 2.847 . S
C10 O24 1.249 . S
C10 O25 1.202 . S
C11 C9 1.363 . S
C11 C13 1.408 . S
C11 C16 1.342 . S
C12 C13 1.310 . S
C12 C15 1.461 . S
C12 H32 0.932 . S
C13 C11 1.408 . S
C13 C12 1.310 . S
C13 H33 0.930 . S
C14 C15 1.474 . S
C14 C16 1.285 . S
C14 H34 0.929 . S
C15 C12 1.461 . S
C15 C14 1.474 . S
C16 C11 1.342 . S
C16 C14 1.285 . S
C16 H35 0.930 . S
C17 C20 1.424 . S
C17 C22 1.245 . S
C17 C23 1.428 . S
C18 C21 1.260 . S
C18 C22 1.477 . S
C18 H36 0.932 . S
C19 C20 1.384 . S
C19 C21 1.479 . S
C19 H37 0.929 . S
C20 C17 1.424 . S
C20 C19 1.384 . S
C20 H38 0.928 . S
C21 C18 1.260 . S
C21 C19 1.479 . S
C22 C17 1.245 . S
C22 C18 1.477 . S
C22 H39 0.932 . S
C23 U6 2.882 . S
C23 C17 1.428 . S
C23 O26 1.301 . S
C23 O27 1.282 . S
O24 U6 2.441 . S
O24 C10 1.249 . S
O25 U6 2.420 . S
O25 C10 1.202 . S
O26 U6 2.455 . S
O26 C23 1.301 . S
O27 U6 2.449 . S
O27 C23 1.282 . S
H28 C1 0.931 . S
H29 C3 0.929 . S
H30 C4 0.930 . S
H31 C5 0.931 . S
H32 C12 0.932 . S
H33 C13 0.930 . S
H34 C14 0.929 . S
H35 C16 0.930 . S
H36 C18 0.932 . S
H37 C19 0.929 . S
H38 C20 0.928 . S
H39 C22 0.932 . S
C40 C41 1.264 . S
C40 C45 1.479 . S
C40 C50 1.465 . S
C41 C40 1.264 . S
C41 C43 1.339 . S
C41 H68 0.931 . S
C42 C43 1.395 . S
C42 C44 1.320 . S
C43 C41 1.339 . S
C43 C42 1.395 . S
C43 H69 0.929 . S
C44 C42 1.320 . S
C44 C45 1.405 . S
C44 H70 0.930 . S
C45 C40 1.479 . S
C45 C44 1.405 . S
C45 H71 0.931 . S
U46 O47 2.454 . S
U46 O48 2.458 . S
U46 C49 2.984 . S
U46 C50 2.847 . S
U46 C63 2.882 . S
U46 O64 2.441 . S
U46 O65 2.420 . S
U46 O66 2.455 . S
U46 O67 2.449 . S
O47 U46 2.454 . S
O47 C49 1.353 . S
O48 U46 2.458 . S
O48 C49 1.286 . S
C49 U46 2.984 . S
C49 O47 1.353 . S
C49 O48 1.286 . S
C49 C51 1.363 . S
C50 C40 1.465 . S
C50 U46 2.847 . S
C50 O64 1.249 . S
C50 O65 1.202 . S
C51 C49 1.363 . S
C51 C53 1.408 . S
C51 C56 1.342 . S
C52 C53 1.310 . S
C52 C55 1.461 . S
C52 H72 0.932 . S
C53 C51 1.408 . S
C53 C52 1.310 . S
C53 H73 0.930 . S
C54 C55 1.474 . S
C54 C56 1.285 . S
C54 H74 0.929 . S
C55 C52 1.461 . S
C55 C54 1.474 . S
C56 C51 1.342 . S
C56 C54 1.285 . S
C56 H75 0.930 . S
C57 C60 1.424 . S
C57 C62 1.245 . S
C57 C63 1.428 . S
C58 C61 1.260 . S
C58 C62 1.477 . S
C58 H76 0.932 . S
C59 C60 1.384 . S
C59 C61 1.479 . S
C59 H77 0.929 1_565 S
C60 C57 1.424 . S
C60 C59 1.384 . S
C60 H78 0.928 . S
C61 C58 1.260 . S
C61 C59 1.479 . S
C62 C57 1.245 . S
C62 C58 1.477 . S
C62 H79 0.932 . S
C63 U46 2.882 . S
C63 C57 1.428 . S
C63 O66 1.301 . S
C63 O67 1.282 . S
O64 U46 2.441 . S
O64 C50 1.249 . S
O65 U46 2.420 . S
O65 C50 1.202 . S
O66 U46 2.455 . S
O66 C63 1.301 . S
O67 U46 2.449 . S
O67 C63 1.282 . S
H68 C41 0.931 . S
H69 C43 0.929 . S
H70 C44 0.930 . S
H71 C45 0.931 . S
H72 C52 0.932 . S
H73 C53 0.930 . S
H74 C54 0.929 . S
H75 C56 0.930 . S
H76 C58 0.932 . S
H77 C59 0.929 1_545 S
H78 C60 0.928 . S
H79 C62 0.932 . S
C80 C81 1.264 . S
C80 C85 1.479 . S
C80 C90 1.465 . S
C81 C80 1.264 . S
C81 C83 1.339 . S
C81 H108 0.931 . S
C82 C83 1.395 . S
C82 C84 1.320 . S
C83 C81 1.339 . S
C83 C82 1.395 . S
C83 H109 0.929 . S
C84 C82 1.320 . S
C84 C85 1.405 . S
C84 H110 0.930 . S
C85 C80 1.479 . S
C85 C84 1.405 . S
C85 H111 0.931 . S
U86 O87 2.454 . S
U86 O88 2.458 . S
U86 C89 2.984 . S
U86 C90 2.847 . S
U86 C103 2.882 . S
U86 O104 2.441 . S
U86 O105 2.420 . S
U86 O106 2.455 . S
U86 O107 2.449 . S
O87 U86 2.454 . S
O87 C89 1.353 . S
O88 U86 2.458 . S
O88 C89 1.286 . S
C89 U86 2.984 . S
C89 O87 1.353 . S
C89 O88 1.286 . S
C89 C91 1.363 . S
C90 C80 1.465 . S
C90 U86 2.847 . S
C90 O104 1.249 . S
C90 O105 1.202 . S
C91 C89 1.363 . S
C91 C93 1.408 . S
C91 C96 1.342 . S
C92 C93 1.310 . S
C92 C95 1.461 . S
C92 H112 0.932 . S
C93 C91 1.408 . S
C93 C92 1.310 . S
C93 H113 0.930 . S
C94 C95 1.474 . S
C94 C96 1.285 . S
C94 H114 0.929 . S
C95 C92 1.461 . S
C95 C94 1.474 . S
C96 C91 1.342 . S
C96 C94 1.285 . S
C96 H115 0.930 . S
C97 C100 1.424 . S
C97 C102 1.245 . S
C97 C103 1.428 . S
C98 C101 1.260 . S
C98 C102 1.477 . S
C98 H116 0.932 . S
C99 C100 1.384 . S
C99 C101 1.479 . S
C99 H117 0.929 . S
C100 C97 1.424 . S
C100 C99 1.384 . S
C100 H118 0.928 . S
C101 C98 1.260 . S
C101 C99 1.479 . S
C102 C97 1.245 . S
C102 C98 1.477 . S
C102 H119 0.932 . S
C103 U86 2.882 . S
C103 C97 1.428 . S
C103 O106 1.301 . S
C103 O107 1.282 . S
O104 U86 2.441 . S
O104 C90 1.249 . S
O105 U86 2.420 . S
O105 C90 1.202 . S
O106 U86 2.455 . S
O106 C103 1.301 . S
O107 U86 2.449 . S
O107 C103 1.282 . S
H108 C81 0.931 . S
H109 C83 0.929 . S
H110 C84 0.930 . S
H111 C85 0.931 . S
H112 C92 0.932 . S
H113 C93 0.930 . S
H114 C94 0.929 . S
H115 C96 0.930 . S
H116 C98 0.932 . S
H117 C99 0.929 . S
H118 C100 0.928 . S
H119 C102 0.932 . S
C120 C121 1.264 . S
C120 C125 1.479 . S
C120 C130 1.465 . S
C121 C120 1.264 . S
C121 C123 1.339 . S
C121 H148 0.931 . S
C122 C123 1.395 . S
C122 C124 1.320 . S
C123 C121 1.339 . S
C123 C122 1.395 . S
C123 H149 0.929 . S
C124 C122 1.320 . S
C124 C125 1.405 . S
C124 H150 0.930 . S
C125 C120 1.479 . S
C125 C124 1.405 . S
C125 H151 0.931 . S
U126 O127 2.454 . S
U126 O128 2.458 . S
U126 C129 2.984 . S
U126 C130 2.847 . S
U126 C143 2.882 . S
U126 O144 2.441 . S
U126 O145 2.420 . S
U126 O146 2.455 . S
U126 O147 2.449 . S
O127 U126 2.454 . S
O127 C129 1.353 . S
O128 U126 2.458 . S
O128 C129 1.286 . S
C129 U126 2.984 . S
C129 O127 1.353 . S
C129 O128 1.286 . S
C129 C131 1.363 . S
C130 C120 1.465 . S
C130 U126 2.847 . S
C130 O144 1.249 . S
C130 O145 1.202 . S
C131 C129 1.363 . S
C131 C133 1.408 . S
C131 C136 1.342 . S
C132 C133 1.310 . S
C132 C135 1.461 . S
C132 H152 0.932 . S
C133 C131 1.408 . S
C133 C132 1.310 . S
C133 H153 0.930 . S
C134 C135 1.474 . S
C134 C136 1.285 . S
C134 H154 0.929 1_655 S
C135 C132 1.461 . S
C135 C134 1.474 . S
C136 C131 1.342 . S
C136 C134 1.285 . S
C136 H155 0.930 . S
C137 C140 1.424 . S
C137 C142 1.245 . S
C137 C143 1.428 . S
C138 C141 1.260 . S
C138 C142 1.477 . S
C138 H156 0.932 1_655 S
C139 C140 1.384 . S
C139 C141 1.479 . S
C139 H157 0.929 . S
C140 C137 1.424 . S
C140 C139 1.384 . S
C140 H158 0.928 . S
C141 C138 1.260 . S
C141 C139 1.479 . S
C142 C137 1.245 . S
C142 C138 1.477 . S
C142 H159 0.932 . S
C143 U126 2.882 . S
C143 C137 1.428 . S
C143 O146 1.301 . S
C143 O147 1.282 . S
O144 U126 2.441 . S
O144 C130 1.249 . S
O145 U126 2.420 . S
O145 C130 1.202 . S
O146 U126 2.455 . S
O146 C143 1.301 . S
O147 U126 2.449 . S
O147 C143 1.282 . S
H148 C121 0.931 . S
H149 C123 0.929 . S
H150 C124 0.930 . S
H151 C125 0.931 . S
H152 C132 0.932 . S
H153 C133 0.930 . S
H154 C134 0.929 1_455 S
H155 C136 0.930 . S
H156 C138 0.932 1_455 S
H157 C139 0.929 . S
H158 C140 0.928 . S
H159 C142 0.932 . S
C160 C161 1.264 . S
C160 C165 1.479 . S
C160 C170 1.465 . S
C161 C160 1.264 . S
C161 C163 1.339 . S
C161 H188 0.931 . S
C162 C163 1.395 . S
C162 C164 1.320 . S
C163 C161 1.339 . S
C163 C162 1.395 . S
C163 H189 0.929 . S
C164 C162 1.320 . S
C164 C165 1.405 . S
C164 H190 0.930 . S
C165 C160 1.479 . S
C165 C164 1.405 . S
C165 H191 0.931 . S
U166 O167 2.454 . S
U166 O168 2.458 . S
U166 C169 2.984 . S
U166 C170 2.847 . S
U166 C183 2.882 . S
U166 O184 2.441 . S
U166 O185 2.420 . S
U166 O186 2.455 . S
U166 O187 2.449 . S
O167 U166 2.454 . S
O167 C169 1.353 . S
O168 U166 2.458 . S
O168 C169 1.286 . S
C169 U166 2.984 . S
C169 O167 1.353 . S
C169 O168 1.286 . S
C169 C171 1.363 . S
C170 C160 1.465 . S
C170 U166 2.847 . S
C170 O184 1.249 . S
C170 O185 1.202 . S
C171 C169 1.363 . S
C171 C173 1.408 . S
C171 C176 1.342 . S
C172 C173 1.310 . S
C172 C175 1.461 . S
C172 H192 0.932 . S
C173 C171 1.408 . S
C173 C172 1.310 . S
C173 H193 0.930 . S
C174 C175 1.474 . S
C174 C176 1.285 . S
C174 H194 0.929 . S
C175 C172 1.461 . S
C175 C174 1.474 . S
C176 C171 1.342 . S
C176 C174 1.285 . S
C176 H195 0.930 . S
C177 C180 1.424 . S
C177 C182 1.245 . S
C177 C183 1.428 . S
C178 C181 1.260 . S
C178 C182 1.477 . S
C178 H196 0.932 . S
C179 C180 1.384 . S
C179 C181 1.479 . S
C179 H197 0.929 . S
C180 C177 1.424 . S
C180 C179 1.384 . S
C180 H198 0.928 . S
C181 C178 1.260 . S
C181 C179 1.479 . S
C182 C177 1.245 . S
C182 C178 1.477 . S
C182 H199 0.932 . S
C183 U166 2.882 . S
C183 C177 1.428 . S
C183 O186 1.301 . S
C183 O187 1.282 . S
O184 U166 2.441 . S
O184 C170 1.249 . S
O185 U166 2.420 . S
O185 C170 1.202 . S
O186 U166 2.455 . S
O186 C183 1.301 . S
O187 U166 2.449 . S
O187 C183 1.282 . S
H188 C161 0.931 . S
H189 C163 0.929 . S
H190 C164 0.930 . S
H191 C165 0.931 . S
H192 C172 0.932 . S
H193 C173 0.930 . S
H194 C174 0.929 . S
H195 C176 0.930 . S
H196 C178 0.932 . S
H197 C179 0.929 . S
H198 C180 0.928 . S
H199 C182 0.932 . S
C200 C201 1.264 . S
C200 C205 1.479 . S
C200 C210 1.465 . S
C201 C200 1.264 . S
C201 C203 1.339 . S
C201 H228 0.931 . S
C202 C203 1.395 . S
C202 C204 1.320 . S
C203 C201 1.339 . S
C203 C202 1.395 . S
C203 H229 0.929 . S
C204 C202 1.320 . S
C204 C205 1.405 . S
C204 H230 0.930 . S
C205 C200 1.479 . S
C205 C204 1.405 . S
C205 H231 0.931 . S
U206 O207 2.454 . S
U206 O208 2.458 . S
U206 C209 2.984 . S
U206 C210 2.847 . S
U206 C223 2.882 . S
U206 O224 2.441 . S
U206 O225 2.420 . S
U206 O226 2.455 . S
U206 O227 2.449 . S
O207 U206 2.454 . S
O207 C209 1.353 . S
O208 U206 2.458 . S
O208 C209 1.286 . S
C209 U206 2.984 . S
C209 O207 1.353 . S
C209 O208 1.286 . S
C209 C211 1.363 . S
C210 C200 1.465 . S
C210 U206 2.847 . S
C210 O224 1.249 . S
C210 O225 1.202 . S
C211 C209 1.363 . S
C211 C213 1.408 . S
C211 C216 1.342 . S
C212 C213 1.310 . S
C212 C215 1.461 . S
C212 H232 0.932 . S
C213 C211 1.408 . S
C213 C212 1.310 . S
C213 H233 0.930 . S
C214 C215 1.474 . S
C214 C216 1.285 . S
C214 H234 0.929 . S
C215 C212 1.461 . S
C215 C214 1.474 . S
C216 C211 1.342 . S
C216 C214 1.285 . S
C216 H235 0.930 . S
C217 C220 1.424 . S
C217 C222 1.245 . S
C217 C223 1.428 . S
C218 C221 1.260 . S
C218 C222 1.477 . S
C218 H236 0.932 . S
C219 C220 1.384 . S
C219 C221 1.479 . S
C219 H237 0.929 . S
C220 C217 1.424 . S
C220 C219 1.384 . S
C220 H238 0.928 . S
C221 C218 1.260 . S
C221 C219 1.479 . S
C222 C217 1.245 . S
C222 C218 1.477 . S
C222 H239 0.932 . S
C223 U206 2.882 . S
C223 C217 1.428 . S
C223 O226 1.301 . S
C223 O227 1.282 . S
O224 U206 2.441 . S
O224 C210 1.249 . S
O225 U206 2.420 . S
O225 C210 1.202 . S
O226 U206 2.455 . S
O226 C223 1.301 . S
O227 U206 2.449 . S
O227 C223 1.282 . S
H228 C201 0.931 . S
H229 C203 0.929 . S
H230 C204 0.930 . S
H231 C205 0.931 . S
H232 C212 0.932 . S
H233 C213 0.930 . S
H234 C214 0.929 . S
H235 C216 0.930 . S
H236 C218 0.932 . S
H237 C219 0.929 . S
H238 C220 0.928 . S
H239 C222 0.932 . S
C240 C241 1.264 . S
C240 C245 1.479 . S
C240 C250 1.465 . S
C241 C240 1.264 . S
C241 C243 1.339 . S
C241 H268 0.931 . S
C242 C243 1.395 . S
C242 C244 1.320 . S
C243 C241 1.339 . S
C243 C242 1.395 . S
C243 H269 0.929 . S
C244 C242 1.320 . S
C244 C245 1.405 . S
C244 H270 0.930 . S
C245 C240 1.479 . S
C245 C244 1.405 . S
C245 H271 0.931 . S
U246 O247 2.454 . S
U246 O248 2.458 . S
U246 C249 2.984 . S
U246 C250 2.847 . S
U246 C263 2.882 . S
U246 O264 2.441 . S
U246 O265 2.420 . S
U246 O266 2.455 . S
U246 O267 2.449 . S
O247 U246 2.454 . S
O247 C249 1.353 . S
O248 U246 2.458 . S
O248 C249 1.286 . S
C249 U246 2.984 . S
C249 O247 1.353 . S
C249 O248 1.286 . S
C249 C251 1.363 . S
C250 C240 1.465 . S
C250 U246 2.847 . S
C250 O264 1.249 . S
C250 O265 1.202 . S
C251 C249 1.363 . S
C251 C253 1.408 . S
C251 C256 1.342 . S
C252 C253 1.310 . S
C252 C255 1.461 . S
C252 H272 0.932 . S
C253 C251 1.408 . S
C253 C252 1.310 . S
C253 H273 0.930 . S
C254 C255 1.474 . S
C254 C256 1.285 . S
C254 H274 0.929 . S
C255 C252 1.461 . S
C255 C254 1.474 . S
C256 C251 1.342 . S
C256 C254 1.285 . S
C256 H275 0.930 . S
C257 C260 1.424 . S
C257 C262 1.245 . S
C257 C263 1.428 . S
C258 C261 1.260 . S
C258 C262 1.477 . S
C258 H276 0.932 . S
C259 C260 1.384 . S
C259 C261 1.479 . S
C259 H277 0.929 . S
C260 C257 1.424 . S
C260 C259 1.384 . S
C260 H278 0.928 . S
C261 C258 1.260 . S
C261 C259 1.479 . S
C262 C257 1.245 . S
C262 C258 1.477 . S
C262 H279 0.932 . S
C263 U246 2.882 . S
C263 C257 1.428 . S
C263 O266 1.301 . S
C263 O267 1.282 . S
O264 U246 2.441 . S
O264 C250 1.249 . S
O265 U246 2.420 . S
O265 C250 1.202 . S
O266 U246 2.455 . S
O266 C263 1.301 . S
O267 U246 2.449 . S
O267 C263 1.282 . S
H268 C241 0.931 . S
H269 C243 0.929 . S
H270 C244 0.930 . S
H271 C245 0.931 . S
H272 C252 0.932 . S
H273 C253 0.930 . S
H274 C254 0.929 . S
H275 C256 0.930 . S
H276 C258 0.932 . S
H277 C259 0.929 . S
H278 C260 0.928 . S
H279 C262 0.932 . S
C280 C281 1.264 . S
C280 C285 1.479 . S
C280 C290 1.465 . S
C281 C280 1.264 . S
C281 C283 1.339 . S
C281 H308 0.931 . S
C282 C283 1.395 . S
C282 C284 1.320 . S
C283 C281 1.339 . S
C283 C282 1.395 . S
C283 H309 0.929 . S
C284 C282 1.320 . S
C284 C285 1.405 . S
C284 H310 0.930 . S
C285 C280 1.479 . S
C285 C284 1.405 . S
C285 H311 0.931 . S
U286 O287 2.454 . S
U286 O288 2.458 . S
U286 C289 2.984 . S
U286 C290 2.847 . S
U286 C303 2.882 . S
U286 O304 2.441 . S
U286 O305 2.420 . S
U286 O306 2.455 . S
U286 O307 2.449 . S
O287 U286 2.454 . S
O287 C289 1.353 . S
O288 U286 2.458 . S
O288 C289 1.286 . S
C289 U286 2.984 . S
C289 O287 1.353 . S
C289 O288 1.286 . S
C289 C291 1.363 . S
C290 C280 1.465 . S
C290 U286 2.847 . S
C290 O304 1.249 . S
C290 O305 1.202 . S
C291 C289 1.363 . S
C291 C293 1.408 . S
C291 C296 1.342 . S
C292 C293 1.310 . S
C292 C295 1.461 . S
C292 H312 0.932 . S
C293 C291 1.408 . S
C293 C292 1.310 . S
C293 H313 0.930 . S
C294 C295 1.474 . S
C294 C296 1.285 . S
C294 H314 0.929 . S
C295 C292 1.461 . S
C295 C294 1.474 . S
C296 C291 1.342 . S
C296 C294 1.285 . S
C296 H315 0.930 . S
C297 C300 1.424 . S
C297 C302 1.245 . S
C297 C303 1.428 . S
C298 C301 1.260 . S
C298 C302 1.477 . S
C298 H316 0.932 . S
C299 C300 1.384 . S
C299 C301 1.479 . S
C299 H317 0.929 . S
C300 C297 1.424 . S
C300 C299 1.384 . S
C300 H318 0.928 . S
C301 C298 1.260 . S
C301 C299 1.479 . S
C302 C297 1.245 . S
C302 C298 1.477 . S
C302 H319 0.932 . S
C303 U286 2.882 . S
C303 C297 1.428 . S
C303 O306 1.301 . S
C303 O307 1.282 . S
O304 U286 2.441 . S
O304 C290 1.249 . S
O305 U286 2.420 . S
O305 C290 1.202 . S
O306 U286 2.455 . S
O306 C303 1.301 . S
O307 U286 2.449 . S
O307 C303 1.282 . S
H308 C281 0.931 . S
H309 C283 0.929 . S
H310 C284 0.930 . S
H311 C285 0.931 . S
H312 C292 0.932 . S
H313 C293 0.930 . S
H314 C294 0.929 . S
H315 C296 0.930 . S
H316 C298 0.932 . S
H317 C299 0.929 . S
H318 C300 0.928 . S
H319 C302 0.932 . S
Dy320 O324 2.398 . S
Dy320 O325 2.491 . S
Dy320 O326 2.403 1_545 S
Dy320 O327 2.664 1_545 S
Dy320 O331 2.326 . S
Dy320 O335 2.310 1_455 S
Dy320 O336 2.351 1_445 S
C321 O332 1.185 . S
C321 O333 1.355 . S
C322 O324 1.185 . S
C322 O325 1.355 . S
Dy323 O327 2.314 1_655 S
Dy323 O330 2.340 1_665 S
Dy323 O332 2.404 . S
Dy323 O333 2.504 . S
Dy323 O334 2.397 1_565 S
Dy323 O335 2.658 1_565 S
Dy323 O337 2.335 . S
O324 Dy320 2.398 . S
O324 C322 1.185 . S
O325 Dy320 2.491 . S
O325 C322 1.355 . S
O326 Dy320 2.403 1_565 S
O326 C328 1.254 . S
O327 Dy320 2.664 1_565 S
O327 Dy323 2.314 1_455 S
O327 C328 1.268 . S
C328 O326 1.254 . S
C328 O327 1.268 . S
C329 O334 1.254 . S
C329 O335 1.268 . S
O330 Dy323 2.340 1_445 S
O330 C338 1.249 . S
O331 Dy320 2.326 . S
O331 C338 1.267 . S
O332 C321 1.185 . S
O332 Dy323 2.404 . S
O333 C321 1.355 . S
O333 Dy323 2.504 . S
O334 Dy323 2.397 1_545 S
O334 C329 1.254 . S
O335 Dy320 2.310 1_655 S
O335 Dy323 2.658 1_545 S
O335 C329 1.268 . S
O336 Dy320 2.351 1_665 S
O336 C339 1.249 . S
O337 Dy323 2.335 . S
O337 C339 1.267 . S
C338 O330 1.249 . S
C338 O331 1.267 . S
C339 O336 1.249 . S
C339 O337 1.267 . S
Dy340 O344 2.398 . S
Dy340 O345 2.491 . S
Dy340 O346 2.403 1_545 S
Dy340 O347 2.664 1_545 S
Dy340 O351 2.326 . S
Dy340 O355 2.310 . S
Dy340 O356 2.351 1_544 S
C341 O352 1.185 . S
C341 O353 1.355 . S
C342 O344 1.185 . S
C342 O345 1.355 . S
Dy343 O347 2.310 1_546 S
Dy343 O350 2.351 1_556 S
Dy343 O352 2.398 1_545 S
Dy343 O353 2.491 1_545 S
Dy343 O354 2.403 . S
Dy343 O355 2.664 1_556 S
Dy343 O357 2.326 1_545 S
O344 Dy340 2.398 . S
O344 C342 1.185 . S
O345 Dy340 2.491 . S
O345 C342 1.355 . S
O346 Dy340 2.403 1_565 S
O346 C348 1.254 . S
O347 Dy340 2.664 1_565 S
O347 Dy343 2.310 1_564 S
O347 C348 1.268 . S
C348 O346 1.254 . S
C348 O347 1.268 . S
C349 O354 1.254 . S
C349 O355 1.268 1_556 S
O350 Dy343 2.351 1_554 S
O350 C358 1.249 . S
O351 Dy340 2.326 . S
O351 C358 1.267 . S
O352 C341 1.185 . S
O352 Dy343 2.398 1_565 S
O353 C341 1.355 . S
O353 Dy343 2.491 1_565 S
O354 Dy343 2.403 . S
O354 C349 1.254 . S
O355 Dy340 2.310 . S
O355 Dy343 2.664 1_554 S
O355 C349 1.268 1_554 S
O356 Dy340 2.351 1_566 S
O356 C359 1.249 . S
O357 Dy343 2.326 1_565 S
O357 C359 1.267 . S
C358 O350 1.249 . S
C358 O351 1.267 . S
C359 O356 1.249 . S
C359 O357 1.267 . S
Dy360 O364 2.398 . S
Dy360 O365 2.491 . S
Dy360 O366 2.403 . S
Dy360 O367 2.664 . S
Dy360 O371 2.326 . S
Dy360 O375 2.310 . S
Dy360 O376 2.351 . S
C361 O372 1.185 . S
C361 O373 1.355 . S
C362 O364 1.185 . S
C362 O365 1.355 . S
Dy363 O367 2.310 . S
Dy363 O370 2.351 . S
Dy363 O372 2.398 . S
Dy363 O373 2.491 . S
Dy363 O374 2.403 . S
Dy363 O375 2.664 . S
Dy363 O377 2.326 . S
O364 Dy360 2.398 . S
O364 C362 1.185 . S
O365 Dy360 2.491 . S
O365 C362 1.355 . S
O366 Dy360 2.403 . S
O366 C368 1.254 . S
O367 Dy360 2.664 . S
O367 Dy363 2.310 . S
O367 C368 1.268 . S
C368 O366 1.254 . S
C368 O367 1.268 . S
C369 O374 1.254 . S
C369 O375 1.268 . S
O370 Dy363 2.351 . S
O370 C378 1.249 . S
O371 Dy360 2.326 . S
O371 C378 1.267 . S
O372 C361 1.185 . S
O372 Dy363 2.398 . S
O373 C361 1.355 . S
O373 Dy363 2.491 . S
O374 Dy363 2.403 . S
O374 C369 1.254 . S
O375 Dy360 2.310 . S
O375 Dy363 2.664 . S
O375 C369 1.268 . S
O376 Dy360 2.351 . S
O376 C379 1.249 . S
O377 Dy363 2.326 . S
O377 C379 1.267 . S
C378 O370 1.249 . S
C378 O371 1.267 . S
C379 O376 1.249 . S
C379 O377 1.267 . S
Dy380 O384 2.398 . S
Dy380 O385 2.491 . S
Dy380 O386 2.403 1_455 S
Dy380 O387 2.664 1_455 S
Dy380 O391 2.326 . S
Dy380 O395 2.310 1_554 S
Dy380 O396 2.351 1_455 S
C381 O392 1.185 . S
C381 O393 1.355 . S
C382 O384 1.185 . S
C382 O385 1.355 . S
Dy383 O387 2.310 1_556 S
Dy383 O390 2.351 1_656 S
Dy383 O392 2.398 . S
Dy383 O393 2.491 . S
Dy383 O394 2.403 1_655 S
Dy383 O395 2.664 1_655 S
Dy383 O397 2.326 . S
O384 Dy380 2.398 . S
O384 C382 1.185 . S
O385 Dy380 2.491 . S
O385 C382 1.355 . S
O386 Dy380 2.403 1_655 S
O386 C388 1.254 . S
O387 Dy380 2.664 1_655 S
O387 Dy383 2.310 1_554 S
O387 C388 1.268 . S
C388 O386 1.254 . S
C388 O387 1.268 . S
C389 O394 1.254 . S
C389 O395 1.268 . S
O390 Dy383 2.351 1_454 S
O390 C398 1.249 . S
O391 Dy380 2.326 . S
O391 C398 1.267 . S
O392 C381 1.185 . S
O392 Dy383 2.398 . S
O393 C381 1.355 . S
O393 Dy383 2.491 . S
O394 Dy383 2.403 1_455 S
O394 C389 1.254 . S
O395 Dy380 2.310 1_556 S
O395 Dy383 2.664 1_455 S
O395 C389 1.268 . S
O396 Dy380 2.351 1_655 S
O396 C399 1.249 1_554 S
O397 Dy383 2.326 . S
O397 C399 1.267 . S
C398 O390 1.249 . S
C398 O391 1.267 . S
C399 O396 1.249 1_556 S
C399 O397 1.267 . S
C21 C322 2.362 . S
C61 C341 1.328 . S
C378 C82 1.984 . S
C135 C388 2.055 . S
C358 C15 3.195 . S
C328 C42 1.404 . S
C399 C101 1.589 . S
C369 C122 1.669 . S
C2 C382 2.556 . S
C349 C95 1.858 . S
C141 C339 2.210 . S
C55 C361 1.653 . S
C321 C181 2.724 . S
C202 C342 1.246 . S
C255 C379 2.030 . S
C295 C389 1.990 . S
C175 C359 3.181 . S
C329 C221 1.429 . S
C398 C242 1.515 . S
C368 C301 1.737 . S
C162 C381 2.853 . S
C348 C261 1.890 . S
C338 C282 2.158 . S
C215 C362 1.734 . S
