# Generated by pormake.
# Topology scu, (8,4)-cn, num edge types: 1
# Building blocks:
#     Node 0, Type 0, BuildingBlock: GIZVER_clean_sbu_0, # of connection points: 8
#     Node 1, Type 1, BuildingBlock: KOZSID_clean_sbu_0, # of connection points: 4
#     Node 2, Type 1, BuildingBlock: KOZSID_clean_sbu_0, # of connection points: 4
#     Edge 3, Type (0, 1), BuildingBlock: FUNLAD_clean_linker_1, # of connection points: 2
#     Edge 4, Type (0, 1), BuildingBlock: FUNLAD_clean_linker_1, # of connection points: 2
#     Edge 5, Type (0, 1), BuildingBlock: FUNLAD_clean_linker_1, # of connection points: 2
#     Edge 6, Type (0, 1), BuildingBlock: FUNLAD_clean_linker_1, # of connection points: 2
#     Edge 7, Type (0, 1), BuildingBlock: FUNLAD_clean_linker_1, # of connection points: 2
#     Edge 8, Type (0, 1), BuildingBlock: FUNLAD_clean_linker_1, # of connection points: 2
#     Edge 9, Type (0, 1), BuildingBlock: FUNLAD_clean_linker_1, # of connection points: 2
#     Edge 10, Type (0, 1), BuildingBlock: FUNLAD_clean_linker_1, # of connection points: 2
# Relax obj value: 0.045
# Max RMSD: 0.113
# Mean RMSD: 0.103
data_MOF--net-scu--node1-GIZVER_clean_sbu_0--node2-KOZSID_clean_sbu_0--edge1-FUNLAD_clean_linker_1
_symmetry_space_group_name_H-M    P1
_symmetry_Int_Tables_number       1
_symmetry_cell_setting            triclinic
loop_
_symmetry_equiv_pos_as_xyz
'x, y, z'
_cell_length_a     27.403048
_cell_length_b     28.579209
_cell_length_c     24.644405
_cell_angle_alpha  95.515355
_cell_angle_beta   78.887243
_cell_angle_gamma 111.92677
loop_
_atom_site_label
_atom_site_type_symbol
_atom_site_fract_x
_atom_site_fract_y
_atom_site_fract_z
_atom_type_partial_charge
Co0 Co 0.01251 0.92465 0.12351 0.0
Co1 Co 0.07673 0.01446 0.11835 0.0
Co2 Co 0.0089 0.00605 0.02214 0.0
O3 O 0.04548 0.97358 0.06316 0.0
H4 H 0.07186 0.96392 0.03768 0.0
O5 O 0.9723 0.03874 0.98199 0.0
Co6 Co 1.00204 0.08247 0.91793 0.0
Co7 Co 0.94028 0.99672 0.92963 0.0
H8 H 0.9468 0.04959 1.00747 0.0
O9 O 0.14001 0.01476 0.13362 0.0
O10 O 0.05582 0.97167 0.17584 0.0
O11 O 0.05652 0.07129 0.13674 0.0
O12 O 0.04398 0.07774 0.05151 0.0
O13 O 0.07056 0.01528 0.95768 0.0
O14 O 0.02676 0.12596 0.86236 0.0
O15 O 0.96202 0.12265 0.93506 0.0
O16 O 0.04843 0.04745 0.89061 0.0
O17 O 0.9731 0.93407 0.99344 0.0
O18 O 0.96197 0.9412 0.90806 0.0
O19 O 0.94765 0.03643 0.87339 0.0
O20 O 0.87227 0.98923 0.93017 0.0
C21 C 0.02851 0.86617 0.15219 0.0
C22 C 0.93421 0.97734 0.13283 0.0
C23 C 0.04752 0.09497 0.10125 0.0
C24 C 0.10733 0.98617 0.17325 0.0
C25 C 0.99087 0.14334 0.88859 0.0
C26 C 0.07637 0.02644 0.90698 0.0
C27 C 0.96921 0.91667 0.94388 0.0
C28 C 0.89545 0.01745 0.88731 0.0
O29 O 0.9873 0.87735 0.17566 0.0
O30 O 0.05943 0.89138 0.10899 0.0
O31 O 0.9471 0.99701 0.08526 0.0
O32 O 0.95874 0.95214 0.14779 0.0
C33 C 0.06491 0.59737 0.44154 0.0
C34 C 0.11459 0.63412 0.42362 0.0
C35 C 0.15152 0.62232 0.44331 0.0
C36 C 0.12285 0.5802 0.47359 0.0
N37 N 0.06956 0.56406 0.47477 0.0
Co38 Co 0.01398 0.5079 0.52171 0.0
N39 N 0.0691 0.49245 0.55249 0.0
C40 C 0.12261 0.51535 0.53829 0.0
C41 C 0.1514 0.49674 0.56363 0.0
C42 C 0.11432 0.45962 0.59628 0.0
C43 C 0.06417 0.45784 0.5898 0.0
N44 N 0.9584 0.45246 0.56933 0.0
C45 C 0.96288 0.42397 0.60833 0.0
C46 C 0.91301 0.39835 0.63914 0.0
C47 C 0.87607 0.40711 0.61602 0.0
C48 C 0.90499 0.43937 0.57416 0.0
N49 N 0.95891 0.52298 0.49054 0.0
C50 C 0.90561 0.49733 0.50107 0.0
C51 C 0.87707 0.51421 0.47321 0.0
C52 C 0.91417 0.55329 0.4431 0.0
C53 C 0.9638 0.55884 0.4549 0.0
N54 N 0.01692 0.45819 0.45988 0.0
C55 C 0.02217 0.38679 0.37343 0.0
C56 C 0.9731 0.38496 0.4046 0.0
C57 C 0.97147 0.4207 0.44736 0.0
C58 C 0.06827 0.42492 0.38629 0.0
C59 C 0.06481 0.46009 0.42886 0.0
N60 N 0.01102 0.55752 0.58359 0.0
C61 C 0.96024 0.59486 0.65343 0.0
C62 C 1.00686 0.62801 0.67129 0.0
C63 C 0.05546 0.62546 0.64423 0.0
C64 C 0.05665 0.59004 0.60122 0.0
C65 C 0.96327 0.56036 0.60985 0.0
H66 H 0.09503 0.58995 0.58275 0.0
H67 H 0.92641 0.53685 0.59776 0.0
H68 H 0.93302 0.41679 0.47015 0.0
H69 H 0.10158 0.48822 0.43605 0.0
C70 C 0.14481 0.55582 0.50273 0.0
C71 C 0.01416 0.59754 0.42925 0.0
C72 C 0.01342 0.42148 0.61859 0.0
C73 C 0.88314 0.46012 0.54065 0.0
H74 H 0.12407 0.66751 0.40061 0.0
H75 H 0.19417 0.64301 0.43767 0.0
H76 H 0.19439 0.50883 0.55902 0.0
H77 H 0.12415 0.43655 0.6214 0.0
H78 H 0.90352 0.37706 0.67609 0.0
H79 H 0.83326 0.39321 0.6296 0.0
H80 H 0.83423 0.50016 0.47511 0.0
H81 H 0.90519 0.57487 0.41533 0.0
H82 H 0.93613 0.35544 0.39747 0.0
H83 H 0.1072 0.42766 0.36348 0.0
H84 H 0.92154 0.59625 0.67155 0.0
H85 H 0.09264 0.65081 0.65625 0.0
C86 C 0.42481 0.96952 0.61829 0.0
C87 C 0.40146 0.92652 0.64991 0.0
C88 C 0.42112 0.89118 0.62387 0.0
C89 C 0.45679 0.91483 0.57889 0.0
N90 N 0.461 0.96285 0.57491 0.0
Co91 Co 0.51528 0.01168 0.52083 0.0
N92 N 0.52777 0.95675 0.47033 0.0
C93 C 0.512 0.90821 0.48426 0.0
C94 C 0.52577 0.87811 0.44231 0.0
C95 C 0.5531 0.9097 0.39941 0.0
C96 C 0.55493 0.95796 0.41759 0.0
N97 N 0.57014 0.06086 0.46711 0.0
C98 C 0.59497 0.05376 0.4153 0.0
C99 C 0.62666 0.09976 0.39137 0.0
C100 C 0.62547 0.13642 0.43089 0.0
C101 C 0.59167 0.11112 0.47603 0.0
N102 N 0.50251 0.06634 0.5716 0.0
C103 C 0.53461 0.11532 0.5701 0.0
C104 C 0.51764 0.14454 0.61089 0.0
C105 C 0.47186 0.11213 0.64025 0.0
C106 C 0.46311 0.06436 0.61558 0.0
N107 N 0.57188 0.01356 0.56007 0.0
C108 C 0.65515 0.02069 0.61502 0.0
C109 C 0.60616 0.02119 0.64482 0.0
C110 C 0.56523 0.01766 0.61655 0.0
C111 C 0.6608 0.01528 0.55747 0.0
C112 C 0.61901 0.01182 0.53092 0.0
N113 N 0.45891 0.00966 0.48148 0.0
C114 C 0.4202 0.052 0.43238 0.0
C115 C 0.38108 0.006 0.42053 0.0
C116 C 0.38124 0.96177 0.44044 0.0
C117 C 0.42059 0.96445 0.47059 0.0
C118 C 0.45822 0.05312 0.46347 0.0
H119 H 0.4204 0.92974 0.48438 0.0
H120 H 0.48736 0.08918 0.47232 0.0
H121 H 0.52823 0.01837 0.64056 0.0
H122 H 0.62538 0.00805 0.48665 0.0
C123 C 0.48164 0.8917 0.53594 0.0
C124 C 0.41775 0.01799 0.63521 0.0
C125 C 0.59232 1.00438 0.38886 0.0
C126 C 0.57517 0.13365 0.52515 0.0
H127 H 0.37511 0.92173 0.68921 0.0
H128 H 0.41054 0.85283 0.63626 0.0
H129 H 0.51742 0.83802 0.44295 0.0
H130 H 0.57192 0.89839 0.36041 0.0
H131 H 0.64867 0.10623 0.34974 0.0
H132 H 0.64575 0.17678 0.42671 0.0
H133 H 0.5353 0.18498 0.61732 0.0
H134 H 0.44818 0.1233 0.67562 0.0
H135 H 0.59871 0.0237 0.68949 0.0
H136 H 0.69763 0.01406 0.53282 0.0
H137 H 0.42139 0.08702 0.41773 0.0
H138 H 0.35244 0.9252 0.43141 0.0
H139 H 0.02595 0.16092 0.0909 0.0
C140 C 0.03895 0.14277 0.11908 0.0
H141 H 0.05318 0.14151 0.2 0.0
H142 H 0.05582 0.37312 0.2202 0.0
H143 H 0.12929 0.39337 0.14264 0.0
H144 H 0.15559 0.32621 0.08986 0.0
H145 H 0.10805 0.23843 0.11353 0.0
C146 C 0.042 0.16089 0.17142 0.0
C147 C 0.02245 0.20155 0.1965 0.0
C148 C 0.05134 0.25269 0.18252 0.0
C149 C 0.03762 0.29165 0.21443 0.0
C150 C 0.06597 0.34231 0.19865 0.0
C151 C 0.10794 0.35439 0.15402 0.0
C152 C 0.12264 0.31656 0.1242 0.0
C153 C 0.09489 0.26625 0.13815 0.0
H154 H 0.0658 0.34338 0.32023 0.0
C155 C 0.02753 0.34831 0.32989 0.0
H156 H 0.95011 0.32401 0.30932 0.0
H157 H 0.95417 0.10719 0.2293 0.0
H158 H 0.88026 0.08711 0.30619 0.0
H159 H 0.85796 0.15465 0.36282 0.0
H160 H 0.90983 0.24271 0.34342 0.0
C161 C 0.98868 0.31993 0.30146 0.0
C162 C 0.99646 0.27951 0.26148 0.0
C163 C 0.96504 0.22824 0.2728 0.0
C164 C 0.97811 0.18928 0.24035 0.0
C165 C 0.94668 0.13834 0.25326 0.0
C166 C 0.90397 0.12624 0.29714 0.0
C167 C 0.89136 0.16428 0.32894 0.0
C168 C 0.92145 0.21472 0.31724 0.0
H169 H 0.88596 0.97348 0.21615 0.0
C170 C 0.8894 0.9837 0.17382 0.0
H171 H 0.85577 0.01094 0.1197 0.0
H172 H 0.67568 0.93648 0.35462 0.0
H173 H 0.67948 0.85342 0.33301 0.0
H174 H 0.73918 0.8383 0.25037 0.0
H175 H 0.79692 0.90675 0.19023 0.0
C176 C 0.85251 0.99989 0.16161 0.0
C177 C 0.80853 0.00634 0.20534 0.0
C178 C 0.77144 0.96504 0.23739 0.0
C179 C 0.73314 0.97273 0.2821 0.0
C180 C 0.70183 0.93201 0.31734 0.0
C181 C 0.70426 0.88419 0.30591 0.0
C182 C 0.73815 0.87576 0.25964 0.0
C183 C 0.77148 0.91555 0.22573 0.0
H184 H 0.61941 0.96845 0.31377 0.0
C185 C 0.63106 1.00019 0.34256 0.0
H186 H 0.70076 0.05808 0.36831 0.0
H187 H 0.87255 0.09386 0.15269 0.0
H188 H 0.86623 0.1762 0.17195 0.0
H189 H 0.79668 0.18853 0.24531 0.0
H190 H 0.7332 0.11868 0.29989 0.0
C191 C 0.68636 0.02918 0.33719 0.0
C192 C 0.72796 0.02071 0.2916 0.0
C193 C 0.76457 0.06183 0.25886 0.0
C194 C 0.80462 0.05464 0.21595 0.0
C195 C 0.84088 0.09677 0.18502 0.0
C196 C 0.83784 0.14442 0.19571 0.0
C197 C 0.79876 0.15137 0.23708 0.0
C198 C 0.76247 0.11078 0.26823 0.0
H199 H 0.0743 0.81635 0.15415 0.0
C200 C 0.04155 0.82704 0.17628 0.0
H201 H 0.98412 0.81866 0.24891 0.0
H202 H 1.00686 0.60077 0.26895 0.0
H203 H 0.96908 0.57623 0.18462 0.0
H204 H 0.95758 0.63904 0.13133 0.0
H205 H 0.98404 0.72689 0.16167 0.0
C206 C 0.01511 0.8061 0.22559 0.0
C207 C 0.02847 0.76871 0.25332 0.0
C208 C 0.01323 0.71738 0.23497 0.0
C209 C 0.01951 0.68085 0.26614 0.0
C210 C 1.00324 0.62997 0.2469 0.0
C211 C 0.98136 0.61535 0.19865 0.0
C212 C 0.97489 0.65073 0.16863 0.0
C213 C 0.99038 0.70112 0.18646 0.0
H214 H 0.9766 0.646 0.40656 0.0
C215 C 0.01155 0.63549 0.39688 0.0
H216 H 0.0773 0.64072 0.32995 0.0
H217 H 0.06419 0.86349 0.29942 0.0
H218 H 0.10405 0.88836 0.38242 0.0
H219 H 0.11551 0.82549 0.43568 0.0
H220 H 0.08671 0.73716 0.40661 0.0
C221 C 0.04745 0.65661 0.34853 0.0
C222 C 0.04059 0.69521 0.3161 0.0
C223 C 0.0571 0.74675 0.33368 0.0
C224 C 0.05076 0.78326 0.3026 0.0
C225 C 0.06763 0.83425 0.32155 0.0
C226 C 0.09074 0.84907 0.36903 0.0
C227 C 0.09728 0.81366 0.39896 0.0
C228 C 0.0806 0.76307 0.3818 0.0
H229 H 0.10001 0.95059 0.25182 0.0
C230 C 0.12828 0.97292 0.21814 0.0
H231 H 0.20936 0.01343 0.18698 0.0
H232 H 0.27827 0.05619 0.42204 0.0
H233 H 0.26441 0.13378 0.41241 0.0
H234 H 0.22245 0.14308 0.3361 0.0
H235 H 0.19318 0.07444 0.26965 0.0
C236 C 0.18084 0.98961 0.21944 0.0
C237 C 0.20192 0.98201 0.26784 0.0
C238 C 0.22011 0.02292 0.3054 0.0
C239 C 0.24612 0.01825 0.34812 0.0
C240 C 0.26091 0.05867 0.38705 0.0
C241 C 0.25258 0.10321 0.38241 0.0
C242 C 0.22885 0.1084 0.33954 0.0
C243 C 0.21246 0.06877 0.30153 0.0
H244 H 0.35624 0.03535 0.35523 0.0
C245 C 0.34289 0.00544 0.38491 0.0
H246 H 0.2778 0.94206 0.41903 0.0
H247 H 0.16603 0.89455 0.20689 0.0
H248 H 0.17538 0.81537 0.21966 0.0
H249 H 0.22195 0.80758 0.29262 0.0
H250 H 0.2597 0.87889 0.35307 0.0
C251 C 0.29248 0.97173 0.38903 0.0
C252 C 0.25629 0.97347 0.35152 0.0
C253 C 0.23411 0.93112 0.31681 0.0
C254 C 0.20701 0.93548 0.27477 0.0
C255 C 0.18666 0.89319 0.23961 0.0
C256 C 0.19187 0.84755 0.2464 0.0
C257 C 0.21805 0.84316 0.28753 0.0
C258 C 0.23942 0.88442 0.3221 0.0
H259 H 0.95719 0.83738 0.95988 0.0
C260 C 0.96818 0.86507 0.92812 0.0
H261 H 0.99031 0.88079 0.84317 0.0
H262 H 0.02981 0.66625 0.81951 0.0
H263 H 0.09273 0.70143 0.88329 0.0
H264 H 0.10095 0.78254 0.93273 0.0
H265 H 0.04684 0.82928 0.91845 0.0
C266 C 0.97929 0.85244 0.87429 0.0
C267 C 0.96982 0.79991 0.85265 0.0
C268 C 1.00317 0.77409 0.86024 0.0
C269 C 0.9995 0.72793 0.8305 0.0
C270 C 0.03212 0.70211 0.83985 0.0
C271 C 0.06818 0.72176 0.87651 0.0
C272 C 0.07281 0.76745 0.90435 0.0
C273 C 0.04119 0.79375 0.89606 0.0
H274 H 0.04235 0.70162 0.71352 0.0
C275 C 1.00658 0.66776 0.71485 0.0
H276 H 0.92844 0.63089 0.7581 0.0
H277 H 0.89498 0.83611 0.83459 0.0
H278 H 0.83136 0.80032 0.77186 0.0
H279 H 0.82749 0.72221 0.71762 0.0
H280 H 0.88699 0.67934 0.72595 0.0
C281 C 0.96451 0.66439 0.755 0.0
C282 C 0.96374 0.70862 0.79208 0.0
C283 C 0.92827 0.73291 0.78703 0.0
C284 C 0.93116 0.77841 0.81752 0.0
C285 C 0.89529 0.80198 0.81156 0.0
C286 C 0.85836 0.78172 0.77591 0.0
C287 C 0.85613 0.73771 0.74545 0.0
C288 C 0.89056 0.71345 0.75072 0.0
H289 H 0.11221 0.01684 0.82081 0.0
C290 C 0.11731 0.01625 0.8634 0.0
H291 H 0.16797 0.00962 0.91429 0.0
H292 H 0.2901 0.89916 0.73501 0.0
H293 H 0.2451 0.83556 0.80396 0.0
H294 H 0.1802 0.84793 0.88273 0.0
H295 H 0.15939 0.92384 0.89269 0.0
C296 C 0.16184 0.01067 0.87223 0.0
C297 C 0.20304 1.00439 0.82462 0.0
C298 C 0.21466 0.95957 0.81863 0.0
C299 C 0.2525 0.95256 0.77285 0.0
C300 C 0.26261 0.90713 0.7687 0.0
C301 C 0.23671 0.86999 0.808 0.0
C302 C 0.20001 0.87686 0.85228 0.0
C303 C 0.1887 0.92083 0.85759 0.0
H304 H 0.37911 0.05676 0.6988 0.0
C305 C 0.37398 0.02165 0.67565 0.0
H306 H 0.3125 0.9497 0.66169 0.0
H307 H 0.1981 0.09861 0.82672 0.0
H308 H 0.23722 0.15944 0.75385 0.0
H309 H 0.29155 0.14165 0.66815 0.0
H310 H 0.30892 0.06386 0.65594 0.0
C311 C 0.32217 0.98433 0.68659 0.0
C312 C 0.27927 0.99047 0.73255 0.0
C313 C 0.26537 0.03415 0.7371 0.0
C314 C 0.22962 0.04225 0.78433 0.0
C315 C 0.22163 0.08879 0.79018 0.0
C316 C 0.24428 0.12433 0.74884 0.0
C317 C 0.27518 0.11447 0.70078 0.0
C318 C 0.28552 0.06994 0.69467 0.0
H319 H 0.94577 0.19271 0.8817 0.0
C320 C 0.9804 0.18338 0.86308 0.0
H321 H 0.04425 0.1945 0.79648 0.0
H322 H 0.97245 0.2621 0.60524 0.0
H323 H 0.9674 0.17775 0.57482 0.0
H324 H 0.97486 0.11991 0.63808 0.0
H325 H 0.98814 0.14639 0.73205 0.0
C326 C 0.01062 0.20531 0.81533 0.0
C327 C 0.99697 0.23844 0.78122 0.0
C328 C 0.9884 0.22257 0.72622 0.0
C329 C 0.9822 0.25552 0.69014 0.0
C330 C 0.97558 0.23851 0.63513 0.0
C331 C 0.97295 0.19012 0.61686 0.0
C332 C 0.97737 0.15763 0.65239 0.0
C333 C 0.98531 0.17351 0.70623 0.0
H334 H 0.05104 0.39659 0.67452 0.0
C335 C 0.01538 0.38709 0.65652 0.0
H336 H 0.94404 0.32276 0.64711 0.0
H337 H 0.01502 0.28296 0.88238 0.0
H338 H 0.01119 0.36417 0.91611 0.0
H339 H 0.99144 0.41751 0.85708 0.0
H340 H 0.97682 0.39064 0.76343 0.0
C341 C 0.97658 0.33887 0.67032 0.0
C342 C 0.98331 0.30448 0.70903 0.0
C343 C 0.98894 0.31931 0.76504 0.0
C344 C 0.99725 0.28701 0.80049 0.0
C345 C 1.00637 0.30473 0.85459 0.0
C346 C 1.00453 0.35145 0.87442 0.0
C347 C 0.99364 0.38159 0.84109 0.0
C348 C 0.98582 0.36589 0.78713 0.0
H349 H 0.81762 1.00488 0.86572 0.0
C350 C 0.86041 0.02311 0.85213 0.0
H351 H 0.92011 0.06631 0.78921 0.0
H352 H 0.69086 0.94305 0.69224 0.0
H353 H 0.7113 0.8685 0.69816 0.0
H354 H 0.79179 0.87436 0.73349 0.0
H355 H 0.85146 0.95488 0.76454 0.0
C356 C 0.8778 0.04656 0.80364 0.0
C357 C 0.83816 0.04558 0.76933 0.0
C358 C 0.80589 0.99892 0.74749 0.0
C359 C 0.76136 0.99609 0.72398 0.0
C360 C 0.7269 0.94808 0.70762 0.0
C361 C 0.7379 0.90477 0.71125 0.0
C362 C 0.78306 0.90803 0.73136 0.0
C363 C 0.81675 0.95442 0.74938 0.0
H364 H 0.73316 0.01477 0.61627 0.0
C365 C 0.7007 0.02409 0.64169 0.0
H366 H 0.67525 0.05124 0.72092 0.0
H367 H 0.8933 0.14082 0.80474 0.0
H368 H 0.87728 0.21703 0.79284 0.0
H369 H 0.80505 0.21358 0.74462 0.0
H370 H 0.7472 0.13383 0.70979 0.0
C371 C 0.70459 0.03827 0.6948 0.0
C372 C 0.75156 0.04069 0.71854 0.0
C373 C 0.78601 0.08784 0.73706 0.0
C374 C 0.82887 0.09015 0.76319 0.0
C375 C 0.86095 0.13729 0.78371 0.0
C376 C 0.85219 0.18123 0.77709 0.0
C377 C 0.81141 0.17927 0.75006 0.0
C378 C 0.77846 0.13322 0.73035 0.0
loop_
_geom_bond_atom_site_label_1
_geom_bond_atom_site_label_2
_geom_bond_distance
_geom_bond_site_symmetry_2
_ccdc_geom_bond_type
Co0 O3 2.042 1_655 S
Co0 O10 2.264 1_655 S
Co0 O29 2.286 . S
Co0 O30 2.069 1_655 S
Co0 O32 2.015 . S
Co1 O3 2.122 1_545 S
Co1 O9 2.073 . S
Co1 O10 2.327 1_545 S
Co1 O11 1.976 . S
Co2 O3 2.101 1_545 S
Co2 O5 2.073 1_454 S
Co2 O12 2.130 . S
Co2 O13 2.149 1_554 S
Co2 O17 2.093 1_444 S
Co2 O31 2.138 1_445 S
O3 Co0 2.042 1_455 S
O3 Co1 2.122 1_565 S
O3 Co2 2.101 1_565 S
O3 H4 0.980 . S
H4 O3 0.980 . S
O5 Co2 2.073 1_656 S
O5 Co6 2.042 1_655 S
O5 Co7 2.122 1_545 S
O5 H8 0.980 . S
Co6 O5 2.042 1_455 S
Co6 O14 2.286 . S
Co6 O15 2.069 1_455 S
Co6 O16 2.015 . S
Co6 O19 2.264 1_455 S
Co7 O5 2.122 1_565 S
Co7 O18 1.976 . S
Co7 O19 2.327 1_565 S
Co7 O20 2.073 . S
H8 O5 0.980 . S
O9 Co1 2.073 . S
O9 C24 1.245 1_545 S
O10 Co0 2.264 1_455 S
O10 Co1 2.327 1_565 S
O10 C24 1.257 . S
O11 Co1 1.976 . S
O11 C23 1.251 . S
O12 Co2 2.130 . S
O12 C23 1.274 . S
O13 Co2 2.149 1_556 S
O13 C26 1.246 . S
O14 Co6 2.286 . S
O14 C25 1.259 1_455 S
O15 Co6 2.069 1_655 S
O15 C25 1.289 . S
O16 Co6 2.015 . S
O16 C26 1.257 . S
O17 Co2 2.093 1_666 S
O17 C27 1.274 . S
O18 Co7 1.976 . S
O18 C27 1.251 . S
O19 Co6 2.264 1_655 S
O19 Co7 2.327 1_545 S
O19 C28 1.257 . S
O20 Co7 2.073 . S
O20 C28 1.245 1_565 S
C21 O29 1.259 1_455 S
C21 O30 1.289 . S
C22 O31 1.246 . S
C22 O32 1.257 . S
C23 O11 1.251 . S
C23 O12 1.274 . S
C24 O9 1.245 1_565 S
C24 O10 1.257 . S
C25 O14 1.259 1_655 S
C25 O15 1.289 . S
C26 O13 1.246 . S
C26 O16 1.257 . S
C27 O17 1.274 . S
C27 O18 1.251 . S
C28 O19 1.257 . S
C28 O20 1.245 1_545 S
O29 Co0 2.286 . S
O29 C21 1.259 1_655 S
O30 Co0 2.069 1_455 S
O30 C21 1.289 . S
O31 Co2 2.138 1_665 S
O31 C22 1.246 . S
O32 Co0 2.015 . S
O32 C22 1.257 . S
C33 C34 1.443 . S
C33 N37 1.376 . S
C33 C71 1.389 . S
C34 C33 1.443 . S
C34 C35 1.340 . S
C34 H74 0.951 . S
C35 C34 1.340 . S
C35 C36 1.439 . S
C35 H75 0.950 . S
C36 C35 1.439 . S
C36 N37 1.374 . S
C36 C70 1.395 . S
N37 C33 1.376 . S
N37 C36 1.374 . S
N37 Co38 2.015 . S
Co38 N37 2.015 . S
Co38 N39 2.012 . S
Co38 N44 2.001 1_455 S
Co38 N49 1.978 1_455 S
Co38 N54 2.286 . S
Co38 N60 2.279 1_455 S
N39 Co38 2.012 . S
N39 C40 1.376 . S
N39 C43 1.383 . S
C40 N39 1.376 . S
C40 C41 1.446 . S
C40 C70 1.391 . S
C41 C40 1.446 . S
C41 C42 1.339 . S
C41 H76 0.949 . S
C42 C41 1.339 . S
C42 C43 1.439 . S
C42 H77 0.950 . S
C43 N39 1.383 . S
C43 C42 1.439 . S
C43 C72 1.392 . S
N44 Co38 2.001 1_655 S
N44 C45 1.376 . S
N44 C48 1.374 . S
C45 N44 1.376 . S
C45 C46 1.443 . S
C45 C72 1.388 1_655 S
C46 C45 1.443 . S
C46 C47 1.340 . S
C46 H78 0.951 . S
C47 C46 1.340 . S
C47 C48 1.439 . S
C47 H79 0.950 . S
C48 N44 1.374 . S
C48 C47 1.439 . S
C48 C73 1.395 . S
N49 Co38 1.978 1_655 S
N49 C50 1.376 . S
N49 C53 1.383 . S
C50 N49 1.376 . S
C50 C51 1.446 . S
C50 C73 1.391 . S
C51 C50 1.446 . S
C51 C52 1.339 . S
C51 H80 0.949 . S
C52 C51 1.339 . S
C52 C53 1.439 . S
C52 H81 0.950 . S
C53 N49 1.383 . S
C53 C52 1.439 . S
C53 C71 1.392 1_655 S
N54 Co38 2.286 . S
N54 C57 1.332 1_455 S
N54 C59 1.332 . S
C55 C56 1.386 1_455 S
C55 C58 1.388 . S
C56 C55 1.386 1_655 S
C56 C57 1.382 . S
C56 H82 0.950 . S
C57 N54 1.332 1_655 S
C57 C56 1.382 . S
C57 H68 0.952 . S
C58 C55 1.388 . S
C58 C59 1.382 . S
C58 H83 0.950 . S
C59 N54 1.332 . S
C59 C58 1.382 . S
C59 H69 0.948 . S
N60 Co38 2.279 1_655 S
N60 C64 1.332 1_655 S
N60 C65 1.332 . S
C61 C62 1.385 1_655 S
C61 C65 1.382 . S
C61 H84 0.950 . S
C62 C61 1.385 1_455 S
C62 C63 1.389 . S
C63 C62 1.389 . S
C63 C64 1.382 . S
C63 H85 0.950 . S
C64 N60 1.332 1_455 S
C64 C63 1.382 . S
C64 H66 0.952 . S
C65 N60 1.332 . S
C65 C61 1.382 . S
C65 H67 0.948 . S
H66 C64 0.952 . S
H67 C65 0.948 . S
H68 C57 0.952 . S
H69 C59 0.948 . S
C70 C36 1.395 . S
C70 C40 1.391 . S
C71 C33 1.389 . S
C71 C53 1.392 1_455 S
C72 C43 1.392 . S
C72 C45 1.388 1_455 S
C73 C48 1.395 . S
C73 C50 1.391 . S
H74 C34 0.951 . S
H75 C35 0.950 . S
H76 C41 0.949 . S
H77 C42 0.950 . S
H78 C46 0.951 . S
H79 C47 0.950 . S
H80 C51 0.949 . S
H81 C52 0.950 . S
H82 C56 0.950 . S
H83 C58 0.950 . S
H84 C61 0.950 . S
H85 C63 0.950 . S
C86 C87 1.443 . S
C86 N90 1.376 . S
C86 C124 1.389 1_565 S
C87 C86 1.443 . S
C87 C88 1.340 . S
C87 H127 0.951 . S
C88 C87 1.340 . S
C88 C89 1.439 . S
C88 H128 0.950 . S
C89 C88 1.439 . S
C89 N90 1.374 . S
C89 C123 1.395 . S
N90 C86 1.376 . S
N90 C89 1.374 . S
N90 Co91 2.000 1_565 S
Co91 N90 2.000 1_545 S
Co91 N92 1.981 1_545 S
Co91 N97 2.017 . S
Co91 N102 2.009 . S
Co91 N107 2.276 1_545 S
Co91 N113 2.289 . S
N92 Co91 1.981 1_565 S
N92 C93 1.376 . S
N92 C96 1.383 . S
C93 N92 1.376 . S
C93 C94 1.446 . S
C93 C123 1.391 . S
C94 C93 1.446 . S
C94 C95 1.339 . S
C94 H129 0.949 . S
C95 C94 1.339 . S
C95 C96 1.439 . S
C95 H130 0.950 . S
C96 N92 1.383 . S
C96 C95 1.439 . S
C96 C125 1.392 1_565 S
N97 Co91 2.017 . S
N97 C98 1.376 . S
N97 C101 1.374 . S
C98 N97 1.376 . S
C98 C99 1.443 . S
C98 C125 1.389 . S
C99 C98 1.443 . S
C99 C100 1.340 . S
C99 H131 0.951 . S
C100 C99 1.340 . S
C100 C101 1.439 . S
C100 H132 0.950 . S
C101 N97 1.374 . S
C101 C100 1.439 . S
C101 C126 1.395 . S
N102 Co91 2.009 . S
N102 C103 1.376 . S
N102 C106 1.383 . S
C103 N102 1.376 . S
C103 C104 1.446 . S
C103 C126 1.391 . S
C104 C103 1.446 . S
C104 C105 1.339 . S
C104 H133 0.949 . S
C105 C104 1.339 . S
C105 C106 1.439 . S
C105 H134 0.950 . S
C106 N102 1.383 . S
C106 C105 1.439 . S
C106 C124 1.392 . S
N107 Co91 2.276 1_565 S
N107 C110 1.332 1_565 S
N107 C112 1.332 . S
C108 C109 1.389 . S
C108 C111 1.386 1_545 S
C109 C108 1.389 . S
C109 C110 1.382 . S
C109 H135 0.950 . S
C110 N107 1.332 1_545 S
C110 C109 1.382 . S
C110 H121 0.952 . S
C111 C108 1.386 1_565 S
C111 C112 1.382 . S
C111 H136 0.950 . S
C112 N107 1.332 . S
C112 C111 1.382 . S
C112 H122 0.948 . S
N113 Co91 2.289 . S
N113 C117 1.332 1_545 S
N113 C118 1.332 . S
C114 C115 1.388 . S
C114 C118 1.382 . S
C114 H137 0.950 . S
C115 C114 1.388 . S
C115 C116 1.386 1_545 S
C116 C115 1.386 1_565 S
C116 C117 1.382 . S
C116 H138 0.950 . S
C117 N113 1.332 1_565 S
C117 C116 1.382 . S
C117 H119 0.952 . S
C118 N113 1.332 . S
C118 C114 1.382 . S
C118 H120 0.948 . S
H119 C117 0.952 . S
H120 C118 0.948 . S
H121 C110 0.952 . S
H122 C112 0.948 . S
C123 C89 1.395 . S
C123 C93 1.391 . S
C124 C86 1.389 1_545 S
C124 C106 1.392 . S
C125 C96 1.392 1_545 S
C125 C98 1.389 . S
C126 C101 1.395 . S
C126 C103 1.391 . S
H127 C87 0.951 . S
H128 C88 0.950 . S
H129 C94 0.949 . S
H130 C95 0.950 . S
H131 C99 0.951 . S
H132 C100 0.950 . S
H133 C104 0.949 . S
H134 C105 0.950 . S
H135 C109 0.950 . S
H136 C111 0.950 . S
H137 C114 0.950 . S
H138 C116 0.950 . S
H139 C140 0.951 . S
C140 H139 0.951 . S
C140 C146 1.265 1_655 S
H141 C146 0.950 . S
H142 C150 0.949 . S
H143 C151 0.950 . S
H144 C152 0.951 . S
H145 C153 0.951 . S
C146 C140 1.265 1_455 S
C146 H141 0.950 . S
C146 C147 1.478 . S
C147 C146 1.478 . S
C147 C148 1.397 . S
C147 C164 1.394 1_455 S
C148 C147 1.397 . S
C148 C149 1.438 . S
C148 C153 1.429 . S
C149 C148 1.438 . S
C149 C150 1.428 . S
C149 C162 1.394 1_455 S
C150 H142 0.949 . S
C150 C149 1.428 . S
C150 C151 1.345 . S
C151 H143 0.950 . S
C151 C150 1.345 . S
C151 C152 1.424 . S
C152 H144 0.951 . S
C152 C151 1.424 . S
C152 C153 1.347 . S
C153 H145 0.951 . S
C153 C148 1.429 . S
C153 C152 1.347 . S
H154 C155 0.951 . S
C155 H154 0.951 . S
C155 C161 1.265 1_455 S
H156 C161 0.950 . S
H157 C165 0.949 . S
H158 C166 0.950 . S
H159 C167 0.951 . S
H160 C168 0.951 . S
C161 C155 1.265 1_655 S
C161 H156 0.950 . S
C161 C162 1.478 . S
C162 C149 1.394 1_655 S
C162 C161 1.478 . S
C162 C163 1.397 . S
C163 C162 1.397 . S
C163 C164 1.438 . S
C163 C168 1.429 . S
C164 C147 1.394 1_655 S
C164 C163 1.438 . S
C164 C165 1.428 . S
C165 H157 0.949 . S
C165 C164 1.428 . S
C165 C166 1.345 . S
C166 H158 0.950 . S
C166 C165 1.345 . S
C166 C167 1.424 . S
C167 H159 0.951 . S
C167 C166 1.424 . S
C167 C168 1.347 . S
C168 H160 0.951 . S
C168 C163 1.429 . S
C168 C167 1.347 . S
H169 C170 0.951 . S
C170 H169 0.951 . S
C170 C176 1.265 . S
H171 C176 0.950 . S
H172 C180 0.949 . S
H173 C181 0.950 . S
H174 C182 0.951 . S
H175 C183 0.951 . S
C176 C170 1.265 . S
C176 H171 0.950 . S
C176 C177 1.478 . S
C177 C176 1.478 . S
C177 C178 1.397 . S
C177 C194 1.394 1_565 S
C178 C177 1.397 . S
C178 C179 1.438 . S
C178 C183 1.429 . S
C179 C178 1.438 . S
C179 C180 1.428 . S
C179 C192 1.394 . S
C180 H172 0.949 . S
C180 C179 1.428 . S
C180 C181 1.345 . S
C181 H173 0.950 . S
C181 C180 1.345 . S
C181 C182 1.424 . S
C182 H174 0.951 . S
C182 C181 1.424 . S
C182 C183 1.347 . S
C183 H175 0.951 . S
C183 C178 1.429 . S
C183 C182 1.347 . S
H184 C185 0.950 . S
C185 H184 0.950 . S
C185 C191 1.266 1_565 S
H186 C191 0.950 . S
H187 C195 0.949 . S
H188 C196 0.950 . S
H189 C197 0.951 . S
H190 C198 0.951 . S
C191 C185 1.266 1_545 S
C191 H186 0.950 . S
C191 C192 1.478 1_545 S
C192 C179 1.394 . S
C192 C191 1.478 1_565 S
C192 C193 1.397 1_565 S
C193 C192 1.397 1_545 S
C193 C194 1.438 . S
C193 C198 1.429 . S
C194 C177 1.394 1_545 S
C194 C193 1.438 . S
C194 C195 1.428 . S
C195 H187 0.949 . S
C195 C194 1.428 . S
C195 C196 1.345 . S
C196 H188 0.950 . S
C196 C195 1.345 . S
C196 C197 1.424 . S
C197 H189 0.951 . S
C197 C196 1.424 . S
C197 C198 1.347 . S
C198 H190 0.951 . S
C198 C193 1.429 . S
C198 C197 1.347 . S
H199 C200 0.951 . S
C200 H199 0.951 . S
C200 C206 1.265 1_455 S
H201 C206 0.950 . S
H202 C210 0.949 . S
H203 C211 0.950 . S
H204 C212 0.951 . S
H205 C213 0.951 . S
C206 C200 1.265 1_655 S
C206 H201 0.950 . S
C206 C207 1.478 . S
C207 C206 1.478 . S
C207 C208 1.397 . S
C207 C224 1.394 1_655 S
C208 C207 1.397 . S
C208 C209 1.438 . S
C208 C213 1.429 . S
C209 C208 1.438 . S
C209 C210 1.428 . S
C209 C222 1.394 1_655 S
C210 H202 0.949 . S
C210 C209 1.428 . S
C210 C211 1.345 . S
C211 H203 0.950 . S
C211 C210 1.345 . S
C211 C212 1.424 . S
C212 H204 0.951 . S
C212 C211 1.424 . S
C212 C213 1.347 . S
C213 H205 0.951 . S
C213 C208 1.429 . S
C213 C212 1.347 . S
H214 C215 0.951 . S
C215 H214 0.951 . S
C215 C221 1.265 1_655 S
H216 C221 0.950 . S
H217 C225 0.949 . S
H218 C226 0.950 . S
H219 C227 0.951 . S
H220 C228 0.951 . S
C221 C215 1.265 1_455 S
C221 H216 0.950 . S
C221 C222 1.478 . S
C222 C209 1.394 1_455 S
C222 C221 1.478 . S
C222 C223 1.397 . S
C223 C222 1.397 . S
C223 C224 1.438 . S
C223 C228 1.429 . S
C224 C207 1.394 1_455 S
C224 C223 1.438 . S
C224 C225 1.428 . S
C225 H217 0.949 . S
C225 C224 1.428 . S
C225 C226 1.345 . S
C226 H218 0.950 . S
C226 C225 1.345 . S
C226 C227 1.424 . S
C227 H219 0.951 . S
C227 C226 1.424 . S
C227 C228 1.347 . S
C228 H220 0.951 . S
C228 C223 1.429 . S
C228 C227 1.347 . S
H229 C230 0.951 . S
C230 H229 0.951 . S
C230 C236 1.265 . S
H231 C236 0.950 . S
H232 C240 0.949 . S
H233 C241 0.950 . S
H234 C242 0.951 . S
H235 C243 0.951 . S
C236 C230 1.265 . S
C236 H231 0.950 . S
C236 C237 1.478 . S
C237 C236 1.478 . S
C237 C238 1.397 1_565 S
C237 C254 1.394 . S
C238 C237 1.397 1_545 S
C238 C239 1.438 . S
C238 C243 1.429 . S
C239 C238 1.438 . S
C239 C240 1.428 . S
C239 C252 1.394 1_545 S
C240 H232 0.949 . S
C240 C239 1.428 . S
C240 C241 1.345 . S
C241 H233 0.950 . S
C241 C240 1.345 . S
C241 C242 1.424 . S
C242 H234 0.951 . S
C242 C241 1.424 . S
C242 C243 1.347 . S
C243 H235 0.951 . S
C243 C238 1.429 . S
C243 C242 1.347 . S
H244 C245 0.952 . S
C245 H244 0.952 . S
C245 C251 1.266 1_545 S
H246 C251 0.950 . S
H247 C255 0.949 . S
H248 C256 0.950 . S
H249 C257 0.951 . S
H250 C258 0.951 . S
C251 C245 1.266 1_565 S
C251 H246 0.950 . S
C251 C252 1.478 . S
C252 C239 1.394 1_565 S
C252 C251 1.478 . S
C252 C253 1.397 . S
C253 C252 1.397 . S
C253 C254 1.438 . S
C253 C258 1.429 . S
C254 C237 1.394 . S
C254 C253 1.438 . S
C254 C255 1.428 . S
C255 H247 0.949 . S
C255 C254 1.428 . S
C255 C256 1.345 . S
C256 H248 0.950 . S
C256 C255 1.345 . S
C256 C257 1.424 . S
C257 H249 0.951 . S
C257 C256 1.424 . S
C257 C258 1.347 . S
C258 H250 0.951 . S
C258 C253 1.429 . S
C258 C257 1.347 . S
H259 C260 0.951 . S
C260 H259 0.951 . S
C260 C266 1.265 1_655 S
H261 C266 0.950 . S
H262 C270 0.949 . S
H263 C271 0.950 . S
H264 C272 0.951 . S
H265 C273 0.951 . S
C266 C260 1.265 1_455 S
C266 H261 0.950 . S
C266 C267 1.478 . S
C267 C266 1.478 . S
C267 C268 1.397 . S
C267 C284 1.394 . S
C268 C267 1.397 . S
C268 C269 1.437 1_455 S
C268 C273 1.429 . S
C269 C268 1.437 1_655 S
C269 C270 1.425 . S
C269 C282 1.397 . S
C270 H262 0.949 . S
C270 C269 1.425 . S
C270 C271 1.345 1_655 S
C271 H263 0.950 . S
C271 C270 1.345 1_455 S
C271 C272 1.424 . S
C272 H264 0.951 . S
C272 C271 1.424 . S
C272 C273 1.347 . S
C273 H265 0.951 . S
C273 C268 1.429 . S
C273 C272 1.347 . S
H274 C275 0.951 . S
C275 H274 0.951 . S
C275 C281 1.265 1_455 S
H276 C281 0.950 . S
H277 C285 0.949 . S
H278 C286 0.950 . S
H279 C287 0.951 . S
H280 C288 0.951 . S
C281 C275 1.265 1_655 S
C281 H276 0.950 . S
C281 C282 1.478 . S
C282 C269 1.397 . S
C282 C281 1.478 . S
C282 C283 1.397 . S
C283 C282 1.397 . S
C283 C284 1.438 1_655 S
C283 C288 1.429 . S
C284 C267 1.394 . S
C284 C283 1.438 1_455 S
C284 C285 1.428 . S
C285 H277 0.949 . S
C285 C284 1.428 . S
C285 C286 1.345 1_455 S
C286 H278 0.950 . S
C286 C285 1.345 1_655 S
C286 C287 1.424 . S
C287 H279 0.951 . S
C287 C286 1.424 . S
C287 C288 1.347 . S
C288 H280 0.951 . S
C288 C283 1.429 . S
C288 C287 1.347 . S
H289 C290 0.950 . S
C290 H289 0.950 . S
C290 C296 1.265 . S
H291 C296 0.950 . S
H292 C300 0.949 . S
H293 C301 0.950 . S
H294 C302 0.951 . S
H295 C303 0.951 . S
C296 C290 1.265 . S
C296 H291 0.950 . S
C296 C297 1.478 . S
C297 C296 1.478 . S
C297 C298 1.397 1_545 S
C297 C314 1.394 . S
C298 C297 1.397 1_565 S
C298 C299 1.438 . S
C298 C303 1.429 . S
C299 C298 1.438 . S
C299 C300 1.428 . S
C299 C312 1.394 1_565 S
C300 H292 0.949 . S
C300 C299 1.428 . S
C300 C301 1.345 . S
C301 H293 0.950 . S
C301 C300 1.345 . S
C301 C302 1.424 . S
C302 H294 0.951 . S
C302 C301 1.424 . S
C302 C303 1.347 . S
C303 H295 0.951 . S
C303 C298 1.429 . S
C303 C302 1.347 . S
H304 C305 0.951 . S
C305 H304 0.951 . S
C305 C311 1.265 1_545 S
H306 C311 0.950 . S
H307 C315 0.949 . S
H308 C316 0.950 . S
H309 C317 0.951 . S
H310 C318 0.951 . S
C311 C305 1.265 1_565 S
C311 H306 0.950 . S
C311 C312 1.478 1_565 S
C312 C299 1.394 1_545 S
C312 C311 1.478 1_545 S
C312 C313 1.397 . S
C313 C312 1.397 . S
C313 C314 1.438 . S
C313 C318 1.429 . S
C314 C297 1.394 . S
C314 C313 1.438 . S
C314 C315 1.428 . S
C315 H307 0.949 . S
C315 C314 1.428 . S
C315 C316 1.345 . S
C316 H308 0.950 . S
C316 C315 1.345 . S
C316 C317 1.424 . S
C317 H309 0.951 . S
C317 C316 1.424 . S
C317 C318 1.347 . S
C318 H310 0.951 . S
C318 C313 1.429 . S
C318 C317 1.347 . S
H319 C320 0.951 . S
C320 H319 0.951 . S
C320 C326 1.265 1_655 S
H321 C326 0.950 . S
H322 C330 0.949 . S
H323 C331 0.950 . S
H324 C332 0.951 . S
H325 C333 0.951 . S
C326 C320 1.265 1_455 S
C326 H321 0.950 . S
C326 C327 1.478 . S
C327 C326 1.478 . S
C327 C328 1.397 . S
C327 C344 1.394 1_455 S
C328 C327 1.397 . S
C328 C329 1.438 . S
C328 C333 1.429 . S
C329 C328 1.438 . S
C329 C330 1.428 . S
C329 C342 1.394 1_455 S
C330 H322 0.949 . S
C330 C329 1.428 . S
C330 C331 1.345 . S
C331 H323 0.950 . S
C331 C330 1.345 . S
C331 C332 1.424 . S
C332 H324 0.951 . S
C332 C331 1.424 . S
C332 C333 1.347 . S
C333 H325 0.951 . S
C333 C328 1.429 . S
C333 C332 1.347 . S
H334 C335 0.951 . S
C335 H334 0.951 . S
C335 C341 1.265 1_455 S
H336 C341 0.950 . S
H337 C345 0.949 . S
H338 C346 0.950 . S
H339 C347 0.951 . S
H340 C348 0.951 . S
C341 C335 1.265 1_655 S
C341 H336 0.950 . S
C341 C342 1.478 . S
C342 C329 1.394 1_655 S
C342 C341 1.478 . S
C342 C343 1.397 . S
C343 C342 1.397 . S
C343 C344 1.438 . S
C343 C348 1.429 . S
C344 C327 1.394 1_655 S
C344 C343 1.438 . S
C344 C345 1.428 . S
C345 H337 0.949 . S
C345 C344 1.428 . S
C345 C346 1.345 . S
C346 H338 0.950 . S
C346 C345 1.345 . S
C346 C347 1.424 . S
C347 H339 0.951 . S
C347 C346 1.424 . S
C347 C348 1.347 . S
C348 H340 0.951 . S
C348 C343 1.429 . S
C348 C347 1.347 . S
H349 C350 0.951 . S
C350 H349 0.951 . S
C350 C356 1.265 . S
H351 C356 0.950 . S
H352 C360 0.949 . S
H353 C361 0.950 . S
H354 C362 0.951 . S
H355 C363 0.951 . S
C356 C350 1.265 . S
C356 H351 0.950 . S
C356 C357 1.478 . S
C357 C356 1.478 . S
C357 C358 1.397 1_545 S
C357 C374 1.394 . S
C358 C357 1.397 1_565 S
C358 C359 1.438 . S
C358 C363 1.429 . S
C359 C358 1.438 . S
C359 C360 1.428 . S
C359 C372 1.394 1_565 S
C360 H352 0.949 . S
C360 C359 1.428 . S
C360 C361 1.345 . S
C361 H353 0.950 . S
C361 C360 1.345 . S
C361 C362 1.424 . S
C362 H354 0.951 . S
C362 C361 1.424 . S
C362 C363 1.347 . S
C363 H355 0.951 . S
C363 C358 1.429 . S
C363 C362 1.347 . S
H364 C365 0.951 . S
C365 H364 0.951 . S
C365 C371 1.265 . S
H366 C371 0.950 . S
H367 C375 0.949 . S
H368 C376 0.950 . S
H369 C377 0.951 . S
H370 C378 0.951 . S
C371 C365 1.265 . S
C371 H366 0.950 . S
C371 C372 1.478 . S
C372 C359 1.394 1_545 S
C372 C371 1.478 . S
C372 C373 1.397 . S
C373 C372 1.397 . S
C373 C374 1.438 . S
C373 C378 1.429 . S
C374 C357 1.394 . S
C374 C373 1.438 . S
C374 C375 1.428 . S
C375 H367 0.949 . S
C375 C374 1.428 . S
C375 C376 1.345 . S
C376 H368 0.950 . S
C376 C375 1.345 . S
C376 C377 1.424 . S
C377 H369 0.951 . S
C377 C376 1.424 . S
C377 C378 1.347 . S
C378 H370 0.951 . S
C378 C373 1.429 . S
C378 C377 1.347 . S
C140 C23 1.343 1_655 S
C155 C55 1.363 . S
C170 C22 1.502 . S
C185 C125 1.559 1_565 S
C200 C21 1.914 . S
C215 C71 1.912 1_655 S
C230 C24 1.465 . S
C245 C115 1.503 . S
C260 C27 1.207 . S
C275 C62 1.356 . S
C290 C26 1.509 . S
C305 C124 1.560 . S
C335 C72 1.907 . S
C320 C25 1.908 . S
C350 C28 1.438 . S
C365 C108 1.530 . S
