# Generated by pormake.
# Topology ssb, (4,4)-cn, num edge types: 1
# Building blocks:
#     Node 0, Type 0, BuildingBlock: NAWXER_clean_sbu_0, # of connection points: 4
#     Node 1, Type 0, BuildingBlock: NAWXER_clean_sbu_0, # of connection points: 4
#     Node 2, Type 0, BuildingBlock: NAWXER_clean_sbu_0, # of connection points: 4
#     Node 3, Type 0, BuildingBlock: NAWXER_clean_sbu_0, # of connection points: 4
#     Node 4, Type 0, BuildingBlock: NAWXER_clean_sbu_0, # of connection points: 4
#     Node 5, Type 0, BuildingBlock: NAWXER_clean_sbu_0, # of connection points: 4
#     Node 6, Type 0, BuildingBlock: NAWXER_clean_sbu_0, # of connection points: 4
#     Node 7, Type 0, BuildingBlock: NAWXER_clean_sbu_0, # of connection points: 4
#     Node 8, Type 1, BuildingBlock: NAWXER_clean_sbu_0, # of connection points: 4
#     Node 9, Type 1, BuildingBlock: NAWXER_clean_sbu_0, # of connection points: 4
#     Node 10, Type 1, BuildingBlock: NAWXER_clean_sbu_0, # of connection points: 4
#     Node 11, Type 1, BuildingBlock: NAWXER_clean_sbu_0, # of connection points: 4
#     Node 12, Type 1, BuildingBlock: NAWXER_clean_sbu_0, # of connection points: 4
#     Node 13, Type 1, BuildingBlock: NAWXER_clean_sbu_0, # of connection points: 4
#     Node 14, Type 1, BuildingBlock: NAWXER_clean_sbu_0, # of connection points: 4
#     Node 15, Type 1, BuildingBlock: NAWXER_clean_sbu_0, # of connection points: 4
#     Edge 16, Type (0, 1), BuildingBlock: ZUJKAS_clean_linker_0, # of connection points: 2
#     Edge 17, Type (0, 1), BuildingBlock: ZUJKAS_clean_linker_0, # of connection points: 2
#     Edge 18, Type (0, 1), BuildingBlock: ZUJKAS_clean_linker_0, # of connection points: 2
#     Edge 19, Type (0, 1), BuildingBlock: ZUJKAS_clean_linker_0, # of connection points: 2
#     Edge 20, Type (0, 1), BuildingBlock: ZUJKAS_clean_linker_0, # of connection points: 2
#     Edge 21, Type (0, 1), BuildingBlock: ZUJKAS_clean_linker_0, # of connection points: 2
#     Edge 22, Type (0, 1), BuildingBlock: ZUJKAS_clean_linker_0, # of connection points: 2
#     Edge 23, Type (0, 1), BuildingBlock: ZUJKAS_clean_linker_0, # of connection points: 2
#     Edge 24, Type (0, 1), BuildingBlock: ZUJKAS_clean_linker_0, # of connection points: 2
#     Edge 25, Type (0, 1), BuildingBlock: ZUJKAS_clean_linker_0, # of connection points: 2
#     Edge 26, Type (0, 1), BuildingBlock: ZUJKAS_clean_linker_0, # of connection points: 2
#     Edge 27, Type (0, 1), BuildingBlock: ZUJKAS_clean_linker_0, # of connection points: 2
#     Edge 28, Type (0, 1), BuildingBlock: ZUJKAS_clean_linker_0, # of connection points: 2
#     Edge 29, Type (0, 1), BuildingBlock: ZUJKAS_clean_linker_0, # of connection points: 2
#     Edge 30, Type (0, 1), BuildingBlock: ZUJKAS_clean_linker_0, # of connection points: 2
#     Edge 31, Type (0, 1), BuildingBlock: ZUJKAS_clean_linker_0, # of connection points: 2
#     Edge 32, Type (0, 1), BuildingBlock: ZUJKAS_clean_linker_0, # of connection points: 2
#     Edge 33, Type (0, 1), BuildingBlock: ZUJKAS_clean_linker_0, # of connection points: 2
#     Edge 34, Type (0, 1), BuildingBlock: ZUJKAS_clean_linker_0, # of connection points: 2
#     Edge 35, Type (0, 1), BuildingBlock: ZUJKAS_clean_linker_0, # of connection points: 2
#     Edge 36, Type (0, 1), BuildingBlock: ZUJKAS_clean_linker_0, # of connection points: 2
#     Edge 37, Type (0, 1), BuildingBlock: ZUJKAS_clean_linker_0, # of connection points: 2
#     Edge 38, Type (0, 1), BuildingBlock: ZUJKAS_clean_linker_0, # of connection points: 2
#     Edge 39, Type (0, 1), BuildingBlock: ZUJKAS_clean_linker_0, # of connection points: 2
#     Edge 40, Type (0, 1), BuildingBlock: ZUJKAS_clean_linker_0, # of connection points: 2
#     Edge 41, Type (0, 1), BuildingBlock: ZUJKAS_clean_linker_0, # of connection points: 2
#     Edge 42, Type (0, 1), BuildingBlock: ZUJKAS_clean_linker_0, # of connection points: 2
#     Edge 43, Type (0, 1), BuildingBlock: ZUJKAS_clean_linker_0, # of connection points: 2
#     Edge 44, Type (0, 1), BuildingBlock: ZUJKAS_clean_linker_0, # of connection points: 2
#     Edge 45, Type (0, 1), BuildingBlock: ZUJKAS_clean_linker_0, # of connection points: 2
#     Edge 46, Type (0, 1), BuildingBlock: ZUJKAS_clean_linker_0, # of connection points: 2
#     Edge 47, Type (0, 1), BuildingBlock: ZUJKAS_clean_linker_0, # of connection points: 2
# Relax obj value: 0.002
# Max RMSD: 0.009
# Mean RMSD: 0.008
data_MOF--net-ssb--node1-NAWXER_clean_sbu_0--node2-NAWXER_clean_sbu_0--edge1-ZUJKAS_clean_linker_0
_symmetry_space_group_name_H-M    P1
_symmetry_Int_Tables_number       1
_symmetry_cell_setting            triclinic
loop_
_symmetry_equiv_pos_as_xyz
'x, y, z'
_cell_length_a     57.789099
_cell_length_b     57.75408
_cell_length_c     49.555125
_cell_angle_alpha  90.264593
_cell_angle_beta   89.74509
_cell_angle_gamma 89.911443
loop_
_atom_site_label
_atom_site_type_symbol
_atom_site_fract_x
_atom_site_fract_y
_atom_site_fract_z
_atom_type_partial_charge
C0 C 0.23964 0.28209 0.29216 0.0
C1 C 0.30705 0.25679 0.23865 0.0
O2 O 0.23466 0.26853 0.27247 0.0
Zn3 Zn 0.25194 0.2496 0.24099 0.0
O4 O 0.26063 0.28768 0.2963 0.0
Zn5 Zn 0.27405 0.27038 0.26611 0.0
O6 O 0.26012 0.28769 0.23179 0.0
O7 O 0.23911 0.26293 0.20829 0.0
O8 O 0.30727 0.27113 0.25824 0.0
O9 O 0.28781 0.24799 0.23105 0.0
O10 O 0.24554 0.21765 0.25099 0.0
O11 O 0.26893 0.23558 0.27926 0.0
C12 C 0.24742 0.28316 0.2113 0.0
C13 C 0.25788 0.21732 0.27221 0.0
C14 C 0.74421 0.24284 0.22044 0.0
C15 C 0.81953 0.24022 0.26496 0.0
O16 O 0.74525 0.2557 0.24158 0.0
Zn17 Zn 0.76988 0.26459 0.27231 0.0
O18 O 0.76157 0.23044 0.21385 0.0
Zn19 Zn 0.78192 0.24047 0.24251 0.0
O20 O 0.76688 0.22514 0.27751 0.0
O21 O 0.75618 0.25296 0.30555 0.0
O22 O 0.81345 0.22869 0.24425 0.0
O23 O 0.80505 0.25392 0.27645 0.0
O24 O 0.77315 0.29766 0.26666 0.0
O25 O 0.78618 0.27641 0.23266 0.0
C26 C 0.75804 0.23149 0.30011 0.0
C27 C 0.7821 0.29635 0.24318 0.0
C28 C 0.74683 0.71856 0.24627 0.0
C29 C 0.7325 0.78481 0.30578 0.0
O30 O 0.7355 0.71919 0.26827 0.0
Zn31 Zn 0.74116 0.75126 0.2777 0.0
O32 O 0.75804 0.73661 0.23877 0.0
Zn33 Zn 0.76334 0.77143 0.25334 0.0
O34 O 0.79586 0.77345 0.26199 0.0
O35 O 0.77648 0.75258 0.29146 0.0
O36 O 0.74694 0.78937 0.28677 0.0
O37 O 0.72455 0.76439 0.30807 0.0
O38 O 0.7249 0.76966 0.24498 0.0
O39 O 0.75186 0.78937 0.22335 0.0
C40 C 0.79554 0.76182 0.28366 0.0
C41 C 0.73075 0.78357 0.22602 0.0
C42 C 0.22591 0.71724 0.20987 0.0
C43 C 0.23857 0.78305 0.27039 0.0
O44 O 0.21778 0.73762 0.20794 0.0
Zn45 Zn 0.23294 0.75043 0.23929 0.0
O46 O 0.23964 0.71239 0.22935 0.0
Zn47 Zn 0.25479 0.72993 0.26354 0.0
O48 O 0.24283 0.71222 0.29338 0.0
O49 O 0.21612 0.73214 0.27179 0.0
O50 O 0.24975 0.76494 0.27774 0.0
O51 O 0.22687 0.78241 0.24875 0.0
O52 O 0.2688 0.75011 0.22712 0.0
O53 O 0.28749 0.72803 0.25593 0.0
C54 C 0.2218 0.71827 0.29083 0.0
C55 C 0.28772 0.74076 0.2351 0.0
C56 C 0.2935 0.78506 0.79616 0.0
C57 C 0.22827 0.77103 0.73603 0.0
O58 O 0.27302 0.79297 0.79808 0.0
Zn59 Zn 0.26063 0.77725 0.76691 0.0
O60 O 0.29865 0.77112 0.77679 0.0
Zn61 Zn 0.28147 0.75533 0.74276 0.0
O62 O 0.29923 0.76713 0.71275 0.0
O63 O 0.27886 0.79389 0.73417 0.0
O64 O 0.2465 0.75993 0.72861 0.0
O65 O 0.22869 0.78292 0.75765 0.0
O66 O 0.26117 0.74151 0.77933 0.0
O67 O 0.28358 0.72269 0.75057 0.0
C68 C 0.29289 0.78813 0.71512 0.0
C69 C 0.27071 0.72256 0.77141 0.0
C70 C 0.2558 0.19159 0.75251 0.0
C71 C 0.23727 0.26278 0.80222 0.0
O72 O 0.24377 0.19359 0.77393 0.0
Zn73 Zn 0.24762 0.2268 0.77932 0.0
O74 O 0.26613 0.20942 0.74302 0.0
Zn75 Zn 0.26886 0.24558 0.75187 0.0
O76 O 0.30124 0.25032 0.76009 0.0
O77 O 0.2827 0.23176 0.79239 0.0
O78 O 0.25139 0.26594 0.78251 0.0
O79 O 0.23035 0.24239 0.8076 0.0
O80 O 0.23051 0.24029 0.74449 0.0
O81 O 0.25609 0.25843 0.71894 0.0
C82 C 0.30128 0.24112 0.78334 0.0
C83 C 0.23541 0.25177 0.72316 0.0
C84 C 0.72802 0.23791 0.70809 0.0
C85 C 0.74182 0.30433 0.76739 0.0
O86 O 0.71888 0.25791 0.70666 0.0
Zn87 Zn 0.73613 0.27184 0.73594 0.0
O88 O 0.74374 0.23408 0.72574 0.0
Zn89 Zn 0.76103 0.25259 0.75773 0.0
O90 O 0.75223 0.23394 0.78872 0.0
O91 O 0.72306 0.25224 0.76964 0.0
O92 O 0.75478 0.28698 0.77307 0.0
O93 O 0.72865 0.30321 0.74696 0.0
O94 O 0.77073 0.27366 0.71955 0.0
O95 O 0.79306 0.25286 0.74596 0.0
C96 C 0.73071 0.23861 0.78795 0.0
C97 C 0.79079 0.26551 0.72524 0.0
C98 C 0.80344 0.75493 0.74891 0.0
C99 C 0.73489 0.77181 0.8039 0.0
O100 O 0.78476 0.74583 0.73995 0.0
Zn101 Zn 0.74864 0.74488 0.74938 0.0
O102 O 0.80282 0.76785 0.76979 0.0
Zn103 Zn 0.76983 0.76463 0.77669 0.0
O104 O 0.76726 0.72853 0.78516 0.0
O105 O 0.74381 0.71192 0.75577 0.0
O106 O 0.75549 0.77831 0.80866 0.0
O107 O 0.7306 0.75983 0.7827 0.0
O108 O 0.73505 0.76038 0.71841 0.0
O109 O 0.75562 0.78385 0.74401 0.0
C110 C 0.75706 0.71041 0.77615 0.0
C111 C 0.74299 0.78052 0.72316 0.0
C112 C 0.98002 0.27829 0.5353 0.0
C113 C 0.04599 0.28513 0.47267 0.0
O114 O 0.98822 0.29668 0.52501 0.0
Zn115 Zn 0.01243 0.28246 0.50298 0.0
O116 O 0.989 0.2587 0.5288 0.0
Zn117 Zn 0.01647 0.24581 0.50349 0.0
O118 O 0.03692 0.23108 0.52882 0.0
O119 O 0.03601 0.2692 0.5327 0.0
O120 O 0.04125 0.26426 0.47943 0.0
O121 O 0.03322 0.3016 0.48122 0.0
O122 O 0.99357 0.26411 0.47244 0.0
O123 O 1.00069 0.22683 0.4771 0.0
C124 C 0.04398 0.24952 0.54022 0.0
C125 C 0.99063 0.24312 0.46461 0.0
C126 C 0.6899 0.03852 0.54694 0.0
C127 C 0.69229 0.97981 0.47548 0.0
O128 O 0.71042 0.03167 0.54105 0.0
Zn129 Zn 0.72715 0.00828 0.5137 0.0
O130 O 0.67271 0.02975 0.53467 0.0
Zn131 Zn 0.6903 0.00898 0.5113 0.0
O132 O 0.70428 0.98378 0.53854 0.0
O133 O 0.74233 0.98651 0.53748 0.0
O134 O 0.67433 0.98912 0.48578 0.0
O135 O 0.71238 0.98573 0.48395 0.0
O136 O 0.74555 0.02943 0.4923 0.0
O137 O 0.70799 0.03326 0.48574 0.0
C138 C 0.72417 0.97677 0.5465 0.0
C139 C 0.72882 0.03954 0.48059 0.0
C140 C 0.9815 0.73071 0.55045 0.0
C141 C 0.04073 0.71936 0.4812 0.0
O142 O 0.98879 0.74979 0.5404 0.0
Zn143 Zn 0.0126 0.76099 0.50986 0.0
O144 O 0.98906 0.71159 0.54112 0.0
Zn145 Zn 0.01019 0.72445 0.51484 0.0
O146 O 0.03495 0.74172 0.54023 0.0
O147 O 0.03422 0.7791 0.5312 0.0
O148 O 0.02978 0.7038 0.49403 0.0
O149 O 0.03575 0.74075 0.48531 0.0
O150 O 0.99279 0.77617 0.48364 0.0
O151 O 0.98742 0.73844 0.485 0.0
C152 C 0.04246 0.76228 0.54463 0.0
C153 C 0.98239 0.75824 0.475 0.0
C154 C 0.24921 0.02404 0.53966 0.0
C155 C 0.2449 0.96862 0.46433 0.0
O156 O 0.26877 0.02046 0.52803 0.0
Zn157 Zn 0.28252 1.00029 0.49518 0.0
O158 O 0.2313 0.01381 0.53078 0.0
Zn159 Zn 0.24618 0.99664 0.50157 0.0
O160 O 0.26763 0.97269 0.52298 0.0
O161 O 0.30421 0.97999 0.51338 0.0
O162 O 0.2282 0.97574 0.47902 0.0
O163 O 0.26532 0.97649 0.46851 0.0
O164 O 0.29396 0.02344 0.47035 0.0
O165 O 0.25587 0.02297 0.47332 0.0
C166 C 0.28917 0.96799 0.52585 0.0
C167 C 0.27444 0.03137 0.46304 0.0
C168 C 0.48132 0.77042 0.05589 0.0
C169 C 0.53975 0.77576 0.98457 0.0
O170 O 0.48573 0.79138 0.04913 0.0
Zn171 Zn 0.50758 0.80937 0.02086 0.0
O172 O 0.49187 0.75391 0.04404 0.0
Zn173 Zn 0.51026 0.77257 0.01983 0.0
O174 O 0.53361 0.78975 0.04655 0.0
O175 O 0.52776 0.82744 0.04413 0.0
O176 O 0.53167 0.7575 0.99529 0.0
O177 O 0.53201 0.7956 0.99209 0.0
O178 O 0.48527 0.82499 0.99816 0.0
O179 O 0.48466 0.78698 0.9936 0.0
C180 C 0.53883 0.81039 0.0539 0.0
C181 C 0.47674 0.80697 0.98724 0.0
C182 C 0.20723 0.53216 0.01824 0.0
C183 C 0.20379 0.46953 0.95159 0.0
O184 O 0.22725 0.52455 0.01121 0.0
Zn185 Zn 0.24166 0.49893 0.98439 0.0
O186 O 0.18922 0.52319 0.00792 0.0
Zn187 Zn 0.20491 0.50097 0.98478 0.0
O188 O 0.21957 0.47727 0.01332 0.0
O189 O 0.25752 0.4779 0.00844 0.0
O190 O 0.18679 0.48009 0.96245 0.0
O191 O 0.2245 0.47523 0.95791 0.0
O192 O 0.2596 0.51761 0.95977 0.0
O193 O 0.22197 0.52312 0.95592 0.0
C194 C 0.23964 0.46988 0.02012 0.0
C195 C 0.24275 0.5279 0.94855 0.0
C196 C 0.54851 0.21329 0.97496 0.0
C197 C 0.48841 0.22173 0.0449 0.0
O198 O 0.54291 0.23427 0.98052 0.0
Zn199 Zn 0.51988 0.2533 1.0063 0.0
O200 O 0.53809 0.19676 0.98682 0.0
Zn201 Zn 0.51759 0.21612 0.00885 0.0
O202 O 0.49599 0.23142 0.97902 0.0
O203 O 0.4998 0.26942 0.98093 0.0
O204 O 0.49553 0.2028 0.03452 0.0
O205 O 0.49623 0.24095 0.0359 0.0
O206 O 0.54205 0.26998 0.02871 0.0
O207 O 0.54227 0.23214 0.03491 0.0
C208 C 0.49061 0.25158 0.97034 0.0
C209 C 0.55018 0.25228 0.04068 0.0
C210 C 0.73958 0.53539 0.04912 0.0
C211 C 0.73869 0.4737 0.98027 0.0
O212 O 0.75971 0.52958 0.04048 0.0
Zn213 Zn 0.77506 0.50593 0.01241 0.0
O214 O 0.72185 0.52537 0.03943 0.0
Zn215 Zn 0.73811 0.50441 0.01465 0.0
O216 O 0.75619 0.48174 0.04159 0.0
O217 O 0.79377 0.48705 0.03608 0.0
O218 O 0.72117 0.48274 0.99192 0.0
O219 O 0.75906 0.48072 0.98645 0.0
O220 O 0.78983 0.52635 0.98653 0.0
O221 O 0.75171 0.5273 0.98475 0.0
C222 C 0.77713 0.47688 0.04798 0.0
C223 C 0.77141 0.53406 0.97584 0.0
H224 H 0.24217 0.29321 0.34607 0.0
H225 H 0.20946 0.29886 0.37733 0.0
H226 H 0.16197 0.29423 0.31065 0.0
H227 H 0.19432 0.28778 0.27967 0.0
H228 H 0.17218 0.32914 0.38309 0.0
H229 H 0.14167 0.2408 0.35756 0.0
H230 H 0.16955 0.25147 0.34698 0.0
H231 H 0.14387 0.25924 0.32865 0.0
C232 C 0.22477 0.29379 0.33809 0.0
C233 C 0.22077 0.28969 0.31051 0.0
C234 C 0.20609 0.297 0.35594 0.0
C235 C 0.18321 0.29636 0.34642 0.0
C236 C 0.1794 0.29413 0.31859 0.0
H237 H 0.05597 0.3229 0.44071 0.0
H238 H 0.08952 0.32762 0.41053 0.0
C239 C 0.19794 0.29055 0.30088 0.0
C240 C 0.16328 0.29619 0.36555 0.0
H241 H 0.11665 0.26376 0.38446 0.0
C242 C 0.16004 0.31484 0.38349 0.0
C243 C 0.14763 0.27735 0.36635 0.0
C244 C 0.15094 0.25598 0.34906 0.0
C245 C 0.14145 0.31524 0.40201 0.0
C246 C 0.12543 0.29669 0.40218 0.0
C247 C 0.12877 0.27809 0.38423 0.0
C248 C 0.10578 0.29523 0.42169 0.0
C249 C 0.13954 0.33516 0.42167 0.0
C250 C 0.10352 0.27542 0.43777 0.0
C251 C 0.08425 0.27249 0.45442 0.0
C252 C 0.06674 0.2894 0.45569 0.0
C253 C 0.06922 0.30962 0.44023 0.0
C254 C 0.08848 0.3124 0.42314 0.0
H255 H 0.15622 0.34454 0.42376 0.0
H256 H 0.12643 0.34764 0.41426 0.0
H257 H 0.13398 0.32908 0.44191 0.0
H258 H 0.11659 0.26195 0.43713 0.0
H259 H 0.08305 0.25682 0.46627 0.0
H260 H 0.7535 0.2362 0.35511 0.0
H261 H 0.74926 0.2049 0.38815 0.0
H262 H 0.74449 0.1551 0.3233 0.0
H263 H 0.74932 0.186 0.2904 0.0
H264 H 0.71655 0.17235 0.39835 0.0
H265 H 0.79766 0.1292 0.36622 0.0
H266 H 0.78993 0.15791 0.35522 0.0
H267 H 0.77807 0.13281 0.3386 0.0
C268 C 0.75129 0.2186 0.34794 0.0
C269 C 0.75202 0.21353 0.32017 0.0
C270 C 0.74896 0.20073 0.36682 0.0
C271 C 0.74727 0.17757 0.3582 0.0
C272 C 0.74657 0.17272 0.33046 0.0
H273 H 0.69829 0.05862 0.44532 0.0
H274 H 0.70372 0.09266 0.41708 0.0
C275 C 0.74913 0.19045 0.31166 0.0
C276 C 0.74647 0.15834 0.378 0.0
H277 H 0.77195 0.10671 0.39358 0.0
C278 C 0.72878 0.1581 0.39748 0.0
C279 C 0.76278 0.13999 0.37733 0.0
C280 C 0.78332 0.14008 0.35841 0.0
C281 C 0.72637 0.13955 0.41554 0.0
C282 C 0.7417 0.12043 0.41356 0.0
C283 C 0.75996 0.12115 0.39483 0.0
C284 C 0.73877 0.09929 0.43025 0.0
C285 C 0.70753 0.14078 0.43668 0.0
C286 C 0.75707 0.09089 0.44606 0.0
C287 C 0.75416 0.07106 0.46188 0.0
C288 C 0.73287 0.05931 0.46222 0.0
C289 C 0.71483 0.06741 0.44578 0.0
C290 C 0.71783 0.08703 0.4298 0.0
H291 H 0.70271 0.15901 0.44134 0.0
H292 H 0.69185 0.13193 0.42896 0.0
H293 H 0.71291 0.13222 0.45566 0.0
H294 H 0.77348 0.09991 0.44651 0.0
H295 H 0.76838 0.06528 0.47434 0.0
H296 H 0.8385 0.78053 0.27442 0.0
H297 H 0.87172 0.78083 0.30495 0.0
H298 H 0.83309 0.74061 0.36267 0.0
H299 H 0.79978 0.74035 0.33248 0.0
H300 H 0.85446 0.7801 0.38491 0.0
H301 H 0.91641 0.72768 0.32395 0.0
H302 H 0.90352 0.75177 0.30675 0.0
H303 H 0.88571 0.72801 0.31734 0.0
C304 C 0.83715 0.7715 0.29347 0.0
C305 C 0.81644 0.76037 0.30094 0.0
C306 C 0.85619 0.77164 0.31087 0.0
C307 C 0.85495 0.76059 0.33601 0.0
C308 C 0.83444 0.74922 0.34335 0.0
H309 H 0.9594 0.72266 0.45061 0.0
H310 H 0.92924 0.72485 0.41644 0.0
C311 C 0.81543 0.74902 0.32599 0.0
C312 C 0.87462 0.76159 0.35521 0.0
H313 H 0.93068 0.74447 0.36419 0.0
C314 C 0.87116 0.77239 0.38036 0.0
C315 C 0.89633 0.75139 0.34929 0.0
C316 C 0.90078 0.73887 0.32298 0.0
C317 C 0.88878 0.77317 0.3998 0.0
C318 C 0.91055 0.7631 0.39382 0.0
C319 C 0.91405 0.75237 0.36863 0.0
C320 C 0.92941 0.76222 0.41409 0.0
C321 C 0.88376 0.78416 0.42689 0.0
C322 C 0.93979 0.78254 0.42394 0.0
C323 C 0.95714 0.78138 0.44359 0.0
C324 C 0.96443 0.75985 0.45371 0.0
C325 C 0.95419 0.73956 0.44342 0.0
C326 C 0.93696 0.74074 0.42379 0.0
H327 H 0.86492 0.78688 0.43022 0.0
H328 H 0.89059 0.77327 0.44347 0.0
H329 H 0.89242 0.80126 0.428 0.0
H330 H 0.93446 0.7993 0.41644 0.0
H331 H 0.96471 0.79732 0.45096 0.0
H332 H 0.21332 0.82303 0.26426 0.0
H333 H 0.21118 0.85612 0.29528 0.0
H334 H 0.26094 0.82339 0.34734 0.0
H335 H 0.26294 0.79018 0.31678 0.0
H336 H 0.22267 0.83995 0.37502 0.0
H337 H 0.25875 0.9074 0.30723 0.0
H338 H 0.23446 0.89173 0.29397 0.0
H339 H 0.26127 0.87685 0.29993 0.0
C340 C 0.22399 0.82297 0.28217 0.0
C341 C 0.23835 0.80394 0.28797 0.0
C342 C 0.22278 0.84195 0.29985 0.0
C343 C 0.23605 0.84234 0.32353 0.0
C344 C 0.25055 0.82348 0.32919 0.0
H345 H 0.2775 0.95059 0.43034 0.0
H346 H 0.27271 0.92078 0.39595 0.0
C347 C 0.25172 0.80452 0.31162 0.0
C348 C 0.23453 0.862 0.34291 0.0
H349 H 0.24562 0.91978 0.35011 0.0
C350 C 0.22756 0.85745 0.36956 0.0
C351 C 0.24103 0.88478 0.33577 0.0
C352 C 0.24949 0.89056 0.30775 0.0
C353 C 0.22731 0.87493 0.38937 0.0
C354 C 0.23383 0.89771 0.38224 0.0
C355 C 0.24042 0.90235 0.35548 0.0
C356 C 0.23598 0.91647 0.40271 0.0
C357 C 0.22098 0.86867 0.418 0.0
C358 C 0.21681 0.92424 0.41781 0.0
C359 C 0.2195 0.94135 0.43774 0.0
C360 C 0.24139 0.95105 0.44277 0.0
C361 C 0.26038 0.94351 0.42715 0.0
C362 C 0.25769 0.92646 0.40736 0.0
H363 H 0.22107 0.84964 0.42119 0.0
H364 H 0.23315 0.87677 0.43251 0.0
H365 H 0.20333 0.8752 0.42261 0.0
H366 H 0.1998 0.91704 0.41424 0.0
H367 H 0.20449 0.94685 0.44928 0.0
H368 H 0.1878 0.7954 0.7429 0.0
H369 H 0.15481 0.7971 0.7121 0.0
H370 H 0.18878 0.7485 0.65874 0.0
H371 H 0.22189 0.74692 0.68911 0.0
H372 H 0.17133 0.78715 0.63221 0.0
H373 H 0.10494 0.74789 0.69935 0.0
H374 H 0.12006 0.77233 0.71325 0.0
H375 H 0.13554 0.74598 0.70618 0.0
C376 C 0.18816 0.7849 0.72474 0.0
C377 C 0.20749 0.77097 0.71854 0.0
C378 C 0.16925 0.78585 0.70719 0.0
C379 C 0.16925 0.77278 0.68323 0.0
C380 C 0.18842 0.75874 0.67713 0.0
H381 H 0.06281 0.72949 0.57596 0.0
H382 H 0.09283 0.73465 0.60973 0.0
C383 C 0.20731 0.75779 0.69459 0.0
C384 C 0.14962 0.77402 0.66404 0.0
H385 H 0.09232 0.7611 0.65689 0.0
C386 C 0.154 0.7816 0.63762 0.0
C387 C 0.12709 0.76665 0.67115 0.0
C388 C 0.12155 0.75756 0.69894 0.0
C389 C 0.13656 0.78162 0.61796 0.0
C390 C 0.11403 0.77418 0.62503 0.0
C391 C 0.10956 0.76699 0.65159 0.0
C392 C 0.09542 0.77173 0.60466 0.0
C393 C 0.14259 0.78872 0.58952 0.0
C394 C 0.08672 0.79094 0.59063 0.0
C395 C 0.06947 0.78805 0.57108 0.0
C396 C 0.0606 0.76589 0.56534 0.0
C397 C 0.06923 0.74681 0.57973 0.0
C398 C 0.08639 0.74971 0.59916 0.0
H399 H 0.1616 0.78959 0.58621 0.0
H400 H 0.13511 0.77642 0.57466 0.0
H401 H 0.13523 0.80612 0.58553 0.0
H402 H 0.09321 0.80815 0.59486 0.0
H403 H 0.06312 0.80312 0.56048 0.0
H404 H 0.28597 0.17914 0.71258 0.0
H405 H 0.28257 0.14667 0.68104 0.0
H406 H 0.2219 0.12279 0.72336 0.0
H407 H 0.22524 0.15527 0.75532 0.0
H408 H 0.27763 0.09449 0.69267 0.0
H409 H 0.20335 0.13665 0.6408 0.0
H410 H 0.22362 0.15309 0.66083 0.0
H411 H 0.20294 0.13468 0.67709 0.0
C412 C 0.27211 0.16678 0.71553 0.0
C413 C 0.25583 0.16984 0.73645 0.0
C414 C 0.2702 0.14824 0.69745 0.0
C415 C 0.25185 0.13252 0.69971 0.0
C416 C 0.2361 0.13487 0.72121 0.0
H417 H 0.21244 0.03162 0.57419 0.0
H418 H 0.21178 0.05604 0.61489 0.0
C419 C 0.23814 0.15333 0.73955 0.0
C420 C 0.24873 0.11452 0.6786 0.0
H421 H 0.21805 0.10244 0.62148 0.0
C422 C 0.26446 0.09604 0.67725 0.0
C423 C 0.23146 0.11656 0.65863 0.0
C424 C 0.21435 0.13632 0.65913 0.0
C425 C 0.26363 0.07974 0.65613 0.0
C426 C 0.24706 0.08239 0.63536 0.0
C427 C 0.2308 0.10044 0.63729 0.0
C428 C 0.24725 0.06752 0.61073 0.0
C429 C 0.28055 0.05981 0.65633 0.0
C430 C 0.26717 0.06628 0.59449 0.0
C431 C 0.26762 0.05234 0.57139 0.0
C432 C 0.24804 0.0395 0.56369 0.0
C433 C 0.22784 0.04123 0.57955 0.0
C434 C 0.22745 0.05515 0.60284 0.0
H435 H 0.28633 0.05584 0.67716 0.0
H436 H 0.27288 0.04394 0.64737 0.0
H437 H 0.2961 0.06456 0.64437 0.0
H438 H 0.28243 0.07621 0.59963 0.0
H439 H 0.28341 0.05166 0.55954 0.0
H440 H 0.83564 0.25035 0.73035 0.0
H441 H 0.86773 0.25566 0.69858 0.0
H442 H 0.82345 0.29581 0.64687 0.0
H443 H 0.79123 0.29042 0.67834 0.0
H444 H 0.84737 0.26167 0.61931 0.0
H445 H 0.90736 0.31277 0.68306 0.0
H446 H 0.89764 0.2864 0.69845 0.0
H447 H 0.87716 0.30905 0.6915 0.0
C448 C 0.83277 0.26053 0.71238 0.0
C449 C 0.8108 0.26997 0.70698 0.0
C450 C 0.8512 0.26366 0.69428 0.0
C451 C 0.84812 0.27639 0.67046 0.0
C452 C 0.82629 0.28602 0.66516 0.0
H453 H 0.9581 0.31656 0.5569 0.0
H454 H 0.92568 0.3172 0.58912 0.0
C455 C 0.80788 0.28293 0.68324 0.0
C456 C 0.86722 0.27856 0.65034 0.0
H457 H 0.92289 0.29738 0.64202 0.0
C458 C 0.86382 0.26961 0.62425 0.0
C459 C 0.88861 0.28917 0.65663 0.0
C460 C 0.89292 0.30011 0.68384 0.0
C461 C 0.8814 0.2704 0.60458 0.0
C462 C 0.90311 0.28016 0.6112 0.0
C463 C 0.90631 0.28973 0.63702 0.0
C464 C 0.92285 0.27993 0.5918 0.0
C465 C 0.87655 0.26085 0.57679 0.0
C466 C 0.93221 0.25881 0.58287 0.0
C467 C 0.95069 0.25838 0.56457 0.0
C468 C 0.96033 0.2791 0.55475 0.0
C469 C 0.95105 0.30029 0.56392 0.0
C470 C 0.93256 0.30069 0.58238 0.0
H471 H 0.85767 0.25973 0.57281 0.0
H472 H 0.88469 0.27172 0.56096 0.0
H473 H 0.88389 0.24313 0.57512 0.0
H474 H 0.92529 0.24258 0.5902 0.0
H475 H 0.95741 0.24173 0.55811 0.0
H476 H 0.75618 0.8254 0.72998 0.0
H477 H 0.75097 0.85767 0.69921 0.0
H478 H 0.71506 0.81302 0.64348 0.0
H479 H 0.72043 0.78022 0.67425 0.0
H480 H 0.74948 0.84092 0.61918 0.0
H481 H 0.69123 0.89342 0.68426 0.0
H482 H 0.71724 0.88454 0.70098 0.0
H483 H 0.69668 0.86308 0.69024 0.0
C484 C 0.747 0.82234 0.71129 0.0
C485 C 0.73863 0.80017 0.70466 0.0
C486 C 0.74396 0.84092 0.69376 0.0
C487 C 0.73234 0.83785 0.66925 0.0
C488 C 0.72396 0.81577 0.66242 0.0
H489 H 0.68841 0.95197 0.56786 0.0
H490 H 0.69043 0.91783 0.59653 0.0
C491 C 0.72697 0.79708 0.68004 0.0
C492 C 0.7297 0.8577 0.65059 0.0
H493 H 0.7086 0.91285 0.64693 0.0
C494 C 0.74038 0.85659 0.62512 0.0
C495 C 0.71766 0.87804 0.65829 0.0
C496 C 0.70485 0.87983 0.68483 0.0
C497 C 0.73985 0.87554 0.60742 0.0
C498 C 0.72866 0.89624 0.61562 0.0
C499 C 0.71746 0.89709 0.6408 0.0
C500 C 0.72781 0.91706 0.59816 0.0
C501 C 0.75107 0.87313 0.57999 0.0
C502 C 0.74819 0.92826 0.58988 0.0
C503 C 0.74713 0.94787 0.57338 0.0
C504 C 0.72563 0.95672 0.56504 0.0
C505 C 0.70528 0.94567 0.57385 0.0
C506 C 0.70637 0.9261 0.59025 0.0
H507 H 0.75343 0.85467 0.57416 0.0
H508 H 0.7406 0.88184 0.56427 0.0
H509 H 0.76839 0.88138 0.58043 0.0
H510 H 0.76493 0.92189 0.59624 0.0
H511 H 0.76312 0.956 0.56705 0.0
H512 H 0.81385 0.71673 0.71954 0.0
H513 H 0.84727 0.7104 0.69026 0.0
H514 H 0.87508 0.77662 0.71432 0.0
H515 H 0.84182 0.78269 0.74457 0.0
H516 H 0.85687 0.73619 0.64771 0.0
H517 H 0.93245 0.73689 0.71627 0.0
H518 H 0.90311 0.73417 0.72849 0.0
H519 H 0.91448 0.76212 0.71962 0.0
C520 C 0.8273 0.72978 0.71899 0.0
C521 C 0.82522 0.75027 0.73421 0.0
C522 C 0.84639 0.72612 0.70225 0.0
C523 C 0.86375 0.74296 0.70014 0.0
C524 C 0.86215 0.76315 0.71603 0.0
H525 H 0.96806 0.76846 0.57973 0.0
H526 H 0.9403 0.77008 0.61698 0.0
C527 C 0.84312 0.76667 0.73321 0.0
C528 C 0.88209 0.74019 0.67932 0.0
H529 H 0.94059 0.7393 0.669 0.0
C530 C 0.87517 0.73663 0.65246 0.0
C531 C 0.90597 0.74082 0.6855 0.0
C532 C 0.91449 0.74348 0.71407 0.0
C533 C 0.89142 0.73402 0.63161 0.0
C534 C 0.91521 0.73499 0.63774 0.0
C535 C 0.92226 0.73851 0.6645 0.0
C536 C 0.93291 0.73342 0.61624 0.0
C537 C 0.88314 0.73073 0.60301 0.0
C538 C 0.93796 0.71217 0.60368 0.0
C539 C 0.95389 0.71112 0.58235 0.0
C540 C 0.96484 0.73137 0.5732 0.0
C541 C 0.95983 0.75256 0.58612 0.0
C542 C 0.94408 0.75354 0.60752 0.0
H543 H 0.86409 0.73283 0.60125 0.0
H544 H 0.89174 0.74335 0.58944 0.0
H545 H 0.88786 0.71309 0.59589 0.0
H546 H 0.92942 0.69647 0.61024 0.0
H547 H 0.95742 0.69455 0.57286 0.0
H548 H 0.32013 0.78211 0.67 0.0
H549 H 0.32999 0.81122 0.63598 0.0
H550 H 0.29231 0.86289 0.68147 0.0
H551 H 0.28277 0.83423 0.71557 0.0
H552 H 0.29953 0.83426 0.60502 0.0
H553 H 0.35045 0.89803 0.66278 0.0
H554 H 0.34505 0.86911 0.67501 0.0
H555 H 0.32382 0.89166 0.67985 0.0
C556 C 0.3143 0.79977 0.67298 0.0
C557 C 0.30063 0.80583 0.69551 0.0
C558 C 0.31996 0.81638 0.65353 0.0
C559 C 0.31225 0.83934 0.65641 0.0
C560 C 0.29902 0.84547 0.67916 0.0
H561 H 0.26045 0.93823 0.55191 0.0
H562 H 0.27069 0.90592 0.58072 0.0
C563 C 0.29337 0.82895 0.69854 0.0
C564 C 0.3157 0.85643 0.63449 0.0
H565 H 0.3301 0.91296 0.62351 0.0
C566 C 0.30673 0.85128 0.60889 0.0
C567 C 0.32546 0.87853 0.6393 0.0
C568 C 0.33697 0.88456 0.66566 0.0
C569 C 0.30556 0.8682 0.58873 0.0
C570 C 0.31321 0.89094 0.59449 0.0
C571 C 0.32392 0.8956 0.61927 0.0
C572 C 0.30766 0.91053 0.57643 0.0
C573 C 0.29535 0.8618 0.56174 0.0
C574 C 0.3251 0.92432 0.56499 0.0
C575 C 0.31928 0.94305 0.5484 0.0
C576 C 0.29593 0.94838 0.54334 0.0
C577 C 0.27861 0.93464 0.55521 0.0
C578 C 0.28442 0.916 0.57158 0.0
H579 H 0.29754 0.84303 0.5574 0.0
H580 H 0.27653 0.86563 0.56202 0.0
H581 H 0.30346 0.87185 0.54516 0.0
H582 H 0.34315 0.9205 0.56876 0.0
H583 H 0.33301 0.95336 0.53965 0.0
H584 H 0.23916 0.25616 0.6682 0.0
H585 H 0.2072 0.25672 0.63571 0.0
H586 H 0.158 0.25732 0.70148 0.0
H587 H 0.18966 0.25594 0.73376 0.0
H588 H 0.14807 0.22423 0.66612 0.0
H589 H 0.16312 0.30657 0.61154 0.0
H590 H 0.18755 0.28734 0.61119 0.0
H591 H 0.1777 0.29965 0.64261 0.0
C592 C 0.22151 0.2569 0.67563 0.0
C593 C 0.21684 0.25593 0.70344 0.0
C594 C 0.20327 0.25727 0.65708 0.0
C595 C 0.18018 0.25717 0.66617 0.0
C596 C 0.17565 0.25728 0.69399 0.0
H597 H 0.05604 0.28359 0.57556 0.0
H598 H 0.089 0.28418 0.60618 0.0
C599 C 0.19376 0.25655 0.71242 0.0
C600 C 0.16058 0.25527 0.64705 0.0
H601 H 0.13413 0.28172 0.59401 0.0
C602 C 0.145 0.23684 0.65037 0.0
C603 C 0.15652 0.2718 0.62664 0.0
C604 C 0.17197 0.29258 0.62288 0.0
C605 C 0.12532 0.2346 0.63412 0.0
C606 C 0.12148 0.25086 0.61336 0.0
C607 C 0.13717 0.26919 0.60984 0.0
C608 C 0.10087 0.24972 0.59567 0.0
C609 C 0.10849 0.21528 0.63996 0.0
C610 C 0.09641 0.23004 0.57977 0.0
C611 C 0.0773 0.2295 0.56253 0.0
C612 C 0.06261 0.24883 0.56054 0.0
C613 C 0.06703 0.26842 0.57665 0.0
C614 C 0.08592 0.26883 0.59407 0.0
H615 H 0.11047 0.20861 0.66082 0.0
H616 H 0.09033 0.22111 0.6373 0.0
H617 H 0.11182 0.2007 0.6258 0.0
H618 H 0.10799 0.21529 0.5802 0.0
H619 H 0.07453 0.2143 0.55009 0.0
H620 H 0.69166 0.23746 0.67237 0.0
H621 H 0.67746 0.20431 0.64603 0.0
H622 H 0.73227 0.16187 0.67789 0.0
H623 H 0.74632 0.19452 0.70436 0.0
H624 H 0.69946 0.17734 0.60689 0.0
H625 H 0.67509 0.12331 0.69429 0.0
H626 H 0.68092 0.15392 0.69739 0.0
H627 H 0.70437 0.13335 0.69657 0.0
C628 C 0.70069 0.22106 0.67371 0.0
C629 C 0.72002 0.21861 0.69065 0.0
C630 C 0.69252 0.20215 0.65871 0.0
C631 C 0.70346 0.18048 0.66054 0.0
C632 C 0.72315 0.17824 0.67678 0.0
H633 H 0.72048 0.05236 0.58514 0.0
H634 H 0.71875 0.08717 0.61316 0.0
C635 C 0.73127 0.19702 0.69175 0.0
C636 C 0.69496 0.16019 0.64502 0.0
H637 H 0.68107 0.10305 0.65208 0.0
C638 C 0.6949 0.16123 0.61673 0.0
C639 C 0.68884 0.13923 0.65793 0.0
C640 C 0.68705 0.13742 0.68823 0.0
C641 C 0.69048 0.14142 0.60101 0.0
C642 C 0.68587 0.12015 0.61399 0.0
C643 C 0.68468 0.1194 0.64222 0.0
C644 C 0.68523 0.09808 0.59873 0.0
C645 C 0.69211 0.14294 0.57068 0.0
C646 C 0.66659 0.09237 0.5819 0.0
C647 C 0.66741 0.07226 0.56594 0.0
C648 C 0.68702 0.05779 0.56646 0.0
C649 C 0.70519 0.0632 0.58417 0.0
C650 C 0.70424 0.08307 0.60022 0.0
H651 H 0.6974 0.16044 0.56379 0.0
H652 H 0.7048 0.13005 0.5629 0.0
H653 H 0.67505 0.13877 0.56171 0.0
H654 H 0.6517 0.10373 0.58065 0.0
H655 H 0.65321 0.06859 0.5524 0.0
H656 H 0.84364 0.27215 0.29328 0.0
H657 H 0.87824 0.26591 0.32037 0.0
H658 H 0.88127 0.19485 0.29353 0.0
H659 H 0.84658 0.20113 0.26575 0.0
H660 H 0.87937 0.20539 0.35398 0.0
H661 H 0.94827 0.25244 0.29858 0.0
H662 H 0.92084 0.26714 0.30041 0.0
H663 H 0.92316 0.24033 0.28208 0.0
C664 C 0.85196 0.25532 0.29263 0.0
C665 C 0.84248 0.23712 0.2774 0.0
C666 C 0.87175 0.25181 0.30806 0.0
C667 C 0.88233 0.22998 0.3088 0.0
C668 C 0.8734 0.21188 0.29298 0.0
H669 H 0.98101 0.20105 0.44088 0.0
H670 H 0.95677 0.19383 0.40118 0.0
C671 C 0.85371 0.21551 0.27707 0.0
C672 C 0.90119 0.22599 0.32832 0.0
H673 H 0.95447 0.24629 0.34575 0.0
C674 C 0.89608 0.21377 0.352 0.0
C675 C 0.9228 0.2371 0.32562 0.0
C676 C 0.92927 0.24986 0.30021 0.0
C677 C 0.91142 0.21379 0.37393 0.0
C678 C 0.93256 0.226 0.37177 0.0
C679 C 0.93822 0.237 0.3474 0.0
C680 C 0.94776 0.22985 0.3954 0.0
C681 C 0.90419 0.20215 0.39983 0.0
C682 C 0.95102 0.25248 0.405 0.0
C683 C 0.96486 0.25666 0.42748 0.0
C684 C 0.97583 0.23828 0.44088 0.0
C685 C 0.9727 0.21558 0.43112 0.0
C686 C 0.95881 0.21141 0.4085 0.0
H687 H 0.88571 0.19688 0.3996 0.0
H688 H 0.91488 0.18641 0.40285 0.0
H689 H 0.90702 0.21387 0.41734 0.0
H690 H 0.94264 0.26696 0.39521 0.0
H691 H 0.96691 0.27437 0.43434 0.0
H692 H 0.75136 0.82774 0.31114 0.0
H693 H 0.73809 0.85957 0.33973 0.0
H694 H 0.68243 0.81706 0.36977 0.0
H695 H 0.69603 0.78474 0.34158 0.0
H696 H 0.69687 0.88222 0.33885 0.0
H697 H 0.71025 0.84153 0.43916 0.0
H698 H 0.72206 0.82932 0.40847 0.0
H699 H 0.69193 0.8257 0.41647 0.0
C700 C 0.73639 0.82503 0.32396 0.0
C701 C 0.7248 0.80364 0.32415 0.0
C702 C 0.72878 0.8433 0.34025 0.0
C703 C 0.70938 0.84068 0.35707 0.0
C704 C 0.69771 0.81935 0.35736 0.0
H705 H 0.65582 0.95049 0.46594 0.0
H706 H 0.65566 0.91649 0.43579 0.0
C707 C 0.70546 0.80092 0.34117 0.0
C708 C 0.70142 0.86059 0.37377 0.0
H709 H 0.69543 0.87953 0.43888 0.0
C710 C 0.69633 0.88154 0.36072 0.0
C711 C 0.70063 0.85969 0.40232 0.0
C712 C 0.70667 0.83794 0.41753 0.0
C713 C 0.69129 0.90175 0.37543 0.0
C714 C 0.69131 0.901 0.40388 0.0
C715 C 0.69531 0.87991 0.417 0.0
C716 C 0.69018 0.92241 0.42031 0.0
C717 C 0.68667 0.92399 0.36056 0.0
C718 C 0.70954 0.93695 0.42128 0.0
C719 C 0.70978 0.95609 0.43853 0.0
C720 C 0.69056 0.96119 0.45502 0.0
C721 C 0.67079 0.94708 0.4533 0.0
C722 C 0.6707 0.92765 0.43623 0.0
H723 H 0.68256 0.92083 0.33898 0.0
H724 H 0.67211 0.9336 0.37013 0.0
H725 H 0.70227 0.93514 0.36158 0.0
H726 H 0.72478 0.93306 0.40925 0.0
H727 H 0.72525 0.96664 0.43936 0.0
H728 H 0.22766 0.69208 0.33644 0.0
H729 H 0.19818 0.68219 0.3702 0.0
H730 H 0.14645 0.71744 0.32316 0.0
H731 H 0.17549 0.72703 0.28934 0.0
H732 H 0.17376 0.71332 0.39989 0.0
H733 H 0.11269 0.65857 0.34291 0.0
H734 H 0.14171 0.66437 0.33104 0.0
H735 H 0.11875 0.68486 0.32515 0.0
C736 C 0.20992 0.69735 0.33307 0.0
C737 C 0.20394 0.71039 0.31022 0.0
C738 C 0.1931 0.69167 0.35236 0.0
C739 C 0.17003 0.69872 0.34898 0.0
C740 C 0.16399 0.71126 0.32587 0.0
H741 H 0.06755 0.74909 0.45239 0.0
H742 H 0.09991 0.73988 0.42265 0.0
C743 C 0.18071 0.71694 0.30665 0.0
C744 C 0.15268 0.69541 0.37074 0.0
H745 H 0.09658 0.6793 0.38155 0.0
C746 C 0.15708 0.70539 0.39607 0.0
C747 C 0.13103 0.68477 0.36595 0.0
C748 C 0.12586 0.67232 0.33986 0.0
C749 C 0.13981 0.70657 0.41599 0.0
C750 C 0.11751 0.69786 0.41025 0.0
C751 C 0.11361 0.68628 0.38574 0.0
C752 C 0.09756 0.70283 0.42819 0.0
C753 C 0.14536 0.71785 0.4427 0.0
C754 C 0.08502 0.68495 0.44053 0.0
C755 C 0.06631 0.69015 0.45762 0.0
C756 C 0.05978 0.71332 0.46235 0.0
C757 C 0.07213 0.73107 0.44937 0.0
C758 C 0.09076 0.72586 0.43246 0.0
H759 H 0.16418 0.71694 0.4471 0.0
H760 H 0.14036 0.7364 0.44198 0.0
H761 H 0.13568 0.70956 0.45947 0.0
H762 H 0.0899 0.66704 0.43722 0.0
H763 H 0.0571 0.67609 0.46725 0.0
H764 H 0.23581 0.17529 0.26606 0.0
H765 H 0.23763 0.1419 0.29663 0.0
H766 H 0.28536 0.17891 0.34757 0.0
H767 H 0.28367 0.21209 0.31758 0.0
H768 H 0.27821 0.11556 0.31546 0.0
H769 H 0.23078 0.16046 0.39816 0.0
H770 H 0.2302 0.17036 0.36365 0.0
H771 H 0.25476 0.17648 0.38463 0.0
C772 C 0.24674 0.17626 0.28372 0.0
C773 C 0.25942 0.19645 0.28946 0.0
C774 C 0.24778 0.15719 0.30112 0.0
C775 C 0.26138 0.15813 0.32452 0.0
C776 C 0.27448 0.17799 0.32985 0.0
H777 H 0.30971 0.0527 0.43527 0.0
H778 H 0.30622 0.08258 0.40054 0.0
C779 C 0.2735 0.19694 0.31257 0.0
C780 C 0.26178 0.13866 0.34387 0.0
H781 H 0.24972 0.12527 0.40945 0.0
C782 C 0.27183 0.11755 0.33595 0.0
C783 C 0.25327 0.14131 0.37051 0.0
C784 C 0.24145 0.16329 0.37976 0.0
C785 C 0.27415 0.09918 0.35427 0.0
C786 C 0.26645 0.10218 0.38123 0.0
C787 C 0.25584 0.12309 0.38887 0.0
C788 C 0.26879 0.08375 0.4018 0.0
C789 C 0.28463 0.07668 0.3446 0.0
C790 C 0.24897 0.07492 0.41448 0.0
C791 C 0.25091 0.05804 0.43442 0.0
C792 C 0.27275 0.04969 0.44226 0.0
C793 C 0.29264 0.0587 0.42968 0.0
C794 C 0.29067 0.07564 0.40966 0.0
H795 H 0.28424 0.07517 0.32225 0.0
H796 H 0.30297 0.07583 0.35109 0.0
H797 H 0.27538 0.06164 0.3534 0.0
H798 H 0.23194 0.08105 0.40885 0.0
H799 H 0.23521 0.05152 0.44365 0.0
H800 H 0.68926 0.77522 0.79225 0.0
H801 H 0.65685 0.77764 0.8238 0.0
H802 H 0.70456 0.77955 0.89053 0.0
H803 H 0.73722 0.77802 0.85875 0.0
H804 H 0.64535 0.74655 0.85995 0.0
H805 H 0.66065 0.83009 0.91242 0.0
H806 H 0.67601 0.82193 0.88207 0.0
H807 H 0.6848 0.81061 0.91422 0.0
C808 C 0.69287 0.77662 0.81363 0.0
C809 C 0.71576 0.77649 0.82306 0.0
C810 C 0.67432 0.77792 0.83166 0.0
C811 C 0.67819 0.77888 0.85958 0.0
C812 C 0.70109 0.77933 0.86908 0.0
H813 H 0.56982 0.73985 0.97511 0.0
H814 H 0.60373 0.73982 0.9453 0.0
C815 C 0.71976 0.77842 0.85093 0.0
C816 C 0.65814 0.77783 0.87844 0.0
H817 H 0.63144 0.80586 0.93081 0.0
C818 C 0.64228 0.75958 0.8754 0.0
C819 C 0.65401 0.7949 0.89847 0.0
C820 C 0.66963 0.81561 0.90187 0.0
C821 C 0.62235 0.75802 0.89158 0.0
C822 C 0.61852 0.77476 0.91206 0.0
C823 C 0.63445 0.79293 0.91524 0.0
C824 C 0.5977 0.7743 0.92978 0.0
C825 C 0.60528 0.73885 0.88593 0.0
C826 C 0.58323 0.7938 0.9314 0.0
C827 C 0.56411 0.79399 0.94872 0.0
C828 C 0.55893 0.77461 0.96471 0.0
C829 C 0.57318 0.75492 0.96278 0.0
C830 C 0.59254 0.75486 0.94568 0.0
H831 H 0.60728 0.7319 0.86511 0.0
H832 H 0.60836 0.7244 0.90016 0.0
H833 H 0.58718 0.74495 0.88861 0.0
H834 H 0.58682 0.80899 0.91933 0.0
H835 H 0.55347 0.80943 0.94974 0.0
H836 H 0.28942 0.67958 0.76171 0.0
H837 H 0.28576 0.64487 0.78962 0.0
H838 H 0.2414 0.68214 0.84495 0.0
H839 H 0.24511 0.71693 0.81743 0.0
H840 H 0.27716 0.65794 0.87025 0.0
H841 H 0.22968 0.60166 0.7981 0.0
H842 H 0.25592 0.6142 0.78523 0.0
H843 H 0.2319 0.63261 0.79388 0.0
C844 C 0.27871 0.68034 0.77969 0.0
C845 C 0.26752 0.70106 0.78728 0.0
C846 C 0.27657 0.66045 0.79556 0.0
C847 C 0.26313 0.66086 0.81922 0.0
C848 C 0.25183 0.68143 0.82673 0.0
H849 H 0.21037 0.55203 0.92012 0.0
H850 H 0.21677 0.5834 0.88809 0.0
C851 C 0.25393 0.7013 0.81091 0.0
C852 C 0.26141 0.64016 0.83679 0.0
H853 H 0.2417 0.58445 0.83898 0.0
C854 C 0.26948 0.64184 0.86341 0.0
C855 C 0.25122 0.61925 0.82785 0.0
C856 C 0.24149 0.61676 0.79979 0.0
C857 C 0.26755 0.6232 0.88138 0.0
C858 C 0.25757 0.60221 0.87238 0.0
C859 C 0.24955 0.6005 0.84573 0.0
C860 C 0.2541 0.5823 0.8908 0.0
C861 C 0.27558 0.62637 0.9101 0.0
C862 C 0.273 0.57095 0.9026 0.0
C863 C 0.26941 0.55295 0.921 0.0
C864 C 0.24683 0.54596 0.92787 0.0
C865 C 0.22799 0.557 0.91541 0.0
C866 C 0.2316 0.57492 0.89703 0.0
H867 H 0.27818 0.64492 0.9153 0.0
H868 H 0.26291 0.61887 0.92451 0.0
H869 H 0.29233 0.61725 0.91279 0.0
H870 H 0.29053 0.57613 0.89773 0.0
H871 H 0.28431 0.54477 0.93011 0.0
H872 H 0.34601 0.25147 0.7687 0.0
H873 H 0.37989 0.25411 0.79822 0.0
H874 H 0.33691 0.23796 0.86698 0.0
H875 H 0.30339 0.23438 0.83762 0.0
H876 H 0.39019 0.28171 0.83967 0.0
H877 H 0.38727 0.19157 0.87649 0.0
H878 H 0.36983 0.20129 0.84867 0.0
H879 H 0.36053 0.20635 0.88296 0.0
C880 C 0.34387 0.24824 0.79008 0.0
C881 C 0.32207 0.24236 0.80074 0.0
C882 C 0.36322 0.24985 0.80695 0.0
C883 C 0.3611 0.24576 0.8348 0.0
C884 C 0.33921 0.24046 0.84549 0.0
H885 H 0.45898 0.28614 0.96082 0.0
H886 H 0.42833 0.28604 0.92666 0.0
C887 C 0.31999 0.2385 0.82864 0.0
C888 C 0.3816 0.24727 0.85282 0.0
H889 H 0.41077 0.21781 0.90158 0.0
C890 C 0.39485 0.26766 0.85304 0.0
C891 C 0.38796 0.22882 0.86999 0.0
C892 C 0.3758 0.2057 0.86933 0.0
C893 C 0.41395 0.27027 0.87032 0.0
C894 C 0.41954 0.25226 0.8885 0.0
C895 C 0.40646 0.23177 0.88791 0.0
C896 C 0.43912 0.25376 0.90793 0.0
C897 C 0.42818 0.29209 0.86844 0.0
C898 C 0.45526 0.23559 0.90916 0.0
C899 C 0.47224 0.23533 0.92907 0.0
C900 C 0.4738 0.25342 0.94802 0.0
C901 C 0.4583 0.2721 0.94627 0.0
C902 C 0.44087 0.27211 0.92662 0.0
H903 H 0.42637 0.30037 0.84837 0.0
H904 H 0.42201 0.30466 0.88388 0.0
H905 H 0.44679 0.28854 0.87204 0.0
H906 H 0.45441 0.22127 0.895 0.0
H907 H 0.48407 0.22076 0.92981 0.0
H908 H 0.70881 0.33849 0.77051 0.0
H909 H 0.70563 0.36935 0.80459 0.0
H910 H 0.76938 0.34647 0.84061 0.0
H911 H 0.77261 0.31551 0.80696 0.0
H912 H 0.70711 0.35965 0.86598 0.0
H913 H 0.77458 0.41965 0.82733 0.0
H914 H 0.75966 0.39928 0.80578 0.0
H915 H 0.78197 0.38936 0.828 0.0
C916 C 0.72232 0.34023 0.78545 0.0
C917 C 0.74099 0.32454 0.78598 0.0
C918 C 0.7204 0.35779 0.80497 0.0
C919 C 0.73731 0.36018 0.82502 0.0
C920 C 0.75623 0.34497 0.82518 0.0
H921 H 0.77204 0.44492 0.96048 0.0
H922 H 0.7693 0.4177 0.92294 0.0
C923 C 0.75803 0.32728 0.80593 0.0
C924 C 0.73491 0.37794 0.84656 0.0
H925 H 0.76001 0.42704 0.87125 0.0
C926 C 0.71844 0.37457 0.86707 0.0
C927 C 0.74981 0.39725 0.84788 0.0
C928 C 0.76744 0.40183 0.82602 0.0
C929 C 0.71715 0.38952 0.88953 0.0
C930 C 0.73238 0.40867 0.89114 0.0
C931 C 0.74836 0.41236 0.87011 0.0
C932 C 0.73311 0.42439 0.91504 0.0
C933 C 0.70023 0.38405 0.91188 0.0
C934 C 0.71358 0.43714 0.92343 0.0
C935 C 0.71502 0.45263 0.94528 0.0
C936 C 0.73613 0.4559 0.9588 0.0
C937 C 0.75552 0.44291 0.95049 0.0
C938 C 0.754 0.42734 0.92894 0.0
H939 H 0.69412 0.36583 0.91078 0.0
H940 H 0.70811 0.38703 0.93198 0.0
H941 H 0.6849 0.39552 0.91008 0.0
H942 H 0.69738 0.43557 0.91271 0.0
H943 H 0.69984 0.46254 0.95101 0.0
H944 H 0.73604 0.21976 0.17278 0.0
H945 H 0.70253 0.224 0.14306 0.0
H946 H 0.67228 0.27326 0.19862 0.0
H947 H 0.70533 0.26885 0.22857 0.0
H948 H 0.64091 0.24172 0.18108 0.0
H949 H 0.68865 0.27888 0.09421 0.0
H950 H 0.70001 0.25157 0.10523 0.0
H951 H 0.70124 0.27632 0.12735 0.0
C952 C 0.72221 0.2314 0.17873 0.0
C953 C 0.72343 0.244 0.20304 0.0
C954 C 0.70317 0.23398 0.1616 0.0
C955 C 0.68514 0.24932 0.16836 0.0
C956 C 0.68608 0.26147 0.19289 0.0
H957 H 0.5752 0.2909 0.05574 0.0
H958 H 0.60738 0.29247 0.08806 0.0
C959 C 0.70501 0.25888 0.21002 0.0
C960 C 0.66497 0.2524 0.15026 0.0
H961 H 0.64958 0.26749 0.0862 0.0
C962 C 0.6428 0.24751 0.1604 0.0
C963 C 0.66739 0.26042 0.12344 0.0
C964 C 0.69057 0.26734 0.11195 0.0
C965 C 0.62309 0.24963 0.14417 0.0
C966 C 0.62564 0.25643 0.11693 0.0
C967 C 0.64769 0.26214 0.10704 0.0
C968 C 0.60588 0.25604 0.09795 0.0
C969 C 0.59968 0.24449 0.15635 0.0
C970 C 0.5946 0.23507 0.09269 0.0
C971 C 0.57637 0.23413 0.07443 0.0
C972 C 0.56902 0.25414 0.06078 0.0
C973 C 0.58035 0.27523 0.06602 0.0
C974 C 0.59874 0.27613 0.0844 0.0
H975 H 0.59981 0.24662 0.17865 0.0
H976 H 0.58611 0.25595 0.14786 0.0
H977 H 0.59496 0.22628 0.1518 0.0
H978 H 0.60013 0.21927 0.10246 0.0
H979 H 0.56818 0.21755 0.07087 0.0
H980 H 0.7668 0.71299 0.19651 0.0
H981 H 0.7622 0.68063 0.1651 0.0
H982 H 0.7192 0.6453 0.22301 0.0
H983 H 0.7238 0.67762 0.25478 0.0
H984 H 0.75254 0.61654 0.19797 0.0
H985 H 0.7029 0.66643 0.12238 0.0
H986 H 0.72979 0.67976 0.13167 0.0
H987 H 0.70724 0.67661 0.1565 0.0
C988 C 0.75645 0.69831 0.20271 0.0
C989 C 0.74559 0.69799 0.22819 0.0
C990 C 0.75369 0.67988 0.1846 0.0
C991 C 0.73995 0.66076 0.19147 0.0
C992 C 0.72969 0.65999 0.21719 0.0
H993 H 0.70013 0.55477 0.0714 0.0
H994 H 0.69797 0.58418 0.1074 0.0
C995 C 0.73239 0.67847 0.23534 0.0
C996 C 0.73658 0.64153 0.17184 0.0
H997 H 0.71766 0.62968 0.10798 0.0
C998 C 0.74471 0.61936 0.1784 0.0
C999 C 0.72599 0.6451 0.14647 0.0
C1000 C 0.71576 0.6682 0.13887 0.0
C1001 C 0.74349 0.60094 0.15982 0.0
C1002 C 0.73411 0.60486 0.13389 0.0
C1003 C 0.72502 0.62675 0.12777 0.0
C1004 C 0.73506 0.58692 0.11231 0.0
C1005 C 0.75244 0.57747 0.16801 0.0
C1006 C 0.75657 0.57903 0.10284 0.0
C1007 C 0.75786 0.56243 0.08233 0.0
C1008 C 0.73764 0.5533 0.07066 0.0
C1009 C 0.71603 0.56137 0.07999 0.0
C1010 C 0.71476 0.57816 0.10054 0.0
H1011 H 0.75275 0.57557 0.19031 0.0
H1012 H 0.7417 0.56339 0.1593 0.0
H1013 H 0.77041 0.57532 0.16041 0.0
H1014 H 0.77245 0.58587 0.11121 0.0
H1015 H 0.77482 0.55674 0.07567 0.0
H1016 H 0.33055 0.72189 0.24449 0.0
H1017 H 0.36534 0.72531 0.21639 0.0
H1018 H 0.32854 0.76991 0.16174 0.0
H1019 H 0.29368 0.76644 0.18944 0.0
H1020 H 0.35245 0.73375 0.13602 0.0
H1021 H 0.4089 0.78117 0.20799 0.0
H1022 H 0.39613 0.75502 0.2207 0.0
H1023 H 0.37794 0.77919 0.21245 0.0
C1024 C 0.32991 0.73261 0.22663 0.0
C1025 C 0.30931 0.74392 0.21925 0.0
C1026 C 0.34985 0.7346 0.21065 0.0
C1027 C 0.34958 0.74802 0.18711 0.0
C1028 C 0.32913 0.75949 0.17985 0.0
H1029 H 0.45686 0.80207 0.08555 0.0
H1030 H 0.42595 0.79481 0.11811 0.0
C1031 C 0.30922 0.75752 0.19578 0.0
C1032 C 0.37027 0.74956 0.16938 0.0
H1033 H 0.42586 0.76946 0.16662 0.0
C1034 C 0.36855 0.74146 0.14272 0.0
C1035 C 0.39118 0.75976 0.17817 0.0
C1036 C 0.39372 0.76948 0.20631 0.0
C1037 C 0.38709 0.74348 0.12448 0.0
C1038 C 0.40804 0.75358 0.13328 0.0
C1039 C 0.40984 0.76152 0.16002 0.0
C1040 C 0.42769 0.75751 0.11451 0.0
C1041 C 0.38385 0.73549 0.09571 0.0
C1042 C 0.43923 0.7389 0.102 0.0
C1043 C 0.45696 0.74298 0.08325 0.0
C1044 C 0.46347 0.76577 0.07677 0.0
C1045 C 0.45224 0.78431 0.08993 0.0
C1046 C 0.43459 0.78021 0.10863 0.0
H1047 H 0.36532 0.7326 0.09083 0.0
H1048 H 0.39103 0.74836 0.08136 0.0
H1049 H 0.39322 0.71891 0.09257 0.0
H1050 H 0.43441 0.72124 0.10658 0.0
H1051 H 0.46532 0.72832 0.0736 0.0
H1052 H 0.24806 0.32953 0.21995 0.0
H1053 H 0.24552 0.36033 0.18661 0.0
H1054 H 0.23723 0.30934 0.12346 0.0
H1055 H 0.23876 0.27836 0.15713 0.0
H1056 H 0.274 0.36918 0.14711 0.0
H1057 H 0.18718 0.35369 0.10356 0.0
H1058 H 0.19685 0.33949 0.13383 0.0
H1059 H 0.20581 0.32889 0.10119 0.0
C1060 C 0.24532 0.32488 0.199 0.0
C1061 C 0.24353 0.30154 0.19114 0.0
C1062 C 0.24394 0.34251 0.17993 0.0
C1063 C 0.24102 0.33726 0.15248 0.0
C1064 C 0.23893 0.31392 0.14456 0.0
H1065 H 0.27555 0.43964 0.02814 0.0
H1066 H 0.27668 0.40699 0.05948 0.0
C1067 C 0.23988 0.29621 0.16379 0.0
C1068 C 0.24144 0.35628 0.13231 0.0
H1069 H 0.21096 0.38107 0.08109 0.0
C1070 C 0.26015 0.37181 0.13273 0.0
C1071 C 0.22331 0.35987 0.11368 0.0
C1072 C 0.20204 0.34475 0.11316 0.0
C1073 C 0.26115 0.3909 0.11531 0.0
C1074 C 0.24334 0.39415 0.09619 0.0
C1075 C 0.22471 0.37851 0.09561 0.0
C1076 C 0.24311 0.41412 0.07732 0.0
C1077 C 0.2809 0.40779 0.11832 0.0
C1078 C 0.22369 0.42873 0.07641 0.0
C1079 C 0.22283 0.44707 0.05817 0.0
C1080 C 0.24147 0.45137 0.04057 0.0
C1081 C 0.26107 0.43697 0.04171 0.0
C1082 C 0.26176 0.41834 0.0597 0.0
H1083 H 0.28891 0.40669 0.13862 0.0
H1084 H 0.29448 0.40363 0.10316 0.0
H1085 H 0.27504 0.42587 0.11507 0.0
H1086 H 0.20909 0.42588 0.08977 0.0
H1087 H 0.20748 0.45786 0.0578 0.0
H1088 H 0.34742 0.28167 0.23334 0.0
H1089 H 0.38003 0.27285 0.2029 0.0
H1090 H 0.34738 0.20862 0.18009 0.0
H1091 H 0.31468 0.2176 0.20959 0.0
H1092 H 0.4114 0.23706 0.19793 0.0
H1093 H 0.35491 0.23961 0.10783 0.0
H1094 H 0.34529 0.24943 0.14061 0.0
H1095 H 0.34546 0.21902 0.13249 0.0
C1096 C 0.34737 0.26558 0.22202 0.0
C1097 C 0.32834 0.2505 0.22354 0.0
C1098 C 0.36596 0.26057 0.20461 0.0
C1099 C 0.36583 0.24037 0.18863 0.0
C1100 C 0.34753 0.22465 0.19153 0.0
H1101 H 0.45943 0.18699 0.06257 0.0
H1102 H 0.43045 0.18955 0.09905 0.0
C1103 C 0.3289 0.22976 0.20855 0.0
C1104 C 0.38432 0.23598 0.16825 0.0
H1105 H 0.39332 0.2263 0.10086 0.0
C1106 C 0.40745 0.23474 0.17672 0.0
C1107 C 0.37917 0.23301 0.14049 0.0
C1108 C 0.3549 0.23556 0.12973 0.0
C1109 C 0.4255 0.23041 0.15822 0.0
C1110 C 0.42027 0.22731 0.13059 0.0
C1111 C 0.3972 0.22836 0.12214 0.0
C1112 C 0.43864 0.22495 0.10977 0.0
C1113 C 0.45005 0.22917 0.16828 0.0
C1114 C 0.45263 0.24401 0.1037 0.0
C1115 C 0.46887 0.2427 0.08283 0.0
C1116 C 0.47158 0.22224 0.06758 0.0
C1117 C 0.4578 0.20295 0.07398 0.0
C1118 C 0.44127 0.20439 0.09477 0.0
H1119 H 0.45076 0.22685 0.19051 0.0
H1120 H 0.45954 0.21469 0.15837 0.0
H1121 H 0.45913 0.24551 0.16319 0.0
H1122 H 0.45065 0.26012 0.11478 0.0
H1123 H 0.47924 0.25787 0.07857 0.0
H1124 H 0.78216 0.342 0.25965 0.0
H1125 H 0.78658 0.37633 0.23104 0.0
H1126 H 0.79455 0.33223 0.16108 0.0
H1127 H 0.79121 0.29819 0.18942 0.0
H1128 H 0.82362 0.36706 0.15813 0.0
H1129 H 0.73628 0.40112 0.18416 0.0
H1130 H 0.75549 0.39844 0.21231 0.0
H1131 H 0.74594 0.37291 0.19467 0.0
C1132 C 0.78505 0.33969 0.2382 0.0
C1133 C 0.7862 0.31737 0.22681 0.0
C1134 C 0.78741 0.35931 0.22183 0.0
C1135 C 0.79042 0.3569 0.19378 0.0
C1136 C 0.79223 0.3346 0.18262 0.0
H1137 H 0.74837 0.44254 0.06427 0.0
H1138 H 0.75408 0.41507 0.10081 0.0
C1139 C 0.79026 0.3151 0.19892 0.0
C1140 C 0.79092 0.37726 0.17549 0.0
H1141 H 0.75808 0.42227 0.15278 0.0
C1142 C 0.80937 0.37925 0.15706 0.0
C1143 C 0.77222 0.39306 0.17397 0.0
C1144 C 0.75126 0.39124 0.19214 0.0
C1145 C 0.80919 0.39589 0.13647 0.0
C1146 C 0.7904 0.41158 0.13484 0.0
C1147 C 0.77248 0.41025 0.15403 0.0
C1148 C 0.7878 0.42814 0.11214 0.0
C1149 C 0.82849 0.39561 0.11584 0.0
C1150 C 0.80492 0.44461 0.10608 0.0
C1151 C 0.80188 0.46009 0.08467 0.0
C1152 C 0.78141 0.45972 0.06945 0.0
C1153 C 0.7643 0.44331 0.07567 0.0
C1154 C 0.76752 0.42763 0.09664 0.0
H1155 H 0.83816 0.37897 0.11597 0.0
H1156 H 0.8217 0.39847 0.0952 0.0
H1157 H 0.84091 0.40967 0.12057 0.0
H1158 H 0.82046 0.44576 0.11812 0.0
H1159 H 0.81522 0.47276 0.08053 0.0
H1160 H 0.68456 0.7746 0.22772 0.0
H1161 H 0.65474 0.78795 0.19695 0.0
H1162 H 0.7057 0.82656 0.1521 0.0
H1163 H 0.73601 0.81296 0.18281 0.0
H1164 H 0.64022 0.83312 0.18316 0.0
H1165 H 0.67571 0.78408 0.09507 0.0
H1166 H 0.68517 0.77866 0.12911 0.0
H1167 H 0.69483 0.80407 0.11168 0.0
C1168 C 0.68954 0.78597 0.21138 0.0
C1169 C 0.71275 0.79254 0.2076 0.0
C1170 C 0.6724 0.79369 0.19388 0.0
C1171 C 0.67802 0.8081 0.17215 0.0
C1172 C 0.70106 0.81521 0.16858 0.0
H1173 H 0.56035 0.85115 0.06853 0.0
H1174 H 0.5953 0.85528 0.09634 0.0
C1175 C 0.71833 0.80745 0.18616 0.0
C1176 C 0.65963 0.81454 0.15283 0.0
H1177 H 0.63964 0.80194 0.08977 0.0
C1178 C 0.64023 0.82674 0.16254 0.0
C1179 C 0.65972 0.80606 0.12602 0.0
C1180 C 0.67986 0.79236 0.11474 0.0
C1181 C 0.62042 0.82963 0.14657 0.0
C1182 C 0.62016 0.82024 0.12021 0.0
C1183 C 0.64001 0.80918 0.11 0.0
C1184 C 0.59857 0.81862 0.10437 0.0
C1185 C 0.59938 0.84138 0.1585 0.0
C1186 C 0.58887 0.79674 0.0999 0.0
C1187 C 0.56911 0.79434 0.0842 0.0
C1188 C 0.55857 0.81379 0.07246 0.0
C1189 C 0.568 0.83585 0.0774 0.0
C1190 C 0.58794 0.83825 0.09324 0.0
H1191 H 0.60172 0.84584 0.18015 0.0
H1192 H 0.59577 0.85754 0.14725 0.0
H1193 H 0.58401 0.82999 0.15651 0.0
H1194 H 0.59676 0.78141 0.10844 0.0
H1195 H 0.56231 0.77708 0.08094 0.0
H1196 H 0.23958 0.672 0.20967 0.0
H1197 H 0.23122 0.64228 0.17599 0.0
H1198 H 0.19033 0.69116 0.13107 0.0
H1199 H 0.19881 0.72126 0.16467 0.0
H1200 H 0.18833 0.62444 0.15796 0.0
H1201 H 0.23821 0.66689 0.0756 0.0
H1202 H 0.24108 0.67534 0.11053 0.0
H1203 H 0.21616 0.68419 0.09166 0.0
C1204 C 0.22877 0.67651 0.19268 0.0
C1205 C 0.22 0.6991 0.18978 0.0
C1206 C 0.22395 0.65944 0.17348 0.0
C1207 C 0.21036 0.66457 0.15091 0.0
C1208 C 0.20114 0.68694 0.14817 0.0
H1209 H 0.16806 0.55385 0.0377 0.0
H1210 H 0.16611 0.58671 0.06925 0.0
C1211 C 0.20594 0.70409 0.16743 0.0
C1212 C 0.20648 0.64647 0.1301 0.0
H1213 H 0.22065 0.63122 0.06545 0.0
C1214 C 0.19515 0.62598 0.13762 0.0
C1215 C 0.21559 0.6485 0.10369 0.0
C1216 C 0.2286 0.66981 0.0948 0.0
C1217 C 0.19314 0.60724 0.1196 0.0
C1218 C 0.20252 0.60917 0.09331 0.0
C1219 C 0.21335 0.62987 0.08559 0.0
C1220 C 0.2032 0.58927 0.0743 0.0
C1221 C 0.18192 0.58516 0.12917 0.0
C1222 C 0.22466 0.58003 0.06647 0.0
C1223 C 0.22583 0.56139 0.04851 0.0
C1224 C 0.20554 0.55161 0.03782 0.0
C1225 C 0.184 0.56091 0.04566 0.0
C1226 C 0.18285 0.57963 0.06373 0.0
H1227 H 0.17921 0.58511 0.15138 0.0
H1228 H 0.16482 0.5832 0.11933 0.0
H1229 H 0.19267 0.56992 0.1235 0.0
H1230 H 0.24057 0.58721 0.07439 0.0
H1231 H 0.24273 0.55474 0.04293 0.0
H1232 H 0.33889 0.772 0.79647 0.0
H1233 H 0.36819 0.78123 0.83011 0.0
H1234 H 0.31841 0.82208 0.87465 0.0
H1235 H 0.28874 0.81274 0.84111 0.0
H1236 H 0.38521 0.82481 0.84799 0.0
H1237 H 0.34275 0.77493 0.93031 0.0
H1238 H 0.33476 0.77154 0.89535 0.0
H1239 H 0.32531 0.79653 0.91408 0.0
C1240 C 0.3341 0.78299 0.81337 0.0
C1241 C 0.31139 0.79149 0.81618 0.0
C1242 C 0.35093 0.78831 0.83253 0.0
C1243 C 0.34542 0.80215 0.85498 0.0
C1244 C 0.32292 0.81111 0.85764 0.0
H1245 H 0.45459 0.84605 0.96876 0.0
H1246 H 0.42189 0.84778 0.93734 0.0
C1247 C 0.30602 0.80581 0.83841 0.0
C1248 C 0.36324 0.8065 0.87581 0.0
H1249 H 0.37814 0.79291 0.94042 0.0
C1250 C 0.3836 0.8181 0.86832 0.0
C1251 C 0.36109 0.79754 0.90221 0.0
C1252 C 0.33991 0.78428 0.91106 0.0
C1253 C 0.40214 0.82048 0.88636 0.0
C1254 C 0.40013 0.81119 0.91261 0.0
C1255 C 0.37953 0.80014 0.92032 0.0
C1256 C 0.41994 0.81068 0.93149 0.0
C1257 C 0.42413 0.83196 0.87686 0.0
C1258 C 0.42947 0.78929 0.93876 0.0
C1259 C 0.44801 0.78823 0.95661 0.0
C1260 C 0.45741 0.80858 0.96775 0.0
C1261 C 0.44783 0.83007 0.96046 0.0
C1262 C 0.4292 0.8311 0.94247 0.0
H1263 H 0.4242 0.83489 0.85471 0.0
H1264 H 0.42597 0.84898 0.88709 0.0
H1265 H 0.43942 0.82126 0.88215 0.0
H1266 H 0.42257 0.77333 0.9305 0.0
H1267 H 0.45489 0.77137 0.96177 0.0
H1268 H 0.25424 0.30667 0.80082 0.0
H1269 H 0.24088 0.34043 0.82607 0.0
H1270 H 0.18797 0.29914 0.86414 0.0
H1271 H 0.20171 0.26488 0.8393 0.0
H1272 H 0.19911 0.36197 0.82552 0.0
H1273 H 0.21826 0.32963 0.9287 0.0
H1274 H 0.22894 0.31531 0.8987 0.0
H1275 H 0.19928 0.31182 0.90891 0.0
C1276 C 0.23981 0.30466 0.81464 0.0
C1277 C 0.22911 0.28302 0.81813 0.0
C1278 C 0.23215 0.32403 0.82902 0.0
C1279 C 0.21356 0.32232 0.84719 0.0
C1280 C 0.20264 0.30079 0.85063 0.0
H1281 H 0.16653 0.44017 0.94869 0.0
H1282 H 0.16395 0.40411 0.92217 0.0
C1283 C 0.21046 0.28125 0.83635 0.0
C1284 C 0.20587 0.3433 0.86221 0.0
H1285 H 0.20338 0.3674 0.92529 0.0
C1286 C 0.19976 0.36305 0.84736 0.0
C1287 C 0.20664 0.3447 0.89074 0.0
C1288 C 0.2138 0.32433 0.90777 0.0
C1289 C 0.19538 0.38434 0.86016 0.0
C1290 C 0.1971 0.38592 0.88849 0.0
C1291 C 0.20196 0.36599 0.90352 0.0
C1292 C 0.19712 0.40859 0.90251 0.0
C1293 C 0.18973 0.40525 0.8433 0.0
C1294 C 0.21648 0.42299 0.89994 0.0
C1295 C 0.21811 0.44329 0.91515 0.0
C1296 C 0.20029 0.44971 0.93308 0.0
C1297 C 0.18042 0.43574 0.93485 0.0
C1298 C 0.17896 0.41514 0.91985 0.0
H1299 H 0.18407 0.4003 0.82266 0.0
H1300 H 0.17593 0.41578 0.85308 0.0
H1301 H 0.20539 0.41626 0.84146 0.0
H1302 H 0.23074 0.4181 0.88681 0.0
H1303 H 0.23361 0.4537 0.91333 0.0
H1304 H 0.68392 0.24392 0.78895 0.0
H1305 H 0.65658 0.23026 0.82271 0.0
H1306 H 0.71209 0.1973 0.86598 0.0
H1307 H 0.73995 0.21129 0.83217 0.0
H1308 H 0.64532 0.18562 0.84104 0.0
H1309 H 0.68263 0.24091 0.92237 0.0
H1310 H 0.69008 0.24486 0.88731 0.0
H1311 H 0.70186 0.22091 0.90569 0.0
C1312 C 0.69045 0.23371 0.80555 0.0
C1313 C 0.71423 0.22892 0.80797 0.0
C1314 C 0.6747 0.22579 0.82479 0.0
C1315 C 0.68228 0.21294 0.84699 0.0
C1316 C 0.70591 0.20745 0.84916 0.0
H1317 H 0.57108 0.17223 0.9628 0.0
H1318 H 0.60506 0.16723 0.93313 0.0
C1319 C 0.72178 0.2154 0.8298 0.0
C1320 C 0.66529 0.20666 0.86829 0.0
H1321 H 0.64774 0.22207 0.93176 0.0
C1322 C 0.64604 0.19315 0.86111 0.0
C1323 C 0.66625 0.21663 0.89439 0.0
C1324 C 0.68619 0.23177 0.90302 0.0
C1325 C 0.62717 0.19039 0.87882 0.0
C1326 C 0.62769 0.20129 0.90438 0.0
C1327 C 0.64749 0.21366 0.91214 0.0
C1328 C 0.60672 0.20328 0.92158 0.0
C1329 C 0.60617 0.17717 0.86948 0.0
C1330 C 0.59639 0.22508 0.92473 0.0
C1331 C 0.57718 0.22797 0.94146 0.0
C1332 C 0.56779 0.20911 0.95564 0.0
C1333 C 0.57784 0.18708 0.95209 0.0
C1334 C 0.59723 0.18419 0.93518 0.0
H1335 H 0.60782 0.17125 0.84819 0.0
H1336 H 0.60364 0.16177 0.88246 0.0
H1337 H 0.59047 0.18818 0.87141 0.0
H1338 H 0.60335 0.24001 0.9143 0.0
H1339 H 0.5699 0.24519 0.94353 0.0
H1340 H 0.7955 0.69747 0.80303 0.0
H1341 H 0.80048 0.66401 0.83224 0.0
H1342 H 0.73174 0.64067 0.81219 0.0
H1343 H 0.72699 0.67395 0.78201 0.0
H1344 H 0.77556 0.65705 0.87629 0.0
H1345 H 0.76696 0.58042 0.80933 0.0
H1346 H 0.77141 0.60926 0.7964 0.0
H1347 H 0.74303 0.60013 0.80694 0.0
C1348 C 0.78161 0.68495 0.8044 0.0
C1349 C 0.76081 0.68832 0.79036 0.0
C1350 C 0.78448 0.66583 0.82111 0.0
C1351 C 0.76655 0.64974 0.82439 0.0
C1352 C 0.74602 0.65257 0.80957 0.0
H1353 H 0.73538 0.5478 0.94451 0.0
H1354 H 0.73595 0.57491 0.90694 0.0
C1355 C 0.74326 0.67162 0.79242 0.0
C1356 C 0.76865 0.63161 0.8454 0.0
H1357 H 0.76509 0.57342 0.85686 0.0
C1358 C 0.77354 0.63874 0.87193 0.0
C1359 C 0.76594 0.60773 0.83976 0.0
C1360 C 0.76176 0.59887 0.81152 0.0
C1361 C 0.77536 0.62275 0.89301 0.0
C1362 C 0.77231 0.59896 0.88744 0.0
C1363 C 0.76752 0.59172 0.86097 0.0
C1364 C 0.77267 0.58158 0.90927 0.0
C1365 C 0.77989 0.63142 0.92127 0.0
C1366 C 0.79325 0.57621 0.92285 0.0
C1367 C 0.79305 0.56061 0.94443 0.0
C1368 C 0.7722 0.55029 0.95279 0.0
C1369 C 0.75172 0.55555 0.93878 0.0
C1370 C 0.75199 0.57095 0.91718 0.0
H1371 H 0.77838 0.65056 0.92285 0.0
H1372 H 0.76758 0.62344 0.93576 0.0
H1373 H 0.79765 0.62638 0.92736 0.0
H1374 H 0.80942 0.5842 0.91688 0.0
H1375 H 0.80911 0.55685 0.95472 0.0
loop_
_geom_bond_atom_site_label_1
_geom_bond_atom_site_label_2
_geom_bond_distance
_geom_bond_site_symmetry_2
_ccdc_geom_bond_type
C0 O2 1.247 . S
C0 O4 1.258 . S
C1 O8 1.247 . S
C1 O9 1.258 . S
O2 C0 1.247 . S
O2 Zn3 2.028 . S
Zn3 O2 2.028 . S
Zn3 O7 2.035 . S
Zn3 O9 2.035 . S
Zn3 O10 2.028 . S
O4 C0 1.258 . S
O4 Zn5 2.035 . S
Zn5 O4 2.035 . S
Zn5 O6 2.028 . S
Zn5 O8 2.028 . S
Zn5 O11 2.035 . S
O6 Zn5 2.028 . S
O6 C12 1.247 . S
O7 Zn3 2.035 . S
O7 C12 1.258 . S
O8 C1 1.247 . S
O8 Zn5 2.028 . S
O9 C1 1.258 . S
O9 Zn3 2.035 . S
O10 Zn3 2.028 . S
O10 C13 1.247 . S
O11 Zn5 2.035 . S
O11 C13 1.258 . S
C12 O6 1.247 . S
C12 O7 1.258 . S
C13 O10 1.247 . S
C13 O11 1.258 . S
C14 O16 1.247 . S
C14 O18 1.258 . S
C15 O22 1.247 . S
C15 O23 1.258 . S
O16 C14 1.247 . S
O16 Zn17 2.028 . S
Zn17 O16 2.028 . S
Zn17 O21 2.035 . S
Zn17 O23 2.035 . S
Zn17 O24 2.028 . S
O18 C14 1.258 . S
O18 Zn19 2.035 . S
Zn19 O18 2.035 . S
Zn19 O20 2.028 . S
Zn19 O22 2.028 . S
Zn19 O25 2.035 . S
O20 Zn19 2.028 . S
O20 C26 1.247 . S
O21 Zn17 2.035 . S
O21 C26 1.258 . S
O22 C15 1.247 . S
O22 Zn19 2.028 . S
O23 C15 1.258 . S
O23 Zn17 2.035 . S
O24 Zn17 2.028 . S
O24 C27 1.247 . S
O25 Zn19 2.035 . S
O25 C27 1.258 . S
C26 O20 1.247 . S
C26 O21 1.258 . S
C27 O24 1.247 . S
C27 O25 1.258 . S
C28 O30 1.247 . S
C28 O32 1.258 . S
C29 O36 1.247 . S
C29 O37 1.258 . S
O30 C28 1.247 . S
O30 Zn31 2.028 . S
Zn31 O30 2.028 . S
Zn31 O35 2.035 . S
Zn31 O37 2.035 . S
Zn31 O38 2.028 . S
O32 C28 1.258 . S
O32 Zn33 2.035 . S
Zn33 O32 2.035 . S
Zn33 O34 2.028 . S
Zn33 O36 2.028 . S
Zn33 O39 2.035 . S
O34 Zn33 2.028 . S
O34 C40 1.247 . S
O35 Zn31 2.035 . S
O35 C40 1.258 . S
O36 C29 1.247 . S
O36 Zn33 2.028 . S
O37 C29 1.258 . S
O37 Zn31 2.035 . S
O38 Zn31 2.028 . S
O38 C41 1.247 . S
O39 Zn33 2.035 . S
O39 C41 1.258 . S
C40 O34 1.247 . S
C40 O35 1.258 . S
C41 O38 1.247 . S
C41 O39 1.258 . S
C42 O44 1.247 . S
C42 O46 1.258 . S
C43 O50 1.247 . S
C43 O51 1.258 . S
O44 C42 1.247 . S
O44 Zn45 2.028 . S
Zn45 O44 2.028 . S
Zn45 O49 2.035 . S
Zn45 O51 2.035 . S
Zn45 O52 2.028 . S
O46 C42 1.258 . S
O46 Zn47 2.035 . S
Zn47 O46 2.035 . S
Zn47 O48 2.028 . S
Zn47 O50 2.028 . S
Zn47 O53 2.035 . S
O48 Zn47 2.028 . S
O48 C54 1.247 . S
O49 Zn45 2.035 . S
O49 C54 1.258 . S
O50 C43 1.247 . S
O50 Zn47 2.028 . S
O51 C43 1.258 . S
O51 Zn45 2.035 . S
O52 Zn45 2.028 . S
O52 C55 1.247 . S
O53 Zn47 2.035 . S
O53 C55 1.258 . S
C54 O48 1.247 . S
C54 O49 1.258 . S
C55 O52 1.247 . S
C55 O53 1.258 . S
C56 O58 1.247 . S
C56 O60 1.258 . S
C57 O64 1.247 . S
C57 O65 1.258 . S
O58 C56 1.247 . S
O58 Zn59 2.028 . S
Zn59 O58 2.028 . S
Zn59 O63 2.035 . S
Zn59 O65 2.035 . S
Zn59 O66 2.028 . S
O60 C56 1.258 . S
O60 Zn61 2.035 . S
Zn61 O60 2.035 . S
Zn61 O62 2.028 . S
Zn61 O64 2.028 . S
Zn61 O67 2.035 . S
O62 Zn61 2.028 . S
O62 C68 1.247 . S
O63 Zn59 2.035 . S
O63 C68 1.258 . S
O64 C57 1.247 . S
O64 Zn61 2.028 . S
O65 C57 1.258 . S
O65 Zn59 2.035 . S
O66 Zn59 2.028 . S
O66 C69 1.247 . S
O67 Zn61 2.035 . S
O67 C69 1.258 . S
C68 O62 1.247 . S
C68 O63 1.258 . S
C69 O66 1.247 . S
C69 O67 1.258 . S
C70 O72 1.247 . S
C70 O74 1.258 . S
C71 O78 1.247 . S
C71 O79 1.258 . S
O72 C70 1.247 . S
O72 Zn73 2.028 . S
Zn73 O72 2.028 . S
Zn73 O77 2.035 . S
Zn73 O79 2.035 . S
Zn73 O80 2.028 . S
O74 C70 1.258 . S
O74 Zn75 2.035 . S
Zn75 O74 2.035 . S
Zn75 O76 2.028 . S
Zn75 O78 2.028 . S
Zn75 O81 2.035 . S
O76 Zn75 2.028 . S
O76 C82 1.247 . S
O77 Zn73 2.035 . S
O77 C82 1.258 . S
O78 C71 1.247 . S
O78 Zn75 2.028 . S
O79 C71 1.258 . S
O79 Zn73 2.035 . S
O80 Zn73 2.028 . S
O80 C83 1.247 . S
O81 Zn75 2.035 . S
O81 C83 1.258 . S
C82 O76 1.247 . S
C82 O77 1.258 . S
C83 O80 1.247 . S
C83 O81 1.258 . S
C84 O86 1.247 . S
C84 O88 1.258 . S
C85 O92 1.247 . S
C85 O93 1.258 . S
O86 C84 1.247 . S
O86 Zn87 2.028 . S
Zn87 O86 2.028 . S
Zn87 O91 2.035 . S
Zn87 O93 2.035 . S
Zn87 O94 2.028 . S
O88 C84 1.258 . S
O88 Zn89 2.035 . S
Zn89 O88 2.035 . S
Zn89 O90 2.028 . S
Zn89 O92 2.028 . S
Zn89 O95 2.035 . S
O90 Zn89 2.028 . S
O90 C96 1.247 . S
O91 Zn87 2.035 . S
O91 C96 1.258 . S
O92 C85 1.247 . S
O92 Zn89 2.028 . S
O93 C85 1.258 . S
O93 Zn87 2.035 . S
O94 Zn87 2.028 . S
O94 C97 1.247 . S
O95 Zn89 2.035 . S
O95 C97 1.258 . S
C96 O90 1.247 . S
C96 O91 1.258 . S
C97 O94 1.247 . S
C97 O95 1.258 . S
C98 O100 1.247 . S
C98 O102 1.258 . S
C99 O106 1.247 . S
C99 O107 1.258 . S
O100 C98 1.247 . S
O100 Zn101 2.028 . S
Zn101 O100 2.028 . S
Zn101 O105 2.035 . S
Zn101 O107 2.035 . S
Zn101 O108 2.028 . S
O102 C98 1.258 . S
O102 Zn103 2.035 . S
Zn103 O102 2.035 . S
Zn103 O104 2.028 . S
Zn103 O106 2.028 . S
Zn103 O109 2.035 . S
O104 Zn103 2.028 . S
O104 C110 1.247 . S
O105 Zn101 2.035 . S
O105 C110 1.258 . S
O106 C99 1.247 . S
O106 Zn103 2.028 . S
O107 C99 1.258 . S
O107 Zn101 2.035 . S
O108 Zn101 2.028 . S
O108 C111 1.247 . S
O109 Zn103 2.035 . S
O109 C111 1.258 . S
C110 O104 1.247 . S
C110 O105 1.258 . S
C111 O108 1.247 . S
C111 O109 1.258 . S
C112 O114 1.247 . S
C112 O116 1.258 . S
C113 O120 1.247 . S
C113 O121 1.258 . S
O114 C112 1.247 . S
O114 Zn115 2.027 . S
Zn115 O114 2.027 . S
Zn115 O119 2.036 1_655 S
Zn115 O121 2.036 1_655 S
Zn115 O122 2.027 . S
O116 C112 1.258 . S
O116 Zn117 2.028 1_655 S
Zn117 O116 2.028 1_455 S
Zn117 O118 2.035 . S
Zn117 O120 2.035 . S
Zn117 O123 2.028 1_455 S
O118 Zn117 2.035 . S
O118 C124 1.247 . S
O119 Zn115 2.036 1_455 S
O119 C124 1.258 . S
O120 C113 1.247 . S
O120 Zn117 2.035 . S
O121 C113 1.258 . S
O121 Zn115 2.036 1_455 S
O122 Zn115 2.027 . S
O122 C125 1.247 . S
O123 Zn117 2.028 1_655 S
O123 C125 1.258 . S
C124 O118 1.247 . S
C124 O119 1.258 . S
C125 O122 1.247 . S
C125 O123 1.258 . S
C126 O128 1.247 . S
C126 O130 1.258 . S
C127 O134 1.247 . S
C127 O135 1.258 . S
O128 C126 1.247 . S
O128 Zn129 2.035 . S
Zn129 O128 2.035 . S
Zn129 O133 2.028 1_545 S
Zn129 O135 2.028 1_545 S
Zn129 O136 2.035 . S
O130 C126 1.258 . S
O130 Zn131 2.036 1_545 S
Zn131 O130 2.036 1_565 S
Zn131 O132 2.027 . S
Zn131 O134 2.027 . S
Zn131 O137 2.036 1_565 S
O132 Zn131 2.027 . S
O132 C138 1.247 . S
O133 Zn129 2.028 1_565 S
O133 C138 1.258 . S
O134 C127 1.247 . S
O134 Zn131 2.027 . S
O135 C127 1.258 . S
O135 Zn129 2.028 1_565 S
O136 Zn129 2.035 . S
O136 C139 1.247 . S
O137 Zn131 2.036 1_545 S
O137 C139 1.258 . S
C138 O132 1.247 . S
C138 O133 1.258 . S
C139 O136 1.247 . S
C139 O137 1.258 . S
C140 O142 1.247 . S
C140 O144 1.258 . S
C141 O148 1.247 . S
C141 O149 1.258 . S
O142 C140 1.247 . S
O142 Zn143 2.027 . S
Zn143 O142 2.027 . S
Zn143 O147 2.036 1_655 S
Zn143 O149 2.036 1_655 S
Zn143 O150 2.027 . S
O144 C140 1.258 . S
O144 Zn145 2.028 1_655 S
Zn145 O144 2.028 1_455 S
Zn145 O146 2.035 . S
Zn145 O148 2.035 . S
Zn145 O151 2.028 1_455 S
O146 Zn145 2.035 . S
O146 C152 1.247 . S
O147 Zn143 2.036 1_455 S
O147 C152 1.258 . S
O148 C141 1.247 . S
O148 Zn145 2.035 . S
O149 C141 1.258 . S
O149 Zn143 2.036 1_455 S
O150 Zn143 2.027 . S
O150 C153 1.247 . S
O151 Zn145 2.028 1_655 S
O151 C153 1.258 . S
C152 O146 1.247 . S
C152 O147 1.258 . S
C153 O150 1.247 . S
C153 O151 1.258 . S
C154 O156 1.247 . S
C154 O158 1.258 . S
C155 O162 1.247 . S
C155 O163 1.258 . S
O156 C154 1.247 . S
O156 Zn157 2.035 . S
Zn157 O156 2.035 . S
Zn157 O161 2.028 1_545 S
Zn157 O163 2.028 1_545 S
Zn157 O164 2.035 . S
O158 C154 1.258 . S
O158 Zn159 2.036 1_545 S
Zn159 O158 2.036 1_565 S
Zn159 O160 2.027 . S
Zn159 O162 2.027 . S
Zn159 O165 2.036 1_565 S
O160 Zn159 2.027 . S
O160 C166 1.247 . S
O161 Zn157 2.028 1_565 S
O161 C166 1.258 . S
O162 C155 1.247 . S
O162 Zn159 2.027 . S
O163 C155 1.258 . S
O163 Zn157 2.028 1_565 S
O164 Zn157 2.035 . S
O164 C167 1.247 . S
O165 Zn159 2.036 1_545 S
O165 C167 1.258 . S
C166 O160 1.247 . S
C166 O161 1.258 . S
C167 O164 1.247 . S
C167 O165 1.258 . S
C168 O170 1.247 . S
C168 O172 1.258 . S
C169 O176 1.247 . S
C169 O177 1.258 . S
O170 C168 1.247 . S
O170 Zn171 2.028 . S
Zn171 O170 2.028 . S
Zn171 O175 2.035 . S
Zn171 O177 2.035 1_554 S
Zn171 O178 2.028 1_554 S
O172 C168 1.258 . S
O172 Zn173 2.035 . S
Zn173 O172 2.035 . S
Zn173 O174 2.028 . S
Zn173 O176 2.028 1_554 S
Zn173 O179 2.035 1_554 S
O174 Zn173 2.028 . S
O174 C180 1.247 . S
O175 Zn171 2.035 . S
O175 C180 1.258 . S
O176 C169 1.247 . S
O176 Zn173 2.028 1_556 S
O177 C169 1.258 . S
O177 Zn171 2.035 1_556 S
O178 Zn171 2.028 1_556 S
O178 C181 1.247 . S
O179 Zn173 2.035 1_556 S
O179 C181 1.258 . S
C180 O174 1.247 . S
C180 O175 1.258 . S
C181 O178 1.247 . S
C181 O179 1.258 . S
C182 O184 1.247 . S
C182 O186 1.258 . S
C183 O190 1.247 . S
C183 O191 1.258 . S
O184 C182 1.247 . S
O184 Zn185 2.028 . S
Zn185 O184 2.028 . S
Zn185 O189 2.035 . S
Zn185 O191 2.035 1_554 S
Zn185 O192 2.028 1_554 S
O186 C182 1.258 . S
O186 Zn187 2.035 . S
Zn187 O186 2.035 . S
Zn187 O188 2.028 . S
Zn187 O190 2.028 1_554 S
Zn187 O193 2.035 1_554 S
O188 Zn187 2.028 . S
O188 C194 1.247 . S
O189 Zn185 2.035 . S
O189 C194 1.258 . S
O190 C183 1.247 . S
O190 Zn187 2.028 1_556 S
O191 C183 1.258 . S
O191 Zn185 2.035 1_556 S
O192 Zn185 2.028 1_556 S
O192 C195 1.247 . S
O193 Zn187 2.035 1_556 S
O193 C195 1.258 . S
C194 O188 1.247 . S
C194 O189 1.258 . S
C195 O192 1.247 . S
C195 O193 1.258 . S
C196 O198 1.247 . S
C196 O200 1.258 . S
C197 O204 1.247 . S
C197 O205 1.258 . S
O198 C196 1.247 . S
O198 Zn199 2.028 1_556 S
Zn199 O198 2.028 1_554 S
Zn199 O203 2.035 1_554 S
Zn199 O205 2.035 . S
Zn199 O206 2.028 . S
O200 C196 1.258 . S
O200 Zn201 2.035 1_556 S
Zn201 O200 2.035 1_554 S
Zn201 O202 2.028 1_554 S
Zn201 O204 2.028 . S
Zn201 O207 2.035 . S
O202 Zn201 2.028 1_556 S
O202 C208 1.247 . S
O203 Zn199 2.035 1_556 S
O203 C208 1.258 . S
O204 C197 1.247 . S
O204 Zn201 2.028 . S
O205 C197 1.258 . S
O205 Zn199 2.035 . S
O206 Zn199 2.028 . S
O206 C209 1.247 . S
O207 Zn201 2.035 . S
O207 C209 1.258 . S
C208 O202 1.247 . S
C208 O203 1.258 . S
C209 O206 1.247 . S
C209 O207 1.258 . S
C210 O212 1.247 . S
C210 O214 1.258 . S
C211 O218 1.247 . S
C211 O219 1.258 . S
O212 C210 1.247 . S
O212 Zn213 2.028 . S
Zn213 O212 2.028 . S
Zn213 O217 2.035 . S
Zn213 O219 2.035 1_554 S
Zn213 O220 2.028 1_554 S
O214 C210 1.258 . S
O214 Zn215 2.035 . S
Zn215 O214 2.035 . S
Zn215 O216 2.028 . S
Zn215 O218 2.028 1_554 S
Zn215 O221 2.035 1_554 S
O216 Zn215 2.028 . S
O216 C222 1.247 . S
O217 Zn213 2.035 . S
O217 C222 1.258 . S
O218 C211 1.247 . S
O218 Zn215 2.028 1_556 S
O219 C211 1.258 . S
O219 Zn213 2.035 1_556 S
O220 Zn213 2.028 1_556 S
O220 C223 1.247 . S
O221 Zn215 2.035 1_556 S
O221 C223 1.258 . S
C222 O216 1.247 . S
C222 O217 1.258 . S
C223 O220 1.247 . S
C223 O221 1.258 . S
H224 C232 0.929 . S
H225 C234 0.930 . S
H226 C236 0.930 . S
H227 C239 0.929 . S
H228 C242 0.930 . S
H229 C244 0.960 . S
H230 C244 0.960 . S
H231 C244 0.960 . S
C232 H224 0.929 . S
C232 C233 1.377 . S
C232 C234 1.384 . S
C233 C232 1.377 . S
C233 C239 1.390 . S
C234 H225 0.930 . S
C234 C232 1.384 . S
C234 C235 1.372 . S
C235 C234 1.372 . S
C235 C236 1.400 . S
C235 C240 1.490 . S
C236 H226 0.930 . S
C236 C235 1.400 . S
C236 C239 1.386 . S
H237 C253 0.930 . S
H238 C254 0.931 . S
C239 H227 0.929 . S
C239 C233 1.390 . S
C239 C236 1.386 . S
C240 C235 1.490 . S
C240 C242 1.395 . S
C240 C243 1.403 . S
H241 C247 0.930 . S
C242 H228 0.930 . S
C242 C240 1.395 . S
C242 C245 1.403 . S
C243 C240 1.403 . S
C243 C244 1.524 . S
C243 C247 1.400 . S
C244 H229 0.960 . S
C244 H230 0.960 . S
C244 H231 0.960 . S
C244 C243 1.524 . S
C245 C242 1.403 . S
C245 C246 1.392 . S
C245 C249 1.495 . S
C246 C245 1.392 . S
C246 C247 1.385 . S
C246 C248 1.478 . S
C247 H241 0.930 . S
C247 C243 1.400 . S
C247 C246 1.385 . S
C248 C246 1.478 . S
C248 C250 1.381 . S
C248 C254 1.383 . S
C249 C245 1.495 . S
C249 H255 0.959 . S
C249 H256 0.961 . S
C249 H257 0.960 . S
C250 C248 1.381 . S
C250 C251 1.394 . S
C250 H258 0.930 . S
C251 C250 1.394 . S
C251 C252 1.383 . S
C251 H259 0.929 . S
C252 C251 1.383 . S
C252 C253 1.377 . S
C253 H237 0.930 . S
C253 C252 1.377 . S
C253 C254 1.379 . S
C254 H238 0.931 . S
C254 C248 1.383 . S
C254 C253 1.379 . S
H255 C249 0.959 . S
H256 C249 0.961 . S
H257 C249 0.960 . S
H258 C250 0.930 . S
H259 C251 0.929 . S
H260 C268 0.929 . S
H261 C270 0.930 . S
H262 C272 0.930 . S
H263 C275 0.929 . S
H264 C278 0.930 . S
H265 C280 0.960 . S
H266 C280 0.960 . S
H267 C280 0.960 . S
C268 H260 0.929 . S
C268 C269 1.377 . S
C268 C270 1.384 . S
C269 C268 1.377 . S
C269 C275 1.390 . S
C270 H261 0.930 . S
C270 C268 1.384 . S
C270 C271 1.372 . S
C271 C270 1.372 . S
C271 C272 1.400 . S
C271 C276 1.490 . S
C272 H262 0.930 . S
C272 C271 1.400 . S
C272 C275 1.386 . S
H273 C289 0.930 . S
H274 C290 0.931 . S
C275 H263 0.929 . S
C275 C269 1.390 . S
C275 C272 1.386 . S
C276 C271 1.490 . S
C276 C278 1.395 . S
C276 C279 1.403 . S
H277 C283 0.930 . S
C278 H264 0.930 . S
C278 C276 1.395 . S
C278 C281 1.403 . S
C279 C276 1.403 . S
C279 C280 1.524 . S
C279 C283 1.400 . S
C280 H265 0.960 . S
C280 H266 0.960 . S
C280 H267 0.960 . S
C280 C279 1.524 . S
C281 C278 1.403 . S
C281 C282 1.392 . S
C281 C285 1.495 . S
C282 C281 1.392 . S
C282 C283 1.385 . S
C282 C284 1.478 . S
C283 H277 0.930 . S
C283 C279 1.400 . S
C283 C282 1.385 . S
C284 C282 1.478 . S
C284 C286 1.381 . S
C284 C290 1.383 . S
C285 C281 1.495 . S
C285 H291 0.959 . S
C285 H292 0.961 . S
C285 H293 0.960 . S
C286 C284 1.381 . S
C286 C287 1.394 . S
C286 H294 0.930 . S
C287 C286 1.394 . S
C287 C288 1.383 . S
C287 H295 0.929 . S
C288 C287 1.383 . S
C288 C289 1.377 . S
C289 H273 0.930 . S
C289 C288 1.377 . S
C289 C290 1.379 . S
C290 H274 0.931 . S
C290 C284 1.383 . S
C290 C289 1.379 . S
H291 C285 0.959 . S
H292 C285 0.961 . S
H293 C285 0.960 . S
H294 C286 0.930 . S
H295 C287 0.929 . S
H296 C304 0.929 . S
H297 C306 0.930 . S
H298 C308 0.930 . S
H299 C311 0.929 . S
H300 C314 0.930 . S
H301 C316 0.960 . S
H302 C316 0.960 . S
H303 C316 0.960 . S
C304 H296 0.929 . S
C304 C305 1.377 . S
C304 C306 1.384 . S
C305 C304 1.377 . S
C305 C311 1.390 . S
C306 H297 0.930 . S
C306 C304 1.384 . S
C306 C307 1.372 . S
C307 C306 1.372 . S
C307 C308 1.400 . S
C307 C312 1.490 . S
C308 H298 0.930 . S
C308 C307 1.400 . S
C308 C311 1.386 . S
H309 C325 0.930 . S
H310 C326 0.931 . S
C311 H299 0.929 . S
C311 C305 1.390 . S
C311 C308 1.386 . S
C312 C307 1.490 . S
C312 C314 1.395 . S
C312 C315 1.403 . S
H313 C319 0.930 . S
C314 H300 0.930 . S
C314 C312 1.395 . S
C314 C317 1.403 . S
C315 C312 1.403 . S
C315 C316 1.524 . S
C315 C319 1.400 . S
C316 H301 0.960 . S
C316 H302 0.960 . S
C316 H303 0.960 . S
C316 C315 1.524 . S
C317 C314 1.403 . S
C317 C318 1.392 . S
C317 C321 1.495 . S
C318 C317 1.392 . S
C318 C319 1.385 . S
C318 C320 1.478 . S
C319 H313 0.930 . S
C319 C315 1.400 . S
C319 C318 1.385 . S
C320 C318 1.478 . S
C320 C322 1.381 . S
C320 C326 1.383 . S
C321 C317 1.495 . S
C321 H327 0.959 . S
C321 H328 0.961 . S
C321 H329 0.960 . S
C322 C320 1.381 . S
C322 C323 1.394 . S
C322 H330 0.930 . S
C323 C322 1.394 . S
C323 C324 1.383 . S
C323 H331 0.929 . S
C324 C323 1.383 . S
C324 C325 1.377 . S
C325 H309 0.930 . S
C325 C324 1.377 . S
C325 C326 1.379 . S
C326 H310 0.931 . S
C326 C320 1.383 . S
C326 C325 1.379 . S
H327 C321 0.959 . S
H328 C321 0.961 . S
H329 C321 0.960 . S
H330 C322 0.930 . S
H331 C323 0.929 . S
H332 C340 0.929 . S
H333 C342 0.930 . S
H334 C344 0.930 . S
H335 C347 0.929 . S
H336 C350 0.930 . S
H337 C352 0.960 . S
H338 C352 0.960 . S
H339 C352 0.960 . S
C340 H332 0.929 . S
C340 C341 1.377 . S
C340 C342 1.384 . S
C341 C340 1.377 . S
C341 C347 1.390 . S
C342 H333 0.930 . S
C342 C340 1.384 . S
C342 C343 1.372 . S
C343 C342 1.372 . S
C343 C344 1.400 . S
C343 C348 1.490 . S
C344 H334 0.930 . S
C344 C343 1.400 . S
C344 C347 1.386 . S
H345 C361 0.930 . S
H346 C362 0.931 . S
C347 H335 0.929 . S
C347 C341 1.390 . S
C347 C344 1.386 . S
C348 C343 1.490 . S
C348 C350 1.395 . S
C348 C351 1.403 . S
H349 C355 0.930 . S
C350 H336 0.930 . S
C350 C348 1.395 . S
C350 C353 1.403 . S
C351 C348 1.403 . S
C351 C352 1.524 . S
C351 C355 1.400 . S
C352 H337 0.960 . S
C352 H338 0.960 . S
C352 H339 0.960 . S
C352 C351 1.524 . S
C353 C350 1.403 . S
C353 C354 1.392 . S
C353 C357 1.495 . S
C354 C353 1.392 . S
C354 C355 1.385 . S
C354 C356 1.478 . S
C355 H349 0.930 . S
C355 C351 1.400 . S
C355 C354 1.385 . S
C356 C354 1.478 . S
C356 C358 1.381 . S
C356 C362 1.383 . S
C357 C353 1.495 . S
C357 H363 0.959 . S
C357 H364 0.961 . S
C357 H365 0.960 . S
C358 C356 1.381 . S
C358 C359 1.394 . S
C358 H366 0.930 . S
C359 C358 1.394 . S
C359 C360 1.383 . S
C359 H367 0.929 . S
C360 C359 1.383 . S
C360 C361 1.377 . S
C361 H345 0.930 . S
C361 C360 1.377 . S
C361 C362 1.379 . S
C362 H346 0.931 . S
C362 C356 1.383 . S
C362 C361 1.379 . S
H363 C357 0.959 . S
H364 C357 0.961 . S
H365 C357 0.960 . S
H366 C358 0.930 . S
H367 C359 0.929 . S
H368 C376 0.929 . S
H369 C378 0.930 . S
H370 C380 0.930 . S
H371 C383 0.929 . S
H372 C386 0.930 . S
H373 C388 0.960 . S
H374 C388 0.960 . S
H375 C388 0.960 . S
C376 H368 0.929 . S
C376 C377 1.377 . S
C376 C378 1.384 . S
C377 C376 1.377 . S
C377 C383 1.390 . S
C378 H369 0.930 . S
C378 C376 1.384 . S
C378 C379 1.372 . S
C379 C378 1.372 . S
C379 C380 1.400 . S
C379 C384 1.490 . S
C380 H370 0.930 . S
C380 C379 1.400 . S
C380 C383 1.386 . S
H381 C397 0.930 . S
H382 C398 0.931 . S
C383 H371 0.929 . S
C383 C377 1.390 . S
C383 C380 1.386 . S
C384 C379 1.490 . S
C384 C386 1.395 . S
C384 C387 1.403 . S
H385 C391 0.930 . S
C386 H372 0.930 . S
C386 C384 1.395 . S
C386 C389 1.403 . S
C387 C384 1.403 . S
C387 C388 1.524 . S
C387 C391 1.400 . S
C388 H373 0.960 . S
C388 H374 0.960 . S
C388 H375 0.960 . S
C388 C387 1.524 . S
C389 C386 1.403 . S
C389 C390 1.392 . S
C389 C393 1.495 . S
C390 C389 1.392 . S
C390 C391 1.385 . S
C390 C392 1.478 . S
C391 H385 0.930 . S
C391 C387 1.400 . S
C391 C390 1.385 . S
C392 C390 1.478 . S
C392 C394 1.381 . S
C392 C398 1.383 . S
C393 C389 1.495 . S
C393 H399 0.959 . S
C393 H400 0.961 . S
C393 H401 0.960 . S
C394 C392 1.381 . S
C394 C395 1.394 . S
C394 H402 0.930 . S
C395 C394 1.394 . S
C395 C396 1.383 . S
C395 H403 0.929 . S
C396 C395 1.383 . S
C396 C397 1.377 . S
C397 H381 0.930 . S
C397 C396 1.377 . S
C397 C398 1.379 . S
C398 H382 0.931 . S
C398 C392 1.383 . S
C398 C397 1.379 . S
H399 C393 0.959 . S
H400 C393 0.961 . S
H401 C393 0.960 . S
H402 C394 0.930 . S
H403 C395 0.929 . S
H404 C412 0.929 . S
H405 C414 0.930 . S
H406 C416 0.930 . S
H407 C419 0.929 . S
H408 C422 0.930 . S
H409 C424 0.960 . S
H410 C424 0.960 . S
H411 C424 0.960 . S
C412 H404 0.929 . S
C412 C413 1.377 . S
C412 C414 1.384 . S
C413 C412 1.377 . S
C413 C419 1.390 . S
C414 H405 0.930 . S
C414 C412 1.384 . S
C414 C415 1.372 . S
C415 C414 1.372 . S
C415 C416 1.400 . S
C415 C420 1.490 . S
C416 H406 0.930 . S
C416 C415 1.400 . S
C416 C419 1.386 . S
H417 C433 0.930 . S
H418 C434 0.931 . S
C419 H407 0.929 . S
C419 C413 1.390 . S
C419 C416 1.386 . S
C420 C415 1.490 . S
C420 C422 1.395 . S
C420 C423 1.403 . S
H421 C427 0.930 . S
C422 H408 0.930 . S
C422 C420 1.395 . S
C422 C425 1.403 . S
C423 C420 1.403 . S
C423 C424 1.524 . S
C423 C427 1.400 . S
C424 H409 0.960 . S
C424 H410 0.960 . S
C424 H411 0.960 . S
C424 C423 1.524 . S
C425 C422 1.403 . S
C425 C426 1.392 . S
C425 C429 1.495 . S
C426 C425 1.392 . S
C426 C427 1.385 . S
C426 C428 1.478 . S
C427 H421 0.930 . S
C427 C423 1.400 . S
C427 C426 1.385 . S
C428 C426 1.478 . S
C428 C430 1.381 . S
C428 C434 1.383 . S
C429 C425 1.495 . S
C429 H435 0.959 . S
C429 H436 0.961 . S
C429 H437 0.960 . S
C430 C428 1.381 . S
C430 C431 1.394 . S
C430 H438 0.930 . S
C431 C430 1.394 . S
C431 C432 1.383 . S
C431 H439 0.929 . S
C432 C431 1.383 . S
C432 C433 1.377 . S
C433 H417 0.930 . S
C433 C432 1.377 . S
C433 C434 1.379 . S
C434 H418 0.931 . S
C434 C428 1.383 . S
C434 C433 1.379 . S
H435 C429 0.959 . S
H436 C429 0.961 . S
H437 C429 0.960 . S
H438 C430 0.930 . S
H439 C431 0.929 . S
H440 C448 0.929 . S
H441 C450 0.930 . S
H442 C452 0.930 . S
H443 C455 0.929 . S
H444 C458 0.930 . S
H445 C460 0.960 . S
H446 C460 0.960 . S
H447 C460 0.960 . S
C448 H440 0.929 . S
C448 C449 1.377 . S
C448 C450 1.384 . S
C449 C448 1.377 . S
C449 C455 1.390 . S
C450 H441 0.930 . S
C450 C448 1.384 . S
C450 C451 1.372 . S
C451 C450 1.372 . S
C451 C452 1.400 . S
C451 C456 1.490 . S
C452 H442 0.930 . S
C452 C451 1.400 . S
C452 C455 1.386 . S
H453 C469 0.930 . S
H454 C470 0.931 . S
C455 H443 0.929 . S
C455 C449 1.390 . S
C455 C452 1.386 . S
C456 C451 1.490 . S
C456 C458 1.395 . S
C456 C459 1.403 . S
H457 C463 0.930 . S
C458 H444 0.930 . S
C458 C456 1.395 . S
C458 C461 1.403 . S
C459 C456 1.403 . S
C459 C460 1.524 . S
C459 C463 1.400 . S
C460 H445 0.960 . S
C460 H446 0.960 . S
C460 H447 0.960 . S
C460 C459 1.524 . S
C461 C458 1.403 . S
C461 C462 1.392 . S
C461 C465 1.495 . S
C462 C461 1.392 . S
C462 C463 1.385 . S
C462 C464 1.478 . S
C463 H457 0.930 . S
C463 C459 1.400 . S
C463 C462 1.385 . S
C464 C462 1.478 . S
C464 C466 1.381 . S
C464 C470 1.383 . S
C465 C461 1.495 . S
C465 H471 0.959 . S
C465 H472 0.961 . S
C465 H473 0.960 . S
C466 C464 1.381 . S
C466 C467 1.394 . S
C466 H474 0.930 . S
C467 C466 1.394 . S
C467 C468 1.383 . S
C467 H475 0.929 . S
C468 C467 1.383 . S
C468 C469 1.377 . S
C469 H453 0.930 . S
C469 C468 1.377 . S
C469 C470 1.379 . S
C470 H454 0.931 . S
C470 C464 1.383 . S
C470 C469 1.379 . S
H471 C465 0.959 . S
H472 C465 0.961 . S
H473 C465 0.960 . S
H474 C466 0.930 . S
H475 C467 0.929 . S
H476 C484 0.929 . S
H477 C486 0.930 . S
H478 C488 0.930 . S
H479 C491 0.929 . S
H480 C494 0.930 . S
H481 C496 0.960 . S
H482 C496 0.960 . S
H483 C496 0.960 . S
C484 H476 0.929 . S
C484 C485 1.377 . S
C484 C486 1.384 . S
C485 C484 1.377 . S
C485 C491 1.390 . S
C486 H477 0.930 . S
C486 C484 1.384 . S
C486 C487 1.372 . S
C487 C486 1.372 . S
C487 C488 1.400 . S
C487 C492 1.490 . S
C488 H478 0.930 . S
C488 C487 1.400 . S
C488 C491 1.386 . S
H489 C505 0.930 . S
H490 C506 0.931 . S
C491 H479 0.929 . S
C491 C485 1.390 . S
C491 C488 1.386 . S
C492 C487 1.490 . S
C492 C494 1.395 . S
C492 C495 1.403 . S
H493 C499 0.930 . S
C494 H480 0.930 . S
C494 C492 1.395 . S
C494 C497 1.403 . S
C495 C492 1.403 . S
C495 C496 1.524 . S
C495 C499 1.400 . S
C496 H481 0.960 . S
C496 H482 0.960 . S
C496 H483 0.960 . S
C496 C495 1.524 . S
C497 C494 1.403 . S
C497 C498 1.392 . S
C497 C501 1.495 . S
C498 C497 1.392 . S
C498 C499 1.385 . S
C498 C500 1.478 . S
C499 H493 0.930 . S
C499 C495 1.400 . S
C499 C498 1.385 . S
C500 C498 1.478 . S
C500 C502 1.381 . S
C500 C506 1.383 . S
C501 C497 1.495 . S
C501 H507 0.959 . S
C501 H508 0.961 . S
C501 H509 0.960 . S
C502 C500 1.381 . S
C502 C503 1.394 . S
C502 H510 0.930 . S
C503 C502 1.394 . S
C503 C504 1.383 . S
C503 H511 0.929 . S
C504 C503 1.383 . S
C504 C505 1.377 . S
C505 H489 0.930 . S
C505 C504 1.377 . S
C505 C506 1.379 . S
C506 H490 0.931 . S
C506 C500 1.383 . S
C506 C505 1.379 . S
H507 C501 0.959 . S
H508 C501 0.961 . S
H509 C501 0.960 . S
H510 C502 0.930 . S
H511 C503 0.929 . S
H512 C520 0.929 . S
H513 C522 0.930 . S
H514 C524 0.930 . S
H515 C527 0.929 . S
H516 C530 0.930 . S
H517 C532 0.960 . S
H518 C532 0.960 . S
H519 C532 0.960 . S
C520 H512 0.929 . S
C520 C521 1.377 . S
C520 C522 1.384 . S
C521 C520 1.377 . S
C521 C527 1.390 . S
C522 H513 0.930 . S
C522 C520 1.384 . S
C522 C523 1.372 . S
C523 C522 1.372 . S
C523 C524 1.400 . S
C523 C528 1.490 . S
C524 H514 0.930 . S
C524 C523 1.400 . S
C524 C527 1.386 . S
H525 C541 0.930 . S
H526 C542 0.931 . S
C527 H515 0.929 . S
C527 C521 1.390 . S
C527 C524 1.386 . S
C528 C523 1.490 . S
C528 C530 1.395 . S
C528 C531 1.403 . S
H529 C535 0.930 . S
C530 H516 0.930 . S
C530 C528 1.395 . S
C530 C533 1.403 . S
C531 C528 1.403 . S
C531 C532 1.524 . S
C531 C535 1.400 . S
C532 H517 0.960 . S
C532 H518 0.960 . S
C532 H519 0.960 . S
C532 C531 1.524 . S
C533 C530 1.403 . S
C533 C534 1.392 . S
C533 C537 1.495 . S
C534 C533 1.392 . S
C534 C535 1.385 . S
C534 C536 1.478 . S
C535 H529 0.930 . S
C535 C531 1.400 . S
C535 C534 1.385 . S
C536 C534 1.478 . S
C536 C538 1.381 . S
C536 C542 1.383 . S
C537 C533 1.495 . S
C537 H543 0.959 . S
C537 H544 0.961 . S
C537 H545 0.960 . S
C538 C536 1.381 . S
C538 C539 1.394 . S
C538 H546 0.930 . S
C539 C538 1.394 . S
C539 C540 1.383 . S
C539 H547 0.929 . S
C540 C539 1.383 . S
C540 C541 1.377 . S
C541 H525 0.930 . S
C541 C540 1.377 . S
C541 C542 1.379 . S
C542 H526 0.931 . S
C542 C536 1.383 . S
C542 C541 1.379 . S
H543 C537 0.959 . S
H544 C537 0.961 . S
H545 C537 0.960 . S
H546 C538 0.930 . S
H547 C539 0.929 . S
H548 C556 0.929 . S
H549 C558 0.930 . S
H550 C560 0.930 . S
H551 C563 0.929 . S
H552 C566 0.930 . S
H553 C568 0.960 . S
H554 C568 0.960 . S
H555 C568 0.960 . S
C556 H548 0.929 . S
C556 C557 1.377 . S
C556 C558 1.384 . S
C557 C556 1.377 . S
C557 C563 1.390 . S
C558 H549 0.930 . S
C558 C556 1.384 . S
C558 C559 1.372 . S
C559 C558 1.372 . S
C559 C560 1.400 . S
C559 C564 1.490 . S
C560 H550 0.930 . S
C560 C559 1.400 . S
C560 C563 1.386 . S
H561 C577 0.930 . S
H562 C578 0.931 . S
C563 H551 0.929 . S
C563 C557 1.390 . S
C563 C560 1.386 . S
C564 C559 1.490 . S
C564 C566 1.395 . S
C564 C567 1.403 . S
H565 C571 0.930 . S
C566 H552 0.930 . S
C566 C564 1.395 . S
C566 C569 1.403 . S
C567 C564 1.403 . S
C567 C568 1.524 . S
C567 C571 1.400 . S
C568 H553 0.960 . S
C568 H554 0.960 . S
C568 H555 0.960 . S
C568 C567 1.524 . S
C569 C566 1.403 . S
C569 C570 1.392 . S
C569 C573 1.495 . S
C570 C569 1.392 . S
C570 C571 1.385 . S
C570 C572 1.478 . S
C571 H565 0.930 . S
C571 C567 1.400 . S
C571 C570 1.385 . S
C572 C570 1.478 . S
C572 C574 1.381 . S
C572 C578 1.383 . S
C573 C569 1.495 . S
C573 H579 0.959 . S
C573 H580 0.961 . S
C573 H581 0.960 . S
C574 C572 1.381 . S
C574 C575 1.394 . S
C574 H582 0.930 . S
C575 C574 1.394 . S
C575 C576 1.383 . S
C575 H583 0.929 . S
C576 C575 1.383 . S
C576 C577 1.377 . S
C577 H561 0.930 . S
C577 C576 1.377 . S
C577 C578 1.379 . S
C578 H562 0.931 . S
C578 C572 1.383 . S
C578 C577 1.379 . S
H579 C573 0.959 . S
H580 C573 0.961 . S
H581 C573 0.960 . S
H582 C574 0.930 . S
H583 C575 0.929 . S
H584 C592 0.929 . S
H585 C594 0.930 . S
H586 C596 0.930 . S
H587 C599 0.929 . S
H588 C602 0.930 . S
H589 C604 0.960 . S
H590 C604 0.960 . S
H591 C604 0.960 . S
C592 H584 0.929 . S
C592 C593 1.377 . S
C592 C594 1.384 . S
C593 C592 1.377 . S
C593 C599 1.390 . S
C594 H585 0.930 . S
C594 C592 1.384 . S
C594 C595 1.372 . S
C595 C594 1.372 . S
C595 C596 1.400 . S
C595 C600 1.490 . S
C596 H586 0.930 . S
C596 C595 1.400 . S
C596 C599 1.386 . S
H597 C613 0.930 . S
H598 C614 0.931 . S
C599 H587 0.929 . S
C599 C593 1.390 . S
C599 C596 1.386 . S
C600 C595 1.490 . S
C600 C602 1.395 . S
C600 C603 1.403 . S
H601 C607 0.930 . S
C602 H588 0.930 . S
C602 C600 1.395 . S
C602 C605 1.403 . S
C603 C600 1.403 . S
C603 C604 1.524 . S
C603 C607 1.400 . S
C604 H589 0.960 . S
C604 H590 0.960 . S
C604 H591 0.960 . S
C604 C603 1.524 . S
C605 C602 1.403 . S
C605 C606 1.392 . S
C605 C609 1.495 . S
C606 C605 1.392 . S
C606 C607 1.385 . S
C606 C608 1.478 . S
C607 H601 0.930 . S
C607 C603 1.400 . S
C607 C606 1.385 . S
C608 C606 1.478 . S
C608 C610 1.381 . S
C608 C614 1.383 . S
C609 C605 1.495 . S
C609 H615 0.959 . S
C609 H616 0.961 . S
C609 H617 0.960 . S
C610 C608 1.381 . S
C610 C611 1.394 . S
C610 H618 0.930 . S
C611 C610 1.394 . S
C611 C612 1.383 . S
C611 H619 0.929 . S
C612 C611 1.383 . S
C612 C613 1.377 . S
C613 H597 0.930 . S
C613 C612 1.377 . S
C613 C614 1.379 . S
C614 H598 0.931 . S
C614 C608 1.383 . S
C614 C613 1.379 . S
H615 C609 0.959 . S
H616 C609 0.961 . S
H617 C609 0.960 . S
H618 C610 0.930 . S
H619 C611 0.929 . S
H620 C628 0.929 . S
H621 C630 0.930 . S
H622 C632 0.930 . S
H623 C635 0.929 . S
H624 C638 0.930 . S
H625 C640 0.960 . S
H626 C640 0.960 . S
H627 C640 0.960 . S
C628 H620 0.929 . S
C628 C629 1.377 . S
C628 C630 1.384 . S
C629 C628 1.377 . S
C629 C635 1.390 . S
C630 H621 0.930 . S
C630 C628 1.384 . S
C630 C631 1.372 . S
C631 C630 1.372 . S
C631 C632 1.400 . S
C631 C636 1.490 . S
C632 H622 0.930 . S
C632 C631 1.400 . S
C632 C635 1.386 . S
H633 C649 0.930 . S
H634 C650 0.931 . S
C635 H623 0.929 . S
C635 C629 1.390 . S
C635 C632 1.386 . S
C636 C631 1.490 . S
C636 C638 1.395 . S
C636 C639 1.403 . S
H637 C643 0.930 . S
C638 H624 0.930 . S
C638 C636 1.395 . S
C638 C641 1.403 . S
C639 C636 1.403 . S
C639 C640 1.524 . S
C639 C643 1.400 . S
C640 H625 0.960 . S
C640 H626 0.960 . S
C640 H627 0.960 . S
C640 C639 1.524 . S
C641 C638 1.403 . S
C641 C642 1.392 . S
C641 C645 1.495 . S
C642 C641 1.392 . S
C642 C643 1.385 . S
C642 C644 1.478 . S
C643 H637 0.930 . S
C643 C639 1.400 . S
C643 C642 1.385 . S
C644 C642 1.478 . S
C644 C646 1.381 . S
C644 C650 1.383 . S
C645 C641 1.495 . S
C645 H651 0.959 . S
C645 H652 0.961 . S
C645 H653 0.960 . S
C646 C644 1.381 . S
C646 C647 1.394 . S
C646 H654 0.930 . S
C647 C646 1.394 . S
C647 C648 1.383 . S
C647 H655 0.929 . S
C648 C647 1.383 . S
C648 C649 1.377 . S
C649 H633 0.930 . S
C649 C648 1.377 . S
C649 C650 1.379 . S
C650 H634 0.931 . S
C650 C644 1.383 . S
C650 C649 1.379 . S
H651 C645 0.959 . S
H652 C645 0.961 . S
H653 C645 0.960 . S
H654 C646 0.930 . S
H655 C647 0.929 . S
H656 C664 0.929 . S
H657 C666 0.930 . S
H658 C668 0.930 . S
H659 C671 0.929 . S
H660 C674 0.930 . S
H661 C676 0.960 . S
H662 C676 0.960 . S
H663 C676 0.960 . S
C664 H656 0.929 . S
C664 C665 1.377 . S
C664 C666 1.384 . S
C665 C664 1.377 . S
C665 C671 1.390 . S
C666 H657 0.930 . S
C666 C664 1.384 . S
C666 C667 1.372 . S
C667 C666 1.372 . S
C667 C668 1.400 . S
C667 C672 1.490 . S
C668 H658 0.930 . S
C668 C667 1.400 . S
C668 C671 1.386 . S
H669 C685 0.930 . S
H670 C686 0.931 . S
C671 H659 0.929 . S
C671 C665 1.390 . S
C671 C668 1.386 . S
C672 C667 1.490 . S
C672 C674 1.395 . S
C672 C675 1.403 . S
H673 C679 0.930 . S
C674 H660 0.930 . S
C674 C672 1.395 . S
C674 C677 1.403 . S
C675 C672 1.403 . S
C675 C676 1.524 . S
C675 C679 1.400 . S
C676 H661 0.960 . S
C676 H662 0.960 . S
C676 H663 0.960 . S
C676 C675 1.524 . S
C677 C674 1.403 . S
C677 C678 1.392 . S
C677 C681 1.495 . S
C678 C677 1.392 . S
C678 C679 1.385 . S
C678 C680 1.478 . S
C679 H673 0.930 . S
C679 C675 1.400 . S
C679 C678 1.385 . S
C680 C678 1.478 . S
C680 C682 1.381 . S
C680 C686 1.383 . S
C681 C677 1.495 . S
C681 H687 0.959 . S
C681 H688 0.961 . S
C681 H689 0.960 . S
C682 C680 1.381 . S
C682 C683 1.394 . S
C682 H690 0.930 . S
C683 C682 1.394 . S
C683 C684 1.383 . S
C683 H691 0.929 . S
C684 C683 1.383 . S
C684 C685 1.377 . S
C685 H669 0.930 . S
C685 C684 1.377 . S
C685 C686 1.379 . S
C686 H670 0.931 . S
C686 C680 1.383 . S
C686 C685 1.379 . S
H687 C681 0.959 . S
H688 C681 0.961 . S
H689 C681 0.960 . S
H690 C682 0.930 . S
H691 C683 0.929 . S
H692 C700 0.929 . S
H693 C702 0.930 . S
H694 C704 0.930 . S
H695 C707 0.929 . S
H696 C710 0.930 . S
H697 C712 0.960 . S
H698 C712 0.960 . S
H699 C712 0.960 . S
C700 H692 0.929 . S
C700 C701 1.377 . S
C700 C702 1.384 . S
C701 C700 1.377 . S
C701 C707 1.390 . S
C702 H693 0.930 . S
C702 C700 1.384 . S
C702 C703 1.372 . S
C703 C702 1.372 . S
C703 C704 1.400 . S
C703 C708 1.490 . S
C704 H694 0.930 . S
C704 C703 1.400 . S
C704 C707 1.386 . S
H705 C721 0.930 . S
H706 C722 0.931 . S
C707 H695 0.929 . S
C707 C701 1.390 . S
C707 C704 1.386 . S
C708 C703 1.490 . S
C708 C710 1.395 . S
C708 C711 1.403 . S
H709 C715 0.930 . S
C710 H696 0.930 . S
C710 C708 1.395 . S
C710 C713 1.403 . S
C711 C708 1.403 . S
C711 C712 1.524 . S
C711 C715 1.400 . S
C712 H697 0.960 . S
C712 H698 0.960 . S
C712 H699 0.960 . S
C712 C711 1.524 . S
C713 C710 1.403 . S
C713 C714 1.392 . S
C713 C717 1.495 . S
C714 C713 1.392 . S
C714 C715 1.385 . S
C714 C716 1.478 . S
C715 H709 0.930 . S
C715 C711 1.400 . S
C715 C714 1.385 . S
C716 C714 1.478 . S
C716 C718 1.381 . S
C716 C722 1.383 . S
C717 C713 1.495 . S
C717 H723 0.959 . S
C717 H724 0.961 . S
C717 H725 0.960 . S
C718 C716 1.381 . S
C718 C719 1.394 . S
C718 H726 0.930 . S
C719 C718 1.394 . S
C719 C720 1.383 . S
C719 H727 0.929 . S
C720 C719 1.383 . S
C720 C721 1.377 . S
C721 H705 0.930 . S
C721 C720 1.377 . S
C721 C722 1.379 . S
C722 H706 0.931 . S
C722 C716 1.383 . S
C722 C721 1.379 . S
H723 C717 0.959 . S
H724 C717 0.961 . S
H725 C717 0.960 . S
H726 C718 0.930 . S
H727 C719 0.929 . S
H728 C736 0.929 . S
H729 C738 0.930 . S
H730 C740 0.930 . S
H731 C743 0.929 . S
H732 C746 0.930 . S
H733 C748 0.960 . S
H734 C748 0.960 . S
H735 C748 0.960 . S
C736 H728 0.929 . S
C736 C737 1.377 . S
C736 C738 1.384 . S
C737 C736 1.377 . S
C737 C743 1.390 . S
C738 H729 0.930 . S
C738 C736 1.384 . S
C738 C739 1.372 . S
C739 C738 1.372 . S
C739 C740 1.400 . S
C739 C744 1.490 . S
C740 H730 0.930 . S
C740 C739 1.400 . S
C740 C743 1.386 . S
H741 C757 0.930 . S
H742 C758 0.931 . S
C743 H731 0.929 . S
C743 C737 1.390 . S
C743 C740 1.386 . S
C744 C739 1.490 . S
C744 C746 1.395 . S
C744 C747 1.403 . S
H745 C751 0.930 . S
C746 H732 0.930 . S
C746 C744 1.395 . S
C746 C749 1.403 . S
C747 C744 1.403 . S
C747 C748 1.524 . S
C747 C751 1.400 . S
C748 H733 0.960 . S
C748 H734 0.960 . S
C748 H735 0.960 . S
C748 C747 1.524 . S
C749 C746 1.403 . S
C749 C750 1.392 . S
C749 C753 1.495 . S
C750 C749 1.392 . S
C750 C751 1.385 . S
C750 C752 1.478 . S
C751 H745 0.930 . S
C751 C747 1.400 . S
C751 C750 1.385 . S
C752 C750 1.478 . S
C752 C754 1.381 . S
C752 C758 1.383 . S
C753 C749 1.495 . S
C753 H759 0.959 . S
C753 H760 0.961 . S
C753 H761 0.960 . S
C754 C752 1.381 . S
C754 C755 1.394 . S
C754 H762 0.930 . S
C755 C754 1.394 . S
C755 C756 1.383 . S
C755 H763 0.929 . S
C756 C755 1.383 . S
C756 C757 1.377 . S
C757 H741 0.930 . S
C757 C756 1.377 . S
C757 C758 1.379 . S
C758 H742 0.931 . S
C758 C752 1.383 . S
C758 C757 1.379 . S
H759 C753 0.959 . S
H760 C753 0.961 . S
H761 C753 0.960 . S
H762 C754 0.930 . S
H763 C755 0.929 . S
H764 C772 0.929 . S
H765 C774 0.930 . S
H766 C776 0.930 . S
H767 C779 0.929 . S
H768 C782 0.930 . S
H769 C784 0.960 . S
H770 C784 0.960 . S
H771 C784 0.960 . S
C772 H764 0.929 . S
C772 C773 1.377 . S
C772 C774 1.384 . S
C773 C772 1.377 . S
C773 C779 1.390 . S
C774 H765 0.930 . S
C774 C772 1.384 . S
C774 C775 1.372 . S
C775 C774 1.372 . S
C775 C776 1.400 . S
C775 C780 1.490 . S
C776 H766 0.930 . S
C776 C775 1.400 . S
C776 C779 1.386 . S
H777 C793 0.930 . S
H778 C794 0.931 . S
C779 H767 0.929 . S
C779 C773 1.390 . S
C779 C776 1.386 . S
C780 C775 1.490 . S
C780 C782 1.395 . S
C780 C783 1.403 . S
H781 C787 0.930 . S
C782 H768 0.930 . S
C782 C780 1.395 . S
C782 C785 1.403 . S
C783 C780 1.403 . S
C783 C784 1.524 . S
C783 C787 1.400 . S
C784 H769 0.960 . S
C784 H770 0.960 . S
C784 H771 0.960 . S
C784 C783 1.524 . S
C785 C782 1.403 . S
C785 C786 1.392 . S
C785 C789 1.495 . S
C786 C785 1.392 . S
C786 C787 1.385 . S
C786 C788 1.478 . S
C787 H781 0.930 . S
C787 C783 1.400 . S
C787 C786 1.385 . S
C788 C786 1.478 . S
C788 C790 1.381 . S
C788 C794 1.383 . S
C789 C785 1.495 . S
C789 H795 0.959 . S
C789 H796 0.961 . S
C789 H797 0.960 . S
C790 C788 1.381 . S
C790 C791 1.394 . S
C790 H798 0.930 . S
C791 C790 1.394 . S
C791 C792 1.383 . S
C791 H799 0.929 . S
C792 C791 1.383 . S
C792 C793 1.377 . S
C793 H777 0.930 . S
C793 C792 1.377 . S
C793 C794 1.379 . S
C794 H778 0.931 . S
C794 C788 1.383 . S
C794 C793 1.379 . S
H795 C789 0.959 . S
H796 C789 0.961 . S
H797 C789 0.960 . S
H798 C790 0.930 . S
H799 C791 0.929 . S
H800 C808 0.929 . S
H801 C810 0.930 . S
H802 C812 0.930 . S
H803 C815 0.929 . S
H804 C818 0.930 . S
H805 C820 0.960 . S
H806 C820 0.960 . S
H807 C820 0.960 . S
C808 H800 0.929 . S
C808 C809 1.377 . S
C808 C810 1.384 . S
C809 C808 1.377 . S
C809 C815 1.390 . S
C810 H801 0.930 . S
C810 C808 1.384 . S
C810 C811 1.372 . S
C811 C810 1.372 . S
C811 C812 1.400 . S
C811 C816 1.490 . S
C812 H802 0.930 . S
C812 C811 1.400 . S
C812 C815 1.386 . S
H813 C829 0.930 . S
H814 C830 0.931 . S
C815 H803 0.929 . S
C815 C809 1.390 . S
C815 C812 1.386 . S
C816 C811 1.490 . S
C816 C818 1.395 . S
C816 C819 1.403 . S
H817 C823 0.930 . S
C818 H804 0.930 . S
C818 C816 1.395 . S
C818 C821 1.403 . S
C819 C816 1.403 . S
C819 C820 1.524 . S
C819 C823 1.400 . S
C820 H805 0.960 . S
C820 H806 0.960 . S
C820 H807 0.960 . S
C820 C819 1.524 . S
C821 C818 1.403 . S
C821 C822 1.392 . S
C821 C825 1.495 . S
C822 C821 1.392 . S
C822 C823 1.385 . S
C822 C824 1.478 . S
C823 H817 0.930 . S
C823 C819 1.400 . S
C823 C822 1.385 . S
C824 C822 1.478 . S
C824 C826 1.381 . S
C824 C830 1.383 . S
C825 C821 1.495 . S
C825 H831 0.959 . S
C825 H832 0.961 . S
C825 H833 0.960 . S
C826 C824 1.381 . S
C826 C827 1.394 . S
C826 H834 0.930 . S
C827 C826 1.394 . S
C827 C828 1.383 . S
C827 H835 0.929 . S
C828 C827 1.383 . S
C828 C829 1.377 . S
C829 H813 0.930 . S
C829 C828 1.377 . S
C829 C830 1.379 . S
C830 H814 0.931 . S
C830 C824 1.383 . S
C830 C829 1.379 . S
H831 C825 0.959 . S
H832 C825 0.961 . S
H833 C825 0.960 . S
H834 C826 0.930 . S
H835 C827 0.929 . S
H836 C844 0.929 . S
H837 C846 0.930 . S
H838 C848 0.930 . S
H839 C851 0.929 . S
H840 C854 0.930 . S
H841 C856 0.960 . S
H842 C856 0.960 . S
H843 C856 0.960 . S
C844 H836 0.929 . S
C844 C845 1.377 . S
C844 C846 1.384 . S
C845 C844 1.377 . S
C845 C851 1.390 . S
C846 H837 0.930 . S
C846 C844 1.384 . S
C846 C847 1.372 . S
C847 C846 1.372 . S
C847 C848 1.400 . S
C847 C852 1.490 . S
C848 H838 0.930 . S
C848 C847 1.400 . S
C848 C851 1.386 . S
H849 C865 0.930 . S
H850 C866 0.931 . S
C851 H839 0.929 . S
C851 C845 1.390 . S
C851 C848 1.386 . S
C852 C847 1.490 . S
C852 C854 1.395 . S
C852 C855 1.403 . S
H853 C859 0.930 . S
C854 H840 0.930 . S
C854 C852 1.395 . S
C854 C857 1.403 . S
C855 C852 1.403 . S
C855 C856 1.524 . S
C855 C859 1.400 . S
C856 H841 0.960 . S
C856 H842 0.960 . S
C856 H843 0.960 . S
C856 C855 1.524 . S
C857 C854 1.403 . S
C857 C858 1.392 . S
C857 C861 1.495 . S
C858 C857 1.392 . S
C858 C859 1.385 . S
C858 C860 1.478 . S
C859 H853 0.930 . S
C859 C855 1.400 . S
C859 C858 1.385 . S
C860 C858 1.478 . S
C860 C862 1.381 . S
C860 C866 1.383 . S
C861 C857 1.495 . S
C861 H867 0.959 . S
C861 H868 0.961 . S
C861 H869 0.960 . S
C862 C860 1.381 . S
C862 C863 1.394 . S
C862 H870 0.930 . S
C863 C862 1.394 . S
C863 C864 1.383 . S
C863 H871 0.929 . S
C864 C863 1.383 . S
C864 C865 1.377 . S
C865 H849 0.930 . S
C865 C864 1.377 . S
C865 C866 1.379 . S
C866 H850 0.931 . S
C866 C860 1.383 . S
C866 C865 1.379 . S
H867 C861 0.959 . S
H868 C861 0.961 . S
H869 C861 0.960 . S
H870 C862 0.930 . S
H871 C863 0.929 . S
H872 C880 0.929 . S
H873 C882 0.930 . S
H874 C884 0.930 . S
H875 C887 0.929 . S
H876 C890 0.930 . S
H877 C892 0.960 . S
H878 C892 0.960 . S
H879 C892 0.960 . S
C880 H872 0.929 . S
C880 C881 1.377 . S
C880 C882 1.384 . S
C881 C880 1.377 . S
C881 C887 1.390 . S
C882 H873 0.930 . S
C882 C880 1.384 . S
C882 C883 1.372 . S
C883 C882 1.372 . S
C883 C884 1.400 . S
C883 C888 1.490 . S
C884 H874 0.930 . S
C884 C883 1.400 . S
C884 C887 1.386 . S
H885 C901 0.930 . S
H886 C902 0.931 . S
C887 H875 0.929 . S
C887 C881 1.390 . S
C887 C884 1.386 . S
C888 C883 1.490 . S
C888 C890 1.395 . S
C888 C891 1.403 . S
H889 C895 0.930 . S
C890 H876 0.930 . S
C890 C888 1.395 . S
C890 C893 1.403 . S
C891 C888 1.403 . S
C891 C892 1.524 . S
C891 C895 1.400 . S
C892 H877 0.960 . S
C892 H878 0.960 . S
C892 H879 0.960 . S
C892 C891 1.524 . S
C893 C890 1.403 . S
C893 C894 1.392 . S
C893 C897 1.495 . S
C894 C893 1.392 . S
C894 C895 1.385 . S
C894 C896 1.478 . S
C895 H889 0.930 . S
C895 C891 1.400 . S
C895 C894 1.385 . S
C896 C894 1.478 . S
C896 C898 1.381 . S
C896 C902 1.383 . S
C897 C893 1.495 . S
C897 H903 0.959 . S
C897 H904 0.961 . S
C897 H905 0.960 . S
C898 C896 1.381 . S
C898 C899 1.394 . S
C898 H906 0.930 . S
C899 C898 1.394 . S
C899 C900 1.383 . S
C899 H907 0.929 . S
C900 C899 1.383 . S
C900 C901 1.377 . S
C901 H885 0.930 . S
C901 C900 1.377 . S
C901 C902 1.379 . S
C902 H886 0.931 . S
C902 C896 1.383 . S
C902 C901 1.379 . S
H903 C897 0.959 . S
H904 C897 0.961 . S
H905 C897 0.960 . S
H906 C898 0.930 . S
H907 C899 0.929 . S
H908 C916 0.929 . S
H909 C918 0.930 . S
H910 C920 0.930 . S
H911 C923 0.929 . S
H912 C926 0.930 . S
H913 C928 0.960 . S
H914 C928 0.960 . S
H915 C928 0.960 . S
C916 H908 0.929 . S
C916 C917 1.377 . S
C916 C918 1.384 . S
C917 C916 1.377 . S
C917 C923 1.390 . S
C918 H909 0.930 . S
C918 C916 1.384 . S
C918 C919 1.372 . S
C919 C918 1.372 . S
C919 C920 1.400 . S
C919 C924 1.490 . S
C920 H910 0.930 . S
C920 C919 1.400 . S
C920 C923 1.386 . S
H921 C937 0.930 . S
H922 C938 0.931 . S
C923 H911 0.929 . S
C923 C917 1.390 . S
C923 C920 1.386 . S
C924 C919 1.490 . S
C924 C926 1.395 . S
C924 C927 1.403 . S
H925 C931 0.930 . S
C926 H912 0.930 . S
C926 C924 1.395 . S
C926 C929 1.403 . S
C927 C924 1.403 . S
C927 C928 1.524 . S
C927 C931 1.400 . S
C928 H913 0.960 . S
C928 H914 0.960 . S
C928 H915 0.960 . S
C928 C927 1.524 . S
C929 C926 1.403 . S
C929 C930 1.392 . S
C929 C933 1.495 . S
C930 C929 1.392 . S
C930 C931 1.385 . S
C930 C932 1.478 . S
C931 H925 0.930 . S
C931 C927 1.400 . S
C931 C930 1.385 . S
C932 C930 1.478 . S
C932 C934 1.381 . S
C932 C938 1.383 . S
C933 C929 1.495 . S
C933 H939 0.959 . S
C933 H940 0.961 . S
C933 H941 0.960 . S
C934 C932 1.381 . S
C934 C935 1.394 . S
C934 H942 0.930 . S
C935 C934 1.394 . S
C935 C936 1.383 . S
C935 H943 0.929 . S
C936 C935 1.383 . S
C936 C937 1.377 . S
C937 H921 0.930 . S
C937 C936 1.377 . S
C937 C938 1.379 . S
C938 H922 0.931 . S
C938 C932 1.383 . S
C938 C937 1.379 . S
H939 C933 0.959 . S
H940 C933 0.961 . S
H941 C933 0.960 . S
H942 C934 0.930 . S
H943 C935 0.929 . S
H944 C952 0.929 . S
H945 C954 0.930 . S
H946 C956 0.930 . S
H947 C959 0.929 . S
H948 C962 0.930 . S
H949 C964 0.960 . S
H950 C964 0.960 . S
H951 C964 0.960 . S
C952 H944 0.929 . S
C952 C953 1.377 . S
C952 C954 1.384 . S
C953 C952 1.377 . S
C953 C959 1.390 . S
C954 H945 0.930 . S
C954 C952 1.384 . S
C954 C955 1.372 . S
C955 C954 1.372 . S
C955 C956 1.400 . S
C955 C960 1.490 . S
C956 H946 0.930 . S
C956 C955 1.400 . S
C956 C959 1.386 . S
H957 C973 0.930 . S
H958 C974 0.931 . S
C959 H947 0.929 . S
C959 C953 1.390 . S
C959 C956 1.386 . S
C960 C955 1.490 . S
C960 C962 1.395 . S
C960 C963 1.403 . S
H961 C967 0.930 . S
C962 H948 0.930 . S
C962 C960 1.395 . S
C962 C965 1.403 . S
C963 C960 1.403 . S
C963 C964 1.524 . S
C963 C967 1.400 . S
C964 H949 0.960 . S
C964 H950 0.960 . S
C964 H951 0.960 . S
C964 C963 1.524 . S
C965 C962 1.403 . S
C965 C966 1.392 . S
C965 C969 1.495 . S
C966 C965 1.392 . S
C966 C967 1.385 . S
C966 C968 1.478 . S
C967 H961 0.930 . S
C967 C963 1.400 . S
C967 C966 1.385 . S
C968 C966 1.478 . S
C968 C970 1.381 . S
C968 C974 1.383 . S
C969 C965 1.495 . S
C969 H975 0.959 . S
C969 H976 0.961 . S
C969 H977 0.960 . S
C970 C968 1.381 . S
C970 C971 1.394 . S
C970 H978 0.930 . S
C971 C970 1.394 . S
C971 C972 1.383 . S
C971 H979 0.929 . S
C972 C971 1.383 . S
C972 C973 1.377 . S
C973 H957 0.930 . S
C973 C972 1.377 . S
C973 C974 1.379 . S
C974 H958 0.931 . S
C974 C968 1.383 . S
C974 C973 1.379 . S
H975 C969 0.959 . S
H976 C969 0.961 . S
H977 C969 0.960 . S
H978 C970 0.930 . S
H979 C971 0.929 . S
H980 C988 0.929 . S
H981 C990 0.930 . S
H982 C992 0.930 . S
H983 C995 0.929 . S
H984 C998 0.930 . S
H985 C1000 0.960 . S
H986 C1000 0.960 . S
H987 C1000 0.960 . S
C988 H980 0.929 . S
C988 C989 1.377 . S
C988 C990 1.384 . S
C989 C988 1.377 . S
C989 C995 1.390 . S
C990 H981 0.930 . S
C990 C988 1.384 . S
C990 C991 1.372 . S
C991 C990 1.372 . S
C991 C992 1.400 . S
C991 C996 1.490 . S
C992 H982 0.930 . S
C992 C991 1.400 . S
C992 C995 1.386 . S
H993 C1009 0.930 . S
H994 C1010 0.931 . S
C995 H983 0.929 . S
C995 C989 1.390 . S
C995 C992 1.386 . S
C996 C991 1.490 . S
C996 C998 1.395 . S
C996 C999 1.403 . S
H997 C1003 0.930 . S
C998 H984 0.930 . S
C998 C996 1.395 . S
C998 C1001 1.403 . S
C999 C996 1.403 . S
C999 C1000 1.524 . S
C999 C1003 1.400 . S
C1000 H985 0.960 . S
C1000 H986 0.960 . S
C1000 H987 0.960 . S
C1000 C999 1.524 . S
C1001 C998 1.403 . S
C1001 C1002 1.392 . S
C1001 C1005 1.495 . S
C1002 C1001 1.392 . S
C1002 C1003 1.385 . S
C1002 C1004 1.478 . S
C1003 H997 0.930 . S
C1003 C999 1.400 . S
C1003 C1002 1.385 . S
C1004 C1002 1.478 . S
C1004 C1006 1.381 . S
C1004 C1010 1.383 . S
C1005 C1001 1.495 . S
C1005 H1011 0.959 . S
C1005 H1012 0.961 . S
C1005 H1013 0.960 . S
C1006 C1004 1.381 . S
C1006 C1007 1.394 . S
C1006 H1014 0.930 . S
C1007 C1006 1.394 . S
C1007 C1008 1.383 . S
C1007 H1015 0.929 . S
C1008 C1007 1.383 . S
C1008 C1009 1.377 . S
C1009 H993 0.930 . S
C1009 C1008 1.377 . S
C1009 C1010 1.379 . S
C1010 H994 0.931 . S
C1010 C1004 1.383 . S
C1010 C1009 1.379 . S
H1011 C1005 0.959 . S
H1012 C1005 0.961 . S
H1013 C1005 0.960 . S
H1014 C1006 0.930 . S
H1015 C1007 0.929 . S
H1016 C1024 0.929 . S
H1017 C1026 0.930 . S
H1018 C1028 0.930 . S
H1019 C1031 0.929 . S
H1020 C1034 0.930 . S
H1021 C1036 0.960 . S
H1022 C1036 0.960 . S
H1023 C1036 0.960 . S
C1024 H1016 0.929 . S
C1024 C1025 1.377 . S
C1024 C1026 1.384 . S
C1025 C1024 1.377 . S
C1025 C1031 1.390 . S
C1026 H1017 0.930 . S
C1026 C1024 1.384 . S
C1026 C1027 1.372 . S
C1027 C1026 1.372 . S
C1027 C1028 1.400 . S
C1027 C1032 1.490 . S
C1028 H1018 0.930 . S
C1028 C1027 1.400 . S
C1028 C1031 1.386 . S
H1029 C1045 0.930 . S
H1030 C1046 0.931 . S
C1031 H1019 0.929 . S
C1031 C1025 1.390 . S
C1031 C1028 1.386 . S
C1032 C1027 1.490 . S
C1032 C1034 1.395 . S
C1032 C1035 1.403 . S
H1033 C1039 0.930 . S
C1034 H1020 0.930 . S
C1034 C1032 1.395 . S
C1034 C1037 1.403 . S
C1035 C1032 1.403 . S
C1035 C1036 1.524 . S
C1035 C1039 1.400 . S
C1036 H1021 0.960 . S
C1036 H1022 0.960 . S
C1036 H1023 0.960 . S
C1036 C1035 1.524 . S
C1037 C1034 1.403 . S
C1037 C1038 1.392 . S
C1037 C1041 1.495 . S
C1038 C1037 1.392 . S
C1038 C1039 1.385 . S
C1038 C1040 1.478 . S
C1039 H1033 0.930 . S
C1039 C1035 1.400 . S
C1039 C1038 1.385 . S
C1040 C1038 1.478 . S
C1040 C1042 1.381 . S
C1040 C1046 1.383 . S
C1041 C1037 1.495 . S
C1041 H1047 0.959 . S
C1041 H1048 0.961 . S
C1041 H1049 0.960 . S
C1042 C1040 1.381 . S
C1042 C1043 1.394 . S
C1042 H1050 0.930 . S
C1043 C1042 1.394 . S
C1043 C1044 1.383 . S
C1043 H1051 0.929 . S
C1044 C1043 1.383 . S
C1044 C1045 1.377 . S
C1045 H1029 0.930 . S
C1045 C1044 1.377 . S
C1045 C1046 1.379 . S
C1046 H1030 0.931 . S
C1046 C1040 1.383 . S
C1046 C1045 1.379 . S
H1047 C1041 0.959 . S
H1048 C1041 0.961 . S
H1049 C1041 0.960 . S
H1050 C1042 0.930 . S
H1051 C1043 0.929 . S
H1052 C1060 0.929 . S
H1053 C1062 0.930 . S
H1054 C1064 0.930 . S
H1055 C1067 0.929 . S
H1056 C1070 0.930 . S
H1057 C1072 0.960 . S
H1058 C1072 0.960 . S
H1059 C1072 0.960 . S
C1060 H1052 0.929 . S
C1060 C1061 1.377 . S
C1060 C1062 1.384 . S
C1061 C1060 1.377 . S
C1061 C1067 1.390 . S
C1062 H1053 0.930 . S
C1062 C1060 1.384 . S
C1062 C1063 1.372 . S
C1063 C1062 1.372 . S
C1063 C1064 1.400 . S
C1063 C1068 1.490 . S
C1064 H1054 0.930 . S
C1064 C1063 1.400 . S
C1064 C1067 1.386 . S
H1065 C1081 0.930 . S
H1066 C1082 0.931 . S
C1067 H1055 0.929 . S
C1067 C1061 1.390 . S
C1067 C1064 1.386 . S
C1068 C1063 1.490 . S
C1068 C1070 1.395 . S
C1068 C1071 1.403 . S
H1069 C1075 0.930 . S
C1070 H1056 0.930 . S
C1070 C1068 1.395 . S
C1070 C1073 1.403 . S
C1071 C1068 1.403 . S
C1071 C1072 1.524 . S
C1071 C1075 1.400 . S
C1072 H1057 0.960 . S
C1072 H1058 0.960 . S
C1072 H1059 0.960 . S
C1072 C1071 1.524 . S
C1073 C1070 1.403 . S
C1073 C1074 1.392 . S
C1073 C1077 1.495 . S
C1074 C1073 1.392 . S
C1074 C1075 1.385 . S
C1074 C1076 1.478 . S
C1075 H1069 0.930 . S
C1075 C1071 1.400 . S
C1075 C1074 1.385 . S
C1076 C1074 1.478 . S
C1076 C1078 1.381 . S
C1076 C1082 1.383 . S
C1077 C1073 1.495 . S
C1077 H1083 0.959 . S
C1077 H1084 0.961 . S
C1077 H1085 0.960 . S
C1078 C1076 1.381 . S
C1078 C1079 1.394 . S
C1078 H1086 0.930 . S
C1079 C1078 1.394 . S
C1079 C1080 1.383 . S
C1079 H1087 0.929 . S
C1080 C1079 1.383 . S
C1080 C1081 1.377 . S
C1081 H1065 0.930 . S
C1081 C1080 1.377 . S
C1081 C1082 1.379 . S
C1082 H1066 0.931 . S
C1082 C1076 1.383 . S
C1082 C1081 1.379 . S
H1083 C1077 0.959 . S
H1084 C1077 0.961 . S
H1085 C1077 0.960 . S
H1086 C1078 0.930 . S
H1087 C1079 0.929 . S
H1088 C1096 0.929 . S
H1089 C1098 0.930 . S
H1090 C1100 0.930 . S
H1091 C1103 0.929 . S
H1092 C1106 0.930 . S
H1093 C1108 0.960 . S
H1094 C1108 0.960 . S
H1095 C1108 0.960 . S
C1096 H1088 0.929 . S
C1096 C1097 1.377 . S
C1096 C1098 1.384 . S
C1097 C1096 1.377 . S
C1097 C1103 1.390 . S
C1098 H1089 0.930 . S
C1098 C1096 1.384 . S
C1098 C1099 1.372 . S
C1099 C1098 1.372 . S
C1099 C1100 1.400 . S
C1099 C1104 1.490 . S
C1100 H1090 0.930 . S
C1100 C1099 1.400 . S
C1100 C1103 1.386 . S
H1101 C1117 0.930 . S
H1102 C1118 0.931 . S
C1103 H1091 0.929 . S
C1103 C1097 1.390 . S
C1103 C1100 1.386 . S
C1104 C1099 1.490 . S
C1104 C1106 1.395 . S
C1104 C1107 1.403 . S
H1105 C1111 0.930 . S
C1106 H1092 0.930 . S
C1106 C1104 1.395 . S
C1106 C1109 1.403 . S
C1107 C1104 1.403 . S
C1107 C1108 1.524 . S
C1107 C1111 1.400 . S
C1108 H1093 0.960 . S
C1108 H1094 0.960 . S
C1108 H1095 0.960 . S
C1108 C1107 1.524 . S
C1109 C1106 1.403 . S
C1109 C1110 1.392 . S
C1109 C1113 1.495 . S
C1110 C1109 1.392 . S
C1110 C1111 1.385 . S
C1110 C1112 1.478 . S
C1111 H1105 0.930 . S
C1111 C1107 1.400 . S
C1111 C1110 1.385 . S
C1112 C1110 1.478 . S
C1112 C1114 1.381 . S
C1112 C1118 1.383 . S
C1113 C1109 1.495 . S
C1113 H1119 0.959 . S
C1113 H1120 0.961 . S
C1113 H1121 0.960 . S
C1114 C1112 1.381 . S
C1114 C1115 1.394 . S
C1114 H1122 0.930 . S
C1115 C1114 1.394 . S
C1115 C1116 1.383 . S
C1115 H1123 0.929 . S
C1116 C1115 1.383 . S
C1116 C1117 1.377 . S
C1117 H1101 0.930 . S
C1117 C1116 1.377 . S
C1117 C1118 1.379 . S
C1118 H1102 0.931 . S
C1118 C1112 1.383 . S
C1118 C1117 1.379 . S
H1119 C1113 0.959 . S
H1120 C1113 0.961 . S
H1121 C1113 0.960 . S
H1122 C1114 0.930 . S
H1123 C1115 0.929 . S
H1124 C1132 0.929 . S
H1125 C1134 0.930 . S
H1126 C1136 0.930 . S
H1127 C1139 0.929 . S
H1128 C1142 0.930 . S
H1129 C1144 0.960 . S
H1130 C1144 0.960 . S
H1131 C1144 0.960 . S
C1132 H1124 0.929 . S
C1132 C1133 1.377 . S
C1132 C1134 1.384 . S
C1133 C1132 1.377 . S
C1133 C1139 1.390 . S
C1134 H1125 0.930 . S
C1134 C1132 1.384 . S
C1134 C1135 1.372 . S
C1135 C1134 1.372 . S
C1135 C1136 1.400 . S
C1135 C1140 1.490 . S
C1136 H1126 0.930 . S
C1136 C1135 1.400 . S
C1136 C1139 1.386 . S
H1137 C1153 0.930 . S
H1138 C1154 0.931 . S
C1139 H1127 0.929 . S
C1139 C1133 1.390 . S
C1139 C1136 1.386 . S
C1140 C1135 1.490 . S
C1140 C1142 1.395 . S
C1140 C1143 1.403 . S
H1141 C1147 0.930 . S
C1142 H1128 0.930 . S
C1142 C1140 1.395 . S
C1142 C1145 1.403 . S
C1143 C1140 1.403 . S
C1143 C1144 1.524 . S
C1143 C1147 1.400 . S
C1144 H1129 0.960 . S
C1144 H1130 0.960 . S
C1144 H1131 0.960 . S
C1144 C1143 1.524 . S
C1145 C1142 1.403 . S
C1145 C1146 1.392 . S
C1145 C1149 1.495 . S
C1146 C1145 1.392 . S
C1146 C1147 1.385 . S
C1146 C1148 1.478 . S
C1147 H1141 0.930 . S
C1147 C1143 1.400 . S
C1147 C1146 1.385 . S
C1148 C1146 1.478 . S
C1148 C1150 1.381 . S
C1148 C1154 1.383 . S
C1149 C1145 1.495 . S
C1149 H1155 0.959 . S
C1149 H1156 0.961 . S
C1149 H1157 0.960 . S
C1150 C1148 1.381 . S
C1150 C1151 1.394 . S
C1150 H1158 0.930 . S
C1151 C1150 1.394 . S
C1151 C1152 1.383 . S
C1151 H1159 0.929 . S
C1152 C1151 1.383 . S
C1152 C1153 1.377 . S
C1153 H1137 0.930 . S
C1153 C1152 1.377 . S
C1153 C1154 1.379 . S
C1154 H1138 0.931 . S
C1154 C1148 1.383 . S
C1154 C1153 1.379 . S
H1155 C1149 0.959 . S
H1156 C1149 0.961 . S
H1157 C1149 0.960 . S
H1158 C1150 0.930 . S
H1159 C1151 0.929 . S
H1160 C1168 0.929 . S
H1161 C1170 0.930 . S
H1162 C1172 0.930 . S
H1163 C1175 0.929 . S
H1164 C1178 0.930 . S
H1165 C1180 0.960 . S
H1166 C1180 0.960 . S
H1167 C1180 0.960 . S
C1168 H1160 0.929 . S
C1168 C1169 1.377 . S
C1168 C1170 1.384 . S
C1169 C1168 1.377 . S
C1169 C1175 1.390 . S
C1170 H1161 0.930 . S
C1170 C1168 1.384 . S
C1170 C1171 1.372 . S
C1171 C1170 1.372 . S
C1171 C1172 1.400 . S
C1171 C1176 1.490 . S
C1172 H1162 0.930 . S
C1172 C1171 1.400 . S
C1172 C1175 1.386 . S
H1173 C1189 0.930 . S
H1174 C1190 0.931 . S
C1175 H1163 0.929 . S
C1175 C1169 1.390 . S
C1175 C1172 1.386 . S
C1176 C1171 1.490 . S
C1176 C1178 1.395 . S
C1176 C1179 1.403 . S
H1177 C1183 0.930 . S
C1178 H1164 0.930 . S
C1178 C1176 1.395 . S
C1178 C1181 1.403 . S
C1179 C1176 1.403 . S
C1179 C1180 1.524 . S
C1179 C1183 1.400 . S
C1180 H1165 0.960 . S
C1180 H1166 0.960 . S
C1180 H1167 0.960 . S
C1180 C1179 1.524 . S
C1181 C1178 1.403 . S
C1181 C1182 1.392 . S
C1181 C1185 1.495 . S
C1182 C1181 1.392 . S
C1182 C1183 1.385 . S
C1182 C1184 1.478 . S
C1183 H1177 0.930 . S
C1183 C1179 1.400 . S
C1183 C1182 1.385 . S
C1184 C1182 1.478 . S
C1184 C1186 1.381 . S
C1184 C1190 1.383 . S
C1185 C1181 1.495 . S
C1185 H1191 0.959 . S
C1185 H1192 0.961 . S
C1185 H1193 0.960 . S
C1186 C1184 1.381 . S
C1186 C1187 1.394 . S
C1186 H1194 0.930 . S
C1187 C1186 1.394 . S
C1187 C1188 1.383 . S
C1187 H1195 0.929 . S
C1188 C1187 1.383 . S
C1188 C1189 1.377 . S
C1189 H1173 0.930 . S
C1189 C1188 1.377 . S
C1189 C1190 1.379 . S
C1190 H1174 0.931 . S
C1190 C1184 1.383 . S
C1190 C1189 1.379 . S
H1191 C1185 0.959 . S
H1192 C1185 0.961 . S
H1193 C1185 0.960 . S
H1194 C1186 0.930 . S
H1195 C1187 0.929 . S
H1196 C1204 0.929 . S
H1197 C1206 0.930 . S
H1198 C1208 0.930 . S
H1199 C1211 0.929 . S
H1200 C1214 0.930 . S
H1201 C1216 0.960 . S
H1202 C1216 0.960 . S
H1203 C1216 0.960 . S
C1204 H1196 0.929 . S
C1204 C1205 1.377 . S
C1204 C1206 1.384 . S
C1205 C1204 1.377 . S
C1205 C1211 1.390 . S
C1206 H1197 0.930 . S
C1206 C1204 1.384 . S
C1206 C1207 1.372 . S
C1207 C1206 1.372 . S
C1207 C1208 1.400 . S
C1207 C1212 1.490 . S
C1208 H1198 0.930 . S
C1208 C1207 1.400 . S
C1208 C1211 1.386 . S
H1209 C1225 0.930 . S
H1210 C1226 0.931 . S
C1211 H1199 0.929 . S
C1211 C1205 1.390 . S
C1211 C1208 1.386 . S
C1212 C1207 1.490 . S
C1212 C1214 1.395 . S
C1212 C1215 1.403 . S
H1213 C1219 0.930 . S
C1214 H1200 0.930 . S
C1214 C1212 1.395 . S
C1214 C1217 1.403 . S
C1215 C1212 1.403 . S
C1215 C1216 1.524 . S
C1215 C1219 1.400 . S
C1216 H1201 0.960 . S
C1216 H1202 0.960 . S
C1216 H1203 0.960 . S
C1216 C1215 1.524 . S
C1217 C1214 1.403 . S
C1217 C1218 1.392 . S
C1217 C1221 1.495 . S
C1218 C1217 1.392 . S
C1218 C1219 1.385 . S
C1218 C1220 1.478 . S
C1219 H1213 0.930 . S
C1219 C1215 1.400 . S
C1219 C1218 1.385 . S
C1220 C1218 1.478 . S
C1220 C1222 1.381 . S
C1220 C1226 1.383 . S
C1221 C1217 1.495 . S
C1221 H1227 0.959 . S
C1221 H1228 0.961 . S
C1221 H1229 0.960 . S
C1222 C1220 1.381 . S
C1222 C1223 1.394 . S
C1222 H1230 0.930 . S
C1223 C1222 1.394 . S
C1223 C1224 1.383 . S
C1223 H1231 0.929 . S
C1224 C1223 1.383 . S
C1224 C1225 1.377 . S
C1225 H1209 0.930 . S
C1225 C1224 1.377 . S
C1225 C1226 1.379 . S
C1226 H1210 0.931 . S
C1226 C1220 1.383 . S
C1226 C1225 1.379 . S
H1227 C1221 0.959 . S
H1228 C1221 0.961 . S
H1229 C1221 0.960 . S
H1230 C1222 0.930 . S
H1231 C1223 0.929 . S
H1232 C1240 0.929 . S
H1233 C1242 0.930 . S
H1234 C1244 0.930 . S
H1235 C1247 0.929 . S
H1236 C1250 0.930 . S
H1237 C1252 0.960 . S
H1238 C1252 0.960 . S
H1239 C1252 0.960 . S
C1240 H1232 0.929 . S
C1240 C1241 1.377 . S
C1240 C1242 1.384 . S
C1241 C1240 1.377 . S
C1241 C1247 1.390 . S
C1242 H1233 0.930 . S
C1242 C1240 1.384 . S
C1242 C1243 1.372 . S
C1243 C1242 1.372 . S
C1243 C1244 1.400 . S
C1243 C1248 1.490 . S
C1244 H1234 0.930 . S
C1244 C1243 1.400 . S
C1244 C1247 1.386 . S
H1245 C1261 0.930 . S
H1246 C1262 0.931 . S
C1247 H1235 0.929 . S
C1247 C1241 1.390 . S
C1247 C1244 1.386 . S
C1248 C1243 1.490 . S
C1248 C1250 1.395 . S
C1248 C1251 1.403 . S
H1249 C1255 0.930 . S
C1250 H1236 0.930 . S
C1250 C1248 1.395 . S
C1250 C1253 1.403 . S
C1251 C1248 1.403 . S
C1251 C1252 1.524 . S
C1251 C1255 1.400 . S
C1252 H1237 0.960 . S
C1252 H1238 0.960 . S
C1252 H1239 0.960 . S
C1252 C1251 1.524 . S
C1253 C1250 1.403 . S
C1253 C1254 1.392 . S
C1253 C1257 1.495 . S
C1254 C1253 1.392 . S
C1254 C1255 1.385 . S
C1254 C1256 1.478 . S
C1255 H1249 0.930 . S
C1255 C1251 1.400 . S
C1255 C1254 1.385 . S
C1256 C1254 1.478 . S
C1256 C1258 1.381 . S
C1256 C1262 1.383 . S
C1257 C1253 1.495 . S
C1257 H1263 0.959 . S
C1257 H1264 0.961 . S
C1257 H1265 0.960 . S
C1258 C1256 1.381 . S
C1258 C1259 1.394 . S
C1258 H1266 0.930 . S
C1259 C1258 1.394 . S
C1259 C1260 1.383 . S
C1259 H1267 0.929 . S
C1260 C1259 1.383 . S
C1260 C1261 1.377 . S
C1261 H1245 0.930 . S
C1261 C1260 1.377 . S
C1261 C1262 1.379 . S
C1262 H1246 0.931 . S
C1262 C1256 1.383 . S
C1262 C1261 1.379 . S
H1263 C1257 0.959 . S
H1264 C1257 0.961 . S
H1265 C1257 0.960 . S
H1266 C1258 0.930 . S
H1267 C1259 0.929 . S
H1268 C1276 0.929 . S
H1269 C1278 0.930 . S
H1270 C1280 0.930 . S
H1271 C1283 0.929 . S
H1272 C1286 0.930 . S
H1273 C1288 0.960 . S
H1274 C1288 0.960 . S
H1275 C1288 0.960 . S
C1276 H1268 0.929 . S
C1276 C1277 1.377 . S
C1276 C1278 1.384 . S
C1277 C1276 1.377 . S
C1277 C1283 1.390 . S
C1278 H1269 0.930 . S
C1278 C1276 1.384 . S
C1278 C1279 1.372 . S
C1279 C1278 1.372 . S
C1279 C1280 1.400 . S
C1279 C1284 1.490 . S
C1280 H1270 0.930 . S
C1280 C1279 1.400 . S
C1280 C1283 1.386 . S
H1281 C1297 0.930 . S
H1282 C1298 0.931 . S
C1283 H1271 0.929 . S
C1283 C1277 1.390 . S
C1283 C1280 1.386 . S
C1284 C1279 1.490 . S
C1284 C1286 1.395 . S
C1284 C1287 1.403 . S
H1285 C1291 0.930 . S
C1286 H1272 0.930 . S
C1286 C1284 1.395 . S
C1286 C1289 1.403 . S
C1287 C1284 1.403 . S
C1287 C1288 1.524 . S
C1287 C1291 1.400 . S
C1288 H1273 0.960 . S
C1288 H1274 0.960 . S
C1288 H1275 0.960 . S
C1288 C1287 1.524 . S
C1289 C1286 1.403 . S
C1289 C1290 1.392 . S
C1289 C1293 1.495 . S
C1290 C1289 1.392 . S
C1290 C1291 1.385 . S
C1290 C1292 1.478 . S
C1291 H1285 0.930 . S
C1291 C1287 1.400 . S
C1291 C1290 1.385 . S
C1292 C1290 1.478 . S
C1292 C1294 1.381 . S
C1292 C1298 1.383 . S
C1293 C1289 1.495 . S
C1293 H1299 0.959 . S
C1293 H1300 0.961 . S
C1293 H1301 0.960 . S
C1294 C1292 1.381 . S
C1294 C1295 1.394 . S
C1294 H1302 0.930 . S
C1295 C1294 1.394 . S
C1295 C1296 1.383 . S
C1295 H1303 0.929 . S
C1296 C1295 1.383 . S
C1296 C1297 1.377 . S
C1297 H1281 0.930 . S
C1297 C1296 1.377 . S
C1297 C1298 1.379 . S
C1298 H1282 0.931 . S
C1298 C1292 1.383 . S
C1298 C1297 1.379 . S
H1299 C1293 0.959 . S
H1300 C1293 0.961 . S
H1301 C1293 0.960 . S
H1302 C1294 0.930 . S
H1303 C1295 0.929 . S
H1304 C1312 0.929 . S
H1305 C1314 0.930 . S
H1306 C1316 0.930 . S
H1307 C1319 0.929 . S
H1308 C1322 0.930 . S
H1309 C1324 0.960 . S
H1310 C1324 0.960 . S
H1311 C1324 0.960 . S
C1312 H1304 0.929 . S
C1312 C1313 1.377 . S
C1312 C1314 1.384 . S
C1313 C1312 1.377 . S
C1313 C1319 1.390 . S
C1314 H1305 0.930 . S
C1314 C1312 1.384 . S
C1314 C1315 1.372 . S
C1315 C1314 1.372 . S
C1315 C1316 1.400 . S
C1315 C1320 1.490 . S
C1316 H1306 0.930 . S
C1316 C1315 1.400 . S
C1316 C1319 1.386 . S
H1317 C1333 0.930 . S
H1318 C1334 0.931 . S
C1319 H1307 0.929 . S
C1319 C1313 1.390 . S
C1319 C1316 1.386 . S
C1320 C1315 1.490 . S
C1320 C1322 1.395 . S
C1320 C1323 1.403 . S
H1321 C1327 0.930 . S
C1322 H1308 0.930 . S
C1322 C1320 1.395 . S
C1322 C1325 1.403 . S
C1323 C1320 1.403 . S
C1323 C1324 1.524 . S
C1323 C1327 1.400 . S
C1324 H1309 0.960 . S
C1324 H1310 0.960 . S
C1324 H1311 0.960 . S
C1324 C1323 1.524 . S
C1325 C1322 1.403 . S
C1325 C1326 1.392 . S
C1325 C1329 1.495 . S
C1326 C1325 1.392 . S
C1326 C1327 1.385 . S
C1326 C1328 1.478 . S
C1327 H1321 0.930 . S
C1327 C1323 1.400 . S
C1327 C1326 1.385 . S
C1328 C1326 1.478 . S
C1328 C1330 1.381 . S
C1328 C1334 1.383 . S
C1329 C1325 1.495 . S
C1329 H1335 0.959 . S
C1329 H1336 0.961 . S
C1329 H1337 0.960 . S
C1330 C1328 1.381 . S
C1330 C1331 1.394 . S
C1330 H1338 0.930 . S
C1331 C1330 1.394 . S
C1331 C1332 1.383 . S
C1331 H1339 0.929 . S
C1332 C1331 1.383 . S
C1332 C1333 1.377 . S
C1333 H1317 0.930 . S
C1333 C1332 1.377 . S
C1333 C1334 1.379 . S
C1334 H1318 0.931 . S
C1334 C1328 1.383 . S
C1334 C1333 1.379 . S
H1335 C1329 0.959 . S
H1336 C1329 0.961 . S
H1337 C1329 0.960 . S
H1338 C1330 0.930 . S
H1339 C1331 0.929 . S
H1340 C1348 0.929 . S
H1341 C1350 0.930 . S
H1342 C1352 0.930 . S
H1343 C1355 0.929 . S
H1344 C1358 0.930 . S
H1345 C1360 0.960 . S
H1346 C1360 0.960 . S
H1347 C1360 0.960 . S
C1348 H1340 0.929 . S
C1348 C1349 1.377 . S
C1348 C1350 1.384 . S
C1349 C1348 1.377 . S
C1349 C1355 1.390 . S
C1350 H1341 0.930 . S
C1350 C1348 1.384 . S
C1350 C1351 1.372 . S
C1351 C1350 1.372 . S
C1351 C1352 1.400 . S
C1351 C1356 1.490 . S
C1352 H1342 0.930 . S
C1352 C1351 1.400 . S
C1352 C1355 1.386 . S
H1353 C1369 0.930 . S
H1354 C1370 0.931 . S
C1355 H1343 0.929 . S
C1355 C1349 1.390 . S
C1355 C1352 1.386 . S
C1356 C1351 1.490 . S
C1356 C1358 1.395 . S
C1356 C1359 1.403 . S
H1357 C1363 0.930 . S
C1358 H1344 0.930 . S
C1358 C1356 1.395 . S
C1358 C1361 1.403 . S
C1359 C1356 1.403 . S
C1359 C1360 1.524 . S
C1359 C1363 1.400 . S
C1360 H1345 0.960 . S
C1360 H1346 0.960 . S
C1360 H1347 0.960 . S
C1360 C1359 1.524 . S
C1361 C1358 1.403 . S
C1361 C1362 1.392 . S
C1361 C1365 1.495 . S
C1362 C1361 1.392 . S
C1362 C1363 1.385 . S
C1362 C1364 1.478 . S
C1363 H1357 0.930 . S
C1363 C1359 1.400 . S
C1363 C1362 1.385 . S
C1364 C1362 1.478 . S
C1364 C1366 1.381 . S
C1364 C1370 1.383 . S
C1365 C1361 1.495 . S
C1365 H1371 0.959 . S
C1365 H1372 0.961 . S
C1365 H1373 0.960 . S
C1366 C1364 1.381 . S
C1366 C1367 1.394 . S
C1366 H1374 0.930 . S
C1367 C1366 1.394 . S
C1367 C1368 1.383 . S
C1367 H1375 0.929 . S
C1368 C1367 1.383 . S
C1368 C1369 1.377 . S
C1369 H1353 0.930 . S
C1369 C1368 1.377 . S
C1369 C1370 1.379 . S
C1370 H1354 0.931 . S
C1370 C1364 1.383 . S
C1370 C1369 1.379 . S
H1371 C1365 0.959 . S
H1372 C1365 0.961 . S
H1373 C1365 0.960 . S
H1374 C1366 0.930 . S
H1375 C1367 0.929 . S
C252 C113 1.565 . S
C233 C0 1.566 . S
C288 C139 1.563 . S
C269 C26 1.567 . S
C324 C153 1.562 . S
C305 C40 1.571 . S
C360 C155 1.550 . S
C341 C43 1.571 . S
C377 C57 1.569 . S
C396 C152 1.560 . S
C432 C154 1.560 . S
C413 C70 1.565 . S
C468 C112 1.555 . S
C449 C97 1.571 . S
C504 C138 1.552 . S
C485 C111 1.570 . S
C540 C140 1.567 . S
C521 C98 1.569 . S
C576 C166 1.567 . S
C557 C68 1.570 . S
C612 C124 1.545 . S
C593 C83 1.566 . S
C648 C126 1.567 . S
C629 C84 1.565 . S
C684 C125 1.559 . S
C665 C15 1.570 . S
C720 C127 1.548 . S
C701 C29 1.571 . S
C756 C141 1.564 . S
C737 C54 1.565 . S
C792 C167 1.557 . S
C773 C13 1.566 . S
C828 C169 1.546 . S
C809 C99 1.569 . S
C845 C69 1.568 . S
C864 C195 1.555 . S
C881 C82 1.567 . S
C900 C208 1.550 . S
C917 C85 1.567 . S
C936 C211 1.551 . S
C953 C14 1.569 . S
C972 C209 1.564 . S
C989 C28 1.568 . S
C1008 C210 1.555 . S
C1025 C55 1.568 . S
C1044 C168 1.555 . S
C1080 C194 1.546 . S
C1061 C12 1.564 . S
C1116 C197 1.552 . S
C1097 C1 1.566 . S
C1133 C27 1.568 . S
C1152 C222 1.563 . S
C1169 C41 1.569 . S
C1188 C180 1.545 . S
C1205 C42 1.569 . S
C1224 C182 1.562 . S
C1260 C181 1.555 . S
C1241 C56 1.572 . S
C1296 C183 1.547 . S
C1277 C71 1.572 . S
C1313 C96 1.569 . S
C1332 C196 1.561 . S
C1368 C223 1.567 . S
C1349 C110 1.570 . S
